drugbank_target|P28222 5-hydroxytryptamine receptor 1B (DB00216; DB00246; DB00247; DB00248; DB00315; DB00320; DB00321; DB00363; DB00408; DB00543; DB00571; DB00589; DB00669; DB00696; DB00714; DB00904; DB00918; DB00952; DB00953; DB00960; DB00998; DB01186; DB01200; DB01224; DB01238; DB01359; DB01392; DB04884; DB06096; DB06153; DB06216; DB08807; DB09068; DB14185)
 OpenBabel12092119403D

  0  0  0     0  0            999 V3000
M  V30 BEGIN CTAB
M  V30 COUNTS 6215 6293 0 0 0
M  V30 BEGIN ATOM
M  V30 1 H -0.908 1.98254 -0.117106 0
M  V30 2 N 0 1.576 0 0
M  V30 3 C 0.933 2.03868 1.02534 0
M  V30 4 C 1.911 0.928543 1.3348 0
M  V30 5 O 3.095 1.19667 1.45644 0
M  V30 6 C 0.222 2.43627 2.35294 0
M  V30 7 C -0.732 3.65373 2.2001 0
M  V30 8 S 0.101 5.13292 1.52614 0
M  V30 9 C 1.257 5.56322 2.86805 0
M  V30 10 H 1.49 2.90518 0.631377 0
M  V30 11 H -0.977 1.52953 0.210867 0
M  V30 12 H 0.981 2.67203 3.11629 0
M  V30 13 H -0.358 1.57376 2.7183 0
M  V30 14 H -1.165 3.90944 3.18086 0
M  V30 15 H -1.563 3.418 1.51819 0
M  V30 16 H 0.729 5.58782 3.83104 0
M  V30 17 H 1.672 6.56266 2.65933 0
M  V30 18 H 2.08 4.83886 2.90714 0
M  V30 19 N 1.4781 -0.272755 1.55222 0
M  V30 20 C 2.3881 -1.35918 1.91216 0
M  V30 21 C 3.4041 -1.54026 0.809436 0
M  V30 22 O 4.5801 -1.68148 1.10852 0
M  V30 23 C 1.6451 -2.69834 2.17693 0
M  V30 24 C 0.7061 -2.6047 3.41253 0
M  V30 25 C -0.0609 -3.88 3.66458 0
M  V30 26 O 0.1621 -4.88693 2.94169 0
M  V30 27 O -0.9039 -3.88189 4.59992 0
M  V30 28 H 2.9221 -1.0839 2.83699 0
M  V30 29 H 0.5071 -0.471301 1.41771 0
M  V30 30 H 2.3891 -3.49017 2.36147 0
M  V30 31 H 1.0641 -2.97148 1.28392 0
M  V30 32 H -0.0289 -1.79663 3.28134 0
M  V30 33 H 1.3041 -2.38106 4.30774 0
M  V30 34 N 2.9562 -1.48159 -0.537278 0
M  V30 35 C 3.8662 -1.64807 -1.6696 0
M  V30 36 C 4.8822 -0.530651 -1.65711 0
M  V30 37 O 6.0582 -0.800784 -1.84796 0
M  V30 38 C 3.1232 -1.67708 -3.03438 0
M  V30 39 C 2.1842 -2.91025 -3.156 0
M  V30 40 C 1.4172 -2.93778 -4.45567 0
M  V30 41 O 1.6402 -2.05153 -5.3223 0
M  V30 42 O 0.5742 -3.85868 -4.61941 0
M  V30 43 H 4.4002 -2.6066 -1.55853 0
M  V30 44 H 1.9852 -1.31475 -0.709549 0
M  V30 45 H 3.8672 -1.7218 -3.84619 0
M  V30 46 H 2.5422 -0.750278 -3.14885 0
M  V30 47 H 1.4492 -2.92089 -2.33741 0
M  V30 48 H 2.7822 -3.83065 -3.09066 0
M  V30 49 N 4.4343 0.785586 -1.36625 0
M  V30 50 C 5.8453 1.36101 -1.27803 0
M  V30 51 C 6.1963 1.96035 0.0804875 0
M  V30 52 O 5.3213 1.92834 0.982042 0
M  V30 53 C 5.9163 2.47442 -2.31426 0
M  V30 54 C 4.4753 3.00789 -2.26281 0
M  V30 55 C 3.6223 1.73896 -2.15999 0
M  V30 56 H 6.5733 0.586928 -1.47448 0
M  V30 57 H 6.5943 3.2656 -1.95291 0
M  V30 58 H 6.1063 2.03791 -3.30289 0
M  V30 59 H 4.2073 3.48851 -1.30896 0
M  V30 60 H 4.3203 3.57343 -3.19128 0
M  V30 61 H 2.6843 1.9628 -1.62316 0
M  V30 62 H 3.4673 1.32368 -3.16755 0
M  V30 63 N 5.9124 1.20967 1.01018 0
M  V30 64 C 7.1604 1.02172 1.74371 0
M  V30 65 C 7.4814 -0.446414 1.89821 0
M  V30 66 O 6.7514 -1.32234 1.44537 0
M  V30 67 H 5.3314 0.375066 0.646014 0
M  V30 68 H 7.9934 1.52187 1.21758 0
M  V30 69 H 7.0894 1.48538 2.74487 0
M  V30 70 N 7.3905 -1.2043 1.01659 0
M  V30 71 C 8.3535 -2.21433 0.591616 0
M  V30 72 C 9.3535 -1.57203 -0.338226 0
M  V30 73 O 10.5435 -1.73737 -0.126918 0
M  V30 74 C 7.6755 -3.40628 -0.136058 0
M  V30 75 H 8.8685 -2.60545 1.48514 0
M  V30 76 H 6.4215 -1.33893 0.806379 0
M  V30 77 H 7.1565 -3.07019 -1.04449 0
M  V30 78 H 6.9415 -3.88475 0.531917 0
M  V30 79 H 8.4315 -4.15475 -0.420735 0
M  V30 80 N 8.8686 -0.792821 -1.36206 0
M  V30 81 C 9.8006 -0.151469 -2.28699 0
M  V30 82 C 10.8136 0.641262 -1.49638 0
M  V30 83 O 12.0026 0.475885 -1.72039 0
M  V30 84 C 9.1026 0.808424 -3.29117 0
M  V30 85 C 8.2756 0.0650202 -4.37352 0
M  V30 86 C 7.3346 0.941358 -5.17711 0
M  V30 87 O 6.3606 0.397352 -5.67811 0
M  V30 88 N 7.5626 2.2652 -5.3448 0
M  V30 89 H 10.3276 -0.945982 -2.84379 0
M  V30 90 H 7.8886 -0.647032 -1.48409 0
M  V30 91 H 9.8806 1.3986 -3.79765 0
M  V30 92 H 8.4506 1.5038 -2.74052 0
M  V30 93 H 7.6706 -0.706255 -3.87822 0
M  V30 94 H 8.9586 -0.447847 -5.06825 0
M  V30 95 H 8.3566 2.73128 -4.95396 0
M  V30 96 H 6.9136 2.80493 -5.88359 0
M  V30 97 N 10.3467 1.47872 -0.545128 0
M  V30 98 C 11.5867 2.04391 -0.0187854 0
M  V30 99 C 11.9507 1.41162 1.30144 0
M  V30 100 O 13.1517 1.88656 1.91474 0
M  V30 101 C 11.4227 3.57299 0.0850867 0
M  V30 102 S 12.9817 4.35221 0.559302 0
M  V30 103 H 9.7997 0.710737 -0.0193301 0
M  V30 104 H 12.4017 1.81395 -0.729125 0
M  V30 105 H 11.1057 4.00847 -0.880351 0
M  V30 106 H 10.6367 3.84773 0.819348 0
M  V30 107 H 12.6517 4.61571 1.82118 0
M  V30 108 N 11.8248 0.280983 1.55075 0
M  V30 109 C 12.7878 -0.590896 2.21452 0
M  V30 110 C 13.7878 -1.07682 1.19421 0
M  V30 111 O 14.9778 -0.97605 1.44288 0
M  V30 112 C 12.1098 -1.81587 2.88511 0
M  V30 113 H 13.3028 -0.0112554 2.99898 0
M  V30 114 H 10.8558 0.0316438 1.56268 0
M  V30 115 H 11.5908 -2.43587 2.14093 0
M  V30 116 H 11.3758 -1.4753 3.63287 0
M  V30 117 H 12.8658 -2.43575 3.39206 0
M  V30 118 N 13.3029 -1.57598 0.00835791 0
M  V30 119 C 14.7139 -1.7892 -0.53333 0
M  V30 120 C 15.0649 -0.916609 -1.73473 0
M  V30 121 O 14.1899 -0.121336 -2.1606 0
M  V30 122 C 14.7849 -3.24488 -0.974313 0
M  V30 123 C 13.3439 -3.46878 -1.46125 0
M  V30 124 C 12.4909 -2.74157 -0.416302 0
M  V30 125 H 15.4419 -1.56958 0.234495 0
M  V30 126 H 15.4629 -3.3306 -1.83988 0
M  V30 127 H 14.9749 -3.87972 -0.099718 0
M  V30 128 H 13.0759 -2.8862 -2.35646 0
M  V30 129 H 13.1889 -4.55572 -1.48295 0
M  V30 130 H 11.5529 -2.39022 -0.87981 0
M  V30 131 H 12.3359 -3.40345 0.44947 0
M  V30 132 N 14.781 0.264519 -1.55364 0
M  V30 133 C 16.192 0.834936 -1.6699 0
M  V30 134 C 16.543 1.86718 -0.602552 0
M  V30 135 O 15.668 2.14899 0.254425 0
M  V30 136 C 16.263 1.5212 -3.02729 0
M  V30 137 C 14.822 2.03954 -3.16354 0
M  V30 138 C 13.969 0.884498 -2.62815 0
M  V30 139 H 16.92 0.0406869 -1.58648 0
M  V30 140 H 16.941 2.38853 -2.96191 0
M  V30 141 H 16.453 0.769668 -3.80392 0
M  V30 142 H 14.554 2.82041 -2.43482 0
M  V30 143 H 14.667 2.24902 -4.23032 0
M  V30 144 H 13.031 1.2802 -2.20188 0
M  V30 145 H 13.814 0.14634 -3.42988 0
M  V30 146 N 16.2591 1.48442 0.529413 0
M  V30 147 C 17.6701 1.5002 1.11134 0
M  V30 148 C 18.0211 0.27031 1.94329 0
M  V30 149 O 17.1461 -0.622507 2.07253 0
M  V30 150 C 17.7411 2.71834 2.02217 0
M  V30 151 C 16.3001 2.76283 2.55627 0
M  V30 152 C 15.4471 2.43542 1.326 0
M  V30 153 H 18.3981 1.5555 0.314641 0
M  V30 154 H 18.4191 2.50384 2.8651 0
M  V30 155 H 17.9311 3.61331 1.41639 0
M  V30 156 H 16.0321 1.90995 3.19924 0
M  V30 157 H 16.1451 3.77725 2.94721 0
M  V30 158 H 14.5091 1.94709 1.64196 0
M  V30 159 H 15.2921 3.3528 0.737734 0
M  V30 160 N 17.7372 -0.778329 1.37039 0
M  V30 161 C 19.1482 -1.35421 1.28523 0
M  V30 162 C 19.4992 -1.96075 -0.0700901 0
M  V30 163 O 18.6242 -1.93352 -0.971801 0
M  V30 164 C 19.2192 -2.46211 2.32735 0
M  V30 165 C 17.7782 -2.99585 2.27873 0
M  V30 166 C 16.9252 -1.72748 2.16918 0
M  V30 167 H 19.8762 -0.5791 1.47757 0
M  V30 168 H 19.8972 -3.2552 1.9702 0
M  V30 169 H 19.4092 -2.02036 3.31365 0
M  V30 170 H 17.5102 -3.48152 1.32745 0
M  V30 171 H 17.6232 -3.55646 3.21018 0
M  V30 172 H 15.9872 -1.95416 1.63354 0
M  V30 173 H 16.7702 -1.30686 3.17452 0
M  V30 174 N 19.2153 -1.21501 -1.00376 0
M  V30 175 C 20.1783 -0.976927 -2.07337 0
M  V30 176 C 21.1783 0.0525322 -1.60714 0
M  V30 177 O 22.3683 -0.184869 -1.73216 0
M  V30 178 C 19.5003 -0.473423 -3.37597 0
M  V30 179 H 20.6933 -1.92587 -2.29892 0
M  V30 180 H 18.2463 -1.03217 -1.17371 0
M  V30 181 H 18.9813 0.480379 -3.20722 0
M  V30 182 H 18.7663 -1.216 -3.72768 0
M  V30 183 H 20.2563 -0.32675 -4.1632 0
M  V30 184 N 20.6934 1.19889 -1.02296 0
M  V30 185 C 21.9414 1.89046 -0.714558 0
M  V30 186 C 22.2624 1.79636 0.758681 0
M  V30 187 O 21.5324 1.20292 1.54618 0
M  V30 188 H 20.1124 0.699802 -0.261317 0
M  V30 189 H 22.7744 1.45574 -1.29592 0
M  V30 190 H 21.8704 2.95524 -1.0036 0
M  V30 191 N 22.1715 0.800033 1.35784 0
M  V30 192 C 23.3965 0.388511 2.03729 0
M  V30 193 C 23.8215 -0.990481 1.5991 0
M  V30 194 O 23.1795 -1.64013 0.772612 0
M  V30 195 C 23.2275 0.4726 3.5749 0
M  V30 196 O 22.3315 -0.51646 4.09153 0
M  V30 197 H 21.6725 0.163271 0.643614 0
M  V30 198 H 24.2025 1.0841 1.73518 0
M  V30 199 H 24.2125 0.34003 4.06581 0
M  V30 200 H 22.8875 1.47848 3.88734 0
M  V30 201 H 21.4645 -0.344673 3.71304 0
M  V30 202 N 23.6496 -1.47581 0.552962 0
M  V30 203 C 24.5596 -2.33743 -0.200353 0
M  V30 204 C 25.5756 -1.47928 -0.916151 0
M  V30 205 O 26.7516 -1.80865 -0.885993 0
M  V30 206 C 23.8166 -3.24536 -1.21973 0
M  V30 207 C 22.8776 -4.26238 -0.511819 0
M  V30 208 C 22.1106 -5.12693 -1.48263 0
M  V30 209 O 22.3336 -5.01525 -2.71714 0
M  V30 210 O 21.2676 -5.93375 -1.00945 0
M  V30 211 H 25.0936 -2.9945 0.506304 0
M  V30 212 H 22.6786 -1.46071 0.313622 0
M  V30 213 H 24.5606 -3.80631 -1.80827 0
M  V30 214 H 23.2356 -2.61462 -1.90839 0
M  V30 215 H 22.1426 -3.73914 0.117799 0
M  V30 216 H 23.4756 -4.92014 0.135308 0
M  V30 217 N 25.1277 -0.289203 -1.54924 0
M  V30 218 C 26.3557 0.326463 -2.04308 0
M  V30 219 C 26.7707 1.48413 -1.16701 0
M  V30 220 O 26.1277 1.81507 -0.190087 0
M  V30 221 C 26.1787 0.794014 -3.52672 0
M  V30 222 O 25.8997 -0.317564 -4.36948 0
M  V30 223 C 27.4007 1.47605 -4.18004 0
M  V30 224 H 24.6207 0.0726272 -0.667058 0
M  V30 225 H 27.1647 -0.425401 -2.00026 0
M  V30 226 H 25.3197 1.49593 -3.57352 0
M  V30 227 H 25.7337 0.0443186 -5.24481 0
M  V30 228 H 27.2077 1.75447 -5.23376 0
M  V30 229 H 27.6847 2.41224 -3.67025 0
M  V30 230 H 28.2907 0.81762 -4.17367 0
M  V30 231 N 26.6058 1.57591 -0.0167156 0
M  V30 232 C 27.8518 1.92399 0.659861 0
M  V30 233 C 28.2068 0.892561 1.70444 0
M  V30 234 O 27.4998 -0.0930755 1.91374 0
M  V30 235 C 27.6938 3.3172 1.33029 0
M  V30 236 C 27.5228 4.48319 0.352174 0
M  V30 237 C 26.2928 5.05281 -0.0434883 0
M  V30 238 C 28.4908 5.12831 -0.388474 0
M  V30 239 N 26.4728 6.05399 -1.01807 0
M  V30 240 C 27.8438 6.07934 -1.2172 0
M  V30 241 C 29.8988 4.95858 -0.450513 0
M  V30 242 C 28.6018 6.87891 -2.10235 0
M  V30 243 C 30.6278 5.76413 -1.32295 0
M  V30 244 C 29.9898 6.71123 -2.13948 0
M  V30 245 H 26.0888 0.752106 0.21415 0
M  V30 246 H 28.6728 1.94532 -0.0809846 0
M  V30 247 H 26.8438 3.3043 2.04134 0
M  V30 248 H 28.5758 3.5391 1.9629 0
M  V30 249 H 25.3308 4.7246 0.328384 0
M  V30 250 H 25.7548 6.60145 -1.50123 0
M  V30 251 H 30.3968 4.22472 0.166512 0
M  V30 252 H 28.1148 7.60591 -2.72997 0
M  V30 253 H 31.7008 5.65317 -1.37508 0
M  V30 254 H 30.5808 7.3237 -2.80364 0
M  V30 255 N 28.0839 -0.256276 1.55502 0
M  V30 256 C 29.3299 -0.987079 1.77157 0
M  V30 257 C 29.6629 -1.85327 0.580315 0
M  V30 258 O 28.9379 -1.89874 -0.421686 0
M  V30 259 C 29.2209 -1.85553 3.08613 0
M  V30 260 C 29.0739 -1.01816 4.38125 0
M  V30 261 C 30.3929 -2.8397 3.36228 0
M  V30 262 H 27.5119 -0.357428 0.644526 0
M  V30 263 H 30.1539 -0.258239 1.88237 0
M  V30 264 H 28.3039 -2.47695 2.99298 0
M  V30 265 H 29.9759 -0.416159 4.59419 0
M  V30 266 H 28.2189 -0.322178 4.32602 0
M  V30 267 H 28.8899 -1.65939 5.26468 0
M  V30 268 H 31.3659 -2.31964 3.45445 0
M  V30 269 H 30.2419 -3.41864 4.29442 0
M  V30 270 H 30.5029 -3.59955 2.56681 0
M  V30 271 N 29.562 -1.4872 -0.521534 0
M  V30 272 C 30.973 -1.50607 -1.10337 0
M  V30 273 C 31.324 -0.280612 -1.94183 0
M  V30 274 O 30.449 0.611507 -2.0758 0
M  V30 275 C 31.044 -2.72903 -2.00772 0
M  V30 276 C 29.603 -2.77634 -2.54158 0
M  V30 277 C 28.75 -2.44241 -1.31307 0
M  V30 278 H 31.701 -1.55714 -0.306388 0
M  V30 279 H 31.722 -2.519 -2.85178 0
M  V30 280 H 31.234 -3.62077 -1.39721 0
M  V30 281 H 29.335 -1.92689 -3.18907 0
M  V30 282 H 29.448 -3.79283 -2.92714 0
M  V30 283 H 27.812 -1.95577 -1.63161 0
M  V30 284 H 28.595 -3.35666 -0.719943 0
M  V30 285 N 31.0401 0.771051 -1.3745 0
M  V30 286 C 31.9721 1.89352 -1.29146 0
M  V30 287 C 32.9851 1.61477 -0.207124 0
M  V30 288 O 34.1741 1.72382 -0.463324 0
M  V30 289 C 31.2741 3.24596 -0.974195 0
M  V30 290 C 30.4471 3.80111 -2.16413 0
M  V30 291 C 29.5061 4.93832 -1.81703 0
M  V30 292 O 28.5321 5.09382 -2.54006 0
M  V30 293 N 29.7341 5.75483 -0.761573 0
M  V30 294 H 32.4991 1.96991 -2.25864 0
M  V30 295 H 30.0601 0.950191 -1.31084 0
M  V30 296 H 32.0521 3.98193 -0.722828 0
M  V30 297 H 30.6221 3.12454 -0.0955527 0
M  V30 298 H 29.8421 2.98284 -2.57721 0
M  V30 299 H 31.1301 4.13932 -2.95867 0
M  V30 300 H 30.5281 5.65469 -0.161609 0
M  V30 301 H 29.0851 6.49302 -0.570064 0
M  V30 302 N 32.5182 1.22032 0.997298 0
M  V30 303 C 33.4812 0.987909 2.06816 0
M  V30 304 C 34.4812 -0.0440084 1.6074 0
M  V30 305 O 35.6712 0.194053 1.73116 0
M  V30 306 C 32.8032 0.49132 3.37341 0
M  V30 307 H 33.9962 1.93803 2.28868 0
M  V30 308 H 31.5492 1.03838 1.16822 0
M  V30 309 H 32.2842 -0.463364 3.20973 0
M  V30 310 H 32.0692 1.23575 3.72118 0
M  V30 311 H 33.5592 0.348824 4.16141 0
M  V30 312 N 33.9963 -1.19345 1.0293 0
M  V30 313 C 34.9443 -2.24621 0.604001 0
M  V30 314 C 35.9383 -1.65452 -0.363587 0
M  V30 315 O 37.1443 -1.78497 -0.23212 0
M  V30 316 H 33.5193 -0.730858 0.177061 0
M  V30 317 H 35.4903 -2.5781 1.50255 0
M  V30 318 C 34.2393 -3.47688 -0.0289127 0
M  V30 319 H 33.5623 -3.93505 0.706651 0
M  V30 320 H 35.0023 -4.23011 -0.289432 0
M  V30 321 C 33.4613 -3.11817 -1.2756 0
M  V30 322 O 33.9913 -3.2451 -2.36762 0
M  V30 323 N 32.1973 -2.66246 -1.16453 0
M  V30 324 H 31.7443 -2.56118 -0.275914 0
M  V30 325 H 31.7023 -2.42617 -1.99961 0
M  V30 326 N 35.4744 -0.807222 -1.35358 0
M  V30 327 C 36.4044 -0.232509 -2.3234 0
M  V30 328 C 37.3854 0.642386 -1.57504 0
M  V30 329 O 38.5704 0.572526 -1.85569 0
M  V30 330 C 35.7004 0.619238 -3.41735 0
M  V30 331 C 34.6544 -0.157215 -4.27711 0
M  V30 332 C 33.9804 0.816273 -5.28433 0
M  V30 333 C 35.2804 -1.35656 -5.04376 0
M  V30 334 H 36.9744 -1.04276 -2.80654 0
M  V30 335 H 34.5204 -0.50288 -1.34934 0
M  V30 336 H 36.4734 1.03137 -4.08584 0
M  V30 337 H 35.1974 1.46239 -2.92031 0
M  V30 338 H 33.8564 -0.550525 -3.62443 0
M  V30 339 H 33.5044 1.65494 -4.74996 0
M  V30 340 H 33.2044 0.301067 -5.86828 0
M  V30 341 H 34.7284 1.22659 -5.98153 0
M  V30 342 H 36.1424 -1.01927 -5.64166 0
M  V30 343 H 34.5394 -1.8063 -5.7227 0
M  V30 344 H 35.6094 -2.14288 -4.34981 0
M  V30 345 N 36.9525 1.47285 -0.560781 0
M  V30 346 C 38.1775 2.07359 -0.0410566 0
M  V30 347 C 38.6025 1.41017 1.24483 0
M  V30 348 O 37.9605 0.486368 1.74654 0
M  V30 349 C 38.0085 3.6035 0.134123 0
M  V30 350 O 37.1125 3.94681 1.19587 0
M  V30 351 H 36.4535 0.661887 -0.0529291 0
M  V30 352 H 38.9835 1.89252 -0.777482 0
M  V30 353 H 38.9935 4.0652 0.347207 0
M  V30 354 H 37.6685 4.08034 -0.805047 0
M  V30 355 H 36.2455 3.60251 0.962987 0
M  V30 356 N 38.4306 0.297415 1.54768 0
M  V30 357 C 39.6556 -0.318435 2.04941 0
M  V30 358 C 40.0806 -1.4701 1.17345 0
M  V30 359 O 39.4386 -1.80436 0.176758 0
M  V30 360 C 39.4866 -0.755749 3.52592 0
M  V30 361 O 38.5906 -1.86088 3.68028 0
M  V30 362 H 37.9316 -0.062421 0.661059 0
M  V30 363 H 40.4616 0.438215 1.99852 0
M  V30 364 H 40.4716 -1.04552 3.94376 0
M  V30 365 H 39.1466 0.0867233 4.1581 0
M  V30 366 H 37.7236 -1.57193 3.38149 0
M  V30 367 N 39.9087 -1.5758 0.0250728 0
M  V30 368 C 40.8717 -2.08896 -0.943139 0
M  V30 369 C 41.8717 -1.00321 -1.25668 0
M  V30 370 O 43.0617 -1.26495 -1.19769 0
M  V30 371 C 40.1937 -2.55143 -2.26086 0
M  V30 372 H 41.3867 -2.95723 -0.498775 0
M  V30 373 H 38.9397 -1.54703 -0.222888 0
M  V30 374 H 39.6747 -1.71633 -2.75159 0
M  V30 375 H 39.4597 -3.34461 -2.04641 0
M  V30 376 H 40.9497 -2.95083 -2.95492 0
M  V30 377 N 41.3868 0.248026 -1.55636 0
M  V30 378 C 42.7978 0.817177 -1.67866 0
M  V30 379 C 43.1488 1.86069 -0.622322 0
M  V30 380 O 42.2738 2.15157 0.231618 0
M  V30 381 C 42.8688 1.489 -3.04326 0
M  V30 382 C 41.4278 2.00587 -3.185 0
M  V30 383 C 40.5748 0.856573 -2.63739 0
M  V30 384 H 43.5258 0.0238579 -1.58682 0
M  V30 385 H 43.5468 2.35698 -2.98708 0
M  V30 386 H 43.0588 0.729279 -3.81186 0
M  V30 387 H 41.1598 2.79443 -2.4646 0
M  V30 388 H 41.2728 2.20402 -4.25393 0
M  V30 389 H 39.6368 1.25678 -2.21534 0
M  V30 390 H 40.4198 0.109953 -3.43124 0
M  V30 391 N 42.8649 1.48995 0.513639 0
M  V30 392 C 44.0899 1.61792 1.29762 0
M  V30 393 C 44.5149 0.284475 1.85936 0
M  V30 394 O 43.8729 -0.746185 1.65232 0
M  V30 395 C 43.9209 2.67993 2.41272 0
M  V30 396 O 43.0249 2.26287 3.44772 0
M  V30 397 H 42.3659 0.541963 0.38363 0
M  V30 398 H 44.8959 1.95097 0.616307 0
M  V30 399 H 44.9059 2.89772 2.87221 0
M  V30 400 H 43.5809 3.64791 1.9975 0
M  V30 401 H 42.1579 2.14788 3.04829 0
M  V30 402 N 44.343 -0.763751 1.37857 0
M  V30 403 C 45.275 -1.88664 1.30148 0
M  V30 404 C 46.288 -1.61365 0.215685 0
M  V30 405 O 47.477 -1.72134 0.472459 0
M  V30 406 C 44.577 -3.24075 0.991396 0
M  V30 407 C 43.75 -3.78958 2.18426 0
M  V30 408 C 42.809 -4.92862 1.8432 0
M  V30 409 O 41.835 -5.08027 2.56704 0
M  V30 410 N 43.037 -5.75071 0.792081 0
M  V30 411 H 45.802 -1.95791 2.26905 0
M  V30 412 H 43.363 -0.943226 1.31586 0
M  V30 413 H 45.355 -3.97804 0.743935 0
M  V30 414 H 43.925 -3.12399 0.112122 0
M  V30 415 H 43.145 -2.96913 2.59299 0
M  V30 416 H 44.433 -4.12357 2.98058 0
M  V30 417 H 43.831 -5.65375 0.191595 0
M  V30 418 H 42.388 -6.48991 0.60449 0
M  V30 419 N 45.8211 -1.22559 -0.990812 0
M  V30 420 C 46.7691 -0.994798 -2.10253 0
M  V30 421 C 47.7631 0.0627798 -1.69284 0
M  V30 422 O 48.9691 -0.0898392 -1.79776 0
M  V30 423 H 45.3441 -0.304527 -0.687581 0
M  V30 424 H 47.3151 -1.93812 -2.26891 0
M  V30 425 C 46.0641 -0.591439 -3.42633 0
M  V30 426 H 45.3871 -1.3969 -3.74602 0
M  V30 427 H 46.8271 -0.469385 -4.21394 0
M  V30 428 C 45.2861 0.699232 -3.29564 0
M  V30 429 O 45.8161 1.75112 -3.61523 0
M  V30 430 N 44.0221 0.671182 -2.82743 0
M  V30 431 H 43.5691 -0.185136 -2.56934 0
M  V30 432 H 43.5271 1.53502 -2.7438 0
M  V30 433 N 47.2992 1.18797 -1.03562 0
M  V30 434 C 48.5392 1.90346 -0.744832 0
M  V30 435 C 48.9032 1.78231 0.713972 0
M  V30 436 O 50.1042 2.44441 1.11813 0
M  V30 437 C 48.3752 3.36942 -1.19184 0
M  V30 438 S 49.9342 4.26638 -1.02593 0
M  V30 439 H 46.7522 0.657343 -0.270963 0
M  V30 440 H 49.3542 1.43579 -1.32685 0
M  V30 441 H 48.0582 3.43287 -2.24905 0
M  V30 442 H 47.5892 3.88745 -0.603397 0
M  V30 443 H 49.6042 4.96164 0.0596033 0
M  V30 444 N 48.7773 0.814389 1.34928 0
M  V30 445 C 50.0023 0.410097 2.03305 0
M  V30 446 C 50.4273 -0.973464 1.60951 0
M  V30 447 O 49.7853 -1.63185 0.789964 0
M  V30 448 C 49.8333 0.51049 3.56968 0
M  V30 449 O 48.9373 -0.473035 4.09678 0
M  V30 450 H 48.2783 0.170088 0.641846 0
M  V30 451 H 50.8083 1.10244 1.72358 0
M  V30 452 H 50.8183 0.383135 4.06197 0
M  V30 453 H 49.4933 1.51963 3.87144 0
M  V30 454 H 48.0703 -0.305272 3.71648 0
M  V30 455 N 50.2554 -1.46986 0.568584 0
M  V30 456 C 51.2184 -2.28624 -0.162366 0
M  V30 457 C 52.2184 -1.37596 -0.832103 0
M  V30 458 O 53.4084 -1.60115 -0.68622 0
M  V30 459 C 50.5404 -3.17596 -1.23878 0
M  V30 460 H 51.7334 -2.94722 0.554899 0
M  V30 461 H 49.2864 -1.52863 0.325976 0
M  V30 462 H 50.0214 -2.56214 -1.98808 0
M  V30 463 H 49.8064 -3.846 -0.763219 0
M  V30 464 H 51.2964 -3.79078 -1.75185 0
M  V30 465 N 51.7335 -0.305618 -1.54608 0
M  V30 466 C 52.6805 0.568421 -2.23691 0
M  V30 467 C 53.6505 1.12592 -1.22116 0
M  V30 468 O 54.8355 1.16959 -1.50749 0
M  V30 469 C 51.9755 1.7322 -2.98477 0
M  V30 470 C 51.0885 1.20566 -4.14835 0
M  V30 471 C 50.2235 2.33368 -4.77193 0
M  V30 472 C 49.2625 1.7787 -5.85686 0
M  V30 473 N 48.3995 2.84263 -6.4198 0
M  V30 474 H 53.2395 -0.0272867 -2.97988 0
M  V30 475 H 50.7765 -0.0252363 -1.47078 0
M  V30 476 H 52.7345 2.41675 -3.40072 0
M  V30 477 H 51.3645 2.29947 -2.26548 0
M  V30 478 H 50.4165 0.413223 -3.78149 0
M  V30 479 H 51.7285 0.759417 -4.92985 0
M  V30 480 H 50.8825 3.09761 -5.21664 0
M  V30 481 H 49.6215 2.8132 -3.98385 0
M  V30 482 H 48.6265 0.99968 -5.40635 0
M  V30 483 H 49.8515 1.30816 -6.66381 0
M  V30 484 H 47.7975 3.31541 -5.66053 0
M  V30 485 H 47.7145 2.44149 -7.15491 0
M  V30 486 H 48.9825 3.6054 -6.91109 0
M  V30 487 N 53.2116 1.57565 -0.0334293 0
M  V30 488 C 54.4886 1.83282 0.683163 0
M  V30 489 C 54.8686 0.91823 1.90084 0
M  V30 490 O 54.2166 -0.025113 2.28486 0
M  V30 491 C 54.4266 3.32599 1.0573 0
M  V30 492 C 55.7746 3.99179 1.44711 0
M  V30 493 O 56.7986 3.3712 1.15015 0
M  V30 494 O 55.6576 5.08565 2.0006 0
M  V30 495 H 52.7516 0.755869 0.335546 0
M  V30 496 H 55.2976 1.69589 -0.0614402 0
M  V30 497 H 54.0696 3.90834 0.190828 0
M  V30 498 H 53.6926 3.51415 1.85993 0
M  V30 499 N 54.6897 -0.239769 1.55765 0
M  V30 500 C 55.9197 -0.982743 1.8173 0
M  V30 501 C 56.3277 -1.7917 0.607835 0
M  V30 502 O 55.6707 -1.78525 -0.432973 0
M  V30 503 C 55.7327 -1.96332 3.01155 0
M  V30 504 C 55.3967 -1.34062 4.36894 0
M  V30 505 C 56.3937 -0.739539 5.14613 0
M  V30 506 C 54.0787 -1.35784 4.83599 0
M  V30 507 C 56.0727 -0.163989 6.37189 0
M  V30 508 C 53.7597 -0.778441 6.06122 0
M  V30 509 C 54.7577 -0.182548 6.82756 0
M  V30 510 O 54.4457 0.387887 8.02964 0
M  V30 511 H 54.1777 -0.294481 0.608487 0
M  V30 512 H 56.7317 -0.26572 2.03674 0
M  V30 513 H 54.9617 -2.71884 2.74984 0
M  V30 514 H 56.6507 -2.57032 3.14149 0
M  V30 515 H 57.4167 -0.718687 4.79646 0
M  V30 516 H 53.2957 -1.81105 4.23936 0
M  V30 517 H 56.8397 0.301753 6.96947 0
M  V30 518 H 52.7367 -0.796645 6.40565 0
M  V30 519 H 53.5047 0.28044 8.18019 0
M  V30 520 N 56.1678 -1.49265 -0.50573 0
M  V30 521 C 57.4168 -1.57761 -1.25675 0
M  V30 522 C 57.7298 -0.267371 -1.93764 0
M  V30 523 O 58.9358 -0.230827 -2.70517 0
M  V30 524 C 57.3918 -2.78332 -2.28165 0
M  V30 525 C 56.9998 -4.16096 -1.66037 0
M  V30 526 C 58.7438 -2.96155 -3.04125 0
M  V30 527 C 56.6508 -5.27895 -2.6661 0
M  V30 528 H 55.5808 -0.587391 -0.472745 0
M  V30 529 H 58.2318 -1.75644 -0.53118 0
M  V30 530 H 56.6138 -2.53934 -3.03865 0
M  V30 531 H 57.7878 -4.50612 -0.963622 0
M  V30 532 H 56.1028 -4.03591 -1.02484 0
M  V30 533 H 58.6998 -3.76849 -3.79327 0
M  V30 534 H 59.0428 -2.06534 -3.61455 0
M  V30 535 H 59.5758 -3.2057 -2.35541 0
M  V30 536 H 56.3148 -6.1956 -2.14068 0
M  V30 537 H 55.8348 -4.97839 -3.34539 0
M  V30 538 H 57.5138 -5.57031 -3.29129 0
M  V30 539 N 57.6459 0.756429 -1.3826 0
M  V30 540 C 58.8759 1.54341 -1.3734 0
M  V30 541 C 59.2839 1.89159 0.0393917 0
M  V30 542 O 58.6269 1.5307 1.01565 0
M  V30 543 C 58.6889 2.87238 -2.16182 0
M  V30 544 C 58.3529 2.74973 -3.65019 0
M  V30 545 C 59.3499 2.44962 -4.58574 0
M  V30 546 C 57.0349 2.92515 -4.08338 0
M  V30 547 C 59.0289 2.32642 -5.93428 0
M  V30 548 C 56.7159 2.79815 -5.43274 0
M  V30 549 C 57.7139 2.49921 -6.35632 0
M  V30 550 O 57.4019 2.37275 -7.68086 0
M  V30 551 H 57.1339 0.484281 -0.471643 0
M  V30 552 H 59.6879 0.944152 -1.82414 0
M  V30 553 H 57.9179 3.49342 -1.65822 0
M  V30 554 H 59.6069 3.48731 -2.07705 0
M  V30 555 H 60.3729 2.31081 -4.26412 0
M  V30 556 H 56.2519 3.14781 -3.368 0
M  V30 557 H 59.7959 2.0923 -6.65484 0
M  V30 558 H 55.6929 2.93269 -5.75034 0
M  V30 559 H 56.4609 2.52509 -7.78577 0
M  V30 560 N 59.124 1.23083 0.984299 0
M  V30 561 C 60.056 0.96636 2.07832 0
M  V30 562 C 61.069 -0.0582135 1.62696 0
M  V30 563 O 62.258 0.176843 1.77622 0
M  V30 564 C 59.358 0.433397 3.36117 0
M  V30 565 C 58.531 1.51722 4.10243 0
M  V30 566 C 57.59 0.989821 5.16807 0
M  V30 567 O 56.616 1.67794 5.43906 0
M  V30 568 N 57.818 -0.184367 5.80207 0
M  V30 569 H 60.583 1.90824 2.31098 0
M  V30 570 H 58.144 1.13888 1.1507 0
M  V30 571 H 60.136 0.065699 4.04647 0
M  V30 572 H 58.706 -0.413806 3.09849 0
M  V30 573 H 57.926 2.05786 3.36223 0
M  V30 574 H 59.214 2.24619 4.56534 0
M  V30 575 H 58.612 -0.760062 5.60571 0
M  V30 576 H 57.169 -0.493366 6.4993 0
M  V30 577 N 60.6021 -1.18246 1.0419 0
M  V30 578 C 61.8791 -1.84121 0.660208 0
M  V30 579 C 62.2591 -1.92778 -0.860221 0
M  V30 580 O 61.6071 -1.45464 -1.76217 0
M  V30 581 C 61.8171 -3.22355 1.33747 0
M  V30 582 C 63.1651 -3.98376 1.46906 0
M  V30 583 O 64.1891 -3.31799 1.29568 0
M  V30 584 O 63.0481 -5.17665 1.75171 0
M  V30 585 H 60.1421 -0.794036 0.231161 0
M  V30 586 H 62.6881 -1.25628 1.14087 0
M  V30 587 H 61.4601 -3.10964 2.37522 0
M  V30 588 H 61.0831 -3.88506 0.845515 0
M  V30 589 N 62.0802 -0.821533 -1.34494 0
M  V30 590 C 63.3052 -0.420873 -2.03085 0
M  V30 591 C 63.7302 0.964915 -1.61465 0
M  V30 592 O 63.0882 1.62763 -0.798607 0
M  V30 593 C 63.1362 -0.529414 -3.56693 0
M  V30 594 O 62.2402 0.451302 -4.09923 0
M  V30 595 H 61.5812 -0.173489 -0.640935 0
M  V30 596 H 64.1112 -1.11157 -1.71771 0
M  V30 597 H 64.1212 -0.404671 -4.05988 0
M  V30 598 H 62.7962 -1.54014 -3.86332 0
M  V30 599 H 61.3732 0.285558 -3.71805 0
M  V30 600 N 63.5583 1.46682 -0.576371 0
M  V30 601 C 64.8073 2.01619 -0.0572825 0
M  V30 602 C 65.1203 1.45417 1.30818 0
M  V30 603 O 66.3263 1.92133 1.91825 0
M  V30 604 C 64.7823 3.59863 -0.0518371 0
M  V30 605 C 64.3903 4.25059 -1.41523 0
M  V30 606 C 66.1343 4.2248 0.413639 0
M  V30 607 C 64.0413 5.75364 -1.36785 0
M  V30 608 H 62.9713 0.753794 -0.0176448 0
M  V30 609 H 65.6223 1.68481 -0.727076 0
M  V30 610 H 64.0043 3.90048 0.683994 0
M  V30 611 H 65.1783 4.06491 -2.17029 0
M  V30 612 H 63.4933 3.7451 -1.8202 0
M  V30 613 H 66.0903 5.3265 0.467779 0
M  V30 614 H 66.4333 3.90976 1.42982 0
M  V30 615 H 66.9663 3.96897 -0.267929 0
M  V30 616 H 63.7053 6.11518 -2.36063 0
M  V30 617 H 63.2253 5.96214 -0.654895 0
M  V30 618 H 64.9043 6.37955 -1.07805 0
M  V30 619 N 65.0364 0.313813 1.54444 0
M  V30 620 C 66.2614 -0.296681 2.05267 0
M  V30 621 C 66.6864 -1.45757 1.18897 0
M  V30 622 O 66.0444 -1.80239 0.195886 0
M  V30 623 C 66.0924 -0.71831 3.53373 0
M  V30 624 O 65.1964 -1.82175 3.69981 0
M  V30 625 H 64.5374 -0.0554061 0.661684 0
M  V30 626 H 67.0674 0.459387 1.99376 0
M  V30 627 H 67.0774 -1.00364 3.95463 0
M  V30 628 H 65.7524 0.130821 4.15694 0
M  V30 629 H 64.3294 -1.53598 3.39797 0
M  V30 630 N 66.5145 -1.57545 0.0417849 0
M  V30 631 C 67.4445 -2.14009 -0.933929 0
M  V30 632 C 68.4255 -1.05938 -1.33083 0
M  V30 633 O 69.6105 -1.33833 -1.40721 0
M  V30 634 C 66.7405 -2.67747 -2.21199 0
M  V30 635 C 65.6945 -3.80718 -1.95544 0
M  V30 636 C 65.0205 -4.20935 -3.29724 0
M  V30 637 C 66.3205 -5.06258 -1.28452 0
M  V30 638 H 68.0145 -2.95788 -0.463645 0
M  V30 639 H 65.5605 -1.42285 -0.221573 0
M  V30 640 H 67.5135 -3.05886 -2.89848 0
M  V30 641 H 66.2375 -1.83147 -2.70416 0
M  V30 642 H 64.8965 -3.43037 -1.2931 0
M  V30 643 H 64.5445 -3.33298 -3.76724 0
M  V30 644 H 64.2445 -4.9707 -3.13361 0
M  V30 645 H 65.7685 -4.61666 -3.9962 0
M  V30 646 H 67.1825 -5.41903 -1.8712 0
M  V30 647 H 65.5795 -5.87475 -1.22445 0
M  V30 648 H 66.6495 -4.84207 -0.259219 0
M  V30 649 N 67.9926 0.231505 -1.5589 0
M  V30 650 C 69.4036 0.799327 -1.68724 0
M  V30 651 C 69.7546 1.85398 -0.642022 0
M  V30 652 O 68.8796 2.1539 0.208784 0
M  V30 653 C 69.4746 1.45664 -3.05888 0
M  V30 654 C 68.0336 1.97197 -3.20609 0
M  V30 655 C 67.1806 0.828552 -2.64632 0
M  V30 656 H 70.1316 0.00702616 -1.58698 0
M  V30 657 H 70.1526 2.32517 -3.01191 0
M  V30 658 H 69.6646 0.688808 -3.81939 0
M  V30 659 H 67.7656 2.76813 -2.4941 0
M  V30 660 H 67.8786 2.15878 -4.27707 0
M  V30 661 H 66.2426 1.23321 -2.22854 0
M  V30 662 H 67.0256 0.0735544 -3.43221 0
M  V30 663 N 69.4707 1.49531 0.497807 0
M  V30 664 C 70.7167 1.60388 1.25089 0
M  V30 665 C 71.0717 0.288328 1.90227 0
M  V30 666 O 70.3647 -0.711706 1.77891 0
M  V30 667 C 70.5587 2.70252 2.33878 0
M  V30 668 C 70.3877 4.12363 1.79408 0
M  V30 669 C 69.1577 4.7911 1.60566 0
M  V30 670 C 71.3557 4.97491 1.30412 0
M  V30 671 N 69.3377 6.05525 1.01059 0
M  V30 672 C 70.7087 6.14411 0.830595 0
M  V30 673 C 72.7637 4.83466 1.19015 0
M  V30 674 C 71.4667 7.1885 0.254371 0
M  V30 675 C 73.4927 5.88057 0.627892 0
M  V30 676 C 72.8547 7.04208 0.16461 0
M  V30 677 H 68.9537 0.641246 0.447579 0
M  V30 678 H 71.5377 1.86549 0.557441 0
M  V30 679 H 69.7087 2.45858 3.0068 0
M  V30 680 H 71.4407 2.70613 3.00917 0
M  V30 681 H 68.1957 4.35961 1.85026 0
M  V30 682 H 68.6197 6.73028 0.732236 0
M  V30 683 H 73.2617 3.93978 1.53431 0
M  V30 684 H 70.9797 8.08036 -0.102052 0
M  V30 685 H 74.5657 5.79266 0.542444 0
M  V30 686 H 73.4457 7.83757 -0.263669 0
M  V30 687 N 70.9488 -0.749086 1.3866 0
M  V30 688 C 71.8958 -1.86291 1.36251 0
M  V30 689 C 72.8658 -1.64578 0.224347 0
M  V30 690 O 74.0508 -1.86181 0.417279 0
M  V30 691 C 71.1908 -3.23644 1.19786 0
M  V30 692 C 70.3038 -3.57158 2.43027 0
M  V30 693 C 69.4388 -4.83838 2.19258 0
M  V30 694 C 68.4778 -5.10152 3.38247 0
M  V30 695 N 67.6148 -6.28029 3.13884 0
M  V30 696 H 72.4548 -1.87685 2.3147 0
M  V30 697 H 69.9918 -0.917287 1.14997 0
M  V30 698 H 71.9498 -4.0291 1.08254 0
M  V30 699 H 70.5798 -3.21566 0.282031 0
M  V30 700 H 69.6318 -2.72701 2.65214 0
M  V30 701 H 70.9438 -3.7253 3.31697 0
M  V30 702 H 70.0978 -5.71057 2.04888 0
M  V30 703 H 68.8368 -4.70614 1.2796 0
M  V30 704 H 67.8418 -4.21401 3.53131 0
M  V30 705 H 69.0668 -5.25271 4.30427 0
M  V30 706 H 67.0128 -6.1612 2.25238 0
M  V30 707 H 66.9298 -6.43922 3.96106 0
M  V30 708 H 68.1978 -7.18124 3.03179 0
M  V30 709 N 72.4269 -1.23603 -0.977757 0
M  V30 710 C 73.6729 -1.07129 -1.72195 0
M  V30 711 C 74.0059 0.390501 -1.90233 0
M  V30 712 O 73.2809 1.28902 -1.45653 0
M  V30 713 C 73.5639 -1.80031 -3.11867 0
M  V30 714 C 73.4169 -3.33899 -3.01383 0
M  V30 715 C 74.7359 -1.56492 -4.11337 0
M  V30 716 H 71.8549 -0.390571 -0.624999 0
M  V30 717 H 74.4969 -1.52142 -1.13811 0
M  V30 718 H 72.6469 -1.41768 -3.6171 0
M  V30 719 H 74.3189 -3.81699 -2.59043 0
M  V30 720 H 72.5619 -3.62796 -2.37827 0
M  V30 721 H 73.2329 -3.801 -4.00285 0
M  V30 722 H 75.7089 -1.89757 -3.70313 0
M  V30 723 H 74.5849 -2.09973 -5.07151 0
M  V30 724 H 74.8459 -0.500874 -4.39254 0
M  V30 725 N 73.905 1.17692 -1.04816 0
M  V30 726 C 74.835 2.23777 -0.666791 0
M  V30 727 C 75.816 1.66796 0.33361 0
M  V30 728 O 77.001 1.93039 0.212042 0
M  V30 729 C 74.131 3.47281 -0.0367933 0
M  V30 730 C 73.085 4.17059 -0.961546 0
M  V30 731 C 72.411 5.34342 -0.195626 0
M  V30 732 C 73.711 4.69713 -2.28402 0
M  V30 733 H 75.405 2.55933 -1.55367 0
M  V30 734 H 72.951 1.23019 -0.748484 0
M  V30 735 H 74.904 4.20706 0.241775 0
M  V30 736 H 73.628 3.14381 0.885004 0
M  V30 737 H 72.287 3.45541 -1.22462 0
M  V30 738 H 71.935 4.97692 0.728816 0
M  V30 739 H 71.635 5.81966 -0.811775 0
M  V30 740 H 73.159 6.10553 0.0757473 0
M  V30 741 H 74.573 5.34794 -2.06563 0
M  V30 742 H 72.97 5.279 -2.8538 0
M  V30 743 H 74.04 3.86726 -2.92525 0
M  V30 744 N 75.3831 0.828654 1.34056 0
M  V30 745 C 76.3131 0.269443 2.3194 0
M  V30 746 C 77.2941 -0.617247 1.58506 0
M  V30 747 O 78.4791 -0.542931 1.86456 0
M  V30 748 C 75.6091 -0.564793 3.42677 0
M  V30 749 C 74.5631 0.225241 4.27407 0
M  V30 750 C 73.8891 -0.7321 5.29664 0
M  V30 751 C 75.1891 1.43663 5.02154 0
M  V30 752 H 76.8831 1.08728 2.7896 0
M  V30 753 H 74.4291 0.524283 1.34117 0
M  V30 754 H 76.3821 -0.966233 4.10173 0
M  V30 755 H 75.1061 -1.41574 2.9432 0
M  V30 756 H 73.7651 0.608117 3.61521 0
M  V30 757 H 73.4131 -1.57916 4.77568 0
M  V30 758 H 73.1131 -0.20767 5.87233 0
M  V30 759 H 74.6371 -1.13128 6.00029 0
M  V30 760 H 76.0511 1.1089 5.62473 0
M  V30 761 H 74.4481 1.89711 5.69324 0
M  V30 762 H 75.5181 2.21181 4.31517 0
M  V30 763 N 76.8612 -1.46375 0.584142 0
M  V30 764 C 78.1072 -2.02678 0.0703716 0
M  V30 765 C 78.4402 -1.4545 -1.28678 0
M  V30 766 O 77.7152 -0.62014 -1.84349 0
M  V30 767 C 77.9982 -3.60099 0.00614674 0
M  V30 768 C 77.8512 -4.27709 1.3923 0
M  V30 769 C 79.1702 -4.34598 -0.693742 0
M  V30 770 H 76.2892 -0.736504 0.027047 0
M  V30 771 H 78.9312 -1.74501 0.751615 0
M  V30 772 H 77.0812 -3.84236 -0.574009 0
M  V30 773 H 78.7532 -4.14832 2.01773 0
M  V30 774 H 76.9962 -3.87016 1.95962 0
M  V30 775 H 77.6672 -5.36478 1.29982 0
M  V30 776 H 80.1432 -4.15615 -0.200869 0
M  V30 777 H 79.0192 -5.44318 -0.707714 0
M  V30 778 H 79.2802 -4.05759 -1.75533 0
M  V30 779 N 78.3393 -0.321999 -1.54275 0
M  V30 780 C 79.2723 0.58718 -2.20516 0
M  V30 781 C 80.2503 1.11693 -1.18167 0
M  V30 782 O 81.4343 1.18122 -1.46899 0
M  V30 783 C 78.5613 1.80554 -2.86562 0
M  V30 784 C 77.6073 1.40718 -4.02617 0
M  V30 785 S 78.4403 0.445218 -5.33646 0
M  V30 786 C 79.5963 1.6709 -6.03185 0
M  V30 787 H 79.8293 0.0244875 -2.9729 0
M  V30 788 H 77.3623 -0.106087 -1.54035 0
M  V30 789 H 79.3203 2.50462 -3.25237 0
M  V30 790 H 77.9813 2.33942 -2.09595 0
M  V30 791 H 77.1743 2.31501 -4.47687 0
M  V30 792 H 76.7763 0.78782 -3.65608 0
M  V30 793 H 79.0683 2.60856 -6.25268 0
M  V30 794 H 80.0113 1.26239 -6.96756 0
M  V30 795 H 80.4193 1.85716 -5.33076 0
M  V30 796 N 79.8174 1.5752 -0.0501392 0
M  V30 797 C 80.7474 2.14502 0.922566 0
M  V30 798 C 81.7284 1.06642 1.3252 0
M  V30 799 O 82.9134 1.34577 1.4001 0
M  V30 800 C 80.0434 2.68916 2.19776 0
M  V30 801 C 78.9974 3.8175 1.93523 0
M  V30 802 C 78.3234 4.22677 3.27487 0
M  V30 803 C 79.6234 5.06932 1.25765 0
M  V30 804 H 81.3174 2.9603 0.447952 0
M  V30 805 H 78.8634 1.42401 0.214024 0
M  V30 806 H 80.8164 3.07419 2.88222 0
M  V30 807 H 79.5404 1.84578 2.69441 0
M  V30 808 H 78.1994 3.43718 1.27489 0
M  V30 809 H 77.8474 3.35291 3.74952 0
M  V30 810 H 77.5474 4.98725 3.1072 0
M  V30 811 H 79.0714 4.63779 3.97166 0
M  V30 812 H 80.4854 5.42888 1.84244 0
M  V30 813 H 78.8824 5.88116 1.19328 0
M  V30 814 H 79.9524 4.84337 0.233536 0
M  V30 815 N 81.2955 -0.223234 1.56011 0
M  V30 816 C 82.2255 -1.27988 1.95298 0
M  V30 817 C 83.2065 -1.48976 0.820979 0
M  V30 818 O 84.3915 -1.61188 1.08315 0
M  V30 819 C 81.5215 -2.63 2.26822 0
M  V30 820 C 80.4755 -2.56671 3.42497 0
M  V30 821 C 79.8015 -3.95697 3.59622 0
M  V30 822 C 81.1015 -2.11601 4.77517 0
M  V30 823 H 82.7955 -0.953525 2.8381 0
M  V30 824 H 80.3415 -0.457244 1.36548 0
M  V30 825 H 82.2945 -3.37077 2.52898 0
M  V30 826 H 81.0185 -2.9732 1.35161 0
M  V30 827 H 79.6775 -1.85051 3.16467 0
M  V30 828 H 79.3255 -4.27322 2.6534 0
M  V30 829 H 79.0255 -3.92345 4.37424 0
M  V30 830 H 80.5495 -4.71438 3.88044 0
M  V30 831 H 81.9635 -2.7542 5.02809 0
M  V30 832 H 80.3605 -2.19311 5.5859 0
M  V30 833 H 81.4305 -1.06824 4.72987 0
M  V30 834 N 82.7736 -1.49793 -0.48987 0
M  V30 835 C 83.7366 -1.66752 -1.57246 0
M  V30 836 C 84.7366 -0.538867 -1.51502 0
M  V30 837 O 85.9266 -0.805545 -1.54456 0
M  V30 838 C 83.0586 -1.67528 -2.96896 0
M  V30 839 H 84.2516 -2.63321 -1.43534 0
M  V30 840 H 81.8046 -1.38992 -0.714914 0
M  V30 841 H 82.5396 -0.725837 -3.16073 0
M  V30 842 H 82.3246 -2.49504 -3.02473 0
M  V30 843 H 83.8146 -1.82667 -3.7553 0
M  V30 844 N 84.2517 0.741722 -1.39055 0
M  V30 845 C 85.1817 1.869 -1.39966 0
M  V30 846 C 86.1627 1.6804 -0.26392 0
M  V30 847 O 87.3477 1.88458 -0.468755 0
M  V30 848 C 84.4777 3.24572 -1.23574 0
M  V30 849 C 83.4317 3.58056 -2.34477 0
M  V30 850 C 82.7577 4.94593 -2.0318 0
M  V30 851 C 84.0577 3.61716 -3.76774 0
M  V30 852 H 85.7517 1.86395 -2.34302 0
M  V30 853 H 83.2977 0.895361 -1.1278 0
M  V30 854 H 85.2507 4.031 -1.22834 0
M  V30 855 H 83.9747 3.25587 -0.257045 0
M  V30 856 H 82.6337 2.81854 -2.34423 0
M  V30 857 H 82.2817 4.92181 -1.03765 0
M  V30 858 H 81.9817 5.17964 -2.77465 0
M  V30 859 H 83.5057 5.75486 -2.04079 0
M  V30 860 H 84.9197 4.30335 -3.78794 0
M  V30 861 H 83.3167 3.96603 -4.50362 0
M  V30 862 H 84.3867 2.61672 -4.08235 0
M  V30 863 N 85.7298 1.2412 0.971189 0
M  V30 864 C 86.9788 1.07284 1.70801 0
M  V30 865 C 87.2918 -0.388902 1.91695 0
M  V30 866 O 88.4978 -0.677379 2.62914 0
M  V30 867 C 86.9538 1.87145 3.07416 0
M  V30 868 C 86.5618 3.37707 2.94377 0
M  V30 869 C 88.3058 1.78828 3.84995 0
M  V30 870 C 86.2128 4.09925 4.26281 0
M  V30 871 H 85.1428 0.397854 0.64049 0
M  V30 872 H 87.7938 1.4817 1.0825 0
M  V30 873 H 86.1758 1.39071 3.70777 0
M  V30 874 H 87.3498 3.93335 2.4005 0
M  V30 875 H 85.6648 3.46938 2.30267 0
M  V30 876 H 88.2618 2.30089 4.82662 0
M  V30 877 H 88.6048 0.75284 4.09436 0
M  V30 878 H 89.1378 2.24563 3.28354 0
M  V30 879 H 85.8768 5.13813 4.07033 0
M  V30 880 H 85.3968 3.59083 4.80437 0
M  V30 881 H 87.0758 4.1673 4.94919 0
M  V30 882 N 87.2079 -1.17134 1.05439 0
M  V30 883 C 88.4359 -1.91372 0.786414 0
M  V30 884 C 88.8509 -1.76955 -0.658202 0
M  V30 885 O 88.2079 -1.10838 -1.44987 0
M  V30 886 C 88.2589 -3.42356 1.1608 0
M  V30 887 O 87.9799 -3.56332 2.54871 0
M  V30 888 C 89.4809 -4.33663 0.919322 0
M  V30 889 H 86.7009 -0.607118 0.285743 0
M  V30 890 H 89.2449 -1.48525 1.40572 0
M  V30 891 H 87.3999 -3.82939 0.586191 0
M  V30 892 H 87.8139 -4.49896 2.69618 0
M  V30 893 H 89.2879 -5.38099 1.231 0
M  V30 894 H 89.7649 -4.38959 -0.145359 0
M  V30 895 H 90.3709 -3.98796 1.47789 0
M  V30 896 N 88.686 -0.835752 -1.33615 0
M  V30 897 C 89.616 -0.281739 -2.31794 0
M  V30 898 C 90.597 0.608833 -1.58831 0
M  V30 899 O 91.782 0.533035 -1.86741 0
M  V30 900 C 88.912 0.546612 -3.42971 0
M  V30 901 C 87.866 -0.247904 -4.27281 0
M  V30 902 C 87.192 0.704001 -5.30045 0
M  V30 903 C 88.492 -1.46324 -5.01385 0
M  V30 904 H 90.186 -1.10206 -2.78379 0
M  V30 905 H 87.732 -0.531388 -1.33837 0
M  V30 906 H 89.685 0.944467 -4.1068 0
M  V30 907 H 88.409 1.40011 -2.95067 0
M  V30 908 H 87.068 -0.627281 -3.61194 0
M  V30 909 H 86.716 1.55381 -4.78399 0
M  V30 910 H 86.416 0.176524 -5.87335 0
M  V30 911 H 87.94 1.09944 -6.0062 0
M  V30 912 H 89.354 -1.13871 -5.61877 0
M  V30 913 H 87.751 -1.92728 -5.6831 0
M  V30 914 H 88.821 -2.23467 -4.30338 0
M  V30 915 N 90.1641 1.46063 -0.591896 0
M  V30 916 C 91.1271 2.28854 0.125973 0
M  V30 917 C 92.1271 1.38903 0.810107 0
M  V30 918 O 93.3171 1.61186 0.66066 0
M  V30 919 C 90.4491 3.19526 1.1881 0
M  V30 920 H 91.6421 2.93802 -0.601717 0
M  V30 921 H 89.1951 1.52325 -0.350254 0
M  V30 922 H 89.9301 2.59345 1.94707 0
M  V30 923 H 89.7151 3.85766 0.701936 0
M  V30 924 H 91.2051 3.81817 1.69132 0
M  V30 925 N 91.6422 0.330177 1.54103 0
M  V30 926 C 92.8702 -0.272179 2.05102 0
M  V30 927 C 93.2852 -1.45267 1.20595 0
M  V30 928 O 92.6422 -1.8094 0.238144 0
M  V30 929 C 92.6932 -0.70023 3.54653 0
M  V30 930 O 92.4142 0.433301 4.35952 0
M  V30 931 C 93.9152 -1.3647 4.21771 0
M  V30 932 H 91.1352 -0.0549159 0.668749 0
M  V30 933 H 93.6792 0.478285 1.98828 0
M  V30 934 H 91.8342 -1.40066 3.61193 0
M  V30 935 H 92.2482 0.0947539 5.24414 0
M  V30 936 H 93.7222 -1.61509 5.27843 0
M  V30 937 H 94.1992 -2.31409 3.73292 0
M  V30 938 H 94.8052 -0.706675 4.19388 0
M  V30 939 N 93.1203 -1.57491 0.0584922 0
M  V30 940 C 94.3483 -1.97296 -0.623037 0
M  V30 941 C 94.7633 -0.936338 -1.63946 0
M  V30 942 O 94.1203 0.0785981 -1.82331 0
M  V30 943 C 94.1713 -3.37183 -1.30345 0
M  V30 944 O 93.8923 -4.36872 -0.32773 0
M  V30 945 C 95.3933 -3.91788 -2.07406 0
M  V30 946 H 92.6133 -0.649153 -0.169826 0
M  V30 947 H 95.1573 -2.04106 0.12696 0
M  V30 948 H 93.3123 -3.31502 -2.00463 0
M  V30 949 H 93.7263 -5.18141 -0.814269 0
M  V30 950 H 95.2003 -4.91926 -2.50425 0
M  V30 951 H 95.6773 -3.27609 -2.92521 0
M  V30 952 H 96.2833 -4.00829 -1.42184 0
M  V30 953 N 94.5984 0.214957 -1.56127 0
M  V30 954 C 95.5284 1.2695 -1.95974 0
M  V30 955 C 96.5094 1.48539 -0.828868 0
M  V30 956 O 97.6944 1.60611 -1.09168 0
M  V30 957 C 94.8244 2.61794 -2.28214 0
M  V30 958 C 93.7784 2.54851 -3.43853 0
M  V30 959 C 93.1044 3.93785 -3.61715 0
M  V30 960 C 94.4044 2.09065 -4.78632 0
M  V30 961 H 96.0984 0.93846 -2.84312 0
M  V30 962 H 93.6444 0.449996 -1.36788 0
M  V30 963 H 95.5974 3.35731 -2.54682 0
M  V30 964 H 94.3214 2.96599 -1.36736 0
M  V30 965 H 92.9804 1.8337 -3.17444 0
M  V30 966 H 92.6284 4.25908 -2.67602 0
M  V30 967 H 92.3284 3.90019 -4.39498 0
M  V30 968 H 93.8524 4.69374 -3.90539 0
M  V30 969 H 95.2664 2.7275 -5.04262 0
M  V30 970 H 93.6634 2.16346 -5.59745 0
M  V30 971 H 94.7334 1.04315 -4.73547 0
M  V30 972 N 96.0765 1.50051 0.48192 0
M  V30 973 C 97.3015 1.64508 1.26301 0
M  V30 974 C 97.7265 0.323851 1.85291 0
M  V30 975 O 97.0845 -0.710969 1.66778 0
M  V30 976 C 97.1325 2.7305 2.35533 0
M  V30 977 O 96.2365 2.3355 3.39895 0
M  V30 978 H 95.5775 0.549978 0.372048 0
M  V30 979 H 98.1075 1.9636 0.574786 0
M  V30 980 H 98.1175 2.95799 2.8101 0
M  V30 981 H 96.7925 3.68946 1.91967 0
M  V30 982 H 95.3695 2.21205 3.00204 0
M  V30 983 N 97.5546 -0.734337 1.39446 0
M  V30 984 C 98.5026 -1.86971 1.38364 0
M  V30 985 C 99.4966 -1.67288 0.266687 0
M  V30 986 O 100.703 -1.74621 0.436755 0
M  V30 987 H 97.0776 -0.615474 0.432082 0
M  V30 988 H 99.0486 -1.85 2.34132 0
M  V30 989 C 97.7976 -3.2466 1.24465 0
M  V30 990 H 97.1206 -3.40402 2.09682 0
M  V30 991 H 98.5606 -4.04292 1.27764 0
M  V30 992 C 97.0196 -3.36867 -0.0468674 0
M  V30 993 O 97.5496 -3.88618 -1.01681 0
M  V30 994 N 95.7556 -2.90391 -0.110145 0
M  V30 995 H 95.3026 -2.48466 0.679868 0
M  V30 996 H 95.2606 -2.98939 -0.973799 0
M  V30 997 N 99.0327 -1.24633 -0.964593 0
M  V30 998 C 99.9957 -1.0424 -2.04124 0
M  V30 999 C 100.996 0.00137563 -1.608 0
M  V30 1000 O 102.186 -0.239883 -1.7254 0
M  V30 1001 C 99.3177 -0.580588 -3.3592 0
M  V30 1002 H 100.511 -1.99803 -2.23649 0
M  V30 1003 H 98.0637 -1.06899 -1.14027 0
M  V30 1004 H 98.7987 0.3781 -3.22088 0
M  V30 1005 H 98.5837 -1.33398 -3.6871 0
M  V30 1006 H 100.074 -0.459034 -4.15069 0
M  V30 1007 N 100.511 1.16574 -1.06058 0
M  V30 1008 C 101.758 1.87047 -0.775873 0
M  V30 1009 C 102.086 1.81562 0.697534 0
M  V30 1010 O 101.341 1.22445 1.52662 0
M  V30 1011 C 101.64 3.36195 -1.21275 0
M  V30 1012 C 101.306 3.6188 -2.68986 0
M  V30 1013 C 99.9678 3.68599 -3.09335 0
M  V30 1014 C 102.32 3.72648 -3.64394 0
M  V30 1015 C 99.6478 3.83584 -4.43937 0
M  V30 1016 C 102 3.89154 -4.98741 0
M  V30 1017 C 100.664 3.94114 -5.3873 0
M  V30 1018 H 99.9338 0.684452 -0.283912 0
M  V30 1019 H 102.581 1.37853 -1.32925 0
M  V30 1020 H 100.886 3.87505 -0.578528 0
M  V30 1021 H 102.583 3.89103 -0.969542 0
M  V30 1022 H 99.1728 3.57281 -2.36744 0
M  V30 1023 H 103.357 3.66769 -3.34356 0
M  V30 1024 H 98.6128 3.85677 -4.74409 0
M  V30 1025 H 102.787 3.96427 -5.72554 0
M  V30 1026 H 100.414 4.05478 -6.43033 0
M  V30 1027 N 101.989 0.842826 1.3317 0
M  V30 1028 C 103.235 0.441099 1.97945 0
M  V30 1029 C 103.568 -0.998024 1.66593 0
M  V30 1030 O 102.843 -1.69839 0.947898 0
M  V30 1031 C 103.126 0.666841 3.53872 0
M  V30 1032 C 102.979 2.15352 3.94897 0
M  V30 1033 C 104.298 0.115544 4.39948 0
M  V30 1034 H 101.417 0.161739 0.719034 0
M  V30 1035 H 104.059 1.05907 1.57746 0
M  V30 1036 H 102.209 0.140828 3.88245 0
M  V30 1037 H 103.881 2.7447 3.70761 0
M  V30 1038 H 102.124 2.63653 3.44484 0
M  V30 1039 H 102.795 2.26221 5.03516 0
M  V30 1040 H 105.271 0.565213 4.12243 0
M  V30 1041 H 104.147 0.303152 5.48062 0
M  V30 1042 H 104.408 -0.980935 4.3108 0
M  V30 1043 N 103.467 -1.45747 0.599634 0
M  V30 1044 C 104.716 -2.01502 0.0893511 0
M  V30 1045 C 105.029 -1.4748 -1.28488 0
M  V30 1046 O 106.235 -1.95161 -1.88745 0
M  V30 1047 C 104.691 -3.59735 0.109082 0
M  V30 1048 C 104.299 -4.22754 1.48267 0
M  V30 1049 C 106.043 -4.23085 -0.346374 0
M  V30 1050 C 103.95 -5.73115 1.45921 0
M  V30 1051 H 102.88 -0.753417 0.0296347 0
M  V30 1052 H 105.531 -1.67303 0.753788 0
M  V30 1053 H 103.913 -3.91087 -0.621854 0
M  V30 1054 H 105.087 -4.02987 2.23468 0
M  V30 1055 H 103.402 -3.71567 1.87955 0
M  V30 1056 H 105.999 -5.33327 -0.38298 0
M  V30 1057 H 106.342 -3.93201 -1.36743 0
M  V30 1058 H 106.875 -3.9642 0.331038 0
M  V30 1059 H 103.614 -6.07685 2.45762 0
M  V30 1060 H 103.134 -5.95097 0.749665 0
M  V30 1061 H 104.813 -6.3616 1.17941 0
M  V30 1062 N 104.945 -0.338344 -1.53925 0
M  V30 1063 C 105.908 0.508299 -2.23493 0
M  V30 1064 C 106.908 1.03175 -1.23335 0
M  V30 1065 O 108.098 0.921826 -1.47811 0
M  V30 1066 C 105.23 1.70754 -2.95052 0
M  V30 1067 H 106.423 -0.100058 -2.99733 0
M  V30 1068 H 103.976 -0.0896198 -1.56043 0
M  V30 1069 H 104.711 2.35474 -2.22986 0
M  V30 1070 H 104.496 1.33946 -3.68512 0
M  V30 1071 H 105.986 2.30818 -3.48013 0
M  V30 1072 N 106.423 1.57458 -0.0668435 0
M  V30 1073 C 107.651 1.97624 0.612565 0
M  V30 1074 C 108.066 0.94502 1.63447 0
M  V30 1075 O 107.423 -0.0689276 1.8237 0
M  V30 1076 C 107.474 3.37869 1.28555 0
M  V30 1077 O 107.195 4.3704 0.304557 0
M  V30 1078 C 108.696 3.92882 2.05325 0
M  V30 1079 H 105.916 0.650045 0.166381 0
M  V30 1080 H 108.46 2.04035 -0.137782 0
M  V30 1081 H 106.615 3.3256 1.98702 0
M  V30 1082 H 107.029 5.18565 0.786779 0
M  V30 1083 H 108.503 4.93247 2.47812 0
M  V30 1084 H 108.98 3.29156 2.9078 0
M  V30 1085 H 109.586 4.01577 1.40056 0
M  V30 1086 N 107.901 -0.206675 1.56239 0
M  V30 1087 C 109.147 -0.930218 1.80208 0
M  V30 1088 C 109.48 -1.83387 0.638981 0
M  V30 1089 O 108.755 -1.91119 -0.361066 0
M  V30 1090 C 109.038 -1.75641 3.1436 0
M  V30 1091 C 108.891 -0.878257 4.41142 0
M  V30 1092 C 110.21 -2.73129 3.45092 0
M  V30 1093 H 107.329 -0.336742 0.655571 0
M  V30 1094 H 109.971 -0.198222 1.88963 0
M  V30 1095 H 108.121 -2.38048 3.07027 0
M  V30 1096 H 109.793 -0.269787 4.6051 0
M  V30 1097 H 108.036 -0.184385 4.33408 0
M  V30 1098 H 108.707 -1.49106 5.3148 0
M  V30 1099 H 111.183 -2.20856 3.52649 0
M  V30 1100 H 110.059 -3.28028 4.40101 0
M  V30 1101 H 110.32 -3.51606 2.68003 0
M  V30 1102 N 109.379 -1.50304 -0.473955 0
M  V30 1103 C 110.609 -1.64663 -1.24778 0
M  V30 1104 C 111.017 -0.328174 -1.86332 0
M  V30 1105 O 110.36 0.699536 -1.69859 0
M  V30 1106 C 110.422 -2.6778 -2.39863 0
M  V30 1107 C 110.086 -4.11413 -1.98969 0
M  V30 1108 C 111.083 -4.97372 -1.51385 0
M  V30 1109 C 108.768 -4.57312 -2.07777 0
M  V30 1110 C 110.762 -6.27277 -1.13148 0
M  V30 1111 C 108.449 -5.87223 -1.69152 0
M  V30 1112 C 109.447 -6.72031 -1.21915 0
M  V30 1113 O 109.135 -7.99518 -0.838237 0
M  V30 1114 H 108.867 -0.556602 -0.383627 0
M  V30 1115 H 111.421 -1.9726 -0.572491 0
M  V30 1116 H 109.651 -2.30419 -3.10554 0
M  V30 1117 H 111.34 -2.71388 -3.01833 0
M  V30 1118 H 112.106 -4.63128 -1.44004 0
M  V30 1119 H 107.985 -3.91449 -2.43493 0
M  V30 1120 H 111.529 -6.93425 -0.762077 0
M  V30 1121 H 107.426 -6.20989 -1.76191 0
M  V30 1122 H 108.194 -8.12764 -0.967339 0
M  V30 1123 N 110.857 0.726932 -1.39834 0
M  V30 1124 C 112.273 1.03354 -1.21615 0
M  V30 1125 C 112.473 2.01327 -0.08338 0
M  V30 1126 O 111.529 2.46158 0.56238 0
M  V30 1127 C 112.842 1.58811 -2.55342 0
M  V30 1128 C 114.39 1.70851 -2.62257 0
M  V30 1129 C 114.865 2.29716 -3.96225 0
M  V30 1130 N 116.356 2.37116 -3.97907 0
M  V30 1131 C 117.091 2.83619 -4.98345 0
M  V30 1132 N 116.587 3.29958 -6.09179 0
M  V30 1133 N 118.38 2.82901 -4.8572 0
M  V30 1134 H 110.531 0.0773069 -2.12259 0
M  V30 1135 H 112.794 0.0969102 -0.943034 0
M  V30 1136 H 112.5 0.942855 -3.38826 0
M  V30 1137 H 112.374 2.57502 -2.75632 0
M  V30 1138 H 114.761 2.34497 -1.79152 0
M  V30 1139 H 114.842 0.707913 -2.45809 0
M  V30 1140 H 114.486 1.66696 -4.79765 0
M  V30 1141 H 114.416 3.30469 -4.09997 0
M  V30 1142 H 116.907 2.04374 -3.17868 0
M  V30 1143 H 117.22 3.63976 -6.8172 0
M  V30 1144 H 115.565 3.27946 -6.12761 0
M  V30 1145 H 118.756 2.46027 -3.98231 0
M  V30 1146 H 118.929 3.18827 -5.6414 0
M  V30 1147 N 112.336 1.25143 0.95797 0
M  V30 1148 C 113.564 1.12424 1.73691 0
M  V30 1149 C 113.979 -0.322304 1.86029 0
M  V30 1150 O 113.336 -1.22186 1.35561 0
M  V30 1151 C 113.387 1.76933 3.15241 0
M  V30 1152 O 113.108 3.15932 3.03511 0
M  V30 1153 C 114.609 1.6995 4.09429 0
M  V30 1154 H 111.829 0.3923 0.544373 0
M  V30 1155 H 114.373 1.6544 1.20207 0
M  V30 1156 H 112.528 1.27895 3.6568 0
M  V30 1157 H 112.942 3.47598 3.9278 0
M  V30 1158 H 114.416 2.19753 5.06372 0
M  V30 1159 H 114.893 0.662619 4.34173 0
M  V30 1160 H 115.499 2.18461 3.64904 0
M  V30 1161 N 113.814 -1.1601 1.06675 0
M  V30 1162 C 115.23 -1.38622 0.790948 0
M  V30 1163 C 115.43 -1.92109 -0.607965 0
M  V30 1164 O 114.486 -2.12239 -1.36787 0
M  V30 1165 C 115.799 -2.36347 1.85905 0
M  V30 1166 C 117.347 -2.50023 1.88301 0
M  V30 1167 C 117.822 -3.51033 2.94176 0
M  V30 1168 N 119.313 -3.58563 2.93235 0
M  V30 1169 C 120.048 -4.36521 3.71803 0
M  V30 1170 N 119.544 -5.17869 4.602 0
M  V30 1171 N 121.337 -4.31541 3.60178 0
M  V30 1172 H 113.488 -0.796294 1.96908 0
M  V30 1173 H 115.751 -0.412597 0.853503 0
M  V30 1174 H 115.457 -2.04147 2.86386 0
M  V30 1175 H 115.331 -3.36042 1.71334 0
M  V30 1176 H 117.718 -2.81524 0.884769 0
M  V30 1177 H 117.799 -1.5035 2.06951 0
M  V30 1178 H 117.443 -3.20268 3.94196 0
M  V30 1179 H 117.373 -4.50445 2.72776 0
M  V30 1180 H 119.864 -3.00496 2.29152 0
M  V30 1181 H 120.177 -5.74578 5.16797 0
M  V30 1182 H 118.522 -5.17199 4.64253 0
M  V30 1183 H 121.713 -3.67051 2.90502 0
M  V30 1184 H 121.886 -4.9205 4.21653 0
M  V30 1185 N 115.292 -0.849877 -1.32721 0
M  V30 1186 C 116.239 -0.289033 -2.28983 0
M  V30 1187 C 117.209 0.601324 -1.54833 0
M  V30 1188 O 118.394 0.537253 -1.8308 0
M  V30 1189 C 115.534 0.520623 -3.4115 0
M  V30 1190 C 114.647 -0.394989 -4.3019 0
M  V30 1191 C 113.782 0.426834 -5.29482 0
M  V30 1192 C 112.821 -0.486476 -6.10164 0
M  V30 1193 N 111.958 0.297879 -7.01468 0
M  V30 1194 H 116.798 -1.11519 -2.76347 0
M  V30 1195 H 114.335 -0.56138 -1.35967 0
M  V30 1196 H 116.293 1.00563 -4.04899 0
M  V30 1197 H 114.923 1.31165 -2.9495 0
M  V30 1198 H 113.975 -0.99836 -3.67065 0
M  V30 1199 H 115.287 -1.09612 -4.86607 0
M  V30 1200 H 114.441 0.975205 -5.98811 0
M  V30 1201 H 113.18 1.16136 -4.73671 0
M  V30 1202 H 112.185 -1.04677 -5.39743 0
M  V30 1203 H 113.41 -1.21953 -6.6806 0
M  V30 1204 H 111.356 1.01558 -6.48091 0
M  V30 1205 H 111.273 -0.344318 -7.55216 0
M  V30 1206 H 112.541 0.828131 -7.75089 0
M  V30 1207 N 116.77 1.45427 -0.607355 0
M  V30 1208 C 117.7 2.3329 0.0989352 0
M  V30 1209 C 118.681 1.46816 0.859007 0
M  V30 1210 O 119.866 1.75588 0.829604 0
M  V30 1211 C 116.996 3.29518 1.09705 0
M  V30 1212 C 115.95 4.25626 0.450206 0
M  V30 1213 C 115.276 5.11542 1.55655 0
M  V30 1214 C 116.576 5.18505 -0.628455 0
M  V30 1215 H 118.27 2.92595 -0.634716 0
M  V30 1216 H 115.816 1.40696 -0.306681 0
M  V30 1217 H 117.769 3.89855 1.59971 0
M  V30 1218 H 116.493 2.68372 1.86129 0
M  V30 1219 H 115.152 3.66586 -0.0315886 0
M  V30 1220 H 114.8 4.46765 2.31107 0
M  V30 1221 H 114.5 5.76647 1.12925 0
M  V30 1222 H 116.024 5.74748 2.06148 0
M  V30 1223 H 117.438 5.72916 -0.209877 0
M  V30 1224 H 115.835 5.92085 -0.977489 0
M  V30 1225 H 116.905 4.60948 -1.50514 0
M  V30 1226 N 118.248 0.346503 1.53744 0
M  V30 1227 C 119.198 -0.524953 2.21874 0
M  V30 1228 C 120.182 -1.06376 1.20718 0
M  V30 1229 O 121.374 -0.996972 1.46251 0
M  V30 1230 C 118.503 -1.6739 2.99726 0
M  V30 1231 C 117.589 -1.14888 4.08242 0
M  V30 1232 N 117.98 -0.345329 5.0462 0
M  V30 1233 C 116.278 -1.4255 4.22606 0
M  V30 1234 C 116.979 -0.0600706 5.81669 0
M  V30 1235 N 115.955 -0.65252 5.39669 0
M  V30 1236 H 119.757 0.0960091 2.93743 0
M  V30 1237 H 117.271 0.15352 1.61673 0
M  V30 1238 H 119.268 -2.3102 3.47038 0
M  V30 1239 H 117.928 -2.29811 2.29384 0
M  V30 1240 H 118.939 0.0138439 5.17898 0
M  V30 1241 H 115.616 -2.05389 3.63486 0
M  V30 1242 H 117.006 0.588321 6.69319 0
M  V30 1243 N 119.726 -1.57421 0.075193 0
M  V30 1244 C 120.954 -1.97946 -0.602076 0
M  V30 1245 C 121.369 -0.953674 -1.62943 0
M  V30 1246 O 120.726 0.0592551 -1.82404 0
M  V30 1247 C 120.777 -3.38546 -1.26762 0
M  V30 1248 O 120.498 -4.37195 -0.281376 0
M  V30 1249 C 121.999 -3.93966 -2.03239 0
M  V30 1250 H 119.219 -0.650918 -0.162931 0
M  V30 1251 H 121.763 -2.03959 0.148601 0
M  V30 1252 H 119.918 -3.33609 -1.96936 0
M  V30 1253 H 120.332 -5.18975 -0.759267 0
M  V30 1254 H 121.806 -4.94555 -2.45193 0
M  V30 1255 H 122.283 -3.30693 -2.8903 0
M  V30 1256 H 122.889 -4.02315 -1.37924 0
M  V30 1257 N 121.204 0.198386 -1.56346 0
M  V30 1258 C 122.615 0.763358 -1.70381 0
M  V30 1259 C 122.966 1.83995 -0.681203 0
M  V30 1260 O 122.091 2.15785 0.16305 0
M  V30 1261 C 122.686 1.39143 -3.08909 0
M  V30 1262 C 121.245 1.90352 -3.2472 0
M  V30 1263 C 120.392 0.772233 -2.6633 0
M  V30 1264 H 123.343 -0.0266377 -1.58678 0
M  V30 1265 H 123.364 2.26076 -3.06055 0
M  V30 1266 H 122.876 0.607638 -3.83314 0
M  V30 1267 H 120.977 2.71461 -2.55225 0
M  V30 1268 H 121.09 2.06757 -4.3219 0
M  V30 1269 H 119.454 1.18566 -2.2542 0
M  V30 1270 H 120.237 0.00073556 -3.433 0
M  V30 1271 N 122.682 1.50554 0.465978 0
M  V30 1272 C 123.645 1.69233 1.54574 0
M  V30 1273 C 124.645 0.562901 1.50626 0
M  V30 1274 O 125.835 0.830016 1.53155 0
M  V30 1275 C 122.967 1.7223 2.94193 0
M  V30 1276 H 124.16 2.65571 1.39327 0
M  V30 1277 H 121.713 1.40111 0.692711 0
M  V30 1278 H 122.448 0.77603 3.14878 0
M  V30 1279 H 122.233 2.54285 2.98466 0
M  V30 1280 H 123.723 1.88618 3.72576 0
M  V30 1281 N 124.16 -0.719506 1.40217 0
M  V30 1282 C 125.108 -1.85493 1.40339 0
M  V30 1283 C 126.102 -1.66995 0.284415 0
M  V30 1284 O 127.308 -1.74148 0.455252 0
M  V30 1285 H 123.683 -0.610857 0.438586 0
M  V30 1286 H 125.654 -1.82506 2.36081 0
M  V30 1287 C 124.403 -3.23321 1.27901 0
M  V30 1288 H 123.726 -3.38159 2.1328 0
M  V30 1289 H 125.166 -4.02914 1.32045 0
M  V30 1290 C 123.625 -3.36898 -0.0111355 0
M  V30 1291 O 124.155 -3.89674 -0.975538 0
M  V30 1292 N 122.361 -2.90492 -0.0793393 0
M  V30 1293 H 121.908 -2.47731 0.706183 0
M  V30 1294 H 121.866 -2.99955 -0.942038 0
M  V30 1295 N 125.638 -1.25649 -0.95132 0
M  V30 1296 C 126.868 -1.13179 -1.72841 0
M  V30 1297 C 127.276 0.316827 -1.86528 0
M  V30 1298 O 126.619 1.22948 -1.3649 0
M  V30 1299 C 126.681 -1.71644 -3.15878 0
M  V30 1300 C 126.345 -3.20667 -3.25609 0
M  V30 1301 C 127.342 -4.17616 -3.09666 0
M  V30 1302 C 125.027 -3.6094 -3.49324 0
M  V30 1303 C 127.021 -5.52817 -3.17289 0
M  V30 1304 C 124.708 -4.96278 -3.56584 0
M  V30 1305 C 125.706 -5.92025 -3.40581 0
M  V30 1306 O 125.394 -7.24899 -3.47528 0
M  V30 1307 H 125.126 -0.395389 -0.54831 0
M  V30 1308 H 127.68 -1.66566 -1.20187 0
M  V30 1309 H 125.91 -1.12707 -3.69911 0
M  V30 1310 H 127.599 -1.54225 -3.75459 0
M  V30 1311 H 128.365 -3.87842 -2.91211 0
M  V30 1312 H 124.244 -2.86907 -3.6084 0
M  V30 1313 H 127.788 -6.2753 -3.04716 0
M  V30 1314 H 123.685 -5.25716 -3.74556 0
M  V30 1315 H 124.453 -7.33039 -3.64138 0
M  V30 1316 N 127.117 1.15442 -1.07289 0
M  V30 1317 C 128.047 2.22312 -0.714107 0
M  V30 1318 C 129.028 1.67467 0.298155 0
M  V30 1319 O 130.213 1.93445 0.171048 0
M  V30 1320 C 127.343 3.47124 -0.110448 0
M  V30 1321 C 126.297 4.14926 -1.04979 0
M  V30 1322 C 125.623 5.33807 -0.308924 0
M  V30 1323 C 126.923 4.64762 -2.38314 0
M  V30 1324 H 128.617 2.5258 -1.6076 0
M  V30 1325 H 126.163 1.21404 -0.77441 0
M  V30 1326 H 128.116 4.21124 0.152482 0
M  V30 1327 H 126.84 3.16187 0.81812 0
M  V30 1328 H 125.499 3.42866 -1.29764 0
M  V30 1329 H 125.147 4.99126 0.623084 0
M  V30 1330 H 124.847 5.80113 -0.935036 0
M  V30 1331 H 126.371 6.10576 -0.0537771 0
M  V30 1332 H 127.785 5.30292 -2.1786 0
M  V30 1333 H 126.182 5.21728 -2.96514 0
M  V30 1334 H 127.252 3.80434 -3.00663 0
M  V30 1335 N 128.595 0.856903 1.32268 0
M  V30 1336 C 129.844 0.457599 1.96441 0
M  V30 1337 C 130.157 -0.992426 1.68553 0
M  V30 1338 O 131.363 -1.49727 2.26482 0
M  V30 1339 C 129.819 0.767358 3.51624 0
M  V30 1340 C 129.427 2.23326 3.88367 0
M  V30 1341 C 131.171 0.435887 4.22256 0
M  V30 1342 C 129.078 2.48613 5.36606 0
M  V30 1343 H 128.008 0.167387 0.735185 0
M  V30 1344 H 130.659 1.048 1.5063 0
M  V30 1345 H 129.041 0.106367 3.95857 0
M  V30 1346 H 130.215 2.93623 3.55137 0
M  V30 1347 H 128.53 2.52948 3.30766 0
M  V30 1348 H 131.127 0.602202 5.31298 0
M  V30 1349 H 131.47 -0.622672 4.11617 0
M  V30 1350 H 132.003 1.05286 3.83614 0
M  V30 1351 H 128.742 3.53101 5.52268 0
M  V30 1352 H 128.262 1.82896 5.71235 0
M  V30 1353 H 129.941 2.32676 6.03714 0
M  V30 1354 N 130.073 -1.45103 0.615059 0
M  V30 1355 C 131.036 -2.29025 -0.0895485 0
M  V30 1356 C 132.036 -1.40174 -0.787906 0
M  V30 1357 O 133.226 -1.62217 -0.634933 0
M  V30 1358 C 130.358 -3.21376 -1.13711 0
M  V30 1359 H 131.551 -2.92807 0.648382 0
M  V30 1360 H 129.104 -1.51749 0.374444 0
M  V30 1361 H 129.839 -2.6241 -1.90556 0
M  V30 1362 H 129.624 -3.86834 -0.640475 0
M  V30 1363 H 131.114 -3.84459 -1.63036 0
M  V30 1364 N 131.551 -0.354651 -1.53558 0
M  V30 1365 C 132.776 0.242153 -2.05981 0
M  V30 1366 C 133.201 1.42553 -1.2272 0
M  V30 1367 O 132.559 1.79656 -0.243604 0
M  V30 1368 C 132.607 0.624367 -3.55154 0
M  V30 1369 O 131.711 1.72301 -3.74681 0
M  V30 1370 H 131.052 0.0378432 -0.662921 0
M  V30 1371 H 133.582 -0.512087 -1.98088 0
M  V30 1372 H 133.592 0.898433 -3.97985 0
M  V30 1373 H 132.267 -0.240989 -4.15201 0
M  V30 1374 H 130.844 1.44535 -3.4375 0
M  V30 1375 N 133.029 1.57378 -0.0835403 0
M  V30 1376 C 133.959 2.1641 0.87686 0
M  V30 1377 C 134.94 1.09429 1.30228 0
M  V30 1378 O 136.125 1.37516 1.37124 0
M  V30 1379 C 133.255 2.73517 2.14022 0
M  V30 1380 C 132.209 3.85769 1.85381 0
M  V30 1381 C 131.535 4.29529 3.18448 0
M  V30 1382 C 132.835 5.09486 1.14984 0
M  V30 1383 H 134.529 2.96914 0.385059 0
M  V30 1384 H 132.075 1.42823 0.18377 0
M  V30 1385 H 134.028 3.13463 2.81636 0
M  V30 1386 H 132.752 1.90252 2.65465 0
M  V30 1387 H 131.411 3.46345 1.20169 0
M  V30 1388 H 131.059 3.43169 3.67755 0
M  V30 1389 H 130.759 5.05204 3.00071 0
M  V30 1390 H 132.283 4.72099 3.8724 0
M  V30 1391 H 133.697 5.46674 1.72687 0
M  V30 1392 H 132.094 5.90515 1.06826 0
M  V30 1393 H 133.164 4.84724 0.130749 0
M  V30 1394 N 134.507 -0.190092 1.56449 0
M  V30 1395 C 135.47 -1.21925 1.9408 0
M  V30 1396 C 136.47 -1.38176 0.822431 0
M  V30 1397 O 137.66 -1.35903 1.08977 0
M  V30 1398 C 134.792 -2.58773 2.21922 0
M  V30 1399 H 135.985 -0.897464 2.86157 0
M  V30 1400 H 133.538 -0.43181 1.50217 0
M  V30 1401 H 134.273 -2.95998 1.32499 0
M  V30 1402 H 134.058 -2.48348 3.03424 0
M  V30 1403 H 135.548 -3.32978 2.52022 0
M  V30 1404 N 135.985 -1.50799 -0.457987 0
M  V30 1405 C 137.231 -1.62683 -1.21088 0
M  V30 1406 C 137.564 -0.332268 -1.91336 0
M  V30 1407 O 136.839 0.667043 -1.82704 0
M  V30 1408 C 137.122 -2.81615 -2.24422 0
M  V30 1409 C 136.975 -4.20989 -1.58392 0
M  V30 1410 C 138.294 -2.96085 -3.2561 0
M  V30 1411 H 135.413 -0.592087 -0.438864 0
M  V30 1412 H 138.055 -1.83225 -0.50286 0
M  V30 1413 H 136.205 -2.64231 -2.84806 0
M  V30 1414 H 137.877 -4.49994 -1.01504 0
M  V30 1415 H 136.12 -4.24641 -0.886704 0
M  V30 1416 H 136.791 -5.0016 -2.33547 0
M  V30 1417 H 139.267 -3.12042 -2.75262 0
M  V30 1418 H 138.143 -3.80902 -3.95228 0
M  V30 1419 H 138.404 -2.0726 -3.90507 0
M  V30 1420 N 137.463 0.71206 -1.40597 0
M  V30 1421 C 138.691 1.50111 -1.42388 0
M  V30 1422 C 139.106 1.88784 -0.0245395 0
M  V30 1423 O 138.463 1.55681 0.952351 0
M  V30 1424 C 138.514 2.7742 -2.31776 0
M  V30 1425 O 138.235 2.40382 -3.66262 0
M  V30 1426 C 139.736 3.7129 -2.42196 0
M  V30 1427 H 136.956 0.46314 -0.485533 0
M  V30 1428 H 139.5 0.878068 -1.8469 0
M  V30 1429 H 137.655 3.36001 -1.92827 0
M  V30 1430 H 138.069 3.22324 -4.13772 0
M  V30 1431 H 139.543 4.57448 -3.08943 0
M  V30 1432 H 140.02 4.14641 -1.44809 0
M  V30 1433 H 140.626 3.18619 -2.81712 0
M  V30 1434 N 138.941 1.26152 0.944643 0
M  V30 1435 C 140.218 1.02247 1.66748 0
M  V30 1436 C 140.598 -0.448202 2.06287 0
M  V30 1437 O 139.946 -1.42779 1.78399 0
M  V30 1438 C 140.156 1.96788 2.88228 0
M  V30 1439 C 141.504 2.25201 3.59958 0
M  V30 1440 O 142.528 1.94626 2.98327 0
M  V30 1441 O 141.387 2.77242 4.70956 0
M  V30 1442 H 138.481 0.388517 0.730057 0
M  V30 1443 H 141.027 1.37348 0.99668 0
M  V30 1444 H 139.799 2.96047 2.55875 0
M  V30 1445 H 139.422 1.62145 3.63035 0
M  V30 1446 N 140.419 -1.14872 1.07899 0
M  V30 1447 C 141.349 -2.2193 0.725887 0
M  V30 1448 C 142.33 -1.67622 -0.28927 0
M  V30 1449 O 143.515 -1.93533 -0.160787 0
M  V30 1450 C 140.645 -3.47061 0.128856 0
M  V30 1451 C 139.599 -4.14363 1.07178 0
M  V30 1452 C 138.925 -5.33636 0.337229 0
M  V30 1453 C 140.225 -4.63492 2.40775 0
M  V30 1454 H 141.919 -2.51724 1.62097 0
M  V30 1455 H 139.465 -1.20991 0.780838 0
M  V30 1456 H 141.418 -4.21199 -0.130147 0
M  V30 1457 H 140.142 -3.16617 -0.80134 0
M  V30 1458 H 138.801 -3.42173 1.3158 0
M  V30 1459 H 138.449 -4.99449 -0.596606 0
M  V30 1460 H 138.149 -5.79609 0.965788 0
M  V30 1461 H 139.673 -6.10539 0.0861567 0
M  V30 1462 H 141.087 -5.2913 2.20669 0
M  V30 1463 H 139.484 -5.20148 2.99276 0
M  V30 1464 H 140.554 -3.78834 3.02676 0
M  V30 1465 N 141.898 -0.863906 -1.31812 0
M  V30 1466 C 142.828 -0.330843 -2.31144 0
M  V30 1467 C 143.809 0.575005 -1.60087 0
M  V30 1468 O 144.994 0.493304 -1.8783 0
M  V30 1469 C 142.124 0.47374 -3.44054 0
M  V30 1470 C 141.078 -0.338481 -4.26659 0
M  V30 1471 C 140.404 0.591412 -5.31419 0
M  V30 1472 C 141.704 -1.56926 -4.98168 0
M  V30 1473 H 143.398 -1.16086 -2.75979 0
M  V30 1474 H 140.944 -0.559657 -1.32679 0
M  V30 1475 H 142.897 0.857143 -4.12591 0
M  V30 1476 H 141.621 1.33721 -2.9797 0
M  V30 1477 H 140.28 -0.703754 -3.59782 0
M  V30 1478 H 139.928 1.45199 -4.81587 0
M  V30 1479 H 139.628 0.0519022 -5.87577 0
M  V30 1480 H 141.152 0.97179 -6.02817 0
M  V30 1481 H 142.566 -1.25764 -5.59336 0
M  V30 1482 H 140.963 -2.04739 -5.64094 0
M  V30 1483 H 142.033 -2.32544 -4.25501 0
M  V30 1484 N 143.376 1.44774 -0.622745 0
M  V30 1485 C 144.622 2.0242 -0.124083 0
M  V30 1486 C 144.955 1.4881 1.24777 0
M  V30 1487 O 144.23 0.668799 1.8264 0
M  V30 1488 C 144.513 3.59957 -0.101619 0
M  V30 1489 C 144.366 4.23867 -1.50521 0
M  V30 1490 C 145.685 4.36284 0.578272 0
M  V30 1491 H 142.804 0.735528 -0.0465645 0
M  V30 1492 H 145.446 1.72447 -0.797617 0
M  V30 1493 H 143.596 3.85623 0.471934 0
M  V30 1494 H 145.268 4.09336 -2.12701 0
M  V30 1495 H 143.511 3.81684 -2.06154 0
M  V30 1496 H 144.182 5.32843 -1.4416 0
M  V30 1497 H 146.658 4.16001 0.0906057 0
M  V30 1498 H 145.534 5.46004 0.563149 0
M  V30 1499 H 145.795 4.10271 1.64713 0
M  V30 1500 N 144.854 0.36279 1.53368 0
M  V30 1501 C 146.079 -0.231226 2.06107 0
M  V30 1502 C 146.504 -1.419 1.23474 0
M  V30 1503 O 145.862 -1.79524 0.253128 0
M  V30 1504 C 145.91 -0.605523 3.5548 0
M  V30 1505 O 145.014 -1.70312 3.7559 0
M  V30 1506 H 144.355 -0.034327 0.663112 0
M  V30 1507 H 146.885 0.522584 1.97814 0
M  V30 1508 H 146.895 -0.877314 3.98456 0
M  V30 1509 H 145.57 0.263004 4.15068 0
M  V30 1510 H 144.147 -1.4271 3.44512 0
M  V30 1511 N 146.332 -1.57332 0.0918853 0
M  V30 1512 C 147.581 -1.93412 -0.572249 0
M  V30 1513 C 147.894 -0.975515 -1.69538 0
M  V30 1514 O 149.1 -1.22991 -2.42045 0
M  V30 1515 C 147.556 -3.43648 -1.0693 0
M  V30 1516 C 147.164 -4.47994 0.0239049 0
M  V30 1517 C 148.908 -3.88695 -1.70635 0
M  V30 1518 C 146.815 -5.89381 -0.488319 0
M  V30 1519 H 145.745 -0.721939 -0.217532 0
M  V30 1520 H 148.396 -1.82735 0.167369 0
M  V30 1521 H 146.778 -3.49466 -1.8625 0
M  V30 1522 H 147.952 -4.53815 0.799277 0
M  V30 1523 H 146.267 -4.12536 0.565946 0
M  V30 1524 H 148.864 -4.91725 -2.10025 0
M  V30 1525 H 149.207 -3.27166 -2.57426 0
M  V30 1526 H 149.74 -3.85564 -0.979023 0
M  V30 1527 H 146.479 -6.54602 0.342906 0
M  V30 1528 H 145.999 -5.87037 -1.23077 0
M  V30 1529 H 147.678 -6.39863 -0.958317 0
M  V30 1530 N 147.81 0.181792 -1.56548 0
M  V30 1531 C 148.74 1.22765 -1.98623 0
M  V30 1532 C 149.721 1.46747 -0.860189 0
M  V30 1533 O 150.906 1.58259 -1.12551 0
M  V30 1534 C 148.036 2.56894 -2.33715 0
M  V30 1535 C 146.99 2.475 -3.49182 0
M  V30 1536 C 146.316 3.86023 -3.69986 0
M  V30 1537 C 147.616 1.98866 -4.82959 0
M  V30 1538 H 149.31 0.877942 -2.86239 0
M  V30 1539 H 146.856 0.42088 -1.37712 0
M  V30 1540 H 148.809 3.30253 -2.61746 0
M  V30 1541 H 147.533 2.93632 -1.42997 0
M  V30 1542 H 146.192 1.76596 -3.21262 0
M  V30 1543 H 145.84 4.20136 -2.76576 0
M  V30 1544 H 145.54 3.80609 -4.47672 0
M  V30 1545 H 147.064 4.60984 -4.00407 0
M  V30 1546 H 148.478 2.61992 -5.09934 0
M  V30 1547 H 146.875 2.04424 -5.64208 0
M  V30 1548 H 147.945 0.942465 -4.75653 0
M  V30 1549 N 149.288 1.51039 0.449983 0
M  V30 1550 C 150.534 1.63322 1.20223 0
M  V30 1551 C 150.867 0.34241 1.91158 0
M  V30 1552 O 150.142 -0.657344 1.83055 0
M  V30 1553 C 150.425 2.82801 2.22925 0
M  V30 1554 C 150.278 4.21823 1.56157 0
M  V30 1555 C 151.597 2.97807 3.24035 0
M  V30 1556 H 148.716 0.594407 0.435718 0
M  V30 1557 H 151.358 1.83489 0.493136 0
M  V30 1558 H 149.508 2.65738 2.834 0
M  V30 1559 H 151.18 4.50526 0.991162 0
M  V30 1560 H 149.423 4.25105 0.864172 0
M  V30 1561 H 150.094 5.01391 2.30891 0
M  V30 1562 H 152.57 3.13497 2.73603 0
M  V30 1563 H 151.446 3.82992 3.93202 0
M  V30 1564 H 151.707 2.09328 3.89402 0
M  V30 1565 N 150.766 -0.704594 1.40972 0
M  V30 1566 C 151.699 -1.82861 1.36518 0
M  V30 1567 C 152.677 -1.6091 0.23382 0
M  V30 1568 O 153.861 -1.83778 0.419271 0
M  V30 1569 C 150.988 -3.1939 1.12729 0
M  V30 1570 C 150.034 -3.60148 2.28463 0
M  V30 1571 S 150.867 -3.65994 3.90907 0
M  V30 1572 C 152.023 -5.05264 3.69403 0
M  V30 1573 H 152.256 -1.86361 2.3164 0
M  V30 1574 H 149.789 -0.872439 1.27389 0
M  V30 1575 H 151.747 -3.98211 0.996893 0
M  V30 1576 H 150.408 -3.1351 0.192427 0
M  V30 1577 H 149.601 -4.59309 2.07489 0
M  V30 1578 H 149.203 -2.88612 2.37863 0
M  V30 1579 H 151.495 -5.92504 3.28551 0
M  V30 1580 H 152.438 -5.31278 4.68134 0
M  V30 1581 H 152.846 -4.76377 3.02862 0
M  V30 1582 N 152.244 -1.26651 -0.937939 0
M  V30 1583 C 153.655 -1.1125 -1.49934 0
M  V30 1584 C 154.006 0.306077 -1.93798 0
M  V30 1585 O 153.131 1.19792 -1.80219 0
M  V30 1586 C 153.726 -2.01339 -2.72485 0
M  V30 1587 C 152.285 -1.90074 -3.24883 0
M  V30 1588 C 151.432 -1.94498 -1.97651 0
M  V30 1589 H 154.383 -1.39693 -0.753091 0
M  V30 1590 H 154.404 -1.56319 -3.46907 0
M  V30 1591 H 153.916 -3.04577 -2.40529 0
M  V30 1592 H 152.017 -0.897827 -3.61621 0
M  V30 1593 H 152.13 -2.75778 -3.9177 0
M  V30 1594 H 150.494 -1.38591 -2.13693 0
M  V30 1595 H 151.277 -2.99372 -1.68022 0
M  V30 1596 N 153.722 1.14298 -1.08507 0
M  V30 1597 C 154.971 1.84708 -0.810305 0
M  V30 1598 C 155.284 1.83903 0.666271 0
M  V30 1599 O 156.49 2.50112 1.05624 0
M  V30 1600 C 154.946 3.31572 -1.39957 0
M  V30 1601 C 154.554 3.40791 -2.90801 0
M  V30 1602 C 156.298 4.07087 -1.20334 0
M  V30 1603 C 154.205 4.81872 -3.4286 0
M  V30 1604 H 153.135 0.691985 -0.299454 0
M  V30 1605 H 155.786 1.28841 -1.30661 0
M  V30 1606 H 154.168 3.87183 -0.830976 0
M  V30 1607 H 155.342 2.95225 -3.53806 0
M  V30 1608 H 153.657 2.78732 -3.0935 0
M  V30 1609 H 156.254 5.11225 -1.56693 0
M  V30 1610 H 156.597 4.16054 -0.143237 0
M  V30 1611 H 157.13 3.57779 -1.73893 0
M  V30 1612 H 153.869 4.78094 -4.48449 0
M  V30 1613 H 153.389 5.27972 -2.84615 0
M  V30 1614 H 155.068 5.50765 -3.39509 0
M  V30 1615 N 155.201 0.870884 1.31352 0
M  V30 1616 C 156.426 0.495957 2.01383 0
M  V30 1617 C 156.851 -0.904324 1.64935 0
M  V30 1618 O 156.209 -1.59687 0.858466 0
M  V30 1619 C 156.257 0.661433 3.54482 0
M  V30 1620 O 155.361 -0.298851 4.11316 0
M  V30 1621 H 154.702 0.197158 0.634054 0
M  V30 1622 H 157.232 1.17455 1.67527 0
M  V30 1623 H 157.242 0.555072 4.04207 0
M  V30 1624 H 155.917 1.68246 3.8035 0
M  V30 1625 H 154.494 -0.147368 3.72609 0
M  V30 1626 N 156.679 -1.44442 0.630414 0
M  V30 1627 C 157.907 -2.06414 0.141671 0
M  V30 1628 C 158.322 -1.47105 -1.18345 0
M  V30 1629 O 157.679 -0.593662 -1.72574 0
M  V30 1630 C 157.73 -3.61494 0.0199784 0
M  V30 1631 O 157.451 -4.18594 1.29269 0
M  V30 1632 C 158.952 -4.40499 -0.497544 0
M  V30 1633 H 156.172 -0.666292 0.0793452 0
M  V30 1634 H 158.716 -1.85323 0.864614 0
M  V30 1635 H 156.871 -3.8185 -0.653402 0
M  V30 1636 H 157.285 -5.12026 1.13707 0
M  V30 1637 H 158.759 -5.49433 -0.531708 0
M  V30 1638 H 159.236 -4.11895 -1.52445 0
M  V30 1639 H 159.842 -4.25061 0.142562 0
M  V30 1640 N 158.157 -0.370918 -1.53173 0
M  V30 1641 C 159.09 0.516727 -2.22273 0
M  V30 1642 C 160.068 1.07877 -1.21661 0
M  V30 1643 O 161.252 1.13389 -1.50583 0
M  V30 1644 C 158.379 1.71346 -2.92161 0
M  V30 1645 C 157.425 1.27838 -4.0689 0
M  V30 1646 S 158.258 0.275217 -5.34792 0
M  V30 1647 C 159.414 1.47816 -6.08195 0
M  V30 1648 H 159.647 -0.0701054 -2.97217 0
M  V30 1649 H 157.18 -0.155038 -1.5362 0
M  V30 1650 H 159.138 2.39988 -3.3304 0
M  V30 1651 H 157.799 2.27156 -2.16931 0
M  V30 1652 H 156.992 2.17141 -4.54825 0
M  V30 1653 H 156.594 0.671105 -3.6793 0
M  V30 1654 H 158.886 2.40831 -6.33251 0
M  V30 1655 H 159.829 1.04008 -7.0042 0
M  V30 1656 H 160.237 1.68663 -5.38714 0
M  V30 1657 N 159.635 1.57281 -0.100228 0
M  V30 1658 C 160.865 1.98591 0.569681 0
M  V30 1659 C 161.273 0.978315 1.61943 0
M  V30 1660 O 160.616 -0.0396108 1.83657 0
M  V30 1661 C 160.678 3.36282 1.271 0
M  V30 1662 C 160.342 4.55488 0.371409 0
M  V30 1663 C 161.339 5.18491 -0.382504 0
M  V30 1664 C 159.024 5.01474 0.287965 0
M  V30 1665 C 161.018 6.25852 -1.20779 0
M  V30 1666 C 158.705 6.08701 -0.540965 0
M  V30 1667 C 159.703 6.70755 -1.28749 0
M  V30 1668 O 159.391 7.75914 -2.10269 0
M  V30 1669 H 159.123 0.65752 0.156982 0
M  V30 1670 H 161.677 2.0463 -0.177734 0
M  V30 1671 H 159.907 3.26941 2.0651 0
M  V30 1672 H 161.596 3.62005 1.83595 0
M  V30 1673 H 162.362 4.83891 -0.3278 0
M  V30 1674 H 158.241 4.52932 0.858689 0
M  V30 1675 H 161.785 6.74218 -1.79096 0
M  V30 1676 H 157.682 6.42732 -0.597131 0
M  V30 1677 H 158.45 7.92925 -2.03007 0
M  V30 1678 N 161.113 -0.173488 1.56642 0
M  V30 1679 C 162.341 -0.906095 1.86004 0
M  V30 1680 C 162.756 -1.75921 0.685355 0
M  V30 1681 O 162.113 -1.79198 -0.345578 0
M  V30 1682 C 162.164 -1.78462 3.14378 0
M  V30 1683 O 161.885 -0.965914 4.27319 0
M  V30 1684 C 163.386 -2.62707 3.57071 0
M  V30 1685 H 160.606 -0.263341 0.617165 0
M  V30 1686 H 163.15 -0.174236 2.03756 0
M  V30 1687 H 161.305 -2.46984 2.98459 0
M  V30 1688 H 161.719 -1.56655 5.00559 0
M  V30 1689 H 163.193 -3.19969 4.49804 0
M  V30 1690 H 163.67 -3.37472 2.81086 0
M  V30 1691 H 164.276 -1.99521 3.75595 0
M  V30 1692 N 162.591 -1.51276 -0.441967 0
M  V30 1693 C 163.837 -1.63958 -1.19355 0
M  V30 1694 C 164.17 -0.352543 -1.90973 0
M  V30 1695 O 163.445 0.647627 -1.83401 0
M  V30 1696 C 163.728 -2.83979 -2.21422 0
M  V30 1697 C 163.581 -4.22646 -1.53918 0
M  V30 1698 C 164.9 -2.99521 -3.22451 0
M  V30 1699 H 162.019 -0.596709 -0.432559 0
M  V30 1700 H 164.661 -1.83748 -0.483398 0
M  V30 1701 H 162.811 -2.67237 -2.81987 0
M  V30 1702 H 164.483 -4.51045 -0.967256 0
M  V30 1703 H 162.726 -4.25558 -0.841615 0
M  V30 1704 H 163.397 -5.02609 -2.28229 0
M  V30 1705 H 165.873 -3.14944 -2.71937 0
M  V30 1706 H 164.749 -3.85072 -3.91166 0
M  V30 1707 H 165.01 -2.11391 -3.88287 0
M  V30 1708 N 164.069 0.697108 -1.41344 0
M  V30 1709 C 165.297 1.48593 -1.43972 0
M  V30 1710 C 165.712 1.88747 -0.0445612 0
M  V30 1711 O 165.069 1.56682 0.935785 0
M  V30 1712 C 165.12 2.74946 -2.34706 0
M  V30 1713 O 164.841 2.36484 -3.68791 0
M  V30 1714 C 166.342 3.687 -2.46121 0
M  V30 1715 H 163.562 0.457964 -0.490418 0
M  V30 1716 H 166.106 0.858429 -1.8561 0
M  V30 1717 H 164.261 3.33937 -1.9638 0
M  V30 1718 H 164.675 3.17918 -4.17167 0
M  V30 1719 H 166.149 4.54145 -3.13777 0
M  V30 1720 H 166.626 4.13081 -1.49199 0
M  V30 1721 H 167.232 3.15613 -2.85076 0
M  V30 1722 N 165.547 1.27147 0.931209 0
M  V30 1723 C 166.795 1.13055 1.6752 0
M  V30 1724 C 167.116 -0.324791 1.92276 0
M  V30 1725 O 166.386 -1.22775 1.52654 0
M  V30 1726 H 164.966 0.415391 0.620854 0
M  V30 1727 H 167.628 1.59623 1.11833 0
M  V30 1728 H 166.724 1.65694 2.64485 0
M  V30 1729 N 167.025 -1.13721 1.09112 0
M  V30 1730 C 168.441 -1.36914 0.820174 0
M  V30 1731 C 168.641 -1.93356 -0.567079 0
M  V30 1732 O 167.697 -2.15093 -1.32255 0
M  V30 1733 C 169.01 -2.3235 1.90877 0
M  V30 1734 C 170.558 -2.45973 1.93562 0
M  V30 1735 C 171.033 -3.44714 3.01556 0
M  V30 1736 N 172.524 -3.52263 3.00775 0
M  V30 1737 C 173.259 -4.28536 3.80978 0
M  V30 1738 N 172.755 -5.07991 4.71081 0
M  V30 1739 N 174.548 -4.23804 3.69251 0
M  V30 1740 H 166.699 -0.754348 1.98553 0
M  V30 1741 H 168.962 -0.3944 0.862063 0
M  V30 1742 H 168.668 -1.98027 2.90651 0
M  V30 1743 H 168.542 -3.32332 1.78424 0
M  V30 1744 H 170.929 -2.79584 0.944286 0
M  V30 1745 H 171.01 -1.45926 2.10093 0
M  V30 1746 H 170.654 -3.11835 4.00901 0
M  V30 1747 H 170.584 -4.44558 2.82269 0
M  V30 1748 H 173.075 -2.95567 2.35475 0
M  V30 1749 H 173.388 -5.63487 5.28869 0
M  V30 1750 H 171.733 -5.07235 4.75119 0
M  V30 1751 H 174.924 -3.60806 2.98222 0
M  V30 1752 H 175.097 -4.82995 4.31995 0
M  V30 1753 N 168.503 -0.877838 -1.30888 0
M  V30 1754 C 169.749 -0.502773 -1.97088 0
M  V30 1755 C 170.104 0.936274 -1.68082 0
M  V30 1756 O 169.397 1.65162 -0.971196 0
M  V30 1757 C 169.591 -0.705748 -3.50363 0
M  V30 1758 C 169.42 -2.16297 -3.94266 0
M  V30 1759 C 168.19 -2.80614 -4.20219 0
M  V30 1760 C 170.388 -3.13606 -4.07622 0
M  V30 1761 N 168.37 -4.17007 -4.50532 0
M  V30 1762 C 169.741 -4.35051 -4.41736 0
M  V30 1763 C 171.796 -3.09491 -3.90026 0
M  V30 1764 C 170.499 -5.52911 -4.60089 0
M  V30 1765 C 172.525 -4.26616 -4.09576 0
M  V30 1766 C 171.887 -5.46825 -4.44029 0
M  V30 1767 H 167.986 -0.233168 -0.746429 0
M  V30 1768 H 170.57 -1.13408 -1.58261 0
M  V30 1769 H 168.741 -0.103976 -3.88261 0
M  V30 1770 H 170.473 -0.298291 -4.03599 0
M  V30 1771 H 167.228 -2.3152 -4.13153 0
M  V30 1772 H 167.652 -4.87426 -4.69834 0
M  V30 1773 H 172.294 -2.17657 -3.62471 0
M  V30 1774 H 170.012 -6.45255 -4.86489 0
M  V30 1775 H 173.598 -4.24894 -3.97438 0
M  V30 1776 H 172.478 -6.35947 -4.58848 0
M  V30 1777 N 169.982 1.44106 -0.638065 0
M  V30 1778 C 171.21 2.06336 -0.152615 0
M  V30 1779 C 171.625 1.47731 1.17563 0
M  V30 1780 O 170.982 0.602806 1.72257 0
M  V30 1781 C 171.033 3.61479 -0.0391491 0
M  V30 1782 O 170.754 4.17903 -1.31487 0
M  V30 1783 C 172.255 4.40757 0.474176 0
M  V30 1784 H 169.475 0.665862 -0.0828776 0
M  V30 1785 H 172.019 1.84862 -0.87443 0
M  V30 1786 H 170.174 3.82191 0.633142 0
M  V30 1787 H 170.588 5.11416 -1.16421 0
M  V30 1788 H 172.062 5.49707 0.502562 0
M  V30 1789 H 172.539 4.12697 1.50258 0
M  V30 1790 H 173.145 4.24979 -0.165102 0
M  V30 1791 N 171.46 0.379036 1.52974 0
M  V30 1792 C 172.39 -0.452706 2.29069 0
M  V30 1793 C 173.371 -1.07237 1.32039 0
M  V30 1794 O 174.556 -1.08708 1.60923 0
M  V30 1795 C 171.686 -1.5856 3.08992 0
M  V30 1796 C 170.64 -1.0925 4.13822 0
M  V30 1797 C 169.966 -2.31668 4.81907 0
M  V30 1798 C 171.266 -0.167702 5.22031 0
M  V30 1799 H 172.96 0.182181 2.98845 0
M  V30 1800 H 170.506 0.0890592 1.43724 0
M  V30 1801 H 172.459 -2.1742 3.6098 0
M  V30 1802 H 171.183 -2.24792 2.36931 0
M  V30 1803 H 169.842 -0.526494 3.628 0
M  V30 1804 H 169.49 -2.96386 4.06404 0
M  V30 1805 H 169.19 -1.9934 5.52754 0
M  V30 1806 H 170.714 -2.91189 5.36695 0
M  V30 1807 H 172.128 -0.664186 5.6944 0
M  V30 1808 H 170.525 0.0653265 6.00064 0
M  V30 1809 H 171.595 0.786347 4.78482 0
M  V30 1810 N 172.938 -1.57226 0.108567 0
M  V30 1811 C 174.186 -1.94448 -0.550853 0
M  V30 1812 C 174.507 -0.992074 -1.67878 0
M  V30 1813 O 173.777 -0.0465 -1.95845 0
M  V30 1814 H 172.357 -0.717897 -0.206479 0
M  V30 1815 H 175.019 -1.94112 0.175062 0
M  V30 1816 H 174.115 -2.97218 -0.952259 0
M  V30 1817 N 174.416 0.165178 -1.56732 0
M  V30 1818 C 175.348 1.22911 -1.93457 0
M  V30 1819 C 176.361 1.40152 -0.828333 0
M  V30 1820 O 177.55 1.40046 -1.10677 0
M  V30 1821 C 174.65 2.59686 -2.17753 0
M  V30 1822 C 173.823 2.63663 -3.48999 0
M  V30 1823 C 172.882 3.81845 -3.62051 0
M  V30 1824 O 171.908 3.67559 -4.34613 0
M  V30 1825 N 173.11 4.98557 -2.97357 0
M  V30 1826 H 175.875 0.917118 -2.85323 0
M  V30 1827 H 173.436 0.354895 -1.57962 0
M  V30 1828 H 175.428 3.37225 -2.23743 0
M  V30 1829 H 173.998 2.83251 -1.32242 0
M  V30 1830 H 173.218 1.72173 -3.54612 0
M  V30 1831 H 174.506 2.63336 -4.35352 0
M  V30 1832 H 173.904 5.13065 -2.38287 0
M  V30 1833 H 172.461 5.73936 -3.08934 0
M  V30 1834 N 175.894 1.51508 0.433938 0
M  V30 1835 C 177.14 1.64588 1.18484 0
M  V30 1836 C 177.473 0.362666 1.90784 0
M  V30 1837 O 176.748 -0.637892 1.83742 0
M  V30 1838 C 177.031 2.85149 2.19913 0
M  V30 1839 C 176.884 4.23456 1.51674 0
M  V30 1840 C 178.203 3.01227 3.20858 0
M  V30 1841 H 175.322 0.598994 0.429389 0
M  V30 1842 H 177.964 1.84002 0.473647 0
M  V30 1843 H 176.114 2.68729 2.80566 0
M  V30 1844 H 177.786 4.51552 0.943322 0
M  V30 1845 H 176.029 4.25998 0.819035 0
M  V30 1846 H 176.7 5.03812 2.2556 0
M  V30 1847 H 179.176 3.16382 2.70263 0
M  V30 1848 H 178.052 3.87141 3.89118 0
M  V30 1849 H 178.313 2.13447 3.8716 0
M  V30 1850 N 177.372 -0.689602 1.41712 0
M  V30 1851 C 178.618 -1.45181 1.41599 0
M  V30 1852 C 178.951 -1.94181 0.0270081 0
M  V30 1853 O 178.226 -1.6993 -0.946265 0
M  V30 1854 C 178.509 -2.65945 2.42787 0
M  V30 1855 C 178.362 -2.22672 3.90816 0
M  V30 1856 C 179.681 -3.68149 2.41151 0
M  V30 1857 H 176.8 -0.526576 0.515642 0
M  V30 1858 H 179.442 -0.784947 1.73028 0
M  V30 1859 H 177.592 -3.2284 2.16116 0
M  V30 1860 H 179.264 -1.71058 4.28412 0
M  V30 1861 H 177.507 -1.54394 4.05395 0
M  V30 1862 H 178.178 -3.0935 4.57172 0
M  V30 1863 H 180.654 -3.2094 2.64834 0
M  V30 1864 H 179.53 -4.50248 3.13955 0
M  V30 1865 H 179.791 -4.18259 1.43221 0
M  V30 1866 N 178.85 -1.27639 -0.924453 0
M  V30 1867 C 180.09 -1.15407 -1.68703 0
M  V30 1868 C 180.454 0.294581 -1.89727 0
M  V30 1869 O 181.655 0.539385 -2.63333 0
M  V30 1870 C 179.926 -1.9195 -3.0148 0
M  V30 1871 S 181.485 -1.95969 -3.92609 0
M  V30 1872 H 178.303 -0.411937 -0.579507 0
M  V30 1873 H 180.905 -1.61592 -1.10038 0
M  V30 1874 H 179.609 -2.96387 -2.83871 0
M  V30 1875 H 179.14 -1.46272 -3.65196 0
M  V30 1876 H 181.155 -1.05846 -4.84779 0
M  V30 1877 N 180.328 1.1314 -1.09713 0
M  V30 1878 C 181.605 1.80762 -0.747302 0
M  V30 1879 C 181.985 1.96663 0.767265 0
M  V30 1880 O 181.333 1.53706 1.69076 0
M  V30 1881 C 181.543 3.15606 -1.48975 0
M  V30 1882 C 182.891 3.90914 -1.65746 0
M  V30 1883 O 183.915 3.25239 -1.45251 0
M  V30 1884 O 182.774 5.08718 -1.9967 0
M  V30 1885 H 179.868 0.782103 -0.268782 0
M  V30 1886 H 182.414 1.20041 -1.19951 0
M  V30 1887 H 181.186 2.99278 -2.52088 0
M  V30 1888 H 180.809 3.84029 -1.02991 0
M  V30 1889 N 181.806 0.884767 1.30421 0
M  V30 1890 C 183.053 0.503105 1.96151 0
M  V30 1891 C 183.381 -0.947676 1.69851 0
M  V30 1892 O 182.636 -1.68467 0.995861 0
M  V30 1893 C 182.935 0.724318 3.49983 0
M  V30 1894 C 182.601 2.15015 3.96332 0
M  V30 1895 C 181.263 2.54005 4.08699 0
M  V30 1896 C 183.615 3.07936 4.20505 0
M  V30 1897 C 180.943 3.85128 4.42599 0
M  V30 1898 C 183.295 4.3859 4.55874 0
M  V30 1899 C 181.959 4.77474 4.66449 0
M  V30 1900 H 181.229 0.184099 0.717766 0
M  V30 1901 H 183.876 1.12058 1.55291 0
M  V30 1902 H 182.181 0.0238086 3.91793 0
M  V30 1903 H 183.878 0.408617 3.98913 0
M  V30 1904 H 180.468 1.8375 3.87213 0
M  V30 1905 H 184.652 2.79033 4.10431 0
M  V30 1906 H 179.908 4.14996 4.48986 0
M  V30 1907 H 184.082 5.10629 4.7353 0
M  V30 1908 H 181.709 5.79115 4.92473 0
M  V30 1909 N 183.284 -1.43765 0.645699 0
M  V30 1910 C 184.53 -2.02731 0.164844 0
M  V30 1911 C 184.885 -1.49983 -1.2051 0
M  V30 1912 O 184.178 -0.680208 -1.79119 0
M  V30 1913 C 184.372 -3.57238 0.107679 0
M  V30 1914 C 184.201 -4.24977 1.47054 0
M  V30 1915 C 182.971 -4.61356 2.06103 0
M  V30 1916 C 185.169 -4.54476 2.40741 0
M  V30 1917 N 183.151 -5.14132 3.35473 0
M  V30 1918 C 184.522 -5.08489 3.54737 0
M  V30 1919 C 186.577 -4.36438 2.39637 0
M  V30 1920 C 185.28 -5.46364 4.67845 0
M  V30 1921 C 187.306 -4.7537 3.5182 0
M  V30 1922 C 186.668 -5.2951 4.64541 0
M  V30 1923 H 182.767 -0.774976 0.104578 0
M  V30 1924 H 185.351 -1.75051 0.852367 0
M  V30 1925 H 183.522 -3.84498 -0.549165 0
M  V30 1926 H 185.254 -4.0288 -0.383351 0
M  V30 1927 H 182.009 -4.46151 1.58892 0
M  V30 1928 H 182.433 -5.4498 4.01654 0
M  V30 1929 H 187.075 -3.93861 1.53731 0
M  V30 1930 H 184.793 -5.87888 5.54448 0
M  V30 1931 H 188.379 -4.63115 3.52159 0
M  V30 1932 H 187.259 -5.59077 5.49911 0
M  V30 1933 N 184.763 -0.387143 -1.52771 0
M  V30 1934 C 185.693 0.440551 -2.29306 0
M  V30 1935 C 186.674 1.06535 -1.32606 0
M  V30 1936 O 187.859 1.07853 -1.61497 0
M  V30 1937 C 184.989 1.56919 -3.09829 0
M  V30 1938 C 183.943 1.07054 -4.14395 0
M  V30 1939 C 183.269 2.29109 -4.83129 0
M  V30 1940 C 184.569 0.140015 -5.22112 0
M  V30 1941 H 186.263 -0.198026 -2.98744 0
M  V30 1942 H 183.809 -0.09668 -1.43675 0
M  V30 1943 H 185.762 2.15503 -3.62128 0
M  V30 1944 H 184.486 2.23532 -2.3812 0
M  V30 1945 H 183.145 0.507247 -3.63074 0
M  V30 1946 H 182.793 2.94227 -4.0797 0
M  V30 1947 H 182.493 1.96406 -5.53804 0
M  V30 1948 H 184.017 2.88339 -5.38231 0
M  V30 1949 H 185.431 0.633978 -5.69784 0
M  V30 1950 H 183.828 -0.0971485 -6.00021 0
M  V30 1951 H 184.898 -0.811711 -4.78058 0
M  V30 1952 N 186.241 1.57166 -0.116904 0
M  V30 1953 C 187.466 1.999 0.55271 0
M  V30 1954 C 187.891 0.996039 1.59564 0
M  V30 1955 O 187.249 -0.032556 1.81271 0
M  V30 1956 C 187.297 3.4152 1.15742 0
M  V30 1957 O 186.401 3.44106 2.27299 0
M  V30 1958 H 185.742 0.649447 0.138258 0
M  V30 1959 H 188.272 2.03573 -0.204759 0
M  V30 1960 H 188.282 3.79684 1.49346 0
M  V30 1961 H 186.957 4.14034 0.393493 0
M  V30 1962 H 185.534 3.17759 1.9515 0
M  V30 1963 N 187.719 -0.156864 1.56817 0
M  V30 1964 C 188.944 -0.890331 1.87318 0
M  V30 1965 C 189.369 -1.74394 0.704855 0
M  V30 1966 O 188.727 -1.77972 -0.345786 0
M  V30 1967 C 188.775 -1.73102 3.16336 0
M  V30 1968 O 187.879 -2.83422 2.99576 0
M  V30 1969 H 187.22 -0.24857 0.615718 0
M  V30 1970 H 189.75 -0.150649 2.04045 0
M  V30 1971 H 189.76 -2.12803 3.48107 0
M  V30 1972 H 188.435 -1.10412 4.00976 0
M  V30 1973 H 187.012 -2.47199 2.7919 0
M  V30 1974 N 189.197 -1.51736 -0.425897 0
M  V30 1975 C 190.474 -1.55519 -1.1863 0
M  V30 1976 C 190.854 -0.326219 -2.08564 0
M  V30 1977 O 190.202 0.688012 -2.17896 0
M  V30 1978 C 190.412 -2.87521 -1.9782 0
M  V30 1979 C 191.76 -3.39899 -2.54468 0
M  V30 1980 O 192.784 -2.89148 -2.08019 0
M  V30 1981 O 191.643 -4.2848 -3.39215 0
M  V30 1982 H 188.737 -0.625739 -0.540721 0
M  V30 1983 H 191.283 -1.64055 -0.434038 0
M  V30 1984 H 190.055 -3.68422 -1.31836 0
M  V30 1985 H 189.678 -2.822 -2.80088 0
M  V30 1986 N 190.675 0.682077 -1.42076 0
M  V30 1987 C 191.924 1.43786 -1.41451 0
M  V30 1988 C 192.237 1.95574 -0.0317074 0
M  V30 1989 O 193.443 2.71326 0.0971462 0
M  V30 1990 C 191.899 2.60071 -2.48779 0
M  V30 1991 C 191.507 2.15013 -3.93031 0
M  V30 1992 C 193.251 3.37626 -2.57311 0
M  V30 1993 C 191.158 3.28336 -4.91883 0
M  V30 1994 H 190.088 0.540143 -0.526082 0
M  V30 1995 H 192.739 0.739157 -1.67955 0
M  V30 1996 H 191.121 3.32275 -2.15429 0
M  V30 1997 H 192.295 1.5001 -4.35699 0
M  V30 1998 H 190.61 1.50416 -3.88284 0
M  V30 1999 H 193.207 4.22012 -3.28345 0
M  V30 2000 H 193.55 3.83727 -1.61429 0
M  V30 2001 H 194.083 2.72488 -2.89819 0
M  V30 2002 H 190.822 2.87234 -5.89217 0
M  V30 2003 H 190.342 3.92145 -4.53853 0
M  V30 2004 H 192.021 3.93913 -5.13265 0
M  V30 2005 N 192.153 1.28127 0.917671 0
M  V30 2006 C 193.381 1.17892 1.70026 0
M  V30 2007 C 193.796 -0.262958 1.8696 0
M  V30 2008 O 193.153 -1.17811 1.3938 0
M  V30 2009 C 193.204 1.86872 3.09453 0
M  V30 2010 O 192.925 3.25428 2.93306 0
M  V30 2011 C 194.426 1.8289 4.03815 0
M  V30 2012 H 191.646 0.40942 0.531617 0
M  V30 2013 H 194.19 1.69181 1.14883 0
M  V30 2014 H 192.345 1.39464 3.61426 0
M  V30 2015 H 192.759 3.59918 3.81523 0
M  V30 2016 H 194.233 2.35751 4.99125 0
M  V30 2017 H 194.71 0.800412 4.31845 0
M  V30 2018 H 195.316 2.29959 3.57769 0
M  V30 2019 N 193.631 -1.12557 1.10312 0
M  V30 2020 C 194.871 -1.8568 0.854543 0
M  V30 2021 C 195.235 -1.82091 -0.608843 0
M  V30 2022 O 196.436 -2.50544 -0.973717 0
M  V30 2023 C 194.707 -3.2942 1.38626 0
M  V30 2024 S 196.266 -4.19931 1.27293 0
M  V30 2025 H 193.084 -0.640427 0.308827 0
M  V30 2026 H 195.686 -1.35599 1.40831 0
M  V30 2027 H 194.39 -3.2959 2.44537 0
M  V30 2028 H 193.921 -3.84566 0.82902 0
M  V30 2029 H 195.936 -4.95668 0.229776 0
M  V30 2030 N 195.109 -0.891671 -1.2995 0
M  V30 2031 C 196.349 -0.520296 -1.97667 0
M  V30 2032 C 196.713 0.914797 -1.68806 0
M  V30 2033 O 197.914 1.39263 -2.29911 0
M  V30 2034 C 196.185 -0.795222 -3.48441 0
M  V30 2035 S 197.744 -0.526953 -4.35624 0
M  V30 2036 H 194.562 -0.19333 -0.684211 0
M  V30 2037 H 197.164 -1.15238 -1.57926 0
M  V30 2038 H 195.868 -1.83805 -3.66938 0
M  V30 2039 H 195.399 -0.15095 -3.9311 0
M  V30 2040 H 197.414 0.631533 -4.92165 0
M  V30 2041 N 196.587 1.43421 -0.653314 0
M  V30 2042 C 197.815 2.06163 -0.174491 0
M  V30 2043 C 198.23 1.48969 1.1599 0
M  V30 2044 O 197.587 0.621042 1.71608 0
M  V30 2045 C 197.638 3.61417 -0.0774865 0
M  V30 2046 O 197.359 4.16485 -1.35912 0
M  V30 2047 C 198.86 4.41235 0.427402 0
M  V30 2048 H 196.08 0.664946 -0.0899353 0
M  V30 2049 H 198.624 1.83924 -0.893988 0
M  V30 2050 H 196.779 3.82841 0.59257 0
M  V30 2051 H 197.193 5.10153 -1.21839 0
M  V30 2052 H 198.667 5.5021 0.44423 0
M  V30 2053 H 199.144 4.14268 1.45873 0
M  V30 2054 H 199.75 4.2478 -0.210167 0
M  V30 2055 N 198.065 0.39524 1.52563 0
M  V30 2056 C 199.028 -0.425001 2.25225 0
M  V30 2057 C 200.028 -0.985266 1.27079 0
M  V30 2058 O 201.218 -0.866332 1.5113 0
M  V30 2059 C 198.35 -1.59686 3.01186 0
M  V30 2060 H 199.543 0.211233 2.99155 0
M  V30 2061 H 197.096 0.147472 1.55603 0
M  V30 2062 H 197.831 -2.27035 2.31572 0
M  V30 2063 H 197.616 -1.20176 3.73229 0
M  V30 2064 H 199.106 -2.17743 3.5634 0
M  V30 2065 N 199.544 -1.57102 0.125237 0
M  V30 2066 C 200.769 -2.0019 -0.542101 0
M  V30 2067 C 201.194 -1.00449 -1.59034 0
M  V30 2068 O 200.552 0.0229423 -1.81285 0
M  V30 2069 C 200.6 -3.42129 -1.13929 0
M  V30 2070 O 199.704 -3.45307 -2.2547 0
M  V30 2071 H 199.045 -0.650171 -0.134812 0
M  V30 2072 H 201.575 -2.03461 0.215553 0
M  V30 2073 H 201.585 -3.80471 -1.4733 0
M  V30 2074 H 200.26 -4.14237 -0.371531 0
M  V30 2075 H 198.837 -3.1879 -1.93462 0
M  V30 2076 N 201.022 0.148545 -1.56898 0
M  V30 2077 C 202.271 0.85984 -1.82454 0
M  V30 2078 C 202.584 1.82406 -0.706229 0
M  V30 2079 O 203.79 2.57938 -0.847349 0
M  V30 2080 C 202.246 1.57967 -3.2338 0
M  V30 2081 C 201.854 0.65794 -4.43142 0
M  V30 2082 C 203.598 2.27784 -3.58211 0
M  V30 2083 C 201.505 1.3793 -5.75091 0
M  V30 2084 H 200.435 0.324834 -0.68044 0
M  V30 2085 H 203.086 0.112588 -1.83154 0
M  V30 2086 H 201.468 2.37249 -3.17063 0
M  V30 2087 H 202.642 -0.0995497 -4.60692 0
M  V30 2088 H 200.957 0.0682643 -4.16344 0
M  V30 2089 H 203.554 2.8239 -4.54048 0
M  V30 2090 H 203.897 3.04204 -2.84193 0
M  V30 2091 H 204.43 1.55421 -3.66182 0
M  V30 2092 H 201.169 0.656982 -6.52199 0
M  V30 2093 H 200.689 2.10954 -5.61479 0
M  V30 2094 H 202.368 1.92063 -6.17835 0
M  V30 2095 N 202.5 1.5196 0.417844 0
M  V30 2096 C 203.43 1.77634 1.51554 0
M  V30 2097 C 204.411 0.626918 1.58126 0
M  V30 2098 O 205.596 0.871632 1.7354 0
M  V30 2099 C 202.726 1.91911 2.8946 0
M  V30 2100 C 201.68 3.07463 2.97743 0
M  V30 2101 C 201.006 3.06951 4.37819 0
M  V30 2102 C 202.306 4.47082 2.70027 0
M  V30 2103 H 204 2.6955 1.3032 0
M  V30 2104 H 201.546 1.29706 0.625492 0
M  V30 2105 H 203.499 2.08455 3.6623 0
M  V30 2106 H 202.223 0.966598 3.11969 0
M  V30 2107 H 200.882 2.90656 2.23416 0
M  V30 2108 H 200.53 2.09438 4.57323 0
M  V30 2109 H 200.23 3.84556 4.44286 0
M  V30 2110 H 201.754 3.25613 5.16535 0
M  V30 2111 H 203.168 4.6414 3.36522 0
M  V30 2112 H 201.565 5.2654 2.87881 0
M  V30 2113 H 202.635 4.55777 1.65514 0
M  V30 2114 N 203.978 -0.674533 1.42435 0
M  V30 2115 C 204.928 -1.7807 1.4239 0
M  V30 2116 C 205.912 -1.58169 0.295202 0
M  V30 2117 O 207.104 -1.68643 0.537449 0
M  V30 2118 C 204.233 -3.16532 1.32901 0
M  V30 2119 C 203.319 -3.42055 2.50717 0
M  V30 2120 N 203.71 -3.38162 3.76139 0
M  V30 2121 C 202.008 -3.72692 2.44983 0
M  V30 2122 C 202.709 -3.63177 4.54398 0
M  V30 2123 N 201.685 -3.83954 3.84812 0
M  V30 2124 H 205.487 -1.73454 2.37257 0
M  V30 2125 H 203.001 -0.875381 1.36788 0
M  V30 2126 H 204.998 -3.958 1.30951 0
M  V30 2127 H 203.658 -3.22345 0.390363 0
M  V30 2128 H 204.669 -3.18057 4.0873 0
M  V30 2129 H 201.346 -3.85749 1.59699 0
M  V30 2130 H 202.736 -3.66125 5.63384 0
M  V30 2131 N 205.456 -1.28612 -0.910864 0
M  V30 2132 C 206.386 -1.15326 -2.03032 0
M  V30 2133 C 207.367 -0.0502924 -1.70026 0
M  V30 2134 O 208.552 -0.227797 -1.92859 0
M  V30 2135 C 205.682 -0.817343 -3.37545 0
M  V30 2136 C 204.636 -1.8754 -3.84724 0
M  V30 2137 C 203.962 -1.39305 -5.16235 0
M  V30 2138 C 205.262 -3.28244 -4.06267 0
M  V30 2139 H 206.956 -2.08975 -2.14406 0
M  V30 2140 H 204.502 -1.00612 -1.03021 0
M  V30 2141 H 206.455 -0.711151 -4.15356 0
M  V30 2142 H 205.179 0.154846 -3.26233 0
M  V30 2143 H 203.838 -1.97079 -3.09121 0
M  V30 2144 H 203.486 -0.409846 -5.01328 0
M  V30 2145 H 203.186 -2.10057 -5.48771 0
M  V30 2146 H 204.71 -1.30014 -5.96598 0
M  V30 2147 H 206.124 -3.21611 -4.74594 0
M  V30 2148 H 204.521 -3.96855 -4.5014 0
M  V30 2149 H 205.591 -3.72048 -3.10979 0
M  V30 2150 N 206.934 1.1197 -1.10907 0
M  V30 2151 C 208.174 1.85224 -0.864378 0
M  V30 2152 C 208.538 1.82411 0.599178 0
M  V30 2153 O 209.739 2.51057 0.960416 0
M  V30 2154 C 208.01 3.2868 -1.40371 0
M  V30 2155 S 209.569 4.1925 -1.29518 0
M  V30 2156 H 206.387 0.63878 -0.312219 0
M  V30 2157 H 208.989 1.3485 -1.41548 0
M  V30 2158 H 207.693 3.28289 -2.46281 0
M  V30 2159 H 207.224 3.84121 -0.849402 0
M  V30 2160 H 209.239 4.95539 -0.256059 0
M  V30 2161 N 208.412 0.89855 1.29475 0
M  V30 2162 C 209.658 0.524658 1.95896 0
M  V30 2163 C 209.991 -0.926468 1.70676 0
M  V30 2164 O 209.266 -1.65665 1.01908 0
M  V30 2165 C 209.549 0.81633 3.50725 0
M  V30 2166 C 209.402 2.31907 3.85408 0
M  V30 2167 C 210.721 0.302038 4.39062 0
M  V30 2168 H 207.84 0.19209 0.711527 0
M  V30 2169 H 210.482 1.12502 1.53112 0
M  V30 2170 H 208.632 0.305369 3.87298 0
M  V30 2171 H 210.304 2.89949 3.58786 0
M  V30 2172 H 208.547 2.78027 3.32992 0
M  V30 2173 H 209.218 2.47373 4.93468 0
M  V30 2174 H 211.694 0.739551 4.09475 0
M  V30 2175 H 210.57 0.535331 5.46283 0
M  V30 2176 H 210.831 -0.797216 4.34853 0
M  V30 2177 N 209.89 -1.43072 0.660911 0
M  V30 2178 C 211.139 -2.00942 0.174735 0
M  V30 2179 C 211.452 -1.52797 -1.22117 0
M  V30 2180 O 212.658 -2.02991 -1.80297 0
M  V30 2181 C 211.114 -3.58948 0.261559 0
M  V30 2182 C 210.722 -4.16085 1.66064 0
M  V30 2183 C 212.466 -4.24173 -0.166617 0
M  V30 2184 C 210.373 -5.6641 1.70098 0
M  V30 2185 H 209.303 -0.751483 0.0615631 0
M  V30 2186 H 211.954 -1.63955 0.824069 0
M  V30 2187 H 210.336 -3.93372 -0.455421 0
M  V30 2188 H 211.51 -3.93147 2.40359 0
M  V30 2189 H 209.825 -3.6326 2.03546 0
M  V30 2190 H 212.422 -5.34471 -0.156433 0
M  V30 2191 H 212.765 -3.98647 -1.19943 0
M  V30 2192 H 213.298 -3.94659 0.498875 0
M  V30 2193 H 210.037 -5.96715 2.71315 0
M  V30 2194 H 209.557 -5.91382 1.00139 0
M  V30 2195 H 211.236 -6.30585 1.44816 0
M  V30 2196 N 211.368 -0.403325 -1.52352 0
M  V30 2197 C 212.331 0.413051 -2.25447 0
M  V30 2198 C 213.331 0.978513 -1.276 0
M  V30 2199 O 214.521 0.858305 -1.51587 0
M  V30 2200 C 211.653 1.58087 -3.02029 0
M  V30 2201 H 212.846 -0.227094 -2.99039 0
M  V30 2202 H 210.399 -0.155722 -1.55522 0
M  V30 2203 H 211.134 2.25804 -2.32772 0
M  V30 2204 H 210.919 1.18195 -3.73861 0
M  V30 2205 H 212.409 2.1585 -3.57489 0
M  V30 2206 N 212.846 1.57033 -0.133567 0
M  V30 2207 C 213.776 2.1909 0.807567 0
M  V30 2208 C 214.757 1.13517 1.26681 0
M  V30 2209 O 215.942 1.41809 1.32679 0
M  V30 2210 C 213.072 2.80188 2.05212 0
M  V30 2211 C 212.026 3.91471 1.73015 0
M  V30 2212 C 211.352 4.39443 3.04622 0
M  V30 2213 C 212.652 5.12886 0.987168 0
M  V30 2214 H 214.346 2.97988 0.290403 0
M  V30 2215 H 211.892 1.43335 0.138239 0
M  V30 2216 H 213.845 3.22264 2.71521 0
M  V30 2217 H 212.569 1.98601 2.59278 0
M  V30 2218 H 211.228 3.49993 1.0909 0
M  V30 2219 H 210.876 3.54695 3.56651 0
M  V30 2220 H 210.576 5.14495 2.83847 0
M  V30 2221 H 212.1 4.8418 3.72024 0
M  V30 2222 H 213.514 5.51891 1.55208 0
M  V30 2223 H 211.911 5.93615 0.87985 0
M  V30 2224 H 212.981 4.84894 -0.0235286 0
M  V30 2225 N 214.325 -0.140222 1.56975 0
M  V30 2226 C 215.602 -0.880769 1.74648 0
M  V30 2227 C 215.982 -1.99036 0.703404 0
M  V30 2228 O 215.33 -2.26821 -0.27648 0
M  V30 2229 C 215.54 -1.417 3.18939 0
M  V30 2230 C 216.888 -1.87774 3.80823 0
M  V30 2231 O 217.912 -1.51427 3.2241 0
M  V30 2232 O 216.771 -2.54827 4.83452 0
M  V30 2233 H 213.865 -0.416713 0.714338 0
M  V30 2234 H 216.411 -0.125618 1.69234 0
M  V30 2235 H 215.183 -0.619902 3.86359 0
M  V30 2236 H 214.806 -2.23546 3.28805 0
M  V30 2237 N 215.803 -1.52179 -0.40978 0
M  V30 2238 C 217.219 -1.40968 -0.74835 0
M  V30 2239 C 217.419 -0.513657 -1.94843 0
M  V30 2240 O 216.475 0.0208026 -2.52491 0
M  V30 2241 C 217.788 -2.83483 -1.0029 0
M  V30 2242 C 219.336 -2.92821 -1.10565 0
M  V30 2243 C 219.811 -4.36303 -1.39296 0
M  V30 2244 N 221.302 -4.39535 -1.46162 0
M  V30 2245 C 222.037 -5.47614 -1.70018 0
M  V30 2246 N 221.533 -6.65812 -1.91483 0
M  V30 2247 N 223.326 -5.35129 -1.72027 0
M  V30 2248 H 215.477 -2.0897 0.380186 0
M  V30 2249 H 217.74 -0.94185 0.107805 0
M  V30 2250 H 217.446 -3.51168 -0.193461 0
M  V30 2251 H 217.32 -3.24487 -1.92323 0
M  V30 2252 H 219.707 -2.25318 -1.90568 0
M  V30 2253 H 219.788 -2.55276 -0.16369 0
M  V30 2254 H 219.432 -5.04366 -0.598109 0
M  V30 2255 H 219.362 -4.71385 -2.34743 0
M  V30 2256 H 221.853 -3.54332 -1.31367 0
M  V30 2257 H 222.166 -7.43964 -2.09134 0
M  V30 2258 H 220.511 -6.68879 -1.88749 0
M  V30 2259 H 223.702 -4.41764 -1.54796 0
M  V30 2260 H 223.875 -6.19433 -1.9028 0
M  V30 2261 N 217.281 0.66697 -1.42791 0
M  V30 2262 C 218.511 1.45294 -1.46878 0
M  V30 2263 C 218.919 1.89027 -0.0809861 0
M  V30 2264 O 218.262 1.59219 0.916246 0
M  V30 2265 C 218.324 2.72908 -2.34012 0
M  V30 2266 C 217.988 2.51203 -3.81767 0
M  V30 2267 C 218.985 2.15302 -4.73224 0
M  V30 2268 C 216.67 2.65954 -4.26115 0
M  V30 2269 C 218.664 1.94431 -6.07022 0
M  V30 2270 C 216.351 2.44699 -5.59969 0
M  V30 2271 C 217.349 2.08992 -6.5024 0
M  V30 2272 O 217.037 1.87948 -7.81621 0
M  V30 2273 H 216.769 0.453306 -0.501487 0
M  V30 2274 H 219.323 0.826232 -1.88049 0
M  V30 2275 H 217.553 3.38089 -1.87703 0
M  V30 2276 H 219.242 3.34816 -2.29462 0
M  V30 2277 H 220.008 2.03495 -4.40244 0
M  V30 2278 H 215.887 2.92724 -3.56137 0
M  V30 2279 H 219.431 1.66484 -6.77443 0
M  V30 2280 H 215.328 2.56105 -5.9252 0
M  V30 2281 H 216.096 2.02483 -7.93059 0
M  V30 2282 N 218.759 1.29093 0.90403 0
M  V30 2283 C 220.005 1.17996 1.65676 0
M  V30 2284 C 220.36 -0.266816 1.90541 0
M  V30 2285 O 219.653 -1.19 1.50165 0
M  V30 2286 C 219.847 1.92224 3.01305 0
M  V30 2287 C 219.676 3.43972 2.89678 0
M  V30 2288 C 218.446 4.1332 2.90679 0
M  V30 2289 C 220.644 4.39546 2.67028 0
M  V30 2290 N 218.626 5.51463 2.69743 0
M  V30 2291 C 219.997 5.65119 2.5503 0
M  V30 2292 C 222.052 4.29359 2.52101 0
M  V30 2293 C 220.755 6.81663 2.29626 0
M  V30 2294 C 222.781 5.4565 2.28079 0
M  V30 2295 C 222.143 6.70193 2.16843 0
M  V30 2296 H 218.242 0.486759 0.612037 0
M  V30 2297 H 220.826 1.62868 1.06688 0
M  V30 2298 H 218.997 1.49773 3.58361 0
M  V30 2299 H 220.729 1.73429 3.65656 0
M  V30 2300 H 217.484 3.64984 3.01801 0
M  V30 2301 H 217.908 6.24105 2.6234 0
M  V30 2302 H 222.55 3.33769 2.59534 0
M  V30 2303 H 220.268 7.77313 2.20932 0
M  V30 2304 H 223.854 5.39664 2.1738 0
M  V30 2305 H 222.734 7.58659 1.98511 0
M  V30 2306 N 220.237 -1.11381 1.11499 0
M  V30 2307 C 221.2 -2.15622 0.777153 0
M  V30 2308 C 222.2 -1.59504 -0.203779 0
M  V30 2309 O 223.39 -1.74188 0.020782 0
M  V30 2310 C 220.522 -3.40556 0.153116 0
M  V30 2311 H 221.715 -2.47021 1.70061 0
M  V30 2312 H 219.268 -1.26577 0.916952 0
M  V30 2313 H 220.003 -3.14767 -0.780536 0
M  V30 2314 H 219.788 -3.8257 0.859238 0
M  V30 2315 H 221.278 -4.17546 -0.0671044 0
M  V30 2316 N 221.715 -0.905404 -1.28997 0
M  V30 2317 C 222.964 -0.530191 -1.94607 0
M  V30 2318 C 223.277 0.929185 -1.72121 0
M  V30 2319 O 224.483 1.41218 -2.31883 0
M  V30 2320 C 222.939 -0.897333 -3.48534 0
M  V30 2321 C 222.547 -2.37587 -3.79811 0
M  V30 2322 C 224.291 -0.592304 -4.20347 0
M  V30 2323 C 222.198 -2.68357 -5.27009 0
M  V30 2324 H 221.128 -0.194558 -0.728466 0
M  V30 2325 H 223.779 -1.10318 -1.46636 0
M  V30 2326 H 222.161 -0.253214 -3.9519 0
M  V30 2327 H 223.335 -3.06602 -3.43994 0
M  V30 2328 H 221.65 -2.6505 -3.2115 0
M  V30 2329 H 224.247 -0.798975 -5.28697 0
M  V30 2330 H 224.59 0.469474 -4.13644 0
M  V30 2331 H 225.123 -1.19452 -3.79442 0
M  V30 2332 H 221.862 -3.73355 -5.38782 0
M  V30 2333 H 221.382 -2.03971 -5.64053 0
M  V30 2334 H 223.061 -2.54922 -5.94663 0
M  V30 2335 N 223.193 1.4272 -0.668489 0
M  V30 2336 C 224.421 2.05966 -0.196348 0
M  V30 2337 C 224.836 1.50191 1.14403 0
M  V30 2338 O 224.193 0.639208 1.7094 0
M  V30 2339 C 224.244 3.61314 -0.115815 0
M  V30 2340 O 223.965 4.1502 -1.40322 0
M  V30 2341 C 225.466 4.41663 0.380579 0
M  V30 2342 H 222.686 0.663954 -0.0969829 0
M  V30 2343 H 225.23 1.82966 -0.913446 0
M  V30 2344 H 223.385 3.83448 0.551931 0
M  V30 2345 H 223.799 5.08832 -1.27243 0
M  V30 2346 H 225.273 5.5065 0.385848 0
M  V30 2347 H 225.75 4.15792 1.41471 0
M  V30 2348 H 226.356 4.24534 -0.255209 0
M  V30 2349 N 224.671 0.411399 1.52136 0
M  V30 2350 C 225.948 -0.222308 1.94333 0
M  V30 2351 C 226.328 -1.6242 1.34844 0
M  V30 2352 O 225.676 -2.22384 0.525145 0
M  V30 2353 C 225.886 -0.226345 3.48265 0
M  V30 2354 C 227.234 -0.444592 4.22266 0
M  V30 2355 O 228.258 -0.305602 3.54887 0
M  V30 2356 O 227.117 -0.718749 5.41753 0
M  V30 2357 H 224.211 -0.143907 0.814383 0
M  V30 2358 H 226.757 0.467506 1.63133 0
M  V30 2359 H 225.529 0.75475 3.83952 0
M  V30 2360 H 225.152 -0.960163 3.85832 0
M  V30 2361 N 226.149 -1.5696 0.141893 0
M  V30 2362 C 227.112 -2.15316 -0.785587 0
M  V30 2363 C 228.112 -1.09366 -1.1788 0
M  V30 2364 O 229.302 -1.35031 -1.10056 0
M  V30 2365 C 226.434 -2.71211 -2.06537 0
M  V30 2366 H 227.627 -2.98608 -0.278041 0
M  V30 2367 H 225.18 -1.5593 -0.107519 0
M  V30 2368 H 225.915 -1.91571 -2.6167 0
M  V30 2369 H 225.7 -3.4872 -1.79268 0
M  V30 2370 H 227.19 -3.16189 -2.72789 0
M  V30 2371 N 227.627 0.131896 -1.57047 0
M  V30 2372 C 228.873 0.843179 -1.84441 0
M  V30 2373 C 229.206 1.80129 -0.725749 0
M  V30 2374 O 228.481 1.92624 0.269469 0
M  V30 2375 C 228.764 1.60442 -3.22382 0
M  V30 2376 C 228.617 0.666782 -4.4483 0
M  V30 2377 C 229.936 2.56354 -3.5773 0
M  V30 2378 H 227.055 0.305081 -0.670891 0
M  V30 2379 H 229.697 0.107839 -1.89694 0
M  V30 2380 H 227.847 2.23128 -3.18035 0
M  V30 2381 H 229.519 0.0497646 -4.61273 0
M  V30 2382 H 227.762 -0.022609 -4.33794 0
M  V30 2383 H 228.433 1.23579 -5.37989 0
M  V30 2384 H 230.909 2.0378 -3.62785 0
M  V30 2385 H 229.785 3.06657 -4.5525 0
M  V30 2386 H 230.046 3.38419 -2.84473 0
M  V30 2387 N 229.106 1.52395 0.401703 0
M  V30 2388 C 230.016 1.7917 1.51444 0
M  V30 2389 C 231.032 0.677691 1.6026 0
M  V30 2390 O 232.208 0.963909 1.76835 0
M  V30 2391 C 229.273 1.94347 2.87107 0
M  V30 2392 C 228.334 3.18257 2.88116 0
M  V30 2393 C 227.567 3.32701 4.17308 0
M  V30 2394 O 227.79 2.52238 5.11598 0
M  V30 2395 O 226.724 4.25891 4.25324 0
M  V30 2396 H 230.55 2.73633 1.31752 0
M  V30 2397 H 228.135 1.3733 0.588296 0
M  V30 2398 H 230.017 2.06109 3.67555 0
M  V30 2399 H 228.692 1.03073 3.06851 0
M  V30 2400 H 227.599 3.11947 2.06494 0
M  V30 2401 H 228.932 4.09336 2.73322 0
M  V30 2402 N 230.584 -0.659388 1.43143 0
M  V30 2403 C 231.814 -1.44513 1.47646 0
M  V30 2404 C 232.222 -1.88981 0.0910095 0
M  V30 2405 O 231.565 -1.59702 -0.907789 0
M  V30 2406 C 231.627 -2.71663 2.35456 0
M  V30 2407 C 231.291 -2.49175 3.83094 0
M  V30 2408 C 232.288 -2.1279 4.74359 0
M  V30 2409 C 229.973 -2.63691 4.27519 0
M  V30 2410 C 231.967 -1.9121 6.08044 0
M  V30 2411 C 229.654 -2.41726 5.61259 0
M  V30 2412 C 230.652 -2.0554 6.51339 0
M  V30 2413 O 230.34 -1.838 7.82606 0
M  V30 2414 H 230.072 -0.45064 0.503884 0
M  V30 2415 H 232.626 -0.816248 1.88485 0
M  V30 2416 H 230.856 -3.37089 1.89493 0
M  V30 2417 H 232.545 -3.33595 2.31235 0
M  V30 2418 H 233.311 -2.01157 4.41317 0
M  V30 2419 H 229.19 -2.90832 3.57684 0
M  V30 2420 H 232.734 -1.62889 6.78316 0
M  V30 2421 H 228.631 -2.52959 5.9387 0
M  V30 2422 H 229.399 -1.98275 7.94122 0
M  V30 2423 N 232.062 -1.29571 -0.897171 0
M  V30 2424 C 233.287 -1.20705 -1.68656 0
M  V30 2425 C 233.712 0.228582 -1.86706 0
M  V30 2426 O 233.07 1.16494 -1.3892 0
M  V30 2427 C 233.118 -1.9282 -3.04717 0
M  V30 2428 O 232.222 -1.24697 -3.93096 0
M  V30 2429 H 231.563 -0.418126 -0.515816 0
M  V30 2430 H 234.093 -1.71183 -1.12061 0
M  V30 2431 H 234.103 -2.01372 -3.54843 0
M  V30 2432 H 232.778 -2.97239 -2.90899 0
M  V30 2433 H 231.355 -1.2442 -3.51531 0
M  V30 2434 N 233.54 1.10788 -1.12088 0
M  V30 2435 C 234.503 2.15207 -0.788577 0
M  V30 2436 C 235.503 1.59609 0.195317 0
M  V30 2437 O 236.693 1.74174 -0.0300193 0
M  V30 2438 C 233.825 3.4047 -0.171174 0
M  V30 2439 H 235.018 2.46116 -1.71368 0
M  V30 2440 H 232.571 1.26089 -0.923652 0
M  V30 2441 H 233.306 3.15176 0.763832 0
M  V30 2442 H 233.091 3.82109 -0.879514 0
M  V30 2443 H 234.581 4.17576 0.04496 0
M  V30 2444 N 235.018 0.912232 1.28515 0
M  V30 2445 C 235.965 0.397954 2.27343 0
M  V30 2446 C 236.935 -0.526766 1.57526 0
M  V30 2447 O 238.12 -0.449292 1.85435 0
M  V30 2448 C 235.26 -0.357263 3.43246 0
M  V30 2449 C 234.373 0.599788 4.27816 0
M  V30 2450 C 233.508 -0.173725 5.30916 0
M  V30 2451 C 232.547 0.777039 6.07148 0
M  V30 2452 N 231.684 0.0371398 7.0209 0
M  V30 2453 H 236.524 1.24577 2.70711 0
M  V30 2454 H 234.061 0.625612 1.33133 0
M  V30 2455 H 236.019 -0.8113 4.09236 0
M  V30 2456 H 234.649 -1.16943 3.00872 0
M  V30 2457 H 233.701 1.17235 3.61884 0
M  V30 2458 H 235.013 1.32704 4.80823 0
M  V30 2459 H 234.167 -0.688394 6.02782 0
M  V30 2460 H 232.906 -0.934041 4.78672 0
M  V30 2461 H 231.911 1.3031 5.34134 0
M  V30 2462 H 233.136 1.53689 6.61481 0
M  V30 2463 H 231.082 -0.705213 6.52198 0
M  V30 2464 H 230.999 0.704249 7.52713 0
M  V30 2465 H 232.267 -0.457383 7.78157 0
M  V30 2466 N 236.496 -1.42363 0.676048 0
M  V30 2467 C 237.912 -1.55811 0.345718 0
M  V30 2468 C 238.112 -1.65544 -1.14879 0
M  V30 2469 O 237.168 -1.62306 -1.93424 0
M  V30 2470 C 238.481 -2.80746 1.07713 0
M  V30 2471 C 240.029 -2.9452 1.05958 0
M  V30 2472 C 240.504 -4.22318 1.77233 0
M  V30 2473 N 241.995 -4.29233 1.74108 0
M  V30 2474 C 242.73 -5.26935 2.26113 0
M  V30 2475 N 242.226 -6.30783 2.86505 0
M  V30 2476 N 244.019 -5.18741 2.1648 0
M  V30 2477 H 236.17 -1.34289 1.6456 0
M  V30 2478 H 238.433 -0.646506 0.69335 0
M  V30 2479 H 238.139 -2.79696 2.13221 0
M  V30 2480 H 238.013 -3.71676 0.64316 0
M  V30 2481 H 240.4 -2.95097 0.0128255 0
M  V30 2482 H 240.481 -2.04817 1.53244 0
M  V30 2483 H 240.125 -4.22502 2.81877 0
M  V30 2484 H 240.055 -5.10958 1.27396 0
M  V30 2485 H 242.546 -3.54814 1.30059 0
M  V30 2486 H 242.859 -7.01691 3.23805 0
M  V30 2487 H 241.204 -6.31341 2.90575 0
M  V30 2488 H 244.395 -4.36533 1.68987 0
M  V30 2489 H 244.568 -5.94721 2.57316 0
M  V30 2490 N 237.974 -0.419461 -1.51915 0
M  V30 2491 C 239.202 0.152136 -2.0634 0
M  V30 2492 C 239.617 1.37988 -1.28859 0
M  V30 2493 O 238.974 1.79243 -0.343232 0
M  V30 2494 C 239.025 0.492266 -3.58133 0
M  V30 2495 O 238.746 -0.686736 -4.32684 0
M  V30 2496 C 240.247 1.11648 -4.2901 0
M  V30 2497 H 237.467 0.0158325 -0.670813 0
M  V30 2498 H 240.011 -0.593394 -1.95702 0
M  V30 2499 H 238.166 1.18769 -3.68745 0
M  V30 2500 H 238.58 -0.400341 -5.2297 0
M  V30 2501 H 240.054 1.3046 -5.36362 0
M  V30 2502 H 240.531 2.09251 -3.86148 0
M  V30 2503 H 241.137 0.460958 -4.22795 0
M  V30 2504 N 239.452 1.56882 -0.150215 0
M  V30 2505 C 240.863 1.82995 0.370076 0
M  V30 2506 C 241.214 1.06907 1.64515 0
M  V30 2507 O 240.339 0.315369 2.1409 0
M  V30 2508 C 240.934 3.31942 0.678208 0
M  V30 2509 C 239.493 3.58625 1.14301 0
M  V30 2510 C 238.64 2.76792 0.167778 0
M  V30 2511 H 241.591 1.54209 -0.374858 0
M  V30 2512 H 241.612 3.48272 1.53254 0
M  V30 2513 H 241.124 3.87294 -0.249991 0
M  V30 2514 H 239.225 3.08664 2.08704 0
M  V30 2515 H 239.338 4.67073 1.06676 0
M  V30 2516 H 237.702 2.45972 0.661037 0
M  V30 2517 H 238.485 3.34916 -0.754069 0
M  V30 2518 N 240.93 -0.123565 1.57115 0
M  V30 2519 C 241.877 -1.15177 2.00007 0
M  V30 2520 C 242.847 -1.41403 0.871454 0
M  V30 2521 O 244.032 -1.53346 1.13533 0
M  V30 2522 C 241.172 -2.47436 2.40561 0
M  V30 2523 C 240.285 -2.28184 3.66819 0
M  V30 2524 C 239.42 -3.53641 3.96373 0
M  V30 2525 C 238.459 -3.29528 5.15827 0
M  V30 2526 N 237.596 -4.47175 5.41275 0
M  V30 2527 H 242.436 -0.779008 2.87638 0
M  V30 2528 H 239.973 -0.373166 1.42288 0
M  V30 2529 H 241.931 -3.24584 2.62109 0
M  V30 2530 H 240.561 -2.82614 1.55978 0
M  V30 2531 H 239.613 -1.41976 3.52912 0
M  V30 2532 H 240.925 -2.0634 4.5412 0
M  V30 2533 H 240.079 -4.39209 4.18545 0
M  V30 2534 H 238.818 -3.78512 3.07538 0
M  V30 2535 H 237.823 -2.42349 4.93505 0
M  V30 2536 H 239.048 -3.06031 6.06236 0
M  V30 2537 H 236.994 -4.72175 4.55397 0
M  V30 2538 H 236.911 -4.28419 6.22891 0
M  V30 2539 H 238.179 -5.3389 5.67963 0
M  V30 2540 N 242.408 -1.52605 -0.393616 0
M  V30 2541 C 243.824 -1.41753 -0.733357 0
M  V30 2542 C 244.024 -0.534293 -1.94287 0
M  V30 2543 O 243.08 -0.0059787 -2.52499 0
M  V30 2544 C 244.393 -2.84531 -0.972772 0
M  V30 2545 C 245.941 -2.93978 -1.07453 0
M  V30 2546 C 246.416 -4.37756 -1.3466 0
M  V30 2547 N 247.907 -4.4106 -1.41492 0
M  V30 2548 C 248.642 -5.49387 -1.642 0
M  V30 2549 N 248.138 -6.67806 -1.8441 0
M  V30 2550 N 249.931 -5.36923 -1.66342 0
M  V30 2551 H 242.082 -2.08555 0.402328 0
M  V30 2552 H 244.345 -0.940654 0.117789 0
M  V30 2553 H 244.051 -3.51353 -0.156204 0
M  V30 2554 H 243.925 -3.26508 -1.88871 0
M  V30 2555 H 246.312 -2.27326 -1.88167 0
M  V30 2556 H 246.393 -2.55435 -0.136605 0
M  V30 2557 H 246.037 -5.04972 -0.544581 0
M  V30 2558 H 245.967 -4.73848 -2.2973 0
M  V30 2559 H 248.458 -3.55705 -1.27601 0
M  V30 2560 H 248.771 -7.46141 -2.01231 0
M  V30 2561 H 247.116 -6.70843 -1.81644 0
M  V30 2562 H 250.307 -4.43381 -1.50102 0
M  V30 2563 H 250.48 -6.21416 -1.837 0
M  V30 2564 N 243.887 0.651787 -1.4349 0
M  V30 2565 C 244.85 1.74647 -1.48429 0
M  V30 2566 C 245.85 1.56513 -0.368817 0
M  V30 2567 O 247.04 1.62385 -0.630623 0
M  V30 2568 C 244.172 3.13533 -1.33827 0
M  V30 2569 H 245.365 1.71649 -2.4592 0
M  V30 2570 H 242.918 0.863573 -1.30277 0
M  V30 2571 H 243.653 3.22142 -0.37349 0
M  V30 2572 H 243.438 3.28101 -2.14691 0
M  V30 2573 H 244.928 3.93356 -1.40218 0
M  V30 2574 N 245.365 1.30045 0.890287 0
M  V30 2575 C 246.328 1.15963 1.977 0
M  V30 2576 C 247.328 0.0923777 1.60534 0
M  V30 2577 O 248.518 0.340071 1.70848 0
M  V30 2578 C 245.65 0.775451 3.31963 0
M  V30 2579 H 246.843 2.12502 2.11619 0
M  V30 2580 H 244.396 1.13366 1.07601 0
M  V30 2581 H 245.131 -0.189671 3.23745 0
M  V30 2582 H 244.916 1.54668 3.60306 0
M  V30 2583 H 246.406 0.700251 4.11687 0
M  V30 2584 N 246.843 -1.10192 1.12674 0
M  V30 2585 C 248.089 -1.82475 0.884915 0
M  V30 2586 C 248.422 -1.85093 -0.58773 0
M  V30 2587 O 247.697 -1.3134 -1.43457 0
M  V30 2588 C 247.98 -3.29018 1.46353 0
M  V30 2589 C 247.833 -3.34718 3.00473 0
M  V30 2590 C 249.152 -4.25473 1.12519 0
M  V30 2591 H 246.271 -0.662492 0.322915 0
M  V30 2592 H 248.913 -1.2913 1.39375 0
M  V30 2593 H 247.063 -3.74576 1.03077 0
M  V30 2594 H 248.735 -2.97622 3.52447 0
M  V30 2595 H 246.978 -2.74541 3.35872 0
M  V30 2596 H 247.649 -4.37918 3.36053 0
M  V30 2597 H 250.125 -3.88161 1.499 0
M  V30 2598 H 249.001 -5.26365 1.55663 0
M  V30 2599 H 249.262 -4.42084 0.0377407 0
M  V30 2600 N 248.321 -0.919034 -1.28029 0
M  V30 2601 C 249.254 -0.355887 -2.25408 0
M  V30 2602 C 250.232 0.542874 -1.5327 0
M  V30 2603 O 251.416 0.485338 -1.82145 0
M  V30 2604 C 248.543 0.490759 -3.35126 0
M  V30 2605 C 247.589 -0.343358 -4.25116 0
M  V30 2606 S 248.422 -1.75344 -5.05979 0
M  V30 2607 C 249.578 -0.914244 -6.19187 0
M  V30 2608 H 249.811 -1.18123 -2.72826 0
M  V30 2609 H 247.344 -0.720636 -1.36551 0
M  V30 2610 H 249.302 0.973404 -3.98792 0
M  V30 2611 H 247.963 1.29054 -2.86363 0
M  V30 2612 H 247.156 0.304266 -5.03081 0
M  V30 2613 H 246.758 -0.759851 -3.662 0
M  V30 2614 H 249.05 -0.146282 -6.77342 0
M  V30 2615 H 249.993 -1.66661 -6.88208 0
M  V30 2616 H 250.401 -0.460082 -5.62622 0
M  V30 2617 N 249.799 1.42003 -0.683588 0
M  V30 2618 C 251.048 2.00638 -0.206681 0
M  V30 2619 C 251.361 1.5472 1.19671 0
M  V30 2620 O 252.567 2.05833 1.77045 0
M  V30 2621 C 251.023 3.58487 -0.318632 0
M  V30 2622 C 250.631 4.1339 -1.72663 0
M  V30 2623 C 252.375 4.24384 0.0991141 0
M  V30 2624 C 250.282 5.63633 -1.79087 0
M  V30 2625 H 249.212 0.750408 -0.0735107 0
M  V30 2626 H 251.863 1.62624 -0.850048 0
M  V30 2627 H 250.245 3.94047 0.392781 0
M  V30 2628 H 251.419 3.89273 -2.46583 0
M  V30 2629 H 249.734 3.59976 -2.09299 0
M  V30 2630 H 252.331 5.34652 0.0713833 0
M  V30 2631 H 252.674 4.00505 1.13586 0
M  V30 2632 H 253.207 3.93816 -0.561599 0
M  V30 2633 H 249.946 5.92323 -2.80774 0
M  V30 2634 H 249.466 5.89714 -1.09535 0
M  V30 2635 H 251.145 6.28201 -1.5483 0
M  V30 2636 N 251.277 0.427512 1.51691 0
M  V30 2637 C 252.24 -0.377132 2.26076 0
M  V30 2638 C 253.24 -0.958089 1.29141 0
M  V30 2639 O 254.43 -0.83408 1.52934 0
M  V30 2640 C 251.562 -1.53262 3.04506 0
M  V30 2641 H 252.755 0.27464 2.9864 0
M  V30 2642 H 250.308 0.180445 1.55255 0
M  V30 2643 H 251.043 -2.22072 2.36335 0
M  V30 2644 H 250.828 -1.12232 3.75694 0
M  V30 2645 H 252.318 -2.10135 3.60878 0
M  V30 2646 N 252.755 -1.56801 0.158532 0
M  V30 2647 C 253.685 -2.20347 -0.772609 0
M  V30 2648 C 254.666 -1.15518 -1.24859 0
M  V30 2649 O 255.851 -1.43902 -1.30406 0
M  V30 2650 C 252.981 -2.83417 -2.00729 0
M  V30 2651 C 251.935 -3.94174 -1.66765 0
M  V30 2652 C 251.261 -4.44233 -2.97592 0
M  V30 2653 C 252.561 -5.14392 -0.905447 0
M  V30 2654 H 254.255 -2.98413 -0.242959 0
M  V30 2655 H 251.801 -1.43537 -0.115419 0
M  V30 2656 H 253.754 -3.26543 -2.6636 0
M  V30 2657 H 252.478 -2.02701 -2.56086 0
M  V30 2658 H 251.137 -3.51684 -1.03508 0
M  V30 2659 H 250.785 -3.60325 -3.50963 0
M  V30 2660 H 250.485 -5.18945 -2.75626 0
M  V30 2661 H 252.009 -4.90037 -3.64274 0
M  V30 2662 H 253.423 -5.5429 -1.46408 0
M  V30 2663 H 251.82 -5.9494 -0.7853 0
M  V30 2664 H 252.89 -4.84795 0.100668 0
M  V30 2665 N 254.233 0.115231 -1.57178 0
M  V30 2666 C 255.479 0.82357 -1.85325 0
M  V30 2667 C 255.812 1.79349 -0.744814 0
M  V30 2668 O 255.087 1.92899 0.249024 0
M  V30 2669 C 255.37 1.57014 -3.24066 0
M  V30 2670 C 255.223 0.619565 -4.45513 0
M  V30 2671 C 256.542 2.52545 -3.60429 0
M  V30 2672 H 253.661 0.297948 -0.674089 0
M  V30 2673 H 256.303 0.0877138 -1.89797 0
M  V30 2674 H 254.453 2.19742 -3.20383 0
M  V30 2675 H 256.125 0.000837639 -4.613 0
M  V30 2676 H 254.368 -0.0686174 -4.33746 0
M  V30 2677 H 255.039 1.17866 -5.3927 0
M  V30 2678 H 257.515 1.9992 -3.64926 0
M  V30 2679 H 256.391 3.01811 -4.58477 0
M  V30 2680 H 256.652 3.35383 -2.88047 0
M  V30 2681 N 255.711 1.52812 0.385517 0
M  V30 2682 C 256.957 1.69225 1.12847 0
M  V30 2683 C 257.312 0.42864 1.87564 0
M  V30 2684 O 256.605 -0.57779 1.8268 0
M  V30 2685 C 256.799 2.86856 2.13187 0
M  V30 2686 C 256.628 4.24535 1.48325 0
M  V30 2687 C 255.398 4.89701 1.24585 0
M  V30 2688 C 257.596 5.05794 0.931501 0
M  V30 2689 N 255.578 6.11353 0.558644 0
M  V30 2690 C 256.949 6.1888 0.372552 0
M  V30 2691 C 259.004 4.90963 0.828248 0
M  V30 2692 C 257.707 7.18757 -0.279556 0
M  V30 2693 C 259.733 5.91095 0.189956 0
M  V30 2694 C 259.095 7.03489 -0.358207 0
M  V30 2695 H 255.194 0.67268 0.39878 0
M  V30 2696 H 257.778 1.9017 0.417528 0
M  V30 2697 H 255.949 2.67484 2.81614 0
M  V30 2698 H 257.681 2.92188 2.80014 0
M  V30 2699 H 254.436 4.48485 1.52178 0
M  V30 2700 H 254.86 6.76606 0.230983 0
M  V30 2701 H 259.502 4.04274 1.23784 0
M  V30 2702 H 257.22 8.05052 -0.701152 0
M  V30 2703 H 260.806 5.81694 0.111264 0
M  V30 2704 H 259.686 7.79642 -0.844314 0
M  V30 2705 N 257.189 -0.644168 1.43834 0
M  V30 2706 C 258.435 -1.40603 1.46146 0
M  V30 2707 C 258.768 -1.93997 0.0887717 0
M  V30 2708 O 258.043 -1.72854 -0.891724 0
M  V30 2709 C 258.326 -2.58086 2.51124 0
M  V30 2710 C 258.179 -2.10126 3.97702 0
M  V30 2711 C 259.498 -3.60291 2.52742 0
M  V30 2712 H 256.617 -0.509905 0.532134 0
M  V30 2713 H 259.259 -0.729502 1.75437 0
M  V30 2714 H 257.409 -3.15801 2.26278 0
M  V30 2715 H 259.081 -1.57342 4.33637 0
M  V30 2716 H 257.324 -1.41419 4.10101 0
M  V30 2717 H 257.995 -2.94649 4.66783 0
M  V30 2718 H 260.471 -3.12352 2.7491 0
M  V30 2719 H 259.347 -4.40032 3.28121 0
M  V30 2720 H 259.608 -4.1349 1.56455 0
M  V30 2721 N 258.668 -1.30515 -0.883378 0
M  V30 2722 C 259.915 -1.1943 -1.63532 0
M  V30 2723 C 260.243 0.250627 -1.92878 0
M  V30 2724 O 259.498 1.19556 -1.54935 0
M  V30 2725 C 259.797 -1.96994 -2.98209 0
M  V30 2726 C 259.463 -3.466 -2.88408 0
M  V30 2727 C 258.125 -3.87397 -2.85442 0
M  V30 2728 C 260.477 -4.41863 -2.76418 0
M  V30 2729 C 257.805 -5.21745 -2.68327 0
M  V30 2730 C 260.157 -5.7632 -2.60841 0
M  V30 2731 C 258.821 -6.16354 -2.56251 0
M  V30 2732 H 258.091 -0.437025 -0.598406 0
M  V30 2733 H 260.738 -1.61635 -1.02696 0
M  V30 2734 H 259.043 -1.47429 -3.63004 0
M  V30 2735 H 260.74 -1.85808 -3.55354 0
M  V30 2736 H 257.33 -3.14182 -2.91527 0
M  V30 2737 H 261.514 -4.11285 -2.77775 0
M  V30 2738 H 256.77 -5.51853 -2.63189 0
M  V30 2739 H 260.944 -6.49772 -2.50538 0
M  V30 2740 H 258.571 -7.20401 -2.42748 0
M  V30 2741 N 260.146 1.09593 -1.13257 0
M  V30 2742 C 261.371 1.8604 -0.916732 0
M  V30 2743 C 261.796 1.80504 0.529146 0
M  V30 2744 O 261.154 1.18127 1.37534 0
M  V30 2745 C 261.202 3.32017 -1.40703 0
M  V30 2746 O 260.306 4.08141 -0.591153 0
M  V30 2747 H 259.647 0.576943 -0.328683 0
M  V30 2748 H 262.177 1.38405 -1.50682 0
M  V30 2749 H 262.187 3.82865 -1.4099 0
M  V30 2750 H 260.862 3.35361 -2.45979 0
M  V30 2751 H 259.439 3.67084 -0.656005 0
M  V30 2752 N 261.624 0.925811 1.2754 0
M  V30 2753 C 262.873 0.561084 1.93739 0
M  V30 2754 C 263.186 -0.901685 1.73577 0
M  V30 2755 O 264.392 -1.37511 2.34101 0
M  V30 2756 C 262.848 0.952668 3.47062 0
M  V30 2757 C 262.456 2.43599 3.75983 0
M  V30 2758 C 264.2 0.659103 4.19352 0
M  V30 2759 C 262.107 2.76707 5.22673 0
M  V30 2760 H 261.037 0.206122 0.725279 0
M  V30 2761 H 263.688 1.12637 1.44863 0
M  V30 2762 H 262.07 0.316053 3.94737 0
M  V30 2763 H 263.244 3.12035 3.39073 0
M  V30 2764 H 261.559 2.70125 3.16893 0
M  V30 2765 H 264.156 0.882985 5.27359 0
M  V30 2766 H 264.499 -0.403607 4.14339 0
M  V30 2767 H 265.032 1.25473 3.77494 0
M  V30 2768 H 261.771 3.8188 5.32774 0
M  V30 2769 H 261.291 2.12919 5.60737 0
M  V30 2770 H 262.97 2.6435 5.90532 0
M  V30 2771 N 263.102 -1.41638 0.69111 0
M  V30 2772 C 264.327 -2.06148 0.227583 0
M  V30 2773 C 264.752 -1.51652 -1.11281 0
M  V30 2774 O 264.11 -0.64164 -1.69566 0
M  V30 2775 C 264.158 -3.60095 0.190858 0
M  V30 2776 O 263.262 -4.03845 -0.835664 0
M  V30 2777 H 262.603 -0.654434 0.112306 0
M  V30 2778 H 265.133 -1.81484 0.944714 0
M  V30 2779 H 265.143 -4.07995 0.020207 0
M  V30 2780 H 263.818 -3.99129 1.16915 0
M  V30 2781 H 262.395 -3.67458 -0.63473 0
M  V30 2782 N 264.58 -0.43555 -1.51462 0
M  V30 2783 C 265.829 0.133007 -2.01261 0
M  V30 2784 C 266.142 1.43942 -1.32439 0
M  V30 2785 O 267.348 2.09081 -1.73198 0
M  V30 2786 C 265.804 0.287581 -3.58749 0
M  V30 2787 C 265.412 -1.00829 -4.36506 0
M  V30 2788 C 267.156 0.810004 -4.167 0
M  V30 2789 C 265.063 -0.819454 -5.85695 0
M  V30 2790 H 263.993 0.0534822 -0.752101 0
M  V30 2791 H 266.644 -0.565038 -1.74584 0
M  V30 2792 H 265.026 1.04859 -3.81865 0
M  V30 2793 H 266.2 -1.77749 -4.25138 0
M  V30 2794 H 264.515 -1.45911 -3.89999 0
M  V30 2795 H 267.112 0.967743 -5.2587 0
M  V30 2796 H 267.455 1.79196 -3.75758 0
M  V30 2797 H 267.988 0.107357 -3.97655 0
M  V30 2798 H 264.727 -1.77374 -6.31046 0
M  V30 2799 H 264.247 -0.0900208 -5.99732 0
M  V30 2800 H 265.926 -0.471949 -6.45276 0
M  V30 2801 N 266.058 1.56714 -0.166846 0
M  V30 2802 C 267.283 2.01557 0.488833 0
M  V30 2803 C 267.708 1.0463 1.56314 0
M  V30 2804 O 267.066 0.0251304 1.81283 0
M  V30 2805 C 267.114 3.4503 1.04818 0
M  V30 2806 O 266.218 3.51163 2.16236 0
M  V30 2807 H 265.559 0.653516 0.117526 0
M  V30 2808 H 268.089 2.02818 -0.269421 0
M  V30 2809 H 268.099 3.84243 1.37191 0
M  V30 2810 H 266.774 4.15077 0.261572 0
M  V30 2811 H 265.351 3.23807 1.84942 0
M  V30 2812 N 267.536 -0.106894 1.57237 0
M  V30 2813 C 268.466 -1.13148 2.04254 0
M  V30 2814 C 269.447 -1.42476 0.929224 0
M  V30 2815 O 270.632 -1.52709 1.19973 0
M  V30 2816 C 267.762 -2.4545 2.45706 0
M  V30 2817 C 266.716 -2.30558 3.60592 0
M  V30 2818 C 266.042 -3.67931 3.87983 0
M  V30 2819 C 267.342 -1.75597 4.91897 0
M  V30 2820 H 269.036 -0.740374 2.90101 0
M  V30 2821 H 266.582 -0.354696 1.39563 0
M  V30 2822 H 268.535 -3.17389 2.77205 0
M  V30 2823 H 267.259 -2.86475 1.56843 0
M  V30 2824 H 265.918 -1.61067 3.29322 0
M  V30 2825 H 265.566 -4.06462 2.96306 0
M  V30 2826 H 265.266 -3.58817 4.65322 0
M  V30 2827 H 266.79 -4.41356 4.21945 0
M  V30 2828 H 268.204 -2.37364 5.21854 0
M  V30 2829 H 266.601 -1.77272 5.73319 0
M  V30 2830 H 267.671 -0.714451 4.79608 0
M  V30 2831 N 269.014 -1.53014 -0.377408 0
M  V30 2832 C 270.425 -1.60438 -0.954798 0
M  V30 2833 C 270.776 -0.464418 -1.90624 0
M  V30 2834 O 269.901 0.41087 -2.12464 0
M  V30 2835 C 270.496 -2.90797 -1.73847 0
M  V30 2836 C 269.055 -3.00595 -2.26538 0
M  V30 2837 C 268.202 -2.55645 -1.07429 0
M  V30 2838 H 271.153 -1.57926 -0.156575 0
M  V30 2839 H 271.174 -2.77935 -2.5987 0
M  V30 2840 H 270.686 -3.73746 -1.04574 0
M  V30 2841 H 268.787 -2.22208 -2.99089 0
M  V30 2842 H 268.9 -4.05456 -2.5523 0
M  V30 2843 H 267.264 -2.10239 -1.43777 0
M  V30 2844 H 268.047 -3.41 -0.396728 0
M  V30 2845 N 270.492 0.636531 -1.44174 0
M  V30 2846 C 271.903 1.21806 -1.41493 0
M  V30 2847 C 272.254 1.95785 -0.1275 0
M  V30 2848 O 271.379 2.02147 0.772376 0
M  V30 2849 C 271.974 2.21551 -2.56321 0
M  V30 2850 C 270.533 2.75143 -2.56853 0
M  V30 2851 C 269.68 1.50052 -2.33195 0
M  V30 2852 H 272.631 0.427531 -1.52833 0
M  V30 2853 H 272.652 3.0405 -2.28765 0
M  V30 2854 H 272.164 1.67679 -3.50008 0
M  V30 2855 H 270.265 3.33033 -1.67093 0
M  V30 2856 H 270.378 3.2155 -3.55165 0
M  V30 2857 H 268.742 1.77993 -1.82183 0
M  V30 2858 H 269.525 0.980903 -3.28988 0
M  V30 2859 N 271.97 1.30982 0.876444 0
M  V30 2860 C 273.217 1.20296 1.62896 0
M  V30 2861 C 273.545 -0.240395 1.93009 0
M  V30 2862 O 272.8 -1.18733 1.55567 0
M  V30 2863 C 273.099 1.98572 2.9716 0
M  V30 2864 C 272.765 3.48125 2.86566 0
M  V30 2865 C 271.427 3.88905 2.83383 0
M  V30 2866 C 273.779 4.43322 2.74071 0
M  V30 2867 C 271.107 5.2316 2.65556 0
M  V30 2868 C 273.459 5.77695 2.57781 0
M  V30 2869 C 272.123 6.17704 2.52979 0
M  V30 2870 H 271.393 0.440193 0.59608 0
M  V30 2871 H 274.04 1.62177 1.01837 0
M  V30 2872 H 272.345 1.49352 3.62217 0
M  V30 2873 H 274.042 1.8769 3.54364 0
M  V30 2874 H 270.632 3.15723 2.89856 0
M  V30 2875 H 274.816 4.12752 2.75589 0
M  V30 2876 H 270.072 5.53241 2.60259 0
M  V30 2877 H 274.246 6.51091 2.47089 0
M  V30 2878 H 271.873 7.21678 2.38924 0
M  V30 2879 N 273.449 -1.08991 1.13837 0
M  V30 2880 C 274.696 -1.81258 0.902882 0
M  V30 2881 C 275.024 -1.85936 -0.570803 0
M  V30 2882 O 274.279 -1.3267 -1.43865 0
M  V30 2883 C 274.578 -3.27042 1.44147 0
M  V30 2884 C 274.244 -3.4249 2.93276 0
M  V30 2885 C 272.906 -3.46414 3.33992 0
M  V30 2886 C 275.258 -3.4666 3.892 0
M  V30 2887 C 272.586 -3.52091 4.69307 0
M  V30 2888 C 274.938 -3.53872 5.24364 0
M  V30 2889 C 273.602 -3.56066 5.646 0
M  V30 2890 H 272.872 -0.663268 0.330388 0
M  V30 2891 H 275.519 -1.28368 1.42105 0
M  V30 2892 H 273.824 -3.82599 0.844097 0
M  V30 2893 H 275.521 -3.81499 1.23528 0
M  V30 2894 H 272.111 -3.40124 2.60794 0
M  V30 2895 H 276.295 -3.42865 3.58828 0
M  V30 2896 H 271.551 -3.52079 4.9985 0
M  V30 2897 H 275.725 -3.56043 5.98503 0
M  V30 2898 H 273.352 -3.60218 6.69438 0
M  V30 2899 N 274.927 -0.932562 -1.27047 0
M  V30 2900 C 276.173 -0.585913 -1.94778 0
M  V30 2901 C 276.528 0.864142 -1.71902 0
M  V30 2902 O 275.821 1.60894 -1.04037 0
M  V30 2903 C 276.015 -0.853713 -3.47054 0
M  V30 2904 C 275.844 -2.32825 -3.84737 0
M  V30 2905 C 274.614 -2.98184 -4.07939 0
M  V30 2906 C 276.812 -3.30612 -3.93954 0
M  V30 2907 N 274.794 -4.3574 -4.3244 0
M  V30 2908 C 276.165 -4.53395 -4.22887 0
M  V30 2909 C 278.22 -3.25755 -3.76548 0
M  V30 2910 C 276.923 -5.71927 -4.36224 0
M  V30 2911 C 278.949 -4.43604 -3.91113 0
M  V30 2912 C 278.311 -5.65166 -4.20437 0
M  V30 2913 H 274.41 -0.264617 -0.735868 0
M  V30 2914 H 276.994 -1.20019 -1.53309 0
M  V30 2915 H 275.165 -0.268557 -3.8747 0
M  V30 2916 H 276.897 -0.469202 -4.01971 0
M  V30 2917 H 273.652 -2.48835 -4.02961 0
M  V30 2918 H 274.076 -5.06915 -4.48738 0
M  V30 2919 H 278.718 -2.32835 -3.52913 0
M  V30 2920 H 276.436 -6.65308 -4.58683 0
M  V30 2921 H 280.022 -4.41368 -3.79059 0
M  V30 2922 H 278.902 -6.54836 -4.31462 0
M  V30 2923 N 276.405 1.4127 -0.698611 0
M  V30 2924 C 277.821 1.55241 -0.370462 0
M  V30 2925 C 278.021 1.67351 1.12231 0
M  V30 2926 O 277.077 1.65363 1.90818 0
M  V30 2927 C 278.39 2.78997 -1.12165 0
M  V30 2928 C 279.938 2.92797 -1.1063 0
M  V30 2929 C 280.413 4.19445 -1.8393 0
M  V30 2930 N 281.904 4.26409 -1.80914 0
M  V30 2931 C 282.639 5.23271 -2.34467 0
M  V30 2932 N 282.135 6.26145 -2.96504 0
M  V30 2933 N 283.928 5.15232 -2.24706 0
M  V30 2934 H 276.079 1.31654 -1.66676 0
M  V30 2935 H 278.342 0.635393 -0.703548 0
M  V30 2936 H 278.048 2.76268 -2.17644 0
M  V30 2937 H 277.922 3.70606 -0.702209 0
M  V30 2938 H 280.309 2.95039 -0.0597713 0
M  V30 2939 H 280.39 2.02353 -1.56483 0
M  V30 2940 H 280.034 4.17964 -2.88563 0
M  V30 2941 H 279.964 5.08866 -1.35509 0
M  V30 2942 H 282.455 3.527 -1.35687 0
M  V30 2943 H 282.768 6.96451 -3.34927 0
M  V30 2944 H 281.113 6.26638 -3.00583 0
M  V30 2945 H 284.304 4.33789 -1.7591 0
M  V30 2946 H 284.477 5.90552 -2.66745 0
M  V30 2947 N 277.883 0.443576 1.51229 0
M  V30 2948 C 278.815 -0.400608 2.25672 0
M  V30 2949 C 279.828 -0.980945 1.29928 0
M  V30 2950 O 281.017 -0.874024 1.55638 0
M  V30 2951 C 278.117 -1.57304 3.00181 0
M  V30 2952 C 277.29 -1.11046 4.23069 0
M  V30 2953 C 276.349 -2.15374 4.80105 0
M  V30 2954 O 275.375 -1.74554 5.41774 0
M  V30 2955 N 276.577 -3.47922 4.64683 0
M  V30 2956 H 279.342 0.23745 2.98758 0
M  V30 2957 H 276.903 0.272809 1.59585 0
M  V30 2958 H 278.895 -2.26733 3.35223 0
M  V30 2959 H 277.465 -2.11632 2.30066 0
M  V30 2960 H 276.685 -0.243019 3.9345 0
M  V30 2961 H 277.973 -0.778888 5.02803 0
M  V30 2962 H 277.371 -3.83815 4.15575 0
M  V30 2963 H 275.928 -4.13228 5.0407 0
M  V30 2964 N 279.361 -1.56624 0.175154 0
M  V30 2965 C 280.324 -2.16934 -0.739738 0
M  V30 2966 C 281.324 -1.11842 -1.15533 0
M  V30 2967 O 282.514 -1.37335 -1.07167 0
M  V30 2968 C 279.646 -2.75531 -2.00738 0
M  V30 2969 H 280.839 -2.99131 -0.214639 0
M  V30 2970 H 278.392 -1.56123 -0.0744197 0
M  V30 2971 H 279.127 -1.97078 -2.57548 0
M  V30 2972 H 278.912 -3.52444 -1.71831 0
M  V30 2973 H 280.402 -3.21904 -2.66021 0
M  V30 2974 N 280.839 0.0985539 -1.57292 0
M  V30 2975 C 281.786 1.11981 -2.01814 0
M  V30 2976 C 282.756 1.39999 -0.89384 0
M  V30 2977 O 283.941 1.5152 -1.15958 0
M  V30 2978 C 281.081 2.43577 -2.44467 0
M  V30 2979 C 280.194 2.2232 -3.70402 0
M  V30 2980 C 279.329 3.4729 -4.01949 0
M  V30 2981 C 278.368 3.2128 -5.21005 0
M  V30 2982 N 277.505 4.38507 -5.48321 0
M  V30 2983 H 282.345 0.733149 -2.88841 0
M  V30 2984 H 279.882 0.350482 -1.42864 0
M  V30 2985 H 281.84 3.20373 -2.6724 0
M  V30 2986 H 280.47 2.80097 -1.60455 0
M  V30 2987 H 279.522 1.36343 -3.55126 0
M  V30 2988 H 280.834 1.99089 -4.57345 0
M  V30 2989 H 279.988 4.32495 -4.25479 0
M  V30 2990 H 278.727 3.73572 -3.13521 0
M  V30 2991 H 277.732 2.34468 -4.97298 0
M  V30 2992 H 278.957 2.96348 -6.11028 0
M  V30 2993 H 276.903 4.64871 -4.62851 0
M  V30 2994 H 276.82 4.18455 -6.29628 0
M  V30 2995 H 278.088 5.24787 -5.76385 0
M  V30 2996 N 282.317 1.53212 0.369288 0
M  V30 2997 C 283.28 1.7872 1.43498 0
M  V30 2998 C 284.28 0.657554 1.46741 0
M  V30 2999 O 285.47 0.925736 1.47566 0
M  V30 3000 C 282.602 1.90591 2.82645 0
M  V30 3001 H 283.795 2.73894 1.22156 0
M  V30 3002 H 281.348 1.44233 0.602203 0
M  V30 3003 H 282.083 0.974709 3.09306 0
M  V30 3004 H 281.868 2.72751 2.8169 0
M  V30 3005 H 283.358 2.11931 3.59826 0
M  V30 3006 N 283.795 -0.628877 1.44509 0
M  V30 3007 C 284.705 -1.7694 1.54044 0
M  V30 3008 C 285.721 -1.68705 0.425987 0
M  V30 3009 O 286.897 -1.89442 0.683656 0
M  V30 3010 C 283.962 -3.13332 1.48405 0
M  V30 3011 C 283.023 -3.33181 2.70719 0
M  V30 3012 C 282.256 -4.63067 2.6534 0
M  V30 3013 O 282.479 -5.44017 1.71469 0
M  V30 3014 O 281.413 -4.85167 3.56226 0
M  V30 3015 H 285.239 -1.71848 2.50403 0
M  V30 3016 H 282.824 -0.790378 1.26781 0
M  V30 3017 H 284.706 -3.94634 1.47791 0
M  V30 3018 H 283.381 -3.1896 0.551898 0
M  V30 3019 H 282.288 -2.51549 2.769 0
M  V30 3020 H 283.621 -3.32416 3.62988 0
M  V30 3021 N 285.273 -1.31445 -0.869486 0
M  V30 3022 C 286.183 -1.21097 -2.0093 0
M  V30 3023 C 287.199 -0.127584 -1.73532 0
M  V30 3024 O 288.375 -0.345477 -1.98415 0
M  V30 3025 C 285.44 -0.919378 -3.34288 0
M  V30 3026 C 284.501 -2.08971 -3.75006 0
M  V30 3027 C 283.734 -1.81194 -5.02001 0
M  V30 3028 O 283.957 -0.747296 -5.65484 0
M  V30 3029 O 282.891 -2.66883 -5.39497 0
M  V30 3030 H 286.717 -2.16883 -2.12592 0
M  V30 3031 H 284.302 -1.11189 -0.997868 0
M  V30 3032 H 286.184 -0.772625 -4.14257 0
M  V30 3033 H 284.859 0.00844772 -3.23699 0
M  V30 3034 H 283.766 -2.29187 -2.95676 0
M  V30 3035 H 285.099 -2.9998 -3.90221 0
M  V30 3036 N 286.751 1.08385 -1.14413 0
M  V30 3037 C 287.661 2.18856 -0.844951 0
M  V30 3038 C 288.677 1.73121 0.174668 0
M  V30 3039 O 289.853 2.014 0.00312857 0
M  V30 3040 C 286.918 3.45155 -0.32696 0
M  V30 3041 C 285.979 4.05513 -1.40916 0
M  V30 3042 C 285.212 5.25784 -0.915793 0
M  V30 3043 O 285.435 5.69884 0.242651 0
M  V30 3044 O 284.369 5.77545 -1.69487 0
M  V30 3045 H 288.195 2.46919 -1.76818 0
M  V30 3046 H 285.78 1.17524 -0.922411 0
M  V30 3047 H 287.662 4.21377 -0.0440211 0
M  V30 3048 H 286.337 3.18668 0.568539 0
M  V30 3049 H 285.244 3.30879 -1.74556 0
M  V30 3050 H 286.577 4.3625 -2.27919 0
M  V30 3051 N 288.23 0.939286 1.26551 0
M  V30 3052 C 289.476 0.586715 1.94128 0
M  V30 3053 C 289.809 -0.8717 1.73537 0
M  V30 3054 O 289.084 -1.62339 1.07127 0
M  V30 3055 C 289.367 0.927497 3.4795 0
M  V30 3056 C 289.22 2.44052 3.77834 0
M  V30 3057 C 290.539 0.441569 4.37879 0
M  V30 3058 H 287.658 0.21463 0.705055 0
M  V30 3059 H 290.3 1.17316 1.49455 0
M  V30 3060 H 288.45 0.428431 3.8613 0
M  V30 3061 H 290.122 3.01216 3.4938 0
M  V30 3062 H 288.365 2.8848 3.23978 0
M  V30 3063 H 289.036 2.62947 4.85348 0
M  V30 3064 H 291.512 0.869448 4.06915 0
M  V30 3065 H 290.388 0.708856 5.44304 0
M  V30 3066 H 290.649 -0.658467 4.37169 0
M  V30 3067 N 289.708 -1.40897 0.706093 0
M  V30 3068 C 290.933 -2.05895 0.249435 0
M  V30 3069 C 291.358 -1.52823 -1.09666 0
M  V30 3070 O 290.716 -0.659589 -1.68876 0
M  V30 3071 C 290.764 -3.59872 0.22904 0
M  V30 3072 O 289.868 -4.04708 -0.792784 0
M  V30 3073 H 289.209 -0.653206 0.119241 0
M  V30 3074 H 291.739 -1.80471 0.96391 0
M  V30 3075 H 291.749 -4.07951 0.0634791 0
M  V30 3076 H 290.424 -3.97866 1.21141 0
M  V30 3077 H 289.001 -3.68111 -0.59572 0
M  V30 3078 N 291.186 -0.45159 -1.50991 0
M  V30 3079 C 292.096 0.358431 -2.31846 0
M  V30 3080 C 293.112 1.01438 -1.41373 0
M  V30 3081 O 294.288 1.00663 -1.74439 0
M  V30 3082 C 291.353 1.43704 -3.15515 0
M  V30 3083 C 290.414 0.799742 -4.21785 0
M  V30 3084 C 289.647 1.82696 -5.01456 0
M  V30 3085 O 289.87 3.05105 -4.81941 0
M  V30 3086 O 288.804 1.40958 -5.85162 0
M  V30 3087 H 292.63 -0.302032 -3.02194 0
M  V30 3088 H 290.215 -0.213825 -1.47862 0
M  V30 3089 H 292.097 2.06227 -3.67489 0
M  V30 3090 H 290.772 2.08133 -2.47916 0
M  V30 3091 H 289.679 0.136084 -3.73852 0
M  V30 3092 H 291.012 0.198718 -4.91799 0
M  V30 3093 N 292.664 1.56529 -0.183458 0
M  V30 3094 C 293.904 1.99141 0.460667 0
M  V30 3095 C 294.268 1.06736 1.59597 0
M  V30 3096 O 295.469 1.38538 2.30349 0
M  V30 3097 C 293.74 3.45358 0.919939 0
M  V30 3098 S 295.299 4.09999 1.56354 0
M  V30 3099 H 292.117 0.695479 0.147748 0
M  V30 3100 H 294.719 1.93429 -0.283782 0
M  V30 3101 H 293.423 4.10315 0.0834208 0
M  V30 3102 H 292.954 3.54862 1.69814 0
M  V30 3103 H 294.969 4.06046 2.85203 0
M  V30 3104 N 294.142 -0.090211 1.57342 0
M  V30 3105 C 295.388 -0.793982 1.86611 0
M  V30 3106 C 295.721 -1.78142 0.773252 0
M  V30 3107 O 294.996 -1.93271 -0.218304 0
M  V30 3108 C 295.279 -1.51839 3.26523 0
M  V30 3109 C 295.132 -0.548609 4.46442 0
M  V30 3110 C 296.451 -2.46779 3.64401 0
M  V30 3111 H 293.57 -0.287186 0.678744 0
M  V30 3112 H 296.212 -0.0575076 1.89913 0
M  V30 3113 H 294.362 -2.14617 3.23839 0
M  V30 3114 H 296.034 0.0725513 4.61243 0
M  V30 3115 H 294.277 0.137614 4.33582 0
M  V30 3116 H 294.948 -1.09271 5.41076 0
M  V30 3117 H 297.424 -1.94089 3.68061 0
M  V30 3118 H 296.3 -2.94479 4.63221 0
M  V30 3119 H 296.561 -3.30758 2.93346 0
M  V30 3120 N 295.62 -1.53406 -0.361157 0
M  V30 3121 C 296.866 -1.70054 -1.10496 0
M  V30 3122 C 297.199 -0.453278 -1.88836 0
M  V30 3123 O 296.474 0.5495 -1.86576 0
M  V30 3124 C 296.757 -2.95317 -2.06058 0
M  V30 3125 C 296.61 -4.3021 -1.31298 0
M  V30 3126 C 297.929 -3.16193 -3.06121 0
M  V30 3127 H 295.048 -0.618799 -0.400321 0
M  V30 3128 H 297.69 -1.86052 -0.385318 0
M  V30 3129 H 295.84 -2.81809 -2.67425 0
M  V30 3130 H 297.512 -4.55538 -0.726807 0
M  V30 3131 H 295.755 -4.29421 -0.614853 0
M  V30 3132 H 296.426 -5.14 -2.01265 0
M  V30 3133 H 298.902 -3.28916 -2.5486 0
M  V30 3134 H 297.778 -4.05266 -3.70204 0
M  V30 3135 H 298.039 -2.31676 -3.76535 0
M  V30 3136 N 297.098 0.621204 -1.44841 0
M  V30 3137 C 298.046 1.75385 -1.52784 0
M  V30 3138 C 299.04 1.64639 -0.398779 0
M  V30 3139 O 300.246 1.70598 -0.574137 0
M  V30 3140 H 296.621 0.579193 -0.479625 0
M  V30 3141 H 298.592 1.6581 -2.48092 0
M  V30 3142 C 297.341 3.13742 -1.4987 0
M  V30 3143 H 296.664 3.22663 -2.36069 0
M  V30 3144 H 298.104 3.92861 -1.59487 0
M  V30 3145 C 296.563 3.36175 -0.220973 0
M  V30 3146 O 297.093 3.95469 0.704782 0
M  V30 3147 N 295.299 2.90348 -0.120963 0
M  V30 3148 H 294.846 2.42278 -0.875162 0
M  V30 3149 H 294.804 3.05732 0.733168 0
M  V30 3150 N 298.576 1.31904 0.862503 0
M  V30 3151 C 299.804 1.24998 1.64873 0
M  V30 3152 C 300.219 -0.183425 1.87907 0
M  V30 3153 O 299.576 -1.11794 1.44251 0
M  V30 3154 C 299.627 1.99829 3.01248 0
M  V30 3155 O 299.348 3.37575 2.79239 0
M  V30 3156 C 300.849 1.99852 3.95694 0
M  V30 3157 H 298.069 0.431599 0.513773 0
M  V30 3158 H 300.613 1.73901 1.07604 0
M  V30 3159 H 298.768 1.54668 3.55185 0
M  V30 3160 H 299.182 3.75776 3.65914 0
M  V30 3161 H 300.656 2.56709 4.88676 0
M  V30 3162 H 301.133 0.982852 4.28062 0
M  V30 3163 H 301.739 2.44926 3.47694 0
M  V30 3164 N 300.054 -1.07777 1.14986 0
M  V30 3165 C 301.331 -1.7699 0.832695 0
M  V30 3166 C 301.711 -2.001 -0.672561 0
M  V30 3167 O 301.059 -1.61598 -1.6155 0
M  V30 3168 C 301.269 -3.08139 1.63863 0
M  V30 3169 C 302.617 -3.8256 1.84208 0
M  V30 3170 O 303.641 -3.17939 1.60603 0
M  V30 3171 O 302.5 -4.98612 2.23714 0
M  V30 3172 H 299.594 -0.768389 0.305791 0
M  V30 3173 H 302.14 -1.14182 1.25541 0
M  V30 3174 H 300.912 -2.86909 2.6608 0
M  V30 3175 H 300.535 -3.78678 1.21197 0
M  V30 3176 N 301.532 -0.945985 -1.26051 0
M  V30 3177 C 302.482 -0.430164 -2.23905 0
M  V30 3178 C 303.466 0.47579 -1.53704 0
M  V30 3179 O 304.658 0.310252 -1.7426 0
M  V30 3180 C 301.787 0.298957 -3.41996 0
M  V30 3181 C 300.873 -0.624566 -4.19476 0
M  V30 3182 N 301.264 -1.75245 -4.74471 0
M  V30 3183 C 299.562 -0.431082 -4.43912 0
M  V30 3184 C 300.263 -2.32834 -5.3307 0
M  V30 3185 N 299.239 -1.61583 -5.1903 0
M  V30 3186 H 303.041 -1.29107 -2.64024 0
M  V30 3187 H 300.555 -0.802428 -1.41191 0
M  V30 3188 H 302.552 0.685565 -4.11225 0
M  V30 3189 H 301.212 1.15657 -3.03403 0
M  V30 3190 H 302.223 -2.13449 -4.71868 0
M  V30 3191 H 298.9 0.384364 -4.15727 0
M  V30 3192 H 300.29 -3.27893 -5.86461 0
M  V30 3193 N 303.011 1.40521 -0.713556 0
M  V30 3194 C 304.26 2.00155 -0.249192 0
M  V30 3195 C 304.573 1.57224 1.16362 0
M  V30 3196 O 305.779 2.09542 1.72639 0
M  V30 3197 C 304.235 3.5773 -0.3946 0
M  V30 3198 C 303.843 4.09635 -1.81392 0
M  V30 3199 C 305.587 4.24499 0.00907364 0
M  V30 3200 C 303.494 5.59707 -1.91003 0
M  V30 3201 H 302.424 0.74868 -0.0894114 0
M  V30 3202 H 305.075 1.60784 -0.884352 0
M  V30 3203 H 303.457 3.94792 0.30911 0
M  V30 3204 H 304.631 3.83955 -2.54785 0
M  V30 3205 H 302.946 3.55456 -2.16888 0
M  V30 3206 H 305.543 5.34683 -0.0420404 0
M  V30 3207 H 305.886 4.02824 1.05065 0
M  V30 3208 H 306.419 3.92536 -0.645007 0
M  V30 3209 H 303.158 5.86234 -2.93275 0
M  V30 3210 H 302.678 5.87258 -1.22019 0
M  V30 3211 H 304.357 6.24776 -1.6812 0
M  V30 3212 N 304.489 0.459591 1.5075 0
M  V30 3213 C 305.419 -0.330644 2.31147 0
M  V30 3214 C 306.4 -1.00087 1.37538 0
M  V30 3215 O 307.585 -1.00025 1.66459 0
M  V30 3216 C 304.715 -1.41958 3.16962 0
M  V30 3217 C 303.669 -0.871608 4.19031 0
M  V30 3218 C 302.995 -2.05797 4.9351 0
M  V30 3219 C 304.295 0.109251 5.22186 0
M  V30 3220 H 305.989 0.340336 2.97459 0
M  V30 3221 H 303.535 0.165119 1.4305 0
M  V30 3222 H 305.488 -1.9798 3.71997 0
M  V30 3223 H 304.212 -2.11917 2.48513 0
M  V30 3224 H 302.871 -0.333442 3.6508 0
M  V30 3225 H 302.519 -2.74427 4.21544 0
M  V30 3226 H 302.219 -1.6976 5.62544 0
M  V30 3227 H 303.743 -2.62331 5.51375 0
M  V30 3228 H 305.157 -0.361405 5.7216 0
M  V30 3229 H 303.554 0.383316 5.98875 0
M  V30 3230 H 304.624 1.03887 4.73641 0
M  V30 3231 N 305.967 -1.56429 0.191757 0
M  V30 3232 C 307.197 -2.01574 -0.452928 0
M  V30 3233 C 307.605 -1.07107 -1.55964 0
M  V30 3234 O 306.948 -0.067534 -1.83576 0
M  V30 3235 C 307.01 -3.43121 -1.07278 0
M  V30 3236 C 306.674 -4.56879 -0.105214 0
M  V30 3237 C 307.671 -5.15379 0.684149 0
M  V30 3238 C 305.356 -5.023 0.00489824 0
M  V30 3239 C 307.35 -6.17746 1.57062 0
M  V30 3240 C 305.037 -6.04511 0.894935 0
M  V30 3241 C 306.035 -6.62108 1.67637 0
M  V30 3242 O 305.723 -7.62335 2.55149 0
M  V30 3243 H 305.455 -0.665554 -0.118379 0
M  V30 3244 H 308.009 -2.03245 0.296737 0
M  V30 3245 H 306.239 -3.38425 -1.87097 0
M  V30 3246 H 307.928 -3.72093 -1.62177 0
M  V30 3247 H 308.694 -4.81157 0.609365 0
M  V30 3248 H 304.573 -4.57168 -0.593156 0
M  V30 3249 H 308.117 -6.6263 2.181 0
M  V30 3250 H 304.014 -6.38157 0.970847 0
M  V30 3251 H 304.782 -7.79741 2.48892 0
M  V30 3252 N 307.445 0.0818655 -1.57387 0
M  V30 3253 C 308.673 0.796108 -1.9097 0
M  V30 3254 C 309.088 1.71626 -0.786757 0
M  V30 3255 O 308.445 1.80908 0.240513 0
M  V30 3256 C 308.496 1.59829 -3.24248 0
M  V30 3257 O 308.217 0.715131 -4.32224 0
M  V30 3258 C 309.718 2.41442 -3.7178 0
M  V30 3259 H 306.938 0.22691 -0.631469 0
M  V30 3260 H 309.482 0.0551439 -2.04426 0
M  V30 3261 H 307.637 2.29163 -3.12351 0
M  V30 3262 H 308.051 1.27205 -5.08841 0
M  V30 3263 H 309.525 2.932 -4.67694 0
M  V30 3264 H 310.002 3.2051 -3.00283 0
M  V30 3265 H 310.608 1.77283 -3.86589 0
M  V30 3266 N 308.923 1.53595 0.353017 0
M  V30 3267 C 310.169 1.70638 1.09593 0
M  V30 3268 C 310.502 0.463286 1.88593 0
M  V30 3269 O 309.777 -0.539597 1.86865 0
M  V30 3270 C 310.06 2.96406 2.04489 0
M  V30 3271 C 309.913 4.30901 1.29014 0
M  V30 3272 C 311.232 3.17812 3.0444 0
M  V30 3273 H 308.351 0.620913 0.397034 0
M  V30 3274 H 310.993 1.86254 0.375446 0
M  V30 3275 H 309.143 2.83223 2.65927 0
M  V30 3276 H 310.815 4.55917 0.702638 0
M  V30 3277 H 309.058 4.29741 0.592071 0
M  V30 3278 H 309.729 5.1506 1.98537 0
M  V30 3279 H 312.205 3.30263 2.53112 0
M  V30 3280 H 311.081 4.07223 3.6805 0
M  V30 3281 H 311.342 2.33669 3.75301 0
M  V30 3282 N 310.401 -0.613514 1.45168 0
M  V30 3283 C 311.631 -1.39743 1.52169 0
M  V30 3284 C 312.039 -1.88596 0.151086 0
M  V30 3285 O 311.382 -1.6251 -0.856521 0
M  V30 3286 C 311.444 -2.64035 2.43979 0
M  V30 3287 C 311.108 -2.36861 3.90827 0
M  V30 3288 C 312.105 -1.97591 4.80889 0
M  V30 3289 C 309.79 -2.49956 4.35692 0
M  V30 3290 C 311.784 -1.71768 6.1382 0
M  V30 3291 C 309.471 -2.23747 5.68665 0
M  V30 3292 C 310.469 -1.84714 6.57548 0
M  V30 3293 O 310.157 -1.58809 7.88058 0
M  V30 3294 H 309.889 -0.434382 0.517966 0
M  V30 3295 H 312.443 -0.75587 1.90986 0
M  V30 3296 H 310.673 -3.3089 2.00122 0
M  V30 3297 H 312.362 -3.26069 2.41731 0
M  V30 3298 H 313.128 -1.87015 4.47493 0
M  V30 3299 H 309.007 -2.79305 3.66756 0
M  V30 3300 H 312.551 -1.41227 6.83155 0
M  V30 3301 H 308.448 -2.33938 6.01617 0
M  V30 3302 H 309.216 -1.7291 8.00028 0
M  V30 3303 N 311.879 -1.3236 -0.855495 0
M  V30 3304 C 313.104 -1.2601 -1.64731 0
M  V30 3305 C 313.529 0.169068 -1.87339 0
M  V30 3306 O 312.887 1.12016 -1.42556 0
M  V30 3307 C 312.935 -2.02417 -2.98429 0
M  V30 3308 O 312.039 -1.3714 -3.8893 0
M  V30 3309 H 311.38 -0.434325 -0.502253 0
M  V30 3310 H 313.91 -1.74661 -1.06558 0
M  V30 3311 H 313.92 -2.12559 -3.48257 0
M  V30 3312 H 312.595 -3.06343 -2.81295 0
M  V30 3313 H 311.172 -1.3554 -3.47395 0
M  V30 3314 N 313.357 1.07166 -1.15556 0
M  V30 3315 C 314.585 1.83514 -0.955519 0
M  V30 3316 C 315 1.82163 0.49621 0
M  V30 3317 O 314.357 1.23441 1.34419 0
M  V30 3318 C 314.408 3.30515 -1.46432 0
M  V30 3319 O 314.129 3.31937 -2.85918 0
M  V30 3320 C 315.63 4.23625 -1.30603 0
M  V30 3321 H 312.85 0.578926 -0.339244 0
M  V30 3322 H 315.394 1.35265 -1.53374 0
M  V30 3323 H 313.549 3.76106 -0.928584 0
M  V30 3324 H 313.963 4.23794 -3.09029 0
M  V30 3325 H 315.437 5.24831 -1.71047 0
M  V30 3326 H 315.914 4.38485 -0.250441 0
M  V30 3327 H 316.52 3.83871 -1.83094 0
M  V30 3328 N 314.835 0.952656 1.25548 0
M  V30 3329 C 316.081 0.607272 1.93494 0
M  V30 3330 C 316.414 -0.853245 1.74452 0
M  V30 3331 O 315.689 -1.61194 1.08843 0
M  V30 3332 C 315.972 0.96435 3.46947 0
M  V30 3333 C 315.825 2.48045 3.75225 0
M  V30 3334 C 317.144 0.487987 4.37386 0
M  V30 3335 H 314.263 0.222096 0.702739 0
M  V30 3336 H 316.905 1.18895 1.48203 0
M  V30 3337 H 315.055 0.469361 3.85654 0
M  V30 3338 H 316.727 3.04905 3.46166 0
M  V30 3339 H 314.97 2.919 3.209 0
M  V30 3340 H 315.641 2.6808 4.82532 0
M  V30 3341 H 318.117 0.912558 4.0597 0
M  V30 3342 H 316.993 0.766547 5.43521 0
M  V30 3343 H 317.254 -0.612063 4.37843 0
M  V30 3344 N 316.313 -1.40141 0.720998 0
M  V30 3345 C 317.561 -2.0039 0.262323 0
M  V30 3346 C 317.882 -1.57469 -1.15015 0
M  V30 3347 O 317.152 -0.816582 -1.78069 0
M  V30 3348 H 315.732 -0.741063 0.093996 0
M  V30 3349 H 318.394 -1.71398 0.927835 0
M  V30 3350 H 317.49 -3.10658 0.299671 0
M  V30 3351 N 317.792 -0.46758 -1.50504 0
M  V30 3352 C 318.755 0.317059 -2.26996 0
M  V30 3353 C 319.755 0.923513 -1.31635 0
M  V30 3354 O 320.945 0.793239 -1.55091 0
M  V30 3355 C 318.077 1.45134 -3.08462 0
M  V30 3356 H 319.27 -0.353723 -2.97807 0
M  V30 3357 H 316.823 -0.221545 -1.54722 0
M  V30 3358 H 317.558 2.15728 -2.4214 0
M  V30 3359 H 317.343 1.02232 -3.78538 0
M  V30 3360 H 318.833 2.00493 -3.66323 0
M  V30 3361 N 319.27 1.56325 -0.20005 0
M  V30 3362 C 320.517 1.97719 0.437411 0
M  V30 3363 C 320.845 1.08709 1.61284 0
M  V30 3364 O 320.1 0.127261 1.95286 0
M  V30 3365 C 320.399 3.4495 0.935103 0
M  V30 3366 C 320.065 4.5072 -0.12749 0
M  V30 3367 C 318.727 4.79368 -0.419451 0
M  V30 3368 C 321.079 5.14268 -0.847231 0
M  V30 3369 C 318.407 5.68854 -1.43604 0
M  V30 3370 C 320.759 6.04852 -1.85301 0
M  V30 3371 C 319.423 6.31855 -2.15211 0
M  V30 3372 H 318.693 0.723507 0.16006 0
M  V30 3373 H 321.34 1.89166 -0.298056 0
M  V30 3374 H 319.645 3.50599 1.74894 0
M  V30 3375 H 321.342 3.74337 1.43781 0
M  V30 3376 H 317.932 4.28458 0.11023 0
M  V30 3377 H 322.116 4.92222 -0.634901 0
M  V30 3378 H 317.372 5.88047 -1.67364 0
M  V30 3379 H 321.546 6.53152 -2.41591 0
M  V30 3380 H 319.173 7.00994 -2.94129 0
M  V30 3381 N 320.748 -0.0735177 1.57428 0
M  V30 3382 C 321.978 -0.78483 1.91112 0
M  V30 3383 C 322.386 -1.71729 0.7941 0
M  V30 3384 O 321.729 -1.82105 -0.241542 0
M  V30 3385 C 321.791 -1.63346 3.20247 0
M  V30 3386 C 321.455 -0.870557 4.48632 0
M  V30 3387 C 322.452 -0.19058 5.19551 0
M  V30 3388 C 320.137 -0.838242 4.95256 0
M  V30 3389 C 322.131 0.511503 6.35344 0
M  V30 3390 C 319.818 -0.132386 6.10957 0
M  V30 3391 C 320.816 0.541288 6.80852 0
M  V30 3392 O 320.504 1.23578 7.94345 0
M  V30 3393 H 320.236 -0.228408 0.636244 0
M  V30 3394 H 322.79 -0.0486039 2.05342 0
M  V30 3395 H 321.02 -2.41245 3.02222 0
M  V30 3396 H 322.709 -2.22329 3.39595 0
M  V30 3397 H 323.475 -0.206864 4.84559 0
M  V30 3398 H 319.354 -1.35206 4.40727 0
M  V30 3399 H 322.898 1.03789 6.89836 0
M  V30 3400 H 318.795 -0.114023 6.45399 0
M  V30 3401 H 319.563 1.14487 8.10454 0
M  V30 3402 N 322.226 -1.5378 -0.344866 0
M  V30 3403 C 323.473 -1.70963 -1.08526 0
M  V30 3404 C 323.801 -0.472126 -1.88683 0
M  V30 3405 O 323.056 0.546116 -1.87926 0
M  V30 3406 C 323.355 -2.92407 -2.05506 0
M  V30 3407 C 323.021 -4.28066 -1.41671 0
M  V30 3408 C 321.683 -4.64951 -1.2399 0
M  V30 3409 C 324.035 -5.12344 -0.956726 0
M  V30 3410 C 321.363 -5.83733 -0.589277 0
M  V30 3411 C 323.715 -6.3179 -0.320015 0
M  V30 3412 C 322.379 -6.67372 -0.130881 0
M  V30 3413 H 321.649 -0.625598 -0.397124 0
M  V30 3414 H 324.296 -1.87995 -0.36469 0
M  V30 3415 H 322.601 -2.69973 -2.8394 0
M  V30 3416 H 324.298 -3.02895 -2.62784 0
M  V30 3417 H 320.888 -3.99034 -1.56429 0
M  V30 3418 H 325.072 -4.8438 -1.08118 0
M  V30 3419 H 320.328 -6.09877 -0.431344 0
M  V30 3420 H 324.502 -6.96386 0.0445072 0
M  V30 3421 H 322.129 -7.59273 0.375318 0
M  V30 3422 N 323.704 0.605807 -1.45491 0
M  V30 3423 C 325.115 1.18777 -1.44045 0
M  V30 3424 C 325.466 1.95471 -0.169001 0
M  V30 3425 O 324.591 2.0374 0.729324 0
M  V30 3426 C 325.186 2.16064 -2.60963 0
M  V30 3427 C 323.745 2.69633 -2.62631 0
M  V30 3428 C 322.892 1.45072 -2.36325 0
M  V30 3429 H 325.843 0.395017 -1.53705 0
M  V30 3430 H 325.864 2.9913 -2.35163 0
M  V30 3431 H 325.376 1.60217 -3.53486 0
M  V30 3432 H 323.477 3.29414 -1.74119 0
M  V30 3433 H 323.59 3.13944 -3.61906 0
M  V30 3434 H 321.954 1.74089 -1.85917 0
M  V30 3435 H 322.737 0.910899 -3.30995 0
M  V30 3436 N 325.182 1.32811 0.848464 0
M  V30 3437 C 326.41 1.26739 1.63538 0
M  V30 3438 C 326.825 -0.163484 1.88091 0
M  V30 3439 O 326.182 -1.10258 1.45429 0
M  V30 3440 C 326.233 2.03013 2.99112 0
M  V30 3441 O 325.954 3.40518 2.75643 0
M  V30 3442 C 327.455 2.04038 3.93552 0
M  V30 3443 H 324.675 0.437024 0.509167 0
M  V30 3444 H 327.219 1.75033 1.05753 0
M  V30 3445 H 325.374 1.58426 3.53525 0
M  V30 3446 H 325.788 3.79635 3.61908 0
M  V30 3447 H 327.262 2.61877 4.85926 0
M  V30 3448 H 327.739 1.0282 4.26995 0
M  V30 3449 H 328.345 2.486 3.45077 0
M  V30 3450 N 326.66 -1.06551 1.16123 0
M  V30 3451 C 327.59 -2.15935 0.88851 0
M  V30 3452 C 328.571 -1.69306 -0.164135 0
M  V30 3453 O 329.756 -1.94193 -0.0167857 0
M  V30 3454 C 326.886 -3.45149 0.385942 0
M  V30 3455 C 325.84 -4.05271 1.3762 0
M  V30 3456 C 325.166 -5.29664 0.732137 0
M  V30 3457 C 326.466 -4.44355 2.74493 0
M  V30 3458 H 328.16 -2.39006 1.80323 0
M  V30 3459 H 325.706 -1.14866 0.868435 0
M  V30 3460 H 327.659 -4.21004 0.182647 0
M  V30 3461 H 326.383 -3.21689 -0.564274 0
M  V30 3462 H 325.042 -3.3147 1.56599 0
M  V30 3463 H 324.69 -5.02499 -0.224483 0
M  V30 3464 H 324.39 -5.70848 1.39307 0
M  V30 3465 H 325.914 -6.08218 0.538802 0
M  V30 3466 H 327.328 -5.11303 2.59311 0
M  V30 3467 H 325.725 -4.96515 3.37035 0
M  V30 3468 H 326.795 -3.55339 3.29943 0
M  V30 3469 N 328.138 -0.959301 -1.25041 0
M  V30 3470 C 329.068 -0.501388 -2.28053 0
M  V30 3471 C 330.049 0.454673 -1.63911 0
M  V30 3472 O 331.234 0.352618 -1.90972 0
M  V30 3473 C 328.364 0.217224 -3.4662 0
M  V30 3474 C 327.318 -0.654034 -4.22973 0
M  V30 3475 C 326.644 0.195589 -5.34342 0
M  V30 3476 C 327.944 -1.93447 -4.85155 0
M  V30 3477 H 329.638 -1.36238 -2.66608 0
M  V30 3478 H 327.184 -0.656534 -1.28163 0
M  V30 3479 H 329.137 0.548732 -4.17812 0
M  V30 3480 H 327.861 1.1125 -3.07068 0
M  V30 3481 H 326.52 -0.968693 -3.5357 0
M  V30 3482 H 326.168 1.09076 -4.91031 0
M  V30 3483 H 325.868 -0.384091 -5.86343 0
M  V30 3484 H 327.392 0.521958 -6.08365 0
M  V30 3485 H 328.806 -1.66908 -5.48466 0
M  V30 3486 H 327.203 -2.46018 -5.47353 0
M  V30 3487 H 328.273 -2.63466 -4.07079 0
M  V30 3488 N 329.616 1.39756 -0.72842 0
M  V30 3489 C 330.546 2.33289 -0.0991354 0
M  V30 3490 C 331.527 1.53568 0.731489 0
M  V30 3491 O 332.712 1.81987 0.677807 0
M  V30 3492 C 329.842 3.3763 0.813834 0
M  V30 3493 C 328.796 4.2791 0.0878663 0
M  V30 3494 C 328.122 5.22894 1.11741 0
M  V30 3495 C 329.422 5.11314 -1.06563 0
M  V30 3496 H 331.116 2.86163 -0.880408 0
M  V30 3497 H 328.662 1.37591 -0.424819 0
M  V30 3498 H 330.615 4.0201 1.26355 0
M  V30 3499 H 329.339 2.83181 1.62715 0
M  V30 3500 H 327.998 3.65 -0.342159 0
M  V30 3501 H 327.646 4.64744 1.92412 0
M  V30 3502 H 327.346 5.84143 0.636477 0
M  V30 3503 H 328.87 5.90151 1.56697 0
M  V30 3504 H 330.284 5.69076 -0.694671 0
M  V30 3505 H 328.681 5.81671 -1.47577 0
M  V30 3506 H 329.751 4.46534 -1.89038 0
M  V30 3507 N 331.094 0.475555 1.50254 0
M  V30 3508 C 332.343 -0.0795996 2.01543 0
M  V30 3509 C 332.656 -1.4038 1.36209 0
M  V30 3510 O 333.862 -2.04415 1.7868 0
M  V30 3511 C 332.318 -0.192363 3.59386 0
M  V30 3512 C 331.926 1.12367 4.33679 0
M  V30 3513 C 333.67 -0.699238 4.18701 0
M  V30 3514 C 331.577 0.974453 5.83317 0
M  V30 3515 H 330.507 -0.0335228 0.753254 0
M  V30 3516 H 333.158 0.611128 1.73025 0
M  V30 3517 H 331.54 -0.946974 3.84511 0
M  V30 3518 H 332.714 1.88958 4.20276 0
M  V30 3519 H 331.029 1.562 3.85993 0
M  V30 3520 H 333.626 -0.827978 5.28251 0
M  V30 3521 H 333.969 -1.69171 3.80377 0
M  V30 3522 H 334.502 -0.00188807 3.978 0
M  V30 3523 H 331.241 1.94042 6.26121 0
M  V30 3524 H 330.761 0.248998 5.99283 0
M  V30 3525 H 332.44 0.642867 6.43798 0
M  V30 3526 N 332.573 -1.56217 0.208337 0
M  V30 3527 C 333.536 -2.18455 -0.693557 0
M  V30 3528 C 334.536 -1.14268 -1.13135 0
M  V30 3529 O 335.726 -1.39577 -1.0423 0
M  V30 3530 C 332.858 -2.79727 -1.94848 0
M  V30 3531 H 334.051 -2.99519 -0.15114 0
M  V30 3532 H 331.604 -1.56245 -0.041287 0
M  V30 3533 H 332.339 -2.02497 -2.53309 0
M  V30 3534 H 332.124 -3.56009 -1.64316 0
M  V30 3535 H 333.614 -3.27475 -2.59133 0
M  V30 3536 N 334.051 0.0651679 -1.57465 0
M  V30 3537 C 334.981 1.07693 -2.07182 0
M  V30 3538 C 335.962 1.39962 -0.966673 0
M  V30 3539 O 337.147 1.49475 -1.2398 0
M  V30 3540 C 334.277 2.3885 -2.52127 0
M  V30 3541 C 333.231 2.20917 -3.66579 0
M  V30 3542 C 332.557 3.57515 -3.97601 0
M  V30 3543 C 333.857 1.62493 -4.9638 0
M  V30 3544 H 335.551 0.663199 -2.91962 0
M  V30 3545 H 333.097 0.317569 -1.40455 0
M  V30 3546 H 335.05 3.09928 -2.85522 0
M  V30 3547 H 333.774 2.82215 -1.64384 0
M  V30 3548 H 332.433 1.52279 -3.33477 0
M  V30 3549 H 332.081 3.98463 -3.06979 0
M  V30 3550 H 331.781 3.46353 -4.74672 0
M  V30 3551 H 333.305 4.30013 -4.33499 0
M  V30 3552 H 334.719 2.23445 -5.27963 0
M  V30 3553 H 333.116 1.62009 -5.77818 0
M  V30 3554 H 334.186 0.587041 -4.81333 0
M  V30 3555 N 335.529 1.53961 0.336706 0
M  V30 3556 C 336.759 1.75229 1.09446 0
M  V30 3557 C 337.167 0.494602 1.82621 0
M  V30 3558 O 336.51 -0.543764 1.75468 0
M  V30 3559 C 336.572 2.88288 2.1478 0
M  V30 3560 C 336.236 4.27656 1.6112 0
M  V30 3561 C 337.233 5.08981 1.0599 0
M  V30 3562 C 334.918 4.74161 1.6576 0
M  V30 3563 C 336.912 6.34916 0.562129 0
M  V30 3564 C 334.599 6.00067 1.15595 0
M  V30 3565 C 335.597 6.80278 0.609147 0
M  V30 3566 O 335.285 8.03818 0.114999 0
M  V30 3567 H 335.017 0.588881 0.331956 0
M  V30 3568 H 337.571 2.01614 0.392566 0
M  V30 3569 H 335.801 2.57443 2.88548 0
M  V30 3570 H 337.49 2.97461 2.76174 0
M  V30 3571 H 338.256 4.74213 1.01722 0
M  V30 3572 H 334.135 4.11781 2.07261 0
M  V30 3573 H 337.679 6.9747 0.134668 0
M  V30 3574 H 333.576 6.3433 1.19566 0
M  V30 3575 H 334.344 8.18172 0.231651 0
M  V30 3576 N 337.007 -0.598083 1.45811 0
M  V30 3577 C 338.255 -1.35413 1.50026 0
M  V30 3578 C 338.576 -1.94444 0.147177 0
M  V30 3579 O 337.846 -1.77701 -0.824571 0
M  V30 3580 H 336.426 -0.502727 0.552517 0
M  V30 3581 H 339.088 -0.701606 1.81834 0
M  V30 3582 H 338.184 -2.16871 2.2444 0
M  V30 3583 N 338.485 -1.33259 -0.841409 0
M  V30 3584 C 339.901 -1.12538 -1.13169 0
M  V30 3585 C 340.101 0.0854037 -2.01319 0
M  V30 3586 O 339.157 0.766417 -2.40587 0
M  V30 3587 C 340.47 -2.41156 -1.79623 0
M  V30 3588 C 342.018 -2.47038 -1.922 0
M  V30 3589 C 342.493 -3.7561 -2.6207 0
M  V30 3590 N 343.984 -3.76667 -2.69585 0
M  V30 3591 C 344.719 -4.72861 -3.2433 0
M  V30 3592 N 344.215 -5.79428 -3.79783 0
M  V30 3593 N 346.008 -4.6034 -3.22558 0
M  V30 3594 H 338.159 -2.10868 -0.254676 0
M  V30 3595 H 340.422 -0.931615 -0.175493 0
M  V30 3596 H 340.128 -3.29747 -1.22311 0
M  V30 3597 H 340.002 -2.53114 -2.79666 0
M  V30 3598 H 342.389 -1.58898 -2.48667 0
M  V30 3599 H 342.47 -2.39022 -0.911148 0
M  V30 3600 H 342.114 -4.64131 -2.06263 0
M  V30 3601 H 342.044 -3.80902 -3.63622 0
M  V30 3602 H 344.535 -2.99648 -2.30259 0
M  V30 3603 H 344.848 -6.48867 -4.19752 0
M  V30 3604 H 343.193 -5.83166 -3.78078 0
M  V30 3605 H 346.384 -3.76244 -2.78492 0
M  V30 3606 H 346.557 -5.35478 -3.64921 0
M  V30 3607 N 339.963 1.05934 -1.16686 0
M  V30 3608 C 341.212 1.78188 -0.945085 0
M  V30 3609 C 341.525 1.88338 0.528021 0
M  V30 3610 O 342.731 2.57258 0.867799 0
M  V30 3611 C 341.187 3.20277 -1.64167 0
M  V30 3612 C 340.795 3.18281 -3.15279 0
M  V30 3613 C 342.539 3.97039 -1.502 0
M  V30 3614 C 340.446 4.55112 -3.7766 0
M  V30 3615 H 339.376 0.667866 -0.349959 0
M  V30 3616 H 342.027 1.18794 -1.39858 0
M  V30 3617 H 340.409 3.79952 -1.11589 0
M  V30 3618 H 341.583 2.68167 -3.74731 0
M  V30 3619 H 339.898 2.55018 -3.29173 0
M  V30 3620 H 342.495 4.98194 -1.94183 0
M  V30 3621 H 342.838 4.13845 -0.451461 0
M  V30 3622 H 343.371 3.43894 -1.99954 0
M  V30 3623 H 340.11 4.43512 -4.82677 0
M  V30 3624 H 339.63 5.05406 -3.22994 0
M  V30 3625 H 341.309 5.24064 -3.79428 0
M  V30 3626 N 341.441 0.965919 1.2453 0
M  V30 3627 C 342.671 0.643451 1.96324 0
M  V30 3628 C 343.079 -0.790927 1.71875 0
M  V30 3629 O 342.422 -1.54208 0.998273 0
M  V30 3630 C 342.484 0.836078 3.49643 0
M  V30 3631 C 342.148 2.24975 3.97788 0
M  V30 3632 C 343.145 3.22735 4.07601 0
M  V30 3633 C 340.83 2.57697 4.31158 0
M  V30 3634 C 342.824 4.51303 4.50116 0
M  V30 3635 C 340.511 3.86492 4.73357 0
M  V30 3636 C 341.509 4.83107 4.828 0
M  V30 3637 O 341.197 6.09605 5.24058 0
M  V30 3638 H 340.929 0.239223 0.632257 0
M  V30 3639 H 343.483 1.29587 1.59362 0
M  V30 3640 H 341.713 0.12649 3.86493 0
M  V30 3641 H 343.402 0.512965 4.02646 0
M  V30 3642 H 344.168 2.98783 3.82039 0
M  V30 3643 H 340.047 1.83216 4.23028 0
M  V30 3644 H 343.591 5.26716 4.57401 0
M  V30 3645 H 339.488 4.10245 4.98366 0
M  V30 3646 H 340.256 6.13146 5.42213 0
M  V30 3647 N 342.919 -1.39368 0.735821 0
M  V30 3648 C 344.165 -2.00794 0.284544 0
M  V30 3649 C 344.498 -1.58255 -1.12557 0
M  V30 3650 O 343.773 -0.811819 -1.76748 0
M  V30 3651 C 344.056 -3.58011 0.387337 0
M  V30 3652 C 343.909 -4.10566 1.83728 0
M  V30 3653 C 345.228 -4.395 -0.22975 0
M  V30 3654 H 342.347 -0.729501 0.104866 0
M  V30 3655 H 344.989 -1.65564 0.93213 0
M  V30 3656 H 343.139 -3.88154 -0.164006 0
M  V30 3657 H 344.811 -3.91139 2.44556 0
M  V30 3658 H 343.054 -3.64095 2.35833 0
M  V30 3659 H 343.725 -5.19702 1.86047 0
M  V30 3660 H 346.201 -4.15406 0.240257 0
M  V30 3661 H 345.077 -5.48752 -0.127485 0
M  V30 3662 H 345.338 -4.22062 -1.3159 0
M  V30 3663 N 344.397 -0.483516 -1.5 0
M  V30 3664 C 345.307 0.309172 -2.32554 0
M  V30 3665 C 346.323 0.984159 -1.43493 0
M  V30 3666 O 347.499 0.969399 -1.76535 0
M  V30 3667 C 344.564 1.36979 -3.18493 0
M  V30 3668 C 343.625 0.710095 -4.23387 0
M  V30 3669 C 342.858 1.72018 -5.05218 0
M  V30 3670 O 343.081 2.94813 -4.88305 0
M  V30 3671 O 342.015 1.28515 -5.8802 0
M  V30 3672 H 345.841 -0.366064 -3.01486 0
M  V30 3673 H 343.426 -0.24514 -1.47375 0
M  V30 3674 H 345.308 1.98385 -3.71781 0
M  V30 3675 H 343.983 2.02828 -2.52275 0
M  V30 3676 H 342.89 0.0567539 -3.74057 0
M  V30 3677 H 344.223 0.0943557 -4.9211 0
M  V30 3678 N 345.875 1.56104 -0.216619 0
M  V30 3679 C 346.838 2.18819 0.681962 0
M  V30 3680 C 347.838 1.14866 1.12528 0
M  V30 3681 O 349.028 1.40128 1.03488 0
M  V30 3682 C 346.16 2.80756 1.93362 0
M  V30 3683 H 347.353 2.99595 0.135254 0
M  V30 3684 H 344.906 1.56265 0.0330003 0
M  V30 3685 H 345.641 2.03837 2.52232 0
M  V30 3686 H 345.426 3.56876 1.62426 0
M  V30 3687 H 346.916 3.28844 2.57393 0
M  V30 3688 N 347.353 -0.0568162 1.57498 0
M  V30 3689 C 348.769 -0.411933 1.54192 0
M  V30 3690 C 348.969 -1.78287 0.938942 0
M  V30 3691 O 348.025 -2.46483 0.547919 0
M  V30 3692 C 349.338 -0.339244 2.9878 0
M  V30 3693 C 350.886 -0.418348 3.10192 0
M  V30 3694 C 351.361 -0.375407 4.56459 0
M  V30 3695 N 352.852 -0.435038 4.61153 0
M  V30 3696 C 353.587 -0.424265 5.71828 0
M  V30 3697 N 353.083 -0.367418 6.91825 0
M  V30 3698 N 354.876 -0.471938 5.60115 0
M  V30 3699 H 347.027 0.840684 1.95055 0
M  V30 3700 H 349.29 0.316987 0.893433 0
M  V30 3701 H 348.996 0.601742 3.46514 0
M  V30 3702 H 348.87 -1.14371 3.59443 0
M  V30 3703 H 351.257 -1.34976 2.62422 0
M  V30 3704 H 351.338 0.414962 2.52412 0
M  V30 3705 H 350.982 0.552219 5.04889 0
M  V30 3706 H 350.912 -1.22645 5.12119 0
M  V30 3707 H 353.403 -0.482612 3.74806 0
M  V30 3708 H 353.716 -0.363535 7.71944 0
M  V30 3709 H 352.061 -0.333879 6.94198 0
M  V30 3710 H 355.252 -0.514145 4.65268 0
M  V30 3711 H 355.425 -0.460073 6.46365 0
M  V30 3712 N 348.832 -1.54138 -0.328536 0
M  V30 3713 C 350.057 -1.76378 -1.09112 0
M  V30 3714 C 350.482 -0.508596 -1.81094 0
M  V30 3715 O 349.84 0.539598 -1.73084 0
M  V30 3716 C 349.888 -2.95358 -2.06872 0
M  V30 3717 O 348.992 -2.66556 -3.14677 0
M  V30 3718 H 348.333 -0.584614 -0.314838 0
M  V30 3719 H 350.863 -2.01146 -0.374348 0
M  V30 3720 H 350.873 -3.22566 -2.4983 0
M  V30 3721 H 349.548 -3.86385 -1.5388 0
M  V30 3722 H 348.125 -2.50282 -2.7643 0
M  V30 3723 N 350.31 0.590341 -1.46126 0
M  V30 3724 C 351.726 0.912917 -1.30912 0
M  V30 3725 C 351.926 1.99616 -0.274893 0
M  V30 3726 O 350.982 2.50397 0.325197 0
M  V30 3727 C 352.295 1.3375 -2.69317 0
M  V30 3728 C 353.843 1.45077 -2.77348 0
M  V30 3729 C 354.318 1.90904 -4.16317 0
M  V30 3730 N 355.809 1.9811 -4.18696 0
M  V30 3731 C 356.544 2.34828 -5.23109 0
M  V30 3732 N 356.04 2.70393 -6.37856 0
M  V30 3733 N 357.833 2.35317 -5.10473 0
M  V30 3734 H 349.984 -0.125358 -2.1203 0
M  V30 3735 H 352.247 0.00658481 -0.947977 0
M  V30 3736 H 351.953 0.615614 -3.4627 0
M  V30 3737 H 351.827 2.30058 -2.9892 0
M  V30 3738 H 354.214 2.16353 -2.00687 0
M  V30 3739 H 354.295 0.4704 -2.51438 0
M  V30 3740 H 353.939 1.20209 -4.9347 0
M  V30 3741 H 353.869 2.89886 -4.39629 0
M  V30 3742 H 356.36 1.73146 -3.359 0
M  V30 3743 H 356.673 2.97341 -7.13308 0
M  V30 3744 H 355.018 2.68048 -6.41229 0
M  V30 3745 H 358.209 2.0695 -4.19868 0
M  V30 3746 H 358.382 2.63605 -5.9196 0
M  V30 3747 N 351.788 1.33704 0.83433 0
M  V30 3748 C 353.037 1.24763 1.58484 0
M  V30 3749 C 353.35 -0.183775 1.94735 0
M  V30 3750 O 354.556 -0.395234 2.68608 0
M  V30 3751 C 353.012 2.18638 2.85876 0
M  V30 3752 C 352.62 3.66974 2.56971 0
M  V30 3753 C 354.364 2.18581 3.63899 0
M  V30 3754 C 352.271 4.5275 3.80488 0
M  V30 3755 H 351.201 0.463425 0.594772 0
M  V30 3756 H 353.852 1.58797 0.919551 0
M  V30 3757 H 352.234 1.77542 3.5397 0
M  V30 3758 H 353.408 4.16538 1.9706 0
M  V30 3759 H 351.723 3.69366 1.92244 0
M  V30 3760 H 354.32 2.79894 4.55591 0
M  V30 3761 H 354.663 1.18207 3.99165 0
M  V30 3762 H 355.196 2.58062 3.02735 0
M  V30 3763 H 351.935 5.54017 3.5035 0
M  V30 3764 H 351.455 4.07927 4.39722 0
M  V30 3765 H 353.134 4.66784 4.4802 0
M  V30 3766 N 353.266 -1.05314 1.17247 0
M  V30 3767 C 354.196 -2.1498 0.911362 0
M  V30 3768 C 355.177 -1.69471 -0.146169 0
M  V30 3769 O 356.362 -1.942 0.003812 0
M  V30 3770 C 353.492 -3.4472 0.422528 0
M  V30 3771 C 352.446 -4.03789 1.4191 0
M  V30 3772 C 351.772 -5.28858 0.788274 0
M  V30 3773 C 353.072 -4.41418 2.7919 0
M  V30 3774 H 354.766 -2.3708 1.82848 0
M  V30 3775 H 352.312 -1.13938 0.880569 0
M  V30 3776 H 354.265 -4.20787 0.227289 0
M  V30 3777 H 352.989 -3.22269 -0.530123 0
M  V30 3778 H 351.648 -3.2979 1.60106 0
M  V30 3779 H 351.296 -5.02709 -0.171173 0
M  V30 3780 H 350.996 -5.69338 1.45353 0
M  V30 3781 H 352.52 -6.07612 0.603282 0
M  V30 3782 H 353.934 -5.08524 2.64719 0
M  V30 3783 H 352.331 -4.92913 3.42282 0
M  V30 3784 H 353.401 -3.51819 3.33693 0
M  V30 3785 N 354.744 -0.972509 -1.24016 0
M  V30 3786 C 355.691 -0.505969 -2.25186 0
M  V30 3787 C 356.661 0.451009 -1.5986 0
M  V30 3788 O 357.846 0.360307 -1.87367 0
M  V30 3789 C 354.986 0.193089 -3.44559 0
M  V30 3790 C 354.099 -0.803222 -4.24467 0
M  V30 3791 C 353.234 -0.0797793 -5.3114 0
M  V30 3792 C 352.273 -1.06583 -6.02749 0
M  V30 3793 N 351.41 -0.372074 -7.01113 0
M  V30 3794 H 356.25 -1.37351 -2.64459 0
M  V30 3795 H 353.787 -0.688419 -1.29997 0
M  V30 3796 H 355.745 0.615125 -4.1264 0
M  V30 3797 H 354.375 1.02455 -3.06109 0
M  V30 3798 H 353.427 -1.34368 -3.55878 0
M  V30 3799 H 354.739 -1.55494 -4.73944 0
M  V30 3800 H 353.893 0.400015 -6.0538 0
M  V30 3801 H 352.632 0.704597 -4.82583 0
M  V30 3802 H 351.637 -1.55645 -5.27309 0
M  V30 3803 H 352.862 -1.85074 -6.53395 0
M  V30 3804 H 350.808 0.393238 -6.5482 0
M  V30 3805 H 350.725 -1.06258 -7.48495 0
M  V30 3806 H 351.993 0.0855932 -7.79453 0
M  V30 3807 N 356.222 1.38976 -0.743202 0
M  V30 3808 C 357.154 2.29096 -0.0689228 0
M  V30 3809 C 358.167 1.47229 0.694791 0
M  V30 3810 O 359.356 1.70212 0.537597 0
M  V30 3811 C 356.456 3.25988 0.926548 0
M  V30 3812 C 355.629 4.36833 0.222647 0
M  V30 3813 C 354.688 5.13981 1.12739 0
M  V30 3814 O 353.714 5.6601 0.601795 0
M  V30 3815 N 354.916 5.25966 2.45641 0
M  V30 3816 H 357.681 2.87604 -0.842846 0
M  V30 3817 H 355.242 1.50645 -0.593109 0
M  V30 3818 H 357.234 3.74476 1.5346 0
M  V30 3819 H 355.804 2.68453 1.60162 0
M  V30 3820 H 355.024 3.90116 -0.565983 0
M  V30 3821 H 356.312 5.0811 -0.264841 0
M  V30 3822 H 355.71 4.85228 2.9081 0
M  V30 3823 H 354.267 5.77865 3.01522 0
M  V30 3824 N 357.7 0.491464 1.49741 0
M  V30 3825 C 358.928 -0.0535151 2.06831 0
M  V30 3826 C 359.343 -1.31683 1.35296 0
M  V30 3827 O 358.7 -1.77402 0.42836 0
M  V30 3828 C 358.751 -0.320835 3.60073 0
M  V30 3829 O 358.472 0.892394 4.28915 0
M  V30 3830 C 359.973 -0.910519 4.33848 0
M  V30 3831 H 357.193 0.0161909 0.670805 0
M  V30 3832 H 359.737 0.68609 1.92647 0
M  V30 3833 H 357.892 -1.0104 3.73991 0
M  V30 3834 H 358.306 0.649401 5.20464 0
M  V30 3835 H 359.78 -1.04721 5.41976 0
M  V30 3836 H 360.257 -1.90589 3.95692 0
M  V30 3837 H 360.863 -0.258712 4.24512 0
M  V30 3838 N 359.178 -1.55987 0.224894 0
M  V30 3839 C 360.589 -1.84553 -0.282345 0
M  V30 3840 C 360.94 -1.14634 -1.59227 0
M  V30 3841 O 360.065 -0.417155 -2.12341 0
M  V30 3842 C 360.66 -3.348 -0.519062 0
M  V30 3843 C 359.219 -3.63671 -0.970604 0
M  V30 3844 C 358.366 -2.77277 -0.0355261 0
M  V30 3845 H 361.317 -1.52245 0.448006 0
M  V30 3846 H 361.338 -3.55187 -1.36463 0
M  V30 3847 H 360.85 -3.8566 0.43449 0
M  V30 3848 H 358.951 -3.1827 -1.9374 0
M  V30 3849 H 359.064 -4.71631 -0.842698 0
M  V30 3850 H 357.428 -2.48846 -0.542927 0
M  V30 3851 H 358.211 -3.30937 0.913003 0
M  V30 3852 N 360.656 0.0484629 -1.57525 0
M  V30 3853 C 361.604 1.07359 -2.06341 0
M  V30 3854 C 362.598 1.3865 -0.973269 0
M  V30 3855 O 363.804 1.37783 -1.15827 0
M  V30 3856 H 360.179 0.363662 -0.65822 0
M  V30 3857 H 362.15 0.635916 -2.91545 0
M  V30 3858 C 360.899 2.37198 -2.54229 0
M  V30 3859 H 360.222 2.13977 -3.37719 0
M  V30 3860 H 361.662 3.07319 -2.92115 0
M  V30 3861 C 360.121 3.04805 -1.43511 0
M  V30 3862 O 360.651 3.93848 -0.79034 0
M  V30 3863 N 358.857 2.65811 -1.17444 0
M  V30 3864 H 358.404 1.93488 -1.70059 0
M  V30 3865 H 358.362 3.11366 -0.435737 0
M  V30 3866 N 362.134 1.5431 0.320358 0
M  V30 3867 C 363.55 1.45091 0.664889 0
M  V30 3868 C 363.75 0.626382 1.91517 0
M  V30 3869 O 362.806 0.126443 2.52183 0
M  V30 3870 C 364.119 2.88848 0.83591 0
M  V30 3871 C 365.667 2.9877 0.933046 0
M  V30 3872 C 366.142 4.43683 1.13621 0
M  V30 3873 N 367.633 4.47309 1.20287 0
M  V30 3874 C 368.368 5.56595 1.37801 0
M  V30 3875 N 367.864 6.75844 1.52338 0
M  V30 3876 N 369.657 5.44248 1.40535 0
M  V30 3877 H 361.808 2.06398 -0.501374 0
M  V30 3878 H 364.071 0.933963 -0.162534 0
M  V30 3879 H 363.777 3.51698 -0.0116092 0
M  V30 3880 H 363.651 3.35148 1.73078 0
M  V30 3881 H 366.038 2.36045 1.77107 0
M  V30 3882 H 366.119 2.55796 0.0145782 0
M  V30 3883 H 365.763 5.06995 0.303032 0
M  V30 3884 H 365.693 4.84269 2.0686 0
M  V30 3885 H 368.184 3.61388 1.10485 0
M  V30 3886 H 368.497 7.54892 1.65403 0
M  V30 3887 H 366.842 6.78746 1.4943 0
M  V30 3888 H 370.033 4.50038 1.28777 0
M  V30 3889 H 370.206 6.29473 1.53842 0
M  V30 3890 N 363.613 -0.582584 1.46437 0
M  V30 3891 C 364.841 -1.36682 1.55324 0
M  V30 3892 C 365.256 -1.87796 0.194409 0
M  V30 3893 O 364.613 -1.63623 -0.808318 0
M  V30 3894 C 364.664 -2.55426 2.55812 0
M  V30 3895 O 364.385 -2.0643 3.86417 0
M  V30 3896 C 365.886 -3.47976 2.74641 0
M  V30 3897 H 363.106 -0.417545 0.525259 0
M  V30 3898 H 365.65 -0.708219 1.91845 0
M  V30 3899 H 363.805 -3.17275 2.22295 0
M  V30 3900 H 364.219 -2.83762 4.41111 0
M  V30 3901 H 365.693 -4.27775 3.48874 0
M  V30 3902 H 366.17 -3.99919 1.81553 0
M  V30 3903 H 366.776 -2.91962 3.09255 0
M  V30 3904 N 365.091 -1.34144 -0.827227 0
M  V30 3905 C 366.339 -1.26009 -1.58007 0
M  V30 3906 C 366.66 0.170971 -1.94249 0
M  V30 3907 O 365.93 1.10256 -1.61927 0
M  V30 3908 H 364.51 -0.463414 -0.585881 0
M  V30 3909 H 367.172 -1.68005 -0.987951 0
M  V30 3910 H 366.268 -1.86187 -2.50481 0
M  V30 3911 N 366.569 1.04691 -1.17803 0
M  V30 3912 C 367.516 2.12557 -0.899343 0
M  V30 3913 C 368.486 1.65339 0.158771 0
M  V30 3914 O 369.671 1.90789 0.0204797 0
M  V30 3915 C 366.811 3.42481 -0.424315 0
M  V30 3916 C 365.924 4.03346 -1.54713 0
M  V30 3917 C 365.059 5.21208 -1.02546 0
M  V30 3918 C 364.098 5.74089 -2.12339 0
M  V30 3919 N 363.235 6.83247 -1.61612 0
M  V30 3920 H 368.075 2.35734 -1.823 0
M  V30 3921 H 365.612 1.1564 -0.909159 0
M  V30 3922 H 367.57 4.16996 -0.130421 0
M  V30 3923 H 366.2 3.19471 0.462377 0
M  V30 3924 H 365.252 3.2622 -1.95664 0
M  V30 3925 H 366.564 4.38628 -2.37501 0
M  V30 3926 H 365.718 6.02812 -0.685718 0
M  V30 3927 H 364.457 4.87414 -0.167084 0
M  V30 3928 H 363.462 4.91111 -2.47165 0
M  V30 3929 H 364.687 6.0993 -2.98601 0
M  V30 3930 H 362.633 6.5134 -0.780533 0
M  V30 3931 H 362.55 7.17559 -2.38003 0
M  V30 3932 H 363.818 7.68491 -1.30545 0
M  V30 3933 N 368.047 0.979072 1.23499 0
M  V30 3934 C 369.463 0.687475 1.44034 0
M  V30 3935 C 369.663 -0.746801 1.8715 0
M  V30 3936 O 368.719 -1.51939 2.0167 0
M  V30 3937 C 370.032 1.68127 2.49307 0
M  V30 3938 C 371.58 1.69516 2.63122 0
M  V30 3939 C 372.055 2.67723 3.71603 0
M  V30 3940 N 373.546 2.66233 3.79044 0
M  V30 3941 C 374.281 3.38891 4.62537 0
M  V30 3942 N 373.777 4.21103 5.50131 0
M  V30 3943 N 375.57 3.27661 4.56721 0
M  V30 3944 H 367.721 1.90559 0.938135 0
M  V30 3945 H 369.984 0.821051 0.473897 0
M  V30 3946 H 369.69 2.70693 2.2454 0
M  V30 3947 H 369.564 1.46306 3.4767 0
M  V30 3948 H 371.951 0.676561 2.8724 0
M  V30 3949 H 372.032 1.95404 1.65079 0
M  V30 3950 H 371.676 3.69724 3.48233 0
M  V30 3951 H 371.606 2.39111 4.69184 0
M  V30 3952 H 374.097 2.06568 3.16446 0
M  V30 3953 H 374.41 4.73403 6.10827 0
M  V30 3954 H 372.755 4.25195 5.49759 0
M  V30 3955 H 375.946 2.62887 3.87309 0
M  V30 3956 H 376.119 3.84547 5.21562 0
M  V30 3957 N 369.525 -1.3858 0.750561 0
M  V30 3958 C 370.455 -2.33102 0.136237 0
M  V30 3959 C 371.436 -1.54713 -0.706965 0
M  V30 3960 O 372.621 -1.83043 -0.648769 0
M  V30 3961 C 369.751 -3.38882 -0.760017 0
M  V30 3962 C 368.705 -4.27995 -0.0197785 0
M  V30 3963 C 368.031 -5.24605 -1.03408 0
M  V30 3964 C 369.331 -5.09554 1.14684 0
M  V30 3965 H 371.025 -2.84726 0.925822 0
M  V30 3966 H 368.571 -1.36898 0.446654 0
M  V30 3967 H 370.524 -4.0397 -1.19943 0
M  V30 3968 H 369.248 -2.85734 -1.58189 0
M  V30 3969 H 367.907 -3.64409 0.400184 0
M  V30 3970 H 367.555 -4.67746 -1.84994 0
M  V30 3971 H 367.255 -5.85081 -0.543464 0
M  V30 3972 H 368.779 -5.9257 -1.47288 0
M  V30 3973 H 370.193 -5.67899 0.785118 0
M  V30 3974 H 368.59 -5.7925 1.56812 0
M  V30 3975 H 369.66 -4.4347 1.96118 0
M  V30 3976 N 371.003 -0.499398 -1.49478 0
M  V30 3977 C 372.231 0.0425456 -2.06856 0
M  V30 3978 C 372.646 1.30964 -1.35992 0
M  V30 3979 O 372.003 1.77172 -0.437762 0
M  V30 3980 C 372.054 0.301735 -3.60239 0
M  V30 3981 O 371.775 -0.915127 -4.28436 0
M  V30 3982 C 373.276 0.887499 -4.34325 0
M  V30 3983 H 370.496 -0.0197482 -0.670709 0
M  V30 3984 H 373.04 -0.696297 -1.92281 0
M  V30 3985 H 371.195 0.990556 -3.74522 0
M  V30 3986 H 371.609 -0.676993 -5.20113 0
M  V30 3987 H 373.083 1.01845 -5.42523 0
M  V30 3988 H 373.56 1.88488 -3.96698 0
M  V30 3989 H 374.166 0.236196 -4.24644 0
M  V30 3990 N 372.481 1.55866 -0.233164 0
M  V30 3991 C 373.897 1.59133 0.121988 0
M  V30 3992 C 374.097 1.25016 1.58029 0
M  V30 3993 O 373.153 0.990922 2.32243 0
M  V30 3994 C 374.466 2.99932 -0.214792 0
M  V30 3995 C 376.014 3.12601 -0.157971 0
M  V30 3996 C 376.489 4.55597 -0.46859 0
M  V30 3997 N 377.98 4.61305 -0.418585 0
M  V30 3998 C 378.715 5.69903 -0.63227 0
M  V30 3999 N 378.211 6.86819 -0.90835 0
M  V30 4000 N 380.004 5.59264 -0.563913 0
M  V30 4001 H 372.155 1.76315 -1.18434 0
M  V30 4002 H 374.418 0.820093 -0.475553 0
M  V30 4003 H 374.124 3.29588 -1.22739 0
M  V30 4004 H 373.998 3.74327 0.464691 0
M  V30 4005 H 376.385 2.82735 0.845283 0
M  V30 4006 H 376.466 2.40511 -0.871102 0
M  V30 4007 H 376.11 4.86182 -1.46934 0
M  V30 4008 H 376.04 5.25928 0.265865 0
M  V30 4009 H 378.531 3.77297 -0.213368 0
M  V30 4010 H 378.844 7.65507 -1.05919 0
M  V30 4011 H 377.189 6.88536 -0.945673 0
M  V30 4012 H 380.38 4.66802 -0.348372 0
M  V30 4013 H 380.553 6.43831 -0.733847 0
M  V30 4014 N 373.959 -0.0401083 1.57549 0
M  V30 4015 C 374.922 -1.02871 2.04817 0
M  V30 4016 C 375.922 -1.29708 0.950388 0
M  V30 4017 O 377.112 -1.24897 1.21435 0
M  V30 4018 C 374.244 -2.36443 2.45576 0
M  V30 4019 H 375.437 -0.620631 2.93408 0
M  V30 4020 H 372.99 -0.286667 1.53649 0
M  V30 4021 H 373.725 -2.82021 1.60108 0
M  V30 4022 H 373.51 -2.18296 3.25713 0
M  V30 4023 H 375 -3.07441 2.82612 0
M  V30 4024 N 375.437 -1.54477 -0.31217 0
M  V30 4025 C 376.369 -1.81011 -1.40598 0
M  V30 4026 C 377.382 -0.692546 -1.47335 0
M  V30 4027 O 378.571 -0.969847 -1.49854 0
M  V30 4028 C 375.671 -1.92307 -2.79054 0
M  V30 4029 C 374.844 -3.22594 -2.95384 0
M  V30 4030 C 373.903 -3.24448 -4.1427 0
M  V30 4031 O 372.929 -3.98035 -4.06887 0
M  V30 4032 N 374.131 -2.49042 -5.24365 0
M  V30 4033 H 376.896 -2.75408 -1.18196 0
M  V30 4034 H 374.457 -1.53914 -0.502202 0
M  V30 4035 H 376.449 -1.90962 -3.56813 0
M  V30 4036 H 375.019 -1.04955 -2.94454 0
M  V30 4037 H 374.239 -3.36806 -2.04831 0
M  V30 4038 H 375.527 -4.08593 -3.03198 0
M  V30 4039 H 374.925 -1.88867 -5.33241 0
M  V30 4040 H 373.482 -2.53463 -6.005 0
M  V30 4041 N 376.915 0.57481 -1.46744 0
M  V30 4042 C 377.845 1.69337 -1.60771 0
M  V30 4043 C 378.826 1.63825 -0.457736 0
M  V30 4044 O 380.011 1.8172 -0.684947 0
M  V30 4045 C 377.141 3.0798 -1.60517 0
M  V30 4046 C 376.095 3.28327 -2.74564 0
M  V30 4047 C 375.421 4.67578 -2.59373 0
M  V30 4048 C 376.721 3.15398 -4.16319 0
M  V30 4049 H 378.415 1.57853 -2.54407 0
M  V30 4050 H 375.961 0.75799 -1.22436 0
M  V30 4051 H 377.914 3.86061 -1.68923 0
M  V30 4052 H 376.638 3.20381 -0.634305 0
M  V30 4053 H 375.297 2.52649 -2.65639 0
M  V30 4054 H 374.945 4.76755 -1.60353 0
M  V30 4055 H 374.645 4.82144 -3.35873 0
M  V30 4056 H 376.169 5.47817 -2.69682 0
M  V30 4057 H 377.583 3.83315 -4.26313 0
M  V30 4058 H 375.98 3.41482 -4.93468 0
M  V30 4059 H 377.05 2.12372 -4.3592 0
M  V30 4060 N 378.394 1.34581 0.820102 0
M  V30 4061 C 379.643 1.26437 1.57151 0
M  V30 4062 C 379.956 -0.163111 1.94919 0
M  V30 4063 O 381.162 -0.366722 2.69012 0
M  V30 4064 C 379.618 2.21658 2.83541 0
M  V30 4065 C 379.226 3.69679 2.53065 0
M  V30 4066 C 380.97 2.22428 3.61561 0
M  V30 4067 C 378.877 4.56761 3.75664 0
M  V30 4068 H 377.807 0.469707 0.589823 0
M  V30 4069 H 380.458 1.59763 0.902656 0
M  V30 4070 H 378.84 1.81287 3.52067 0
M  V30 4071 H 380.014 4.18605 1.92631 0
M  V30 4072 H 378.329 3.71384 1.88316 0
M  V30 4073 H 380.926 2.8471 4.52597 0
M  V30 4074 H 381.269 1.22434 3.97889 0
M  V30 4075 H 381.802 2.61259 2.99981 0
M  V30 4076 H 378.541 5.57702 3.44454 0
M  V30 4077 H 378.061 4.12568 4.35371 0
M  V30 4078 H 379.74 4.71509 4.43044 0
M  V30 4079 N 379.872 -1.04064 1.18357 0
M  V30 4080 C 381.1 -1.80916 1.00384 0
M  V30 4081 C 381.515 -1.83414 -0.447738 0
M  V30 4082 O 380.872 -1.26962 -1.31099 0
M  V30 4083 C 380.923 -3.26516 1.55144 0
M  V30 4084 O 380.644 -3.2424 2.94618 0
M  V30 4085 C 382.145 -4.20013 1.41789 0
M  V30 4086 H 379.365 -0.569728 0.354474 0
M  V30 4087 H 381.909 -1.31151 1.56906 0
M  V30 4088 H 380.064 -3.73512 1.02798 0
M  V30 4089 H 380.478 -4.15452 3.20156 0
M  V30 4090 H 381.952 -5.20111 1.84901 0
M  V30 4091 H 382.429 -4.37667 0.36661 0
M  V30 4092 H 383.035 -3.78881 1.93207 0
M  V30 4093 N 381.35 -0.985608 -1.22978 0
M  V30 4094 C 382.627 -0.573599 -1.87001 0
M  V30 4095 C 383.007 0.949213 -1.88555 0
M  V30 4096 O 382.355 1.82811 -1.37086 0
M  V30 4097 C 382.565 -1.18564 -3.28243 0
M  V30 4098 C 383.913 -1.28163 -4.04796 0
M  V30 4099 O 384.937 -1.13949 -3.37482 0
M  V30 4100 O 383.796 -1.50832 -5.25273 0
M  V30 4101 H 380.89 -0.193868 -0.803955 0
M  V30 4102 H 383.436 -1.08102 -1.30813 0
M  V30 4103 H 382.208 -2.22758 -3.21706 0
M  V30 4104 H 381.831 -0.663363 -3.92027 0
M  V30 4105 N 382.828 1.3818 -0.7579 0
M  V30 4106 C 384.053 2.04827 -0.325679 0
M  V30 4107 C 384.478 1.56788 1.03919 0
M  V30 4108 O 383.836 0.721811 1.66312 0
M  V30 4109 C 383.884 3.58774 -0.362447 0
M  V30 4110 O 382.988 4.07372 0.642033 0
M  V30 4111 H 382.329 0.64833 -0.143402 0
M  V30 4112 H 384.859 1.7677 -1.03023 0
M  V30 4113 H 384.869 4.07434 -0.214844 0
M  V30 4114 H 383.544 3.93096 -1.35824 0
M  V30 4115 H 382.121 3.70068 0.458688 0
M  V30 4116 N 384.306 0.507319 1.49211 0
M  V30 4117 C 385.717 0.0611118 1.866 0
M  V30 4118 C 386.068 -1.35488 1.41907 0
M  V30 4119 O 385.193 -2.0108 0.799726 0
M  V30 4120 C 385.788 0.104125 3.3864 0
M  V30 4121 C 384.347 -0.28677 3.75306 0
M  V30 4122 C 383.494 0.473893 2.73221 0
M  V30 4123 H 386.445 0.719775 1.41439 0
M  V30 4124 H 386.466 -0.689672 3.74198 0
M  V30 4125 H 385.978 1.13482 3.71138 0
M  V30 4126 H 384.079 -1.32046 3.48417 0
M  V30 4127 H 384.192 0.0370745 4.79086 0
M  V30 4128 H 382.556 -0.0770644 2.54583 0
M  V30 4129 H 383.339 1.50478 3.08563 0
M  V30 4130 N 385.784 -1.5574 0.241426 0
M  V30 4131 C 387.032 -1.98417 -0.384075 0
M  V30 4132 C 387.353 -1.13078 -1.58866 0
M  V30 4133 O 386.623 -0.212312 -1.94746 0
M  V30 4134 H 385.203 -0.732813 -0.144894 0
M  V30 4135 H 387.865 -1.9193 0.338943 0
M  V30 4136 H 386.961 -3.04219 -0.696939 0
M  V30 4137 N 387.262 0.0317525 -1.57568 0
M  V30 4138 C 388.487 0.738664 -1.938 0
M  V30 4139 C 388.912 1.68242 -0.841208 0
M  V30 4140 O 388.27 1.80157 0.203267 0
M  V30 4141 C 388.318 1.47417 -3.29091 0
M  V30 4142 O 387.422 2.5872 -3.2115 0
M  V30 4143 H 386.763 0.198856 -0.633524 0
M  V30 4144 H 389.293 -0.0119713 -2.04596 0
M  V30 4145 H 389.303 1.84468 -3.63917 0
M  V30 4146 H 387.978 0.781988 -4.08482 0
M  V30 4147 H 386.555 2.24231 -2.97951 0
M  V30 4148 N 388.74 1.54641 0.303973 0
M  V30 4149 C 389.968 1.77768 1.05858 0
M  V30 4150 C 390.383 0.535722 1.8104 0
M  V30 4151 O 389.74 -0.494337 1.75677 0
M  V30 4152 C 389.791 2.9834 2.04146 0
M  V30 4153 O 389.512 4.17736 1.32015 0
M  V30 4154 C 391.013 3.33832 2.91669 0
M  V30 4155 H 388.233 0.592961 0.314067 0
M  V30 4156 H 390.777 2.01583 0.344149 0
M  V30 4157 H 388.932 2.76742 2.71096 0
M  V30 4158 H 389.346 4.85693 1.97998 0
M  V30 4159 H 390.82 4.21448 3.56491 0
M  V30 4160 H 391.297 2.51857 3.59812 0
M  V30 4161 H 391.903 3.57579 2.30254 0
M  V30 4162 N 390.218 -0.567019 1.47046 0
M  V30 4163 C 391.443 -1.3551 1.57009 0
M  V30 4164 C 391.868 -1.86841 0.217259 0
M  V30 4165 O 391.226 -1.62435 -0.805268 0
M  V30 4166 C 391.274 -2.50777 2.5912 0
M  V30 4167 O 390.378 -3.52706 2.13711 0
M  V30 4168 H 389.719 -0.402919 0.52778 0
M  V30 4169 H 392.249 -0.686241 1.92748 0
M  V30 4170 H 392.259 -2.97481 2.79229 0
M  V30 4171 H 390.934 -2.12771 3.57353 0
M  V30 4172 H 389.511 -3.12374 2.03659 0
M  V30 4173 N 391.696 -1.35014 -0.812953 0
M  V30 4174 C 392.921 -1.31187 -1.60639 0
M  V30 4175 C 393.346 0.109382 -1.87782 0
M  V30 4176 O 392.704 1.07424 -1.46047 0
M  V30 4177 C 392.752 -2.11809 -2.91838 0
M  V30 4178 O 391.856 -1.49444 -3.8437 0
M  V30 4179 H 391.197 -0.450084 -0.488181 0
M  V30 4180 H 393.727 -1.77963 -1.00947 0
M  V30 4181 H 393.737 -2.23531 -3.41318 0
M  V30 4182 H 392.412 -3.15137 -2.71407 0
M  V30 4183 H 390.989 -1.46524 -3.42907 0
M  V30 4184 N 393.175 1.03435 -1.18907 0
M  V30 4185 C 394.421 1.77005 -0.989798 0
M  V30 4186 C 394.754 1.88205 0.478816 0
M  V30 4187 O 394.029 1.39481 1.35556 0
M  V30 4188 C 394.312 3.19925 -1.65287 0
M  V30 4189 C 394.165 3.1663 -3.19477 0
M  V30 4190 C 395.484 4.18189 -1.37134 0
M  V30 4191 H 392.603 0.642538 -0.360991 0
M  V30 4192 H 395.245 1.20784 -1.46667 0
M  V30 4193 H 393.395 3.67929 -1.24741 0
M  V30 4194 H 395.067 2.76567 -3.692 0
M  V30 4195 H 393.31 2.54491 -3.51307 0
M  V30 4196 H 393.981 4.1758 -3.61013 0
M  V30 4197 H 396.457 3.78761 -1.72276 0
M  V30 4198 H 395.333 5.16394 -1.86087 0
M  V30 4199 H 395.594 4.41112 -0.295424 0
M  V30 4200 N 394.653 0.992116 1.22453 0
M  V30 4201 C 395.881 0.685944 1.95198 0
M  V30 4202 C 396.296 -0.749233 1.73297 0
M  V30 4203 O 395.653 -1.50549 1.03156 0
M  V30 4204 C 395.704 0.981395 3.47924 0
M  V30 4205 O 395.425 2.36018 3.6909 0
M  V30 4206 C 396.926 0.692815 4.37853 0
M  V30 4207 H 394.146 0.253821 0.621141 0
M  V30 4208 H 396.69 1.32668 1.55626 0
M  V30 4209 H 394.845 0.386481 3.85467 0
M  V30 4210 H 395.259 2.45884 4.63294 0
M  V30 4211 H 396.733 0.949818 5.43767 0
M  V30 4212 H 397.21 -0.373181 4.37612 0
M  V30 4213 H 397.816 1.26874 4.05935 0
M  V30 4214 N 396.131 -1.37776 0.765217 0
M  V30 4215 C 397.356 -2.04651 0.336537 0
M  V30 4216 C 397.781 -1.57337 -1.03086 0
M  V30 4217 O 397.139 -0.730621 -1.65927 0
M  V30 4218 C 397.187 -3.58577 0.381468 0
M  V30 4219 O 396.291 -4.07706 -0.62042 0
M  V30 4220 H 395.632 -0.64756 0.146838 0
M  V30 4221 H 398.162 -1.76221 1.03959 0
M  V30 4222 H 398.172 -4.07314 0.236448 0
M  V30 4223 H 396.847 -3.9237 1.37907 0
M  V30 4224 H 395.424 -3.70306 -0.439056 0
M  V30 4225 N 397.609 -0.515225 -1.4894 0
M  V30 4226 C 398.858 0.0261361 -2.01683 0
M  V30 4227 C 399.171 1.36719 -1.39883 0
M  V30 4228 O 400.377 1.99606 -1.84037 0
M  V30 4229 C 398.833 0.0970111 -3.59769 0
M  V30 4230 C 398.441 -1.23825 -4.30548 0
M  V30 4231 C 400.185 0.587981 -4.20408 0
M  V30 4232 C 398.092 -1.12877 -5.80528 0
M  V30 4233 H 397.022 0.0135398 -0.753878 0
M  V30 4234 H 399.673 -0.656787 -1.71343 0
M  V30 4235 H 398.055 0.844694 -3.86886 0
M  V30 4236 H 399.229 -2.00034 -4.15118 0
M  V30 4237 H 397.544 -1.66379 -3.81716 0
M  V30 4238 H 400.141 0.68763 -5.3026 0
M  V30 4239 H 400.484 1.59026 -3.84729 0
M  V30 4240 H 401.017 -0.103582 -3.97665 0
M  V30 4241 H 397.756 -2.10575 -6.20756 0
M  V30 4242 H 397.276 -0.407799 -5.98412 0
M  V30 4243 H 398.955 -0.813332 -6.41868 0
M  V30 4244 N 399.087 1.5561 -0.249682 0
M  V30 4245 C 400.035 2.22894 0.664906 0
M  V30 4246 C 401.029 1.21743 1.17792 0
M  V30 4247 O 402.235 1.39748 1.13449 0
M  V30 4248 H 398.61 0.715022 0.232912 0
M  V30 4249 H 400.581 2.98307 0.0742998 0
M  V30 4250 C 399.33 2.94424 1.84959 0
M  V30 4251 H 398.653 3.72031 1.46399 0
M  V30 4252 H 400.093 3.44862 2.4667 0
M  V30 4253 C 398.552 1.98454 2.72245 0
M  V30 4254 O 399.082 1.51939 3.71857 0
M  V30 4255 N 397.288 1.65496 2.38871 0
M  V30 4256 H 396.835 2.03517 1.57919 0
M  V30 4257 H 396.793 1.0155 2.97548 0
M  V30 4258 N 400.565 -0.0233959 1.57583 0
M  V30 4259 C 401.79 -0.728376 1.94189 0
M  V30 4260 C 402.215 -1.67793 0.850119 0
M  V30 4261 O 401.573 -1.80262 -0.19371 0
M  V30 4262 C 401.621 -1.45669 3.29868 0
M  V30 4263 O 400.725 -2.57013 3.22518 0
M  V30 4264 H 400.066 -0.195493 0.63457 0
M  V30 4265 H 402.596 0.0228214 2.04587 0
M  V30 4266 H 402.606 -1.82535 3.6489 0
M  V30 4267 H 401.281 -0.760314 4.08891 0
M  V30 4268 H 399.858 -2.22648 2.99136 0
M  V30 4269 N 402.043 -1.548 -0.295768 0
M  V30 4270 C 403.459 -1.4613 -0.641722 0
M  V30 4271 C 403.659 -0.656771 -1.90496 0
M  V30 4272 O 402.715 -0.166547 -2.5195 0
M  V30 4273 C 404.028 -2.90141 -0.789852 0
M  V30 4274 C 405.576 -3.00216 -0.885396 0
M  V30 4275 C 406.051 -4.45434 -1.06548 0
M  V30 4276 N 407.542 -4.49166 -1.13156 0
M  V30 4277 C 408.277 -5.58717 -1.28929 0
M  V30 4278 N 407.773 -6.78182 -1.41567 0
M  V30 4279 N 409.566 -5.46415 -1.31859 0
M  V30 4280 H 401.717 -2.05574 0.534147 0
M  V30 4281 H 403.98 -0.931259 0.177372 0
M  V30 4282 H 403.686 -3.51635 0.0675598 0
M  V30 4283 H 403.56 -3.37859 -1.67724 0
M  V30 4284 H 405.947 -2.38833 -1.73329 0
M  V30 4285 H 406.028 -2.55787 0.0261185 0
M  V30 4286 H 405.672 -5.07413 -0.222335 0
M  V30 4287 H 405.602 -4.87499 -1.9913 0
M  V30 4288 H 408.093 -3.631 -1.04721 0
M  V30 4289 H 408.406 -7.57428 -1.53372 0
M  V30 4290 H 406.751 -6.81037 -1.38613 0
M  V30 4291 H 409.942 -4.5203 -1.21601 0
M  V30 4292 H 410.115 -6.31841 -1.43808 0
M  V30 4293 N 403.521 0.559213 -1.47345 0
M  V30 4294 C 404.767 1.31843 -1.54095 0
M  V30 4295 C 405.1 1.93149 -0.201726 0
M  V30 4296 O 404.375 1.77759 0.789428 0
M  V30 4297 C 404.658 2.43006 -2.65744 0
M  V30 4298 C 404.511 1.86581 -4.09277 0
M  V30 4299 C 405.83 3.44943 -2.73318 0
M  V30 4300 H 402.949 0.478012 -0.560957 0
M  V30 4301 H 405.591 0.625977 -1.79392 0
M  V30 4302 H 403.741 3.02072 -2.44305 0
M  V30 4303 H 405.413 1.31792 -4.42073 0
M  V30 4304 H 403.656 1.17268 -4.17649 0
M  V30 4305 H 404.327 2.66933 -4.83168 0
M  V30 4306 H 406.803 2.95793 -2.92653 0
M  V30 4307 H 405.679 4.20153 -3.53218 0
M  V30 4308 H 405.94 4.03665 -1.80296 0
M  V30 4309 N 404.999 1.35443 0.805782 0
M  V30 4310 C 406.41 1.25768 1.37983 0
M  V30 4311 C 406.761 -0.10958 1.95894 0
M  V30 4312 O 405.886 -1.01056 1.91355 0
M  V30 4313 C 406.481 2.27727 2.5085 0
M  V30 4314 C 405.04 2.2179 3.04115 0
M  V30 4315 C 404.187 2.13393 1.77084 0
M  V30 4316 H 407.138 1.4656 0.608752 0
M  V30 4317 H 407.159 1.90422 3.29424 0
M  V30 4318 H 406.671 3.27227 2.08671 0
M  V30 4319 H 404.772 1.25703 3.50756 0
M  V30 4320 H 404.885 3.13788 3.62042 0
M  V30 4321 H 403.249 1.59384 1.98668 0
M  V30 4322 H 404.032 3.14755 1.37056 0
M  V30 4323 N 406.477 -1.02803 1.19454 0
M  V30 4324 C 407.754 -1.73299 0.907013 0
M  V30 4325 C 408.134 -2.02772 -0.587086 0
M  V30 4326 O 407.482 -1.68304 -1.54551 0
M  V30 4327 C 407.692 -3.00912 1.76785 0
M  V30 4328 C 409.04 -3.74403 2.00268 0
M  V30 4329 O 410.064 -3.10841 1.73943 0
M  V30 4330 O 408.923 -4.88675 2.4466 0
M  V30 4331 H 406.017 -0.754727 0.338106 0
M  V30 4332 H 408.563 -1.08754 1.30271 0
M  V30 4333 H 407.335 -2.75366 2.7801 0
M  V30 4334 H 406.958 -3.73197 1.37149 0
M  V30 4335 N 407.956 -0.998596 -1.21925 0
M  V30 4336 C 409.202 -0.678667 -1.91107 0
M  V30 4337 C 409.535 0.78791 -1.77498 0
M  V30 4338 O 408.81 1.57043 -1.1475 0
M  V30 4339 C 409.093 -1.09245 -3.43129 0
M  V30 4340 C 408.946 -2.61801 -3.6576 0
M  V30 4341 C 410.265 -0.649984 -4.35274 0
M  V30 4342 H 407.384 -0.248025 -0.694012 0
M  V30 4343 H 410.026 -1.24314 -1.43688 0
M  V30 4344 H 408.176 -0.612171 -3.83647 0
M  V30 4345 H 409.848 -3.17543 -3.34611 0
M  V30 4346 H 408.091 -3.03609 -3.09845 0
M  V30 4347 H 408.762 -2.85804 -4.7225 0
M  V30 4348 H 411.238 -1.0626 -4.02303 0
M  V30 4349 H 410.114 -0.967743 -5.40302 0
M  V30 4350 H 410.375 0.449139 -4.39813 0
M  V30 4351 N 409.434 1.37368 -0.772513 0
M  V30 4352 C 410.845 1.8231 -0.402493 0
M  V30 4353 C 411.196 1.6436 1.07146 0
M  V30 4354 O 410.321 1.15514 1.82991 0
M  V30 4355 C 410.916 3.30979 -0.723776 0
M  V30 4356 C 409.475 3.74195 -0.406802 0
M  V30 4357 C 408.622 2.59885 -0.967218 0
M  V30 4358 H 411.573 1.25829 -0.967099 0
M  V30 4359 H 411.594 3.80499 -0.00870832 0
M  V30 4360 H 411.106 3.44011 -1.7966 0
M  V30 4361 H 409.207 3.66732 0.658673 0
M  V30 4362 H 409.32 4.7027 -0.915588 0
M  V30 4363 H 407.684 2.51674 -0.391416 0
M  V30 4364 H 408.467 2.7571 -2.04546 0
M  V30 4365 N 410.912 0.523116 1.48665 0
M  V30 4366 C 412.137 -0.0117284 2.07397 0
M  V30 4367 C 412.562 -1.28031 1.37803 0
M  V30 4368 O 411.92 -1.75836 0.441762 0
M  V30 4369 C 411.968 -0.225786 3.59892 0
M  V30 4370 O 411.072 -1.29592 3.91509 0
M  V30 4371 H 410.413 0.0360673 0.66302 0
M  V30 4372 H 412.943 0.729066 1.9117 0
M  V30 4373 H 412.953 -0.450552 4.05505 0
M  V30 4374 H 411.628 0.700944 4.09951 0
M  V30 4375 H 410.205 -1.05436 3.57684 0
M  V30 4376 N 412.39 -1.55475 0.257931 0
M  V30 4377 C 413.3 -2.2549 -0.647425 0
M  V30 4378 C 414.316 -1.2748 -1.18427 0
M  V30 4379 O 415.492 -1.6038 -1.2182 0
M  V30 4380 C 412.557 -2.94916 -1.82278 0
M  V30 4381 C 411.618 -4.08363 -1.32432 0
M  V30 4382 C 410.851 -4.74469 -2.44366 0
M  V30 4383 O 411.074 -4.39701 -3.63344 0
M  V30 4384 O 410.008 -5.62763 -2.13497 0
M  V30 4385 H 413.834 -3.03593 -0.0807707 0
M  V30 4386 H 411.419 -1.49377 0.0259962 0
M  V30 4387 H 413.301 -3.38606 -2.50846 0
M  V30 4388 H 411.976 -2.19744 -2.37685 0
M  V30 4389 H 410.883 -3.69166 -0.605605 0
M  V30 4390 H 412.216 -4.85385 -0.816211 0
M  V30 4391 N 413.868 0.0150385 -1.57593 0
M  V30 4392 C 415.093 0.718067 -1.94573 0
M  V30 4393 C 415.518 1.6734 -0.859005 0
M  V30 4394 O 414.876 1.80362 0.184147 0
M  V30 4395 C 414.924 1.43918 -3.30636 0
M  V30 4396 O 414.028 2.55299 -3.23876 0
M  V30 4397 H 413.369 0.192125 -0.635597 0
M  V30 4398 H 415.899 -0.0336708 -2.04572 0
M  V30 4399 H 415.909 1.80598 -3.65853 0
M  V30 4400 H 414.584 0.738619 -4.09289 0
M  V30 4401 H 413.161 2.21058 -3.00312 0
M  V30 4402 N 415.346 1.54954 0.287554 0
M  V30 4403 C 416.594 1.74528 1.01904 0
M  V30 4404 C 416.915 0.541349 1.87335 0
M  V30 4405 O 416.185 -0.444108 1.908 0
M  V30 4406 H 414.765 0.643576 0.379235 0
M  V30 4407 H 417.427 1.92333 0.315294 0
M  V30 4408 H 416.523 2.64015 1.6644 0
M  V30 4409 N 416.824 -0.551391 1.4764 0
M  V30 4410 C 418.049 -1.33837 1.58437 0
M  V30 4411 C 418.474 -1.866 0.237063 0
M  V30 4412 O 417.832 -1.6328 -0.787994 0
M  V30 4413 C 417.88 -2.48014 2.61766 0
M  V30 4414 O 416.984 -3.50419 2.1744 0
M  V30 4415 H 416.325 -0.397299 0.532024 0
M  V30 4416 H 418.855 -0.665759 1.93465 0
M  V30 4417 H 418.865 -2.94503 2.82369 0
M  V30 4418 H 417.54 -2.08969 3.5959 0
M  V30 4419 H 416.117 -3.10196 2.06961 0
M  V30 4420 N 418.302 -1.35869 -0.798587 0
M  V30 4421 C 419.713 -1.26498 -1.37314 0
M  V30 4422 C 420.064 0.0991899 -1.95949 0
M  V30 4423 O 419.189 1.0004 -1.91888 0
M  V30 4424 C 419.784 -2.29054 -2.49639 0
M  V30 4425 C 418.343 -2.234 -3.02935 0
M  V30 4426 C 417.49 -2.14329 -1.75949 0
M  V30 4427 H 420.441 -1.46881 -0.600971 0
M  V30 4428 H 420.462 -1.92166 -3.28409 0
M  V30 4429 H 419.974 -3.2833 -2.06933 0
M  V30 4430 H 418.075 -1.27562 -3.50084 0
M  V30 4431 H 418.188 -3.15703 -3.60372 0
M  V30 4432 H 416.552 -1.60435 -1.9782 0
M  V30 4433 H 417.335 -3.15477 -1.35384 0
M  V30 4434 N 419.78 1.02168 -1.19998 0
M  V30 4435 C 421.026 1.75945 -1.00852 0
M  V30 4436 C 421.359 1.88702 0.458828 0
M  V30 4437 O 420.634 1.40911 1.34069 0
M  V30 4438 C 420.917 3.18154 -1.68671 0
M  V30 4439 C 420.77 3.13224 -3.22817 0
M  V30 4440 C 422.089 4.16711 -1.41561 0
M  V30 4441 H 419.208 0.638673 -0.367785 0
M  V30 4442 H 421.85 1.19222 -1.4794 0
M  V30 4443 H 420 3.66586 -1.28636 0
M  V30 4444 H 421.672 2.72635 -3.72112 0
M  V30 4445 H 419.915 2.50751 -3.53986 0
M  V30 4446 H 420.586 4.13728 -3.65422 0
M  V30 4447 H 423.062 3.76913 -1.76284 0
M  V30 4448 H 421.938 5.14391 -1.91553 0
M  V30 4449 H 422.199 4.40774 -0.342193 0
M  V30 4450 N 421.258 1.00505 1.21394 0
M  V30 4451 C 422.488 0.705584 1.94178 0
M  V30 4452 C 422.896 -0.735846 1.74304 0
M  V30 4453 O 422.239 -1.50954 1.04683 0
M  V30 4454 C 422.301 0.94689 3.46806 0
M  V30 4455 C 421.965 2.37517 3.90429 0
M  V30 4456 C 422.962 3.35539 3.97127 0
M  V30 4457 C 420.647 2.71284 4.22742 0
M  V30 4458 C 422.641 4.65395 4.3553 0
M  V30 4459 C 420.328 4.01356 4.60822 0
M  V30 4460 C 421.326 4.98223 4.67186 0
M  V30 4461 O 421.014 6.25969 5.04399 0
M  V30 4462 H 420.746 0.259216 0.624326 0
M  V30 4463 H 423.3 1.34592 1.55159 0
M  V30 4464 H 421.53 0.249386 3.85895 0
M  V30 4465 H 423.219 0.640804 4.0081 0
M  V30 4466 H 423.985 3.10786 3.7234 0
M  V30 4467 H 419.864 1.96581 4.16985 0
M  V30 4468 H 423.408 5.41002 4.40412 0
M  V30 4469 H 419.305 4.25893 4.85063 0
M  V30 4470 H 420.073 6.30085 5.22431 0
M  V30 4471 N 422.737 -1.36956 0.779787 0
M  V30 4472 C 423.983 -1.99787 0.348281 0
M  V30 4473 C 424.316 -1.61756 -1.07465 0
M  V30 4474 O 423.591 -0.867639 -1.74075 0
M  V30 4475 C 423.874 -3.56597 0.50104 0
M  V30 4476 C 423.727 -4.04513 1.96697 0
M  V30 4477 C 425.046 -4.40008 -0.0898097 0
M  V30 4478 H 422.165 -0.725796 0.128022 0
M  V30 4479 H 424.807 -1.62514 0.984331 0
M  V30 4480 H 422.957 -3.88479 -0.0404347 0
M  V30 4481 H 424.629 -3.83161 2.56876 0
M  V30 4482 H 422.872 -3.56408 2.47297 0
M  V30 4483 H 423.543 -5.1352 2.02486 0
M  V30 4484 H 426.019 -4.14431 0.372293 0
M  V30 4485 H 424.895 -5.4888 0.0471605 0
M  V30 4486 H 425.156 -4.26035 -1.18096 0
M  V30 4487 N 424.215 -0.530993 -1.48385 0
M  V30 4488 C 425.163 0.244595 -2.3131 0
M  V30 4489 C 426.157 0.93451 -1.41291 0
M  V30 4490 O 427.363 0.85878 -1.58193 0
M  V30 4491 H 423.738 0.0977472 -0.74562 0
M  V30 4492 H 425.709 -0.474369 -2.94605 0
M  V30 4493 C 424.458 1.2779 -3.23365 0
M  V30 4494 H 423.781 0.756439 -3.92579 0
M  V30 4495 H 425.221 1.79198 -3.84271 0
M  V30 4496 C 423.68 2.31205 -2.45042 0
M  V30 4497 O 424.21 3.37661 -2.17596 0
M  V30 4498 N 422.416 2.04446 -2.0652 0
M  V30 4499 H 421.963 1.17891 -2.2904 0
M  V30 4500 H 421.921 2.73861 -1.54427 0
M  V30 4501 N 425.693 1.55336 -0.266172 0
M  V30 4502 C 426.625 2.19544 0.658247 0
M  V30 4503 C 427.638 1.17746 1.12427 0
M  V30 4504 O 428.827 1.44517 1.04772 0
M  V30 4505 C 425.927 2.80032 1.9088 0
M  V30 4506 C 425.1 4.07436 1.59106 0
M  V30 4507 C 424.159 4.52056 2.69317 0
M  V30 4508 O 423.185 5.18023 2.35883 0
M  V30 4509 N 424.387 4.21448 3.99201 0
M  V30 4510 H 427.152 2.99503 0.108754 0
M  V30 4511 H 424.713 1.61667 -0.0869059 0
M  V30 4512 H 426.705 3.06831 2.63888 0
M  V30 4513 H 425.275 2.04119 2.36758 0
M  V30 4514 H 424.495 3.88021 0.695243 0
M  V30 4515 H 425.783 4.90462 1.35367 0
M  V30 4516 H 425.181 3.68528 4.29189 0
M  V30 4517 H 423.738 4.53039 4.68614 0
M  V30 4518 N 427.171 -0.0066808 1.57599 0
M  V30 4519 C 428.417 -0.693947 1.90558 0
M  V30 4520 C 428.75 -1.73792 0.866594 0
M  V30 4521 O 428.025 -1.94156 -0.115548 0
M  V30 4522 C 428.308 -1.34317 3.34112 0
M  V30 4523 C 428.161 -0.311189 4.48722 0
M  V30 4524 C 429.48 -2.27116 3.7697 0
M  V30 4525 H 426.599 -0.250803 0.693013 0
M  V30 4526 H 429.241 0.043242 1.89951 0
M  V30 4527 H 427.391 -1.9715 3.3476 0
M  V30 4528 H 429.063 0.316944 4.6021 0
M  V30 4529 H 427.306 0.367253 4.32243 0
M  V30 4530 H 427.977 -0.804366 5.46108 0
M  V30 4531 H 430.453 -1.74306 3.77831 0
M  V30 4532 H 429.329 -2.69511 4.78179 0
M  V30 4533 H 429.59 -3.14743 3.10466 0
M  V30 4534 N 428.649 -1.55105 -0.279332 0
M  V30 4535 C 429.596 -1.8755 -1.34513 0
M  V30 4536 C 430.566 -0.726384 -1.49375 0
M  V30 4537 O 431.751 -0.977063 -1.63884 0
M  V30 4538 C 428.891 -2.14738 -2.70151 0
M  V30 4539 C 428.004 -3.42285 -2.63562 0
M  V30 4540 C 427.139 -3.59206 -3.91337 0
M  V30 4541 C 426.178 -4.80467 -3.79233 0
M  V30 4542 N 425.315 -4.94079 -4.98829 0
M  V30 4543 H 430.155 -2.78456 -1.06143 0
M  V30 4544 H 427.692 -1.37867 -0.512936 0
M  V30 4545 H 429.65 -2.28501 -3.49061 0
M  V30 4546 H 428.28 -1.27075 -2.96735 0
M  V30 4547 H 427.332 -3.37029 -1.76397 0
M  V30 4548 H 428.644 -4.31328 -2.50515 0
M  V30 4549 H 427.798 -3.72751 -4.78687 0
M  V30 4550 H 426.537 -2.68337 -4.07243 0
M  V30 4551 H 425.542 -4.66932 -2.90266 0
M  V30 4552 H 426.767 -5.72765 -3.64852 0
M  V30 4553 H 424.713 -4.06139 -5.15158 0
M  V30 4554 H 424.63 -5.77156 -4.8829 0
M  V30 4555 H 425.898 -5.12003 -5.8777 0
M  V30 4556 N 430.127 0.543554 -1.4793 0
M  V30 4557 C 431.373 1.30201 -1.55485 0
M  V30 4558 C 431.706 1.92925 -0.222201 0
M  V30 4559 O 430.981 1.78586 0.77053 0
M  V30 4560 C 431.264 2.40174 -2.68307 0
M  V30 4561 C 431.117 1.8223 -4.11233 0
M  V30 4562 C 432.436 3.42024 -2.76961 0
M  V30 4563 H 429.555 0.472036 -0.565996 0
M  V30 4564 H 432.197 0.606914 -1.80046 0
M  V30 4565 H 430.347 2.99463 -2.47495 0
M  V30 4566 H 432.019 1.27096 -4.43446 0
M  V30 4567 H 430.262 1.12832 -4.18869 0
M  V30 4568 H 430.933 2.61793 -4.85972 0
M  V30 4569 H 433.409 2.92672 -2.95774 0
M  V30 4570 H 432.285 4.16383 -3.57654 0
M  V30 4571 H 432.546 4.0173 -1.84568 0
M  V30 4572 N 431.605 1.3629 0.791371 0
M  V30 4573 C 433.021 1.16661 1.08914 0
M  V30 4574 C 433.221 -0.0106266 2.01497 0
M  V30 4575 O 432.277 -0.676596 2.43266 0
M  V30 4576 C 433.59 2.47656 1.70549 0
M  V30 4577 C 435.138 2.54002 1.82899 0
M  V30 4578 C 435.613 3.85078 2.47949 0
M  V30 4579 N 437.104 3.86413 2.5542 0
M  V30 4580 C 437.839 4.84572 3.06557 0
M  V30 4581 N 437.335 5.93124 3.58016 0
M  V30 4582 N 439.128 4.71994 3.05251 0
M  V30 4583 H 431.279 2.11668 0.176238 0
M  V30 4584 H 433.542 0.937486 0.140796 0
M  V30 4585 H 433.248 3.34059 1.09989 0
M  V30 4586 H 433.122 2.63319 2.70079 0
M  V30 4587 H 435.509 1.68018 2.42598 0
M  V30 4588 H 435.59 2.42239 0.821808 0
M  V30 4589 H 435.234 4.71467 1.88895 0
M  V30 4590 H 435.164 3.94135 3.49235 0
M  V30 4591 H 437.655 3.07988 2.18979 0
M  V30 4592 H 437.968 6.63999 3.95381 0
M  V30 4593 H 436.313 5.96796 3.56173 0
M  V30 4594 H 439.504 3.86321 2.64336 0
M  V30 4595 H 439.677 5.48653 3.44796 0
M  V30 4596 N 433.083 -1.0153 1.20538 0
M  V30 4597 C 434.329 -1.75408 1.01783 0
M  V30 4598 C 434.662 -1.88943 -0.448814 0
M  V30 4599 O 433.937 -1.4162 -1.33319 0
M  V30 4600 C 434.22 -3.17255 1.70356 0
M  V30 4601 C 434.073 -3.11508 3.24473 0
M  V30 4602 C 435.392 -4.15955 1.43769 0
M  V30 4603 H 432.511 -0.636713 0.371167 0
M  V30 4604 H 435.153 -1.18436 1.4857 0
M  V30 4605 H 433.303 -3.65898 1.30578 0
M  V30 4606 H 434.975 -2.70658 3.73553 0
M  V30 4607 H 433.218 -2.4887 3.55311 0
M  V30 4608 H 433.889 -4.11784 3.67611 0
M  V30 4609 H 436.365 -3.75973 1.7828 0
M  V30 4610 H 435.241 -5.13368 1.94279 0
M  V30 4611 H 435.502 -4.40586 0.365564 0
M  V30 4612 N 434.561 -1.01147 -1.20859 0
M  V30 4613 C 435.786 -0.716698 -1.94623 0
M  V30 4614 C 436.211 0.715415 -1.73964 0
M  V30 4615 O 435.569 1.49157 -1.03062 0
M  V30 4616 C 435.617 -1.0513 -3.44935 0
M  V30 4617 O 434.721 -0.160131 -4.12089 0
M  V30 4618 H 434.062 -0.266404 -0.608214 0
M  V30 4619 H 436.592 -1.35346 -1.53436 0
M  V30 4620 H 436.602 -1.00086 -3.95533 0
M  V30 4621 H 435.277 -2.09475 -3.59295 0
M  V30 4622 H 433.854 -0.267657 -3.71938 0
M  V30 4623 N 436.039 1.36541 -0.78704 0
M  V30 4624 C 437.316 1.9355 -0.282424 0
M  V30 4625 C 437.696 1.71919 1.22503 0
M  V30 4626 O 437.044 1.07677 2.01539 0
M  V30 4627 C 437.254 3.4246 -0.672462 0
M  V30 4628 C 438.602 4.19582 -0.650863 0
M  V30 4629 O 439.626 3.50889 -0.612789 0
M  V30 4630 O 438.485 5.42106 -0.691623 0
M  V30 4631 H 435.579 0.824091 -0.0693 0
M  V30 4632 H 438.125 1.45736 -0.869423 0
M  V30 4633 H 436.897 3.51851 -1.71221 0
M  V30 4634 H 436.52 3.97556 -0.0592211 0
M  V30 4635 N 437.518 0.538854 1.48102 0
M  V30 4636 C 438.481 -0.208395 2.28251 0
M  V30 4637 C 439.481 -0.859656 1.35892 0
M  V30 4638 O 440.671 -0.71834 1.58699 0
M  V30 4639 C 437.803 -1.30252 3.15035 0
M  V30 4640 H 438.996 0.495407 2.9578 0
M  V30 4641 H 436.549 0.295112 1.53489 0
M  V30 4642 H 437.284 -2.0393 2.52157 0
M  V30 4643 H 437.069 -0.840551 3.82985 0
M  V30 4644 H 438.559 -1.82787 3.75471 0
M  V30 4645 N 438.996 -1.55193 0.274407 0
M  V30 4646 C 439.926 -2.25471 -0.607032 0
M  V30 4647 C 440.907 -1.24461 -1.15946 0
M  V30 4648 O 442.092 -1.53179 -1.19373 0
M  V30 4649 C 439.222 -2.97526 -1.79153 0
M  V30 4650 C 438.176 -4.05459 -1.37067 0
M  V30 4651 C 437.502 -4.65084 -2.6382 0
M  V30 4652 C 438.802 -5.19691 -0.521389 0
M  V30 4653 H 440.496 -2.99393 -0.0209343 0
M  V30 4654 H 438.042 -1.43997 -0.00862866 0
M  V30 4655 H 439.995 -3.45402 -2.41404 0
M  V30 4656 H 438.719 -2.21138 -2.40344 0
M  V30 4657 H 437.378 -3.58393 -0.771355 0
M  V30 4658 H 437.026 -3.85365 -3.23268 0
M  V30 4659 H 436.726 -5.37961 -2.36372 0
M  V30 4660 H 438.25 -5.15708 -3.26921 0
M  V30 4661 H 439.664 -5.63623 -1.04889 0
M  V30 4662 H 438.061 -5.99126 -0.341825 0
M  V30 4663 H 439.131 -4.82713 0.46 0
M  V30 4664 N 440.474 -0.00167713 -1.576 0
M  V30 4665 C 441.404 0.988091 -2.11563 0
M  V30 4666 C 442.385 1.35736 -1.02517 0
M  V30 4667 O 443.57 1.44082 -1.30208 0
M  V30 4668 C 440.7 2.27941 -2.62031 0
M  V30 4669 C 439.654 2.0517 -3.75619 0
M  V30 4670 C 438.98 3.4033 -4.12407 0
M  V30 4671 C 440.28 1.41294 -5.02825 0
M  V30 4672 H 441.974 0.538771 -2.94513 0
M  V30 4673 H 439.52 0.257712 -1.41675 0
M  V30 4674 H 441.473 2.97539 -2.9841 0
M  V30 4675 H 440.197 2.74989 -1.76205 0
M  V30 4676 H 438.856 1.37998 -3.39635 0
M  V30 4677 H 438.504 3.85085 -3.23603 0
M  V30 4678 H 438.204 3.25909 -4.88935 0
M  V30 4679 H 439.728 4.1124 -4.51347 0
M  V30 4680 H 441.142 2.00851 -5.36965 0
M  V30 4681 H 439.539 1.37356 -5.84169 0
M  V30 4682 H 440.609 0.382362 -4.8339 0
M  V30 4683 N 441.952 1.55251 0.271103 0
M  V30 4684 C 442.862 1.9136 1.35714 0
M  V30 4685 C 443.878 0.811075 1.5394 0
M  V30 4686 O 445.054 1.11031 1.6803 0
M  V30 4687 C 442.119 2.1798 2.69603 0
M  V30 4688 C 441.18 3.4153 2.60107 0
M  V30 4689 C 440.413 3.66871 3.8761 0
M  V30 4690 O 440.636 2.94689 4.8838 0
M  V30 4691 O 439.57 4.60405 3.87699 0
M  V30 4692 H 443.396 2.83815 1.08088 0
M  V30 4693 H 440.981 1.41821 0.469792 0
M  V30 4694 H 442.863 2.36518 3.48765 0
M  V30 4695 H 441.538 1.28708 2.97012 0
M  V30 4696 H 440.445 3.28325 1.79314 0
M  V30 4697 H 441.778 4.31027 2.37647 0
M  V30 4698 N 443.43 -0.535701 1.48216 0
M  V30 4699 C 444.377 -1.64083 1.62312 0
M  V30 4700 C 445.347 -1.59448 0.465365 0
M  V30 4701 O 446.532 -1.77959 0.688135 0
M  V30 4702 C 443.672 -3.0236 1.66349 0
M  V30 4703 C 442.785 -3.17273 2.93193 0
M  V30 4704 C 441.92 -4.46075 2.88427 0
M  V30 4705 C 440.959 -4.54496 4.1 0
M  V30 4706 N 440.096 -5.7468 4.03345 0
M  V30 4707 H 444.936 -1.51374 2.5669 0
M  V30 4708 H 442.473 -0.737059 1.27302 0
M  V30 4709 H 444.431 -3.82461 1.66672 0
M  V30 4710 H 443.061 -3.13854 0.754672 0
M  V30 4711 H 442.113 -2.30462 3.02641 0
M  V30 4712 H 443.425 -3.19357 3.83162 0
M  V30 4713 H 442.579 -5.3446 2.87119 0
M  V30 4714 H 441.318 -4.46504 1.96177 0
M  V30 4715 H 440.323 -3.64519 4.11589 0
M  V30 4716 H 441.548 -4.5581 5.03402 0
M  V30 4717 H 439.494 -5.76017 3.13912 0
M  V30 4718 H 439.411 -5.78234 4.87013 0
M  V30 4719 H 440.679 -6.65367 4.06087 0
M  V30 4720 N 444.908 -1.36708 -0.784132 0
M  V30 4721 C 445.855 -1.31466 -1.89698 0
M  V30 4722 C 446.825 -0.18239 -1.65096 0
M  V30 4723 O 448.01 -0.369762 -1.87183 0
M  V30 4724 C 445.15 -1.1151 -3.26588 0
M  V30 4725 C 444.263 -2.33859 -3.63227 0
M  V30 4726 C 443.398 -2.06873 -4.89262 0
M  V30 4727 C 442.437 -3.25154 -5.18595 0
M  V30 4728 N 441.574 -2.978 -6.35814 0
M  V30 4729 H 446.414 -2.26619 -1.93515 0
M  V30 4730 H 443.951 -1.12625 -0.946256 0
M  V30 4731 H 445.909 -0.979653 -4.05535 0
M  V30 4732 H 444.539 -0.200103 -3.22179 0
M  V30 4733 H 443.591 -2.58188 -2.79362 0
M  V30 4734 H 444.903 -3.22109 -3.8085 0
M  V30 4735 H 444.057 -1.90289 -5.76086 0
M  V30 4736 H 442.796 -1.15942 -4.73718 0
M  V30 4737 H 441.801 -3.42292 -4.30251 0
M  V30 4738 H 443.026 -4.1692 -5.36055 0
M  V30 4739 H 440.972 -2.09485 -6.21653 0
M  V30 4740 H 440.889 -3.7959 -6.53794 0
M  V30 4741 H 442.157 -2.84805 -7.25607 0
M  V30 4742 N 446.386 1.0089 -1.21074 0
M  V30 4743 C 447.333 2.09588 -0.966512 0
M  V30 4744 C 448.303 1.65761 0.106089 0
M  V30 4745 O 449.488 1.90758 -0.0402287 0
M  V30 4746 C 446.628 3.40958 -0.533058 0
M  V30 4747 C 445.741 3.9822 -1.67467 0
M  V30 4748 C 444.876 5.17682 -1.19076 0
M  V30 4749 C 443.915 5.67043 -2.30496 0
M  V30 4750 N 443.052 6.77759 -1.83267 0
M  V30 4751 H 447.892 2.29815 -1.89708 0
M  V30 4752 H 445.429 1.12689 -0.945489 0
M  V30 4753 H 447.387 4.1637 -0.263019 0
M  V30 4754 H 446.017 3.20781 0.360505 0
M  V30 4755 H 445.069 3.1983 -2.05944 0
M  V30 4756 H 446.381 4.3085 -2.51336 0
M  V30 4757 H 445.535 6.00326 -0.877151 0
M  V30 4758 H 444.274 4.86635 -0.322066 0
M  V30 4759 H 443.279 4.82999 -2.62664 0
M  V30 4760 H 444.504 6.00121 -3.17855 0
M  V30 4761 H 442.45 6.48527 -0.987356 0
M  V30 4762 H 442.367 7.09624 -2.60711 0
M  V30 4763 H 443.635 7.63949 -1.54928 0
M  V30 4764 N 447.864 1.01787 1.20321 0
M  V30 4765 C 448.794 0.609625 2.25401 0
M  V30 4766 C 449.775 -0.375951 1.65893 0
M  V30 4767 O 450.96 -0.261101 1.92437 0
M  V30 4768 C 448.09 -0.0515995 3.47262 0
M  V30 4769 C 447.044 0.855095 4.19371 0
M  V30 4770 C 446.37 0.0595757 5.34667 0
M  V30 4771 C 447.67 2.16374 4.75373 0
M  V30 4772 H 449.364 1.48803 2.59804 0
M  V30 4773 H 446.91 0.716934 1.24884 0
M  V30 4774 H 448.863 -0.348764 4.19954 0
M  V30 4775 H 447.587 -0.964726 3.12027 0
M  V30 4776 H 446.246 1.13628 3.48546 0
M  V30 4777 H 445.894 -0.85524 4.95676 0
M  V30 4778 H 445.594 0.663406 5.83843 0
M  V30 4779 H 447.118 -0.231105 6.10162 0
M  V30 4780 H 448.532 1.92885 5.39878 0
M  V30 4781 H 446.929 2.71853 5.34991 0
M  V30 4782 H 447.999 2.82589 3.94045 0
M  V30 4783 N 449.342 -1.36122 0.79427 0
M  V30 4784 C 450.275 -2.27759 0.141845 0
M  V30 4785 C 451.253 -1.47471 -0.684921 0
M  V30 4786 O 452.437 -1.76759 -0.654857 0
M  V30 4787 C 449.564 -3.29008 -0.804446 0
M  V30 4788 C 448.61 -4.26459 -0.0588617 0
M  V30 4789 S 449.443 -5.20253 1.26873 0
M  V30 4790 C 450.599 -6.25048 0.326562 0
M  V30 4791 H 450.832 -2.82746 0.918818 0
M  V30 4792 H 448.365 -1.42736 0.588722 0
M  V30 4793 H 450.323 -3.87842 -1.34495 0
M  V30 4794 H 448.984 -2.72924 -1.5547 0
M  V30 4795 H 448.177 -4.97973 -0.777087 0
M  V30 4796 H 447.779 -3.71731 0.411309 0
M  V30 4797 H 450.071 -6.75705 -0.492795 0
M  V30 4798 H 451.014 -7.00852 1.01053 0
M  V30 4799 H 451.422 -5.64454 -0.0722627 0
M  V30 4800 N 450.82 -0.546701 -1.47814 0
M  V30 4801 C 451.783 0.196287 -2.28358 0
M  V30 4802 C 452.783 0.852437 -1.36346 0
M  V30 4803 O 453.973 0.709913 -1.59078 0
M  V30 4804 C 451.105 1.28579 -3.15722 0
M  V30 4805 H 452.298 -0.511086 -2.95513 0
M  V30 4806 H 449.851 -0.303248 -1.5333 0
M  V30 4807 H 450.586 2.0259 -2.53235 0
M  V30 4808 H 450.371 0.820229 -3.83425 0
M  V30 4809 H 451.861 1.80793 -3.76435 0
M  V30 4810 N 452.299 1.55045 -0.282633 0
M  V30 4811 C 453.262 2.21515 0.588539 0
M  V30 4812 C 454.262 1.19535 1.07554 0
M  V30 4813 O 455.452 1.44391 0.974514 0
M  V30 4814 C 452.584 2.88704 1.8128 0
M  V30 4815 H 453.777 2.99899 0.00806397 0
M  V30 4816 H 451.33 1.56265 -0.0333067 0
M  V30 4817 H 452.065 2.14352 2.43359 0
M  V30 4818 H 451.85 3.63443 1.47144 0
M  V30 4819 H 453.34 3.39465 2.43214 0
M  V30 4820 N 453.777 0.010035 1.57597 0
M  V30 4821 C 455.193 -0.346164 1.55801 0
M  V30 4822 C 455.393 -1.74144 1.01371 0
M  V30 4823 O 454.449 -2.43938 0.651968 0
M  V30 4824 C 455.762 -0.212216 2.9995 0
M  V30 4825 C 457.31 -0.286409 3.11687 0
M  V30 4826 C 457.785 -0.18147 4.5764 0
M  V30 4827 N 459.276 -0.239056 4.62583 0
M  V30 4828 C 460.011 -0.181351 5.73113 0
M  V30 4829 N 459.507 -0.073661 6.92761 0
M  V30 4830 N 461.3 -0.233949 5.61613 0
M  V30 4831 H 453.451 0.922657 1.91313 0
M  V30 4832 H 455.714 0.354595 0.879185 0
M  V30 4833 H 455.42 0.748169 3.4365 0
M  V30 4834 H 455.294 -0.990224 3.6397 0
M  V30 4835 H 457.681 -1.23724 2.67911 0
M  V30 4836 H 457.762 0.521645 2.50425 0
M  V30 4837 H 457.406 0.765863 5.02093 0
M  V30 4838 H 457.336 -1.00814 5.1686 0
M  V30 4839 H 459.827 -0.32321 3.76515 0
M  V30 4840 H 460.14 -0.0358003 7.72792 0
M  V30 4841 H 458.485 -0.0391461 6.94989 0
M  V30 4842 H 461.676 -0.316347 4.6703 0
M  V30 4843 H 461.849 -0.185514 6.47734 0
M  V30 4844 N 455.255 -1.55392 -0.262866 0
M  V30 4845 C 456.165 -1.92077 -1.34698 0
M  V30 4846 C 457.181 -0.819227 -1.53508 0
M  V30 4847 O 458.357 -1.11921 -1.67439 0
M  V30 4848 C 455.422 -2.19407 -2.68443 0
M  V30 4849 C 454.483 -3.42905 -2.58292 0
M  V30 4850 C 453.716 -3.68921 -3.85659 0
M  V30 4851 O 453.939 -2.97275 -4.8681 0
M  V30 4852 O 452.873 -4.62455 -3.85252 0
M  V30 4853 H 456.699 -2.84384 -1.06581 0
M  V30 4854 H 454.284 -1.42069 -0.462264 0
M  V30 4855 H 456.166 -2.38365 -3.47506 0
M  V30 4856 H 454.841 -1.30282 -2.96325 0
M  V30 4857 H 453.748 -3.29272 -1.7757 0
M  V30 4858 H 455.081 -4.32282 -2.35358 0
M  V30 4859 N 456.733 0.527833 -1.48498 0
M  V30 4860 C 458.149 0.856571 -1.34666 0
M  V30 4861 C 458.349 1.98271 -0.35931 0
M  V30 4862 O 457.405 2.51551 0.218703 0
M  V30 4863 C 458.718 1.22207 -2.74747 0
M  V30 4864 C 460.266 1.33183 -2.83251 0
M  V30 4865 C 460.741 1.73075 -4.24039 0
M  V30 4866 N 462.232 1.80174 -4.26722 0
M  V30 4867 C 462.967 2.1243 -5.32598 0
M  V30 4868 N 462.463 2.43096 -6.4875 0
M  V30 4869 N 464.256 2.13454 -5.19994 0
M  V30 4870 H 456.407 -0.215174 -2.11307 0
M  V30 4871 H 458.67 -0.0336281 -0.947403 0
M  V30 4872 H 458.376 0.468195 -3.4857 0
M  V30 4873 H 458.25 2.17173 -3.08409 0
M  V30 4874 H 460.637 2.07647 -2.09683 0
M  V30 4875 H 460.718 0.363333 -2.53206 0
M  V30 4876 H 460.362 0.991712 -4.98124 0
M  V30 4877 H 460.292 2.70979 -4.51529 0
M  V30 4878 H 462.783 1.58744 -3.42942 0
M  V30 4879 H 463.096 2.6682 -7.25277 0
M  V30 4880 H 461.441 2.40611 -6.52021 0
M  V30 4881 H 464.632 1.88956 -4.28268 0
M  V30 4882 H 464.805 2.38261 -6.02608 0
M  V30 4883 N 458.211 1.37122 0.776871 0
M  V30 4884 C 459.158 1.3247 1.88998 0
M  V30 4885 C 460.128 0.191143 1.64997 0
M  V30 4886 O 461.313 0.379683 1.86984 0
M  V30 4887 C 458.453 1.13241 3.25992 0
M  V30 4888 C 457.566 2.35782 3.61982 0
M  V30 4889 C 456.701 2.09465 4.88158 0
M  V30 4890 C 455.74 3.279 5.16864 0
M  V30 4891 N 454.877 3.01167 6.34226 0
M  V30 4892 H 459.717 2.27642 1.9231 0
M  V30 4893 H 457.254 1.13125 0.94027 0
M  V30 4894 H 459.212 1.00115 4.0501 0
M  V30 4895 H 457.842 0.217186 3.22069 0
M  V30 4896 H 456.894 2.59666 2.77989 0
M  V30 4897 H 458.206 3.24125 3.79137 0
M  V30 4898 H 457.36 1.93341 5.75069 0
M  V30 4899 H 456.099 1.18452 4.73097 0
M  V30 4900 H 455.104 3.44569 4.2843 0
M  V30 4901 H 456.329 4.19757 5.33836 0
M  V30 4902 H 454.275 2.12779 6.20533 0
M  V30 4903 H 454.192 3.83052 6.51772 0
M  V30 4904 H 455.46 2.88649 7.24087 0
M  V30 4905 N 459.689 -1.00246 1.21608 0
M  V30 4906 C 460.652 -2.07233 0.979133 0
M  V30 4907 C 461.652 -1.6072 -0.0508219 0
M  V30 4908 O 462.842 -1.73196 0.186712 0
M  V30 4909 C 459.974 -3.37546 0.477016 0
M  V30 4910 H 461.167 -2.29687 1.92831 0
M  V30 4911 H 458.72 -1.17261 1.03342 0
M  V30 4912 H 459.455 -3.20773 -0.476966 0
M  V30 4913 H 459.24 -3.72638 1.21997 0
M  V30 4914 H 460.73 -4.16285 0.331181 0
M  V30 4915 N 461.167 -1.02423 -1.1978 0
M  V30 4916 C 462.395 -0.737456 -1.93311 0
M  V30 4917 C 462.81 0.703023 -1.75223 0
M  V30 4918 O 462.167 1.47761 -1.07112 0
M  V30 4919 C 462.218 -1.0733 -3.45199 0
M  V30 4920 O 461.939 -2.4572 -3.62702 0
M  V30 4921 C 463.44 -0.80866 -4.35862 0
M  V30 4922 H 460.66 -0.2702 -0.614193 0
M  V30 4923 H 463.204 -1.36747 -1.52054 0
M  V30 4924 H 461.359 -0.488545 -3.84307 0
M  V30 4925 H 461.773 -2.58081 -4.56612 0
M  V30 4926 H 463.247 -1.09365 -5.41057 0
M  V30 4927 H 463.724 0.257025 -4.38447 0
M  V30 4928 H 464.33 -1.37592 -4.02428 0
M  V30 4929 N 462.645 1.35699 -0.801477 0
M  V30 4930 C 463.592 2.29876 -0.206294 0
M  V30 4931 C 464.562 1.52565 0.656752 0
M  V30 4932 O 465.747 1.81024 0.602906 0
M  V30 4933 C 462.887 3.39052 0.643272 0
M  V30 4934 C 462 4.31335 -0.239644 0
M  V30 4935 C 461.135 5.27599 0.61744 0
M  V30 4936 C 460.174 6.11521 -0.26619 0
M  V30 4937 N 459.311 6.99938 0.550571 0
M  V30 4938 H 464.151 2.80187 -1.01484 0
M  V30 4939 H 461.688 1.37902 -0.511997 0
M  V30 4940 H 463.646 4.0101 1.15094 0
M  V30 4941 H 462.276 2.9003 1.41713 0
M  V30 4942 H 461.328 3.70426 -0.865381 0
M  V30 4943 H 462.64 4.90243 -0.919985 0
M  V30 4944 H 461.794 5.94906 1.19045 0
M  V30 4945 H 460.533 4.69176 1.33137 0
M  V30 4946 H 459.538 5.43166 -0.851507 0
M  V30 4947 H 460.763 6.72022 -0.9779 0
M  V30 4948 H 458.709 6.44008 1.24856 0
M  V30 4949 H 458.626 7.55966 -0.071832 0
M  V30 4950 H 459.894 7.71599 1.10702 0
M  V30 4951 N 464.123 0.554532 1.47522 0
M  V30 4952 C 465.351 0.034257 2.06872 0
M  V30 4953 C 465.766 -1.25826 1.40759 0
M  V30 4954 O 465.123 -1.75425 0.503217 0
M  V30 4955 C 465.174 -0.167827 3.6111 0
M  V30 4956 O 464.895 1.07351 4.24744 0
M  V30 4957 C 466.396 -0.72569 4.3732 0
M  V30 4958 H 463.616 0.0446275 0.669514 0
M  V30 4959 H 466.16 0.767181 1.89564 0
M  V30 4960 H 464.315 -0.850872 3.7794 0
M  V30 4961 H 464.729 0.869563 5.17242 0
M  V30 4962 H 466.203 -0.816394 5.45929 0
M  V30 4963 H 466.68 -1.73635 4.0342 0
M  V30 4964 H 467.286 -0.0784292 4.25228 0
M  V30 4965 N 465.601 -1.54893 0.290851 0
M  V30 4966 C 466.531 -2.26103 -0.583084 0
M  V30 4967 C 467.512 -1.25684 -1.14619 0
M  V30 4968 O 468.697 -1.54436 -1.17741 0
M  V30 4969 C 465.827 -2.99409 -1.75987 0
M  V30 4970 C 464.781 -4.0689 -1.32758 0
M  V30 4971 C 464.107 -4.67856 -2.58872 0
M  V30 4972 C 465.407 -5.20215 -0.46624 0
M  V30 4973 H 467.101 -2.99398 0.0108214 0
M  V30 4974 H 464.647 -1.43998 0.00664468 0
M  V30 4975 H 466.6 -3.47943 -2.37727 0
M  V30 4976 H 465.324 -2.23675 -2.37985 0
M  V30 4977 H 463.983 -3.59191 -0.733299 0
M  V30 4978 H 463.631 -3.88772 -3.19163 0
M  V30 4979 H 463.331 -5.40438 -2.30653 0
M  V30 4980 H 464.855 -5.19147 -3.21433 0
M  V30 4981 H 466.269 -5.64704 -0.989047 0
M  V30 4982 H 464.666 -5.99455 -0.27826 0
M  V30 4983 H 465.736 -4.82198 0.511173 0
M  V30 4984 N 467.08 -0.0183926 -1.57589 0
M  V30 4985 C 468.328 0.661253 -1.90976 0
M  V30 4986 C 468.649 1.73281 -0.894353 0
M  V30 4987 O 467.919 1.9579 0.0656788 0
M  V30 4988 H 466.499 0.247233 -0.704901 0
M  V30 4989 H 469.161 -0.0636639 -1.94796 0
M  V30 4990 H 468.257 1.12083 -2.9128 0
M  V30 4991 N 468.558 1.5553 0.254621 0
M  V30 4992 C 469.807 1.76202 0.981612 0
M  V30 4993 C 470.12 0.580883 1.86776 0
M  V30 4994 O 471.326 0.670448 2.63092 0
M  V30 4995 C 469.782 3.11921 1.79537 0
M  V30 4996 C 469.39 4.37659 0.956991 0
M  V30 4997 C 471.134 3.41936 2.51555 0
M  V30 4998 C 469.041 5.64411 1.76619 0
M  V30 4999 H 467.971 0.656841 0.370237 0
M  V30 5000 H 470.622 1.81969 0.236556 0
M  V30 5001 H 469.004 3.00241 2.58208 0
M  V30 5002 H 470.178 4.60307 0.21315 0
M  V30 5003 H 468.493 4.14922 0.350497 0
M  V30 5004 H 471.09 4.33849 3.12536 0
M  V30 5005 H 471.433 2.62905 3.22779 0
M  V30 5006 H 471.966 3.54797 1.799 0
M  V30 5007 H 468.705 6.46241 1.09783 0
M  V30 5008 H 468.225 5.45877 2.48551 0
M  V30 5009 H 469.904 6.03386 2.33527 0
M  V30 5010 N 470.036 -0.519951 1.48776 0
M  V30 5011 C 471.285 -1.27175 1.56555 0
M  V30 5012 C 471.598 -1.9401 0.248869 0
M  V30 5013 O 472.804 -2.70725 0.205004 0
M  V30 5014 C 471.26 -2.30811 2.76142 0
M  V30 5015 C 470.868 -1.7 4.14493 0
M  V30 5016 C 472.612 -3.06937 2.9324 0
M  V30 5017 C 470.519 -2.71635 5.25327 0
M  V30 5018 H 469.449 -0.478329 0.582853 0
M  V30 5019 H 472.1 -0.547916 1.75129 0
M  V30 5020 H 470.482 -3.06274 2.51023 0
M  V30 5021 H 471.656 -1.00658 4.49672 0
M  V30 5022 H 469.971 -1.06331 4.02595 0
M  V30 5023 H 472.568 -3.82905 3.73213 0
M  V30 5024 H 472.911 -3.63409 2.03075 0
M  V30 5025 H 473.444 -2.38589 3.18308 0
M  V30 5026 H 470.183 -2.1997 6.1749 0
M  V30 5027 H 469.703 -3.39275 4.94624 0
M  V30 5028 H 471.382 -3.34429 5.53865 0
M  V30 5029 N 471.514 -1.37532 -0.769588 0
M  V30 5030 C 472.444 -1.36172 -1.89682 0
M  V30 5031 C 473.425 -0.23001 -1.68538 0
M  V30 5032 O 474.61 -0.43069 -1.89364 0
M  V30 5033 C 471.74 -1.1701 -3.26995 0
M  V30 5034 C 470.694 -2.27216 -3.62708 0
M  V30 5035 C 470.02 -1.93174 -4.98586 0
M  V30 5036 C 471.32 -3.6941 -3.69234 0
M  V30 5037 H 473.014 -2.30499 -1.91078 0
M  V30 5038 H 470.56 -1.10953 -0.917902 0
M  V30 5039 H 472.513 -1.14688 -4.05493 0
M  V30 5040 H 471.237 -0.191395 -3.26039 0
M  V30 5041 H 469.896 -2.28697 -2.86519 0
M  V30 5042 H 469.544 -0.938281 -4.94171 0
M  V30 5043 H 469.244 -2.66973 -5.23449 0
M  V30 5044 H 470.768 -1.92443 -5.79481 0
M  V30 5045 H 472.182 -3.70047 -4.37879 0
M  V30 5046 H 470.579 -4.4228 -4.05597 0
M  V30 5047 H 471.649 -4.0288 -2.69844 0
M  V30 5048 N 472.992 0.995999 -1.22138 0
M  V30 5049 C 474.24 1.73167 -1.042 0
M  V30 5050 C 474.561 1.90329 0.42423 0
M  V30 5051 O 473.831 1.4607 1.30539 0
M  V30 5052 H 472.411 0.641593 -0.38258 0
M  V30 5053 H 475.073 1.19974 -1.53598 0
M  V30 5054 H 474.169 2.72734 -1.51731 0
M  V30 5055 N 474.47 1.03057 1.19235 0
M  V30 5056 C 475.433 0.617418 2.20727 0
M  V30 5057 C 476.433 -0.319856 1.57587 0
M  V30 5058 O 477.623 -0.106633 1.73873 0
M  V30 5059 C 474.755 -0.096296 3.40764 0
M  V30 5060 H 475.948 1.51544 2.58794 0
M  V30 5061 H 473.501 0.821949 1.32942 0
M  V30 5062 H 474.236 -1.00859 3.08217 0
M  V30 5063 H 474.021 0.577217 3.87828 0
M  V30 5064 H 475.511 -0.372219 4.15938 0
M  V30 5065 N 475.948 -1.35272 0.808662 0
M  V30 5066 C 477.195 -1.98709 0.390003 0
M  V30 5067 C 477.523 -1.64148 -1.04335 0
M  V30 5068 O 476.778 -0.897797 -1.73891 0
M  V30 5069 C 477.077 -3.53556 0.522798 0
M  V30 5070 C 476.743 -4.0799 1.91977 0
M  V30 5071 C 475.405 -4.22568 2.30195 0
M  V30 5072 C 477.757 -4.37442 2.83361 0
M  V30 5073 C 475.085 -4.63918 3.59162 0
M  V30 5074 C 477.437 -4.80232 4.11776 0
M  V30 5075 C 476.101 -4.93016 4.49991 0
M  V30 5076 H 475.371 -0.727127 0.142712 0
M  V30 5077 H 478.018 -1.6145 1.02985 0
M  V30 5078 H 476.323 -3.91287 -0.200494 0
M  V30 5079 H 478.02 -4.00598 0.179608 0
M  V30 5080 H 474.61 -3.97096 1.61284 0
M  V30 5081 H 478.794 -4.25731 2.55083 0
M  V30 5082 H 474.05 -4.72005 3.88615 0
M  V30 5083 H 478.224 -5.01982 4.82687 0
M  V30 5084 H 475.851 -5.24814 5.49976 0
M  V30 5085 N 477.426 -0.562348 -1.47226 0
M  V30 5086 C 478.675 -0.038041 -2.01664 0
M  V30 5087 C 478.988 1.32199 -1.44162 0
M  V30 5088 O 480.194 1.9365 -1.90294 0
M  V30 5089 C 478.65 -0.0174958 -3.59896 0
M  V30 5090 C 478.258 -1.3746 -4.2639 0
M  V30 5091 C 480.002 0.453934 -4.22066 0
M  V30 5092 C 477.909 -1.31289 -5.76643 0
M  V30 5093 H 476.839 -0.0104511 -0.753928 0
M  V30 5094 H 479.49 -0.710966 -1.69167 0
M  V30 5095 H 477.872 0.721182 -3.89378 0
M  V30 5096 H 479.046 -2.1314 -4.08544 0
M  V30 5097 H 477.361 -1.78438 -3.7623 0
M  V30 5098 H 479.958 0.518584 -5.32179 0
M  V30 5099 H 480.301 1.46706 -3.89594 0
M  V30 5100 H 480.834 -0.230044 -3.97134 0
M  V30 5101 H 477.573 -2.30217 -6.13743 0
M  V30 5102 H 477.093 -0.597973 -5.96812 0
M  V30 5103 H 478.772 -1.01713 -6.38955 0
M  V30 5104 N 478.904 1.54736 -0.299062 0
M  V30 5105 C 480.15 2.00397 0.311244 0
M  V30 5106 C 480.483 1.18716 1.53688 0
M  V30 5107 O 479.758 0.263154 1.92712 0
M  V30 5108 C 480.041 3.53817 0.669761 0
M  V30 5109 C 479.894 4.46239 -0.564882 0
M  V30 5110 C 481.213 4.13856 1.49702 0
M  V30 5111 H 478.332 0.728493 0.111653 0
M  V30 5112 H 480.974 1.85506 -0.410774 0
M  V30 5113 H 479.124 3.66637 1.28491 0
M  V30 5114 H 480.796 4.45328 -1.20337 0
M  V30 5115 H 479.039 4.16916 -1.19849 0
M  V30 5116 H 479.71 5.5134 -0.269918 0
M  V30 5117 H 482.186 4.04461 0.977284 0
M  V30 5118 H 481.062 5.21365 1.71666 0
M  V30 5119 H 481.323 3.65608 2.48563 0
M  V30 5120 N 480.382 0.0267497 1.57577 0
M  V30 5121 C 481.622 -0.65659 1.93567 0
M  V30 5122 C 481.986 -1.69429 0.903213 0
M  V30 5123 O 483.187 -2.42994 1.14923 0
M  V30 5124 C 481.458 -1.25912 3.34486 0
M  V30 5125 S 483.017 -1.96386 3.924 0
M  V30 5126 H 479.835 -0.216237 0.67732 0
M  V30 5127 H 482.437 0.0898475 1.95293 0
M  V30 5128 H 481.141 -0.491405 4.07447 0
M  V30 5129 H 480.672 -2.04291 3.36198 0
M  V30 5130 H 482.687 -3.24202 3.75643 0
M  V30 5131 N 481.861 -1.55662 -0.24637 0
M  V30 5132 C 483.107 -1.78698 -0.971525 0
M  V30 5133 C 483.462 -0.59577 -1.82944 0
M  V30 5134 O 482.755 0.41097 -1.87141 0
M  V30 5135 C 482.949 -3.04885 -1.86494 0
M  V30 5136 C 482.778 -4.36165 -1.09501 0
M  V30 5137 C 481.548 -4.98929 -0.799895 0
M  V30 5138 C 483.746 -5.12126 -0.472334 0
M  V30 5139 N 481.728 -6.139 -0.00595299 0
M  V30 5140 C 483.099 -6.1972 0.18616 0
M  V30 5141 C 485.154 -4.96426 -0.382854 0
M  V30 5142 C 483.857 -7.13321 0.925542 0
M  V30 5143 C 485.883 -5.90405 0.342999 0
M  V30 5144 C 485.245 -6.97407 0.990128 0
M  V30 5145 H 481.344 -0.705852 -0.336597 0
M  V30 5146 H 483.928 -1.93157 -0.244615 0
M  V30 5147 H 482.099 -2.91753 -2.56388 0
M  V30 5148 H 483.831 -3.16212 -2.5257 0
M  V30 5149 H 480.586 -4.60365 -1.11181 0
M  V30 5150 H 481.01 -6.75938 0.379127 0
M  V30 5151 H 485.652 -4.13777 -0.868834 0
M  V30 5152 H 483.37 -7.9547 1.42312 0
M  V30 5153 H 486.956 -5.80333 0.412907 0
M  V30 5154 H 485.836 -7.68874 1.54282 0
M  V30 5155 N 483.339 0.512053 -1.4905 0
M  V30 5156 C 484.269 1.62365 -1.67809 0
M  V30 5157 C 485.25 1.61737 -0.526809 0
M  V30 5158 O 486.435 1.78651 -0.761404 0
M  V30 5159 C 483.565 3.00895 -1.73435 0
M  V30 5160 C 482.519 3.16387 -2.88242 0
M  V30 5161 C 481.845 4.56157 -2.78971 0
M  V30 5162 C 483.145 2.97457 -4.29321 0
M  V30 5163 H 484.839 1.46921 -2.60873 0
M  V30 5164 H 482.385 0.705379 -1.2554 0
M  V30 5165 H 484.338 3.78549 -1.85145 0
M  V30 5166 H 483.062 3.17403 -0.769619 0
M  V30 5167 H 481.721 2.41155 -2.76116 0
M  V30 5168 H 481.369 4.69525 -1.8043 0
M  V30 5169 H 481.069 4.67465 -3.5602 0
M  V30 5170 H 482.593 5.35886 -2.92675 0
M  V30 5171 H 484.007 3.64888 -4.42187 0
M  V30 5172 H 482.404 3.20245 -5.07507 0
M  V30 5173 H 483.474 1.93692 -4.44535 0
M  V30 5174 N 484.817 1.37938 0.762283 0
M  V30 5175 C 486.228 1.30094 1.33912 0
M  V30 5176 C 486.579 -0.0472026 1.96143 0
M  V30 5177 O 485.704 -0.94917 1.94473 0
M  V30 5178 C 486.299 2.35592 2.43478 0
M  V30 5179 C 484.858 2.31353 2.96905 0
M  V30 5180 C 484.005 2.18919 1.70205 0
M  V30 5181 H 486.956 1.48423 0.561816 0
M  V30 5182 H 486.977 2.00806 3.23199 0
M  V30 5183 H 486.489 3.33701 1.98155 0
M  V30 5184 H 484.59 1.36799 3.46579 0
M  V30 5185 H 484.703 3.25147 3.51875 0
M  V30 5186 H 483.067 1.65624 1.93496 0
M  V30 5187 H 483.85 3.18956 1.26973 0
M  V30 5188 N 486.295 -0.989507 1.22664 0
M  V30 5189 C 487.542 -1.72953 1.05325 0
M  V30 5190 C 487.87 -1.90104 -0.411168 0
M  V30 5191 O 487.125 -1.44386 -1.32103 0
M  V30 5192 C 487.424 -3.13649 1.71345 0
M  V30 5193 C 487.09 -3.16403 3.21248 0
M  V30 5194 C 485.752 -3.16862 3.62149 0
M  V30 5195 C 488.104 -3.12428 4.17179 0
M  V30 5196 C 485.432 -3.11051 4.97458 0
M  V30 5197 C 487.784 -3.08159 5.52468 0
M  V30 5198 C 486.448 -3.06935 5.92746 0
M  V30 5199 H 485.718 -0.632881 0.385412 0
M  V30 5200 H 488.365 -1.15863 1.52473 0
M  V30 5201 H 486.67 -3.74069 1.16532 0
M  V30 5202 H 488.367 -3.69658 1.55416 0
M  V30 5203 H 484.957 -3.16798 2.88682 0
M  V30 5204 H 489.141 -3.11221 3.86595 0
M  V30 5205 H 484.397 -3.0845 5.27891 0
M  V30 5206 H 488.571 -3.04039 6.26525 0
M  V30 5207 H 486.198 -3.02186 6.97558 0
M  V30 5208 N 487.773 -1.03688 -1.18687 0
M  V30 5209 C 489.02 -0.73803 -1.88572 0
M  V30 5210 C 489.348 0.733973 -1.8012 0
M  V30 5211 O 488.603 1.55098 -1.19344 0
M  V30 5212 C 488.902 -1.14477 -3.3857 0
M  V30 5213 C 488.568 -2.61641 -3.67226 0
M  V30 5214 C 487.23 -3.01846 -3.74757 0
M  V30 5215 C 489.582 -3.56812 -3.79914 0
M  V30 5216 C 486.91 -4.36118 -3.92451 0
M  V30 5217 C 489.262 -4.90799 -3.99123 0
M  V30 5218 C 487.926 -5.3068 -4.04888 0
M  V30 5219 H 487.196 -0.270064 -0.690034 0
M  V30 5220 H 489.843 -1.3012 -1.40503 0
M  V30 5221 H 488.148 -0.500337 -3.88592 0
M  V30 5222 H 489.845 -0.89095 -3.90977 0
M  V30 5223 H 486.435 -2.29498 -3.61979 0
M  V30 5224 H 490.619 -3.26899 -3.73431 0
M  V30 5225 H 485.875 -4.66542 -3.95157 0
M  V30 5226 H 490.049 -5.64451 -4.07882 0
M  V30 5227 H 487.676 -6.34733 -4.18351 0
M  V30 5228 N 489.251 1.34841 -0.815825 0
M  V30 5229 C 490.5 1.97755 -0.396976 0
M  V30 5230 C 490.813 1.65422 1.04379 0
M  V30 5231 O 492.019 2.21771 1.5662 0
M  V30 5232 C 490.475 3.53818 -0.658869 0
M  V30 5233 C 490.083 3.95051 -2.11278 0
M  V30 5234 C 491.827 4.23397 -0.305834 0
M  V30 5235 C 489.734 5.43997 -2.31994 0
M  V30 5236 H 488.664 0.739985 -0.1447 0
M  V30 5237 H 491.315 1.53781 -1.00118 0
M  V30 5238 H 489.697 3.95997 0.0154112 0
M  V30 5239 H 490.871 3.63998 -2.82564 0
M  V30 5240 H 489.186 3.38388 -2.42657 0
M  V30 5241 H 491.783 5.32899 -0.43854 0
M  V30 5242 H 492.126 4.09508 0.748952 0
M  V30 5243 H 492.659 3.8667 -0.934403 0
M  V30 5244 H 489.398 5.62865 -3.35952 0
M  V30 5245 H 488.918 5.76589 -1.65244 0
M  V30 5246 H 490.597 6.10584 -2.14001 0
M  V30 5247 N 490.729 0.570148 1.46925 0
M  V30 5248 C 491.978 0.0487352 2.01641 0
M  V30 5249 C 492.291 -1.31433 1.44861 0
M  V30 5250 O 493.497 -1.92638 1.91318 0
M  V30 5251 C 491.953 0.0365817 3.59881 0
M  V30 5252 C 491.561 1.39719 4.25655 0
M  V30 5253 C 493.305 -0.431545 4.22301 0
M  V30 5254 C 491.212 1.34345 5.75939 0
M  V30 5255 H 490.142 0.0144492 0.753862 0
M  V30 5256 H 492.793 0.719928 1.68788 0
M  V30 5257 H 491.175 -0.700522 3.89755 0
M  V30 5258 H 492.349 2.15303 4.07408 0
M  V30 5259 H 490.664 1.80431 3.75278 0
M  V30 5260 H 493.261 -0.490354 5.32447 0
M  V30 5261 H 493.604 -1.44638 3.90366 0
M  V30 5262 H 494.137 0.251102 3.97007 0
M  V30 5263 H 490.876 2.33469 6.12513 0
M  V30 5264 H 490.396 0.629615 5.96486 0
M  V30 5265 H 492.075 1.051 6.38407 0
M  V30 5266 N 492.207 -1.54576 0.307264 0
M  V30 5267 C 493.432 -2.05139 -0.305379 0
M  V30 5268 C 493.857 -1.18278 -1.46259 0
M  V30 5269 O 493.215 -0.188243 -1.8032 0
M  V30 5270 C 493.263 -3.53066 -0.733283 0
M  V30 5271 O 492.367 -3.69206 -1.83741 0
M  V30 5272 H 491.708 -0.661444 -0.0582105 0
M  V30 5273 H 494.238 -1.99569 0.450931 0
M  V30 5274 H 494.248 -3.95034 -1.02039 0
M  V30 5275 H 492.923 -4.15746 0.113198 0
M  V30 5276 H 491.5 -3.39143 -1.55037 0
M  V30 5277 N 493.685 -0.035106 -1.57561 0
M  V30 5278 C 494.615 0.942993 -2.13612 0
M  V30 5279 C 495.596 1.33531 -1.05373 0
M  V30 5280 O 496.781 1.41287 -1.33235 0
M  V30 5281 C 493.911 2.22332 -2.66807 0
M  V30 5282 C 492.865 1.97156 -3.79886 0
M  V30 5283 C 492.191 3.31506 -4.19533 0
M  V30 5284 C 493.491 1.30596 -5.05709 0
M  V30 5285 H 495.185 0.476179 -2.95589 0
M  V30 5286 H 492.731 0.227602 -1.4219 0
M  V30 5287 H 494.684 2.91142 -3.04654 0
M  V30 5288 H 493.408 2.7119 -1.81999 0
M  V30 5289 H 492.067 1.30763 -3.42486 0
M  V30 5290 H 491.715 3.78134 -3.31698 0
M  V30 5291 H 491.415 3.15465 -4.95738 0
M  V30 5292 H 492.939 4.01574 -4.59968 0
M  V30 5293 H 494.353 1.89416 -5.41105 0
M  V30 5294 H 492.75 1.24934 -5.86951 0
M  V30 5295 H 493.82 0.279742 -4.84092 0
M  V30 5296 N 495.163 1.55791 0.238111 0
M  V30 5297 C 496.409 1.78297 0.966337 0
M  V30 5298 C 496.742 0.601903 1.84637 0
M  V30 5299 O 496.017 -0.399499 1.90353 0
M  V30 5300 C 496.3 3.10758 1.81939 0
M  V30 5301 C 496.153 4.39283 0.966958 0
M  V30 5302 C 497.472 3.39519 2.80027 0
M  V30 5303 H 494.591 0.648654 0.349882 0
M  V30 5304 H 497.233 1.88525 0.236253 0
M  V30 5305 H 495.383 3.02168 2.44185 0
M  V30 5306 H 497.055 4.59873 0.362514 0
M  V30 5307 H 495.298 4.32948 0.271669 0
M  V30 5308 H 495.969 5.28368 1.59784 0
M  V30 5309 H 498.445 3.48128 2.27917 0
M  V30 5310 H 497.321 4.33402 3.36829 0
M  V30 5311 H 497.582 2.60864 3.56934 0
M  V30 5312 N 496.642 -0.504142 1.49319 0
M  V30 5313 C 497.575 -1.62361 1.60356 0
M  V30 5314 C 498.553 -1.56169 0.45277 0
M  V30 5315 O 499.737 -1.76271 0.667892 0
M  V30 5316 C 496.864 -3.00864 1.55559 0
M  V30 5317 C 495.91 -3.25328 2.75797 0
M  V30 5318 S 496.743 -3.08791 4.37503 0
M  V30 5319 C 497.899 -4.49695 4.35345 0
M  V30 5320 H 498.132 -1.52753 2.55056 0
M  V30 5321 H 495.665 -0.689065 1.38171 0
M  V30 5322 H 497.623 -3.8073 1.53477 0
M  V30 5323 H 496.284 -3.0789 0.621515 0
M  V30 5324 H 495.477 -4.2643 2.68651 0
M  V30 5325 H 495.079 -2.53179 2.75275 0
M  V30 5326 H 497.371 -5.41721 4.06871 0
M  V30 5327 H 498.314 -4.61891 5.36714 0
M  V30 5328 H 498.722 -4.30227 3.65465 0
M  V30 5329 N 498.12 -1.38341 -0.754957 0
M  V30 5330 C 499.531 -1.30803 -1.3322 0
M  V30 5331 C 499.882 0.0368 -1.96165 0
M  V30 5332 O 499.007 0.938844 -1.94974 0
M  V30 5333 C 499.602 -2.3688 -2.42225 0
M  V30 5334 C 498.161 -2.32925 -2.95674 0
M  V30 5335 C 497.308 -2.19819 -1.69042 0
M  V30 5336 H 500.259 -1.48719 -0.553937 0
M  V30 5337 H 500.28 -2.02517 -3.22129 0
M  V30 5338 H 499.792 -3.34747 -1.96383 0
M  V30 5339 H 497.893 -1.38635 -3.45848 0
M  V30 5340 H 498.006 -3.27008 -3.50146 0
M  V30 5341 H 496.37 -1.66648 -1.92615 0
M  V30 5342 H 497.153 -3.19625 -1.25279 0
M  V30 5343 N 499.598 0.982988 -1.23187 0
M  V30 5344 C 500.847 1.71817 -1.05649 0
M  V30 5345 C 501.16 1.91315 0.407176 0
M  V30 5346 O 502.366 2.62256 0.702436 0
M  V30 5347 C 500.822 3.09188 -1.84203 0
M  V30 5348 C 500.43 2.97586 -3.34882 0
M  V30 5349 C 502.174 3.86684 -1.75146 0
M  V30 5350 C 500.081 4.30173 -4.05839 0
M  V30 5351 H 499.011 0.644258 -0.391724 0
M  V30 5352 H 501.662 1.09659 -1.4713 0
M  V30 5353 H 500.044 3.72087 -1.35527 0
M  V30 5354 H 501.218 2.43793 -3.91026 0
M  V30 5355 H 499.533 2.33567 -3.44725 0
M  V30 5356 H 502.13 4.84836 -2.25473 0
M  V30 5357 H 502.473 4.10136 -0.713737 0
M  V30 5358 H 503.006 3.30482 -2.21419 0
M  V30 5359 H 499.745 4.11918 -5.09906 0
M  V30 5360 H 499.265 4.83841 -3.54482 0
M  V30 5361 H 500.944 4.98873 -4.11989 0
M  V30 5362 N 501.076 1.04316 1.18135 0
M  V30 5363 C 502.316 0.756937 1.89868 0
M  V30 5364 C 502.68 -0.702609 1.78682 0
M  V30 5365 O 503.881 -1.10255 2.45148 0
M  V30 5366 C 502.152 1.21327 3.36176 0
M  V30 5367 S 503.711 1.05307 4.25976 0
M  V30 5368 H 500.529 0.275143 0.655604 0
M  V30 5369 H 503.131 1.33597 1.42731 0
M  V30 5370 H 501.835 2.27086 3.41848 0
M  V30 5371 H 501.366 0.628137 3.88353 0
M  V30 5372 H 503.381 -0.0280093 4.96192 0
M  V30 5373 N 502.554 -1.34406 0.822964 0
M  V30 5374 C 503.501 -2.29519 0.24284 0
M  V30 5375 C 504.471 -1.5359 -0.632397 0
M  V30 5376 O 505.656 -1.8196 -0.57403 0
M  V30 5377 C 502.796 -3.40032 -0.58925 0
M  V30 5378 C 501.909 -4.30899 0.308236 0
M  V30 5379 C 501.044 -5.28515 -0.533425 0
M  V30 5380 C 500.083 -6.1102 0.363444 0
M  V30 5381 N 499.22 -7.00725 -0.439147 0
M  V30 5382 H 504.06 -2.78537 1.05929 0
M  V30 5383 H 501.597 -1.3707 0.533872 0
M  V30 5384 H 503.555 -4.0279 -1.087 0
M  V30 5385 H 502.185 -2.92248 -1.37081 0
M  V30 5386 H 501.237 -3.69002 0.924203 0
M  V30 5387 H 502.549 -4.88717 0.997862 0
M  V30 5388 H 501.703 -5.96725 -1.09565 0
M  V30 5389 H 500.442 -4.71235 -1.25656 0
M  V30 5390 H 499.447 -5.41743 0.937812 0
M  V30 5391 H 500.672 -6.70381 1.08469 0
M  V30 5392 H 498.618 -6.45913 -1.14595 0
M  V30 5393 H 498.535 -7.55756 0.19209 0
M  V30 5394 H 499.803 -7.73263 -0.984124 0
M  V30 5395 N 504.032 -0.577932 -1.46621 0
M  V30 5396 C 505.309 0.00495287 -1.95599 0
M  V30 5397 C 505.689 1.46428 -1.5206 0
M  V30 5398 O 505.037 2.1517 -0.769046 0
M  V30 5399 C 505.247 -0.162114 -3.48623 0
M  V30 5400 C 506.595 -0.0274623 -4.24591 0
M  V30 5401 O 507.619 -0.0907067 -3.56084 0
M  V30 5402 O 506.478 0.1122 -5.46385 0
M  V30 5403 H 503.572 0.0525057 -0.825332 0
M  V30 5404 H 506.118 -0.645914 -1.56927 0
M  V30 5405 H 504.89 -1.17679 -3.73185 0
M  V30 5406 H 504.513 0.525407 -3.94113 0
M  V30 5407 N 505.51 1.54411 -0.315457 0
M  V30 5408 C 506.473 2.22713 0.54142 0
M  V30 5409 C 507.473 1.2179 1.04995 0
M  V30 5410 O 508.663 1.46426 0.943667 0
M  V30 5411 C 505.795 2.92485 1.75116 0
M  V30 5412 H 506.988 2.99849 -0.0555508 0
M  V30 5413 H 504.541 1.56159 -0.0664453 0
M  V30 5414 H 505.276 2.19466 2.38758 0
M  V30 5415 H 505.061 3.66483 1.39401 0
M  V30 5416 H 506.551 3.44548 2.35959 0
M  V30 5417 N 506.988 0.0434614 1.5754 0
M  V30 5418 C 508.228 -0.636023 1.94253 0
M  V30 5419 C 508.592 -1.68461 0.921132 0
M  V30 5420 O 509.793 -2.41762 1.17494 0
M  V30 5421 C 508.064 -1.22357 3.35803 0
M  V30 5422 S 509.623 -1.92213 3.94461 0
M  V30 5423 H 506.441 -0.209041 0.679575 0
M  V30 5424 H 509.043 0.110556 1.95187 0
M  V30 5425 H 507.747 -0.448162 4.07946 0
M  V30 5426 H 507.278 -2.00713 3.38346 0
M  V30 5427 H 509.293 -3.20199 3.79061 0
M  V30 5428 N 508.466 -1.55915 -0.229846 0
M  V30 5429 C 509.712 -1.79718 -0.952517 0
M  V30 5430 C 510.067 -0.61514 -1.82301 0
M  V30 5431 O 509.36 0.391098 -1.87566 0
M  V30 5432 C 509.554 -3.06845 -1.8325 0
M  V30 5433 C 509.383 -4.37302 -1.04868 0
M  V30 5434 C 508.153 -4.99749 -0.746932 0
M  V30 5435 C 510.351 -5.12599 -0.417989 0
M  V30 5436 N 508.333 -6.13871 0.0591596 0
M  V30 5437 C 509.704 -6.19488 0.251879 0
M  V30 5438 C 511.759 -4.96804 -0.33018 0
M  V30 5439 C 510.462 -7.12299 1.00115 0
M  V30 5440 C 512.488 -5.90007 0.4056 0
M  V30 5441 C 511.85 -6.96317 1.06404 0
M  V30 5442 H 507.949 -0.709382 -0.329091 0
M  V30 5443 H 510.533 -1.93406 -0.224114 0
M  V30 5444 H 508.704 -2.94456 -2.53279 0
M  V30 5445 H 510.436 -3.18874 -2.49202 0
M  V30 5446 H 507.191 -4.61518 -1.06292 0
M  V30 5447 H 507.615 -6.75497 0.450798 0
M  V30 5448 H 512.257 -4.14675 -0.824898 0
M  V30 5449 H 509.975 -7.93916 1.50741 0
M  V30 5450 H 513.561 -5.79862 0.474436 0
M  V30 5451 H 512.441 -7.67194 1.62429 0
M  V30 5452 N 509.944 0.496216 -1.49584 0
M  V30 5453 C 511.191 1.25003 -1.59312 0
M  V30 5454 C 511.519 1.92445 -0.28198 0
M  V30 5455 O 510.774 1.81557 0.730452 0
M  V30 5456 C 511.073 2.3359 -2.705 0
M  V30 5457 C 510.739 1.83574 -4.11839 0
M  V30 5458 C 509.401 1.69653 -4.50302 0
M  V30 5459 C 511.753 1.46193 -5.00277 0
M  V30 5460 C 509.081 1.16736 -5.74969 0
M  V30 5461 C 511.433 0.947265 -6.25468 0
M  V30 5462 C 510.097 0.794485 -6.62755 0
M  V30 5463 H 509.367 0.45742 -0.582965 0
M  V30 5464 H 512.014 0.549996 -1.83432 0
M  V30 5465 H 510.319 3.09401 -2.40371 0
M  V30 5466 H 512.016 2.91627 -2.75235 0
M  V30 5467 H 508.606 1.9537 -3.81482 0
M  V30 5468 H 512.79 1.55793 -4.71214 0
M  V30 5469 H 508.046 1.03623 -6.02555 0
M  V30 5470 H 512.22 0.648846 -6.93371 0
M  V30 5471 H 509.847 0.382271 -7.59238 0
M  V30 5472 N 511.423 1.38739 0.74761 0
M  V30 5473 C 512.373 1.32948 1.85226 0
M  V30 5474 C 513.357 0.212642 1.59489 0
M  V30 5475 O 514.549 0.449121 1.71207 0
M  V30 5476 C 511.678 1.16279 3.23008 0
M  V30 5477 C 510.764 2.32611 3.54617 0
M  V30 5478 N 511.155 3.58065 3.57244 0
M  V30 5479 C 509.453 2.25293 3.84914 0
M  V30 5480 C 510.154 4.34919 3.8629 0
M  V30 5481 N 509.13 3.64348 4.03425 0
M  V30 5482 H 512.932 2.27927 1.85544 0
M  V30 5483 H 510.446 1.32056 0.945253 0
M  V30 5484 H 512.443 1.10214 4.02068 0
M  V30 5485 H 511.103 0.222394 3.23937 0
M  V30 5486 H 512.114 3.91656 3.3886 0
M  V30 5487 H 508.791 1.39446 3.93524 0
M  V30 5488 H 510.181 5.43605 3.94896 0
M  V30 5489 N 512.901 -0.976442 1.23707 0
M  V30 5490 C 513.831 -2.08749 1.04624 0
M  V30 5491 C 514.812 -1.70057 -0.0380956 0
M  V30 5492 O 515.997 -1.93782 0.127308 0
M  V30 5493 C 513.127 -3.41335 0.640902 0
M  V30 5494 C 512.081 -3.93947 1.67302 0
M  V30 5495 C 511.407 -5.22774 1.12301 0
M  V30 5496 C 512.707 -4.22769 3.06697 0
M  V30 5497 H 514.401 -2.24972 1.97555 0
M  V30 5498 H 511.947 -1.08108 0.951247 0
M  V30 5499 H 513.9 -4.18489 0.494434 0
M  V30 5500 H 512.624 -3.24988 -0.324099 0
M  V30 5501 H 511.283 -3.18941 1.80755 0
M  V30 5502 H 510.931 -5.0278 0.148877 0
M  V30 5503 H 510.631 -5.58942 1.81267 0
M  V30 5504 H 512.155 -6.02546 0.988479 0
M  V30 5505 H 513.569 -4.90659 2.96524 0
M  V30 5506 H 511.966 -4.70147 3.72937 0
M  V30 5507 H 513.036 -3.29885 3.55392 0
M  V30 5508 N 514.379 -1.04941 -1.1758 0
M  V30 5509 C 515.342 -0.652456 -2.19717 0
M  V30 5510 C 516.342 0.294745 -1.58076 0
M  V30 5511 O 517.532 0.0789579 -1.74021 0
M  V30 5512 C 514.664 0.0420712 -3.40874 0
M  V30 5513 H 515.857 -1.55642 -2.5635 0
M  V30 5514 H 513.41 -0.842995 -1.31618 0
M  V30 5515 H 514.145 0.95943 -3.09783 0
M  V30 5516 H 513.93 -0.638844 -3.86861 0
M  V30 5517 H 515.42 0.306 -4.16477 0
M  V30 5518 N 515.857 1.33968 -0.830081 0
M  V30 5519 C 517.106 1.97323 -0.417928 0
M  V30 5520 C 517.419 1.6652 1.02618 0
M  V30 5521 O 518.625 2.2342 1.54259 0
M  V30 5522 C 517.081 3.53099 -0.696359 0
M  V30 5523 C 516.689 3.92788 -2.15457 0
M  V30 5524 C 518.433 4.23049 -0.350724 0
M  V30 5525 C 516.34 5.41506 -2.37751 0
M  V30 5526 H 515.27 0.738409 -0.152541 0
M  V30 5527 H 517.921 1.52711 -1.01744 0
M  V30 5528 H 516.303 3.95991 -0.0265904 0
M  V30 5529 H 517.477 3.6098 -2.86408 0
M  V30 5530 H 515.792 3.35795 -2.46232 0
M  V30 5531 H 518.389 5.32403 -0.495036 0
M  V30 5532 H 518.732 4.10279 0.705476 0
M  V30 5533 H 519.265 3.85657 -0.975362 0
M  V30 5534 H 516.004 5.5927 -3.41903 0
M  V30 5535 H 515.524 5.74804 -1.7135 0
M  V30 5536 H 517.203 6.0828 -2.20465 0
M  V30 5537 N 517.335 0.585699 1.46312 0
M  V30 5538 C 518.582 0.0724211 2.0237 0
M  V30 5539 C 518.91 -1.28868 1.45683 0
M  V30 5540 O 518.165 -1.85853 0.612945 0
M  V30 5541 C 518.464 -0.0401312 3.57377 0
M  V30 5542 C 518.13 1.25376 4.33119 0
M  V30 5543 C 516.792 1.60824 4.5353 0
M  V30 5544 C 519.144 2.10987 4.76586 0
M  V30 5545 C 516.472 2.81676 5.14661 0
M  V30 5546 C 518.824 3.31068 5.39052 0
M  V30 5547 C 517.488 3.66794 5.5769 0
M  V30 5548 H 516.758 0.0265007 0.740526 0
M  V30 5549 H 519.405 0.762935 1.75646 0
M  V30 5550 H 517.71 -0.813791 3.83255 0
M  V30 5551 H 519.407 -0.453078 3.98432 0
M  V30 5552 H 515.997 0.967808 4.1753 0
M  V30 5553 H 520.181 1.84904 4.60569 0
M  V30 5554 H 515.437 3.0949 5.27282 0
M  V30 5555 H 519.611 3.97672 5.71691 0
M  V30 5556 H 517.238 4.60529 6.04828 0
M  V30 5557 N 518.813 -1.54241 0.323641 0
M  V30 5558 C 520.09 -1.92741 -0.333181 0
M  V30 5559 C 520.47 -1.25326 -1.69872 0
M  V30 5560 O 519.818 -0.396991 -2.25025 0
M  V30 5561 C 520.028 -3.46399 -0.425322 0
M  V30 5562 C 521.376 -4.19029 -0.68557 0
M  V30 5563 O 522.4 -3.52555 -0.50824 0
M  V30 5564 O 521.259 -5.36751 -1.02767 0
M  V30 5565 H 518.353 -0.804811 -0.190286 0
M  V30 5566 H 520.899 -1.65542 0.373361 0
M  V30 5567 H 519.671 -3.87643 0.533737 0
M  V30 5568 H 519.294 -3.79704 -1.17944 0
M  V30 5569 N 520.291 -0.0518155 -1.57515 0
M  V30 5570 C 521.538 0.621823 -1.92716 0
M  V30 5571 C 521.866 1.70813 -0.930229 0
M  V30 5572 O 521.121 1.95616 0.0573708 0
M  V30 5573 C 521.42 1.25607 -3.34601 0
M  V30 5574 C 521.086 0.297901 -4.49915 0
M  V30 5575 C 519.748 0.034243 -4.81188 0
M  V30 5576 C 522.1 -0.358738 -5.19964 0
M  V30 5577 C 519.428 -0.893479 -5.79857 0
M  V30 5578 C 521.78 -1.27466 -6.19625 0
M  V30 5579 C 520.444 -1.54698 -6.49326 0
M  V30 5580 H 519.714 0.227541 -0.705199 0
M  V30 5581 H 522.361 -0.118432 -1.91133 0
M  V30 5582 H 520.666 2.07161 -3.32553 0
M  V30 5583 H 522.363 1.78424 -3.59118 0
M  V30 5584 H 518.953 0.513581 -4.25512 0
M  V30 5585 H 523.137 -0.168133 -4.96015 0
M  V30 5586 H 518.393 -1.11193 -6.01204 0
M  V30 5587 H 522.567 -1.78953 -6.73015 0
M  V30 5588 H 520.194 -2.26748 -7.25596 0
M  V30 5589 N 521.769 1.56035 0.221574 0
M  V30 5590 C 523.016 1.79047 0.94597 0
M  V30 5591 C 523.344 0.62057 1.84334 0
M  V30 5592 O 522.599 -0.395053 1.91671 0
M  V30 5593 C 522.898 3.07813 1.8162 0
M  V30 5594 C 522.564 4.3797 1.07206 0
M  V30 5595 C 521.226 4.73334 0.866508 0
M  V30 5596 C 523.578 5.18326 0.546565 0
M  V30 5597 C 520.906 5.8657 0.123549 0
M  V30 5598 C 523.258 6.32335 -0.18305 0
M  V30 5599 C 521.922 6.66301 -0.399861 0
M  V30 5600 H 521.192 0.655178 0.346155 0
M  V30 5601 H 523.839 1.90299 0.214146 0
M  V30 5602 H 522.144 2.91682 2.61589 0
M  V30 5603 H 523.841 3.2282 2.37884 0
M  V30 5604 H 520.431 4.10202 1.24226 0
M  V30 5605 H 524.615 4.9144 0.692847 0
M  V30 5606 H 519.871 6.11376 -0.0546591 0
M  V30 5607 H 524.045 6.9383 -0.59775 0
M  V30 5608 H 521.672 7.53889 -0.977489 0
M  V30 5609 N 523.247 -0.488276 1.49845 0
M  V30 5610 C 524.475 -1.26527 1.63702 0
M  V30 5611 C 524.89 -1.8618 0.313447 0
M  V30 5612 O 524.247 -1.68432 -0.702624 0
M  V30 5613 C 524.298 -2.3864 2.71538 0
M  V30 5614 O 524.019 -1.81437 3.98763 0
M  V30 5615 C 525.52 -3.29805 2.96215 0
M  V30 5616 H 522.74 -0.383295 0.55075 0
M  V30 5617 H 525.284 -0.584779 1.95961 0
M  V30 5618 H 523.439 -3.02496 2.42023 0
M  V30 5619 H 523.853 -2.55135 4.58265 0
M  V30 5620 H 525.327 -4.04722 3.75372 0
M  V30 5621 H 525.804 -3.87563 2.06619 0
M  V30 5622 H 526.41 -2.71703 3.27196 0
M  V30 5623 N 524.725 -1.39134 -0.740242 0
M  V30 5624 C 525.971 -1.37278 -1.50088 0
M  V30 5625 C 526.326 0.0329967 -1.92372 0
M  V30 5626 O 525.619 0.998447 -1.63529 0
M  V30 5627 C 525.813 -2.27457 -2.75678 0
M  V30 5628 C 525.642 -3.76662 -2.45674 0
M  V30 5629 C 524.412 -4.45617 -2.38229 0
M  V30 5630 C 526.61 -4.6877 -2.11563 0
M  V30 5631 N 524.592 -5.80187 -2.00641 0
M  V30 5632 C 525.963 -5.91951 -1.84376 0
M  V30 5633 C 528.018 -4.56843 -1.97987 0
M  V30 5634 C 526.721 -7.04538 -1.4498 0
M  V30 5635 C 528.747 -5.69347 -1.59994 0
M  V30 5636 C 528.109 -6.91597 -1.33687 0
M  V30 5637 H 524.208 -0.557611 -0.548265 0
M  V30 5638 H 526.792 -1.74638 -0.860784 0
M  V30 5639 H 524.963 -1.92263 -3.37475 0
M  V30 5640 H 526.695 -2.16631 -3.41838 0
M  V30 5641 H 523.45 -3.98993 -2.5515 0
M  V30 5642 H 523.874 -6.51387 -1.84454 0
M  V30 5643 H 528.516 -3.62868 -2.16995 0
M  V30 5644 H 526.234 -7.98419 -1.24712 0
M  V30 5645 H 529.82 -5.62104 -1.50102 0
M  V30 5646 H 528.7 -7.77176 -1.04728 0
M  V30 5647 N 526.204 0.969867 -1.24223 0
M  V30 5648 C 527.134 2.08191 -1.05729 0
M  V30 5649 C 528.115 1.70075 0.0290765 0
M  V30 5650 O 529.3 1.93712 -0.137583 0
M  V30 5651 C 526.43 3.40991 -0.658995 0
M  V30 5652 C 525.384 3.93054 -1.69389 0
M  V30 5653 C 524.71 5.22171 -1.15072 0
M  V30 5654 C 526.01 4.21137 -3.08935 0
M  V30 5655 H 527.704 2.23921 -1.98746 0
M  V30 5656 H 525.25 1.07602 -0.956967 0
M  V30 5657 H 527.203 4.18221 -0.51662 0
M  V30 5658 H 525.927 3.25155 0.30686 0
M  V30 5659 H 524.586 3.17977 -1.82444 0
M  V30 5660 H 524.234 5.02694 -0.175539 0
M  V30 5661 H 523.934 5.57973 -1.84229 0
M  V30 5662 H 525.458 6.02013 -1.02042 0
M  V30 5663 H 526.872 4.8908 -2.99121 0
M  V30 5664 H 525.269 4.68163 -3.75425 0
M  V30 5665 H 526.339 3.27996 -3.57137 0
M  V30 5666 N 527.682 1.05563 1.17022 0
M  V30 5667 C 528.93 0.76642 1.87004 0
M  V30 5668 C 529.251 -0.708854 1.8166 0
M  V30 5669 O 528.521 -1.51242 1.2451 0
M  V30 5670 H 527.101 0.280516 0.692329 0
M  V30 5671 H 529.763 1.33557 1.41945 0
M  V30 5672 H 528.859 1.08472 2.92644 0
M  V30 5673 N 529.16 -1.33526 0.837174 0
M  V30 5674 C 530.39 -2.01754 0.444848 0
M  V30 5675 C 530.798 -1.63149 -0.958072 0
M  V30 5676 O 530.141 -0.839827 -1.63379 0
M  V30 5677 C 530.203 -3.56228 0.483917 0
M  V30 5678 C 529.867 -4.18205 1.84265 0
M  V30 5679 C 530.864 -4.37699 2.80563 0
M  V30 5680 C 528.549 -4.54667 2.13503 0
M  V30 5681 C 530.543 -4.928 4.04261 0
M  V30 5682 C 528.23 -5.09475 3.37458 0
M  V30 5683 C 529.228 -5.28488 4.32654 0
M  V30 5684 O 528.916 -5.82132 5.54417 0
M  V30 5685 H 528.648 -0.652928 0.175104 0
M  V30 5686 H 531.202 -1.71469 1.13082 0
M  V30 5687 H 529.432 -3.85833 -0.258826 0
M  V30 5688 H 531.121 -4.05752 0.109653 0
M  V30 5689 H 531.887 -4.0988 2.59274 0
M  V30 5690 H 527.766 -4.39164 1.40201 0
M  V30 5691 H 531.31 -5.07555 4.78574 0
M  V30 5692 H 527.207 -5.36725 3.58604 0
M  V30 5693 H 527.975 -6.00548 5.56133 0
M  V30 5694 N 530.638 -0.59345 -1.46 0
M  V30 5695 C 531.568 0.121192 -2.33185 0
M  V30 5696 C 532.549 0.872977 -1.4599 0
M  V30 5697 O 533.734 0.846321 -1.74789 0
M  V30 5698 C 530.864 1.12844 -3.28456 0
M  V30 5699 C 529.818 0.4908 -4.25177 0
M  V30 5700 C 529.144 1.60529 -5.10034 0
M  V30 5701 C 530.444 -0.578949 -5.19081 0
M  V30 5702 H 532.138 -0.606767 -2.93187 0
M  V30 5703 H 529.684 -0.293242 -1.40983 0
M  V30 5704 H 531.637 1.63684 -3.88311 0
M  V30 5705 H 530.361 1.88681 -2.66584 0
M  V30 5706 H 529.02 0.00339328 -3.666 0
M  V30 5707 H 528.668 2.35359 -4.44539 0
M  V30 5708 H 528.368 1.18422 -5.75543 0
M  V30 5709 H 529.892 2.11623 -5.72755 0
M  V30 5710 H 531.306 -0.155199 -5.7309 0
M  V30 5711 H 529.703 -0.920947 -5.92991 0
M  V30 5712 H 530.773 -1.46109 -4.62364 0
M  V30 5713 N 532.116 1.54067 -0.331816 0
M  V30 5714 C 533.064 2.26105 0.54582 0
M  V30 5715 C 534.058 1.27816 1.11173 0
M  V30 5716 O 535.264 1.45565 1.05882 0
M  V30 5717 H 531.639 0.726363 0.194683 0
M  V30 5718 H 533.61 2.98282 -0.083931 0
M  V30 5719 C 532.359 3.03814 1.69092 0
M  V30 5720 H 531.682 3.79269 1.26473 0
M  V30 5721 H 533.122 3.57453 2.28043 0
M  V30 5722 C 531.581 2.12606 2.61343 0
M  V30 5723 O 532.111 1.71437 3.6328 0
M  V30 5724 N 530.317 1.77925 2.29763 0
M  V30 5725 H 529.864 2.11602 1.46909 0
M  V30 5726 H 529.822 1.1718 2.91747 0
M  V30 5727 N 533.594 0.0601682 1.57485 0
M  V30 5728 C 534.819 -0.624416 1.97777 0
M  V30 5729 C 535.244 -1.63051 0.937867 0
M  V30 5730 O 534.602 -1.81036 -0.0978845 0
M  V30 5731 C 534.65 -1.27979 3.37126 0
M  V30 5732 O 533.754 -2.39556 3.35688 0
M  V30 5733 H 533.095 -0.161581 0.64404 0
M  V30 5734 H 535.625 0.131237 2.04179 0
M  V30 5735 H 535.635 -1.62937 3.74053 0
M  V30 5736 H 534.31 -0.542501 4.12347 0
M  V30 5737 H 532.887 -2.06478 3.10517 0
M  V30 5738 N 535.072 -1.5615 -0.213296 0
M  V30 5739 C 536.002 -1.96109 -1.26742 0
M  V30 5740 C 536.983 -0.830448 -1.48451 0
M  V30 5741 O 538.168 -1.09339 -1.60495 0
M  V30 5742 C 535.298 -2.28492 -2.61551 0
M  V30 5743 C 534.252 -3.44124 -2.54485 0
M  V30 5744 C 533.578 -3.62134 -3.93399 0
M  V30 5745 C 534.878 -4.78855 -2.08556 0
M  V30 5746 H 536.572 -2.84412 -0.935434 0
M  V30 5747 H 534.118 -1.36836 -0.44854 0
M  V30 5748 H 536.071 -2.55039 -3.3546 0
M  V30 5749 H 534.795 -1.37052 -2.96453 0
M  V30 5750 H 533.454 -3.17639 -1.83033 0
M  V30 5751 H 533.102 -2.68055 -4.25623 0
M  V30 5752 H 532.802 -4.39913 -3.89551 0
M  V30 5753 H 534.326 -3.91038 -4.68958 0
M  V30 5754 H 535.74 -5.04552 -2.72213 0
M  V30 5755 H 534.137 -5.59975 -2.1575 0
M  V30 5756 H 535.207 -4.73657 -1.03811 0
M  V30 5757 N 536.55 0.480323 -1.50102 0
M  V30 5758 C 537.799 1.22979 -1.59872 0
M  V30 5759 C 538.112 1.93282 -0.30022 0
M  V30 5760 O 539.318 2.70086 -0.276709 0
M  V30 5761 C 537.774 2.23408 -2.82164 0
M  V30 5762 C 537.382 1.5895 -4.18854 0
M  V30 5763 C 539.126 2.99055 -3.01275 0
M  V30 5764 C 537.033 2.57611 -5.32344 0
M  V30 5765 H 535.963 0.462707 -0.59533 0
M  V30 5766 H 538.614 0.501291 -1.7652 0
M  V30 5767 H 536.996 2.99511 -2.59055 0
M  V30 5768 H 538.17 0.887 -4.52182 0
M  V30 5769 H 536.485 0.956191 -4.05273 0
M  V30 5770 H 539.082 3.72876 -3.83233 0
M  V30 5771 H 539.425 3.57897 -2.12639 0
M  V30 5772 H 539.958 2.30066 -3.24522 0
M  V30 5773 H 536.697 2.03521 -6.23105 0
M  V30 5774 H 536.217 3.26041 -5.03445 0
M  V30 5775 H 537.896 3.19627 -5.62537 0
M  V30 5776 N 538.028 1.39524 0.732853 0
M  V30 5777 C 538.976 1.38563 1.86824 0
M  V30 5778 C 539.97 0.268467 1.67259 0
M  V30 5779 O 541.176 0.438613 1.74574 0
M  V30 5780 H 537.551 0.432737 0.615014 0
M  V30 5781 H 539.522 2.34328 1.84751 0
M  V30 5782 C 538.271 1.2481 3.24527 0
M  V30 5783 H 537.594 2.10044 3.40179 0
M  V30 5784 H 539.034 1.28194 4.04156 0
M  V30 5785 C 537.493 -0.0432825 3.36872 0
M  V30 5786 O 538.023 -1.01268 3.88726 0
M  V30 5787 N 536.229 -0.107055 2.90403 0
M  V30 5788 H 535.776 0.682512 2.48394 0
M  V30 5789 H 535.734 -0.970618 2.99042 0
M  V30 5790 N 539.506 -0.963266 1.24736 0
M  V30 5791 C 540.917 -1.52145 1.08207 0
M  V30 5792 C 541.268 -1.93142 -0.345061 0
M  V30 5793 O 540.393 -1.77769 -1.23399 0
M  V30 5794 C 540.988 -2.76486 1.95808 0
M  V30 5795 C 539.547 -3.28646 1.8349 0
M  V30 5796 C 538.694 -2.01529 1.90476 0
M  V30 5797 H 541.645 -0.781083 1.38148 0
M  V30 5798 H 541.666 -3.49986 1.49297 0
M  V30 5799 H 541.178 -2.46617 2.99669 0
M  V30 5800 H 539.279 -3.63357 0.824787 0
M  V30 5801 H 539.392 -3.97246 2.67829 0
M  V30 5802 H 537.756 -2.16442 1.34258 0
M  V30 5803 H 538.539 -1.7402 2.95926 0
M  V30 5804 N 540.985 -1.06182 -1.16461 0
M  V30 5805 C 542.234 -0.772927 -1.86303 0
M  V30 5806 C 542.547 0.703187 -1.82523 0
M  V30 5807 O 543.753 1.10641 -2.47933 0
M  V30 5808 C 542.209 -1.33249 -3.34324 0
M  V30 5809 C 541.817 -2.83876 -3.46581 0
M  V30 5810 C 543.561 -1.12108 -4.09429 0
M  V30 5811 C 541.468 -3.33082 -4.88682 0
M  V30 5812 H 540.398 -0.285452 -0.697878 0
M  V30 5813 H 543.049 -1.28039 -1.31447 0
M  V30 5814 H 541.431 -0.7528 -3.88779 0
M  V30 5815 H 542.605 -3.47786 -3.02293 0
M  V30 5816 H 540.92 -3.03671 -2.84909 0
M  V30 5817 H 543.517 -1.46361 -5.14279 0
M  V30 5818 H 543.86 -0.0593832 -4.16258 0
M  V30 5819 H 544.393 -1.6665 -3.6121 0
M  V30 5820 H 541.132 -4.38726 -4.87032 0
M  V30 5821 H 540.652 -2.73919 -5.33599 0
M  V30 5822 H 542.331 -3.28344 -5.57494 0
M  V30 5823 N 542.463 1.3308 -0.844243 0
M  V30 5824 C 543.712 1.96868 -0.438833 0
M  V30 5825 C 544.025 1.67599 1.00846 0
M  V30 5826 O 545.231 2.25043 1.51881 0
M  V30 5827 C 543.687 3.5234 -0.73377 0
M  V30 5828 C 543.295 3.90481 -2.1961 0
M  V30 5829 C 545.039 4.22653 -0.395574 0
M  V30 5830 C 542.946 5.38954 -2.43481 0
M  V30 5831 H 541.876 0.736749 -0.160364 0
M  V30 5832 H 544.527 1.51623 -1.03358 0
M  V30 5833 H 542.909 3.95941 -0.068589 0
M  V30 5834 H 544.083 3.57922 -2.90221 0
M  V30 5835 H 542.398 3.33165 -2.4978 0
M  V30 5836 H 544.995 5.31848 -0.551477 0
M  V30 5837 H 545.338 4.11004 0.661921 0
M  V30 5838 H 545.871 3.84601 -1.01621 0
M  V30 5839 H 542.61 5.55612 -3.47816 0
M  V30 5840 H 542.13 5.72954 -1.77437 0
M  V30 5841 H 543.809 6.05907 -2.26905 0
M  V30 5842 N 543.941 0.601185 1.45683 0
M  V30 5843 C 545.171 0.0999093 2.06358 0
M  V30 5844 C 545.579 -1.21831 1.44754 0
M  V30 5845 O 544.922 -1.75157 0.553695 0
M  V30 5846 C 544.984 -0.12085 3.59297 0
M  V30 5847 C 544.648 1.11459 4.432 0
M  V30 5848 C 545.645 2.03118 4.7858 0
M  V30 5849 C 543.33 1.34162 4.84051 0
M  V30 5850 C 545.324 3.15814 5.53661 0
M  V30 5851 C 543.011 2.4716 5.58888 0
M  V30 5852 C 544.009 3.37814 5.93608 0
M  V30 5853 O 543.697 4.48846 6.66928 0
M  V30 5854 H 543.429 0.0630316 0.673055 0
M  V30 5855 H 545.983 0.826982 1.88016 0
M  V30 5856 H 544.213 -0.902744 3.76015 0
M  V30 5857 H 545.902 -0.572925 4.01836 0
M  V30 5858 H 546.668 1.86801 4.47583 0
M  V30 5859 H 542.547 0.645018 4.56465 0
M  V30 5860 H 546.091 3.86596 5.8068 0
M  V30 5861 H 541.988 2.63432 5.89299 0
M  V30 5862 H 542.756 4.47446 6.85371 0
M  V30 5863 N 545.419 -1.53889 0.339982 0
M  V30 5864 C 546.647 -2.05271 -0.259114 0
M  V30 5865 C 547.062 -1.21517 -1.44496 0
M  V30 5866 O 546.419 -0.24966 -1.80784 0
M  V30 5867 C 546.47 -3.55092 -0.677634 0
M  V30 5868 O 546.191 -4.35667 0.461051 0
M  V30 5869 C 547.692 -4.22631 -1.33782 0
M  V30 5870 H 544.912 -0.669085 -0.0506566 0
M  V30 5871 H 547.456 -1.9852 0.490935 0
M  V30 5872 H 545.611 -3.62077 -1.37763 0
M  V30 5873 H 546.025 -5.24343 0.128144 0
M  V30 5874 H 547.499 -5.28861 -1.58145 0
M  V30 5875 H 547.976 -3.74758 -2.29027 0
M  V30 5876 H 548.582 -4.19829 -0.679957 0
M  V30 5877 N 546.897 -0.0685191 -1.57451 0
M  V30 5878 C 547.83 0.935736 -2.08133 0
M  V30 5879 C 548.808 1.29317 -0.985698 0
M  V30 5880 O 549.992 1.40304 -1.25886 0
M  V30 5881 C 547.119 2.2448 -2.53627 0
M  V30 5882 C 546.165 2.03917 -3.74593 0
M  V30 5883 S 546.998 1.30154 -5.19442 0
M  V30 5884 C 548.154 2.62346 -5.68265 0
M  V30 5885 H 548.387 0.504473 -2.92989 0
M  V30 5886 H 545.92 0.144169 -1.53725 0
M  V30 5887 H 547.878 2.99718 -2.80499 0
M  V30 5888 H 546.539 2.64731 -1.69045 0
M  V30 5889 H 545.732 3.00788 -4.04404 0
M  V30 5890 H 545.334 1.36815 -3.48077 0
M  V30 5891 H 547.626 3.58448 -5.7491 0
M  V30 5892 H 548.569 2.3715 -6.67207 0
M  V30 5893 H 548.977 2.69401 -4.96068 0
M  V30 5894 N 548.375 1.56261 0.205012 0
M  V30 5895 C 549.6 1.84491 0.947512 0
M  V30 5896 C 550.025 0.650894 1.76479 0
M  V30 5897 O 549.383 -0.40035 1.76824 0
M  V30 5898 C 549.431 3.10863 1.82747 0
M  V30 5899 O 548.535 2.90719 2.925 0
M  V30 5900 H 547.876 0.607783 0.267386 0
M  V30 5901 H 550.406 2.03485 0.213323 0
M  V30 5902 H 550.416 3.41399 2.23407 0
M  V30 5903 H 549.091 3.97392 1.2269 0
M  V30 5904 H 547.668 2.71457 2.55667 0
M  V30 5905 N 549.853 -0.472356 1.50355 0
M  V30 5906 C 550.801 -1.59126 1.69651 0
M  V30 5907 C 551.795 -1.59793 0.56237 0
M  V30 5908 O 553.001 -1.63957 0.742832 0
M  V30 5909 H 549.376 -0.528008 0.535454 0
M  V30 5910 H 551.347 -1.40013 2.63513 0
M  V30 5911 C 550.096 -2.97075 1.8067 0
M  V30 5912 H 549.419 -2.9728 2.67329 0
M  V30 5913 H 550.859 -3.74825 1.98197 0
M  V30 5914 C 549.318 -3.32247 0.558016 0
M  V30 5915 O 549.848 -4.00553 -0.303399 0
M  V30 5916 N 548.054 -2.87659 0.412415 0
M  V30 5917 H 547.601 -2.32246 1.11443 0
M  V30 5918 H 547.559 -3.11556 -0.421908 0
M  V30 5919 N 551.331 -1.39911 -0.725443 0
M  V30 5920 C 552.241 -1.41688 -1.8698 0
M  V30 5921 C 553.257 -0.310579 -1.71206 0
M  V30 5922 O 554.433 -0.55359 -1.93642 0
M  V30 5923 C 551.498 -1.26811 -3.22676 0
M  V30 5924 C 550.559 -2.47497 -3.50776 0
M  V30 5925 C 549.792 -2.3332 -4.79997 0
M  V30 5926 O 550.015 -1.34175 -5.54394 0
M  V30 5927 O 548.949 -3.22498 -5.08211 0
M  V30 5928 H 552.775 -2.38171 -1.88436 0
M  V30 5929 H 550.36 -1.21128 -0.874548 0
M  V30 5930 H 552.242 -1.20684 -4.03749 0
M  V30 5931 H 550.917 -0.334289 -3.21969 0
M  V30 5932 H 549.824 -2.59201 -2.69751 0
M  V30 5933 H 551.157 -3.39606 -3.5627 0
M  V30 5934 N 552.809 0.956637 -1.25245 0
M  V30 5935 C 554.086 1.67716 -1.00651 0
M  V30 5936 C 554.466 2.0585 0.467866 0
M  V30 5937 O 553.814 1.77029 1.44475 0
M  V30 5938 C 554.024 2.90093 -1.94028 0
M  V30 5939 C 555.372 3.6209 -2.21756 0
M  V30 5940 O 556.396 3.00171 -1.9177 0
M  V30 5941 O 555.255 4.7358 -2.72735 0
M  V30 5942 H 552.349 0.733731 -0.381533 0
M  V30 5943 H 554.895 1.00974 -1.3639 0
M  V30 5944 H 553.667 2.58689 -2.93591 0
M  V30 5945 H 553.29 3.64566 -1.58674 0
M  V30 5946 N 554.287 1.06798 1.15896 0
M  V30 5947 C 555.534 0.787767 1.86549 0
M  V30 5948 C 555.862 -0.685959 1.82002 0
M  V30 5949 O 555.117 -1.5188 1.23414 0
M  V30 5950 C 555.416 1.23414 3.35416 0
M  V30 5951 C 555.082 2.71285 3.6016 0
M  V30 5952 C 553.744 3.11676 3.66622 0
M  V30 5953 C 556.096 3.6676 3.7032 0
M  V30 5954 C 553.424 4.4637 3.8075 0
M  V30 5955 C 555.776 5.01209 3.8597 0
M  V30 5956 C 554.44 5.41229 3.90676 0
M  V30 5957 H 553.71 0.288264 0.682631 0
M  V30 5958 H 556.357 1.338 1.37003 0
M  V30 5959 H 554.662 0.60319 3.87129 0
M  V30 5960 H 556.359 0.994298 3.88477 0
M  V30 5961 H 552.949 2.39015 3.55767 0
M  V30 5962 H 557.133 3.36685 3.64633 0
M  V30 5963 H 552.389 4.76855 3.82648 0
M  V30 5964 H 556.563 5.75067 3.92773 0
M  V30 5965 H 554.19 6.45602 4.01375 0
M  V30 5966 N 555.766 -1.3263 0.851289 0
M  V30 5967 C 556.713 -2.28952 0.291469 0
M  V30 5968 C 557.683 -1.54897 -0.599676 0
M  V30 5969 O 558.868 -1.83137 -0.535305 0
M  V30 5970 C 556.008 -3.41206 -0.516992 0
M  V30 5971 C 555.121 -4.30148 0.399566 0
M  V30 5972 C 554.256 -5.29527 -0.4212 0
M  V30 5973 C 553.295 -6.10112 0.492969 0
M  V30 5974 N 552.432 -7.01499 -0.290414 0
M  V30 5975 H 557.272 -2.76228 1.11813 0
M  V30 5976 H 554.809 -1.35907 0.562826 0
M  V30 5977 H 556.767 -4.05005 -1.00132 0
M  V30 5978 H 555.397 -2.9509 -1.30851 0
M  V30 5979 H 554.449 -3.66959 1.00227 0
M  V30 5980 H 555.761 -4.8649 1.1013 0
M  V30 5981 H 554.915 -5.98914 -0.968832 0
M  V30 5982 H 553.654 -4.73794 -1.15632 0
M  V30 5983 H 552.659 -5.39632 1.05251 0
M  V30 5984 H 553.884 -6.6793 1.22664 0
M  V30 5985 H 551.83 -6.48199 -1.00868 0
M  V30 5986 H 551.747 -7.55178 0.352354 0
M  V30 5987 H 553.015 -7.75176 -0.819882 0
M  V30 5988 N 557.244 -0.608902 -1.45362 0
M  V30 5989 C 558.176 0.147318 -2.28726 0
M  V30 5990 C 559.189 0.830468 -1.40025 0
M  V30 5991 O 560.378 0.695636 -1.64387 0
M  V30 5992 C 557.478 1.22968 -3.15804 0
M  V30 5993 C 556.651 0.633391 -4.3279 0
M  V30 5994 C 555.71 1.60682 -5.01067 0
M  V30 5995 O 554.736 1.13261 -5.57818 0
M  V30 5996 N 555.938 2.94123 -5.00472 0
M  V30 5997 H 558.703 -0.568014 -2.94268 0
M  V30 5998 H 556.264 -0.448479 -1.55564 0
M  V30 5999 H 558.256 1.88072 -3.58345 0
M  V30 6000 H 556.826 1.84752 -2.52162 0
M  V30 6001 H 556.046 -0.195762 -3.93714 0
M  V30 6002 H 557.334 0.215255 -5.08344 0
M  V30 6003 H 556.732 3.3525 -4.55657 0
M  V30 6004 H 555.289 3.54646 -5.46872 0
M  V30 6005 N 558.722 1.53707 -0.348139 0
M  V30 6006 C 559.685 2.23812 0.494058 0
M  V30 6007 C 560.685 1.23989 1.02388 0
M  V30 6008 O 561.875 1.48395 0.912396 0
M  V30 6009 C 559.007 2.96133 1.68872 0
M  V30 6010 H 560.2 2.99663 -0.119141 0
M  V30 6011 H 557.753 1.55983 -0.0995539 0
M  V30 6012 H 558.488 2.24481 2.34049 0
M  V30 6013 H 558.273 3.69357 1.31596 0
M  V30 6014 H 559.763 3.49475 2.28597 0
M  V30 6015 N 560.2 0.0768682 1.57412 0
M  V30 6016 C 561.447 -0.591085 1.93681 0
M  V30 6017 C 561.775 -1.69311 0.957286 0
M  V30 6018 O 561.03 -1.95682 -0.0262428 0
M  V30 6019 C 561.329 -1.20268 3.36557 0
M  V30 6020 C 560.995 -0.226286 4.50332 0
M  V30 6021 C 559.657 0.0423142 4.81181 0
M  V30 6022 C 562.009 0.441415 5.19327 0
M  V30 6023 C 559.337 0.985616 5.78362 0
M  V30 6024 C 561.689 1.37307 6.17519 0
M  V30 6025 C 560.353 1.65009 6.46783 0
M  V30 6026 H 559.623 -0.216293 0.70873 0
M  V30 6027 H 562.27 0.148824 1.90921 0
M  V30 6028 H 560.575 -2.01844 3.35807 0
M  V30 6029 H 562.272 -1.72688 3.61911 0
M  V30 6030 H 558.862 -0.445821 4.26275 0
M  V30 6031 H 563.046 0.247023 4.95685 0
M  V30 6032 H 558.302 1.20743 5.99359 0
M  V30 6033 H 562.476 1.89637 6.70083 0
M  V30 6034 H 560.103 2.38263 7.21897 0
M  V30 6035 N 561.678 -1.56367 -0.196722 0
M  V30 6036 C 562.628 -1.9082 -1.24787 0
M  V30 6037 C 563.612 -0.773719 -1.41076 0
M  V30 6038 O 564.804 -1.03655 -1.43474 0
M  V30 6039 C 561.933 -2.24982 -2.59303 0
M  V30 6040 C 561.019 -3.44882 -2.46814 0
M  V30 6041 N 561.41 -4.62835 -2.04003 0
M  V30 6042 C 559.708 -3.48988 -2.77711 0
M  V30 6043 C 560.409 -5.44993 -2.03366 0
M  V30 6044 N 559.385 -4.85356 -2.44807 0
M  V30 6045 H 563.187 -2.79516 -0.908175 0
M  V30 6046 H 560.701 -1.57265 -0.405166 0
M  V30 6047 H 562.698 -2.47848 -3.35227 0
M  V30 6048 H 561.358 -1.37611 -2.94098 0
M  V30 6049 H 562.369 -4.87532 -1.74738 0
M  V30 6050 H 559.046 -2.72029 -3.16712 0
M  V30 6051 H 560.436 -6.49464 -1.72181 0
M  V30 6052 N 563.156 0.464375 -1.50603 0
M  V30 6053 C 564.103 1.56152 -1.69956 0
M  V30 6054 C 565.073 1.57046 -0.54091 0
M  V30 6055 O 566.258 1.74473 -0.772258 0
M  V30 6056 C 563.398 2.94079 -1.80586 0
M  V30 6057 C 562.511 3.02923 -3.07996 0
M  V30 6058 C 561.646 4.31806 -3.09382 0
M  V30 6059 C 560.685 4.34417 -4.31218 0
M  V30 6060 N 559.822 5.54782 -4.30304 0
M  V30 6061 H 564.662 1.38955 -2.6362 0
M  V30 6062 H 562.199 0.675482 -1.30674 0
M  V30 6063 H 564.157 3.74073 -1.8473 0
M  V30 6064 H 562.787 3.09896 -0.903556 0
M  V30 6065 H 561.839 2.1576 -3.13292 0
M  V30 6066 H 563.151 3.00712 -3.97962 0
M  V30 6067 H 562.305 5.20153 -3.12292 0
M  V30 6068 H 561.044 4.36636 -2.17257 0
M  V30 6069 H 560.049 3.44467 -4.28512 0
M  V30 6070 H 561.274 4.31273 -5.24576 0
M  V30 6071 H 559.22 5.60384 -3.41037 0
M  V30 6072 H 559.137 5.54339 -5.14047 0
M  V30 6073 H 560.405 6.45235 -4.3737 0
M  V30 6074 N 564.634 1.40294 0.718013 0
M  V30 6075 C 565.564 1.43118 1.84498 0
M  V30 6076 C 566.545 0.292403 1.67568 0
M  V30 6077 O 567.73 0.500675 1.87635 0
M  V30 6078 C 564.86 1.29065 3.22427 0
M  V30 6079 C 563.814 2.40521 3.54025 0
M  V30 6080 C 563.14 2.11546 4.91073 0
M  V30 6081 C 564.44 3.82859 3.55269 0
M  V30 6082 H 566.134 2.37432 1.82391 0
M  V30 6083 H 563.68 1.14283 0.87609 0
M  V30 6084 H 565.633 1.29658 4.00957 0
M  V30 6085 H 564.357 0.312271 3.25104 0
M  V30 6086 H 563.016 2.39173 2.77834 0
M  V30 6087 H 562.664 1.12104 4.90348 0
M  V30 6088 H 562.364 2.86216 5.1318 0
M  V30 6089 H 563.888 2.13817 5.71939 0
M  V30 6090 H 565.302 3.86044 4.23843 0
M  V30 6091 H 563.699 4.57029 3.88902 0
M  V30 6092 H 564.769 4.12617 2.54706 0
M  V30 6093 N 566.112 -0.949982 1.2575 0
M  V30 6094 C 567.361 -1.68956 1.10168 0
M  V30 6095 C 567.674 -1.92327 -0.356309 0
M  V30 6096 O 568.88 -2.64026 -0.632657 0
M  V30 6097 C 567.336 -3.04196 1.92336 0
M  V30 6098 C 566.944 -2.88603 3.42655 0
M  V30 6099 C 568.688 -3.81904 1.85336 0
M  V30 6100 C 566.595 -4.19262 4.17101 0
M  V30 6101 H 565.525 -0.633645 0.408668 0
M  V30 6102 H 568.176 -1.05719 1.49986 0
M  V30 6103 H 566.558 -3.68363 1.45344 0
M  V30 6104 H 567.732 -2.3334 3.97353 0
M  V30 6105 H 566.047 -2.24345 3.50796 0
M  V30 6106 H 568.644 -4.78688 2.38248 0
M  V30 6107 H 568.987 -4.08099 0.822226 0
M  V30 6108 H 569.52 -3.24495 2.30104 0
M  V30 6109 H 566.259 -3.98254 5.20648 0
M  V30 6110 H 565.779 -4.74273 3.67186 0
M  V30 6111 H 567.458 -4.87775 4.25071 0
M  V30 6112 N 567.59 -1.07411 -1.15328 0
M  V30 6113 C 569.006 -0.799759 -1.38116 0
M  V30 6114 C 569.206 0.59572 -1.92493 0
M  V30 6115 O 568.262 1.35433 -2.13106 0
M  V30 6116 C 569.575 -1.87407 -2.35158 0
M  V30 6117 C 571.123 -1.89889 -2.48819 0
M  V30 6118 C 571.598 -2.96406 -3.49153 0
M  V30 6119 N 573.089 -2.95512 -3.56689 0
M  V30 6120 C 573.824 -3.74575 -4.34144 0
M  V30 6121 N 573.32 -4.63488 -5.14928 0
M  V30 6122 N 575.113 -3.62919 -4.29239 0
M  V30 6123 H 567.264 -1.97411 -0.78374 0
M  V30 6124 H 569.527 -0.856113 -0.407154 0
M  V30 6125 H 569.233 -2.8768 -2.0232 0
M  V30 6126 H 569.107 -1.73471 -3.34944 0
M  V30 6127 H 571.494 -0.902677 -2.80955 0
M  V30 6128 H 571.575 -2.07904 -1.49029 0
M  V30 6129 H 571.219 -3.96227 -3.17752 0
M  V30 6130 H 571.149 -2.75638 -4.48699 0
M  V30 6131 H 573.64 -2.31061 -2.99031 0
M  V30 6132 H 573.953 -5.20445 -5.71276 0
M  V30 6133 H 572.298 -4.67537 -5.14232 0
M  V30 6134 H 575.489 -2.92833 -3.65194 0
M  V30 6135 H 575.662 -4.24777 -4.89355 0
M  V30 6136 N 569.068 1.32177 -0.85831 0
M  V30 6137 C 570.315 1.97125 -0.463484 0
M  V30 6138 C 570.643 1.67907 0.981705 0
M  V30 6139 O 569.898 0.961717 1.70439 0
M  V30 6140 C 570.197 3.51372 -0.653658 0
M  V30 6141 C 569.863 4.00584 -2.06987 0
M  V30 6142 C 568.525 4.13733 -2.4572 0
M  V30 6143 C 570.877 4.26624 -2.99402 0
M  V30 6144 C 568.205 4.50268 -3.76132 0
M  V30 6145 C 570.557 4.64618 -4.29316 0
M  V30 6146 C 569.221 4.75975 -4.67979 0
M  V30 6147 H 568.491 0.72133 -0.169601 0
M  V30 6148 H 571.138 1.57517 -1.08907 0
M  V30 6149 H 569.443 3.91761 0.0551328 0
M  V30 6150 H 571.14 3.99655 -0.328163 0
M  V30 6151 H 567.73 3.90837 -1.75911 0
M  V30 6152 H 571.914 4.1597 -2.70708 0
M  V30 6153 H 567.17 4.57256 -4.05865 0
M  V30 6154 H 571.344 4.83722 -5.00985 0
M  V30 6155 H 568.971 5.04041 -5.69076 0
M  V30 6156 N 570.547 0.616602 1.45037 0
M  V30 6157 C 571.494 -0.0969439 2.30596 0
M  V30 6158 C 572.464 -0.851151 1.42635 0
M  V30 6159 O 573.649 -0.835092 1.71554 0
M  V30 6160 C 570.789 -1.08234 3.27688 0
M  V30 6161 C 569.902 -0.328072 4.30752 0
M  V30 6162 C 569.037 -1.30399 5.14946 0
M  V30 6163 C 568.076 -0.538049 6.09731 0
M  V30 6164 N 567.213 -1.46371 6.86673 0
M  V30 6165 H 572.053 0.63864 2.91076 0
M  V30 6166 H 569.59 0.326733 1.43425 0
M  V30 6167 H 571.548 -1.66688 3.82454 0
M  V30 6168 H 570.178 -1.78523 2.68941 0
M  V30 6169 H 569.23 0.372136 3.78575 0
M  V30 6170 H 570.542 0.269142 4.98073 0
M  V30 6171 H 569.696 -1.96032 5.74157 0
M  V30 6172 H 568.435 -1.93514 4.47665 0
M  V30 6173 H 567.44 0.131852 5.49642 0
M  V30 6174 H 568.665 0.0881732 6.79043 0
M  V30 6175 H 566.611 -2.08233 6.22073 0
M  V30 6176 H 566.528 -0.920152 7.50379 0
M  V30 6177 H 567.796 -2.10932 7.50418 0
M  V30 6178 N 572.025 -1.5352 0.356285 0
M  V30 6179 C 573.265 -2.03027 -0.23649 0
M  V30 6180 C 573.629 -1.23813 -1.46746 0
M  V30 6181 O 574.83 -1.63281 -2.13525 0
M  V30 6182 C 573.101 -3.53442 -0.530415 0
M  V30 6183 S 574.66 -4.24836 -1.09819 0
M  V30 6184 H 571.478 -0.707591 -0.0695378 0
M  V30 6185 H 574.08 -1.89077 0.496999 0
M  V30 6186 H 572.784 -4.087 0.373114 0
M  V30 6187 H 572.315 -3.71536 -1.29323 0
M  V30 6188 H 574.33 -4.35228 -2.38309 0
M  V30 6189 N 573.503 -0.0852151 -1.57369 0
M  V30 6190 C 574.731 0.58946 -1.98325 0
M  V30 6191 C 575.146 1.62333 -0.96403 0
M  V30 6192 O 574.503 1.82438 0.0476395 0
M  V30 6193 C 574.554 1.24604 -3.39347 0
M  V30 6194 O 574.275 0.253532 -4.37366 0
M  V30 6195 C 575.776 2.00726 -3.95252 0
M  V30 6196 H 572.996 0.158783 -0.651942 0
M  V30 6197 H 575.54 -0.161584 -2.03861 0
M  V30 6198 H 573.695 1.94808 -3.34856 0
M  V30 6199 H 574.109 0.726207 -5.19448 0
M  V30 6200 H 575.583 2.42039 -4.96106 0
M  V30 6201 H 576.06 2.86919 -3.32527 0
M  V30 6202 H 576.666 1.3536 -4.03185 0
M  V30 6203 N 574.981 1.5647 0.188427 0
M  V30 6204 C 576.206 1.85486 0.927891 0
M  V30 6205 C 576.631 0.669575 1.75779 0
M  V30 6206 O 575.989 -0.381573 1.77239 0
M  V30 6207 C 576.037 3.12784 1.7944 0
M  V30 6208 O 575.141 2.93805 2.894 0
M  V30 6209 H 574.482 0.610585 0.260925 0
M  V30 6210 H 577.012 2.037 0.191729 0
M  V30 6211 H 577.022 3.43749 2.19774 0
M  V30 6212 H 575.697 3.98671 1.18468 0
M  V30 6213 H 574.274 2.74153 2.52774 0
M  V30 6214 O 576.498 -0.333583 1.58017 0
M  V30 6215 H 577.189 -0.982643 1.66925 0
M  V30 END ATOM
M  V30 BEGIN BOND
M  V30 END BOND
M  V30 END CTAB
M  END
$$$$
