drugbank_target|P00811 Beta-lactamase (DB00456; DB01147; DB01896; DB02094; DB02247; DB02503; DB02588; DB02627; DB02772; DB02797; DB02858; DB03140; DB03437; DB03530; DB03658; DB04035; DB04293; DB04360; DB06922; DB07057; DB07114; DB07541; DB07663; DB07803; DB07823; DB07824; DB07825; DB07850; DB07927; DB08306; DB08336; DB08337; DB08375; DB08551; DB08552; DB08573; DB08623; DB08731)
 OpenBabel12092119523D

  0  0  0     0  0            999 V3000
M  V30 BEGIN CTAB
M  V30 COUNTS 5866 5948 0 0 0
M  V30 BEGIN ATOM
M  V30 1 H -0.908 1.98254 -0.117106 0
M  V30 2 N 0 1.576 0 0
M  V30 3 C 0.933 2.03868 1.02534 0
M  V30 4 C 1.911 0.928543 1.3348 0
M  V30 5 O 3.095 1.19667 1.45644 0
M  V30 6 C 0.222 2.43627 2.35294 0
M  V30 7 C -0.732 3.65373 2.2001 0
M  V30 8 S 0.101 5.13292 1.52614 0
M  V30 9 C 1.257 5.56322 2.86805 0
M  V30 10 H 1.49 2.90518 0.631377 0
M  V30 11 H -0.977 1.52953 0.210867 0
M  V30 12 H 0.981 2.67203 3.11629 0
M  V30 13 H -0.358 1.57376 2.7183 0
M  V30 14 H -1.165 3.90944 3.18086 0
M  V30 15 H -1.563 3.418 1.51819 0
M  V30 16 H 0.729 5.58782 3.83104 0
M  V30 17 H 1.672 6.56266 2.65933 0
M  V30 18 H 2.08 4.83886 2.90714 0
M  V30 19 N 1.4781 -0.272755 1.55222 0
M  V30 20 C 2.7251 -1.00433 1.7584 0
M  V30 21 C 3.0531 -1.86275 0.559629 0
M  V30 22 O 2.3081 -1.90269 -0.457857 0
M  V30 23 C 2.6071 -1.91642 3.01675 0
M  V30 24 C 2.2731 -1.21548 4.34208 0
M  V30 25 C 0.9351 -1.02166 4.70229 0
M  V30 26 C 3.2871 -0.716684 5.16249 0
M  V30 27 C 0.6151 -0.316334 5.85847 0
M  V30 28 C 2.9671 -0.0249476 6.32595 0
M  V30 29 C 1.6311 0.180579 6.67256 0
M  V30 30 H 0.9011 -0.367509 0.643443 0
M  V30 31 H 3.5481 -0.276596 1.89492 0
M  V30 32 H 1.8531 -2.71037 2.82924 0
M  V30 33 H 3.5501 -2.48369 3.14824 0
M  V30 34 H 0.1401 -1.37645 4.05896 0
M  V30 35 H 4.3241 -0.854047 4.88896 0
M  V30 36 H -0.4199 -0.146378 6.11225 0
M  V30 37 H 3.7541 0.369311 6.9542 0
M  V30 38 H 1.3811 0.729098 7.56696 0
M  V30 39 N 2.9562 -1.48159 -0.537278 0
M  V30 40 C 3.9032 -1.62138 -1.64256 0
M  V30 41 C 4.8732 -0.463668 -1.59497 0
M  V30 42 O 6.0582 -0.686241 -1.78032 0
M  V30 43 C 3.1982 -1.66028 -3.02537 0
M  V30 44 C 2.3112 -2.92855 -3.17585 0
M  V30 45 C 1.4462 -2.87952 -4.46382 0
M  V30 46 C 0.4852 -4.09516 -4.54932 0
M  V30 47 N -0.3778 -4.02733 -5.75109 0
M  V30 48 H 4.4622 -2.56529 -1.51647 0
M  V30 49 H 1.9992 -1.27224 -0.738414 0
M  V30 50 H 3.9572 -1.66265 -3.82638 0
M  V30 51 H 2.5872 -0.751331 -3.13934 0
M  V30 52 H 1.6392 -3.02395 -2.30784 0
M  V30 53 H 2.9512 -3.82822 -3.19764 0
M  V30 54 H 2.1052 -2.8655 -5.34765 0
M  V30 55 H 0.8442 -1.95702 -4.46712 0
M  V30 56 H -0.1508 -4.11201 -3.64957 0
M  V30 57 H 1.0742 -5.02917 -4.56346 0
M  V30 58 H -0.9798 -3.13299 -5.76351 0
M  V30 59 H -1.0628 -4.86397 -5.78752 0
M  V30 60 H 0.2052 -4.05379 -6.65799 0
M  V30 61 N 4.4343 0.785586 -1.36625 0
M  V30 62 C 5.6623 1.57448 -1.3423 0
M  V30 63 C 6.0773 1.88649 0.0755653 0
M  V30 64 O 5.4343 1.50414 1.03354 0
M  V30 65 C 5.4853 2.89316 -2.16745 0
M  V30 66 O 5.2063 2.59459 -3.53005 0
M  V30 67 C 6.7073 3.83606 -2.22174 0
M  V30 68 H 3.9273 0.488226 -0.4603 0
M  V30 69 H 6.4713 0.974733 -1.79775 0
M  V30 70 H 4.6263 3.4575 -1.74745 0
M  V30 71 H 5.0403 3.43804 -3.96105 0
M  V30 72 H 6.5143 4.73181 -2.8426 0
M  V30 73 H 6.9913 4.21734 -1.22627 0
M  V30 74 H 7.5973 3.33104 -2.64427 0
M  V30 75 N 5.9124 1.20967 1.01018 0
M  V30 76 C 7.1404 1.04956 1.78303 0
M  V30 77 C 7.5554 -0.400915 1.84494 0
M  V30 78 O 6.9124 -1.27826 1.30257 0
M  V30 79 C 6.9634 1.63403 3.22462 0
M  V30 80 O 6.6844 3.02775 3.16637 0
M  V30 81 C 8.1854 1.52432 4.16268 0
M  V30 82 H 5.4054 0.368858 0.560522 0
M  V30 83 H 7.9494 1.60193 1.27116 0
M  V30 84 H 6.1044 1.1227 3.70775 0
M  V30 85 H 6.5184 3.30626 4.07169 0
M  V30 86 H 7.9924 1.98078 5.15237 0
M  V30 87 H 8.4694 0.477875 4.36592 0
M  V30 88 H 9.0754 2.02787 3.73841 0
M  V30 89 N 7.3905 -1.2043 1.01659 0
M  V30 90 C 8.3205 -2.25466 0.607226 0
M  V30 91 C 9.3015 -1.65853 -0.377716 0
M  V30 92 O 10.4865 -1.92409 -0.263149 0
M  V30 93 C 7.6165 -3.47256 -0.0552949 0
M  V30 94 C 6.5705 -4.19462 0.850632 0
M  V30 95 C 5.8965 -5.34673 0.0538859 0
M  V30 96 C 7.1965 -4.75603 2.15868 0
M  V30 97 H 8.8905 -2.59962 1.48526 0
M  V30 98 H 6.4365 -1.2496 0.715605 0
M  V30 99 H 8.3895 -4.19917 -0.353233 0
M  V30 100 H 7.1135 -3.11924 -0.968045 0
M  V30 101 H 5.7725 -3.48667 1.13257 0
M  V30 102 H 5.4205 -4.95585 -0.860514 0
M  V30 103 H 5.1205 -5.83913 0.657192 0
M  V30 104 H 6.6445 -6.10138 -0.237598 0
M  V30 105 H 8.0585 -5.40083 1.92311 0
M  V30 106 H 6.4555 -5.3528 2.71284 0
M  V30 107 H 7.5255 -3.94346 2.82169 0
M  V30 108 N 8.8686 -0.792821 -1.36206 0
M  V30 109 C 10.1086 -0.372238 -2.00982 0
M  V30 110 C 10.4726 1.03749 -1.61555 0
M  V30 111 O 11.6736 1.55934 -2.18948 0
M  V30 112 C 9.9446 -0.534566 -3.5338 0
M  V30 113 S 11.5036 -0.202365 -4.38333 0
M  V30 114 H 8.3216 -0.142044 -0.696667 0
M  V30 115 H 10.9236 -1.03206 -1.66039 0
M  V30 116 H 9.6276 -1.5608 -3.79562 0
M  V30 117 H 9.1586 0.141065 -3.93147 0
M  V30 118 H 11.1736 0.994869 -4.86124 0
M  V30 119 N 10.3467 1.47872 -0.545128 0
M  V30 120 C 11.3097 2.28337 0.198717 0
M  V30 121 C 12.3097 1.36255 0.853888 0
M  V30 122 O 13.4997 1.59003 0.711606 0
M  V30 123 C 10.6317 3.15585 1.28915 0
M  V30 124 H 11.8247 2.95567 -0.507941 0
M  V30 125 H 9.3777 1.53362 -0.301616 0
M  V30 126 H 10.1127 2.53019 2.02859 0
M  V30 127 H 9.8977 3.83337 0.824309 0
M  V30 128 H 11.3877 3.76243 1.81194 0
M  V30 129 N 11.8248 0.280983 1.55075 0
M  V30 130 C 12.7548 -0.597469 2.25727 0
M  V30 131 C 13.7358 -1.15417 1.24952 0
M  V30 132 O 14.9208 -1.18722 1.53684 0
M  V30 133 C 12.0508 -1.7789 2.98283 0
M  V30 134 C 11.0048 -1.35347 4.06036 0
M  V30 135 C 10.3308 -2.61846 4.66198 0
M  V30 136 C 11.6308 -0.499354 5.19907 0
M  V30 137 H 13.3248 -0.00824265 2.99399 0
M  V30 138 H 10.8708 -0.0025244 1.44 0
M  V30 139 H 12.8238 -2.39937 3.46422 0
M  V30 140 H 11.5478 -2.39405 2.22155 0
M  V30 141 H 10.2068 -0.756156 3.58717 0
M  V30 142 H 9.8548 -3.21632 3.86732 0
M  V30 143 H 9.5548 -2.3409 5.38958 0
M  V30 144 H 11.0788 -3.24732 5.1709 0
M  V30 145 H 12.4928 -1.02498 5.64063 0
M  V30 146 H 10.8898 -0.316424 5.99265 0
M  V30 147 H 11.9598 0.480459 4.82514 0
M  V30 148 N 13.3029 -1.57598 0.00835791 0
M  V30 149 C 14.2329 -2.1198 -0.979113 0
M  V30 150 C 15.2139 -1.03091 -1.35301 0
M  V30 151 O 16.3989 -1.30818 -1.43528 0
M  V30 152 C 13.5289 -2.62995 -2.26828 0
M  V30 153 C 12.4829 -3.76485 -2.03576 0
M  V30 154 C 11.8089 -4.13846 -3.38579 0
M  V30 155 C 13.1089 -5.0342 -1.39161 0
M  V30 156 H 14.8029 -2.94738 -0.526281 0
M  V30 157 H 12.3489 -1.41783 -0.251704 0
M  V30 158 H 14.3019 -2.99669 -2.96271 0
M  V30 159 H 13.0259 -1.7737 -2.7424 0
M  V30 160 H 11.6849 -3.40217 -1.36557 0
M  V30 161 H 11.3329 -3.25232 -3.83709 0
M  V30 162 H 11.0329 -4.90312 -3.23834 0
M  V30 163 H 12.5569 -4.53086 -4.09323 0
M  V30 164 H 13.9709 -5.37812 -1.98573 0
M  V30 165 H 12.3679 -5.84746 -1.34878 0
M  V30 166 H 13.4379 -4.83548 -0.361868 0
M  V30 167 N 14.781 0.264519 -1.55364 0
M  V30 168 C 16.03 0.992812 -1.75574 0
M  V30 169 C 16.343 1.87142 -0.568979 0
M  V30 170 O 17.549 2.63513 -0.653682 0
M  V30 171 C 16.005 1.81519 -3.10771 0
M  V30 172 C 15.613 0.984839 -4.37041 0
M  V30 173 C 17.357 2.53727 -3.40327 0
M  V30 174 C 15.264 1.80209 -5.63275 0
M  V30 175 H 14.194 0.374412 -0.65447 0
M  V30 176 H 16.845 0.248138 -1.81815 0
M  V30 177 H 15.227 2.60115 -2.98591 0
M  V30 178 H 16.401 0.242455 -4.60162 0
M  V30 179 H 14.716 0.37691 -4.14691 0
M  V30 180 H 17.313 3.15292 -4.3185 0
M  V30 181 H 17.656 3.24447 -2.60845 0
M  V30 182 H 18.189 1.82156 -3.53644 0
M  V30 183 H 14.928 1.13896 -6.45529 0
M  V30 184 H 14.448 2.52022 -5.44284 0
M  V30 185 H 16.127 2.37364 -6.01887 0
M  V30 186 N 16.2591 1.48442 0.529413 0
M  V30 187 C 17.4871 1.60151 1.30994 0
M  V30 188 C 17.9021 0.261985 1.86973 0
M  V30 189 O 17.2591 -0.748805 1.66431 0
M  V30 190 C 17.3101 2.64854 2.46038 0
M  V30 191 O 17.0311 3.93608 1.92365 0
M  V30 192 C 18.5321 2.87007 3.37849 0
M  V30 193 H 15.7521 0.539971 0.398338 0
M  V30 194 H 18.2961 1.94273 0.638597 0
M  V30 195 H 16.4511 2.33589 3.09055 0
M  V30 196 H 16.8651 4.51055 2.67675 0
M  V30 197 H 18.3391 3.64068 4.14919 0
M  V30 198 H 18.8161 1.95852 3.93114 0
M  V30 199 H 19.4221 3.19579 2.80623 0
M  V30 200 N 17.7372 -0.778329 1.37039 0
M  V30 201 C 18.7002 -1.87301 1.32102 0
M  V30 202 C 19.7002 -1.59198 0.226405 0
M  V30 203 O 20.8902 -1.67403 0.481861 0
M  V30 204 C 18.0222 -3.24309 1.05055 0
M  V30 205 H 19.2152 -1.93093 2.29467 0
M  V30 206 H 16.7682 -0.977358 1.21973 0
M  V30 207 H 17.5032 -3.24196 0.0819373 0
M  V30 208 H 17.2882 -3.46098 1.84279 0
M  V30 209 H 18.7782 -4.04382 1.04234 0
M  V30 210 N 19.2153 -1.21501 -1.00376 0
M  V30 211 C 20.4403 -1.05977 -1.78279 0
M  V30 212 C 20.8653 0.385994 -1.84097 0
M  V30 213 O 20.2233 1.27849 -1.28547 0
M  V30 214 C 20.2713 -1.66302 -3.19963 0
M  V30 215 O 19.3753 -0.909333 -4.0225 0
M  V30 216 H 18.7163 -0.372906 -0.549397 0
M  V30 217 H 21.2463 -1.6107 -1.26165 0
M  V30 218 H 21.2563 -1.70574 -3.70632 0
M  V30 219 H 19.9313 -2.71515 -3.15043 0
M  V30 220 H 18.5083 -0.941795 -3.60811 0
M  V30 221 N 20.6934 1.19889 -1.02296 0
M  V30 222 C 21.9334 1.91125 -0.724602 0
M  V30 223 C 22.2974 1.77464 0.732835 0
M  V30 224 O 23.4984 2.43241 1.144 0
M  V30 225 C 21.7694 3.38187 -1.15604 0
M  V30 226 S 23.3284 4.27702 -0.980621 0
M  V30 227 H 20.1464 0.66018 -0.263976 0
M  V30 228 H 22.7484 1.44978 -1.31155 0
M  V30 229 H 21.4524 3.45653 -2.21251 0
M  V30 230 H 20.9834 3.89363 -0.562131 0
M  V30 231 H 22.9984 4.96073 0.112225 0
M  V30 232 N 22.1715 0.800033 1.35784 0
M  V30 233 C 23.3965 0.388511 2.03729 0
M  V30 234 C 23.8215 -0.990481 1.5991 0
M  V30 235 O 23.1795 -1.64013 0.772612 0
M  V30 236 C 23.2275 0.4726 3.5749 0
M  V30 237 O 22.3315 -0.51646 4.09153 0
M  V30 238 H 21.6725 0.163271 0.643614 0
M  V30 239 H 24.2025 1.0841 1.73518 0
M  V30 240 H 24.2125 0.34003 4.06581 0
M  V30 241 H 22.8875 1.47848 3.88734 0
M  V30 242 H 21.4645 -0.344673 3.71304 0
M  V30 243 N 23.6496 -1.47581 0.552962 0
M  V30 244 C 24.8776 -2.06875 0.0320556 0
M  V30 245 C 25.2926 -1.40625 -1.25976 0
M  V30 246 O 24.6496 -0.501349 -1.75479 0
M  V30 247 C 24.7006 -3.61092 -0.17167 0
M  V30 248 O 24.4216 -4.24858 1.06899 0
M  V30 249 C 25.9226 -4.37242 -0.730344 0
M  V30 250 H 23.1426 -0.669561 0.043915 0
M  V30 251 H 25.6866 -1.89646 0.765163 0
M  V30 252 H 23.8416 -3.7785 -0.854894 0
M  V30 253 H 24.2556 -5.17334 0.864059 0
M  V30 254 H 25.7296 -5.45842 -0.822203 0
M  V30 255 H 26.2066 -4.03235 -1.74064 0
M  V30 256 H 26.8126 -4.25219 -0.0829543 0
M  V30 257 N 25.1277 -0.289203 -1.54924 0
M  V30 258 C 26.3747 0.323519 -1.99899 0
M  V30 259 C 26.7027 1.54797 -1.17762 0
M  V30 260 O 25.9577 1.94237 -0.238835 0
M  V30 261 C 26.2567 0.736119 -3.49737 0
M  V30 262 C 25.9227 -0.385276 -4.49251 0
M  V30 263 C 24.5847 -0.693156 -4.76181 0
M  V30 264 C 26.9367 -1.14021 -5.08575 0
M  V30 265 C 24.2647 -1.7593 -5.59701 0
M  V30 266 C 26.6167 -2.19619 -5.93254 0
M  V30 267 C 25.2807 -2.51026 -6.185 0
M  V30 268 H 24.5507 0.118384 -0.731482 0
M  V30 269 H 27.1977 -0.405847 -1.8715 0
M  V30 270 H 25.5027 1.54539 -3.60035 0
M  V30 271 H 27.1997 1.22118 -3.81953 0
M  V30 272 H 23.7897 -0.135202 -4.28387 0
M  V30 273 H 27.9737 -0.915611 -4.87781 0
M  V30 274 H 23.2297 -2.0075 -5.77503 0
M  V30 275 H 27.4037 -2.78581 -6.38252 0
M  V30 276 H 25.0307 -3.33772 -6.83008 0
M  V30 277 N 26.6058 1.57591 -0.0167156 0
M  V30 278 C 27.5688 2.08393 0.954204 0
M  V30 279 C 28.5688 0.996531 1.26198 0
M  V30 280 O 29.7588 1.25858 1.20438 0
M  V30 281 C 26.8908 2.5394 2.27436 0
M  V30 282 H 28.0838 2.95455 0.514451 0
M  V30 283 H 25.6368 1.54582 0.231089 0
M  V30 284 H 26.3718 1.70171 2.76066 0
M  V30 285 H 26.1568 3.33371 2.06412 0
M  V30 286 H 27.6468 2.93512 2.97053 0
M  V30 287 N 28.0839 -0.256276 1.55502 0
M  V30 288 C 29.0469 -1.30047 1.88734 0
M  V30 289 C 30.0469 -1.4154 0.763086 0
M  V30 290 O 31.2369 -1.40403 1.03115 0
M  V30 291 C 28.3689 -2.67953 2.10747 0
M  V30 292 H 29.5619 -1.01802 2.82093 0
M  V30 293 H 27.1149 -0.495134 1.4825 0
M  V30 294 H 27.8499 -3.01351 1.19825 0
M  V30 295 H 27.6349 -2.60993 2.92617 0
M  V30 296 H 29.1249 -3.43368 2.37673 0
M  V30 297 N 29.562 -1.4872 -0.521534 0
M  V30 298 C 30.973 -1.50607 -1.10337 0
M  V30 299 C 31.324 -0.280612 -1.94183 0
M  V30 300 O 30.449 0.611507 -2.0758 0
M  V30 301 C 31.044 -2.72903 -2.00772 0
M  V30 302 C 29.603 -2.77634 -2.54158 0
M  V30 303 C 28.75 -2.44241 -1.31307 0
M  V30 304 H 31.701 -1.55714 -0.306388 0
M  V30 305 H 31.722 -2.519 -2.85178 0
M  V30 306 H 31.234 -3.62077 -1.39721 0
M  V30 307 H 29.335 -1.92689 -3.18907 0
M  V30 308 H 29.448 -3.79283 -2.92714 0
M  V30 309 H 27.812 -1.95577 -1.63161 0
M  V30 310 H 28.595 -3.35666 -0.719943 0
M  V30 311 N 31.0401 0.771051 -1.3745 0
M  V30 312 C 31.9721 1.89352 -1.29146 0
M  V30 313 C 32.9851 1.61477 -0.207124 0
M  V30 314 O 34.1741 1.72382 -0.463324 0
M  V30 315 C 31.2741 3.24596 -0.974195 0
M  V30 316 C 30.4471 3.80111 -2.16413 0
M  V30 317 C 29.5061 4.93832 -1.81703 0
M  V30 318 O 28.5321 5.09382 -2.54006 0
M  V30 319 N 29.7341 5.75483 -0.761573 0
M  V30 320 H 32.4991 1.96991 -2.25864 0
M  V30 321 H 30.0601 0.950191 -1.31084 0
M  V30 322 H 32.0521 3.98193 -0.722828 0
M  V30 323 H 30.6221 3.12454 -0.0955527 0
M  V30 324 H 29.8421 2.98284 -2.57721 0
M  V30 325 H 31.1301 4.13932 -2.95867 0
M  V30 326 H 30.5281 5.65469 -0.161609 0
M  V30 327 H 29.0851 6.49302 -0.570064 0
M  V30 328 N 32.5182 1.22032 0.997298 0
M  V30 329 C 33.4502 0.944263 2.08845 0
M  V30 330 C 34.4632 -0.0754663 1.62625 0
M  V30 331 O 35.6522 0.157994 1.77799 0
M  V30 332 C 32.7522 0.397723 3.36558 0
M  V30 333 C 31.9252 1.47362 4.11829 0
M  V30 334 C 30.9842 0.934951 5.17827 0
M  V30 335 O 30.0102 1.62016 5.45655 0
M  V30 336 N 31.2122 -0.245895 5.79979 0
M  V30 337 H 33.9772 1.88363 2.33109 0
M  V30 338 H 31.5382 1.12661 1.16272 0
M  V30 339 H 33.5302 0.0227771 4.04694 0
M  V30 340 H 32.1002 -0.446646 3.09393 0
M  V30 341 H 31.3202 2.02208 3.38386 0
M  V30 342 H 32.6082 2.19764 4.58891 0
M  V30 343 H 32.0062 -0.819475 5.59733 0
M  V30 344 H 30.5632 -0.562272 6.4937 0
M  V30 345 N 33.9963 -1.19345 1.0293 0
M  V30 346 C 35.2453 -1.88363 0.721256 0
M  V30 347 C 35.5583 -1.80514 -0.753254 0
M  V30 348 O 36.7643 -2.44788 -1.17436 0
M  V30 349 C 35.2203 -3.37872 1.23978 0
M  V30 350 C 34.8283 -3.54278 2.74211 0
M  V30 351 C 36.5723 -4.12365 1.00775 0
M  V30 352 C 34.4793 -4.97682 3.19479 0
M  V30 353 H 33.4093 -0.705484 0.266098 0
M  V30 354 H 36.0603 -1.34928 1.24365 0
M  V30 355 H 34.4423 -3.90707 0.6453 0
M  V30 356 H 35.6163 -3.11769 3.39318 0
M  V30 357 H 33.9313 -2.93174 2.95699 0
M  V30 358 H 36.5283 -5.18119 1.32123 0
M  V30 359 H 36.8713 -4.16263 -0.0554308 0
M  V30 360 H 37.4043 -3.65668 1.56625 0
M  V30 361 H 34.1433 -4.98945 4.25128 0
M  V30 362 H 33.6633 -5.4095 2.591 0
M  V30 363 H 35.3423 -5.66337 3.12845 0
M  V30 364 N 35.4744 -0.807222 -1.35358 0
M  V30 365 C 36.4224 -0.20614 -2.31685 0
M  V30 366 C 37.4164 0.644445 -1.56663 0
M  V30 367 O 38.6224 0.537538 -1.71786 0
M  V30 368 H 34.9974 -0.0479006 -0.750473 0
M  V30 369 H 36.9684 -1.03369 -2.79924 0
M  V30 370 C 35.7174 0.630212 -3.41941 0
M  V30 371 H 35.0404 -0.0149558 -3.99797 0
M  V30 372 H 36.4804 1.01716 -4.11619 0
M  V30 373 C 34.9394 1.79601 -2.85035 0
M  V30 374 O 35.4694 2.89351 -2.78637 0
M  V30 375 N 33.6754 1.60774 -2.42074 0
M  V30 376 H 33.2224 0.715009 -2.47478 0
M  V30 377 H 33.1804 2.38933 -2.04349 0
M  V30 378 N 36.9525 1.47285 -0.560781 0
M  V30 379 C 38.2295 1.9558 0.0277798 0
M  V30 380 C 38.6095 1.5034 1.48192 0
M  V30 381 O 37.9575 0.743882 2.16052 0
M  V30 382 C 38.1675 3.48789 -0.121418 0
M  V30 383 C 39.5155 4.24594 0.0220912 0
M  V30 384 O 40.5395 3.56166 -0.0491439 0
M  V30 385 O 39.3985 5.46217 0.175958 0
M  V30 386 H 36.4925 0.824663 0.0621342 0
M  V30 387 H 39.0385 1.5767 -0.627556 0
M  V30 388 H 37.8105 3.74533 -1.13316 0
M  V30 389 H 37.4335 3.93473 0.571366 0
M  V30 390 N 38.4306 0.297415 1.54768 0
M  V30 391 C 39.6796 -0.313669 1.99246 0
M  V30 392 C 39.9926 -1.55281 1.18942 0
M  V30 393 O 41.1986 -2.23825 1.5367 0
M  V30 394 C 39.6546 -0.609407 3.54703 0
M  V30 395 C 39.2626 0.611192 4.43811 0
M  V30 396 C 41.0066 -1.18188 4.07715 0
M  V30 397 C 38.9136 0.288805 5.90694 0
M  V30 398 H 37.8436 -0.120979 0.744231 0
M  V30 399 H 40.4946 0.40556 1.78962 0
M  V30 400 H 38.8766 -1.38813 3.70873 0
M  V30 401 H 40.0506 1.3875 4.39414 0
M  V30 402 H 38.3656 1.10205 4.01552 0
M  V30 403 H 40.9626 -1.43727 5.15021 0
M  V30 404 H 41.3056 -2.12299 3.58099 0
M  V30 405 H 41.8386 -0.464944 3.95074 0
M  V30 406 H 38.5776 1.19838 6.44453 0
M  V30 407 H 38.0976 -0.450305 5.98107 0
M  V30 408 H 39.7766 -0.110933 6.46905 0
M  V30 409 N 39.9087 -1.5758 0.0250728 0
M  V30 410 C 41.1547 -1.91917 -0.655413 0
M  V30 411 C 41.4877 -0.901433 -1.72011 0
M  V30 412 O 40.7627 0.0764069 -1.9435 0
M  V30 413 C 41.0457 -3.36751 -1.27558 0
M  V30 414 C 40.8987 -4.49258 -0.220719 0
M  V30 415 C 42.2177 -3.81469 -2.19475 0
M  V30 416 H 39.3367 -0.697925 -0.23679 0
M  V30 417 H 41.9787 -1.89825 0.0815036 0
M  V30 418 H 40.1287 -3.38664 -1.90365 0
M  V30 419 H 41.8007 -4.59478 0.409601 0
M  V30 420 H 40.0437 -4.31415 0.454264 0
M  V30 421 H 40.7147 -5.47618 -0.694175 0
M  V30 422 H 43.1907 -3.81266 -1.66659 0
M  V30 423 H 42.0667 -4.83512 -2.59822 0
M  V30 424 H 42.3277 -3.16744 -3.08424 0
M  V30 425 N 41.3868 0.248026 -1.55636 0
M  V30 426 C 42.3368 1.30994 -1.86614 0
M  V30 427 C 43.3208 1.43543 -0.726918 0
M  V30 428 O 44.5128 1.46804 -0.988818 0
M  V30 429 C 41.6418 2.6656 -2.16335 0
M  V30 430 C 40.7278 2.58019 -3.36581 0
M  V30 431 N 41.1188 2.1911 -4.55878 0
M  V30 432 C 39.4168 2.89035 -3.39669 0
M  V30 433 C 40.1178 2.21174 -5.38012 0
M  V30 434 N 39.0938 2.60632 -4.77045 0
M  V30 435 H 42.8958 0.999583 -2.76379 0
M  V30 436 H 40.4098 0.456652 -1.55848 0
M  V30 437 H 42.4068 3.43194 -2.36692 0
M  V30 438 H 41.0668 2.98463 -1.27867 0
M  V30 439 H 42.0778 1.90672 -4.81523 0
M  V30 440 H 38.7548 3.25485 -2.61469 0
M  V30 441 H 40.1448 1.9344 -6.43452 0
M  V30 442 N 42.8649 1.48995 0.513639 0
M  V30 443 C 44.2809 1.35478 0.843682 0
M  V30 444 C 44.4809 0.378213 1.97919 0
M  V30 445 O 43.5369 -0.194689 2.51748 0
M  V30 446 C 44.8499 2.75901 1.1958 0
M  V30 447 C 46.3979 2.84509 1.30474 0
M  V30 448 C 46.8729 4.25671 1.69021 0
M  V30 449 N 48.3639 4.28422 1.76094 0
M  V30 450 C 49.0989 5.34601 2.07338 0
M  V30 451 N 48.5949 6.5104 2.36894 0
M  V30 452 N 50.3879 5.22007 2.08483 0
M  V30 453 H 42.5389 2.11092 -0.235328 0
M  V30 454 H 44.8019 0.947039 -0.0426669 0
M  V30 455 H 44.5079 3.49001 0.434913 0
M  V30 456 H 44.3819 3.10467 2.1422 0
M  V30 457 H 46.7689 2.11655 2.05637 0
M  V30 458 H 46.8499 2.53542 0.339155 0
M  V30 459 H 46.4939 4.99048 0.944135 0
M  V30 460 H 46.4239 4.54094 2.66658 0
M  V30 461 H 48.9149 3.44441 1.55464 0
M  V30 462 H 49.2279 7.2779 2.59887 0
M  V30 463 H 47.5729 6.54287 2.34378 0
M  V30 464 H 50.7639 4.30051 1.84861 0
M  V30 465 H 50.9369 6.04854 2.325 0
M  V30 466 N 44.343 -0.763751 1.37857 0
M  V30 467 C 45.571 -1.55293 1.36718 0
M  V30 468 C 45.986 -1.88745 -0.0455434 0
M  V30 469 O 45.343 -1.52039 -1.00947 0
M  V30 470 C 45.394 -2.85831 2.2132 0
M  V30 471 O 45.115 -2.5381 3.57089 0
M  V30 472 C 46.616 -3.80023 2.28249 0
M  V30 473 H 43.836 -0.480841 0.468009 0
M  V30 474 H 46.38 -0.946009 1.81303 0
M  V30 475 H 44.535 -3.42926 1.80223 0
M  V30 476 H 44.949 -3.37459 4.01524 0
M  V30 477 H 46.423 -4.68599 2.91752 0
M  V30 478 H 46.9 -4.1973 1.2932 0
M  V30 479 H 47.506 -3.28855 2.69693 0
M  V30 480 N 45.8211 -1.22559 -0.990812 0
M  V30 481 C 47.0701 -1.04553 -1.72486 0
M  V30 482 C 47.3831 0.419349 -1.91052 0
M  V30 483 O 48.5891 0.719121 -2.61803 0
M  V30 484 C 47.0451 -1.82231 -3.10355 0
M  V30 485 C 46.6531 -3.32981 -2.99713 0
M  V30 486 C 48.3971 -1.7268 -3.87791 0
M  V30 487 C 46.3041 -4.03091 -4.32748 0
M  V30 488 H 45.2341 -0.387614 -0.646739 0
M  V30 489 H 47.8851 -1.46429 -1.10593 0
M  V30 490 H 46.2671 -1.33155 -3.72942 0
M  V30 491 H 47.4411 -3.89466 -2.46278 0
M  V30 492 H 45.7561 -3.43231 -2.35758 0
M  V30 493 H 48.3531 -2.22381 -4.86262 0
M  V30 494 H 48.6961 -0.687607 -4.10582 0
M  V30 495 H 49.2291 -2.1931 -3.31885 0
M  V30 496 H 45.9681 -5.07273 -4.15156 0
M  V30 497 H 45.4881 -3.51394 -4.86089 0
M  V30 498 H 47.1671 -4.08804 -5.01486 0
M  V30 499 N 47.2992 1.18797 -1.03562 0
M  V30 500 C 48.5272 1.92599 -0.755869 0
M  V30 501 C 48.9422 1.75886 0.686271 0
M  V30 502 O 48.2992 1.08517 1.46732 0
M  V30 503 C 48.3502 3.44159 -1.10619 0
M  V30 504 O 48.0712 3.60341 -2.4917 0
M  V30 505 C 49.5722 4.3507 -0.850214 0
M  V30 506 H 46.7922 0.611587 -0.276048 0
M  V30 507 H 49.3362 1.50742 -1.38192 0
M  V30 508 H 47.4912 3.83823 -0.525194 0
M  V30 509 H 47.9052 4.54128 -2.62427 0
M  V30 510 H 49.3792 5.39989 -1.14523 0
M  V30 511 H 49.8562 4.38673 0.215176 0
M  V30 512 H 50.4622 4.01097 -1.41426 0
M  V30 513 N 48.7773 0.814389 1.34928 0
M  V30 514 C 50.1883 0.458364 1.80986 0
M  V30 515 C 50.5393 -1.02042 1.67577 0
M  V30 516 O 49.6643 -1.79352 1.21086 0
M  V30 517 C 50.2593 0.825212 3.28597 0
M  V30 518 C 48.8183 0.521677 3.72767 0
M  V30 519 C 47.9653 1.04668 2.56788 0
M  V30 520 H 50.9163 1.00533 1.22795 0
M  V30 521 H 50.9373 0.12571 3.80292 0
M  V30 522 H 50.4493 1.90154 3.38324 0
M  V30 523 H 48.5503 -0.545589 3.68584 0
M  V30 524 H 48.6633 1.05977 4.67232 0
M  V30 525 H 47.0273 0.468622 2.50352 0
M  V30 526 H 47.8103 2.12927 2.6929 0
M  V30 527 N 50.2554 -1.46986 0.568584 0
M  V30 528 C 51.1854 -2.32946 -0.160753 0
M  V30 529 C 52.1664 -1.44487 -0.897631 0
M  V30 530 O 53.3514 -1.73327 -0.875867 0
M  V30 531 C 50.4814 -3.26494 -1.18403 0
M  V30 532 C 49.4354 -4.24282 -0.562895 0
M  V30 533 C 48.7614 -5.07236 -1.69163 0
M  V30 534 C 50.0614 -5.19989 0.490761 0
M  V30 535 H 51.7554 -2.94175 0.556916 0
M  V30 536 H 49.3014 -1.4146 0.26927 0
M  V30 537 H 51.2544 -3.85477 -1.70251 0
M  V30 538 H 49.9784 -2.63343 -1.93179 0
M  V30 539 H 48.6374 -3.66541 -0.0656164 0
M  V30 540 H 48.2854 -4.4048 -2.42871 0
M  V30 541 H 47.9854 -5.7345 -1.28174 0
M  V30 542 H 49.5094 -5.6908 -2.21314 0
M  V30 543 H 50.9234 -5.73271 0.0579047 0
M  V30 544 H 49.3204 -5.94469 0.820165 0
M  V30 545 H 50.3904 -4.64777 1.3824 0
M  V30 546 N 51.7335 -0.305618 -1.54608 0
M  V30 547 C 52.9825 0.303098 -1.9941 0
M  V30 548 C 53.2955 1.54648 -1.19764 0
M  V30 549 O 54.5015 2.23007 -1.54855 0
M  V30 550 C 52.9575 0.590588 -3.55021 0
M  V30 551 C 52.5655 -0.634719 -4.43481 0
M  V30 552 C 54.3095 1.16025 -4.08336 0
M  V30 553 C 52.2165 -0.320126 -5.90533 0
M  V30 554 H 51.1465 0.117031 -0.744862 0
M  V30 555 H 53.7975 -0.415045 -1.78745 0
M  V30 556 H 52.1795 1.36845 -3.71604 0
M  V30 557 H 53.3535 -1.41079 -4.38672 0
M  V30 558 H 51.6685 -1.12333 -4.00962 0
M  V30 559 H 54.2655 1.40994 -5.15776 0
M  V30 560 H 54.6085 2.10397 -3.5922 0
M  V30 561 H 55.1415 0.443985 -3.95315 0
M  V30 562 H 51.8805 -1.23254 -6.43808 0
M  V30 563 H 51.4005 0.418579 -5.98338 0
M  V30 564 H 53.0795 0.0766241 -6.46955 0
M  V30 565 N 53.2116 1.57565 -0.0334293 0
M  V30 566 C 54.1216 2.13943 0.962572 0
M  V30 567 C 55.1376 1.09276 1.35406 0
M  V30 568 O 56.3136 1.41355 1.4346 0
M  V30 569 C 53.3786 2.65887 2.22497 0
M  V30 570 C 52.4396 3.85286 1.8935 0
M  V30 571 C 51.6726 4.34743 3.09571 0
M  V30 572 O 51.8956 3.83352 4.22371 0
M  V30 573 O 50.8296 5.26538 2.91618 0
M  V30 574 H 54.6556 2.99333 0.513169 0
M  V30 575 H 52.2406 1.4822 0.18743 0
M  V30 576 H 54.1226 2.99346 2.96598 0
M  V30 577 H 52.7976 1.83578 2.6661 0
M  V30 578 H 51.7046 3.56746 1.1262 0
M  V30 579 H 53.0376 4.68771 1.5005 0
M  V30 580 N 54.6897 -0.239769 1.55765 0
M  V30 581 C 55.6217 -1.32001 1.87372 0
M  V30 582 C 56.6347 -1.43944 0.760522 0
M  V30 583 O 57.8237 -1.45167 1.0387 0
M  V30 584 C 54.9237 -2.69779 2.05115 0
M  V30 585 C 54.0967 -2.80014 3.36022 0
M  V30 586 C 53.1557 -3.98684 3.4342 0
M  V30 587 O 52.1817 -3.87877 4.16582 0
M  V30 588 N 53.3837 -5.12176 2.73232 0
M  V30 589 H 56.1487 -1.0522 2.80622 0
M  V30 590 H 53.7097 -0.429857 1.56089 0
M  V30 591 H 55.7017 -3.47517 2.07399 0
M  V30 592 H 54.2717 -2.89237 1.18577 0
M  V30 593 H 53.4917 -1.88896 3.45994 0
M  V30 594 H 54.7797 -2.83808 4.22292 0
M  V30 595 H 54.1777 -5.2385 2.13536 0
M  V30 596 H 52.7347 -5.88022 2.81199 0
M  V30 597 N 56.1678 -1.49265 -0.50573 0
M  V30 598 C 57.0998 -1.617 -1.62437 0
M  V30 599 C 58.1128 -0.499924 -1.54934 0
M  V30 600 O 59.3018 -0.771785 -1.60953 0
M  V30 601 C 56.4018 -1.5533 -3.01207 0
M  V30 602 C 55.5748 -2.8249 -3.33943 0
M  V30 603 C 54.6338 -2.69238 -4.52103 0
M  V30 604 O 53.6598 -3.43167 -4.5412 0
M  V30 605 N 54.8618 -1.80468 -5.51735 0
M  V30 606 H 57.6268 -2.58177 -1.52199 0
M  V30 607 H 55.1878 -1.46294 -0.693511 0
M  V30 608 H 57.1798 -1.44125 -3.78167 0
M  V30 609 H 55.7498 -0.667297 -3.05395 0
M  V30 610 H 54.9698 -3.08081 -2.45926 0
M  V30 611 H 56.2578 -3.66802 -3.5261 0
M  V30 612 H 55.6558 -1.19653 -5.52901 0
M  V30 613 H 54.2128 -1.75188 -6.27816 0
M  V30 614 N 57.6459 0.756429 -1.3826 0
M  V30 615 C 58.5929 1.87011 -1.35261 0
M  V30 616 C 59.5629 1.64695 -0.215616 0
M  V30 617 O 60.7479 1.864 -0.407399 0
M  V30 618 C 57.8879 3.24275 -1.18068 0
M  V30 619 C 57.0009 3.58442 -2.41129 0
M  V30 620 C 56.1359 4.84994 -2.16689 0
M  V30 621 C 55.1749 5.11939 -3.35537 0
M  V30 622 N 54.3119 6.29685 -3.10549 0
M  V30 623 H 59.1519 1.8891 -2.30472 0
M  V30 624 H 56.6889 0.923373 -1.14509 0
M  V30 625 H 58.6469 4.03479 -1.06116 0
M  V30 626 H 57.2769 3.21711 -0.264973 0
M  V30 627 H 56.3289 2.74103 -2.63764 0
M  V30 628 H 57.6409 3.74283 -3.29717 0
M  V30 629 H 56.7949 5.72135 -2.01857 0
M  V30 630 H 55.5339 4.71286 -1.25462 0
M  V30 631 H 54.5389 4.23268 -3.50891 0
M  V30 632 H 55.7639 5.27546 -4.27635 0
M  V30 633 H 53.7099 6.17306 -2.21967 0
M  V30 634 H 53.6269 6.46014 -3.92686 0
M  V30 635 H 54.8949 7.19722 -2.99367 0
M  V30 636 N 59.124 1.23083 0.984299 0
M  V30 637 C 60.373 1.05466 1.71929 0
M  V30 638 C 60.686 -0.409211 1.91272 0
M  V30 639 O 61.892 -0.705226 2.62181 0
M  V30 640 C 60.348 1.83874 3.09384 0
M  V30 641 C 59.956 3.34566 2.97943 0
M  V30 642 C 61.7 1.74734 3.8687 0
M  V30 643 C 59.607 4.05381 4.30605 0
M  V30 644 H 58.537 0.391039 0.644674 0
M  V30 645 H 61.188 1.47013 1.09815 0
M  V30 646 H 59.57 1.35131 3.72231 0
M  V30 647 H 60.744 3.90767 2.44209 0
M  V30 648 H 59.059 3.44476 2.33934 0
M  V30 649 H 61.656 2.24957 4.85076 0
M  V30 650 H 61.999 0.709372 4.10212 0
M  V30 651 H 62.532 2.21067 3.30717 0
M  V30 652 H 59.271 5.09467 4.1246 0
M  V30 653 H 58.791 3.53967 4.84218 0
M  V30 654 H 60.47 4.11458 4.99311 0
M  V30 655 N 60.6021 -1.18246 1.0419 0
M  V30 656 C 62.0131 -1.69914 0.773698 0
M  V30 657 C 62.3641 -1.83085 -0.705297 0
M  V30 658 O 61.4891 -1.51123 -1.5489 0
M  V30 659 C 62.0841 -3.08619 1.39784 0
M  V30 660 C 60.6431 -3.57494 1.17792 0
M  V30 661 C 59.7901 -2.34013 1.48773 0
M  V30 662 H 62.7411 -1.02904 1.20816 0
M  V30 663 H 62.7621 -3.71958 0.801714 0
M  V30 664 H 62.2741 -2.99001 2.47426 0
M  V30 665 H 60.3751 -3.72406 0.120295 0
M  V30 666 H 60.4881 -4.40852 1.87581 0
M  V30 667 H 58.8521 -2.37986 0.907463 0
M  V30 668 H 59.6351 -2.27013 2.57527 0
M  V30 669 N 62.0802 -0.821533 -1.34494 0
M  V30 670 C 63.3282 -0.408139 -1.97936 0
M  V30 671 C 63.6492 1.03193 -1.65457 0
M  V30 672 O 62.9192 1.71622 -0.944595 0
M  V30 673 H 61.4992 -0.147928 -0.732206 0
M  V30 674 H 64.1612 -1.05067 -1.64155 0
M  V30 675 H 63.2572 -0.52601 -3.07635 0
M  V30 676 N 63.5583 1.46682 -0.576371 0
M  V30 677 C 64.4913 2.27243 0.208731 0
M  V30 678 C 65.4693 1.35238 0.902746 0
M  V30 679 O 66.6533 1.64641 0.917904 0
M  V30 680 C 63.7803 3.12802 1.29896 0
M  V30 681 C 62.8263 4.20524 0.711457 0
M  V30 682 S 63.6593 5.33548 -0.456781 0
M  V30 683 C 64.8153 6.22673 0.634798 0
M  V30 684 H 65.0483 2.93484 -0.474838 0
M  V30 685 H 62.5813 1.50069 -0.363118 0
M  V30 686 H 64.5393 3.62661 1.92321 0
M  V30 687 H 63.2003 2.45887 1.95444 0
M  V30 688 H 62.3933 4.80191 1.53076 0
M  V30 689 H 61.9953 3.73645 0.162999 0
M  V30 690 H 64.2873 6.60181 1.52209 0
M  V30 691 H 65.2303 7.0806 0.0750311 0
M  V30 692 H 65.6383 5.56684 0.936092 0
M  V30 693 N 65.0364 0.313813 1.54444 0
M  V30 694 C 65.9994 -0.54379 2.22656 0
M  V30 695 C 66.9994 -1.05124 1.21678 0
M  V30 696 O 68.1894 -0.945225 1.46325 0
M  V30 697 C 65.3214 -1.75427 2.92298 0
M  V30 698 H 66.5144 0.0523599 2.99854 0
M  V30 699 H 64.0674 0.0647834 1.56166 0
M  V30 700 H 64.8024 -2.38991 2.19211 0
M  V30 701 H 64.5874 -1.39791 3.66334 0
M  V30 702 H 66.0774 -2.36325 3.44297 0
M  V30 703 N 66.5145 -1.57545 0.0417849 0
M  V30 704 C 67.7605 -1.92601 -0.635021 0
M  V30 705 C 68.0935 -0.919627 -1.71045 0
M  V30 706 O 67.3685 0.0557892 -1.9442 0
M  V30 707 C 67.6515 -3.38085 -1.23979 0
M  V30 708 C 67.5045 -4.49467 -0.173057 0
M  V30 709 C 68.8235 -3.83776 -2.15416 0
M  V30 710 H 65.9425 -0.700397 -0.229374 0
M  V30 711 H 68.5845 -1.89728 0.101633 0
M  V30 712 H 66.7345 -3.40664 -1.86762 0
M  V30 713 H 68.4065 -4.59018 0.458312 0
M  V30 714 H 66.6495 -4.30909 0.499996 0
M  V30 715 H 67.3205 -5.48323 -0.636054 0
M  V30 716 H 69.7965 -3.83013 -1.62605 0
M  V30 717 H 68.6725 -4.8624 -2.54679 0
M  V30 718 H 68.9335 -3.19998 -3.05047 0
M  V30 719 N 67.9926 0.231505 -1.5589 0
M  V30 720 C 68.9556 1.27028 -1.90779 0
M  V30 721 C 69.9556 1.40308 -0.785507 0
M  V30 722 O 71.1456 1.38744 -1.05336 0
M  V30 723 C 68.2776 2.64566 -2.14983 0
M  V30 724 H 69.4706 0.973017 -2.83677 0
M  V30 725 H 67.0236 0.471486 -1.49019 0
M  V30 726 H 67.7586 2.99406 -1.24604 0
M  V30 727 H 67.5436 2.56305 -2.96732 0
M  V30 728 H 69.0336 3.39543 -2.43105 0
M  V30 729 N 69.4707 1.49531 0.497807 0
M  V30 730 C 70.7167 1.59415 1.25358 0
M  V30 731 C 71.0497 0.281422 1.9215 0
M  V30 732 O 70.3247 -0.715249 1.80871 0
M  V30 733 C 70.6077 2.75566 2.3181 0
M  V30 734 C 70.4607 4.16642 1.69498 0
M  V30 735 C 71.7797 2.87347 3.33346 0
M  V30 736 H 68.8987 0.580244 0.454408 0
M  V30 737 H 71.5407 1.81827 0.551262 0
M  V30 738 H 69.6907 2.56587 2.91711 0
M  V30 739 H 71.3627 4.47145 1.13399 0
M  V30 740 H 69.6057 4.22141 0.998978 0
M  V30 741 H 70.2767 4.93792 2.46725 0
M  V30 742 H 72.7527 3.04634 2.83438 0
M  V30 743 H 71.6287 3.70289 4.05188 0
M  V30 744 H 71.8897 1.96834 3.95865 0
M  V30 745 N 70.9488 -0.749086 1.3866 0
M  V30 746 C 72.1978 -1.50371 1.3443 0
M  V30 747 C 72.5108 -1.95503 -0.0616397 0
M  V30 748 O 73.7168 -2.70554 -0.226489 0
M  V30 749 C 72.1728 -2.71644 2.36088 0
M  V30 750 C 71.7808 -2.3352 3.82325 0
M  V30 751 C 73.5248 -3.49518 2.40909 0
M  V30 752 C 71.4318 -3.51431 4.75658 0
M  V30 753 H 70.3618 -0.564628 0.499712 0
M  V30 754 H 73.0128 -0.818449 1.64237 0
M  V30 755 H 71.3948 -3.42175 1.9933 0
M  V30 756 H 72.5688 -1.70627 4.28046 0
M  V30 757 H 70.8838 -1.6877 3.80665 0
M  V30 758 H 73.4808 -4.37197 3.07836 0
M  V30 759 H 73.8238 -3.90992 1.42937 0
M  V30 760 H 74.3568 -2.86005 2.76489 0
M  V30 761 H 71.0958 -3.15019 5.74842 0
M  V30 762 H 70.6158 -4.13352 4.34627 0
M  V30 763 H 72.2948 -4.17953 4.93887 0
M  V30 764 N 72.4269 -1.23603 -0.977757 0
M  V30 765 C 73.6569 -1.09487 -1.75203 0
M  V30 766 C 74.0649 0.356321 -1.85814 0
M  V30 767 O 73.4079 1.25816 -1.33851 0
M  V30 768 C 73.4699 -1.64905 -3.19447 0
M  V30 769 C 73.1339 -3.13688 -3.32338 0
M  V30 770 C 74.1309 -4.10953 -3.18455 0
M  V30 771 C 71.8159 -3.53449 -3.56902 0
M  V30 772 C 73.8099 -5.45962 -3.28944 0
M  V30 773 C 71.4969 -4.88602 -3.6703 0
M  V30 774 C 72.4949 -5.84668 -3.53062 0
M  V30 775 O 72.1829 -7.17365 -3.62826 0
M  V30 776 H 71.9149 -0.38367 -0.556573 0
M  V30 777 H 74.4689 -1.6398 -1.23693 0
M  V30 778 H 72.6989 -1.04835 -3.72218 0
M  V30 779 H 74.3879 -1.46226 -3.78646 0
M  V30 780 H 75.1539 -3.81577 -2.99372 0
M  V30 781 H 71.0329 -2.79188 -3.66844 0
M  V30 782 H 74.5769 -6.20925 -3.17958 0
M  V30 783 H 70.4739 -5.17653 -3.85623 0
M  V30 784 H 71.2419 -7.2515 -3.79605 0
M  V30 785 N 73.905 1.17692 -1.04816 0
M  V30 786 C 74.837 2.21103 -0.603822 0
M  V30 787 C 75.85 1.59411 0.33046 0
M  V30 788 O 77.039 1.7807 0.12379 0
M  V30 789 C 74.139 3.38623 0.136898 0
M  V30 790 C 73.312 4.29888 -0.807137 0
M  V30 791 C 72.371 5.26088 -0.10836 0
M  V30 792 O 71.397 5.64353 -0.741232 0
M  V30 793 N 72.599 5.68882 1.15558 0
M  V30 794 H 75.364 2.59848 -1.49329 0
M  V30 795 H 72.925 1.32553 -0.929587 0
M  V30 796 H 74.917 4.00009 0.614401 0
M  V30 797 H 73.487 2.98508 0.927993 0
M  V30 798 H 72.707 3.65993 -1.46434 0
M  V30 799 H 73.995 4.87759 -1.44807 0
M  V30 800 H 73.393 5.39861 1.69015 0
M  V30 801 H 71.95 6.32429 1.57722 0
M  V30 802 N 75.3831 0.828654 1.34056 0
M  V30 803 C 76.6311 0.41863 1.97717 0
M  V30 804 C 76.9521 -1.02314 1.66002 0
M  V30 805 O 76.2221 -1.71119 0.953683 0
M  V30 806 H 74.8021 0.151809 0.731412 0
M  V30 807 H 77.4641 1.05936 1.63596 0
M  V30 808 H 76.5601 0.542318 3.07352 0
M  V30 809 N 76.8612 -1.46375 0.584142 0
M  V30 810 C 77.8082 -2.30323 -0.148286 0
M  V30 811 C 78.7782 -1.40703 -0.882713 0
M  V30 812 O 79.9632 -1.69651 -0.873099 0
M  V30 813 C 77.1032 -3.25196 -1.15507 0
M  V30 814 C 76.2162 -4.29915 -0.423943 0
M  V30 815 C 75.3512 -5.11914 -1.41838 0
M  V30 816 C 74.3902 -6.08381 -0.673736 0
M  V30 817 N 73.5272 -6.83242 -1.6163 0
M  V30 818 H 78.3672 -2.92427 0.573644 0
M  V30 819 H 75.9042 -1.44118 0.294703 0
M  V30 820 H 77.8622 -3.78646 -1.75166 0
M  V30 821 H 76.4922 -2.64898 -1.8447 0
M  V30 822 H 75.5442 -3.7931 0.287714 0
M  V30 823 H 76.8562 -4.98549 0.158128 0
M  V30 824 H 76.0102 -5.69648 -2.08773 0
M  V30 825 H 74.7492 -4.43243 -2.03438 0
M  V30 826 H 73.7542 -5.49799 0.00938483 0
M  V30 827 H 74.9792 -6.79071 -0.0631082 0
M  V30 828 H 72.9252 -6.1728 -2.22038 0
M  V30 829 H 72.8422 -7.48144 -1.08707 0
M  V30 830 H 74.1102 -7.45534 -2.27596 0
M  V30 831 N 78.3393 -0.321999 -1.54275 0
M  V30 832 C 79.7503 0.166384 -1.85957 0
M  V30 833 C 80.1013 1.51747 -1.24367 0
M  V30 834 O 79.2263 2.09317 -0.549124 0
M  V30 835 C 79.8213 0.308681 -3.37391 0
M  V30 836 C 78.3803 0.741286 -3.69028 0
M  V30 837 C 77.5273 -0.137937 -2.76957 0
M  V30 838 H 80.4783 -0.542335 -1.49146 0
M  V30 839 H 80.4993 1.13984 -3.63026 0
M  V30 840 H 80.0113 -0.674809 -3.82188 0
M  V30 841 H 78.1123 1.73458 -3.29762 0
M  V30 842 H 78.2253 0.546118 -4.75977 0
M  V30 843 H 76.5893 0.386251 -2.51754 0
M  V30 844 H 77.3723 -1.11816 -3.2458 0
M  V30 845 N 79.8174 1.5752 -0.0501392 0
M  V30 846 C 81.0474 1.96678 0.632573 0
M  V30 847 C 81.4554 0.926298 1.64974 0
M  V30 848 O 80.7984 -0.09802 1.83438 0
M  V30 849 C 80.8604 3.32068 1.37735 0
M  V30 850 C 80.5244 4.54076 0.516131 0
M  V30 851 C 81.5214 5.19445 -0.217357 0
M  V30 852 C 79.2064 5.00304 0.44736 0
M  V30 853 C 81.2004 6.29378 -1.00807 0
M  V30 854 C 78.8874 6.10114 -0.347038 0
M  V30 855 C 79.8854 6.74512 -1.07344 0
M  V30 856 O 79.5734 7.82211 -1.85477 0
M  V30 857 H 79.3054 0.652193 0.177821 0
M  V30 858 H 81.8594 2.05091 -0.112543 0
M  V30 859 H 80.0894 3.20206 2.16807 0
M  V30 860 H 81.7784 3.55981 1.95019 0
M  V30 861 H 82.5444 4.84689 -0.173688 0
M  V30 862 H 78.4234 4.49971 1.00235 0
M  V30 863 H 81.9674 6.79575 -1.57556 0
M  V30 864 H 77.8644 6.44307 -0.392349 0
M  V30 865 H 78.6324 7.98982 -1.77678 0
M  V30 866 N 81.2955 -0.223234 1.56011 0
M  V30 867 C 82.5255 -0.963413 1.82762 0
M  V30 868 C 82.9335 -1.78516 0.626804 0
M  V30 869 O 82.2765 -1.78974 -0.414014 0
M  V30 870 C 82.3385 -1.93126 3.0322 0
M  V30 871 C 82.0025 -1.2942 4.38291 0
M  V30 872 C 82.9995 -0.684916 5.15369 0
M  V30 873 C 80.6845 -1.30647 4.85012 0
M  V30 874 C 82.6785 -0.0963971 6.37327 0
M  V30 875 C 80.3655 -0.71411 6.06913 0
M  V30 876 C 81.3635 -0.110123 6.82911 0
M  V30 877 O 81.0515 0.47303 8.02507 0
M  V30 878 H 80.7835 -0.288011 0.611576 0
M  V30 879 H 83.3375 -0.244103 2.03944 0
M  V30 880 H 81.5675 -2.68952 2.77852 0
M  V30 881 H 83.2565 -2.53685 3.16857 0
M  V30 882 H 84.0225 -0.667774 4.80381 0
M  V30 883 H 79.9015 -1.76598 4.25833 0
M  V30 884 H 83.4455 0.375657 6.96588 0
M  V30 885 H 79.3425 -0.728659 6.41374 0
M  V30 886 H 80.1105 0.367186 8.17676 0
M  V30 887 N 82.7736 -1.49793 -0.48987 0
M  V30 888 C 84.0206 -1.59841 -1.24327 0
M  V30 889 C 84.3486 -0.290135 -1.92324 0
M  V30 890 O 83.6036 0.722749 -1.81865 0
M  V30 891 C 83.9026 -2.71488 -2.32441 0
M  V30 892 C 83.5686 -4.12614 -1.81826 0
M  V30 893 C 82.2306 -4.51017 -1.67742 0
M  V30 894 C 84.5826 -5.00892 -1.4407 0
M  V30 895 C 81.9106 -5.75459 -1.14297 0
M  V30 896 C 84.2626 -6.25863 -0.920742 0
M  V30 897 C 82.9266 -6.63086 -0.766383 0
M  V30 898 H 82.1966 -0.584899 -0.454944 0
M  V30 899 H 84.8436 -1.83663 -0.542215 0
M  V30 900 H 83.1486 -2.4168 -3.0838 0
M  V30 901 H 84.8456 -2.76469 -2.90458 0
M  V30 902 H 81.4356 -3.82307 -1.93751 0
M  V30 903 H 85.6196 -4.7187 -1.53794 0
M  V30 904 H 80.8756 -6.02989 -1.01068 0
M  V30 905 H 85.0496 -6.9364 -0.619448 0
M  V30 906 H 82.6766 -7.59393 -0.350083 0
M  V30 907 N 84.2517 0.741722 -1.39055 0
M  V30 908 C 85.4797 1.53098 -1.39171 0
M  V30 909 C 85.8947 1.88794 0.0155099 0
M  V30 910 O 85.2517 1.53626 0.985159 0
M  V30 911 C 85.3027 2.82274 -2.2584 0
M  V30 912 O 85.0237 2.48097 -3.61081 0
M  V30 913 C 86.5247 3.76343 -2.34266 0
M  V30 914 H 83.7447 0.473335 -0.4756 0
M  V30 915 H 86.2887 0.917045 -1.82785 0
M  V30 916 H 84.4437 3.40015 -1.85656 0
M  V30 917 H 84.8577 3.31029 -4.06842 0
M  V30 918 H 86.3317 4.63898 -2.9917 0
M  V30 919 H 86.8087 4.17619 -1.35982 0
M  V30 920 H 87.4147 3.24523 -2.74891 0
M  V30 921 N 85.7298 1.2412 0.971189 0
M  V30 922 C 86.9758 1.09048 1.71698 0
M  V30 923 C 87.3308 -0.367442 1.88859 0
M  V30 924 O 86.6238 -1.26792 1.43646 0
M  V30 925 C 86.8178 1.75983 3.11071 0
M  V30 926 C 86.6468 3.28133 3.07504 0
M  V30 927 C 85.4168 3.97331 3.1218 0
M  V30 928 C 87.6148 4.24773 2.89952 0
M  V30 929 N 85.5968 5.3639 2.98596 0
M  V30 930 C 86.9678 5.50806 2.84627 0
M  V30 931 C 89.0228 4.15392 2.74506 0
M  V30 932 C 87.7258 6.68533 2.65437 0
M  V30 933 C 89.7518 5.32793 2.56682 0
M  V30 934 C 89.1138 6.57756 2.52063 0
M  V30 935 H 85.2128 0.453632 0.636979 0
M  V30 936 H 87.7968 1.56983 1.15171 0
M  V30 937 H 85.9678 1.30566 3.65796 0
M  V30 938 H 87.6998 1.53803 3.74335 0
M  V30 939 H 84.4548 3.48473 3.20724 0
M  V30 940 H 84.8788 6.09321 2.95054 0
M  V30 941 H 89.5208 3.19543 2.76861 0
M  V30 942 H 87.2388 7.64509 2.61825 0
M  V30 943 H 90.8248 5.27383 2.4568 0
M  V30 944 H 89.7048 7.4707 2.38446 0
M  V30 945 N 87.2079 -1.17134 1.05439 0
M  V30 946 C 88.4559 -1.87085 0.764429 0
M  V30 947 C 88.7769 -1.81584 -0.710787 0
M  V30 948 O 88.0469 -1.24349 -1.51374 0
M  V30 949 H 86.6269 -0.692627 0.279779 0
M  V30 950 H 89.2889 -1.42087 1.33406 0
M  V30 951 H 88.3849 -2.92759 1.0816 0
M  V30 952 N 88.686 -0.835752 -1.33615 0
M  V30 953 C 89.916 -0.442701 -2.01801 0
M  V30 954 C 90.324 0.959807 -1.63047 0
M  V30 955 O 89.667 1.63468 -0.838088 0
M  V30 956 C 89.729 -0.480125 -3.56279 0
M  V30 957 C 89.393 -1.8382 -4.18401 0
M  V30 958 C 90.39 -2.80097 -4.37998 0
M  V30 959 C 88.075 -2.13019 -4.54894 0
M  V30 960 C 90.069 -4.03736 -4.9323 0
M  V30 961 C 87.756 -3.36916 -5.09834 0
M  V30 962 C 88.754 -4.32091 -5.28948 0
M  V30 963 O 88.442 -5.53797 -5.82721 0
M  V30 964 H 88.174 -0.17441 -0.653114 0
M  V30 965 H 90.728 -1.129 -1.71589 0
M  V30 966 H 88.958 0.262931 -3.85805 0
M  V30 967 H 90.647 -0.105335 -4.05763 0
M  V30 968 H 91.413 -2.58838 -4.10156 0
M  V30 969 H 87.292 -1.39733 -4.39313 0
M  V30 970 H 90.836 -4.78034 -5.08064 0
M  V30 971 H 86.733 -3.58033 -5.37106 0
M  V30 972 H 87.501 -5.55494 -6.0114 0
M  V30 973 N 90.1641 1.46063 -0.591896 0
M  V30 974 C 91.1271 2.28854 0.125973 0
M  V30 975 C 92.1271 1.38903 0.810107 0
M  V30 976 O 93.3171 1.61186 0.66066 0
M  V30 977 C 90.4491 3.19526 1.1881 0
M  V30 978 H 91.6421 2.93802 -0.601717 0
M  V30 979 H 89.1951 1.52325 -0.350254 0
M  V30 980 H 89.9301 2.59345 1.94707 0
M  V30 981 H 89.7151 3.85766 0.701936 0
M  V30 982 H 91.2051 3.81817 1.69132 0
M  V30 983 N 91.6422 0.330177 1.54103 0
M  V30 984 C 92.9192 -0.325007 1.92881 0
M  V30 985 C 93.2992 -1.6934 1.26045 0
M  V30 986 O 92.6472 -2.24855 0.406526 0
M  V30 987 C 92.8572 -0.410634 3.46576 0
M  V30 988 C 94.2052 -0.667801 4.19316 0
M  V30 989 O 95.2292 -0.49329 3.52768 0
M  V30 990 O 94.0882 -1.00491 5.37181 0
M  V30 991 H 91.1822 -0.186873 0.80561 0
M  V30 992 H 93.7282 0.380376 1.65382 0
M  V30 993 H 92.5002 0.550164 3.87413 0
M  V30 994 H 92.1232 -1.16333 3.802 0
M  V30 995 N 93.1203 -1.57491 0.0584922 0
M  V30 996 C 94.3693 -1.92155 -0.613146 0
M  V30 997 C 94.6823 -0.939334 -1.71569 0
M  V30 998 O 95.8883 -1.17829 -2.44599 0
M  V30 999 C 94.3443 -3.41303 -1.14195 0
M  V30 1000 C 93.9523 -4.47944 -0.0711265 0
M  V30 1001 C 95.6963 -3.84988 -1.78841 0
M  V30 1002 C 93.6033 -5.88212 -0.613225 0
M  V30 1003 H 92.5333 -0.717162 -0.232796 0
M  V30 1004 H 95.1843 -1.83049 0.12857 0
M  V30 1005 H 93.5663 -3.45437 -1.93621 0
M  V30 1006 H 94.7403 -4.55408 0.702836 0
M  V30 1007 H 93.0553 -4.13644 0.478313 0
M  V30 1008 H 95.6523 -4.87159 -2.20408 0
M  V30 1009 H 95.9953 -3.21632 -2.64308 0
M  V30 1010 H 96.5283 -3.83401 -1.06059 0
M  V30 1011 H 93.2673 -6.55183 0.203978 0
M  V30 1012 H 92.7873 -5.84294 -1.35501 0
M  V30 1013 H 94.4663 -6.37687 -1.09383 0
M  V30 1014 N 94.5984 0.214957 -1.56127 0
M  V30 1015 C 95.5614 1.24997 -1.92116 0
M  V30 1016 C 96.5614 1.39467 -0.800344 0
M  V30 1017 O 97.7514 1.37619 -1.06802 0
M  V30 1018 C 94.8834 2.62271 -2.17777 0
M  V30 1019 H 96.0764 0.942875 -2.84693 0
M  V30 1020 H 93.6294 0.455654 -1.49511 0
M  V30 1021 H 94.3644 2.98068 -1.27773 0
M  V30 1022 H 94.1494 2.53143 -2.99434 0
M  V30 1023 H 95.6394 3.36946 -2.46693 0
M  V30 1024 N 96.0765 1.50051 0.48192 0
M  V30 1025 C 97.0235 1.68122 1.58125 0
M  V30 1026 C 97.9935 0.522545 1.57666 0
M  V30 1027 O 99.1785 0.751844 1.75362 0
M  V30 1028 C 96.3185 1.77142 2.96167 0
M  V30 1029 C 95.4315 3.0444 3.06497 0
M  V30 1030 C 94.5665 3.04321 4.35387 0
M  V30 1031 C 93.6055 4.26118 4.3942 0
M  V30 1032 N 92.7425 4.238 5.59766 0
M  V30 1033 H 97.5825 2.6198 1.42022 0
M  V30 1034 H 95.1195 1.29877 0.690687 0
M  V30 1035 H 97.0775 1.80352 3.76203 0
M  V30 1036 H 95.7075 0.867329 3.1093 0
M  V30 1037 H 94.7595 3.10752 2.19402 0
M  V30 1038 H 96.0715 3.94426 3.05336 0
M  V30 1039 H 95.2255 3.062 5.23762 0
M  V30 1040 H 93.9645 2.12147 4.39141 0
M  V30 1041 H 92.9695 4.24463 3.49444 0
M  V30 1042 H 94.1945 5.19507 4.37366 0
M  V30 1043 H 92.1405 3.34474 5.64326 0
M  V30 1044 H 92.0575 5.07542 5.60301 0
M  V30 1045 H 93.3255 4.2981 6.50295 0
M  V30 1046 N 97.5546 -0.734337 1.39446 0
M  V30 1047 C 98.5016 -1.84835 1.38219 0
M  V30 1048 C 99.4716 -1.64331 0.24179 0
M  V30 1049 O 100.657 -1.85728 0.437002 0
M  V30 1050 C 97.7966 -3.22355 1.23212 0
M  V30 1051 C 96.9096 -3.5456 2.46801 0
M  V30 1052 C 96.0446 -4.81485 2.24377 0
M  V30 1053 C 95.0836 -5.06536 3.43639 0
M  V30 1054 N 94.2206 -6.24665 3.20528 0
M  V30 1055 H 99.0606 -1.85219 2.33448 0
M  V30 1056 H 96.5976 -0.905039 1.15963 0
M  V30 1057 H 98.5556 -4.0174 1.12522 0
M  V30 1058 H 97.1856 -3.21248 0.316121 0
M  V30 1059 H 96.2376 -2.69872 2.68092 0
M  V30 1060 H 97.5496 -3.6899 3.3563 0
M  V30 1061 H 96.7036 -5.68852 2.10933 0
M  V30 1062 H 95.4426 -4.6923 1.32944 0
M  V30 1063 H 94.4476 -4.17632 3.5758 0
M  V30 1064 H 95.6726 -5.20676 4.35974 0
M  V30 1065 H 93.6186 -6.13696 2.3176 0
M  V30 1066 H 93.5356 -6.39685 4.02913 0
M  V30 1067 H 94.8036 -7.14868 3.10779 0
M  V30 1068 N 99.0327 -1.24633 -0.964593 0
M  V30 1069 C 99.9647 -0.999302 -2.06268 0
M  V30 1070 C 100.978 0.0323226 -1.62768 0
M  V30 1071 O 102.167 -0.205079 -1.77318 0
M  V30 1072 C 99.2667 -0.486816 -3.35385 0
M  V30 1073 C 98.4397 -1.5823 -4.07777 0
M  V30 1074 C 97.4987 -1.07191 -5.15166 0
M  V30 1075 O 96.5247 -1.76426 -5.41168 0
M  V30 1076 N 97.7267 0.0920373 -5.80427 0
M  V30 1077 H 100.492 -1.94477 -2.28033 0
M  V30 1078 H 98.0527 -1.15704 -1.13244 0
M  V30 1079 H 100.045 -0.130066 -4.04491 0
M  V30 1080 H 98.6147 0.364459 -3.10468 0
M  V30 1081 H 97.8347 -2.11109 -3.32906 0
M  V30 1082 H 99.1227 -2.31854 -4.52903 0
M  V30 1083 H 98.5207 0.670784 -5.61709 0
M  V30 1084 H 97.0777 0.389905 -6.50633 0
M  V30 1085 N 100.511 1.16574 -1.06058 0
M  V30 1086 C 101.922 1.68662 -0.800632 0
M  V30 1087 C 102.273 1.84184 0.67608 0
M  V30 1088 O 101.398 1.53568 1.52466 0
M  V30 1089 C 101.993 3.06356 -1.44676 0
M  V30 1090 C 100.552 3.55575 -1.23465 0
M  V30 1091 C 99.6988 2.31616 -1.52477 0
M  V30 1092 H 102.65 1.00969 -1.22438 0
M  V30 1093 H 102.671 3.70636 -0.860788 0
M  V30 1094 H 102.183 2.95027 -2.52152 0
M  V30 1095 H 100.284 3.72167 -0.179527 0
M  V30 1096 H 100.397 4.37812 -1.94571 0
M  V30 1097 H 98.7608 2.36512 -0.945209 0
M  V30 1098 H 99.5438 2.22887 -2.61106 0
M  V30 1099 N 101.989 0.842826 1.3317 0
M  V30 1100 C 103.235 0.441099 1.97945 0
M  V30 1101 C 103.568 -0.998024 1.66593 0
M  V30 1102 O 102.843 -1.69839 0.947898 0
M  V30 1103 C 103.126 0.666841 3.53872 0
M  V30 1104 C 102.979 2.15352 3.94897 0
M  V30 1105 C 104.298 0.115544 4.39948 0
M  V30 1106 H 101.417 0.161739 0.719034 0
M  V30 1107 H 104.059 1.05907 1.57746 0
M  V30 1108 H 102.209 0.140828 3.88245 0
M  V30 1109 H 103.881 2.7447 3.70761 0
M  V30 1110 H 102.124 2.63653 3.44484 0
M  V30 1111 H 102.795 2.26221 5.03516 0
M  V30 1112 H 105.271 0.565213 4.12243 0
M  V30 1113 H 104.147 0.303152 5.48062 0
M  V30 1114 H 104.408 -0.980935 4.3108 0
M  V30 1115 N 103.467 -1.45747 0.599634 0
M  V30 1116 C 104.695 -2.06668 0.0978551 0
M  V30 1117 C 105.11 -1.44562 -1.21439 0
M  V30 1118 O 104.467 -0.556923 -1.73795 0
M  V30 1119 C 104.518 -3.61456 -0.0567044 0
M  V30 1120 O 104.239 -4.21242 1.20361 0
M  V30 1121 C 105.74 -4.39345 -0.590869 0
M  V30 1122 H 102.96 -0.667825 0.0651943 0
M  V30 1123 H 105.504 -1.87115 0.82511 0
M  V30 1124 H 103.659 -3.80378 -0.734251 0
M  V30 1125 H 104.073 -5.14323 1.02821 0
M  V30 1126 H 105.547 -5.48182 -0.648131 0
M  V30 1127 H 106.024 -4.08568 -1.61147 0
M  V30 1128 H 106.63 -4.25268 0.0523679 0
M  V30 1129 N 104.945 -0.338344 -1.53925 0
M  V30 1130 C 105.877 0.555117 -2.22376 0
M  V30 1131 C 106.89 1.06812 -1.22862 0
M  V30 1132 O 108.079 0.979163 -1.49247 0
M  V30 1133 C 105.179 1.77609 -2.88631 0
M  V30 1134 C 104.352 1.39927 -4.14414 0
M  V30 1135 C 103.411 2.47936 -4.64127 0
M  V30 1136 O 102.437 2.11461 -5.28463 0
M  V30 1137 N 103.639 3.79107 -4.39612 0
M  V30 1138 H 106.404 -0.0310778 -2.99684 0
M  V30 1139 H 103.965 -0.162226 -1.61085 0
M  V30 1140 H 105.957 2.49287 -3.18807 0
M  V30 1141 H 104.527 2.26978 -2.14941 0
M  V30 1142 H 103.747 0.513481 -3.90841 0
M  V30 1143 H 105.035 1.12341 -4.96243 0
M  V30 1144 H 104.433 4.11531 -3.88148 0
M  V30 1145 H 102.99 4.4697 -4.74406 0
M  V30 1146 N 106.423 1.57458 -0.0668435 0
M  V30 1147 C 107.355 2.09413 0.931601 0
M  V30 1148 C 108.368 1.02522 1.26464 0
M  V30 1149 O 109.557 1.30049 1.22269 0
M  V30 1150 C 106.657 2.53537 2.24882 0
M  V30 1151 C 105.83 3.83944 2.09537 0
M  V30 1152 C 104.889 4.14214 3.2452 0
M  V30 1153 O 103.915 4.83891 2.9973 0
M  V30 1154 N 105.117 3.67367 4.49469 0
M  V30 1155 H 107.882 2.95699 0.488048 0
M  V30 1156 H 105.443 1.61462 0.119009 0
M  V30 1157 H 107.435 2.70853 3.00701 0
M  V30 1158 H 106.005 1.72415 2.60753 0
M  V30 1159 H 105.225 3.76057 1.18215 0
M  V30 1160 H 106.513 4.69312 1.96529 0
M  V30 1161 H 105.911 3.11068 4.72497 0
M  V30 1162 H 104.468 3.89891 5.2233 0
M  V30 1163 N 107.901 -0.206675 1.56239 0
M  V30 1164 C 109.129 -0.945345 1.8404 0
M  V30 1165 C 109.544 -1.77336 0.647885 0
M  V30 1166 O 108.901 -1.78425 -0.383511 0
M  V30 1167 C 108.952 -1.8509 3.10522 0
M  V30 1168 O 108.673 -1.05634 4.25174 0
M  V30 1169 C 110.174 -2.70222 3.51418 0
M  V30 1170 H 107.394 -0.276372 0.61144 0
M  V30 1171 H 109.938 -0.217417 2.03341 0
M  V30 1172 H 108.093 -2.53259 2.93153 0
M  V30 1173 H 108.507 -1.67238 4.97124 0
M  V30 1174 H 109.981 -3.29438 4.42916 0
M  V30 1175 H 110.458 -3.43358 2.73864 0
M  V30 1176 H 111.064 -2.07443 3.71278 0
M  V30 1177 N 109.379 -1.50304 -0.473955 0
M  V30 1178 C 110.309 -1.71886 -1.58042 0
M  V30 1179 C 111.29 -0.567799 -1.60344 0
M  V30 1180 O 112.475 -0.806623 -1.76656 0
M  V30 1181 C 109.605 -1.81036 -2.96384 0
M  V30 1182 C 108.559 -2.962 -3.08949 0
M  V30 1183 C 107.885 -2.9049 -4.48909 0
M  V30 1184 C 109.185 -4.36752 -2.86434 0
M  V30 1185 H 110.879 -2.64527 -1.40234 0
M  V30 1186 H 108.425 -1.27295 -0.673201 0
M  V30 1187 H 110.378 -1.94719 -3.73714 0
M  V30 1188 H 109.102 -0.850147 -3.15341 0
M  V30 1189 H 107.761 -2.82164 -2.3405 0
M  V30 1190 H 107.409 -1.92321 -4.64781 0
M  V30 1191 H 107.109 -3.67802 -4.58253 0
M  V30 1192 H 108.633 -3.06218 -5.28264 0
M  V30 1193 H 110.047 -4.5133 -3.53517 0
M  V30 1194 H 108.444 -5.15493 -3.07225 0
M  V30 1195 H 109.514 -4.49321 -1.82316 0
M  V30 1196 N 110.857 0.726932 -1.39834 0
M  V30 1197 C 112.104 1.48664 -1.37496 0
M  V30 1198 C 112.432 1.94482 0.0264678 0
M  V30 1199 O 111.687 1.67692 1.00886 0
M  V30 1200 C 111.986 2.73495 -2.30077 0
M  V30 1201 C 111.652 2.46502 -3.77555 0
M  V30 1202 C 110.314 2.3885 -4.17737 0
M  V30 1203 C 112.666 2.23604 -4.70798 0
M  V30 1204 C 109.994 2.06352 -5.49214 0
M  V30 1205 C 112.346 1.92622 -6.02561 0
M  V30 1206 C 111.01 1.83444 -6.41798 0
M  V30 1207 H 110.28 0.544001 -0.503135 0
M  V30 1208 H 112.927 0.833657 -1.72402 0
M  V30 1209 H 111.232 3.43575 -1.88317 0
M  V30 1210 H 112.929 3.31549 -2.25558 0
M  V30 1211 H 109.519 2.5334 -3.45712 0
M  V30 1212 H 113.703 2.28479 -4.40581 0
M  V30 1213 H 108.959 1.97776 -5.78528 0
M  V30 1214 H 113.133 1.73914 -6.74334 0
M  V30 1215 H 110.76 1.58029 -7.43593 0
M  V30 1216 N 112.336 1.25143 0.95797 0
M  V30 1217 C 113.246 1.06968 2.08794 0
M  V30 1218 C 114.262 0.00773911 1.73998 0
M  V30 1219 O 115.438 0.207972 2.00323 0
M  V30 1220 C 112.503 0.68691 3.39827 0
M  V30 1221 C 111.564 1.82641 3.88511 0
M  V30 1222 C 110.797 1.46181 5.1329 0
M  V30 1223 O 111.02 0.355971 5.69288 0
M  V30 1224 O 109.954 2.29085 5.566 0
M  V30 1225 H 113.78 2.01723 2.27027 0
M  V30 1226 H 111.365 1.04051 1.07209 0
M  V30 1227 H 113.247 0.485417 4.18595 0
M  V30 1228 H 111.922 -0.231417 3.22872 0
M  V30 1229 H 110.829 2.08274 3.10762 0
M  V30 1230 H 112.162 2.72386 4.09959 0
M  V30 1231 N 113.814 -1.1601 1.06675 0
M  V30 1232 C 114.744 -2.22688 0.702307 0
M  V30 1233 C 115.725 -1.67306 -0.307032 0
M  V30 1234 O 116.91 -1.93352 -0.181305 0
M  V30 1235 C 114.04 -3.47178 0.092038 0
M  V30 1236 C 112.994 -4.15477 1.02777 0
M  V30 1237 C 112.32 -5.33963 0.28061 0
M  V30 1238 C 113.62 -4.66019 2.35846 0
M  V30 1239 H 115.314 -2.53429 1.59419 0
M  V30 1240 H 112.86 -1.21813 0.767961 0
M  V30 1241 H 114.813 -4.21037 -0.174814 0
M  V30 1242 H 113.537 -3.15749 -0.834877 0
M  V30 1243 H 112.196 -3.43549 1.27944 0
M  V30 1244 H 111.844 -4.98788 -0.649545 0
M  V30 1245 H 111.544 -5.806 0.904258 0
M  V30 1246 H 113.068 -6.10596 0.021396 0
M  V30 1247 H 114.482 -5.3144 2.15045 0
M  V30 1248 H 112.879 -5.23293 2.93743 0
M  V30 1249 H 113.949 -3.82023 2.98641 0
M  V30 1250 N 115.292 -0.849877 -1.32721 0
M  V30 1251 C 116.54 -0.450032 -1.97026 0
M  V30 1252 C 116.861 0.996604 -1.67609 0
M  V30 1253 O 116.131 1.6958 -0.980786 0
M  V30 1254 H 114.711 -0.163426 -0.728904 0
M  V30 1255 H 117.373 -1.08526 -1.6189 0
M  V30 1256 H 116.469 -0.591146 -3.0645 0
M  V30 1257 N 116.77 1.45427 -0.607355 0
M  V30 1258 C 117.995 2.07124 -0.107006 0
M  V30 1259 C 118.42 1.44906 1.19933 0
M  V30 1260 O 117.778 0.541687 1.73019 0
M  V30 1261 C 117.826 3.60595 0.0194119 0
M  V30 1262 O 116.93 3.98285 1.0697 0
M  V30 1263 H 116.271 0.659868 -0.0739597 0
M  V30 1264 H 118.801 1.86683 -0.837297 0
M  V30 1265 H 118.811 4.07419 0.2177 0
M  V30 1266 H 117.486 4.05266 -0.934453 0
M  V30 1267 H 116.063 3.63133 0.847889 0
M  V30 1268 N 118.248 0.346503 1.53744 0
M  V30 1269 C 119.494 -0.249473 2.0126 0
M  V30 1270 C 119.827 -1.49965 1.23386 0
M  V30 1271 O 119.102 -1.91811 0.32229 0
M  V30 1272 C 119.385 -0.560643 3.55709 0
M  V30 1273 C 119.238 0.701836 4.44291 0
M  V30 1274 C 120.557 -1.36905 4.18264 0
M  V30 1275 H 117.676 -0.0891987 0.731582 0
M  V30 1276 H 120.318 0.467624 1.84156 0
M  V30 1277 H 118.468 -1.17156 3.70414 0
M  V30 1278 H 120.14 1.33974 4.41417 0
M  V30 1279 H 118.383 1.32612 4.13033 0
M  V30 1280 H 119.054 0.43933 5.50249 0
M  V30 1281 H 121.53 -0.852448 4.07275 0
M  V30 1282 H 120.406 -1.55553 5.26398 0
M  V30 1283 H 120.667 -2.37203 3.73078 0
M  V30 1284 N 119.726 -1.57421 0.075193 0
M  V30 1285 C 120.951 -1.98364 -0.605515 0
M  V30 1286 C 121.376 -0.953383 -1.62149 0
M  V30 1287 O 120.734 0.0806053 -1.81121 0
M  V30 1288 C 120.782 -3.38332 -1.24756 0
M  V30 1289 O 119.886 -3.37959 -2.36342 0
M  V30 1290 H 119.227 -0.645553 -0.155428 0
M  V30 1291 H 121.757 -2.04044 0.150714 0
M  V30 1292 H 121.767 -3.75591 -1.5936 0
M  V30 1293 H 120.442 -4.12846 -0.503129 0
M  V30 1294 H 119.019 -3.12474 -2.03506 0
M  V30 1295 N 121.204 0.198386 -1.56346 0
M  V30 1296 C 122.151 1.24589 -1.94284 0
M  V30 1297 C 123.121 1.454 -0.802997 0
M  V30 1298 O 124.306 1.58588 -1.06087 0
M  V30 1299 C 121.446 2.58631 -2.28482 0
M  V30 1300 C 120.559 2.45426 -3.55514 0
M  V30 1301 C 119.694 3.7215 -3.79049 0
M  V30 1302 C 118.733 3.53763 -4.99518 0
M  V30 1303 N 117.87 4.72491 -5.19323 0
M  V30 1304 H 122.71 0.915356 -2.83593 0
M  V30 1305 H 120.247 0.440629 -1.40346 0
M  V30 1306 H 122.205 3.3672 -2.46324 0
M  V30 1307 H 120.835 2.89734 -1.42317 0
M  V30 1308 H 119.887 1.58652 -3.45737 0
M  V30 1309 H 121.199 2.27772 -4.43758 0
M  V30 1310 H 120.353 4.58679 -3.97113 0
M  V30 1311 H 119.092 3.92754 -2.89129 0
M  V30 1312 H 118.097 2.65619 -4.8138 0
M  V30 1313 H 119.322 3.34607 -5.90944 0
M  V30 1314 H 117.268 4.93365 -4.3235 0
M  V30 1315 H 117.185 4.5765 -6.01741 0
M  V30 1316 H 118.453 5.6038 -5.41843 0
M  V30 1317 N 122.682 1.50554 0.465978 0
M  V30 1318 C 123.91 1.65563 1.24083 0
M  V30 1319 C 124.325 0.341051 1.85694 0
M  V30 1320 O 123.682 -0.677543 1.69457 0
M  V30 1321 C 123.733 2.75051 2.34583 0
M  V30 1322 O 123.454 4.01413 1.75497 0
M  V30 1323 C 124.955 3.01078 3.25372 0
M  V30 1324 H 122.175 0.55638 0.375077 0
M  V30 1325 H 124.719 1.96807 0.555624 0
M  V30 1326 H 122.874 2.46486 2.9887 0
M  V30 1327 H 123.288 4.62002 2.48303 0
M  V30 1328 H 124.762 3.81339 3.99105 0
M  V30 1329 H 125.239 2.12349 3.84453 0
M  V30 1330 H 125.845 3.31194 2.66816 0
M  V30 1331 N 124.16 -0.719506 1.40217 0
M  V30 1332 C 125.407 -1.47933 1.38283 0
M  V30 1333 C 125.735 -1.94493 -0.0161536 0
M  V30 1334 O 124.99 -1.68224 -0.999956 0
M  V30 1335 C 125.289 -2.72271 2.31524 0
M  V30 1336 C 124.955 -2.44496 3.78857 0
M  V30 1337 C 123.617 -2.36631 4.18998 0
M  V30 1338 C 125.969 -2.21104 4.71977 0
M  V30 1339 C 123.297 -2.03437 5.503 0
M  V30 1340 C 125.649 -1.89423 6.03574 0
M  V30 1341 C 124.313 -1.80038 6.42762 0
M  V30 1342 H 123.583 -0.541325 0.506012 0
M  V30 1343 H 126.23 -0.824502 1.72842 0
M  V30 1344 H 124.535 -3.42572 1.90137 0
M  V30 1345 H 126.232 -3.30348 2.27313 0
M  V30 1346 H 122.822 -2.51503 3.47051 0
M  V30 1347 H 127.006 -2.26139 4.41786 0
M  V30 1348 H 122.262 -1.94705 5.79569 0
M  V30 1349 H 126.436 -1.70336 6.75247 0
M  V30 1350 H 124.063 -1.54083 7.44421 0
M  V30 1351 N 125.638 -1.25649 -0.95132 0
M  V30 1352 C 126.866 -1.13343 -1.73092 0
M  V30 1353 C 127.281 0.312434 -1.86197 0
M  V30 1354 O 126.638 1.21465 -1.36207 0
M  V30 1355 C 126.689 -1.78602 -3.14299 0
M  V30 1356 O 126.41 -3.17537 -3.01831 0
M  V30 1357 C 127.911 -1.72119 -4.08522 0
M  V30 1358 H 125.131 -0.395181 -0.542285 0
M  V30 1359 H 127.675 -1.66076 -1.19328 0
M  V30 1360 H 125.83 -1.29832 -3.64996 0
M  V30 1361 H 126.244 -3.49676 -3.90931 0
M  V30 1362 H 127.718 -2.22435 -5.052 0
M  V30 1363 H 128.195 -0.685635 -4.33815 0
M  V30 1364 H 128.801 -2.20393 -3.63741 0
M  V30 1365 N 127.117 1.15442 -1.07289 0
M  V30 1366 C 128.365 1.85845 -0.794096 0
M  V30 1367 C 128.686 1.82692 0.681809 0
M  V30 1368 O 127.956 1.26741 1.49377 0
M  V30 1369 H 126.536 0.688089 -0.290763 0
M  V30 1370 H 129.198 1.39947 -1.3565 0
M  V30 1371 H 128.294 2.91001 -1.12804 0
M  V30 1372 N 128.595 0.856903 1.32268 0
M  V30 1373 C 129.841 0.462069 1.97466 0
M  V30 1374 C 130.174 -0.980298 1.67642 0
M  V30 1375 O 129.449 -1.68824 0.965858 0
M  V30 1376 C 129.732 0.704336 3.53145 0
M  V30 1377 C 129.585 2.19529 3.9259 0
M  V30 1378 C 130.904 0.1622 4.39801 0
M  V30 1379 H 128.023 0.169357 0.717278 0
M  V30 1380 H 130.665 1.07574 1.56614 0
M  V30 1381 H 128.815 0.181999 3.88073 0
M  V30 1382 H 130.487 2.78387 3.67829 0
M  V30 1383 H 128.73 2.67292 3.41668 0
M  V30 1384 H 129.401 2.31549 5.01088 0
M  V30 1385 H 131.877 0.608905 4.11621 0
M  V30 1386 H 130.753 0.361265 5.4771 0
M  V30 1387 H 131.014 -0.935158 4.32096 0
M  V30 1388 N 130.073 -1.45103 0.615059 0
M  V30 1389 C 131.003 -2.33339 -0.0865619 0
M  V30 1390 C 131.984 -1.4727 -0.851209 0
M  V30 1391 O 133.169 -1.76026 -0.820281 0
M  V30 1392 C 130.299 -3.30095 -1.07956 0
M  V30 1393 C 129.253 -4.25858 -0.427628 0
M  V30 1394 C 128.579 -5.12361 -1.5294 0
M  V30 1395 C 129.879 -5.18165 0.655944 0
M  V30 1396 H 131.573 -2.92254 0.650224 0
M  V30 1397 H 129.119 -1.40532 0.314138 0
M  V30 1398 H 131.072 -3.90698 -1.57901 0
M  V30 1399 H 129.796 -2.69355 -1.84703 0
M  V30 1400 H 128.455 -3.66564 0.0510292 0
M  V30 1401 H 128.103 -4.47984 -2.28734 0
M  V30 1402 H 127.803 -5.77238 -1.09865 0
M  V30 1403 H 129.327 -5.75833 -2.03098 0
M  V30 1404 H 130.741 -5.72796 0.240257 0
M  V30 1405 H 129.138 -5.91559 1.00888 0
M  V30 1406 H 130.208 -4.60144 1.52957 0
M  V30 1407 N 131.551 -0.354651 -1.53558 0
M  V30 1408 C 132.799 0.237972 -2.00694 0
M  V30 1409 C 133.12 1.50173 -1.24391 0
M  V30 1410 O 132.39 1.92673 -0.354135 0
M  V30 1411 H 130.97 0.0909256 -0.741446 0
M  V30 1412 H 133.632 -0.478368 -1.88938 0
M  V30 1413 H 132.728 0.47264 -3.085 0
M  V30 1414 N 133.029 1.57378 -0.0835403 0
M  V30 1415 C 134.277 1.93547 0.581718 0
M  V30 1416 C 134.598 0.96524 1.69435 0
M  V30 1417 O 133.868 0.0153369 1.95894 0
M  V30 1418 H 132.448 0.714521 0.217874 0
M  V30 1419 H 135.11 1.94366 -0.144158 0
M  V30 1420 H 134.206 2.95665 0.999423 0
M  V30 1421 N 134.507 -0.190092 1.56449 0
M  V30 1422 C 135.784 -0.935886 1.71757 0
M  V30 1423 C 136.164 -2.01173 0.639726 0
M  V30 1424 O 135.512 -2.25827 -0.348502 0
M  V30 1425 C 135.722 -1.51775 3.1427 0
M  V30 1426 C 137.07 -1.99794 3.74656 0
M  V30 1427 O 138.094 -1.61607 3.1743 0
M  V30 1428 O 136.953 -2.70079 4.751 0
M  V30 1429 H 134.047 -0.439229 0.700719 0
M  V30 1430 H 136.593 -0.179395 1.68749 0
M  V30 1431 H 135.365 -0.742505 3.84191 0
M  V30 1432 H 134.988 -2.33894 3.21527 0
M  V30 1433 N 135.985 -1.50799 -0.457987 0
M  V30 1434 C 136.948 -1.7005 -1.53674 0
M  V30 1435 C 137.948 -0.570881 -1.50325 0
M  V30 1436 O 139.138 -0.838126 -1.52712 0
M  V30 1437 C 136.27 -1.73788 -2.93276 0
M  V30 1438 H 137.463 -2.66306 -1.37917 0
M  V30 1439 H 135.016 -1.40477 -0.685271 0
M  V30 1440 H 135.751 -0.792717 -3.14462 0
M  V30 1441 H 135.536 -2.55864 -2.97113 0
M  V30 1442 H 137.026 -1.90591 -3.71571 0
M  V30 1443 N 137.463 0.71206 -1.40597 0
M  V30 1444 C 138.712 1.46754 -1.38369 0
M  V30 1445 C 139.025 1.95598 0.0097839 0
M  V30 1446 O 140.231 2.71059 0.154677 0
M  V30 1447 C 138.687 2.65289 -2.43207 0
M  V30 1448 C 138.295 2.23301 -3.88382 0
M  V30 1449 C 140.039 3.43008 -2.50091 0
M  V30 1450 C 137.946 3.38696 -4.84808 0
M  V30 1451 H 136.876 0.55118 -0.514506 0
M  V30 1452 H 139.527 0.774616 -1.66349 0
M  V30 1453 H 137.909 3.36769 -2.08332 0
M  V30 1454 H 139.083 1.59218 -4.32419 0
M  V30 1455 H 137.398 1.58618 -3.85006 0
M  V30 1456 H 139.995 4.28881 -3.1932 0
M  V30 1457 H 140.338 3.87065 -1.53253 0
M  V30 1458 H 140.871 2.78574 -2.83974 0
M  V30 1459 H 137.61 2.99668 -5.82992 0
M  V30 1460 H 137.13 4.01683 -4.45433 0
M  V30 1461 H 138.809 4.04712 -5.04794 0
M  V30 1462 N 138.941 1.26152 0.944643 0
M  V30 1463 C 139.904 1.07474 2.0244 0
M  V30 1464 C 140.904 0.0242064 1.60782 0
M  V30 1465 O 142.094 0.267302 1.72137 0
M  V30 1466 C 139.226 0.633956 3.34953 0
M  V30 1467 H 140.419 2.03336 2.20442 0
M  V30 1468 H 137.972 1.087 1.12312 0
M  V30 1469 H 138.707 -0.326811 3.22649 0
M  V30 1470 H 138.492 1.39247 3.66542 0
M  V30 1471 H 139.982 0.52501 4.14287 0
M  V30 1472 N 140.419 -1.14872 1.07899 0
M  V30 1473 C 141.835 -1.37776 0.805606 0
M  V30 1474 C 142.035 -1.92743 -0.587555 0
M  V30 1475 O 141.091 -2.13678 -1.34528 0
M  V30 1476 C 142.404 -2.34361 1.88402 0
M  V30 1477 C 143.952 -2.48012 1.90942 0
M  V30 1478 C 144.427 -3.47893 2.97883 0
M  V30 1479 N 145.918 -3.55433 2.97021 0
M  V30 1480 C 146.653 -4.32553 3.76412 0
M  V30 1481 N 146.149 -5.12959 4.65666 0
M  V30 1482 N 147.942 -4.27697 3.64735 0
M  V30 1483 H 140.093 -0.775365 1.97742 0
M  V30 1484 H 142.356 -0.403521 0.857831 0
M  V30 1485 H 142.062 -2.01098 2.88535 0
M  V30 1486 H 141.936 -3.34206 1.74889 0
M  V30 1487 H 144.323 -2.8057 0.914579 0
M  V30 1488 H 144.404 -1.48147 2.08534 0
M  V30 1489 H 144.048 -3.16069 3.97571 0
M  V30 1490 H 143.978 -4.47527 2.77538 0
M  V30 1491 H 146.469 -2.98048 2.32326 0
M  V30 1492 H 146.782 -5.69065 5.22862 0
M  V30 1493 H 145.127 -5.12245 4.69712 0
M  V30 1494 H 148.318 -3.63949 2.94378 0
M  V30 1495 H 148.491 -4.8755 4.26848 0
M  V30 1496 N 141.898 -0.863906 -1.31812 0
M  V30 1497 C 143.146 -0.470904 -1.96537 0
M  V30 1498 C 143.467 0.978771 -1.68657 0
M  V30 1499 O 142.737 1.6853 -0.998717 0
M  V30 1500 H 141.317 -0.171148 -0.72713 0
M  V30 1501 H 143.979 -1.10236 -1.60729 0
M  V30 1502 H 143.075 -0.623616 -3.05806 0
M  V30 1503 N 143.376 1.44774 -0.622745 0
M  V30 1504 C 144.286 2.34433 0.0886031 0
M  V30 1505 C 145.302 1.52131 0.844529 0
M  V30 1506 O 146.478 1.84886 0.798691 0
M  V30 1507 C 143.543 3.29986 1.0635 0
M  V30 1508 C 142.604 4.28195 0.307873 0
M  V30 1509 C 141.837 5.19183 1.23633 0
M  V30 1510 O 142.06 5.13918 2.47476 0
M  V30 1511 O 140.994 5.97515 0.725189 0
M  V30 1512 H 144.82 2.96693 -0.648599 0
M  V30 1513 H 142.405 1.44408 -0.382957 0
M  V30 1514 H 144.287 3.88825 1.6246 0
M  V30 1515 H 142.962 2.70269 1.78146 0
M  V30 1516 H 141.869 3.72927 -0.296064 0
M  V30 1517 H 143.202 4.90808 -0.3699 0
M  V30 1518 N 144.854 0.36279 1.53368 0
M  V30 1519 C 146.103 -0.22888 2.00397 0
M  V30 1520 C 146.416 -1.50096 1.25421 0
M  V30 1521 O 147.622 -2.17106 1.63025 0
M  V30 1522 C 146.078 -0.458417 3.56969 0
M  V30 1523 C 145.686 0.798877 4.4082 0
M  V30 1524 C 147.43 -1.00789 4.12361 0
M  V30 1525 C 145.337 0.539078 5.88938 0
M  V30 1526 H 144.267 -0.089305 0.748693 0
M  V30 1527 H 146.918 0.481099 1.77081 0
M  V30 1528 H 145.3 -1.22959 3.76427 0
M  V30 1529 H 146.474 1.57262 4.33134 0
M  V30 1530 H 144.789 1.27137 3.96516 0
M  V30 1531 H 147.386 -1.21754 5.20653 0
M  V30 1532 H 147.729 -1.9692 3.66781 0
M  V30 1533 H 148.262 -0.296961 3.9669 0
M  V30 1534 H 145.001 1.47064 6.3879 0
M  V30 1535 H 144.521 -0.196222 5.99479 0
M  V30 1536 H 146.2 0.163542 6.46793 0
M  V30 1537 N 146.332 -1.57332 0.0918853 0
M  V30 1538 C 147.279 -2.13847 -0.868211 0
M  V30 1539 C 148.249 -1.05618 -1.28196 0
M  V30 1540 O 149.434 -1.33387 -1.36427 0
M  V30 1541 C 146.574 -2.72062 -2.12312 0
M  V30 1542 C 145.687 -3.94514 -1.7602 0
M  V30 1543 C 144.822 -4.40903 -2.96273 0
M  V30 1544 C 143.861 -5.55953 -2.56092 0
M  V30 1545 N 142.998 -5.97209 -3.69169 0
M  V30 1546 H 147.838 -2.95575 -0.379406 0
M  V30 1547 H 145.375 -1.46048 -0.175606 0
M  V30 1548 H 147.333 -3.03931 -2.858 0
M  V30 1549 H 145.963 -1.93068 -2.58698 0
M  V30 1550 H 145.015 -3.68979 -0.925135 0
M  V30 1551 H 146.327 -4.7802 -1.42472 0
M  V30 1552 H 145.481 -4.74539 -3.78018 0
M  V30 1553 H 144.22 -3.56291 -3.33029 0
M  V30 1554 H 143.225 -5.21948 -1.72773 0
M  V30 1555 H 144.45 -6.42311 -2.20484 0
M  V30 1556 H 142.396 -5.15543 -4.05649 0
M  V30 1557 H 142.313 -6.75504 -3.39456 0
M  V30 1558 H 143.581 -6.35475 -4.51434 0
M  V30 1559 N 147.81 0.181792 -1.56548 0
M  V30 1560 C 148.74 1.22765 -1.98623 0
M  V30 1561 C 149.721 1.46747 -0.860189 0
M  V30 1562 O 150.906 1.58259 -1.12551 0
M  V30 1563 C 148.036 2.56894 -2.33715 0
M  V30 1564 C 146.99 2.475 -3.49182 0
M  V30 1565 C 146.316 3.86023 -3.69986 0
M  V30 1566 C 147.616 1.98866 -4.82959 0
M  V30 1567 H 149.31 0.877942 -2.86239 0
M  V30 1568 H 146.856 0.42088 -1.37712 0
M  V30 1569 H 148.809 3.30253 -2.61746 0
M  V30 1570 H 147.533 2.93632 -1.42997 0
M  V30 1571 H 146.192 1.76596 -3.21262 0
M  V30 1572 H 145.84 4.20136 -2.76576 0
M  V30 1573 H 145.54 3.80609 -4.47672 0
M  V30 1574 H 147.064 4.60984 -4.00407 0
M  V30 1575 H 148.478 2.61992 -5.09934 0
M  V30 1576 H 146.875 2.04424 -5.64208 0
M  V30 1577 H 147.945 0.942465 -4.75653 0
M  V30 1578 N 149.288 1.51039 0.449983 0
M  V30 1579 C 150.513 1.6715 1.22783 0
M  V30 1580 C 150.938 0.363081 1.84563 0
M  V30 1581 O 150.296 -0.675433 1.68249 0
M  V30 1582 C 150.344 2.77985 2.29689 0
M  V30 1583 O 149.448 2.40707 3.34864 0
M  V30 1584 H 148.789 0.557746 0.360299 0
M  V30 1585 H 151.319 1.97535 0.533005 0
M  V30 1586 H 151.329 3.01693 2.74673 0
M  V30 1587 H 150.004 3.72935 1.84098 0
M  V30 1588 H 148.581 2.27523 2.95445 0
M  V30 1589 N 150.766 -0.704594 1.40972 0
M  V30 1590 C 152.043 -1.45847 1.30338 0
M  V30 1591 C 152.423 -2.10973 -0.0732344 0
M  V30 1592 O 151.771 -2.00997 -1.08685 0
M  V30 1593 C 151.981 -2.48525 2.45023 0
M  V30 1594 C 153.329 -3.1404 2.8577 0
M  V30 1595 O 154.353 -2.58848 2.44696 0
M  V30 1596 O 153.212 -4.13981 3.56766 0
M  V30 1597 H 150.306 -0.649092 0.512454 0
M  V30 1598 H 152.852 -0.735836 1.52917 0
M  V30 1599 H 151.624 -1.98994 3.36923 0
M  V30 1600 H 151.247 -3.2831 2.24272 0
M  V30 1601 N 152.244 -1.26651 -0.937939 0
M  V30 1602 C 153.655 -1.1125 -1.49934 0
M  V30 1603 C 154.006 0.306077 -1.93798 0
M  V30 1604 O 153.131 1.19792 -1.80219 0
M  V30 1605 C 153.726 -2.01339 -2.72485 0
M  V30 1606 C 152.285 -1.90074 -3.24883 0
M  V30 1607 C 151.432 -1.94498 -1.97651 0
M  V30 1608 H 154.383 -1.39693 -0.753091 0
M  V30 1609 H 154.404 -1.56319 -3.46907 0
M  V30 1610 H 153.916 -3.04577 -2.40529 0
M  V30 1611 H 152.017 -0.897827 -3.61621 0
M  V30 1612 H 152.13 -2.75778 -3.9177 0
M  V30 1613 H 150.494 -1.38591 -2.13693 0
M  V30 1614 H 151.277 -2.99372 -1.68022 0
M  V30 1615 N 153.722 1.14298 -1.08507 0
M  V30 1616 C 154.95 1.89219 -0.836876 0
M  V30 1617 C 155.365 1.78638 0.611054 0
M  V30 1618 O 154.722 1.14643 1.41998 0
M  V30 1619 C 154.773 3.39158 -1.25116 0
M  V30 1620 O 154.494 3.49449 -2.64229 0
M  V30 1621 C 155.995 4.31073 -1.03398 0
M  V30 1622 H 153.215 0.599328 -0.301739 0
M  V30 1623 H 155.759 1.44746 -1.44461 0
M  V30 1624 H 153.914 3.81251 -0.687514 0
M  V30 1625 H 154.328 4.42589 -2.81452 0
M  V30 1626 H 155.802 5.34646 -1.37323 0
M  V30 1627 H 156.279 4.3919 0.0289259 0
M  V30 1628 H 156.885 3.94738 -1.58311 0
M  V30 1629 N 155.201 0.870884 1.31352 0
M  V30 1630 C 156.429 0.49677 2.00848 0
M  V30 1631 C 156.844 -0.910998 1.65367 0
M  V30 1632 O 156.201 -1.59696 0.883374 0
M  V30 1633 C 156.252 0.645308 3.55694 0
M  V30 1634 O 155.973 1.99764 3.89905 0
M  V30 1635 C 157.474 0.272326 4.42463 0
M  V30 1636 H 154.694 0.193462 0.642506 0
M  V30 1637 H 157.238 1.1723 1.67563 0
M  V30 1638 H 155.393 0.0173176 3.87396 0
M  V30 1639 H 155.807 2.00607 4.84621 0
M  V30 1640 H 157.281 0.427208 5.50344 0
M  V30 1641 H 157.758 -0.788587 4.32062 0
M  V30 1642 H 158.364 0.876054 4.1618 0
M  V30 1643 N 156.679 -1.44442 0.630414 0
M  V30 1644 C 157.626 -2.30678 -0.0749355 0
M  V30 1645 C 158.596 -1.4344 -0.837502 0
M  V30 1646 O 159.781 -1.72343 -0.818684 0
M  V30 1647 C 156.921 -3.28706 -1.05103 0
M  V30 1648 C 156.034 -4.31046 -0.286954 0
M  V30 1649 C 155.169 -5.16167 -1.2548 0
M  V30 1650 C 154.208 -6.10216 -0.479843 0
M  V30 1651 N 153.345 -6.88039 -1.39811 0
M  V30 1652 H 158.185 -2.90454 0.666386 0
M  V30 1653 H 155.722 -1.43107 0.340404 0
M  V30 1654 H 157.68 -3.84027 -1.63031 0
M  V30 1655 H 156.31 -2.70632 -1.75949 0
M  V30 1656 H 155.362 -3.78203 0.408243 0
M  V30 1657 H 156.674 -4.97794 0.316657 0
M  V30 1658 H 155.828 -5.76002 -1.90544 0
M  V30 1659 H 154.567 -4.49491 -1.89233 0
M  V30 1660 H 153.572 -5.49491 0.184295 0
M  V30 1661 H 154.797 -6.78928 0.152965 0
M  V30 1662 H 152.743 -6.24032 -2.02287 0
M  V30 1663 H 152.66 -7.51223 -0.848508 0
M  V30 1664 H 153.928 -7.52397 -2.03762 0
M  V30 1665 N 158.157 -0.370918 -1.53173 0
M  V30 1666 C 159.387 0.217389 -2.05453 0
M  V30 1667 C 159.795 1.42568 -1.24382 0
M  V30 1668 O 159.138 1.81571 -0.278839 0
M  V30 1669 C 159.2 0.669827 -3.53205 0
M  V30 1670 C 158.864 -0.4225 -4.55043 0
M  V30 1671 C 159.861 -1.27407 -5.04047 0
M  V30 1672 C 157.546 -0.58427 -4.9889 0
M  V30 1673 C 159.54 -2.27271 -5.95505 0
M  V30 1674 C 157.227 -1.58627 -5.90153 0
M  V30 1675 C 158.225 -2.42892 -6.38351 0
M  V30 1676 O 157.913 -3.41382 -7.27814 0
M  V30 1677 H 157.645 0.0408171 -0.674767 0
M  V30 1678 H 160.199 -0.5292 -1.98466 0
M  V30 1679 H 158.429 1.4681 -3.57748 0
M  V30 1680 H 160.118 1.18173 -3.88317 0
M  V30 1681 H 160.884 -1.16031 -4.70916 0
M  V30 1682 H 156.763 0.061851 -4.60959 0
M  V30 1683 H 160.307 -2.93079 -6.33049 0
M  V30 1684 H 156.204 -1.70048 -6.22699 0
M  V30 1685 H 156.972 -3.37173 -7.45826 0
M  V30 1686 N 159.635 1.57281 -0.100228 0
M  V30 1687 C 160.881 1.95626 0.556946 0
M  V30 1688 C 161.236 0.981655 1.65473 0
M  V30 1689 O 160.529 0.00849847 1.91598 0
M  V30 1690 C 160.723 3.38305 1.15259 0
M  V30 1691 C 160.552 4.49555 0.114035 0
M  V30 1692 C 159.322 5.0434 -0.311266 0
M  V30 1693 C 161.52 5.10051 -0.659768 0
M  V30 1694 N 159.502 5.99152 -1.33755 0
M  V30 1695 C 160.873 6.00628 -1.53774 0
M  V30 1696 C 162.928 4.92772 -0.712723 0
M  V30 1697 C 161.631 6.7578 -2.46403 0
M  V30 1698 C 163.657 5.6859 -1.62663 0
M  V30 1699 C 163.019 6.58838 -2.49222 0
M  V30 1700 H 159.118 0.7624 0.173982 0
M  V30 1701 H 161.702 1.93829 -0.183988 0
M  V30 1702 H 159.873 3.40786 1.86332 0
M  V30 1703 H 161.605 3.63817 1.77254 0
M  V30 1704 H 158.36 4.73537 0.0774812 0
M  V30 1705 H 158.784 6.5126 -1.84905 0
M  V30 1706 H 163.426 4.22761 -0.0576648 0
M  V30 1707 H 161.144 7.4505 -3.12931 0
M  V30 1708 H 164.73 5.57233 -1.67281 0
M  V30 1709 H 163.61 7.16479 -3.18791 0
M  V30 1710 N 161.113 -0.173488 1.56642 0
M  V30 1711 C 162.524 -0.736155 1.71574 0
M  V30 1712 C 162.875 -1.82888 0.710389 0
M  V30 1713 O 162 -2.16017 -0.1287 0
M  V30 1714 C 162.595 -1.34211 3.11083 0
M  V30 1715 C 161.154 -1.85162 3.27707 0
M  V30 1716 C 160.301 -0.729765 2.67525 0
M  V30 1717 H 163.252 0.0518786 1.58615 0
M  V30 1718 H 163.273 -2.21178 3.09613 0
M  V30 1719 H 162.785 -0.546579 3.84232 0
M  V30 1720 H 160.886 -2.67366 2.59512 0
M  V30 1721 H 160.999 -1.99855 4.35425 0
M  V30 1722 H 159.363 -1.14965 2.27278 0
M  V30 1723 H 160.146 0.0538806 3.43258 0
M  V30 1724 N 162.591 -1.51276 -0.441967 0
M  V30 1725 C 163.501 -1.75092 -1.56141 0
M  V30 1726 C 164.517 -0.634963 -1.62001 0
M  V30 1727 O 165.693 -0.916686 -1.79329 0
M  V30 1728 C 162.758 -1.86666 -2.92158 0
M  V30 1729 C 161.819 -3.10506 -2.96453 0
M  V30 1730 C 161.052 -3.21519 -4.25982 0
M  V30 1731 O 161.275 -2.38586 -5.18105 0
M  V30 1732 O 160.209 -4.14465 -4.36466 0
M  V30 1733 H 164.035 -2.70044 -1.38961 0
M  V30 1734 H 161.62 -1.35722 -0.624499 0
M  V30 1735 H 163.502 -1.96292 -3.72891 0
M  V30 1736 H 162.177 -0.949014 -3.09476 0
M  V30 1737 H 161.084 -3.06363 -2.14692 0
M  V30 1738 H 162.417 -4.01945 -2.84079 0
M  V30 1739 N 164.069 0.697108 -1.41344 0
M  V30 1740 C 164.999 1.82353 -1.45841 0
M  V30 1741 C 165.98 1.67115 -0.317247 0
M  V30 1742 O 167.165 1.86871 -0.528474 0
M  V30 1743 C 164.295 3.20476 -1.33838 0
M  V30 1744 C 163.249 3.50415 -2.4575 0
M  V30 1745 C 162.575 4.87878 -2.18813 0
M  V30 1746 C 163.875 3.49546 -3.88091 0
M  V30 1747 H 165.569 1.78846 -2.40113 0
M  V30 1748 H 163.115 0.859028 -1.15571 0
M  V30 1749 H 165.068 3.98988 -1.35596 0
M  V30 1750 H 163.792 3.24604 -0.360498 0
M  V30 1751 H 162.451 2.74253 -2.43271 0
M  V30 1752 H 162.099 4.8863 -1.19371 0
M  V30 1753 H 161.799 5.08875 -2.93803 0
M  V30 1754 H 163.323 5.68702 -2.22284 0
M  V30 1755 H 164.737 4.18066 -3.92293 0
M  V30 1756 H 163.134 3.82075 -4.62751 0
M  V30 1757 H 164.204 2.48552 -4.16353 0
M  V30 1758 N 165.547 1.27147 0.931209 0
M  V30 1759 C 166.775 1.16082 1.71267 0
M  V30 1760 C 167.19 -0.282772 1.8667 0
M  V30 1761 O 166.547 -1.19283 1.38122 0
M  V30 1762 C 166.598 1.8358 3.11417 0
M  V30 1763 O 166.319 3.22299 2.96741 0
M  V30 1764 C 167.82 1.78597 4.05732 0
M  V30 1765 H 165.04 0.403758 0.535929 0
M  V30 1766 H 167.584 1.67953 1.16671 0
M  V30 1767 H 165.739 1.35623 3.62885 0
M  V30 1768 H 166.153 3.55851 3.85319 0
M  V30 1769 H 167.627 2.30444 5.01597 0
M  V30 1770 H 168.104 0.754564 4.3267 0
M  V30 1771 H 168.71 2.26152 3.60188 0
M  V30 1772 N 167.025 -1.13721 1.09112 0
M  V30 1773 C 167.988 -2.17222 0.731241 0
M  V30 1774 C 168.988 -1.59035 -0.237566 0
M  V30 1775 O 170.178 -1.74192 -0.0161704 0
M  V30 1776 C 167.31 -3.40804 0.0808443 0
M  V30 1777 H 168.503 -2.50573 1.64783 0
M  V30 1778 H 166.056 -1.28493 0.889897 0
M  V30 1779 H 166.791 -3.1304 -0.847127 0
M  V30 1780 H 166.576 -3.84306 0.777896 0
M  V30 1781 H 168.066 -4.1731 -0.155657 0
M  V30 1782 N 168.503 -0.877838 -1.30888 0
M  V30 1783 C 169.45 -0.337538 -2.28318 0
M  V30 1784 C 170.42 0.568346 -1.56074 0
M  V30 1785 O 171.605 0.498298 -1.84178 0
M  V30 1786 C 168.745 0.448142 -3.42178 0
M  V30 1787 C 167.858 -0.48615 -4.29256 0
M  V30 1788 C 166.993 0.314427 -5.30269 0
M  V30 1789 C 166.032 -0.615791 -6.08995 0
M  V30 1790 N 165.169 0.14902 -7.01942 0
M  V30 1791 H 170.009 -1.17356 -2.73919 0
M  V30 1792 H 167.546 -0.590094 -1.34745 0
M  V30 1793 H 169.504 0.919517 -4.06941 0
M  V30 1794 H 168.134 1.24879 -2.97666 0
M  V30 1795 H 167.186 -1.076 -3.64865 0
M  V30 1796 H 168.498 -1.19909 -4.84173 0
M  V30 1797 H 167.652 0.847969 -6.00745 0
M  V30 1798 H 166.391 1.06062 -4.76027 0
M  V30 1799 H 165.396 -1.16102 -5.37401 0
M  V30 1800 H 166.621 -1.36097 -6.65323 0
M  V30 1801 H 164.567 0.877884 -6.50099 0
M  V30 1802 H 164.484 -0.504433 -7.54315 0
M  V30 1803 H 165.752 0.663537 -7.76671 0
M  V30 1804 N 169.982 1.44106 -0.638065 0
M  V30 1805 C 170.914 2.28976 0.101205 0
M  V30 1806 C 171.927 1.4167 0.802088 0
M  V30 1807 O 173.116 1.65755 0.662375 0
M  V30 1808 C 170.216 3.18217 1.16581 0
M  V30 1809 C 169.389 4.33978 0.546066 0
M  V30 1810 C 168.448 5.04202 1.50554 0
M  V30 1811 O 167.474 5.59986 1.01999 0
M  V30 1812 N 168.676 5.06296 2.8398 0
M  V30 1813 H 171.441 2.93064 -0.627186 0
M  V30 1814 H 169.002 1.54629 -0.479731 0
M  V30 1815 H 170.994 3.62061 1.80815 0
M  V30 1816 H 169.564 2.55833 1.79634 0
M  V30 1817 H 168.784 3.93239 -0.275046 0
M  V30 1818 H 170.072 5.08675 0.112793 0
M  V30 1819 H 169.47 4.62319 3.26002 0
M  V30 1820 H 168.027 5.53907 3.43556 0
M  V30 1821 N 171.46 0.379036 1.52974 0
M  V30 1822 C 172.706 -0.199244 2.02422 0
M  V30 1823 C 173.061 -1.4532 1.26095 0
M  V30 1824 O 172.354 -1.88377 0.34996 0
M  V30 1825 C 172.548 -0.53096 3.53434 0
M  V30 1826 C 172.377 0.689298 4.44386 0
M  V30 1827 C 171.147 1.20546 4.9071 0
M  V30 1828 C 173.345 1.55856 4.90116 0
M  V30 1829 N 171.327 2.38434 5.65705 0
M  V30 1830 C 172.698 2.58396 5.63588 0
M  V30 1831 C 174.753 1.57986 4.7217 0
M  V30 1832 C 173.456 3.62939 6.21022 0
M  V30 1833 C 175.482 2.6143 5.30479 0
M  V30 1834 C 174.844 3.62693 6.03849 0
M  V30 1835 H 170.943 -0.0352671 0.781204 0
M  V30 1836 H 173.527 0.526614 1.87443 0
M  V30 1837 H 171.698 -1.22588 3.68547 0
M  V30 1838 H 173.43 -1.0955 3.89591 0
M  V30 1839 H 170.185 0.768022 4.67331 0
M  V30 1840 H 170.609 2.98055 6.07859 0
M  V30 1841 H 175.251 0.810475 4.14959 0
M  V30 1842 H 172.969 4.40751 6.77321 0
M  V30 1843 H 176.555 2.63949 5.18481 0
M  V30 1844 H 175.435 4.41424 6.48163 0
M  V30 1845 N 172.938 -1.57226 0.108567 0
M  V30 1846 C 173.886 -2.16002 -0.862885 0
M  V30 1847 C 174.88 -1.10644 -1.28274 0
M  V30 1848 O 176.086 -1.28966 -1.2557 0
M  V30 1849 H 172.461 -0.691148 -0.296342 0
M  V30 1850 H 174.432 -2.96427 -0.342575 0
M  V30 1851 C 173.181 -2.76576 -2.10716 0
M  V30 1852 H 172.504 -3.5734 -1.793 0
M  V30 1853 H 173.944 -3.21253 -2.76717 0
M  V30 1854 C 172.403 -1.73137 -2.89007 0
M  V30 1855 O 172.933 -1.17842 -3.84026 0
M  V30 1856 N 171.139 -1.43317 -2.52801 0
M  V30 1857 H 170.686 -1.88473 -1.75601 0
M  V30 1858 H 170.644 -0.743485 -3.05483 0
M  V30 1859 N 174.416 0.165178 -1.56732 0
M  V30 1860 C 175.664 0.879068 -1.8198 0
M  V30 1861 C 175.985 1.82514 -0.686561 0
M  V30 1862 O 175.255 1.93694 0.293146 0
M  V30 1863 H 173.835 0.327608 -0.671329 0
M  V30 1864 H 176.497 0.163526 -1.94213 0
M  V30 1865 H 175.593 1.45228 -2.76252 0
M  V30 1866 N 175.894 1.51508 0.433938 0
M  V30 1867 C 177.143 1.63578 1.18005 0
M  V30 1868 C 177.456 0.359514 1.92268 0
M  V30 1869 O 178.662 0.359632 2.69108 0
M  V30 1870 C 177.118 2.88901 2.14626 0
M  V30 1871 C 176.726 4.23544 1.45995 0
M  V30 1872 C 178.47 3.10328 2.89649 0
M  V30 1873 C 176.377 5.40014 2.4112 0
M  V30 1874 H 175.307 0.609277 0.444182 0
M  V30 1875 H 177.958 1.77978 0.446773 0
M  V30 1876 H 176.34 2.68142 2.91403 0
M  V30 1877 H 177.514 4.54696 0.747532 0
M  V30 1878 H 175.829 4.08021 0.831115 0
M  V30 1879 H 178.426 3.94518 3.60915 0
M  V30 1880 H 178.769 2.23544 3.51189 0
M  V30 1881 H 179.302 3.31443 2.19978 0
M  V30 1882 H 176.041 6.29068 1.84264 0
M  V30 1883 H 175.561 5.13233 3.10406 0
M  V30 1884 H 177.24 5.72099 3.02177 0
M  V30 1885 N 177.372 -0.689602 1.41712 0
M  V30 1886 C 178.6 -1.47827 1.44758 0
M  V30 1887 C 179.015 -1.88721 0.0545703 0
M  V30 1888 O 178.372 -1.57176 -0.927463 0
M  V30 1889 C 178.423 -2.73698 2.3616 0
M  V30 1890 O 178.144 -2.34524 3.7004 0
M  V30 1891 C 179.645 -3.67389 2.48072 0
M  V30 1892 H 176.865 -0.455357 0.49284 0
M  V30 1893 H 179.409 -0.848574 1.86063 0
M  V30 1894 H 177.564 -3.32891 1.98148 0
M  V30 1895 H 177.978 -3.15701 4.18847 0
M  V30 1896 H 179.452 -4.52475 3.16181 0
M  V30 1897 H 179.929 -4.12284 1.51388 0
M  V30 1898 H 180.535 -3.14097 2.86746 0
M  V30 1899 N 178.85 -1.27639 -0.924453 0
M  V30 1900 C 179.78 -1.13166 -2.04244 0
M  V30 1901 C 180.761 -0.032256 -1.70069 0
M  V30 1902 O 181.946 -0.207328 -1.9309 0
M  V30 1903 C 179.076 -0.781496 -3.38393 0
M  V30 1904 C 178.03 -1.83449 -3.86692 0
M  V30 1905 C 177.356 -1.33822 -5.17683 0
M  V30 1906 C 178.656 -3.23917 -4.09726 0
M  V30 1907 H 180.35 -2.06689 -2.1661 0
M  V30 1908 H 177.896 -0.995136 -1.04082 0
M  V30 1909 H 179.849 -0.667057 -4.16087 0
M  V30 1910 H 178.573 0.189439 -3.2605 0
M  V30 1911 H 177.232 -1.93789 -3.11193 0
M  V30 1912 H 176.88 -0.35665 -5.01734 0
M  V30 1913 H 176.58 -2.04224 -5.50968 0
M  V30 1914 H 178.104 -1.23679 -5.97943 0
M  V30 1915 H 179.518 -3.16559 -4.77978 0
M  V30 1916 H 177.915 -3.92059 -4.54324 0
M  V30 1917 H 178.985 -3.68729 -3.14908 0
M  V30 1918 N 180.328 1.1314 -1.09713 0
M  V30 1919 C 181.258 2.20748 -0.761102 0
M  V30 1920 C 182.239 1.68061 0.262566 0
M  V30 1921 O 183.424 1.93765 0.129977 0
M  V30 1922 C 180.554 3.46812 -0.184054 0
M  V30 1923 C 179.508 4.12606 -1.13757 0
M  V30 1924 C 178.834 5.33031 -0.422083 0
M  V30 1925 C 180.134 4.59603 -2.48118 0
M  V30 1926 H 181.828 2.49113 -1.66082 0
M  V30 1927 H 179.374 1.19734 -0.799987 0
M  V30 1928 H 181.327 4.21353 0.0631215 0
M  V30 1929 H 180.051 3.17851 0.750868 0
M  V30 1930 H 178.71 3.40036 -1.37007 0
M  V30 1931 H 178.358 5.00335 0.517072 0
M  V30 1932 H 178.058 5.77999 -1.05788 0
M  V30 1933 H 179.582 6.10325 -0.183277 0
M  V30 1934 H 180.996 5.25552 -2.29059 0
M  V30 1935 H 179.393 5.15321 -3.07514 0
M  V30 1936 H 180.463 3.73971 -3.08665 0
M  V30 1937 N 181.806 0.884767 1.30421 0
M  V30 1938 C 182.756 0.322846 2.25703 0
M  V30 1939 C 183.74 -0.548582 1.51259 0
M  V30 1940 O 184.932 -0.39304 1.72581 0
M  V30 1941 C 182.061 -0.461787 3.4018 0
M  V30 1942 C 181.147 0.423717 4.21978 0
M  V30 1943 N 181.538 1.52408 4.82292 0
M  V30 1944 C 179.836 0.218795 4.45463 0
M  V30 1945 C 180.537 2.07136 5.43571 0
M  V30 1946 N 179.513 1.36635 5.26148 0
M  V30 1947 H 183.315 1.16363 2.69883 0
M  V30 1948 H 180.829 0.73415 1.44859 0
M  V30 1949 H 182.826 -0.880985 4.07485 0
M  V30 1950 H 181.486 -1.30001 2.9754 0
M  V30 1951 H 182.497 1.90693 4.81515 0
M  V30 1952 H 179.174 -0.582275 4.1342 0
M  V30 1953 H 180.564 2.99538 6.01437 0
M  V30 1954 N 183.284 -1.43765 0.645699 0
M  V30 1955 C 184.214 -2.33471 -0.0370477 0
M  V30 1956 C 185.195 -1.49042 -0.819779 0
M  V30 1957 O 186.38 -1.77726 -0.782758 0
M  V30 1958 C 183.51 -3.32311 -1.0093 0
M  V30 1959 C 182.464 -4.2667 -0.337201 0
M  V30 1960 C 181.79 -5.1549 -1.42037 0
M  V30 1961 C 183.09 -5.16657 0.765706 0
M  V30 1962 H 184.784 -2.90809 0.712069 0
M  V30 1963 H 182.33 -1.39834 0.343876 0
M  V30 1964 H 184.283 -3.9396 -1.49578 0
M  V30 1965 H 183.007 -2.73213 -1.78948 0
M  V30 1966 H 181.666 -3.66374 0.128771 0
M  V30 1967 H 181.314 -4.52735 -2.1918 0
M  V30 1968 H 181.014 -5.79438 -0.975966 0
M  V30 1969 H 182.538 -5.80012 -1.90838 0
M  V30 1970 H 183.952 -5.72158 0.361702 0
M  V30 1971 H 182.349 -5.89286 1.13413 0
M  V30 1972 H 183.419 -4.56796 1.62683 0
M  V30 1973 N 184.763 -0.387143 -1.52771 0
M  V30 1974 C 185.726 0.436939 -2.24997 0
M  V30 1975 C 186.726 0.991991 -1.26555 0
M  V30 1976 O 187.916 0.874335 -1.50669 0
M  V30 1977 C 185.048 1.61281 -3.00335 0
M  V30 1978 H 186.241 -0.195365 -2.99263 0
M  V30 1979 H 183.794 -0.139218 -1.55679 0
M  V30 1980 H 184.529 2.2826 -2.30364 0
M  V30 1981 H 184.314 1.22154 -3.72587 0
M  V30 1982 H 185.804 2.19629 -3.5518 0
M  V30 1983 N 186.241 1.57166 -0.116904 0
M  V30 1984 C 187.469 1.99473 0.549383 0
M  V30 1985 C 187.884 0.996541 1.60357 0
M  V30 1986 O 187.241 -0.0108731 1.82497 0
M  V30 1987 C 187.292 3.41788 1.17741 0
M  V30 1988 O 187.013 4.37788 0.165362 0
M  V30 1989 C 188.514 3.99216 1.92722 0
M  V30 1990 H 185.734 0.655009 0.145616 0
M  V30 1991 H 188.278 2.03494 -0.202625 0
M  V30 1992 H 186.433 3.38713 1.88021 0
M  V30 1993 H 186.847 5.20806 0.621403 0
M  V30 1994 H 188.321 5.00882 2.31995 0
M  V30 1995 H 188.798 3.3824 2.80161 0
M  V30 1996 H 189.404 4.0583 1.27209 0
M  V30 1997 N 187.719 -0.156864 1.56817 0
M  V30 1998 C 188.949 -0.885031 1.86684 0
M  V30 1999 C 189.357 -1.75696 0.701954 0
M  V30 2000 O 188.7 -1.80569 -0.337732 0
M  V30 2001 C 188.762 -1.80092 3.11138 0
M  V30 2002 C 188.426 -1.10714 4.43386 0
M  V30 2003 C 189.423 -0.465714 5.1781 0
M  V30 2004 C 187.108 -1.09959 4.90117 0
M  V30 2005 C 189.102 0.174002 6.37162 0
M  V30 2006 C 186.789 -0.456055 6.09396 0
M  V30 2007 C 187.787 0.179622 6.82764 0
M  V30 2008 O 187.475 0.812975 7.99779 0
M  V30 2009 H 187.207 -0.261813 0.623242 0
M  V30 2010 H 189.761 -0.157383 2.04796 0
M  V30 2011 H 187.991 -2.56926 2.89009 0
M  V30 2012 H 189.68 -2.40018 3.27332 0
M  V30 2013 H 190.446 -0.463427 4.82781 0
M  V30 2014 H 186.325 -1.58378 4.3294 0
M  V30 2015 H 189.869 0.670765 6.94368 0
M  V30 2016 H 185.766 -0.455975 6.43888 0
M  V30 2017 H 186.534 0.71366 8.15383 0
M  V30 2018 N 189.197 -1.51736 -0.425897 0
M  V30 2019 C 190.425 -1.68794 -1.1965 0
M  V30 2020 C 190.84 -0.390164 -1.84725 0
M  V30 2021 O 190.197 0.632376 -1.71194 0
M  V30 2022 C 190.248 -2.81174 -2.27208 0
M  V30 2023 O 189.969 -4.05925 -1.64793 0
M  V30 2024 C 191.47 -3.09599 -3.17275 0
M  V30 2025 H 188.69 -0.566128 -0.360194 0
M  V30 2026 H 191.234 -1.98211 -0.503249 0
M  V30 2027 H 189.389 -2.54324 -2.9223 0
M  V30 2028 H 189.803 -4.68423 -2.35967 0
M  V30 2029 H 191.277 -3.91786 -3.88854 0
M  V30 2030 H 191.754 -2.22468 -3.78688 0
M  V30 2031 H 192.36 -3.38151 -2.57941 0
M  V30 2032 N 190.675 0.682077 -1.42076 0
M  V30 2033 C 191.638 1.77756 -1.44691 0
M  V30 2034 C 192.638 1.5726 -0.335535 0
M  V30 2035 O 193.828 1.63686 -0.596037 0
M  V30 2036 C 190.96 3.16301 -1.27146 0
M  V30 2037 H 192.153 1.76826 -2.42224 0
M  V30 2038 H 189.706 0.891012 -1.28416 0
M  V30 2039 H 190.441 3.22862 -0.305075 0
M  V30 2040 H 190.226 3.32581 -2.07683 0
M  V30 2041 H 191.716 3.96241 -1.31843 0
M  V30 2042 N 192.153 1.28127 0.917671 0
M  V30 2043 C 193.401 1.14825 1.66312 0
M  V30 2044 C 193.722 -0.304379 1.9261 0
M  V30 2045 O 192.992 -1.21149 1.53947 0
M  V30 2046 H 191.572 0.421953 0.616413 0
M  V30 2047 H 194.234 1.608 1.10134 0
M  V30 2048 H 193.33 1.68489 2.62712 0
M  V30 2049 N 193.631 -1.12557 1.10312 0
M  V30 2050 C 194.879 -1.83675 0.843091 0
M  V30 2051 C 195.2 -1.84435 -0.633131 0
M  V30 2052 O 194.47 -1.30657 -1.45964 0
M  V30 2053 H 193.05 -0.680138 0.308904 0
M  V30 2054 H 195.712 -1.36301 1.39313 0
M  V30 2055 H 194.808 -2.87908 1.2048 0
M  V30 2056 N 195.109 -0.891671 -1.2995 0
M  V30 2057 C 196.039 -0.379797 -2.30391 0
M  V30 2058 C 197.02 0.540919 -1.6127 0
M  V30 2059 O 198.205 0.453352 -1.88834 0
M  V30 2060 C 195.335 0.400654 -3.44981 0
M  V30 2061 C 194.289 -0.428905 -4.25846 0
M  V30 2062 C 193.615 0.478557 -5.32554 0
M  V30 2063 C 194.915 -1.67458 -4.94727 0
M  V30 2064 H 196.609 -1.21914 -2.73454 0
M  V30 2065 H 194.155 -0.587675 -1.31462 0
M  V30 2066 H 196.108 0.769434 -4.14316 0
M  V30 2067 H 194.832 1.27371 -3.0074 0
M  V30 2068 H 193.491 -0.779911 -3.58208 0
M  V30 2069 H 193.139 1.34951 -4.84559 0
M  V30 2070 H 192.839 -0.0727433 -5.87555 0
M  V30 2071 H 194.363 0.843705 -6.04743 0
M  V30 2072 H 195.777 -1.376 -5.56542 0
M  V30 2073 H 194.174 -2.16659 -5.59624 0
M  V30 2074 H 195.244 -2.41518 -4.20473 0
M  V30 2075 N 196.587 1.43421 -0.653314 0
M  V30 2076 C 197.998 1.85065 -0.246537 0
M  V30 2077 C 198.349 1.54688 1.2069 0
M  V30 2078 O 197.474 0.995896 1.92122 0
M  V30 2079 C 198.069 3.35922 -0.440666 0
M  V30 2080 C 196.628 3.76297 -0.0882064 0
M  V30 2081 C 195.775 2.67147 -0.743484 0
M  V30 2082 H 198.726 1.33572 -0.856979 0
M  V30 2083 H 198.747 3.79204 0.313798 0
M  V30 2084 H 198.259 3.58 -1.49858 0
M  V30 2085 H 196.36 3.5983 0.96711 0
M  V30 2086 H 196.473 4.76338 -0.513738 0
M  V30 2087 H 194.837 2.54086 -0.176712 0
M  V30 2088 H 195.62 2.92053 -1.80443 0
M  V30 2089 N 198.065 0.39524 1.52563 0
M  V30 2090 C 198.995 -0.428384 2.29537 0
M  V30 2091 C 199.976 -1.05831 1.33169 0
M  V30 2092 O 201.161 -1.06995 1.62067 0
M  V30 2093 C 198.291 -1.55274 3.10656 0
M  V30 2094 C 197.245 -1.04855 4.14957 0
M  V30 2095 C 196.571 -2.26543 4.84337 0
M  V30 2096 C 197.871 -0.112324 5.22179 0
M  V30 2097 H 199.565 0.213867 2.98635 0
M  V30 2098 H 197.111 0.104298 1.43622 0
M  V30 2099 H 199.064 -2.1358 3.63265 0
M  V30 2100 H 197.788 -2.22266 2.39302 0
M  V30 2101 H 196.447 -0.487985 3.63338 0
M  V30 2102 H 196.095 -2.92059 4.09525 0
M  V30 2103 H 195.795 -1.93466 5.54837 0
M  V30 2104 H 197.319 -2.85481 5.39753 0
M  V30 2105 H 198.733 -0.603752 5.70112 0
M  V30 2106 H 197.13 0.128968 5.99961 0
M  V30 2107 H 198.2 0.837052 4.77621 0
M  V30 2108 N 199.544 -1.57102 0.125237 0
M  V30 2109 C 200.476 -2.12726 -0.853237 0
M  V30 2110 C 201.489 -1.07145 -1.22571 0
M  V30 2111 O 202.678 -1.34497 -1.17358 0
M  V30 2112 C 199.778 -2.61709 -2.15317 0
M  V30 2113 C 198.951 -3.91456 -1.95143 0
M  V30 2114 C 198.01 -4.25973 -3.08923 0
M  V30 2115 O 197.036 -4.94682 -2.81564 0
M  V30 2116 N 198.238 -3.83795 -4.35524 0
M  V30 2117 H 201.003 -2.97307 -0.377964 0
M  V30 2118 H 198.564 -1.61792 -0.0590011 0
M  V30 2119 H 200.556 -2.81826 -2.90441 0
M  V30 2120 H 199.126 -1.81974 -2.54174 0
M  V30 2121 H 198.346 -3.80185 -1.04177 0
M  V30 2122 H 199.634 -4.76283 -1.78976 0
M  V30 2123 H 199.032 -3.2839 -4.60626 0
M  V30 2124 H 197.589 -4.09008 -5.07499 0
M  V30 2125 N 201.022 0.148545 -1.56898 0
M  V30 2126 C 202.268 0.862694 -1.83536 0
M  V30 2127 C 202.601 1.80889 -0.706604 0
M  V30 2128 O 201.876 1.92328 0.289885 0
M  V30 2129 C 202.159 1.63853 -3.20662 0
M  V30 2130 C 202.012 0.713925 -4.44098 0
M  V30 2131 C 203.331 2.60133 -3.54991 0
M  V30 2132 H 200.45 0.312179 -0.667618 0
M  V30 2133 H 203.092 0.127953 -1.89569 0
M  V30 2134 H 201.242 2.26489 -3.1565 0
M  V30 2135 H 202.914 0.098686 -4.61194 0
M  V30 2136 H 201.157 0.0234019 -4.33794 0
M  V30 2137 H 201.828 1.29278 -5.36648 0
M  V30 2138 H 204.304 2.07616 -3.60603 0
M  V30 2139 H 203.18 3.11468 -4.51972 0
M  V30 2140 H 203.441 3.41417 -2.80868 0
M  V30 2141 N 202.5 1.5196 0.417844 0
M  V30 2142 C 203.911 1.57851 0.997 0
M  V30 2143 C 204.262 0.413714 1.91789 0
M  V30 2144 O 203.387 -0.467057 2.113 0
M  V30 2145 C 203.982 2.86085 1.81496 0
M  V30 2146 C 202.541 2.94483 2.34428 0
M  V30 2147 C 201.688 2.52707 1.14169 0
M  V30 2148 H 204.639 1.57455 0.198392 0
M  V30 2149 H 204.66 2.70947 2.67148 0
M  V30 2150 H 204.172 3.70842 1.14446 0
M  V30 2151 H 202.273 2.142 3.04875 0
M  V30 2152 H 202.386 3.98546 2.65891 0
M  V30 2153 H 200.75 2.06353 1.49301 0
M  V30 2154 H 201.533 3.39828 0.486999 0
M  V30 2155 N 203.978 -0.674533 1.42435 0
M  V30 2156 C 205.255 -1.4305 1.33402 0
M  V30 2157 C 205.635 -2.11081 -0.0284674 0
M  V30 2158 O 204.983 -2.03257 -1.04397 0
M  V30 2159 C 205.193 -2.43272 2.50239 0
M  V30 2160 C 206.541 -3.07907 2.92367 0
M  V30 2161 O 207.565 -2.53599 2.50132 0
M  V30 2162 O 206.424 -4.0632 3.65467 0
M  V30 2163 H 203.518 -0.638076 0.526106 0
M  V30 2164 H 206.064 -0.703235 1.54443 0
M  V30 2165 H 204.836 -1.91803 3.41068 0
M  V30 2166 H 204.459 -3.23479 2.31186 0
M  V30 2167 N 205.456 -1.28612 -0.910864 0
M  V30 2168 C 206.366 -1.14643 -2.0468 0
M  V30 2169 C 207.382 -0.0723121 -1.7385 0
M  V30 2170 O 208.558 -0.282178 -1.99413 0
M  V30 2171 C 205.623 -0.812561 -3.37044 0
M  V30 2172 C 204.684 -1.96935 -3.81465 0
M  V30 2173 C 203.917 -1.65131 -5.07511 0
M  V30 2174 O 204.14 -0.567013 -5.67575 0
M  V30 2175 O 203.074 -2.49585 -5.47714 0
M  V30 2176 H 206.9 -2.1001 -2.19384 0
M  V30 2177 H 204.485 -1.07958 -1.03274 0
M  V30 2178 H 206.367 -0.640441 -4.16505 0
M  V30 2179 H 205.042 0.111426 -3.23508 0
M  V30 2180 H 203.949 -2.19664 -3.02818 0
M  V30 2181 H 205.282 -2.87414 -3.99567 0
M  V30 2182 N 206.934 1.1197 -1.10907 0
M  V30 2183 C 208.18 1.8386 -0.855773 0
M  V30 2184 C 208.513 1.84134 0.617103 0
M  V30 2185 O 207.788 1.29041 1.45529 0
M  V30 2186 C 208.071 3.31305 -1.411 0
M  V30 2187 C 207.924 3.39456 -2.9511 0
M  V30 2188 C 209.243 4.2721 -1.05736 0
M  V30 2189 H 206.362 0.667545 -0.312334 0
M  V30 2190 H 209.004 1.31331 -1.37303 0
M  V30 2191 H 207.154 3.76169 -0.97105 0
M  V30 2192 H 208.826 3.03191 -3.47668 0
M  V30 2193 H 207.069 2.79849 -3.31462 0
M  V30 2194 H 207.74 4.43209 -3.29044 0
M  V30 2195 H 210.216 3.90497 -1.43706 0
M  V30 2196 H 209.092 5.28775 -1.47269 0
M  V30 2197 H 209.353 4.42088 0.0325958 0
M  V30 2198 N 208.412 0.89855 1.29475 0
M  V30 2199 C 209.359 0.373819 2.27753 0
M  V30 2200 C 210.329 -0.543444 1.56958 0
M  V30 2201 O 211.514 -0.468934 1.84948 0
M  V30 2202 C 208.654 -0.393648 3.42848 0
M  V30 2203 C 207.767 0.554379 4.28428 0
M  V30 2204 C 206.902 -0.230026 5.30702 0
M  V30 2205 C 205.941 0.712599 6.07938 0
M  V30 2206 N 205.078 -0.0373283 7.0209 0
M  V30 2207 H 209.918 1.21699 2.72017 0
M  V30 2208 H 207.455 0.611456 1.33789 0
M  V30 2209 H 209.413 -0.85466 4.08352 0
M  V30 2210 H 208.043 -1.20128 2.99615 0
M  V30 2211 H 207.095 1.13391 3.63107 0
M  V30 2212 H 208.407 1.27597 4.82204 0
M  V30 2213 H 207.561 -0.752288 6.02018 0
M  V30 2214 H 206.3 -0.984758 4.77654 0
M  V30 2215 H 205.305 1.24637 5.35486 0
M  V30 2216 H 206.53 1.46664 6.63074 0
M  V30 2217 H 204.476 -0.774348 6.51414 0
M  V30 2218 H 204.393 0.624374 7.53417 0
M  V30 2219 H 205.661 -0.539891 7.77628 0
M  V30 2220 N 209.89 -1.43072 0.660911 0
M  V30 2221 C 211.115 -2.06584 0.183805 0
M  V30 2222 C 211.54 -1.49257 -1.14472 0
M  V30 2223 O 210.898 -0.605528 -1.70889 0
M  V30 2224 C 210.946 -3.60418 0.114434 0
M  V30 2225 O 210.05 -4.01981 -0.921137 0
M  V30 2226 H 209.391 -0.656669 0.0983994 0
M  V30 2227 H 211.921 -1.83447 0.906006 0
M  V30 2228 H 211.931 -4.07946 -0.0663394 0
M  V30 2229 H 210.606 -4.01519 1.08422 0
M  V30 2230 H 209.183 -3.66029 -0.71253 0
M  V30 2231 N 211.368 -0.403325 -1.52352 0
M  V30 2232 C 212.593 0.176499 -2.06648 0
M  V30 2233 C 213.018 1.38577 -1.27193 0
M  V30 2234 O 212.376 1.7879 -0.300637 0
M  V30 2235 C 212.424 0.511061 -3.5696 0
M  V30 2236 O 211.528 1.60294 -3.79973 0
M  V30 2237 H 210.869 0.0167337 -0.663789 0
M  V30 2238 H 213.399 -0.574848 -1.96359 0
M  V30 2239 H 213.409 0.771362 -4.00642 0
M  V30 2240 H 212.084 -0.37296 -4.14224 0
M  V30 2241 H 210.661 1.33526 -3.48174 0
M  V30 2242 N 212.846 1.57033 -0.133567 0
M  V30 2243 C 214.071 2.00475 0.531477 0
M  V30 2244 C 214.496 1.01291 1.58499 0
M  V30 2245 O 213.854 -0.0133279 1.81295 0
M  V30 2246 C 213.902 3.42729 1.12113 0
M  V30 2247 O 213.006 3.46498 2.23636 0
M  V30 2248 H 212.347 0.650876 0.131362 0
M  V30 2249 H 214.877 2.03344 -0.22634 0
M  V30 2250 H 214.887 3.81246 1.4531 0
M  V30 2251 H 213.562 4.14428 0.349557 0
M  V30 2252 H 212.139 3.19811 1.91769 0
M  V30 2253 N 214.325 -0.140222 1.56975 0
M  V30 2254 C 215.602 -0.880769 1.74648 0
M  V30 2255 C 215.982 -1.99036 0.703404 0
M  V30 2256 O 215.33 -2.26821 -0.27648 0
M  V30 2257 C 215.54 -1.417 3.18939 0
M  V30 2258 C 216.888 -1.87774 3.80823 0
M  V30 2259 O 217.912 -1.51427 3.2241 0
M  V30 2260 O 216.771 -2.54827 4.83452 0
M  V30 2261 H 213.865 -0.416713 0.714338 0
M  V30 2262 H 216.411 -0.125618 1.69234 0
M  V30 2263 H 215.183 -0.619902 3.86359 0
M  V30 2264 H 214.806 -2.23546 3.28805 0
M  V30 2265 N 215.803 -1.52179 -0.40978 0
M  V30 2266 C 216.733 -1.78435 -1.5061 0
M  V30 2267 C 217.714 -0.635295 -1.57791 0
M  V30 2268 O 218.899 -0.880823 -1.73076 0
M  V30 2269 C 216.029 -1.93444 -2.88439 0
M  V30 2270 C 214.983 -3.09038 -2.96108 0
M  V30 2271 C 214.309 -3.09268 -4.36185 0
M  V30 2272 C 215.609 -4.48508 -2.67652 0
M  V30 2273 H 217.303 -2.70237 -1.28889 0
M  V30 2274 H 214.849 -1.30036 -0.618605 0
M  V30 2275 H 216.802 -2.10394 -3.65119 0
M  V30 2276 H 215.526 -0.983129 -3.11452 0
M  V30 2277 H 214.185 -2.91837 -2.21872 0
M  V30 2278 H 213.833 -2.11861 -4.56206 0
M  V30 2279 H 213.533 -3.86907 -4.42241 0
M  V30 2280 H 215.057 -3.28348 -5.14801 0
M  V30 2281 H 216.471 -4.65918 -3.34056 0
M  V30 2282 H 214.868 -5.28059 -2.85085 0
M  V30 2283 H 215.938 -4.56649 -1.63095 0
M  V30 2284 N 217.281 0.66697 -1.42791 0
M  V30 2285 C 218.211 1.79218 -1.49677 0
M  V30 2286 C 219.192 1.66405 -0.352623 0
M  V30 2287 O 220.377 1.85708 -0.567993 0
M  V30 2288 C 217.507 3.17565 -1.40605 0
M  V30 2289 C 216.461 3.45124 -2.53127 0
M  V30 2290 C 215.787 4.83127 -2.29112 0
M  V30 2291 C 217.087 3.41236 -3.95418 0
M  V30 2292 H 218.781 1.73713 -2.43853 0
M  V30 2293 H 216.327 0.83432 -1.17367 0
M  V30 2294 H 218.28 3.96022 -1.44029 0
M  V30 2295 H 217.004 3.23767 -0.429271 0
M  V30 2296 H 215.663 2.69031 -2.49034 0
M  V30 2297 H 215.311 4.85988 -1.29709 0
M  V30 2298 H 215.011 5.02528 -3.04531 0
M  V30 2299 H 216.535 5.63859 -2.34297 0
M  V30 2300 H 217.949 4.09651 -4.01073 0
M  V30 2301 H 216.346 3.72173 -4.70752 0
M  V30 2302 H 217.416 2.39665 -4.21532 0
M  V30 2303 N 218.759 1.29093 0.90403 0
M  V30 2304 C 220.175 1.07011 1.1841 0
M  V30 2305 C 220.375 -0.181358 2.00682 0
M  V30 2306 O 219.431 -0.880331 2.36657 0
M  V30 2307 C 220.744 2.32311 1.90924 0
M  V30 2308 C 222.292 2.37587 2.03768 0
M  V30 2309 C 222.767 3.62679 2.79693 0
M  V30 2310 N 224.258 3.63376 2.87249 0
M  V30 2311 C 224.993 4.56848 3.46522 0
M  V30 2312 N 224.489 5.60648 4.06996 0
M  V30 2313 N 226.282 4.44426 3.44154 0
M  V30 2314 H 218.433 2.09412 0.354993 0
M  V30 2315 H 220.696 0.922181 0.219742 0
M  V30 2316 H 220.402 3.23536 1.37905 0
M  V30 2317 H 220.276 2.39483 2.91424 0
M  V30 2318 H 222.663 1.46853 2.55965 0
M  V30 2319 H 222.744 2.34403 1.02415 0
M  V30 2320 H 222.388 4.53762 2.28173 0
M  V30 2321 H 222.318 3.63119 3.81381 0
M  V30 2322 H 224.809 2.88321 2.44293 0
M  V30 2323 H 225.122 6.28101 4.50232 0
M  V30 2324 H 223.467 5.64463 4.05471 0
M  V30 2325 H 226.658 3.62529 2.96126 0
M  V30 2326 H 226.831 5.17457 3.90054 0
M  V30 2327 N 220.237 -1.11381 1.11499 0
M  V30 2328 C 221.484 -1.83132 0.864231 0
M  V30 2329 C 221.812 -1.84683 -0.610114 0
M  V30 2330 O 221.067 -1.29589 -1.46646 0
M  V30 2331 C 221.366 -3.30026 1.37177 0
M  V30 2332 C 221.032 -3.48634 2.85946 0
M  V30 2333 C 219.694 -3.53421 3.26569 0
M  V30 2334 C 222.046 -3.54837 3.81759 0
M  V30 2335 C 219.374 -3.61967 4.61733 0
M  V30 2336 C 221.726 -3.64915 5.1674 0
M  V30 2337 C 220.39 -3.67962 5.5692 0
M  V30 2338 H 219.66 -0.670127 0.316245 0
M  V30 2339 H 222.307 -1.31354 1.3935 0
M  V30 2340 H 220.612 -3.84304 0.762753 0
M  V30 2341 H 222.309 -3.84034 1.15408 0
M  V30 2342 H 218.899 -3.45579 2.53521 0
M  V30 2343 H 223.083 -3.50399 3.51474 0
M  V30 2344 H 218.339 -3.62603 4.92269 0
M  V30 2345 H 222.513 -3.68658 5.90816 0
M  V30 2346 H 220.14 -3.74336 6.61647 0
M  V30 2347 N 221.715 -0.905404 -1.28997 0
M  V30 2348 C 222.945 -0.549049 -1.99171 0
M  V30 2349 C 223.353 0.87203 -1.67906 0
M  V30 2350 O 222.696 1.58796 -0.923561 0
M  V30 2351 C 222.758 -0.668306 -3.53234 0
M  V30 2352 C 222.422 -2.0574 -4.08069 0
M  V30 2353 C 223.419 -3.0292 -4.22534 0
M  V30 2354 C 221.104 -2.36833 -4.42962 0
M  V30 2355 C 223.098 -4.29314 -4.71135 0
M  V30 2356 C 220.785 -3.63467 -4.91258 0
M  V30 2357 C 221.783 -4.59522 -5.053 0
M  V30 2358 O 221.471 -5.83907 -5.52546 0
M  V30 2359 H 221.203 -0.208784 -0.64295 0
M  V30 2360 H 223.757 -1.21836 -1.65363 0
M  V30 2361 H 221.987 0.0580547 -3.86656 0
M  V30 2362 H 223.676 -0.320273 -4.04634 0
M  V30 2363 H 224.442 -2.80216 -3.95859 0
M  V30 2364 H 220.321 -1.62824 -4.31288 0
M  V30 2365 H 223.865 -5.04293 -4.8201 0
M  V30 2366 H 219.762 -3.86 -5.17372 0
M  V30 2367 H 220.53 -5.86578 -5.70849 0
M  V30 2368 N 223.193 1.4272 -0.668489 0
M  V30 2369 C 224.125 2.2914 0.052613 0
M  V30 2370 C 225.138 1.43339 0.771857 0
M  V30 2371 O 226.327 1.67123 0.627067 0
M  V30 2372 C 223.427 3.20618 1.09804 0
M  V30 2373 C 222.6 4.35039 0.45389 0
M  V30 2374 C 221.659 5.07282 1.39825 0
M  V30 2375 O 220.685 5.62024 0.900978 0
M  V30 2376 N 221.887 5.12206 2.73176 0
M  V30 2377 H 224.652 2.91668 -0.689209 0
M  V30 2378 H 222.213 1.53577 -0.512422 0
M  V30 2379 H 224.205 3.65815 1.73094 0
M  V30 2380 H 222.775 2.59585 1.74167 0
M  V30 2381 H 221.995 3.92567 -0.358396 0
M  V30 2382 H 223.283 5.088 0.00486972 0
M  V30 2383 H 222.681 4.6913 3.16122 0
M  V30 2384 H 221.238 5.61069 3.31729 0
M  V30 2385 N 224.671 0.411399 1.52136 0
M  V30 2386 C 225.619 -0.427633 2.28635 0
M  V30 2387 C 226.613 -1.04383 1.33419 0
M  V30 2388 O 227.819 -0.981772 1.50868 0
M  V30 2389 H 224.194 -0.156689 0.735495 0
M  V30 2390 H 226.165 0.238761 2.97443 0
M  V30 2391 C 224.914 -1.53082 3.12188 0
M  V30 2392 H 224.237 -1.06601 3.85326 0
M  V30 2393 H 225.677 -2.09167 3.68816 0
M  V30 2394 C 224.136 -2.49946 2.25895 0
M  V30 2395 O 224.666 -3.53884 1.90076 0
M  V30 2396 N 222.872 -2.2021 1.8962 0
M  V30 2397 H 222.419 -1.35719 2.18948 0
M  V30 2398 H 222.377 -2.85266 1.32176 0
M  V30 2399 N 226.149 -1.5696 0.141893 0
M  V30 2400 C 227.395 -1.97034 -0.504884 0
M  V30 2401 C 227.75 -1.02518 -1.62812 0
M  V30 2402 O 227.043 -0.0592943 -1.91508 0
M  V30 2403 C 227.237 -3.41242 -1.06249 0
M  V30 2404 C 227.066 -4.497 0.00519653 0
M  V30 2405 C 225.836 -5.03338 0.444873 0
M  V30 2406 C 228.034 -5.08122 0.794767 0
M  V30 2407 N 226.016 -5.95395 1.49593 0
M  V30 2408 C 227.387 -5.96339 1.69645 0
M  V30 2409 C 229.442 -4.9071 0.843122 0
M  V30 2410 C 228.145 -6.69009 2.64233 0
M  V30 2411 C 230.171 -5.64077 1.77681 0
M  V30 2412 C 229.533 -6.51999 2.66603 0
M  V30 2413 H 225.632 -0.766745 -0.153707 0
M  V30 2414 H 228.216 -1.93273 0.235313 0
M  V30 2415 H 226.387 -3.45606 -1.77231 0
M  V30 2416 H 228.119 -3.68389 -1.67546 0
M  V30 2417 H 224.874 -4.73576 0.0480959 0
M  V30 2418 H 225.298 -6.46128 2.02107 0
M  V30 2419 H 229.94 -4.22459 0.169732 0
M  V30 2420 H 227.658 -7.36492 3.32575 0
M  V30 2421 H 231.244 -5.52602 1.81996 0
M  V30 2422 H 230.124 -7.07775 3.37675 0
M  V30 2423 N 227.627 0.131896 -1.57047 0
M  V30 2424 C 228.559 1.1878 -1.9602 0
M  V30 2425 C 229.572 1.38363 -0.857875 0
M  V30 2426 O 230.761 1.37666 -1.13623 0
M  V30 2427 C 227.861 2.55008 -2.23213 0
M  V30 2428 C 227.034 2.56201 -3.54513 0
M  V30 2429 C 226.093 3.7408 -3.70069 0
M  V30 2430 O 225.119 3.58258 -4.42312 0
M  V30 2431 N 226.321 4.92137 -3.07866 0
M  V30 2432 H 229.086 0.85639 -2.87204 0
M  V30 2433 H 226.647 0.321309 -1.5868 0
M  V30 2434 H 228.639 3.32404 -2.30846 0
M  V30 2435 H 227.209 2.80382 -1.3822 0
M  V30 2436 H 226.429 1.64613 -3.58185 0
M  V30 2437 H 227.717 2.54043 -4.4084 0
M  V30 2438 H 227.115 5.07895 -2.49116 0
M  V30 2439 H 225.672 5.67254 -3.21039 0
M  V30 2440 N 229.106 1.52395 0.401703 0
M  V30 2441 C 230.517 1.58899 0.980202 0
M  V30 2442 C 230.868 0.434032 1.91339 0
M  V30 2443 O 229.993 -0.444619 2.11783 0
M  V30 2444 C 230.588 2.87994 1.78451 0
M  V30 2445 C 229.147 2.96953 2.31292 0
M  V30 2446 C 228.294 2.53903 1.11483 0
M  V30 2447 H 231.245 1.57657 0.18168 0
M  V30 2448 H 231.266 2.73765 2.64259 0
M  V30 2449 H 230.778 3.72035 1.10506 0
M  V30 2450 H 228.879 2.17422 3.02586 0
M  V30 2451 H 228.992 4.01344 2.61649 0
M  V30 2452 H 227.356 2.07925 1.47104 0
M  V30 2453 H 228.139 3.40326 0.450928 0
M  V30 2454 N 230.584 -0.659388 1.43143 0
M  V30 2455 C 231.547 -1.75432 1.47501 0
M  V30 2456 C 232.547 -1.56707 0.360512 0
M  V30 2457 O 233.737 -1.62717 0.622002 0
M  V30 2458 C 230.869 -3.14239 1.32162 0
M  V30 2459 H 232.062 -1.7295 2.45006 0
M  V30 2460 H 229.615 -0.870469 1.29817 0
M  V30 2461 H 230.35 -3.22336 0.356401 0
M  V30 2462 H 230.135 -3.29235 2.12948 0
M  V30 2463 H 231.625 -3.94094 1.3813 0
M  V30 2464 N 232.062 -1.29571 -0.897171 0
M  V30 2465 C 233.308 -1.18873 -1.65048 0
M  V30 2466 C 233.663 0.256707 -1.9068 0
M  V30 2467 O 232.956 1.18202 -1.50794 0
M  V30 2468 C 233.15 -1.9382 -3.00281 0
M  V30 2469 C 232.979 -3.45503 -2.8785 0
M  V30 2470 C 231.749 -4.14856 -2.88483 0
M  V30 2471 C 233.947 -4.40956 -2.64693 0
M  V30 2472 N 231.929 -5.52886 -2.66815 0
M  V30 2473 C 233.3 -5.66464 -2.5203 0
M  V30 2474 C 235.355 -4.3069 -2.49821 0
M  V30 2475 C 234.058 -6.82871 -2.26008 0
M  V30 2476 C 236.084 -5.46852 -2.25182 0
M  V30 2477 C 235.446 -6.71333 -2.13286 0
M  V30 2478 H 231.545 -0.489998 -0.609447 0
M  V30 2479 H 234.129 -1.63431 -1.05822 0
M  V30 2480 H 232.3 -1.51671 -3.57562 0
M  V30 2481 H 234.032 -1.75366 -3.64731 0
M  V30 2482 H 230.787 -3.66579 -2.99861 0
M  V30 2483 H 231.211 -6.25487 -2.59027 0
M  V30 2484 H 235.853 -3.35141 -2.5776 0
M  V30 2485 H 233.571 -7.78473 -2.16806 0
M  V30 2486 H 237.157 -5.40809 -2.14515 0
M  V30 2487 H 236.037 -7.59701 -1.94485 0
M  V30 2488 N 233.54 1.10788 -1.12088 0
M  V30 2489 C 234.503 2.15207 -0.788577 0
M  V30 2490 C 235.503 1.59609 0.195317 0
M  V30 2491 O 236.693 1.74174 -0.0300193 0
M  V30 2492 C 233.825 3.4047 -0.171174 0
M  V30 2493 H 235.018 2.46116 -1.71368 0
M  V30 2494 H 232.571 1.26089 -0.923652 0
M  V30 2495 H 233.306 3.15176 0.763832 0
M  V30 2496 H 233.091 3.82109 -0.879514 0
M  V30 2497 H 234.581 4.17576 0.04496 0
M  V30 2498 N 235.018 0.912232 1.28515 0
M  V30 2499 C 236.429 0.591352 1.77087 0
M  V30 2500 C 236.78 -0.8933 1.74684 0
M  V30 2501 O 235.905 -1.69876 1.34056 0
M  V30 2502 C 236.5 1.06668 3.2157 0
M  V30 2503 C 235.059 0.79675 3.67871 0
M  V30 2504 C 234.206 1.23427 2.48316 0
M  V30 2505 H 237.157 1.09365 1.15 0
M  V30 2506 H 237.178 0.407455 3.78312 0
M  V30 2507 H 236.69 2.14726 3.23287 0
M  V30 2508 H 234.791 -0.270679 3.71616 0
M  V30 2509 H 234.904 1.40343 4.58084 0
M  V30 2510 H 233.268 0.653036 2.46186 0
M  V30 2511 H 234.051 2.32316 2.52753 0
M  V30 2512 N 236.496 -1.42363 0.676048 0
M  V30 2513 C 237.744 -2.01123 0.198437 0
M  V30 2514 C 238.065 -1.53731 -1.19966 0
M  V30 2515 O 237.335 -0.759518 -1.80577 0
M  V30 2516 H 235.915 -0.743678 0.0703721 0
M  V30 2517 H 238.577 -1.74263 0.872837 0
M  V30 2518 H 237.673 -3.11454 0.200686 0
M  V30 2519 N 237.974 -0.419461 -1.51915 0
M  V30 2520 C 239.202 0.152136 -2.0634 0
M  V30 2521 C 239.617 1.37988 -1.28859 0
M  V30 2522 O 238.974 1.79243 -0.343232 0
M  V30 2523 C 239.025 0.492266 -3.58133 0
M  V30 2524 O 238.746 -0.686736 -4.32684 0
M  V30 2525 C 240.247 1.11648 -4.2901 0
M  V30 2526 H 237.467 0.0158325 -0.670813 0
M  V30 2527 H 240.011 -0.593394 -1.95702 0
M  V30 2528 H 238.166 1.18769 -3.68745 0
M  V30 2529 H 238.58 -0.400341 -5.2297 0
M  V30 2530 H 240.054 1.3046 -5.36362 0
M  V30 2531 H 240.531 2.09251 -3.86148 0
M  V30 2532 H 241.137 0.460958 -4.22795 0
M  V30 2533 N 239.452 1.56882 -0.150215 0
M  V30 2534 C 240.384 2.14057 0.819286 0
M  V30 2535 C 241.397 1.09082 1.20851 0
M  V30 2536 O 242.586 1.36347 1.15203 0
M  V30 2537 C 239.686 2.65102 2.11127 0
M  V30 2538 C 238.859 3.94511 1.88891 0
M  V30 2539 C 237.918 4.30834 3.02107 0
M  V30 2540 O 236.944 4.99099 2.73659 0
M  V30 2541 N 238.146 3.90676 4.29363 0
M  V30 2542 H 240.911 2.97871 0.330618 0
M  V30 2543 H 238.472 1.61866 0.0332538 0
M  V30 2544 H 240.464 2.86411 2.85921 0
M  V30 2545 H 239.034 1.85994 2.51247 0
M  V30 2546 H 238.254 3.81795 0.981152 0
M  V30 2547 H 239.542 4.7907 1.71376 0
M  V30 2548 H 238.94 3.35677 4.55343 0
M  V30 2549 H 237.497 4.1703 5.00928 0
M  V30 2550 N 240.93 -0.123565 1.57115 0
M  V30 2551 C 242.346 -0.476961 1.52306 0
M  V30 2552 C 242.546 -1.82109 0.86248 0
M  V30 2553 O 241.602 -2.48586 0.442884 0
M  V30 2554 C 242.915 -0.465661 2.97073 0
M  V30 2555 C 244.463 -0.549534 3.08138 0
M  V30 2556 C 244.938 -0.568669 4.54456 0
M  V30 2557 N 246.429 -0.630237 4.58892 0
M  V30 2558 C 247.164 -0.666415 5.69514 0
M  V30 2559 N 246.66 -0.660514 6.89644 0
M  V30 2560 N 248.453 -0.709077 5.5761 0
M  V30 2561 H 240.604 0.757198 1.98445 0
M  V30 2562 H 242.867 0.278808 0.906074 0
M  V30 2563 H 242.573 0.454232 3.48754 0
M  V30 2564 H 242.447 -1.29513 3.54269 0
M  V30 2565 H 244.834 -1.45985 2.56461 0
M  V30 2566 H 244.915 0.307532 2.53945 0
M  V30 2567 H 244.559 0.337581 5.06777 0
M  V30 2568 H 244.489 -1.44256 5.06456 0
M  V30 2569 H 246.98 -0.641146 3.72421 0
M  V30 2570 H 247.293 -0.690616 7.69708 0
M  V30 2571 H 245.638 -0.628012 6.92157 0
M  V30 2572 H 248.829 -0.711019 4.62668 0
M  V30 2573 H 249.002 -0.733804 6.43832 0
M  V30 2574 N 242.408 -1.52605 -0.393616 0
M  V30 2575 C 243.338 -1.80022 -1.48709 0
M  V30 2576 C 244.319 -0.651995 -1.57108 0
M  V30 2577 O 245.504 -0.89913 -1.72132 0
M  V30 2578 C 242.634 -1.96492 -2.86371 0
M  V30 2579 C 241.588 -3.12161 -2.92813 0
M  V30 2580 C 240.914 -3.13877 -4.3288 0
M  V30 2581 C 242.214 -4.51322 -2.6288 0
M  V30 2582 H 243.908 -2.71589 -1.26015 0
M  V30 2583 H 241.454 -1.30684 -0.604778 0
M  V30 2584 H 243.407 -2.14255 -3.62867 0
M  V30 2585 H 242.131 -1.01611 -3.10391 0
M  V30 2586 H 240.79 -2.94173 -2.18764 0
M  V30 2587 H 240.438 -2.16687 -4.53933 0
M  V30 2588 H 240.138 -3.91576 -4.38112 0
M  V30 2589 H 241.662 -3.33789 -5.1129 0
M  V30 2590 H 243.076 -4.69435 -3.29096 0
M  V30 2591 H 241.473 -5.31053 -2.79468 0
M  V30 2592 H 242.543 -4.58353 -1.58242 0
M  V30 2593 N 243.887 0.651787 -1.4349 0
M  V30 2594 C 245.117 1.43728 -1.48411 0
M  V30 2595 C 245.525 1.8893 -0.10103 0
M  V30 2596 O 244.868 1.60182 0.899307 0
M  V30 2597 C 244.93 2.70411 -2.36893 0
M  V30 2598 C 244.594 2.4714 -3.8441 0
M  V30 2599 C 245.591 2.10271 -4.75481 0
M  V30 2600 C 243.276 2.6142 -4.28912 0
M  V30 2601 C 245.27 1.87982 -6.0905 0
M  V30 2602 C 242.957 2.38746 -5.62533 0
M  V30 2603 C 243.955 2.02083 -6.5242 0
M  V30 2604 O 243.643 1.79647 -7.8357 0
M  V30 2605 H 243.375 0.447962 -0.506267 0
M  V30 2606 H 245.929 0.80624 -1.88915 0
M  V30 2607 H 244.159 3.36079 -1.91278 0
M  V30 2608 H 245.848 3.32364 -2.33 0
M  V30 2609 H 246.614 1.98814 -4.42378 0
M  V30 2610 H 242.493 2.88931 -3.59222 0
M  V30 2611 H 246.037 1.5929 -6.7917 0
M  V30 2612 H 241.934 2.49806 -5.95203 0
M  V30 2613 H 242.702 1.9406 -7.95162 0
M  V30 2614 N 245.365 1.30045 0.890287 0
M  V30 2615 C 246.328 1.15963 1.977 0
M  V30 2616 C 247.328 0.0923777 1.60534 0
M  V30 2617 O 248.518 0.340071 1.70848 0
M  V30 2618 C 245.65 0.775451 3.31963 0
M  V30 2619 H 246.843 2.12502 2.11619 0
M  V30 2620 H 244.396 1.13366 1.07601 0
M  V30 2621 H 245.131 -0.189671 3.23745 0
M  V30 2622 H 244.916 1.54668 3.60306 0
M  V30 2623 H 246.406 0.700251 4.11687 0
M  V30 2624 N 246.843 -1.10192 1.12674 0
M  V30 2625 C 247.791 -2.18694 0.792196 0
M  V30 2626 C 248.785 -1.67938 -0.222058 0
M  V30 2627 O 249.991 -1.79822 -0.0800074 0
M  V30 2628 H 246.366 -0.713223 0.238364 0
M  V30 2629 H 248.337 -2.44149 1.71564 0
M  V30 2630 C 247.086 -3.46682 0.265859 0
M  V30 2631 H 246.409 -3.86101 1.03761 0
M  V30 2632 H 247.849 -4.23942 0.0701128 0
M  V30 2633 C 246.308 -3.21506 -1.00675 0
M  V30 2634 O 246.838 -3.43408 -2.08408 0
M  V30 2635 N 245.044 -2.75158 -0.934692 0
M  V30 2636 H 244.591 -2.57535 -0.0578604 0
M  V30 2637 H 244.549 -2.58691 -1.7868 0
M  V30 2638 N 248.321 -0.919034 -1.28029 0
M  V30 2639 C 249.546 -0.570357 -1.99403 0
M  V30 2640 C 249.971 0.842486 -1.68178 0
M  V30 2641 O 249.329 1.56391 -0.917141 0
M  V30 2642 C 249.377 -0.792541 -3.51783 0
M  V30 2643 O 248.481 0.145988 -4.12142 0
M  V30 2644 H 247.822 -0.220555 -0.6263 0
M  V30 2645 H 250.352 -1.23592 -1.63053 0
M  V30 2646 H 250.362 -0.704708 -4.01868 0
M  V30 2647 H 249.037 -1.82247 -3.73844 0
M  V30 2648 H 247.614 0.00897528 -3.72899 0
M  V30 2649 N 249.799 1.42003 -0.683588 0
M  V30 2650 C 251.024 2.06265 -0.216647 0
M  V30 2651 C 251.449 1.51059 1.12083 0
M  V30 2652 O 250.807 0.632638 1.69904 0
M  V30 2653 C 250.855 3.60191 -0.171759 0
M  V30 2654 O 249.959 4.03396 0.857069 0
M  V30 2655 H 249.3 0.65502 -0.108834 0
M  V30 2656 H 251.83 1.81982 -0.935077 0
M  V30 2657 H 251.84 4.08 0.0014303 0
M  V30 2658 H 250.515 3.99743 -1.14796 0
M  V30 2659 H 249.092 3.67117 0.654208 0
M  V30 2660 N 251.277 0.427512 1.51691 0
M  V30 2661 C 252.526 -0.143679 2.01188 0
M  V30 2662 C 252.839 -1.44642 1.31674 0
M  V30 2663 O 254.045 -2.09997 1.72086 0
M  V30 2664 C 252.501 -0.306602 3.58592 0
M  V30 2665 C 252.109 0.985125 4.37035 0
M  V30 2666 C 253.853 -0.832091 4.16265 0
M  V30 2667 C 251.76 0.788382 5.86122 0
M  V30 2668 H 250.69 -0.0574701 0.751807 0
M  V30 2669 H 253.341 0.555772 1.74881 0
M  V30 2670 H 251.723 -1.06882 3.81303 0
M  V30 2671 H 252.897 1.75492 4.26074 0
M  V30 2672 H 251.212 1.4384 3.90767 0
M  V30 2673 H 253.809 -0.995617 5.25349 0
M  V30 2674 H 254.152 -1.81186 3.74803 0
M  V30 2675 H 254.685 -0.128444 3.97593 0
M  V30 2676 H 251.424 1.74025 6.31978 0
M  V30 2677 H 250.944 0.0582143 5.99772 0
M  V30 2678 H 252.623 0.437722 6.45518 0
M  V30 2679 N 252.755 -1.56801 0.158532 0
M  V30 2680 C 254.003 -1.96102 -0.488712 0
M  V30 2681 C 254.324 -1.04498 -1.64636 0
M  V30 2682 O 253.594 -0.108783 -1.95598 0
M  V30 2683 H 252.174 -0.724102 -0.183535 0
M  V30 2684 H 254.836 -1.93457 0.236728 0
M  V30 2685 H 253.932 -3.00097 -0.857219 0
M  V30 2686 N 254.233 0.115231 -1.57178 0
M  V30 2687 C 255.163 1.1423 -2.03651 0
M  V30 2688 C 256.144 1.42967 -0.921655 0
M  V30 2689 O 257.329 1.53343 -1.19162 0
M  V30 2690 C 254.459 2.4675 -2.44401 0
M  V30 2691 C 253.413 2.32467 -3.59365 0
M  V30 2692 C 252.739 3.69984 -3.86026 0
M  V30 2693 C 254.039 1.78203 -4.90959 0
M  V30 2694 H 255.733 0.755749 -2.89705 0
M  V30 2695 H 253.279 0.362093 -1.39373 0
M  V30 2696 H 255.232 3.18854 -2.75517 0
M  V30 2697 H 253.956 2.87302 -1.55322 0
M  V30 2698 H 252.615 1.62811 -3.28463 0
M  V30 2699 H 252.263 4.08028 -2.94147 0
M  V30 2700 H 251.963 3.61279 -4.63412 0
M  V30 2701 H 253.487 4.43587 -4.19599 0
M  V30 2702 H 254.901 2.40128 -5.20587 0
M  V30 2703 H 253.298 1.8031 -5.72371 0
M  V30 2704 H 254.368 0.739876 -4.79222 0
M  V30 2705 N 255.711 1.52812 0.385517 0
M  V30 2706 C 256.958 1.68026 1.1302 0
M  V30 2707 C 257.286 0.421934 1.89868 0
M  V30 2708 O 256.541 -0.595749 1.86412 0
M  V30 2709 C 256.84 2.86856 2.13187 0
M  V30 2710 C 256.506 4.24159 1.5297 0
M  V30 2711 C 255.168 4.61501 1.36274 0
M  V30 2712 C 257.52 5.09627 1.09223 0
M  V30 2713 C 254.848 5.81966 0.743837 0
M  V30 2714 C 257.2 6.30719 0.487411 0
M  V30 2715 C 255.864 6.6679 0.307777 0
M  V30 2716 H 255.134 0.614849 0.413571 0
M  V30 2717 H 257.781 1.86962 0.414405 0
M  V30 2718 H 256.086 2.6235 2.90998 0
M  V30 2719 H 257.783 2.95821 2.70722 0
M  V30 2720 H 254.373 3.94746 1.66954 0
M  V30 2721 H 258.557 4.81343 1.20922 0
M  V30 2722 H 253.813 6.08519 0.592891 0
M  V30 2723 H 257.987 6.96259 0.140143 0
M  V30 2724 H 255.614 7.60001 -0.173879 0
M  V30 2725 N 257.189 -0.644168 1.43834 0
M  V30 2726 C 258.437 -1.40117 1.45642 0
M  V30 2727 C 258.758 -1.94814 0.0852413 0
M  V30 2728 O 258.028 -1.74988 -0.880688 0
M  V30 2729 H 256.608 -0.52005 0.536243 0
M  V30 2730 H 259.27 -0.7591 1.7951 0
M  V30 2731 H 258.366 -2.23902 2.17427 0
M  V30 2732 N 258.668 -1.30515 -0.883378 0
M  V30 2733 C 259.631 -1.1701 -1.97082 0
M  V30 2734 C 260.631 -0.10089 -1.60483 0
M  V30 2735 O 261.821 -0.349127 -1.70666 0
M  V30 2736 C 258.953 -0.793045 -3.31547 0
M  V30 2737 H 260.146 -2.13622 -2.10489 0
M  V30 2738 H 257.699 -1.13935 -1.06998 0
M  V30 2739 H 258.434 0.172499 -3.23841 0
M  V30 2740 H 258.219 -1.56576 -3.5948 0
M  V30 2741 H 259.709 -0.722073 -4.1131 0
M  V30 2742 N 260.146 1.09593 -1.13257 0
M  V30 2743 C 261.076 2.18214 -0.830946 0
M  V30 2744 C 262.057 1.68812 0.208966 0
M  V30 2745 O 263.242 1.9408 0.0682666 0
M  V30 2746 C 260.372 3.46051 -0.294296 0
M  V30 2747 C 259.326 4.08778 -1.26826 0
M  V30 2748 C 258.652 5.31419 -0.591449 0
M  V30 2749 C 259.952 4.51476 -2.62615 0
M  V30 2750 H 261.646 2.43703 -1.73923 0
M  V30 2751 H 259.192 1.17128 -0.837675 0
M  V30 2752 H 261.145 4.2134 -0.0709606 0
M  V30 2753 H 259.869 3.20079 0.649366 0
M  V30 2754 H 258.528 3.35505 -1.47756 0
M  V30 2755 H 258.176 5.01727 0.357633 0
M  V30 2756 H 257.876 5.74341 -1.24123 0
M  V30 2757 H 259.4 6.09433 -0.377355 0
M  V30 2758 H 260.814 5.17999 -2.45663 0
M  V30 2759 H 259.211 5.05277 -3.23752 0
M  V30 2760 H 260.281 3.63962 -3.20406 0
M  V30 2761 N 261.624 0.925811 1.2754 0
M  V30 2762 C 262.587 0.428129 2.25166 0
M  V30 2763 C 263.587 -0.452261 1.54309 0
M  V30 2764 O 264.777 -0.253608 1.72344 0
M  V30 2765 C 261.909 -0.384749 3.38722 0
M  V30 2766 H 263.102 1.29066 2.70706 0
M  V30 2767 H 260.655 0.706323 1.3943 0
M  V30 2768 H 261.39 -1.26618 2.98561 0
M  V30 2769 H 261.175 0.246454 3.91325 0
M  V30 2770 H 262.665 -0.723389 4.11287 0
M  V30 2771 N 263.102 -1.41638 0.69111 0
M  V30 2772 C 264.348 -2.01598 0.220519 0
M  V30 2773 C 264.681 -1.54594 -1.17535 0
M  V30 2774 O 263.956 -0.755177 -1.79241 0
M  V30 2775 C 264.239 -3.59062 0.273243 0
M  V30 2776 C 264.092 -4.16203 1.70573 0
M  V30 2777 C 265.411 -4.38546 -0.369457 0
M  V30 2778 H 262.53 -0.732468 0.0816045 0
M  V30 2779 H 265.172 -1.68445 0.878986 0
M  V30 2780 H 263.322 -3.87435 -0.287411 0
M  V30 2781 H 264.994 -3.98722 2.31989 0
M  V30 2782 H 263.237 -3.71414 2.2413 0
M  V30 2783 H 263.908 -5.25358 1.69419 0
M  V30 2784 H 266.384 -4.1596 0.107977 0
M  V30 2785 H 265.26 -5.48069 -0.302002 0
M  V30 2786 H 265.521 -4.17662 -1.44951 0
M  V30 2787 N 264.58 -0.43555 -1.51462 0
M  V30 2788 C 265.527 0.376797 -2.27703 0
M  V30 2789 C 266.497 1.01838 -1.31219 0
M  V30 2790 O 267.682 1.03762 -1.60119 0
M  V30 2791 C 264.822 1.47301 -3.12084 0
M  V30 2792 C 263.935 0.849744 -4.2356 0
M  V30 2793 C 263.07 1.92086 -4.95254 0
M  V30 2794 C 262.109 1.27593 -5.98654 0
M  V30 2795 N 261.246 2.28833 -6.63762 0
M  V30 2796 H 266.086 -0.279734 -2.96684 0
M  V30 2797 H 263.623 -0.149795 -1.46335 0
M  V30 2798 H 265.581 2.11984 -3.59331 0
M  V30 2799 H 264.211 2.0992 -2.45221 0
M  V30 2800 H 263.263 0.0912529 -3.80291 0
M  V30 2801 H 264.575 0.338878 -4.97648 0
M  V30 2802 H 263.729 2.64435 -5.46039 0
M  V30 2803 H 262.468 2.46545 -4.20793 0
M  V30 2804 H 261.473 0.537893 -5.47162 0
M  V30 2805 H 262.698 0.738693 -6.7507 0
M  V30 2806 H 260.644 2.82375 -5.92115 0
M  V30 2807 H 260.561 1.82632 -7.33608 0
M  V30 2808 H 261.829 3.00671 -7.19178 0
M  V30 2809 N 266.058 1.56714 -0.166846 0
M  V30 2810 C 267.469 1.83378 0.350646 0
M  V30 2811 C 267.82 1.08646 1.63372 0
M  V30 2812 O 266.945 0.338058 2.13743 0
M  V30 2813 C 267.54 3.32643 0.642963 0
M  V30 2814 C 266.099 3.59818 1.10491 0
M  V30 2815 C 265.246 2.76954 0.138411 0
M  V30 2816 H 268.197 1.53803 -0.391193 0
M  V30 2817 H 268.218 3.49878 1.49551 0
M  V30 2818 H 267.73 3.87007 -0.291055 0
M  V30 2819 H 265.831 3.1086 2.05418 0
M  V30 2820 H 265.944 4.68178 1.01716 0
M  V30 2821 H 264.308 2.4666 0.634911 0
M  V30 2822 H 265.091 3.34097 -0.789549 0
M  V30 2823 N 267.536 -0.106894 1.57237 0
M  V30 2824 C 268.761 -0.830287 1.90055 0
M  V30 2825 C 269.186 -1.72064 0.75998 0
M  V30 2826 O 268.544 -1.78982 -0.288991 0
M  V30 2827 C 268.592 -1.6295 3.21683 0
M  V30 2828 O 267.696 -2.73748 3.08441 0
M  V30 2829 H 267.037 -0.228855 0.623315 0
M  V30 2830 H 269.567 -0.085658 2.04421 0
M  V30 2831 H 269.577 -2.01621 3.54701 0
M  V30 2832 H 268.252 -0.975989 4.04286 0
M  V30 2833 H 266.829 -2.38192 2.86913 0
M  V30 2834 N 269.014 -1.53014 -0.377408 0
M  V30 2835 C 270.262 -1.6829 -1.11906 0
M  V30 2836 C 270.583 -0.431206 -1.90173 0
M  V30 2837 O 269.853 0.554595 -1.87886 0
M  V30 2838 H 268.433 -0.620371 -0.416112 0
M  V30 2839 H 271.095 -1.90167 -0.426893 0
M  V30 2840 H 270.191 -2.53862 -1.8155 0
M  V30 2841 N 270.492 0.636531 -1.44174 0
M  V30 2842 C 271.422 1.76003 -1.53444 0
M  V30 2843 C 272.403 1.65619 -0.387841 0
M  V30 2844 O 273.588 1.84461 -0.607257 0
M  V30 2845 C 270.718 3.14511 -1.4731 0
M  V30 2846 C 269.672 3.39677 -2.60391 0
M  V30 2847 C 268.998 4.78159 -2.39308 0
M  V30 2848 C 270.298 3.32772 -4.02567 0
M  V30 2849 H 271.992 1.68501 -2.47483 0
M  V30 2850 H 269.538 0.809237 -1.19111 0
M  V30 2851 H 271.491 3.92878 -1.52397 0
M  V30 2852 H 270.215 3.22783 -0.49785 0
M  V30 2853 H 268.874 2.63688 -2.54684 0
M  V30 2854 H 268.522 4.83128 -1.39988 0
M  V30 2855 H 268.222 4.95956 -3.15122 0
M  V30 2856 H 269.746 5.58762 -2.46205 0
M  V30 2857 H 271.16 4.01051 -4.09672 0
M  V30 2858 H 269.557 3.62104 -4.7854 0
M  V30 2859 H 270.627 2.30669 -4.2652 0
M  V30 2860 N 271.97 1.30982 0.876444 0
M  V30 2861 C 273.195 1.23373 1.66715 0
M  V30 2862 C 273.62 -0.19885 1.87046 0
M  V30 2863 O 272.978 -1.1427 1.40756 0
M  V30 2864 C 273.026 1.97644 3.01611 0
M  V30 2865 O 272.13 1.30935 3.91062 0
M  V30 2866 H 271.471 0.426279 0.509099 0
M  V30 2867 H 274.001 1.72944 1.09323 0
M  V30 2868 H 274.011 2.06992 3.51594 0
M  V30 2869 H 272.686 3.01829 2.86133 0
M  V30 2870 H 271.263 1.29996 3.49507 0
M  V30 2871 N 273.449 -1.08991 1.13837 0
M  V30 2872 C 274.696 -1.81258 0.902882 0
M  V30 2873 C 275.024 -1.85936 -0.570803 0
M  V30 2874 O 274.279 -1.3267 -1.43865 0
M  V30 2875 C 274.578 -3.27042 1.44147 0
M  V30 2876 C 274.244 -3.4249 2.93276 0
M  V30 2877 C 272.906 -3.46414 3.33992 0
M  V30 2878 C 275.258 -3.4666 3.892 0
M  V30 2879 C 272.586 -3.52091 4.69307 0
M  V30 2880 C 274.938 -3.53872 5.24364 0
M  V30 2881 C 273.602 -3.56066 5.646 0
M  V30 2882 H 272.872 -0.663268 0.330388 0
M  V30 2883 H 275.519 -1.28368 1.42105 0
M  V30 2884 H 273.824 -3.82599 0.844097 0
M  V30 2885 H 275.521 -3.81499 1.23528 0
M  V30 2886 H 272.111 -3.40124 2.60794 0
M  V30 2887 H 276.295 -3.42865 3.58828 0
M  V30 2888 H 271.551 -3.52079 4.9985 0
M  V30 2889 H 275.725 -3.56043 5.98503 0
M  V30 2890 H 273.352 -3.60218 6.69438 0
M  V30 2891 N 274.927 -0.932562 -1.27047 0
M  V30 2892 C 275.837 -0.441219 -2.30414 0
M  V30 2893 C 276.853 0.480525 -1.67233 0
M  V30 2894 O 278.029 0.362151 -1.98117 0
M  V30 2895 C 275.094 0.293651 -3.45454 0
M  V30 2896 C 274.155 -0.663601 -4.2414 0
M  V30 2897 C 273.388 0.0362932 -5.33688 0
M  V30 2898 O 273.611 1.2548 -5.56427 0
M  V30 2899 O 272.545 -0.638015 -5.98509 0
M  V30 2900 H 276.371 -1.29962 -2.74488 0
M  V30 2901 H 273.956 -0.6981 -1.32087 0
M  V30 2902 H 275.838 0.707951 -4.15411 0
M  V30 2903 H 274.513 1.12758 -3.03426 0
M  V30 2904 H 273.42 -1.12768 -3.56699 0
M  V30 2905 H 274.753 -1.46489 -4.69896 0
M  V30 2906 N 276.405 1.4127 -0.698611 0
M  V30 2907 C 277.337 2.292 0.00399731 0
M  V30 2908 C 278.35 1.44944 0.741279 0
M  V30 2909 O 279.539 1.68416 0.591477 0
M  V30 2910 C 276.639 3.22875 1.02979 0
M  V30 2911 C 275.812 4.35904 0.36151 0
M  V30 2912 C 274.871 5.10134 1.29033 0
M  V30 2913 O 273.897 5.63809 0.781562 0
M  V30 2914 N 275.099 5.17885 2.6225 0
M  V30 2915 H 277.864 2.9014 -0.750921 0
M  V30 2916 H 275.425 1.52455 -0.544882 0
M  V30 2917 H 277.417 3.69404 1.65296 0
M  V30 2918 H 275.987 2.63221 1.68622 0
M  V30 2919 H 275.207 3.91719 -0.441584 0
M  V30 2920 H 276.495 5.08696 -0.103055 0
M  V30 2921 H 275.893 4.7573 3.061 0
M  V30 2922 H 274.45 5.6798 3.19754 0
M  V30 2923 N 277.883 0.443576 1.51229 0
M  V30 2924 C 278.846 -0.353132 2.26463 0
M  V30 2925 C 279.846 -0.944338 1.3015 0
M  V30 2926 O 281.036 -0.817813 1.5381 0
M  V30 2927 C 278.168 -1.50023 3.06114 0
M  V30 2928 H 279.361 0.3063 2.98332 0
M  V30 2929 H 276.914 0.196902 1.55055 0
M  V30 2930 H 277.649 -2.19553 2.38677 0
M  V30 2931 H 277.434 -1.08241 3.76864 0
M  V30 2932 H 278.924 -2.06296 3.63087 0
M  V30 2933 N 279.361 -1.56624 0.175154 0
M  V30 2934 C 280.294 -2.14 -0.792412 0
M  V30 2935 C 281.272 -1.07114 -1.22333 0
M  V30 2936 O 282.456 -1.35112 -1.31442 0
M  V30 2937 C 279.583 -2.68268 -2.0676 0
M  V30 2938 C 278.629 -3.87562 -1.7804 0
M  V30 2939 S 279.462 -5.27074 -0.946222 0
M  V30 2940 C 280.618 -5.8475 -2.23199 0
M  V30 2941 H 280.851 -2.95736 -0.304588 0
M  V30 2942 H 278.384 -1.54349 -0.0395705 0
M  V30 2943 H 280.342 -3.00182 -2.80002 0
M  V30 2944 H 279.003 -1.86612 -2.52656 0
M  V30 2945 H 278.196 -4.23874 -2.72666 0
M  V30 2946 H 277.798 -3.56555 -1.12891 0
M  V30 2947 H 280.09 -5.97898 -3.18629 0
M  V30 2948 H 281.033 -6.81756 -1.91349 0
M  V30 2949 H 281.441 -5.13198 -2.35134 0
M  V30 2950 N 280.839 0.0985539 -1.57292 0
M  V30 2951 C 281.771 1.14595 -1.98496 0
M  V30 2952 C 282.784 1.36512 -0.887031 0
M  V30 2953 O 283.973 1.35225 -1.16518 0
M  V30 2954 C 281.073 2.50216 -2.28572 0
M  V30 2955 C 280.246 2.48624 -3.59868 0
M  V30 2956 C 279.305 3.66146 -3.7792 0
M  V30 2957 O 278.331 3.48795 -4.49812 0
M  V30 2958 N 279.533 4.85496 -3.18235 0
M  V30 2959 H 282.298 0.795277 -2.88956 0
M  V30 2960 H 279.859 0.287579 -1.59325 0
M  V30 2961 H 281.851 3.27432 -2.37845 0
M  V30 2962 H 280.421 2.77387 -1.44136 0
M  V30 2963 H 279.641 1.56978 -3.61596 0
M  V30 2964 H 280.929 2.44635 -4.46129 0
M  V30 2965 H 280.327 5.02497 -2.59833 0
M  V30 2966 H 278.884 5.60317 -3.32999 0
M  V30 2967 N 282.317 1.53212 0.369288 0
M  V30 2968 C 283.545 1.73119 1.13303 0
M  V30 2969 C 283.96 0.458455 1.83149 0
M  V30 2970 O 283.317 -0.568403 1.73423 0
M  V30 2971 C 283.368 2.89413 2.16616 0
M  V30 2972 O 283.089 4.11761 1.49614 0
M  V30 2973 C 284.59 3.21161 3.05566 0
M  V30 2974 H 281.81 0.579107 0.338934 0
M  V30 2975 H 284.354 1.99942 0.429338 0
M  V30 2976 H 282.509 2.64994 2.82589 0
M  V30 2977 H 282.923 4.76858 2.18419 0
M  V30 2978 H 284.397 4.05949 3.74045 0
M  V30 2979 H 284.874 2.36369 3.70171 0
M  V30 2980 H 285.48 3.47492 2.45213 0
M  V30 2981 N 283.795 -0.628877 1.44509 0
M  V30 2982 C 285.211 -0.947305 1.28446 0
M  V30 2983 C 285.411 -2.00275 0.221872 0
M  V30 2984 O 284.467 -2.49447 -0.391471 0
M  V30 2985 C 285.78 -1.40843 2.65676 0
M  V30 2986 C 287.328 -1.52379 2.73404 0
M  V30 2987 C 287.803 -2.01875 4.11109 0
M  V30 2988 N 289.294 -2.09142 4.13296 0
M  V30 2989 C 290.029 -2.48615 5.16699 0
M  V30 2990 N 289.525 -2.87209 6.30462 0
M  V30 2991 N 291.318 -2.48768 5.04054 0
M  V30 2992 H 283.469 0.0690977 2.12288 0
M  V30 2993 H 285.732 -0.0317164 0.947469 0
M  V30 2994 H 285.438 -0.707206 3.44516 0
M  V30 2995 H 285.312 -2.37902 2.92716 0
M  V30 2996 H 287.699 -2.21598 1.9488 0
M  V30 2997 H 287.78 -0.536898 2.50102 0
M  V30 2998 H 287.424 -1.3325 4.90109 0
M  V30 2999 H 287.354 -3.0144 4.31789 0
M  V30 3000 H 289.845 -1.81991 3.31191 0
M  V30 3001 H 290.158 -3.16149 7.05174 0
M  V30 3002 H 288.503 -2.84955 6.33897 0
M  V30 3003 H 291.694 -2.18009 4.14234 0
M  V30 3004 H 291.867 -2.79207 5.84763 0
M  V30 3005 N 285.273 -1.31445 -0.869486 0
M  V30 3006 C 286.519 -1.21337 -1.62496 0
M  V30 3007 C 286.852 0.227872 -1.92858 0
M  V30 3008 O 286.127 1.16094 -1.56053 0
M  V30 3009 C 286.41 -2.05814 -2.95487 0
M  V30 3010 C 286.263 -3.5824 -2.72 0
M  V30 3011 C 287.582 -1.9079 -3.96594 0
M  V30 3012 H 284.701 -0.442135 -0.589649 0
M  V30 3013 H 287.343 -1.6124 -1.00507 0
M  V30 3014 H 285.493 -1.71913 -3.48394 0
M  V30 3015 H 287.165 -4.0228 -2.25762 0
M  V30 3016 H 285.408 -3.81647 -2.06224 0
M  V30 3017 H 286.079 -4.12657 -3.66631 0
M  V30 3018 H 288.555 -2.20459 -3.52898 0
M  V30 3019 H 287.431 -2.52199 -4.87531 0
M  V30 3020 H 287.692 -0.871341 -4.33428 0
M  V30 3021 N 286.751 1.08385 -1.14413 0
M  V30 3022 C 287.998 1.80776 -0.912482 0
M  V30 3023 C 288.326 1.86236 0.560934 0
M  V30 3024 O 287.581 1.33431 1.43159 0
M  V30 3025 C 287.88 3.26273 -1.45879 0
M  V30 3026 C 287.546 3.4093 -2.95089 0
M  V30 3027 C 286.208 3.44638 -3.35824 0
M  V30 3028 C 288.56 3.44591 -3.91033 0
M  V30 3029 C 285.888 3.49597 -4.71167 0
M  V30 3030 C 288.24 3.51086 -5.26233 0
M  V30 3031 C 286.904 3.53067 -5.6648 0
M  V30 3032 H 286.174 0.661507 -0.333901 0
M  V30 3033 H 288.821 1.27613 -1.42784 0
M  V30 3034 H 287.126 3.82146 -0.864376 0
M  V30 3035 H 288.823 3.80839 -1.2555 0
M  V30 3036 H 285.413 3.38736 -2.62594 0
M  V30 3037 H 289.597 3.40957 -3.60641 0
M  V30 3038 H 284.853 3.49424 -5.0171 0
M  V30 3039 H 289.027 3.52864 -6.00383 0
M  V30 3040 H 286.654 3.56662 -6.71339 0
M  V30 3041 N 288.23 0.939286 1.26551 0
M  V30 3042 C 289.162 0.404704 2.25599 0
M  V30 3043 C 290.175 -0.470983 1.55838 0
M  V30 3044 O 291.364 -0.281734 1.76263 0
M  V30 3045 C 288.464 -0.43764 3.36062 0
M  V30 3046 C 287.637 0.421449 4.35365 0
M  V30 3047 C 286.696 -0.36015 5.24966 0
M  V30 3048 O 285.722 0.236167 5.6871 0
M  V30 3049 N 286.924 -1.65715 5.56344 0
M  V30 3050 H 289.689 1.25618 2.72103 0
M  V30 3051 H 287.25 0.807963 1.40298 0
M  V30 3052 H 289.242 -0.967866 3.92956 0
M  V30 3053 H 287.812 -1.18991 2.89067 0
M  V30 3054 H 287.032 1.1329 3.7757 0
M  V30 3055 H 288.32 1.00835 4.98708 0
M  V30 3056 H 287.718 -2.16378 5.22682 0
M  V30 3057 H 286.275 -2.13366 6.15888 0
M  V30 3058 N 289.708 -1.40897 0.706093 0
M  V30 3059 C 291.119 -1.84023 0.315052 0
M  V30 3060 C 291.47 -1.5906 -1.14866 0
M  V30 3061 O 290.595 -1.06651 -1.88293 0
M  V30 3062 C 291.19 -3.34055 0.565038 0
M  V30 3063 C 289.749 -3.7571 0.227806 0
M  V30 3064 C 288.896 -2.64204 0.842122 0
M  V30 3065 H 291.847 -1.303 0.905963 0
M  V30 3066 H 291.868 -3.80107 -0.172843 0
M  V30 3067 H 291.38 -3.52192 1.63042 0
M  V30 3068 H 289.481 -3.63172 -0.832895 0
M  V30 3069 H 289.594 -4.74103 0.690174 0
M  V30 3070 H 287.958 -2.53255 0.270893 0
M  V30 3071 H 288.741 -2.85155 1.91158 0
M  V30 3072 N 291.186 -0.45159 -1.50991 0
M  V30 3073 C 292.116 0.342898 -2.30969 0
M  V30 3074 C 293.097 1.00815 -1.37005 0
M  V30 3075 O 294.282 1.00907 -1.65926 0
M  V30 3076 C 291.412 1.43637 -3.16205 0
M  V30 3077 C 290.366 0.893818 -4.18563 0
M  V30 3078 C 289.692 2.08411 -4.92411 0
M  V30 3079 C 290.992 -0.0815568 -5.22236 0
M  V30 3080 H 292.686 -0.324556 -2.97636 0
M  V30 3081 H 290.232 -0.157531 -1.43136 0
M  V30 3082 H 292.185 1.9995 -3.70942 0
M  V30 3083 H 290.909 2.13232 -2.47386 0
M  V30 3084 H 289.568 0.352798 -3.64898 0
M  V30 3085 H 289.216 2.76658 -4.20082 0
M  V30 3086 H 288.916 1.72741 -5.61636 0
M  V30 3087 H 290.44 2.65251 -5.49976 0
M  V30 3088 H 291.854 0.391742 -5.7196 0
M  V30 3089 H 290.251 -0.351551 -5.99069 0
M  V30 3090 H 291.321 -1.01374 -4.74185 0
M  V30 3091 N 292.664 1.56529 -0.183458 0
M  V30 3092 C 293.611 2.18546 0.742055 0
M  V30 3093 C 294.581 1.12912 1.2182 0
M  V30 3094 O 295.766 1.41115 1.28418 0
M  V30 3095 C 292.906 2.83977 1.96089 0
M  V30 3096 C 292.019 4.04105 1.52719 0
M  V30 3097 C 291.154 4.57427 2.70063 0
M  V30 3098 C 290.193 5.69938 2.23243 0
M  V30 3099 N 289.33 6.17717 3.33722 0
M  V30 3100 H 294.17 2.97284 0.206432 0
M  V30 3101 H 291.707 1.46823 0.0901571 0
M  V30 3102 H 293.665 3.20077 2.67594 0
M  V30 3103 H 292.295 2.07822 2.47002 0
M  V30 3104 H 291.347 3.73745 0.708436 0
M  V30 3105 H 292.659 4.85513 1.1436 0
M  V30 3106 H 291.813 4.95772 3.49708 0
M  V30 3107 H 290.552 3.75101 3.11689 0
M  V30 3108 H 289.557 5.31133 1.42048 0
M  V30 3109 H 290.782 6.54073 1.82661 0
M  V30 3110 H 288.728 5.38317 3.74902 0
M  V30 3111 H 288.645 6.94146 2.99495 0
M  V30 3112 H 289.913 6.60713 4.13616 0
M  V30 3113 N 294.142 -0.090211 1.57342 0
M  V30 3114 C 295.072 -1.10976 2.05443 0
M  V30 3115 C 296.053 -1.41482 0.944284 0
M  V30 3116 O 297.238 -1.51428 1.21586 0
M  V30 3117 C 294.368 -2.42831 2.48295 0
M  V30 3118 C 293.322 -2.26721 3.63018 0
M  V30 3119 C 292.648 -3.63796 3.91863 0
M  V30 3120 C 293.948 -1.7037 4.93732 0
M  V30 3121 H 295.642 -0.709564 2.9087 0
M  V30 3122 H 293.188 -0.339874 1.39932 0
M  V30 3123 H 295.141 -3.14431 2.80555 0
M  V30 3124 H 293.865 -2.84795 1.59873 0
M  V30 3125 H 292.524 -1.57565 3.31012 0
M  V30 3126 H 292.172 -4.03297 3.00601 0
M  V30 3127 H 291.872 -3.53861 4.69101 0
M  V30 3128 H 293.396 -4.36855 4.26603 0
M  V30 3129 H 294.81 -2.31816 5.24342 0
M  V30 3130 H 293.207 -1.71181 5.75167 0
M  V30 3131 H 294.277 -0.663542 4.80339 0
M  V30 3132 N 295.62 -1.53406 -0.361157 0
M  V30 3133 C 296.568 -1.80832 -1.46296 0
M  V30 3134 C 297.562 -0.677699 -1.55253 0
M  V30 3135 O 298.768 -0.860723 -1.58087 0
M  V30 3136 H 295.143 -0.572627 -0.487445 0
M  V30 3137 H 297.114 -2.73045 -1.20371 0
M  V30 3138 C 295.863 -2.01907 -2.8307 0
M  V30 3139 H 295.186 -2.88349 -2.76938 0
M  V30 3140 H 296.626 -2.25072 -3.59331 0
M  V30 3141 C 295.085 -0.799449 -3.27277 0
M  V30 3142 O 295.615 0.00971761 -4.01699 0
M  V30 3143 N 293.821 -0.621637 -2.83873 0
M  V30 3144 H 293.368 -1.28126 -2.23476 0
M  V30 3145 H 293.326 0.19298 -3.13807 0
M  V30 3146 N 297.098 0.621204 -1.44841 0
M  V30 3147 C 298.048 1.72663 -1.48901 0
M  V30 3148 C 299.032 1.56964 -0.353702 0
M  V30 3149 O 300.224 1.66532 -0.599669 0
M  V30 3150 C 297.353 3.11381 -1.44557 0
M  V30 3151 C 296.439 3.32514 -2.6324 0
M  V30 3152 N 296.83 3.23969 -3.8843 0
M  V30 3153 C 295.128 3.63343 -2.58647 0
M  V30 3154 C 295.829 3.46062 -4.67564 0
M  V30 3155 N 294.805 3.69407 -3.98797 0
M  V30 3156 H 298.607 1.64529 -2.43531 0
M  V30 3157 H 296.121 0.82401 -1.39942 0
M  V30 3158 H 298.118 3.90667 -1.4555 0
M  V30 3159 H 296.778 3.20674 -0.509731 0
M  V30 3160 H 297.789 3.02669 -4.20252 0
M  V30 3161 H 294.466 3.79556 -1.73906 0
M  V30 3162 H 295.856 3.44963 -5.76585 0
M  V30 3163 N 298.576 1.31904 0.862503 0
M  V30 3164 C 299.804 1.24998 1.64873 0
M  V30 3165 C 300.219 -0.183425 1.87907 0
M  V30 3166 O 299.576 -1.11794 1.44251 0
M  V30 3167 C 299.627 1.99829 3.01248 0
M  V30 3168 O 299.348 3.37575 2.79239 0
M  V30 3169 C 300.849 1.99852 3.95694 0
M  V30 3170 H 298.069 0.431599 0.513773 0
M  V30 3171 H 300.613 1.73901 1.07604 0
M  V30 3172 H 298.768 1.54668 3.55185 0
M  V30 3173 H 299.182 3.75776 3.65914 0
M  V30 3174 H 300.656 2.56709 4.88676 0
M  V30 3175 H 301.133 0.982852 4.28062 0
M  V30 3176 H 301.739 2.44926 3.47694 0
M  V30 3177 N 300.054 -1.07777 1.14986 0
M  V30 3178 C 301.3 -1.80719 0.93339 0
M  V30 3179 C 301.655 -1.8484 -0.534019 0
M  V30 3180 O 300.948 -1.31795 -1.3907 0
M  V30 3181 C 301.142 -3.25495 1.47608 0
M  V30 3182 C 300.971 -3.3548 2.99472 0
M  V30 3183 C 299.741 -3.46293 3.6798 0
M  V30 3184 C 301.939 -3.26596 3.97291 0
M  V30 3185 N 299.921 -3.45136 5.07695 0
M  V30 3186 C 301.292 -3.32506 5.23297 0
M  V30 3187 C 303.347 -3.10376 3.89321 0
M  V30 3188 C 302.05 -3.23866 6.42264 0
M  V30 3189 C 304.076 -3.03069 5.07842 0
M  V30 3190 C 303.438 -3.09587 6.32721 0
M  V30 3191 H 299.537 -0.674814 0.395158 0
M  V30 3192 H 302.121 -1.28681 1.46114 0
M  V30 3193 H 300.292 -3.75963 0.975022 0
M  V30 3194 H 302.024 -3.86535 1.19887 0
M  V30 3195 H 298.779 -3.50456 3.18555 0
M  V30 3196 H 299.203 -3.48097 5.80653 0
M  V30 3197 H 303.845 -3.04194 2.93642 0
M  V30 3198 H 301.563 -3.28807 7.38181 0
M  V30 3199 H 305.149 -2.91629 5.03432 0
M  V30 3200 H 304.029 -3.0397 7.22891 0
M  V30 3201 N 301.532 -0.945985 -1.26051 0
M  V30 3202 C 302.781 -0.591836 -1.92822 0
M  V30 3203 C 303.094 0.873956 -1.7499 0
M  V30 3204 O 304.3 1.33769 -2.36259 0
M  V30 3205 C 302.756 -1.00776 -3.45503 0
M  V30 3206 C 302.364 -2.4955 -3.7206 0
M  V30 3207 C 304.108 -0.725735 -4.1825 0
M  V30 3208 C 302.015 -2.84988 -5.18205 0
M  V30 3209 H 300.945 -0.217635 -0.721908 0
M  V30 3210 H 303.596 -1.14927 -1.43052 0
M  V30 3211 H 301.978 -0.378812 -3.94184 0
M  V30 3212 H 303.152 -3.1739 -3.34066 0
M  V30 3213 H 301.467 -2.75133 -3.12555 0
M  V30 3214 H 304.064 -0.966771 -5.25887 0
M  V30 3215 H 304.407 0.337639 -4.14929 0
M  V30 3216 H 304.94 -1.31463 -3.7545 0
M  V30 3217 H 301.679 -3.90307 -5.26631 0
M  V30 3218 H 301.199 -2.21813 -5.57278 0
M  V30 3219 H 302.878 -2.73712 -5.86252 0
M  V30 3220 N 303.011 1.40521 -0.713556 0
M  V30 3221 C 303.959 2.32549 -0.0485227 0
M  V30 3222 C 304.953 1.51931 0.74922 0
M  V30 3223 O 306.159 1.67745 0.652816 0
M  V30 3224 H 302.534 0.751994 0.00311138 0
M  V30 3225 H 304.505 2.86291 -0.841443 0
M  V30 3226 C 303.254 3.36879 0.860687 0
M  V30 3227 H 302.577 3.98978 0.256246 0
M  V30 3228 H 304.017 4.03772 1.294 0
M  V30 3229 C 302.476 2.72197 1.9852 0
M  V30 3230 O 303.006 2.5837 3.07584 0
M  V30 3231 N 301.212 2.30612 1.76823 0
M  V30 3232 H 300.759 2.42059 0.881217 0
M  V30 3233 H 300.717 1.87672 2.52243 0
M  V30 3234 N 304.489 0.459591 1.5075 0
M  V30 3235 C 305.735 -0.0994966 2.02556 0
M  V30 3236 C 306.068 -1.40399 1.3417 0
M  V30 3237 O 305.343 -1.88892 0.463683 0
M  V30 3238 C 305.626 -0.295242 3.58888 0
M  V30 3239 C 305.479 1.02947 4.37861 0
M  V30 3240 C 306.798 -1.05502 4.27267 0
M  V30 3241 H 303.917 -0.034686 0.736183 0
M  V30 3242 H 306.559 0.602938 1.8018 0
M  V30 3243 H 304.709 -0.893563 3.78084 0
M  V30 3244 H 306.381 1.66348 4.30263 0
M  V30 3245 H 304.624 1.62885 4.02058 0
M  V30 3246 H 305.295 0.846281 5.45474 0
M  V30 3247 H 307.771 -0.547993 4.12476 0
M  V30 3248 H 306.647 -1.16077 5.36486 0
M  V30 3249 H 306.908 -2.08875 3.89645 0
M  V30 3250 N 305.967 -1.56429 0.191757 0
M  V30 3251 C 307.378 -1.83912 -0.321428 0
M  V30 3252 C 307.729 -1.11231 -1.61623 0
M  V30 3253 O 306.854 -0.37202 -2.13178 0
M  V30 3254 C 307.449 -3.33624 -0.589961 0
M  V30 3255 C 306.008 -3.6153 -1.04753 0
M  V30 3256 C 305.155 -2.7714 -0.0943327 0
M  V30 3257 H 308.106 -1.53161 0.415612 0
M  V30 3258 H 308.127 -3.52213 -1.43966 0
M  V30 3259 H 307.639 -3.86495 0.352588 0
M  V30 3260 H 305.74 -3.14089 -2.00447 0
M  V30 3261 H 305.853 -4.69737 -0.942549 0
M  V30 3262 H 304.217 -2.47638 -0.595589 0
M  V30 3263 H 305 -3.32799 0.842601 0
M  V30 3264 N 307.445 0.0818655 -1.57387 0
M  V30 3265 C 308.856 0.634871 -1.75574 0
M  V30 3266 C 309.207 1.78435 -0.815809 0
M  V30 3267 O 308.332 2.164 0.0025366 0
M  V30 3268 C 308.927 1.15845 -3.18379 0
M  V30 3269 C 307.486 1.65741 -3.37945 0
M  V30 3270 C 306.633 0.572549 -2.71325 0
M  V30 3271 H 309.584 -0.144268 -1.58043 0
M  V30 3272 H 309.605 2.02751 -3.21982 0
M  V30 3273 H 309.117 0.321631 -3.86765 0
M  V30 3274 H 307.218 2.51781 -2.74658 0
M  V30 3275 H 307.331 1.74129 -4.46336 0
M  V30 3276 H 305.695 1.01518 -2.33594 0
M  V30 3277 H 306.478 -0.253918 -3.4236 0
M  V30 3278 N 308.923 1.53595 0.353017 0
M  V30 3279 C 309.886 1.80232 1.41594 0
M  V30 3280 C 310.886 0.673081 1.46035 0
M  V30 3281 O 312.076 0.941335 1.46576 0
M  V30 3282 C 309.208 1.93578 2.80607 0
M  V30 3283 H 310.401 2.75174 1.19244 0
M  V30 3284 H 307.954 1.44864 0.586872 0
M  V30 3285 H 308.689 1.00746 3.08254 0
M  V30 3286 H 308.474 2.75724 2.78781 0
M  V30 3287 H 309.964 2.15735 3.57558 0
M  V30 3288 N 310.401 -0.613514 1.45168 0
M  V30 3289 C 311.311 -1.75296 1.55912 0
M  V30 3290 C 312.327 -1.68244 0.443856 0
M  V30 3291 O 313.503 -1.88706 0.70371 0
M  V30 3292 C 310.568 -3.1174 1.5172 0
M  V30 3293 C 309.629 -3.30291 2.74238 0
M  V30 3294 C 308.862 -4.60226 2.70236 0
M  V30 3295 O 309.085 -5.42168 1.77229 0
M  V30 3296 O 308.019 -4.81361 3.61352 0
M  V30 3297 H 311.845 -1.69183 2.52212 0
M  V30 3298 H 309.43 -0.776886 1.27612 0
M  V30 3299 H 311.312 -3.93044 1.51968 0
M  V30 3300 H 309.987 -3.18357 0.585697 0
M  V30 3301 H 308.894 -2.48598 2.79553 0
M  V30 3302 H 310.227 -3.28547 3.66494 0
M  V30 3303 N 311.879 -1.3236 -0.855495 0
M  V30 3304 C 312.789 -1.23221 -1.99634 0
M  V30 3305 C 313.805 -0.145983 -1.73387 0
M  V30 3306 O 314.981 -0.366502 -1.98037 0
M  V30 3307 C 312.046 -0.954782 -3.33294 0
M  V30 3308 C 311.107 -2.12937 -3.72769 0
M  V30 3309 C 310.34 -1.86508 -5.00051 0
M  V30 3310 O 310.563 -0.807231 -5.64659 0
M  V30 3311 O 309.497 -2.72591 -5.36636 0
M  V30 3312 H 313.323 -2.19126 -2.1028 0
M  V30 3313 H 310.908 -1.12241 -0.986018 0
M  V30 3314 H 312.79 -0.816519 -4.13414 0
M  V30 3315 H 311.465 -0.0258854 -3.2369 0
M  V30 3316 H 310.372 -2.3231 -2.93228 0
M  V30 3317 H 311.705 -3.04102 -3.87018 0
M  V30 3318 N 313.357 1.07166 -1.15556 0
M  V30 3319 C 314.304 2.14417 -0.854055 0
M  V30 3320 C 315.274 1.64965 0.193806 0
M  V30 3321 O 316.459 1.90703 0.0609443 0
M  V30 3322 C 313.599 3.43304 -0.351574 0
M  V30 3323 C 312.712 4.06537 -1.46123 0
M  V30 3324 C 311.847 5.23266 -0.914677 0
M  V30 3325 C 310.886 5.78464 -2.00114 0
M  V30 3326 N 310.023 6.86521 -1.47083 0
M  V30 3327 H 314.863 2.39548 -1.77259 0
M  V30 3328 H 312.4 1.17543 -0.884425 0
M  V30 3329 H 314.358 4.17179 -0.0419409 0
M  V30 3330 H 312.988 3.18419 0.530037 0
M  V30 3331 H 312.04 3.30297 -1.88701 0
M  V30 3332 H 313.352 4.43567 -2.28144 0
M  V30 3333 H 312.506 6.04131 -0.557698 0
M  V30 3334 H 311.245 4.87658 -0.0636583 0
M  V30 3335 H 310.25 4.96243 -2.36692 0
M  V30 3336 H 311.475 6.16126 -2.85597 0
M  V30 3337 H 309.421 6.52849 -0.642198 0
M  V30 3338 H 309.338 7.22446 -2.22729 0
M  V30 3339 H 310.606 7.71087 -1.14215 0
M  V30 3340 N 314.835 0.952656 1.25548 0
M  V30 3341 C 315.783 0.462354 2.27958 0
M  V30 3342 C 316.777 -0.46634 1.62855 0
M  V30 3343 O 317.983 -0.343287 1.76696 0
M  V30 3344 H 314.358 0.13101 0.7405 0
M  V30 3345 H 316.329 1.33839 2.66702 0
M  V30 3346 C 315.078 -0.24628 3.46827 0
M  V30 3347 H 314.401 0.459192 3.97154 0
M  V30 3348 H 315.841 -0.553393 4.20373 0
M  V30 3349 C 314.3 -1.4681 3.0323 0
M  V30 3350 O 314.83 -2.56591 3.09069 0
M  V30 3351 N 313.036 -1.32874 2.58443 0
M  V30 3352 H 312.583 -0.435536 2.53891 0
M  V30 3353 H 312.541 -2.14742 2.29637 0
M  V30 3354 N 316.313 -1.40141 0.720998 0
M  V30 3355 C 317.543 -2.04798 0.27226 0
M  V30 3356 C 317.951 -1.54442 -1.09289 0
M  V30 3357 O 317.294 -0.698342 -1.69908 0
M  V30 3358 C 317.356 -3.59048 0.18027 0
M  V30 3359 C 317.02 -4.32317 1.48159 0
M  V30 3360 C 318.017 -4.59902 2.42458 0
M  V30 3361 C 315.702 -4.71125 1.74202 0
M  V30 3362 C 317.696 -5.25288 3.61042 0
M  V30 3363 C 315.383 -5.36242 2.93066 0
M  V30 3364 C 316.381 -5.63254 3.86308 0
M  V30 3365 O 316.069 -6.27024 5.03086 0
M  V30 3366 H 315.801 -0.665419 0.119139 0
M  V30 3367 H 318.355 -1.80436 0.981432 0
M  V30 3368 H 316.585 -3.82251 -0.58489 0
M  V30 3369 H 318.274 -4.05221 -0.234618 0
M  V30 3370 H 319.04 -4.30379 2.23604 0
M  V30 3371 H 314.919 -4.49466 1.02477 0
M  V30 3372 H 318.463 -5.46289 4.33837 0
M  V30 3373 H 314.36 -5.65185 3.11826 0
M  V30 3374 H 315.128 -6.4552 5.03235 0
M  V30 3375 N 317.792 -0.46758 -1.50504 0
M  V30 3376 C 318.755 0.317059 -2.26996 0
M  V30 3377 C 319.755 0.923513 -1.31635 0
M  V30 3378 O 320.945 0.793239 -1.55091 0
M  V30 3379 C 318.077 1.45134 -3.08462 0
M  V30 3380 H 319.27 -0.353723 -2.97807 0
M  V30 3381 H 316.823 -0.221545 -1.54722 0
M  V30 3382 H 317.558 2.15728 -2.4214 0
M  V30 3383 H 317.343 1.02232 -3.78538 0
M  V30 3384 H 318.833 2.00493 -3.66323 0
M  V30 3385 N 319.27 1.56325 -0.20005 0
M  V30 3386 C 320.516 1.98772 0.431408 0
M  V30 3387 C 320.871 1.0849 1.58895 0
M  V30 3388 O 320.164 0.130331 1.91156 0
M  V30 3389 C 320.358 3.4495 0.935103 0
M  V30 3390 C 320.187 4.49371 -0.172096 0
M  V30 3391 C 318.957 5.0134 -0.631377 0
M  V30 3392 C 321.155 5.04822 -0.982806 0
M  V30 3393 N 319.137 5.89433 -1.71588 0
M  V30 3394 C 320.508 5.89632 -1.91661 0
M  V30 3395 C 322.563 4.87242 -1.02467 0
M  V30 3396 C 321.266 6.58741 -2.88881 0
M  V30 3397 C 323.292 5.57094 -1.98494 0
M  V30 3398 C 322.654 6.41655 -2.90617 0
M  V30 3399 H 318.753 0.771922 0.125144 0
M  V30 3400 H 321.337 1.92266 -0.306883 0
M  V30 3401 H 319.508 3.51946 1.64282 0
M  V30 3402 H 321.24 3.74354 1.53758 0
M  V30 3403 H 317.995 4.73071 -0.223827 0
M  V30 3404 H 318.419 6.38182 -2.25948 0
M  V30 3405 H 323.061 4.21538 -0.326408 0
M  V30 3406 H 320.779 7.23641 -3.5968 0
M  V30 3407 H 324.365 5.45466 -2.0238 0
M  V30 3408 H 323.245 6.94755 -3.63711 0
M  V30 3409 N 320.748 -0.0735177 1.57428 0
M  V30 3410 C 321.996 -0.771472 1.86796 0
M  V30 3411 C 322.317 -1.78201 0.791804 0
M  V30 3412 O 321.587 -1.95074 -0.179718 0
M  V30 3413 H 320.167 -0.28791 0.689287 0
M  V30 3414 H 322.829 -0.0500161 1.94836 0
M  V30 3415 H 321.925 -1.28874 2.8425 0
M  V30 3416 N 322.226 -1.5378 -0.344866 0
M  V30 3417 C 323.456 -1.74646 -1.10374 0
M  V30 3418 C 323.864 -0.48491 -1.8288 0
M  V30 3419 O 323.207 0.553062 -1.75177 0
M  V30 3420 C 323.269 -2.87145 -2.16306 0
M  V30 3421 C 322.933 -4.26795 -1.63386 0
M  V30 3422 C 323.93 -5.08412 -1.08688 0
M  V30 3423 C 321.615 -4.73276 -1.68272 0
M  V30 3424 C 323.609 -6.34609 -0.595792 0
M  V30 3425 C 321.296 -5.99446 -1.18776 0
M  V30 3426 C 322.294 -6.79946 -0.645215 0
M  V30 3427 O 321.982 -8.03745 -0.157626 0
M  V30 3428 H 321.714 -0.587112 -0.335075 0
M  V30 3429 H 324.268 -2.01403 -0.403252 0
M  V30 3430 H 322.498 -2.55909 -2.89909 0
M  V30 3431 H 324.187 -2.95992 -2.77747 0
M  V30 3432 H 324.953 -4.73666 -1.04236 0
M  V30 3433 H 320.832 -4.10677 -2.09442 0
M  V30 3434 H 324.376 -6.97389 -0.171654 0
M  V30 3435 H 320.273 -6.33687 -1.22928 0
M  V30 3436 H 321.041 -8.18038 -0.275037 0
M  V30 3437 N 323.704 0.605807 -1.45491 0
M  V30 3438 C 325.12 0.926751 -1.29936 0
M  V30 3439 C 325.32 1.99896 -0.253706 0
M  V30 3440 O 324.376 2.50038 0.351737 0
M  V30 3441 C 325.689 1.36599 -2.67883 0
M  V30 3442 C 327.237 1.4801 -2.75793 0
M  V30 3443 C 327.712 1.95309 -4.14268 0
M  V30 3444 N 329.203 2.0254 -4.16571 0
M  V30 3445 C 329.938 2.40363 -5.20589 0
M  V30 3446 N 329.434 2.77143 -6.34952 0
M  V30 3447 N 331.227 2.40718 -5.07948 0
M  V30 3448 H 323.378 -0.102862 -2.12151 0
M  V30 3449 H 325.641 0.016639 -0.947854 0
M  V30 3450 H 325.347 0.652306 -3.45598 0
M  V30 3451 H 325.221 2.33215 -2.96463 0
M  V30 3452 H 327.608 2.1847 -1.98381 0
M  V30 3453 H 327.689 0.497041 -2.50925 0
M  V30 3454 H 327.333 1.25436 -4.92167 0
M  V30 3455 H 327.263 2.94532 -4.3653 0
M  V30 3456 H 329.754 1.76699 -3.34045 0
M  V30 3457 H 330.067 3.0489 -7.10114 0
M  V30 3458 H 328.412 2.74834 -6.3835 0
M  V30 3459 H 331.603 2.11392 -4.1765 0
M  V30 3460 H 331.776 2.69869 -5.89131 0
M  V30 3461 N 325.182 1.32811 0.848464 0
M  V30 3462 C 326.092 1.24278 1.98978 0
M  V30 3463 C 327.108 0.155176 1.73307 0
M  V30 3464 O 328.284 0.376999 1.9784 0
M  V30 3465 C 325.349 0.972444 3.32783 0
M  V30 3466 C 324.41 2.14911 3.71634 0
M  V30 3467 C 323.643 1.89157 4.99054 0
M  V30 3468 O 323.866 0.837165 5.64223 0
M  V30 3469 O 322.8 2.75433 5.35183 0
M  V30 3470 H 326.626 2.20238 2.09115 0
M  V30 3471 H 324.211 1.12762 0.980052 0
M  V30 3472 H 326.093 0.838432 4.12975 0
M  V30 3473 H 324.768 0.043051 3.23671 0
M  V30 3474 H 323.675 2.33862 2.91992 0
M  V30 3475 H 325.008 3.06151 3.85399 0
M  V30 3476 N 326.66 -1.06551 1.16123 0
M  V30 3477 C 327.908 -1.78947 0.939267 0
M  V30 3478 C 328.229 -1.87532 -0.534476 0
M  V30 3479 O 327.499 -1.38211 -1.38833 0
M  V30 3480 H 326.079 -0.662807 0.344523 0
M  V30 3481 H 328.741 -1.28725 1.46342 0
M  V30 3482 H 327.837 -2.81117 1.35572 0
M  V30 3483 N 328.138 -0.959301 -1.25041 0
M  V30 3484 C 329.085 -0.482057 -2.2571 0
M  V30 3485 C 330.055 0.467939 -1.59372 0
M  V30 3486 O 331.24 0.380159 -1.86974 0
M  V30 3487 C 328.38 0.229623 -3.44335 0
M  V30 3488 C 327.493 -0.758156 -4.25295 0
M  V30 3489 C 326.628 -0.0234403 -5.31195 0
M  V30 3490 C 325.667 -1.00184 -6.03846 0
M  V30 3491 N 324.804 -0.29769 -7.01469 0
M  V30 3492 H 329.644 -1.34538 -2.65901 0
M  V30 3493 H 327.181 -0.674592 -1.3072 0
M  V30 3494 H 329.139 0.658856 -4.11965 0
M  V30 3495 H 327.769 1.05696 -3.05005 0
M  V30 3496 H 326.821 -1.30586 -3.57284 0
M  V30 3497 H 328.133 -1.50458 -4.75567 0
M  V30 3498 H 327.287 0.464201 -6.04922 0
M  V30 3499 H 326.026 0.755741 -4.81809 0
M  V30 3500 H 325.031 -1.50044 -5.2893 0
M  V30 3501 H 326.256 -1.78133 -6.55321 0
M  V30 3502 H 324.202 0.462668 -6.54366 0
M  V30 3503 H 324.119 -0.983128 -7.4958 0
M  V30 3504 H 325.387 0.16826 -7.79318 0
M  V30 3505 N 329.616 1.39756 -0.72842 0
M  V30 3506 C 330.579 2.29012 -0.0927297 0
M  V30 3507 C 331.579 1.45992 0.674025 0
M  V30 3508 O 332.769 1.66749 0.50402 0
M  V30 3509 C 329.901 3.29396 0.878137 0
M  V30 3510 H 331.094 2.86729 -0.879011 0
M  V30 3511 H 328.647 1.48293 -0.493847 0
M  V30 3512 H 329.382 2.76722 1.69101 0
M  V30 3513 H 329.167 3.907 0.331051 0
M  V30 3514 H 330.657 3.96199 1.3197 0
M  V30 3515 N 331.094 0.475555 1.50254 0
M  V30 3516 C 332.34 -0.0780073 2.0265 0
M  V30 3517 C 332.673 -1.38968 1.35652 0
M  V30 3518 O 331.948 -1.8839 0.483691 0
M  V30 3519 C 332.231 -0.257161 3.59181 0
M  V30 3520 C 332.084 1.07585 4.36744 0
M  V30 3521 C 333.403 -1.00965 4.28362 0
M  V30 3522 H 330.522 -0.0268758 0.73651 0
M  V30 3523 H 333.164 0.622015 1.7953 0
M  V30 3524 H 331.314 -0.853412 3.79011 0
M  V30 3525 H 332.986 1.70902 4.28474 0
M  V30 3526 H 331.229 1.6714 4.00308 0
M  V30 3527 H 331.9 0.904088 5.44546 0
M  V30 3528 H 334.376 -0.504214 4.13034 0
M  V30 3529 H 333.252 -1.10381 5.37687 0
M  V30 3530 H 333.513 -2.04731 3.91839 0
M  V30 3531 N 332.573 -1.56217 0.208337 0
M  V30 3532 C 333.523 -2.16324 -0.720281 0
M  V30 3533 C 334.507 -1.10775 -1.16695 0
M  V30 3534 O 335.699 -1.36801 -1.12314 0
M  V30 3535 C 332.828 -2.83644 -1.93393 0
M  V30 3536 C 331.914 -3.96401 -1.50755 0
M  V30 3537 N 332.305 -4.99546 -0.792937 0
M  V30 3538 C 330.603 -4.08246 -1.79585 0
M  V30 3539 C 331.304 -5.78828 -0.577364 0
M  V30 3540 N 330.28 -5.31723 -1.1301 0
M  V30 3541 H 334.082 -2.93432 -0.165725 0
M  V30 3542 H 331.596 -1.62397 0.00906463 0
M  V30 3543 H 333.593 -3.25107 -2.60981 0
M  V30 3544 H 332.253 -2.08027 -2.49308 0
M  V30 3545 H 333.264 -5.15967 -0.447004 0
M  V30 3546 H 329.941 -3.4377 -2.36915 0
M  V30 3547 H 331.331 -6.71899 -0.00952956 0
M  V30 3548 N 334.051 0.0651679 -1.57465 0
M  V30 3549 C 335.297 0.764193 -1.87851 0
M  V30 3550 C 335.63 1.76889 -0.801495 0
M  V30 3551 O 334.905 1.93594 0.187528 0
M  V30 3552 C 335.188 1.46625 -3.28897 0
M  V30 3553 C 335.041 0.477515 -4.47258 0
M  V30 3554 C 336.36 2.4095 -3.68281 0
M  V30 3555 H 333.479 0.276351 -0.683227 0
M  V30 3556 H 336.121 0.0272868 -1.8998 0
M  V30 3557 H 334.271 2.09438 -3.27212 0
M  V30 3558 H 335.943 -0.145922 -4.61069 0
M  V30 3559 H 334.186 -0.206576 -4.33308 0
M  V30 3560 H 334.857 1.0065 -5.42746 0
M  V30 3561 H 337.333 1.88209 -3.71102 0
M  V30 3562 H 336.209 2.87072 -4.67847 0
M  V30 3563 H 336.47 3.26049 -2.98571 0
M  V30 3564 N 335.529 1.53961 0.336706 0
M  V30 3565 C 336.754 1.75797 1.10046 0
M  V30 3566 C 337.179 0.498985 1.81361 0
M  V30 3567 O 336.537 -0.548769 1.72795 0
M  V30 3568 C 336.585 2.94257 2.08436 0
M  V30 3569 O 335.689 2.64883 3.16087 0
M  V30 3570 H 335.03 0.582936 0.317934 0
M  V30 3571 H 337.56 2.00945 0.38501 0
M  V30 3572 H 337.57 3.21237 2.51537 0
M  V30 3573 H 336.245 3.85564 1.55927 0
M  V30 3574 H 334.822 2.48812 2.77753 0
M  V30 3575 N 337.007 -0.598083 1.45811 0
M  V30 3576 C 338.418 -1.18011 1.44673 0
M  V30 3577 C 338.769 -1.95378 0.179364 0
M  V30 3578 O 337.894 -2.04124 -0.718509 0
M  V30 3579 C 338.489 -2.14677 2.62105 0
M  V30 3580 C 337.048 -2.68236 2.64057 0
M  V30 3581 C 336.195 -1.43816 2.37091 0
M  V30 3582 H 339.146 -0.38686 1.53913 0
M  V30 3583 H 339.167 -2.97878 2.36746 0
M  V30 3584 H 338.679 -1.5834 3.5433 0
M  V30 3585 H 336.78 -3.28486 1.75864 0
M  V30 3586 H 336.893 -3.12021 3.63566 0
M  V30 3587 H 335.257 -1.731 1.86838 0
M  V30 3588 H 336.04 -0.893333 3.31473 0
M  V30 3589 N 338.485 -1.33259 -0.841409 0
M  V30 3590 C 339.733 -1.24326 -1.59334 0
M  V30 3591 C 340.054 0.191564 -1.94057 0
M  V30 3592 O 339.324 1.11967 -1.60749 0
M  V30 3593 H 337.904 -0.457174 -0.590763 0
M  V30 3594 H 340.566 -1.66947 -1.00571 0
M  V30 3595 H 339.662 -1.8352 -2.52442 0
M  V30 3596 N 339.963 1.05934 -1.16686 0
M  V30 3597 C 340.926 2.11669 -0.879144 0
M  V30 3598 C 341.926 1.60294 0.127445 0
M  V30 3599 O 343.116 1.7389 -0.103865 0
M  V30 3600 C 340.248 3.39438 -0.315425 0
M  V30 3601 H 341.441 2.38626 -1.81653 0
M  V30 3602 H 338.994 1.22058 -0.976299 0
M  V30 3603 H 339.729 3.18132 0.629468 0
M  V30 3604 H 339.514 3.78034 -1.04079 0
M  V30 3605 H 341.004 4.17391 -0.132189 0
M  V30 3606 N 341.441 0.965919 1.2453 0
M  V30 3607 C 342.371 0.513476 2.27784 0
M  V30 3608 C 343.352 -0.445974 1.6415 0
M  V30 3609 O 344.537 -0.342485 1.91156 0
M  V30 3610 C 341.667 -0.198839 3.4673 0
M  V30 3611 C 340.621 0.676456 4.2262 0
M  V30 3612 C 339.947 -0.167248 5.34438 0
M  V30 3613 C 341.247 1.96017 4.84123 0
M  V30 3614 H 342.941 1.3765 2.65881 0
M  V30 3615 H 340.487 0.663321 1.27813 0
M  V30 3616 H 342.44 -0.526567 4.18097 0
M  V30 3617 H 341.164 -1.0962 3.07654 0
M  V30 3618 H 339.823 0.98743 3.53052 0
M  V30 3619 H 339.471 -1.0647 4.91603 0
M  V30 3620 H 339.171 0.415181 5.86131 0
M  V30 3621 H 340.695 -0.489688 6.08633 0
M  V30 3622 H 342.109 1.69814 5.47573 0
M  V30 3623 H 340.506 2.48918 5.4604 0
M  V30 3624 H 341.576 2.65622 4.05676 0
M  V30 3625 N 342.919 -1.39368 0.735821 0
M  V30 3626 C 344.196 -1.94465 0.210395 0
M  V30 3627 C 344.576 -1.67254 -1.28799 0
M  V30 3628 O 343.924 -1.00123 -2.05396 0
M  V30 3629 C 344.134 -3.4472 0.544897 0
M  V30 3630 C 345.482 -4.21708 0.494689 0
M  V30 3631 O 346.506 -3.52922 0.482136 0
M  V30 3632 O 345.365 -5.44299 0.489947 0
M  V30 3633 H 342.459 -0.826096 0.0386666 0
M  V30 3634 H 345.005 -1.48863 0.814735 0
M  V30 3635 H 343.777 -3.57963 1.58045 0
M  V30 3636 H 343.4 -3.97502 -0.08837 0
M  V30 3637 N 344.397 -0.483516 -1.5 0
M  V30 3638 C 345.36 0.292965 -2.2732 0
M  V30 3639 C 346.36 0.909499 -1.32608 0
M  V30 3640 O 347.55 0.776745 -1.55924 0
M  V30 3641 C 344.682 1.41854 -3.09984 0
M  V30 3642 H 345.875 -0.385289 -2.97415 0
M  V30 3643 H 343.428 -0.237942 -1.54478 0
M  V30 3644 H 344.163 2.13148 -2.44414 0
M  V30 3645 H 343.948 0.982114 -3.79601 0
M  V30 3646 H 345.438 1.96597 -3.68429 0
M  V30 3647 N 345.875 1.56104 -0.216619 0
M  V30 3648 C 346.785 2.23694 0.706982 0
M  V30 3649 C 347.801 1.24295 1.21765 0
M  V30 3650 O 348.977 1.57094 1.2603 0
M  V30 3651 C 346.042 2.8998 1.90033 0
M  V30 3652 C 345.103 4.04708 1.43213 0
M  V30 3653 C 344.336 4.67824 2.56859 0
M  V30 3654 O 344.559 4.29913 3.74874 0
M  V30 3655 O 343.493 5.56905 2.28343 0
M  V30 3656 H 347.319 3.03272 0.161235 0
M  V30 3657 H 344.904 1.49394 0.0136177 0
M  V30 3658 H 346.786 3.31837 2.59735 0
M  V30 3659 H 345.461 2.13365 2.43428 0
M  V30 3660 H 344.368 3.6743 0.70327 0
M  V30 3661 H 345.701 4.83051 0.944615 0
M  V30 3662 N 347.353 -0.0568162 1.57498 0
M  V30 3663 C 348.316 -1.05038 2.03715 0
M  V30 3664 C 349.316 -1.30709 0.936577 0
M  V30 3665 O 350.506 -1.26178 1.20103 0
M  V30 3666 C 347.638 -2.39034 2.43055 0
M  V30 3667 H 348.831 -0.651715 2.92733 0
M  V30 3668 H 346.384 -0.302947 1.53336 0
M  V30 3669 H 347.119 -2.83703 1.57108 0
M  V30 3670 H 346.904 -2.21739 3.2338 0
M  V30 3671 H 348.394 -3.10421 2.79336 0
M  V30 3672 N 348.832 -1.54138 -0.328536 0
M  V30 3673 C 350.062 -1.75807 -1.08516 0
M  V30 3674 C 350.47 -0.50428 -1.82356 0
M  V30 3675 O 349.813 0.534451 -1.75754 0
M  V30 3676 C 349.875 -2.89423 -2.13248 0
M  V30 3677 C 349.539 -4.28504 -1.5885 0
M  V30 3678 C 350.536 -5.09536 -1.03289 0
M  V30 3679 C 348.221 -4.75034 -1.63243 0
M  V30 3680 C 350.215 -6.35206 -0.52845 0
M  V30 3681 C 347.902 -6.00672 -1.12411 0
M  V30 3682 C 348.9 -6.80592 -0.573062 0
M  V30 3683 O 348.588 -8.03867 -0.0723692 0
M  V30 3684 H 348.32 -0.590633 -0.328829 0
M  V30 3685 H 350.874 -2.01819 -0.381868 0
M  V30 3686 H 349.104 -2.5897 -2.87178 0
M  V30 3687 H 350.793 -2.98921 -2.74592 0
M  V30 3688 H 351.559 -4.74745 -0.99206 0
M  V30 3689 H 347.438 -4.12875 -2.05074 0
M  V30 3690 H 350.982 -6.97532 -0.0976774 0
M  V30 3691 H 346.879 -6.34955 -1.162 0
M  V30 3692 H 347.647 -8.18283 -0.188258 0
M  V30 3693 N 350.31 0.590341 -1.46126 0
M  V30 3694 C 351.558 1.34616 -1.50742 0
M  V30 3695 C 351.879 1.94363 -0.157486 0
M  V30 3696 O 351.149 1.78136 0.815136 0
M  V30 3697 H 349.729 0.499789 -0.555175 0
M  V30 3698 H 352.391 0.691953 -1.82203 0
M  V30 3699 H 351.487 2.15678 -2.25587 0
M  V30 3700 N 351.788 1.33704 0.83433 0
M  V30 3701 C 353.034 1.25603 1.59222 0
M  V30 3702 C 353.367 -0.176659 1.93395 0
M  V30 3703 O 352.642 -1.11915 1.59076 0
M  V30 3704 C 352.925 2.13576 2.89926 0
M  V30 3705 C 352.778 3.65326 2.62406 0
M  V30 3706 C 354.097 2.01238 3.91397 0
M  V30 3707 H 351.216 0.457613 0.577719 0
M  V30 3708 H 353.858 1.63848 0.961972 0
M  V30 3709 H 352.008 1.8109 3.43713 0
M  V30 3710 H 353.68 4.08124 2.15017 0
M  V30 3711 H 351.923 3.8698 1.96033 0
M  V30 3712 H 352.594 4.22232 3.55562 0
M  V30 3713 H 355.07 2.29738 3.46929 0
M  V30 3714 H 353.946 2.65036 4.80673 0
M  V30 3715 H 354.207 0.985951 4.30966 0
M  V30 3716 N 353.266 -1.05314 1.17247 0
M  V30 3717 C 354.213 -2.13031 0.888058 0
M  V30 3718 C 355.183 -1.65253 -0.167537 0
M  V30 3719 O 356.368 -1.90775 -0.0305974 0
M  V30 3720 C 353.508 -3.42702 0.406147 0
M  V30 3721 C 352.621 -4.04161 1.52572 0
M  V30 3722 C 351.756 -5.21744 0.997808 0
M  V30 3723 C 350.795 -5.75207 2.09291 0
M  V30 3724 N 349.932 -6.84094 1.57986 0
M  V30 3725 H 354.772 -2.36698 1.81048 0
M  V30 3726 H 352.309 -1.16121 0.903013 0
M  V30 3727 H 354.267 -4.17059 0.108305 0
M  V30 3728 H 352.897 -3.19222 -0.479313 0
M  V30 3729 H 351.949 -3.27253 1.93931 0
M  V30 3730 H 353.261 -4.39881 2.35172 0
M  V30 3731 H 352.415 -6.03168 0.653739 0
M  V30 3732 H 351.154 -4.87495 0.141232 0
M  V30 3733 H 350.159 -4.92414 2.44557 0
M  V30 3734 H 351.384 -6.11505 2.95362 0
M  V30 3735 H 349.33 -6.51745 0.74598 0
M  V30 3736 H 349.247 -7.18811 2.34195 0
M  V30 3737 H 350.515 -7.69172 1.26468 0
M  V30 3738 N 354.744 -0.972509 -1.24016 0
M  V30 3739 C 355.969 -0.654417 -1.96805 0
M  V30 3740 C 356.394 0.770398 -1.716 0
M  V30 3741 O 355.752 1.52361 -0.982647 0
M  V30 3742 C 355.8 -0.941031 -3.48105 0
M  V30 3743 O 354.904 -0.0289472 -4.1239 0
M  V30 3744 H 354.245 -0.24692 -0.616382 0
M  V30 3745 H 356.775 -1.30396 -1.57664 0
M  V30 3746 H 356.785 -0.87452 -3.98517 0
M  V30 3747 H 355.46 -1.97939 -3.65777 0
M  V30 3748 H 354.037 -0.149192 -3.72601 0
M  V30 3749 N 356.222 1.38976 -0.743202 0
M  V30 3750 C 357.45 2.04636 -0.30525 0
M  V30 3751 C 357.865 1.56044 1.06281 0
M  V30 3752 O 357.222 0.728921 1.67311 0
M  V30 3753 C 357.273 3.60193 -0.307177 0
M  V30 3754 O 356.994 4.06998 -1.62124 0
M  V30 3755 C 358.495 4.4306 0.145928 0
M  V30 3756 H 355.715 0.65788 -0.132041 0
M  V30 3757 H 358.259 1.77866 -1.00915 0
M  V30 3758 H 356.414 3.85835 0.347898 0
M  V30 3759 H 356.828 5.01371 -1.54036 0
M  V30 3760 H 358.302 5.51921 0.0934183 0
M  V30 3761 H 358.779 4.22706 1.19231 0
M  V30 3762 H 359.385 4.22584 -0.479886 0
M  V30 3763 N 357.7 0.491464 1.49741 0
M  V30 3764 C 358.949 -0.0582189 2.01616 0
M  V30 3765 C 359.262 -1.38927 1.3769 0
M  V30 3766 O 360.468 -2.02509 1.80838 0
M  V30 3767 C 358.924 -0.154235 3.59569 0
M  V30 3768 C 358.532 1.1696 4.32463 0
M  V30 3769 C 360.276 -0.65479 4.1942 0
M  V30 3770 C 358.183 1.03627 5.8225 0
M  V30 3771 H 357.113 -0.0255317 0.753568 0
M  V30 3772 H 359.764 0.629445 1.72367 0
M  V30 3773 H 358.146 -0.906138 3.85493 0
M  V30 3774 H 359.32 1.93405 4.18248 0
M  V30 3775 H 357.635 1.60285 3.84315 0
M  V30 3776 H 360.232 -0.771903 5.29099 0
M  V30 3777 H 360.575 -1.65127 3.8215 0
M  V30 3778 H 361.108 0.040304 3.9778 0
M  V30 3779 H 357.847 2.00672 6.24028 0
M  V30 3780 H 357.367 0.312546 5.98985 0
M  V30 3781 H 359.046 0.711114 6.4308 0
M  V30 3782 N 359.178 -1.55987 0.224894 0
M  V30 3783 C 360.088 -2.24066 -0.69511 0
M  V30 3784 C 361.104 -1.24939 -1.21104 0
M  V30 3785 O 362.28 -1.5776 -1.25195 0
M  V30 3786 C 359.345 -2.90983 -1.88493 0
M  V30 3787 C 358.406 -4.05462 -1.41064 0
M  V30 3788 C 357.639 -4.69179 -2.54375 0
M  V30 3789 O 357.862 -4.31895 -3.72589 0
M  V30 3790 O 356.796 -5.58108 -2.25386 0
M  V30 3791 H 360.622 -3.03353 -0.145149 0
M  V30 3792 H 358.207 -1.49399 -0.00569476 0
M  V30 3793 H 360.089 -3.33209 -2.57972 0
M  V30 3794 H 358.764 -2.14653 -2.42293 0
M  V30 3795 H 357.671 -3.67798 -0.683774 0
M  V30 3796 H 359.004 -4.83545 -0.918985 0
M  V30 3797 N 360.656 0.0484629 -1.57525 0
M  V30 3798 C 361.933 0.777447 -1.79486 0
M  V30 3799 C 362.313 1.94597 -0.818251 0
M  V30 3800 O 361.661 2.28047 0.143767 0
M  V30 3801 C 361.871 1.22864 -3.26658 0
M  V30 3802 C 363.219 1.65251 -3.91123 0
M  V30 3803 O 364.243 1.32372 -3.3069 0
M  V30 3804 O 363.102 2.26207 -4.97486 0
M  V30 3805 H 360.196 0.374357 -0.737419 0
M  V30 3806 H 362.742 0.0267359 -1.69679 0
M  V30 3807 H 361.514 0.393589 -3.89316 0
M  V30 3808 H 361.137 2.03996 -3.41279 0
M  V30 3809 N 362.134 1.5431 0.320358 0
M  V30 3810 C 363.067 1.78769 1.41834 0
M  V30 3811 C 364.045 0.63783 1.49568 0
M  V30 3812 O 365.229 0.875628 1.66928 0
M  V30 3813 C 362.356 1.90712 2.79905 0
M  V30 3814 C 361.402 3.13023 2.89687 0
M  V30 3815 S 362.235 4.71554 2.53766 0
M  V30 3816 C 363.391 4.86408 3.93902 0
M  V30 3817 H 363.624 2.71619 1.20874 0
M  V30 3818 H 361.157 1.45474 0.517377 0
M  V30 3819 H 363.115 1.98279 3.59438 0
M  V30 3820 H 361.776 0.988343 2.98145 0
M  V30 3821 H 360.969 3.18124 3.90913 0
M  V30 3822 H 360.571 3.03803 2.18128 0
M  V30 3823 H 362.863 4.69241 4.88691 0
M  V30 3824 H 363.806 5.88508 3.93782 0
M  V30 3825 H 364.214 4.14689 3.83005 0
M  V30 3826 N 363.613 -0.582584 1.46437 0
M  V30 3827 C 364.576 -1.67366 1.56592 0
M  V30 3828 C 365.576 -1.54575 0.443072 0
M  V30 3829 O 366.766 -1.59191 0.707381 0
M  V30 3830 C 363.898 -3.06791 1.48634 0
M  V30 3831 H 365.091 -1.5972 2.5383 0
M  V30 3832 H 362.644 -0.800432 1.34249 0
M  V30 3833 H 363.379 -3.19993 0.526763 0
M  V30 3834 H 363.164 -3.17484 2.30101 0
M  V30 3835 H 364.654 -3.86218 1.58826 0
M  V30 3836 N 365.091 -1.34144 -0.827227 0
M  V30 3837 C 366.507 -1.13732 -1.11969 0
M  V30 3838 C 366.707 0.0640463 -2.01398 0
M  V30 3839 O 365.763 0.740856 -2.41387 0
M  V30 3840 C 367.076 -2.43047 -1.77055 0
M  V30 3841 C 368.624 -2.49063 -1.89569 0
M  V30 3842 C 369.099 -3.78369 -2.58072 0
M  V30 3843 N 370.59 -3.79505 -2.65575 0
M  V30 3844 C 371.325 -4.76274 -3.19297 0
M  V30 3845 N 370.821 -5.83424 -3.73616 0
M  V30 3846 N 372.614 -4.63735 -3.17658 0
M  V30 3847 H 364.765 -2.11126 -0.232296 0
M  V30 3848 H 367.028 -0.933424 -0.165602 0
M  V30 3849 H 366.734 -3.31025 -1.18807 0
M  V30 3850 H 366.608 -2.56066 -2.76966 0
M  V30 3851 H 368.995 -1.61527 -2.46968 0
M  V30 3852 H 369.076 -2.39975 -0.885745 0
M  V30 3853 H 368.72 -4.66293 -2.01329 0
M  V30 3854 H 368.65 -3.84737 -3.59562 0
M  V30 3855 H 371.141 -3.02074 -2.27068 0
M  V30 3856 H 371.454 -6.53282 -4.12846 0
M  V30 3857 H 369.799 -5.87143 -3.71871 0
M  V30 3858 H 372.99 -3.79177 -2.74486 0
M  V30 3859 H 373.163 -5.39318 -3.59221 0
M  V30 3860 N 366.569 1.04691 -1.17803 0
M  V30 3861 C 367.815 1.78181 -0.980977 0
M  V30 3862 C 368.17 1.86191 0.484825 0
M  V30 3863 O 367.463 1.35436 1.35527 0
M  V30 3864 C 367.657 3.21467 -1.56186 0
M  V30 3865 C 367.486 3.27422 -3.08261 0
M  V30 3866 C 366.256 3.36415 -3.77032 0
M  V30 3867 C 368.454 3.15947 -4.0581 0
M  V30 3868 N 366.436 3.31554 -5.16667 0
M  V30 3869 C 367.807 3.18514 -5.31929 0
M  V30 3870 C 369.862 2.99945 -3.97413 0
M  V30 3871 C 368.565 3.06723 -6.50625 0
M  V30 3872 C 370.591 2.89497 -5.15699 0
M  V30 3873 C 369.953 2.92702 -6.40706 0
M  V30 3874 H 366.052 0.6641 -0.412911 0
M  V30 3875 H 368.636 1.24762 -1.49474 0
M  V30 3876 H 366.807 3.73245 -1.07436 0
M  V30 3877 H 368.539 3.8322 -1.30093 0
M  V30 3878 H 365.294 3.41887 -3.27735 0
M  V30 3879 H 365.718 3.3258 -5.89678 0
M  V30 3880 H 370.36 2.96302 -3.01604 0
M  V30 3881 H 368.078 3.0912 -7.46639 0
M  V30 3882 H 371.664 2.78179 -5.10987 0
M  V30 3883 H 370.544 2.84697 -7.30696 0
M  V30 3884 N 368.047 0.979072 1.23499 0
M  V30 3885 C 369.293 0.648178 1.92163 0
M  V30 3886 C 369.626 -0.816049 1.76222 0
M  V30 3887 O 368.901 -1.58849 1.12237 0
M  V30 3888 C 369.184 1.03773 3.44824 0
M  V30 3889 C 369.037 2.55948 3.69879 0
M  V30 3890 C 370.356 0.580653 4.36253 0
M  V30 3891 H 367.475 0.236952 0.69787 0
M  V30 3892 H 370.117 1.22012 1.45647 0
M  V30 3893 H 368.267 0.551058 3.84572 0
M  V30 3894 H 369.939 3.12179 3.3962 0
M  V30 3895 H 368.182 2.98641 3.14636 0
M  V30 3896 H 368.853 2.78255 4.76737 0
M  V30 3897 H 371.329 0.998465 4.03943 0
M  V30 3898 H 370.205 0.881663 5.41773 0
M  V30 3899 H 370.466 -0.519052 4.39042 0
M  V30 3900 N 369.525 -1.3858 0.750561 0
M  V30 3901 C 370.457 -2.29057 0.0810714 0
M  V30 3902 C 371.47 -1.47596 -0.686973 0
M  V30 3903 O 372.659 -1.70495 -0.528563 0
M  V30 3904 C 369.759 -3.26475 -0.909247 0
M  V30 3905 C 368.932 -4.36945 -0.199478 0
M  V30 3906 C 367.991 -5.14572 -1.10011 0
M  V30 3907 O 367.017 -5.66321 -0.57177 0
M  V30 3908 N 368.219 -5.27262 -2.42849 0
M  V30 3909 H 370.984 -2.87153 0.858087 0
M  V30 3910 H 368.545 -1.50328 0.60109 0
M  V30 3911 H 370.537 -3.75285 -1.51471 0
M  V30 3912 H 369.107 -2.69298 -1.58736 0
M  V30 3913 H 368.327 -3.8981 0.586664 0
M  V30 3914 H 369.615 -5.07963 0.291783 0
M  V30 3915 H 369.013 -4.86763 -2.88233 0
M  V30 3916 H 367.57 -5.79456 -2.98453 0
M  V30 3917 N 371.003 -0.499398 -1.49478 0
M  V30 3918 C 372.228 0.044722 -2.07352 0
M  V30 3919 C 372.653 1.30207 -1.35749 0
M  V30 3920 O 372.011 1.76516 -0.413732 0
M  V30 3921 C 372.059 0.283013 -3.59488 0
M  V30 3922 O 371.163 1.35804 -3.89398 0
M  V30 3923 H 370.504 -0.0255147 -0.66351 0
M  V30 3924 H 373.034 -0.698561 -1.92305 0
M  V30 3925 H 373.044 0.515007 -4.04737 0
M  V30 3926 H 371.719 -0.635636 -4.11014 0
M  V30 3927 H 370.296 1.11113 -3.55961 0
M  V30 3928 N 372.481 1.55866 -0.233164 0
M  V30 3929 C 373.429 2.22176 0.68851 0
M  V30 3930 C 374.423 1.20487 1.19076 0
M  V30 3931 O 375.629 1.38536 1.14925 0
M  V30 3932 H 372.004 0.712511 0.240483 0
M  V30 3933 H 373.975 2.98212 0.105935 0
M  V30 3934 C 372.724 2.92446 1.88071 0
M  V30 3935 H 372.047 3.70458 1.50337 0
M  V30 3936 H 373.487 3.42226 2.50314 0
M  V30 3937 C 371.946 1.95555 2.74335 0
M  V30 3938 O 372.476 1.47986 3.73447 0
M  V30 3939 N 370.682 1.62953 2.40613 0
M  V30 3940 H 370.229 2.01831 1.60069 0
M  V30 3941 H 370.187 0.983886 2.98609 0
M  V30 3942 N 373.959 -0.0401083 1.57549 0
M  V30 3943 C 374.889 -1.04384 2.08869 0
M  V30 3944 C 375.87 -1.38407 0.988817 0
M  V30 3945 O 377.055 -1.47483 1.26342 0
M  V30 3946 C 374.185 -2.34808 2.55895 0
M  V30 3947 C 373.139 -2.15057 3.70047 0
M  V30 3948 C 372.465 -3.51145 4.03239 0
M  V30 3949 C 373.765 -1.54576 4.98902 0
M  V30 3950 H 375.459 -0.616666 2.92981 0
M  V30 3951 H 373.005 -0.295184 1.40942 0
M  V30 3952 H 374.958 -3.05346 2.90417 0
M  V30 3953 H 373.682 -2.79565 1.68853 0
M  V30 3954 H 372.341 -1.46954 3.35857 0
M  V30 3955 H 371.989 -3.93529 3.13279 0
M  V30 3956 H 371.689 -3.38758 4.80122 0
M  V30 3957 H 373.213 -4.23062 4.40285 0
M  V30 3958 H 374.627 -2.15017 5.31451 0
M  V30 3959 H 373.024 -1.52796 5.80322 0
M  V30 3960 H 374.094 -0.51039 4.82206 0
M  V30 3961 N 375.437 -1.54477 -0.31217 0
M  V30 3962 C 376.384 -1.84655 -1.38461 0
M  V30 3963 C 377.354 -0.694536 -1.50882 0
M  V30 3964 O 378.539 -0.942081 -1.6592 0
M  V30 3965 C 375.679 -2.0896 -2.74645 0
M  V30 3966 C 374.792 -3.36618 -2.70763 0
M  V30 3967 C 373.927 -3.50824 -3.98868 0
M  V30 3968 C 372.966 -4.72315 -3.89339 0
M  V30 3969 N 372.103 -4.83387 -5.09197 0
M  V30 3970 H 376.943 -2.76142 -1.12026 0
M  V30 3971 H 374.48 -1.36748 -0.542065 0
M  V30 3972 H 376.438 -2.21045 -3.53829 0
M  V30 3973 H 375.068 -1.20752 -2.99364 0
M  V30 3974 H 374.12 -3.33211 -1.83506 0
M  V30 3975 H 375.432 -4.25917 -2.59608 0
M  V30 3976 H 374.586 -3.62513 -4.86486 0
M  V30 3977 H 373.325 -2.59638 -4.12843 0
M  V30 3978 H 372.33 -4.6067 -3.00105 0
M  V30 3979 H 373.555 -5.64897 -3.76919 0
M  V30 3980 H 371.501 -3.9512 -5.23657 0
M  V30 3981 H 371.418 -5.66669 -5.00422 0
M  V30 3982 H 372.686 -4.9942 -5.98498 0
M  V30 3983 N 376.915 0.57481 -1.46744 0
M  V30 3984 C 378.326 1.15695 -1.46532 0
M  V30 3985 C 378.677 1.95068 -0.210425 0
M  V30 3986 O 377.802 2.05241 0.685944 0
M  V30 3987 C 378.397 2.1048 -2.65487 0
M  V30 3988 C 376.956 2.64002 -2.68291 0
M  V30 3989 C 376.103 1.40026 -2.39349 0
M  V30 3990 H 379.054 0.362325 -1.54509 0
M  V30 3991 H 379.075 2.94074 -2.41455 0
M  V30 3992 H 378.587 1.52683 -3.56805 0
M  V30 3993 H 376.688 3.25646 -1.81067 0
M  V30 3994 H 376.801 3.06197 -3.68483 0
M  V30 3995 H 375.165 1.70106 -1.89568 0
M  V30 3996 H 375.948 0.840485 -3.32852 0
M  V30 3997 N 378.394 1.34581 0.820102 0
M  V30 3998 C 379.324 1.29038 1.94606 0
M  V30 3999 C 380.305 0.1673 1.69275 0
M  V30 4000 O 381.49 0.360112 1.90832 0
M  V30 4001 C 378.62 1.04793 3.31113 0
M  V30 4002 C 377.574 2.13597 3.70891 0
M  V30 4003 C 376.9 1.74537 5.05412 0
M  V30 4004 C 378.2 3.55451 3.8269 0
M  V30 4005 H 379.894 2.23248 1.99501 0
M  V30 4006 H 377.44 1.0747 0.958449 0
M  V30 4007 H 379.393 0.995592 4.0947 0
M  V30 4008 H 378.117 0.0702565 3.26524 0
M  V30 4009 H 376.776 2.17905 2.9481 0
M  V30 4010 H 376.424 0.754226 4.97313 0
M  V30 4011 H 376.124 2.47361 5.32997 0
M  V30 4012 H 377.648 1.70803 5.86224 0
M  V30 4013 H 379.062 3.5354 4.51312 0
M  V30 4014 H 377.459 4.26922 4.21732 0
M  V30 4015 H 378.529 3.92587 2.84611 0
M  V30 4016 N 379.872 -1.04064 1.18357 0
M  V30 4017 C 381.149 -1.74252 0.888581 0
M  V30 4018 C 381.529 -2.02138 -0.60856 0
M  V30 4019 O 380.877 -1.66656 -1.56327 0
M  V30 4020 C 381.087 -3.0277 1.73584 0
M  V30 4021 C 382.435 -3.76506 1.96286 0
M  V30 4022 O 383.459 -3.12668 1.70637 0
M  V30 4023 O 382.318 -4.91243 2.39464 0
M  V30 4024 H 379.412 -0.758271 0.330082 0
M  V30 4025 H 381.958 -1.1013 1.2911 0
M  V30 4026 H 380.73 -2.78299 2.75073 0
M  V30 4027 H 380.353 -3.74631 1.33183 0
M  V30 4028 N 381.35 -0.985608 -1.22978 0
M  V30 4029 C 382.599 -0.652881 -1.90841 0
M  V30 4030 C 382.912 0.817842 -1.77681 0
M  V30 4031 O 384.118 1.26185 -2.40395 0
M  V30 4032 C 382.574 -1.11717 -3.42122 0
M  V30 4033 C 382.182 -2.6126 -3.63933 0
M  V30 4034 C 383.926 -0.85843 -4.1573 0
M  V30 4035 C 381.833 -3.0133 -5.08876 0
M  V30 4036 H 380.763 -0.240491 -0.714619 0
M  V30 4037 H 383.414 -1.1942 -1.39324 0
M  V30 4038 H 381.796 -0.504027 -3.92779 0
M  V30 4039 H 382.97 -3.27858 -3.23799 0
M  V30 4040 H 381.285 -2.84937 -3.03644 0
M  V30 4041 H 383.882 -1.13359 -5.22546 0
M  V30 4042 H 384.225 0.205461 -4.15793 0
M  V30 4043 H 384.758 -1.43341 -3.71077 0
M  V30 4044 H 381.497 -4.06864 -5.13947 0
M  V30 4045 H 381.017 -2.3943 -5.49939 0
M  V30 4046 H 382.696 -2.92224 -5.77247 0
M  V30 4047 N 382.828 1.3818 -0.7579 0
M  V30 4048 C 383.776 2.32277 -0.122482 0
M  V30 4049 C 384.77 1.54238 0.700505 0
M  V30 4050 O 385.976 1.69737 0.599119 0
M  V30 4051 H 382.351 0.751712 -0.0208143 0
M  V30 4052 H 384.322 2.83469 -0.932099 0
M  V30 4053 C 383.071 3.39447 0.753076 0
M  V30 4054 H 382.394 3.99591 0.129184 0
M  V30 4055 H 383.834 4.07684 1.16489 0
M  V30 4056 C 382.293 2.78375 1.8976 0
M  V30 4057 O 382.823 2.68025 2.99208 0
M  V30 4058 N 381.029 2.36121 1.69397 0
M  V30 4059 H 380.576 2.4474 0.803762 0
M  V30 4060 H 380.534 1.95602 2.46145 0
M  V30 4061 N 384.306 0.507319 1.49211 0
M  V30 4062 C 385.216 -0.272136 2.33016 0
M  V30 4063 C 386.232 -0.961206 1.45041 0
M  V30 4064 O 387.408 -0.941191 1.78055 0
M  V30 4065 C 384.473 -1.31895 3.20631 0
M  V30 4066 C 383.534 -0.642648 4.24463 0
M  V30 4067 C 382.767 -1.63959 5.07891 0
M  V30 4068 O 382.99 -2.87007 4.92933 0
M  V30 4069 O 381.924 -1.19143 5.8999 0
M  V30 4070 H 385.75 0.413982 3.00865 0
M  V30 4071 H 383.335 0.268556 1.46966 0
M  V30 4072 H 385.217 -1.92446 3.7489 0
M  V30 4073 H 383.892 -1.98788 2.5547 0
M  V30 4074 H 382.799 0.00276252 3.741 0
M  V30 4075 H 384.132 -0.0160534 4.92197 0
M  V30 4076 N 385.784 -1.5574 0.241426 0
M  V30 4077 C 386.731 -2.21149 -0.660432 0
M  V30 4078 C 387.701 -1.17356 -1.17545 0
M  V30 4079 O 388.886 -1.45784 -1.23093 0
M  V30 4080 C 386.026 -2.91059 -1.85414 0
M  V30 4081 C 385.139 -4.09495 -1.37616 0
M  V30 4082 C 384.274 -4.67135 -2.529 0
M  V30 4083 C 383.313 -5.77831 -2.01936 0
M  V30 4084 N 382.45 -6.29677 -3.10566 0
M  V30 4085 H 387.29 -2.97845 -0.095955 0
M  V30 4086 H 384.827 -1.47057 -0.0356024 0
M  V30 4087 H 386.785 -3.29788 -2.5553 0
M  V30 4088 H 385.415 -2.16846 -2.39118 0
M  V30 4089 H 384.467 -3.76117 -0.569235 0
M  V30 4090 H 385.779 -4.89423 -0.962618 0
M  V30 4091 H 384.933 -5.08409 -3.31067 0
M  V30 4092 H 383.672 -3.86411 -2.97553 0
M  V30 4093 H 382.677 -5.36039 -1.22238 0
M  V30 4094 H 383.902 -6.60402 -1.58259 0
M  V30 4095 H 381.848 -5.5186 -3.54664 0
M  V30 4096 H 381.765 -7.04783 -2.73526 0
M  V30 4097 H 383.033 -6.75609 -3.88809 0
M  V30 4098 N 387.262 0.0317525 -1.57568 0
M  V30 4099 C 388.49 0.734949 -1.93407 0
M  V30 4100 C 388.905 1.69036 -0.84096 0
M  V30 4101 O 388.262 1.81582 0.182836 0
M  V30 4102 C 388.313 1.49432 -3.29169 0
M  V30 4103 O 388.034 0.577261 -4.3428 0
M  V30 4104 C 389.535 2.29492 -3.79273 0
M  V30 4105 H 386.755 0.206706 -0.638368 0
M  V30 4106 H 389.299 -0.00992046 -2.04498 0
M  V30 4107 H 387.454 2.1911 -3.19483 0
M  V30 4108 H 387.868 1.10952 -5.1263 0
M  V30 4109 H 389.342 2.78172 -4.76785 0
M  V30 4110 H 389.819 3.10794 -3.10328 0
M  V30 4111 H 390.425 1.64894 -3.92033 0
M  V30 4112 N 388.74 1.54641 0.303973 0
M  V30 4113 C 389.67 1.88386 1.3796 0
M  V30 4114 C 390.651 0.742485 1.5304 0
M  V30 4115 O 391.836 0.997959 1.66597 0
M  V30 4116 C 388.966 2.12854 2.74427 0
M  V30 4117 C 387.92 3.28702 2.74115 0
M  V30 4118 C 387.246 3.38582 4.13844 0
M  V30 4119 C 388.546 4.65881 2.3612 0
M  V30 4120 H 390.24 2.78474 1.09966 0
M  V30 4121 H 387.786 1.33988 0.527556 0
M  V30 4122 H 389.739 2.35047 3.49758 0
M  V30 4123 H 388.463 1.19535 3.03939 0
M  V30 4124 H 387.122 3.06428 2.0124 0
M  V30 4125 H 386.77 2.42784 4.40528 0
M  V30 4126 H 386.47 4.16453 4.14537 0
M  V30 4127 H 387.994 3.63031 4.90959 0
M  V30 4128 H 389.408 4.87823 3.01167 0
M  V30 4129 H 387.805 5.46444 2.48031 0
M  V30 4130 H 388.875 4.66799 1.3125 0
M  V30 4131 N 390.218 -0.567019 1.47046 0
M  V30 4132 C 391.15 -1.68985 1.54844 0
M  V30 4133 C 392.163 -1.56869 0.435431 0
M  V30 4134 O 393.352 -1.64006 0.70457 0
M  V30 4135 C 390.452 -3.07373 1.42742 0
M  V30 4136 C 389.625 -3.45339 2.6844 0
M  V30 4137 C 388.684 -4.62849 2.50314 0
M  V30 4138 O 387.71 -4.67922 3.24095 0
M  V30 4139 N 388.912 -5.58726 1.57499 0
M  V30 4140 H 391.677 -1.62745 2.51663 0
M  V30 4141 H 389.238 -0.753411 1.43302 0
M  V30 4142 H 391.23 -3.83803 1.28365 0
M  V30 4143 H 389.8 -3.07893 0.540445 0
M  V30 4144 H 389.02 -2.58455 2.97648 0
M  V30 4145 H 390.308 -3.67476 3.51907 0
M  V30 4146 H 389.706 -5.57376 0.966876 0
M  V30 4147 H 388.263 -6.34523 1.49078 0
M  V30 4148 N 391.696 -1.35014 -0.812953 0
M  V30 4149 C 392.628 -1.23262 -1.93233 0
M  V30 4150 C 393.641 -0.157371 -1.62038 0
M  V30 4151 O 394.83 -0.410096 -1.73725 0
M  V30 4152 C 391.93 -0.87392 -3.27438 0
M  V30 4153 C 391.103 -2.04622 -3.86586 0
M  V30 4154 C 390.162 -1.66432 -4.99186 0
M  V30 4155 O 389.188 -2.38222 -5.16951 0
M  V30 4156 N 390.39 -0.584248 -5.77552 0
M  V30 4157 H 393.155 -2.19699 -2.03844 0
M  V30 4158 H 390.716 -1.281 -0.99005 0
M  V30 4159 H 392.708 -0.600039 -4.00227 0
M  V30 4160 H 391.278 0.00057392 -3.126 0
M  V30 4161 H 390.498 -2.48427 -3.06068 0
M  V30 4162 H 391.786 -2.82999 -4.22835 0
M  V30 4163 H 391.184 0.0123526 -5.65699 0
M  V30 4164 H 389.741 -0.37013 -6.50748 0
M  V30 4165 N 393.175 1.03435 -1.18907 0
M  V30 4166 C 394.423 1.76394 -0.986382 0
M  V30 4167 C 394.744 1.88883 0.484567 0
M  V30 4168 O 394.014 1.41843 1.3512 0
M  V30 4169 H 392.594 0.65344 -0.361975 0
M  V30 4170 H 395.256 1.248 -1.49703 0
M  V30 4171 H 394.352 2.77424 -1.42978 0
M  V30 4172 N 394.653 0.992116 1.22453 0
M  V30 4173 C 395.902 0.662992 1.90492 0
M  V30 4174 C 396.215 -0.808407 1.78113 0
M  V30 4175 O 397.421 -1.24908 2.41061 0
M  V30 4176 C 395.877 1.1353 3.41524 0
M  V30 4177 C 395.485 2.63187 3.62542 0
M  V30 4178 C 397.229 0.880465 4.15269 0
M  V30 4179 C 395.136 3.04024 5.0727 0
M  V30 4180 H 394.066 0.244278 0.713333 0
M  V30 4181 H 396.717 1.20157 1.38688 0
M  V30 4182 H 395.099 0.52485 3.92506 0
M  V30 4183 H 396.273 3.2957 3.22056 0
M  V30 4184 H 394.588 2.86543 3.02129 0
M  V30 4185 H 397.185 1.16128 5.21937 0
M  V30 4186 H 397.528 -0.183408 4.15896 0
M  V30 4187 H 398.061 1.45307 3.70312 0
M  V30 4188 H 394.8 4.09584 5.11782 0
M  V30 4189 H 394.32 2.42343 5.48662 0
M  V30 4190 H 395.999 2.95282 5.75689 0
M  V30 4191 N 396.131 -1.37776 0.765217 0
M  V30 4192 C 397.063 -2.28958 0.105361 0
M  V30 4193 C 398.076 -1.48316 -0.67128 0
M  V30 4194 O 399.265 -1.71046 -0.51045 0
M  V30 4195 C 396.365 -3.27421 -0.874569 0
M  V30 4196 C 395.538 -4.37132 -0.153123 0
M  V30 4197 C 394.597 -5.1571 -1.04547 0
M  V30 4198 O 393.623 -5.66896 -0.511672 0
M  V30 4199 N 394.825 -5.29808 -2.37243 0
M  V30 4200 H 397.59 -2.86227 0.888495 0
M  V30 4201 H 395.151 -1.49682 0.617 0
M  V30 4202 H 397.143 -3.7687 -1.47483 0
M  V30 4203 H 395.713 -2.70967 -1.55871 0
M  V30 4204 H 394.933 -3.89166 0.627975 0
M  V30 4205 H 396.221 -5.07625 0.345643 0
M  V30 4206 H 395.619 -4.89793 -2.83054 0
M  V30 4207 H 394.176 -5.82589 -2.9229 0
M  V30 4208 N 397.609 -0.515225 -1.4894 0
M  V30 4209 C 398.539 0.244628 -2.32215 0
M  V30 4210 C 399.52 0.949136 -1.41157 0
M  V30 4211 O 400.705 0.937783 -1.70057 0
M  V30 4212 C 397.835 1.30096 -3.22013 0
M  V30 4213 C 396.789 0.715486 -4.21977 0
M  V30 4214 C 396.115 1.87339 -5.00808 0
M  V30 4215 C 397.415 -0.302982 -5.2142 0
M  V30 4216 H 399.109 -0.450501 -2.95991 0
M  V30 4217 H 396.655 -0.218098 -1.42339 0
M  V30 4218 H 398.608 1.84037 -3.79089 0
M  V30 4219 H 397.332 2.02547 -2.56207 0
M  V30 4220 H 395.991 0.197715 -3.66066 0
M  V30 4221 H 395.639 2.58592 -4.31438 0
M  V30 4222 H 395.339 1.48764 -5.68457 0
M  V30 4223 H 396.863 2.41686 -5.60732 0
M  V30 4224 H 398.277 0.148802 -5.73107 0
M  V30 4225 H 396.674 -0.60532 -5.97039 0
M  V30 4226 H 397.744 -1.21395 -4.69459 0
M  V30 4227 N 399.087 1.5561 -0.249682 0
M  V30 4228 C 400.05 2.20217 0.635394 0
M  V30 4229 C 401.05 1.17227 1.10066 0
M  V30 4230 O 402.24 1.42292 1.00492 0
M  V30 4231 C 399.372 2.84794 1.87363 0
M  V30 4232 H 400.565 2.99814 0.0716752 0
M  V30 4233 H 398.118 1.563 -0.000153234 0
M  V30 4234 H 398.853 2.09142 2.47851 0
M  V30 4235 H 398.638 3.60241 1.5482 0
M  V30 4236 H 400.128 3.3423 2.5036 0
M  V30 4237 N 400.565 -0.0233959 1.57583 0
M  V30 4238 C 401.497 -1.04994 2.03737 0
M  V30 4239 C 402.51 -1.32125 0.951152 0
M  V30 4240 O 403.699 -1.29512 1.22837 0
M  V30 4241 C 400.799 -2.39026 2.40249 0
M  V30 4242 C 399.972 -2.31171 3.7132 0
M  V30 4243 C 399.031 -3.47698 3.94959 0
M  V30 4244 O 398.057 -3.26937 4.65941 0
M  V30 4245 N 399.259 -4.6976 3.41037 0
M  V30 4246 H 402.024 -0.656507 2.92421 0
M  V30 4247 H 399.585 -0.211235 1.60516 0
M  V30 4248 H 401.577 -3.15712 2.53196 0
M  V30 4249 H 400.147 -2.70194 1.57207 0
M  V30 4250 H 399.367 -1.39547 3.68674 0
M  V30 4251 H 400.655 -2.23071 4.57293 0
M  V30 4252 H 400.053 -4.89528 2.83512 0
M  V30 4253 H 398.61 -5.43791 3.59353 0
M  V30 4254 N 402.043 -1.548 -0.295768 0
M  V30 4255 C 403.268 -1.78653 -1.05346 0
M  V30 4256 C 403.693 -0.546894 -1.79974 0
M  V30 4257 O 403.051 0.502763 -1.7419 0
M  V30 4258 C 403.099 -2.99679 -2.00561 0
M  V30 4259 O 402.203 -2.7317 -3.08953 0
M  V30 4260 H 401.544 -0.59116 -0.302367 0
M  V30 4261 H 404.074 -2.01895 -0.331598 0
M  V30 4262 H 404.084 -3.27793 -2.42932 0
M  V30 4263 H 402.759 -3.89562 -1.4565 0
M  V30 4264 H 401.336 -2.56089 -2.71059 0
M  V30 4265 N 403.521 0.559213 -1.47345 0
M  V30 4266 C 404.937 0.884943 -1.32819 0
M  V30 4267 C 405.137 1.98988 -0.317173 0
M  V30 4268 O 404.193 2.51031 0.272011 0
M  V30 4269 C 405.506 1.28007 -2.72093 0
M  V30 4270 C 407.054 1.39161 -2.80363 0
M  V30 4271 C 407.529 1.82031 -4.20272 0
M  V30 4272 N 409.02 1.89185 -4.22804 0
M  V30 4273 C 409.755 2.2368 -5.27973 0
M  V30 4274 N 409.251 2.56802 -6.43447 0
M  V30 4275 N 411.044 2.24436 -5.15349 0
M  V30 4276 H 403.195 -0.170304 -2.11716 0
M  V30 4277 H 405.458 -0.0135247 -0.947904 0
M  V30 4278 H 405.164 0.542027 -3.47498 0
M  V30 4279 H 405.038 2.23665 -3.03733 0
M  V30 4280 H 407.425 2.12048 -2.05231 0
M  V30 4281 H 407.506 0.41696 -2.52379 0
M  V30 4282 H 407.15 1.09715 -4.95908 0
M  V30 4283 H 407.08 2.80495 -4.45679 0
M  V30 4284 H 409.571 1.65982 -3.39497 0
M  V30 4285 H 409.884 2.82144 -7.19454 0
M  V30 4286 H 408.229 2.54387 -6.46771 0
M  V30 4287 H 411.42 1.97998 -4.24163 0
M  V30 4288 H 411.593 2.50989 -5.97418 0
M  V30 4289 N 404.999 1.35443 0.805782 0
M  V30 4290 C 406.229 1.31687 1.59192 0
M  V30 4291 C 406.637 -0.10756 1.88894 0
M  V30 4292 O 405.98 -1.07017 1.49309 0
M  V30 4293 C 406.042 2.05686 2.94845 0
M  V30 4294 C 405.706 3.54868 2.87954 0
M  V30 4295 C 406.703 4.49444 2.61335 0
M  V30 4296 C 404.388 3.97528 3.07046 0
M  V30 4297 C 406.382 5.84655 2.53885 0
M  V30 4298 C 404.069 5.32833 2.99219 0
M  V30 4299 C 405.067 6.26209 2.72674 0
M  V30 4300 O 404.755 7.59032 2.64811 0
M  V30 4301 H 404.487 0.453878 0.50097 0
M  V30 4302 H 407.041 1.78892 1.0093 0
M  V30 4303 H 405.271 1.5312 3.55093 0
M  V30 4304 H 406.96 1.94998 3.55993 0
M  V30 4305 H 407.726 4.17804 2.46303 0
M  V30 4306 H 403.605 3.25233 3.26718 0
M  V30 4307 H 407.149 6.57508 2.33086 0
M  V30 4308 H 403.046 5.64087 3.13809 0
M  V30 4309 H 403.814 7.68967 2.80413 0
M  V30 4310 N 406.477 -1.02803 1.19454 0
M  V30 4311 C 407.723 -1.76598 1.0092 0
M  V30 4312 C 408.078 -1.86939 -0.455142 0
M  V30 4313 O 407.371 -1.37575 -1.33355 0
M  V30 4314 C 407.565 -3.18941 1.6128 0
M  V30 4315 C 407.394 -3.22476 3.13431 0
M  V30 4316 C 406.164 -3.30375 3.82336 0
M  V30 4317 C 408.362 -3.09451 4.10785 0
M  V30 4318 N 406.344 -3.23292 5.21877 0
M  V30 4319 C 407.715 -3.10012 5.36929 0
M  V30 4320 C 409.77 -2.93585 4.02135 0
M  V30 4321 C 408.473 -2.96334 6.55423 0
M  V30 4322 C 410.499 -2.81256 5.20239 0
M  V30 4323 C 409.861 -2.82472 6.45282 0
M  V30 4324 H 405.96 -0.657447 0.423424 0
M  V30 4325 H 408.544 -1.22369 1.5144 0
M  V30 4326 H 406.715 -3.71489 1.1336 0
M  V30 4327 H 408.447 -3.81102 1.36173 0
M  V30 4328 H 405.202 -3.3663 3.33132 0
M  V30 4329 H 405.626 -3.23156 5.94894 0
M  V30 4330 H 410.268 -2.91466 3.0628 0
M  V30 4331 H 407.986 -2.97203 7.51463 0
M  V30 4332 H 411.572 -2.70014 5.15348 0
M  V30 4333 H 410.452 -2.73036 7.35133 0
M  V30 4334 N 407.956 -0.998596 -1.21925 0
M  V30 4335 C 408.888 -0.511879 -2.23411 0
M  V30 4336 C 409.901 0.396094 -1.57908 0
M  V30 4337 O 411.09 0.197316 -1.77406 0
M  V30 4338 C 408.19 0.276802 -3.37768 0
M  V30 4339 C 407.363 -0.628687 -4.32858 0
M  V30 4340 C 406.422 0.109272 -5.26087 0
M  V30 4341 O 405.448 -0.507237 -5.66935 0
M  V30 4342 N 406.65 1.38983 -5.63617 0
M  V30 4343 H 409.415 -1.38457 -2.658 0
M  V30 4344 H 406.976 -0.873981 -1.36283 0
M  V30 4345 H 408.968 0.77928 -3.97126 0
M  V30 4346 H 407.538 1.05063 -2.94415 0
M  V30 4347 H 406.758 -1.31175 -3.71735 0
M  V30 4348 H 408.046 -1.24514 -4.93329 0
M  V30 4349 H 407.444 1.91194 -5.32411 0
M  V30 4350 H 406.001 1.83739 -6.25367 0
M  V30 4351 N 409.434 1.37368 -0.772513 0
M  V30 4352 C 410.662 2.03942 -0.348588 0
M  V30 4353 C 411.077 1.58264 1.02947 0
M  V30 4354 O 410.434 0.764246 1.65727 0
M  V30 4355 C 410.485 3.5946 -0.38351 0
M  V30 4356 O 410.206 4.03468 -1.70721 0
M  V30 4357 C 411.707 4.4327 0.0519152 0
M  V30 4358 H 408.927 0.654931 -0.145966 0
M  V30 4359 H 411.471 1.75686 -1.04665 0
M  V30 4360 H 409.626 3.86486 0.265978 0
M  V30 4361 H 410.04 4.97991 -1.64636 0
M  V30 4362 H 411.514 5.51995 -0.0236733 0
M  V30 4363 H 411.991 4.2514 1.10238 0
M  V30 4364 H 412.597 4.21471 -0.569415 0
M  V30 4365 N 410.912 0.523116 1.48665 0
M  V30 4366 C 412.16 -0.0134497 2.02096 0
M  V30 4367 C 412.481 -1.35418 1.40311 0
M  V30 4368 O 411.751 -1.87543 0.566074 0
M  V30 4369 H 410.331 -0.00795915 0.746958 0
M  V30 4370 H 412.993 0.685388 1.82451 0
M  V30 4371 H 412.089 -0.126849 3.11842 0
M  V30 4372 N 412.39 -1.55475 0.257931 0
M  V30 4373 C 413.667 -1.91155 -0.414629 0
M  V30 4374 C 414.047 -1.18008 -1.75035 0
M  V30 4375 O 413.395 -0.301193 -2.26506 0
M  V30 4376 C 413.605 -3.44283 -0.571859 0
M  V30 4377 C 414.953 -4.15744 -0.862678 0
M  V30 4378 O 415.977 -3.50083 -0.657314 0
M  V30 4379 O 414.836 -5.31909 -1.2544 0
M  V30 4380 H 411.93 -0.796016 -0.22425 0
M  V30 4381 H 414.476 -1.66976 0.302814 0
M  V30 4382 H 413.248 -3.89558 0.368844 0
M  V30 4383 H 412.871 -3.7436 -1.33943 0
M  V30 4384 N 413.868 0.0150385 -1.57593 0
M  V30 4385 C 414.801 1.04475 -2.0288 0
M  V30 4386 C 415.779 1.3436 -0.915764 0
M  V30 4387 O 416.963 1.46779 -1.18271 0
M  V30 4388 C 414.09 2.37608 -2.41371 0
M  V30 4389 C 413.136 2.23487 -3.63257 0
M  V30 4390 S 413.969 1.57505 -5.11813 0
M  V30 4391 C 415.125 2.921 -5.5356 0
M  V30 4392 H 415.358 0.65907 -2.89903 0
M  V30 4393 H 412.891 0.225452 -1.52745 0
M  V30 4394 H 414.849 3.14165 -2.64217 0
M  V30 4395 H 413.51 2.7332 -1.54775 0
M  V30 4396 H 412.703 3.21802 -3.87891 0
M  V30 4397 H 412.305 1.55074 -3.40335 0
M  V30 4398 H 414.597 3.88419 -5.55101 0
M  V30 4399 H 415.54 2.72184 -6.53698 0
M  V30 4400 H 415.948 2.95318 -4.8109 0
M  V30 4401 N 415.346 1.54954 0.287554 0
M  V30 4402 C 416.576 1.78622 1.03816 0
M  V30 4403 C 416.984 0.552451 1.80955 0
M  V30 4404 O 416.327 -0.487665 1.77109 0
M  V30 4405 C 416.389 2.94975 2.055 0
M  V30 4406 C 416.053 4.32565 1.47433 0
M  V30 4407 C 417.05 5.12096 0.897436 0
M  V30 4408 C 414.735 4.79195 1.50591 0
M  V30 4409 C 416.729 6.36383 0.359851 0
M  V30 4410 C 414.416 6.03441 0.964459 0
M  V30 4411 C 415.414 6.81872 0.392413 0
M  V30 4412 O 415.102 8.03777 -0.140788 0
M  V30 4413 H 414.834 0.599144 0.313053 0
M  V30 4414 H 417.388 2.02761 0.328225 0
M  V30 4415 H 415.618 2.66493 2.80211 0
M  V30 4416 H 417.307 3.06097 2.6657 0
M  V30 4417 H 418.073 4.77209 0.865841 0
M  V30 4418 H 413.952 4.18167 1.94055 0
M  V30 4419 H 417.496 6.97545 -0.0872951 0
M  V30 4420 H 413.393 6.37813 0.993246 0
M  V30 4421 H 414.161 8.18495 -0.0287617 0
M  V30 4422 N 416.824 -0.551391 1.4764 0
M  V30 4423 C 417.756 -1.67333 1.56628 0
M  V30 4424 C 418.769 -1.56398 0.452045 0
M  V30 4425 O 419.958 -1.6325 0.721926 0
M  V30 4426 C 417.058 -3.05841 1.45994 0
M  V30 4427 C 416.231 -3.42472 2.72088 0
M  V30 4428 C 415.29 -4.60168 2.55209 0
M  V30 4429 O 414.316 -4.64458 3.2904 0
M  V30 4430 N 415.518 -5.57024 1.63416 0
M  V30 4431 H 418.283 -1.60066 2.53375 0
M  V30 4432 H 415.844 -0.738169 1.44093 0
M  V30 4433 H 417.836 -3.8242 1.32428 0
M  V30 4434 H 416.406 -3.07302 0.573071 0
M  V30 4435 H 415.626 -2.55284 3.00373 0
M  V30 4436 H 416.914 -3.63723 3.55785 0
M  V30 4437 H 416.312 -5.56319 1.02594 0
M  V30 4438 H 414.869 -6.32906 1.558 0
M  V30 4439 N 418.302 -1.35869 -0.798587 0
M  V30 4440 C 419.55 -1.29332 -1.55298 0
M  V30 4441 C 419.871 0.129729 -1.94568 0
M  V30 4442 O 419.141 1.06796 -1.6423 0
M  V30 4443 H 417.721 -0.475737 -0.57592 0
M  V30 4444 H 420.383 -1.70062 -0.952093 0
M  V30 4445 H 419.479 -1.91458 -2.46476 0
M  V30 4446 N 419.78 1.02168 -1.19998 0
M  V30 4447 C 420.71 2.12488 -0.96804 0
M  V30 4448 C 421.691 1.69799 0.101185 0
M  V30 4449 O 422.876 1.94121 -0.0552993 0
M  V30 4450 C 420.006 3.43479 -0.513776 0
M  V30 4451 C 418.96 3.99884 -1.52566 0
M  V30 4452 C 418.286 5.26582 -0.928214 0
M  V30 4453 C 419.586 4.33861 -2.90795 0
M  V30 4454 H 421.28 2.32149 -1.89069 0
M  V30 4455 H 418.826 1.11564 -0.910468 0
M  V30 4456 H 420.779 4.20036 -0.338774 0
M  V30 4457 H 419.503 3.23561 0.444493 0
M  V30 4458 H 418.162 3.25429 -1.68794 0
M  V30 4459 H 417.81 5.02986 0.0378289 0
M  V30 4460 H 417.51 5.65284 -1.60397 0
M  V30 4461 H 419.034 6.05799 -0.764167 0
M  V30 4462 H 420.448 5.01327 -2.78109 0
M  V30 4463 H 418.845 4.83664 -3.55231 0
M  V30 4464 H 419.915 3.42848 -3.42904 0
M  V30 4465 N 421.258 1.00505 1.21394 0
M  V30 4466 C 422.506 0.686415 1.90086 0
M  V30 4467 C 422.827 -0.785264 1.7849 0
M  V30 4468 O 422.097 -1.56387 1.17983 0
M  V30 4469 H 420.677 0.2509 0.703604 0
M  V30 4470 H 423.339 1.27417 1.47482 0
M  V30 4471 H 422.435 0.959621 2.96981 0
M  V30 4472 N 422.737 -1.36956 0.779787 0
M  V30 4473 C 423.983 -2.00237 0.357324 0
M  V30 4474 C 424.338 -1.60787 -1.05666 0
M  V30 4475 O 423.631 -0.847836 -1.71821 0
M  V30 4476 C 423.825 -3.54585 0.447686 0
M  V30 4477 C 423.654 -4.09025 1.86891 0
M  V30 4478 C 422.424 -4.39612 2.49138 0
M  V30 4479 C 424.622 -4.29461 2.82963 0
M  V30 4480 N 422.604 -4.79816 3.82949 0
M  V30 4481 C 423.975 -4.72363 4.01588 0
M  V30 4482 C 426.03 -4.1161 2.80145 0
M  V30 4483 C 424.733 -4.99284 5.17791 0
M  V30 4484 C 426.759 -4.39672 3.95528 0
M  V30 4485 C 426.121 -4.82822 5.12896 0
M  V30 4486 H 422.22 -0.76148 0.177968 0
M  V30 4487 H 424.804 -1.6613 1.01533 0
M  V30 4488 H 422.975 -3.87982 -0.180184 0
M  V30 4489 H 424.707 -4.047 0.0023955 0
M  V30 4490 H 421.462 -4.28975 2.00693 0
M  V30 4491 H 421.886 -5.04216 4.51769 0
M  V30 4492 H 426.528 -3.77415 1.90572 0
M  V30 4493 H 424.246 -5.32365 6.07958 0
M  V30 4494 H 427.832 -4.27441 3.94697 0
M  V30 4495 H 426.712 -5.04118 6.00695 0
M  V30 4496 N 424.215 -0.530993 -1.48385 0
M  V30 4497 C 425.125 0.23503 -2.3342 0
M  V30 4498 C 426.141 0.93801 -1.46552 0
M  V30 4499 O 427.317 0.912745 -1.7953 0
M  V30 4500 C 424.382 1.26778 -3.22689 0
M  V30 4501 C 423.443 0.575038 -4.25431 0
M  V30 4502 C 422.676 1.55858 -5.10435 0
M  V30 4503 O 422.899 2.79129 -4.97437 0
M  V30 4504 O 421.833 1.09742 -5.91811 0
M  V30 4505 H 425.659 -0.461794 -3.00169 0
M  V30 4506 H 423.244 -0.291903 -1.46521 0
M  V30 4507 H 425.126 1.86457 -3.77904 0
M  V30 4508 H 423.801 1.94699 -2.586 0
M  V30 4509 H 422.708 -0.0622782 -3.74048 0
M  V30 4510 H 424.041 -0.062253 -4.92161 0
M  V30 4511 N 425.693 1.55336 -0.266172 0
M  V30 4512 C 426.626 2.18256 0.666296 0
M  V30 4513 C 427.604 1.14064 1.1588 0
M  V30 4514 O 428.788 1.42546 1.23341 0
M  V30 4515 C 425.915 2.79867 1.90768 0
M  V30 4516 C 424.961 3.97283 1.55141 0
M  V30 4517 S 425.794 5.31694 0.637313 0
M  V30 4518 C 426.95 5.96769 1.88727 0
M  V30 4519 H 427.183 2.97008 0.131647 0
M  V30 4520 H 424.716 1.54317 -0.0504869 0
M  V30 4521 H 426.674 3.15996 2.62025 0
M  V30 4522 H 425.335 2.01025 2.41346 0
M  V30 4523 H 424.528 4.3905 2.4749 0
M  V30 4524 H 424.13 3.6253 0.919113 0
M  V30 4525 H 426.422 6.15458 2.83227 0
M  V30 4526 H 427.365 6.91752 1.51276 0
M  V30 4527 H 427.773 5.26034 2.04814 0
M  V30 4528 N 427.171 -0.0066808 1.57599 0
M  V30 4529 C 428.101 -0.999296 2.11036 0
M  V30 4530 C 429.082 -1.36278 1.01795 0
M  V30 4531 O 430.267 -1.4477 1.29442 0
M  V30 4532 C 427.397 -2.29328 2.60818 0
M  V30 4533 C 426.351 -2.07159 3.74525 0
M  V30 4534 C 425.677 -3.42512 4.10596 0
M  V30 4535 C 426.977 -1.43959 5.02069 0
M  V30 4536 H 428.671 -0.554382 2.94223 0
M  V30 4537 H 426.217 -0.265221 1.41536 0
M  V30 4538 H 428.17 -2.99117 2.96828 0
M  V30 4539 H 426.894 -2.7592 1.74745 0
M  V30 4540 H 425.553 -1.39797 3.38899 0
M  V30 4541 H 425.201 -3.86795 3.21556 0
M  V30 4542 H 424.901 -3.28498 4.87199 0
M  V30 4543 H 426.425 -4.13628 4.4916 0
M  V30 4544 H 427.839 -2.03696 5.35893 0
M  V30 4545 H 426.236 -1.40452 5.83432 0
M  V30 4546 H 427.306 -0.407992 4.83181 0
M  V30 4547 N 428.649 -1.55105 -0.279332 0
M  V30 4548 C 429.926 -1.66119 -1.03267 0
M  V30 4549 C 430.306 -0.523525 -2.04505 0
M  V30 4550 O 429.654 0.477194 -2.23462 0
M  V30 4551 C 429.864 -3.05067 -1.69515 0
M  V30 4552 C 431.212 -3.62606 -2.20912 0
M  V30 4553 O 432.236 -3.07659 -1.79512 0
M  V30 4554 O 431.095 -4.58861 -2.96831 0
M  V30 4555 H 428.189 -0.674429 -0.478618 0
M  V30 4556 H 430.735 -1.67446 -0.275694 0
M  V30 4557 H 429.507 -3.79311 -0.9612 0
M  V30 4558 H 429.13 -3.07611 -2.51915 0
M  V30 4559 N 430.127 0.543554 -1.4793 0
M  V30 4560 C 431.373 1.29961 -1.56466 0
M  V30 4561 C 431.728 1.91024 -0.229696 0
M  V30 4562 O 431.021 1.75619 0.766072 0
M  V30 4563 C 431.215 2.42078 -2.62932 0
M  V30 4564 C 431.044 1.92003 -4.06651 0
M  V30 4565 C 429.814 1.75223 -4.73946 0
M  V30 4566 C 432.012 1.45648 -4.93245 0
M  V30 4567 N 429.994 1.19632 -6.02131 0
M  V30 4568 C 431.365 1.01914 -6.11566 0
M  V30 4569 C 433.42 1.33826 -4.79578 0
M  V30 4570 C 432.123 0.475301 -7.17728 0
M  V30 4571 C 434.149 0.808427 -5.85848 0
M  V30 4572 C 433.511 0.381081 -7.03368 0
M  V30 4573 H 429.61 0.467086 -0.62718 0
M  V30 4574 H 432.194 0.614543 -1.84747 0
M  V30 4575 H 430.365 3.08098 -2.36496 0
M  V30 4576 H 432.097 3.09096 -2.61231 0
M  V30 4577 H 428.852 1.98345 -4.30065 0
M  V30 4578 H 429.276 0.93885 -6.70458 0
M  V30 4579 H 433.918 1.65474 -3.89074 0
M  V30 4580 H 431.636 0.146472 -8.07967 0
M  V30 4581 H 435.222 0.720315 -5.77324 0
M  V30 4582 H 434.102 -0.0225344 -7.84197 0
M  V30 4583 N 431.605 1.3629 0.791371 0
M  V30 4584 C 433.016 1.27225 1.36641 0
M  V30 4585 C 433.367 -0.0887968 1.95999 0
M  V30 4586 O 432.492 -0.990207 1.92416 0
M  V30 4587 C 433.087 2.30375 2.48421 0
M  V30 4588 C 431.646 2.25004 3.01746 0
M  V30 4589 C 430.793 2.15259 1.7481 0
M  V30 4590 H 433.744 1.47198 0.593173 0
M  V30 4591 H 433.765 1.93905 3.27385 0
M  V30 4592 H 433.277 3.29422 2.05189 0
M  V30 4593 H 431.378 1.29417 3.49403 0
M  V30 4594 H 431.491 3.1761 3.58693 0
M  V30 4595 H 429.855 1.61482 1.96966 0
M  V30 4596 H 430.638 3.16191 1.33709 0
M  V30 4597 N 433.083 -1.0153 1.20538 0
M  V30 4598 C 434.329 -1.75408 1.01783 0
M  V30 4599 C 434.662 -1.88943 -0.448814 0
M  V30 4600 O 433.937 -1.4162 -1.33319 0
M  V30 4601 C 434.22 -3.17255 1.70356 0
M  V30 4602 C 434.073 -3.11508 3.24473 0
M  V30 4603 C 435.392 -4.15955 1.43769 0
M  V30 4604 H 432.511 -0.636713 0.371167 0
M  V30 4605 H 435.153 -1.18436 1.4857 0
M  V30 4606 H 433.303 -3.65898 1.30578 0
M  V30 4607 H 434.975 -2.70658 3.73553 0
M  V30 4608 H 433.218 -2.4887 3.55311 0
M  V30 4609 H 433.889 -4.11784 3.67611 0
M  V30 4610 H 436.365 -3.75973 1.7828 0
M  V30 4611 H 435.241 -5.13368 1.94279 0
M  V30 4612 H 435.502 -4.40586 0.365564 0
M  V30 4613 N 434.561 -1.01147 -1.20859 0
M  V30 4614 C 435.509 -0.57059 -2.25493 0
M  V30 4615 C 436.503 0.388109 -1.64894 0
M  V30 4616 O 437.709 0.258592 -1.78133 0
M  V30 4617 H 434.084 -0.166191 -0.733406 0
M  V30 4618 H 436.055 -1.46411 -2.60012 0
M  V30 4619 C 434.804 0.0805241 -3.47607 0
M  V30 4620 H 434.127 -0.648156 -3.94511 0
M  V30 4621 H 435.567 0.352197 -4.22535 0
M  V30 4622 C 434.026 1.32175 -3.09889 0
M  V30 4623 O 434.556 2.41553 -3.20959 0
M  V30 4624 N 432.762 1.20392 -2.64488 0
M  V30 4625 H 432.309 0.313905 -2.5568 0
M  V30 4626 H 432.267 2.03541 -2.39621 0
M  V30 4627 N 436.039 1.36541 -0.78704 0
M  V30 4628 C 437.45 1.81873 -0.421807 0
M  V30 4629 C 437.801 1.65487 1.05397 0
M  V30 4630 O 436.926 1.17448 1.81755 0
M  V30 4631 C 437.521 3.30192 -0.758841 0
M  V30 4632 C 436.08 3.73743 -0.446468 0
M  V30 4633 C 435.227 2.58844 -0.994728 0
M  V30 4634 H 438.178 1.24796 -0.98039 0
M  V30 4635 H 438.199 3.80468 -0.0490648 0
M  V30 4636 H 437.711 3.42087 -1.83299 0
M  V30 4637 H 435.812 3.6741 0.619739 0
M  V30 4638 H 435.925 4.69272 -0.965415 0
M  V30 4639 H 434.289 2.51245 -0.418087 0
M  V30 4640 H 435.072 2.73525 -2.07458 0
M  V30 4641 N 437.518 0.538854 1.48102 0
M  V30 4642 C 438.795 -0.0568108 1.95517 0
M  V30 4643 C 439.175 -1.50408 1.48124 0
M  V30 4644 O 438.523 -2.17133 0.711727 0
M  V30 4645 C 438.733 0.0696262 3.48931 0
M  V30 4646 C 440.081 -0.0851202 4.24515 0
M  V30 4647 O 441.105 -0.0037347 3.562 0
M  V30 4648 O 439.964 -0.257025 5.45895 0
M  V30 4649 H 437.058 -0.0743695 0.823649 0
M  V30 4650 H 439.604 0.604081 1.58584 0
M  V30 4651 H 438.376 1.07744 3.76174 0
M  V30 4652 H 437.999 -0.629714 3.92582 0
M  V30 4653 N 438.996 -1.55193 0.274407 0
M  V30 4654 C 440.221 -2.04446 -0.348824 0
M  V30 4655 C 440.646 -1.15149 -1.48735 0
M  V30 4656 O 440.004 -0.149952 -1.80679 0
M  V30 4657 C 440.052 -3.51431 -0.808009 0
M  V30 4658 O 439.156 -3.65225 -1.91531 0
M  V30 4659 H 438.497 -0.66006 -0.0722276 0
M  V30 4660 H 441.027 -2.00481 0.408498 0
M  V30 4661 H 441.037 -3.92781 -1.10395 0
M  V30 4662 H 439.712 -4.15892 0.0249865 0
M  V30 4663 H 438.289 -3.35778 -1.62196 0
M  V30 4664 N 440.474 -0.00167713 -1.576 0
M  V30 4665 C 441.723 0.682021 -1.89819 0
M  V30 4666 C 442.036 1.74844 -0.876871 0
M  V30 4667 O 443.242 2.48688 -1.08934 0
M  V30 4668 C 441.698 1.26425 -3.36964 0
M  V30 4669 C 441.306 0.232568 -4.47396 0
M  V30 4670 C 443.05 1.92604 -3.78291 0
M  V30 4671 C 440.957 0.824882 -5.85619 0
M  V30 4672 H 439.887 0.258499 -0.708304 0
M  V30 4673 H 442.538 -0.0624957 -1.83394 0
M  V30 4674 H 440.92 2.05949 -3.38232 0
M  V30 4675 H 442.094 -0.5382 -4.57646 0
M  V30 4676 H 440.409 -0.32888 -4.15099 0
M  V30 4677 H 443.006 2.37827 -4.78897 0
M  V30 4678 H 443.349 2.75732 -3.11894 0
M  V30 4679 H 443.882 1.19812 -3.79328 0
M  V30 4680 H 440.621 0.0323542 -6.55492 0
M  V30 4681 H 440.141 1.56477 -5.79029 0
M  V30 4682 H 441.82 1.32301 -6.33329 0
M  V30 4683 N 441.952 1.55251 0.271103 0
M  V30 4684 C 443.201 1.75151 1.00025 0
M  V30 4685 C 443.514 0.561041 1.87381 0
M  V30 4686 O 444.72 0.642506 2.63788 0
M  V30 4687 C 443.176 3.09999 1.82835 0
M  V30 4688 C 442.784 4.3662 1.00336 0
M  V30 4689 C 444.528 3.39249 2.55168 0
M  V30 4690 C 442.435 5.62506 1.82595 0
M  V30 4691 H 441.365 0.652877 0.377183 0
M  V30 4692 H 444.016 1.81708 0.255843 0
M  V30 4693 H 442.398 2.97485 2.61378 0
M  V30 4694 H 443.572 4.60055 0.261959 0
M  V30 4695 H 441.887 4.14527 0.394486 0
M  V30 4696 H 444.484 4.3051 3.1712 0
M  V30 4697 H 444.827 2.59467 3.2555 0
M  V30 4698 H 445.36 3.52869 1.83653 0
M  V30 4699 H 442.099 6.45041 1.16631 0
M  V30 4700 H 441.619 5.43211 2.54327 0
M  V30 4701 H 443.298 6.00875 2.39913 0
M  V30 4702 N 443.43 -0.535701 1.48216 0
M  V30 4703 C 444.378 -1.66179 1.62749 0
M  V30 4704 C 445.372 -1.62034 0.49409 0
M  V30 4705 O 446.578 -1.6696 0.672624 0
M  V30 4706 H 442.953 -0.550244 0.512578 0
M  V30 4707 H 444.924 -1.51063 2.57337 0
M  V30 4708 C 443.673 -3.04471 1.67907 0
M  V30 4709 H 442.996 -3.08351 2.54479 0
M  V30 4710 H 444.436 -3.82894 1.82121 0
M  V30 4711 C 442.895 -3.34314 0.416596 0
M  V30 4712 O 443.425 -3.98905 -0.473014 0
M  V30 4713 N 441.631 -2.89149 0.290038 0
M  V30 4714 H 441.178 -2.36764 1.01493 0
M  V30 4715 H 441.136 -3.09486 -0.55367 0
M  V30 4716 N 444.908 -1.36708 -0.784132 0
M  V30 4717 C 446.156 -1.30972 -1.53918 0
M  V30 4718 C 446.477 0.109086 -1.94695 0
M  V30 4719 O 445.747 1.05048 -1.65353 0
M  V30 4720 H 444.327 -0.481819 -0.570841 0
M  V30 4721 H 446.989 -1.71063 -0.934002 0
M  V30 4722 H 446.085 -1.94061 -2.44431 0
M  V30 4723 N 446.386 1.0089 -1.21074 0
M  V30 4724 C 447.611 1.78727 -1.05221 0
M  V30 4725 C 448.036 1.83932 0.393795 0
M  V30 4726 O 447.394 1.28004 1.28393 0
M  V30 4727 C 447.442 3.20665 -1.64944 0
M  V30 4728 O 446.546 4.02632 -0.892273 0
M  V30 4729 H 445.887 0.550973 -0.370574 0
M  V30 4730 H 448.417 1.26847 -1.60534 0
M  V30 4731 H 448.427 3.71352 -1.69002 0
M  V30 4732 H 447.102 3.16191 -2.70177 0
M  V30 4733 H 445.679 3.61207 -0.926492 0
M  V30 4734 N 447.864 1.01787 1.20321 0
M  V30 4735 C 449.141 0.622978 1.85414 0
M  V30 4736 C 449.521 -0.898887 1.91006 0
M  V30 4737 O 448.869 -1.79112 1.41884 0
M  V30 4738 C 449.079 1.27226 3.24984 0
M  V30 4739 C 450.427 1.3885 4.01255 0
M  V30 4740 O 451.451 1.22857 3.34342 0
M  V30 4741 O 450.31 1.64705 5.2109 0
M  V30 4742 H 447.404 0.215116 0.798533 0
M  V30 4743 H 449.95 1.11533 1.27901 0
M  V30 4744 H 448.722 2.31209 3.15687 0
M  V30 4745 H 448.345 0.767069 3.90131 0
M  V30 4746 N 449.342 -1.36122 0.79427 0
M  V30 4747 C 450.29 -2.31871 0.184023 0
M  V30 4748 C 451.284 -1.56041 -0.659365 0
M  V30 4749 O 452.49 -1.71266 -0.553906 0
M  V30 4750 H 448.865 -0.750896 0.0407373 0
M  V30 4751 H 450.836 -2.80898 1.00693 0
M  V30 4752 C 449.585 -3.41324 -0.662813 0
M  V30 4753 H 448.908 -3.99793 -0.0231944 0
M  V30 4754 H 450.348 -4.10629 -1.05639 0
M  V30 4755 C 448.807 -2.83308 -1.82313 0
M  V30 4756 O 449.337 -2.75863 -2.91997 0
M  V30 4757 N 447.543 -2.40529 -1.63077 0
M  V30 4758 H 447.09 -2.46785 -0.738591 0
M  V30 4759 H 447.048 -2.02059 -2.40872 0
M  V30 4760 N 450.82 -0.546701 -1.47814 0
M  V30 4761 C 451.767 0.206854 -2.29871 0
M  V30 4762 C 452.737 0.918235 -1.38411 0
M  V30 4763 O 453.922 0.915991 -1.67375 0
M  V30 4764 C 451.062 1.23746 -3.22151 0
M  V30 4765 C 450.175 0.533216 -4.28697 0
M  V30 4766 C 449.31 1.5482 -5.08138 0
M  V30 4767 C 448.349 0.828347 -6.06469 0
M  V30 4768 N 447.486 1.78966 -6.78908 0
M  V30 4769 H 452.326 -0.499037 -2.93792 0
M  V30 4770 H 449.863 -0.25793 -1.44821 0
M  V30 4771 H 451.821 1.84746 -3.74065 0
M  V30 4772 H 450.451 1.91151 -2.60117 0
M  V30 4773 H 449.503 -0.191089 -3.7992 0
M  V30 4774 H 450.815 -0.0311987 -4.9879 0
M  V30 4775 H 449.969 2.23202 -5.6415 0
M  V30 4776 H 448.708 2.14652 -4.37922 0
M  V30 4777 H 447.713 0.130539 -5.49645 0
M  V30 4778 H 448.938 0.235907 -6.7869 0
M  V30 4779 H 446.884 2.37675 -6.1143 0
M  V30 4780 H 446.801 1.27712 -7.45135 0
M  V30 4781 H 448.069 2.46496 -7.395 0
M  V30 4782 N 452.299 1.55045 -0.282633 0
M  V30 4783 C 453.548 1.98938 0.332667 0
M  V30 4784 C 453.861 1.17455 1.56409 0
M  V30 4785 O 455.067 1.51527 2.25282 0
M  V30 4786 C 453.523 3.54105 0.643226 0
M  V30 4787 C 453.131 4.44374 -0.568814 0
M  V30 4788 C 454.875 4.06569 1.22074 0
M  V30 4789 C 452.782 5.90943 -0.232426 0
M  V30 4790 H 451.712 0.743043 0.128075 0
M  V30 4791 H 454.363 1.79341 -0.388464 0
M  V30 4792 H 452.745 3.69532 1.42346 0
M  V30 4793 H 453.919 4.40718 -1.34551 0
M  V30 4794 H 452.234 4.02585 -1.06369 0
M  V30 4795 H 454.831 5.13626 1.48635 0
M  V30 4796 H 455.174 3.56057 2.15707 0
M  V30 4797 H 455.707 3.94612 0.502621 0
M  V30 4798 H 452.446 6.45567 -1.13683 0
M  V30 4799 H 451.966 5.9765 0.507357 0
M  V30 4800 H 453.645 6.4677 0.172657 0
M  V30 4801 N 453.777 0.010035 1.57597 0
M  V30 4802 C 454.74 -0.963029 2.07986 0
M  V30 4803 C 455.74 -1.26619 0.991173 0
M  V30 4804 O 456.93 -1.2097 1.25347 0
M  V30 4805 C 454.062 -2.2851 2.52974 0
M  V30 4806 H 455.255 -0.526971 2.95234 0
M  V30 4807 H 452.808 -0.237639 1.54483 0
M  V30 4808 H 453.543 -2.76784 1.69 0
M  V30 4809 H 453.328 -2.07824 3.32493 0
M  V30 4810 H 454.818 -2.98294 2.9225 0
M  V30 4811 N 455.255 -1.55392 -0.262866 0
M  V30 4812 C 456.185 -1.91978 -1.32917 0
M  V30 4813 C 457.166 -0.7828 -1.51017 0
M  V30 4814 O 458.351 -1.04178 -1.63892 0
M  V30 4815 C 455.481 -2.20055 -2.68687 0
M  V30 4816 C 454.435 -3.35854 -2.65304 0
M  V30 4817 C 453.761 -3.49435 -4.04721 0
M  V30 4818 C 455.061 -4.71977 -2.23685 0
M  V30 4819 H 456.755 -2.81292 -1.02544 0
M  V30 4820 H 454.301 -1.3534 -0.491846 0
M  V30 4821 H 456.254 -2.44237 -3.43404 0
M  V30 4822 H 454.978 -1.27551 -3.00663 0
M  V30 4823 H 453.637 -3.11655 -1.93045 0
M  V30 4824 H 453.285 -2.54379 -4.33936 0
M  V30 4825 H 452.985 -4.27297 -4.0335 0
M  V30 4826 H 454.509 -3.7592 -4.81161 0
M  V30 4827 H 455.923 -4.95637 -2.88127 0
M  V30 4828 H 454.32 -5.52828 -2.33456 0
M  V30 4829 H 455.39 -4.70115 -1.18827 0
M  V30 4830 N 456.733 0.527833 -1.48498 0
M  V30 4831 C 457.696 1.61439 -1.62696 0
M  V30 4832 C 458.696 1.52824 -0.500136 0
M  V30 4833 O 459.886 1.56456 -0.765976 0
M  V30 4834 C 457.018 3.01063 -1.59918 0
M  V30 4835 H 458.211 1.50189 -2.59583 0
M  V30 4836 H 455.764 0.750055 -1.37127 0
M  V30 4837 H 456.499 3.17818 -0.645163 0
M  V30 4838 H 456.284 3.08725 -2.41726 0
M  V30 4839 H 457.774 3.80057 -1.73051 0
M  V30 4840 N 458.211 1.37122 0.776871 0
M  V30 4841 C 459.174 1.32301 1.8716 0
M  V30 4842 C 460.174 0.228099 1.59174 0
M  V30 4843 O 461.364 0.483642 1.67352 0
M  V30 4844 C 458.496 1.054 3.24197 0
M  V30 4845 H 459.689 2.29673 1.92848 0
M  V30 4846 H 457.242 1.22077 0.97606 0
M  V30 4847 H 457.977 0.0853872 3.24188 0
M  V30 4848 H 457.762 1.84648 3.45901 0
M  V30 4849 H 459.252 1.04664 4.04271 0
M  V30 4850 N 459.689 -1.00246 1.21608 0
M  V30 4851 C 461.105 -1.26435 0.973975 0
M  V30 4852 C 461.305 -1.98642 -0.338143 0
M  V30 4853 O 460.361 -2.29026 -1.06317 0
M  V30 4854 C 461.674 -2.08551 2.16626 0
M  V30 4855 C 463.222 -2.21769 2.20879 0
M  V30 4856 C 463.697 -3.07267 3.39633 0
M  V30 4857 N 465.188 -3.14855 3.39736 0
M  V30 4858 C 465.923 -3.81274 4.28273 0
M  V30 4859 N 465.419 -4.497 5.27012 0
M  V30 4860 N 467.212 -3.7794 4.16074 0
M  V30 4861 H 459.363 -0.518089 2.05984 0
M  V30 4862 H 461.626 -0.291368 0.902113 0
M  V30 4863 H 461.332 -1.62847 3.11727 0
M  V30 4864 H 461.206 -3.09303 2.15897 0
M  V30 4865 H 463.593 -2.66691 1.26332 0
M  V30 4866 H 463.674 -1.20478 2.25652 0
M  V30 4867 H 463.318 -2.63047 4.34475 0
M  V30 4868 H 463.248 -4.08678 3.321 0
M  V30 4869 H 465.739 -2.66147 2.6828 0
M  V30 4870 H 466.052 -4.98092 5.90867 0
M  V30 4871 H 464.397 -4.48479 5.30935 0
M  V30 4872 H 467.588 -3.23638 3.38195 0
M  V30 4873 H 467.761 -4.29424 4.85282 0
M  V30 4874 N 461.167 -1.02423 -1.1978 0
M  V30 4875 C 462.578 -0.748389 -1.71044 0
M  V30 4876 C 462.929 0.732398 -1.82017 0
M  V30 4877 O 462.054 1.57116 -1.48807 0
M  V30 4878 C 462.649 -1.35187 -3.1066 0
M  V30 4879 C 461.208 -1.12472 -3.59203 0
M  V30 4880 C 460.355 -1.45283 -2.36195 0
M  V30 4881 H 463.306 -1.19275 -1.04686 0
M  V30 4882 H 463.327 -0.746408 -3.73107 0
M  V30 4883 H 462.839 -2.4296 -3.02642 0
M  V30 4884 H 460.94 -0.0649983 -3.72543 0
M  V30 4885 H 461.053 -1.81016 -4.43588 0
M  V30 4886 H 459.417 -0.872034 -2.39307 0
M  V30 4887 H 460.2 -2.54129 -2.30811 0
M  V30 4888 N 462.645 1.35699 -0.801477 0
M  V30 4889 C 463.891 1.99208 -0.380022 0
M  V30 4890 C 464.224 1.63445 1.04878 0
M  V30 4891 O 463.499 0.895223 1.72673 0
M  V30 4892 C 463.782 3.55755 -0.557708 0
M  V30 4893 C 463.635 4.01332 -2.03107 0
M  V30 4894 C 464.954 4.40096 0.0197968 0
M  V30 4895 H 462.073 0.723667 -0.139552 0
M  V30 4896 H 464.715 1.60928 -1.01006 0
M  V30 4897 H 462.865 3.88494 -0.0213741 0
M  V30 4898 H 464.537 3.79026 -2.62939 0
M  V30 4899 H 462.78 3.52429 -2.52936 0
M  V30 4900 H 463.451 5.10234 -2.1063 0
M  V30 4901 H 465.927 4.13786 -0.438179 0
M  V30 4902 H 464.803 5.48735 -0.134477 0
M  V30 4903 H 465.064 4.2786 1.11303 0
M  V30 4904 N 464.123 0.554532 1.47522 0
M  V30 4905 C 465.07 -0.19466 2.29978 0
M  V30 4906 C 466.04 -0.910882 1.38896 0
M  V30 4907 O 467.225 -0.907102 1.67858 0
M  V30 4908 C 464.365 -1.22035 3.22802 0
M  V30 4909 C 463.478 -0.510474 4.28973 0
M  V30 4910 C 462.613 -1.52123 5.08952 0
M  V30 4911 C 461.652 -0.796173 6.069 0
M  V30 4912 N 460.789 -1.75363 6.79847 0
M  V30 4913 H 465.629 0.51461 2.93523 0
M  V30 4914 H 463.166 0.265607 1.44682 0
M  V30 4915 H 465.124 -1.8276 3.7504 0
M  V30 4916 H 463.754 -1.89769 2.61127 0
M  V30 4917 H 462.806 0.211234 3.79813 0
M  V30 4918 H 464.118 0.0576503 4.98767 0
M  V30 4919 H 463.272 -2.20207 5.65326 0
M  V30 4920 H 462.011 -2.12327 4.39054 0
M  V30 4921 H 461.016 -0.101388 5.49707 0
M  V30 4922 H 462.241 -0.199911 6.78806 0
M  V30 4923 H 460.187 -2.3443 6.12682 0
M  V30 4924 H 460.104 -1.23759 7.45801 0
M  V30 4925 H 461.372 -2.4257 7.40797 0
M  V30 4926 N 465.601 -1.54893 0.290851 0
M  V30 4927 C 466.564 -2.21824 -0.576784 0
M  V30 4928 C 467.564 -1.20104 -1.06919 0
M  V30 4929 O 468.754 -1.44906 -0.966843 0
M  V30 4930 C 465.886 -2.89662 -1.79747 0
M  V30 4931 H 467.079 -2.99899 0.00784051 0
M  V30 4932 H 464.632 -1.56245 0.0415934 0
M  V30 4933 H 465.367 -2.15639 -2.42219 0
M  V30 4934 H 465.152 -3.64219 -1.45214 0
M  V30 4935 H 466.642 -3.4075 -2.4141 0
M  V30 4936 N 467.08 -0.0183926 -1.57589 0
M  V30 4937 C 468.329 0.66185 -1.90532 0
M  V30 4938 C 468.642 1.73904 -0.895366 0
M  V30 4939 O 469.848 2.47518 -1.11566 0
M  V30 4940 C 468.304 1.22844 -3.38286 0
M  V30 4941 C 467.912 0.185103 -4.47617 0
M  V30 4942 C 469.656 1.88581 -3.80312 0
M  V30 4943 C 467.563 0.762723 -5.86461 0
M  V30 4944 H 466.493 0.250972 -0.711006 0
M  V30 4945 H 469.144 -0.0819435 -1.83317 0
M  V30 4946 H 467.526 2.0235 -3.40398 0
M  V30 4947 H 468.7 -0.58671 -4.5705 0
M  V30 4948 H 467.015 -0.372889 -4.14727 0
M  V30 4949 H 469.612 2.32735 -4.81392 0
M  V30 4950 H 469.955 2.72408 -3.14801 0
M  V30 4951 H 470.488 1.15782 -3.80578 0
M  V30 4952 H 467.227 -0.0371713 -6.55489 0
M  V30 4953 H 466.747 1.50327 -5.80656 0
M  V30 4954 H 468.426 1.25576 -6.34697 0
M  V30 4955 N 468.558 1.5553 0.254621 0
M  V30 4956 C 469.786 1.81046 1.00149 0
M  V30 4957 C 470.201 0.593047 1.79244 0
M  V30 4958 O 469.558 -0.438196 1.77161 0
M  V30 4959 C 469.609 3.04684 1.94551 0
M  V30 4960 O 469.33 4.21725 1.18658 0
M  V30 4961 C 470.831 3.42943 2.80901 0
M  V30 4962 H 468.051 0.602653 0.295044 0
M  V30 4963 H 470.595 2.02576 0.279842 0
M  V30 4964 H 468.75 2.85226 2.62154 0
M  V30 4965 H 469.164 4.91746 1.82445 0
M  V30 4966 H 470.638 4.32576 3.42902 0
M  V30 4967 H 471.115 2.63176 3.51617 0
M  V30 4968 H 471.721 3.64724 2.18762 0
M  V30 4969 N 470.036 -0.519951 1.48776 0
M  V30 4970 C 471.447 -1.10177 1.50725 0
M  V30 4971 C 471.798 -1.94153 0.282678 0
M  V30 4972 O 470.923 -2.07645 -0.609298 0
M  V30 4973 C 471.518 -2.00482 2.73116 0
M  V30 4974 C 470.077 -2.53862 2.77905 0
M  V30 4975 C 469.224 -1.31047 2.44381 0
M  V30 4976 H 472.175 -0.30473 1.55747 0
M  V30 4977 H 472.196 -2.8491 2.52203 0
M  V30 4978 H 471.708 -1.39335 3.62225 0
M  V30 4979 H 469.809 -3.18702 1.93029 0
M  V30 4980 H 469.922 -2.9231 3.79594 0
M  V30 4981 H 468.286 -1.62953 1.95751 0
M  V30 4982 H 469.069 -0.71637 3.35743 0
M  V30 4983 N 471.514 -1.37532 -0.769588 0
M  V30 4984 C 472.925 -1.29382 -1.346 0
M  V30 4985 C 473.276 0.0576039 -1.96115 0
M  V30 4986 O 472.401 0.95947 -1.93967 0
M  V30 4987 C 472.996 -2.34298 -2.44724 0
M  V30 4988 C 471.555 -2.29776 -2.98128 0
M  V30 4989 C 470.702 -2.18013 -1.71364 0
M  V30 4990 H 473.653 -1.48123 -0.56968 0
M  V30 4991 H 473.674 -1.99089 -3.24259 0
M  V30 4992 H 473.186 -3.32645 -1.99922 0
M  V30 4993 H 471.287 -1.34959 -3.47299 0
M  V30 4994 H 471.4 -3.23276 -3.53595 0
M  V30 4995 H 469.764 -1.64595 -1.94372 0
M  V30 4996 H 470.547 -3.18278 -1.28662 0
M  V30 4997 N 472.992 0.995999 -1.22138 0
M  V30 4998 C 474.22 1.77066 -1.07029 0
M  V30 4999 C 474.635 1.8495 0.379357 0
M  V30 5000 O 473.992 1.3174 1.26297 0
M  V30 5001 C 474.043 3.20533 -1.67155 0
M  V30 5002 O 473.764 3.13082 -3.06449 0
M  V30 5003 C 475.265 4.14461 -1.5728 0
M  V30 5004 H 472.485 0.556179 -0.375374 0
M  V30 5005 H 475.029 1.25238 -1.61666 0
M  V30 5006 H 473.184 3.6944 -1.16589 0
M  V30 5007 H 473.598 4.03283 -3.35355 0
M  V30 5008 H 475.072 5.1289 -2.04078 0
M  V30 5009 H 475.549 4.36005 -0.528795 0
M  V30 5010 H 476.155 3.71449 -2.07136 0
M  V30 5011 N 474.47 1.03057 1.19235 0
M  V30 5012 C 475.881 0.757449 1.70645 0
M  V30 5013 C 476.232 -0.722735 1.82403 0
M  V30 5014 O 475.357 -1.56325 1.49638 0
M  V30 5015 C 475.952 1.36833 3.09939 0
M  V30 5016 C 474.511 1.14375 3.58602 0
M  V30 5017 C 473.658 1.46533 2.35422 0
M  V30 5018 H 476.609 1.19828 1.04052 0
M  V30 5019 H 476.63 0.766184 3.72706 0
M  V30 5020 H 476.142 2.44562 3.01349 0
M  V30 5021 H 474.243 0.0847542 3.72504 0
M  V30 5022 H 474.356 1.83366 4.42622 0
M  V30 5023 H 472.72 0.884712 2.38841 0
M  V30 5024 H 473.503 2.55349 2.2946 0
M  V30 5025 N 475.948 -1.35272 0.808662 0
M  V30 5026 C 476.911 -2.28082 0.226093 0
M  V30 5027 C 477.911 -1.49673 -0.587762 0
M  V30 5028 O 479.101 -1.69404 -0.405943 0
M  V30 5029 C 476.233 -3.33955 -0.684596 0
M  V30 5030 H 477.426 -2.81116 1.04469 0
M  V30 5031 H 474.979 -1.45162 0.579466 0
M  V30 5032 H 475.714 -2.86111 -1.5268 0
M  V30 5033 H 475.499 -3.91965 -0.102699 0
M  V30 5034 H 476.989 -4.03219 -1.08646 0
M  V30 5035 N 477.426 -0.562348 -1.47226 0
M  V30 5036 C 478.672 -0.0402761 -2.0276 0
M  V30 5037 C 479.005 1.30823 -1.43523 0
M  V30 5038 O 478.28 1.85249 -0.592705 0
M  V30 5039 C 478.563 0.047311 -3.60069 0
M  V30 5040 C 478.416 -1.32865 -4.29729 0
M  V30 5041 C 479.735 0.758182 -4.3352 0
M  V30 5042 H 476.854 -0.0161105 -0.736824 0
M  V30 5043 H 479.496 -0.725628 -1.75598 0
M  V30 5044 H 477.646 0.630986 -3.83342 0
M  V30 5045 H 479.318 -1.95593 -4.17781 0
M  V30 5046 H 477.561 -1.90195 -3.89882 0
M  V30 5047 H 478.232 -1.22004 -5.38349 0
M  V30 5048 H 480.708 0.262546 -4.15271 0
M  V30 5049 H 479.584 0.78844 -5.43208 0
M  V30 5050 H 479.845 1.81537 -4.03109 0
M  V30 5051 N 478.904 1.54736 -0.299062 0
M  V30 5052 C 480.32 1.59507 0.0543849 0
M  V30 5053 C 480.52 1.31606 1.52585 0
M  V30 5054 O 479.576 1.08853 2.27832 0
M  V30 5055 C 480.889 2.98751 -0.34181 0
M  V30 5056 C 482.437 3.1165 -0.290414 0
M  V30 5057 C 482.912 4.53199 -0.661402 0
M  V30 5058 N 484.403 4.59114 -0.613863 0
M  V30 5059 C 485.138 5.66709 -0.873417 0
M  V30 5060 N 484.634 6.82349 -1.19884 0
M  V30 5061 N 486.427 5.56369 -0.800608 0
M  V30 5062 H 478.578 1.71133 -1.25806 0
M  V30 5063 H 480.841 0.799186 -0.509908 0
M  V30 5064 H 480.547 3.24085 -1.36608 0
M  V30 5065 H 480.421 3.75961 0.305508 0
M  V30 5066 H 482.808 2.86066 0.724605 0
M  V30 5067 H 482.889 2.366 -0.972327 0
M  V30 5068 H 482.533 4.79513 -1.67422 0
M  V30 5069 H 482.463 5.26583 0.0425612 0
M  V30 5070 H 484.954 3.76053 -0.3732 0
M  V30 5071 H 485.267 7.60326 -1.38291 0
M  V30 5072 H 483.612 6.83906 -1.23685 0
M  V30 5073 H 486.803 4.64904 -0.546045 0
M  V30 5074 H 486.976 6.40139 -1.00626 0
M  V30 5075 N 480.382 0.0267497 1.57577 0
M  V30 5076 C 481.345 -0.940916 2.08996 0
M  V30 5077 C 482.345 -1.25561 1.00455 0
M  V30 5078 O 483.535 -1.19634 1.26623 0
M  V30 5079 C 480.667 -2.25814 2.55384 0
M  V30 5080 H 481.86 -0.495628 2.95776 0
M  V30 5081 H 479.413 -0.221241 1.54726 0
M  V30 5082 H 480.148 -2.74976 1.71926 0
M  V30 5083 H 479.933 -2.04285 3.34679 0
M  V30 5084 H 481.423 -2.95178 2.95398 0
M  V30 5085 N 481.861 -1.55662 -0.24637 0
M  V30 5086 C 483.086 -1.81914 -0.996093 0
M  V30 5087 C 483.511 -0.603875 -1.78143 0
M  V30 5088 O 482.869 0.447091 -1.75701 0
M  V30 5089 C 482.917 -3.05908 -1.90925 0
M  V30 5090 O 482.021 -2.82861 -3.00105 0
M  V30 5091 H 481.362 -0.600481 -0.283406 0
M  V30 5092 H 483.892 -2.02848 -0.267199 0
M  V30 5093 H 483.902 -3.35356 -2.3238 0
M  V30 5094 H 482.577 -3.93999 -1.33183 0
M  V30 5095 H 481.154 -2.64583 -2.62775 0
M  V30 5096 N 483.339 0.512053 -1.4905 0
M  V30 5097 C 484.585 1.26613 -1.59187 0
M  V30 5098 C 484.94 1.90494 -0.270163 0
M  V30 5099 O 484.233 1.77204 0.728648 0
M  V30 5100 C 484.427 2.36446 -2.68008 0
M  V30 5101 C 484.256 1.83334 -4.10632 0
M  V30 5102 C 483.026 1.65131 -4.77556 0
M  V30 5103 C 485.224 1.35153 -4.96224 0
M  V30 5104 N 483.206 1.06833 -6.04533 0
M  V30 5105 C 484.577 0.889186 -6.13591 0
M  V30 5106 C 486.632 1.23623 -4.82309 0
M  V30 5107 C 485.335 0.322953 -7.18575 0
M  V30 5108 C 487.361 0.683978 -5.87431 0
M  V30 5109 C 486.723 0.2318 -7.04018 0
M  V30 5110 H 482.822 0.453678 -0.636946 0
M  V30 5111 H 485.406 0.575217 -1.86009 0
M  V30 5112 H 483.577 3.03012 -2.42978 0
M  V30 5113 H 485.309 3.03485 -2.67729 0
M  V30 5114 H 482.064 1.89178 -4.34176 0
M  V30 5115 H 482.488 0.796425 -6.72299 0
M  V30 5116 H 487.13 1.57184 -3.92496 0
M  V30 5117 H 484.848 -0.024943 -8.08096 0
M  V30 5118 H 488.434 0.597694 -5.78722 0
M  V30 5119 H 487.314 -0.188869 -7.83973 0
M  V30 5120 N 484.817 1.37938 0.762283 0
M  V30 5121 C 486.063 1.33866 1.52341 0
M  V30 5122 C 486.396 -0.0738961 1.94059 0
M  V30 5123 O 485.671 -1.03326 1.64785 0
M  V30 5124 C 485.954 2.28644 2.78197 0
M  V30 5125 C 485.807 3.78722 2.42672 0
M  V30 5126 C 487.126 2.21702 3.80179 0
M  V30 5127 H 484.245 0.487593 0.55265 0
M  V30 5128 H 486.887 1.68717 0.873767 0
M  V30 5129 H 485.037 1.99055 3.33631 0
M  V30 5130 H 486.709 4.18948 1.93081 0
M  V30 5131 H 484.952 3.96827 1.75244 0
M  V30 5132 H 485.623 4.40486 3.3268 0
M  V30 5133 H 488.099 2.47805 3.34263 0
M  V30 5134 H 486.975 2.90143 4.65949 0
M  V30 5135 H 487.236 1.21301 4.25133 0
M  V30 5136 N 486.295 -0.989507 1.22664 0
M  V30 5137 C 487.245 -2.06478 0.967005 0
M  V30 5138 C 488.229 -1.60682 -0.0836374 0
M  V30 5139 O 489.421 -1.76541 0.127322 0
M  V30 5140 C 486.55 -3.38861 0.550313 0
M  V30 5141 C 485.636 -3.9128 1.63587 0
M  V30 5142 N 486.027 -4.16884 2.86429 0
M  V30 5143 C 484.325 -4.1972 1.50834 0
M  V30 5144 C 485.026 -4.5954 3.56648 0
M  V30 5145 N 484.002 -4.63434 2.84131 0
M  V30 5146 H 487.804 -2.24219 1.90008 0
M  V30 5147 H 485.318 -1.17153 1.12467 0
M  V30 5148 H 487.315 -4.15465 0.345612 0
M  V30 5149 H 485.975 -3.22518 -0.375822 0
M  V30 5150 H 486.986 -4.04976 3.22823 0
M  V30 5151 H 483.663 -4.1243 0.648643 0
M  V30 5152 H 485.053 -4.87944 4.61909 0
M  V30 5153 N 487.773 -1.03688 -1.18687 0
M  V30 5154 C 488.72 -0.624624 -2.22187 0
M  V30 5155 C 489.69 0.365636 -1.62026 0
M  V30 5156 O 490.875 0.260481 -1.89014 0
M  V30 5157 C 488.015 0.0101738 -3.45099 0
M  V30 5158 C 487.128 -1.02709 -4.19613 0
M  V30 5159 C 486.263 -0.361213 -5.2997 0
M  V30 5160 C 485.302 -1.38384 -5.96252 0
M  V30 5161 N 484.439 -0.743196 -6.98155 0
M  V30 5162 H 489.279 -1.51176 -2.56807 0
M  V30 5163 H 486.816 -0.75636 -1.26165 0
M  V30 5164 H 488.774 0.395528 -4.15321 0
M  V30 5165 H 487.404 0.860848 -3.1111 0
M  V30 5166 H 486.456 -1.53043 -3.48256 0
M  V30 5167 H 487.768 -1.80398 -4.65036 0
M  V30 5168 H 486.922 0.0785537 -6.06649 0
M  V30 5169 H 485.661 0.447799 -4.8564 0
M  V30 5170 H 484.666 -1.83378 -5.18317 0
M  V30 5171 H 485.891 -2.19448 -6.42666 0
M  V30 5172 H 483.837 0.0455789 -6.55984 0
M  V30 5173 H 483.754 -1.45784 -7.41811 0
M  V30 5174 H 485.022 -0.327698 -7.78811 0
M  V30 5175 N 489.251 1.34841 -0.815825 0
M  V30 5176 C 490.479 2.0273 -0.413294 0
M  V30 5177 C 490.894 1.61459 0.978599 0
M  V30 5178 O 490.251 0.816584 1.63212 0
M  V30 5179 C 490.302 3.58058 -0.497676 0
M  V30 5180 O 490.023 3.97832 -1.8347 0
M  V30 5181 C 491.524 4.4321 -0.0891339 0
M  V30 5182 H 488.744 0.649956 -0.166728 0
M  V30 5183 H 491.288 1.72267 -1.10201 0
M  V30 5184 H 489.443 3.87136 0.142886 0
M  V30 5185 H 489.857 4.92501 -1.80396 0
M  V30 5186 H 491.331 5.5164 -0.199274 0
M  V30 5187 H 491.808 4.28432 0.966571 0
M  V30 5188 H 492.414 4.19446 -0.703214 0
M  V30 5189 N 490.729 0.570148 1.46925 0
M  V30 5190 C 491.977 0.0508523 2.02036 0
M  V30 5191 C 492.298 -1.30885 1.44548 0
M  V30 5192 O 491.568 -1.85647 0.625453 0
M  V30 5193 H 490.148 0.0158088 0.746833 0
M  V30 5194 H 492.81 0.743086 1.80178 0
M  V30 5195 H 491.906 -0.027575 3.12088 0
M  V30 5196 N 492.207 -1.54576 0.307264 0
M  V30 5197 C 493.17 -2.22423 -0.553224 0
M  V30 5198 C 494.17 -1.21231 -1.05639 0
M  V30 5199 O 495.36 -1.45923 -0.951419 0
M  V30 5200 C 492.492 -2.91552 -1.76664 0
M  V30 5201 H 493.685 -2.99874 0.0396484 0
M  V30 5202 H 491.238 -1.56192 0.0581629 0
M  V30 5203 H 491.973 -2.18196 -2.39918 0
M  V30 5204 H 491.758 -3.65738 -1.41343 0
M  V30 5205 H 493.248 -3.43292 -2.37783 0
M  V30 5206 N 493.685 -0.035106 -1.57561 0
M  V30 5207 C 494.913 0.652258 -1.9635 0
M  V30 5208 C 495.328 1.65317 -0.911897 0
M  V30 5209 O 494.685 1.82194 0.105657 0
M  V30 5210 C 494.736 1.35337 -3.35211 0
M  V30 5211 O 494.457 0.392548 -4.36338 0
M  V30 5212 C 495.958 2.13199 -3.88666 0
M  V30 5213 H 493.178 0.179444 -0.646561 0
M  V30 5214 H 495.722 -0.0966459 -2.04271 0
M  V30 5215 H 493.877 2.05362 -3.28489 0
M  V30 5216 H 494.291 0.891097 -5.16875 0
M  V30 5217 H 495.765 2.577 -4.88154 0
M  V30 5218 H 496.242 2.97353 -3.23231 0
M  V30 5219 H 496.848 1.48118 -3.98674 0
M  V30 5220 N 495.163 1.55791 0.238111 0
M  V30 5221 C 496.411 1.77681 0.963001 0
M  V30 5222 C 496.732 0.600674 1.85518 0
M  V30 5223 O 496.002 -0.383182 1.92116 0
M  V30 5224 H 494.582 0.655315 0.358568 0
M  V30 5225 H 497.244 1.93239 0.253945 0
M  V30 5226 H 496.34 2.69177 1.57956 0
M  V30 5227 N 496.642 -0.504142 1.49319 0
M  V30 5228 C 497.89 -1.25598 1.58334 0
M  V30 5229 C 498.211 -1.93114 0.270538 0
M  V30 5230 O 497.481 -1.82585 -0.709891 0
M  V30 5231 H 496.061 -0.466571 0.58337 0
M  V30 5232 H 498.723 -0.584547 1.85928 0
M  V30 5233 H 497.819 -2.02159 2.37778 0
M  V30 5234 N 498.12 -1.38341 -0.754957 0
M  V30 5235 C 499.367 -1.34473 -1.51404 0
M  V30 5236 C 499.695 0.0656458 -1.94389 0
M  V30 5237 O 498.95 1.04244 -1.65625 0
M  V30 5238 C 499.249 -2.2452 -2.78075 0
M  V30 5239 C 498.915 -3.72512 -2.54059 0
M  V30 5240 C 497.577 -4.1284 -2.47218 0
M  V30 5241 C 499.929 -4.66197 -2.33044 0
M  V30 5242 C 497.257 -5.44945 -2.17376 0
M  V30 5243 C 499.609 -5.98558 -2.04723 0
M  V30 5244 C 498.273 -6.37972 -1.96337 0
M  V30 5245 H 497.543 -0.492072 -0.554027 0
M  V30 5246 H 500.19 -1.70687 -0.868223 0
M  V30 5247 H 498.495 -1.81357 -3.473 0
M  V30 5248 H 500.192 -2.18832 -3.36026 0
M  V30 5249 H 496.782 -3.40538 -2.60253 0
M  V30 5250 H 500.966 -4.35888 -2.37309 0
M  V30 5251 H 496.222 -5.74426 -2.09391 0
M  V30 5252 H 500.396 -6.70693 -1.87465 0
M  V30 5253 H 498.023 -7.40258 -1.72978 0
M  V30 5254 N 499.598 0.982988 -1.23187 0
M  V30 5255 C 500.846 1.72052 -1.06031 0
M  V30 5256 C 501.167 1.90769 0.404019 0
M  V30 5257 O 500.437 1.47446 1.28982 0
M  V30 5258 H 499.017 0.637499 -0.389363 0
M  V30 5259 H 501.679 1.18338 -1.54862 0
M  V30 5260 H 500.775 2.7111 -1.54615 0
M  V30 5261 N 501.076 1.04316 1.18135 0
M  V30 5262 C 502.301 0.768047 1.92655 0
M  V30 5263 C 502.726 -0.66904 1.758 0
M  V30 5264 O 502.084 -1.46372 1.06981 0
M  V30 5265 C 502.132 1.14239 3.42026 0
M  V30 5266 O 501.236 0.269333 4.1152 0
M  V30 5267 H 500.577 0.282436 0.600937 0
M  V30 5268 H 503.107 1.39367 1.49793 0
M  V30 5269 H 503.117 1.10538 3.92741 0
M  V30 5270 H 501.792 2.18928 3.53615 0
M  V30 5271 H 500.369 0.366175 3.71098 0
M  V30 5272 N 502.554 -1.34406 0.822964 0
M  V30 5273 C 503.784 -2.02214 0.423424 0
M  V30 5274 C 504.192 -1.62124 -0.975322 0
M  V30 5275 O 503.535 -0.822452 -1.6426 0
M  V30 5276 C 503.597 -3.56721 0.446107 0
M  V30 5277 C 503.261 -4.20136 1.79819 0
M  V30 5278 C 504.258 -4.4065 2.75904 0
M  V30 5279 C 501.943 -4.56906 2.08669 0
M  V30 5280 C 503.937 -4.9706 3.99012 0
M  V30 5281 C 501.624 -5.13026 3.32036 0
M  V30 5282 C 502.622 -5.33047 4.27024 0
M  V30 5283 O 502.31 -5.87979 5.48211 0
M  V30 5284 H 502.042 -0.654748 0.168169 0
M  V30 5285 H 504.596 -1.72659 1.11257 0
M  V30 5286 H 502.826 -3.85537 -0.299734 0
M  V30 5287 H 504.515 -4.05845 0.0666114 0
M  V30 5288 H 505.281 -4.12607 2.54912 0
M  V30 5289 H 501.16 -4.40626 1.35535 0
M  V30 5290 H 504.704 -5.12603 4.73164 0
M  V30 5291 H 500.601 -5.40498 3.52891 0
M  V30 5292 H 501.369 -6.06413 5.49732 0
M  V30 5293 N 504.032 -0.577932 -1.46621 0
M  V30 5294 C 505.278 -0.0617793 -2.02706 0
M  V30 5295 C 505.611 1.29294 -1.44903 0
M  V30 5296 O 504.886 1.8461 -0.61232 0
M  V30 5297 C 505.169 0.00911824 -3.60099 0
M  V30 5298 C 505.022 -1.37416 -4.28295 0
M  V30 5299 C 506.341 0.712159 -4.343 0
M  V30 5300 H 503.46 -0.0239246 -0.736612 0
M  V30 5301 H 506.102 -0.744211 -1.74818 0
M  V30 5302 H 504.252 0.590292 -3.83989 0
M  V30 5303 H 505.924 -2.00013 -4.15683 0
M  V30 5304 H 504.167 -1.94319 -3.87843 0
M  V30 5305 H 504.838 -1.27707 -5.37024 0
M  V30 5306 H 507.314 0.218486 -4.15526 0
M  V30 5307 H 506.19 0.730782 -5.44014 0
M  V30 5308 H 506.451 1.77251 -4.05012 0
M  V30 5309 N 505.51 1.54411 -0.315457 0
M  V30 5310 C 506.473 2.22713 0.54142 0
M  V30 5311 C 507.473 1.2179 1.04995 0
M  V30 5312 O 508.663 1.46426 0.943667 0
M  V30 5313 C 505.795 2.92485 1.75116 0
M  V30 5314 H 506.988 2.99849 -0.0555508 0
M  V30 5315 H 504.541 1.56159 -0.0664453 0
M  V30 5316 H 505.276 2.19466 2.38758 0
M  V30 5317 H 505.061 3.66483 1.39401 0
M  V30 5318 H 506.551 3.44548 2.35959 0
M  V30 5319 N 506.988 0.0434614 1.5754 0
M  V30 5320 C 508.235 -0.632035 1.92384 0
M  V30 5321 C 508.563 -1.71304 0.921157 0
M  V30 5322 O 507.818 -1.95583 -0.067744 0
M  V30 5323 C 508.117 -1.2738 3.3393 0
M  V30 5324 C 507.783 -0.321757 4.49751 0
M  V30 5325 C 506.445 -0.0597611 4.81163 0
M  V30 5326 C 508.797 0.331158 5.20147 0
M  V30 5327 C 506.125 0.862715 5.80322 0
M  V30 5328 C 508.477 1.24178 6.20292 0
M  V30 5329 C 507.141 1.51252 6.50138 0
M  V30 5330 H 506.411 -0.231278 0.703983 0
M  V30 5331 H 509.058 0.108294 1.91194 0
M  V30 5332 H 507.363 -2.08921 3.3145 0
M  V30 5333 H 509.06 -1.80326 3.58167 0
M  V30 5334 H 505.65 -0.53614 4.25233 0
M  V30 5335 H 509.834 0.141826 4.96097 0
M  V30 5336 H 505.09 1.08003 6.01785 0
M  V30 5337 H 509.264 1.75381 6.73954 0
M  V30 5338 H 506.891 2.22897 7.26788 0
M  V30 5339 N 508.466 -1.55915 -0.229846 0
M  V30 5340 C 509.715 -1.77742 -0.953455 0
M  V30 5341 C 510.028 -0.610524 -1.85828 0
M  V30 5342 O 511.234 -0.712219 -2.61992 0
M  V30 5343 C 509.69 -3.14738 -1.74551 0
M  V30 5344 C 509.298 -4.39126 -0.887242 0
M  V30 5345 C 511.042 -3.45895 -2.46084 0
M  V30 5346 C 508.949 -5.67149 -1.67617 0
M  V30 5347 H 507.879 -0.662648 -0.359741 0
M  V30 5348 H 510.53 -1.82322 -0.207576 0
M  V30 5349 H 508.912 -3.04311 -2.53399 0
M  V30 5350 H 510.086 -4.60588 -0.139892 0
M  V30 5351 H 508.401 -4.15427 -0.284443 0
M  V30 5352 H 510.998 -4.38767 -3.05594 0
M  V30 5353 H 511.341 -2.68007 -3.18556 0
M  V30 5354 H 511.874 -3.57614 -1.74233 0
M  V30 5355 H 508.613 -6.47906 -0.994881 0
M  V30 5356 H 508.133 -5.49763 -2.39836 0
M  V30 5357 H 509.812 -6.07025 -2.23898 0
M  V30 5358 N 509.944 0.496216 -1.49584 0
M  V30 5359 C 511.355 1.07765 -1.52459 0
M  V30 5360 C 511.706 1.93679 -0.31353 0
M  V30 5361 O 510.831 2.08588 0.576186 0
M  V30 5362 C 511.426 1.96111 -2.76271 0
M  V30 5363 C 509.985 2.49409 -2.81908 0
M  V30 5364 C 509.132 1.27142 -2.46435 0
M  V30 5365 H 512.083 0.279914 -1.56212 0
M  V30 5366 H 512.104 2.80862 -2.56704 0
M  V30 5367 H 511.616 1.33555 -3.64396 0
M  V30 5368 H 509.717 3.1559 -1.98074 0
M  V30 5369 H 509.83 2.86234 -3.84196 0
M  V30 5370 H 508.194 1.59818 -1.98319 0
M  V30 5371 H 508.977 0.662866 -3.3684 0
M  V30 5372 N 511.423 1.38739 0.74761 0
M  V30 5373 C 512.333 1.38696 1.89211 0
M  V30 5374 C 513.349 0.283303 1.71678 0
M  V30 5375 O 514.525 0.522713 1.94498 0
M  V30 5376 C 511.59 1.21662 3.24653 0
M  V30 5377 C 510.651 2.41886 3.54669 0
M  V30 5378 C 509.884 2.25655 4.83648 0
M  V30 5379 O 510.107 1.25339 5.56459 0
M  V30 5380 O 509.041 3.14372 5.13277 0
M  V30 5381 H 512.867 2.35143 1.92202 0
M  V30 5382 H 510.452 1.19721 0.893708 0
M  V30 5383 H 512.334 1.14246 4.05618 0
M  V30 5384 H 511.009 0.283024 3.2246 0
M  V30 5385 H 509.916 2.54877 2.73841 0
M  V30 5386 H 511.249 3.33895 3.61628 0
M  V30 5387 N 512.901 -0.976442 1.23707 0
M  V30 5388 C 513.848 -2.06952 1.02174 0
M  V30 5389 C 514.818 -1.65984 -0.0621034 0
M  V30 5390 O 516.003 -1.90584 0.0907906 0
M  V30 5391 C 513.143 -3.39425 0.62327 0
M  V30 5392 C 512.256 -3.9364 1.77966 0
M  V30 5393 C 511.391 -5.14343 1.3276 0
M  V30 5394 C 510.43 -5.60733 2.45449 0
M  V30 5395 N 509.567 -6.72662 2.01172 0
M  V30 5396 H 514.407 -2.24704 1.95734 0
M  V30 5397 H 511.944 -1.10143 0.975034 0
M  V30 5398 H 513.902 -4.15526 0.37332 0
M  V30 5399 H 512.532 -3.21624 -0.275329 0
M  V30 5400 H 511.584 -3.14258 2.14351 0
M  V30 5401 H 512.896 -4.24035 2.62671 0
M  V30 5402 H 512.05 -5.97789 1.03601 0
M  V30 5403 H 510.789 -4.8561 0.450975 0
M  V30 5404 H 509.794 -4.75865 2.75378 0
M  V30 5405 H 511.019 -5.91483 3.33654 0
M  V30 5406 H 508.965 -6.45681 1.15895 0
M  V30 5407 H 508.882 -7.02462 2.79434 0
M  V30 5408 H 510.15 -7.59572 1.75129 0
M  V30 5409 N 514.379 -1.04941 -1.1758 0
M  V30 5410 C 515.289 -0.658826 -2.25159 0
M  V30 5411 C 516.305 0.318941 -1.71052 0
M  V30 5412 O 517.481 0.171669 -2.00667 0
M  V30 5413 C 514.546 -0.0369522 -3.4668 0
M  V30 5414 C 513.607 -1.06484 -4.15884 0
M  V30 5415 C 512.84 -0.472551 -5.31604 0
M  V30 5416 O 513.063 0.718736 -5.65854 0
M  V30 5417 O 511.997 -1.20557 -5.89703 0
M  V30 5418 H 515.823 -1.55533 -2.60851 0
M  V30 5419 H 513.408 -0.820819 -1.24832 0
M  V30 5420 H 515.29 0.308784 -4.20267 0
M  V30 5421 H 513.965 0.833238 -3.12792 0
M  V30 5422 H 512.872 -1.46253 -3.44327 0
M  V30 5423 H 514.205 -1.9061 -4.53794 0
M  V30 5424 N 515.857 1.33968 -0.830081 0
M  V30 5425 C 516.787 2.31911 -0.271911 0
M  V30 5426 C 517.768 1.58571 0.61556 0
M  V30 5427 O 518.953 1.86514 0.540946 0
M  V30 5428 C 516.083 3.42737 0.561146 0
M  V30 5429 C 515.037 4.27383 -0.229789 0
M  V30 5430 C 514.363 5.29742 0.726463 0
M  V30 5431 C 515.663 5.02 -1.44197 0
M  V30 5432 H 517.357 2.78844 -1.09025 0
M  V30 5433 H 514.903 1.34061 -0.52571 0
M  V30 5434 H 516.856 4.10276 0.961867 0
M  V30 5435 H 515.58 2.94471 1.41261 0
M  V30 5436 H 514.239 3.61456 -0.611964 0
M  V30 5437 H 513.887 4.77736 1.57408 0
M  V30 5438 H 513.587 5.87255 0.20142 0
M  V30 5439 H 515.111 6.00149 1.12489 0
M  V30 5440 H 516.525 5.62355 -1.11488 0
M  V30 5441 H 514.922 5.69122 -1.90317 0
M  V30 5442 H 515.992 4.31281 -2.2164 0
M  V30 5443 N 517.335 0.585699 1.46312 0
M  V30 5444 C 518.583 0.072278 2.01971 0
M  V30 5445 C 518.904 -1.29345 1.45928 0
M  V30 5446 O 518.174 -1.84973 0.645109 0
M  V30 5447 H 516.754 0.023729 0.746623 0
M  V30 5448 H 519.416 0.762155 1.7938 0
M  V30 5449 H 518.512 0.00552767 3.121 0
M  V30 5450 N 518.813 -1.54241 0.323641 0
M  V30 5451 C 520.062 -1.9975 -0.279806 0
M  V30 5452 C 520.375 -1.2156 -1.5324 0
M  V30 5453 O 521.581 -1.57447 -2.21185 0
M  V30 5454 C 520.037 -3.55686 -0.549115 0
M  V30 5455 C 519.645 -4.4271 0.686432 0
M  V30 5456 C 521.389 -4.09663 -1.11251 0
M  V30 5457 C 519.296 -5.90119 0.389022 0
M  V30 5458 H 518.226 -0.746177 -0.10833 0
M  V30 5459 H 520.877 -1.78248 0.435877 0
M  V30 5460 H 519.259 -3.73176 -1.32499 0
M  V30 5461 H 520.433 -4.36996 1.46188 0
M  V30 5462 H 518.748 -3.99623 1.17005 0
M  V30 5463 H 521.345 -5.17386 -1.34965 0
M  V30 5464 H 521.688 -3.61651 -2.06191 0
M  V30 5465 H 522.221 -3.95806 -0.39782 0
M  V30 5466 H 518.96 -6.42326 1.30759 0
M  V30 5467 H 518.48 -5.98785 -0.348722 0
M  V30 5468 H 520.159 -6.47 -0.0011164 0
M  V30 5469 N 520.291 -0.0518155 -1.57515 0
M  V30 5470 C 521.537 0.622745 -1.93002 0
M  V30 5471 C 521.87 1.70456 -0.930499 0
M  V30 5472 O 521.145 1.94452 0.0434086 0
M  V30 5473 C 521.428 1.21824 -3.38867 0
M  V30 5474 C 521.281 0.144434 -4.49568 0
M  V30 5475 C 522.6 2.12968 -3.8514 0
M  V30 5476 H 519.719 0.22491 -0.701844 0
M  V30 5477 H 522.361 -0.113711 -1.89659 0
M  V30 5478 H 520.511 1.8459 -3.41846 0
M  V30 5479 H 522.183 -0.48753 -4.58717 0
M  V30 5480 H 520.426 -0.527424 -4.30582 0
M  V30 5481 H 521.097 0.601127 -5.48717 0
M  V30 5482 H 523.573 1.60163 -3.8404 0
M  V30 5483 H 522.449 2.51578 -4.87852 0
M  V30 5484 H 522.71 3.03004 -3.21934 0
M  V30 5485 N 521.769 1.56035 0.221574 0
M  V30 5486 C 522.702 1.87427 1.30178 0
M  V30 5487 C 523.68 0.731658 1.45209 0
M  V30 5488 O 524.864 0.980016 1.61022 0
M  V30 5489 C 521.991 2.08127 2.67209 0
M  V30 5490 C 521.037 3.30813 2.69194 0
M  V30 5491 S 521.87 4.86738 2.23263 0
M  V30 5492 C 523.026 5.10474 3.62171 0
M  V30 5493 H 523.259 2.78756 1.03355 0
M  V30 5494 H 520.792 1.48469 0.423813 0
M  V30 5495 H 522.75 2.20736 3.46101 0
M  V30 5496 H 521.411 1.17595 2.91256 0
M  V30 5497 H 520.604 3.42341 3.6989 0
M  V30 5498 H 520.206 3.1706 1.98366 0
M  V30 5499 H 522.498 4.9937 4.5786 0
M  V30 5500 H 523.441 6.12359 3.55558 0
M  V30 5501 H 523.849 4.38208 3.55857 0
M  V30 5502 N 523.247 -0.488276 1.49845 0
M  V30 5503 C 524.177 -1.59675 1.70371 0
M  V30 5504 C 525.158 -1.60878 0.552473 0
M  V30 5505 O 526.343 -1.77417 0.78973 0
M  V30 5506 C 523.473 -2.98098 1.782 0
M  V30 5507 C 522.427 -3.11761 2.93239 0
M  V30 5508 C 521.753 -4.51661 2.86193 0
M  V30 5509 C 523.053 -2.90589 4.33999 0
M  V30 5510 H 524.747 -1.42752 2.63177 0
M  V30 5511 H 522.293 -0.685317 1.26647 0
M  V30 5512 H 524.246 -3.75555 1.91144 0
M  V30 5513 H 522.97 -3.16138 0.820018 0
M  V30 5514 H 521.629 -2.36732 2.79917 0
M  V30 5515 H 521.277 -4.66595 1.87877 0
M  V30 5516 H 520.977 -4.61742 3.63412 0
M  V30 5517 H 522.501 -5.31162 3.01163 0
M  V30 5518 H 523.915 -3.57807 4.47936 0
M  V30 5519 H 522.312 -3.1213 5.12538 0
M  V30 5520 H 523.382 -1.86595 4.4756 0
M  V30 5521 N 524.725 -1.39134 -0.740242 0
M  V30 5522 C 525.688 -1.37217 -1.83587 0
M  V30 5523 C 526.688 -0.270221 -1.58513 0
M  V30 5524 O 527.878 -0.527843 -1.6601 0
M  V30 5525 C 525.01 -1.13959 -3.21288 0
M  V30 5526 H 526.203 -2.34705 -1.86691 0
M  V30 5527 H 523.756 -1.24622 -0.94335 0
M  V30 5528 H 524.491 -0.17131 -3.23847 0
M  V30 5529 H 524.276 -1.93754 -3.40884 0
M  V30 5530 H 525.766 -1.15346 -4.01354 0
M  V30 5531 N 526.204 0.969867 -1.24223 0
M  V30 5532 C 527.152 2.08535 -1.03034 0
M  V30 5533 C 528.146 1.69366 0.0340379 0
M  V30 5534 O 529.352 1.79597 -0.12034 0
M  V30 5535 H 525.727 0.682313 -0.316154 0
M  V30 5536 H 527.698 2.23569 -1.97635 0
M  V30 5537 C 526.447 3.4158 -0.649509 0
M  V30 5538 H 525.77 3.72177 -1.46028 0
M  V30 5539 H 527.21 4.20536 -0.540841 0
M  V30 5540 C 525.669 3.30703 0.643194 0
M  V30 5541 O 526.199 3.64443 1.68951 0
M  V30 5542 N 524.405 2.83841 0.623095 0
M  V30 5543 H 523.952 2.56583 -0.228719 0
M  V30 5544 H 523.91 2.76946 1.48823 0
M  V30 5545 N 527.682 1.05563 1.17022 0
M  V30 5546 C 528.629 0.659893 2.21165 0
M  V30 5547 C 529.599 -0.339813 1.62587 0
M  V30 5548 O 530.784 -0.230378 1.89404 0
M  V30 5549 C 527.924 0.0447297 3.45071 0
M  V30 5550 C 527.037 1.09372 4.17926 0
M  V30 5551 C 526.172 0.445481 5.29329 0
M  V30 5552 C 525.211 1.47852 5.93975 0
M  V30 5553 N 524.348 0.854172 6.96885 0
M  V30 5554 H 529.188 1.55243 2.54369 0
M  V30 5555 H 526.725 0.776336 1.24946 0
M  V30 5556 H 528.683 -0.329404 4.15898 0
M  V30 5557 H 527.313 -0.811244 3.1244 0
M  V30 5558 H 526.365 1.58564 3.45777 0
M  V30 5559 H 527.677 1.87773 4.62107 0
M  V30 5560 H 526.831 0.0179688 6.06697 0
M  V30 5561 H 525.57 -0.370481 4.86291 0
M  V30 5562 H 524.575 1.91601 5.15334 0
M  V30 5563 H 525.8 2.29645 6.39093 0
M  V30 5564 H 523.746 0.0587882 6.55974 0
M  V30 5565 H 523.663 1.57567 7.39397 0
M  V30 5566 H 524.931 0.451559 7.78191 0
M  V30 5567 N 529.16 -1.33526 0.837174 0
M  V30 5568 C 530.108 -2.31168 0.257698 0
M  V30 5569 C 531.102 -1.5806 -0.609388 0
M  V30 5570 O 532.308 -1.72941 -0.499139 0
M  V30 5571 H 528.683 -0.74922 0.0646058 0
M  V30 5572 H 530.654 -2.77552 1.09578 0
M  V30 5573 C 529.403 -3.4326 -0.553887 0
M  V30 5574 H 528.726 -3.99665 0.104008 0
M  V30 5575 H 530.166 -4.13782 -0.925219 0
M  V30 5576 C 528.625 -2.88965 -1.73207 0
M  V30 5577 O 529.155 -2.85013 -2.83073 0
M  V30 5578 N 527.361 -2.45596 -1.55342 0
M  V30 5579 H 526.908 -2.49009 -0.659705 0
M  V30 5580 H 526.866 -2.0962 -2.34322 0
M  V30 5581 N 530.638 -0.59345 -1.46 0
M  V30 5582 C 531.868 -0.0889642 -2.06408 0
M  V30 5583 C 532.276 1.22597 -1.44106 0
M  V30 5584 O 531.619 1.75448 -0.544398 0
M  V30 5585 C 531.681 0.139902 -3.59228 0
M  V30 5586 C 531.345 -1.09107 -4.43784 0
M  V30 5587 C 532.342 -2.00577 -4.79651 0
M  V30 5588 C 530.027 -1.31593 -4.84756 0
M  V30 5589 C 532.021 -3.12873 -5.55328 0
M  V30 5590 C 529.708 -2.44192 -5.60191 0
M  V30 5591 C 530.706 -3.34661 -5.95392 0
M  V30 5592 O 530.394 -4.45302 -6.69299 0
M  V30 5593 H 530.126 -0.0594613 -0.67338 0
M  V30 5594 H 532.68 -0.817 -1.88452 0
M  V30 5595 H 530.91 0.922672 -3.75531 0
M  V30 5596 H 532.599 0.594228 -4.01527 0
M  V30 5597 H 533.365 -1.84425 -4.48567 0
M  V30 5598 H 529.244 -0.620801 -4.56801 0
M  V30 5599 H 532.788 -3.83511 -5.82722 0
M  V30 5600 H 528.685 -2.60303 -5.90688 0
M  V30 5601 H 529.453 -4.43805 -6.87735 0
M  V30 5602 N 532.116 1.54067 -0.331816 0
M  V30 5603 C 533.527 1.86059 0.15454 0
M  V30 5604 C 533.878 1.25331 1.50952 0
M  V30 5605 O 533.003 0.562441 2.08963 0
M  V30 5606 C 533.598 3.37581 0.287192 0
M  V30 5607 C 532.157 3.69493 0.717773 0
M  V30 5608 C 531.304 2.76863 -0.155569 0
M  V30 5609 H 534.255 1.48797 -0.55182 0
M  V30 5610 H 534.276 3.63744 1.11671 0
M  V30 5611 H 533.788 3.81751 -0.699131 0
M  V30 5612 H 531.889 3.3086 1.71354 0
M  V30 5613 H 532.002 4.76315 0.5158 0
M  V30 5614 H 530.366 2.51995 0.370213 0
M  V30 5615 H 531.149 3.23861 -1.13881 0
M  V30 5616 N 533.594 0.0601682 1.57485 0
M  V30 5617 C 534.542 -0.928899 2.13247 0
M  V30 5618 C 535.536 -1.31616 1.06647 0
M  V30 5619 O 536.742 -1.29476 1.25043 0
M  V30 5620 H 533.117 -0.317455 0.681708 0
M  V30 5621 H 535.088 -0.433566 2.95233 0
M  V30 5622 C 533.837 -2.19121 2.69965 0
M  V30 5623 H 533.16 -1.90204 3.51657 0
M  V30 5624 H 534.6 -2.86465 3.12592 0
M  V30 5625 C 533.059 -2.94195 1.64168 0
M  V30 5626 O 533.589 -3.87468 1.05978 0
M  V30 5627 N 531.795 -2.57089 1.35476 0
M  V30 5628 H 531.342 -1.81314 1.82984 0
M  V30 5629 H 531.3 -3.07624 0.649196 0
M  V30 5630 N 535.072 -1.5615 -0.213296 0
M  V30 5631 C 536.483 -1.69645 -0.779582 0
M  V30 5632 C 536.834 -0.663615 -1.84636 0
M  V30 5633 O 535.959 0.183633 -2.15619 0
M  V30 5634 C 536.554 -3.07567 -1.42084 0
M  V30 5635 C 535.113 -3.22889 -1.93442 0
M  V30 5636 C 534.26 -2.65581 -0.797612 0
M  V30 5637 H 537.211 -1.58696 0.0114951 0
M  V30 5638 H 537.232 -3.03884 -2.28986 0
M  V30 5639 H 536.744 -3.82716 -0.644187 0
M  V30 5640 H 534.845 -2.52623 -2.73884 0
M  V30 5641 H 534.958 -4.30197 -2.10872 0
M  V30 5642 H 533.322 -2.24278 -1.20712 0
M  V30 5643 H 534.105 -3.43284 -0.033494 0
M  V30 5644 N 536.55 0.480323 -1.50102 0
M  V30 5645 C 537.513 1.56181 -1.6775 0
M  V30 5646 C 538.513 1.51156 -0.548503 0
M  V30 5647 O 539.703 1.5394 -0.815363 0
M  V30 5648 C 536.835 2.95823 -1.69415 0
M  V30 5649 H 538.028 1.41855 -2.6423 0
M  V30 5650 H 535.581 0.70605 -1.39444 0
M  V30 5651 H 536.316 3.15604 -0.745948 0
M  V30 5652 H 536.101 3.00878 -2.51425 0
M  V30 5653 H 537.591 3.74359 -1.85054 0
M  V30 5654 N 538.028 1.39524 0.732853 0
M  V30 5655 C 539.444 1.21176 1.03868 0
M  V30 5656 C 539.644 0.0748448 2.01361 0
M  V30 5657 O 538.7 -0.57281 2.45917 0
M  V30 5658 C 540.013 2.54667 1.59892 0
M  V30 5659 C 541.561 2.6153 1.71962 0
M  V30 5660 C 542.036 3.95248 2.31394 0
M  V30 5661 N 543.527 3.96899 2.38801 0
M  V30 5662 C 544.262 4.97138 2.85729 0
M  V30 5663 N 543.758 6.07775 3.32537 0
M  V30 5664 N 545.551 4.84516 2.84957 0
M  V30 5665 H 537.702 2.12225 0.086304 0
M  V30 5666 H 539.965 0.942614 0.100907 0
M  V30 5667 H 539.671 3.38423 0.95721 0
M  V30 5668 H 539.545 2.74538 2.58668 0
M  V30 5669 H 541.932 1.78156 2.35254 0
M  V30 5670 H 542.013 2.45507 0.718327 0
M  V30 5671 H 541.657 4.79054 1.68729 0
M  V30 5672 H 541.587 4.08593 3.32204 0
M  V30 5673 H 544.078 3.16998 2.05719 0
M  V30 5674 H 544.391 6.8017 3.66862 0
M  V30 5675 H 542.736 6.11366 3.30541 0
M  V30 5676 H 545.927 3.97185 2.47713 0
M  V30 5677 H 546.1 5.62783 3.21215 0
M  V30 5678 N 539.506 -0.963266 1.24736 0
M  V30 5679 C 540.752 -1.70933 1.09131 0
M  V30 5680 C 541.085 -1.90676 -0.368273 0
M  V30 5681 O 540.36 -1.47147 -1.27193 0
M  V30 5682 C 540.643 -3.09744 1.83658 0
M  V30 5683 C 540.496 -2.97465 3.37394 0
M  V30 5684 C 541.815 -4.09483 1.61282 0
M  V30 5685 H 538.934 -0.620398 0.397838 0
M  V30 5686 H 541.576 -1.12028 1.53459 0
M  V30 5687 H 539.726 -3.60031 1.4598 0
M  V30 5688 H 541.398 -2.54571 3.84696 0
M  V30 5689 H 539.641 -2.33576 3.65547 0
M  V30 5690 H 540.312 -3.95822 3.84745 0
M  V30 5691 H 542.788 -3.68073 1.94066 0
M  V30 5692 H 541.664 -5.04666 2.15878 0
M  V30 5693 H 541.925 -4.38639 0.552102 0
M  V30 5694 N 540.985 -1.06182 -1.16461 0
M  V30 5695 C 542.262 -0.691364 -1.82974 0
M  V30 5696 C 542.642 0.827377 -1.9421 0
M  V30 5697 O 541.99 1.73723 -1.48434 0
M  V30 5698 C 542.2 -1.39199 -3.20038 0
M  V30 5699 C 543.548 -1.53647 -3.95825 0
M  V30 5700 O 544.572 -1.35181 -3.29552 0
M  V30 5701 O 543.431 -1.83932 -5.14618 0
M  V30 5702 H 540.525 -0.244605 -0.789998 0
M  V30 5703 H 543.071 -1.16203 -1.23673 0
M  V30 5704 H 541.843 -2.42766 -3.06888 0
M  V30 5705 H 541.466 -0.911335 -3.87015 0
M  V30 5706 N 542.463 1.3308 -0.844243 0
M  V30 5707 C 543.426 2.27403 -0.286485 0
M  V30 5708 C 544.426 1.51179 0.547872 0
M  V30 5709 O 545.616 1.70421 0.360886 0
M  V30 5710 C 542.748 3.35653 0.595813 0
M  V30 5711 H 543.941 2.78248 -1.11885 0
M  V30 5712 H 541.494 1.43574 -0.617749 0
M  V30 5713 H 542.229 2.90058 1.4504 0
M  V30 5714 H 542.014 3.921 -0.00125994 0
M  V30 5715 H 543.504 4.05958 0.979168 0
M  V30 5716 N 543.941 0.601185 1.45683 0
M  V30 5717 C 544.904 -0.111398 2.28929 0
M  V30 5718 C 545.904 -0.801246 1.39416 0
M  V30 5719 O 547.094 -0.650383 1.61603 0
M  V30 5720 C 544.226 -1.16773 3.20276 0
M  V30 5721 H 545.419 0.620412 2.93413 0
M  V30 5722 H 542.972 0.359946 1.52099 0
M  V30 5723 H 543.707 -1.93051 2.60579 0
M  V30 5724 H 543.492 -0.677358 3.86205 0
M  V30 5725 H 544.982 -1.66698 3.82886 0
M  V30 5726 N 545.419 -1.53889 0.339982 0
M  V30 5727 C 546.665 -2.01849 -0.250694 0
M  V30 5728 C 547.02 -1.22356 -1.48482 0
M  V30 5729 O 546.313 -0.301906 -1.89206 0
M  V30 5730 C 546.507 -3.51968 -0.620735 0
M  V30 5731 C 546.336 -4.45996 0.575981 0
M  V30 5732 C 545.106 -4.93619 1.08019 0
M  V30 5733 C 547.304 -4.93923 1.43332 0
M  V30 5734 N 545.286 -5.7159 2.2396 0
M  V30 5735 C 546.657 -5.69982 2.43969 0
M  V30 5736 C 548.712 -4.76038 1.45918 0
M  V30 5737 C 547.415 -6.30057 3.47016 0
M  V30 5738 C 549.441 -5.36961 2.47845 0
M  V30 5739 C 548.803 -6.12884 3.47208 0
M  V30 5740 H 544.902 -0.780054 -0.0551368 0
M  V30 5741 H 547.486 -1.88722 0.478741 0
M  V30 5742 H 545.657 -3.65308 -1.31928 0
M  V30 5743 H 547.389 -3.86677 -1.19429 0
M  V30 5744 H 544.144 -4.69134 0.64884 0
M  V30 5745 H 544.568 -6.15247 2.82489 0
M  V30 5746 H 549.21 -4.16887 0.704608 0
M  V30 5747 H 546.928 -6.88319 4.23371 0
M  V30 5748 H 550.514 -5.2503 2.50668 0
M  V30 5749 H 549.394 -6.59187 4.24785 0
M  V30 5750 N 546.897 -0.0685191 -1.57451 0
M  V30 5751 C 547.829 0.929372 -2.09512 0
M  V30 5752 C 548.842 1.26354 -1.02657 0
M  V30 5753 O 550.031 1.2213 -1.30179 0
M  V30 5754 C 547.131 2.24612 -2.53777 0
M  V30 5755 C 546.304 2.09128 -3.84167 0
M  V30 5756 C 545.363 3.24079 -4.14559 0
M  V30 5757 O 544.389 2.99215 -4.8421 0
M  V30 5758 N 545.591 4.49077 -3.67845 0
M  V30 5759 H 548.356 0.484901 -2.95751 0
M  V30 5760 H 545.917 0.11729 -1.61475 0
M  V30 5761 H 547.909 3.00412 -2.71172 0
M  V30 5762 H 546.479 2.60569 -1.72692 0
M  V30 5763 H 545.699 1.17815 -3.76182 0
M  V30 5764 H 546.987 1.9603 -4.69521 0
M  V30 5765 H 546.385 4.72165 -3.11571 0
M  V30 5766 H 544.942 5.21915 -3.90446 0
M  V30 5767 N 548.375 1.56261 0.205012 0
M  V30 5768 C 549.624 1.79236 0.925058 0
M  V30 5769 C 549.937 0.640011 1.84833 0
M  V30 5770 O 551.143 0.753809 2.60826 0
M  V30 5771 C 549.599 3.17475 1.69522 0
M  V30 5772 C 549.207 4.40482 0.817269 0
M  V30 5773 C 550.951 3.49766 2.4055 0
M  V30 5774 C 548.858 5.69744 1.58573 0
M  V30 5775 H 547.788 0.668287 0.349153 0
M  V30 5776 H 550.439 1.82629 0.178544 0
M  V30 5777 H 548.821 3.08304 2.48526 0
M  V30 5778 H 549.995 4.60752 0.0665988 0
M  V30 5779 H 548.31 4.15827 0.218316 0
M  V30 5780 H 550.907 4.43573 2.98575 0
M  V30 5781 H 551.25 2.73041 3.14252 0
M  V30 5782 H 551.783 3.60341 1.68522 0
M  V30 5783 H 548.522 6.49407 0.891679 0
M  V30 5784 H 548.042 5.53509 2.31059 0
M  V30 5785 H 549.721 6.1051 2.14212 0
M  V30 5786 N 549.853 -0.472356 1.50355 0
M  V30 5787 C 550.783 -1.57859 1.72055 0
M  V30 5788 C 551.764 -1.60283 0.569505 0
M  V30 5789 O 552.949 -1.7657 0.808503 0
M  V30 5790 C 550.079 -2.96191 1.81351 0
M  V30 5791 C 549.033 -3.08633 2.96529 0
M  V30 5792 C 548.359 -4.486 2.90968 0
M  V30 5793 C 549.659 -2.85969 4.37057 0
M  V30 5794 H 551.353 -1.39953 2.64676 0
M  V30 5795 H 548.899 -0.671846 1.27367 0
M  V30 5796 H 550.852 -3.73507 1.95117 0
M  V30 5797 H 549.576 -3.15251 0.853502 0
M  V30 5798 H 548.235 -2.33749 2.82413 0
M  V30 5799 H 547.883 -4.64577 1.92815 0
M  V30 5800 H 547.583 -4.57861 3.68289 0
M  V30 5801 H 549.107 -5.27938 3.0678 0
M  V30 5802 H 550.521 -3.53036 4.51706 0
M  V30 5803 H 548.918 -3.06677 5.15819 0
M  V30 5804 H 549.988 -1.81838 4.49514 0
M  V30 5805 N 551.331 -1.39911 -0.725443 0
M  V30 5806 C 552.279 -1.39552 -1.86086 0
M  V30 5807 C 553.273 -0.277334 -1.67114 0
M  V30 5808 O 554.479 -0.447865 -1.74339 0
M  V30 5809 H 550.854 -0.435993 -0.612711 0
M  V30 5810 H 552.825 -2.35305 -1.83505 0
M  V30 5811 C 551.574 -1.26529 -3.2386 0
M  V30 5812 H 550.897 -2.11845 -3.3906 0
M  V30 5813 H 552.337 -1.30336 -4.03471 0
M  V30 5814 C 550.796 0.0254168 -3.3689 0
M  V30 5815 O 551.326 0.992048 -3.89257 0
M  V30 5816 N 549.532 0.0916528 -2.90455 0
M  V30 5817 H 549.079 -0.695675 -2.48028 0
M  V30 5818 H 549.037 0.954745 -2.99553 0
M  V30 5819 N 552.809 0.956637 -1.25245 0
M  V30 5820 C 553.772 2.03457 -1.05537 0
M  V30 5821 C 554.772 1.60798 -0.00886317 0
M  V30 5822 O 555.962 1.72384 -0.250865 0
M  V30 5823 C 553.094 3.35543 -0.601965 0
M  V30 5824 H 554.287 2.22372 -2.01223 0
M  V30 5825 H 551.84 1.13344 -1.07623 0
M  V30 5826 H 552.575 3.22323 0.357584 0
M  V30 5827 H 552.36 3.67854 -1.35743 0
M  V30 5828 H 553.85 4.14769 -0.485454 0
M  V30 5829 N 554.287 1.06798 1.15896 0
M  V30 5830 C 555.217 0.704677 2.22613 0
M  V30 5831 C 556.198 -0.305252 1.67339 0
M  V30 5832 O 557.383 -0.179247 1.93371 0
M  V30 5833 C 554.513 0.0957325 3.47168 0
M  V30 5834 C 553.467 1.0322 4.15367 0
M  V30 5835 C 552.793 0.286293 5.33933 0
M  V30 5836 C 554.093 2.36341 4.65768 0
M  V30 5837 H 555.787 1.59688 2.53259 0
M  V30 5838 H 553.333 0.769257 1.21731 0
M  V30 5839 H 555.286 -0.170333 4.21056 0
M  V30 5840 H 554.01 -0.831516 3.15838 0
M  V30 5841 H 552.669 1.28309 3.43413 0
M  V30 5842 H 552.317 -0.644237 4.98857 0
M  V30 5843 H 552.017 0.910436 5.80504 0
M  V30 5844 H 553.541 0.0278938 6.10594 0
M  V30 5845 H 554.955 2.1561 5.31211 0
M  V30 5846 H 553.352 2.94299 5.2298 0
M  V30 5847 H 554.422 2.99047 3.81705 0
M  V30 5848 N 555.766 -1.3263 0.851289 0
M  V30 5849 C 556.698 -2.27824 0.250757 0
M  V30 5850 C 557.711 -1.52285 -0.575598 0
M  V30 5851 O 558.9 -1.73946 -0.400638 0
M  V30 5852 C 556 -3.3232 -0.664571 0
M  V30 5853 C 555.173 -4.37221 0.125187 0
M  V30 5854 C 554.232 -5.21314 -0.715385 0
M  V30 5855 O 553.258 -5.69002 -0.150111 0
M  V30 5856 N 554.46 -5.43823 -2.03069 0
M  V30 5857 H 557.225 -2.79997 1.06873 0
M  V30 5858 H 554.786 -1.45455 0.710943 0
M  V30 5859 H 556.778 -3.85486 -1.23216 0
M  V30 5860 H 555.348 -2.80331 -1.38323 0
M  V30 5861 H 554.568 -3.84384 0.874199 0
M  V30 5862 H 555.856 -5.04399 0.667774 0
M  V30 5863 H 555.254 -5.06803 -2.51332 0
M  V30 5864 H 553.811 -5.99998 -2.54648 0
M  V30 5865 O 557.283 -0.749239 -1.43069 0
M  V30 5866 H 557.974 -0.305579 -1.91274 0
M  V30 END ATOM
M  V30 BEGIN BOND
M  V30 END BOND
M  V30 END CTAB
M  END
$$$$
