drugbank_target|P20035 Hypoxanthine-guanine-xanthine phosphoribosyltransferase (DB02075; DB11638)
 OpenBabel12092119553D

  0  0  0     0  0            999 V3000
M  V30 BEGIN CTAB
M  V30 COUNTS 3721 3766 0 0 0
M  V30 BEGIN ATOM
M  V30 1 H -0.908 1.98254 -0.117106 0
M  V30 2 N 0 1.576 0 0
M  V30 3 C 0.933 2.03868 1.02534 0
M  V30 4 C 1.911 0.928543 1.3348 0
M  V30 5 O 3.095 1.19667 1.45644 0
M  V30 6 C 0.222 2.43627 2.35294 0
M  V30 7 C -0.732 3.65373 2.2001 0
M  V30 8 S 0.101 5.13292 1.52614 0
M  V30 9 C 1.257 5.56322 2.86805 0
M  V30 10 H 1.49 2.90518 0.631377 0
M  V30 11 H -0.977 1.52953 0.210867 0
M  V30 12 H 0.981 2.67203 3.11629 0
M  V30 13 H -0.358 1.57376 2.7183 0
M  V30 14 H -1.165 3.90944 3.18086 0
M  V30 15 H -1.563 3.418 1.51819 0
M  V30 16 H 0.729 5.58782 3.83104 0
M  V30 17 H 1.672 6.56266 2.65933 0
M  V30 18 H 2.08 4.83886 2.90714 0
M  V30 19 N 1.4781 -0.272755 1.55222 0
M  V30 20 C 2.8891 -0.84378 1.66545 0
M  V30 21 C 3.2401 -1.87035 0.592641 0
M  V30 22 O 2.3651 -2.14761 -0.265818 0
M  V30 23 C 2.9601 -1.53723 3.01918 0
M  V30 24 C 1.5191 -2.05628 3.15268 0
M  V30 25 C 0.6661 -0.898424 2.62343 0
M  V30 26 H 3.6171 -0.0490998 1.58624 0
M  V30 27 H 3.6381 -2.40421 2.94921 0
M  V30 28 H 3.1501 -0.78983 3.79978 0
M  V30 29 H 1.2511 -2.83329 2.41983 0
M  V30 30 H 1.3641 -2.27142 4.21833 0
M  V30 31 H -0.2719 -1.29186 2.19506 0
M  V30 32 H 0.5111 -0.164528 3.42906 0
M  V30 33 N 2.9562 -1.48159 -0.537278 0
M  V30 34 C 4.2052 -1.5506 -1.28993 0
M  V30 35 C 4.5182 -0.226211 -1.94288 0
M  V30 36 O 5.7242 -0.173395 -2.70946 0
M  V30 37 C 4.1802 -2.73429 -2.34018 0
M  V30 38 C 3.7882 -4.1248 -1.74825 0
M  V30 39 C 5.5322 -2.89638 -3.10339 0
M  V30 40 C 3.4392 -5.22121 -2.77747 0
M  V30 41 H 2.3692 -0.577231 -0.485098 0
M  V30 42 H 5.0202 -1.74478 -0.568317 0
M  V30 43 H 3.4022 -2.47431 -3.09182 0
M  V30 44 H 4.5762 -4.48466 -1.05899 0
M  V30 45 H 2.8912 -4.01327 -1.11022 0
M  V30 46 H 5.4882 -3.68718 -3.87235 0
M  V30 47 H 5.8312 -1.9882 -3.65754 0
M  V30 48 H 6.3642 -3.15502 -2.42288 0
M  V30 49 H 3.1032 -6.1488 -2.27161 0
M  V30 50 H 2.6232 -4.90631 -3.45024 0
M  V30 51 H 4.3022 -5.49924 -3.4087 0
M  V30 52 N 4.4343 0.785586 -1.36625 0
M  V30 53 C 5.8453 1.36101 -1.27803 0
M  V30 54 C 6.1963 1.96035 0.0804875 0
M  V30 55 O 5.3213 1.92834 0.982042 0
M  V30 56 C 5.9163 2.47442 -2.31426 0
M  V30 57 C 4.4753 3.00789 -2.26281 0
M  V30 58 C 3.6223 1.73896 -2.15999 0
M  V30 59 H 6.5733 0.586928 -1.47448 0
M  V30 60 H 6.5943 3.2656 -1.95291 0
M  V30 61 H 6.1063 2.03791 -3.30289 0
M  V30 62 H 4.2073 3.48851 -1.30896 0
M  V30 63 H 4.3203 3.57343 -3.19128 0
M  V30 64 H 2.6843 1.9628 -1.62316 0
M  V30 65 H 3.4673 1.32368 -3.16755 0
M  V30 66 N 5.9124 1.20967 1.01018 0
M  V30 67 C 6.8604 0.961223 2.1181 0
M  V30 68 C 7.8544 -0.0897034 1.69162 0
M  V30 69 O 9.0604 0.0612271 1.79896 0
M  V30 70 H 5.4354 0.29355 0.692338 0
M  V30 71 H 7.4064 1.90178 2.29946 0
M  V30 72 C 6.1554 0.536854 3.4353 0
M  V30 73 H 5.4784 1.33713 3.76777 0
M  V30 74 H 6.9184 0.402286 4.22087 0
M  V30 75 C 5.3774 -0.751574 3.2841 0
M  V30 76 O 5.9074 -1.80841 3.58691 0
M  V30 77 N 4.1134 -0.716079 2.81639 0
M  V30 78 H 3.6604 0.144236 2.57196 0
M  V30 79 H 3.6184 -1.57847 2.71904 0
M  V30 80 N 7.3905 -1.2043 1.01659 0
M  V30 81 C 8.3385 -2.25249 0.580143 0
M  V30 82 C 9.3325 -1.65057 -0.381115 0
M  V30 83 O 10.5385 -1.78241 -0.251039 0
M  V30 84 H 6.9135 -0.732695 0.169299 0
M  V30 85 H 8.8845 -2.59389 1.47512 0
M  V30 86 C 7.6335 -3.47638 -0.065788 0
M  V30 87 H 6.9565 -3.94233 0.664874 0
M  V30 88 H 8.3965 -4.2268 -0.334282 0
M  V30 89 C 6.8555 -3.10447 -1.3086 0
M  V30 90 O 7.3855 -3.21981 -2.4019 0
M  V30 91 N 5.5915 -2.64996 -1.1927 0
M  V30 92 H 5.1385 -2.55811 -0.303064 0
M  V30 93 H 5.0965 -2.40482 -2.02523 0
M  V30 94 N 8.8686 -0.792821 -1.36206 0
M  V30 95 C 10.2796 -0.429513 -1.81692 0
M  V30 96 C 10.6306 1.04695 -1.65932 0
M  V30 97 O 9.7556 1.81256 -1.18218 0
M  V30 98 C 10.3506 -0.772831 -3.29868 0
M  V30 99 C 8.9096 -0.462307 -3.7355 0
M  V30 100 C 8.0566 -1.00569 -2.5842 0
M  V30 101 H 11.0076 -0.985672 -1.24379 0
M  V30 102 H 11.0286 -0.0651928 -3.80444 0
M  V30 103 H 10.5406 -1.84747 -3.41307 0
M  V30 104 H 8.6416 0.604158 -3.67669 0
M  V30 105 H 8.7546 -0.985299 -4.68859 0
M  V30 106 H 7.1186 -0.428734 -2.51066 0
M  V30 107 H 7.9016 -2.08616 -2.72643 0
M  V30 108 N 10.3467 1.47872 -0.545128 0
M  V30 109 C 11.5947 2.02093 -0.016553 0
M  V30 110 C 11.9157 1.42305 1.3332 0
M  V30 111 O 11.1857 0.593853 1.86682 0
M  V30 112 H 9.7657 0.746993 -0.00313038 0
M  V30 113 H 12.4277 1.81414 -0.712397 0
M  V30 114 H 11.5237 3.11996 0.0805422 0
M  V30 115 N 11.8248 0.280983 1.55075 0
M  V30 116 C 12.7878 -0.590896 2.21452 0
M  V30 117 C 13.7878 -1.07682 1.19421 0
M  V30 118 O 14.9778 -0.97605 1.44288 0
M  V30 119 C 12.1098 -1.81587 2.88511 0
M  V30 120 H 13.3028 -0.0112554 2.99898 0
M  V30 121 H 10.8558 0.0316438 1.56268 0
M  V30 122 H 11.5908 -2.43587 2.14093 0
M  V30 123 H 11.3758 -1.4753 3.63287 0
M  V30 124 H 12.8658 -2.43575 3.39206 0
M  V30 125 N 13.3029 -1.57598 0.00835791 0
M  V30 126 C 14.5509 -1.90551 -0.6734 0
M  V30 127 C 14.8719 -0.883301 -1.73847 0
M  V30 128 O 14.1419 0.0781442 -1.95744 0
M  V30 129 H 12.7219 -0.703312 -0.251717 0
M  V30 130 H 15.3839 -1.94833 0.0512592 0
M  V30 131 H 14.4799 -2.9056 -1.13935 0
M  V30 132 N 14.781 0.264519 -1.55364 0
M  V30 133 C 15.691 1.34902 -1.91934 0
M  V30 134 C 16.707 1.53595 -0.817593 0
M  V30 135 O 17.883 1.67558 -1.11742 0
M  V30 136 C 14.948 2.68676 -2.19121 0
M  V30 137 C 14.009 2.58657 -3.4263 0
M  V30 138 C 13.242 3.86051 -3.68511 0
M  V30 139 O 13.465 4.87126 -2.96757 0
M  V30 140 O 12.399 3.85744 -4.62045 0
M  V30 141 H 16.225 1.06883 -2.8427 0
M  V30 142 H 13.81 0.463775 -1.42019 0
M  V30 143 H 15.692 3.47759 -2.37995 0
M  V30 144 H 14.367 2.96463 -1.29966 0
M  V30 145 H 13.274 1.7792 -3.29082 0
M  V30 146 H 14.607 2.35818 -4.32031 0
M  V30 147 N 16.2591 1.48442 0.529413 0
M  V30 148 C 17.2071 1.63452 1.65487 0
M  V30 149 C 18.2011 0.500955 1.61823 0
M  V30 150 O 19.4071 0.679695 1.66674 0
M  V30 151 H 15.7821 0.514905 0.548066 0
M  V30 152 H 17.7531 2.57975 1.49971 0
M  V30 153 C 16.5021 1.69196 3.03756 0
M  V30 154 H 15.8251 2.55784 3.07269 0
M  V30 155 H 17.2651 1.83743 3.82119 0
M  V30 156 C 15.7241 0.430765 3.34135 0
M  V30 157 O 16.2541 -0.4561 3.99102 0
M  V30 158 N 14.4601 0.302293 2.89023 0
M  V30 159 H 14.0071 1.02496 2.36331 0
M  V30 160 H 13.9651 -0.540546 3.09718 0
M  V30 161 N 17.7372 -0.778329 1.37039 0
M  V30 162 C 18.7002 -1.87301 1.32102 0
M  V30 163 C 19.7002 -1.59198 0.226405 0
M  V30 164 O 20.8902 -1.67403 0.481861 0
M  V30 165 C 18.0222 -3.24309 1.05055 0
M  V30 166 H 19.2152 -1.93093 2.29467 0
M  V30 167 H 16.7682 -0.977358 1.21973 0
M  V30 168 H 17.5032 -3.24196 0.0819373 0
M  V30 169 H 17.2882 -3.46098 1.84279 0
M  V30 170 H 18.7782 -4.04382 1.04234 0
M  V30 171 N 19.2153 -1.21501 -1.00376 0
M  V30 172 C 20.4623 -1.03299 -1.74171 0
M  V30 173 C 20.7903 0.433326 -1.89612 0
M  V30 174 O 20.0453 1.33779 -1.42834 0
M  V30 175 C 20.3443 -1.67673 -3.15627 0
M  V30 176 C 20.0103 -3.17533 -3.2013 0
M  V30 177 C 18.6723 -3.58427 -3.21067 0
M  V30 178 C 21.0243 -4.13504 -3.17275 0
M  V30 179 C 18.3523 -4.93794 -3.16835 0
M  V30 180 C 20.7043 -5.48834 -3.14585 0
M  V30 181 C 19.3683 -5.89123 -3.13831 0
M  V30 182 H 18.6383 -0.377999 -0.637336 0
M  V30 183 H 21.2853 -1.51111 -1.17634 0
M  V30 184 H 19.5903 -1.12158 -3.75404 0
M  V30 185 H 21.2873 -1.51091 -3.71446 0
M  V30 186 H 17.8773 -2.84965 -3.20145 0
M  V30 187 H 22.0613 -3.82936 -3.15711 0
M  V30 188 H 17.3173 -5.24255 -3.1459 0
M  V30 189 H 21.4913 -6.22934 -3.1133 0
M  V30 190 H 19.1183 -6.93984 -3.10307 0
M  V30 191 N 20.6934 1.19889 -1.02296 0
M  V30 192 C 21.9704 1.85148 -0.630832 0
M  V30 193 C 22.3504 1.91385 0.890782 0
M  V30 194 O 21.6984 1.42642 1.78509 0
M  V30 195 C 21.9084 3.24442 -1.28602 0
M  V30 196 C 23.2564 4.00663 -1.4055 0
M  V30 197 O 24.2804 3.33818 -1.24273 0
M  V30 198 O 23.1394 5.20387 -1.66913 0
M  V30 199 H 20.2334 0.797613 -0.218499 0
M  V30 200 H 22.7794 1.27427 -1.12074 0
M  V30 201 H 21.5514 3.14704 -2.32545 0
M  V30 202 H 21.1744 3.89802 -0.7836 0
M  V30 203 N 22.1715 0.800033 1.35784 0
M  V30 204 C 23.5825 0.439142 1.81462 0
M  V30 205 C 23.9335 -1.03813 1.66485 0
M  V30 206 O 23.0585 -1.80626 1.19177 0
M  V30 207 C 23.6535 0.790314 3.29453 0
M  V30 208 C 22.2125 0.482111 3.733 0
M  V30 209 C 21.3595 1.01938 2.57883 0
M  V30 210 H 24.3105 0.992254 1.23855 0
M  V30 211 H 24.3315 0.0853677 3.80404 0
M  V30 212 H 23.8435 1.86554 3.40322 0
M  V30 213 H 21.9445 -0.584652 3.67984 0
M  V30 214 H 22.0575 1.01015 4.6833 0
M  V30 215 H 20.4215 0.442043 2.50835 0
M  V30 216 H 21.2045 2.10059 2.71533 0
M  V30 217 N 23.6496 -1.47581 0.552962 0
M  V30 218 C 24.8956 -2.02782 0.0273648 0
M  V30 219 C 25.2286 -1.42687 -1.31734 0
M  V30 220 O 24.5036 -0.580897 -1.85623 0
M  V30 221 C 24.7866 -3.60031 -0.0702371 0
M  V30 222 C 24.6396 -4.30566 1.30126 0
M  V30 223 C 25.9586 -4.33028 -0.785771 0
M  V30 224 H 23.0776 -0.736912 0.0114185 0
M  V30 225 H 25.7196 -1.76056 0.714432 0
M  V30 226 H 23.8696 -3.82932 -0.655382 0
M  V30 227 H 25.5416 -4.19018 1.92929 0
M  V30 228 H 23.7846 -3.91086 1.87709 0
M  V30 229 H 24.4556 -5.39114 1.18573 0
M  V30 230 H 26.9316 -4.15095 -0.288982 0
M  V30 231 H 25.8076 -5.42695 -0.823013 0
M  V30 232 H 26.0686 -4.01945 -1.841 0
M  V30 233 N 25.1277 -0.289203 -1.54924 0
M  V30 234 C 26.3747 0.323519 -1.99899 0
M  V30 235 C 26.7027 1.54797 -1.17762 0
M  V30 236 O 25.9577 1.94237 -0.238835 0
M  V30 237 C 26.2567 0.736119 -3.49737 0
M  V30 238 C 25.9227 -0.385276 -4.49251 0
M  V30 239 C 24.5847 -0.693156 -4.76181 0
M  V30 240 C 26.9367 -1.14021 -5.08575 0
M  V30 241 C 24.2647 -1.7593 -5.59701 0
M  V30 242 C 26.6167 -2.19619 -5.93254 0
M  V30 243 C 25.2807 -2.51026 -6.185 0
M  V30 244 H 24.5507 0.118384 -0.731482 0
M  V30 245 H 27.1977 -0.405847 -1.8715 0
M  V30 246 H 25.5027 1.54539 -3.60035 0
M  V30 247 H 27.1997 1.22118 -3.81953 0
M  V30 248 H 23.7897 -0.135202 -4.28387 0
M  V30 249 H 27.9737 -0.915611 -4.87781 0
M  V30 250 H 23.2297 -2.0075 -5.77503 0
M  V30 251 H 27.4037 -2.78581 -6.38252 0
M  V30 252 H 25.0307 -3.33772 -6.83008 0
M  V30 253 N 26.6058 1.57591 -0.0167156 0
M  V30 254 C 27.8518 1.91567 0.665582 0
M  V30 255 C 28.1848 0.892298 1.72487 0
M  V30 256 O 27.4598 -0.0867127 1.94307 0
M  V30 257 C 27.7428 3.36069 1.29342 0
M  V30 258 C 27.5958 4.49135 0.244541 0
M  V30 259 C 28.9148 3.803 2.21495 0
M  V30 260 H 26.0338 0.69666 0.240488 0
M  V30 261 H 28.6758 1.89866 -0.0714356 0
M  V30 262 H 26.8258 3.3765 1.92158 0
M  V30 263 H 28.4978 4.59689 -0.385228 0
M  V30 264 H 26.7408 4.3165 -0.431379 0
M  V30 265 H 27.4118 5.47242 0.723207 0
M  V30 266 H 29.8878 3.80377 1.68678 0
M  V30 267 H 28.7638 4.82127 2.62382 0
M  V30 268 H 29.0248 3.15104 3.101 0
M  V30 269 N 28.0839 -0.256276 1.55502 0
M  V30 270 C 29.0319 -1.33694 1.90338 0
M  V30 271 C 30.0259 -1.50299 0.781441 0
M  V30 272 O 31.2319 -1.51885 0.965966 0
M  V30 273 H 27.6069 -0.447483 0.60437 0
M  V30 274 H 29.5779 -1.01574 2.8058 0
M  V30 275 C 28.3269 -2.68724 2.20642 0
M  V30 276 H 27.6499 -2.56743 3.06469 0
M  V30 277 H 29.0899 -3.43237 2.48926 0
M  V30 278 C 27.5489 -3.21101 1.01959 0
M  V30 279 O 28.0789 -4.0084 0.262762 0
M  V30 280 N 26.2849 -2.79003 0.812746 0
M  V30 281 H 25.8319 -2.14271 1.42989 0
M  V30 282 H 25.7899 -3.14393 0.0203076 0
M  V30 283 N 29.562 -1.4872 -0.521534 0
M  V30 284 C 30.839 -1.4766 -1.2828 0
M  V30 285 C 31.219 -0.19292 -2.10217 0
M  V30 286 O 30.567 0.825193 -2.13079 0
M  V30 287 C 30.777 -2.74358 -2.15705 0
M  V30 288 C 32.125 -3.23028 -2.75569 0
M  V30 289 O 33.149 -2.75333 -2.25987 0
M  V30 290 O 32.008 -4.0604 -3.65778 0
M  V30 291 H 29.102 -0.590085 -0.579421 0
M  V30 292 H 31.648 -1.60963 -0.537492 0
M  V30 293 H 30.42 -3.59292 -1.54999 0
M  V30 294 H 30.043 -2.63816 -2.97467 0
M  V30 295 N 31.0401 0.771051 -1.3745 0
M  V30 296 C 32.3171 1.519 -1.23231 0
M  V30 297 C 32.6971 2.10383 0.173809 0
M  V30 298 O 32.0451 1.95583 1.18151 0
M  V30 299 C 32.2551 2.59933 -2.32886 0
M  V30 300 C 33.6031 3.27316 -2.70461 0
M  V30 301 O 34.6271 2.70228 -2.32068 0
M  V30 302 O 33.4861 4.30531 -3.36608 0
M  V30 303 H 30.5801 0.672803 -0.480901 0
M  V30 304 H 33.1261 0.807957 -1.49232 0
M  V30 305 H 31.8981 2.14842 -3.27045 0
M  V30 306 H 31.5211 3.38637 -2.08353 0
M  V30 307 N 32.5182 1.22032 0.997298 0
M  V30 308 C 33.7952 0.950823 1.70935 0
M  V30 309 C 34.1752 -0.535292 2.042 0
M  V30 310 O 33.5232 -1.50217 1.72183 0
M  V30 311 C 33.7332 1.84386 2.96315 0
M  V30 312 C 35.0812 2.09732 3.69185 0
M  V30 313 O 36.1052 1.81798 3.06314 0
M  V30 314 O 34.9642 2.57018 4.82291 0
M  V30 315 H 32.0582 0.357204 0.745878 0
M  V30 316 H 34.6042 1.32997 1.05404 0
M  V30 317 H 33.3762 2.84928 2.68201 0
M  V30 318 H 32.9992 1.46602 3.69586 0
M  V30 319 N 33.9963 -1.19345 1.0293 0
M  V30 320 C 35.2443 -1.88665 0.724574 0
M  V30 321 C 35.5653 -1.80036 -0.749144 0
M  V30 322 O 34.8353 -1.2111 -1.53978 0
M  V30 323 H 33.4153 -0.698406 0.265025 0
M  V30 324 H 36.0773 -1.44885 1.30362 0
M  V30 325 H 35.1733 -2.94987 1.01926 0
M  V30 326 N 35.4744 -0.807222 -1.35358 0
M  V30 327 C 36.7044 -0.399796 -2.02695 0
M  V30 328 C 37.1124 0.994176 -1.60974 0
M  V30 329 O 36.4554 1.65209 -0.803226 0
M  V30 330 C 36.5174 -0.404445 -3.57218 0
M  V30 331 C 36.1814 -1.74904 -4.22206 0
M  V30 332 C 37.1784 -2.70743 -4.4384 0
M  V30 333 C 34.8634 -2.03322 -4.5931 0
M  V30 334 C 36.8574 -3.93183 -5.01683 0
M  V30 335 C 34.5444 -3.26026 -5.16866 0
M  V30 336 C 35.5424 -4.20774 -5.37994 0
M  V30 337 O 35.2304 -5.41312 -5.94337 0
M  V30 338 H 34.9624 -0.160517 -0.656666 0
M  V30 339 H 37.5164 -1.09235 -1.73945 0
M  V30 340 H 35.7464 0.344707 -3.85161 0
M  V30 341 H 37.4354 -0.0192429 -4.05895 0
M  V30 342 H 38.2014 -2.5008 -4.15554 0
M  V30 343 H 34.0804 -1.30384 -4.42178 0
M  V30 344 H 37.6244 -4.6715 -5.1809 0
M  V30 345 H 33.5214 -3.46559 -5.44579 0
M  V30 346 H 34.2894 -5.42618 -6.12787 0
M  V30 347 N 36.9525 1.47285 -0.560781 0
M  V30 348 C 38.2295 1.9558 0.0277798 0
M  V30 349 C 38.6095 1.5034 1.48192 0
M  V30 350 O 37.9575 0.743882 2.16052 0
M  V30 351 C 38.1675 3.48789 -0.121418 0
M  V30 352 C 39.5155 4.24594 0.0220912 0
M  V30 353 O 40.5395 3.56166 -0.0491439 0
M  V30 354 O 39.3985 5.46217 0.175958 0
M  V30 355 H 36.4925 0.824663 0.0621342 0
M  V30 356 H 39.0385 1.5767 -0.627556 0
M  V30 357 H 37.8105 3.74533 -1.13316 0
M  V30 358 H 37.4335 3.93473 0.571366 0
M  V30 359 N 38.4306 0.297415 1.54768 0
M  V30 360 C 39.3606 -0.573494 2.26348 0
M  V30 361 C 40.3416 -1.14085 1.26169 0
M  V30 362 O 41.5266 -1.17086 1.54934 0
M  V30 363 C 38.6566 -1.74716 3.00153 0
M  V30 364 C 37.6106 -1.31032 4.07449 0
M  V30 365 C 36.9366 -2.56887 4.68949 0
M  V30 366 C 38.2366 -0.444183 5.20408 0
M  V30 367 H 39.9306 0.0235131 2.99391 0
M  V30 368 H 37.4766 0.0127488 1.43994 0
M  V30 369 H 39.4296 -2.3625 3.48947 0
M  V30 370 H 38.1536 -2.37035 2.24682 0
M  V30 371 H 36.8126 -0.718066 3.59499 0
M  V30 372 H 36.4606 -3.17512 3.90122 0
M  V30 373 H 36.1606 -2.2836 5.41411 0
M  V30 374 H 37.6846 -3.19229 5.20505 0
M  V30 375 H 39.0986 -0.9651 5.65118 0
M  V30 376 H 37.4956 -0.252846 5.99567 0
M  V30 377 H 38.5656 0.531609 4.81977 0
M  V30 378 N 39.9087 -1.5758 0.0250728 0
M  V30 379 C 41.1857 -1.82917 -0.692873 0
M  V30 380 C 41.5657 -0.908137 -1.90568 0
M  V30 381 O 40.9137 0.0372298 -2.2847 0
M  V30 382 C 41.1237 -3.32034 -1.07492 0
M  V30 383 C 42.4717 -3.98406 -1.46826 0
M  V30 384 O 43.4957 -3.36505 -1.16801 0
M  V30 385 O 42.3547 -5.07497 -2.02754 0
M  V30 386 H 39.4487 -0.754079 -0.33955 0
M  V30 387 H 41.9947 -1.69619 0.0524456 0
M  V30 388 H 40.7667 -3.90728 -0.211552 0
M  V30 389 H 40.3897 -3.50424 -1.87854 0
M  V30 390 N 41.3868 0.248026 -1.55636 0
M  V30 391 C 42.6118 0.998028 -1.81808 0
M  V30 392 C 43.0368 1.78207 -0.601979 0
M  V30 393 O 42.3948 1.75653 0.448961 0
M  V30 394 C 42.4428 1.9125 -3.05705 0
M  V30 395 O 41.5468 3.00406 -2.82542 0
M  V30 396 H 40.8878 0.284045 -0.600179 0
M  V30 397 H 43.4178 0.269357 -2.02819 0
M  V30 398 H 43.4278 2.32737 -3.35108 0
M  V30 399 H 42.1028 1.33602 -3.93857 0
M  V30 400 H 40.6798 2.63056 -2.64303 0
M  V30 401 N 42.8649 1.48995 0.513639 0
M  V30 402 C 44.1119 1.57843 1.26854 0
M  V30 403 C 44.4399 0.259501 1.92761 0
M  V30 404 O 43.6949 -0.75159 1.80692 0
M  V30 405 C 43.9939 2.67756 2.36731 0
M  V30 406 C 43.6599 4.09669 1.88368 0
M  V30 407 C 42.3219 4.48291 1.74896 0
M  V30 408 C 44.6739 4.98537 1.52021 0
M  V30 409 C 42.0019 5.73568 1.23438 0
M  V30 410 C 44.3539 6.24319 1.0202 0
M  V30 411 C 43.0179 6.61783 0.871778 0
M  V30 412 H 42.2879 0.577587 0.464192 0
M  V30 413 H 44.9349 1.82778 0.571366 0
M  V30 414 H 43.2399 2.36743 3.12185 0
M  V30 415 H 44.9369 2.71813 2.9482 0
M  V30 416 H 41.5269 3.79176 1.99808 0
M  V30 417 H 45.7109 4.69363 1.61281 0
M  V30 418 H 40.9669 6.01304 1.10648 0
M  V30 419 H 45.1409 6.92566 0.729722 0
M  V30 420 H 42.7679 7.5874 0.470852 0
M  V30 421 N 44.343 -0.763751 1.37857 0
M  V30 422 C 45.276 -1.88486 1.28639 0
M  V30 423 C 46.254 -1.61757 0.165363 0
M  V30 424 O 47.438 -1.85391 0.340948 0
M  V30 425 C 44.565 -3.23884 0.990811 0
M  V30 426 C 43.611 -3.69514 2.12983 0
M  V30 427 S 44.444 -3.82244 3.75033 0
M  V30 428 C 45.6 -5.20477 3.47641 0
M  V30 429 H 45.833 -1.96017 2.23527 0
M  V30 430 H 43.366 -0.925684 1.23574 0
M  V30 431 H 45.324 -4.02081 0.827101 0
M  V30 432 H 43.985 -3.14044 0.0592832 0
M  V30 433 H 43.178 -4.67696 1.87821 0
M  V30 434 H 42.78 -2.98441 2.25408 0
M  V30 435 H 45.072 -6.05905 3.03125 0
M  V30 436 H 46.015 -5.50655 4.4518 0
M  V30 437 H 46.423 -4.88793 2.82385 0
M  V30 438 N 45.8211 -1.22559 -0.990812 0
M  V30 439 C 47.0701 -1.04553 -1.72486 0
M  V30 440 C 47.3831 0.419349 -1.91052 0
M  V30 441 O 48.5891 0.719121 -2.61803 0
M  V30 442 C 47.0451 -1.82231 -3.10355 0
M  V30 443 C 46.6531 -3.32981 -2.99713 0
M  V30 444 C 48.3971 -1.7268 -3.87791 0
M  V30 445 C 46.3041 -4.03091 -4.32748 0
M  V30 446 H 45.2341 -0.387614 -0.646739 0
M  V30 447 H 47.8851 -1.46429 -1.10593 0
M  V30 448 H 46.2671 -1.33155 -3.72942 0
M  V30 449 H 47.4411 -3.89466 -2.46278 0
M  V30 450 H 45.7561 -3.43231 -2.35758 0
M  V30 451 H 48.3531 -2.22381 -4.86262 0
M  V30 452 H 48.6961 -0.687607 -4.10582 0
M  V30 453 H 49.2291 -2.1931 -3.31885 0
M  V30 454 H 45.9681 -5.07273 -4.15156 0
M  V30 455 H 45.4881 -3.51394 -4.86089 0
M  V30 456 H 47.1671 -4.08804 -5.01486 0
M  V30 457 N 47.2992 1.18797 -1.03562 0
M  V30 458 C 48.7102 1.70322 -0.764676 0
M  V30 459 C 49.0612 1.82708 0.714996 0
M  V30 460 O 48.1862 1.50299 1.55689 0
M  V30 461 C 48.7812 3.09356 -1.38145 0
M  V30 462 C 47.3402 3.58114 -1.15895 0
M  V30 463 C 46.4872 2.34798 -1.4753 0
M  V30 464 H 49.4382 1.03543 -1.20268 0
M  V30 465 H 49.4592 3.72378 -0.781977 0
M  V30 466 H 48.9712 3.00309 -2.45837 0
M  V30 467 H 47.0722 3.72464 -0.100544 0
M  V30 468 H 47.1852 4.4184 -1.8524 0
M  V30 469 H 45.5492 2.38464 -0.894829 0
M  V30 470 H 46.3322 2.28375 -2.56319 0
M  V30 471 N 48.7773 0.814389 1.34928 0
M  V30 472 C 49.7403 0.235759 2.27984 0
M  V30 473 C 50.7403 -0.581412 1.49921 0
M  V30 474 O 51.9303 -0.398758 1.69575 0
M  V30 475 C 49.0623 -0.670433 3.34242 0
M  V30 476 H 50.2553 1.05659 2.80671 0
M  V30 477 H 47.8083 0.585614 1.44915 0
M  V30 478 H 48.5433 -1.51466 2.86755 0
M  V30 479 H 48.3283 -0.0860822 3.92005 0
M  V30 480 H 49.8183 -1.06935 4.03676 0
M  V30 481 N 50.2554 -1.46986 0.568584 0
M  V30 482 C 51.2054 -2.27179 -0.193339 0
M  V30 483 C 52.1894 -1.35035 -0.874895 0
M  V30 484 O 53.3814 -1.5931 -0.771322 0
M  V30 485 C 50.5104 -3.21063 -1.21546 0
M  V30 486 C 49.5964 -4.2069 -0.536738 0
M  V30 487 N 49.9874 -5.04218 0.399673 0
M  V30 488 C 48.2854 -4.38961 -0.789254 0
M  V30 489 C 48.9864 -5.76242 0.795017 0
M  V30 490 N 47.9624 -5.434 0.1473 0
M  V30 491 H 51.7644 -2.89146 0.526458 0
M  V30 492 H 49.2784 -1.57664 0.389342 0
M  V30 493 H 51.2754 -3.77209 -1.77536 0
M  V30 494 H 49.9354 -2.60654 -1.93623 0
M  V30 495 H 50.9464 -5.12077 0.774454 0
M  V30 496 H 47.6234 -3.89713 -1.49767 0
M  V30 497 H 49.0134 -6.53417 1.56513 0
M  V30 498 N 51.7335 -0.305618 -1.54608 0
M  V30 499 C 52.9635 0.304333 -2.04346 0
M  V30 500 C 53.3715 1.47715 -1.18224 0
M  V30 501 O 52.7145 1.82591 -0.201577 0
M  V30 502 C 52.7765 0.819031 -3.50046 0
M  V30 503 C 52.4405 -0.22912 -4.56425 0
M  V30 504 C 53.4375 -1.05914 -5.08997 0
M  V30 505 C 51.1225 -0.372148 -5.0092 0
M  V30 506 C 53.1165 -2.01809 -6.04609 0
M  V30 507 C 50.8035 -1.33454 -5.9635 0
M  V30 508 C 51.8015 -2.15599 -6.48079 0
M  V30 509 O 51.4895 -3.10205 -7.41639 0
M  V30 510 H 51.2215 0.0693996 -0.672428 0
M  V30 511 H 53.7755 -0.444548 -2.00532 0
M  V30 512 H 52.0055 1.61852 -3.51199 0
M  V30 513 H 53.6945 1.34537 -3.82955 0
M  V30 514 H 54.4605 -0.959538 -4.75413 0
M  V30 515 H 50.3395 0.257304 -4.60281 0
M  V30 516 H 53.8835 -2.65966 -6.44909 0
M  V30 517 H 49.7805 -1.43485 -6.29351 0
M  V30 518 H 50.5485 -3.05237 -7.59455 0
M  V30 519 N 53.2116 1.57565 -0.0334293 0
M  V30 520 C 54.1586 2.10478 0.946981 0
M  V30 521 C 55.1286 1.00787 1.32027 0
M  V30 522 O 56.3136 1.28232 1.41284 0
M  V30 523 C 53.4536 2.63994 2.22263 0
M  V30 524 C 52.5666 3.87709 1.90541 0
M  V30 525 C 51.7016 4.29604 3.12433 0
M  V30 526 C 50.7406 5.46065 2.76549 0
M  V30 527 N 49.8776 5.83096 3.9108 0
M  V30 528 H 54.7176 2.93963 0.488846 0
M  V30 529 H 52.2546 1.45296 0.22969 0
M  V30 530 H 54.2126 2.93114 2.96884 0
M  V30 531 H 52.8426 1.83333 2.65685 0
M  V30 532 H 51.8946 3.65291 1.06144 0
M  V30 533 H 53.2066 4.72403 1.60116 0
M  V30 534 H 52.3606 4.60182 3.9537 0
M  V30 535 H 51.0996 3.43685 3.46023 0
M  V30 536 H 50.1046 5.15176 1.92026 0
M  V30 537 H 51.3296 6.33685 2.44171 0
M  V30 538 H 49.2756 5.00132 4.24504 0
M  V30 539 H 49.1926 6.6244 3.64293 0
M  V30 540 H 50.4606 6.18282 4.74708 0
M  V30 541 N 54.6897 -0.239769 1.55765 0
M  V30 542 C 55.6367 -1.29696 1.90913 0
M  V30 543 C 56.6067 -1.47478 0.764164 0
M  V30 544 O 57.7917 -1.61345 1.01845 0
M  V30 545 C 54.9317 -2.64598 2.21544 0
M  V30 546 C 54.0447 -2.54765 3.48882 0
M  V30 547 C 53.1797 -3.82069 3.69049 0
M  V30 548 C 52.2187 -3.66883 4.89963 0
M  V30 549 N 51.3557 -4.86094 5.06614 0
M  V30 550 H 56.1957 -0.990224 2.81067 0
M  V30 551 H 53.7327 -0.477684 1.39128 0
M  V30 552 H 55.6907 -3.43132 2.3731 0
M  V30 553 H 54.3207 -2.93405 1.34585 0
M  V30 554 H 53.3727 -1.67763 3.41409 0
M  V30 555 H 54.6847 -2.39457 4.37563 0
M  V30 556 H 53.8387 -4.69046 3.84812 0
M  V30 557 H 52.5777 -4.00282 2.78614 0
M  V30 558 H 51.5827 -2.78289 4.74168 0
M  V30 559 H 52.8077 -3.50157 5.81865 0
M  V30 560 H 50.7537 -5.04655 4.19117 0
M  V30 561 H 50.6707 -4.73443 5.89396 0
M  V30 562 H 51.9387 -5.74549 5.26795 0
M  V30 563 N 56.1678 -1.49265 -0.50573 0
M  V30 564 C 57.3978 -1.61979 -1.28243 0
M  V30 565 C 57.8058 -0.288576 -1.86986 0
M  V30 566 O 57.1488 0.735408 -1.68337 0
M  V30 567 C 57.2108 -2.62632 -2.45489 0
M  V30 568 C 56.8748 -4.071 -2.07651 0
M  V30 569 C 57.8718 -4.94049 -1.61901 0
M  V30 570 C 55.5568 -4.52801 -2.17431 0
M  V30 571 C 57.5508 -6.24736 -1.26428 0
M  V30 572 C 55.2378 -5.83503 -1.8157 0
M  V30 573 C 56.2358 -6.69294 -1.36142 0
M  V30 574 O 55.9238 -7.9756 -1.00764 0
M  V30 575 H 55.6558 -0.54834 -0.395347 0
M  V30 576 H 58.2098 -1.96002 -0.614204 0
M  V30 577 H 56.4398 -2.2378 -3.15372 0
M  V30 578 H 58.1288 -2.64925 -3.07522 0
M  V30 579 H 58.8948 -4.5997 -1.53795 0
M  V30 580 H 54.7738 -3.86196 -2.51742 0
M  V30 581 H 58.3178 -6.91652 -0.908992 0
M  V30 582 H 54.2148 -6.17112 -1.89324 0
M  V30 583 H 54.9828 -8.10529 -1.13952 0
M  V30 584 N 57.6459 0.756429 -1.3826 0
M  V30 585 C 58.5759 1.88374 -1.37976 0
M  V30 586 C 59.5569 1.68311 -0.246082 0
M  V30 587 O 60.7419 1.88944 -0.44874 0
M  V30 588 C 57.8719 3.25864 -1.20125 0
M  V30 589 C 56.8259 3.60523 -2.30666 0
M  V30 590 C 56.1519 4.9672 -1.97923 0
M  V30 591 C 57.4519 3.65692 -3.72916 0
M  V30 592 H 59.1459 1.88869 -2.32312 0
M  V30 593 H 56.6919 0.907272 -1.11824 0
M  V30 594 H 58.6449 4.0438 -1.18552 0
M  V30 595 H 57.3689 3.25841 -0.222498 0
M  V30 596 H 56.0279 2.84324 -2.3142 0
M  V30 597 H 55.6759 4.93253 -0.985393 0
M  V30 598 H 55.3759 5.20878 -2.71955 0
M  V30 599 H 56.8999 5.77618 -1.97964 0
M  V30 600 H 58.3139 4.34328 -3.74208 0
M  V30 601 H 56.7109 4.01358 -4.4613 0
M  V30 602 H 57.7809 2.65987 -4.05436 0
M  V30 603 N 59.124 1.23083 0.984299 0
M  V30 604 C 60.352 1.08714 1.76037 0
M  V30 605 C 60.767 -0.361691 1.85303 0
M  V30 606 O 60.124 -1.25034 1.32939 0
M  V30 607 C 60.175 1.70206 3.18923 0
M  V30 608 O 59.896 3.09423 3.10144 0
M  V30 609 C 61.397 1.61227 4.12941 0
M  V30 610 H 58.617 0.380664 0.552572 0
M  V30 611 H 61.161 1.62853 1.23689 0
M  V30 612 H 59.316 1.20109 3.6831 0
M  V30 613 H 59.73 3.39188 4.00065 0
M  V30 614 H 61.204 2.08962 5.10919 0
M  V30 615 H 61.681 0.570375 4.35481 0
M  V30 616 H 62.287 2.10671 3.69456 0
M  V30 617 N 60.6021 -1.18246 1.0419 0
M  V30 618 C 61.5491 -2.2192 0.634037 0
M  V30 619 C 62.5191 -1.62179 -0.358765 0
M  V30 620 O 63.7041 -1.89122 -0.252466 0
M  V30 621 C 60.8441 -3.451 0.00445535 0
M  V30 622 C 59.9571 -4.19174 1.04487 0
M  V30 623 C 59.0921 -5.29813 0.383676 0
M  V30 624 C 58.1311 -5.9566 1.4091 0
M  V30 625 N 57.2681 -6.97834 0.772784 0
M  V30 626 H 62.1081 -2.56164 1.52263 0
M  V30 627 H 59.6451 -1.25843 0.761701 0
M  V30 628 H 61.6031 -4.15485 -0.377919 0
M  V30 629 H 60.2331 -3.11472 -0.847652 0
M  V30 630 H 59.2851 -3.47604 1.54518 0
M  V30 631 H 60.5971 -4.64267 1.82368 0
M  V30 632 H 59.7511 -6.06677 -0.0528366 0
M  V30 633 H 58.4901 -4.85825 -0.427208 0
M  V30 634 H 57.4951 -5.17535 1.85574 0
M  V30 635 H 58.7201 -6.4173 2.22171 0
M  V30 636 H 56.6661 -6.55998 -0.0177708 0
M  V30 637 H 56.5831 -7.41186 1.48928 0
M  V30 638 H 57.8511 -7.78665 0.36071 0
M  V30 639 N 62.0802 -0.821533 -1.34494 0
M  V30 640 C 63.3262 -0.409552 -1.98622 0
M  V30 641 C 63.6592 1.0244 -1.64984 0
M  V30 642 O 62.9342 1.71325 -0.920758 0
M  V30 643 C 63.2172 -0.610458 -3.54888 0
M  V30 644 C 63.0702 -2.09043 -3.98273 0
M  V30 645 C 64.3892 -0.0455379 -4.40076 0
M  V30 646 H 61.5082 -0.15028 -0.721516 0
M  V30 647 H 64.1502 -1.03384 -1.59411 0
M  V30 648 H 62.3002 -0.079044 -3.8842 0
M  V30 649 H 63.9722 -2.68537 -3.75081 0
M  V30 650 H 62.2152 -2.58139 -3.48635 0
M  V30 651 H 62.8862 -2.18182 -5.07051 0
M  V30 652 H 65.3622 -0.499557 -4.1309 0
M  V30 653 H 64.2382 -0.215922 -5.48475 0
M  V30 654 H 64.4992 1.04939 -4.29465 0
M  V30 655 N 63.5583 1.46682 -0.576371 0
M  V30 656 C 64.4883 2.33028 0.148397 0
M  V30 657 C 65.4693 1.44961 0.889956 0
M  V30 658 O 66.6543 1.73789 0.866662 0
M  V30 659 C 63.7843 3.27117 1.1667 0
M  V30 660 C 62.7383 4.24575 0.540386 0
M  V30 661 C 62.0643 5.08126 1.6647 0
M  V30 662 C 63.3643 5.19722 -0.518331 0
M  V30 663 H 65.0583 2.93875 -0.572509 0
M  V30 664 H 62.6043 1.41315 -0.276768 0
M  V30 665 H 64.5573 3.86374 1.68204 0
M  V30 666 H 63.2813 2.64364 1.9178 0
M  V30 667 H 61.9403 3.66571 0.0461769 0
M  V30 668 H 61.5883 4.41762 2.40531 0
M  V30 669 H 61.2883 5.74122 1.25131 0
M  V30 670 H 62.8123 5.70246 2.18293 0
M  V30 671 H 64.2263 5.73232 -0.0883058 0
M  V30 672 H 62.6233 5.94026 -0.851679 0
M  V30 673 H 63.6933 4.64037 -1.40703 0
M  V30 674 N 65.0364 0.313813 1.54444 0
M  V30 675 C 66.2824 -0.292108 2.00685 0
M  V30 676 C 66.6154 -1.52548 1.20177 0
M  V30 677 O 65.8904 -1.92452 0.281531 0
M  V30 678 C 66.1734 -0.635968 3.5444 0
M  V30 679 C 66.0264 0.607437 4.4568 0
M  V30 680 C 67.3454 -1.45747 4.15266 0
M  V30 681 H 64.4644 -0.104697 0.729526 0
M  V30 682 H 67.1064 0.428457 1.85106 0
M  V30 683 H 65.2564 -1.24986 3.67846 0
M  V30 684 H 66.9284 1.24581 4.44159 0
M  V30 685 H 65.1714 1.23822 4.15753 0
M  V30 686 H 65.8424 0.322515 5.51057 0
M  V30 687 H 68.3184 -0.938645 4.05375 0
M  V30 688 H 67.1944 -1.66683 5.2298 0
M  V30 689 H 67.4554 -2.45063 3.67963 0
M  V30 690 N 66.5145 -1.57545 0.0417849 0
M  V30 691 C 67.9255 -1.80011 -0.495259 0
M  V30 692 C 68.2765 -0.953199 -1.71489 0
M  V30 693 O 67.4015 -0.167138 -2.15754 0
M  V30 694 C 67.9965 -3.26482 -0.905265 0
M  V30 695 C 66.5555 -3.499 -1.38734 0
M  V30 696 C 65.7025 -2.74979 -0.358056 0
M  V30 697 H 68.6535 -1.56425 0.267736 0
M  V30 698 H 68.6745 -3.36887 -1.76882 0
M  V30 699 H 68.1865 -3.88096 -0.017401 0
M  V30 700 H 66.2875 -2.93553 -2.29471 0
M  V30 701 H 66.4005 -4.58615 -1.38598 0
M  V30 702 H 64.7645 -2.40834 -0.828912 0
M  V30 703 H 65.5475 -3.39315 0.521561 0
M  V30 704 N 67.9926 0.231505 -1.5589 0
M  V30 705 C 68.9406 1.30649 -1.92441 0
M  V30 706 C 69.9346 1.49037 -0.805254 0
M  V30 707 O 71.1406 1.50329 -0.990007 0
M  V30 708 H 67.5156 0.437812 -0.611412 0
M  V30 709 H 69.4866 0.970973 -2.82161 0
M  V30 710 C 68.2356 2.65179 -2.24889 0
M  V30 711 H 67.5586 2.51835 -3.10514 0
M  V30 712 H 68.9986 3.39234 -2.54355 0
M  V30 713 C 67.4576 3.19439 -1.07054 0
M  V30 714 O 67.9876 4.00371 -0.326499 0
M  V30 715 N 66.1936 2.77675 -0.85703 0
M  V30 716 H 65.7406 2.11969 -1.46379 0
M  V30 717 H 65.6986 3.14321 -0.0703223 0
M  V30 718 N 69.4707 1.49531 0.497807 0
M  V30 719 C 70.7187 1.58865 1.24926 0
M  V30 720 C 71.0397 0.278721 1.92998 0
M  V30 721 O 70.3097 -0.702144 1.82885 0
M  V30 722 H 68.8897 0.585343 0.464094 0
M  V30 723 H 71.5517 1.86174 0.57666 0
M  V30 724 H 70.6477 2.38633 2.01149 0
M  V30 725 N 70.9488 -0.749086 1.3866 0
M  V30 726 C 72.1948 -1.51056 1.35314 0
M  V30 727 C 72.5278 -1.94121 -0.0553751 0
M  V30 728 O 71.8028 -1.65763 -1.01749 0
M  V30 729 C 72.0858 -2.76003 2.31288 0
M  V30 730 C 71.9388 -2.39047 3.8102 0
M  V30 731 C 73.2578 -3.78046 2.2532 0
M  V30 732 H 70.3768 -0.547972 0.492844 0
M  V30 733 H 73.0188 -0.857628 1.69543 0
M  V30 734 H 71.1688 -3.31716 2.02229 0
M  V30 735 H 72.8408 -1.89074 4.20771 0
M  V30 736 H 71.0838 -1.71449 3.98482 0
M  V30 737 H 71.7548 -3.28462 4.4364 0
M  V30 738 H 74.2308 -3.31884 2.50983 0
M  V30 739 H 73.1068 -4.63159 2.94576 0
M  V30 740 H 73.3678 -4.23957 1.25352 0
M  V30 741 N 72.4269 -1.23603 -0.977757 0
M  V30 742 C 73.6759 -1.06377 -1.71368 0
M  V30 743 C 73.9889 0.399062 -1.91486 0
M  V30 744 O 75.1949 0.691312 -2.62551 0
M  V30 745 C 73.6509 -1.85512 -3.08404 0
M  V30 746 C 73.2589 -3.36141 -2.96164 0
M  V30 747 C 75.0029 -1.76783 -3.85938 0
M  V30 748 C 72.9099 -4.07659 -4.28449 0
M  V30 749 H 71.8399 -0.394452 -0.642591 0
M  V30 750 H 74.4909 -1.47594 -1.09034 0
M  V30 751 H 72.8729 -1.37103 -3.71509 0
M  V30 752 H 74.0469 -3.92056 -2.42133 0
M  V30 753 H 72.3619 -3.45712 -2.32104 0
M  V30 754 H 74.9589 -2.27526 -4.83876 0
M  V30 755 H 75.3019 -0.731116 -4.0983 0
M  V30 756 H 75.8349 -2.22818 -3.2954 0
M  V30 757 H 72.5739 -5.11648 -4.09752 0
M  V30 758 H 72.0939 -3.5653 -4.82334 0
M  V30 759 H 73.7729 -4.141 -4.97122 0
M  V30 760 N 73.905 1.17692 -1.04816 0
M  V30 761 C 74.852 2.21581 -0.645797 0
M  V30 762 C 75.822 1.62367 0.350159 0
M  V30 763 O 77.007 1.89254 0.242433 0
M  V30 764 C 74.147 3.45092 -0.0227568 0
M  V30 765 C 73.26 4.18613 -1.06709 0
M  V30 766 C 72.395 5.29602 -0.411767 0
M  V30 767 C 71.434 5.94904 -1.44067 0
M  V30 768 N 70.571 6.97414 -0.809781 0
M  V30 769 H 75.411 2.55353 -1.5362 0
M  V30 770 H 72.948 1.25438 -0.768364 0
M  V30 771 H 74.906 4.15679 0.35588 0
M  V30 772 H 73.536 3.11917 0.831122 0
M  V30 773 H 72.588 3.46779 -1.5636 0
M  V30 774 H 73.9 4.63293 -1.84827 0
M  V30 775 H 73.054 6.06696 0.0206623 0
M  V30 776 H 71.793 4.86045 0.401438 0
M  V30 777 H 70.798 5.16544 -1.88316 0
M  V30 778 H 72.023 6.40542 -2.25571 0
M  V30 779 H 69.969 6.55998 -0.0170186 0
M  V30 780 H 69.886 7.40386 -1.52856 0
M  V30 781 H 71.154 7.78463 -0.401999 0
M  V30 782 N 75.3831 0.828654 1.34056 0
M  V30 783 C 76.3311 0.242973 2.31327 0
M  V30 784 C 77.3251 -0.61944 1.57668 0
M  V30 785 O 78.5311 -0.51014 1.7262 0
M  V30 786 H 74.9061 0.059834 0.749616 0
M  V30 787 H 76.8771 1.07809 2.78244 0
M  V30 788 C 75.6261 -0.575733 3.429 0
M  V30 789 H 74.9491 0.0785582 3.99723 0
M  V30 790 H 76.3891 -0.951547 4.13185 0
M  V30 791 C 74.8481 -1.75044 2.87856 0
M  V30 792 O 75.3781 -2.84882 2.83205 0
M  V30 793 N 73.5841 -1.56903 2.44602 0
M  V30 794 H 73.1311 -0.675547 2.48584 0
M  V30 795 H 73.0891 -2.35652 2.08124 0
M  V30 796 N 76.8612 -1.46375 0.584142 0
M  V30 797 C 78.2772 -1.57694 0.245929 0
M  V30 798 C 78.4772 -1.57903 -1.25175 0
M  V30 799 O 77.5332 -1.49676 -2.03355 0
M  V30 800 C 78.8462 -2.87028 0.896402 0
M  V30 801 C 80.3942 -3.00662 0.870127 0
M  V30 802 C 80.8692 -4.32734 1.50017 0
M  V30 803 N 82.3602 -4.39436 1.46458 0
M  V30 804 C 83.0952 -5.40248 1.92144 0
M  V30 805 N 82.5912 -6.47726 2.4581 0
M  V30 806 N 84.3842 -5.31459 1.83052 0
M  V30 807 H 76.5352 -1.44483 1.55687 0
M  V30 808 H 78.7982 -0.689291 0.650831 0
M  V30 809 H 78.5042 -2.9269 1.95002 0
M  V30 810 H 78.3782 -3.75014 0.405486 0
M  V30 811 H 80.7652 -2.94581 -0.174871 0
M  V30 812 H 80.8462 -2.14148 1.39908 0
M  V30 813 H 80.4902 -4.39573 2.54437 0
M  V30 814 H 80.4202 -5.18025 0.946432 0
M  V30 815 H 82.9112 -3.62367 1.07231 0
M  V30 816 H 83.2242 -7.20863 2.78525 0
M  V30 817 H 81.5692 -6.48542 2.49836 0
M  V30 818 H 84.7602 -4.46396 1.40883 0
M  V30 819 H 84.9332 -6.09881 2.18973 0
M  V30 820 N 78.3393 -0.321999 -1.54275 0
M  V30 821 C 79.5883 0.281931 -1.9972 0
M  V30 822 C 79.9013 1.53369 -1.21397 0
M  V30 823 O 81.1073 2.21352 -1.57211 0
M  V30 824 C 79.5633 0.5529 -3.55628 0
M  V30 825 C 79.1713 -0.681721 -4.42783 0
M  V30 826 C 80.9153 1.11687 -4.09544 0
M  V30 827 C 78.8223 -0.382742 -5.9016 0
M  V30 828 H 77.7523 0.109124 -0.746062 0
M  V30 829 H 80.4033 -0.43398 -1.78294 0
M  V30 830 H 78.7853 1.32896 -3.73035 0
M  V30 831 H 79.9593 -1.45723 -4.37151 0
M  V30 832 H 78.2743 -1.1658 -3.99748 0
M  V30 833 H 80.8713 1.35515 -5.17242 0
M  V30 834 H 81.2143 2.06575 -3.61431 0
M  V30 835 H 81.7473 0.402032 -3.95763 0
M  V30 836 H 78.4863 -1.30076 -6.42464 0
M  V30 837 H 78.0063 0.355094 -5.98748 0
M  V30 838 H 79.6853 0.00800157 -6.47 0
M  V30 839 N 79.8174 1.5752 -0.0501392 0
M  V30 840 C 80.7274 2.14952 0.939827 0
M  V30 841 C 81.7434 1.10706 1.34239 0
M  V30 842 O 82.9194 1.42869 1.41952 0
M  V30 843 C 79.9844 2.68232 2.19665 0
M  V30 844 C 79.0454 3.87272 1.85253 0
M  V30 845 C 78.2784 4.38002 3.04943 0
M  V30 846 O 78.5014 3.87811 4.18281 0
M  V30 847 O 77.4354 5.29602 2.86017 0
M  V30 848 H 81.2614 2.9986 0.481392 0
M  V30 849 H 78.8464 1.4841 0.171699 0
M  V30 850 H 80.7284 3.02475 2.93406 0
M  V30 851 H 79.4034 1.86395 2.64648 0
M  V30 852 H 78.3104 3.5792 1.0883 0
M  V30 853 H 79.6434 4.70336 1.4507 0
M  V30 854 N 81.2955 -0.223234 1.56011 0
M  V30 855 C 82.2425 -1.27664 1.92277 0
M  V30 856 C 83.2125 -1.46659 0.779763 0
M  V30 857 O 84.3975 -1.60256 1.03551 0
M  V30 858 C 81.5375 -2.62234 2.24338 0
M  V30 859 C 80.6505 -2.51051 3.51564 0
M  V30 860 C 79.7855 -3.78133 3.7308 0
M  V30 861 C 78.8245 -3.61665 4.93827 0
M  V30 862 N 77.9615 -4.80693 5.11741 0
M  V30 863 H 82.8015 -0.960358 2.82101 0
M  V30 864 H 80.3385 -0.462901 1.39627 0
M  V30 865 H 82.2965 -3.40596 2.40936 0
M  V30 866 H 80.9265 -2.91961 1.3769 0
M  V30 867 H 79.9785 -1.64132 3.43169 0
M  V30 868 H 81.2905 -2.34803 4.40079 0
M  V30 869 H 80.4445 -4.64938 3.89766 0
M  V30 870 H 79.1835 -3.97304 2.82844 0
M  V30 871 H 78.1885 -2.73244 4.77093 0
M  V30 872 H 79.4135 -3.43966 5.85546 0
M  V30 873 H 77.3595 -5.00181 4.24446 0
M  V30 874 H 77.2765 -4.67165 5.94384 0
M  V30 875 H 78.5445 -5.6893 5.3286 0
M  V30 876 N 82.7736 -1.49793 -0.48987 0
M  V30 877 C 83.7036 -1.70201 -1.59856 0
M  V30 878 C 84.6846 -0.55076 -1.60937 0
M  V30 879 O 85.8696 -0.787841 -1.77501 0
M  V30 880 C 82.9996 -1.77882 -2.98287 0
M  V30 881 C 81.9536 -2.92907 -3.12073 0
M  V30 882 C 81.2796 -2.85712 -4.51965 0
M  V30 883 C 82.5796 -4.3369 -2.91051 0
M  V30 884 H 84.2736 -2.63025 -1.43032 0
M  V30 885 H 81.8196 -1.26574 -0.686664 0
M  V30 886 H 83.7726 -1.90744 -3.75759 0
M  V30 887 H 82.4966 -0.816653 -3.16225 0
M  V30 888 H 81.1556 -2.79665 -2.37029 0
M  V30 889 H 80.8036 -1.8738 -4.66795 0
M  V30 890 H 80.5036 -3.62921 -4.62128 0
M  V30 891 H 82.0276 -3.00598 -5.31482 0
M  V30 892 H 83.4416 -4.47555 -3.58284 0
M  V30 893 H 81.8386 -5.12205 -3.12675 0
M  V30 894 H 82.9086 -4.47362 -1.87071 0
M  V30 895 N 84.2517 0.741722 -1.39055 0
M  V30 896 C 85.2147 1.83733 -1.37021 0
M  V30 897 C 86.2147 1.58542 -0.268534 0
M  V30 898 O 87.4047 1.66067 -0.526076 0
M  V30 899 C 84.5367 3.2141 -1.13617 0
M  V30 900 H 85.7297 1.86941 -2.34506 0
M  V30 901 H 83.2827 0.944676 -1.24521 0
M  V30 902 H 84.0177 3.23865 -0.167863 0
M  V30 903 H 83.8027 3.4109 -1.93391 0
M  V30 904 H 85.2927 4.01477 -1.14918 0
M  V30 905 N 85.7298 1.2412 0.971189 0
M  V30 906 C 86.9598 1.10415 1.7462 0
M  V30 907 C 87.3678 -0.346462 1.86001 0
M  V30 908 O 86.7108 -1.25104 1.34517 0
M  V30 909 C 86.7728 1.66596 3.18568 0
M  V30 910 C 86.4368 3.15446 3.3067 0
M  V30 911 C 87.4338 4.12636 3.16271 0
M  V30 912 C 85.1188 3.55337 3.55022 0
M  V30 913 C 87.1128 5.47699 3.26044 0
M  V30 914 C 84.7998 4.90542 3.64434 0
M  V30 915 C 85.7978 5.86532 3.49956 0
M  V30 916 O 85.4858 7.19279 3.59017 0
M  V30 917 H 85.2178 0.386616 0.55453 0
M  V30 918 H 87.7718 1.64633 1.22821 0
M  V30 919 H 86.0018 1.06808 3.71657 0
M  V30 920 H 87.6908 1.48232 3.77865 0
M  V30 921 H 88.4568 3.8316 2.97344 0
M  V30 922 H 84.3358 2.8113 3.65359 0
M  V30 923 H 87.8798 6.22603 3.14661 0
M  V30 924 H 83.7768 5.19691 3.82873 0
M  V30 925 H 84.5448 7.27153 3.75754 0
M  V30 926 N 87.2079 -1.17134 1.05439 0
M  V30 927 C 88.4849 -1.83411 0.679699 0
M  V30 928 C 88.8649 -1.9368 -0.839726 0
M  V30 929 O 88.2129 -1.47325 -1.74664 0
M  V30 930 C 88.4229 -3.20918 1.37159 0
M  V30 931 C 89.7709 -3.96796 1.51123 0
M  V30 932 O 90.7949 -3.30406 1.3308 0
M  V30 933 O 89.6539 -5.15778 1.80651 0
M  V30 934 H 86.7479 -0.79154 0.239569 0
M  V30 935 H 89.2939 -1.24411 1.15413 0
M  V30 936 H 88.0659 -3.08428 2.40807 0
M  V30 937 H 87.6889 -3.87587 0.886674 0
M  V30 938 N 88.686 -0.835752 -1.33615 0
M  V30 939 C 89.935 -0.426289 -1.97144 0
M  V30 940 C 90.248 1.01912 -1.66953 0
M  V30 941 O 91.454 1.53311 -2.24072 0
M  V30 942 C 89.91 -0.711321 -3.52801 0
M  V30 943 C 89.518 -2.1712 -3.91871 0
M  V30 944 C 91.262 -0.368654 -4.22896 0
M  V30 945 C 89.169 -2.40044 -5.40493 0
M  V30 946 H 88.099 -0.15567 -0.737755 0
M  V30 947 H 90.75 -1.0239 -1.52278 0
M  V30 948 H 89.132 -0.0433766 -3.95976 0
M  V30 949 H 90.306 -2.87936 -3.59763 0
M  V30 950 H 88.621 -2.47654 -3.34749 0
M  V30 951 H 91.218 -0.517601 -5.32189 0
M  V30 952 H 91.561 0.688078 -4.10574 0
M  V30 953 H 92.094 -0.991702 -3.8524 0
M  V30 954 H 88.833 -3.44271 -5.57815 0
M  V30 955 H 88.353 -1.73785 -5.74072 0
M  V30 956 H 90.032 -2.23042 -6.0734 0
M  V30 957 N 90.1641 1.46063 -0.591896 0
M  V30 958 C 91.1111 2.30399 0.136069 0
M  V30 959 C 92.0811 1.41169 0.875238 0
M  V30 960 O 93.2661 1.70112 0.86409 0
M  V30 961 C 90.4061 3.25804 1.13781 0
M  V30 962 C 89.5191 4.30134 0.401137 0
M  V30 963 C 88.6541 5.12659 1.39121 0
M  V30 964 C 87.6931 6.0873 0.641462 0
M  V30 965 N 86.8301 6.8409 1.58004 0
M  V30 966 H 91.6701 2.92118 -0.589144 0
M  V30 967 H 89.2071 1.43959 -0.302342 0
M  V30 968 H 91.1651 3.79569 1.73156 0
M  V30 969 H 89.7951 2.65872 1.83062 0
M  V30 970 H 88.8471 3.79152 -0.307826 0
M  V30 971 H 90.1591 4.98458 -0.184565 0
M  V30 972 H 89.3131 5.70747 2.05749 0
M  V30 973 H 88.0521 4.44316 2.01084 0
M  V30 974 H 87.0571 5.49786 -0.0385419 0
M  V30 975 H 88.2821 6.79095 0.0270945 0
M  V30 976 H 86.2281 6.18449 2.18761 0
M  V30 977 H 86.1451 7.48709 1.04738 0
M  V30 978 H 87.4131 7.4673 2.23639 0
M  V30 979 N 91.6422 0.330177 1.54103 0
M  V30 980 C 92.5892 -0.532762 2.24567 0
M  V30 981 C 93.5592 -1.10635 1.23892 0
M  V30 982 O 94.7442 -1.14546 1.5259 0
M  V30 983 C 91.8842 -1.6845 3.01195 0
M  V30 984 C 90.9972 -1.13951 4.167 0
M  V30 985 C 90.1322 -2.25746 4.80845 0
M  V30 986 C 89.1712 -1.6853 5.88442 0
M  V30 987 N 88.3082 -2.74014 6.46421 0
M  V30 988 H 93.1482 0.0746905 2.97906 0
M  V30 989 H 90.6852 0.048632 1.4702 0
M  V30 990 H 92.6432 -2.36234 3.43874 0
M  V30 991 H 91.2732 -2.26314 2.30178 0
M  V30 992 H 90.3252 -0.35301 3.78758 0
M  V30 993 H 91.6372 -0.680892 4.94131 0
M  V30 994 H 90.7912 -3.01422 5.26526 0
M  V30 995 H 89.5302 -2.74947 4.0281 0
M  V30 996 H 88.5352 -0.913543 5.42157 0
M  V30 997 H 89.7602 -1.20198 6.68378 0
M  V30 998 H 87.7062 -3.22494 5.71256 0
M  V30 999 H 87.6232 -2.32735 7.19285 0
M  V30 1000 H 88.8912 -3.49499 6.96757 0
M  V30 1001 N 93.1203 -1.57491 0.0584922 0
M  V30 1002 C 94.3663 -1.93264 -0.614558 0
M  V30 1003 C 94.6993 -0.937717 -1.7006 0
M  V30 1004 O 93.9743 0.0351652 -1.94468 0
M  V30 1005 C 94.2573 -3.3938 -1.20386 0
M  V30 1006 C 94.1103 -4.49625 -0.125375 0
M  V30 1007 C 95.4293 -3.86039 -2.11334 0
M  V30 1008 H 92.5483 -0.702791 -0.221933 0
M  V30 1009 H 95.1903 -1.8961 0.12175 0
M  V30 1010 H 93.3403 -3.42626 -1.83139 0
M  V30 1011 H 95.0123 -4.58506 0.506971 0
M  V30 1012 H 93.2553 -4.30354 0.545672 0
M  V30 1013 H 93.9263 -5.48967 -0.577861 0
M  V30 1014 H 96.4023 -3.84716 -1.58534 0
M  V30 1015 H 95.2783 -4.88914 -2.49507 0
M  V30 1016 H 95.5393 -3.23215 -3.01636 0
M  V30 1017 N 94.5984 0.214957 -1.56127 0
M  V30 1018 C 95.8284 0.953707 -1.8327 0
M  V30 1019 C 96.2364 1.78181 -0.636262 0
M  V30 1020 O 95.5794 1.79191 0.404516 0
M  V30 1021 C 95.6414 1.91516 -3.0424 0
M  V30 1022 C 95.3054 1.27094 -4.38972 0
M  V30 1023 C 96.3024 0.657575 -5.15725 0
M  V30 1024 C 93.9874 1.28073 -4.85698 0
M  V30 1025 C 95.9814 0.0625968 -6.37369 0
M  V30 1026 C 93.6684 0.681914 -6.07283 0
M  V30 1027 C 94.6664 0.0739046 -6.8296 0
M  V30 1028 O 94.3544 -0.515582 -8.02245 0
M  V30 1029 H 94.0864 0.284764 -0.613095 0
M  V30 1030 H 96.6404 0.233283 -2.04071 0
M  V30 1031 H 94.8704 2.67475 -2.79274 0
M  V30 1032 H 96.5594 2.52001 -3.18198 0
M  V30 1033 H 97.3254 0.642288 -4.80728 0
M  V30 1034 H 93.2044 1.74337 -4.26764 0
M  V30 1035 H 96.7484 -0.412593 -6.96379 0
M  V30 1036 H 92.6454 0.694636 -6.41752 0
M  V30 1037 H 93.4134 -0.410544 -8.1747 0
M  V30 1038 N 96.0765 1.50051 0.48192 0
M  V30 1039 C 97.0245 1.68635 1.60203 0
M  V30 1040 C 98.0185 0.552184 1.60148 0
M  V30 1041 O 99.2245 0.732377 1.64427 0
M  V30 1042 H 95.5995 0.532081 0.531407 0
M  V30 1043 H 97.5705 2.62616 1.41688 0
M  V30 1044 C 96.3195 1.78775 2.9822 0
M  V30 1045 H 95.6425 2.6543 2.98976 0
M  V30 1046 H 97.0825 1.95806 3.7608 0
M  V30 1047 C 95.5415 0.536849 3.32595 0
M  V30 1048 O 96.0715 -0.328897 4.00351 0
M  V30 1049 N 94.2775 0.394091 2.87915 0
M  V30 1050 H 93.8245 1.09962 2.32951 0
M  V30 1051 H 93.7825 -0.441737 3.11281 0
M  V30 1052 N 97.5546 -0.734337 1.39446 0
M  V30 1053 C 98.5026 -1.86971 1.38364 0
M  V30 1054 C 99.4966 -1.67288 0.266687 0
M  V30 1055 O 100.703 -1.74621 0.436755 0
M  V30 1056 H 97.0776 -0.615474 0.432082 0
M  V30 1057 H 99.0486 -1.85 2.34132 0
M  V30 1058 C 97.7976 -3.2466 1.24465 0
M  V30 1059 H 97.1206 -3.40402 2.09682 0
M  V30 1060 H 98.5606 -4.04292 1.27764 0
M  V30 1061 C 97.0196 -3.36867 -0.0468674 0
M  V30 1062 O 97.5496 -3.88618 -1.01681 0
M  V30 1063 N 95.7556 -2.90391 -0.110145 0
M  V30 1064 H 95.3026 -2.48466 0.679868 0
M  V30 1065 H 95.2606 -2.98939 -0.973799 0
M  V30 1066 N 99.0327 -1.24633 -0.964593 0
M  V30 1067 C 99.9427 -1.05859 -2.09359 0
M  V30 1068 C 100.959 0.00148855 -1.74 0
M  V30 1069 O 102.135 -0.197346 -2.00431 0
M  V30 1070 C 99.1997 -0.668879 -3.40187 0
M  V30 1071 C 98.2607 -1.80578 -3.89474 0
M  V30 1072 C 97.4937 -1.43457 -5.14058 0
M  V30 1073 O 97.7167 -0.325775 -5.69469 0
M  V30 1074 O 96.6507 -2.2613 -5.57807 0
M  V30 1075 H 100.477 -2.00516 -2.28094 0
M  V30 1076 H 98.0617 -1.03481 -1.0776 0
M  V30 1077 H 99.9437 -0.463211 -4.18846 0
M  V30 1078 H 98.6187 0.248536 -3.22744 0
M  V30 1079 H 97.5257 -2.06623 -3.11862 0
M  V30 1080 H 98.8587 -2.70208 -4.11398 0
M  V30 1081 N 100.511 1.16574 -1.06058 0
M  V30 1082 C 101.421 2.2452 -0.680282 0
M  V30 1083 C 102.437 1.71348 0.302604 0
M  V30 1084 O 103.613 2.00822 0.152513 0
M  V30 1085 C 100.678 3.46629 -0.0700315 0
M  V30 1086 C 99.7388 4.14849 -1.10448 0
M  V30 1087 C 98.9718 5.31129 -0.523256 0
M  V30 1088 O 99.1948 5.66514 0.664709 0
M  V30 1089 O 98.1288 5.88526 -1.26179 0
M  V30 1090 H 101.955 2.59355 -1.58015 0
M  V30 1091 H 99.5398 1.24043 -0.832694 0
M  V30 1092 H 101.422 4.20543 0.268667 0
M  V30 1093 H 100.097 3.13573 0.803353 0
M  V30 1094 H 99.0038 3.42916 -1.49532 0
M  V30 1095 H 100.337 4.51954 -1.94931 0
M  V30 1096 N 101.989 0.842826 1.3317 0
M  V30 1097 C 103.236 0.440447 1.97652 0
M  V30 1098 C 103.564 -1.00123 1.6675 0
M  V30 1099 O 102.819 -1.7155 0.941761 0
M  V30 1100 C 103.118 0.612607 3.52111 0
M  V30 1101 C 102.784 2.02297 4.02972 0
M  V30 1102 C 101.446 2.40874 4.16573 0
M  V30 1103 C 103.798 2.94402 4.30089 0
M  V30 1104 C 101.126 3.70852 4.54627 0
M  V30 1105 C 103.478 4.23865 4.69597 0
M  V30 1106 C 102.142 4.62392 4.81404 0
M  V30 1107 H 101.412 0.161171 0.72326 0
M  V30 1108 H 104.059 1.07061 1.58777 0
M  V30 1109 H 102.364 -0.100849 3.9167 0
M  V30 1110 H 104.061 0.2815 4.00011 0
M  V30 1111 H 100.651 1.71338 3.92863 0
M  V30 1112 H 104.835 2.65835 4.19101 0
M  V30 1113 H 100.091 4.00501 4.61962 0
M  V30 1114 H 104.265 4.95306 4.89536 0
M  V30 1115 H 101.892 5.63154 5.10648 0
M  V30 1116 N 103.467 -1.45747 0.599634 0
M  V30 1117 C 104.417 -2.27538 -0.145107 0
M  V30 1118 C 105.401 -1.3686 -0.846055 0
M  V30 1119 O 106.593 -1.6091 -0.737357 0
M  V30 1120 C 103.722 -3.23569 -1.14708 0
M  V30 1121 C 102.808 -4.21734 -0.447383 0
M  V30 1122 N 103.199 -5.03257 0.506535 0
M  V30 1123 C 101.497 -4.40536 -0.695966 0
M  V30 1124 C 102.198 -5.74426 0.917068 0
M  V30 1125 N 101.174 -5.42966 0.26253 0
M  V30 1126 H 104.976 -2.87965 0.587672 0
M  V30 1127 H 102.49 -1.56803 0.422697 0
M  V30 1128 H 104.487 -3.8089 -1.69495 0
M  V30 1129 H 103.147 -2.64702 -1.8805 0
M  V30 1130 H 104.158 -5.10319 0.882899 0
M  V30 1131 H 100.835 -3.92802 -1.41467 0
M  V30 1132 H 102.225 -6.4995 1.70338 0
M  V30 1133 N 104.945 -0.338344 -1.53925 0
M  V30 1134 C 106.194 0.260732 -2.00008 0
M  V30 1135 C 106.507 1.52073 -1.23017 0
M  V30 1136 O 107.713 2.19672 -1.5955 0
M  V30 1137 C 106.169 0.51515 -3.56194 0
M  V30 1138 C 105.777 -0.728645 -4.42035 0
M  V30 1139 C 107.521 1.07337 -4.10706 0
M  V30 1140 C 105.428 -0.445315 -5.89721 0
M  V30 1141 H 104.358 0.101205 -0.747177 0
M  V30 1142 H 107.009 -0.452866 -1.77824 0
M  V30 1143 H 105.391 1.28932 -3.74423 0
M  V30 1144 H 106.565 -1.50352 -4.35581 0
M  V30 1145 H 104.88 -1.20813 -3.98489 0
M  V30 1146 H 107.477 1.30022 -5.18651 0
M  V30 1147 H 107.82 2.0273 -3.63602 0
M  V30 1148 H 108.353 0.360034 -3.96167 0
M  V30 1149 H 105.092 -1.36883 -6.41049 0
M  V30 1150 H 104.612 0.291569 -5.99091 0
M  V30 1151 H 106.291 -0.0606218 -6.46972 0
M  V30 1152 N 106.423 1.57458 -0.0668435 0
M  V30 1153 C 107.353 2.15468 0.899764 0
M  V30 1154 C 108.334 1.08042 1.31381 0
M  V30 1155 O 109.519 1.36054 1.38574 0
M  V30 1156 C 106.649 2.71232 2.16911 0
M  V30 1157 C 105.603 3.83781 1.89463 0
M  V30 1158 C 104.929 4.26127 3.22986 0
M  V30 1159 C 106.229 5.08238 1.20381 0
M  V30 1160 H 107.923 2.96488 0.416529 0
M  V30 1161 H 105.469 1.4262 0.198908 0
M  V30 1162 H 107.422 3.10458 2.84945 0
M  V30 1163 H 106.146 1.87426 2.67468 0
M  V30 1164 H 104.805 3.45051 1.23836 0
M  V30 1165 H 104.453 3.39249 3.71374 0
M  V30 1166 H 104.153 5.01993 3.05413 0
M  V30 1167 H 105.677 4.67966 3.92225 0
M  V30 1168 H 107.091 5.44811 1.78475 0
M  V30 1169 H 105.488 5.89349 1.13083 0
M  V30 1170 H 106.558 4.84558 0.182153 0
M  V30 1171 N 107.901 -0.206675 1.56239 0
M  V30 1172 C 109.141 -0.93574 1.81723 0
M  V30 1173 C 109.505 -1.80927 0.642609 0
M  V30 1174 O 110.706 -2.57323 0.777081 0
M  V30 1175 C 108.977 -1.74012 3.12177 0
M  V30 1176 S 110.536 -2.52279 3.59028 0
M  V30 1177 H 107.354 -0.314065 0.637875 0
M  V30 1178 H 109.956 -0.200071 1.94474 0
M  V30 1179 H 108.66 -1.0888 3.95693 0
M  V30 1180 H 108.191 -2.51782 3.02274 0
M  V30 1181 H 110.206 -3.76209 3.23545 0
M  V30 1182 N 109.379 -1.50304 -0.473955 0
M  V30 1183 C 110.309 -1.71886 -1.58042 0
M  V30 1184 C 111.29 -0.567799 -1.60344 0
M  V30 1185 O 112.475 -0.806623 -1.76656 0
M  V30 1186 C 109.605 -1.81036 -2.96384 0
M  V30 1187 C 108.559 -2.962 -3.08949 0
M  V30 1188 C 107.885 -2.9049 -4.48909 0
M  V30 1189 C 109.185 -4.36752 -2.86434 0
M  V30 1190 H 110.879 -2.64527 -1.40234 0
M  V30 1191 H 108.425 -1.27295 -0.673201 0
M  V30 1192 H 110.378 -1.94719 -3.73714 0
M  V30 1193 H 109.102 -0.850147 -3.15341 0
M  V30 1194 H 107.761 -2.82164 -2.3405 0
M  V30 1195 H 107.409 -1.92321 -4.64781 0
M  V30 1196 H 107.109 -3.67802 -4.58253 0
M  V30 1197 H 108.633 -3.06218 -5.28264 0
M  V30 1198 H 110.047 -4.5133 -3.53517 0
M  V30 1199 H 108.444 -5.15493 -3.07225 0
M  V30 1200 H 109.514 -4.49321 -1.82316 0
M  V30 1201 N 110.857 0.726932 -1.39834 0
M  V30 1202 C 111.787 1.85405 -1.41941 0
M  V30 1203 C 112.768 1.67751 -0.281728 0
M  V30 1204 O 113.953 1.8795 -0.488717 0
M  V30 1205 C 111.083 3.23243 -1.2701 0
M  V30 1206 C 110.037 3.55549 -2.38262 0
M  V30 1207 C 109.363 4.9241 -2.08415 0
M  V30 1208 C 110.663 3.577 -3.80589 0
M  V30 1209 H 112.357 1.83899 -2.36266 0
M  V30 1210 H 109.903 0.883349 -1.13723 0
M  V30 1211 H 111.856 4.01775 -1.27103 0
M  V30 1212 H 110.58 3.25296 -0.291564 0
M  V30 1213 H 109.239 2.79351 -2.37399 0
M  V30 1214 H 108.887 4.91052 -1.0898 0
M  V30 1215 H 108.587 5.14992 -2.82943 0
M  V30 1216 H 110.111 5.73289 -2.10171 0
M  V30 1217 H 111.525 4.26293 -3.83337 0
M  V30 1218 H 109.922 3.91804 -4.54543 0
M  V30 1219 H 110.992 2.57328 -4.10987 0
M  V30 1220 N 112.336 1.25143 0.95797 0
M  V30 1221 C 113.283 1.05235 2.05412 0
M  V30 1222 C 114.253 -0.0374561 1.66058 0
M  V30 1223 O 115.438 0.119073 1.90428 0
M  V30 1224 C 112.578 0.673589 3.38462 0
M  V30 1225 C 111.691 1.8379 3.90954 0
M  V30 1226 C 110.826 1.40381 5.12315 0
M  V30 1227 C 109.865 2.53746 5.57027 0
M  V30 1228 N 109.002 2.11136 6.69601 0
M  V30 1229 H 113.842 1.99048 2.21774 0
M  V30 1230 H 111.379 0.991277 1.08683 0
M  V30 1231 H 113.337 0.434964 4.14926 0
M  V30 1232 H 111.967 -0.227554 3.21997 0
M  V30 1233 H 111.019 2.18992 3.11041 0
M  V30 1234 H 112.331 2.68937 4.20089 0
M  V30 1235 H 111.485 1.12464 5.96185 0
M  V30 1236 H 110.224 0.523015 4.84887 0
M  V30 1237 H 109.229 2.82412 4.71724 0
M  V30 1238 H 110.454 3.42398 5.86464 0
M  V30 1239 H 108.4 1.25468 6.4389 0
M  V30 1240 H 108.317 2.89832 6.98236 0
M  V30 1241 H 109.585 1.86385 7.56889 0
M  V30 1242 N 113.814 -1.1601 1.06675 0
M  V30 1243 C 115.062 -1.86264 0.784229 0
M  V30 1244 C 115.383 -1.82328 -0.691488 0
M  V30 1245 O 114.653 -1.25947 -1.50047 0
M  V30 1246 H 113.233 -0.689621 0.28711 0
M  V30 1247 H 115.895 -1.40664 1.34906 0
M  V30 1248 H 114.991 -2.91595 1.11259 0
M  V30 1249 N 115.292 -0.849877 -1.32721 0
M  V30 1250 C 116.517 -0.463856 -2.02146 0
M  V30 1251 C 116.942 0.930449 -1.63476 0
M  V30 1252 O 116.3 1.61033 -0.832952 0
M  V30 1253 C 116.348 -0.604955 -3.55489 0
M  V30 1254 O 115.452 0.36425 -4.10788 0
M  V30 1255 H 114.793 -0.187046 -0.637111 0
M  V30 1256 H 117.323 -1.14775 -1.69375 0
M  V30 1257 H 117.333 -0.490696 -4.05038 0
M  V30 1258 H 116.008 -1.62174 -3.82978 0
M  V30 1259 H 114.585 0.206628 -3.72327 0
M  V30 1260 N 116.77 1.45427 -0.607355 0
M  V30 1261 C 118.186 1.57283 -0.270985 0
M  V30 1262 C 118.386 1.59875 1.22647 0
M  V30 1263 O 117.442 1.52893 2.00948 0
M  V30 1264 C 118.755 2.85566 -0.941952 0
M  V30 1265 C 120.303 2.9924 -0.917849 0
M  V30 1266 C 120.778 4.30293 -1.56882 0
M  V30 1267 N 122.269 4.37051 -1.5343 0
M  V30 1268 C 123.004 5.37123 -2.00715 0
M  V30 1269 N 122.5 6.43734 -2.56084 0
M  V30 1270 N 124.293 5.28479 -1.91484 0
M  V30 1271 H 116.444 1.41988 -1.57966 0
M  V30 1272 H 118.707 0.67885 -0.661715 0
M  V30 1273 H 118.413 2.8955 -1.99633 0
M  V30 1274 H 118.287 3.74322 -0.465096 0
M  V30 1275 H 120.674 2.94822 0.127984 0
M  V30 1276 H 120.755 2.11895 -1.43297 0
M  V30 1277 H 120.399 4.35469 -2.61398 0
M  V30 1278 H 120.329 5.16454 -1.02873 0
M  V30 1279 H 122.82 3.60615 -1.12982 0
M  V30 1280 H 123.133 7.16341 -2.89958 0
M  V30 1281 H 121.478 6.44485 -2.60122 0
M  V30 1282 H 124.669 4.44098 -1.47967 0
M  V30 1283 H 124.842 6.0632 -2.28648 0
M  V30 1284 N 118.248 0.346503 1.53744 0
M  V30 1285 C 119.496 -0.248612 2.00565 0
M  V30 1286 C 119.817 -1.5083 1.23593 0
M  V30 1287 O 119.087 -1.92858 0.343912 0
M  V30 1288 H 117.667 -0.0948564 0.740953 0
M  V30 1289 H 120.329 0.468341 1.89189 0
M  V30 1290 H 119.425 -0.488994 3.08245 0
M  V30 1291 N 119.726 -1.57421 0.075193 0
M  V30 1292 C 120.973 -1.93618 -0.593146 0
M  V30 1293 C 121.301 -0.955484 -1.69413 0
M  V30 1294 O 120.556 0.0283251 -1.9568 0
M  V30 1295 C 120.855 -3.36428 -1.20626 0
M  V30 1296 C 120.521 -4.50307 -0.231078 0
M  V30 1297 C 119.183 -4.81186 0.0371936 0
M  V30 1298 C 121.535 -5.19374 0.435888 0
M  V30 1299 C 118.863 -5.78466 0.979461 0
M  V30 1300 C 121.215 -6.17665 1.3665 0
M  V30 1301 C 119.879 -6.46958 1.6432 0
M  V30 1302 H 119.149 -0.708499 -0.217047 0
M  V30 1303 H 121.796 -1.90937 0.146793 0
M  V30 1304 H 120.101 -3.35592 -2.02201 0
M  V30 1305 H 121.798 -3.61727 -1.73073 0
M  V30 1306 H 118.388 -4.26227 -0.450357 0
M  V30 1307 H 122.572 -4.95711 0.241748 0
M  V30 1308 H 117.828 -5.99487 1.20106 0
M  V30 1309 H 122.002 -6.70284 1.88924 0
M  V30 1310 H 119.629 -7.2215 2.37494 0
M  V30 1311 N 121.204 0.198386 -1.56346 0
M  V30 1312 C 122.451 0.919286 -1.80431 0
M  V30 1313 C 122.779 1.83393 -0.647866 0
M  V30 1314 O 122.034 1.92236 0.366556 0
M  V30 1315 C 122.333 1.77031 -3.10475 0
M  V30 1316 C 121.999 1.00693 -4.39513 0
M  V30 1317 C 120.661 0.796145 -4.74568 0
M  V30 1318 C 123.013 0.469559 -5.19081 0
M  V30 1319 C 120.341 0.0364588 -5.86689 0
M  V30 1320 C 122.693 -0.2769 -6.31994 0
M  V30 1321 C 121.357 -0.49873 -6.65634 0
M  V30 1322 H 120.627 0.336391 -0.660244 0
M  V30 1323 H 123.274 0.185872 -1.90596 0
M  V30 1324 H 121.579 2.5723 -2.95533 0
M  V30 1325 H 123.276 2.33065 -3.26315 0
M  V30 1326 H 119.866 1.18122 -4.12001 0
M  V30 1327 H 124.05 0.619816 -4.92414 0
M  V30 1328 H 119.306 -0.145412 -6.11227 0
M  V30 1329 H 123.48 -0.700684 -6.92866 0
M  V30 1330 H 121.107 -1.0893 -7.52355 0
M  V30 1331 N 122.682 1.50554 0.465978 0
M  V30 1332 C 123.91 1.65563 1.24083 0
M  V30 1333 C 124.325 0.341051 1.85694 0
M  V30 1334 O 123.682 -0.677543 1.69457 0
M  V30 1335 C 123.733 2.75051 2.34583 0
M  V30 1336 O 123.454 4.01413 1.75497 0
M  V30 1337 C 124.955 3.01078 3.25372 0
M  V30 1338 H 122.175 0.55638 0.375077 0
M  V30 1339 H 124.719 1.96807 0.555624 0
M  V30 1340 H 122.874 2.46486 2.9887 0
M  V30 1341 H 123.288 4.62002 2.48303 0
M  V30 1342 H 124.762 3.81339 3.99105 0
M  V30 1343 H 125.239 2.12349 3.84453 0
M  V30 1344 H 125.845 3.31194 2.66816 0
M  V30 1345 N 124.16 -0.719506 1.40217 0
M  V30 1346 C 125.123 -1.8153 1.39927 0
M  V30 1347 C 126.123 -1.58095 0.293723 0
M  V30 1348 O 127.313 -1.65209 0.552429 0
M  V30 1349 C 124.445 -3.19561 1.18716 0
M  V30 1350 H 125.638 -1.83186 2.37451 0
M  V30 1351 H 123.191 -0.924746 1.26008 0
M  V30 1352 H 123.926 -3.23557 0.219366 0
M  V30 1353 H 123.711 -3.3797 1.98793 0
M  V30 1354 H 125.201 -3.99598 1.21291 0
M  V30 1355 N 125.638 -1.25649 -0.95132 0
M  V30 1356 C 126.568 -1.08808 -2.06599 0
M  V30 1357 C 127.549 0.00382547 -1.701 0
M  V30 1358 O 128.734 -0.166325 -1.93486 0
M  V30 1359 C 125.864 -0.709542 -3.39975 0
M  V30 1360 C 124.818 -1.75206 -3.90496 0
M  V30 1361 C 124.144 -1.22811 -5.20405 0
M  V30 1362 C 125.444 -3.15153 -4.16504 0
M  V30 1363 H 127.138 -2.02048 -2.20946 0
M  V30 1364 H 124.684 -0.972835 -1.06169 0
M  V30 1365 H 126.637 -0.578649 -4.17408 0
M  V30 1366 H 125.361 0.258556 -3.25575 0
M  V30 1367 H 124.02 -1.87145 -3.15234 0
M  V30 1368 H 123.668 -0.250145 -5.02378 0
M  V30 1369 H 123.368 -1.92492 -5.55176 0
M  V30 1370 H 124.892 -1.10968 -6.00432 0
M  V30 1371 H 126.306 -3.06349 -4.84586 0
M  V30 1372 H 124.703 -3.82333 -4.62538 0
M  V30 1373 H 125.773 -3.61966 -3.22658 0
M  V30 1374 N 127.117 1.15442 -1.07289 0
M  V30 1375 C 128.047 2.22312 -0.714107 0
M  V30 1376 C 129.028 1.67467 0.298155 0
M  V30 1377 O 130.213 1.93445 0.171048 0
M  V30 1378 C 127.343 3.47124 -0.110448 0
M  V30 1379 C 126.297 4.14926 -1.04979 0
M  V30 1380 C 125.623 5.33807 -0.308924 0
M  V30 1381 C 126.923 4.64762 -2.38314 0
M  V30 1382 H 128.617 2.5258 -1.6076 0
M  V30 1383 H 126.163 1.21404 -0.77441 0
M  V30 1384 H 128.116 4.21124 0.152482 0
M  V30 1385 H 126.84 3.16187 0.81812 0
M  V30 1386 H 125.499 3.42866 -1.29764 0
M  V30 1387 H 125.147 4.99126 0.623084 0
M  V30 1388 H 124.847 5.80113 -0.935036 0
M  V30 1389 H 126.371 6.10576 -0.0537771 0
M  V30 1390 H 127.785 5.30292 -2.1786 0
M  V30 1391 H 126.182 5.21728 -2.96514 0
M  V30 1392 H 127.252 3.80434 -3.00663 0
M  V30 1393 N 128.595 0.856903 1.32268 0
M  V30 1394 C 129.542 0.301172 2.28827 0
M  V30 1395 C 130.512 -0.593104 1.5515 0
M  V30 1396 O 131.697 -0.527537 1.83362 0
M  V30 1397 C 128.837 -0.502523 3.41422 0
M  V30 1398 C 127.95 0.417797 4.29975 0
M  V30 1399 C 127.085 -0.398749 5.29701 0
M  V30 1400 C 126.124 0.518827 6.09897 0
M  V30 1401 N 125.261 -0.260674 7.01616 0
M  V30 1402 H 130.101 1.12983 2.75751 0
M  V30 1403 H 127.638 0.568582 1.35667 0
M  V30 1404 H 129.596 -0.984141 4.05426 0
M  V30 1405 H 128.226 -1.29599 2.95642 0
M  V30 1406 H 127.278 1.01781 3.66531 0
M  V30 1407 H 128.59 1.12191 4.86019 0
M  V30 1408 H 127.744 -0.943435 5.9932 0
M  V30 1409 H 126.483 -1.13622 4.7428 0
M  V30 1410 H 125.488 1.07538 5.39181 0
M  V30 1411 H 126.713 1.25495 6.67404 0
M  V30 1412 H 124.659 -0.981198 6.4862 0
M  V30 1413 H 124.576 0.384364 7.55022 0
M  V30 1414 H 125.844 -0.787014 7.75517 0
M  V30 1415 N 130.073 -1.45103 0.615059 0
M  V30 1416 C 131.023 -2.27679 -0.120966 0
M  V30 1417 C 132.007 -1.3775 -0.831491 0
M  V30 1418 O 133.199 -1.61683 -0.720249 0
M  V30 1419 C 130.328 -3.24767 -1.1127 0
M  V30 1420 C 129.414 -4.22184 -0.402627 0
M  V30 1421 N 129.805 -5.02692 0.559884 0
M  V30 1422 C 128.103 -4.4125 -0.649202 0
M  V30 1423 C 128.804 -5.73421 0.977942 0
M  V30 1424 N 127.78 -5.42657 0.320104 0
M  V30 1425 H 131.582 -2.87325 0.618181 0
M  V30 1426 H 129.096 -1.56345 0.439304 0
M  V30 1427 H 131.093 -3.82666 -1.65446 0
M  V30 1428 H 129.753 -2.66682 -1.85232 0
M  V30 1429 H 130.764 -5.09354 0.936976 0
M  V30 1430 H 127.441 -3.9428 -1.37293 0
M  V30 1431 H 128.831 -6.48107 1.77222 0
M  V30 1432 N 131.551 -0.354651 -1.53558 0
M  V30 1433 C 132.481 0.489091 -2.2832 0
M  V30 1434 C 133.462 1.09324 -1.30316 0
M  V30 1435 O 134.647 1.11255 -1.59173 0
M  V30 1436 C 131.777 1.63456 -3.0643 0
M  V30 1437 C 130.731 1.1582 -4.12031 0
M  V30 1438 C 130.057 2.39305 -4.7816 0
M  V30 1439 C 131.357 0.250731 -5.21698 0
M  V30 1440 H 133.051 -0.134614 -2.99097 0
M  V30 1441 H 130.597 -0.0661826 -1.43848 0
M  V30 1442 H 132.55 2.23136 -3.57475 0
M  V30 1443 H 131.274 2.28533 -2.33325 0
M  V30 1444 H 129.933 0.584146 -3.61916 0
M  V30 1445 H 129.581 3.02814 -4.01637 0
M  V30 1446 H 129.281 2.08109 -5.49513 0
M  V30 1447 H 130.805 2.99691 -5.31994 0
M  V30 1448 H 132.219 0.754695 -5.68311 0
M  V30 1449 H 130.616 0.0301468 -6.00092 0
M  V30 1450 H 131.686 -0.710125 -4.79672 0
M  V30 1451 N 133.029 1.57378 -0.0835403 0
M  V30 1452 C 134.254 1.98682 0.594987 0
M  V30 1453 C 134.679 0.961969 1.61641 0
M  V30 1454 O 134.037 -0.0709989 1.81161 0
M  V30 1455 C 134.085 3.38988 1.2296 0
M  V30 1456 O 133.189 3.39208 2.34546 0
M  V30 1457 H 132.53 0.646368 0.152002 0
M  V30 1458 H 135.06 2.03961 -0.161533 0
M  V30 1459 H 135.07 3.76431 1.57366 0
M  V30 1460 H 133.745 4.13107 0.481228 0
M  V30 1461 H 132.322 3.13548 2.01846 0
M  V30 1462 N 134.507 -0.190092 1.56449 0
M  V30 1463 C 135.923 -0.54113 1.50146 0
M  V30 1464 C 136.123 -1.85603 0.784465 0
M  V30 1465 O 135.179 -2.5024 0.337051 0
M  V30 1466 C 136.492 -0.591241 2.9483 0
M  V30 1467 C 138.04 -0.679732 3.0553 0
M  V30 1468 C 138.515 -0.760908 4.51635 0
M  V30 1469 N 140.006 -0.824302 4.55806 0
M  V30 1470 C 140.741 -0.907365 5.66175 0
M  V30 1471 N 140.237 -0.952422 6.86222 0
M  V30 1472 N 142.03 -0.94494 5.541 0
M  V30 1473 H 134.181 0.67235 2.01478 0
M  V30 1474 H 136.444 0.240127 0.917084 0
M  V30 1475 H 136.15 0.305905 3.50367 0
M  V30 1476 H 136.024 -1.44422 3.48457 0
M  V30 1477 H 138.411 -1.56731 2.50039 0
M  V30 1478 H 138.492 0.199549 2.5502 0
M  V30 1479 H 138.136 0.122336 5.07753 0
M  V30 1480 H 138.066 -1.65606 4.99882 0
M  V30 1481 H 140.557 -0.798526 3.69367 0
M  V30 1482 H 140.87 -1.01645 7.66086 0
M  V30 1483 H 139.215 -0.921014 6.8887 0
M  V30 1484 H 142.406 -0.906612 4.59236 0
M  V30 1485 H 142.579 -1.00622 6.4014 0
M  V30 1486 N 135.985 -1.50799 -0.457987 0
M  V30 1487 C 137.234 -1.6168 -1.20593 0
M  V30 1488 C 137.547 -0.32888 -1.92815 0
M  V30 1489 O 138.753 -0.316773 -2.69646 0
M  V30 1490 C 137.209 -2.8545 -2.19195 0
M  V30 1491 C 136.817 -4.21168 -1.52715 0
M  V30 1492 C 138.561 -3.05681 -2.94549 0
M  V30 1493 C 136.468 -5.3611 -2.4968 0
M  V30 1494 H 135.398 -0.602134 -0.453818 0
M  V30 1495 H 138.049 -1.77245 -0.475031 0
M  V30 1496 H 136.431 -2.63472 -2.95632 0
M  V30 1497 H 137.605 -4.53449 -0.819775 0
M  V30 1498 H 135.92 -4.06648 -0.895922 0
M  V30 1499 H 138.517 -3.88727 -3.67145 0
M  V30 1500 H 138.86 -2.17929 -3.54701 0
M  V30 1501 H 139.393 -3.27901 -2.25223 0
M  V30 1502 H 136.132 -6.26057 -1.94249 0
M  V30 1503 H 135.652 -5.0823 -3.18532 0
M  V30 1504 H 137.331 -5.6722 -3.11241 0
M  V30 1505 N 137.463 0.71206 -1.40597 0
M  V30 1506 C 138.413 1.81783 -1.37619 0
M  V30 1507 C 139.397 1.58896 -0.253162 0
M  V30 1508 O 140.589 1.70009 -0.492547 0
M  V30 1509 C 137.718 3.19944 -1.24462 0
M  V30 1510 C 136.804 3.48582 -2.4156 0
M  V30 1511 N 137.195 3.48016 -3.67041 0
M  V30 1512 C 135.493 3.79056 -2.35016 0
M  V30 1513 C 136.194 3.75096 -4.44609 0
M  V30 1514 N 135.17 3.94022 -3.74497 0
M  V30 1515 H 138.972 1.79683 -2.32575 0
M  V30 1516 H 136.486 0.91134 -1.34419 0
M  V30 1517 H 138.483 3.99133 -1.20411 0
M  V30 1518 H 137.143 3.23267 -0.304762 0
M  V30 1519 H 138.154 3.28782 -4.00153 0
M  V30 1520 H 134.831 3.89848 -1.49415 0
M  V30 1521 H 136.221 3.80934 -5.53479 0
M  V30 1522 N 138.941 1.26152 0.944643 0
M  V30 1523 C 139.889 1.07215 2.06417 0
M  V30 1524 C 140.883 9.2007e-05 1.694 0
M  V30 1525 O 142.089 0.1565 1.79318 0
M  V30 1526 H 138.464 0.329837 0.675805 0
M  V30 1527 H 140.435 2.02099 2.19541 0
M  V30 1528 C 139.184 0.718197 3.40202 0
M  V30 1529 H 138.507 1.53497 3.69159 0
M  V30 1530 H 139.947 0.625459 4.19361 0
M  V30 1531 C 138.406 -0.576435 3.31932 0
M  V30 1532 O 138.936 -1.61574 3.67773 0
M  V30 1533 N 137.142 -0.565781 2.85039 0
M  V30 1534 H 136.689 0.280367 2.5607 0
M  V30 1535 H 136.647 -1.43213 2.79888 0
M  V30 1536 N 140.419 -1.14872 1.07899 0
M  V30 1537 C 141.649 -1.89386 0.825631 0
M  V30 1538 C 142.057 -1.78565 -0.625406 0
M  V30 1539 O 141.4 -1.13918 -1.44113 0
M  V30 1540 C 141.462 -3.40206 1.16191 0
M  V30 1541 C 141.126 -3.74812 2.61467 0
M  V30 1542 C 142.123 -3.75367 3.59716 0
M  V30 1543 C 139.808 -4.0495 2.97189 0
M  V30 1544 C 141.802 -4.05574 4.9172 0
M  V30 1545 C 139.489 -4.34821 4.29388 0
M  V30 1546 C 140.487 -4.35116 5.26463 0
M  V30 1547 O 140.175 -4.64267 6.56286 0
M  V30 1548 H 139.907 -0.606894 0.297751 0
M  V30 1549 H 142.461 -1.46438 1.44031 0
M  V30 1550 H 140.691 -3.8358 0.490214 0
M  V30 1551 H 142.38 -3.96018 0.890193 0
M  V30 1552 H 143.146 -3.52176 3.33462 0
M  V30 1553 H 139.025 -4.03876 2.22273 0
M  V30 1554 H 142.569 -4.05719 5.67484 0
M  V30 1555 H 138.466 -4.5748 4.55392 0
M  V30 1556 H 139.234 -4.82007 6.61522 0
M  V30 1557 N 141.898 -0.863906 -1.31812 0
M  V30 1558 C 143.123 -0.48527 -2.01643 0
M  V30 1559 C 143.548 0.913058 -1.64453 0
M  V30 1560 O 142.906 1.6014 -0.849985 0
M  V30 1561 C 142.954 -0.642625 -3.54828 0
M  V30 1562 O 142.058 0.320659 -4.11151 0
M  V30 1563 H 141.399 -0.193793 -0.635091 0
M  V30 1564 H 143.929 -1.16565 -1.68148 0
M  V30 1565 H 143.939 -0.533628 -4.04495 0
M  V30 1566 H 142.614 -1.66227 -3.81237 0
M  V30 1567 H 141.191 0.167126 -3.72525 0
M  V30 1568 N 143.376 1.44774 -0.622745 0
M  V30 1569 C 144.339 2.29069 0.0774015 0
M  V30 1570 C 145.339 1.4059 0.780461 0
M  V30 1571 O 146.529 1.62551 0.626322 0
M  V30 1572 C 143.661 3.21974 1.12006 0
M  V30 1573 H 144.854 2.92459 -0.663901 0
M  V30 1574 H 142.407 1.51548 -0.382486 0
M  V30 1575 H 143.142 2.63417 1.89162 0
M  V30 1576 H 142.927 3.87168 0.619951 0
M  V30 1577 H 144.417 3.85318 1.60995 0
M  V30 1578 N 144.854 0.36279 1.53368 0
M  V30 1579 C 146.1 -0.228113 2.01513 0
M  V30 1580 C 146.433 -1.48648 1.2497 0
M  V30 1581 O 145.708 -1.91459 0.342616 0
M  V30 1582 C 145.991 -0.522884 3.56284 0
M  V30 1583 C 145.844 0.74892 4.43521 0
M  V30 1584 C 147.163 -1.32461 4.19693 0
M  V30 1585 H 144.282 -0.0814343 0.732487 0
M  V30 1586 H 146.924 0.48713 1.83649 0
M  V30 1587 H 145.074 -1.1322 3.71636 0
M  V30 1588 H 146.746 1.38648 4.39971 0
M  V30 1589 H 144.989 1.36986 4.11603 0
M  V30 1590 H 145.66 0.497667 5.49752 0
M  V30 1591 H 148.136 -0.809203 4.08156 0
M  V30 1592 H 147.012 -1.49961 5.28018 0
M  V30 1593 H 147.273 -2.33232 3.75573 0
M  V30 1594 N 146.332 -1.57332 0.0918853 0
M  V30 1595 C 147.242 -2.17368 -0.882505 0
M  V30 1596 C 148.258 -1.14226 -1.31257 0
M  V30 1597 O 149.434 -1.46582 -1.38115 0
M  V30 1598 C 146.499 -2.73962 -2.12476 0
M  V30 1599 C 145.56 -3.92048 -1.7492 0
M  V30 1600 C 144.793 -4.45933 -2.93223 0
M  V30 1601 O 145.016 -3.98764 -4.07852 0
M  V30 1602 O 143.95 -5.36999 -2.71875 0
M  V30 1603 H 147.776 -3.01031 -0.40172 0
M  V30 1604 H 145.361 -1.48813 -0.132291 0
M  V30 1605 H 147.243 -3.10147 -2.85283 0
M  V30 1606 H 145.918 -1.93347 -2.59613 0
M  V30 1607 H 144.825 -3.6068 -0.993025 0
M  V30 1608 H 146.158 -4.74017 -1.32548 0
M  V30 1609 N 147.81 0.181792 -1.56548 0
M  V30 1610 C 149.038 0.915947 -1.85521 0
M  V30 1611 C 149.453 1.76282 -0.676016 0
M  V30 1612 O 148.81 1.79012 0.355077 0
M  V30 1613 C 148.861 1.80126 -3.13427 0
M  V30 1614 O 148.582 0.988562 -4.26801 0
M  V30 1615 C 150.083 2.64597 -3.55673 0
M  V30 1616 H 147.303 0.26661 -0.61576 0
M  V30 1617 H 149.847 0.185039 -2.03661 0
M  V30 1618 H 148.002 2.48563 -2.97145 0
M  V30 1619 H 148.416 1.59308 -4.99721 0
M  V30 1620 H 149.89 3.2235 -4.48101 0
M  V30 1621 H 150.367 3.38958 -2.79292 0
M  V30 1622 H 150.973 2.0151 -3.74532 0
M  V30 1623 N 149.288 1.51039 0.449983 0
M  V30 1624 C 150.513 1.6715 1.22783 0
M  V30 1625 C 150.938 0.363081 1.84563 0
M  V30 1626 O 150.296 -0.675433 1.68249 0
M  V30 1627 C 150.344 2.77985 2.29689 0
M  V30 1628 O 149.448 2.40707 3.34864 0
M  V30 1629 H 148.789 0.557746 0.360299 0
M  V30 1630 H 151.319 1.97535 0.533005 0
M  V30 1631 H 151.329 3.01693 2.74673 0
M  V30 1632 H 150.004 3.72935 1.84098 0
M  V30 1633 H 148.581 2.27523 2.95445 0
M  V30 1634 N 150.766 -0.704594 1.40972 0
M  V30 1635 C 151.713 -1.81862 1.42109 0
M  V30 1636 C 152.683 -1.63781 0.276593 0
M  V30 1637 O 153.868 -1.84759 0.4763 0
M  V30 1638 C 151.008 -3.19669 1.30022 0
M  V30 1639 C 150.121 -3.49246 2.54267 0
M  V30 1640 C 149.256 -4.76618 2.3454 0
M  V30 1641 C 148.295 -4.99133 3.54306 0
M  V30 1642 N 147.432 -6.17726 3.33706 0
M  V30 1643 H 152.272 -1.80226 2.37324 0
M  V30 1644 H 149.809 -0.880238 1.17857 0
M  V30 1645 H 151.767 -3.99263 1.21018 0
M  V30 1646 H 150.397 -3.20506 0.384192 0
M  V30 1647 H 149.449 -2.64125 2.73756 0
M  V30 1648 H 150.761 -3.61788 3.43381 0
M  V30 1649 H 149.915 -5.64249 2.22952 0
M  V30 1650 H 148.654 -4.66305 1.42867 0
M  V30 1651 H 147.659 -4.09953 3.66359 0
M  V30 1652 H 148.884 -5.11311 4.4692 0
M  V30 1653 H 146.83 -6.08642 2.44725 0
M  V30 1654 H 146.747 -6.30995 4.16391 0
M  V30 1655 H 148.015 -7.08115 3.25873 0
M  V30 1656 N 152.244 -1.26651 -0.937939 0
M  V30 1657 C 153.655 -1.1125 -1.49934 0
M  V30 1658 C 154.006 0.306077 -1.93798 0
M  V30 1659 O 153.131 1.19792 -1.80219 0
M  V30 1660 C 153.726 -2.01339 -2.72485 0
M  V30 1661 C 152.285 -1.90074 -3.24883 0
M  V30 1662 C 151.432 -1.94498 -1.97651 0
M  V30 1663 H 154.383 -1.39693 -0.753091 0
M  V30 1664 H 154.404 -1.56319 -3.46907 0
M  V30 1665 H 153.916 -3.04577 -2.40529 0
M  V30 1666 H 152.017 -0.897827 -3.61621 0
M  V30 1667 H 152.13 -2.75778 -3.9177 0
M  V30 1668 H 150.494 -1.38591 -2.13693 0
M  V30 1669 H 151.277 -2.99372 -1.68022 0
M  V30 1670 N 153.722 1.14298 -1.08507 0
M  V30 1671 C 154.652 2.21542 -0.737646 0
M  V30 1672 C 155.633 1.67773 0.280377 0
M  V30 1673 O 156.818 1.93616 0.150521 0
M  V30 1674 C 153.948 3.46988 -0.147259 0
M  V30 1675 C 152.902 4.13789 -1.09374 0
M  V30 1676 C 152.228 5.33449 -0.365524 0
M  V30 1677 C 153.528 4.62208 -2.4323 0
M  V30 1678 H 155.222 2.5086 -1.6343 0
M  V30 1679 H 152.768 1.20576 -0.787243 0
M  V30 1680 H 154.721 4.21262 0.107808 0
M  V30 1681 H 153.445 3.17037 0.784538 0
M  V30 1682 H 152.104 3.4147 -1.33393 0
M  V30 1683 H 151.752 4.99759 0.57011 0
M  V30 1684 H 151.452 5.79088 -0.996512 0
M  V30 1685 H 152.976 6.10485 -0.118534 0
M  V30 1686 H 154.39 5.27952 -2.23472 0
M  V30 1687 H 152.787 5.18553 -3.02031 0
M  V30 1688 H 153.857 3.77224 -3.04681 0
M  V30 1689 N 155.201 0.870884 1.31352 0
M  V30 1690 C 156.448 0.482273 1.96673 0
M  V30 1691 C 156.776 -0.965638 1.68836 0
M  V30 1692 O 156.031 -1.69514 0.977937 0
M  V30 1693 C 156.33 0.687157 3.50732 0
M  V30 1694 C 155.996 2.108 3.9859 0
M  V30 1695 C 154.658 2.49656 4.1137 0
M  V30 1696 C 157.01 3.03459 4.23748 0
M  V30 1697 C 154.338 3.80412 4.46659 0
M  V30 1698 C 156.69 4.3373 4.60501 0
M  V30 1699 C 155.354 4.725 4.71487 0
M  V30 1700 H 154.624 0.176476 0.719679 0
M  V30 1701 H 157.271 1.10405 1.56471 0
M  V30 1702 H 155.576 -0.0177476 3.91796 0
M  V30 1703 H 157.273 0.366284 3.99324 0
M  V30 1704 H 153.863 1.79633 3.8914 0
M  V30 1705 H 158.047 2.74665 4.13368 0
M  V30 1706 H 153.303 4.1021 4.53362 0
M  V30 1707 H 157.477 5.05578 4.78919 0
M  V30 1708 H 155.104 5.73859 4.98588 0
M  V30 1709 N 156.679 -1.44442 0.630414 0
M  V30 1710 C 157.927 -2.01653 0.134351 0
M  V30 1711 C 158.248 -1.49836 -1.24796 0
M  V30 1712 O 157.518 -0.701684 -1.82902 0
M  V30 1713 H 156.098 -0.74554 0.0466769 0
M  V30 1714 H 158.76 -1.76952 0.816955 0
M  V30 1715 H 157.856 -3.11935 0.101498 0
M  V30 1716 N 158.157 -0.370918 -1.53173 0
M  V30 1717 C 159.067 0.480823 -2.2962 0
M  V30 1718 C 160.083 1.08789 -1.35798 0
M  V30 1719 O 161.259 1.09768 -1.68858 0
M  V30 1720 C 158.324 1.60227 -3.07454 0
M  V30 1721 C 157.385 1.0222 -4.16953 0
M  V30 1722 C 156.618 2.0902 -4.91066 0
M  V30 1723 O 156.841 3.30222 -4.65091 0
M  V30 1724 O 155.775 1.71778 -5.76867 0
M  V30 1725 H 159.601 -0.141421 -3.03371 0
M  V30 1726 H 157.186 -0.135146 -1.48787 0
M  V30 1727 H 159.068 2.25417 -3.56041 0
M  V30 1728 H 157.743 2.20982 -2.36535 0
M  V30 1729 H 156.65 0.334064 -3.72605 0
M  V30 1730 H 157.983 0.459131 -4.90054 0
M  V30 1731 N 159.635 1.57281 -0.100228 0
M  V30 1732 C 160.585 2.10848 0.86759 0
M  V30 1733 C 161.569 1.02473 1.24049 0
M  V30 1734 O 162.761 1.28739 1.21471 0
M  V30 1735 C 159.89 2.69648 2.12474 0
M  V30 1736 C 158.976 3.85074 1.77704 0
M  V30 1737 N 159.367 4.92897 1.13518 0
M  V30 1738 C 157.665 3.94905 2.07282 0
M  V30 1739 C 158.366 5.73475 0.974735 0
M  V30 1740 N 157.342 5.22675 1.4937 0
M  V30 1741 H 161.144 2.91594 0.367471 0
M  V30 1742 H 158.658 1.62074 0.102829 0
M  V30 1743 H 160.655 3.06356 2.82757 0
M  V30 1744 H 159.315 1.90359 2.63047 0
M  V30 1745 H 160.326 5.11662 0.801381 0
M  V30 1746 H 157.003 3.26633 2.60033 0
M  V30 1747 H 158.393 6.70238 0.472364 0
M  V30 1748 N 161.113 -0.173488 1.56642 0
M  V30 1749 C 162.343 -0.904781 1.85734 0
M  V30 1750 C 162.751 -1.76431 0.68328 0
M  V30 1751 O 162.094 -1.802 -0.356865 0
M  V30 1752 C 162.156 -1.83382 3.09211 0
M  V30 1753 C 161.82 -1.15411 4.42187 0
M  V30 1754 C 162.817 -0.520609 5.17287 0
M  V30 1755 C 160.502 -1.15151 4.88923 0
M  V30 1756 C 162.496 0.106412 6.37311 0
M  V30 1757 C 160.183 -0.520664 6.08878 0
M  V30 1758 C 161.181 0.107196 6.82916 0
M  V30 1759 O 160.869 0.728102 8.00596 0
M  V30 1760 H 160.601 -0.268408 0.62043 0
M  V30 1761 H 163.155 -0.179096 2.04618 0
M  V30 1762 H 161.385 -2.59976 2.86268 0
M  V30 1763 H 163.074 -2.43476 3.24768 0
M  V30 1764 H 163.84 -0.514606 4.82262 0
M  V30 1765 H 159.719 -1.62961 4.31236 0
M  V30 1766 H 163.263 0.597081 6.9504 0
M  V30 1767 H 159.16 -0.524242 6.43368 0
M  V30 1768 H 159.928 0.627138 8.16094 0
M  V30 1769 N 162.591 -1.51276 -0.441967 0
M  V30 1770 C 163.837 -1.63958 -1.19355 0
M  V30 1771 C 164.17 -0.352543 -1.90973 0
M  V30 1772 O 163.445 0.647627 -1.83401 0
M  V30 1773 C 163.728 -2.83979 -2.21422 0
M  V30 1774 C 163.581 -4.22646 -1.53918 0
M  V30 1775 C 164.9 -2.99521 -3.22451 0
M  V30 1776 H 162.019 -0.596709 -0.432559 0
M  V30 1777 H 164.661 -1.83748 -0.483398 0
M  V30 1778 H 162.811 -2.67237 -2.81987 0
M  V30 1779 H 164.483 -4.51045 -0.967256 0
M  V30 1780 H 162.726 -4.25558 -0.841615 0
M  V30 1781 H 163.397 -5.02609 -2.28229 0
M  V30 1782 H 165.873 -3.14944 -2.71937 0
M  V30 1783 H 164.749 -3.85072 -3.91166 0
M  V30 1784 H 165.01 -2.11391 -3.88287 0
M  V30 1785 N 164.069 0.697108 -1.41344 0
M  V30 1786 C 165.485 1.00751 -1.2378 0
M  V30 1787 C 165.685 2.01105 -0.126066 0
M  V30 1788 O 164.741 2.47295 0.51004 0
M  V30 1789 C 166.054 1.53359 -2.58653 0
M  V30 1790 C 167.602 1.6525 -2.65822 0
M  V30 1791 C 168.077 2.2126 -4.01009 0
M  V30 1792 N 169.568 2.28622 -4.02847 0
M  V30 1793 C 170.303 2.72984 -5.04249 0
M  V30 1794 N 169.799 3.16962 -6.16041 0
M  V30 1795 N 171.592 2.72534 -4.91611 0
M  V30 1796 H 163.743 0.0322662 -2.12375 0
M  V30 1797 H 166.006 0.0768853 -0.944877 0
M  V30 1798 H 165.712 0.870773 -3.4075 0
M  V30 1799 H 165.586 2.51597 -2.81032 0
M  V30 1800 H 167.973 2.30644 -1.84086 0
M  V30 1801 H 168.054 0.655614 -2.47256 0
M  V30 1802 H 167.698 1.56482 -4.83193 0
M  V30 1803 H 167.628 3.21698 -4.16915 0
M  V30 1804 H 170.119 1.97585 -3.22131 0
M  V30 1805 H 170.432 3.49434 -6.89287 0
M  V30 1806 H 168.777 3.14875 -6.1958 0
M  V30 1807 H 171.968 2.37525 -4.0336 0
M  V30 1808 H 172.141 3.06789 -5.70775 0
M  V30 1809 N 165.547 1.27147 0.931209 0
M  V30 1810 C 166.793 1.13446 1.68101 0
M  V30 1811 C 167.126 -0.319628 1.91552 0
M  V30 1812 O 166.401 -1.23407 1.50336 0
M  V30 1813 C 166.684 1.91482 3.0497 0
M  V30 1814 C 166.537 3.44855 2.88782 0
M  V30 1815 C 167.856 1.71651 4.05246 0
M  V30 1816 H 164.975 0.413498 0.610072 0
M  V30 1817 H 167.617 1.56261 1.08086 0
M  V30 1818 H 165.767 1.55095 3.56199 0
M  V30 1819 H 167.439 3.9105 2.44698 0
M  V30 1820 H 165.682 3.71373 2.24198 0
M  V30 1821 H 166.353 3.94694 3.85902 0
M  V30 1822 H 168.829 2.0337 3.63015 0
M  V30 1823 H 167.705 2.28651 4.99009 0
M  V30 1824 H 167.966 0.663555 4.37092 0
M  V30 1825 N 167.025 -1.13721 1.09112 0
M  V30 1826 C 167.972 -2.19031 0.727591 0
M  V30 1827 C 168.942 -1.63555 -0.289656 0
M  V30 1828 O 170.127 -1.90023 -0.172026 0
M  V30 1829 C 167.267 -3.4477 0.15082 0
M  V30 1830 C 166.38 -4.14365 1.22172 0
M  V30 1831 C 165.515 -5.27709 0.608042 0
M  V30 1832 C 164.554 -5.89147 1.66047 0
M  V30 1833 N 163.691 -6.93929 1.06806 0
M  V30 1834 H 168.531 -2.49475 1.62991 0
M  V30 1835 H 166.068 -1.22499 0.81439 0
M  V30 1836 H 168.026 -4.16714 -0.201358 0
M  V30 1837 H 166.656 -3.14787 -0.714783 0
M  V30 1838 H 165.708 -3.40737 1.69122 0
M  V30 1839 H 167.02 -4.56114 2.01895 0
M  V30 1840 H 166.174 -6.06355 0.204523 0
M  V30 1841 H 164.913 -4.872 -0.220769 0
M  V30 1842 H 163.918 -5.09198 2.07357 0
M  V30 1843 H 165.143 -6.31729 2.49189 0
M  V30 1844 H 163.089 -6.55483 0.260476 0
M  V30 1845 H 163.006 -7.34202 1.8023 0
M  V30 1846 H 164.274 -7.76434 0.690644 0
M  V30 1847 N 168.503 -0.877838 -1.30888 0
M  V30 1848 C 169.728 -0.506629 -2.01117 0
M  V30 1849 C 170.153 0.895564 -1.65412 0
M  V30 1850 O 169.511 1.5923 -0.866922 0
M  V30 1851 C 169.559 -0.680223 -3.54126 0
M  V30 1852 O 168.663 0.277033 -4.11468 0
M  V30 1853 H 168.004 -0.200518 -0.633 0
M  V30 1854 H 170.534 -1.18342 -1.66902 0
M  V30 1855 H 170.544 -0.5765 -4.03907 0
M  V30 1856 H 169.219 -1.70261 -3.79452 0
M  V30 1857 H 167.796 0.127606 -3.72682 0
M  V30 1858 N 169.982 1.44106 -0.638065 0
M  V30 1859 C 171.212 2.06037 -0.152394 0
M  V30 1860 C 171.62 1.47808 1.18108 0
M  V30 1861 O 170.963 0.598092 1.73691 0
M  V30 1862 C 171.025 3.59488 0.0293714 0
M  V30 1863 C 170.689 4.4022 -1.22702 0
M  V30 1864 C 171.686 4.73256 -2.15232 0
M  V30 1865 C 169.371 4.8048 -1.46437 0
M  V30 1866 C 171.365 5.45444 -3.29802 0
M  V30 1867 C 169.052 5.52417 -2.61303 0
M  V30 1868 C 170.05 5.84819 -3.52811 0
M  V30 1869 O 169.738 6.55289 -4.65673 0
M  V30 1870 H 169.47 0.671233 -0.0801401 0
M  V30 1871 H 172.024 1.85851 -0.874563 0
M  V30 1872 H 170.254 3.78191 0.806758 0
M  V30 1873 H 171.943 4.03164 0.470475 0
M  V30 1874 H 172.709 4.42684 -1.98131 0
M  V30 1875 H 168.588 4.54676 -0.760977 0
M  V30 1876 H 172.132 5.70653 -4.01249 0
M  V30 1877 H 168.029 5.82404 -2.78344 0
M  V30 1878 H 168.797 6.73762 -4.64744 0
M  V30 1879 N 171.46 0.379036 1.52974 0
M  V30 1880 C 172.7 -0.206325 2.03356 0
M  V30 1881 C 173.064 -1.44892 1.25977 0
M  V30 1882 O 174.265 -2.11078 1.66432 0
M  V30 1883 C 172.536 -0.477887 3.54191 0
M  V30 1884 S 174.095 -1.035 4.26419 0
M  V30 1885 H 170.913 -0.0590259 0.708546 0
M  V30 1886 H 173.515 0.525013 1.88319 0
M  V30 1887 H 172.219 0.433745 4.08101 0
M  V30 1888 H 171.75 -1.23793 3.73415 0
M  V30 1889 H 173.765 -2.31821 4.38718 0
M  V30 1890 N 172.938 -1.57226 0.108567 0
M  V30 1891 C 173.886 -2.16002 -0.862885 0
M  V30 1892 C 174.88 -1.10644 -1.28274 0
M  V30 1893 O 176.086 -1.28966 -1.2557 0
M  V30 1894 H 172.461 -0.691148 -0.296342 0
M  V30 1895 H 174.432 -2.96427 -0.342575 0
M  V30 1896 C 173.181 -2.76576 -2.10716 0
M  V30 1897 H 172.504 -3.5734 -1.793 0
M  V30 1898 H 173.944 -3.21253 -2.76717 0
M  V30 1899 C 172.403 -1.73137 -2.89007 0
M  V30 1900 O 172.933 -1.17842 -3.84026 0
M  V30 1901 N 171.139 -1.43317 -2.52801 0
M  V30 1902 H 170.686 -1.88473 -1.75601 0
M  V30 1903 H 170.644 -0.743485 -3.05483 0
M  V30 1904 N 174.416 0.165178 -1.56732 0
M  V30 1905 C 175.693 0.908443 -1.73224 0
M  V30 1906 C 176.073 2.0013 -0.67165 0
M  V30 1907 O 175.421 2.26353 0.31253 0
M  V30 1908 C 175.631 1.46756 -3.16644 0
M  V30 1909 C 176.979 1.93809 -3.77787 0
M  V30 1910 O 178.003 1.56537 -3.1996 0
M  V30 1911 O 176.862 2.62486 -4.79336 0
M  V30 1912 H 173.956 0.428025 -0.707618 0
M  V30 1913 H 176.502 0.152526 -1.69013 0
M  V30 1914 H 175.274 0.68129 -3.85323 0
M  V30 1915 H 174.897 2.28749 -3.25207 0
M  V30 1916 N 175.894 1.51508 0.433938 0
M  V30 1917 C 176.826 1.69266 1.54537 0
M  V30 1918 C 177.839 0.573276 1.52373 0
M  V30 1919 O 179.028 0.847698 1.57087 0
M  V30 1920 C 176.128 1.69524 2.93453 0
M  V30 1921 C 175.301 2.98101 3.20085 0
M  V30 1922 C 174.36 2.90502 4.38742 0
M  V30 1923 O 173.386 3.64442 4.3723 0
M  V30 1924 N 174.588 2.06586 5.42496 0
M  V30 1925 H 177.353 2.65145 1.39708 0
M  V30 1926 H 174.914 1.49437 0.622922 0
M  V30 1927 H 176.906 1.62004 3.70859 0
M  V30 1928 H 175.476 0.812245 3.01863 0
M  V30 1929 H 174.696 3.19464 2.30947 0
M  V30 1930 H 175.984 3.83207 3.34708 0
M  V30 1931 H 175.382 1.45896 5.46563 0
M  V30 1932 H 173.939 2.04943 6.18742 0
M  V30 1933 N 177.372 -0.689602 1.41712 0
M  V30 1934 C 178.597 -1.48329 1.44959 0
M  V30 1935 C 179.022 -1.8801 0.0581283 0
M  V30 1936 O 178.38 -1.55026 -0.940035 0
M  V30 1937 C 178.428 -2.71835 2.36935 0
M  V30 1938 O 177.532 -3.69549 1.8305 0
M  V30 1939 H 176.873 -0.446199 0.491734 0
M  V30 1940 H 179.403 -0.847127 1.86239 0
M  V30 1941 H 179.413 -3.20076 2.53013 0
M  V30 1942 H 178.088 -2.42291 3.38035 0
M  V30 1943 H 176.665 -3.2851 1.76452 0
M  V30 1944 N 178.85 -1.27639 -0.924453 0
M  V30 1945 C 180.078 -1.16989 -1.70649 0
M  V30 1946 C 180.493 0.272869 -1.86818 0
M  V30 1947 O 179.85 1.18549 -1.38753 0
M  V30 1948 C 179.901 -1.85229 -3.10439 0
M  V30 1949 O 179.622 -3.23868 -2.95028 0
M  V30 1950 C 181.123 -1.80746 -4.04779 0
M  V30 1951 H 178.343 -0.406595 -0.53378 0
M  V30 1952 H 180.887 -1.68569 -1.15778 0
M  V30 1953 H 179.042 -1.37545 -3.6216 0
M  V30 1954 H 179.456 -3.57889 -3.83426 0
M  V30 1955 H 180.93 -2.33101 -5.00368 0
M  V30 1956 H 181.407 -0.777499 -4.32263 0
M  V30 1957 H 182.013 -2.28059 -3.58984 0
M  V30 1958 N 180.328 1.1314 -1.09713 0
M  V30 1959 C 181.576 1.84119 -0.833338 0
M  V30 1960 C 181.897 1.84097 0.642904 0
M  V30 1961 O 181.167 1.29881 1.46655 0
M  V30 1962 H 179.747 0.681766 -0.305293 0
M  V30 1963 H 182.409 1.37038 -1.38588 0
M  V30 1964 H 181.505 2.88543 -1.18951 0
M  V30 1965 N 181.806 0.884767 1.30421 0
M  V30 1966 C 183.034 0.518044 2.0031 0
M  V30 1967 C 183.449 -0.893408 1.66324 0
M  V30 1968 O 182.806 -1.5875 0.900262 0
M  V30 1969 C 182.857 0.682997 3.54989 0
M  V30 1970 O 182.578 2.03888 3.87764 0
M  V30 1971 C 184.079 0.31924 4.42149 0
M  V30 1972 H 181.299 0.200265 0.640418 0
M  V30 1973 H 183.843 1.19001 1.6631 0
M  V30 1974 H 181.998 0.0584052 3.87356 0
M  V30 1975 H 182.412 2.05735 4.82466 0
M  V30 1976 H 183.886 0.485555 5.4986 0
M  V30 1977 H 184.363 -0.742717 4.32875 0
M  V30 1978 H 184.969 0.920147 4.15227 0
M  V30 1979 N 183.284 -1.43765 0.645699 0
M  V30 1980 C 184.214 -2.33471 -0.0370477 0
M  V30 1981 C 185.195 -1.49042 -0.819779 0
M  V30 1982 O 186.38 -1.77726 -0.782758 0
M  V30 1983 C 183.51 -3.32311 -1.0093 0
M  V30 1984 C 182.464 -4.2667 -0.337201 0
M  V30 1985 C 181.79 -5.1549 -1.42037 0
M  V30 1986 C 183.09 -5.16657 0.765706 0
M  V30 1987 H 184.784 -2.90809 0.712069 0
M  V30 1988 H 182.33 -1.39834 0.343876 0
M  V30 1989 H 184.283 -3.9396 -1.49578 0
M  V30 1990 H 183.007 -2.73213 -1.78948 0
M  V30 1991 H 181.666 -3.66374 0.128771 0
M  V30 1992 H 181.314 -4.52735 -2.1918 0
M  V30 1993 H 181.014 -5.79438 -0.975966 0
M  V30 1994 H 182.538 -5.80012 -1.90838 0
M  V30 1995 H 183.952 -5.72158 0.361702 0
M  V30 1996 H 182.349 -5.89286 1.13413 0
M  V30 1997 H 183.419 -4.56796 1.62683 0
M  V30 1998 N 184.763 -0.387143 -1.52771 0
M  V30 1999 C 185.673 0.456442 -2.30117 0
M  V30 2000 C 186.689 1.07342 -1.36944 0
M  V30 2001 O 187.865 1.07971 -1.70013 0
M  V30 2002 C 184.93 1.56957 -3.09136 0
M  V30 2003 C 183.991 0.977916 -4.18014 0
M  V30 2004 C 183.224 2.038 -4.93256 0
M  V30 2005 O 183.447 3.25271 -4.68567 0
M  V30 2006 O 182.381 1.6565 -5.78657 0
M  V30 2007 H 186.207 -0.17359 -3.03203 0
M  V30 2008 H 183.792 -0.150919 -1.48636 0
M  V30 2009 H 185.674 2.21628 -3.58412 0
M  V30 2010 H 184.349 2.18461 -2.38865 0
M  V30 2011 H 183.256 0.294525 -3.72939 0
M  V30 2012 H 184.589 0.407128 -4.90513 0
M  V30 2013 N 186.241 1.57166 -0.116904 0
M  V30 2014 C 187.49 1.94298 0.541407 0
M  V30 2015 C 187.803 1.00236 1.67964 0
M  V30 2016 O 189.009 1.26826 2.40057 0
M  V30 2017 C 187.465 3.45306 1.01449 0
M  V30 2018 C 187.073 4.47899 -0.0951738 0
M  V30 2019 C 188.817 3.91361 1.6443 0
M  V30 2020 C 186.724 5.90083 0.394491 0
M  V30 2021 H 185.654 0.725308 0.206019 0
M  V30 2022 H 188.305 1.82446 -0.196419 0
M  V30 2023 H 186.687 3.52385 1.80667 0
M  V30 2024 H 187.861 4.52486 -0.871374 0
M  V30 2025 H 186.176 4.11583 -0.631505 0
M  V30 2026 H 188.773 4.95004 2.02176 0
M  V30 2027 H 189.116 3.3122 2.52189 0
M  V30 2028 H 189.649 3.87073 0.917559 0
M  V30 2029 H 186.388 6.53974 -0.447004 0
M  V30 2030 H 185.908 5.88921 1.13722 0
M  V30 2031 H 187.587 6.41307 0.856399 0
M  V30 2032 N 187.719 -0.156864 1.56817 0
M  V30 2033 C 188.965 -0.872416 1.83076 0
M  V30 2034 C 189.298 -1.81261 0.697001 0
M  V30 2035 O 188.573 -1.92171 -0.30008 0
M  V30 2036 C 188.856 -1.65551 3.19789 0
M  V30 2037 C 188.709 -0.737467 4.43713 0
M  V30 2038 C 190.028 -2.62012 3.53606 0
M  V30 2039 H 187.147 -0.315715 0.665953 0
M  V30 2040 H 189.789 -0.138004 1.89498 0
M  V30 2041 H 187.939 -2.28159 3.14445 0
M  V30 2042 H 189.611 -0.123143 4.61136 0
M  V30 2043 H 187.854 -0.0464067 4.33775 0
M  V30 2044 H 188.525 -1.32122 5.35955 0
M  V30 2045 H 191.001 -2.09525 3.59497 0
M  V30 2046 H 189.877 -3.13861 4.50314 0
M  V30 2047 H 190.138 -3.42902 2.79053 0
M  V30 2048 N 189.197 -1.51736 -0.425897 0
M  V30 2049 C 190.422 -1.69082 -1.20108 0
M  V30 2050 C 190.847 -0.392398 -1.83962 0
M  V30 2051 O 190.205 0.64858 -1.69302 0
M  V30 2052 C 190.253 -2.81604 -2.25237 0
M  V30 2053 O 189.357 -2.46004 -3.30992 0
M  V30 2054 H 188.698 -0.563408 -0.35138 0
M  V30 2055 H 191.228 -1.98358 -0.501512 0
M  V30 2056 H 191.238 -3.06025 -2.69838 0
M  V30 2057 H 189.913 -3.75817 -1.78142 0
M  V30 2058 H 188.49 -2.32195 -2.91787 0
M  V30 2059 N 190.675 0.682077 -1.42076 0
M  V30 2060 C 191.585 1.82535 -1.47371 0
M  V30 2061 C 192.601 1.7017 -0.363079 0
M  V30 2062 O 193.777 1.91848 -0.612875 0
M  V30 2063 C 190.842 3.18624 -1.36674 0
M  V30 2064 C 189.903 3.42999 -2.58167 0
M  V30 2065 C 189.136 4.72595 -2.4797 0
M  V30 2066 O 189.359 5.50006 -1.5116 0
M  V30 2067 O 188.293 4.98054 -3.37974 0
M  V30 2068 H 192.119 1.81023 -2.43853 0
M  V30 2069 H 189.704 0.836887 -1.2376 0
M  V30 2070 H 191.586 3.99847 -1.33043 0
M  V30 2071 H 190.261 3.20789 -0.433138 0
M  V30 2072 H 189.168 2.61653 -2.67373 0
M  V30 2073 H 190.501 3.45659 -3.50401 0
M  V30 2074 N 192.153 1.28127 0.917671 0
M  V30 2075 C 193.43 1.05761 1.64542 0
M  V30 2076 C 193.81 -0.404344 2.07191 0
M  V30 2077 O 193.158 -1.38963 1.81388 0
M  V30 2078 C 193.368 2.02857 2.83989 0
M  V30 2079 C 194.716 2.32786 3.551 0
M  V30 2080 O 195.74 2.0091 2.94132 0
M  V30 2081 O 194.599 2.87169 4.64969 0
M  V30 2082 H 191.693 0.403916 0.721652 0
M  V30 2083 H 194.239 1.39431 0.967322 0
M  V30 2084 H 193.011 3.01407 2.49538 0
M  V30 2085 H 192.634 1.69809 3.59514 0
M  V30 2086 N 193.631 -1.12557 1.10312 0
M  V30 2087 C 194.561 -2.20341 0.772798 0
M  V30 2088 C 195.542 -1.68198 -0.25365 0
M  V30 2089 O 196.727 -1.93831 -0.119699 0
M  V30 2090 C 193.857 -3.46709 0.202443 0
M  V30 2091 C 192.811 -4.11996 1.15943 0
M  V30 2092 C 192.137 -5.328 0.450345 0
M  V30 2093 C 193.437 -4.5828 2.50552 0
M  V30 2094 H 195.131 -2.48229 1.674 0
M  V30 2095 H 192.677 -1.19308 0.806326 0
M  V30 2096 H 194.63 -4.2138 -0.0407752 0
M  V30 2097 H 193.354 -3.18245 -0.734001 0
M  V30 2098 H 192.013 -3.39305 1.38808 0
M  V30 2099 H 191.661 -5.00602 -0.490531 0
M  V30 2100 H 191.361 -5.7743 1.08851 0
M  V30 2101 H 192.885 -6.10219 0.215642 0
M  V30 2102 H 194.299 -5.2433 2.31843 0
M  V30 2103 H 192.696 -5.13683 3.10242 0
M  V30 2104 H 193.766 -3.72329 3.10643 0
M  V30 2105 N 195.109 -0.891671 -1.2995 0
M  V30 2106 C 196.334 -0.527932 -2.00568 0
M  V30 2107 C 196.759 0.877969 -1.66353 0
M  V30 2108 O 196.117 1.58301 -0.883762 0
M  V30 2109 C 196.165 -0.717745 -3.53385 0
M  V30 2110 O 195.269 0.233376 -4.11739 0
M  V30 2111 H 194.61 -0.20722 -0.630837 0
M  V30 2112 H 197.14 -1.20105 -1.65638 0
M  V30 2113 H 197.15 -0.619307 -4.03272 0
M  V30 2114 H 195.825 -1.74276 -3.77625 0
M  V30 2115 H 194.402 0.0880706 -3.72796 0
M  V30 2116 N 196.587 1.43421 -0.653314 0
M  V30 2117 C 197.827 2.03689 -0.170346 0
M  V30 2118 C 198.191 1.50427 1.19314 0
M  V30 2119 O 199.392 2.0234 1.76952 0
M  V30 2120 C 197.663 3.56946 -0.180183 0
M  V30 2121 S 199.222 4.38171 0.234925 0
M  V30 2122 H 196.04 0.707345 -0.0719976 0
M  V30 2123 H 198.642 1.75486 -0.86167 0
M  V30 2124 H 197.346 3.93212 -1.17526 0
M  V30 2125 H 196.877 3.89791 0.531675 0
M  V30 2126 H 198.892 4.73808 1.47378 0
M  V30 2127 N 198.065 0.39524 1.52563 0
M  V30 2128 C 198.995 -0.428384 2.29537 0
M  V30 2129 C 199.976 -1.05831 1.33169 0
M  V30 2130 O 201.161 -1.06995 1.62067 0
M  V30 2131 C 198.291 -1.55274 3.10656 0
M  V30 2132 C 197.245 -1.04855 4.14957 0
M  V30 2133 C 196.571 -2.26543 4.84337 0
M  V30 2134 C 197.871 -0.112324 5.22179 0
M  V30 2135 H 199.565 0.213867 2.98635 0
M  V30 2136 H 197.111 0.104298 1.43622 0
M  V30 2137 H 199.064 -2.1358 3.63265 0
M  V30 2138 H 197.788 -2.22266 2.39302 0
M  V30 2139 H 196.447 -0.487985 3.63338 0
M  V30 2140 H 196.095 -2.92059 4.09525 0
M  V30 2141 H 195.795 -1.93466 5.54837 0
M  V30 2142 H 197.319 -2.85481 5.39753 0
M  V30 2143 H 198.733 -0.603752 5.70112 0
M  V30 2144 H 197.13 0.128968 5.99961 0
M  V30 2145 H 198.2 0.837052 4.77621 0
M  V30 2146 N 199.544 -1.57102 0.125237 0
M  V30 2147 C 200.491 -2.15641 -0.822655 0
M  V30 2148 C 201.461 -1.08313 -1.25927 0
M  V30 2149 O 202.646 -1.36251 -1.33567 0
M  V30 2150 C 199.786 -2.76504 -2.06494 0
M  V30 2151 C 198.899 -3.98158 -1.67612 0
M  V30 2152 C 198.034 -4.47088 -2.86854 0
M  V30 2153 C 197.073 -5.6126 -2.44242 0
M  V30 2154 N 196.21 -6.04905 -3.56419 0
M  V30 2155 H 201.05 -2.96313 -0.316625 0
M  V30 2156 H 198.587 -1.46388 -0.144588 0
M  V30 2157 H 200.545 -3.09925 -2.79289 0
M  V30 2158 H 199.175 -1.98512 -2.54545 0
M  V30 2159 H 198.227 -3.70858 -0.846661 0
M  V30 2160 H 199.539 -4.80934 -1.32301 0
M  V30 2161 H 198.693 -4.82451 -3.67867 0
M  V30 2162 H 197.432 -3.63275 -3.25396 0
M  V30 2163 H 196.437 -5.25495 -1.61663 0
M  V30 2164 H 197.662 -6.46843 -2.0681 0
M  V30 2165 H 195.608 -5.24032 -3.94623 0
M  V30 2166 H 195.525 -6.82552 -3.25051 0
M  V30 2167 H 196.793 -6.44907 -4.37853 0
M  V30 2168 N 201.022 0.148545 -1.56898 0
M  V30 2169 C 202.27 0.859717 -1.82902 0
M  V30 2170 C 202.591 1.81775 -0.70588 0
M  V30 2171 O 201.861 1.93994 0.272586 0
M  V30 2172 H 200.441 0.320469 -0.674766 0
M  V30 2173 H 203.103 0.142918 -1.94375 0
M  V30 2174 H 202.199 1.4229 -2.77777 0
M  V30 2175 N 202.5 1.5196 0.417844 0
M  V30 2176 C 203.447 1.74678 1.50852 0
M  V30 2177 C 204.417 0.588947 1.55308 0
M  V30 2178 O 205.602 0.825544 1.72016 0
M  V30 2179 C 202.742 1.89544 2.88387 0
M  V30 2180 C 201.855 3.17166 2.93309 0
M  V30 2181 C 200.99 3.22513 4.22088 0
M  V30 2182 C 200.029 4.44372 4.20951 0
M  V30 2183 N 199.166 4.47161 5.41287 0
M  V30 2184 H 204.006 2.67768 1.30783 0
M  V30 2185 H 201.543 1.32689 0.63498 0
M  V30 2186 H 203.501 1.96146 3.68216 0
M  V30 2187 H 202.131 0.998424 3.06971 0
M  V30 2188 H 201.183 3.19778 2.06024 0
M  V30 2189 H 202.495 4.07021 2.88332 0
M  V30 2190 H 201.649 3.28139 5.10303 0
M  V30 2191 H 200.388 2.30581 4.29748 0
M  V30 2192 H 199.393 4.38902 3.31127 0
M  V30 2193 H 200.618 5.3759 4.14938 0
M  V30 2194 H 198.564 3.58108 5.49632 0
M  V30 2195 H 198.481 5.3085 5.3827 0
M  V30 2196 H 199.749 4.57005 6.3148 0
M  V30 2197 N 203.978 -0.674533 1.42435 0
M  V30 2198 C 204.928 -1.7807 1.4239 0
M  V30 2199 C 205.912 -1.58169 0.295202 0
M  V30 2200 O 207.104 -1.68643 0.537449 0
M  V30 2201 C 204.233 -3.16532 1.32901 0
M  V30 2202 C 203.319 -3.42055 2.50717 0
M  V30 2203 N 203.71 -3.38162 3.76139 0
M  V30 2204 C 202.008 -3.72692 2.44983 0
M  V30 2205 C 202.709 -3.63177 4.54398 0
M  V30 2206 N 201.685 -3.83954 3.84812 0
M  V30 2207 H 205.487 -1.73454 2.37257 0
M  V30 2208 H 203.001 -0.875381 1.36788 0
M  V30 2209 H 204.998 -3.958 1.30951 0
M  V30 2210 H 203.658 -3.22345 0.390363 0
M  V30 2211 H 204.669 -3.18057 4.0873 0
M  V30 2212 H 201.346 -3.85749 1.59699 0
M  V30 2213 H 202.736 -3.66125 5.63384 0
M  V30 2214 N 205.456 -1.28612 -0.910864 0
M  V30 2215 C 206.702 -1.16106 -1.66274 0
M  V30 2216 C 207.035 0.289113 -1.92036 0
M  V30 2217 O 206.31 1.21 -1.52281 0
M  V30 2218 C 206.593 -1.96309 -3.01885 0
M  V30 2219 C 206.446 -3.49405 -2.8326 0
M  V30 2220 C 207.765 -1.78076 -4.02463 0
M  V30 2221 H 204.884 -0.423152 -0.603417 0
M  V30 2222 H 207.526 -1.57961 -1.05586 0
M  V30 2223 H 205.676 -1.60742 -3.53687 0
M  V30 2224 H 207.348 -3.94894 -2.38446 0
M  V30 2225 H 205.591 -3.74893 -2.18261 0
M  V30 2226 H 206.262 -4.00784 -3.79574 0
M  V30 2227 H 208.738 -2.0912 -3.59733 0
M  V30 2228 H 207.614 -2.36561 -4.95308 0
M  V30 2229 H 207.875 -0.733008 -4.35981 0
M  V30 2230 N 206.934 1.1197 -1.10907 0
M  V30 2231 C 207.864 2.19928 -0.784473 0
M  V30 2232 C 208.845 1.6833 0.244726 0
M  V30 2233 O 210.03 1.93892 0.109418 0
M  V30 2234 C 207.16 3.46597 -0.220827 0
M  V30 2235 C 206.114 4.11376 -1.18127 0
M  V30 2236 C 205.44 5.32554 -0.478594 0
M  V30 2237 C 206.74 4.56945 -2.52979 0
M  V30 2238 H 208.434 2.47337 -1.68715 0
M  V30 2239 H 205.98 1.18879 -0.812642 0
M  V30 2240 H 207.933 4.21396 0.0184278 0
M  V30 2241 H 206.657 3.1863 0.717113 0
M  V30 2242 H 205.316 3.38564 -1.40606 0
M  V30 2243 H 204.964 5.00856 0.463976 0
M  V30 2244 H 204.664 5.76844 -1.11912 0
M  V30 2245 H 206.188 6.10096 -0.248 0
M  V30 2246 H 207.602 5.23093 -2.3462 0
M  V30 2247 H 205.999 5.1203 -3.12962 0
M  V30 2248 H 207.069 3.70676 -3.12614 0
M  V30 2249 N 208.412 0.89855 1.29475 0
M  V30 2250 C 209.661 0.519863 1.94885 0
M  V30 2251 C 209.974 -0.9383 1.71625 0
M  V30 2252 O 211.18 -1.42445 2.31131 0
M  V30 2253 C 209.636 0.878836 3.49005 0
M  V30 2254 C 209.244 2.35569 3.81066 0
M  V30 2255 C 210.988 0.570004 4.20656 0
M  V30 2256 C 208.895 2.65558 5.28425 0
M  V30 2257 H 207.825 0.190692 0.729488 0
M  V30 2258 H 210.476 1.09539 1.47219 0
M  V30 2259 H 208.858 0.232253 3.95318 0
M  V30 2260 H 210.032 3.04773 3.45616 0
M  V30 2261 H 208.347 2.63343 3.22552 0
M  V30 2262 H 210.944 0.770925 5.29113 0
M  V30 2263 H 211.287 -0.491404 4.1339 0
M  V30 2264 H 211.82 1.17438 3.8007 0
M  V30 2265 H 208.559 3.70493 5.40754 0
M  V30 2266 H 208.079 2.00977 5.65127 0
M  V30 2267 H 209.758 2.51765 5.96006 0
M  V30 2268 N 209.89 -1.43072 0.660911 0
M  V30 2269 C 211.136 -2.0202 0.177708 0
M  V30 2270 C 211.469 -1.52066 -1.20787 0
M  V30 2271 O 210.744 -0.716987 -1.80802 0
M  V30 2272 C 211.027 -3.59561 0.197019 0
M  V30 2273 C 210.88 -4.19727 1.61706 0
M  V30 2274 C 212.199 -4.37664 -0.462396 0
M  V30 2275 H 209.318 -0.734034 0.0660494 0
M  V30 2276 H 211.96 -1.70272 0.843058 0
M  V30 2277 H 210.11 -3.86739 -0.369527 0
M  V30 2278 H 211.782 -4.03553 2.23479 0
M  V30 2279 H 210.025 -3.76084 2.16201 0
M  V30 2280 H 210.696 -5.28834 1.58237 0
M  V30 2281 H 213.172 -4.16095 0.0197215 0
M  V30 2282 H 212.048 -5.47305 -0.418188 0
M  V30 2283 H 212.309 -4.14493 -1.53778 0
M  V30 2284 N 211.368 -0.403325 -1.52352 0
M  V30 2285 C 212.278 0.432009 -2.30588 0
M  V30 2286 C 213.294 1.05884 -1.38075 0
M  V30 2287 O 214.47 1.06161 -1.71148 0
M  V30 2288 C 211.535 1.53669 -3.10784 0
M  V30 2289 C 210.596 0.933525 -4.19027 0
M  V30 2290 C 209.829 1.98557 -4.9539 0
M  V30 2291 O 210.052 3.20283 -4.71991 0
M  V30 2292 O 208.986 1.59504 -5.80381 0
M  V30 2293 H 212.812 -0.205739 -3.03002 0
M  V30 2294 H 210.397 -0.166675 -1.48467 0
M  V30 2295 H 212.279 2.17814 -3.60742 0
M  V30 2296 H 210.954 2.15915 -2.41169 0
M  V30 2297 H 209.861 0.254954 -3.7323 0
M  V30 2298 H 211.194 0.35508 -4.90918 0
M  V30 2299 N 212.846 1.57033 -0.133567 0
M  V30 2300 C 214.123 1.87256 0.56522 0
M  V30 2301 C 214.503 1.03726 1.83859 0
M  V30 2302 O 213.851 0.120247 2.28183 0
M  V30 2303 C 214.061 3.3865 0.843636 0
M  V30 2304 C 215.409 4.07574 1.19032 0
M  V30 2305 O 216.433 3.43752 0.933429 0
M  V30 2306 O 215.292 5.20259 1.67312 0
M  V30 2307 H 212.386 0.775678 0.286796 0
M  V30 2308 H 214.932 1.68855 -0.169168 0
M  V30 2309 H 213.704 3.91257 -0.0581149 0
M  V30 2310 H 213.327 3.62532 1.63268 0
M  V30 2311 N 214.325 -0.140222 1.56975 0
M  V30 2312 C 215.574 -0.850152 1.82908 0
M  V30 2313 C 215.887 -1.82028 0.715892 0
M  V30 2314 O 217.093 -2.57485 0.861016 0
M  V30 2315 C 215.549 -1.5625 3.24213 0
M  V30 2316 C 215.157 -0.63443 4.43485 0
M  V30 2317 C 216.901 -2.25881 3.59413 0
M  V30 2318 C 214.808 -1.34879 5.75814 0
M  V30 2319 H 213.738 -0.321221 0.682153 0
M  V30 2320 H 216.389 -0.102874 1.83211 0
M  V30 2321 H 214.771 -2.35565 3.18316 0
M  V30 2322 H 215.945 0.12398 4.60633 0
M  V30 2323 H 214.26 -0.0461836 4.16374 0
M  V30 2324 H 216.857 -2.79978 4.5554 0
M  V30 2325 H 217.2 -3.02693 2.85802 0
M  V30 2326 H 217.733 -1.53477 3.67001 0
M  V30 2327 H 214.472 -0.622385 6.52539 0
M  V30 2328 H 213.992 -2.07974 5.6259 0
M  V30 2329 H 215.671 -1.88784 6.18845 0
M  V30 2330 N 215.803 -1.52179 -0.40978 0
M  V30 2331 C 217.052 -1.65434 -1.15388 0
M  V30 2332 C 217.365 -0.390056 -1.91671 0
M  V30 2333 O 218.571 -0.402399 -2.68501 0
M  V30 2334 C 217.027 -2.92279 -2.10003 0
M  V30 2335 C 216.635 -4.25813 -1.39239 0
M  V30 2336 C 218.379 -3.14897 -2.84675 0
M  V30 2337 C 216.286 -5.43782 -2.32498 0
M  V30 2338 H 215.216 -0.616267 -0.434432 0
M  V30 2339 H 217.867 -1.78666 -0.418401 0
M  V30 2340 H 216.249 -2.72744 -2.871 0
M  V30 2341 H 217.423 -4.55828 -0.675099 0
M  V30 2342 H 215.738 -4.09292 -0.766097 0
M  V30 2343 H 218.335 -4.0021 -3.54593 0
M  V30 2344 H 218.678 -2.29103 -3.47588 0
M  V30 2345 H 219.211 -3.34901 -2.14677 0
M  V30 2346 H 215.95 -6.3192 -1.74233 0
M  V30 2347 H 215.47 -5.18106 -3.02201 0
M  V30 2348 H 217.149 -5.76834 -2.93038 0
M  V30 2349 N 217.281 0.66697 -1.42791 0
M  V30 2350 C 218.558 1.4234 -1.34159 0
M  V30 2351 C 218.938 2.11093 0.0172729 0
M  V30 2352 O 218.286 2.03808 1.03318 0
M  V30 2353 C 218.496 2.41942 -2.51526 0
M  V30 2354 C 219.844 3.06353 -2.93995 0
M  V30 2355 O 220.868 2.52269 -2.51473 0
M  V30 2356 O 219.727 4.04376 -3.67617 0
M  V30 2357 H 216.821 0.635277 -0.529483 0
M  V30 2358 H 219.367 0.695034 -1.54814 0
M  V30 2359 H 218.139 1.89991 -3.42081 0
M  V30 2360 H 217.762 3.22249 -2.32898 0
M  V30 2361 N 218.759 1.29093 0.90403 0
M  V30 2362 C 219.987 1.19689 1.68766 0
M  V30 2363 C 220.402 -0.243113 1.87228 0
M  V30 2364 O 219.759 -1.16326 1.40621 0
M  V30 2365 C 219.81 1.90144 3.07453 0
M  V30 2366 O 219.531 3.2852 2.89838 0
M  V30 2367 C 221.032 1.87162 4.01852 0
M  V30 2368 H 218.252 0.415035 0.527244 0
M  V30 2369 H 220.796 1.7039 1.13082 0
M  V30 2370 H 218.951 1.43289 3.59926 0
M  V30 2371 H 219.365 3.63944 3.77684 0
M  V30 2372 H 220.839 2.41032 4.96596 0
M  V30 2373 H 221.316 0.84617 4.30972 0
M  V30 2374 H 221.922 2.33741 3.5531 0
M  V30 2375 N 220.237 -1.11381 1.11499 0
M  V30 2376 C 221.485 -1.8277 0.862524 0
M  V30 2377 C 221.806 -1.85097 -0.613534 0
M  V30 2378 O 221.076 -1.32198 -1.4457 0
M  V30 2379 H 219.656 -0.676823 0.316101 0
M  V30 2380 H 222.318 -1.34816 1.4075 0
M  V30 2381 H 221.414 -2.86614 1.23527 0
M  V30 2382 N 221.715 -0.905404 -1.28997 0
M  V30 2383 C 222.662 -0.385892 -2.27551 0
M  V30 2384 C 223.632 0.535113 -1.57244 0
M  V30 2385 O 224.817 0.459119 -1.85194 0
M  V30 2386 C 221.957 0.375461 -3.43051 0
M  V30 2387 C 221.07 -0.577092 -4.28128 0
M  V30 2388 C 220.205 0.201879 -5.30816 0
M  V30 2389 C 219.244 -0.744829 -6.07551 0
M  V30 2390 N 218.381 9.42587e-05 -7.021 0
M  V30 2391 H 223.221 -1.23139 -2.71368 0
M  V30 2392 H 220.758 -0.618542 -1.33463 0
M  V30 2393 H 222.716 0.832992 -4.088 0
M  V30 2394 H 221.346 1.18537 -3.00248 0
M  V30 2395 H 220.398 -1.15315 -3.62501 0
M  V30 2396 H 221.71 -1.30152 -4.8152 0
M  V30 2397 H 220.864 0.720351 -6.02408 0
M  V30 2398 H 219.603 0.959413 -4.7817 0
M  V30 2399 H 218.608 -1.27475 -5.34818 0
M  V30 2400 H 219.833 -1.50178 -6.62286 0
M  V30 2401 H 217.779 0.739791 -6.51815 0
M  V30 2402 H 217.696 -0.664321 -7.53076 0
M  V30 2403 H 218.964 0.498644 -7.77903 0
M  V30 2404 N 223.193 1.4272 -0.668489 0
M  V30 2405 C 224.421 2.05966 -0.196348 0
M  V30 2406 C 224.836 1.50191 1.14403 0
M  V30 2407 O 224.193 0.639208 1.7094 0
M  V30 2408 C 224.244 3.61314 -0.115815 0
M  V30 2409 O 223.965 4.1502 -1.40322 0
M  V30 2410 C 225.466 4.41663 0.380579 0
M  V30 2411 H 222.686 0.663954 -0.0969829 0
M  V30 2412 H 225.23 1.82966 -0.913446 0
M  V30 2413 H 223.385 3.83448 0.551931 0
M  V30 2414 H 223.799 5.08832 -1.27243 0
M  V30 2415 H 225.273 5.5065 0.385848 0
M  V30 2416 H 225.75 4.15792 1.41471 0
M  V30 2417 H 226.356 4.24534 -0.255209 0
M  V30 2418 N 224.671 0.411399 1.52136 0
M  V30 2419 C 225.601 -0.404015 2.29978 0
M  V30 2420 C 226.582 -1.04412 1.34284 0
M  V30 2421 O 227.767 -1.0527 1.63192 0
M  V30 2422 C 224.897 -1.5197 3.12286 0
M  V30 2423 C 223.851 -1.00448 4.16046 0
M  V30 2424 C 223.177 -2.21393 4.86712 0
M  V30 2425 C 224.477 -0.0569336 5.22269 0
M  V30 2426 H 226.171 0.245529 2.98392 0
M  V30 2427 H 223.717 0.119525 1.43503 0
M  V30 2428 H 225.67 -2.09715 3.6551 0
M  V30 2429 H 224.394 -2.19716 2.41646 0
M  V30 2430 H 223.053 -0.449421 3.63835 0
M  V30 2431 H 222.701 -2.87699 4.12599 0
M  V30 2432 H 222.401 -1.87571 5.56858 0
M  V30 2433 H 223.925 -2.7974 5.4275 0
M  V30 2434 H 225.339 -0.54325 5.7072 0
M  V30 2435 H 223.736 0.192594 5.99791 0
M  V30 2436 H 224.806 0.887663 4.76706 0
M  V30 2437 N 226.149 -1.5696 0.141893 0
M  V30 2438 C 227.395 -1.9625 -0.511248 0
M  V30 2439 C 227.728 -1.02654 -1.64851 0
M  V30 2440 O 227.003 -0.0679676 -1.94381 0
M  V30 2441 C 227.286 -3.45285 -1.02227 0
M  V30 2442 C 227.139 -4.49658 0.113138 0
M  V30 2443 C 228.458 -3.96698 -1.90574 0
M  V30 2444 H 225.577 -0.713567 -0.184367 0
M  V30 2445 H 228.219 -1.88698 0.222087 0
M  V30 2446 H 226.369 -3.51852 -1.64719 0
M  V30 2447 H 228.041 -4.55174 0.749302 0
M  V30 2448 H 226.284 -4.26857 0.773026 0
M  V30 2449 H 226.955 -5.51258 -0.286053 0
M  V30 2450 H 229.431 -3.92578 -1.37918 0
M  V30 2451 H 228.307 -5.01453 -2.2324 0
M  V30 2452 H 228.568 -3.3875 -2.84079 0
M  V30 2453 N 227.627 0.131896 -1.57047 0
M  V30 2454 C 228.574 1.16236 -1.99393 0
M  V30 2455 C 229.544 1.41863 -0.863943 0
M  V30 2456 O 230.729 1.53946 -1.12718 0
M  V30 2457 C 227.869 2.48708 -2.39245 0
M  V30 2458 C 226.982 2.30127 -3.65603 0
M  V30 2459 C 226.117 3.55738 -3.94492 0
M  V30 2460 C 225.156 3.32259 -5.14073 0
M  V30 2461 N 224.293 4.50039 -5.38896 0
M  V30 2462 H 229.133 0.794251 -2.87221 0
M  V30 2463 H 226.67 0.380707 -1.42088 0
M  V30 2464 H 228.628 3.25969 -2.60384 0
M  V30 2465 H 227.258 2.83437 -1.54478 0
M  V30 2466 H 226.31 1.43845 -3.52154 0
M  V30 2467 H 227.622 2.08746 -4.5302 0
M  V30 2468 H 226.776 4.41423 -4.1621 0
M  V30 2469 H 225.515 3.80138 -3.05526 0
M  V30 2470 H 224.52 2.44963 -4.92212 0
M  V30 2471 H 225.745 3.09242 -6.04604 0
M  V30 2472 H 223.691 4.74584 -4.52886 0
M  V30 2473 H 223.608 4.31716 -6.2061 0
M  V30 2474 H 224.876 5.36895 -5.65123 0
M  V30 2475 N 229.106 1.52395 0.401703 0
M  V30 2476 C 230.353 1.66817 1.14796 0
M  V30 2477 C 230.681 0.401772 1.90305 0
M  V30 2478 O 229.936 -0.615487 1.85769 0
M  V30 2479 C 230.235 2.84578 2.16217 0
M  V30 2480 C 229.901 4.22513 1.5746 0
M  V30 2481 C 228.563 4.60029 1.41161 0
M  V30 2482 C 230.915 5.0844 1.14622 0
M  V30 2483 C 228.243 5.81144 0.80552 0
M  V30 2484 C 230.595 6.30167 0.55428 0
M  V30 2485 C 229.259 6.66426 0.378482 0
M  V30 2486 H 228.529 0.610428 0.420069 0
M  V30 2487 H 231.176 1.86512 0.434212 0
M  V30 2488 H 229.481 2.59248 2.93764 0
M  V30 2489 H 231.178 2.92933 2.73845 0
M  V30 2490 H 227.768 3.92953 1.71132 0
M  V30 2491 H 231.952 4.80034 1.26021 0
M  V30 2492 H 227.208 6.07855 0.657399 0
M  V30 2493 H 231.382 6.96071 0.213983 0
M  V30 2494 H 229.009 7.60143 -0.0932606 0
M  V30 2495 N 230.584 -0.659388 1.43143 0
M  V30 2496 C 231.824 -1.43121 1.45931 0
M  V30 2497 C 232.188 -1.91838 0.0789298 0
M  V30 2498 O 233.389 -2.68794 -0.018491 0
M  V30 2499 C 231.66 -2.58534 2.46769 0
M  V30 2500 S 233.219 -3.47154 2.68384 0
M  V30 2501 H 230.037 -0.488624 0.516496 0
M  V30 2502 H 232.639 -0.766128 1.79863 0
M  V30 2503 H 231.343 -2.21007 3.45809 0
M  V30 2504 H 230.874 -3.29898 2.14315 0
M  V30 2505 H 232.889 -4.55051 1.97845 0
M  V30 2506 N 232.062 -1.29571 -0.897171 0
M  V30 2507 C 232.972 -1.16808 -2.03453 0
M  V30 2508 C 233.988 -0.0907471 -1.73763 0
M  V30 2509 O 235.164 -0.303312 -1.99103 0
M  V30 2510 C 232.229 -0.848264 -3.36163 0
M  V30 2511 C 231.29 -2.0097 -3.79354 0
M  V30 2512 C 230.523 -1.70505 -5.05731 0
M  V30 2513 O 230.746 -0.62718 -5.66941 0
M  V30 2514 O 229.68 -2.5538 -5.45036 0
M  V30 2515 H 233.506 -2.12325 -2.17144 0
M  V30 2516 H 231.091 -1.09047 -1.02123 0
M  V30 2517 H 232.973 -0.684581 -4.15802 0
M  V30 2518 H 231.648 0.0771071 -3.23608 0
M  V30 2519 H 230.555 -2.22863 -3.00471 0
M  V30 2520 H 231.888 -2.91636 -3.96496 0
M  V30 2521 N 233.54 1.10788 -1.12088 0
M  V30 2522 C 234.77 1.86191 -0.895351 0
M  V30 2523 C 235.178 1.80763 0.558702 0
M  V30 2524 O 234.521 1.19188 1.39785 0
M  V30 2525 C 234.583 3.35659 -1.28737 0
M  V30 2526 C 234.247 3.64849 -2.75198 0
M  V30 2527 C 235.244 3.61757 -3.734 0
M  V30 2528 C 232.929 3.93641 -3.12013 0
M  V30 2529 C 234.923 3.87045 -5.06434 0
M  V30 2530 C 232.61 4.18585 -4.4523 0
M  V30 2531 C 233.608 4.15277 -5.42249 0
M  V30 2532 O 233.296 4.3959 -6.73065 0
M  V30 2533 H 233.028 0.595425 -0.32007 0
M  V30 2534 H 235.582 1.40992 -1.49367 0
M  V30 2535 H 233.812 3.81497 -0.63224 0
M  V30 2536 H 235.501 3.92441 -1.03656 0
M  V30 2537 H 236.267 3.39557 -3.46303 0
M  V30 2538 H 232.146 3.95348 -2.37109 0
M  V30 2539 H 235.69 3.84378 -5.82151 0
M  V30 2540 H 231.587 4.40264 -4.72057 0
M  V30 2541 H 232.355 4.57123 -6.78956 0
M  V30 2542 N 235.018 0.912232 1.28515 0
M  V30 2543 C 235.948 0.416403 2.29757 0
M  V30 2544 C 236.929 -0.515194 1.6211 0
M  V30 2545 O 238.114 -0.423253 1.89532 0
M  V30 2546 C 235.244 -0.34572 3.45575 0
M  V30 2547 C 234.198 0.496599 4.25109 0
M  V30 2548 C 233.524 -0.393771 5.33248 0
M  V30 2549 C 234.824 1.75307 4.92001 0
M  V30 2550 H 236.518 1.26249 2.7148 0
M  V30 2551 H 234.064 0.608515 1.30511 0
M  V30 2552 H 236.017 -0.703422 4.15488 0
M  V30 2553 H 234.741 -1.2257 3.02728 0
M  V30 2554 H 233.4 0.8368 3.56922 0
M  V30 2555 H 233.048 -1.27225 4.86644 0
M  V30 2556 H 232.748 0.166209 5.87365 0
M  V30 2557 H 234.272 -0.747389 6.06009 0
M  V30 2558 H 235.686 1.46437 5.54283 0
M  V30 2559 H 234.083 2.25534 5.56106 0
M  V30 2560 H 235.153 2.48176 4.16577 0
M  V30 2561 N 236.496 -1.42363 0.676048 0
M  V30 2562 C 237.443 -2.308 -0.00150904 0
M  V30 2563 C 238.413 -1.46032 -0.791444 0
M  V30 2564 O 239.598 -1.74861 -0.76344 0
M  V30 2565 C 236.738 -3.31883 -0.945919 0
M  V30 2566 C 235.851 -4.31741 -0.149675 0
M  V30 2567 C 234.986 -5.19898 -1.08995 0
M  V30 2568 C 234.025 -6.11434 -0.285465 0
M  V30 2569 N 233.162 -6.92138 -1.17851 0
M  V30 2570 H 238.002 -2.88187 0.758455 0
M  V30 2571 H 235.539 -1.41952 0.38576 0
M  V30 2572 H 237.497 -3.89019 -1.50731 0
M  V30 2573 H 236.127 -2.76093 -1.6725 0
M  V30 2574 H 235.179 -3.76713 0.528359 0
M  V30 2575 H 236.491 -4.96534 0.474866 0
M  V30 2576 H 235.645 -5.81772 -1.72123 0
M  V30 2577 H 234.384 -4.55284 -1.74837 0
M  V30 2578 H 233.389 -5.48627 0.359018 0
M  V30 2579 H 234.614 -6.78097 0.368883 0
M  V30 2580 H 232.56 -6.30152 -1.82332 0
M  V30 2581 H 232.477 -7.53542 -0.609082 0
M  V30 2582 H 233.745 -7.58499 -1.79722 0
M  V30 2583 N 237.974 -0.419461 -1.51915 0
M  V30 2584 C 238.921 0.400927 -2.27291 0
M  V30 2585 C 239.891 1.03224 -1.30131 0
M  V30 2586 O 241.076 1.05455 -1.59009 0
M  V30 2587 C 238.216 1.50603 -3.10504 0
M  V30 2588 C 237.329 0.89462 -4.22635 0
M  V30 2589 C 236.464 1.97328 -4.93189 0
M  V30 2590 C 235.503 1.33935 -5.97267 0
M  V30 2591 N 234.64 2.3586 -6.61298 0
M  V30 2592 H 239.48 -0.248251 -2.96964 0
M  V30 2593 H 237.017 -0.134266 -1.46486 0
M  V30 2594 H 238.975 2.15783 -3.57062 0
M  V30 2595 H 237.605 2.12509 -2.42981 0
M  V30 2596 H 236.657 0.131583 -3.80172 0
M  V30 2597 H 237.969 0.391641 -4.9726 0
M  V30 2598 H 237.123 2.70211 -5.43204 0
M  V30 2599 H 235.862 2.50994 -4.18155 0
M  V30 2600 H 234.867 0.595896 -5.46561 0
M  V30 2601 H 236.092 0.810252 -6.74249 0
M  V30 2602 H 234.038 2.88639 -5.89087 0
M  V30 2603 H 233.955 1.90403 -7.3163 0
M  V30 2604 H 235.223 3.08282 -7.15949 0
M  V30 2605 N 239.452 1.56882 -0.150215 0
M  V30 2606 C 240.699 1.96228 0.500093 0
M  V30 2607 C 241.027 1.03522 1.64661 0
M  V30 2608 O 240.282 0.0650683 1.95592 0
M  V30 2609 C 240.581 3.41801 1.04437 0
M  V30 2610 C 240.247 4.50897 0.0159671 0
M  V30 2611 C 238.909 4.8046 -0.266731 0
M  V30 2612 C 241.261 5.16703 -0.683192 0
M  V30 2613 C 238.589 5.73135 -1.25434 0
M  V30 2614 C 240.941 6.10441 -1.65964 0
M  V30 2615 C 239.605 6.38382 -1.95 0
M  V30 2616 H 238.875 0.718048 0.182997 0
M  V30 2617 H 241.522 1.90019 -0.237724 0
M  V30 2618 H 239.827 3.44857 1.85959 0
M  V30 2619 H 241.524 3.69573 1.55618 0
M  V30 2620 H 238.114 4.27891 0.246485 0
M  V30 2621 H 242.298 4.93993 -0.477983 0
M  V30 2622 H 237.554 5.93074 -1.48571 0
M  V30 2623 H 241.728 6.60507 -2.20689 0
M  V30 2624 H 239.355 7.09996 -2.71679 0
M  V30 2625 N 240.93 -0.123565 1.57115 0
M  V30 2626 C 241.84 -1.17074 2.033 0
M  V30 2627 C 242.856 -1.4561 0.952559 0
M  V30 2628 O 244.032 -1.56817 1.26374 0
M  V30 2629 C 241.097 -2.47857 2.42421 0
M  V30 2630 C 240.158 -2.26758 3.64526 0
M  V30 2631 C 239.391 -3.51305 4.01771 0
M  V30 2632 O 239.614 -4.5843 3.39409 0
M  V30 2633 O 238.548 -3.42578 4.94898 0
M  V30 2634 H 242.374 -0.808555 2.92739 0
M  V30 2635 H 239.959 -0.334027 1.45618 0
M  V30 2636 H 241.841 -3.2492 2.68338 0
M  V30 2637 H 240.516 -2.83558 1.5613 0
M  V30 2638 H 239.423 -1.47569 3.43765 0
M  V30 2639 H 240.756 -1.95963 4.51508 0
M  V30 2640 N 242.408 -1.52605 -0.393616 0
M  V30 2641 C 243.657 -1.66649 -1.13627 0
M  V30 2642 C 243.97 -0.410364 -1.91247 0
M  V30 2643 O 245.176 -0.430854 -2.68059 0
M  V30 2644 C 243.632 -2.9449 -2.06891 0
M  V30 2645 C 243.24 -4.27266 -1.34714 0
M  V30 2646 C 244.984 -3.17899 -2.81319 0
M  V30 2647 C 242.891 -5.46217 -2.26717 0
M  V30 2648 H 241.821 -0.62084 -0.427871 0
M  V30 2649 H 244.472 -1.791 -0.399428 0
M  V30 2650 H 242.854 -2.75774 -2.84191 0
M  V30 2651 H 244.028 -4.56518 -0.626714 0
M  V30 2652 H 242.343 -4.10081 -0.722643 0
M  V30 2653 H 244.94 -4.03949 -3.50328 0
M  V30 2654 H 245.283 -2.32777 -3.45139 0
M  V30 2655 H 245.816 -3.37159 -2.11113 0
M  V30 2656 H 242.555 -6.33733 -1.67521 0
M  V30 2657 H 242.075 -5.21283 -2.96689 0
M  V30 2658 H 243.754 -5.7991 -2.86903 0
M  V30 2659 N 243.887 0.651787 -1.4349 0
M  V30 2660 C 244.834 1.76462 -1.4876 0
M  V30 2661 C 245.804 1.62641 -0.337189 0
M  V30 2662 O 246.989 1.82864 -0.544544 0
M  V30 2663 C 244.129 3.14623 -1.41796 0
M  V30 2664 C 243.242 3.39568 -2.67053 0
M  V30 2665 C 242.377 4.67585 -2.52068 0
M  V30 2666 C 241.416 4.85639 -3.72587 0
M  V30 2667 N 240.553 6.04915 -3.56402 0
M  V30 2668 H 245.393 1.71293 -2.43849 0
M  V30 2669 H 242.93 0.835889 -1.21043 0
M  V30 2670 H 244.888 3.94496 -1.35753 0
M  V30 2671 H 243.518 3.18859 -0.50288 0
M  V30 2672 H 242.57 2.53783 -2.8337 0
M  V30 2673 H 243.882 3.48795 -3.56572 0
M  V30 2674 H 243.036 5.55586 -2.4374 0
M  V30 2675 H 241.775 4.60681 -1.60075 0
M  V30 2676 H 240.78 3.96073 -3.81321 0
M  V30 2677 H 242.005 4.94372 -4.65589 0
M  V30 2678 H 239.951 5.9914 -2.67146 0
M  V30 2679 H 239.868 6.15106 -4.39524 0
M  V30 2680 H 241.136 6.95533 -3.51929 0
M  V30 2681 N 245.365 1.30045 0.890287 0
M  V30 2682 C 246.593 1.21472 1.67487 0
M  V30 2683 C 247.008 -0.223241 1.87476 0
M  V30 2684 O 246.365 -1.14828 1.41847 0
M  V30 2685 C 246.416 1.93394 3.05419 0
M  V30 2686 O 246.137 3.31576 2.86337 0
M  V30 2687 C 247.638 1.91414 3.99844 0
M  V30 2688 H 244.858 0.420604 0.522813 0
M  V30 2689 H 247.402 1.7158 1.11268 0
M  V30 2690 H 245.557 1.47099 3.58386 0
M  V30 2691 H 245.971 3.67929 3.73802 0
M  V30 2692 H 247.445 2.46285 4.94012 0
M  V30 2693 H 247.922 0.891833 4.3005 0
M  V30 2694 H 248.528 2.37496 3.52811 0
M  V30 2695 N 246.843 -1.10192 1.12674 0
M  V30 2696 C 248.089 -1.82475 0.884915 0
M  V30 2697 C 248.422 -1.85093 -0.58773 0
M  V30 2698 O 247.697 -1.3134 -1.43457 0
M  V30 2699 C 247.98 -3.29018 1.46353 0
M  V30 2700 C 247.833 -3.34718 3.00473 0
M  V30 2701 C 249.152 -4.25473 1.12519 0
M  V30 2702 H 246.271 -0.662492 0.322915 0
M  V30 2703 H 248.913 -1.2913 1.39375 0
M  V30 2704 H 247.063 -3.74576 1.03077 0
M  V30 2705 H 248.735 -2.97622 3.52447 0
M  V30 2706 H 246.978 -2.74541 3.35872 0
M  V30 2707 H 247.649 -4.37918 3.36053 0
M  V30 2708 H 250.125 -3.88161 1.499 0
M  V30 2709 H 249.001 -5.26365 1.55663 0
M  V30 2710 H 249.262 -4.42084 0.0377407 0
M  V30 2711 N 248.321 -0.919034 -1.28029 0
M  V30 2712 C 249.284 -0.416182 -2.2539 0
M  V30 2713 C 250.284 0.460438 -1.54067 0
M  V30 2714 O 251.474 0.262744 -1.72207 0
M  V30 2715 C 248.606 0.402707 -3.38513 0
M  V30 2716 H 249.799 -1.27629 -2.71387 0
M  V30 2717 H 247.352 -0.698919 -1.39803 0
M  V30 2718 H 248.087 1.282 -2.97885 0
M  V30 2719 H 247.872 -0.225698 -3.9145 0
M  V30 2720 H 249.362 0.745191 -4.10897 0
M  V30 2721 N 249.799 1.42003 -0.683588 0
M  V30 2722 C 251.048 2.00638 -0.206681 0
M  V30 2723 C 251.361 1.5472 1.19671 0
M  V30 2724 O 252.567 2.05833 1.77045 0
M  V30 2725 C 251.023 3.58487 -0.318632 0
M  V30 2726 C 250.631 4.1339 -1.72663 0
M  V30 2727 C 252.375 4.24384 0.0991141 0
M  V30 2728 C 250.282 5.63633 -1.79087 0
M  V30 2729 H 249.212 0.750408 -0.0735107 0
M  V30 2730 H 251.863 1.62624 -0.850048 0
M  V30 2731 H 250.245 3.94047 0.392781 0
M  V30 2732 H 251.419 3.89273 -2.46583 0
M  V30 2733 H 249.734 3.59976 -2.09299 0
M  V30 2734 H 252.331 5.34652 0.0713833 0
M  V30 2735 H 252.674 4.00505 1.13586 0
M  V30 2736 H 253.207 3.93816 -0.561599 0
M  V30 2737 H 249.946 5.92323 -2.80774 0
M  V30 2738 H 249.466 5.89714 -1.09535 0
M  V30 2739 H 251.145 6.28201 -1.5483 0
M  V30 2740 N 251.277 0.427512 1.51691 0
M  V30 2741 C 252.24 -0.377132 2.26076 0
M  V30 2742 C 253.24 -0.958089 1.29141 0
M  V30 2743 O 254.43 -0.83408 1.52934 0
M  V30 2744 C 251.562 -1.53262 3.04506 0
M  V30 2745 H 252.755 0.27464 2.9864 0
M  V30 2746 H 250.308 0.180445 1.55255 0
M  V30 2747 H 251.043 -2.22072 2.36335 0
M  V30 2748 H 250.828 -1.12232 3.75694 0
M  V30 2749 H 252.318 -2.10135 3.60878 0
M  V30 2750 N 252.755 -1.56801 0.158532 0
M  V30 2751 C 253.995 -1.98383 -0.49229 0
M  V30 2752 C 254.359 -1.04184 -1.61275 0
M  V30 2753 O 255.56 -1.34856 -2.32524 0
M  V30 2754 C 253.831 -3.4385 -0.974766 0
M  V30 2755 S 255.39 -4.07459 -1.62857 0
M  V30 2756 H 252.208 -0.693041 -0.158794 0
M  V30 2757 H 254.81 -1.93856 0.252974 0
M  V30 2758 H 253.514 -4.10131 -0.148688 0
M  V30 2759 H 253.045 -3.52115 -1.75438 0
M  V30 2760 H 255.06 -4.01458 -2.91627 0
M  V30 2761 N 254.233 0.115231 -1.57178 0
M  V30 2762 C 255.163 1.1423 -2.03651 0
M  V30 2763 C 256.144 1.42967 -0.921655 0
M  V30 2764 O 257.329 1.53343 -1.19162 0
M  V30 2765 C 254.459 2.4675 -2.44401 0
M  V30 2766 C 253.413 2.32467 -3.59365 0
M  V30 2767 C 252.739 3.69984 -3.86026 0
M  V30 2768 C 254.039 1.78203 -4.90959 0
M  V30 2769 H 255.733 0.755749 -2.89705 0
M  V30 2770 H 253.279 0.362093 -1.39373 0
M  V30 2771 H 255.232 3.18854 -2.75517 0
M  V30 2772 H 253.956 2.87302 -1.55322 0
M  V30 2773 H 252.615 1.62811 -3.28463 0
M  V30 2774 H 252.263 4.08028 -2.94147 0
M  V30 2775 H 251.963 3.61279 -4.63412 0
M  V30 2776 H 253.487 4.43587 -4.19599 0
M  V30 2777 H 254.901 2.40128 -5.20587 0
M  V30 2778 H 253.298 1.8031 -5.72371 0
M  V30 2779 H 254.368 0.739876 -4.79222 0
M  V30 2780 N 255.711 1.52812 0.385517 0
M  V30 2781 C 256.958 1.68026 1.1302 0
M  V30 2782 C 257.286 0.421934 1.89868 0
M  V30 2783 O 256.541 -0.595749 1.86412 0
M  V30 2784 C 256.84 2.86856 2.13187 0
M  V30 2785 C 256.506 4.24159 1.5297 0
M  V30 2786 C 255.168 4.61501 1.36274 0
M  V30 2787 C 257.52 5.09627 1.09223 0
M  V30 2788 C 254.848 5.81966 0.743837 0
M  V30 2789 C 257.2 6.30719 0.487411 0
M  V30 2790 C 255.864 6.6679 0.307777 0
M  V30 2791 H 255.134 0.614849 0.413571 0
M  V30 2792 H 257.781 1.86962 0.414405 0
M  V30 2793 H 256.086 2.6235 2.90998 0
M  V30 2794 H 257.783 2.95821 2.70722 0
M  V30 2795 H 254.373 3.94746 1.66954 0
M  V30 2796 H 258.557 4.81343 1.20922 0
M  V30 2797 H 253.813 6.08519 0.592891 0
M  V30 2798 H 257.987 6.96259 0.140143 0
M  V30 2799 H 255.614 7.60001 -0.173879 0
M  V30 2800 N 257.189 -0.644168 1.43834 0
M  V30 2801 C 258.438 -1.39985 1.45214 0
M  V30 2802 C 258.751 -1.95421 0.0835494 0
M  V30 2803 O 259.957 -2.71488 -0.0251748 0
M  V30 2804 C 258.413 -2.53384 2.55587 0
M  V30 2805 C 258.021 -2.04517 3.98594 0
M  V30 2806 C 259.765 -3.30685 2.66172 0
M  V30 2807 C 257.672 -3.1518 5.00416 0
M  V30 2808 H 256.602 -0.526005 0.540218 0
M  V30 2809 H 259.253 -0.694367 1.69855 0
M  V30 2810 H 257.635 -3.26446 2.24163 0
M  V30 2811 H 258.809 -1.38405 4.39523 0
M  V30 2812 H 257.124 -1.40068 3.92135 0
M  V30 2813 H 259.721 -4.13158 3.39418 0
M  V30 2814 H 260.064 -3.79312 1.71546 0
M  V30 2815 H 260.597 -2.64708 2.96942 0
M  V30 2816 H 257.336 -2.71511 5.96625 0
M  V30 2817 H 256.856 -3.79974 4.64091 0
M  V30 2818 H 258.535 -3.80166 5.23529 0
M  V30 2819 N 258.668 -1.30515 -0.883378 0
M  V30 2820 C 259.615 -1.17032 -1.98927 0
M  V30 2821 C 260.585 -0.0594241 -1.65994 0
M  V30 2822 O 261.77 -0.229895 -1.8941 0
M  V30 2823 C 258.91 -0.869777 -3.33959 0
M  V30 2824 C 258.023 -2.06271 -3.79574 0
M  V30 2825 C 257.158 -1.70011 -5.03259 0
M  V30 2826 C 256.197 -2.8579 -5.41286 0
M  V30 2827 N 255.334 -2.49816 -6.56153 0
M  V30 2828 H 260.174 -2.1164 -2.09792 0
M  V30 2829 H 257.711 -1.05296 -1.02719 0
M  V30 2830 H 259.669 -0.676138 -4.11685 0
M  V30 2831 H 258.299 0.0394332 -3.22776 0
M  V30 2832 H 257.351 -2.36755 -2.97744 0
M  V30 2833 H 258.663 -2.92971 -4.03694 0
M  V30 2834 H 257.817 -1.47032 -5.88614 0
M  V30 2835 H 256.556 -0.804829 -4.81013 0
M  V30 2836 H 255.561 -3.09434 -4.54456 0
M  V30 2837 H 256.786 -3.76008 -5.65504 0
M  V30 2838 H 254.732 -1.62795 -6.35479 0
M  V30 2839 H 254.649 -3.30048 -6.8015 0
M  V30 2840 H 255.917 -2.30197 -7.44735 0
M  V30 2841 N 260.146 1.09593 -1.13257 0
M  V30 2842 C 261.562 1.33775 -0.870423 0
M  V30 2843 C 261.762 1.95327 0.494926 0
M  V30 2844 O 260.818 2.19853 1.2418 0
M  V30 2845 C 262.131 2.25106 -1.99369 0
M  V30 2846 C 263.679 2.3862 -2.02558 0
M  V30 2847 C 264.154 3.33285 -3.14142 0
M  V30 2848 N 265.645 3.40857 -3.13641 0
M  V30 2849 C 266.38 4.14101 -3.96621 0
M  V30 2850 N 265.876 4.90157 -4.8961 0
M  V30 2851 N 267.669 4.09808 -3.84726 0
M  V30 2852 H 259.82 0.680136 -2.01216 0
M  V30 2853 H 262.083 0.362133 -0.876107 0
M  V30 2854 H 261.789 1.87103 -2.97801 0
M  V30 2855 H 261.663 3.25481 -1.90635 0
M  V30 2856 H 264.05 2.75887 -1.0474 0
M  V30 2857 H 264.131 1.38028 -2.15364 0
M  V30 2858 H 263.775 2.96741 -4.12198 0
M  V30 2859 H 263.705 4.33776 -2.98574 0
M  V30 2860 H 266.196 2.86624 -2.46282 0
M  V30 2861 H 266.509 5.4347 -5.49418 0
M  V30 2862 H 264.854 4.89251 -4.93617 0
M  V30 2863 H 268.045 3.4949 -3.11408 0
M  V30 2864 H 268.218 4.66629 -4.49623 0
M  V30 2865 N 261.624 0.925811 1.2754 0
M  V30 2866 C 262.852 0.581509 1.9856 0
M  V30 2867 C 263.267 -0.840041 1.69082 0
M  V30 2868 O 262.624 -1.55805 0.950312 0
M  V30 2869 C 262.675 0.795589 3.52637 0
M  V30 2870 O 262.396 2.16121 3.81082 0
M  V30 2871 C 263.897 0.459744 4.4091 0
M  V30 2872 H 261.117 0.220538 0.633722 0
M  V30 2873 H 263.661 1.24232 1.6244 0
M  V30 2874 H 261.816 0.18161 3.86974 0
M  V30 2875 H 262.23 2.2098 4.75676 0
M  V30 2876 H 263.704 0.660244 5.48037 0
M  V30 2877 H 264.181 -0.604625 4.35018 0
M  V30 2878 H 264.787 1.05178 4.12089 0
M  V30 2879 N 263.102 -1.41638 0.69111 0
M  V30 2880 C 264.513 -1.84346 0.295517 0
M  V30 2881 C 264.864 -1.57833 -1.16547 0
M  V30 2882 O 263.989 -1.04648 -1.89414 0
M  V30 2883 C 264.584 -3.34636 0.529575 0
M  V30 2884 C 263.143 -3.7593 0.187944 0
M  V30 2885 C 262.29 -2.65082 0.814052 0
M  V30 2886 H 265.241 -1.31253 0.892092 0
M  V30 2887 H 265.262 -3.79903 -0.213148 0
M  V30 2888 H 264.774 -3.53901 1.59297 0
M  V30 2889 H 262.875 -3.62268 -0.871367 0
M  V30 2890 H 262.988 -4.74808 0.63985 0
M  V30 2891 H 261.352 -2.53528 0.244017 0
M  V30 2892 H 262.135 -2.87167 1.88123 0
M  V30 2893 N 264.58 -0.43555 -1.51462 0
M  V30 2894 C 265.51 0.367376 -2.30592 0
M  V30 2895 C 266.491 1.02263 -1.35928 0
M  V30 2896 O 267.676 1.02661 -1.64847 0
M  V30 2897 C 264.806 1.46983 -3.14664 0
M  V30 2898 C 263.76 0.938161 -4.17591 0
M  V30 2899 C 263.086 2.13622 -4.90173 0
M  V30 2900 C 264.386 -0.0261621 -5.22293 0
M  V30 2901 H 266.08 -0.292969 -2.97963 0
M  V30 2902 H 263.626 -0.14234 -1.43295 0
M  V30 2903 H 265.579 2.03873 -3.688 0
M  V30 2904 H 264.303 2.15843 -2.4511 0
M  V30 2905 H 262.962 0.391481 -3.64504 0
M  V30 2906 H 262.61 2.81098 -4.17124 0
M  V30 2907 H 262.31 1.78688 -5.59772 0
M  V30 2908 H 263.834 2.7107 -5.47132 0
M  V30 2909 H 265.248 0.452384 -5.71512 0
M  V30 2910 H 263.645 -0.287992 -5.99409 0
M  V30 2911 H 264.715 -0.963391 -4.75233 0
M  V30 2912 N 266.058 1.56714 -0.166846 0
M  V30 2913 C 267.304 1.97813 0.473473 0
M  V30 2914 C 267.659 1.05095 1.61161 0
M  V30 2915 O 266.952 0.0897541 1.9139 0
M  V30 2916 C 267.146 3.42889 1.00806 0
M  V30 2917 C 266.975 4.49635 -0.0767392 0
M  V30 2918 C 265.745 5.02566 -0.524894 0
M  V30 2919 C 267.943 5.06793 -0.875504 0
M  V30 2920 N 265.925 5.9294 -1.59047 0
M  V30 2921 C 267.296 5.93565 -1.79111 0
M  V30 2922 C 269.351 4.89306 -0.921083 0
M  V30 2923 C 268.054 6.64721 -2.74843 0
M  V30 2924 C 270.08 5.61179 -1.86633 0
M  V30 2925 C 269.442 6.47675 -2.76942 0
M  V30 2926 H 265.541 0.769093 0.141489 0
M  V30 2927 H 268.125 1.92874 -0.266031 0
M  V30 2928 H 266.296 3.48382 1.7171 0
M  V30 2929 H 268.028 3.71008 1.61664 0
M  V30 2930 H 264.783 4.73439 -0.123432 0
M  V30 2931 H 265.207 6.42831 -2.12361 0
M  V30 2932 H 269.849 4.22136 -0.23692 0
M  V30 2933 H 267.567 7.31107 -3.44249 0
M  V30 2934 H 271.153 5.49636 -1.90764 0
M  V30 2935 H 270.033 7.02313 -3.48893 0
M  V30 2936 N 267.536 -0.106894 1.57237 0
M  V30 2937 C 268.484 -1.14944 2.02215 0
M  V30 2938 C 269.478 -1.42167 0.92114 0
M  V30 2939 O 270.684 -1.41987 1.10634 0
M  V30 2940 H 267.059 -0.387841 0.64427 0
M  V30 2941 H 269.03 -0.743683 2.88984 0
M  V30 2942 C 267.779 -2.4647 2.4525 0
M  V30 2943 H 267.102 -2.26363 3.29545 0
M  V30 2944 H 268.542 -3.17948 2.80508 0
M  V30 2945 C 267.001 -3.09921 1.321 0
M  V30 2946 O 267.531 -3.9651 0.643622 0
M  V30 2947 N 265.737 -2.69986 1.07497 0
M  V30 2948 H 265.284 -1.99667 1.62761 0
M  V30 2949 H 265.242 -3.12769 0.319876 0
M  V30 2950 N 269.014 -1.53014 -0.377408 0
M  V30 2951 C 270.262 -1.6829 -1.11906 0
M  V30 2952 C 270.583 -0.431206 -1.90173 0
M  V30 2953 O 269.853 0.554595 -1.87886 0
M  V30 2954 H 268.433 -0.620371 -0.416112 0
M  V30 2955 H 271.095 -1.90167 -0.426893 0
M  V30 2956 H 270.191 -2.53862 -1.8155 0
M  V30 2957 N 270.492 0.636531 -1.44174 0
M  V30 2958 C 271.739 1.39619 -1.46672 0
M  V30 2959 C 272.067 1.94257 -0.0972691 0
M  V30 2960 O 271.322 1.73768 0.900175 0
M  V30 2961 C 271.621 2.58309 -2.47005 0
M  V30 2962 C 271.287 2.21992 -3.92467 0
M  V30 2963 C 269.949 2.118 -4.32081 0
M  V30 2964 C 272.301 1.9321 -4.84065 0
M  V30 2965 C 269.629 1.71007 -5.61225 0
M  V30 2966 C 271.981 1.53911 -6.13591 0
M  V30 2967 C 270.645 1.42257 -6.52165 0
M  V30 2968 H 269.915 0.510902 -0.536712 0
M  V30 2969 H 272.562 0.722328 -1.77355 0
M  V30 2970 H 270.867 3.30903 -2.09786 0
M  V30 2971 H 272.564 3.16533 -2.46186 0
M  V30 2972 H 269.154 2.30841 -3.61124 0
M  V30 2973 H 273.338 1.99997 -4.54219 0
M  V30 2974 H 268.594 1.60583 -5.89935 0
M  V30 2975 H 272.768 1.30677 -6.8403 0
M  V30 2976 H 270.395 1.10419 -7.52138 0
M  V30 2977 N 271.97 1.30982 0.876444 0
M  V30 2978 C 272.917 1.18085 1.98304 0
M  V30 2979 C 273.887 0.0682263 1.6596 0
M  V30 2980 O 275.072 0.239937 1.89285 0
M  V30 2981 C 272.212 0.887475 3.33493 0
M  V30 2982 C 271.325 2.08281 3.78475 0
M  V30 2983 C 270.46 1.72678 5.0235 0
M  V30 2984 C 269.499 2.88657 5.39762 0
M  V30 2985 N 268.636 2.53292 6.54819 0
M  V30 2986 H 273.476 2.1275 2.08666 0
M  V30 2987 H 271.013 1.05839 1.02159 0
M  V30 2988 H 272.971 0.697961 4.1132 0
M  V30 2989 H 271.601 -0.022315 3.22792 0
M  V30 2990 H 270.653 2.3833 2.96484 0
M  V30 2991 H 271.965 2.95108 4.02135 0
M  V30 2992 H 271.119 1.50151 5.87826 0
M  V30 2993 H 269.858 0.830327 4.8058 0
M  V30 2994 H 268.863 3.1184 4.52809 0
M  V30 2995 H 270.088 3.79002 5.63502 0
M  V30 2996 H 268.034 1.66163 6.34607 0
M  V30 2997 H 267.951 3.3365 6.7839 0
M  V30 2998 H 269.219 2.34143 7.43503 0
M  V30 2999 N 273.449 -1.08991 1.13837 0
M  V30 3000 C 274.412 -2.13925 0.822715 0
M  V30 3001 C 275.412 -1.599 -0.1699 0
M  V30 3002 O 276.602 -1.74104 0.0577251 0
M  V30 3003 C 273.734 -3.40155 0.225318 0
M  V30 3004 H 274.927 -2.43358 1.75262 0
M  V30 3005 H 272.48 -1.24603 0.943594 0
M  V30 3006 H 273.215 -3.16352 -0.713594 0
M  V30 3007 H 273 -3.80661 0.940193 0
M  V30 3008 H 274.49 -4.17594 0.0214784 0
M  V30 3009 N 274.927 -0.932562 -1.27047 0
M  V30 3010 C 276.204 -0.49377 -1.89265 0
M  V30 3011 C 276.584 1.02833 -1.8436 0
M  V30 3012 O 275.932 1.88461 -1.29209 0
M  V30 3013 C 276.142 -1.04536 -3.32976 0
M  V30 3014 C 277.49 -1.10879 -4.09867 0
M  V30 3015 O 278.514 -0.995327 -3.42011 0
M  V30 3016 O 277.373 -1.28417 -5.31198 0
M  V30 3017 H 274.467 -0.159596 -0.811454 0
M  V30 3018 H 277.013 -1.02457 -1.3528 0
M  V30 3019 H 275.785 -2.08913 -3.30864 0
M  V30 3020 H 275.408 -0.496494 -3.94488 0
M  V30 3021 N 276.405 1.4127 -0.698611 0
M  V30 3022 C 277.652 2.0118 -0.230865 0
M  V30 3023 C 277.98 1.55338 1.17049 0
M  V30 3024 O 277.235 0.756775 1.80475 0
M  V30 3025 C 277.534 3.56592 -0.240192 0
M  V30 3026 C 277.2 4.21955 -1.58948 0
M  V30 3027 C 275.862 4.39524 -1.95887 0
M  V30 3028 C 278.214 4.58576 -2.47704 0
M  V30 3029 C 275.542 4.90992 -3.2116 0
M  V30 3030 C 277.894 5.11435 -3.72313 0
M  V30 3031 C 276.558 5.27215 -4.0939 0
M  V30 3032 H 275.828 0.736169 -0.0844796 0
M  V30 3033 H 278.475 1.69124 -0.8983 0
M  V30 3034 H 276.78 3.88456 0.510797 0
M  V30 3035 H 278.477 4.00758 0.139296 0
M  V30 3036 H 275.067 4.08657 -1.29219 0
M  V30 3037 H 279.251 4.44654 -2.20445 0
M  V30 3038 H 274.507 5.01393 -3.49878 0
M  V30 3039 H 278.681 5.38752 -4.4127 0
M  V30 3040 H 276.308 5.66859 -5.06533 0
M  V30 3041 N 277.883 0.443576 1.51229 0
M  V30 3042 C 279.129 -0.120975 2.02439 0
M  V30 3043 C 279.462 -1.41815 1.32674 0
M  V30 3044 O 278.737 -1.89373 0.443622 0
M  V30 3045 C 279.02 -0.333291 3.58554 0
M  V30 3046 C 278.873 0.982968 4.38928 0
M  V30 3047 C 280.192 -1.10028 4.26124 0
M  V30 3048 H 277.311 -0.0424923 0.735774 0
M  V30 3049 H 279.953 0.583794 1.80809 0
M  V30 3050 H 278.103 -0.933614 3.77115 0
M  V30 3051 H 279.775 1.61775 4.32003 0
M  V30 3052 H 278.018 1.58611 4.03763 0
M  V30 3053 H 278.689 0.788379 5.46341 0
M  V30 3054 H 281.165 -0.591711 4.11871 0
M  V30 3055 H 280.041 -1.21761 5.35225 0
M  V30 3056 H 280.302 -2.12996 3.87408 0
M  V30 3057 N 279.361 -1.56624 0.175154 0
M  V30 3058 C 280.609 -1.96609 -0.467885 0
M  V30 3059 C 280.93 -1.06238 -1.63519 0
M  V30 3060 O 280.2 -0.129523 -1.95471 0
M  V30 3061 H 278.78 -0.726008 -0.175845 0
M  V30 3062 H 281.442 -1.93195 0.257234 0
M  V30 3063 H 280.538 -3.00989 -0.825342 0
M  V30 3064 N 280.839 0.0985539 -1.57292 0
M  V30 3065 C 282.086 0.802678 -1.85912 0
M  V30 3066 C 282.414 1.78901 -0.763186 0
M  V30 3067 O 281.669 1.94178 0.243559 0
M  V30 3068 C 281.968 1.56927 -3.21105 0
M  V30 3069 C 281.634 0.725376 -4.45027 0
M  V30 3070 C 280.296 0.492726 -4.78671 0
M  V30 3071 C 282.648 0.138493 -5.21016 0
M  V30 3072 C 279.976 -0.336727 -5.85733 0
M  V30 3073 C 282.328 -0.678264 -6.28953 0
M  V30 3074 C 280.992 -0.921039 -6.61115 0
M  V30 3075 H 280.262 0.293721 -0.680301 0
M  V30 3076 H 282.909 0.0642841 -1.91392 0
M  V30 3077 H 281.214 2.37914 -3.11294 0
M  V30 3078 H 282.911 2.11841 -3.40477 0
M  V30 3079 H 279.501 0.916815 -4.18679 0
M  V30 3080 H 283.685 0.305404 -4.95359 0
M  V30 3081 H 278.941 -0.533836 -6.09065 0
M  V30 3082 H 283.115 -1.1399 -6.87007 0
M  V30 3083 H 280.742 -1.56556 -7.43905 0
M  V30 3084 N 282.317 1.53212 0.369288 0
M  V30 3085 C 283.542 1.73423 1.1375 0
M  V30 3086 C 283.967 0.460404 1.82378 0
M  V30 3087 O 283.325 -0.585298 1.71592 0
M  V30 3088 C 283.373 2.89769 2.1463 0
M  V30 3089 O 282.477 2.58119 3.21634 0
M  V30 3090 H 281.818 0.576061 0.330227 0
M  V30 3091 H 284.348 2.00083 0.427547 0
M  V30 3092 H 284.358 3.15829 2.58294 0
M  V30 3093 H 283.033 3.8217 1.64071 0
M  V30 3094 H 281.61 2.42864 2.82969 0
M  V30 3095 N 283.795 -0.628877 1.44509 0
M  V30 3096 C 285.044 -1.38437 1.4669 0
M  V30 3097 C 285.357 -1.95322 0.104272 0
M  V30 3098 O 286.563 -2.715 0.00362163 0
M  V30 3099 C 285.019 -2.50659 2.5826 0
M  V30 3100 C 284.627 -2.00277 4.0074 0
M  V30 3101 C 286.371 -3.27844 2.69664 0
M  V30 3102 C 284.278 -3.09854 5.0373 0
M  V30 3103 H 283.208 -0.520245 0.545766 0
M  V30 3104 H 285.859 -0.676313 1.70582 0
M  V30 3105 H 284.241 -3.2405 2.27612 0
M  V30 3106 H 285.415 -1.33736 4.40966 0
M  V30 3107 H 283.73 -1.35901 3.93599 0
M  V30 3108 H 286.327 -4.09534 3.43781 0
M  V30 3109 H 286.67 -3.77471 1.75559 0
M  V30 3110 H 287.203 -2.61543 2.99733 0
M  V30 3111 H 283.942 -2.65168 5.99472 0
M  V30 3112 H 283.462 -3.7503 4.68095 0
M  V30 3113 H 285.141 -3.74592 5.27532 0
M  V30 3114 N 285.273 -1.31445 -0.869486 0
M  V30 3115 C 286.684 -1.19042 -1.43826 0
M  V30 3116 C 287.035 0.202919 -1.95148 0
M  V30 3117 O 286.16 1.10071 -1.86315 0
M  V30 3118 C 286.755 -2.15499 -2.6143 0
M  V30 3119 C 285.314 -2.07028 -3.14351 0
M  V30 3120 C 284.461 -2.04701 -1.87063 0
M  V30 3121 H 287.412 -1.43489 -0.677984 0
M  V30 3122 H 287.433 -1.74488 -3.38134 0
M  V30 3123 H 286.945 -3.16899 -2.24046 0
M  V30 3124 H 285.046 -1.08825 -3.56354 0
M  V30 3125 H 285.159 -2.96157 -3.766 0
M  V30 3126 H 283.523 -1.49724 -2.06046 0
M  V30 3127 H 284.306 -3.07857 -1.51917 0
M  V30 3128 N 286.751 1.08385 -1.14413 0
M  V30 3129 C 288.028 1.77429 -0.823297 0
M  V30 3130 C 288.408 1.9974 0.683163 0
M  V30 3131 O 287.756 1.60739 1.62405 0
M  V30 3132 C 287.966 3.09004 -1.62227 0
M  V30 3133 C 289.314 3.83532 -1.82177 0
M  V30 3134 O 290.338 3.18786 -1.58915 0
M  V30 3135 O 289.197 4.99792 -2.21067 0
M  V30 3136 H 286.291 0.769999 -0.301712 0
M  V30 3137 H 288.837 1.14846 -1.24934 0
M  V30 3138 H 287.609 2.88316 -2.64555 0
M  V30 3139 H 287.232 3.79316 -1.19187 0
M  V30 3140 N 288.23 0.939286 1.26551 0
M  V30 3141 C 289.18 0.418284 2.2413 0
M  V30 3142 C 290.164 -0.483935 1.5345 0
M  V30 3143 O 291.356 -0.319489 1.74093 0
M  V30 3144 C 288.485 -0.31709 3.41832 0
M  V30 3145 C 287.571 0.602311 4.19801 0
M  V30 3146 N 287.962 1.72726 4.75394 0
M  V30 3147 C 286.26 0.407534 4.44134 0
M  V30 3148 C 286.961 2.30004 5.34297 0
M  V30 3149 N 285.937 1.58828 5.1988 0
M  V30 3150 H 289.739 1.27705 2.64705 0
M  V30 3151 H 287.253 0.794929 1.41614 0
M  V30 3152 H 289.25 -0.707364 4.10855 0
M  V30 3153 H 287.91 -1.17264 3.02786 0
M  V30 3154 H 288.921 2.10944 4.72994 0
M  V30 3155 H 285.598 -0.406406 4.15517 0
M  V30 3156 H 286.988 3.24778 5.88191 0
M  V30 3157 N 289.708 -1.40897 0.706093 0
M  V30 3158 C 290.955 -2.01054 0.241531 0
M  V30 3159 C 291.283 -1.55956 -1.16223 0
M  V30 3160 O 290.538 -0.766336 -1.80072 0
M  V30 3161 C 290.837 -3.5646 0.259099 0
M  V30 3162 C 290.503 -4.21106 1.61184 0
M  V30 3163 C 289.165 -4.38479 1.98216 0
M  V30 3164 C 291.517 -4.57256 2.50132 0
M  V30 3165 C 288.845 -4.89282 3.2376 0
M  V30 3166 C 291.197 -5.09454 3.7502 0
M  V30 3167 C 289.861 -5.25037 4.12181 0
M  V30 3168 H 289.131 -0.73571 0.0883825 0
M  V30 3169 H 291.778 -1.68645 0.907257 0
M  V30 3170 H 290.083 -3.88721 -0.490189 0
M  V30 3171 H 291.78 -4.00826 -0.11804 0
M  V30 3172 H 288.37 -4.07966 1.31384 0
M  V30 3173 H 292.554 -4.43479 2.228 0
M  V30 3174 H 287.81 -4.99531 3.52532 0
M  V30 3175 H 291.984 -5.36404 4.44121 0
M  V30 3176 H 289.611 -5.64164 5.09532 0
M  V30 3177 N 291.186 -0.45159 -1.50991 0
M  V30 3178 C 292.432 0.110237 -2.025 0
M  V30 3179 C 292.765 1.41109 -1.33424 0
M  V30 3180 O 292.04 1.89135 -0.453659 0
M  V30 3181 C 292.323 0.314271 -3.58726 0
M  V30 3182 C 292.176 -1.00623 -4.38401 0
M  V30 3183 C 293.495 1.07767 -4.26702 0
M  V30 3184 H 290.614 0.0385897 -0.735989 0
M  V30 3185 H 293.256 -0.593374 -1.80497 0
M  V30 3186 H 291.406 0.913601 -3.77605 0
M  V30 3187 H 293.078 -1.64064 -4.31139 0
M  V30 3188 H 291.321 -1.6075 -4.02917 0
M  V30 3189 H 291.992 -0.817341 -5.45915 0
M  V30 3190 H 294.468 0.56986 -4.12179 0
M  V30 3191 H 293.344 1.18921 -5.35863 0
M  V30 3192 H 293.605 2.10939 -3.88532 0
M  V30 3193 N 292.664 1.56529 -0.183458 0
M  V30 3194 C 293.91 1.97537 0.459036 0
M  V30 3195 C 294.243 1.06989 1.62071 0
M  V30 3196 O 293.518 0.11948 1.94133 0
M  V30 3197 C 293.801 3.47874 0.930368 0
M  V30 3198 C 293.654 4.492 -0.232317 0
M  V30 3199 C 294.973 4.01612 1.79989 0
M  V30 3200 H 292.092 0.718204 0.165383 0
M  V30 3201 H 294.734 1.88042 -0.272038 0
M  V30 3202 H 292.884 3.56095 1.55333 0
M  V30 3203 H 294.556 4.53027 -0.86972 0
M  V30 3204 H 292.799 4.24657 -0.885928 0
M  V30 3205 H 293.47 5.51823 0.139796 0
M  V30 3206 H 295.946 3.96097 1.27461 0
M  V30 3207 H 294.822 5.07195 2.09867 0
M  V30 3208 H 295.083 3.46163 2.74998 0
M  V30 3209 N 294.142 -0.090211 1.57342 0
M  V30 3210 C 295.39 -0.791241 1.85967 0
M  V30 3211 C 295.711 -1.7903 0.772859 0
M  V30 3212 O 294.981 -1.94872 -0.200398 0
M  V30 3213 H 293.561 -0.295205 0.686195 0
M  V30 3214 H 296.223 -0.0706782 1.94772 0
M  V30 3215 H 295.319 -1.31882 2.82867 0
M  V30 3216 N 295.62 -1.53406 -0.361157 0
M  V30 3217 C 296.85 -1.73465 -1.1222 0
M  V30 3218 C 297.258 -0.465486 -1.83384 0
M  V30 3219 O 296.601 0.571611 -1.7458 0
M  V30 3220 C 296.663 -2.84834 -2.19339 0
M  V30 3221 C 296.327 -4.25038 -1.67903 0
M  V30 3222 C 297.324 -5.07231 -1.14074 0
M  V30 3223 C 295.009 -4.71464 -1.73282 0
M  V30 3224 C 297.003 -6.33942 -0.663068 0
M  V30 3225 C 294.69 -5.98153 -1.25127 0
M  V30 3226 C 295.688 -6.79223 -0.717296 0
M  V30 3227 O 295.376 -8.03533 -0.242865 0
M  V30 3228 H 295.108 -0.583526 -0.341283 0
M  V30 3229 H 297.662 -2.00964 -0.424591 0
M  V30 3230 H 295.892 -2.5282 -2.92607 0
M  V30 3231 H 297.581 -2.9303 -2.80871 0
M  V30 3232 H 298.347 -4.72534 -1.09254 0
M  V30 3233 H 294.226 -4.08432 -2.13786 0
M  V30 3234 H 297.77 -6.97167 -0.245612 0
M  V30 3235 H 293.667 -6.32347 -1.29642 0
M  V30 3236 H 294.435 -8.177 -0.361786 0
M  V30 3237 N 297.098 0.621204 -1.44841 0
M  V30 3238 C 298.323 1.41244 -1.51871 0
M  V30 3239 C 298.748 1.87519 -0.147764 0
M  V30 3240 O 298.106 1.59334 0.865 0
M  V30 3241 C 298.154 2.60221 -2.49634 0
M  V30 3242 O 297.258 3.60395 -2.00473 0
M  V30 3243 H 296.599 0.42223 -0.512463 0
M  V30 3244 H 299.129 0.757305 -1.90069 0
M  V30 3245 H 299.139 3.0764 -2.67996 0
M  V30 3246 H 297.814 2.25887 -3.4921 0
M  V30 3247 H 296.391 3.19717 -1.91925 0
M  V30 3248 N 298.576 1.31904 0.862503 0
M  V30 3249 C 299.506 1.22782 1.98612 0
M  V30 3250 C 300.487 0.113362 1.69722 0
M  V30 3251 O 301.672 0.299218 1.91881 0
M  V30 3252 C 298.802 0.942058 3.34279 0
M  V30 3253 C 297.756 2.0169 3.77499 0
M  V30 3254 C 297.082 1.58369 5.10709 0
M  V30 3255 C 298.382 3.43096 3.93805 0
M  V30 3256 H 300.076 2.16788 2.06502 0
M  V30 3257 H 297.622 1.04366 0.992154 0
M  V30 3258 H 299.575 0.864818 4.1243 0
M  V30 3259 H 298.299 -0.0336603 3.26583 0
M  V30 3260 H 296.958 2.08416 3.01593 0
M  V30 3261 H 296.606 0.595628 4.99461 0
M  V30 3262 H 296.306 2.30279 5.40597 0
M  V30 3263 H 297.83 1.52067 5.91361 0
M  V30 3264 H 299.244 3.39003 4.62331 0
M  V30 3265 H 297.641 4.13288 4.35101 0
M  V30 3266 H 298.711 3.83334 2.96957 0
M  V30 3267 N 300.054 -1.07777 1.14986 0
M  V30 3268 C 301.331 -1.7699 0.832695 0
M  V30 3269 C 301.711 -2.001 -0.672561 0
M  V30 3270 O 301.059 -1.61598 -1.6155 0
M  V30 3271 C 301.269 -3.08139 1.63863 0
M  V30 3272 C 302.617 -3.8256 1.84208 0
M  V30 3273 O 303.641 -3.17939 1.60603 0
M  V30 3274 O 302.5 -4.98612 2.23714 0
M  V30 3275 H 299.594 -0.768389 0.305791 0
M  V30 3276 H 302.14 -1.14182 1.25541 0
M  V30 3277 H 300.912 -2.86909 2.6608 0
M  V30 3278 H 300.535 -3.78678 1.21197 0
M  V30 3279 N 301.532 -0.945985 -1.26051 0
M  V30 3280 C 302.762 -0.612136 -1.97323 0
M  V30 3281 C 303.17 0.818171 -1.70595 0
M  V30 3282 O 302.513 1.55777 -0.973613 0
M  V30 3283 C 302.575 -0.780347 -3.50929 0
M  V30 3284 C 302.239 -2.18619 -4.01317 0
M  V30 3285 C 303.236 -3.16209 -4.12683 0
M  V30 3286 C 300.921 -2.50805 -4.35203 0
M  V30 3287 C 302.915 -4.44085 -4.57238 0
M  V30 3288 C 300.602 -3.78912 -4.79446 0
M  V30 3289 C 301.6 -4.75365 -4.90425 0
M  V30 3290 O 301.288 -6.01191 -5.3369 0
M  V30 3291 H 301.02 -0.229134 -0.635982 0
M  V30 3292 H 303.574 -1.27036 -1.61404 0
M  V30 3293 H 301.804 -0.0649864 -3.86645 0
M  V30 3294 H 303.493 -0.448842 -4.03411 0
M  V30 3295 H 304.259 -2.92668 -3.86744 0
M  V30 3296 H 300.138 -1.76463 -4.2589 0
M  V30 3297 H 303.682 -5.19373 -4.65723 0
M  V30 3298 H 299.579 -4.02265 -5.0483 0
M  V30 3299 H 300.347 -6.04442 -5.51899 0
M  V30 3300 N 303.011 1.40521 -0.713556 0
M  V30 3301 C 303.959 2.32549 -0.0485227 0
M  V30 3302 C 304.953 1.51931 0.74922 0
M  V30 3303 O 306.159 1.67745 0.652816 0
M  V30 3304 H 302.534 0.751994 0.00311138 0
M  V30 3305 H 304.505 2.86291 -0.841443 0
M  V30 3306 C 303.254 3.36879 0.860687 0
M  V30 3307 H 302.577 3.98978 0.256246 0
M  V30 3308 H 304.017 4.03772 1.294 0
M  V30 3309 C 302.476 2.72197 1.9852 0
M  V30 3310 O 303.006 2.5837 3.07584 0
M  V30 3311 N 301.212 2.30612 1.76823 0
M  V30 3312 H 300.759 2.42059 0.881217 0
M  V30 3313 H 300.717 1.87672 2.52243 0
M  V30 3314 N 304.489 0.459591 1.5075 0
M  V30 3315 C 305.399 -0.34613 2.32033 0
M  V30 3316 C 306.415 -1.00686 1.41909 0
M  V30 3317 O 307.591 -0.997361 1.7497 0
M  V30 3318 C 304.656 -1.42029 3.16273 0
M  V30 3319 C 303.717 -0.777362 4.22203 0
M  V30 3320 C 302.95 -1.80034 5.02418 0
M  V30 3321 O 303.173 -3.02544 4.83553 0
M  V30 3322 O 302.107 -1.37853 5.85901 0
M  V30 3323 H 305.933 0.318054 3.0203 0
M  V30 3324 H 303.518 0.221663 1.47746 0
M  V30 3325 H 305.4 -2.04275 3.68578 0
M  V30 3326 H 304.075 -2.06815 2.49016 0
M  V30 3327 H 302.982 -0.116256 3.73919 0
M  V30 3328 H 304.315 -0.172634 4.91897 0
M  V30 3329 N 305.967 -1.56429 0.191757 0
M  V30 3330 C 307.216 -1.9666 -0.448088 0
M  V30 3331 C 307.529 -1.08136 -1.62991 0
M  V30 3332 O 308.735 -1.38135 -2.33733 0
M  V30 3333 C 307.191 -3.49753 -0.848585 0
M  V30 3334 C 306.799 -4.46935 0.308764 0
M  V30 3335 C 308.543 -3.9876 -1.4557 0
M  V30 3336 C 306.45 -5.91293 -0.112506 0
M  V30 3337 H 305.38 -0.734312 -0.171179 0
M  V30 3338 H 308.031 -1.81301 0.283242 0
M  V30 3339 H 306.413 -3.60604 -1.63649 0
M  V30 3340 H 307.587 -4.47813 1.08627 0
M  V30 3341 H 305.902 -4.08102 0.827158 0
M  V30 3342 H 308.499 -5.04086 -1.78328 0
M  V30 3343 H 308.842 -3.42875 -2.36099 0
M  V30 3344 H 309.375 -3.9101 -0.731836 0
M  V30 3345 H 306.114 -6.51097 0.758514 0
M  V30 3346 H 305.634 -5.93676 -0.854941 0
M  V30 3347 H 307.313 -6.44663 -0.549448 0
M  V30 3348 N 307.445 0.0818655 -1.57387 0
M  V30 3349 C 308.692 0.782914 -1.86753 0
M  V30 3350 C 309.02 1.78082 -0.782118 0
M  V30 3351 O 308.275 1.94426 0.22295 0
M  V30 3352 C 308.574 1.53513 -3.22752 0
M  V30 3353 C 308.24 0.678134 -4.45771 0
M  V30 3354 C 306.902 0.441929 -4.79166 0
M  V30 3355 C 309.254 0.0832243 -5.21134 0
M  V30 3356 C 306.582 -0.398833 -5.85343 0
M  V30 3357 C 308.934 -0.744935 -6.28199 0
M  V30 3358 C 307.598 -0.991107 -6.60101 0
M  V30 3359 H 306.868 0.286489 -0.683378 0
M  V30 3360 H 309.515 0.0439808 -1.91449 0
M  V30 3361 H 307.82 2.34599 -3.138 0
M  V30 3362 H 309.517 2.08218 -3.42705 0
M  V30 3363 H 306.107 0.872357 -4.19628 0
M  V30 3364 H 310.291 0.252847 -4.95655 0
M  V30 3365 H 305.547 -0.598405 -6.08465 0
M  V30 3366 H 309.721 -1.21271 -6.8576 0
M  V30 3367 H 307.348 -1.64437 -7.42202 0
M  V30 3368 N 308.923 1.53595 0.353017 0
M  V30 3369 C 310.339 1.43648 0.695516 0
M  V30 3370 C 310.539 0.585617 1.92802 0
M  V30 3371 O 309.595 0.0729223 2.52395 0
M  V30 3372 C 310.908 2.8701 0.896991 0
M  V30 3373 C 312.456 2.96723 0.996209 0
M  V30 3374 C 312.931 4.41173 1.23007 0
M  V30 3375 N 314.422 4.44657 1.29749 0
M  V30 3376 C 315.157 5.53547 1.49577 0
M  V30 3377 N 314.653 6.72461 1.66639 0
M  V30 3378 N 316.446 5.41145 1.52048 0
M  V30 3379 H 308.597 2.07415 -0.457481 0
M  V30 3380 H 310.86 0.9372 -0.142687 0
M  V30 3381 H 310.566 3.51644 0.0629938 0
M  V30 3382 H 310.44 3.31401 1.80148 0
M  V30 3383 H 312.827 2.32235 1.82074 0
M  V30 3384 H 312.908 2.55707 0.0688331 0
M  V30 3385 H 312.552 5.06238 0.410505 0
M  V30 3386 H 312.482 4.79772 2.17086 0
M  V30 3387 H 314.973 3.58963 1.18126 0
M  V30 3388 H 315.286 7.51214 1.81378 0
M  V30 3389 H 313.631 6.75423 1.63794 0
M  V30 3390 H 316.822 4.47205 1.38294 0
M  V30 3391 H 316.995 6.26068 1.67159 0
M  V30 3392 N 310.401 -0.613514 1.45168 0
M  V30 3393 C 311.678 -1.37263 1.39349 0
M  V30 3394 C 312.058 -2.11012 0.0610848 0
M  V30 3395 O 311.406 -2.07502 -0.956825 0
M  V30 3396 C 311.616 -2.3244 2.60332 0
M  V30 3397 C 312.964 -2.9523 3.05163 0
M  V30 3398 O 313.988 -2.42762 2.60663 0
M  V30 3399 O 312.847 -3.90454 3.82372 0
M  V30 3400 H 309.941 -0.615188 0.552696 0
M  V30 3401 H 312.487 -0.637097 1.57287 0
M  V30 3402 H 311.259 -1.77164 3.48896 0
M  V30 3403 H 310.882 -3.13383 2.44698 0
M  V30 3404 N 311.879 -1.3236 -0.855495 0
M  V30 3405 C 312.809 -1.23833 -1.97958 0
M  V30 3406 C 313.79 -0.122361 -1.69659 0
M  V30 3407 O 314.975 -0.30939 -1.9172 0
M  V30 3408 C 312.105 -0.959772 -3.33775 0
M  V30 3409 C 311.059 -2.03689 -3.76424 0
M  V30 3410 C 310.385 -1.61075 -5.09862 0
M  V30 3411 C 311.685 -3.4518 -3.9198 0
M  V30 3412 H 313.379 -2.1788 -2.0535 0
M  V30 3413 H 310.925 -1.04891 -0.986605 0
M  V30 3414 H 312.878 -0.886678 -4.11966 0
M  V30 3415 H 311.602 0.0163404 -3.26596 0
M  V30 3416 H 310.261 -2.10012 -3.00484 0
M  V30 3417 H 309.909 -0.622107 -4.99138 0
M  V30 3418 H 309.609 -2.33143 -5.39368 0
M  V30 3419 H 311.133 -1.55201 -5.90546 0
M  V30 3420 H 312.547 -3.4145 -4.60526 0
M  V30 3421 H 310.944 -4.1559 -4.32903 0
M  V30 3422 H 312.014 -3.84903 -2.94919 0
M  V30 3423 N 313.357 1.07166 -1.15556 0
M  V30 3424 C 314.634 1.76546 -0.842069 0
M  V30 3425 C 315.014 2.00453 0.661939 0
M  V30 3426 O 314.362 1.62452 1.60691 0
M  V30 3427 C 314.572 3.07266 -1.65495 0
M  V30 3428 C 315.92 3.81578 -1.86234 0
M  V30 3429 O 316.944 3.17083 -1.62287 0
M  V30 3430 O 315.803 4.97419 -2.26355 0
M  V30 3431 H 312.897 0.766756 -0.309862 0
M  V30 3432 H 315.443 1.13514 -1.26145 0
M  V30 3433 H 314.215 2.85494 -2.67598 0
M  V30 3434 H 313.838 3.7803 -1.23203 0
M  V30 3435 N 314.835 0.952656 1.25548 0
M  V30 3436 C 315.785 0.442033 2.23674 0
M  V30 3437 C 316.769 -0.467632 1.53955 0
M  V30 3438 O 317.961 -0.301006 1.74422 0
M  V30 3439 C 315.09 -0.280816 3.4215 0
M  V30 3440 C 314.176 0.646803 4.19139 0
M  V30 3441 N 314.567 1.77759 4.73535 0
M  V30 3442 C 312.865 0.454617 4.43677 0
M  V30 3443 C 313.566 2.35658 5.31827 0
M  V30 3444 N 312.542 1.64333 5.18166 0
M  V30 3445 H 316.344 1.30505 2.63336 0
M  V30 3446 H 313.858 0.809904 1.40763 0
M  V30 3447 H 315.855 -0.663747 4.11582 0
M  V30 3448 H 314.515 -1.14046 3.04012 0
M  V30 3449 H 315.526 2.15949 4.7073 0
M  V30 3450 H 312.203 -0.362312 4.15925 0
M  V30 3451 H 313.593 3.30998 5.84713 0
M  V30 3452 N 316.313 -1.40141 0.720998 0
M  V30 3453 C 317.553 -2.02644 0.267335 0
M  V30 3454 C 317.917 -1.55948 -1.12001 0
M  V30 3455 O 319.118 -2.10552 -1.67097 0
M  V30 3456 C 317.389 -3.55679 0.350281 0
M  V30 3457 S 318.948 -4.38793 -0.0256004 0
M  V30 3458 H 315.766 -0.703105 0.105664 0
M  V30 3459 H 318.368 -1.71175 0.944416 0
M  V30 3460 H 317.072 -3.87157 1.36153 0
M  V30 3461 H 316.603 -3.91883 -0.345096 0
M  V30 3462 H 318.618 -4.803 -1.24604 0
M  V30 3463 N 317.792 -0.46758 -1.50504 0
M  V30 3464 C 319.032 0.0874114 -2.04213 0
M  V30 3465 C 319.396 1.37301 -1.34211 0
M  V30 3466 O 320.597 2.01015 -1.78456 0
M  V30 3467 C 318.868 0.270571 -3.56374 0
M  V30 3468 S 320.427 0.784623 -4.31728 0
M  V30 3469 H 317.245 0.0176153 -0.710782 0
M  V30 3470 H 319.847 -0.633915 -1.84937 0
M  V30 3471 H 318.551 -0.670942 -4.04878 0
M  V30 3472 H 318.082 1.01811 -3.79997 0
M  V30 3473 H 320.097 2.05849 -4.51487 0
M  V30 3474 N 319.27 1.56325 -0.20005 0
M  V30 3475 C 320.2 2.22318 0.713916 0
M  V30 3476 C 321.181 1.18788 1.21752 0
M  V30 3477 O 322.366 1.47309 1.26545 0
M  V30 3478 C 319.496 2.88639 1.93144 0
M  V30 3479 C 318.45 3.98457 1.56255 0
M  V30 3480 C 317.776 4.51967 2.85709 0
M  V30 3481 C 319.076 5.16612 0.768747 0
M  V30 3482 H 320.77 2.98952 0.163755 0
M  V30 3483 H 318.316 1.43792 0.0773219 0
M  V30 3484 H 320.269 3.33491 2.57608 0
M  V30 3485 H 318.993 2.09419 2.50621 0
M  V30 3486 H 317.652 3.54305 0.941471 0
M  V30 3487 H 317.3 3.69503 3.41287 0
M  V30 3488 H 317 5.26071 2.6177 0
M  V30 3489 H 318.524 4.99523 3.51154 0
M  V30 3490 H 319.938 5.57977 1.3166 0
M  V30 3491 H 318.335 5.96812 0.627286 0
M  V30 3492 H 319.405 4.84358 -0.229168 0
M  V30 3493 N 320.748 -0.0735177 1.57428 0
M  V30 3494 C 321.994 -0.774145 1.87443 0
M  V30 3495 C 322.327 -1.77311 0.792103 0
M  V30 3496 O 321.602 -1.93492 -0.197793 0
M  V30 3497 C 321.885 -1.48367 3.28115 0
M  V30 3498 C 321.738 -0.501227 4.46999 0
M  V30 3499 C 323.057 -2.429 3.66998 0
M  V30 3500 H 320.176 -0.279971 0.681752 0
M  V30 3501 H 322.818 -0.0373616 1.89963 0
M  V30 3502 H 320.968 -2.11171 3.26097 0
M  V30 3503 H 322.64 0.121468 4.6114 0
M  V30 3504 H 320.883 0.183593 4.33411 0
M  V30 3505 H 321.554 -1.03526 5.42205 0
M  V30 3506 H 324.03 -1.90175 3.70098 0
M  V30 3507 H 322.906 -2.89549 4.66318 0
M  V30 3508 H 323.167 -3.27628 2.96837 0
M  V30 3509 N 322.226 -1.5378 -0.344866 0
M  V30 3510 C 323.174 -1.82373 -1.4437 0
M  V30 3511 C 324.168 -0.694128 -1.54526 0
M  V30 3512 O 325.374 -0.877442 -1.57165 0
M  V30 3513 H 321.749 -0.577765 -0.481344 0
M  V30 3514 H 323.72 -2.74306 -1.17468 0
M  V30 3515 C 322.469 -2.04898 -2.80913 0
M  V30 3516 H 321.792 -2.9127 -2.73865 0
M  V30 3517 H 323.232 -2.28871 -3.56923 0
M  V30 3518 C 321.691 -0.834116 -3.26411 0
M  V30 3519 O 322.221 -0.0328885 -4.01687 0
M  V30 3520 N 320.427 -0.65171 -2.83198 0
M  V30 3521 H 319.974 -1.30489 -2.22104 0
M  V30 3522 H 319.932 0.159686 -3.13994 0
M  V30 3523 N 323.704 0.605807 -1.45491 0
M  V30 3524 C 324.981 1.36522 -1.40075 0
M  V30 3525 C 325.361 2.10976 -0.0722744 0
M  V30 3526 O 324.709 2.08007 0.945808 0
M  V30 3527 C 324.919 2.31056 -2.61561 0
M  V30 3528 C 326.267 2.93608 -3.06724 0
M  V30 3529 O 327.291 2.41376 -2.61946 0
M  V30 3530 O 326.15 3.88421 -3.84437 0
M  V30 3531 H 323.244 0.612248 -0.555951 0
M  V30 3532 H 325.79 0.628747 -1.57623 0
M  V30 3533 H 324.562 1.75311 -3.49831 0
M  V30 3534 H 324.185 3.12081 -2.46356 0
M  V30 3535 N 325.182 1.32811 0.848464 0
M  V30 3536 C 326.092 1.24278 1.98978 0
M  V30 3537 C 327.108 0.155176 1.73307 0
M  V30 3538 O 328.284 0.376999 1.9784 0
M  V30 3539 C 325.349 0.972444 3.32783 0
M  V30 3540 C 324.41 2.14911 3.71634 0
M  V30 3541 C 323.643 1.89157 4.99054 0
M  V30 3542 O 323.866 0.837165 5.64223 0
M  V30 3543 O 322.8 2.75433 5.35183 0
M  V30 3544 H 326.626 2.20238 2.09115 0
M  V30 3545 H 324.211 1.12762 0.980052 0
M  V30 3546 H 326.093 0.838432 4.12975 0
M  V30 3547 H 324.768 0.043051 3.23671 0
M  V30 3548 H 323.675 2.33862 2.91992 0
M  V30 3549 H 325.008 3.06151 3.85399 0
M  V30 3550 N 326.66 -1.06551 1.16123 0
M  V30 3551 C 327.908 -1.78947 0.939267 0
M  V30 3552 C 328.229 -1.87532 -0.534476 0
M  V30 3553 O 327.499 -1.38211 -1.38833 0
M  V30 3554 H 326.079 -0.662807 0.344523 0
M  V30 3555 H 328.741 -1.28725 1.46342 0
M  V30 3556 H 327.837 -2.81117 1.35572 0
M  V30 3557 N 328.138 -0.959301 -1.25041 0
M  V30 3558 C 329.085 -0.482057 -2.2571 0
M  V30 3559 C 330.055 0.467939 -1.59372 0
M  V30 3560 O 331.24 0.380159 -1.86974 0
M  V30 3561 C 328.38 0.229623 -3.44335 0
M  V30 3562 C 327.493 -0.758156 -4.25295 0
M  V30 3563 C 326.628 -0.0234403 -5.31195 0
M  V30 3564 C 325.667 -1.00184 -6.03846 0
M  V30 3565 N 324.804 -0.29769 -7.01469 0
M  V30 3566 H 329.644 -1.34538 -2.65901 0
M  V30 3567 H 327.181 -0.674592 -1.3072 0
M  V30 3568 H 329.139 0.658856 -4.11965 0
M  V30 3569 H 327.769 1.05696 -3.05005 0
M  V30 3570 H 326.821 -1.30586 -3.57284 0
M  V30 3571 H 328.133 -1.50458 -4.75567 0
M  V30 3572 H 327.287 0.464201 -6.04922 0
M  V30 3573 H 326.026 0.755741 -4.81809 0
M  V30 3574 H 325.031 -1.50044 -5.2893 0
M  V30 3575 H 326.256 -1.78133 -6.55321 0
M  V30 3576 H 324.202 0.462668 -6.54366 0
M  V30 3577 H 324.119 -0.983128 -7.4958 0
M  V30 3578 H 325.387 0.16826 -7.79318 0
M  V30 3579 N 329.616 1.39756 -0.72842 0
M  V30 3580 C 330.563 2.30647 -0.0841519 0
M  V30 3581 C 331.533 1.48869 0.7367 0
M  V30 3582 O 332.718 1.77574 0.698015 0
M  V30 3583 C 329.858 3.35165 0.822091 0
M  V30 3584 C 328.971 4.31999 -0.0106663 0
M  V30 3585 C 328.106 5.23585 0.896241 0
M  V30 3586 C 327.145 6.12072 0.0583381 0
M  V30 3587 N 326.282 6.96035 0.920818 0
M  V30 3588 H 331.122 2.85173 -0.864891 0
M  V30 3589 H 328.659 1.40422 -0.438179 0
M  V30 3590 H 330.617 3.94345 1.36189 0
M  V30 3591 H 329.247 2.8211 1.56888 0
M  V30 3592 H 328.299 3.74492 -0.66781 0
M  V30 3593 H 329.611 4.9443 -0.658825 0
M  V30 3594 H 328.765 5.87759 1.50412 0
M  V30 3595 H 327.504 4.61459 1.57819 0
M  V30 3596 H 326.509 5.46916 -0.562389 0
M  V30 3597 H 327.734 6.76261 -0.6203 0
M  V30 3598 H 325.68 6.36485 1.58818 0
M  V30 3599 H 325.597 7.55284 0.32899 0
M  V30 3600 H 326.865 7.64646 1.51447 0
M  V30 3601 N 331.094 0.475555 1.50254 0
M  V30 3602 C 332.041 -0.316293 2.28622 0
M  V30 3603 C 333.011 -0.983227 1.33873 0
M  V30 3604 O 334.196 -0.994805 1.62814 0
M  V30 3605 C 331.336 -1.38975 3.1588 0
M  V30 3606 C 330.449 -0.737146 4.25664 0
M  V30 3607 C 329.584 -1.78887 5.00173 0
M  V30 3608 C 328.623 -1.11676 6.01826 0
M  V30 3609 N 327.76 -2.11154 6.69596 0
M  V30 3610 H 332.6 0.358297 2.95838 0
M  V30 3611 H 330.137 0.188541 1.45887 0
M  V30 3612 H 332.095 -2.02383 3.64825 0
M  V30 3613 H 330.725 -2.03344 2.50701 0
M  V30 3614 H 329.777 0.0096065 3.80399 0
M  V30 3615 H 331.089 -0.206816 4.98371 0
M  V30 3616 H 330.243 -2.49865 5.52859 0
M  V30 3617 H 328.982 -2.35302 4.27182 0
M  V30 3618 H 327.987 -0.392633 5.48396 0
M  V30 3619 H 329.212 -0.55945 6.76792 0
M  V30 3620 H 327.158 -2.66577 5.99394 0
M  V30 3621 H 327.075 -1.63118 7.38193 0
M  V30 3622 H 328.343 -2.81497 7.26897 0
M  V30 3623 N 332.573 -1.56217 0.208337 0
M  V30 3624 C 333.803 -2.02043 -0.431523 0
M  V30 3625 C 334.211 -1.08755 -1.54819 0
M  V30 3626 O 333.554 -0.0870009 -1.83494 0
M  V30 3627 C 333.616 -3.44239 -1.03633 0
M  V30 3628 C 333.28 -4.56965 -0.0567502 0
M  V30 3629 C 334.277 -5.14624 0.738773 0
M  V30 3630 C 331.962 -5.02266 0.0581736 0
M  V30 3631 C 333.956 -6.16045 1.63605 0
M  V30 3632 C 331.643 -6.03528 0.959001 0
M  V30 3633 C 332.641 -6.60293 1.7465 0
M  V30 3634 O 332.329 -7.59586 2.6322 0
M  V30 3635 H 332.061 -0.666772 -0.111313 0
M  V30 3636 H 334.615 -2.02919 0.318277 0
M  V30 3637 H 332.845 -3.40391 -1.83497 0
M  V30 3638 H 334.534 -3.73793 -1.58221 0
M  V30 3639 H 335.3 -4.80483 0.660364 0
M  V30 3640 H 331.179 -4.57771 -0.544633 0
M  V30 3641 H 334.723 -6.60279 2.25116 0
M  V30 3642 H 330.62 -6.37092 1.03848 0
M  V30 3643 H 331.388 -7.77057 2.57148 0
M  V30 3644 N 334.051 0.0651679 -1.57465 0
M  V30 3645 C 334.998 1.07675 -2.04144 0
M  V30 3646 C 335.968 1.38071 -0.923335 0
M  V30 3647 O 337.153 1.49026 -1.19146 0
M  V30 3648 C 334.293 2.38337 -2.49579 0
M  V30 3649 C 333.406 2.14413 -3.75035 0
M  V30 3650 C 332.541 3.38686 -4.09225 0
M  V30 3651 C 331.58 3.10156 -5.27702 0
M  V30 3652 N 330.717 4.26778 -5.57499 0
M  V30 3653 H 335.557 0.671716 -2.90331 0
M  V30 3654 H 333.094 0.3201 -1.43575 0
M  V30 3655 H 335.052 3.14632 -2.73975 0
M  V30 3656 H 333.682 2.7663 -1.6636 0
M  V30 3657 H 332.734 1.2878 -3.57939 0
M  V30 3658 H 334.046 1.89344 -4.61466 0
M  V30 3659 H 333.2 4.23373 -4.34558 0
M  V30 3660 H 331.939 3.66837 -3.21374 0
M  V30 3661 H 330.944 2.23866 -5.02159 0
M  V30 3662 H 332.169 2.8332 -6.17176 0
M  V30 3663 H 330.115 4.54948 -4.72608 0
M  V30 3664 H 330.032 4.05005 -6.38362 0
M  V30 3665 H 331.3 5.12443 -5.87386 0
M  V30 3666 N 335.529 1.53961 0.336706 0
M  V30 3667 C 336.492 1.81724 1.39675 0
M  V30 3668 C 337.492 0.688532 1.45313 0
M  V30 3669 O 338.682 0.956829 1.45569 0
M  V30 3670 C 335.814 1.96543 2.78538 0
M  V30 3671 H 337.007 2.76424 1.16318 0
M  V30 3672 H 334.56 1.45478 0.571474 0
M  V30 3673 H 335.295 1.0401 3.07168 0
M  V30 3674 H 335.08 2.78665 2.75841 0
M  V30 3675 H 336.57 2.19516 3.5525 0
M  V30 3676 N 337.007 -0.598083 1.45811 0
M  V30 3677 C 338.235 -1.38322 1.53866 0
M  V30 3678 C 338.65 -1.87992 0.174479 0
M  V30 3679 O 338.007 -1.62756 -0.825627 0
M  V30 3680 C 338.058 -2.58125 2.53089 0
M  V30 3681 O 337.779 -2.10516 3.84206 0
M  V30 3682 C 339.28 -3.50869 2.70935 0
M  V30 3683 H 336.5 -0.423093 0.520801 0
M  V30 3684 H 339.044 -0.728527 1.91083 0
M  V30 3685 H 337.199 -3.19615 2.18917 0
M  V30 3686 H 337.613 -2.88425 4.38077 0
M  V30 3687 H 339.087 -4.31451 3.44317 0
M  V30 3688 H 339.564 -4.01822 1.77301 0
M  V30 3689 H 340.17 -2.95225 3.06141 0
M  V30 3690 N 338.485 -1.33259 -0.841409 0
M  V30 3691 C 339.71 -1.2775 -1.63385 0
M  V30 3692 C 340.135 0.149188 -1.87507 0
M  V30 3693 O 339.493 1.10498 -1.43736 0
M  V30 3694 C 339.541 -2.05571 -2.96265 0
M  V30 3695 O 338.645 -1.41257 -3.87453 0
M  V30 3696 H 337.986 -0.439627 -0.497618 0
M  V30 3697 H 340.516 -1.75782 -1.04699 0
M  V30 3698 H 340.526 -2.16241 -3.45982 0
M  V30 3699 H 339.201 -3.09309 -2.7803 0
M  V30 3700 H 337.778 -1.39217 -3.45938 0
M  V30 3701 N 339.963 1.05934 -1.16686 0
M  V30 3702 C 340.893 2.1546 -0.899949 0
M  V30 3703 C 341.874 1.69391 0.155154 0
M  V30 3704 O 343.059 1.94199 0.00648693 0
M  V30 3705 C 340.189 3.44939 -0.404241 0
M  V30 3706 C 339.143 4.04536 -1.39767 0
M  V30 3707 C 338.469 5.29268 -0.760216 0
M  V30 3708 C 339.769 4.42893 -2.76845 0
M  V30 3709 H 341.463 2.38046 -1.81588 0
M  V30 3710 H 339.009 1.14404 -0.874514 0
M  V30 3711 H 340.962 4.20901 -0.204971 0
M  V30 3712 H 339.686 3.21983 0.547206 0
M  V30 3713 H 338.345 3.30635 -1.58355 0
M  V30 3714 H 337.993 5.02611 0.197831 0
M  V30 3715 H 337.693 5.70101 -1.42332 0
M  V30 3716 H 339.217 6.07924 -0.57105 0
M  V30 3717 H 340.631 5.09921 -2.62019 0
M  V30 3718 H 339.028 4.94721 -3.39663 0
M  V30 3719 H 340.098 3.53584 -3.31823 0
M  V30 3720 O 341.48 1.09547 1.18667 0
M  V30 3721 H 342.171 0.792406 1.7675 0
M  V30 END ATOM
M  V30 BEGIN BOND
M  V30 END BOND
M  V30 END CTAB
M  END
$$$$
