drugbank_target|P02741 C-reactive protein (DB03945; DB05744)
 OpenBabel12092119423D

  0  0  0     0  0            999 V3000
M  V30 BEGIN CTAB
M  V30 COUNTS 3513 3562 0 0 0
M  V30 BEGIN ATOM
M  V30 1 H -0.908 1.98254 -0.117106 0
M  V30 2 N 0 1.576 0 0
M  V30 3 C 0.933 2.03868 1.02534 0
M  V30 4 C 1.911 0.928543 1.3348 0
M  V30 5 O 3.095 1.19667 1.45644 0
M  V30 6 C 0.222 2.43627 2.35294 0
M  V30 7 C -0.732 3.65373 2.2001 0
M  V30 8 S 0.101 5.13292 1.52614 0
M  V30 9 C 1.257 5.56322 2.86805 0
M  V30 10 H 1.49 2.90518 0.631377 0
M  V30 11 H -0.977 1.52953 0.210867 0
M  V30 12 H 0.981 2.67203 3.11629 0
M  V30 13 H -0.358 1.57376 2.7183 0
M  V30 14 H -1.165 3.90944 3.18086 0
M  V30 15 H -1.563 3.418 1.51819 0
M  V30 16 H 0.729 5.58782 3.83104 0
M  V30 17 H 1.672 6.56266 2.65933 0
M  V30 18 H 2.08 4.83886 2.90714 0
M  V30 19 N 1.4781 -0.272755 1.55222 0
M  V30 20 C 2.3881 -1.35918 1.91216 0
M  V30 21 C 3.4041 -1.54026 0.809436 0
M  V30 22 O 4.5801 -1.68148 1.10852 0
M  V30 23 C 1.6451 -2.69834 2.17693 0
M  V30 24 C 0.7061 -2.6047 3.41253 0
M  V30 25 C -0.0609 -3.88 3.66458 0
M  V30 26 O 0.1621 -4.88693 2.94169 0
M  V30 27 O -0.9039 -3.88189 4.59992 0
M  V30 28 H 2.9221 -1.0839 2.83699 0
M  V30 29 H 0.5071 -0.471301 1.41771 0
M  V30 30 H 2.3891 -3.49017 2.36147 0
M  V30 31 H 1.0641 -2.97148 1.28392 0
M  V30 32 H -0.0289 -1.79663 3.28134 0
M  V30 33 H 1.3041 -2.38106 4.30774 0
M  V30 34 N 2.9562 -1.48159 -0.537278 0
M  V30 35 C 3.9032 -1.62138 -1.64256 0
M  V30 36 C 4.8732 -0.463668 -1.59497 0
M  V30 37 O 6.0582 -0.686241 -1.78032 0
M  V30 38 C 3.1982 -1.66028 -3.02537 0
M  V30 39 C 2.3112 -2.92855 -3.17585 0
M  V30 40 C 1.4462 -2.87952 -4.46382 0
M  V30 41 C 0.4852 -4.09516 -4.54932 0
M  V30 42 N -0.3778 -4.02733 -5.75109 0
M  V30 43 H 4.4622 -2.56529 -1.51647 0
M  V30 44 H 1.9992 -1.27224 -0.738414 0
M  V30 45 H 3.9572 -1.66265 -3.82638 0
M  V30 46 H 2.5872 -0.751331 -3.13934 0
M  V30 47 H 1.6392 -3.02395 -2.30784 0
M  V30 48 H 2.9512 -3.82822 -3.19764 0
M  V30 49 H 2.1052 -2.8655 -5.34765 0
M  V30 50 H 0.8442 -1.95702 -4.46712 0
M  V30 51 H -0.1508 -4.11201 -3.64957 0
M  V30 52 H 1.0742 -5.02917 -4.56346 0
M  V30 53 H -0.9798 -3.13299 -5.76351 0
M  V30 54 H -1.0628 -4.86397 -5.78752 0
M  V30 55 H 0.2052 -4.05379 -6.65799 0
M  V30 56 N 4.4343 0.785586 -1.36625 0
M  V30 57 C 5.3643 1.91259 -1.33949 0
M  V30 58 C 6.3453 1.68795 -0.210325 0
M  V30 59 O 7.5303 1.89854 -0.408561 0
M  V30 60 C 4.6603 3.28339 -1.13186 0
M  V30 61 C 3.6143 3.65335 -2.22967 0
M  V30 62 C 2.9403 5.00806 -1.87342 0
M  V30 63 C 4.2403 3.7352 -3.65075 0
M  V30 64 H 5.9343 1.93755 -2.28253 0
M  V30 65 H 3.4803 0.930788 -1.09874 0
M  V30 66 H 5.4333 4.06804 -1.09948 0
M  V30 67 H 4.1573 3.2624 -0.153332 0
M  V30 68 H 2.8163 2.89169 -2.25337 0
M  V30 69 H 2.4643 4.95233 -0.880545 0
M  V30 70 H 2.1643 5.26529 -2.60846 0
M  V30 71 H 3.6883 5.81687 -1.85667 0
M  V30 72 H 5.1023 4.42168 -3.64911 0
M  V30 73 H 3.4993 4.10731 -4.37516 0
M  V30 74 H 4.5693 2.74527 -3.99703 0
M  V30 75 N 5.9124 1.20967 1.01018 0
M  V30 76 C 6.8424 0.988272 2.11555 0
M  V30 77 C 7.8234 -0.0849778 1.69888 0
M  V30 78 O 9.0084 0.0738202 1.9406 0
M  V30 79 C 6.1384 0.546528 3.42973 0
M  V30 80 C 5.0924 1.56375 3.9841 0
M  V30 81 C 4.4184 0.97842 5.25672 0
M  V30 82 C 5.7184 2.94922 4.31066 0
M  V30 83 H 7.4124 1.91276 2.30334 0
M  V30 84 H 4.9584 0.921073 1.1069 0
M  V30 85 H 6.9114 0.378839 4.19694 0
M  V30 86 H 5.6354 -0.413598 3.23971 0
M  V30 87 H 4.2944 1.71891 3.23804 0
M  V30 88 H 3.9424 0.0101688 5.02999 0
M  V30 89 H 3.6424 1.65784 5.63728 0
M  V30 90 H 5.1664 0.821939 6.05043 0
M  V30 91 H 6.5804 2.8288 4.9865 0
M  V30 92 H 4.9774 3.5983 4.80253 0
M  V30 93 H 6.0474 3.4616 3.39561 0
M  V30 94 N 7.3905 -1.2043 1.01659 0
M  V30 95 C 8.6305 -1.91507 0.714456 0
M  V30 96 C 8.9945 -1.77073 -0.742237 0
M  V30 97 O 10.1955 -2.42631 -1.15688 0
M  V30 98 C 8.4665 -3.38795 1.13809 0
M  V30 99 S 10.0255 -4.28216 0.957925 0
M  V30 100 H 6.8435 -0.661571 0.260471 0
M  V30 101 H 9.4455 -1.45671 1.30384 0
M  V30 102 H 8.1495 -3.46822 2.19415 0
M  V30 103 H 7.6805 -3.89656 0.541474 0
M  V30 104 H 9.6955 -4.96007 -0.138531 0
M  V30 105 N 8.8686 -0.792821 -1.36206 0
M  V30 106 C 10.1156 -0.366786 -1.99151 0
M  V30 107 C 10.4436 1.06243 -1.62919 0
M  V30 108 O 9.6986 1.74927 -0.877442 0
M  V30 109 C 9.9976 -0.481501 -3.54142 0
M  V30 110 C 9.6636 -1.87202 -4.10203 0
M  V30 111 C 8.3256 -2.25248 -4.25226 0
M  V30 112 C 10.6776 -2.78237 -4.40719 0
M  V30 113 C 8.0056 -3.53723 -4.68078 0
M  V30 114 C 10.3576 -4.06144 -4.85005 0
M  V30 115 C 9.0216 -4.44207 -4.98234 0
M  V30 116 H 8.2916 -0.134217 -0.728743 0
M  V30 117 H 10.9386 -1.01094 -1.62641 0
M  V30 118 H 9.2436 0.246146 -3.91026 0
M  V30 119 H 10.9406 -0.132844 -4.0078 0
M  V30 120 H 7.5306 -1.56639 -3.98951 0
M  V30 121 H 11.7146 -2.50097 -4.28679 0
M  V30 122 H 6.9706 -3.8308 -4.76508 0
M  V30 123 H 11.1446 -4.76796 -5.07581 0
M  V30 124 H 8.7716 -5.43814 -5.31197 0
M  V30 125 N 10.3467 1.47872 -0.545128 0
M  V30 126 C 11.2767 2.32661 0.197793 0
M  V30 127 C 12.2577 1.43041 0.920504 0
M  V30 128 O 13.4427 1.71912 0.90333 0
M  V30 129 C 10.5727 3.24569 1.23582 0
M  V30 130 C 9.5267 4.23333 0.630323 0
M  V30 131 C 8.8527 5.0448 1.77211 0
M  V30 132 C 10.1527 5.20704 -0.407974 0
M  V30 133 H 11.8467 2.95024 -0.510045 0
M  V30 134 H 9.3927 1.4187 -0.246731 0
M  V30 135 H 11.3457 3.8272 1.76362 0
M  V30 136 H 10.0697 2.60236 1.97344 0
M  V30 137 H 8.7287 3.6639 0.123922 0
M  V30 138 H 8.3767 4.36561 2.49847 0
M  V30 139 H 8.0767 5.71339 1.37281 0
M  V30 140 H 9.6007 5.65487 2.3034 0
M  V30 141 H 11.0147 5.7329 0.033305 0
M  V30 142 H 9.4117 5.95699 -0.725486 0
M  V30 143 H 10.4817 4.66917 -1.30828 0
M  V30 144 N 11.8248 0.280983 1.55075 0
M  V30 145 C 13.0708 -0.33461 2.00021 0
M  V30 146 C 13.4038 -1.55063 1.16915 0
M  V30 147 O 12.6788 -1.93006 0.240646 0
M  V30 148 C 12.9618 -0.711007 3.53011 0
M  V30 149 C 12.8148 0.512766 4.46868 0
M  V30 150 C 14.1338 -1.54522 4.12081 0
M  V30 151 H 11.2528 -0.120147 0.727141 0
M  V30 152 H 13.8948 0.389097 1.85973 0
M  V30 153 H 12.0448 -1.32761 3.65112 0
M  V30 154 H 13.7168 1.15131 4.46702 0
M  V30 155 H 11.9598 1.14975 4.18286 0
M  V30 156 H 12.6308 0.205556 5.51617 0
M  V30 157 H 15.1068 -1.02442 4.03293 0
M  V30 158 H 13.9828 -1.77739 5.19327 0
M  V30 159 H 14.2438 -2.52813 3.62682 0
M  V30 160 N 13.3029 -1.57598 0.00835791 0
M  V30 161 C 14.2329 -2.1198 -0.979113 0
M  V30 162 C 15.2139 -1.03091 -1.35301 0
M  V30 163 O 16.3989 -1.30818 -1.43528 0
M  V30 164 C 13.5289 -2.62995 -2.26828 0
M  V30 165 C 12.4829 -3.76485 -2.03576 0
M  V30 166 C 11.8089 -4.13846 -3.38579 0
M  V30 167 C 13.1089 -5.0342 -1.39161 0
M  V30 168 H 14.8029 -2.94738 -0.526281 0
M  V30 169 H 12.3489 -1.41783 -0.251704 0
M  V30 170 H 14.3019 -2.99669 -2.96271 0
M  V30 171 H 13.0259 -1.7737 -2.7424 0
M  V30 172 H 11.6849 -3.40217 -1.36557 0
M  V30 173 H 11.3329 -3.25232 -3.83709 0
M  V30 174 H 11.0329 -4.90312 -3.23834 0
M  V30 175 H 12.5569 -4.53086 -4.09323 0
M  V30 176 H 13.9709 -5.37812 -1.98573 0
M  V30 177 H 12.3679 -5.84746 -1.34878 0
M  V30 178 H 13.4379 -4.83548 -0.361868 0
M  V30 179 N 14.781 0.264519 -1.55364 0
M  V30 180 C 16.009 1.013 -1.80405 0
M  V30 181 C 16.424 1.79618 -0.581622 0
M  V30 182 O 15.781 1.76879 0.449468 0
M  V30 183 C 15.832 1.96487 -3.03439 0
M  V30 184 O 15.553 1.21341 -4.20961 0
M  V30 185 C 17.054 2.83079 -3.41147 0
M  V30 186 H 14.274 0.298875 -0.600762 0
M  V30 187 H 16.818 0.292736 -2.02394 0
M  V30 188 H 14.973 2.63965 -2.83551 0
M  V30 189 H 15.387 1.85573 -4.90574 0
M  V30 190 H 16.861 3.4565 -4.30384 0
M  V30 191 H 17.338 3.53286 -2.60932 0
M  V30 192 H 17.944 2.2108 -3.63323 0
M  V30 193 N 16.2591 1.48442 0.529413 0
M  V30 194 C 17.4841 1.60406 1.31471 0
M  V30 195 C 17.9091 0.264738 1.86228 0
M  V30 196 O 17.2671 -0.763668 1.64432 0
M  V30 197 C 17.3151 2.65419 2.44101 0
M  V30 198 O 16.4191 2.22618 3.47153 0
M  V30 199 H 15.7601 0.537863 0.389357 0
M  V30 200 H 18.2901 1.94432 0.636965 0
M  V30 201 H 18.3001 2.86709 2.90279 0
M  V30 202 H 16.9751 3.62652 2.03608 0
M  V30 203 H 15.5521 2.11543 3.0709 0
M  V30 204 N 17.7372 -0.778329 1.37039 0
M  V30 205 C 18.6672 -1.90546 1.34962 0
M  V30 206 C 19.6482 -1.68681 0.219274 0
M  V30 207 O 20.8332 -1.89634 0.418624 0
M  V30 208 C 17.9632 -3.27734 1.14925 0
M  V30 209 C 16.9172 -3.64147 2.24902 0
M  V30 210 C 16.2432 -4.99806 1.89996 0
M  V30 211 C 17.5432 -3.71579 3.67051 0
M  V30 212 H 19.2372 -1.92541 2.29277 0
M  V30 213 H 16.7832 -0.924948 1.10366 0
M  V30 214 H 18.7362 -4.06215 1.12104 0
M  V30 215 H 17.4602 -3.26154 0.170631 0
M  V30 216 H 16.1192 -2.8797 2.26868 0
M  V30 217 H 15.7672 -4.94759 0.906796 0
M  V30 218 H 15.4672 -5.25139 2.63634 0
M  V30 219 H 16.9912 -5.80694 1.88749 0
M  V30 220 H 18.4052 -4.40227 3.67251 0
M  V30 221 H 16.8022 -4.08405 4.39688 0
M  V30 222 H 17.8722 -2.72404 4.01154 0
M  V30 223 N 19.2153 -1.21501 -1.00376 0
M  V30 224 C 20.4403 -1.05977 -1.78279 0
M  V30 225 C 20.8653 0.385994 -1.84097 0
M  V30 226 O 20.2233 1.27849 -1.28547 0
M  V30 227 C 20.2713 -1.66302 -3.19963 0
M  V30 228 O 19.3753 -0.909333 -4.0225 0
M  V30 229 H 18.7163 -0.372906 -0.549397 0
M  V30 230 H 21.2463 -1.6107 -1.26165 0
M  V30 231 H 21.2563 -1.70574 -3.70632 0
M  V30 232 H 19.9313 -2.71515 -3.15043 0
M  V30 233 H 18.5083 -0.941795 -3.60811 0
M  V30 234 N 20.6934 1.19889 -1.02296 0
M  V30 235 C 21.6434 2.20777 -0.56934 0
M  V30 236 C 22.6274 1.56379 0.378741 0
M  V30 237 O 23.8194 1.75859 0.200673 0
M  V30 238 C 20.9484 3.43196 0.0845077 0
M  V30 239 C 20.0344 4.14749 -0.88566 0
M  V30 240 N 20.4254 4.62584 -2.04573 0
M  V30 241 C 18.7234 4.40347 -0.707835 0
M  V30 242 C 19.4244 5.17466 -2.65714 0
M  V30 243 N 18.4004 5.0791 -1.93723 0
M  V30 244 H 22.2024 2.55434 -1.45365 0
M  V30 245 H 19.7164 1.35897 -0.88915 0
M  V30 246 H 21.7134 4.14707 0.427067 0
M  V30 247 H 20.3734 3.10042 0.964574 0
M  V30 248 H 21.3844 4.57597 -2.4254 0
M  V30 249 H 18.0614 4.17317 0.12364 0
M  V30 250 H 19.4514 5.64808 -3.63925 0
M  V30 251 N 22.1715 0.800033 1.35784 0
M  V30 252 C 23.1345 0.211565 2.28221 0
M  V30 253 C 24.1345 -0.59728 1.49296 0
M  V30 254 O 25.3245 -0.416721 1.69142 0
M  V30 255 C 22.4565 -0.705846 3.33513 0
M  V30 256 H 23.6495 1.02677 2.81776 0
M  V30 257 H 21.2025 0.570211 1.45528 0
M  V30 258 H 21.9375 -1.54498 2.85133 0
M  V30 259 H 21.7225 -0.127655 3.91892 0
M  V30 260 H 23.2125 -1.11211 4.02519 0
M  V30 261 N 23.6496 -1.47581 0.552962 0
M  V30 262 C 24.8966 -2.02482 0.0273243 0
M  V30 263 C 25.2246 -1.42776 -1.32081 0
M  V30 264 O 24.4796 -0.571393 -1.87173 0
M  V30 265 C 24.7786 -3.57199 -0.119728 0
M  V30 266 C 24.4446 -4.35804 1.15697 0
M  V30 267 C 23.1066 -4.57 1.50681 0
M  V30 268 C 25.4586 -4.81167 2.00319 0
M  V30 269 C 22.7866 -5.20807 2.70142 0
M  V30 270 C 25.1386 -5.46293 3.18978 0
M  V30 271 C 23.8026 -5.65722 3.54281 0
M  V30 272 H 23.0726 -0.740933 0.00999866 0
M  V30 273 H 25.7196 -1.77302 0.72362 0
M  V30 274 H 24.0246 -3.81348 -0.89896 0
M  V30 275 H 25.7216 -3.97324 -0.541718 0
M  V30 276 H 22.3116 -4.19582 0.874561 0
M  V30 277 H 26.4956 -4.64574 1.74599 0
M  V30 278 H 21.7516 -5.34045 2.97668 0
M  V30 279 H 25.9256 -5.80407 3.84838 0
M  V30 280 H 23.5526 -6.14936 4.46942 0
M  V30 281 N 25.1277 -0.289203 -1.54924 0
M  V30 282 C 26.3757 0.322879 -1.99504 0
M  V30 283 C 26.6967 1.55313 -1.1791 0
M  V30 284 O 25.9667 1.94001 -0.272097 0
M  V30 285 H 24.5467 0.122291 -0.736922 0
M  V30 286 H 27.2087 -0.397802 -1.90797 0
M  V30 287 H 26.3047 0.603061 -3.06218 0
M  V30 288 N 26.6058 1.57591 -0.0167156 0
M  V30 289 C 27.5378 2.06343 0.997753 0
M  V30 290 C 28.5508 0.984469 1.29661 0
M  V30 291 O 29.7398 1.26093 1.26344 0
M  V30 292 C 26.8398 2.46255 2.32834 0
M  V30 293 C 26.0128 3.77083 2.21646 0
M  V30 294 C 25.0718 4.0368 3.37534 0
M  V30 295 O 24.0978 4.7411 3.14973 0
M  V30 296 N 25.2998 3.52881 4.60929 0
M  V30 297 H 28.0648 2.93997 0.581875 0
M  V30 298 H 25.6258 1.61002 0.170316 0
M  V30 299 H 27.6178 2.61149 3.09166 0
M  V30 300 H 26.1878 1.64032 2.66106 0
M  V30 301 H 25.4078 3.72106 1.30119 0
M  V30 302 H 26.6958 4.62822 2.11361 0
M  V30 303 H 26.0938 2.95878 4.82154 0
M  V30 304 H 24.6508 3.73076 5.34469 0
M  V30 305 N 28.0839 -0.256276 1.55502 0
M  V30 306 C 29.3119 -1.00342 1.8094 0
M  V30 307 C 29.7269 -1.79307 0.59114 0
M  V30 308 O 29.0839 -1.77114 -0.440081 0
M  V30 309 C 29.1349 -1.94875 3.04476 0
M  V30 310 O 28.8559 -1.19107 4.21598 0
M  V30 311 C 30.3569 -2.81266 3.42644 0
M  V30 312 H 27.5769 -0.295685 0.602338 0
M  V30 313 H 30.1209 -0.281998 2.02546 0
M  V30 314 H 28.2759 -2.62457 2.84947 0
M  V30 315 H 28.6899 -1.82969 4.91551 0
M  V30 316 H 30.1639 -3.43362 4.32211 0
M  V30 317 H 30.6409 -3.51897 2.62802 0
M  V30 318 H 31.2469 -2.1915 3.64491 0
M  V30 319 N 29.562 -1.4872 -0.521534 0
M  V30 320 C 30.839 -1.4766 -1.2828 0
M  V30 321 C 31.219 -0.19292 -2.10217 0
M  V30 322 O 30.567 0.825193 -2.13079 0
M  V30 323 C 30.777 -2.74358 -2.15705 0
M  V30 324 C 32.125 -3.23028 -2.75569 0
M  V30 325 O 33.149 -2.75333 -2.25987 0
M  V30 326 O 32.008 -4.0604 -3.65778 0
M  V30 327 H 29.102 -0.590085 -0.579421 0
M  V30 328 H 31.648 -1.60963 -0.537492 0
M  V30 329 H 30.42 -3.59292 -1.54999 0
M  V30 330 H 30.043 -2.63816 -2.97467 0
M  V30 331 N 31.0401 0.771051 -1.3745 0
M  V30 332 C 31.9731 1.89166 -1.27638 0
M  V30 333 C 32.9511 1.61842 -0.156782 0
M  V30 334 O 34.1351 1.85569 -0.331111 0
M  V30 335 C 31.2621 3.24405 -0.973621 0
M  V30 336 C 30.3081 3.70638 -2.1102 0
M  V30 337 S 31.1411 3.84228 -3.73 0
M  V30 338 C 32.2971 5.22313 -3.44876 0
M  V30 339 H 32.5301 1.972 -2.22485 0
M  V30 340 H 30.0631 0.932224 -1.23081 0
M  V30 341 H 32.0211 4.02514 -0.805766 0
M  V30 342 H 30.6821 3.14071 -0.0426279 0
M  V30 343 H 29.8751 4.68685 -1.85338 0
M  V30 344 H 29.4771 2.99632 -2.23822 0
M  V30 345 H 31.7691 6.07505 -2.99908 0
M  V30 346 H 32.7121 5.53008 -4.42253 0
M  V30 347 H 33.1201 4.90284 -2.79789 0
M  V30 348 N 32.5182 1.22032 0.997298 0
M  V30 349 C 33.7432 1.06921 1.77715 0
M  V30 350 C 34.1682 -0.376226 1.84299 0
M  V30 351 O 33.5262 -1.27165 1.29223 0
M  V30 352 C 33.5742 1.67996 3.19076 0
M  V30 353 O 32.6782 0.930653 4.01762 0
M  V30 354 H 32.0192 0.375814 0.547412 0
M  V30 355 H 34.5492 1.61737 1.25309 0
M  V30 356 H 34.5592 1.72538 3.69723 0
M  V30 357 H 33.2342 2.73182 3.13599 0
M  V30 358 H 31.8112 0.960917 3.60307 0
M  V30 359 N 33.9963 -1.19345 1.0293 0
M  V30 360 C 35.4123 -1.41069 0.746446 0
M  V30 361 C 35.6123 -1.90078 -0.668776 0
M  V30 362 O 34.6683 -2.0778 -1.4347 0
M  V30 363 C 35.9813 -2.42141 1.78292 0
M  V30 364 C 37.5293 -2.55887 1.80252 0
M  V30 365 C 38.0043 -3.60214 2.8286 0
M  V30 366 N 39.4953 -3.67711 2.81679 0
M  V30 367 C 40.2303 -4.48128 3.57727 0
M  V30 368 N 39.7263 -5.32248 4.43491 0
M  V30 369 N 41.5193 -4.42782 3.46267 0
M  V30 370 H 33.6703 -0.858536 1.94275 0
M  V30 371 H 35.9333 -0.439541 0.839945 0
M  V30 372 H 35.6393 -2.13155 2.79746 0
M  V30 373 H 35.5133 -3.41323 1.60557 0
M  V30 374 H 37.9003 -2.84196 0.794757 0
M  V30 375 H 37.9813 -1.56858 2.02062 0
M  V30 376 H 37.6253 -3.32647 3.83807 0
M  V30 377 H 37.5553 -4.58895 2.58307 0
M  V30 378 H 40.0463 -3.07634 2.19476 0
M  V30 379 H 40.3593 -5.90729 4.98256 0
M  V30 380 H 38.7043 -5.31707 4.47564 0
M  V30 381 H 41.8953 -3.76107 2.78677 0
M  V30 382 H 42.0683 -5.05215 4.05785 0
M  V30 383 N 35.4744 -0.807222 -1.35358 0
M  V30 384 C 36.4214 -0.216037 -2.29787 0
M  V30 385 C 37.3914 0.650278 -1.52842 0
M  V30 386 O 38.5764 0.595227 -1.81278 0
M  V30 387 C 35.7164 0.628893 -3.39321 0
M  V30 388 C 34.8294 -0.257927 -4.31229 0
M  V30 389 C 33.9644 0.595069 -5.27856 0
M  V30 390 C 33.0034 -0.292111 -6.11403 0
M  V30 391 N 32.1404 0.520895 -7.00165 0
M  V30 392 H 36.9804 -1.02671 -2.79755 0
M  V30 393 H 34.5174 -0.517839 -1.37684 0
M  V30 394 H 36.4754 1.13393 -4.01494 0
M  V30 395 H 35.1054 1.40482 -2.90628 0
M  V30 396 H 34.1574 -0.881076 -3.70056 0
M  V30 397 H 35.4694 -0.940759 -4.89848 0
M  V30 398 H 34.6234 1.16522 -5.95405 0
M  V30 399 H 33.3624 1.31146 -4.69736 0
M  V30 400 H 32.3674 -0.874525 -5.428 0
M  V30 401 H 33.5924 -1.00638 -6.71602 0
M  V30 402 H 31.5384 1.22125 -6.44532 0
M  V30 403 H 31.4554 -0.103877 -7.55929 0
M  V30 404 H 32.7234 1.0743 -7.72062 0
M  V30 405 N 36.9525 1.47285 -0.560781 0
M  V30 406 C 37.9155 2.28535 0.174488 0
M  V30 407 C 38.9155 1.37153 0.839388 0
M  V30 408 O 40.1055 1.59748 0.694702 0
M  V30 409 C 37.2375 3.16934 1.25561 0
M  V30 410 H 38.4305 2.95012 -0.539262 0
M  V30 411 H 35.9835 1.53034 -0.317865 0
M  V30 412 H 36.7185 2.55157 2.00164 0
M  V30 413 H 36.5035 3.8419 0.783604 0
M  V30 414 H 37.9935 3.78143 1.77193 0
M  V30 415 N 38.4306 0.297415 1.54768 0
M  V30 416 C 39.6776 -0.312913 2.00068 0
M  V30 417 C 40.0056 -1.54171 1.18582 0
M  V30 418 O 39.2606 -1.94108 0.249133 0
M  V30 419 C 39.5596 -0.717561 3.50123 0
M  V30 420 C 39.2256 0.409095 4.4904 0
M  V30 421 C 37.8876 0.718399 4.75807 0
M  V30 422 C 40.2396 1.16717 5.07963 0
M  V30 423 C 37.5676 1.78896 5.5876 0
M  V30 424 C 39.9196 2.22762 5.92081 0
M  V30 425 C 38.5836 2.54303 6.1716 0
M  V30 426 H 37.8536 -0.114503 0.7321 0
M  V30 427 H 40.5006 0.415767 1.86932 0
M  V30 428 H 38.8056 -1.52627 3.60849 0
M  V30 429 H 40.5026 -1.20091 3.82595 0
M  V30 430 H 37.0926 0.157918 4.28309 0
M  V30 431 H 41.2766 0.941466 4.87289 0
M  V30 432 H 36.5326 2.0381 5.7643 0
M  V30 433 H 40.7066 2.81962 6.36765 0
M  V30 434 H 38.3336 3.3739 6.81229 0
M  V30 435 N 39.9087 -1.5758 0.0250728 0
M  V30 436 C 41.1547 -1.91917 -0.655413 0
M  V30 437 C 41.4877 -0.901433 -1.72011 0
M  V30 438 O 40.7627 0.0764069 -1.9435 0
M  V30 439 C 41.0457 -3.36751 -1.27558 0
M  V30 440 C 40.8987 -4.49258 -0.220719 0
M  V30 441 C 42.2177 -3.81469 -2.19475 0
M  V30 442 H 39.3367 -0.697925 -0.23679 0
M  V30 443 H 41.9787 -1.89825 0.0815036 0
M  V30 444 H 40.1287 -3.38664 -1.90365 0
M  V30 445 H 41.8007 -4.59478 0.409601 0
M  V30 446 H 40.0437 -4.31415 0.454264 0
M  V30 447 H 40.7147 -5.47618 -0.694175 0
M  V30 448 H 43.1907 -3.81266 -1.66659 0
M  V30 449 H 42.0667 -4.83512 -2.59822 0
M  V30 450 H 42.3277 -3.16744 -3.08424 0
M  V30 451 N 41.3868 0.248026 -1.55636 0
M  V30 452 C 42.6338 0.976224 -1.77415 0
M  V30 453 C 42.9618 1.85361 -0.589193 0
M  V30 454 O 42.2168 1.90973 0.427529 0
M  V30 455 C 42.5158 1.86819 -3.04686 0
M  V30 456 C 42.1818 1.14625 -4.36087 0
M  V30 457 C 40.8438 0.946723 -4.71795 0
M  V30 458 C 43.1958 0.634463 -5.17324 0
M  V30 459 C 40.5238 0.223091 -5.86276 0
M  V30 460 C 42.8758 -0.0756959 -6.32555 0
M  V30 461 C 41.5398 -0.286711 -6.66884 0
M  V30 462 H 40.8098 0.357226 -0.649208 0
M  V30 463 H 43.4568 0.246415 -1.89908 0
M  V30 464 H 41.7618 2.66502 -2.872 0
M  V30 465 H 43.4588 2.43329 -3.18735 0
M  V30 466 H 40.0488 1.3117 -4.08035 0
M  V30 467 H 44.2328 0.77616 -4.90193 0
M  V30 468 H 39.4888 0.0491185 -6.1138 0
M  V30 469 H 43.6628 -0.479899 -6.94745 0
M  V30 470 H 41.2898 -0.849389 -7.5544 0
M  V30 471 N 42.8649 1.48995 0.513639 0
M  V30 472 C 44.2759 1.5119 1.09537 0
M  V30 473 C 44.6269 0.290906 1.94031 0
M  V30 474 O 43.7519 -0.60049 2.07902 0
M  V30 475 C 44.3469 2.73964 1.99322 0
M  V30 476 C 42.9059 2.78978 2.52682 0
M  V30 477 C 42.0529 2.44934 1.30009 0
M  V30 478 H 45.0039 1.55875 0.298125 0
M  V30 479 H 45.0249 2.53409 2.83838 0
M  V30 480 H 44.5369 3.62813 1.37799 0
M  V30 481 H 42.6379 1.94378 3.1788 0
M  V30 482 H 42.7509 3.8083 2.90698 0
M  V30 483 H 41.1149 1.9644 1.62122 0
M  V30 484 H 41.8979 3.36043 0.702131 0
M  V30 485 N 44.343 -0.763751 1.37857 0
M  V30 486 C 45.29 -1.87726 1.34267 0
M  V30 487 C 46.26 -1.64807 0.206879 0
M  V30 488 O 47.445 -1.86613 0.397508 0
M  V30 489 C 44.585 -3.24896 1.16346 0
M  V30 490 C 43.698 -3.59716 2.39225 0
M  V30 491 C 42.833 -4.86137 2.14114 0
M  V30 492 C 41.872 -5.13711 3.32817 0
M  V30 493 N 41.009 -6.31323 3.07206 0
M  V30 494 H 45.849 -1.90129 2.29466 0
M  V30 495 H 43.386 -0.929433 1.14017 0
M  V30 496 H 45.344 -4.04036 1.03975 0
M  V30 497 H 43.974 -3.21847 0.247909 0
M  V30 498 H 43.026 -2.75498 2.62307 0
M  V30 499 H 44.338 -3.76027 3.27728 0
M  V30 500 H 43.492 -5.73198 1.9882 0
M  V30 501 H 42.231 -4.71945 1.22961 0
M  V30 502 H 41.236 -4.25123 3.48641 0
M  V30 503 H 42.461 -5.29807 4.24832 0
M  V30 504 H 40.407 -6.18474 2.1869 0
M  V30 505 H 40.324 -6.48087 3.89254 0
M  V30 506 H 41.592 -7.213 2.95546 0
M  V30 507 N 45.8211 -1.22559 -0.990812 0
M  V30 508 C 46.7311 -1.01394 -2.11557 0
M  V30 509 C 47.7471 0.0383962 -1.73958 0
M  V30 510 O 48.9231 -0.154787 -2.00804 0
M  V30 511 C 45.9881 -0.596569 -3.41529 0
M  V30 512 C 45.0491 -1.72276 -3.93217 0
M  V30 513 C 44.2821 -1.32521 -5.16985 0
M  V30 514 O 44.5051 -0.204909 -5.70032 0
M  V30 515 O 43.4391 -2.14247 -5.62478 0
M  V30 516 H 47.2651 -1.95633 -2.32296 0
M  V30 517 H 44.8501 -1.01172 -1.0993 0
M  V30 518 H 46.7321 -0.374263 -4.19735 0
M  V30 519 H 45.4071 0.316939 -3.22145 0
M  V30 520 H 44.3141 -1.99961 -3.16174 0
M  V30 521 H 45.6471 -2.61421 -4.17037 0
M  V30 522 N 47.2992 1.18797 -1.03562 0
M  V30 523 C 48.5242 1.9314 -0.755764 0
M  V30 524 C 48.9492 1.7537 0.68022 0
M  V30 525 O 48.3072 1.06046 1.47051 0
M  V30 526 C 48.3552 3.42747 -1.12058 0
M  V30 527 O 47.4592 4.11683 -0.243124 0
M  V30 528 H 46.8002 0.602724 -0.278604 0
M  V30 529 H 49.3302 1.50678 -1.3841 0
M  V30 530 H 49.3402 3.93437 -1.08035 0
M  V30 531 H 48.0152 3.55002 -2.16672 0
M  V30 532 H 46.5922 3.71323 -0.342539 0
M  V30 533 N 48.7773 0.814389 1.34928 0
M  V30 534 C 50.0543 0.321363 1.92942 0
M  V30 535 C 50.4343 -1.19014 1.74353 0
M  V30 536 O 49.7823 -1.99328 1.11716 0
M  V30 537 C 49.9923 0.741323 3.41036 0
M  V30 538 C 51.3403 0.735266 4.18185 0
M  V30 539 O 52.3643 0.68336 3.49584 0
M  V30 540 O 51.2233 0.800703 5.40602 0
M  V30 541 H 48.3173 0.0858893 0.822528 0
M  V30 542 H 50.8633 0.898609 1.43955 0
M  V30 543 H 49.6353 1.78276 3.4833 0
M  V30 544 H 49.2583 0.139307 3.97356 0
M  V30 545 N 50.2554 -1.46986 0.568584 0
M  V30 546 C 51.4834 -2.0683 0.0539956 0
M  V30 547 C 51.8984 -1.41953 -1.24478 0
M  V30 548 O 51.2554 -0.519933 -1.74937 0
M  V30 549 C 51.3064 -3.61254 -0.133362 0
M  V30 550 O 51.0274 -4.237 1.11399 0
M  V30 551 C 52.5284 -4.37992 -0.683927 0
M  V30 552 H 49.7484 -0.669058 0.0510141 0
M  V30 553 H 52.2924 -1.88824 0.785234 0
M  V30 554 H 50.4474 -3.78735 -0.81477 0
M  V30 555 H 50.8614 -5.16388 0.91888 0
M  V30 556 H 52.3354 -5.46684 -0.764263 0
M  V30 557 H 52.8124 -4.05058 -1.69778 0
M  V30 558 H 53.4184 -4.25283 -0.0378494 0
M  V30 559 N 51.7335 -0.305618 -1.54608 0
M  V30 560 C 52.9585 0.307562 -2.05107 0
M  V30 561 C 53.3835 1.46385 -1.18123 0
M  V30 562 O 52.7415 1.8034 -0.186324 0
M  V30 563 C 52.7895 0.73704 -3.52987 0
M  V30 564 O 51.8935 1.84134 -3.6901 0
M  V30 565 H 51.2345 0.0589143 -0.661381 0
M  V30 566 H 53.7645 -0.448807 -1.99617 0
M  V30 567 H 53.7745 1.02459 -3.94925 0
M  V30 568 H 52.4495 -0.108773 -4.15758 0
M  V30 569 H 51.0265 1.55398 -3.38978 0
M  V30 570 N 53.2116 1.57565 -0.0334293 0
M  V30 571 C 54.4416 1.95996 0.653398 0
M  V30 572 C 54.8496 0.908749 1.65947 0
M  V30 573 O 54.1926 -0.117471 1.83324 0
M  V30 574 C 54.2546 3.30589 1.41249 0
M  V30 575 C 53.9186 4.53503 0.564263 0
M  V30 576 C 54.9156 5.19647 -0.16225 0
M  V30 577 C 52.6006 4.99801 0.500398 0
M  V30 578 C 54.5946 6.30412 -0.941255 0
M  V30 579 C 52.2816 6.10448 -0.282308 0
M  V30 580 C 53.2796 6.75612 -1.00184 0
M  V30 581 O 52.9676 7.84134 -1.77171 0
M  V30 582 H 52.6996 0.65027 0.184728 0
M  V30 583 H 55.2536 2.05199 -0.0907841 0
M  V30 584 H 53.4836 3.17888 2.20191 0
M  V30 585 H 55.1726 3.53892 1.98784 0
M  V30 586 H 55.9386 4.84846 -0.12227 0
M  V30 587 H 51.8176 4.48883 1.05002 0
M  V30 588 H 55.3616 6.81208 -1.50339 0
M  V30 589 H 51.2586 6.44686 -0.323989 0
M  V30 590 H 52.0266 8.00822 -1.69194 0
M  V30 591 N 54.6897 -0.239769 1.55765 0
M  V30 592 C 55.9357 -0.968234 1.78194 0
M  V30 593 C 56.2687 -1.84701 0.599938 0
M  V30 594 O 55.5437 -1.9031 -0.401524 0
M  V30 595 C 55.8267 -1.8227 3.10564 0
M  V30 596 C 55.6797 -0.971633 4.3918 0
M  V30 597 C 56.9987 -2.80388 3.39221 0
M  V30 598 H 54.1177 -0.350572 0.648281 0
M  V30 599 H 56.7597 -0.238259 1.885 0
M  V30 600 H 54.9097 -2.44507 3.01908 0
M  V30 601 H 56.5817 -0.367408 4.59835 0
M  V30 602 H 54.8247 -0.276276 4.32919 0
M  V30 603 H 55.4957 -1.60346 5.28198 0
M  V30 604 H 57.9717 -2.28287 3.47885 0
M  V30 605 H 56.8477 -3.3729 4.33044 0
M  V30 606 H 57.1087 -3.57212 2.60484 0
M  V30 607 N 56.1678 -1.49265 -0.50573 0
M  V30 608 C 57.3928 -1.62478 -1.28902 0
M  V30 609 C 57.8178 -0.294332 -1.85783 0
M  V30 610 O 57.1758 0.737412 -1.65626 0
M  V30 611 C 57.2238 -2.69268 -2.39848 0
M  V30 612 O 56.3278 -2.28113 -3.43567 0
M  V30 613 H 55.6688 -0.54399 -0.380751 0
M  V30 614 H 58.1988 -1.95421 -0.605952 0
M  V30 615 H 58.2088 -2.91291 -2.85681 0
M  V30 616 H 56.8838 -3.65846 -1.97812 0
M  V30 617 H 55.4608 -2.16401 -3.03685 0
M  V30 618 N 57.6459 0.756429 -1.3826 0
M  V30 619 C 58.5759 1.88374 -1.37976 0
M  V30 620 C 59.5569 1.68311 -0.246082 0
M  V30 621 O 60.7419 1.88944 -0.44874 0
M  V30 622 C 57.8719 3.25864 -1.20125 0
M  V30 623 C 56.8259 3.60523 -2.30666 0
M  V30 624 C 56.1519 4.9672 -1.97923 0
M  V30 625 C 57.4519 3.65692 -3.72916 0
M  V30 626 H 59.1459 1.88869 -2.32312 0
M  V30 627 H 56.6919 0.907272 -1.11824 0
M  V30 628 H 58.6449 4.0438 -1.18552 0
M  V30 629 H 57.3689 3.25841 -0.222498 0
M  V30 630 H 56.0279 2.84324 -2.3142 0
M  V30 631 H 55.6759 4.93253 -0.985393 0
M  V30 632 H 55.3759 5.20878 -2.71955 0
M  V30 633 H 56.8999 5.77618 -1.97964 0
M  V30 634 H 58.3139 4.34328 -3.74208 0
M  V30 635 H 56.7109 4.01358 -4.4613 0
M  V30 636 H 57.7809 2.65987 -4.05436 0
M  V30 637 N 59.124 1.23083 0.984299 0
M  V30 638 C 60.071 1.00854 2.07598 0
M  V30 639 C 61.041 -0.0726709 1.65941 0
M  V30 640 O 62.226 0.0786535 1.90638 0
M  V30 641 C 59.366 0.601645 3.39815 0
M  V30 642 C 58.479 1.75456 3.94765 0
M  V30 643 C 57.614 1.29482 5.15177 0
M  V30 644 C 56.653 2.41873 5.62284 0
M  V30 645 N 55.79 1.96885 6.73929 0
M  V30 646 H 60.63 1.943 2.25946 0
M  V30 647 H 58.167 0.968001 1.10762 0
M  V30 648 H 60.125 0.346854 4.15756 0
M  V30 649 H 58.755 -0.295803 3.21442 0
M  V30 650 H 57.807 2.12346 3.15616 0
M  V30 651 H 59.119 2.59965 4.25699 0
M  V30 652 H 58.273 0.997923 5.98437 0
M  V30 653 H 57.012 0.420046 4.85888 0
M  V30 654 H 56.017 2.72342 4.77608 0
M  V30 655 H 57.242 3.29881 5.93595 0
M  V30 656 H 55.188 1.11782 6.46406 0
M  V30 657 H 55.105 2.74956 7.04227 0
M  V30 658 H 56.373 1.70289 7.60672 0
M  V30 659 N 60.6021 -1.18246 1.0419 0
M  V30 660 C 61.5651 -2.20128 0.638452 0
M  V30 661 C 62.5651 -1.57885 -0.304805 0
M  V30 662 O 63.7551 -1.73967 -0.0900369 0
M  V30 663 C 60.8871 -3.4084 -0.0637751 0
M  V30 664 H 62.0801 -2.57336 1.54007 0
M  V30 665 H 59.6331 -1.32152 0.834598 0
M  V30 666 H 60.3681 -3.09166 -0.979136 0
M  V30 667 H 60.1531 -3.8726 0.614198 0
M  V30 668 H 61.6431 -4.16274 -0.332512 0
M  V30 669 N 62.0802 -0.821533 -1.34494 0
M  V30 670 C 63.4912 -0.467956 -1.8074 0
M  V30 671 C 63.8422 1.01151 -1.68116 0
M  V30 672 O 62.9672 1.78707 -1.22036 0
M  V30 673 C 63.5622 -0.842627 -3.28154 0
M  V30 674 C 62.1212 -0.541439 -3.72485 0
M  V30 675 C 61.2682 -1.06028 -2.56229 0
M  V30 676 H 64.2192 -1.01183 -1.22261 0
M  V30 677 H 64.2402 -0.145876 -3.8022 0
M  V30 678 H 63.7522 -1.91945 -3.37311 0
M  V30 679 H 61.8532 0.526034 -3.68868 0
M  V30 680 H 61.9662 -1.08453 -4.66663 0
M  V30 681 H 60.3302 -0.481892 -2.501 0
M  V30 682 H 61.1132 -2.14352 -2.68157 0
M  V30 683 N 63.5583 1.46682 -0.576371 0
M  V30 684 C 64.4883 2.33028 0.148397 0
M  V30 685 C 65.4693 1.44961 0.889956 0
M  V30 686 O 66.6543 1.73789 0.866662 0
M  V30 687 C 63.7843 3.27117 1.1667 0
M  V30 688 C 62.7383 4.24575 0.540386 0
M  V30 689 C 62.0643 5.08126 1.6647 0
M  V30 690 C 63.3643 5.19722 -0.518331 0
M  V30 691 H 65.0583 2.93875 -0.572509 0
M  V30 692 H 62.6043 1.41315 -0.276768 0
M  V30 693 H 64.5573 3.86374 1.68204 0
M  V30 694 H 63.2813 2.64364 1.9178 0
M  V30 695 H 61.9403 3.66571 0.0461769 0
M  V30 696 H 61.5883 4.41762 2.40531 0
M  V30 697 H 61.2883 5.74122 1.25131 0
M  V30 698 H 62.8123 5.70246 2.18293 0
M  V30 699 H 64.2263 5.73232 -0.0883058 0
M  V30 700 H 62.6233 5.94026 -0.851679 0
M  V30 701 H 63.6933 4.64037 -1.40703 0
M  V30 702 N 65.0364 0.313813 1.54444 0
M  V30 703 C 66.2644 -0.293918 2.04802 0
M  V30 704 C 66.6794 -1.46537 1.19047 0
M  V30 705 O 66.0364 -1.81182 0.218939 0
M  V30 706 C 66.0874 -0.737806 3.53891 0
M  V30 707 O 65.8084 0.387038 4.36387 0
M  V30 708 C 67.3094 -1.40936 4.203 0
M  V30 709 H 64.5294 -0.0620057 0.668129 0
M  V30 710 H 67.0734 0.457169 1.99324 0
M  V30 711 H 65.2284 -1.43889 3.59687 0
M  V30 712 H 65.6424 0.0391274 5.24485 0
M  V30 713 H 67.1164 -1.67099 5.26101 0
M  V30 714 H 67.5934 -2.35355 3.70816 0
M  V30 715 H 68.1994 -0.751117 4.18615 0
M  V30 716 N 66.5145 -1.57545 0.0417849 0
M  V30 717 C 67.4615 -2.10977 -0.935805 0
M  V30 718 C 68.4315 -1.01486 -1.31491 0
M  V30 719 O 69.6165 -1.2898 -1.40602 0
M  V30 720 C 66.7565 -2.65169 -2.2086 0
M  V30 721 C 65.8695 -3.88714 -1.88482 0
M  V30 722 C 65.0045 -4.31254 -3.1015 0
M  V30 723 C 64.0435 -5.47524 -2.7365 0
M  V30 724 N 63.1805 -5.85162 -3.87982 0
M  V30 725 H 68.0205 -2.94218 -0.473249 0
M  V30 726 H 65.5575 -1.45415 -0.221981 0
M  V30 727 H 67.5155 -2.94685 -2.95325 0
M  V30 728 H 66.1455 -1.8474 -2.64709 0
M  V30 729 H 65.1975 -3.65849 -1.04205 0
M  V30 730 H 66.5095 -4.73245 -1.57608 0
M  V30 731 H 65.6635 -4.62273 -3.92923 0
M  V30 732 H 64.4025 -3.45516 -3.44195 0
M  V30 733 H 63.4075 -5.16187 -1.89291 0
M  V30 734 H 64.6325 -6.34971 -2.40807 0
M  V30 735 H 62.5785 -5.02377 -4.21846 0
M  V30 736 H 62.4955 -6.64362 -3.60775 0
M  V30 737 H 63.7635 -6.20791 -4.71422 0
M  V30 738 N 67.9926 0.231505 -1.5589 0
M  V30 739 C 69.4036 0.799327 -1.68724 0
M  V30 740 C 69.7546 1.85398 -0.642022 0
M  V30 741 O 68.8796 2.1539 0.208784 0
M  V30 742 C 69.4746 1.45664 -3.05888 0
M  V30 743 C 68.0336 1.97197 -3.20609 0
M  V30 744 C 67.1806 0.828552 -2.64632 0
M  V30 745 H 70.1316 0.00702616 -1.58698 0
M  V30 746 H 70.1526 2.32517 -3.01191 0
M  V30 747 H 69.6646 0.688808 -3.81939 0
M  V30 748 H 67.7656 2.76813 -2.4941 0
M  V30 749 H 67.8786 2.15878 -4.27707 0
M  V30 750 H 66.2426 1.23321 -2.22854 0
M  V30 751 H 67.0256 0.0735544 -3.43221 0
M  V30 752 N 69.4707 1.49531 0.497807 0
M  V30 753 C 70.4007 1.6935 1.60757 0
M  V30 754 C 71.3817 0.542218 1.61227 0
M  V30 755 O 72.5667 0.778417 1.77917 0
M  V30 756 C 69.6967 1.76298 2.99226 0
M  V30 757 C 68.6507 2.91248 3.13622 0
M  V30 758 C 67.9767 2.83312 4.53474 0
M  V30 759 C 69.2767 4.3214 2.93346 0
M  V30 760 H 70.9707 2.62263 1.44425 0
M  V30 761 H 68.5167 1.26208 0.693367 0
M  V30 762 H 70.4697 1.88749 3.76765 0
M  V30 763 H 69.1937 0.799871 3.16654 0
M  V30 764 H 67.8527 2.78404 2.38509 0
M  V30 765 H 67.5007 1.84902 4.67782 0
M  V30 766 H 67.2007 3.60465 4.64046 0
M  V30 767 H 68.7247 2.97775 5.33069 0
M  V30 768 H 70.1387 4.45649 3.60652 0
M  V30 769 H 68.5357 5.1054 3.15387 0
M  V30 770 H 69.6057 4.46363 1.89441 0
M  V30 771 N 70.9488 -0.749086 1.3866 0
M  V30 772 C 71.8958 -1.86291 1.36251 0
M  V30 773 C 72.8658 -1.64578 0.224347 0
M  V30 774 O 74.0508 -1.86181 0.417279 0
M  V30 775 C 71.1908 -3.23644 1.19786 0
M  V30 776 C 70.3038 -3.57158 2.43027 0
M  V30 777 C 69.4388 -4.83838 2.19258 0
M  V30 778 C 68.4778 -5.10152 3.38247 0
M  V30 779 N 67.6148 -6.28029 3.13884 0
M  V30 780 H 72.4548 -1.87685 2.3147 0
M  V30 781 H 69.9918 -0.917287 1.14997 0
M  V30 782 H 71.9498 -4.0291 1.08254 0
M  V30 783 H 70.5798 -3.21566 0.282031 0
M  V30 784 H 69.6318 -2.72701 2.65214 0
M  V30 785 H 70.9438 -3.7253 3.31697 0
M  V30 786 H 70.0978 -5.71057 2.04888 0
M  V30 787 H 68.8368 -4.70614 1.2796 0
M  V30 788 H 67.8418 -4.21401 3.53131 0
M  V30 789 H 69.0668 -5.25271 4.30427 0
M  V30 790 H 67.0128 -6.1612 2.25238 0
M  V30 791 H 66.9298 -6.43922 3.96106 0
M  V30 792 H 68.1978 -7.18124 3.03179 0
M  V30 793 N 72.4269 -1.23603 -0.977757 0
M  V30 794 C 73.3899 -1.02069 -2.05218 0
M  V30 795 C 74.3899 0.0184305 -1.60789 0
M  V30 796 O 75.5799 -0.221569 -1.72785 0
M  V30 797 C 72.7119 -0.544926 -3.36517 0
M  V30 798 H 73.9049 -1.9742 -2.25755 0
M  V30 799 H 71.4579 -1.05684 -1.15155 0
M  V30 800 H 72.1929 0.412241 -3.21669 0
M  V30 801 H 71.9779 -1.2948 -3.70105 0
M  V30 802 H 73.4679 -0.414985 -4.15533 0
M  V30 803 N 73.905 1.17692 -1.04816 0
M  V30 804 C 75.152 1.87859 -0.75599 0
M  V30 805 C 75.48 1.80812 0.716752 0
M  V30 806 O 74.735 1.20819 1.53952 0
M  V30 807 C 75.034 3.37462 -1.17703 0
M  V30 808 C 74.7 3.64713 -2.65133 0
M  V30 809 C 73.362 3.71859 -3.05408 0
M  V30 810 C 75.714 3.76492 -3.60421 0
M  V30 811 C 73.042 3.88271 -4.39843 0
M  V30 812 C 75.394 3.94421 -4.94585 0
M  V30 813 C 74.058 3.99806 -5.3452 0
M  V30 814 H 73.328 0.687425 -0.276636 0
M  V30 815 H 75.975 1.39255 -1.31455 0
M  V30 816 H 74.28 3.88097 -0.537395 0
M  V30 817 H 75.977 3.90109 -0.928218 0
M  V30 818 H 72.567 3.59772 -2.32942 0
M  V30 819 H 76.751 3.70295 -3.30447 0
M  V30 820 H 72.007 3.90687 -4.70291 0
M  V30 821 H 76.181 4.02477 -5.68318 0
M  V30 822 H 73.808 4.12276 -6.38696 0
M  V30 823 N 75.3831 0.828654 1.34056 0
M  V30 824 C 76.6111 0.43262 2.02326 0
M  V30 825 C 77.0261 -0.963147 1.62385 0
M  V30 826 O 76.3831 -1.62425 0.832121 0
M  V30 827 C 76.4341 0.53182 3.57567 0
M  V30 828 O 76.1551 1.87258 3.96063 0
M  V30 829 C 77.6561 0.131422 4.43105 0
M  V30 830 H 74.8761 0.172923 0.648335 0
M  V30 831 H 77.4201 1.1184 1.71208 0
M  V30 832 H 75.5751 -0.105938 3.87255 0
M  V30 833 H 75.9891 1.85087 4.90758 0
M  V30 834 H 77.4631 0.251904 5.51425 0
M  V30 835 H 77.9401 -0.925645 4.29335 0
M  V30 836 H 78.5461 0.743207 4.18756 0
M  V30 837 N 76.8612 -1.46375 0.584142 0
M  V30 838 C 78.1072 -2.02678 0.0703716 0
M  V30 839 C 78.4402 -1.4545 -1.28678 0
M  V30 840 O 77.7152 -0.62014 -1.84349 0
M  V30 841 C 77.9982 -3.60099 0.00614674 0
M  V30 842 C 77.8512 -4.27709 1.3923 0
M  V30 843 C 79.1702 -4.34598 -0.693742 0
M  V30 844 H 76.2892 -0.736504 0.027047 0
M  V30 845 H 78.9312 -1.74501 0.751615 0
M  V30 846 H 77.0812 -3.84236 -0.574009 0
M  V30 847 H 78.7532 -4.14832 2.01773 0
M  V30 848 H 76.9962 -3.87016 1.95962 0
M  V30 849 H 77.6672 -5.36478 1.29982 0
M  V30 850 H 80.1432 -4.15615 -0.200869 0
M  V30 851 H 79.0192 -5.44318 -0.707714 0
M  V30 852 H 79.2802 -4.05759 -1.75533 0
M  V30 853 N 78.3393 -0.321999 -1.54275 0
M  V30 854 C 79.5793 0.281657 -2.0245 0
M  V30 855 C 79.9433 1.49468 -1.20513 0
M  V30 856 O 81.1443 2.17109 -1.58484 0
M  V30 857 C 79.4153 0.609014 -3.52173 0
M  V30 858 S 80.9743 1.19255 -4.22284 0
M  V30 859 H 77.7923 0.0852825 -0.705867 0
M  V30 860 H 80.3943 -0.454758 -1.90137 0
M  V30 861 H 79.0983 -0.281982 -4.0943 0
M  V30 862 H 78.6293 1.37567 -3.68563 0
M  V30 863 H 80.6443 2.47944 -4.29812 0
M  V30 864 N 79.8174 1.5752 -0.0501392 0
M  V30 865 C 80.7474 2.14502 0.922566 0
M  V30 866 C 81.7284 1.06642 1.3252 0
M  V30 867 O 82.9134 1.34577 1.4001 0
M  V30 868 C 80.0434 2.68916 2.19776 0
M  V30 869 C 78.9974 3.8175 1.93523 0
M  V30 870 C 78.3234 4.22677 3.27487 0
M  V30 871 C 79.6234 5.06932 1.25765 0
M  V30 872 H 81.3174 2.9603 0.447952 0
M  V30 873 H 78.8634 1.42401 0.214024 0
M  V30 874 H 80.8164 3.07419 2.88222 0
M  V30 875 H 79.5404 1.84578 2.69441 0
M  V30 876 H 78.1994 3.43718 1.27489 0
M  V30 877 H 77.8474 3.35291 3.74952 0
M  V30 878 H 77.5474 4.98725 3.1072 0
M  V30 879 H 79.0714 4.63779 3.97166 0
M  V30 880 H 80.4854 5.42888 1.84244 0
M  V30 881 H 78.8824 5.88116 1.19328 0
M  V30 882 H 79.9524 4.84337 0.233536 0
M  V30 883 N 81.2955 -0.223234 1.56011 0
M  V30 884 C 82.2455 -1.28008 1.88674 0
M  V30 885 C 83.2295 -1.42369 0.749663 0
M  V30 886 O 84.4215 -1.45212 1.01205 0
M  V30 887 C 81.5505 -2.63084 2.20548 0
M  V30 888 C 80.6365 -2.52632 3.40643 0
M  V30 889 N 81.0275 -2.11829 4.59306 0
M  V30 890 C 79.3255 -2.83594 3.44224 0
M  V30 891 C 80.0265 -2.12587 5.41463 0
M  V30 892 N 79.0025 -2.5301 4.81131 0
M  V30 893 H 82.8045 -0.955487 2.77935 0
M  V30 894 H 80.3185 -0.431801 1.56554 0
M  V30 895 H 82.3155 -3.39385 2.42122 0
M  V30 896 H 80.9755 -2.96391 1.32599 0
M  V30 897 H 81.9865 -1.82988 4.84496 0
M  V30 898 H 78.6635 -3.21284 2.66614 0
M  V30 899 H 80.0535 -1.83179 6.46448 0
M  V30 900 N 82.7736 -1.49793 -0.48987 0
M  V30 901 C 84.0206 -1.59841 -1.24327 0
M  V30 902 C 84.3486 -0.290135 -1.92324 0
M  V30 903 O 83.6036 0.722749 -1.81865 0
M  V30 904 C 83.9026 -2.71488 -2.32441 0
M  V30 905 C 83.5686 -4.12614 -1.81826 0
M  V30 906 C 82.2306 -4.51017 -1.67742 0
M  V30 907 C 84.5826 -5.00892 -1.4407 0
M  V30 908 C 81.9106 -5.75459 -1.14297 0
M  V30 909 C 84.2626 -6.25863 -0.920742 0
M  V30 910 C 82.9266 -6.63086 -0.766383 0
M  V30 911 H 82.1966 -0.584899 -0.454944 0
M  V30 912 H 84.8436 -1.83663 -0.542215 0
M  V30 913 H 83.1486 -2.4168 -3.0838 0
M  V30 914 H 84.8456 -2.76469 -2.90458 0
M  V30 915 H 81.4356 -3.82307 -1.93751 0
M  V30 916 H 85.6196 -4.7187 -1.53794 0
M  V30 917 H 80.8756 -6.02989 -1.01068 0
M  V30 918 H 85.0496 -6.9364 -0.619448 0
M  V30 919 H 82.6766 -7.59393 -0.350083 0
M  V30 920 N 84.2517 0.741722 -1.39055 0
M  V30 921 C 85.4817 1.52876 -1.3897 0
M  V30 922 C 85.8897 1.8919 0.0193266 0
M  V30 923 O 85.2327 1.54138 0.999356 0
M  V30 924 C 85.2947 2.84929 -2.19216 0
M  V30 925 C 84.9587 2.71086 -3.67915 0
M  V30 926 C 85.9557 2.40084 -4.61146 0
M  V30 927 C 83.6407 2.88168 -4.11418 0
M  V30 928 C 85.6347 2.26335 -5.95862 0
M  V30 929 C 83.3217 2.74037 -5.46211 0
M  V30 930 C 84.3197 2.43166 -6.38247 0
M  V30 931 O 84.0077 2.29115 -7.70559 0
M  V30 932 H 83.7397 0.479252 -0.476753 0
M  V30 933 H 86.2937 0.924751 -1.83405 0
M  V30 934 H 84.5237 3.47564 -1.69518 0
M  V30 935 H 86.2127 3.46509 -2.11392 0
M  V30 936 H 86.9787 2.26545 -4.28838 0
M  V30 937 H 82.8577 3.11191 -3.40119 0
M  V30 938 H 86.4017 2.0216 -6.67665 0
M  V30 939 H 82.2987 2.87153 -5.78112 0
M  V30 940 H 83.0667 2.44237 -7.81211 0
M  V30 941 N 85.7298 1.2412 0.971189 0
M  V30 942 C 86.9578 1.10575 1.74874 0
M  V30 943 C 87.3728 -0.342017 1.85676 0
M  V30 944 O 86.7298 -1.23617 1.34258 0
M  V30 945 C 86.7808 1.73579 3.171 0
M  V30 946 O 86.5018 3.12695 3.06844 0
M  V30 947 C 88.0028 1.65598 4.11208 0
M  V30 948 H 85.2228 0.386504 0.548503 0
M  V30 949 H 87.7668 1.64156 1.21955 0
M  V30 950 H 85.9218 1.24009 3.67016 0
M  V30 951 H 86.3358 3.43412 3.96445 0
M  V30 952 H 87.8098 2.1437 5.08674 0
M  V30 953 H 88.2868 0.616532 4.34851 0
M  V30 954 H 88.8928 2.14578 3.67201 0
M  V30 955 N 87.2079 -1.17134 1.05439 0
M  V30 956 C 88.1179 -2.24878 0.668365 0
M  V30 957 C 89.1339 -1.71186 -0.311687 0
M  V30 958 O 90.3099 -2.00738 -0.163161 0
M  V30 959 C 87.3749 -3.46662 0.051648 0
M  V30 960 C 86.4359 -4.15429 1.08246 0
M  V30 961 C 85.6689 -5.31399 0.495082 0
M  V30 962 O 85.8919 -5.66153 -0.694743 0
M  V30 963 O 84.8259 -5.89187 1.23056 0
M  V30 964 H 88.6519 -2.60189 1.56637 0
M  V30 965 H 86.2369 -1.24482 0.826104 0
M  V30 966 H 88.1189 -4.20394 -0.290966 0
M  V30 967 H 86.7939 -3.13142 -0.819971 0
M  V30 968 H 85.7009 -3.43704 1.47711 0
M  V30 969 H 87.0339 -4.52982 1.92532 0
M  V30 970 N 88.686 -0.835752 -1.33615 0
M  V30 971 C 89.616 -0.281739 -2.31794 0
M  V30 972 C 90.597 0.608833 -1.58831 0
M  V30 973 O 91.782 0.533035 -1.86741 0
M  V30 974 C 88.912 0.546612 -3.42971 0
M  V30 975 C 87.866 -0.247904 -4.27281 0
M  V30 976 C 87.192 0.704001 -5.30045 0
M  V30 977 C 88.492 -1.46324 -5.01385 0
M  V30 978 H 90.186 -1.10206 -2.78379 0
M  V30 979 H 87.732 -0.531388 -1.33837 0
M  V30 980 H 89.685 0.944467 -4.1068 0
M  V30 981 H 88.409 1.40011 -2.95067 0
M  V30 982 H 87.068 -0.627281 -3.61194 0
M  V30 983 H 86.716 1.55381 -4.78399 0
M  V30 984 H 86.416 0.176524 -5.87335 0
M  V30 985 H 87.94 1.09944 -6.0062 0
M  V30 986 H 89.354 -1.13871 -5.61877 0
M  V30 987 H 87.751 -1.92728 -5.6831 0
M  V30 988 H 88.821 -2.23467 -4.30338 0
M  V30 989 N 90.1641 1.46063 -0.591896 0
M  V30 990 C 91.3891 2.07226 -0.0850314 0
M  V30 991 C 91.8141 1.43625 1.21463 0
M  V30 992 O 91.1721 0.523305 1.73583 0
M  V30 993 C 91.2201 3.60554 0.0576567 0
M  V30 994 O 90.3241 3.97128 1.11188 0
M  V30 995 H 89.6651 0.660615 -0.0669568 0
M  V30 996 H 92.1951 1.8756 -0.81745 0
M  V30 997 H 92.2051 4.07165 0.2609 0
M  V30 998 H 90.8801 4.06235 -0.891416 0
M  V30 999 H 89.4571 3.62213 0.886356 0
M  V30 1000 N 91.6422 0.330177 1.54103 0
M  V30 1001 C 92.8672 -0.274893 2.0557 0
M  V30 1002 C 93.2922 -1.44487 1.20437 0
M  V30 1003 O 92.6502 -1.80021 0.214991 0
M  V30 1004 C 92.6982 -0.68079 3.54115 0
M  V30 1005 O 91.8022 -1.7824 3.71893 0
M  V30 1006 H 91.1432 -0.0483849 0.662235 0
M  V30 1007 H 93.6732 0.480508 1.98878 0
M  V30 1008 H 93.6832 -0.961635 3.96505 0
M  V30 1009 H 92.3582 0.174903 4.15532 0
M  V30 1010 H 90.9352 -1.49985 3.41407 0
M  V30 1011 N 93.1203 -1.57491 0.0584922 0
M  V30 1012 C 94.3483 -1.97296 -0.623037 0
M  V30 1013 C 94.7633 -0.936338 -1.63946 0
M  V30 1014 O 94.1203 0.0785981 -1.82331 0
M  V30 1015 C 94.1713 -3.37183 -1.30345 0
M  V30 1016 O 93.8923 -4.36872 -0.32773 0
M  V30 1017 C 95.3933 -3.91788 -2.07406 0
M  V30 1018 H 92.6133 -0.649153 -0.169826 0
M  V30 1019 H 95.1573 -2.04106 0.12696 0
M  V30 1020 H 93.3123 -3.31502 -2.00463 0
M  V30 1021 H 93.7263 -5.18141 -0.814269 0
M  V30 1022 H 95.2003 -4.91926 -2.50425 0
M  V30 1023 H 95.6773 -3.27609 -2.92521 0
M  V30 1024 H 96.2833 -4.00829 -1.42184 0
M  V30 1025 N 94.5984 0.214957 -1.56127 0
M  V30 1026 C 96.0144 0.564948 -1.49267 0
M  V30 1027 C 96.2144 1.86827 -0.754838 0
M  V30 1028 O 95.2704 2.50745 -0.297198 0
M  V30 1029 C 96.5834 0.638071 -2.93852 0
M  V30 1030 C 98.1314 0.728253 -3.0441 0
M  V30 1031 C 98.6064 0.832663 -4.50367 0
M  V30 1032 N 100.097 0.896712 -4.54437 0
M  V30 1033 C 100.832 0.997324 -5.6466 0
M  V30 1034 N 100.328 1.06147 -6.8462 0
M  V30 1035 N 102.121 1.03297 -5.52527 0
M  V30 1036 H 94.2724 -0.640211 -2.02522 0
M  V30 1037 H 96.5354 -0.225507 -0.920788 0
M  V30 1038 H 96.2414 -0.250126 -3.50809 0
M  V30 1039 H 96.1154 1.49947 -3.46115 0
M  V30 1040 H 98.5024 1.60689 -2.47514 0
M  V30 1041 H 98.5834 -0.158952 -2.55306 0
M  V30 1042 H 98.2274 -0.0415417 -5.07883 0
M  V30 1043 H 98.1574 1.73538 -4.97184 0
M  V30 1044 H 100.648 0.857188 -3.6805 0
M  V30 1045 H 100.961 1.1382 -7.64372 0
M  V30 1046 H 99.3064 1.03049 -6.87318 0
M  V30 1047 H 102.497 0.979558 -4.57736 0
M  V30 1048 H 102.67 1.10793 -6.38458 0
M  V30 1049 N 96.0765 1.50051 0.48192 0
M  V30 1050 C 97.3245 1.60181 1.23234 0
M  V30 1051 C 97.6455 0.299176 1.92691 0
M  V30 1052 O 96.9155 -0.682708 1.83619 0
M  V30 1053 H 95.4955 0.590232 0.457859 0
M  V30 1054 H 98.1575 1.86775 0.556881 0
M  V30 1055 H 97.2535 2.40753 1.98607 0
M  V30 1056 N 97.5546 -0.734337 1.39446 0
M  V30 1057 C 98.7846 -1.52137 1.39778 0
M  V30 1058 C 99.1926 -1.89198 -0.00929312 0
M  V30 1059 O 98.5356 -1.54666 -0.991168 0
M  V30 1060 C 98.5976 -2.83762 2.20724 0
M  V30 1061 C 98.2616 -2.69131 3.69347 0
M  V30 1062 C 99.2586 -2.37635 4.62413 0
M  V30 1063 C 96.9436 -2.85982 4.1294 0
M  V30 1064 C 98.9376 -2.23172 5.97054 0
M  V30 1065 C 96.6246 -2.71137 5.47657 0
M  V30 1066 C 97.6226 -2.39777 6.39528 0
M  V30 1067 O 97.3106 -2.25026 7.71763 0
M  V30 1068 H 97.0426 -0.476717 0.479288 0
M  V30 1069 H 99.5966 -0.915012 1.83893 0
M  V30 1070 H 97.8266 -3.4666 1.71359 0
M  V30 1071 H 99.5156 -3.45383 2.13226 0
M  V30 1072 H 100.282 -2.24267 4.30034 0
M  V30 1073 H 96.1606 -3.09383 3.41765 0
M  V30 1074 H 99.7046 -1.98617 6.68728 0
M  V30 1075 H 95.6016 -2.84083 5.79626 0
M  V30 1076 H 96.3696 -2.40091 7.82495 0
M  V30 1077 N 99.0327 -1.24633 -0.964593 0
M  V30 1078 C 100.258 -1.11596 -1.74818 0
M  V30 1079 C 100.683 0.32723 -1.85232 0
M  V30 1080 O 100.041 1.23695 -1.32549 0
M  V30 1081 C 100.089 -1.76397 -3.1451 0
M  V30 1082 O 99.1927 -1.03685 -3.99153 0
M  V30 1083 H 98.5337 -0.390196 -0.537255 0
M  V30 1084 H 101.064 -1.65002 -1.20977 0
M  V30 1085 H 101.074 -1.8228 -3.65018 0
M  V30 1086 H 99.7487 -2.81401 -3.06246 0
M  V30 1087 H 98.3257 -1.05611 -3.57632 0
M  V30 1088 N 100.511 1.16574 -1.06058 0
M  V30 1089 C 101.76 1.86385 -0.770944 0
M  V30 1090 C 102.073 1.82448 0.705129 0
M  V30 1091 O 103.279 2.47815 1.10905 0
M  V30 1092 C 101.735 3.34466 -1.32893 0
M  V30 1093 C 101.343 3.46883 -2.83507 0
M  V30 1094 C 103.087 4.09548 -1.11672 0
M  V30 1095 C 100.994 4.89036 -3.32562 0
M  V30 1096 H 99.9238 0.698181 -0.284709 0
M  V30 1097 H 102.575 1.31583 -1.27899 0
M  V30 1098 H 100.957 3.88859 -0.748662 0
M  V30 1099 H 102.131 3.02663 -3.47465 0
M  V30 1100 H 100.446 2.85232 -3.03368 0
M  V30 1101 H 103.043 5.14434 -1.45814 0
M  V30 1102 H 103.386 4.16264 -0.0549535 0
M  V30 1103 H 103.919 3.61387 -1.66265 0
M  V30 1104 H 100.658 4.87499 -4.38207 0
M  V30 1105 H 100.178 5.3389 -2.73351 0
M  V30 1106 H 101.857 5.57843 -3.2775 0
M  V30 1107 N 101.989 0.842826 1.3317 0
M  V30 1108 C 103.236 0.440447 1.97652 0
M  V30 1109 C 103.564 -1.00123 1.6675 0
M  V30 1110 O 102.819 -1.7155 0.941761 0
M  V30 1111 C 103.118 0.612607 3.52111 0
M  V30 1112 C 102.784 2.02297 4.02972 0
M  V30 1113 C 101.446 2.40874 4.16573 0
M  V30 1114 C 103.798 2.94402 4.30089 0
M  V30 1115 C 101.126 3.70852 4.54627 0
M  V30 1116 C 103.478 4.23865 4.69597 0
M  V30 1117 C 102.142 4.62392 4.81404 0
M  V30 1118 H 101.412 0.161171 0.72326 0
M  V30 1119 H 104.059 1.07061 1.58777 0
M  V30 1120 H 102.364 -0.100849 3.9167 0
M  V30 1121 H 104.061 0.2815 4.00011 0
M  V30 1122 H 100.651 1.71338 3.92863 0
M  V30 1123 H 104.835 2.65835 4.19101 0
M  V30 1124 H 100.091 4.00501 4.61962 0
M  V30 1125 H 104.265 4.95306 4.89536 0
M  V30 1126 H 101.892 5.63154 5.10648 0
M  V30 1127 N 103.467 -1.45747 0.599634 0
M  V30 1128 C 104.692 -2.07178 0.0960198 0
M  V30 1129 C 105.117 -1.44268 -1.207 0
M  V30 1130 O 104.475 -0.532503 -1.73303 0
M  V30 1131 C 104.523 -3.60579 -0.0385348 0
M  V30 1132 O 103.627 -3.97713 -1.0908 0
M  V30 1133 H 102.968 -0.660251 0.0704593 0
M  V30 1134 H 105.498 -1.87124 0.827385 0
M  V30 1135 H 105.508 -4.07298 -0.239304 0
M  V30 1136 H 104.183 -4.05756 0.912947 0
M  V30 1137 H 102.76 -3.62678 -0.867135 0
M  V30 1138 N 104.945 -0.338344 -1.53925 0
M  V30 1139 C 106.175 0.260919 -2.04946 0
M  V30 1140 C 106.583 1.45174 -1.2133 0
M  V30 1141 O 105.926 1.82122 -0.240262 0
M  V30 1142 C 105.988 0.744596 -3.51704 0
M  V30 1143 C 105.652 -0.325883 -4.55837 0
M  V30 1144 C 106.649 -1.16687 -5.06636 0
M  V30 1145 C 104.334 -0.478317 -5.00017 0
M  V30 1146 C 106.328 -2.14588 -6.00192 0
M  V30 1147 C 104.015 -1.46073 -5.93385 0
M  V30 1148 C 105.013 -2.29297 -6.4336 0
M  V30 1149 O 104.701 -3.25867 -7.34892 0
M  V30 1150 H 104.433 0.0551207 -0.673749 0
M  V30 1151 H 106.987 -0.486984 -1.99544 0
M  V30 1152 H 105.217 1.54366 -3.54553 0
M  V30 1153 H 106.906 1.26383 -3.85723 0
M  V30 1154 H 107.672 -1.06016 -4.73271 0
M  V30 1155 H 103.551 0.159613 -4.60724 0
M  V30 1156 H 107.095 -2.79585 -6.39123 0
M  V30 1157 H 102.992 -1.56802 -6.26166 0
M  V30 1158 H 103.76 -3.21278 -7.5281 0
M  V30 1159 N 106.423 1.57458 -0.0668435 0
M  V30 1160 C 107.386 2.11323 0.887422 0
M  V30 1161 C 108.386 1.03618 1.22964 0
M  V30 1162 O 109.576 1.29626 1.16373 0
M  V30 1163 C 106.708 2.61048 2.19242 0
M  V30 1164 H 107.901 2.96942 0.420194 0
M  V30 1165 H 105.454 1.55239 0.181793 0
M  V30 1166 H 106.189 1.78868 2.70512 0
M  V30 1167 H 105.974 3.39769 1.95702 0
M  V30 1168 H 107.464 3.02814 2.87565 0
M  V30 1169 N 107.901 -0.206675 1.56239 0
M  V30 1170 C 109.129 -0.945345 1.8404 0
M  V30 1171 C 109.544 -1.77336 0.647885 0
M  V30 1172 O 108.901 -1.78425 -0.383511 0
M  V30 1173 C 108.952 -1.8509 3.10522 0
M  V30 1174 O 108.673 -1.05634 4.25174 0
M  V30 1175 C 110.174 -2.70222 3.51418 0
M  V30 1176 H 107.394 -0.276372 0.61144 0
M  V30 1177 H 109.938 -0.217417 2.03341 0
M  V30 1178 H 108.093 -2.53259 2.93153 0
M  V30 1179 H 108.507 -1.67238 4.97124 0
M  V30 1180 H 109.981 -3.29438 4.42916 0
M  V30 1181 H 110.458 -3.43358 2.73864 0
M  V30 1182 H 111.064 -2.07443 3.71278 0
M  V30 1183 N 109.379 -1.50304 -0.473955 0
M  V30 1184 C 110.326 -1.68959 -1.57231 0
M  V30 1185 C 111.296 -0.530899 -1.57387 0
M  V30 1186 O 112.481 -0.761133 -1.74961 0
M  V30 1187 C 109.621 -1.7871 -2.95223 0
M  V30 1188 C 108.734 -3.06061 -3.04878 0
M  V30 1189 C 107.869 -3.06626 -4.33767 0
M  V30 1190 C 106.908 -4.28443 -4.37154 0
M  V30 1191 N 106.045 -4.26763 -5.5751 0
M  V30 1192 H 110.885 -2.6273 -1.40631 0
M  V30 1193 H 108.422 -1.30241 -0.683789 0
M  V30 1194 H 110.38 -1.82344 -3.75242 0
M  V30 1195 H 109.01 -0.883806 -3.10465 0
M  V30 1196 H 108.062 -3.11911 -2.17751 0
M  V30 1197 H 109.374 -3.96039 -3.0324 0
M  V30 1198 H 108.528 -3.08973 -5.22131 0
M  V30 1199 H 107.267 -2.14473 -4.3801 0
M  V30 1200 H 106.272 -4.2631 -3.47188 0
M  V30 1201 H 107.497 -5.2182 -4.34605 0
M  V30 1202 H 105.443 -3.37462 -5.62544 0
M  V30 1203 H 105.36 -5.10507 -5.57601 0
M  V30 1204 H 106.628 -4.33253 -6.48006 0
M  V30 1205 N 110.857 0.726932 -1.39834 0
M  V30 1206 C 112.273 1.03354 -1.21615 0
M  V30 1207 C 112.473 2.01327 -0.08338 0
M  V30 1208 O 111.529 2.46158 0.56238 0
M  V30 1209 C 112.842 1.58811 -2.55342 0
M  V30 1210 C 114.39 1.70851 -2.62257 0
M  V30 1211 C 114.865 2.29716 -3.96225 0
M  V30 1212 N 116.356 2.37116 -3.97907 0
M  V30 1213 C 117.091 2.83619 -4.98345 0
M  V30 1214 N 116.587 3.29958 -6.09179 0
M  V30 1215 N 118.38 2.82901 -4.8572 0
M  V30 1216 H 110.531 0.0773069 -2.12259 0
M  V30 1217 H 112.794 0.0969102 -0.943034 0
M  V30 1218 H 112.5 0.942855 -3.38826 0
M  V30 1219 H 112.374 2.57502 -2.75632 0
M  V30 1220 H 114.761 2.34497 -1.79152 0
M  V30 1221 H 114.842 0.707913 -2.45809 0
M  V30 1222 H 114.486 1.66696 -4.79765 0
M  V30 1223 H 114.416 3.30469 -4.09997 0
M  V30 1224 H 116.907 2.04374 -3.17868 0
M  V30 1225 H 117.22 3.63976 -6.8172 0
M  V30 1226 H 115.565 3.27946 -6.12761 0
M  V30 1227 H 118.756 2.46027 -3.98231 0
M  V30 1228 H 118.929 3.18827 -5.6414 0
M  V30 1229 N 112.336 1.25143 0.95797 0
M  V30 1230 C 113.268 1.01023 2.05735 0
M  V30 1231 C 114.281 -0.0236902 1.62783 0
M  V30 1232 O 115.47 0.21448 1.77207 0
M  V30 1233 C 112.57 0.504595 3.35122 0
M  V30 1234 C 111.743 1.6039 4.06932 0
M  V30 1235 C 110.802 1.09922 5.14591 0
M  V30 1236 O 109.828 1.79293 5.40225 0
M  V30 1237 N 111.03 -0.0612545 5.80468 0
M  V30 1238 H 113.795 1.95683 2.26998 0
M  V30 1239 H 111.356 1.16303 1.12629 0
M  V30 1240 H 113.348 0.151516 4.04416 0
M  V30 1241 H 111.918 -0.347989 3.10657 0
M  V30 1242 H 111.138 2.12872 3.31782 0
M  V30 1243 H 112.426 2.34252 4.51667 0
M  V30 1244 H 111.824 -0.640985 5.62057 0
M  V30 1245 H 110.381 -0.355395 6.5083 0
M  V30 1246 N 113.814 -1.1601 1.06675 0
M  V30 1247 C 115.091 -1.82679 0.699114 0
M  V30 1248 C 115.471 -1.94559 -0.819137 0
M  V30 1249 O 114.819 -1.49169 -1.73092 0
M  V30 1250 C 115.029 -3.19445 1.40555 0
M  V30 1251 C 116.377 -3.95171 1.55323 0
M  V30 1252 O 117.401 -3.28976 1.36577 0
M  V30 1253 O 116.26 -5.13833 1.86112 0
M  V30 1254 H 113.354 -0.788954 0.247951 0
M  V30 1255 H 115.9 -1.23179 1.16726 0
M  V30 1256 H 114.672 -3.05856 2.44065 0
M  V30 1257 H 114.295 -3.86625 0.927733 0
M  V30 1258 N 115.292 -0.849877 -1.32721 0
M  V30 1259 C 116.24 -0.279745 -2.30912 0
M  V30 1260 C 117.234 0.594278 -1.58634 0
M  V30 1261 O 118.44 0.482613 -1.73409 0
M  V30 1262 H 114.815 -0.0717521 -0.748569 0
M  V30 1263 H 116.786 -1.12222 -2.76494 0
M  V30 1264 C 115.535 0.521108 -3.43773 0
M  V30 1265 H 114.858 -0.142141 -3.99547 0
M  V30 1266 H 116.298 0.885693 -4.14646 0
M  V30 1267 C 114.757 1.70442 -2.90605 0
M  V30 1268 O 115.287 2.8034 -2.87702 0
M  V30 1269 N 113.493 1.52991 -2.47067 0
M  V30 1270 H 113.04 0.635914 -2.49628 0
M  V30 1271 H 112.998 2.32311 -2.11847 0
M  V30 1272 N 116.77 1.45427 -0.607355 0
M  V30 1273 C 117.68 2.34325 0.113463 0
M  V30 1274 C 118.696 1.51226 0.860617 0
M  V30 1275 O 119.872 1.84029 0.818255 0
M  V30 1276 C 116.937 3.28839 1.09844 0
M  V30 1277 C 115.998 4.27844 0.353271 0
M  V30 1278 C 115.231 5.17842 1.29133 0
M  V30 1279 O 115.454 5.11264 2.52913 0
M  V30 1280 O 114.388 5.96713 0.788523 0
M  V30 1281 H 118.214 2.97364 -0.617094 0
M  V30 1282 H 115.799 1.44807 -0.367619 0
M  V30 1283 H 117.681 3.8708 1.66575 0
M  V30 1284 H 116.356 2.68365 1.81003 0
M  V30 1285 H 115.263 3.7322 -0.256494 0
M  V30 1286 H 116.596 4.91173 -0.317822 0
M  V30 1287 N 118.248 0.346503 1.53744 0
M  V30 1288 C 119.497 -0.250122 2.00143 0
M  V30 1289 C 119.81 -1.51418 1.23822 0
M  V30 1290 O 121.016 -2.18823 1.60713 0
M  V30 1291 C 119.472 -0.496252 3.56462 0
M  V30 1292 C 119.08 0.752077 4.41642 0
M  V30 1293 C 120.824 -1.05157 4.11269 0
M  V30 1294 C 118.731 0.476583 5.89477 0
M  V30 1295 H 117.661 -0.0972409 0.747703 0
M  V30 1296 H 120.312 0.46229 1.77581 0
M  V30 1297 H 118.694 -1.26944 3.75102 0
M  V30 1298 H 119.868 1.5266 4.34778 0
M  V30 1299 H 118.183 1.22925 3.97842 0
M  V30 1300 H 120.78 -1.27269 5.19333 0
M  V30 1301 H 121.123 -2.00799 3.64672 0
M  V30 1302 H 121.656 -0.339019 3.96353 0
M  V30 1303 H 118.395 1.4028 6.40314 0
M  V30 1304 H 117.915 -0.259794 5.99237 0
M  V30 1305 H 119.594 0.0949315 6.4693 0
M  V30 1306 N 119.726 -1.57421 0.075193 0
M  V30 1307 C 120.656 -2.15942 -0.888324 0
M  V30 1308 C 121.637 -1.08737 -1.30806 0
M  V30 1309 O 122.822 -1.36787 -1.37851 0
M  V30 1310 C 119.952 -2.72379 -2.1547 0
M  V30 1311 C 118.906 -3.8478 -1.87425 0
M  V30 1312 C 118.232 -4.27834 -3.20721 0
M  V30 1313 C 119.532 -5.08869 -1.17684 0
M  V30 1314 H 121.226 -2.96705 -0.400799 0
M  V30 1315 H 118.772 -1.42723 -0.191342 0
M  V30 1316 H 120.725 -3.11965 -2.83295 0
M  V30 1317 H 119.449 -1.88841 -2.6647 0
M  V30 1318 H 118.108 -3.45703 -1.22004 0
M  V30 1319 H 117.756 -3.41214 -3.6957 0
M  V30 1320 H 117.456 -5.03605 -3.02746 0
M  V30 1321 H 118.98 -4.70039 -3.89738 0
M  V30 1322 H 120.394 -5.4575 -1.75584 0
M  V30 1323 H 118.791 -5.8994 -1.09956 0
M  V30 1324 H 119.861 -4.84648 -0.156453 0
M  V30 1325 N 121.204 0.198386 -1.56346 0
M  V30 1326 C 122.453 0.917451 -1.79627 0
M  V30 1327 C 122.766 1.8456 -0.64784 0
M  V30 1328 O 123.972 2.60504 -0.764859 0
M  V30 1329 C 122.428 1.68175 -3.18191 0
M  V30 1330 C 122.036 0.798589 -4.40825 0
M  V30 1331 C 123.78 2.39065 -3.50782 0
M  V30 1332 C 121.687 1.56157 -5.70411 0
M  V30 1333 H 120.617 0.346317 -0.669762 0
M  V30 1334 H 123.268 0.170801 -1.82703 0
M  V30 1335 H 121.65 2.47216 -3.09354 0
M  V30 1336 H 122.824 0.0470665 -4.60776 0
M  V30 1337 H 121.139 0.200686 -4.15916 0
M  V30 1338 H 123.736 2.96692 -4.44835 0
M  V30 1339 H 124.079 3.13091 -2.74371 0
M  V30 1340 H 124.612 1.66993 -3.61052 0
M  V30 1341 H 121.351 0.864142 -6.49779 0
M  V30 1342 H 120.871 2.2871 -5.54483 0
M  V30 1343 H 122.55 2.11622 -6.11412 0
M  V30 1344 N 122.682 1.50554 0.465978 0
M  V30 1345 C 123.929 1.61798 1.21768 0
M  V30 1346 C 124.257 0.320696 1.91838 0
M  V30 1347 O 123.512 -0.693724 1.82992 0
M  V30 1348 C 123.811 2.75152 2.28093 0
M  V30 1349 C 123.477 4.15454 1.75239 0
M  V30 1350 C 122.139 4.53628 1.60546 0
M  V30 1351 C 124.491 5.03121 1.36083 0
M  V30 1352 C 121.819 5.77204 1.05128 0
M  V30 1353 C 124.171 6.27249 0.821056 0
M  V30 1354 C 122.835 6.64221 0.660795 0
M  V30 1355 H 122.105 0.592063 0.445582 0
M  V30 1356 H 124.752 1.84503 0.512927 0
M  V30 1357 H 123.057 2.46556 3.04496 0
M  V30 1358 H 124.754 2.81055 2.86023 0
M  V30 1359 H 121.344 3.85341 1.87644 0
M  V30 1360 H 125.528 4.74257 1.46267 0
M  V30 1361 H 120.784 6.0452 0.91462 0
M  V30 1362 H 124.958 6.94537 0.509018 0
M  V30 1363 H 122.585 7.59854 0.229226 0
M  V30 1364 N 124.16 -0.719506 1.40217 0
M  V30 1365 C 125.406 -1.48034 1.39491 0
M  V30 1366 C 125.761 -1.92399 -0.00443536 0
M  V30 1367 O 125.054 -1.64993 -0.974061 0
M  V30 1368 C 125.248 -2.72271 2.31524 0
M  V30 1369 C 125.077 -2.40055 3.80268 0
M  V30 1370 C 123.847 -2.31588 4.49105 0
M  V30 1371 C 126.045 -2.04581 4.71859 0
M  V30 1372 N 124.027 -1.92006 5.83101 0
M  V30 1373 C 125.398 -1.75568 5.94623 0
M  V30 1374 C 127.453 -1.91183 4.59732 0
M  V30 1375 C 126.156 -1.34505 7.06612 0
M  V30 1376 C 128.182 -1.51524 5.71659 0
M  V30 1377 C 127.544 -1.23406 6.93506 0
M  V30 1378 H 123.643 -0.539927 0.565688 0
M  V30 1379 H 126.227 -0.834764 1.75897 0
M  V30 1380 H 124.398 -3.34584 1.97251 0
M  V30 1381 H 126.13 -3.38584 2.21682 0
M  V30 1382 H 122.885 -2.49199 4.02737 0
M  V30 1383 H 123.309 -1.74764 6.54054 0
M  V30 1384 H 127.951 -2.11584 3.66049 0
M  V30 1385 H 125.669 -1.12846 8.00182 0
M  V30 1386 H 129.255 -1.41741 5.6427 0
M  V30 1387 H 128.135 -0.931788 7.78645 0
M  V30 1388 N 125.638 -1.25649 -0.95132 0
M  V30 1389 C 126.863 -1.13443 -1.73624 0
M  V30 1390 C 127.288 0.307565 -1.85568 0
M  V30 1391 O 126.646 1.22282 -1.33854 0
M  V30 1392 C 126.694 -1.79723 -3.12621 0
M  V30 1393 O 125.798 -1.07912 -3.98031 0
M  V30 1394 H 125.139 -0.395872 -0.533086 0
M  V30 1395 H 127.669 -1.66276 -1.1922 0
M  V30 1396 H 127.679 -1.86141 -3.63064 0
M  V30 1397 H 126.354 -2.84633 -3.03244 0
M  V30 1398 H 124.931 -1.09398 -3.56492 0
M  V30 1399 N 127.117 1.15442 -1.07289 0
M  V30 1400 C 128.064 2.20161 -0.692653 0
M  V30 1401 C 129.034 1.63073 0.31564 0
M  V30 1402 O 130.219 1.89725 0.202235 0
M  V30 1403 C 127.359 3.44967 -0.0959509 0
M  V30 1404 C 126.472 4.16256 -1.15564 0
M  V30 1405 C 125.607 5.28609 -0.524011 0
M  V30 1406 C 124.646 5.91715 -1.56653 0
M  V30 1407 N 123.783 6.9554 -0.957531 0
M  V30 1408 H 128.623 2.52037 -1.59002 0
M  V30 1409 H 126.16 1.2378 -0.794798 0
M  V30 1410 H 128.118 4.16341 0.267628 0
M  V30 1411 H 126.748 3.1361 0.764772 0
M  V30 1412 H 125.8 3.43385 -1.6368 0
M  V30 1413 H 127.112 4.59268 -1.94613 0
M  V30 1414 H 126.266 6.06604 -0.108032 0
M  V30 1415 H 125.005 4.86787 0.29825 0
M  V30 1416 H 124.01 5.12433 -1.9923 0
M  V30 1417 H 125.235 6.35614 -2.39107 0
M  V30 1418 H 123.181 6.55814 -0.156162 0
M  V30 1419 H 123.098 7.36977 -1.68526 0
M  V30 1420 H 124.366 7.77435 -0.567032 0
M  V30 1421 N 128.595 0.856903 1.32268 0
M  V30 1422 C 129.872 0.382583 1.91822 0
M  V30 1423 C 130.252 -1.13407 1.78051 0
M  V30 1424 O 129.6 -1.95673 1.18001 0
M  V30 1425 C 129.81 0.849446 3.38505 0
M  V30 1426 C 131.158 0.867936 4.15634 0
M  V30 1427 O 132.182 0.794232 3.47232 0
M  V30 1428 O 131.041 0.972286 5.37781 0
M  V30 1429 H 128.135 0.112014 0.819379 0
M  V30 1430 H 130.681 0.943952 1.41024 0
M  V30 1431 H 129.453 1.89267 3.42482 0
M  V30 1432 H 129.076 0.265652 3.96712 0
M  V30 1433 N 130.073 -1.45103 0.615059 0
M  V30 1434 C 131.322 -2.01396 0.110718 0
M  V30 1435 C 131.635 -1.48834 -1.26916 0
M  V30 1436 O 132.841 -1.97152 -1.86664 0
M  V30 1437 C 131.297 -3.59599 0.14723 0
M  V30 1438 C 130.905 -4.21158 1.52743 0
M  V30 1439 C 132.649 -4.23428 -0.30148 0
M  V30 1440 C 130.556 -5.71535 1.51992 0
M  V30 1441 H 129.486 -0.753061 0.0376241 0
M  V30 1442 H 132.137 -1.66494 0.77149 0
M  V30 1443 H 130.519 -3.91724 -0.580339 0
M  V30 1444 H 131.693 -4.00594 2.2773 0
M  V30 1445 H 130.008 -3.69552 1.91886 0
M  V30 1446 H 132.605 -5.33703 -0.326392 0
M  V30 1447 H 132.948 -3.94629 -1.32565 0
M  V30 1448 H 133.481 -3.96047 0.373065 0
M  V30 1449 H 130.22 -6.05044 2.52193 0
M  V30 1450 H 129.74 -5.94268 0.81274 0
M  V30 1451 H 131.419 -6.34873 1.24681 0
M  V30 1452 N 131.551 -0.354651 -1.53558 0
M  V30 1453 C 132.799 0.237972 -2.00694 0
M  V30 1454 C 133.12 1.50173 -1.24391 0
M  V30 1455 O 132.39 1.92673 -0.354135 0
M  V30 1456 H 130.97 0.0909256 -0.741446 0
M  V30 1457 H 133.632 -0.478368 -1.88938 0
M  V30 1458 H 132.728 0.47264 -3.085 0
M  V30 1459 N 133.029 1.57378 -0.0835403 0
M  V30 1460 C 134.259 1.97975 0.590713 0
M  V30 1461 C 134.667 0.961083 1.62972 0
M  V30 1462 O 134.01 -0.0590879 1.83605 0
M  V30 1463 C 134.072 3.34915 1.3066 0
M  V30 1464 C 133.736 4.55069 0.419698 0
M  V30 1465 C 134.733 5.18868 -0.32749 0
M  V30 1466 C 132.418 5.0114 0.341137 0
M  V30 1467 C 134.412 6.27098 -1.14134 0
M  V30 1468 C 132.099 6.0924 -0.476374 0
M  V30 1469 C 133.097 6.72083 -1.21627 0
M  V30 1470 O 132.785 7.781 -2.02028 0
M  V30 1471 H 132.517 0.655818 0.163947 0
M  V30 1472 H 135.071 2.04807 -0.156021 0
M  V30 1473 H 133.301 3.24733 2.09966 0
M  V30 1474 H 134.99 3.60037 1.87424 0
M  V30 1475 H 135.756 4.84211 -0.276459 0
M  V30 1476 H 131.635 4.51996 0.90668 0
M  V30 1477 H 135.179 6.7608 -1.71935 0
M  V30 1478 H 131.076 6.43329 -0.528927 0
M  V30 1479 H 131.844 7.95034 -1.94586 0
M  V30 1480 N 134.507 -0.190092 1.56449 0
M  V30 1481 C 135.732 -0.929864 1.85387 0
M  V30 1482 C 136.157 -1.7585 0.667704 0
M  V30 1483 O 135.515 -1.77198 -0.383459 0
M  V30 1484 C 135.563 -1.79773 3.12593 0
M  V30 1485 O 134.667 -2.89713 2.93496 0
M  V30 1486 H 134.008 -0.261574 0.610307 0
M  V30 1487 H 136.538 -0.193896 2.03679 0
M  V30 1488 H 136.548 -2.20139 3.43515 0
M  V30 1489 H 135.223 -1.18892 3.98544 0
M  V30 1490 H 133.8 -2.53065 2.73884 0
M  V30 1491 N 135.985 -1.50799 -0.457987 0
M  V30 1492 C 137.232 -1.62442 -1.20908 0
M  V30 1493 C 137.56 -0.330865 -1.91665 0
M  V30 1494 O 136.815 0.68401 -1.83357 0
M  V30 1495 C 137.114 -2.76358 -2.2663 0
M  V30 1496 C 136.78 -4.16378 -1.73033 0
M  V30 1497 C 135.442 -4.54473 -1.58138 0
M  V30 1498 C 137.794 -5.03836 -1.33413 0
M  V30 1499 C 135.122 -5.77754 -1.02065 0
M  V30 1500 C 137.474 -6.27676 -0.78778 0
M  V30 1501 C 136.138 -6.64562 -0.625561 0
M  V30 1502 H 135.408 -0.594417 -0.442435 0
M  V30 1503 H 138.055 -1.84772 -0.503136 0
M  V30 1504 H 136.36 -2.48167 -3.03184 0
M  V30 1505 H 138.057 -2.82568 -2.84528 0
M  V30 1506 H 134.647 -3.86331 -1.85598 0
M  V30 1507 H 138.831 -4.75026 -1.4375 0
M  V30 1508 H 134.087 -6.04997 -0.882547 0
M  V30 1509 H 138.261 -6.94797 -0.472177 0
M  V30 1510 H 135.888 -7.59965 -0.188926 0
M  V30 1511 N 137.463 0.71206 -1.40597 0
M  V30 1512 C 138.691 1.50111 -1.42388 0
M  V30 1513 C 139.106 1.88784 -0.0245395 0
M  V30 1514 O 138.463 1.55681 0.952351 0
M  V30 1515 C 138.514 2.7742 -2.31776 0
M  V30 1516 O 138.235 2.40382 -3.66262 0
M  V30 1517 C 139.736 3.7129 -2.42196 0
M  V30 1518 H 136.956 0.46314 -0.485533 0
M  V30 1519 H 139.5 0.878068 -1.8469 0
M  V30 1520 H 137.655 3.36001 -1.92827 0
M  V30 1521 H 138.069 3.22324 -4.13772 0
M  V30 1522 H 139.543 4.57448 -3.08943 0
M  V30 1523 H 140.02 4.14641 -1.44809 0
M  V30 1524 H 140.626 3.18619 -2.81712 0
M  V30 1525 N 138.941 1.26152 0.944643 0
M  V30 1526 C 140.187 1.11657 1.69294 0
M  V30 1527 C 140.52 -0.339926 1.91202 0
M  V30 1528 O 139.795 -1.24994 1.49019 0
M  V30 1529 C 140.078 1.88236 3.06984 0
M  V30 1530 C 139.931 3.41772 2.92424 0
M  V30 1531 C 141.25 1.67343 4.07043 0
M  V30 1532 H 138.369 0.407004 0.614424 0
M  V30 1533 H 141.011 1.55106 1.09737 0
M  V30 1534 H 139.161 1.51308 3.57824 0
M  V30 1535 H 140.833 3.88433 2.48832 0
M  V30 1536 H 139.076 3.68974 2.28124 0
M  V30 1537 H 139.747 3.90579 3.90067 0
M  V30 1538 H 142.223 1.99509 3.65151 0
M  V30 1539 H 141.099 2.23346 5.01406 0
M  V30 1540 H 141.36 0.617158 4.37771 0
M  V30 1541 N 140.419 -1.14872 1.07899 0
M  V30 1542 C 141.667 -1.85422 0.803941 0
M  V30 1543 C 141.988 -1.83051 -0.67211 0
M  V30 1544 O 141.258 -1.27532 -1.48703 0
M  V30 1545 H 139.838 -0.686537 0.294408 0
M  V30 1546 H 142.5 -1.39226 1.3639 0
M  V30 1547 H 141.596 -2.90399 1.14346 0
M  V30 1548 N 141.898 -0.863906 -1.31812 0
M  V30 1549 C 143.146 -0.470904 -1.96537 0
M  V30 1550 C 143.467 0.978771 -1.68657 0
M  V30 1551 O 142.737 1.6853 -0.998717 0
M  V30 1552 H 141.317 -0.171148 -0.72713 0
M  V30 1553 H 143.979 -1.10236 -1.60729 0
M  V30 1554 H 143.075 -0.623616 -3.05806 0
M  V30 1555 N 143.376 1.44774 -0.622745 0
M  V30 1556 C 144.601 2.06999 -0.128968 0
M  V30 1557 C 145.026 1.4617 1.1839 0
M  V30 1558 O 144.384 0.560007 1.72434 0
M  V30 1559 C 144.432 3.60595 -0.0188351 0
M  V30 1560 O 143.536 3.99398 1.02739 0
M  V30 1561 H 142.877 0.659047 -0.0809544 0
M  V30 1562 H 145.407 1.85784 -0.85705 0
M  V30 1563 H 145.417 4.07627 0.174476 0
M  V30 1564 H 144.092 4.04252 -0.977384 0
M  V30 1565 H 142.669 3.64011 0.809326 0
M  V30 1566 N 144.854 0.36279 1.53368 0
M  V30 1567 C 145.764 -0.492994 2.29362 0
M  V30 1568 C 146.78 -1.09507 1.35219 0
M  V30 1569 O 147.956 -1.10662 1.68273 0
M  V30 1570 C 145.021 -1.61855 3.066 0
M  V30 1571 C 144.082 -1.04429 4.16405 0
M  V30 1572 C 143.315 -2.11621 4.89951 0
M  V30 1573 O 143.538 -3.32684 4.63333 0
M  V30 1574 O 142.472 -1.74835 5.75948 0
M  V30 1575 H 146.298 0.125331 3.03441 0
M  V30 1576 H 143.883 0.127253 1.48857 0
M  V30 1577 H 145.765 -2.27302 3.54841 0
M  V30 1578 H 144.44 -2.22233 2.3536 0
M  V30 1579 H 143.347 -0.353819 3.72423 0
M  V30 1580 H 144.68 -0.485113 4.89804 0
M  V30 1581 N 146.332 -1.57332 0.0918853 0
M  V30 1582 C 147.581 -1.93412 -0.572249 0
M  V30 1583 C 147.894 -0.975515 -1.69538 0
M  V30 1584 O 149.1 -1.22991 -2.42045 0
M  V30 1585 C 147.556 -3.43648 -1.0693 0
M  V30 1586 C 147.164 -4.47994 0.0239049 0
M  V30 1587 C 148.908 -3.88695 -1.70635 0
M  V30 1588 C 146.815 -5.89381 -0.488319 0
M  V30 1589 H 145.745 -0.721939 -0.217532 0
M  V30 1590 H 148.396 -1.82735 0.167369 0
M  V30 1591 H 146.778 -3.49466 -1.8625 0
M  V30 1592 H 147.952 -4.53815 0.799277 0
M  V30 1593 H 146.267 -4.12536 0.565946 0
M  V30 1594 H 148.864 -4.91725 -2.10025 0
M  V30 1595 H 149.207 -3.27166 -2.57426 0
M  V30 1596 H 149.74 -3.85564 -0.979023 0
M  V30 1597 H 146.479 -6.54602 0.342906 0
M  V30 1598 H 145.999 -5.87037 -1.23077 0
M  V30 1599 H 147.678 -6.39863 -0.958317 0
M  V30 1600 N 147.81 0.181792 -1.56548 0
M  V30 1601 C 148.74 1.22765 -1.98623 0
M  V30 1602 C 149.721 1.46747 -0.860189 0
M  V30 1603 O 150.906 1.58259 -1.12551 0
M  V30 1604 C 148.036 2.56894 -2.33715 0
M  V30 1605 C 146.99 2.475 -3.49182 0
M  V30 1606 C 146.316 3.86023 -3.69986 0
M  V30 1607 C 147.616 1.98866 -4.82959 0
M  V30 1608 H 149.31 0.877942 -2.86239 0
M  V30 1609 H 146.856 0.42088 -1.37712 0
M  V30 1610 H 148.809 3.30253 -2.61746 0
M  V30 1611 H 147.533 2.93632 -1.42997 0
M  V30 1612 H 146.192 1.76596 -3.21262 0
M  V30 1613 H 145.84 4.20136 -2.76576 0
M  V30 1614 H 145.54 3.80609 -4.47672 0
M  V30 1615 H 147.064 4.60984 -4.00407 0
M  V30 1616 H 148.478 2.61992 -5.09934 0
M  V30 1617 H 146.875 2.04424 -5.64208 0
M  V30 1618 H 147.945 0.942465 -4.75653 0
M  V30 1619 N 149.288 1.51039 0.449983 0
M  V30 1620 C 150.535 1.63081 1.20045 0
M  V30 1621 C 150.863 0.341024 1.91487 0
M  V30 1622 O 150.118 -0.674276 1.83717 0
M  V30 1623 C 150.417 2.77556 2.25161 0
M  V30 1624 C 150.083 4.17289 1.70823 0
M  V30 1625 C 148.745 4.55305 1.55725 0
M  V30 1626 C 151.097 5.04536 1.3074 0
M  V30 1627 C 148.425 5.78287 0.989999 0
M  V30 1628 C 150.777 6.28085 0.754482 0
M  V30 1629 C 149.441 6.64885 0.590308 0
M  V30 1630 H 148.711 0.596755 0.439277 0
M  V30 1631 H 151.358 1.85037 0.49333 0
M  V30 1632 H 149.663 2.49771 3.01863 0
M  V30 1633 H 151.36 2.84073 2.83026 0
M  V30 1634 H 147.95 3.8731 1.83546 0
M  V30 1635 H 152.134 4.75782 1.41229 0
M  V30 1636 H 147.39 6.05456 0.850451 0
M  V30 1637 H 151.564 6.95038 0.435324 0
M  V30 1638 H 149.191 7.60055 0.14862 0
M  V30 1639 N 150.766 -0.704594 1.40972 0
M  V30 1640 C 151.676 -1.84856 1.44448 0
M  V30 1641 C 152.692 -1.70726 0.335961 0
M  V30 1642 O 153.868 -1.92799 0.582276 0
M  V30 1643 C 150.933 -3.20758 1.31587 0
M  V30 1644 C 149.994 -3.47063 2.52677 0
M  V30 1645 C 149.227 -4.76481 2.4042 0
M  V30 1646 O 149.45 -5.52341 1.42391 0
M  V30 1647 O 148.384 -5.03367 3.30007 0
M  V30 1648 H 152.21 -1.8488 2.40942 0
M  V30 1649 H 149.795 -0.85647 1.22413 0
M  V30 1650 H 151.677 -4.01913 1.26665 0
M  V30 1651 H 150.352 -3.21438 0.382049 0
M  V30 1652 H 149.259 -2.65873 2.63177 0
M  V30 1653 H 150.592 -3.5119 3.44858 0
M  V30 1654 N 152.244 -1.26651 -0.937939 0
M  V30 1655 C 153.49 -1.12553 -1.687 0
M  V30 1656 C 153.823 0.329782 -1.91379 0
M  V30 1657 O 153.098 1.24202 -1.4968 0
M  V30 1658 C 153.381 -1.89862 -3.05981 0
M  V30 1659 C 153.234 -3.43318 -2.90607 0
M  V30 1660 C 154.553 -1.69499 -4.0615 0
M  V30 1661 H 151.672 -0.410257 -0.612257 0
M  V30 1662 H 154.314 -1.55685 -1.08913 0
M  V30 1663 H 152.464 -1.53204 -3.57017 0
M  V30 1664 H 154.136 -3.89747 -2.46769 0
M  V30 1665 H 152.379 -3.70179 -2.26164 0
M  V30 1666 H 153.05 -3.92642 -3.8799 0
M  V30 1667 H 155.526 -2.01442 -3.64088 0
M  V30 1668 H 154.402 -2.26002 -5.00214 0
M  V30 1669 H 154.663 -0.640365 -4.37438 0
M  V30 1670 N 153.722 1.14298 -1.08507 0
M  V30 1671 C 155.133 1.66926 -0.836227 0
M  V30 1672 C 155.484 1.85576 0.63686 0
M  V30 1673 O 154.609 1.56767 1.49175 0
M  V30 1674 C 155.204 3.03219 -1.51142 0
M  V30 1675 C 153.763 3.52876 -1.30979 0
M  V30 1676 C 152.91 2.2833 -1.57356 0
M  V30 1677 H 155.861 0.983491 -1.24552 0
M  V30 1678 H 155.882 3.68726 -0.939211 0
M  V30 1679 H 155.394 2.89612 -2.58353 0
M  V30 1680 H 153.495 3.71703 -0.258429 0
M  V30 1681 H 153.608 4.33586 -2.03814 0
M  V30 1682 H 151.972 2.34454 -0.995164 0
M  V30 1683 H 152.755 2.17298 -2.65775 0
M  V30 1684 N 155.201 0.870884 1.31352 0
M  V30 1685 C 156.111 0.330783 2.32256 0
M  V30 1686 C 157.127 -0.559767 1.6475 0
M  V30 1687 O 158.303 -0.456263 1.96164 0
M  V30 1688 C 155.368 -0.458137 3.4366 0
M  V30 1689 C 154.429 0.460482 4.26823 0
M  V30 1690 C 153.662 -0.290881 5.32907 0
M  V30 1691 O 153.885 -1.51885 5.49806 0
M  V30 1692 O 152.819 0.351732 6.00871 0
M  V30 1693 H 156.645 1.16718 2.80376 0
M  V30 1694 H 154.23 0.634285 1.35267 0
M  V30 1695 H 156.112 -0.905343 4.1156 0
M  V30 1696 H 154.787 -1.27106 2.97701 0
M  V30 1697 H 153.694 0.956207 3.61673 0
M  V30 1698 H 155.027 1.23903 4.7635 0
M  V30 1699 N 156.679 -1.44442 0.630414 0
M  V30 1700 C 157.925 -2.02351 0.134816 0
M  V30 1701 C 158.258 -1.4947 -1.23986 0
M  V30 1702 O 157.533 -0.678475 -1.82283 0
M  V30 1703 C 157.816 -3.59898 0.120707 0
M  V30 1704 C 157.669 -4.23063 1.52767 0
M  V30 1705 C 158.988 -4.36585 -0.555127 0
M  V30 1706 H 156.107 -0.73527 0.0504646 0
M  V30 1707 H 158.749 -1.72022 0.806751 0
M  V30 1708 H 156.899 -3.85868 -0.451477 0
M  V30 1709 H 158.571 -4.08202 2.14869 0
M  V30 1710 H 156.814 -3.80586 2.08175 0
M  V30 1711 H 157.485 -5.32071 1.46984 0
M  V30 1712 H 159.961 -4.16044 -0.0685429 0
M  V30 1713 H 158.837 -5.46294 -0.534185 0
M  V30 1714 H 159.098 -4.11138 -1.62535 0
M  V30 1715 N 158.157 -0.370918 -1.53173 0
M  V30 1716 C 159.385 0.217704 -2.05751 0
M  V30 1717 C 159.8 1.42018 -1.24404 0
M  V30 1718 O 159.157 1.80245 -0.286033 0
M  V30 1719 C 159.208 0.605954 -3.56385 0
M  V30 1720 O 158.929 -0.548734 -4.3465 0
M  V30 1721 C 160.43 1.2524 -4.25241 0
M  V30 1722 H 157.65 0.0371659 -0.66997 0
M  V30 1723 H 160.194 -0.530832 -1.9749 0
M  V30 1724 H 158.349 1.3044 -3.6478 0
M  V30 1725 H 158.763 -0.23376 -5.23979 0
M  V30 1726 H 160.237 1.47458 -5.3194 0
M  V30 1727 H 160.714 2.2143 -3.79296 0
M  V30 1728 H 161.32 0.595233 -4.21114 0
M  V30 1729 N 159.635 1.57281 -0.100228 0
M  V30 1730 C 160.881 1.94826 0.563101 0
M  V30 1731 C 161.214 0.982475 1.67514 0
M  V30 1732 O 160.489 0.0164069 1.94493 0
M  V30 1733 C 160.772 3.42453 1.11346 0
M  V30 1734 C 160.625 4.498 0.00612081 0
M  V30 1735 C 161.944 3.91506 2.01024 0
M  V30 1736 H 159.063 0.708428 0.203221 0
M  V30 1737 H 161.705 1.8922 -0.171979 0
M  V30 1738 H 159.855 3.47361 1.7399 0
M  V30 1739 H 161.527 4.57 -0.628357 0
M  V30 1740 H 159.77 4.28756 -0.659581 0
M  V30 1741 H 160.441 5.50306 0.432109 0
M  V30 1742 H 162.917 3.88784 1.48278 0
M  V30 1743 H 161.793 4.95358 2.36457 0
M  V30 1744 H 162.054 3.31099 2.92961 0
M  V30 1745 N 161.113 -0.173488 1.56642 0
M  V30 1746 C 162.076 -1.19859 1.95362 0
M  V30 1747 C 163.076 -1.37296 0.83704 0
M  V30 1748 O 164.266 -1.34739 1.10413 0
M  V30 1749 C 161.398 -2.56405 2.24654 0
M  V30 1750 H 162.591 -0.867062 2.87092 0
M  V30 1751 H 160.144 -0.415853 1.50666 0
M  V30 1752 H 160.879 -2.94576 1.35631 0
M  V30 1753 H 160.664 -2.45115 3.06041 0
M  V30 1754 H 162.154 -3.30287 2.5554 0
M  V30 1755 N 162.591 -1.51276 -0.441967 0
M  V30 1756 C 164.002 -1.56244 -1.02199 0
M  V30 1757 C 164.353 -0.383149 -1.92422 0
M  V30 1758 O 163.478 0.500613 -2.1053 0
M  V30 1759 C 164.073 -2.83162 -1.86024 0
M  V30 1760 C 162.632 -2.90716 -2.39084 0
M  V30 1761 C 161.779 -2.50858 -1.18175 0
M  V30 1762 H 164.73 -1.5712 -0.223416 0
M  V30 1763 H 164.751 -2.66663 -2.71425 0
M  V30 1764 H 164.263 -3.68974 -1.20331 0
M  V30 1765 H 162.364 -2.09323 -3.08244 0
M  V30 1766 H 162.477 -3.94266 -2.72198 0
M  V30 1767 H 160.841 -2.03951 -1.52565 0
M  V30 1768 H 161.624 -3.3901 -0.541001 0
M  V30 1769 N 164.069 0.697108 -1.41344 0
M  V30 1770 C 165.315 1.4593 -1.40827 0
M  V30 1771 C 165.648 1.94193 -0.0167098 0
M  V30 1772 O 164.923 1.69425 0.955263 0
M  V30 1773 C 165.206 2.67229 -2.41373 0
M  V30 1774 C 165.059 2.24741 -3.8963 0
M  V30 1775 C 166.378 3.69423 -2.39196 0
M  V30 1776 H 163.497 0.529303 -0.512842 0
M  V30 1777 H 166.139 0.794112 -1.72609 0
M  V30 1778 H 164.289 3.23982 -2.14401 0
M  V30 1779 H 165.961 1.73327 -4.27499 0
M  V30 1780 H 164.204 1.56542 -4.0457 0
M  V30 1781 H 164.875 3.1177 -4.55525 0
M  V30 1782 H 167.351 3.2234 -2.63128 0
M  V30 1783 H 166.227 4.51907 -3.11563 0
M  V30 1784 H 166.488 4.19012 -1.41001 0
M  V30 1785 N 165.547 1.27147 0.931209 0
M  V30 1786 C 166.497 1.06227 2.01742 0
M  V30 1787 C 167.481 -0.00859065 1.60898 0
M  V30 1788 O 168.673 0.209537 1.75755 0
M  V30 1789 C 165.802 0.707787 3.35924 0
M  V30 1790 C 164.888 1.81661 3.83223 0
M  V30 1791 N 165.279 3.05564 4.03069 0
M  V30 1792 C 163.577 1.70249 4.12227 0
M  V30 1793 C 164.278 3.77697 4.42403 0
M  V30 1794 N 163.254 3.0544 4.49675 0
M  V30 1795 H 167.056 2.00261 2.15111 0
M  V30 1796 H 164.57 1.1781 1.11779 0
M  V30 1797 H 166.567 0.539043 4.134 0
M  V30 1798 H 165.227 -0.224964 3.2392 0
M  V30 1799 H 166.238 3.41363 3.89476 0
M  V30 1800 H 162.915 0.840329 4.08956 0
M  V30 1801 H 164.305 4.84168 4.65866 0
M  V30 1802 N 167.025 -1.13721 1.09112 0
M  V30 1803 C 168.274 -1.84275 0.82009 0
M  V30 1804 C 168.587 -1.84253 -0.656509 0
M  V30 1805 O 169.793 -2.50668 -1.04296 0
M  V30 1806 C 168.249 -3.30825 1.41714 0
M  V30 1807 C 167.857 -3.39244 2.92605 0
M  V30 1808 C 169.601 -4.06443 1.22492 0
M  V30 1809 C 167.508 -4.80047 3.45411 0
M  V30 1810 H 166.438 -0.690387 0.30312 0
M  V30 1811 H 169.089 -1.28146 1.31343 0
M  V30 1812 H 167.471 -3.86737 0.851498 0
M  V30 1813 H 168.645 -2.93344 3.55367 0
M  V30 1814 H 166.96 -2.77088 3.10823 0
M  V30 1815 H 169.557 -5.10387 1.59402 0
M  V30 1816 H 169.9 -4.15972 0.165299 0
M  V30 1817 H 170.433 -3.56852 1.75788 0
M  V30 1818 H 167.172 -4.75709 4.50978 0
M  V30 1819 H 166.692 -5.26455 2.87411 0
M  V30 1820 H 168.371 -5.48957 3.42425 0
M  V30 1821 N 168.503 -0.877838 -1.30888 0
M  V30 1822 C 169.743 -0.499301 -1.98208 0
M  V30 1823 C 170.107 0.932649 -1.67826 0
M  V30 1824 O 171.308 1.41694 -2.28421 0
M  V30 1825 C 169.579 -0.758221 -3.49265 0
M  V30 1826 S 171.138 -0.480719 -4.36159 0
M  V30 1827 H 167.956 -0.186062 -0.686223 0
M  V30 1828 H 170.558 -1.13556 -1.59139 0
M  V30 1829 H 169.262 -1.79903 -3.68867 0
M  V30 1830 H 168.793 -0.109247 -3.93248 0
M  V30 1831 H 170.808 0.683698 -4.91467 0
M  V30 1832 N 169.982 1.44106 -0.638065 0
M  V30 1833 C 171.21 2.06336 -0.152615 0
M  V30 1834 C 171.625 1.47731 1.17563 0
M  V30 1835 O 170.982 0.602806 1.72257 0
M  V30 1836 C 171.033 3.61479 -0.0391491 0
M  V30 1837 O 170.754 4.17903 -1.31487 0
M  V30 1838 C 172.255 4.40757 0.474176 0
M  V30 1839 H 169.475 0.665862 -0.0828776 0
M  V30 1840 H 172.019 1.84862 -0.87443 0
M  V30 1841 H 170.174 3.82191 0.633142 0
M  V30 1842 H 170.588 5.11416 -1.16421 0
M  V30 1843 H 172.062 5.49707 0.502562 0
M  V30 1844 H 172.539 4.12697 1.50258 0
M  V30 1845 H 173.145 4.24979 -0.165102 0
M  V30 1846 N 171.46 0.379036 1.52974 0
M  V30 1847 C 172.685 -0.209353 2.06341 0
M  V30 1848 C 173.11 -1.40583 1.24972 0
M  V30 1849 O 172.468 -1.79246 0.272155 0
M  V30 1850 C 172.516 -0.567786 3.56102 0
M  V30 1851 O 171.62 -1.66318 3.77375 0
M  V30 1852 H 170.961 -0.0272919 0.663439 0
M  V30 1853 H 173.491 0.543536 1.97248 0
M  V30 1854 H 173.501 -0.835003 3.99364 0
M  V30 1855 H 172.176 0.307013 4.14765 0
M  V30 1856 H 170.753 -1.39048 3.46006 0
M  V30 1857 N 172.938 -1.57226 0.108567 0
M  V30 1858 C 174.184 -1.95919 -0.546564 0
M  V30 1859 C 174.539 -0.990417 -1.6495 0
M  V30 1860 O 173.832 -0.0186593 -1.91591 0
M  V30 1861 C 174.026 -3.38911 -1.13463 0
M  V30 1862 C 173.855 -4.4961 -0.0901926 0
M  V30 1863 C 172.625 -5.04168 0.338008 0
M  V30 1864 C 174.823 -5.09693 0.686808 0
M  V30 1865 N 172.805 -5.98434 1.36931 0
M  V30 1866 C 174.176 -5.99804 1.56958 0
M  V30 1867 C 176.231 -4.92388 0.738846 0
M  V30 1868 C 174.934 -6.74463 2.49983 0
M  V30 1869 C 176.96 -5.67719 1.65676 0
M  V30 1870 C 176.322 -6.57507 2.52713 0
M  V30 1871 H 172.421 -0.763312 -0.169936 0
M  V30 1872 H 175.005 -1.93728 0.194264 0
M  V30 1873 H 173.176 -3.41769 -1.84522 0
M  V30 1874 H 174.908 -3.64752 -1.75322 0
M  V30 1875 H 171.663 -4.73571 -0.0523673 0
M  V30 1876 H 172.087 -6.5027 1.88356 0
M  V30 1877 H 176.729 -4.22724 0.080084 0
M  V30 1878 H 174.447 -7.4338 3.16878 0
M  V30 1879 H 178.033 -5.56338 1.70233 0
M  V30 1880 H 176.913 -7.14778 3.22586 0
M  V30 1881 N 174.416 0.165178 -1.56732 0
M  V30 1882 C 175.326 1.22423 -2.00125 0
M  V30 1883 C 176.342 1.48084 -0.913619 0
M  V30 1884 O 177.518 1.60112 -1.22172 0
M  V30 1885 C 174.583 2.54197 -2.35764 0
M  V30 1886 C 173.644 2.36343 -3.58386 0
M  V30 1887 C 172.877 3.61834 -3.92316 0
M  V30 1888 O 173.1 4.67267 -3.27135 0
M  V30 1889 O 172.034 3.55579 -4.85641 0
M  V30 1890 H 175.86 0.885886 -2.90492 0
M  V30 1891 H 173.445 0.372518 -1.44681 0
M  V30 1892 H 175.327 3.3192 -2.59629 0
M  V30 1893 H 174.002 2.87598 -1.48557 0
M  V30 1894 H 172.909 1.56632 -3.39731 0
M  V30 1895 H 174.242 2.07865 -4.46154 0
M  V30 1896 N 175.894 1.51508 0.433938 0
M  V30 1897 C 177.119 1.68443 1.21003 0
M  V30 1898 C 177.544 0.382636 1.84167 0
M  V30 1899 O 176.902 -0.65755 1.68956 0
M  V30 1900 C 176.95 2.80405 2.26727 0
M  V30 1901 O 176.054 2.44245 3.32292 0
M  V30 1902 H 175.395 0.561536 0.354363 0
M  V30 1903 H 177.925 1.9809 0.512024 0
M  V30 1904 H 177.935 3.0459 2.71457 0
M  V30 1905 H 176.61 3.74867 1.80132 0
M  V30 1906 H 175.187 2.30644 2.93015 0
M  V30 1907 N 177.372 -0.689602 1.41712 0
M  V30 1908 C 178.335 -1.78521 1.43746 0
M  V30 1909 C 179.335 -1.57436 0.327191 0
M  V30 1910 O 180.525 -1.64 0.587348 0
M  V30 1911 C 177.657 -3.16971 1.25467 0
M  V30 1912 H 178.85 -1.78108 2.41283 0
M  V30 1913 H 176.403 -0.89781 1.27942 0
M  V30 1914 H 177.138 -3.23019 0.287948 0
M  V30 1915 H 176.923 -3.33678 2.05917 0
M  V30 1916 H 178.413 -3.96935 1.2974 0
M  V30 1917 N 178.85 -1.27639 -0.924453 0
M  V30 1918 C 180.075 -1.17101 -1.71179 0
M  V30 1919 C 180.5 0.268134 -1.86179 0
M  V30 1920 O 179.858 1.19415 -1.36418 0
M  V30 1921 C 179.906 -1.86313 -3.08739 0
M  V30 1922 O 179.01 -1.16331 -3.95652 0
M  V30 1923 H 178.351 -0.407091 -0.524569 0
M  V30 1924 H 180.881 -1.68767 -1.15666 0
M  V30 1925 H 180.891 -1.938 -3.59034 0
M  V30 1926 H 179.566 -2.91001 -2.97138 0
M  V30 1927 H 178.143 -1.16935 -3.54091 0
M  V30 1928 N 180.328 1.1314 -1.09713 0
M  V30 1929 C 181.576 1.84119 -0.833338 0
M  V30 1930 C 181.897 1.84097 0.642904 0
M  V30 1931 O 181.167 1.29881 1.46655 0
M  V30 1932 H 179.747 0.681766 -0.305293 0
M  V30 1933 H 182.409 1.37038 -1.38588 0
M  V30 1934 H 181.505 2.88543 -1.18951 0
M  V30 1935 N 181.806 0.884767 1.30421 0
M  V30 1936 C 183.055 0.499164 1.95426 0
M  V30 1937 C 183.368 -0.95645 1.70621 0
M  V30 1938 O 184.574 -1.44889 2.29607 0
M  V30 1939 C 183.03 0.84177 3.49917 0
M  V30 1940 C 182.638 2.31514 3.83543 0
M  V30 1941 C 184.382 0.525355 4.21237 0
M  V30 1942 C 182.289 2.59939 5.31212 0
M  V30 1943 H 181.219 0.182944 0.73147 0
M  V30 1944 H 183.87 1.07971 1.48373 0
M  V30 1945 H 182.252 0.190311 3.95542 0
M  V30 1946 H 183.426 3.0109 3.48829 0
M  V30 1947 H 181.741 2.59907 3.25326 0
M  V30 1948 H 184.338 0.714762 5.29901 0
M  V30 1949 H 184.681 -0.535222 4.12845 0
M  V30 1950 H 185.214 1.134 3.81294 0
M  V30 1951 H 181.953 3.64736 5.44654 0
M  V30 1952 H 181.473 1.94972 5.67227 0
M  V30 1953 H 183.152 2.45429 5.98643 0
M  V30 1954 N 183.284 -1.43765 0.645699 0
M  V30 1955 C 184.53 -2.02197 0.156271 0
M  V30 1956 C 184.863 -1.50776 -1.22393 0
M  V30 1957 O 184.138 -0.697771 -1.81553 0
M  V30 1958 C 184.421 -3.59749 0.158872 0
M  V30 1959 C 184.274 -4.21419 1.57245 0
M  V30 1960 C 185.593 -4.37149 -0.50879 0
M  V30 1961 H 182.712 -0.734694 0.0582602 0
M  V30 1962 H 185.354 -1.71157 0.824951 0
M  V30 1963 H 183.504 -3.86325 -0.410525 0
M  V30 1964 H 185.176 -4.059 2.19186 0
M  V30 1965 H 183.419 -3.78356 2.122 0
M  V30 1966 H 184.09 -5.30482 1.52619 0
M  V30 1967 H 186.566 -4.16093 -0.024412 0
M  V30 1968 H 185.442 -5.4683 -0.476213 0
M  V30 1969 H 185.703 -4.12839 -1.58165 0
M  V30 1970 N 184.763 -0.387143 -1.52771 0
M  V30 1971 C 185.673 0.456442 -2.30117 0
M  V30 1972 C 186.689 1.07342 -1.36944 0
M  V30 1973 O 187.865 1.07971 -1.70013 0
M  V30 1974 C 184.93 1.56957 -3.09136 0
M  V30 1975 C 183.991 0.977916 -4.18014 0
M  V30 1976 C 183.224 2.038 -4.93256 0
M  V30 1977 O 183.447 3.25271 -4.68567 0
M  V30 1978 O 182.381 1.6565 -5.78657 0
M  V30 1979 H 186.207 -0.17359 -3.03203 0
M  V30 1980 H 183.792 -0.150919 -1.48636 0
M  V30 1981 H 185.674 2.21628 -3.58412 0
M  V30 1982 H 184.349 2.18461 -2.38865 0
M  V30 1983 H 183.256 0.294525 -3.72939 0
M  V30 1984 H 184.589 0.407128 -4.90513 0
M  V30 1985 N 186.241 1.57166 -0.116904 0
M  V30 1986 C 187.488 1.95123 0.541603 0
M  V30 1987 C 187.816 1.00006 1.6682 0
M  V30 1988 O 187.071 0.0235658 1.95686 0
M  V30 1989 C 187.37 3.39508 1.11664 0
M  V30 1990 C 187.036 4.50762 0.111606 0
M  V30 1991 C 185.698 4.80918 -0.164758 0
M  V30 1992 C 188.05 5.18036 -0.573438 0
M  V30 1993 C 185.378 5.75666 -1.13249 0
M  V30 1994 C 187.73 6.13824 -1.52978 0
M  V30 1995 C 186.394 6.42374 -1.81415 0
M  V30 1996 H 185.664 0.714005 0.198187 0
M  V30 1997 H 188.311 1.9048 -0.197365 0
M  V30 1998 H 186.616 3.40835 1.93232 0
M  V30 1999 H 188.313 3.66189 1.63422 0
M  V30 2000 H 184.903 4.27272 0.337192 0
M  V30 2001 H 189.087 4.94896 -0.373092 0
M  V30 2002 H 184.343 5.96092 -1.35958 0
M  V30 2003 H 188.517 6.65039 -2.06629 0
M  V30 2004 H 186.144 7.15599 -2.56557 0
M  V30 2005 N 187.719 -0.156864 1.56817 0
M  V30 2006 C 188.965 -0.867645 1.83966 0
M  V30 2007 C 189.32 -1.79233 0.699511 0
M  V30 2008 O 188.613 -1.89186 -0.303176 0
M  V30 2009 C 188.807 -1.68737 3.1506 0
M  V30 2010 C 188.636 -0.843548 4.41718 0
M  V30 2011 C 187.406 -0.512994 5.02689 0
M  V30 2012 C 189.604 -0.178416 5.1399 0
M  V30 2013 N 187.586 0.345456 6.12927 0
M  V30 2014 C 188.957 0.540586 6.17639 0
M  V30 2015 C 191.012 -0.0980696 4.97803 0
M  V30 2016 C 189.715 1.33233 7.06853 0
M  V30 2017 C 191.741 0.680387 5.87473 0
M  V30 2018 C 191.103 1.3877 6.90596 0
M  V30 2019 H 187.202 -0.295642 0.723961 0
M  V30 2020 H 189.786 -0.13365 1.94241 0
M  V30 2021 H 187.957 -2.39268 3.0595 0
M  V30 2022 H 189.689 -2.34056 3.30151 0
M  V30 2023 H 186.444 -0.846476 4.65974 0
M  V30 2024 H 186.868 0.765415 6.72659 0
M  V30 2025 H 191.51 -0.630562 4.18071 0
M  V30 2026 H 189.228 1.87612 7.8602 0
M  V30 2027 H 192.814 0.744415 5.77018 0
M  V30 2028 H 191.694 1.9804 7.58782 0
M  V30 2029 N 189.197 -1.51736 -0.425897 0
M  V30 2030 C 190.443 -1.65214 -1.1761 0
M  V30 2031 C 190.776 -0.372778 -1.90589 0
M  V30 2032 O 190.051 0.628139 -1.84078 0
M  V30 2033 C 190.334 -2.86312 -2.18398 0
M  V30 2034 C 190.187 -4.24254 -1.49426 0
M  V30 2035 C 191.506 -3.02925 -3.19256 0
M  V30 2036 H 188.625 -0.601263 -0.426206 0
M  V30 2037 H 191.267 -1.8425 -0.463882 0
M  V30 2038 H 189.417 -2.70213 -2.79137 0
M  V30 2039 H 191.089 -4.52046 -0.919362 0
M  V30 2040 H 189.332 -4.26426 -0.796432 0
M  V30 2041 H 190.003 -5.05001 -2.22885 0
M  V30 2042 H 192.479 -3.1781 -2.68581 0
M  V30 2043 H 191.355 -3.89199 -3.8706 0
M  V30 2044 H 191.616 -2.15497 -3.86023 0
M  V30 2045 N 190.675 0.682077 -1.42076 0
M  V30 2046 C 191.952 1.43755 -1.32642 0
M  V30 2047 C 192.332 2.11063 0.0396611 0
M  V30 2048 O 191.68 2.02701 1.05474 0
M  V30 2049 C 191.89 2.44596 -2.48946 0
M  V30 2050 C 193.238 3.09454 -2.9073 0
M  V30 2051 O 194.262 2.54922 -2.48783 0
M  V30 2052 O 193.121 4.08253 -3.63307 0
M  V30 2053 H 190.215 0.640857 -0.522715 0
M  V30 2054 H 192.761 0.711415 -1.54068 0
M  V30 2055 H 191.533 1.93609 -3.40046 0
M  V30 2056 H 191.156 3.24701 -2.29467 0
M  V30 2057 N 192.153 1.28127 0.917671 0
M  V30 2058 C 193.401 1.14825 1.66312 0
M  V30 2059 C 193.722 -0.304379 1.9261 0
M  V30 2060 O 192.992 -1.21149 1.53947 0
M  V30 2061 H 191.572 0.421953 0.616413 0
M  V30 2062 H 194.234 1.608 1.10134 0
M  V30 2063 H 193.33 1.68489 2.62712 0
M  V30 2064 N 193.631 -1.12557 1.10312 0
M  V30 2065 C 194.578 -2.18247 0.750781 0
M  V30 2066 C 195.548 -1.63853 -0.272293 0
M  V30 2067 O 196.733 -1.90195 -0.151862 0
M  V30 2068 C 193.873 -3.44591 0.187379 0
M  V30 2069 C 192.986 -4.13046 1.2656 0
M  V30 2070 C 192.121 -5.27034 0.663978 0
M  V30 2071 C 191.16 -5.87353 1.72287 0
M  V30 2072 N 190.297 -6.92757 1.1416 0
M  V30 2073 H 195.137 -2.47732 1.65628 0
M  V30 2074 H 192.674 -1.21629 0.827337 0
M  V30 2075 H 194.632 -4.16904 -0.157148 0
M  V30 2076 H 193.262 -3.15527 -0.681355 0
M  V30 2077 H 192.314 -3.38924 1.72727 0
M  V30 2078 H 193.626 -4.53947 2.06721 0
M  V30 2079 H 192.78 -6.06104 0.268824 0
M  V30 2080 H 191.519 -4.87407 -0.169082 0
M  V30 2081 H 190.524 -5.06971 2.12746 0
M  V30 2082 H 191.749 -6.29051 2.55875 0
M  V30 2083 H 189.695 -6.5517 0.329984 0
M  V30 2084 H 189.612 -7.3225 1.88007 0
M  V30 2085 H 190.88 -7.75658 0.772956 0
M  V30 2086 N 195.109 -0.891671 -1.2995 0
M  V30 2087 C 196.52 -0.563104 -1.78006 0
M  V30 2088 C 196.871 0.920978 -1.73241 0
M  V30 2089 O 195.996 1.71987 -1.31337 0
M  V30 2090 C 196.591 -1.01539 -3.23226 0
M  V30 2091 C 195.15 -0.738124 -3.69092 0
M  V30 2092 C 194.297 -1.19461 -2.50249 0
M  V30 2093 H 197.248 -1.07522 -1.16725 0
M  V30 2094 H 197.269 -0.347217 -3.78912 0
M  V30 2095 H 196.781 -2.09555 -3.26662 0
M  V30 2096 H 194.882 0.329766 -3.71138 0
M  V30 2097 H 194.995 -1.33037 -4.60259 0
M  V30 2098 H 193.359 -0.613787 -2.47194 0
M  V30 2099 H 194.142 -2.28265 -2.56417 0
M  V30 2100 N 196.587 1.43421 -0.653314 0
M  V30 2101 C 198.003 1.56341 -0.320886 0
M  V30 2102 C 198.203 1.63696 1.17499 0
M  V30 2103 O 197.259 1.59208 1.95982 0
M  V30 2104 C 198.572 2.82424 -1.03233 0
M  V30 2105 C 200.12 2.96168 -1.01259 0
M  V30 2106 C 200.595 4.25084 -1.70492 0
M  V30 2107 N 202.086 4.31948 -1.67257 0
M  V30 2108 C 202.821 5.30466 -2.17701 0
M  V30 2109 N 202.317 6.35261 -2.76434 0
M  V30 2110 N 204.11 5.2212 -2.082 0
M  V30 2111 H 196.261 1.3689 -1.62403 0
M  V30 2112 H 198.524 0.657455 -0.682977 0
M  V30 2113 H 198.23 2.83053 -2.08744 0
M  V30 2114 H 198.104 3.72653 -0.583948 0
M  V30 2115 H 200.491 2.9508 0.0341235 0
M  V30 2116 H 200.572 2.07229 -1.49966 0
M  V30 2117 H 200.216 4.26932 -2.7512 0
M  V30 2118 H 200.146 5.1292 -1.19251 0
M  V30 2119 H 202.637 3.56838 -1.24398 0
M  V30 2120 H 202.95 7.06754 -3.12601 0
M  V30 2121 H 201.295 6.35884 -2.80495 0
M  V30 2122 H 204.486 4.39166 -1.62021 0
M  V30 2123 H 204.659 5.98739 -2.47822 0
M  V30 2124 N 198.065 0.39524 1.52563 0
M  V30 2125 C 199.311 -0.185318 2.01952 0
M  V30 2126 C 199.644 -1.45964 1.28095 0
M  V30 2127 O 198.919 -1.90689 0.38315 0
M  V30 2128 C 199.202 -0.447193 3.57312 0
M  V30 2129 C 199.055 0.842828 4.41833 0
M  V30 2130 C 200.374 -1.23529 4.22408 0
M  V30 2131 H 197.493 -0.0658788 0.73405 0
M  V30 2132 H 200.135 0.525975 1.82575 0
M  V30 2133 H 198.285 -1.05312 3.73954 0
M  V30 2134 H 199.957 1.4795 4.36931 0
M  V30 2135 H 198.2 1.45686 4.08605 0
M  V30 2136 H 198.871 0.614165 5.48573 0
M  V30 2137 H 201.347 -0.722445 4.0978 0
M  V30 2138 H 200.223 -1.38727 5.3108 0
M  V30 2139 H 200.484 -2.25213 3.80436 0
M  V30 2140 N 199.544 -1.57102 0.125237 0
M  V30 2141 C 200.96 -1.57915 -0.231322 0
M  V30 2142 C 201.16 -1.13833 -1.66266 0
M  V30 2143 O 200.216 -0.828581 -2.38518 0
M  V30 2144 C 201.529 -3.00699 0.00766489 0
M  V30 2145 C 203.077 -3.12947 -0.0577483 0
M  V30 2146 C 203.552 -4.57742 0.153626 0
M  V30 2147 N 205.043 -4.63092 0.0998073 0
M  V30 2148 C 205.778 -5.72905 0.238174 0
M  V30 2149 N 205.274 -6.91445 0.433057 0
M  V30 2150 N 207.067 -5.6182 0.177308 0
M  V30 2151 H 199.218 -1.84055 1.06007 0
M  V30 2152 H 201.481 -0.850905 0.417929 0
M  V30 2153 H 201.187 -3.3726 0.997431 0
M  V30 2154 H 201.061 -3.70236 -0.721452 0
M  V30 2155 H 203.448 -2.7624 -1.03804 0
M  V30 2156 H 203.529 -2.4594 0.70335 0
M  V30 2157 H 203.173 -4.95149 1.13092 0
M  V30 2158 H 203.103 -5.22848 -0.627534 0
M  V30 2159 H 205.594 -3.77871 -0.047051 0
M  V30 2160 H 205.907 -7.70985 0.529332 0
M  V30 2161 H 204.252 -6.93415 0.469109 0
M  V30 2162 H 207.443 -4.68093 0.0259748 0
M  V30 2163 H 207.616 -6.47357 0.288582 0
M  V30 2164 N 201.022 0.148545 -1.56898 0
M  V30 2165 C 201.969 1.18345 -1.98149 0
M  V30 2166 C 202.939 1.42772 -0.848848 0
M  V30 2167 O 204.124 1.55132 -1.11079 0
M  V30 2168 C 201.264 2.51231 -2.36594 0
M  V30 2169 C 200.377 2.33991 -3.63142 0
M  V30 2170 C 199.512 3.59902 -3.90697 0
M  V30 2171 C 198.551 3.37692 -5.1052 0
M  V30 2172 N 197.688 4.5573 -5.34092 0
M  V30 2173 H 202.528 0.82467 -2.86362 0
M  V30 2174 H 200.065 0.395756 -1.41676 0
M  V30 2175 H 202.023 3.28713 -2.56912 0
M  V30 2176 H 200.653 2.85059 -1.51463 0
M  V30 2177 H 199.705 1.47572 -3.50609 0
M  V30 2178 H 201.017 2.13539 -4.5078 0
M  V30 2179 H 200.171 4.45813 -4.11505 0
M  V30 2180 H 198.91 3.83357 -3.01477 0
M  V30 2181 H 197.915 2.5017 -4.89587 0
M  V30 2182 H 199.14 3.15637 -6.0129 0
M  V30 2183 H 197.086 4.79361 -4.47827 0
M  V30 2184 H 197.003 4.38274 -6.15996 0
M  V30 2185 H 198.271 5.42858 -5.59397 0
M  V30 2186 N 202.5 1.5196 0.417844 0
M  V30 2187 C 203.725 1.69717 1.1921 0
M  V30 2188 C 204.15 0.402148 1.83751 0
M  V30 2189 O 203.508 -0.639593 1.69643 0
M  V30 2190 C 203.556 2.82794 2.2374 0
M  V30 2191 O 202.66 2.47756 3.29683 0
M  V30 2192 H 202.001 0.565263 0.348387 0
M  V30 2193 H 204.531 1.98621 0.490985 0
M  V30 2194 H 204.541 3.07452 2.68212 0
M  V30 2195 H 203.216 3.76756 1.76146 0
M  V30 2196 H 201.793 2.33739 2.90552 0
M  V30 2197 N 203.978 -0.674533 1.42435 0
M  V30 2198 C 204.908 -1.80009 1.48724 0
M  V30 2199 C 205.889 -1.6659 0.343793 0
M  V30 2200 O 207.074 -1.86007 0.558137 0
M  V30 2201 C 204.204 -3.18306 1.38919 0
M  V30 2202 C 203.158 -3.46461 2.51294 0
M  V30 2203 C 202.484 -4.84335 2.26547 0
M  V30 2204 C 203.784 -3.43328 3.93603 0
M  V30 2205 H 205.478 -1.75004 2.42928 0
M  V30 2206 H 203.024 -0.840533 1.16923 0
M  V30 2207 H 204.977 -3.9678 1.41927 0
M  V30 2208 H 203.701 -3.2399 0.412094 0
M  V30 2209 H 202.36 -2.70348 2.47604 0
M  V30 2210 H 202.008 -4.86669 1.2713 0
M  V30 2211 H 201.708 -5.04136 3.01861 0
M  V30 2212 H 203.232 -5.65094 2.31304 0
M  V30 2213 H 204.646 -4.11772 3.98894 0
M  V30 2214 H 203.043 -3.74664 4.68771 0
M  V30 2215 H 204.113 -2.41897 4.20255 0
M  V30 2216 N 205.456 -1.28612 -0.910864 0
M  V30 2217 C 206.403 -1.12786 -2.01365 0
M  V30 2218 C 207.373 -0.024201 -1.66082 0
M  V30 2219 O 208.558 -0.189667 -1.89855 0
M  V30 2220 C 205.698 -0.798743 -3.35729 0
M  V30 2221 C 204.811 -1.98173 -3.83864 0
M  V30 2222 C 203.946 -1.59298 -5.06752 0
M  V30 2223 C 202.985 -2.74245 -5.47226 0
M  V30 2224 N 202.122 -2.35842 -6.61304 0
M  V30 2225 H 206.962 -2.07142 -2.14234 0
M  V30 2226 H 204.499 -1.03093 -1.0493 0
M  V30 2227 H 206.457 -0.588662 -4.13026 0
M  V30 2228 H 205.087 0.10789 -3.2262 0
M  V30 2229 H 204.139 -2.30386 -3.02699 0
M  V30 2230 H 205.451 -2.84343 -4.09818 0
M  V30 2231 H 204.605 -1.34513 -5.916 0
M  V30 2232 H 203.344 -0.702618 -4.82612 0
M  V30 2233 H 202.349 -2.99725 -4.60918 0
M  V30 2234 H 203.574 -3.63928 -5.73353 0
M  V30 2235 H 201.52 -1.49279 -6.38789 0
M  V30 2236 H 201.437 -3.15546 -6.86998 0
M  V30 2237 H 202.705 -2.14348 -7.4945 0
M  V30 2238 N 206.934 1.1197 -1.10907 0
M  V30 2239 C 207.881 2.17846 -0.762345 0
M  V30 2240 C 208.851 1.63995 0.263599 0
M  V30 2241 O 210.036 1.90273 0.141773 0
M  V30 2242 C 207.176 3.44487 -0.205651 0
M  V30 2243 C 206.289 4.12369 -1.28748 0
M  V30 2244 C 205.424 5.26674 -0.691919 0
M  V30 2245 C 204.463 5.86431 -1.75399 0
M  V30 2246 N 203.6 6.92142 -1.17833 0
M  V30 2247 H 208.44 2.46851 -1.6694 0
M  V30 2248 H 205.977 1.21188 -0.833776 0
M  V30 2249 H 207.935 4.16981 0.135037 0
M  V30 2250 H 206.565 3.15884 0.664613 0
M  V30 2251 H 205.617 3.38003 -1.74522 0
M  V30 2252 H 206.929 4.52844 -2.09125 0
M  V30 2253 H 206.083 6.05953 -0.300963 0
M  V30 2254 H 204.822 4.8749 0.143232 0
M  V30 2255 H 203.827 5.05835 -2.15432 0
M  V30 2256 H 205.052 6.27685 -2.59208 0
M  V30 2257 H 202.998 6.54985 -0.364725 0
M  V30 2258 H 202.915 7.31242 -1.91887 0
M  V30 2259 H 204.183 7.75237 -0.81408 0
M  V30 2260 N 208.412 0.89855 1.29475 0
M  V30 2261 C 209.66 0.522847 1.9522 0
M  V30 2262 C 209.981 -0.93371 1.71192 0
M  V30 2263 O 209.251 -1.65823 1.04305 0
M  V30 2264 H 207.831 0.190366 0.722336 0
M  V30 2265 H 210.493 1.14459 1.5775 0
M  V30 2266 H 209.589 0.704476 3.04045 0
M  V30 2267 N 209.89 -1.43072 0.660911 0
M  V30 2268 C 211.12 -2.05769 0.185153 0
M  V30 2269 C 211.528 -1.49668 -1.15742 0
M  V30 2270 O 210.871 -0.625649 -1.72717 0
M  V30 2271 C 210.933 -3.59489 0.0278237 0
M  V30 2272 C 210.597 -4.38212 1.2969 0
M  V30 2273 C 211.594 -4.69772 2.22734 0
M  V30 2274 C 209.279 -4.7809 1.54063 0
M  V30 2275 C 211.273 -5.40129 3.38437 0
M  V30 2276 C 208.96 -5.4819 2.70058 0
M  V30 2277 C 209.958 -5.79132 3.62071 0
M  V30 2278 O 209.646 -6.47798 4.76039 0
M  V30 2279 H 209.378 -0.669873 0.0908086 0
M  V30 2280 H 211.932 -1.84436 0.90402 0
M  V30 2281 H 210.162 -3.79426 -0.746489 0
M  V30 2282 H 211.851 -4.03862 -0.406275 0
M  V30 2283 H 212.617 -4.39476 2.05149 0
M  V30 2284 H 208.496 -4.53408 0.833215 0
M  V30 2285 H 212.04 -5.64198 4.10277 0
M  V30 2286 H 207.937 -5.77902 2.87574 0
M  V30 2287 H 208.705 -6.66283 4.75404 0
M  V30 2288 N 211.368 -0.403325 -1.52352 0
M  V30 2289 C 212.596 0.174012 -2.06167 0
M  V30 2290 C 213.011 1.39347 -1.27388 0
M  V30 2291 O 212.368 1.79597 -0.324201 0
M  V30 2292 C 212.419 0.530223 -3.5759 0
M  V30 2293 O 212.14 -0.640806 -4.33388 0
M  V30 2294 C 213.641 1.16192 -4.27802 0
M  V30 2295 H 210.861 0.0229464 -0.670608 0
M  V30 2296 H 213.405 -0.572604 -1.9632 0
M  V30 2297 H 211.56 1.22673 -3.67464 0
M  V30 2298 H 211.974 -0.344851 -5.23365 0
M  V30 2299 H 213.448 1.36141 -5.34948 0
M  V30 2300 H 213.925 2.13335 -3.83907 0
M  V30 2301 H 214.531 0.505775 -4.22282 0
M  V30 2302 N 212.846 1.57033 -0.133567 0
M  V30 2303 C 214.092 1.95976 0.521649 0
M  V30 2304 C 214.425 1.01779 1.65393 0
M  V30 2305 O 213.7 0.0576581 1.94415 0
M  V30 2306 C 213.983 3.44738 1.04057 0
M  V30 2307 C 213.836 4.49711 -0.0892897 0
M  V30 2308 C 215.155 3.95682 1.92675 0
M  V30 2309 H 212.274 0.712579 0.188149 0
M  V30 2310 H 214.916 1.88813 -0.212076 0
M  V30 2311 H 213.066 3.50973 1.66583 0
M  V30 2312 H 214.738 4.55565 -0.725152 0
M  V30 2313 H 212.981 4.27261 -0.750378 0
M  V30 2314 H 213.652 5.51099 0.315284 0
M  V30 2315 H 216.128 3.91841 1.39998 0
M  V30 2316 H 215.004 5.00262 2.25897 0
M  V30 2317 H 215.265 3.37239 2.85872 0
M  V30 2318 N 214.325 -0.140222 1.56975 0
M  V30 2319 C 215.573 -0.850005 1.83356 0
M  V30 2320 C 215.894 -1.81399 0.71551 0
M  V30 2321 O 215.164 -1.94136 -0.262294 0
M  V30 2322 H 213.744 -0.316886 0.676456 0
M  V30 2323 H 216.406 -0.132608 1.94448 0
M  V30 2324 H 215.502 -1.40814 2.78528 0
M  V30 2325 N 215.803 -1.52179 -0.40978 0
M  V30 2326 C 216.766 -1.74853 -1.48186 0
M  V30 2327 C 217.766 -0.618417 -1.48433 0
M  V30 2328 O 218.956 -0.886286 -1.49969 0
M  V30 2329 C 216.088 -1.8303 -2.87598 0
M  V30 2330 H 217.281 -2.70559 -1.29374 0
M  V30 2331 H 214.834 -1.42586 -0.640233 0
M  V30 2332 H 215.569 -0.89236 -3.11781 0
M  V30 2333 H 215.354 -2.65187 -2.88822 0
M  V30 2334 H 216.844 -2.02316 -3.65319 0
M  V30 2335 N 217.281 0.66697 -1.42791 0
M  V30 2336 C 218.191 1.80962 -1.49299 0
M  V30 2337 C 219.207 1.69775 -0.381108 0
M  V30 2338 O 220.383 1.91188 -0.633188 0
M  V30 2339 C 217.448 3.17156 -1.40045 0
M  V30 2340 C 216.509 3.40242 -2.6179 0
M  V30 2341 C 215.742 4.69939 -2.52969 0
M  V30 2342 O 215.965 5.48372 -1.56985 0
M  V30 2343 O 214.899 4.94441 -3.43237 0
M  V30 2344 H 218.725 1.78427 -2.45759 0
M  V30 2345 H 216.31 0.823713 -1.24641 0
M  V30 2346 H 218.192 3.98413 -1.37276 0
M  V30 2347 H 216.867 3.20312 -0.467138 0
M  V30 2348 H 215.774 2.58802 -2.70134 0
M  V30 2349 H 217.107 3.41923 -3.54047 0
M  V30 2350 N 218.759 1.29093 0.90403 0
M  V30 2351 C 219.722 1.1386 1.98919 0
M  V30 2352 C 220.722 0.0753457 1.60623 0
M  V30 2353 O 221.912 0.321931 1.71199 0
M  V30 2354 C 219.044 0.740198 3.32767 0
M  V30 2355 H 220.237 2.10246 2.13861 0
M  V30 2356 H 217.79 1.12218 1.08797 0
M  V30 2357 H 218.525 -0.223997 3.23525 0
M  V30 2358 H 218.31 1.50838 3.61926 0
M  V30 2359 H 219.8 0.656546 4.12407 0
M  V30 2360 N 220.237 -1.11381 1.11499 0
M  V30 2361 C 221.462 -1.87475 0.887019 0
M  V30 2362 C 221.887 -1.79639 -0.557796 0
M  V30 2363 O 221.245 -1.15924 -1.39396 0
M  V30 2364 C 221.293 -3.34213 1.35403 0
M  V30 2365 O 220.397 -4.0903 0.526146 0
M  V30 2366 H 219.738 -0.582099 0.319463 0
M  V30 2367 H 222.268 -1.40785 1.48461 0
M  V30 2368 H 222.278 -3.8506 1.34881 0
M  V30 2369 H 220.953 -3.39232 2.40612 0
M  V30 2370 H 219.53 -3.68082 0.597522 0
M  V30 2371 N 221.715 -0.905404 -1.28997 0
M  V30 2372 C 222.964 -0.530191 -1.94607 0
M  V30 2373 C 223.277 0.929185 -1.72121 0
M  V30 2374 O 224.483 1.41218 -2.31883 0
M  V30 2375 C 222.939 -0.897333 -3.48534 0
M  V30 2376 C 222.547 -2.37587 -3.79811 0
M  V30 2377 C 224.291 -0.592304 -4.20347 0
M  V30 2378 C 222.198 -2.68357 -5.27009 0
M  V30 2379 H 221.128 -0.194558 -0.728466 0
M  V30 2380 H 223.779 -1.10318 -1.46636 0
M  V30 2381 H 222.161 -0.253214 -3.9519 0
M  V30 2382 H 223.335 -3.06602 -3.43994 0
M  V30 2383 H 221.65 -2.6505 -3.2115 0
M  V30 2384 H 224.247 -0.798975 -5.28697 0
M  V30 2385 H 224.59 0.469474 -4.13644 0
M  V30 2386 H 225.123 -1.19452 -3.79442 0
M  V30 2387 H 221.862 -3.73355 -5.38782 0
M  V30 2388 H 221.382 -2.03971 -5.64053 0
M  V30 2389 H 223.061 -2.54922 -5.94663 0
M  V30 2390 N 223.193 1.4272 -0.668489 0
M  V30 2391 C 224.442 2.00846 -0.185389 0
M  V30 2392 C 224.755 1.53442 1.21305 0
M  V30 2393 O 225.961 2.03944 1.79218 0
M  V30 2394 C 224.417 3.58805 -0.280591 0
M  V30 2395 C 224.025 4.15198 -1.68268 0
M  V30 2396 C 225.769 4.24255 0.14412 0
M  V30 2397 C 223.676 5.655 -1.73099 0
M  V30 2398 H 222.606 0.751145 -0.0655475 0
M  V30 2399 H 225.257 1.63516 -0.832752 0
M  V30 2400 H 223.639 3.93608 0.434553 0
M  V30 2401 H 224.813 3.91866 -2.42441 0
M  V30 2402 H 223.128 3.62176 -2.05469 0
M  V30 2403 H 225.725 5.34547 0.128086 0
M  V30 2404 H 226.068 3.99277 1.17827 0
M  V30 2405 H 226.601 3.94389 -0.519798 0
M  V30 2406 H 223.34 5.95268 -2.74475 0
M  V30 2407 H 222.86 5.90842 -1.03274 0
M  V30 2408 H 224.539 6.29808 -1.48158 0
M  V30 2409 N 224.671 0.411399 1.52136 0
M  V30 2410 C 225.601 -0.404015 2.29978 0
M  V30 2411 C 226.582 -1.04412 1.34284 0
M  V30 2412 O 227.767 -1.0527 1.63192 0
M  V30 2413 C 224.897 -1.5197 3.12286 0
M  V30 2414 C 223.851 -1.00448 4.16046 0
M  V30 2415 C 223.177 -2.21393 4.86712 0
M  V30 2416 C 224.477 -0.0569336 5.22269 0
M  V30 2417 H 226.171 0.245529 2.98392 0
M  V30 2418 H 223.717 0.119525 1.43503 0
M  V30 2419 H 225.67 -2.09715 3.6551 0
M  V30 2420 H 224.394 -2.19716 2.41646 0
M  V30 2421 H 223.053 -0.449421 3.63835 0
M  V30 2422 H 222.701 -2.87699 4.12599 0
M  V30 2423 H 222.401 -1.87571 5.56858 0
M  V30 2424 H 223.925 -2.7974 5.4275 0
M  V30 2425 H 225.339 -0.54325 5.7072 0
M  V30 2426 H 223.736 0.192594 5.99791 0
M  V30 2427 H 224.806 0.887663 4.76706 0
M  V30 2428 N 226.149 -1.5696 0.141893 0
M  V30 2429 C 227.397 -1.95573 -0.509484 0
M  V30 2430 C 227.718 -1.02746 -1.65736 0
M  V30 2431 O 226.988 -0.0880311 -1.95702 0
M  V30 2432 H 225.568 -0.722115 -0.191205 0
M  V30 2433 H 228.23 -1.93697 0.216196 0
M  V30 2434 H 227.326 -2.99171 -0.889 0
M  V30 2435 N 227.627 0.131896 -1.57047 0
M  V30 2436 C 228.559 1.1878 -1.9602 0
M  V30 2437 C 229.572 1.38363 -0.857875 0
M  V30 2438 O 230.761 1.37666 -1.13623 0
M  V30 2439 C 227.861 2.55008 -2.23213 0
M  V30 2440 C 227.034 2.56201 -3.54513 0
M  V30 2441 C 226.093 3.7408 -3.70069 0
M  V30 2442 O 225.119 3.58258 -4.42312 0
M  V30 2443 N 226.321 4.92137 -3.07866 0
M  V30 2444 H 229.086 0.85639 -2.87204 0
M  V30 2445 H 226.647 0.321309 -1.5868 0
M  V30 2446 H 228.639 3.32404 -2.30846 0
M  V30 2447 H 227.209 2.80382 -1.3822 0
M  V30 2448 H 226.429 1.64613 -3.58185 0
M  V30 2449 H 227.717 2.54043 -4.4084 0
M  V30 2450 H 227.115 5.07895 -2.49116 0
M  V30 2451 H 225.672 5.67254 -3.21039 0
M  V30 2452 N 229.106 1.52395 0.401703 0
M  V30 2453 C 230.016 1.7917 1.51444 0
M  V30 2454 C 231.032 0.677691 1.6026 0
M  V30 2455 O 232.208 0.963909 1.76835 0
M  V30 2456 C 229.273 1.94347 2.87107 0
M  V30 2457 C 228.334 3.18257 2.88116 0
M  V30 2458 C 227.567 3.32701 4.17308 0
M  V30 2459 O 227.79 2.52238 5.11598 0
M  V30 2460 O 226.724 4.25891 4.25324 0
M  V30 2461 H 230.55 2.73633 1.31752 0
M  V30 2462 H 228.135 1.3733 0.588296 0
M  V30 2463 H 230.017 2.06109 3.67555 0
M  V30 2464 H 228.692 1.03073 3.06851 0
M  V30 2465 H 227.599 3.11947 2.06494 0
M  V30 2466 H 228.932 4.09336 2.73322 0
M  V30 2467 N 230.584 -0.659388 1.43143 0
M  V30 2468 C 231.516 -1.7849 1.43784 0
M  V30 2469 C 232.529 -1.5932 0.334787 0
M  V30 2470 O 233.718 -1.68155 0.598842 0
M  V30 2471 C 230.818 -3.15828 1.22906 0
M  V30 2472 C 229.991 -3.61711 2.45934 0
M  V30 2473 C 229.05 -4.77831 2.20371 0
M  V30 2474 O 228.076 -4.87586 2.93681 0
M  V30 2475 N 229.278 -5.67611 1.21647 0
M  V30 2476 H 232.043 -1.7842 2.40803 0
M  V30 2477 H 229.604 -0.84302 1.3822 0
M  V30 2478 H 231.596 -3.91189 1.03697 0
M  V30 2479 H 230.166 -3.10707 0.343542 0
M  V30 2480 H 229.386 -2.76861 2.80609 0
M  V30 2481 H 230.674 -3.89112 3.27825 0
M  V30 2482 H 230.072 -5.62397 0.610449 0
M  V30 2483 H 228.629 -6.42719 1.08423 0
M  V30 2484 N 232.062 -1.29571 -0.897171 0
M  V30 2485 C 233.339 -1.08365 -1.62839 0
M  V30 2486 C 233.719 0.371331 -2.07808 0
M  V30 2487 O 233.067 1.3606 -1.83576 0
M  V30 2488 C 233.277 -2.0735 -2.80726 0
M  V30 2489 C 234.625 -2.38406 -3.51351 0
M  V30 2490 O 235.649 -2.05564 -2.90898 0
M  V30 2491 O 234.508 -2.9453 -4.60341 0
M  V30 2492 H 231.602 -0.415345 -0.715134 0
M  V30 2493 H 234.148 -1.40952 -0.945018 0
M  V30 2494 H 232.92 -3.05339 -2.44711 0
M  V30 2495 H 232.543 -1.75507 -3.56767 0
M  V30 2496 N 233.54 1.10788 -1.12088 0
M  V30 2497 C 234.765 1.87002 -0.896949 0
M  V30 2498 C 235.19 1.79933 0.548261 0
M  V30 2499 O 234.548 1.16662 1.38779 0
M  V30 2500 C 234.596 3.3349 -1.37174 0
M  V30 2501 O 233.7 4.08745 -0.547831 0
M  V30 2502 H 233.041 0.580397 -0.322545 0
M  V30 2503 H 235.571 1.39996 -1.49206 0
M  V30 2504 H 235.581 3.84339 -1.36922 0
M  V30 2505 H 234.256 3.37951 -2.42408 0
M  V30 2506 H 232.833 3.6776 -0.617034 0
M  V30 2507 N 235.018 0.912232 1.28515 0
M  V30 2508 C 236.265 0.544599 1.95039 0
M  V30 2509 C 236.593 -0.911435 1.71823 0
M  V30 2510 O 235.848 -1.66317 1.03137 0
M  V30 2511 C 236.147 0.798392 3.48368 0
M  V30 2512 C 235.813 2.23374 3.91682 0
M  V30 2513 C 234.475 2.62617 4.03219 0
M  V30 2514 C 236.827 3.16786 4.13879 0
M  V30 2515 C 234.155 3.94429 4.3433 0
M  V30 2516 C 236.507 4.48161 4.46469 0
M  V30 2517 C 235.171 4.8726 4.56217 0
M  V30 2518 H 234.441 0.199283 0.7137 0
M  V30 2519 H 237.088 1.15327 1.52879 0
M  V30 2520 H 235.393 0.106908 3.91654 0
M  V30 2521 H 237.09 0.493141 3.97956 0
M  V30 2522 H 233.68 1.91922 3.83228 0
M  V30 2523 H 237.864 2.87677 4.0442 0
M  V30 2524 H 233.12 4.24426 4.40082 0
M  V30 2525 H 237.294 5.20559 4.62592 0
M  V30 2526 H 234.921 5.89431 4.80078 0
M  V30 2527 N 236.496 -1.42363 0.676048 0
M  V30 2528 C 237.744 -2.01123 0.198437 0
M  V30 2529 C 238.065 -1.53731 -1.19966 0
M  V30 2530 O 237.335 -0.759518 -1.80577 0
M  V30 2531 H 235.915 -0.743678 0.0703721 0
M  V30 2532 H 238.577 -1.74263 0.872837 0
M  V30 2533 H 237.673 -3.11454 0.200686 0
M  V30 2534 N 237.974 -0.419461 -1.51915 0
M  V30 2535 C 239.222 0.152637 -2.01523 0
M  V30 2536 C 239.543 1.44762 -1.30649 0
M  V30 2537 O 238.813 1.90997 -0.435535 0
M  V30 2538 H 237.393 0.0593966 -0.744635 0
M  V30 2539 H 240.055 -0.558073 -1.86739 0
M  V30 2540 H 239.151 0.341369 -3.10227 0
M  V30 2541 N 239.452 1.56882 -0.150215 0
M  V30 2542 C 240.4 2.18214 0.805313 0
M  V30 2543 C 241.394 1.14006 1.25296 0
M  V30 2544 O 242.6 1.3225 1.22107 0
M  V30 2545 H 238.975 0.698762 0.277913 0
M  V30 2546 H 240.946 2.97231 0.263862 0
M  V30 2547 C 239.695 2.82065 2.03309 0
M  V30 2548 H 239.018 3.61968 1.69763 0
M  V30 2549 H 240.458 3.28477 2.68103 0
M  V30 2550 C 238.917 1.80739 2.84315 0
M  V30 2551 O 239.447 1.27983 3.80767 0
M  V30 2552 N 237.653 1.4997 2.48913 0
M  V30 2553 H 237.2 1.93062 1.70542 0
M  V30 2554 H 237.158 0.824217 3.03404 0
M  V30 2555 N 240.93 -0.123565 1.57115 0
M  V30 2556 C 242.177 -0.832153 1.84612 0
M  V30 2557 C 242.505 -1.80093 0.734627 0
M  V30 2558 O 241.76 -1.93766 -0.27442 0
M  V30 2559 C 242.059 -1.62016 3.18568 0
M  V30 2560 C 241.725 -0.796084 4.43817 0
M  V30 2561 C 240.387 -0.568816 4.77826 0
M  V30 2562 C 242.739 -0.221364 5.2073 0
M  V30 2563 C 240.067 0.243499 5.86194 0
M  V30 2564 C 242.419 0.578117 6.29953 0
M  V30 2565 C 241.083 0.815744 6.62497 0
M  V30 2566 H 240.353 -0.304507 0.675542 0
M  V30 2567 H 243 -0.0947248 1.91266 0
M  V30 2568 H 241.305 -2.42837 3.0747 0
M  V30 2569 H 243.002 -2.17231 3.37064 0
M  V30 2570 H 239.592 -0.983307 4.17168 0
M  V30 2571 H 243.776 -0.384173 4.94811 0
M  V30 2572 H 239.032 0.436871 6.09837 0
M  V30 2573 H 243.206 1.03046 6.88734 0
M  V30 2574 H 240.833 1.44701 7.46301 0
M  V30 2575 N 242.408 -1.52605 -0.393616 0
M  V30 2576 C 243.318 -1.79971 -1.50492 0
M  V30 2577 C 244.334 -0.686181 -1.59899 0
M  V30 2578 O 245.51 -0.973274 -1.76322 0
M  V30 2579 C 242.575 -1.95867 -2.86072 0
M  V30 2580 C 241.636 -3.19781 -2.86424 0
M  V30 2581 C 240.869 -3.34909 -4.15538 0
M  V30 2582 O 241.092 -2.54948 -5.10253 0
M  V30 2583 O 240.026 -4.28141 -4.23059 0
M  V30 2584 H 243.852 -2.74328 -1.30299 0
M  V30 2585 H 241.437 -1.3764 -0.581005 0
M  V30 2586 H 243.319 -2.08056 -3.66457 0
M  V30 2587 H 241.994 -1.04699 -3.063 0
M  V30 2588 H 240.901 -3.13038 -2.04837 0
M  V30 2589 H 242.234 -4.1078 -2.71147 0
M  V30 2590 N 243.887 0.651787 -1.4349 0
M  V30 2591 C 245.135 1.40888 -1.44897 0
M  V30 2592 C 245.456 1.94856 -0.0749086 0
M  V30 2593 O 244.726 1.74518 0.889956 0
M  V30 2594 H 243.306 0.522887 -0.533478 0
M  V30 2595 H 245.968 0.768609 -1.79104 0
M  V30 2596 H 245.064 2.25052 -2.16236 0
M  V30 2597 N 245.365 1.30045 0.890287 0
M  V30 2598 C 246.59 1.21598 1.68014 0
M  V30 2599 C 247.015 -0.218678 1.86825 0
M  V30 2600 O 246.373 -1.15756 1.39536 0
M  V30 2601 C 246.421 1.94434 3.03691 0
M  V30 2602 O 245.525 1.2678 3.92429 0
M  V30 2603 H 244.866 0.420856 0.513592 0
M  V30 2604 H 247.396 1.71775 1.11151 0
M  V30 2605 H 247.406 2.03251 3.5377 0
M  V30 2606 H 246.081 2.98777 2.89318 0
M  V30 2607 H 244.658 1.26282 3.50866 0
M  V30 2608 N 246.843 -1.10192 1.12674 0
M  V30 2609 C 247.775 -2.16418 0.754701 0
M  V30 2610 C 248.788 -1.61309 -0.21986 0
M  V30 2611 O 249.977 -1.785 -0.000826841 0
M  V30 2612 C 247.077 -3.38762 0.096698 0
M  V30 2613 C 246.25 -4.23307 1.10136 0
M  V30 2614 C 245.309 -5.24092 0.470513 0
M  V30 2615 O 244.335 -5.57906 1.12824 0
M  V30 2616 N 245.537 -5.75491 -0.760948 0
M  V30 2617 H 248.302 -2.48943 1.66875 0
M  V30 2618 H 245.863 -1.25834 1.01869 0
M  V30 2619 H 247.855 -4.03291 -0.337384 0
M  V30 2620 H 246.425 -3.04192 -0.720153 0
M  V30 2621 H 245.645 -3.55036 1.71299 0
M  V30 2622 H 246.933 -4.76624 1.78064 0
M  V30 2623 H 246.331 -5.50222 -1.31424 0
M  V30 2624 H 244.888 -6.41792 -1.13781 0
M  V30 2625 N 248.321 -0.919034 -1.28029 0
M  V30 2626 C 249.546 -0.570357 -1.99403 0
M  V30 2627 C 249.971 0.842486 -1.68178 0
M  V30 2628 O 249.329 1.56391 -0.917141 0
M  V30 2629 C 249.377 -0.792541 -3.51783 0
M  V30 2630 O 248.481 0.145988 -4.12142 0
M  V30 2631 H 247.822 -0.220555 -0.6263 0
M  V30 2632 H 250.352 -1.23592 -1.63053 0
M  V30 2633 H 250.362 -0.704708 -4.01868 0
M  V30 2634 H 249.037 -1.82247 -3.73844 0
M  V30 2635 H 247.614 0.00897528 -3.72899 0
M  V30 2636 N 249.799 1.42003 -0.683588 0
M  V30 2637 C 250.729 2.33487 -0.024866 0
M  V30 2638 C 251.71 1.51163 0.779975 0
M  V30 2639 O 252.895 1.79739 0.735362 0
M  V30 2640 C 250.025 3.3487 0.920836 0
M  V30 2641 C 248.979 4.27414 0.223958 0
M  V30 2642 C 248.305 5.19074 1.2832 0
M  V30 2643 C 249.605 5.14445 -0.90242 0
M  V30 2644 H 251.299 2.88819 -0.788921 0
M  V30 2645 H 248.845 1.38873 -0.38083 0
M  V30 2646 H 250.798 3.97787 1.39081 0
M  V30 2647 H 249.522 2.77861 1.71642 0
M  V30 2648 H 248.181 3.65904 -0.225864 0
M  V30 2649 H 247.829 4.58387 2.071 0
M  V30 2650 H 247.529 5.81822 0.821995 0
M  V30 2651 H 249.053 5.84867 1.75392 0
M  V30 2652 H 250.467 5.70998 -0.513272 0
M  V30 2653 H 248.864 5.86072 -1.28997 0
M  V30 2654 H 249.934 4.52322 -1.74737 0
M  V30 2655 N 251.277 0.427512 1.51691 0
M  V30 2656 C 252.523 -0.142439 2.02299 0
M  V30 2657 C 252.856 -1.43214 1.31162 0
M  V30 2658 O 252.131 -1.89833 0.423511 0
M  V30 2659 C 252.414 -0.371301 3.58181 0
M  V30 2660 C 252.267 0.936358 4.39946 0
M  V30 2661 C 253.586 -1.14542 4.24933 0
M  V30 2662 H 250.705 -0.0502937 0.735282 0
M  V30 2663 H 253.347 0.564584 1.81418 0
M  V30 2664 H 251.497 -0.973559 3.76104 0
M  V30 2665 H 253.169 1.57184 4.33694 0
M  V30 2666 H 251.412 1.5432 4.05423 0
M  V30 2667 H 252.083 0.730388 5.47147 0
M  V30 2668 H 254.559 -0.635362 4.11221 0
M  V30 2669 H 253.435 -1.27431 5.33903 0
M  V30 2670 H 253.696 -2.17093 3.85127 0
M  V30 2671 N 252.755 -1.56801 0.158532 0
M  V30 2672 C 254.003 -1.96102 -0.488712 0
M  V30 2673 C 254.324 -1.04498 -1.64636 0
M  V30 2674 O 253.594 -0.108783 -1.95598 0
M  V30 2675 H 252.174 -0.724102 -0.183535 0
M  V30 2676 H 254.836 -1.93457 0.236728 0
M  V30 2677 H 253.932 -3.00097 -0.857219 0
M  V30 2678 N 254.233 0.115231 -1.57178 0
M  V30 2679 C 255.51 0.852873 -1.76027 0
M  V30 2680 C 255.89 1.97892 -0.73498 0
M  V30 2681 O 255.238 2.27232 0.24036 0
M  V30 2682 C 255.448 1.36608 -3.21153 0
M  V30 2683 C 256.796 1.81692 -3.83762 0
M  V30 2684 O 257.82 1.46278 -3.24779 0
M  V30 2685 O 256.679 2.47104 -4.87444 0
M  V30 2686 H 253.773 0.405296 -0.720877 0
M  V30 2687 H 256.319 0.0986785 -1.69413 0
M  V30 2688 H 255.091 0.558357 -3.87296 0
M  V30 2689 H 254.714 2.18287 -3.3232 0
M  V30 2690 N 255.711 1.52812 0.385517 0
M  V30 2691 C 256.96 1.67249 1.12741 0
M  V30 2692 C 257.273 0.4205 1.91027 0
M  V30 2693 O 258.479 0.445064 2.67827 0
M  V30 2694 C 256.935 2.95583 2.05326 0
M  V30 2695 C 256.543 4.27974 1.32447 0
M  V30 2696 C 258.287 3.19386 2.7963 0
M  V30 2697 C 256.194 5.47412 2.23818 0
M  V30 2698 H 255.124 0.6231 0.424573 0
M  V30 2699 H 257.775 1.79309 0.389924 0
M  V30 2700 H 256.157 2.77277 2.82725 0
M  V30 2701 H 257.331 4.56844 0.602495 0
M  V30 2702 H 255.646 4.10459 0.700885 0
M  V30 2703 H 258.243 4.05801 3.48181 0
M  V30 2704 H 258.586 2.34604 3.43899 0
M  V30 2705 H 259.119 3.38274 2.09322 0
M  V30 2706 H 255.858 6.34612 1.64157 0
M  V30 2707 H 255.378 5.22849 2.93921 0
M  V30 2708 H 257.057 5.81423 2.83824 0
M  V30 2709 N 257.189 -0.644168 1.43834 0
M  V30 2710 C 258.437 -1.40117 1.45642 0
M  V30 2711 C 258.758 -1.94814 0.0852413 0
M  V30 2712 O 258.028 -1.74988 -0.880688 0
M  V30 2713 H 256.608 -0.52005 0.536243 0
M  V30 2714 H 259.27 -0.7591 1.7951 0
M  V30 2715 H 258.366 -2.23902 2.17427 0
M  V30 2716 N 258.668 -1.30515 -0.883378 0
M  V30 2717 C 259.616 -1.16941 -2.01066 0
M  V30 2718 C 260.61 -0.0809148 -1.69207 0
M  V30 2719 O 261.816 -0.241877 -1.78367 0
M  V30 2720 H 258.191 -0.361705 -0.659298 0
M  V30 2721 H 260.162 -2.12344 -2.09649 0
M  V30 2722 C 258.911 -0.879694 -3.36388 0
M  V30 2723 H 258.234 -1.70936 -3.61415 0
M  V30 2724 H 259.674 -0.82483 -4.159 0
M  V30 2725 C 258.133 0.417409 -3.34304 0
M  V30 2726 O 258.663 1.43843 -3.75063 0
M  V30 2727 N 256.869 0.429141 -2.87414 0
M  V30 2728 H 256.416 -0.402222 -2.5444 0
M  V30 2729 H 256.374 1.29696 -2.86403 0
M  V30 2730 N 260.146 1.09593 -1.13257 0
M  V30 2731 C 261.392 1.82003 -0.89458 0
M  V30 2732 C 261.725 1.85402 0.577906 0
M  V30 2733 O 261 1.32099 1.42759 0
M  V30 2734 C 261.283 3.28237 -1.48096 0
M  V30 2735 C 261.136 3.3312 -3.02244 0
M  V30 2736 C 262.455 4.24871 -1.14774 0
M  V30 2737 H 259.574 0.66077 -0.326424 0
M  V30 2738 H 262.216 1.28389 -1.40058 0
M  V30 2739 H 260.366 3.74024 -1.05062 0
M  V30 2740 H 262.038 2.95748 -3.54021 0
M  V30 2741 H 260.281 2.72756 -3.37323 0
M  V30 2742 H 260.952 4.3613 -3.38371 0
M  V30 2743 H 263.428 3.87361 -1.51957 0
M  V30 2744 H 262.304 5.25532 -1.58452 0
M  V30 2745 H 262.565 4.42058 -0.0611849 0
M  V30 2746 N 261.624 0.925811 1.2754 0
M  V30 2747 C 262.572 0.413897 2.28888 0
M  V30 2748 C 263.566 -0.500779 1.61829 0
M  V30 2749 O 264.772 -0.38069 1.75928 0
M  V30 2750 H 261.147 0.115274 0.743112 0
M  V30 2751 H 263.118 1.28151 2.69481 0
M  V30 2752 C 261.867 -0.319792 3.46226 0
M  V30 2753 H 261.19 0.374846 3.98039 0
M  V30 2754 H 262.63 -0.642435 4.19105 0
M  V30 2755 C 261.089 -1.53209 3.00048 0
M  V30 2756 O 261.619 -2.6309 3.03557 0
M  V30 2757 N 259.825 -1.38326 2.55566 0
M  V30 2758 H 259.372 -0.489292 2.5291 0
M  V30 2759 H 259.33 -2.19564 2.25031 0
M  V30 2760 N 263.102 -1.41638 0.69111 0
M  V30 2761 C 264.035 -2.28183 -0.0274913 0
M  V30 2762 C 265.013 -1.41984 -0.792424 0
M  V30 2763 O 266.197 -1.71415 -0.784169 0
M  V30 2764 C 263.324 -3.22135 -1.04628 0
M  V30 2765 C 262.37 -4.24848 -0.375037 0
M  V30 2766 S 263.203 -5.28231 0.879321 0
M  V30 2767 C 264.359 -6.25748 -0.137983 0
M  V30 2768 H 264.592 -2.88782 0.706553 0
M  V30 2769 H 262.125 -1.46709 0.481222 0
M  V30 2770 H 264.083 -3.76797 -1.62894 0
M  V30 2771 H 262.744 -2.6064 -1.75287 0
M  V30 2772 H 261.937 -4.90837 -1.14433 0
M  V30 2773 H 261.539 -3.73758 0.134434 0
M  V30 2774 H 263.831 -6.70188 -0.992659 0
M  V30 2775 H 264.774 -7.06417 0.487867 0
M  V30 2776 H 265.182 -5.62363 -0.490762 0
M  V30 2777 N 264.58 -0.43555 -1.51462 0
M  V30 2778 C 265.826 0.123979 -2.03022 0
M  V30 2779 C 266.181 1.4054 -1.31401 0
M  V30 2780 O 265.474 1.86948 -0.419634 0
M  V30 2781 C 265.668 0.39942 -3.55161 0
M  V30 2782 C 265.497 -0.853754 -4.41521 0
M  V30 2783 C 264.267 -1.38675 -4.85898 0
M  V30 2784 C 266.465 -1.73939 -4.83994 0
M  V30 2785 N 264.447 -2.59265 -5.56466 0
M  V30 2786 C 265.818 -2.79135 -5.5361 0
M  V30 2787 C 267.873 -1.75402 -4.65981 0
M  V30 2788 C 266.576 -3.85737 -6.07124 0
M  V30 2789 C 268.602 -2.80938 -5.20411 0
M  V30 2790 C 267.964 -3.84854 -5.89972 0
M  V30 2791 H 264.063 0.00624887 -0.781975 0
M  V30 2792 H 266.647 -0.59582 -1.85359 0
M  V30 2793 H 264.818 1.08825 -3.72843 0
M  V30 2794 H 266.55 0.95015 -3.93388 0
M  V30 2795 H 263.305 -0.94094 -4.64159 0
M  V30 2796 H 263.729 -3.2041 -5.96378 0
M  V30 2797 H 268.371 -0.963926 -4.11665 0
M  V30 2798 H 266.089 -4.65586 -6.60496 0
M  V30 2799 H 269.675 -2.8301 -5.08327 0
M  V30 2800 H 268.555 -4.65176 -6.31333 0
M  V30 2801 N 266.058 1.56714 -0.166846 0
M  V30 2802 C 267.335 1.88412 0.525373 0
M  V30 2803 C 267.715 1.07602 1.81618 0
M  V30 2804 O 267.063 0.168621 2.27877 0
M  V30 2805 C 267.273 3.40363 0.771613 0
M  V30 2806 C 268.621 4.10007 1.1036 0
M  V30 2807 O 269.645 3.45655 0.860304 0
M  V30 2808 O 268.504 5.2369 1.56239 0
M  V30 2809 H 265.598 0.781587 0.270278 0
M  V30 2810 H 268.144 1.68458 -0.204946 0
M  V30 2811 H 266.916 3.91046 -0.141093 0
M  V30 2812 H 266.539 3.65914 1.55541 0
M  V30 2813 N 267.536 -0.106894 1.57237 0
M  V30 2814 C 268.783 -0.812526 1.85484 0
M  V30 2815 C 269.111 -1.79304 0.753687 0
M  V30 2816 O 268.366 -1.94047 -0.253853 0
M  V30 2817 C 268.665 -1.58628 3.20268 0
M  V30 2818 C 268.331 -0.748967 4.44636 0
M  V30 2819 C 266.993 -0.518104 4.78403 0
M  V30 2820 C 269.345 -0.166122 5.20935 0
M  V30 2821 C 266.673 0.305659 5.85903 0
M  V30 2822 C 269.025 0.644899 6.29304 0
M  V30 2823 C 267.689 0.885965 6.61594 0
M  V30 2824 H 266.959 -0.297324 0.678734 0
M  V30 2825 H 269.606 -0.0744332 1.91355 0
M  V30 2826 H 267.911 -2.39562 3.10028 0
M  V30 2827 H 269.608 -2.13643 3.39349 0
M  V30 2828 H 266.198 -0.939006 4.18187 0
M  V30 2829 H 270.382 -0.33167 4.95191 0
M  V30 2830 H 265.638 0.501528 6.0934 0
M  V30 2831 H 269.812 1.10345 6.87602 0
M  V30 2832 H 267.439 1.52609 7.44725 0
M  V30 2833 N 269.014 -1.53014 -0.377408 0
M  V30 2834 C 270.26 -1.68872 -1.12294 0
M  V30 2835 C 270.593 -0.433224 -1.89306 0
M  V30 2836 O 269.868 0.569258 -1.85983 0
M  V30 2837 C 270.151 -2.93115 -2.09179 0
M  V30 2838 C 270.004 -4.28794 -1.35853 0
M  V30 2839 C 271.323 -3.12928 -3.09458 0
M  V30 2840 H 268.442 -0.614518 -0.406862 0
M  V30 2841 H 271.084 -1.85633 -0.40503 0
M  V30 2842 H 269.234 -2.78956 -2.70399 0
M  V30 2843 H 270.906 -4.54742 -0.775082 0
M  V30 2844 H 269.149 -4.28744 -0.660364 0
M  V30 2845 H 269.82 -5.11837 -2.06706 0
M  V30 2846 H 272.296 -3.26194 -2.58334 0
M  V30 2847 H 271.172 -4.01316 -3.74482 0
M  V30 2848 H 271.433 -2.27669 -3.78971 0
M  V30 2849 N 270.492 0.636531 -1.44174 0
M  V30 2850 C 271.422 1.76003 -1.53444 0
M  V30 2851 C 272.403 1.65619 -0.387841 0
M  V30 2852 O 273.588 1.84461 -0.607257 0
M  V30 2853 C 270.718 3.14511 -1.4731 0
M  V30 2854 C 269.672 3.39677 -2.60391 0
M  V30 2855 C 268.998 4.78159 -2.39308 0
M  V30 2856 C 270.298 3.32772 -4.02567 0
M  V30 2857 H 271.992 1.68501 -2.47483 0
M  V30 2858 H 269.538 0.809237 -1.19111 0
M  V30 2859 H 271.491 3.92878 -1.52397 0
M  V30 2860 H 270.215 3.22783 -0.49785 0
M  V30 2861 H 268.874 2.63688 -2.54684 0
M  V30 2862 H 268.522 4.83128 -1.39988 0
M  V30 2863 H 268.222 4.95956 -3.15122 0
M  V30 2864 H 269.746 5.58762 -2.46205 0
M  V30 2865 H 271.16 4.01051 -4.09672 0
M  V30 2866 H 269.557 3.62104 -4.7854 0
M  V30 2867 H 270.627 2.30669 -4.2652 0
M  V30 2868 N 271.97 1.30982 0.876444 0
M  V30 2869 C 273.195 1.23373 1.66715 0
M  V30 2870 C 273.62 -0.19885 1.87046 0
M  V30 2871 O 272.978 -1.1427 1.40756 0
M  V30 2872 C 273.026 1.97644 3.01611 0
M  V30 2873 O 272.13 1.30935 3.91062 0
M  V30 2874 H 271.471 0.426279 0.509099 0
M  V30 2875 H 274.001 1.72944 1.09323 0
M  V30 2876 H 274.011 2.06992 3.51594 0
M  V30 2877 H 272.686 3.01829 2.86133 0
M  V30 2878 H 271.263 1.29996 3.49507 0
M  V30 2879 N 273.449 -1.08991 1.13837 0
M  V30 2880 C 274.86 -1.62746 0.914917 0
M  V30 2881 C 275.211 -1.88403 -0.547594 0
M  V30 2882 O 274.336 -1.63706 -1.41525 0
M  V30 2883 C 274.931 -2.95662 1.65437 0
M  V30 2884 C 273.49 -3.46225 1.47666 0
M  V30 2885 C 272.637 -2.20562 1.6807 0
M  V30 2886 H 275.588 -0.922946 1.29102 0
M  V30 2887 H 275.609 -3.63825 1.11407 0
M  V30 2888 H 275.121 -2.76956 2.71877 0
M  V30 2889 H 273.222 -3.70046 0.435478 0
M  V30 2890 H 273.335 -4.23368 2.24268 0
M  V30 2891 H 271.699 -2.29439 1.10589 0
M  V30 2892 H 272.482 -2.0437 2.7584 0
M  V30 2893 N 274.927 -0.932562 -1.27047 0
M  V30 2894 C 276.204 -0.49377 -1.89265 0
M  V30 2895 C 276.584 1.02833 -1.8436 0
M  V30 2896 O 275.932 1.88461 -1.29209 0
M  V30 2897 C 276.142 -1.04536 -3.32976 0
M  V30 2898 C 277.49 -1.10879 -4.09867 0
M  V30 2899 O 278.514 -0.995327 -3.42011 0
M  V30 2900 O 277.373 -1.28417 -5.31198 0
M  V30 2901 H 274.467 -0.159596 -0.811454 0
M  V30 2902 H 277.013 -1.02457 -1.3528 0
M  V30 2903 H 275.785 -2.08913 -3.30864 0
M  V30 2904 H 275.408 -0.496494 -3.94488 0
M  V30 2905 N 276.405 1.4127 -0.698611 0
M  V30 2906 C 277.315 2.34573 -0.0357891 0
M  V30 2907 C 278.331 1.56393 0.762701 0
M  V30 2908 O 279.507 1.8886 0.699564 0
M  V30 2909 C 276.572 3.35159 0.887089 0
M  V30 2910 C 275.633 4.29225 0.0804634 0
M  V30 2911 C 274.866 5.25006 0.959387 0
M  V30 2912 O 275.089 5.26314 2.19886 0
M  V30 2913 O 274.023 6.00519 0.407439 0
M  V30 2914 H 277.849 2.92838 -0.804957 0
M  V30 2915 H 275.434 1.42175 -0.458966 0
M  V30 2916 H 277.316 3.9689 1.41621 0
M  V30 2917 H 275.991 2.79333 1.6357 0
M  V30 2918 H 274.898 3.70833 -0.493328 0
M  V30 2919 H 276.231 4.88157 -0.629547 0
M  V30 2920 N 277.883 0.443576 1.51229 0
M  V30 2921 C 279.132 -0.122332 2.01329 0
M  V30 2922 C 279.445 -1.43237 1.33201 0
M  V30 2923 O 280.651 -2.0816 1.74304 0
M  V30 2924 C 279.107 -0.268551 3.58897 0
M  V30 2925 C 278.715 1.03142 4.35965 0
M  V30 2926 C 280.459 -0.787894 4.17124 0
M  V30 2927 C 278.366 0.850504 5.85252 0
M  V30 2928 H 277.296 -0.0494929 0.752374 0
M  V30 2929 H 279.947 0.574289 1.74282 0
M  V30 2930 H 278.329 -1.02832 3.82415 0
M  V30 2931 H 279.503 1.80001 4.24189 0
M  V30 2932 H 277.818 1.47977 3.89219 0
M  V30 2933 H 280.415 -0.939841 5.26375 0
M  V30 2934 H 280.758 -1.77201 3.76703 0
M  V30 2935 H 281.291 -0.0862669 3.97706 0
M  V30 2936 H 278.03 1.80718 6.30096 0
M  V30 2937 H 277.55 0.121825 5.99676 0
M  V30 2938 H 279.229 0.506163 6.45017 0
M  V30 2939 N 279.361 -1.56624 0.175154 0
M  V30 2940 C 280.309 -2.19468 -0.770495 0
M  V30 2941 C 281.303 -1.15985 -1.23466 0
M  V30 2942 O 282.509 -1.34176 -1.19987 0
M  V30 2943 H 278.884 -0.703095 -0.266761 0
M  V30 2944 H 280.855 -2.97613 -0.216542 0
M  V30 2945 C 279.604 -2.85264 -1.98796 0
M  V30 2946 H 278.927 -3.64623 -1.63983 0
M  V30 2947 H 280.367 -3.327 -2.62843 0
M  V30 2948 C 278.826 -1.85239 -2.81404 0
M  V30 2949 O 279.356 -1.34024 -3.78682 0
M  V30 2950 N 277.562 -1.53911 -2.46495 0
M  V30 2951 H 277.109 -1.95751 -1.67449 0
M  V30 2952 H 277.067 -0.872382 -3.02054 0
M  V30 2953 N 280.839 0.0985539 -1.57292 0
M  V30 2954 C 282.067 0.816318 -1.90115 0
M  V30 2955 C 282.482 1.72451 -0.768509 0
M  V30 2956 O 281.839 1.80643 0.259687 0
M  V30 2957 C 281.89 1.63259 -3.22535 0
M  V30 2958 O 281.611 0.760934 -4.31441 0
M  V30 2959 C 283.112 2.45372 -3.69199 0
M  V30 2960 H 280.332 0.233595 -0.629027 0
M  V30 2961 H 282.876 0.0768229 -2.04356 0
M  V30 2962 H 281.031 2.32463 -3.09903 0
M  V30 2963 H 281.445 1.32595 -5.07463 0
M  V30 2964 H 282.919 2.98144 -4.64558 0
M  V30 2965 H 283.396 3.23677 -2.96867 0
M  V30 2966 H 284.002 1.81373 -3.84687 0
M  V30 2967 N 282.317 1.53212 0.369288 0
M  V30 2968 C 283.566 1.68436 1.10961 0
M  V30 2969 C 283.879 0.440738 1.9057 0
M  V30 2970 O 285.085 0.473446 2.6734 0
M  V30 2971 C 283.541 2.97744 2.0218 0
M  V30 2972 C 283.149 4.29355 1.279 0
M  V30 2973 C 284.893 3.22334 2.76226 0
M  V30 2974 C 282.8 5.49755 2.17999 0
M  V30 2975 H 281.73 0.627568 0.41794 0
M  V30 2976 H 284.381 1.79713 0.370884 0
M  V30 2977 H 282.763 2.8026 2.79768 0
M  V30 2978 H 283.937 4.57458 0.554007 0
M  V30 2979 H 282.252 4.11179 0.657311 0
M  V30 2980 H 284.849 4.09471 3.43857 0
M  V30 2981 H 285.192 2.38238 3.41392 0
M  V30 2982 H 285.725 3.40475 2.05723 0
M  V30 2983 H 282.464 6.36318 1.57417 0
M  V30 2984 H 281.984 5.25937 2.88359 0
M  V30 2985 H 283.663 5.84401 2.77641 0
M  V30 2986 N 283.795 -0.628877 1.44509 0
M  V30 2987 C 285.025 -1.41349 1.50678 0
M  V30 2988 C 285.433 -1.88745 0.131075 0
M  V30 2989 O 284.776 -1.61592 -0.87371 0
M  V30 2990 C 284.838 -2.66608 2.41165 0
M  V30 2991 C 284.502 -2.40993 3.88293 0
M  V30 2992 C 285.499 -2.0268 4.78766 0
M  V30 2993 C 283.184 -2.54563 4.33016 0
M  V30 2994 C 285.178 -1.78269 6.11963 0
M  V30 2995 C 282.865 -2.29766 5.6626 0
M  V30 2996 C 283.863 -1.91678 6.55552 0
M  V30 2997 O 283.551 -1.67158 7.86329 0
M  V30 2998 H 283.283 -0.439851 0.51333 0
M  V30 2999 H 285.837 -0.776084 1.90174 0
M  V30 3000 H 284.067 -3.32994 1.96601 0
M  V30 3001 H 285.756 -3.28615 2.38259 0
M  V30 3002 H 286.522 -1.91751 4.45485 0
M  V30 3003 H 282.401 -2.83179 3.63773 0
M  V30 3004 H 285.945 -1.48465 6.81619 0
M  V30 3005 H 281.842 -2.40306 5.99102 0
M  V30 3006 H 282.61 -1.81386 7.98149 0
M  V30 3007 N 285.273 -1.31445 -0.869486 0
M  V30 3008 C 286.203 -1.21727 -1.99261 0
M  V30 3009 C 287.184 -0.104359 -1.6978 0
M  V30 3010 O 288.369 -0.289038 -1.92037 0
M  V30 3011 C 285.499 -0.924317 -3.34774 0
M  V30 3012 C 284.453 -1.99685 -3.78563 0
M  V30 3013 C 283.779 -1.55658 -5.11541 0
M  V30 3014 C 285.079 -3.41003 -3.95619 0
M  V30 3015 H 286.773 -2.1569 -2.07649 0
M  V30 3016 H 284.319 -1.03839 -0.997675 0
M  V30 3017 H 286.272 -0.842934 -4.12883 0
M  V30 3018 H 284.996 0.0509793 -3.2656 0
M  V30 3019 H 283.655 -2.06813 -3.02694 0
M  V30 3020 H 283.303 -0.569132 -4.9977 0
M  V30 3021 H 283.003 -2.27409 -5.41811 0
M  V30 3022 H 284.527 -1.48928 -5.92159 0
M  V30 3023 H 285.941 -3.36547 -4.64122 0
M  V30 3024 H 284.338 -4.10975 -4.37286 0
M  V30 3025 H 285.408 -3.81754 -2.98985 0
M  V30 3026 N 286.751 1.08385 -1.14413 0
M  V30 3027 C 287.999 1.80419 -0.910679 0
M  V30 3028 C 288.32 1.86658 0.564243 0
M  V30 3029 O 287.59 1.35985 1.41014 0
M  V30 3030 H 286.17 0.668204 -0.333934 0
M  V30 3031 H 288.832 1.31037 -1.44275 0
M  V30 3032 H 287.928 2.83238 -1.31082 0
M  V30 3033 N 288.23 0.939286 1.26551 0
M  V30 3034 C 289.478 0.58469 1.93457 0
M  V30 3035 C 289.799 -0.878774 1.74076 0
M  V30 3036 O 289.069 -1.62421 1.09528 0
M  V30 3037 H 287.649 0.21325 0.715914 0
M  V30 3038 H 290.311 1.1942 1.54029 0
M  V30 3039 H 289.407 0.800849 3.0165 0
M  V30 3040 N 289.708 -1.40897 0.706093 0
M  V30 3041 C 291.119 -1.84023 0.315052 0
M  V30 3042 C 291.47 -1.5906 -1.14866 0
M  V30 3043 O 290.595 -1.06651 -1.88293 0
M  V30 3044 C 291.19 -3.34055 0.565038 0
M  V30 3045 C 289.749 -3.7571 0.227806 0
M  V30 3046 C 288.896 -2.64204 0.842122 0
M  V30 3047 H 291.847 -1.303 0.905963 0
M  V30 3048 H 291.868 -3.80107 -0.172843 0
M  V30 3049 H 291.38 -3.52192 1.63042 0
M  V30 3050 H 289.481 -3.63172 -0.832895 0
M  V30 3051 H 289.594 -4.74103 0.690174 0
M  V30 3052 H 287.958 -2.53255 0.270893 0
M  V30 3053 H 288.741 -2.85155 1.91158 0
M  V30 3054 N 291.186 -0.45159 -1.50991 0
M  V30 3055 C 292.433 0.110074 -2.02201 0
M  V30 3056 C 292.761 1.4146 -1.33489 0
M  V30 3057 O 292.016 1.90617 -0.443125 0
M  V30 3058 C 292.315 0.361728 -3.55565 0
M  V30 3059 C 291.981 -0.858717 -4.42648 0
M  V30 3060 C 290.643 -1.19338 -4.66167 0
M  V30 3061 C 292.995 -1.67221 -4.93646 0
M  V30 3062 C 290.323 -2.34195 -5.37931 0
M  V30 3063 C 292.675 -2.8119 -5.6667 0
M  V30 3064 C 291.339 -3.15094 -5.88449 0
M  V30 3065 H 290.609 0.040279 -0.739904 0
M  V30 3066 H 293.256 -0.601696 -1.81802 0
M  V30 3067 H 291.561 1.15554 -3.74372 0
M  V30 3068 H 293.258 0.80996 -3.92735 0
M  V30 3069 H 289.848 -0.58796 -4.24548 0
M  V30 3070 H 294.032 -1.42686 -4.75347 0
M  V30 3071 H 289.288 -2.6076 -5.53005 0
M  V30 3072 H 293.462 -3.44585 -6.05173 0
M  V30 3073 H 291.089 -4.04204 -6.43835 0
M  V30 3074 N 292.664 1.56529 -0.183458 0
M  V30 3075 C 293.889 2.02064 0.467428 0
M  V30 3076 C 294.314 1.06282 1.55196 0
M  V30 3077 O 293.672 0.0443565 1.81246 0
M  V30 3078 C 293.72 3.46122 1.01153 0
M  V30 3079 O 292.824 3.53437 2.12499 0
M  V30 3080 H 292.165 0.654726 0.110588 0
M  V30 3081 H 294.695 2.02521 -0.290917 0
M  V30 3082 H 294.705 3.85676 1.33108 0
M  V30 3083 H 293.38 4.15331 0.217533 0
M  V30 3084 H 291.957 3.2575 1.81497 0
M  V30 3085 N 294.142 -0.090211 1.57342 0
M  V30 3086 C 295.553 -0.644173 1.75235 0
M  V30 3087 C 295.904 -1.78865 0.806335 0
M  V30 3088 O 295.029 -2.16395 -0.0140128 0
M  V30 3089 C 295.624 -1.17532 3.1776 0
M  V30 3090 C 294.183 -1.67531 3.37061 0
M  V30 3091 C 293.33 -0.58693 2.71017 0
M  V30 3092 H 296.281 0.135884 1.58117 0
M  V30 3093 H 296.302 -2.04455 3.20902 0
M  V30 3094 H 295.814 -0.342138 3.86589 0
M  V30 3095 H 293.915 -2.53234 2.73319 0
M  V30 3096 H 294.028 -1.76493 4.45406 0
M  V30 3097 H 292.392 -1.02756 2.33052 0
M  V30 3098 H 293.175 0.235758 3.4249 0
M  V30 3099 N 295.62 -1.53406 -0.361157 0
M  V30 3100 C 296.568 -1.80832 -1.46296 0
M  V30 3101 C 297.562 -0.677699 -1.55253 0
M  V30 3102 O 298.768 -0.860723 -1.58087 0
M  V30 3103 H 295.143 -0.572627 -0.487445 0
M  V30 3104 H 297.114 -2.73045 -1.20371 0
M  V30 3105 C 295.863 -2.01907 -2.8307 0
M  V30 3106 H 295.186 -2.88349 -2.76938 0
M  V30 3107 H 296.626 -2.25072 -3.59331 0
M  V30 3108 C 295.085 -0.799449 -3.27277 0
M  V30 3109 O 295.615 0.00971761 -4.01699 0
M  V30 3110 N 293.821 -0.621637 -2.83873 0
M  V30 3111 H 293.368 -1.28126 -2.23476 0
M  V30 3112 H 293.326 0.19298 -3.13807 0
M  V30 3113 N 297.098 0.621204 -1.44841 0
M  V30 3114 C 298.344 1.3826 -1.48365 0
M  V30 3115 C 298.677 1.93831 -0.119624 0
M  V30 3116 O 297.952 1.74251 0.864111 0
M  V30 3117 C 298.235 2.54058 -2.55199 0
M  V30 3118 C 298.088 2.03772 -4.00995 0
M  V30 3119 C 299.407 3.56225 -2.58442 0
M  V30 3120 H 296.526 0.501374 -0.540179 0
M  V30 3121 H 299.168 0.7015 -1.76576 0
M  V30 3122 H 297.318 3.12162 -2.31274 0
M  V30 3123 H 298.99 1.50423 -4.36086 0
M  V30 3124 H 297.233 1.34876 -4.12299 0
M  V30 3125 H 297.904 2.87185 -4.71411 0
M  V30 3126 H 300.38 3.07939 -2.79844 0
M  V30 3127 H 299.256 4.34756 -3.3508 0
M  V30 3128 H 299.517 4.10949 -1.63013 0
M  V30 3129 N 298.576 1.31904 0.862503 0
M  V30 3130 C 299.506 1.22782 1.98612 0
M  V30 3131 C 300.487 0.113362 1.69722 0
M  V30 3132 O 301.672 0.299218 1.91881 0
M  V30 3133 C 298.802 0.942058 3.34279 0
M  V30 3134 C 297.756 2.0169 3.77499 0
M  V30 3135 C 297.082 1.58369 5.10709 0
M  V30 3136 C 298.382 3.43096 3.93805 0
M  V30 3137 H 300.076 2.16788 2.06502 0
M  V30 3138 H 297.622 1.04366 0.992154 0
M  V30 3139 H 299.575 0.864818 4.1243 0
M  V30 3140 H 298.299 -0.0336603 3.26583 0
M  V30 3141 H 296.958 2.08416 3.01593 0
M  V30 3142 H 296.606 0.595628 4.99461 0
M  V30 3143 H 296.306 2.30279 5.40597 0
M  V30 3144 H 297.83 1.52067 5.91361 0
M  V30 3145 H 299.244 3.39003 4.62331 0
M  V30 3146 H 297.641 4.13288 4.35101 0
M  V30 3147 H 298.711 3.83334 2.96957 0
M  V30 3148 N 300.054 -1.07777 1.14986 0
M  V30 3149 C 301.002 -2.16964 0.838406 0
M  V30 3150 C 301.996 -1.68372 -0.186386 0
M  V30 3151 O 303.202 -1.79951 -0.0418465 0
M  V30 3152 H 299.577 -0.708006 0.253439 0
M  V30 3153 H 301.548 -2.40454 1.76704 0
M  V30 3154 C 300.297 -3.4604 0.339335 0
M  V30 3155 H 299.62 -3.83813 1.11927 0
M  V30 3156 H 301.06 -4.23698 0.160021 0
M  V30 3157 C 299.519 -3.23569 -0.938325 0
M  V30 3158 O 300.049 -3.47752 -2.01077 0
M  V30 3159 N 298.255 -2.77079 -0.876117 0
M  V30 3160 H 297.802 -2.576 -0.00322037 0
M  V30 3161 H 297.76 -2.62422 -1.73153 0
M  V30 3162 N 301.532 -0.945985 -1.26051 0
M  V30 3163 C 302.778 -0.606539 -1.94146 0
M  V30 3164 C 303.133 0.84586 -1.72809 0
M  V30 3165 O 302.426 1.59781 -1.05738 0
M  V30 3166 C 302.62 -0.890475 -3.46129 0
M  V30 3167 C 302.449 -2.36892 -3.82246 0
M  V30 3168 C 301.219 -3.02494 -4.04753 0
M  V30 3169 C 303.417 -3.34772 -3.90425 0
M  V30 3170 N 301.399 -4.40302 -4.27794 0
M  V30 3171 C 302.77 -4.57855 -4.18054 0
M  V30 3172 C 304.825 -3.2973 -3.73072 0
M  V30 3173 C 303.528 -5.76522 -4.30134 0
M  V30 3174 C 305.554 -4.47727 -3.86386 0
M  V30 3175 C 304.916 -5.69593 -4.14419 0
M  V30 3176 H 301.015 -0.272407 -0.73302 0
M  V30 3177 H 303.599 -1.21638 -1.52027 0
M  V30 3178 H 301.77 -0.309638 -3.87164 0
M  V30 3179 H 303.502 -0.51181 -4.01451 0
M  V30 3180 H 300.257 -2.53095 -4.003 0
M  V30 3181 H 300.681 -5.11646 -4.43337 0
M  V30 3182 H 305.323 -2.36565 -3.50424 0
M  V30 3183 H 303.041 -6.70136 -4.51601 0
M  V30 3184 H 306.627 -4.45363 -3.74356 0
M  V30 3185 H 305.507 -6.59375 -4.24493 0
M  V30 3186 N 303.011 1.40521 -0.713556 0
M  V30 3187 C 304.427 1.54839 -0.386907 0
M  V30 3188 C 304.627 1.68532 1.1045 0
M  V30 3189 O 303.683 1.67377 1.89053 0
M  V30 3190 C 304.996 2.77792 -1.15118 0
M  V30 3191 C 306.544 2.91607 -1.13729 0
M  V30 3192 C 307.019 4.1747 -1.88368 0
M  V30 3193 N 308.51 4.24466 -1.85427 0
M  V30 3194 C 309.245 5.20755 -2.40004 0
M  V30 3195 N 308.741 6.22965 -3.03129 0
M  V30 3196 N 310.534 5.1282 -2.30158 0
M  V30 3197 H 302.685 1.29879 -1.68063 0
M  V30 3198 H 304.948 0.627896 -0.710247 0
M  V30 3199 H 304.654 2.73944 -2.20561 0
M  V30 3200 H 304.528 3.6984 -0.741477 0
M  V30 3201 H 306.915 2.94959 -0.0910608 0
M  V30 3202 H 306.996 2.00682 -1.5862 0
M  V30 3203 H 306.64 4.1488 -2.9298 0
M  V30 3204 H 306.57 5.074 -1.40898 0
M  V30 3205 H 309.061 3.51241 -1.3942 0
M  V30 3206 H 309.374 6.92859 -3.42295 0
M  V30 3207 H 307.719 6.23415 -3.07212 0
M  V30 3208 H 310.91 4.31899 -1.80501 0
M  V30 3209 H 311.083 5.87689 -2.72993 0
M  V30 3210 N 304.489 0.459591 1.5075 0
M  V30 3211 C 305.452 -0.329093 2.26825 0
M  V30 3212 C 306.452 -0.930481 1.31144 0
M  V30 3213 O 307.642 -0.801453 1.54669 0
M  V30 3214 C 304.774 -1.46768 3.07688 0
M  V30 3215 H 305.967 0.337924 2.9799 0
M  V30 3216 H 303.52 0.213336 1.54837 0
M  V30 3217 H 304.255 -2.17009 2.40993 0
M  V30 3218 H 304.04 -1.04238 3.77991 0
M  V30 3219 H 305.53 -2.02433 3.65254 0
M  V30 3220 N 305.967 -1.56429 0.191757 0
M  V30 3221 C 306.897 -2.21937 -0.725696 0
M  V30 3222 C 307.878 -1.1814 -1.2238 0
M  V30 3223 O 309.063 -1.46636 -1.27325 0
M  V30 3224 C 306.193 -2.87611 -1.94672 0
M  V30 3225 C 305.147 -3.97623 -1.58366 0
M  V30 3226 C 304.473 -4.50446 -2.88102 0
M  V30 3227 C 305.773 -5.16197 -0.796133 0
M  V30 3228 H 307.467 -2.98861 -0.179606 0
M  V30 3229 H 305.013 -1.43749 -0.0849464 0
M  V30 3230 H 306.966 -3.3212 -2.59373 0
M  V30 3231 H 305.69 -2.08087 -2.51728 0
M  V30 3232 H 304.349 -3.53801 -0.960247 0
M  V30 3233 H 303.997 -3.67688 -3.43241 0
M  V30 3234 H 303.697 -5.24675 -2.64556 0
M  V30 3235 H 305.221 -4.97654 -3.53798 0
M  V30 3236 H 306.635 -5.57271 -1.34618 0
M  V30 3237 H 305.032 -5.96471 -0.658928 0
M  V30 3238 H 306.102 -4.84473 0.203478 0
M  V30 3239 N 307.445 0.0818655 -1.57387 0
M  V30 3240 C 308.392 1.09834 -2.0299 0
M  V30 3241 C 309.362 1.39043 -0.908639 0
M  V30 3242 O 310.547 1.50282 -1.17559 0
M  V30 3243 C 307.687 2.40971 -2.47037 0
M  V30 3244 C 306.8 2.18379 -3.7274 0
M  V30 3245 C 305.935 3.43008 -4.0561 0
M  V30 3246 C 304.974 3.15736 -5.24383 0
M  V30 3247 N 304.111 4.32667 -5.52941 0
M  V30 3248 H 308.951 0.702472 -2.89602 0
M  V30 3249 H 306.488 0.33531 -1.43227 0
M  V30 3250 H 308.446 3.1752 -2.70623 0
M  V30 3251 H 307.076 2.78379 -1.63417 0
M  V30 3252 H 306.128 1.32569 -3.56552 0
M  V30 3253 H 307.44 1.94227 -4.59431 0
M  V30 3254 H 306.594 4.27958 -4.30043 0
M  V30 3255 H 305.333 3.70225 -3.17466 0
M  V30 3256 H 304.338 2.2918 -4.99757 0
M  V30 3257 H 305.563 2.8985 -6.14136 0
M  V30 3258 H 303.509 4.59935 -4.67756 0
M  V30 3259 H 303.426 4.11753 -6.34031 0
M  V30 3260 H 304.694 5.18644 -5.81918 0
M  V30 3261 N 308.923 1.53595 0.353017 0
M  V30 3262 C 310.153 1.74058 1.11299 0
M  V30 3263 C 310.561 0.475205 1.83135 0
M  V30 3264 O 309.904 -0.562344 1.74881 0
M  V30 3265 C 309.966 2.85994 2.17825 0
M  V30 3266 C 309.63 4.25923 1.65647 0
M  V30 3267 C 310.627 5.07829 1.11383 0
M  V30 3268 C 308.312 4.72377 1.7078 0
M  V30 3269 C 310.306 6.34285 0.629439 0
M  V30 3270 C 307.993 5.98808 1.21953 0
M  V30 3271 C 308.991 6.79594 0.681265 0
M  V30 3272 O 308.679 8.03651 0.200248 0
M  V30 3273 H 308.411 0.585327 0.338183 0
M  V30 3274 H 310.965 2.01186 0.413927 0
M  V30 3275 H 309.195 2.54368 2.91262 0
M  V30 3276 H 310.884 2.94515 2.79313 0
M  V30 3277 H 311.65 4.73107 1.06746 0
M  V30 3278 H 307.529 4.0956 2.11617 0
M  V30 3279 H 311.073 6.97288 0.208636 0
M  V30 3280 H 306.97 6.33026 1.26287 0
M  V30 3281 H 307.738 8.1788 0.318416 0
M  V30 3282 N 310.401 -0.613514 1.45168 0
M  V30 3283 C 311.311 -1.75296 1.55912 0
M  V30 3284 C 312.327 -1.68244 0.443856 0
M  V30 3285 O 313.503 -1.88706 0.70371 0
M  V30 3286 C 310.568 -3.1174 1.5172 0
M  V30 3287 C 309.629 -3.30291 2.74238 0
M  V30 3288 C 308.862 -4.60226 2.70236 0
M  V30 3289 O 309.085 -5.42168 1.77229 0
M  V30 3290 O 308.019 -4.81361 3.61352 0
M  V30 3291 H 311.845 -1.69183 2.52212 0
M  V30 3292 H 309.43 -0.776886 1.27612 0
M  V30 3293 H 311.312 -3.93044 1.51968 0
M  V30 3294 H 309.987 -3.18357 0.585697 0
M  V30 3295 H 308.894 -2.48598 2.79553 0
M  V30 3296 H 310.227 -3.28547 3.66494 0
M  V30 3297 N 311.879 -1.3236 -0.855495 0
M  V30 3298 C 313.125 -1.23054 -1.612 0
M  V30 3299 C 313.458 0.207404 -1.93089 0
M  V30 3300 O 312.733 1.14432 -1.57275 0
M  V30 3301 C 313.016 -2.08937 -2.93287 0
M  V30 3302 C 312.869 -3.61105 -2.68185 0
M  V30 3303 C 314.188 -1.94986 -3.94549 0
M  V30 3304 H 311.307 -0.448364 -0.584926 0
M  V30 3305 H 313.949 -1.62297 -0.987917 0
M  V30 3306 H 312.099 -1.75599 -3.46551 0
M  V30 3307 H 313.771 -4.04652 -2.21483 0
M  V30 3308 H 312.014 -3.83813 -2.02164 0
M  V30 3309 H 312.685 -4.16522 -3.62234 0
M  V30 3310 H 315.161 -2.24189 -3.5054 0
M  V30 3311 H 314.037 -2.57356 -4.84829 0
M  V30 3312 H 314.298 -0.917263 -4.3248 0
M  V30 3313 N 313.357 1.07166 -1.15556 0
M  V30 3314 C 314.289 2.14341 -0.811815 0
M  V30 3315 C 315.302 1.61835 0.177015 0
M  V30 3316 O 316.491 1.78439 -0.0464996 0
M  V30 3317 C 313.591 3.38387 -0.186481 0
M  V30 3318 C 312.764 4.20238 -1.21321 0
M  V30 3319 C 311.823 5.2266 -0.609302 0
M  V30 3320 O 310.849 5.54719 -1.27576 0
M  V30 3321 N 312.051 5.77306 0.608099 0
M  V30 3322 H 314.816 2.44431 -1.73417 0
M  V30 3323 H 312.377 1.23089 -1.0517 0
M  V30 3324 H 314.369 4.04044 0.230339 0
M  V30 3325 H 312.939 3.05994 0.639249 0
M  V30 3326 H 312.159 3.50369 -1.80652 0
M  V30 3327 H 313.447 4.71736 -1.90638 0
M  V30 3328 H 312.845 5.53513 1.1679 0
M  V30 3329 H 311.402 6.44583 0.96725 0
M  V30 3330 N 314.835 0.952656 1.25548 0
M  V30 3331 C 316.083 0.605176 1.92826 0
M  V30 3332 C 316.404 -0.860261 1.74999 0
M  V30 3333 O 315.674 -1.6125 1.11244 0
M  V30 3334 H 314.254 0.220832 0.713612 0
M  V30 3335 H 316.916 1.21047 1.52754 0
M  V30 3336 H 316.012 0.832798 3.00784 0
M  V30 3337 N 316.313 -1.40141 0.720998 0
M  V30 3338 C 317.223 -2.34486 0.0731031 0
M  V30 3339 C 318.239 -1.57587 -0.737723 0
M  V30 3340 O 319.415 -1.89949 -0.669429 0
M  V30 3341 C 316.48 -3.36528 -0.833656 0
M  V30 3342 C 315.541 -4.29298 -0.0121673 0
M  V30 3343 C 314.774 -5.26466 -0.875742 0
M  V30 3344 O 314.997 -5.29745 -2.11485 0
M  V30 3345 O 313.931 -6.01092 -0.31185 0
M  V30 3346 H 317.757 -2.9152 0.851444 0
M  V30 3347 H 315.342 -1.41427 0.481527 0
M  V30 3348 H 317.224 -3.99093 -1.35289 0
M  V30 3349 H 315.899 -2.81899 -1.59105 0
M  V30 3350 H 314.806 -3.70001 0.552262 0
M  V30 3351 H 316.139 -4.87094 0.707129 0
M  V30 3352 N 317.792 -0.46758 -1.50504 0
M  V30 3353 C 319.038 0.0887532 -2.02606 0
M  V30 3354 C 319.371 1.39686 -1.34913 0
M  V30 3355 O 318.646 1.88644 -0.473694 0
M  V30 3356 C 318.929 0.276206 -3.59039 0
M  V30 3357 C 318.782 -1.05267 -4.37309 0
M  V30 3358 C 320.101 1.03235 -4.27821 0
M  V30 3359 H 317.22 0.0307814 -0.736357 0
M  V30 3360 H 319.862 -0.612485 -1.79857 0
M  V30 3361 H 318.012 0.8735 -3.78553 0
M  V30 3362 H 319.684 -1.68628 -4.29374 0
M  V30 3363 H 317.927 -1.65015 -4.01189 0
M  V30 3364 H 318.598 -0.875197 -5.45018 0
M  V30 3365 H 321.074 0.526111 -4.12761 0
M  V30 3366 H 319.95 1.1323 -5.37094 0
M  V30 3367 H 320.211 2.06806 -3.90748 0
M  V30 3368 N 319.27 1.56325 -0.20005 0
M  V30 3369 C 320.517 1.97719 0.437411 0
M  V30 3370 C 320.845 1.08709 1.61284 0
M  V30 3371 O 320.1 0.127261 1.95286 0
M  V30 3372 C 320.399 3.4495 0.935103 0
M  V30 3373 C 320.065 4.5072 -0.12749 0
M  V30 3374 C 318.727 4.79368 -0.419451 0
M  V30 3375 C 321.079 5.14268 -0.847231 0
M  V30 3376 C 318.407 5.68854 -1.43604 0
M  V30 3377 C 320.759 6.04852 -1.85301 0
M  V30 3378 C 319.423 6.31855 -2.15211 0
M  V30 3379 H 318.693 0.723507 0.16006 0
M  V30 3380 H 321.34 1.89166 -0.298056 0
M  V30 3381 H 319.645 3.50599 1.74894 0
M  V30 3382 H 321.342 3.74337 1.43781 0
M  V30 3383 H 317.932 4.28458 0.11023 0
M  V30 3384 H 322.116 4.92222 -0.634901 0
M  V30 3385 H 317.372 5.88047 -1.67364 0
M  V30 3386 H 321.546 6.53152 -2.41591 0
M  V30 3387 H 319.173 7.00994 -2.94129 0
M  V30 3388 N 320.748 -0.0735177 1.57428 0
M  V30 3389 C 321.976 -0.785969 1.9139 0
M  V30 3390 C 322.391 -1.71207 0.795847 0
M  V30 3391 O 321.748 -1.81033 -0.230915 0
M  V30 3392 C 321.799 -1.58107 3.25091 0
M  V30 3393 O 321.52 -0.6922 4.32597 0
M  V30 3394 C 323.021 -2.39467 3.73055 0
M  V30 3395 H 320.241 -0.223558 0.632663 0
M  V30 3396 H 322.785 -0.044302 2.04452 0
M  V30 3397 H 320.94 -2.27503 3.13562 0
M  V30 3398 H 321.354 -1.24504 5.09508 0
M  V30 3399 H 322.828 -2.90716 4.69242 0
M  V30 3400 H 323.305 -3.18913 3.01979 0
M  V30 3401 H 323.911 -1.7523 3.87523 0
M  V30 3402 N 322.226 -1.5378 -0.344866 0
M  V30 3403 C 323.173 -1.81676 -1.42346 0
M  V30 3404 C 324.143 -0.662376 -1.52321 0
M  V30 3405 O 325.328 -0.906675 -1.67881 0
M  V30 3406 C 322.468 -2.03087 -2.79015 0
M  V30 3407 C 321.581 -3.30799 -2.77842 0
M  V30 3408 C 320.716 -3.42285 -4.0622 0
M  V30 3409 C 319.755 -4.6395 -3.9927 0
M  V30 3410 N 318.892 -4.72477 -5.19336 0
M  V30 3411 H 323.732 -2.73703 -1.17858 0
M  V30 3412 H 321.269 -1.35568 -0.570949 0
M  V30 3413 H 323.227 -2.1349 -3.58438 0
M  V30 3414 H 321.857 -1.14375 -3.01858 0
M  V30 3415 H 320.909 -3.29244 -1.90533 0
M  V30 3416 H 322.221 -4.20314 -2.68584 0
M  V30 3417 H 321.375 -3.52113 -4.94066 0
M  V30 3418 H 320.114 -2.50823 -4.18258 0
M  V30 3419 H 319.119 -4.54201 -3.09809 0
M  V30 3420 H 320.344 -5.56775 -3.88817 0
M  V30 3421 H 318.29 -3.83924 -5.3192 0
M  V30 3422 H 318.207 -5.55927 -5.12329 0
M  V30 3423 H 319.475 -4.86613 -6.08957 0
M  V30 3424 N 323.704 0.605807 -1.45491 0
M  V30 3425 C 325.115 1.18777 -1.44045 0
M  V30 3426 C 325.466 1.95471 -0.169001 0
M  V30 3427 O 324.591 2.0374 0.729324 0
M  V30 3428 C 325.186 2.16064 -2.60963 0
M  V30 3429 C 323.745 2.69633 -2.62631 0
M  V30 3430 C 322.892 1.45072 -2.36325 0
M  V30 3431 H 325.843 0.395017 -1.53705 0
M  V30 3432 H 325.864 2.9913 -2.35163 0
M  V30 3433 H 325.376 1.60217 -3.53486 0
M  V30 3434 H 323.477 3.29414 -1.74119 0
M  V30 3435 H 323.59 3.13944 -3.61906 0
M  V30 3436 H 321.954 1.74089 -1.85917 0
M  V30 3437 H 322.737 0.910899 -3.30995 0
M  V30 3438 N 325.182 1.32811 0.848464 0
M  V30 3439 C 326.114 1.18095 1.96433 0
M  V30 3440 C 327.127 0.114354 1.62398 0
M  V30 3441 O 328.316 0.363892 1.74751 0
M  V30 3442 C 325.416 0.786798 3.2964 0
M  V30 3443 C 324.589 1.943 3.91875 0
M  V30 3444 C 323.648 1.53138 5.03423 0
M  V30 3445 O 322.674 2.24432 5.23086 0
M  V30 3446 N 323.876 0.430915 5.78898 0
M  V30 3447 H 326.641 2.14218 2.09597 0
M  V30 3448 H 324.202 1.2543 1.02367 0
M  V30 3449 H 326.194 0.493715 4.01677 0
M  V30 3450 H 324.764 -0.0834541 3.12489 0
M  V30 3451 H 323.984 2.40224 3.12547 0
M  V30 3452 H 325.272 2.71689 4.30189 0
M  V30 3453 H 324.67 -0.162333 5.65467 0
M  V30 3454 H 323.227 0.197466 6.51501 0
M  V30 3455 N 326.66 -1.06551 1.16123 0
M  V30 3456 C 327.59 -2.15935 0.88851 0
M  V30 3457 C 328.571 -1.69306 -0.164135 0
M  V30 3458 O 329.756 -1.94193 -0.0167857 0
M  V30 3459 C 326.886 -3.45149 0.385942 0
M  V30 3460 C 325.84 -4.05271 1.3762 0
M  V30 3461 C 325.166 -5.29664 0.732137 0
M  V30 3462 C 326.466 -4.44355 2.74493 0
M  V30 3463 H 328.16 -2.39006 1.80323 0
M  V30 3464 H 325.706 -1.14866 0.868435 0
M  V30 3465 H 327.659 -4.21004 0.182647 0
M  V30 3466 H 326.383 -3.21689 -0.564274 0
M  V30 3467 H 325.042 -3.3147 1.56599 0
M  V30 3468 H 324.69 -5.02499 -0.224483 0
M  V30 3469 H 324.39 -5.70848 1.39307 0
M  V30 3470 H 325.914 -6.08218 0.538802 0
M  V30 3471 H 327.328 -5.11303 2.59311 0
M  V30 3472 H 325.725 -4.96515 3.37035 0
M  V30 3473 H 326.795 -3.55339 3.29943 0
M  V30 3474 N 328.138 -0.959301 -1.25041 0
M  V30 3475 C 329.384 -0.627096 -1.93492 0
M  V30 3476 C 329.739 0.827484 -1.73696 0
M  V30 3477 O 329.032 1.58651 -1.07427 0
M  V30 3478 C 329.226 -0.927136 -3.45165 0
M  V30 3479 C 329.055 -2.40933 -3.79712 0
M  V30 3480 C 327.825 -3.0677 -4.01522 0
M  V30 3481 C 330.023 -3.38894 -3.86853 0
M  V30 3482 N 328.005 -4.44815 -4.231 0
M  V30 3483 C 329.376 -4.62263 -4.13174 0
M  V30 3484 C 331.431 -3.33668 -3.69554 0
M  V30 3485 C 330.134 -5.81052 -4.23995 0
M  V30 3486 C 332.16 -4.518 -3.81616 0
M  V30 3487 C 331.522 -5.73957 -4.08354 0
M  V30 3488 H 327.621 -0.280166 -0.73009 0
M  V30 3489 H 330.205 -1.23244 -1.50729 0
M  V30 3490 H 328.376 -0.350685 -3.86814 0
M  V30 3491 H 330.108 -0.554361 -4.00885 0
M  V30 3492 H 326.863 -2.57327 -3.97593 0
M  V30 3493 H 327.287 -5.16319 -4.37885 0
M  V30 3494 H 331.929 -2.40268 -3.47895 0
M  V30 3495 H 329.647 -6.74888 -4.44468 0
M  V30 3496 H 333.233 -4.49309 -3.69612 0
M  V30 3497 H 332.113 -6.6384 -4.17475 0
M  V30 3498 N 329.616 1.39756 -0.72842 0
M  V30 3499 C 331.027 1.83498 -0.344289 0
M  V30 3500 C 331.378 1.60868 1.12321 0
M  V30 3501 O 330.503 1.09634 1.86573 0
M  V30 3502 C 331.098 3.33114 -0.618112 0
M  V30 3503 C 329.657 3.753 -0.287549 0
M  V30 3504 C 328.804 2.62831 -0.884048 0
M  V30 3505 H 331.755 1.28842 -0.926578 0
M  V30 3506 H 331.776 3.80334 0.112349 0
M  V30 3507 H 331.288 3.49553 -1.68625 0
M  V30 3508 H 329.389 3.64451 0.775012 0
M  V30 3509 H 329.502 4.72945 -0.765512 0
M  V30 3510 H 327.866 2.52792 -0.311149 0
M  V30 3511 H 328.649 2.82078 -1.95671 0
M  V30 3512 O 331.133 0.617387 1.49233 0
M  V30 3513 H 331.824 0.132127 1.93249 0
M  V30 END ATOM
M  V30 BEGIN BOND
M  V30 END BOND
M  V30 END CTAB
M  END
$$$$
