9803963
  -OEChem-10051720473D

 48 50  0     0  0  0  0  0  0999 V2000
   -0.7684   -1.6773   -0.9209 S   0  0  0  0  0  0  0  0  0  0  0  0
   -4.1920   -2.6085    0.3493 S   0  0  0  0  0  0  0  0  0  0  0  0
    6.5505    0.0182    0.1993 F   0  0  0  0  0  0  0  0  0  0  0  0
    5.6766    1.4254   -1.2008 F   0  0  0  0  0  0  0  0  0  0  0  0
    5.4131    1.7180    0.9378 F   0  0  0  0  0  0  0  0  0  0  0  0
   -2.7172    3.1385    0.4497 O   0  0  0  0  0  0  0  0  0  0  0  0
    0.3152    5.0542    0.4743 O   0  0  0  0  0  0  0  0  0  0  0  0
   -1.6547    5.4115   -0.6116 O   0  0  0  0  0  0  0  0  0  0  0  0
    0.4738   -3.5319    0.3828 N   0  0  0  0  0  0  0  0  0  0  0  0
   -1.6387   -3.1013   -0.5262 C   0  0  0  0  0  0  0  0  0  0  0  0
   -3.0529   -3.2455   -0.9267 C   0  0  0  0  0  0  0  0  0  0  0  0
   -0.8181   -3.9686    0.1642 C   0  0  0  0  0  0  0  0  0  0  0  0
    0.6147   -2.3357   -0.1459 C   0  0  0  0  0  0  0  0  0  0  0  0
    1.8277   -1.5559   -0.1174 C   0  0  0  0  0  0  0  0  0  0  0  0
   -3.7493   -0.8769    0.3738 C   0  0  0  0  0  0  0  0  0  0  0  0
   -3.5351    1.2389   -0.7624 C   0  0  0  0  0  0  0  0  0  0  0  0
   -3.8810   -0.1122   -0.7820 C   0  0  0  0  0  0  0  0  0  0  0  0
    1.7746   -0.1767   -0.3189 C   0  0  0  0  0  0  0  0  0  0  0  0
    3.0537   -2.1807    0.1110 C   0  0  0  0  0  0  0  0  0  0  0  0
   -3.0591    1.8202    0.4129 C   0  0  0  0  0  0  0  0  0  0  0  0
    4.1736   -0.0469   -0.0633 C   0  0  0  0  0  0  0  0  0  0  0  0
   -1.1982   -5.3000    0.6788 C   0  0  0  0  0  0  0  0  0  0  0  0
   -3.2746   -0.3011    1.5490 C   0  0  0  0  0  0  0  0  0  0  0  0
    2.9476    0.5778   -0.2919 C   0  0  0  0  0  0  0  0  0  0  0  0
    4.2266   -1.4262    0.1381 C   0  0  0  0  0  0  0  0  0  0  0  0
   -2.9289    1.0502    1.5686 C   0  0  0  0  0  0  0  0  0  0  0  0
   -3.6810    2.0488   -2.0085 C   0  0  0  0  0  0  0  0  0  0  0  0
    5.4272    0.7598   -0.0343 C   0  0  0  0  0  0  0  0  0  0  0  0
   -1.3676    3.4485    0.7913 C   0  0  0  0  0  0  0  0  0  0  0  0
   -0.9580    4.7353    0.1301 C   0  0  0  0  0  0  0  0  0  0  0  0
   -3.2579   -2.7560   -1.8850 H   0  0  0  0  0  0  0  0  0  0  0  0
   -3.2945   -4.3040   -1.0738 H   0  0  0  0  0  0  0  0  0  0  0  0
   -4.2612   -0.5568   -1.6987 H   0  0  0  0  0  0  0  0  0  0  0  0
    0.8522    0.3749   -0.4739 H   0  0  0  0  0  0  0  0  0  0  0  0
    3.1208   -3.2546    0.2675 H   0  0  0  0  0  0  0  0  0  0  0  0
   -2.0391   -5.2214    1.3750 H   0  0  0  0  0  0  0  0  0  0  0  0
   -0.3654   -5.7698    1.2120 H   0  0  0  0  0  0  0  0  0  0  0  0
   -1.4871   -5.9634   -0.1425 H   0  0  0  0  0  0  0  0  0  0  0  0
   -3.1670   -0.8861    2.4589 H   0  0  0  0  0  0  0  0  0  0  0  0
    2.8963    1.6528   -0.4437 H   0  0  0  0  0  0  0  0  0  0  0  0
    5.1720   -1.9307    0.3167 H   0  0  0  0  0  0  0  0  0  0  0  0
   -2.5667    1.4905    2.4936 H   0  0  0  0  0  0  0  0  0  0  0  0
   -4.3753    2.8793   -1.8431 H   0  0  0  0  0  0  0  0  0  0  0  0
   -2.7094    2.4491   -2.3165 H   0  0  0  0  0  0  0  0  0  0  0  0
   -4.0711    1.4539   -2.8412 H   0  0  0  0  0  0  0  0  0  0  0  0
   -0.6876    2.6592    0.4485 H   0  0  0  0  0  0  0  0  0  0  0  0
   -1.2986    3.5731    1.8767 H   0  0  0  0  0  0  0  0  0  0  0  0
    0.6086    5.8916    0.0560 H   0  0  0  0  0  0  0  0  0  0  0  0
  1 10  1  0  0  0  0
  1 13  1  0  0  0  0
  2 11  1  0  0  0  0
  2 15  1  0  0  0  0
  3 28  1  0  0  0  0
  4 28  1  0  0  0  0
  5 28  1  0  0  0  0
  6 20  1  0  0  0  0
  6 29  1  0  0  0  0
  7 30  1  0  0  0  0
  7 48  1  0  0  0  0
  8 30  2  0  0  0  0
  9 12  1  0  0  0  0
  9 13  2  0  0  0  0
 10 11  1  0  0  0  0
 10 12  2  0  0  0  0
 11 31  1  0  0  0  0
 11 32  1  0  0  0  0
 12 22  1  0  0  0  0
 13 14  1  0  0  0  0
 14 18  2  0  0  0  0
 14 19  1  0  0  0  0
 15 17  2  0  0  0  0
 15 23  1  0  0  0  0
 16 17  1  0  0  0  0
 16 20  2  0  0  0  0
 16 27  1  0  0  0  0
 17 33  1  0  0  0  0
 18 24  1  0  0  0  0
 18 34  1  0  0  0  0
 19 25  2  0  0  0  0
 19 35  1  0  0  0  0
 20 26  1  0  0  0  0
 21 24  2  0  0  0  0
 21 25  1  0  0  0  0
 21 28  1  0  0  0  0
 22 36  1  0  0  0  0
 22 37  1  0  0  0  0
 22 38  1  0  0  0  0
 23 26  2  0  0  0  0
 23 39  1  0  0  0  0
 24 40  1  0  0  0  0
 25 41  1  0  0  0  0
 26 42  1  0  0  0  0
 27 43  1  0  0  0  0
 27 44  1  0  0  0  0
 27 45  1  0  0  0  0
 29 30  1  0  0  0  0
 29 46  1  0  0  0  0
 29 47  1  0  0  0  0
M  END
> <DATABASE_ID>
DB05416

> <DATABASE_NAME>
drugbank

> <ORIGINAL_SOURCE>
PUBCHEM

> <ORIGINAL_SOURCE_URL>
https://pubchem.ncbi.nlm.nih.gov/rest/pug/compound/inchikey/YDBLKRPLXZNVNB-UHFFFAOYSA-N/SDF?record_type=3d

> <SMILES>
CC1=C(CSC2=CC(C)=C(OCC(O)=O)C=C2)SC(=N1)C1=CC=C(C=C1)C(F)(F)F

> <INCHI_IDENTIFIER>
InChI=1S/C21H18F3NO3S2/c1-12-9-16(7-8-17(12)28-10-19(26)27)29-11-18-13(2)25-20(30-18)14-3-5-15(6-4-14)21(22,23)24/h3-9H,10-11H2,1-2H3,(H,26,27)

> <INCHI_KEY>
YDBLKRPLXZNVNB-UHFFFAOYSA-N

> <FORMULA>
C21H18F3NO3S2

> <MOLECULAR_WEIGHT>
453.498

> <EXACT_MASS>
453.068019442

> <JCHEM_ACCEPTOR_COUNT>
4

> <JCHEM_AVERAGE_POLARIZABILITY>
43.38743231948541

> <JCHEM_BIOAVAILABILITY>
1

> <JCHEM_DONOR_COUNT>
1

> <JCHEM_FORMAL_CHARGE>
0

> <JCHEM_GHOSE_FILTER>
0

> <JCHEM_IUPAC>
2-{2-methyl-4-[({4-methyl-2-[4-(trifluoromethyl)phenyl]-1,3-thiazol-5-yl}methyl)sulfanyl]phenoxy}acetic acid

> <ALOGPS_LOGP>
5.43

> <JCHEM_LOGP>
5.697541455291922

> <ALOGPS_LOGS>
-6.15

> <JCHEM_MDDR_LIKE_RULE>
1

> <JCHEM_NUMBER_OF_RINGS>
3

> <JCHEM_PHYSIOLOGICAL_CHARGE>
-1

> <JCHEM_PKA_STRONGEST_ACIDIC>
3.505515725577524

> <JCHEM_PKA_STRONGEST_BASIC>
2.1439795370300034

> <JCHEM_POLAR_SURFACE_AREA>
59.42

> <JCHEM_REFRACTIVITY>
121.88100000000001

> <JCHEM_ROTATABLE_BOND_COUNT>
8

> <JCHEM_RULE_OF_FIVE>
0

> <ALOGPS_SOLUBILITY>
3.25e-04 g/l

> <JCHEM_TRADITIONAL_IUPAC>
2-methyl-4-[({4-methyl-2-[4-(trifluoromethyl)phenyl]-1,3-thiazol-5-yl}methyl)sulfanyl]phenoxyacetic acid

> <JCHEM_VEBER_RULE>
0

> <DRUGBANK_ID>
DB05416

> <SECONDARY_ACCESSION_NUMBERS>
DB13015

> <DRUG_GROUPS>
investigational

> <GENERIC_NAME>
Cardarine

$$$$