drugbank_target|Q96C24 Synaptotagmin-like protein 4 (DB00071)
 OpenBabel12092120063D

  0  0  0     0  0            999 V3000
M  V30 BEGIN CTAB
M  V30 COUNTS 10698 10794 0 0 0
M  V30 BEGIN ATOM
M  V30 1 H -0.908 1.98254 -0.117106 0
M  V30 2 N 0 1.576 0 0
M  V30 3 C 0.933 2.03868 1.02534 0
M  V30 4 C 1.911 0.928543 1.3348 0
M  V30 5 O 3.095 1.19667 1.45644 0
M  V30 6 C 0.222 2.43627 2.35294 0
M  V30 7 C -0.732 3.65373 2.2001 0
M  V30 8 S 0.101 5.13292 1.52614 0
M  V30 9 C 1.257 5.56322 2.86805 0
M  V30 10 H 1.49 2.90518 0.631377 0
M  V30 11 H -0.977 1.52953 0.210867 0
M  V30 12 H 0.981 2.67203 3.11629 0
M  V30 13 H -0.358 1.57376 2.7183 0
M  V30 14 H -1.165 3.90944 3.18086 0
M  V30 15 H -1.563 3.418 1.51819 0
M  V30 16 H 0.729 5.58782 3.83104 0
M  V30 17 H 1.672 6.56266 2.65933 0
M  V30 18 H 2.08 4.83886 2.90714 0
M  V30 19 N 1.4781 -0.272755 1.55222 0
M  V30 20 C 2.7031 -1.02683 1.80197 0
M  V30 21 C 3.1281 -1.79142 0.573551 0
M  V30 22 O 2.4861 -1.74917 -0.476849 0
M  V30 23 C 2.5341 -1.9609 3.02624 0
M  V30 24 O 1.6381 -3.04863 2.77727 0
M  V30 25 H 0.9791 -0.293557 0.595584 0
M  V30 26 H 3.5091 -0.30159 2.02365 0
M  V30 27 H 3.5191 -2.38039 3.31363 0
M  V30 28 H 2.1941 -1.39851 3.91682 0
M  V30 29 H 0.7711 -2.67228 2.60084 0
M  V30 30 N 2.9562 -1.48159 -0.537278 0
M  V30 31 C 3.8662 -1.64807 -1.6696 0
M  V30 32 C 4.8822 -0.530651 -1.65711 0
M  V30 33 O 6.0582 -0.800784 -1.84796 0
M  V30 34 C 3.1232 -1.67708 -3.03438 0
M  V30 35 C 2.1842 -2.91025 -3.156 0
M  V30 36 C 1.4172 -2.93778 -4.45567 0
M  V30 37 O 1.6402 -2.05153 -5.3223 0
M  V30 38 O 0.5742 -3.85868 -4.61941 0
M  V30 39 H 4.4002 -2.6066 -1.55853 0
M  V30 40 H 1.9852 -1.31475 -0.709549 0
M  V30 41 H 3.8672 -1.7218 -3.84619 0
M  V30 42 H 2.5422 -0.750278 -3.14885 0
M  V30 43 H 1.4492 -2.92089 -2.33741 0
M  V30 44 H 2.7822 -3.83065 -3.09066 0
M  V30 45 N 4.4343 0.785586 -1.36625 0
M  V30 46 C 5.3643 1.91259 -1.33949 0
M  V30 47 C 6.3453 1.68795 -0.210325 0
M  V30 48 O 7.5303 1.89854 -0.408561 0
M  V30 49 C 4.6603 3.28339 -1.13186 0
M  V30 50 C 3.6143 3.65335 -2.22967 0
M  V30 51 C 2.9403 5.00806 -1.87342 0
M  V30 52 C 4.2403 3.7352 -3.65075 0
M  V30 53 H 5.9343 1.93755 -2.28253 0
M  V30 54 H 3.4803 0.930788 -1.09874 0
M  V30 55 H 5.4333 4.06804 -1.09948 0
M  V30 56 H 4.1573 3.2624 -0.153332 0
M  V30 57 H 2.8163 2.89169 -2.25337 0
M  V30 58 H 2.4643 4.95233 -0.880545 0
M  V30 59 H 2.1643 5.26529 -2.60846 0
M  V30 60 H 3.6883 5.81687 -1.85667 0
M  V30 61 H 5.1023 4.42168 -3.64911 0
M  V30 62 H 3.4993 4.10731 -4.37516 0
M  V30 63 H 4.5693 2.74527 -3.99703 0
M  V30 64 N 5.9124 1.20967 1.01018 0
M  V30 65 C 6.8424 0.988272 2.11555 0
M  V30 66 C 7.8234 -0.0849778 1.69888 0
M  V30 67 O 9.0084 0.0738202 1.9406 0
M  V30 68 C 6.1384 0.546528 3.42973 0
M  V30 69 C 5.0924 1.56375 3.9841 0
M  V30 70 C 4.4184 0.97842 5.25672 0
M  V30 71 C 5.7184 2.94922 4.31066 0
M  V30 72 H 7.4124 1.91276 2.30334 0
M  V30 73 H 4.9584 0.921073 1.1069 0
M  V30 74 H 6.9114 0.378839 4.19694 0
M  V30 75 H 5.6354 -0.413598 3.23971 0
M  V30 76 H 4.2944 1.71891 3.23804 0
M  V30 77 H 3.9424 0.0101688 5.02999 0
M  V30 78 H 3.6424 1.65784 5.63728 0
M  V30 79 H 5.1664 0.821939 6.05043 0
M  V30 80 H 6.5804 2.8288 4.9865 0
M  V30 81 H 4.9774 3.5983 4.80253 0
M  V30 82 H 6.0474 3.4616 3.39561 0
M  V30 83 N 7.3905 -1.2043 1.01659 0
M  V30 84 C 8.6675 -1.8548 0.621004 0
M  V30 85 C 9.0475 -1.9091 -0.900919 0
M  V30 86 O 8.3955 -1.41694 -1.79263 0
M  V30 87 C 8.6055 -3.25119 1.2688 0
M  V30 88 C 9.9535 -4.01403 1.38423 0
M  V30 89 O 10.9775 -3.34473 1.22501 0
M  V30 90 O 9.8365 -5.21265 1.64151 0
M  V30 91 H 6.9305 -0.798761 0.214266 0
M  V30 92 H 9.4765 -1.28019 1.11396 0
M  V30 93 H 8.2485 -3.15932 2.30873 0
M  V30 94 H 7.8715 -3.90212 0.762917 0
M  V30 95 N 8.8686 -0.792821 -1.36206 0
M  V30 96 C 9.7986 -0.207853 -2.32573 0
M  V30 97 C 10.7796 0.659055 -1.56813 0
M  V30 98 O 11.9646 0.592176 -1.84951 0
M  V30 99 C 9.0946 0.655449 -3.41059 0
M  V30 100 C 8.0486 -0.111842 -4.27854 0
M  V30 101 C 7.3746 0.872274 -5.27537 0
M  V30 102 C 8.6746 -1.30299 -5.05786 0
M  V30 103 H 10.3686 -1.01294 -2.81744 0
M  V30 104 H 7.9146 -0.48854 -1.3546 0
M  V30 105 H 9.8676 1.07464 -4.07467 0
M  V30 106 H 8.5916 1.49328 -2.90463 0
M  V30 107 H 7.2506 -0.512053 -3.63006 0
M  V30 108 H 6.8986 1.70523 -4.73214 0
M  V30 109 H 6.5986 0.363291 -5.86476 0
M  V30 110 H 8.1226 1.28996 -5.96818 0
M  V30 111 H 9.5366 -0.959379 -5.65216 0
M  V30 112 H 7.9336 -1.7455 -5.74154 0
M  V30 113 H 9.0036 -2.09663 -4.37229 0
M  V30 114 N 10.3467 1.47872 -0.545128 0
M  V30 115 C 11.5717 2.07391 -0.0190611 0
M  V30 116 C 11.9967 1.39688 1.25971 0
M  V30 117 O 11.3547 0.467816 1.7516 0
M  V30 118 C 11.4027 3.60188 0.172335 0
M  V30 119 O 10.5067 3.9339 1.23766 0
M  V30 120 H 9.8477 0.662411 -0.0459059 0
M  V30 121 H 12.3777 1.90066 -0.757365 0
M  V30 122 H 12.3877 4.06129 0.390305 0
M  V30 123 H 11.0627 4.08865 -0.761725 0
M  V30 124 H 9.6397 3.5921 1.00114 0
M  V30 125 N 11.8248 0.280983 1.55075 0
M  V30 126 C 13.0718 -0.334115 1.99725 0
M  V30 127 C 13.3998 -1.5542 1.1694 0
M  V30 128 O 12.6548 -1.94361 0.228531 0
M  V30 129 C 12.9538 -0.754656 3.49342 0
M  V30 130 C 12.6198 0.361445 4.49449 0
M  V30 131 C 11.2818 0.667893 4.76542 0
M  V30 132 C 13.6338 1.11322 5.09173 0
M  V30 133 C 10.9618 1.7296 5.60626 0
M  V30 134 C 13.3138 2.1647 5.9441 0
M  V30 135 C 11.9778 2.47742 6.19822 0
M  V30 136 H 11.2478 -0.122261 0.730844 0
M  V30 137 H 13.8948 0.395917 1.87363 0
M  V30 138 H 12.1998 -1.56446 3.5921 0
M  V30 139 H 13.8968 -1.24142 3.813 0
M  V30 140 H 10.4868 0.112481 4.28452 0
M  V30 141 H 14.6708 0.88973 4.8826 0
M  V30 142 H 9.9268 1.97684 5.78559 0
M  V30 143 H 14.1008 2.75193 6.3972 0
M  V30 144 H 11.7278 3.30145 6.84769 0
M  V30 145 N 13.3029 -1.57598 0.00835791 0
M  V30 146 C 14.2329 -2.1198 -0.979113 0
M  V30 147 C 15.2139 -1.03091 -1.35301 0
M  V30 148 O 16.3989 -1.30818 -1.43528 0
M  V30 149 C 13.5289 -2.62995 -2.26828 0
M  V30 150 C 12.4829 -3.76485 -2.03576 0
M  V30 151 C 11.8089 -4.13846 -3.38579 0
M  V30 152 C 13.1089 -5.0342 -1.39161 0
M  V30 153 H 14.8029 -2.94738 -0.526281 0
M  V30 154 H 12.3489 -1.41783 -0.251704 0
M  V30 155 H 14.3019 -2.99669 -2.96271 0
M  V30 156 H 13.0259 -1.7737 -2.7424 0
M  V30 157 H 11.6849 -3.40217 -1.36557 0
M  V30 158 H 11.3329 -3.25232 -3.83709 0
M  V30 159 H 11.0329 -4.90312 -3.23834 0
M  V30 160 H 12.5569 -4.53086 -4.09323 0
M  V30 161 H 13.9709 -5.37812 -1.98573 0
M  V30 162 H 12.3679 -5.84746 -1.34878 0
M  V30 163 H 13.4379 -4.83548 -0.361868 0
M  V30 164 N 14.781 0.264519 -1.55364 0
M  V30 165 C 16.006 1.01726 -1.80739 0
M  V30 166 C 16.431 1.78836 -0.583044 0
M  V30 167 O 15.789 1.75167 0.467566 0
M  V30 168 C 15.837 1.94482 -3.03659 0
M  V30 169 O 14.941 3.03386 -2.7934 0
M  V30 170 H 14.282 0.290395 -0.597132 0
M  V30 171 H 16.812 0.290854 -2.02522 0
M  V30 172 H 16.822 2.36278 -3.32621 0
M  V30 173 H 15.497 1.37772 -3.92418 0
M  V30 174 H 14.074 2.65844 -2.61498 0
M  V30 175 N 16.2591 1.48442 0.529413 0
M  V30 176 C 17.1691 1.6569 1.66084 0
M  V30 177 C 18.1851 0.539432 1.65427 0
M  V30 178 O 19.3611 0.810572 1.84368 0
M  V30 179 C 16.4261 1.69315 3.02545 0
M  V30 180 C 15.4871 2.92694 3.14052 0
M  V30 181 C 14.7201 2.96137 4.44003 0
M  V30 182 O 14.9431 2.07973 5.31134 0
M  V30 183 O 13.8771 3.88312 4.59888 0
M  V30 184 H 17.7031 2.61483 1.54469 0
M  V30 185 H 15.2881 1.3185 0.702567 0
M  V30 186 H 17.1701 1.74217 3.83701 0
M  V30 187 H 15.8451 0.766966 3.14483 0
M  V30 188 H 14.7521 2.93324 2.32189 0
M  V30 189 H 16.0851 3.84699 3.0703 0
M  V30 190 N 17.7372 -0.778329 1.37039 0
M  V30 191 C 18.6472 -1.92253 1.34446 0
M  V30 192 C 19.6632 -1.72267 0.244991 0
M  V30 193 O 20.8392 -1.95615 0.479258 0
M  V30 194 C 17.9042 -3.27282 1.144 0
M  V30 195 C 16.9652 -3.59969 2.33925 0
M  V30 196 C 16.1982 -4.88555 2.14825 0
M  V30 197 O 16.4212 -5.59113 1.12912 0
M  V30 198 O 15.3552 -5.20153 3.02861 0
M  V30 199 H 19.1812 -1.97392 2.30803 0
M  V30 200 H 16.7662 -0.920154 1.17701 0
M  V30 201 H 18.6482 -4.08062 1.05182 0
M  V30 202 H 17.3232 -3.23011 0.211124 0
M  V30 203 H 16.2302 -2.7945 2.48714 0
M  V30 204 H 17.5632 -3.68976 3.25757 0
M  V30 205 N 19.2153 -1.21501 -1.00376 0
M  V30 206 C 20.1253 -0.991447 -2.12621 0
M  V30 207 C 21.1413 0.0568446 -1.73907 0
M  V30 208 O 22.3173 -0.13348 -2.00957 0
M  V30 209 C 19.3823 -0.560312 -3.42142 0
M  V30 210 C 18.4433 -1.68096 -3.95022 0
M  V30 211 C 17.6763 -1.2703 -5.18362 0
M  V30 212 O 17.8993 -0.144438 -5.70217 0
M  V30 213 O 16.8333 -2.08269 -5.64719 0
M  V30 214 H 20.6593 -1.93158 -2.34358 0
M  V30 215 H 18.2443 -0.999999 -1.10997 0
M  V30 216 H 20.1263 -0.329724 -4.20108 0
M  V30 217 H 18.8013 0.351089 -3.2179 0
M  V30 218 H 17.7083 -1.96597 -3.18278 0
M  V30 219 H 19.0413 -2.56983 -4.19786 0
M  V30 220 N 20.6934 1.19889 -1.02296 0
M  V30 221 C 21.6404 2.22901 -0.598651 0
M  V30 222 C 22.6104 1.61588 0.384521 0
M  V30 223 O 23.7954 1.88697 0.282522 0
M  V30 224 C 20.9354 3.45063 0.0504476 0
M  V30 225 C 20.0484 4.20783 -0.978053 0
M  V30 226 C 19.1834 5.30356 -0.299338 0
M  V30 227 C 18.2224 5.97826 -1.31416 0
M  V30 228 N 17.3594 6.98975 -0.661667 0
M  V30 229 H 22.1994 2.58554 -1.48169 0
M  V30 230 H 19.7364 1.27039 -0.741584 0
M  V30 231 H 21.6944 4.14831 0.443971 0
M  V30 232 H 20.3244 3.10084 0.897097 0
M  V30 233 H 19.3764 3.50018 -1.48969 0
M  V30 234 H 20.6884 4.67109 -1.74958 0
M  V30 235 H 19.8424 6.06516 0.149347 0
M  V30 236 H 18.5814 4.85084 0.504445 0
M  V30 237 H 17.5864 5.20422 -1.77317 0
M  V30 238 H 18.8114 6.45183 -2.11933 0
M  V30 239 H 16.7574 6.55886 0.122132 0
M  V30 240 H 16.6744 7.43461 -1.37117 0
M  V30 241 H 17.9424 7.7914 -0.236785 0
M  V30 242 N 22.1715 0.800033 1.35784 0
M  V30 243 C 23.4485 0.30088 1.93272 0
M  V30 244 C 23.8285 -1.20857 1.73081 0
M  V30 245 O 23.1765 -2.00502 1.09596 0
M  V30 246 C 23.3865 0.70511 3.41803 0
M  V30 247 C 24.7345 0.690871 4.18942 0
M  V30 248 O 25.7585 0.646244 3.50289 0
M  V30 249 O 24.6175 0.74332 5.41421 0
M  V30 250 H 21.7115 0.0771605 0.823393 0
M  V30 251 H 24.2575 0.88329 1.449 0
M  V30 252 H 23.0295 1.74571 3.50201 0
M  V30 253 H 22.6525 0.0971541 3.97481 0
M  V30 254 N 23.6496 -1.47581 0.552962 0
M  V30 255 C 24.5796 -2.32762 -0.185451 0
M  V30 256 C 25.5606 -1.43527 -0.912905 0
M  V30 257 O 26.7456 -1.72388 -0.894201 0
M  V30 258 C 23.8756 -3.25219 -1.21859 0
M  V30 259 C 22.8296 -4.23661 -0.607864 0
M  V30 260 C 22.1556 -5.05413 -1.74533 0
M  V30 261 C 23.4556 -5.20481 0.435582 0
M  V30 262 H 25.1496 -2.94749 0.525684 0
M  V30 263 H 22.6956 -1.41738 0.254251 0
M  V30 264 H 24.6486 -3.8365 -1.7433 0
M  V30 265 H 23.3726 -2.61279 -1.95961 0
M  V30 266 H 22.0316 -3.66451 -0.104489 0
M  V30 267 H 21.6796 -4.3788 -2.47529 0
M  V30 268 H 21.3796 -5.72059 -1.34249 0
M  V30 269 H 22.9036 -5.66701 -2.27338 0
M  V30 270 H 24.3176 -5.733 -0.00290157 0
M  V30 271 H 22.7146 -5.95305 0.757067 0
M  V30 272 H 23.7846 -4.66217 1.33303 0
M  V30 273 N 25.1277 -0.289203 -1.54924 0
M  V30 274 C 26.3767 0.324231 -1.99077 0
M  V30 275 C 26.6897 1.5591 -1.18117 0
M  V30 276 O 27.8957 2.24637 -1.52481 0
M  V30 277 C 26.3517 0.628209 -3.54375 0
M  V30 278 C 25.9597 -0.587647 -4.44129 0
M  V30 279 C 27.7037 1.20349 -4.07083 0
M  V30 280 C 25.6107 -0.257475 -5.90839 0
M  V30 281 H 24.5407 0.124924 -0.743579 0
M  V30 282 H 27.1917 -0.396063 -1.79175 0
M  V30 283 H 25.5737 1.40778 -3.70132 0
M  V30 284 H 26.7477 -1.36418 -4.40144 0
M  V30 285 H 25.0627 -1.08074 -4.0213 0
M  V30 286 H 27.6597 1.46456 -5.14252 0
M  V30 287 H 28.0027 2.14195 -3.56968 0
M  V30 288 H 28.5357 0.485889 -3.94821 0
M  V30 289 H 25.2747 -1.16419 -6.45079 0
M  V30 290 H 24.7947 0.482018 -5.9786 0
M  V30 291 H 26.4737 0.145238 -6.46837 0
M  V30 292 N 26.6058 1.57591 -0.0167156 0
M  V30 293 C 27.5358 2.12496 0.967858 0
M  V30 294 C 28.5168 1.03807 1.34752 0
M  V30 295 O 29.7018 1.31577 1.42833 0
M  V30 296 C 26.8318 2.64194 2.25431 0
M  V30 297 C 25.7858 3.77559 2.01576 0
M  V30 298 C 25.1118 4.15636 3.36379 0
M  V30 299 C 26.4118 5.04151 1.36489 0
M  V30 300 H 28.1058 2.95013 0.510643 0
M  V30 301 H 25.6518 1.41915 0.244181 0
M  V30 302 H 27.6048 3.01236 2.94678 0
M  V30 303 H 26.3288 1.78821 2.73296 0
M  V30 304 H 24.9878 3.40937 1.34751 0
M  V30 305 H 24.6358 3.27263 3.81979 0
M  V30 306 H 24.3358 4.92022 3.21229 0
M  V30 307 H 25.8598 4.5525 4.06915 0
M  V30 308 H 27.2738 5.38857 1.95718 0
M  V30 309 H 25.6708 5.85453 1.31776 0
M  V30 310 H 26.7408 4.83733 0.336219 0
M  V30 311 N 28.0839 -0.256276 1.55502 0
M  V30 312 C 29.3089 -1.00766 1.81276 0
M  V30 313 C 29.7339 -1.78524 0.59252 0
M  V30 314 O 29.0919 -1.75413 -0.45827 0
M  V30 315 C 29.1399 -1.92869 3.04687 0
M  V30 316 O 28.2439 -3.019 2.80945 0
M  V30 317 H 27.5849 -0.287224 0.598664 0
M  V30 318 H 30.1149 -0.280109 2.02674 0
M  V30 319 H 30.1249 -2.34511 3.33869 0
M  V30 320 H 28.7999 -1.35689 3.93143 0
M  V30 321 H 27.3769 -2.64454 2.62904 0
M  V30 322 N 29.562 -1.4872 -0.521534 0
M  V30 323 C 30.808 -1.574 -1.27879 0
M  V30 324 C 31.141 -0.250817 -1.92573 0
M  V30 325 O 30.416 0.743934 -1.79711 0
M  V30 326 C 30.699 -2.71843 -2.36164 0
M  V30 327 C 30.552 -4.13893 -1.76105 0
M  V30 328 C 31.871 -2.82008 -3.37875 0
M  V30 329 H 28.99 -0.572941 -0.463581 0
M  V30 330 H 31.632 -1.80927 -0.580119 0
M  V30 331 H 29.782 -2.51914 -2.95756 0
M  V30 332 H 31.454 -4.45284 -1.20499 0
M  V30 333 H 29.697 -4.20498 -1.06601 0
M  V30 334 H 30.368 -4.89804 -2.5455 0
M  V30 335 H 32.844 -3.00086 -2.88249 0
M  V30 336 H 31.72 -3.63796 -4.11028 0
M  V30 337 H 31.981 -1.90511 -3.98946 0
M  V30 338 N 31.0401 0.771051 -1.3745 0
M  V30 339 C 31.9701 1.89827 -1.3597 0
M  V30 340 C 32.9511 1.68562 -0.228216 0
M  V30 341 O 34.1361 1.8941 -0.428675 0
M  V30 342 C 31.2661 3.2712 -1.16662 0
M  V30 343 C 30.2201 3.6295 -2.2683 0
M  V30 344 C 29.5461 4.98791 -1.92644 0
M  V30 345 C 30.8461 3.69627 -3.69017 0
M  V30 346 H 32.5401 1.91323 -2.30295 0
M  V30 347 H 30.0861 0.919082 -1.10855 0
M  V30 348 H 32.0391 4.05615 -1.14256 0
M  V30 349 H 30.7631 3.26059 -0.187926 0
M  V30 350 H 29.4221 2.86763 -2.28392 0
M  V30 351 H 29.0701 4.94271 -0.933021 0
M  V30 352 H 28.7701 5.23733 -2.66416 0
M  V30 353 H 30.2941 5.79685 -1.91826 0
M  V30 354 H 31.7081 4.38273 -3.69581 0
M  V30 355 H 30.1051 4.06067 -4.41848 0
M  V30 356 H 31.1751 2.70273 -4.02592 0
M  V30 357 N 32.5182 1.22032 0.997298 0
M  V30 358 C 33.4502 0.944263 2.08845 0
M  V30 359 C 34.4632 -0.0754663 1.62625 0
M  V30 360 O 35.6522 0.157994 1.77799 0
M  V30 361 C 32.7522 0.397723 3.36558 0
M  V30 362 C 31.9252 1.47362 4.11829 0
M  V30 363 C 30.9842 0.934951 5.17827 0
M  V30 364 O 30.0102 1.62016 5.45655 0
M  V30 365 N 31.2122 -0.245895 5.79979 0
M  V30 366 H 33.9772 1.88363 2.33109 0
M  V30 367 H 31.5382 1.12661 1.16272 0
M  V30 368 H 33.5302 0.0227771 4.04694 0
M  V30 369 H 32.1002 -0.446646 3.09393 0
M  V30 370 H 31.3202 2.02208 3.38386 0
M  V30 371 H 32.6082 2.19764 4.58891 0
M  V30 372 H 32.0062 -0.819475 5.59733 0
M  V30 373 H 30.5632 -0.562272 6.4937 0
M  V30 374 N 33.9963 -1.19345 1.0293 0
M  V30 375 C 35.4123 -1.41069 0.746446 0
M  V30 376 C 35.6123 -1.90078 -0.668776 0
M  V30 377 O 34.6683 -2.0778 -1.4347 0
M  V30 378 C 35.9813 -2.42141 1.78292 0
M  V30 379 C 37.5293 -2.55887 1.80252 0
M  V30 380 C 38.0043 -3.60214 2.8286 0
M  V30 381 N 39.4953 -3.67711 2.81679 0
M  V30 382 C 40.2303 -4.48128 3.57727 0
M  V30 383 N 39.7263 -5.32248 4.43491 0
M  V30 384 N 41.5193 -4.42782 3.46267 0
M  V30 385 H 33.6703 -0.858536 1.94275 0
M  V30 386 H 35.9333 -0.439541 0.839945 0
M  V30 387 H 35.6393 -2.13155 2.79746 0
M  V30 388 H 35.5133 -3.41323 1.60557 0
M  V30 389 H 37.9003 -2.84196 0.794757 0
M  V30 390 H 37.9813 -1.56858 2.02062 0
M  V30 391 H 37.6253 -3.32647 3.83807 0
M  V30 392 H 37.5553 -4.58895 2.58307 0
M  V30 393 H 40.0463 -3.07634 2.19476 0
M  V30 394 H 40.3593 -5.90729 4.98256 0
M  V30 395 H 38.7043 -5.31707 4.47564 0
M  V30 396 H 41.8953 -3.76107 2.78677 0
M  V30 397 H 42.0683 -5.05215 4.05785 0
M  V30 398 N 35.4744 -0.807222 -1.35358 0
M  V30 399 C 36.7514 -0.311126 -1.9311 0
M  V30 400 C 37.1314 1.19937 -1.73719 0
M  V30 401 O 36.4794 1.99918 -1.10657 0
M  V30 402 C 36.6894 -0.723226 -3.41424 0
M  V30 403 C 38.0374 -0.713078 -4.18569 0
M  V30 404 O 39.0614 -0.664811 -3.49941 0
M  V30 405 O 37.9204 -0.772022 -5.41019 0
M  V30 406 H 35.0144 -0.081526 -0.822972 0
M  V30 407 H 37.5604 -0.890962 -1.4443 0
M  V30 408 H 36.3324 -1.76426 -3.4927 0
M  V30 409 H 35.9554 -0.118232 -3.97424 0
M  V30 410 N 36.9525 1.47285 -0.560781 0
M  V30 411 C 37.8625 2.33846 0.187954 0
M  V30 412 C 38.8785 1.48412 0.908293 0
M  V30 413 O 40.0545 1.81332 0.876388 0
M  V30 414 C 37.1195 3.25178 1.2025 0
M  V30 415 C 36.1805 4.26504 0.489208 0
M  V30 416 C 35.4135 5.13472 1.45542 0
M  V30 417 O 35.6365 5.02959 2.6905 0
M  V30 418 O 34.5705 5.93902 0.977963 0
M  V30 419 H 38.3965 2.99177 -0.522177 0
M  V30 420 H 35.9815 1.45903 -0.321364 0
M  V30 421 H 37.8635 3.81584 1.78805 0
M  V30 422 H 36.5385 2.6247 1.89449 0
M  V30 423 H 35.4455 3.73847 -0.137627 0
M  V30 424 H 36.7785 4.91935 -0.161399 0
M  V30 425 N 38.4306 0.297415 1.54768 0
M  V30 426 C 39.3406 -0.58983 2.27064 0
M  V30 427 C 40.3566 -1.15144 1.30453 0
M  V30 428 O 41.5326 -1.17699 1.63428 0
M  V30 429 C 38.5976 -1.74714 2.9946 0
M  V30 430 C 37.6586 -1.21997 4.11601 0
M  V30 431 C 36.8916 -2.32212 4.80535 0
M  V30 432 O 37.1146 -3.52036 4.48806 0
M  V30 433 O 36.0486 -1.99106 5.68014 0
M  V30 434 H 39.8746 -0.00348199 3.037 0
M  V30 435 H 37.4596 0.0640035 1.49263 0
M  V30 436 H 39.3416 -2.42147 3.44881 0
M  V30 437 H 38.0166 -2.32016 2.25722 0
M  V30 438 H 36.9236 -0.511458 3.70587 0
M  V30 439 H 38.2566 -0.692419 4.87305 0
M  V30 440 N 39.9087 -1.5758 0.0250728 0
M  V30 441 C 41.1547 -1.91917 -0.655413 0
M  V30 442 C 41.4877 -0.901433 -1.72011 0
M  V30 443 O 40.7627 0.0764069 -1.9435 0
M  V30 444 C 41.0457 -3.36751 -1.27558 0
M  V30 445 C 40.8987 -4.49258 -0.220719 0
M  V30 446 C 42.2177 -3.81469 -2.19475 0
M  V30 447 H 39.3367 -0.697925 -0.23679 0
M  V30 448 H 41.9787 -1.89825 0.0815036 0
M  V30 449 H 40.1287 -3.38664 -1.90365 0
M  V30 450 H 41.8007 -4.59478 0.409601 0
M  V30 451 H 40.0437 -4.31415 0.454264 0
M  V30 452 H 40.7147 -5.47618 -0.694175 0
M  V30 453 H 43.1907 -3.81266 -1.66659 0
M  V30 454 H 42.0667 -4.83512 -2.59822 0
M  V30 455 H 42.3277 -3.16744 -3.08424 0
M  V30 456 N 41.3868 0.248026 -1.55636 0
M  V30 457 C 42.8028 0.596483 -1.48035 0
M  V30 458 C 43.0028 1.88386 -0.715039 0
M  V30 459 O 42.0588 2.51319 -0.243944 0
M  V30 460 C 43.3718 0.700258 -2.92433 0
M  V30 461 C 44.9198 0.792659 -3.02797 0
M  V30 462 C 45.3948 0.928005 -4.485 0
M  V30 463 N 46.8858 0.992903 -4.52433 0
M  V30 464 C 47.6208 1.11687 -5.62418 0
M  V30 465 N 47.1168 1.20645 -6.82214 0
M  V30 466 N 48.9098 1.14994 -5.50212 0
M  V30 467 H 41.0608 -0.597109 -2.03834 0
M  V30 468 H 43.3238 -0.205925 -0.925364 0
M  V30 469 H 43.0298 -0.175658 -3.51261 0
M  V30 470 H 42.9038 1.57255 -3.42857 0
M  V30 471 H 45.2908 1.65903 -2.4405 0
M  V30 472 H 45.3718 -0.104762 -2.55585 0
M  V30 473 H 45.0158 0.0661971 -5.07857 0
M  V30 474 H 44.9458 1.84045 -4.93391 0
M  V30 475 H 47.4368 0.935064 -3.66149 0
M  V30 476 H 47.7498 1.30008 -7.61786 0
M  V30 477 H 46.0948 1.17605 -6.84977 0
M  V30 478 H 49.2858 1.07643 -4.55555 0
M  V30 479 H 49.4588 1.24311 -6.35965 0
M  V30 480 N 42.8649 1.48995 0.513639 0
M  V30 481 C 43.8119 1.6473 1.61656 0
M  V30 482 C 44.7819 0.488984 1.58739 0
M  V30 483 O 45.9669 0.714478 1.76918 0
M  V30 484 C 43.1069 1.7082 2.99858 0
M  V30 485 C 42.2199 2.9787 3.12885 0
M  V30 486 C 41.3549 2.95017 4.41744 0
M  V30 487 C 40.3939 4.16702 4.48359 0
M  V30 488 N 39.5309 4.11832 5.68629 0
M  V30 489 H 44.3709 2.58909 1.47547 0
M  V30 490 H 41.9079 1.28382 0.71808 0
M  V30 491 H 43.8659 1.72331 3.79944 0
M  V30 492 H 42.4959 0.801181 3.12699 0
M  V30 493 H 41.5479 3.06029 2.25944 0
M  V30 494 H 42.8599 3.8786 3.13633 0
M  V30 495 H 42.0139 2.95021 5.30139 0
M  V30 496 H 40.7529 2.02784 4.43542 0
M  V30 497 H 39.7579 4.16955 3.58369 0
M  V30 498 H 40.9829 5.10113 4.48287 0
M  V30 499 H 38.9289 3.22428 5.71293 0
M  V30 500 H 38.8459 4.95543 5.7094 0
M  V30 501 H 40.1139 4.1592 6.59266 0
M  V30 502 N 44.343 -0.763751 1.37857 0
M  V30 503 C 45.306 -1.85889 1.34081 0
M  V30 504 C 46.306 -1.58949 0.243277 0
M  V30 505 O 47.496 -1.66882 0.499589 0
M  V30 506 C 44.628 -3.23176 1.08489 0
M  V30 507 H 45.821 -1.90648 2.31502 0
M  V30 508 H 43.374 -0.964367 1.23003 0
M  V30 509 H 44.109 -3.24091 0.116318 0
M  V30 510 H 43.894 -3.44124 1.8794 0
M  V30 511 H 45.384 -4.03254 1.08517 0
M  V30 512 N 45.8211 -1.22559 -0.990812 0
M  V30 513 C 47.0981 -0.959875 -1.70428 0
M  V30 514 C 47.4781 0.524455 -2.04481 0
M  V30 515 O 46.8261 1.49302 -1.72977 0
M  V30 516 C 47.0361 -1.85955 -2.95333 0
M  V30 517 C 48.3841 -2.11687 -3.68068 0
M  V30 518 O 49.4081 -1.8342 -3.05345 0
M  V30 519 O 48.2671 -2.59572 -4.80921 0
M  V30 520 H 45.3611 -0.361154 -0.743974 0
M  V30 521 H 47.9071 -1.33554 -1.04697 0
M  V30 522 H 46.6791 -2.86346 -2.66687 0
M  V30 523 H 46.3021 -1.4856 -3.68803 0
M  V30 524 N 47.2992 1.18797 -1.03562 0
M  V30 525 C 48.2092 2.25913 -0.632505 0
M  V30 526 C 49.2252 1.70668 0.338882 0
M  V30 527 O 50.4012 2.00453 0.195076 0
M  V30 528 C 47.4662 3.467 0.00350942 0
M  V30 529 C 46.5272 4.17098 -1.01624 0
M  V30 530 C 45.7602 5.32119 -0.410478 0
M  V30 531 O 45.9832 5.64976 0.784725 0
M  V30 532 O 44.9172 5.9107 -1.13667 0
M  V30 533 H 48.7432 2.62648 -1.52478 0
M  V30 534 H 46.3282 1.25781 -0.806195 0
M  V30 535 H 48.2102 4.19878 0.35781 0
M  V30 536 H 46.8852 3.11798 0.869686 0
M  V30 537 H 45.7922 3.4601 -1.42224 0
M  V30 538 H 47.1252 4.55987 -1.85301 0
M  V30 539 N 48.7773 0.814389 1.34928 0
M  V30 540 C 49.7243 0.22822 2.29669 0
M  V30 541 C 50.6943 -0.642164 1.53184 0
M  V30 542 O 51.8793 -0.585605 1.81591 0
M  V30 543 C 49.0193 -0.61089 3.3965 0
M  V30 544 C 48.1323 0.280792 4.31086 0
M  V30 545 C 47.2673 -0.567067 5.28165 0
M  V30 546 C 46.3063 0.324531 6.11239 0
M  V30 547 N 45.4433 -0.483756 7.00431 0
M  V30 548 H 50.2833 1.04153 2.79206 0
M  V30 549 H 47.8203 0.525133 1.37407 0
M  V30 550 H 49.7783 -1.11263 4.0209 0
M  V30 551 H 48.4083 -1.38939 2.91369 0
M  V30 552 H 47.4603 0.900688 3.69583 0
M  V30 553 H 48.7723 0.966723 4.89342 0
M  V30 554 H 47.9263 -1.13363 5.96015 0
M  V30 555 H 46.6653 -1.28654 4.70425 0
M  V30 556 H 45.6703 0.903298 5.42329 0
M  V30 557 H 46.8953 1.04198 6.71059 0
M  V30 558 H 44.8413 -1.18706 6.45171 0
M  V30 559 H 44.7583 0.143965 7.55863 0
M  V30 560 H 46.0263 -1.03334 7.7262 0
M  V30 561 N 50.2554 -1.46986 0.568584 0
M  V30 562 C 51.6714 -1.57946 0.229189 0
M  V30 563 C 51.8714 -1.56567 -1.26843 0
M  V30 564 O 50.9274 -1.47511 -2.04931 0
M  V30 565 C 52.2404 -2.87963 0.865909 0
M  V30 566 C 53.7884 -3.01568 0.838188 0
M  V30 567 C 54.2634 -4.34301 1.45419 0
M  V30 568 N 55.7544 -4.40965 1.41788 0
M  V30 569 C 56.4894 -5.42256 1.86403 0
M  V30 570 N 55.9854 -6.50297 2.38926 0
M  V30 571 N 57.7784 -5.3337 1.77405 0
M  V30 572 H 49.9294 -1.46126 1.54146 0
M  V30 573 H 52.1924 -0.696156 0.643484 0
M  V30 574 H 51.8984 -2.94742 1.91886 0
M  V30 575 H 51.7724 -3.75423 0.365687 0
M  V30 576 H 54.1594 -2.94379 -0.206106 0
M  V30 577 H 54.2404 -2.1562 1.37629 0
M  V30 578 H 53.8844 -4.42247 2.49761 0
M  V30 579 H 53.8144 -5.19 0.891435 0
M  V30 580 H 56.3054 -3.63484 1.03381 0
M  V30 581 H 56.6184 -7.23777 2.70863 0
M  V30 582 H 54.9634 -6.51155 2.42944 0
M  V30 583 H 58.1544 -4.47865 1.3614 0
M  V30 584 H 58.3274 -6.12169 2.12492 0
M  V30 585 N 51.7335 -0.305618 -1.54608 0
M  V30 586 C 52.9825 0.303098 -1.9941 0
M  V30 587 C 53.2955 1.54648 -1.19764 0
M  V30 588 O 54.5015 2.23007 -1.54855 0
M  V30 589 C 52.9575 0.590588 -3.55021 0
M  V30 590 C 52.5655 -0.634719 -4.43481 0
M  V30 591 C 54.3095 1.16025 -4.08336 0
M  V30 592 C 52.2165 -0.320126 -5.90533 0
M  V30 593 H 51.1465 0.117031 -0.744862 0
M  V30 594 H 53.7975 -0.415045 -1.78745 0
M  V30 595 H 52.1795 1.36845 -3.71604 0
M  V30 596 H 53.3535 -1.41079 -4.38672 0
M  V30 597 H 51.6685 -1.12333 -4.00962 0
M  V30 598 H 54.2655 1.40994 -5.15776 0
M  V30 599 H 54.6085 2.10397 -3.5922 0
M  V30 600 H 55.1415 0.443985 -3.95315 0
M  V30 601 H 51.8805 -1.23254 -6.43808 0
M  V30 602 H 51.4005 0.418579 -5.98338 0
M  V30 603 H 53.0795 0.0766241 -6.46955 0
M  V30 604 N 53.2116 1.57565 -0.0334293 0
M  V30 605 C 54.6276 1.56297 0.322997 0
M  V30 606 C 54.8276 1.03945 1.7262 0
M  V30 607 O 53.8836 0.688109 2.42943 0
M  V30 608 C 55.1966 3.00232 0.167664 0
M  V30 609 C 56.7446 3.12078 0.240107 0
M  V30 610 C 57.2196 4.57859 0.113513 0
M  V30 611 N 58.7106 4.62887 0.170359 0
M  V30 612 C 59.4456 5.73319 0.0962517 0
M  V30 613 N 58.9416 6.92794 -0.0291881 0
M  V30 614 N 60.7346 5.61898 0.150551 0
M  V30 615 H 52.8856 1.89923 -0.950956 0
M  V30 616 H 55.1486 0.873824 -0.367608 0
M  V30 617 H 54.8546 3.42501 -0.799102 0
M  V30 618 H 54.7286 3.654 0.936083 0
M  V30 619 H 57.1156 2.69718 1.19733 0
M  V30 620 H 57.1966 2.49623 -0.558763 0
M  V30 621 H 56.8406 5.009 -0.840314 0
M  V30 622 H 56.7706 5.18299 0.931302 0
M  V30 623 H 59.2616 3.76954 0.26728 0
M  V30 624 H 59.5746 7.7276 -0.0789252 0
M  V30 625 H 57.9196 6.94971 -0.0640299 0
M  V30 626 H 61.1106 4.67448 0.246981 0
M  V30 627 H 61.2836 6.47938 0.0893365 0
M  V30 628 N 54.6897 -0.239769 1.55765 0
M  V30 629 C 56.1057 -0.588624 1.48349 0
M  V30 630 C 56.3057 -1.88005 0.72502 0
M  V30 631 O 55.3617 -2.51186 0.257269 0
M  V30 632 C 56.6747 -0.68474 2.928 0
M  V30 633 C 58.2227 -0.77659 3.03213 0
M  V30 634 C 58.6977 -0.904207 4.48986 0
M  V30 635 N 60.1887 -0.968896 4.52953 0
M  V30 636 C 60.9237 -1.08703 5.63002 0
M  V30 637 N 60.4197 -1.17026 6.82845 0
M  V30 638 N 62.2127 -1.12074 5.50814 0
M  V30 639 H 54.3637 0.607911 2.03515 0
M  V30 640 H 56.6267 0.21083 0.924259 0
M  V30 641 H 56.3327 0.194284 3.51163 0
M  V30 642 H 56.2067 -1.55435 3.43686 0
M  V30 643 H 58.5937 -1.64606 2.44926 0
M  V30 644 H 58.6747 0.118315 2.55526 0
M  V30 645 H 58.3187 -0.0392633 5.07885 0
M  V30 646 H 58.2487 -1.81426 4.9436 0
M  V30 647 H 60.7397 -0.915633 3.6664 0
M  V30 648 H 61.0527 -1.25966 7.62465 0
M  V30 649 H 59.3977 -1.13971 6.85591 0
M  V30 650 H 62.5887 -1.05226 4.5612 0
M  V30 651 H 62.7617 -1.20936 6.36615 0
M  V30 652 N 56.1678 -1.49265 -0.50573 0
M  V30 653 C 57.0978 -1.68495 -1.61653 0
M  V30 654 C 58.0788 -0.53366 -1.61512 0
M  V30 655 O 59.2638 -0.76897 -1.78327 0
M  V30 656 C 56.3938 -1.74709 -3.00157 0
M  V30 657 C 55.3478 -2.89581 -3.15162 0
M  V30 658 C 54.6738 -2.80903 -4.5497 0
M  V30 659 C 55.9738 -4.30578 -2.95634 0
M  V30 660 H 57.6678 -2.61493 -1.45814 0
M  V30 661 H 55.2138 -1.25838 -0.70005 0
M  V30 662 H 57.1668 -1.86748 -3.77761 0
M  V30 663 H 55.8908 -0.783067 -3.17074 0
M  V30 664 H 54.5498 -2.77136 -2.39982 0
M  V30 665 H 54.1978 -1.82419 -4.68756 0
M  V30 666 H 53.8978 -3.57999 -4.65951 0
M  V30 667 H 55.4218 -2.94944 -5.34641 0
M  V30 668 H 56.8358 -4.4373 -3.63011 0
M  V30 669 H 55.2328 -5.0886 -3.18091 0
M  V30 670 H 56.3028 -4.45352 -1.91806 0
M  V30 671 N 57.6459 0.756429 -1.3826 0
M  V30 672 C 58.5929 1.87011 -1.35261 0
M  V30 673 C 59.5629 1.64695 -0.215616 0
M  V30 674 O 60.7479 1.864 -0.407399 0
M  V30 675 C 57.8879 3.24275 -1.18068 0
M  V30 676 C 57.0009 3.58442 -2.41129 0
M  V30 677 C 56.1359 4.84994 -2.16689 0
M  V30 678 C 55.1749 5.11939 -3.35537 0
M  V30 679 N 54.3119 6.29685 -3.10549 0
M  V30 680 H 59.1519 1.8891 -2.30472 0
M  V30 681 H 56.6889 0.923373 -1.14509 0
M  V30 682 H 58.6469 4.03479 -1.06116 0
M  V30 683 H 57.2769 3.21711 -0.264973 0
M  V30 684 H 56.3289 2.74103 -2.63764 0
M  V30 685 H 57.6409 3.74283 -3.29717 0
M  V30 686 H 56.7949 5.72135 -2.01857 0
M  V30 687 H 55.5339 4.71286 -1.25462 0
M  V30 688 H 54.5389 4.23268 -3.50891 0
M  V30 689 H 55.7639 5.27546 -4.27635 0
M  V30 690 H 53.7099 6.17306 -2.21967 0
M  V30 691 H 53.6269 6.46014 -3.92686 0
M  V30 692 H 54.8949 7.19722 -2.99367 0
M  V30 693 N 59.124 1.23083 0.984299 0
M  V30 694 C 60.072 1.00593 2.09723 0
M  V30 695 C 61.066 -0.0538014 1.69315 0
M  V30 696 O 62.272 0.0993719 1.79725 0
M  V30 697 H 58.647 0.30817 0.685956 0
M  V30 698 H 60.618 1.95012 2.2586 0
M  V30 699 C 59.367 0.609601 3.42314 0
M  V30 700 H 58.69 1.41675 3.73856 0
M  V30 701 H 60.13 0.491726 4.21139 0
M  V30 702 C 58.589 -0.681745 3.2993 0
M  V30 703 O 59.119 -1.73192 3.62446 0
M  V30 704 N 57.325 -0.656178 2.83095 0
M  V30 705 H 56.872 0.198759 2.56832 0
M  V30 706 H 56.83 -1.52044 2.75191 0
M  V30 707 N 60.6021 -1.18246 1.0419 0
M  V30 708 C 61.5121 -2.25574 0.644476 0
M  V30 709 C 62.5281 -1.70845 -0.329826 0
M  V30 710 O 63.7041 -2.00554 -0.184443 0
M  V30 711 C 60.7691 -3.46697 0.014877 0
M  V30 712 C 59.8301 -4.16554 1.03834 0
M  V30 713 C 59.0631 -5.31894 0.438692 0
M  V30 714 O 59.2861 -5.65385 -0.754752 0
M  V30 715 O 58.2201 -5.90459 1.168 0
M  V30 716 H 62.0461 -2.61836 1.53869 0
M  V30 717 H 59.6311 -1.25352 0.812854 0
M  V30 718 H 61.5131 -4.20062 -0.335538 0
M  V30 719 H 60.1881 -3.12255 -0.853138 0
M  V30 720 H 59.0951 -3.45251 1.44057 0
M  V30 721 H 60.4281 -4.54998 1.87716 0
M  V30 722 N 62.0802 -0.821533 -1.34494 0
M  V30 723 C 63.0102 -0.257138 -2.3208 0
M  V30 724 C 63.9912 0.625645 -1.58176 0
M  V30 725 O 65.1762 0.552811 -1.86166 0
M  V30 726 C 62.3062 0.582958 -3.42372 0
M  V30 727 C 61.2602 -0.202571 -4.2752 0
M  V30 728 C 60.5862 0.760179 -5.29269 0
M  V30 729 C 61.8862 -1.40998 -5.02908 0
M  V30 730 H 63.5802 -1.07247 -2.79532 0
M  V30 731 H 61.1262 -0.517163 -1.34393 0
M  V30 732 H 63.0792 0.987972 -4.09655 0
M  V30 733 H 61.8032 1.43133 -2.93565 0
M  V30 734 H 60.4622 -0.588936 -3.61838 0
M  V30 735 H 60.1102 1.60447 -4.76724 0
M  V30 736 H 59.8102 0.238809 -5.87115 0
M  V30 737 H 61.3342 1.16308 -5.9942 0
M  V30 738 H 62.7482 -1.07905 -5.63054 0
M  V30 739 H 61.1452 -1.86689 -5.70322 0
M  V30 740 H 62.2152 -2.1889 -4.32684 0
M  V30 741 N 63.5583 1.46682 -0.576371 0
M  V30 742 C 64.4883 2.33028 0.148397 0
M  V30 743 C 65.4693 1.44961 0.889956 0
M  V30 744 O 66.6543 1.73789 0.866662 0
M  V30 745 C 63.7843 3.27117 1.1667 0
M  V30 746 C 62.7383 4.24575 0.540386 0
M  V30 747 C 62.0643 5.08126 1.6647 0
M  V30 748 C 63.3643 5.19722 -0.518331 0
M  V30 749 H 65.0583 2.93875 -0.572509 0
M  V30 750 H 62.6043 1.41315 -0.276768 0
M  V30 751 H 64.5573 3.86374 1.68204 0
M  V30 752 H 63.2813 2.64364 1.9178 0
M  V30 753 H 61.9403 3.66571 0.0461769 0
M  V30 754 H 61.5883 4.41762 2.40531 0
M  V30 755 H 61.2883 5.74122 1.25131 0
M  V30 756 H 62.8123 5.70246 2.18293 0
M  V30 757 H 64.2263 5.73232 -0.0883058 0
M  V30 758 H 62.6233 5.94026 -0.851679 0
M  V30 759 H 63.6933 4.64037 -1.40703 0
M  V30 760 N 65.0364 0.313813 1.54444 0
M  V30 761 C 65.9464 -0.565714 2.27677 0
M  V30 762 C 66.9624 -1.13754 1.31666 0
M  V30 763 O 68.1384 -1.15959 1.64668 0
M  V30 764 C 65.2034 -1.71528 3.01296 0
M  V30 765 C 64.2644 -1.17624 4.12872 0
M  V30 766 C 63.4974 -2.27102 4.8297 0
M  V30 767 O 63.7204 -3.47256 4.52514 0
M  V30 768 O 62.6544 -1.9307 5.70094 0
M  V30 769 H 66.4804 0.0287296 3.03686 0
M  V30 770 H 64.0654 0.0798312 1.49187 0
M  V30 771 H 65.9474 -2.38476 3.4743 0
M  V30 772 H 64.6224 -2.29608 2.2817 0
M  V30 773 H 63.5294 -0.472124 3.71109 0
M  V30 774 H 64.8624 -0.640695 4.88012 0
M  V30 775 N 66.5145 -1.57545 0.0417849 0
M  V30 776 C 67.7635 -1.91494 -0.633492 0
M  V30 777 C 68.0765 -0.921084 -1.72556 0
M  V30 778 O 69.2825 -1.15228 -2.45835 0
M  V30 779 C 67.7385 -3.40072 -1.17808 0
M  V30 780 C 67.3465 -4.47843 -0.118633 0
M  V30 781 C 69.0905 -3.8307 -1.82915 0
M  V30 782 C 66.9975 -5.87529 -0.675578 0
M  V30 783 H 65.9275 -0.714653 -0.24039 0
M  V30 784 H 68.5785 -1.83175 0.109148 0
M  V30 785 H 66.9605 -3.43364 -1.97274 0
M  V30 786 H 68.1345 -4.56128 0.654494 0
M  V30 787 H 66.4495 -4.14128 0.434414 0
M  V30 788 H 69.0465 -4.84794 -2.25563 0
M  V30 789 H 69.3895 -3.1881 -2.67705 0
M  V30 790 H 69.9225 -3.82255 -1.10119 0
M  V30 791 H 66.6615 -6.55362 0.134475 0
M  V30 792 H 66.1815 -5.82824 -1.4169 0
M  V30 793 H 67.8605 -6.36491 -1.1614 0
M  V30 794 N 67.9926 0.231505 -1.5589 0
M  V30 795 C 68.9396 1.28682 -1.91598 0
M  V30 796 C 69.9096 1.47071 -0.771974 0
M  V30 797 O 71.0946 1.60802 -1.027 0
M  V30 798 C 68.2346 2.6342 -2.22944 0
M  V30 799 C 67.3476 2.52912 -3.50228 0
M  V30 800 C 66.4826 3.80106 -3.7107 0
M  V30 801 C 65.5216 3.64279 -4.91902 0
M  V30 802 N 64.6586 4.834 -5.09184 0
M  V30 803 H 69.4986 0.975305 -2.81588 0
M  V30 804 H 67.0356 0.470299 -1.39379 0
M  V30 805 H 68.9936 3.41869 -2.39126 0
M  V30 806 H 67.6236 2.92687 -1.36139 0
M  V30 807 H 66.6756 1.6595 -3.42294 0
M  V30 808 H 67.9876 2.37133 -4.38827 0
M  V30 809 H 67.1416 4.66999 -3.87295 0
M  V30 810 H 65.8806 3.98799 -2.80733 0
M  V30 811 H 64.8856 2.7577 -4.75637 0
M  V30 812 H 66.1106 3.47067 -5.83714 0
M  V30 813 H 64.0566 5.02425 -4.21788 0
M  V30 814 H 63.9736 4.70311 -5.91898 0
M  V30 815 H 65.2416 5.71747 -5.29835 0
M  V30 816 N 69.4707 1.49531 0.497807 0
M  V30 817 C 70.8867 1.36365 0.829266 0
M  V30 818 C 71.0867 0.399184 1.97506 0
M  V30 819 O 70.1427 -0.167977 2.51941 0
M  V30 820 C 71.4557 2.77153 1.16647 0
M  V30 821 C 73.0037 2.85877 1.27449 0
M  V30 822 C 73.4787 4.2744 1.64497 0
M  V30 823 N 74.9697 4.30265 1.7154 0
M  V30 824 C 75.7047 5.3677 2.01656 0
M  V30 825 N 75.2007 6.53516 2.29976 0
M  V30 826 N 76.9937 5.24189 2.02934 0
M  V30 827 H 69.1447 2.10831 -0.257703 0
M  V30 828 H 71.4077 0.946534 -0.0527091 0
M  V30 829 H 71.1137 3.49442 0.397872 0
M  V30 830 H 70.9877 3.12722 2.10915 0
M  V30 831 H 73.3747 2.13824 2.0338 0
M  V30 832 H 73.4557 2.53887 0.312244 0
M  V30 833 H 73.0997 5.00021 0.891151 0
M  V30 834 H 73.0297 4.56896 2.61827 0
M  V30 835 H 75.5207 3.4607 1.51802 0
M  V30 836 H 75.8337 7.30506 2.52153 0
M  V30 837 H 74.1787 6.56737 2.27425 0
M  V30 838 H 77.3697 4.31988 1.80289 0
M  V30 839 H 77.5427 6.07286 2.26071 0
M  V30 840 N 70.9488 -0.749086 1.3866 0
M  V30 841 C 71.8958 -1.86291 1.36251 0
M  V30 842 C 72.8658 -1.64578 0.224347 0
M  V30 843 O 74.0508 -1.86181 0.417279 0
M  V30 844 C 71.1908 -3.23644 1.19786 0
M  V30 845 C 70.3038 -3.57158 2.43027 0
M  V30 846 C 69.4388 -4.83838 2.19258 0
M  V30 847 C 68.4778 -5.10152 3.38247 0
M  V30 848 N 67.6148 -6.28029 3.13884 0
M  V30 849 H 72.4548 -1.87685 2.3147 0
M  V30 850 H 69.9918 -0.917287 1.14997 0
M  V30 851 H 71.9498 -4.0291 1.08254 0
M  V30 852 H 70.5798 -3.21566 0.282031 0
M  V30 853 H 69.6318 -2.72701 2.65214 0
M  V30 854 H 70.9438 -3.7253 3.31697 0
M  V30 855 H 70.0978 -5.71057 2.04888 0
M  V30 856 H 68.8368 -4.70614 1.2796 0
M  V30 857 H 67.8418 -4.21401 3.53131 0
M  V30 858 H 69.0668 -5.25271 4.30427 0
M  V30 859 H 67.0128 -6.1612 2.25238 0
M  V30 860 H 66.9298 -6.43922 3.96106 0
M  V30 861 H 68.1978 -7.18124 3.03179 0
M  V30 862 N 72.4269 -1.23603 -0.977757 0
M  V30 863 C 73.6749 -1.06759 -1.71601 0
M  V30 864 C 73.9959 0.395929 -1.90938 0
M  V30 865 O 73.2659 1.28356 -1.47992 0
M  V30 866 H 71.8459 -0.392062 -0.635843 0
M  V30 867 H 74.5079 -1.55362 -1.1768 0
M  V30 868 H 73.6039 -1.55763 -2.70452 0
M  V30 869 N 73.905 1.17692 -1.04816 0
M  V30 870 C 74.868 2.19787 -0.650117 0
M  V30 871 C 75.868 1.58044 0.296427 0
M  V30 872 O 77.058 1.74012 0.0808097 0
M  V30 873 C 74.19 3.40869 0.0456987 0
M  V30 874 H 75.383 2.56516 -1.5537 0
M  V30 875 H 72.936 1.31708 -0.841594 0
M  V30 876 H 73.671 3.09681 0.962726 0
M  V30 877 H 73.456 3.86928 -0.634727 0
M  V30 878 H 74.946 4.16445 0.310432 0
M  V30 879 N 75.3831 0.828654 1.34056 0
M  V30 880 C 76.3301 0.252567 2.29414 0
M  V30 881 C 77.3001 -0.62588 1.53857 0
M  V30 882 O 78.4851 -0.566312 1.82202 0
M  V30 883 C 75.6251 -0.574831 3.40279 0
M  V30 884 C 74.7381 0.326499 4.30764 0
M  V30 885 C 73.8731 -0.511016 5.28736 0
M  V30 886 C 72.9121 0.389342 6.1086 0
M  V30 887 N 72.0491 -0.409439 7.00905 0
M  V30 888 H 76.8891 1.07108 2.78086 0
M  V30 889 H 74.4261 0.539677 1.36843 0
M  V30 890 H 76.3841 -1.06992 4.03248 0
M  V30 891 H 75.0141 -1.35841 2.92826 0
M  V30 892 H 74.0661 0.939837 3.68607 0
M  V30 893 H 75.3781 1.01857 4.88289 0
M  V30 894 H 74.5321 -1.07035 5.97184 0
M  V30 895 H 73.2711 -1.23657 4.71763 0
M  V30 896 H 72.2761 0.960769 5.4134 0
M  V30 897 H 73.5011 1.1131 6.69916 0
M  V30 898 H 71.4471 -1.11856 6.46393 0
M  V30 899 H 71.3641 0.224126 7.55668 0
M  V30 900 H 72.6321 -0.951336 7.73673 0
M  V30 901 N 76.8612 -1.46375 0.584142 0
M  V30 902 C 78.2772 -1.57694 0.245929 0
M  V30 903 C 78.4772 -1.57903 -1.25175 0
M  V30 904 O 77.5332 -1.49676 -2.03355 0
M  V30 905 C 78.8462 -2.87028 0.896402 0
M  V30 906 C 80.3942 -3.00662 0.870127 0
M  V30 907 C 80.8692 -4.32734 1.50017 0
M  V30 908 N 82.3602 -4.39436 1.46458 0
M  V30 909 C 83.0952 -5.40248 1.92144 0
M  V30 910 N 82.5912 -6.47726 2.4581 0
M  V30 911 N 84.3842 -5.31459 1.83052 0
M  V30 912 H 76.5352 -1.44483 1.55687 0
M  V30 913 H 78.7982 -0.689291 0.650831 0
M  V30 914 H 78.5042 -2.9269 1.95002 0
M  V30 915 H 78.3782 -3.75014 0.405486 0
M  V30 916 H 80.7652 -2.94581 -0.174871 0
M  V30 917 H 80.8462 -2.14148 1.39908 0
M  V30 918 H 80.4902 -4.39573 2.54437 0
M  V30 919 H 80.4202 -5.18025 0.946432 0
M  V30 920 H 82.9112 -3.62367 1.07231 0
M  V30 921 H 83.2242 -7.20863 2.78525 0
M  V30 922 H 81.5692 -6.48542 2.49836 0
M  V30 923 H 84.7602 -4.46396 1.40883 0
M  V30 924 H 84.9332 -6.09881 2.18973 0
M  V30 925 N 78.3393 -0.321999 -1.54275 0
M  V30 926 C 79.5873 0.280489 -2.00144 0
M  V30 927 C 79.9083 1.52777 -1.21178 0
M  V30 928 O 79.1783 1.9338 -0.313187 0
M  V30 929 H 77.7583 0.106632 -0.73935 0
M  V30 930 H 80.4203 -0.438184 -1.8991 0
M  V30 931 H 79.5163 0.537972 -3.07428 0
M  V30 932 N 79.8174 1.5752 -0.0501392 0
M  V30 933 C 81.0424 1.97376 0.636997 0
M  V30 934 C 81.4674 0.927466 1.63645 0
M  V30 935 O 80.8254 -0.10941 1.8097 0
M  V30 936 C 80.8734 3.36304 1.30123 0
M  V30 937 O 79.9774 3.34156 2.41689 0
M  V30 938 H 79.3184 0.642998 0.165679 0
M  V30 939 H 81.8484 2.04258 -0.118233 0
M  V30 940 H 81.8584 3.73008 1.65315 0
M  V30 941 H 80.5334 4.11993 0.568746 0
M  V30 942 H 79.1104 3.09196 2.08451 0
M  V30 943 N 81.2955 -0.223234 1.56011 0
M  V30 944 C 82.2275 -1.30006 1.88762 0
M  V30 945 C 83.2405 -1.43129 0.775746 0
M  V30 946 O 84.4295 -1.44057 1.05403 0
M  V30 947 C 81.5295 -2.67589 2.07965 0
M  V30 948 C 80.7025 -2.76434 3.38973 0
M  V30 949 C 79.7615 -3.95019 3.47629 0
M  V30 950 O 78.7875 -3.83436 4.20672 0
M  V30 951 N 79.9895 -5.09249 2.78649 0
M  V30 952 H 82.7545 -1.02238 2.81722 0
M  V30 953 H 80.3155 -0.413278 1.56536 0
M  V30 954 H 82.3075 -3.45297 2.11073 0
M  V30 955 H 80.8775 -2.87964 1.21638 0
M  V30 956 H 80.0975 -1.85216 3.47978 0
M  V30 957 H 81.3855 -2.79313 4.25278 0
M  V30 958 H 80.7835 -5.21556 2.19081 0
M  V30 959 H 79.3405 -5.85007 2.8742 0
M  V30 960 N 82.7736 -1.49793 -0.48987 0
M  V30 961 C 83.7236 -1.63673 -1.5873 0
M  V30 962 C 84.7076 -0.491956 -1.53195 0
M  V30 963 O 85.8996 -0.745461 -1.60536 0
M  V30 964 C 83.0286 -1.71689 -2.97284 0
M  V30 965 C 82.1146 -2.91781 -3.07774 0
M  V30 966 N 82.5056 -4.15714 -2.88124 0
M  V30 967 C 80.8036 -2.89949 -3.38889 0
M  V30 968 C 81.5046 -4.965 -3.03088 0
M  V30 969 N 80.4806 -4.30083 -3.3246 0
M  V30 970 H 84.2826 -2.57204 -1.42208 0
M  V30 971 H 81.7966 -1.46719 -0.69623 0
M  V30 972 H 83.7936 -1.79732 -3.76168 0
M  V30 973 H 82.4536 -0.793024 -3.14867 0
M  V30 974 H 83.4646 -4.45515 -2.64077 0
M  V30 975 H 80.1416 -2.06987 -3.62578 0
M  V30 976 H 81.5316 -6.04991 -2.92294 0
M  V30 977 N 84.2517 0.741722 -1.39055 0
M  V30 978 C 85.4817 1.52876 -1.3897 0
M  V30 979 C 85.8897 1.8919 0.0193266 0
M  V30 980 O 85.2327 1.54138 0.999356 0
M  V30 981 C 85.2947 2.84929 -2.19216 0
M  V30 982 C 84.9587 2.71086 -3.67915 0
M  V30 983 C 85.9557 2.40084 -4.61146 0
M  V30 984 C 83.6407 2.88168 -4.11418 0
M  V30 985 C 85.6347 2.26335 -5.95862 0
M  V30 986 C 83.3217 2.74037 -5.46211 0
M  V30 987 C 84.3197 2.43166 -6.38247 0
M  V30 988 O 84.0077 2.29115 -7.70559 0
M  V30 989 H 83.7397 0.479252 -0.476753 0
M  V30 990 H 86.2937 0.924751 -1.83405 0
M  V30 991 H 84.5237 3.47564 -1.69518 0
M  V30 992 H 86.2127 3.46509 -2.11392 0
M  V30 993 H 86.9787 2.26545 -4.28838 0
M  V30 994 H 82.8577 3.11191 -3.40119 0
M  V30 995 H 86.4017 2.0216 -6.67665 0
M  V30 996 H 82.2987 2.87153 -5.78112 0
M  V30 997 H 83.0667 2.44237 -7.81211 0
M  V30 998 N 85.7298 1.2412 0.971189 0
M  V30 999 C 86.9548 1.10667 1.75407 0
M  V30 1000 C 87.3798 -0.337048 1.85056 0
M  V30 1001 O 86.7378 -1.24396 1.31892 0
M  V30 1002 C 86.7858 1.74726 3.15441 0
M  V30 1003 O 85.8898 1.01566 3.99697 0
M  V30 1004 H 85.2308 0.387341 0.539317 0
M  V30 1005 H 87.7608 1.64358 1.2185 0
M  V30 1006 H 87.7708 1.80341 3.6598 0
M  V30 1007 H 86.4458 2.79773 3.07734 0
M  V30 1008 H 85.0228 1.03713 3.58187 0
M  V30 1009 N 87.2079 -1.17134 1.05439 0
M  V30 1010 C 88.4849 -1.83411 0.679699 0
M  V30 1011 C 88.8649 -1.9368 -0.839726 0
M  V30 1012 O 88.2129 -1.47325 -1.74664 0
M  V30 1013 C 88.4229 -3.20918 1.37159 0
M  V30 1014 C 89.7709 -3.96796 1.51123 0
M  V30 1015 O 90.7949 -3.30406 1.3308 0
M  V30 1016 O 89.6539 -5.15778 1.80651 0
M  V30 1017 H 86.7479 -0.79154 0.239569 0
M  V30 1018 H 89.2939 -1.24411 1.15413 0
M  V30 1019 H 88.0659 -3.08428 2.40807 0
M  V30 1020 H 87.6889 -3.87587 0.886674 0
M  V30 1021 N 88.686 -0.835752 -1.33615 0
M  V30 1022 C 90.102 -0.523139 -1.50783 0
M  V30 1023 C 90.302 0.950171 -1.77691 0
M  V30 1024 O 89.358 1.73411 -1.83534 0
M  V30 1025 C 90.671 -1.39378 -2.66448 0
M  V30 1026 C 92.219 -1.39223 -2.80332 0
M  V30 1027 C 92.694 -2.24765 -3.99055 0
M  V30 1028 N 94.185 -2.22458 -4.06284 0
M  V30 1029 C 94.92 -2.85386 -4.97336 0
M  V30 1030 N 94.416 -3.57354 -5.93523 0
M  V30 1031 N 96.209 -2.74872 -4.90308 0
M  V30 1032 H 88.36 -1.78952 -1.14411 0
M  V30 1033 H 90.623 -0.763297 -0.562212 0
M  V30 1034 H 90.329 -2.44061 -2.53234 0
M  V30 1035 H 90.203 -1.0676 -3.61776 0
M  V30 1036 H 92.59 -0.353136 -2.92979 0
M  V30 1037 H 92.671 -1.75846 -1.85773 0
M  V30 1038 H 92.315 -3.28732 -3.87167 0
M  V30 1039 H 92.245 -1.85485 -4.92852 0
M  V30 1040 H 94.736 -1.70119 -3.37443 0
M  V30 1041 H 95.049 -4.02584 -6.59656 0
M  V30 1042 H 93.394 -3.61461 -5.93608 0
M  V30 1043 H 96.585 -2.18213 -4.14126 0
M  V30 1044 H 96.758 -3.24199 -5.61069 0
M  V30 1045 N 90.1641 1.46063 -0.591896 0
M  V30 1046 C 91.3921 2.06717 -0.0868936 0
M  V30 1047 C 91.8071 1.43916 1.22203 0
M  V30 1048 O 91.1641 0.547698 1.74088 0
M  V30 1049 C 91.2151 3.6142 0.0758725 0
M  V30 1050 O 90.9361 4.21874 -1.18126 0
M  V30 1051 C 92.4371 4.39025 0.61416 0
M  V30 1052 H 89.6571 0.668162 -0.0616518 0
M  V30 1053 H 92.2011 1.8755 -0.815175 0
M  V30 1054 H 90.3561 3.79983 0.754413 0
M  V30 1055 H 90.7701 5.14861 -1.00092 0
M  V30 1056 H 92.2441 5.4783 0.677193 0
M  V30 1057 H 92.7211 4.07708 1.63312 0
M  V30 1058 H 93.3271 4.2529 -0.0298142 0
M  V30 1059 N 91.6422 0.330177 1.54103 0
M  V30 1060 C 92.8822 -0.270916 2.02597 0
M  V30 1061 C 93.2462 -1.48826 1.21304 0
M  V30 1062 O 94.4472 -2.16266 1.59633 0
M  V30 1063 C 92.7182 -0.590328 3.52491 0
M  V30 1064 S 94.2772 -1.17014 4.2291 0
M  V30 1065 H 91.0952 -0.0815379 0.706309 0
M  V30 1066 H 93.6972 0.464835 1.89893 0
M  V30 1067 H 92.4012 0.303691 4.09275 0
M  V30 1068 H 91.9322 -1.3561 3.69288 0
M  V30 1069 H 93.9472 -2.45662 4.3112 0
M  V30 1070 N 93.1203 -1.57491 0.0584922 0
M  V30 1071 C 94.0833 -2.1085 -0.898617 0
M  V30 1072 C 95.0833 -1.02964 -1.23511 0
M  V30 1073 O 96.2733 -1.29007 -1.17059 0
M  V30 1074 C 93.4053 -2.59881 -2.20623 0
M  V30 1075 H 94.5983 -2.96715 -0.435936 0
M  V30 1076 H 92.1513 -1.55141 -0.190023 0
M  V30 1077 H 92.8863 -1.77431 -2.71457 0
M  V30 1078 H 92.6713 -3.38727 -1.97501 0
M  V30 1079 H 94.1613 -3.01285 -2.89166 0
M  V30 1080 N 94.5984 0.214957 -1.56127 0
M  V30 1081 C 96.0144 0.564948 -1.49267 0
M  V30 1082 C 96.2144 1.86827 -0.754838 0
M  V30 1083 O 95.2704 2.50745 -0.297198 0
M  V30 1084 C 96.5834 0.638071 -2.93852 0
M  V30 1085 C 98.1314 0.728253 -3.0441 0
M  V30 1086 C 98.6064 0.832663 -4.50367 0
M  V30 1087 N 100.097 0.896712 -4.54437 0
M  V30 1088 C 100.832 0.997324 -5.6466 0
M  V30 1089 N 100.328 1.06147 -6.8462 0
M  V30 1090 N 102.121 1.03297 -5.52527 0
M  V30 1091 H 94.2724 -0.640211 -2.02522 0
M  V30 1092 H 96.5354 -0.225507 -0.920788 0
M  V30 1093 H 96.2414 -0.250126 -3.50809 0
M  V30 1094 H 96.1154 1.49947 -3.46115 0
M  V30 1095 H 98.5024 1.60689 -2.47514 0
M  V30 1096 H 98.5834 -0.158952 -2.55306 0
M  V30 1097 H 98.2274 -0.0415417 -5.07883 0
M  V30 1098 H 98.1574 1.73538 -4.97184 0
M  V30 1099 H 100.648 0.857188 -3.6805 0
M  V30 1100 H 100.961 1.1382 -7.64372 0
M  V30 1101 H 99.3064 1.03049 -6.87318 0
M  V30 1102 H 102.497 0.979558 -4.57736 0
M  V30 1103 H 102.67 1.10793 -6.38458 0
M  V30 1104 N 96.0765 1.50051 0.48192 0
M  V30 1105 C 97.3165 1.62128 1.24474 0
M  V30 1106 C 97.6805 0.309742 1.89485 0
M  V30 1107 O 98.8815 0.305854 2.67054 0
M  V30 1108 C 97.1525 2.76151 2.26882 0
M  V30 1109 S 98.7115 3.08297 3.12247 0
M  V30 1110 H 95.5295 0.571661 0.422759 0
M  V30 1111 H 98.1315 1.87791 0.54359 0
M  V30 1112 H 96.8355 3.69942 1.77683 0
M  V30 1113 H 96.3665 2.52541 3.0164 0
M  V30 1114 H 98.3815 2.51287 4.27866 0
M  V30 1115 N 97.5546 -0.734337 1.39446 0
M  V30 1116 C 98.4866 -1.85861 1.34121 0
M  V30 1117 C 99.4996 -1.60871 0.249864 0
M  V30 1118 O 100.689 -1.71093 0.508865 0
M  V30 1119 C 97.7886 -3.21899 1.05991 0
M  V30 1120 C 96.9616 -3.74239 2.26415 0
M  V30 1121 C 96.0206 -4.88841 1.94733 0
M  V30 1122 O 95.0466 -5.02468 2.67422 0
M  V30 1123 N 96.2486 -5.73261 0.913884 0
M  V30 1124 H 99.0136 -1.90934 2.31007 0
M  V30 1125 H 96.5746 -0.915102 1.33557 0
M  V30 1126 H 98.5666 -3.96136 0.828147 0
M  V30 1127 H 97.1366 -3.12091 0.178361 0
M  V30 1128 H 96.3566 -2.91347 2.65539 0
M  V30 1129 H 97.6446 -4.05942 3.06738 0
M  V30 1130 H 97.0426 -5.64842 0.311476 0
M  V30 1131 H 95.5996 -6.47563 0.742015 0
M  V30 1132 N 99.0327 -1.24633 -0.964593 0
M  V30 1133 C 99.9427 -1.05859 -2.09359 0
M  V30 1134 C 100.959 0.00148855 -1.74 0
M  V30 1135 O 102.135 -0.197346 -2.00431 0
M  V30 1136 C 99.1997 -0.668879 -3.40187 0
M  V30 1137 C 98.2607 -1.80578 -3.89474 0
M  V30 1138 C 97.4937 -1.43457 -5.14058 0
M  V30 1139 O 97.7167 -0.325775 -5.69469 0
M  V30 1140 O 96.6507 -2.2613 -5.57807 0
M  V30 1141 H 100.477 -2.00516 -2.28094 0
M  V30 1142 H 98.0617 -1.03481 -1.0776 0
M  V30 1143 H 99.9437 -0.463211 -4.18846 0
M  V30 1144 H 98.6187 0.248536 -3.22744 0
M  V30 1145 H 97.5257 -2.06623 -3.11862 0
M  V30 1146 H 98.8587 -2.70208 -4.11398 0
M  V30 1147 N 100.511 1.16574 -1.06058 0
M  V30 1148 C 101.736 1.91493 -0.796562 0
M  V30 1149 C 102.161 1.76773 0.642868 0
M  V30 1150 O 101.519 1.09142 1.44768 0
M  V30 1151 C 101.567 3.40293 -1.19303 0
M  V30 1152 O 100.671 4.11074 -0.330394 0
M  V30 1153 H 100.012 0.596678 -0.291326 0
M  V30 1154 H 102.542 1.47708 -1.41575 0
M  V30 1155 H 102.552 3.91057 -1.16356 0
M  V30 1156 H 101.227 3.50326 -2.24153 0
M  V30 1157 H 99.8038 3.70513 -0.421225 0
M  V30 1158 N 101.989 0.842826 1.3317 0
M  V30 1159 C 102.919 0.294028 2.31641 0
M  V30 1160 C 103.9 -0.600401 1.59151 0
M  V30 1161 O 105.085 -0.523124 1.87022 0
M  V30 1162 C 102.215 -0.528416 3.43257 0
M  V30 1163 C 101.169 0.27056 4.27144 0
M  V30 1164 C 100.495 -0.675881 5.30411 0
M  V30 1165 C 101.795 1.48981 5.00602 0
M  V30 1166 H 103.489 1.11681 2.77791 0
M  V30 1167 H 101.035 0.538478 1.33553 0
M  V30 1168 H 102.988 -0.922674 4.11175 0
M  V30 1169 H 101.712 -1.38445 2.95805 0
M  V30 1170 H 100.371 0.646427 3.60856 0
M  V30 1171 H 100.019 -1.52842 4.79216 0
M  V30 1172 H 99.7189 -0.145374 5.8742 0
M  V30 1173 H 101.243 -1.06757 6.01195 0
M  V30 1174 H 102.657 1.16849 5.61266 0
M  V30 1175 H 101.054 1.95739 5.6728 0
M  V30 1176 H 102.124 2.25746 4.29147 0
M  V30 1177 N 103.467 -1.45747 0.599634 0
M  V30 1178 C 104.715 -2.01893 0.0915472 0
M  V30 1179 C 105.036 -1.47155 -1.27946 0
M  V30 1180 O 104.306 -0.66273 -1.84349 0
M  V30 1181 H 102.886 -0.746363 0.0308524 0
M  V30 1182 H 105.548 -1.78645 0.779237 0
M  V30 1183 H 104.644 -3.1208 0.0353086 0
M  V30 1184 N 104.945 -0.338344 -1.53925 0
M  V30 1185 C 106.361 0.0137736 -1.59594 0
M  V30 1186 C 106.561 1.49186 -1.35447 0
M  V30 1187 O 105.617 2.24987 -1.14616 0
M  V30 1188 C 106.93 -0.41773 -2.97784 0
M  V30 1189 C 108.478 -0.369633 -3.1081 0
M  V30 1190 C 108.953 -0.776524 -4.51369 0
M  V30 1191 N 110.444 -0.730506 -4.57403 0
M  V30 1192 C 111.179 -1.01736 -5.64303 0
M  V30 1193 N 110.675 -1.3721 -6.79077 0
M  V30 1194 N 112.468 -0.941942 -5.54151 0
M  V30 1195 H 104.619 -1.3012 -1.67876 0
M  V30 1196 H 106.882 -0.530082 -0.78595 0
M  V30 1197 H 106.588 -1.44811 -3.20504 0
M  V30 1198 H 106.462 0.209729 -3.76616 0
M  V30 1199 H 108.849 0.651568 -2.87817 0
M  V30 1200 H 108.93 -1.03223 -2.34049 0
M  V30 1201 H 108.574 -1.79571 -4.75096 0
M  V30 1202 H 108.504 -0.0914649 -5.26521 0
M  V30 1203 H 110.995 -0.468783 -3.74981 0
M  V30 1204 H 111.308 -1.57597 -7.5656 0
M  V30 1205 H 109.653 -1.4105 -6.80536 0
M  V30 1206 H 112.844 -0.664184 -4.63364 0
M  V30 1207 H 113.017 -1.16884 -6.37371 0
M  V30 1208 N 106.423 1.57458 -0.0668435 0
M  V30 1209 C 107.353 2.15468 0.899764 0
M  V30 1210 C 108.334 1.08042 1.31381 0
M  V30 1211 O 109.519 1.36054 1.38574 0
M  V30 1212 C 106.649 2.71232 2.16911 0
M  V30 1213 C 105.603 3.83781 1.89463 0
M  V30 1214 C 104.929 4.26127 3.22986 0
M  V30 1215 C 106.229 5.08238 1.20381 0
M  V30 1216 H 107.923 2.96488 0.416529 0
M  V30 1217 H 105.469 1.4262 0.198908 0
M  V30 1218 H 107.422 3.10458 2.84945 0
M  V30 1219 H 106.146 1.87426 2.67468 0
M  V30 1220 H 104.805 3.45051 1.23836 0
M  V30 1221 H 104.453 3.39249 3.71374 0
M  V30 1222 H 104.153 5.01993 3.05413 0
M  V30 1223 H 105.677 4.67966 3.92225 0
M  V30 1224 H 107.091 5.44811 1.78475 0
M  V30 1225 H 105.488 5.89349 1.13083 0
M  V30 1226 H 106.558 4.84558 0.182153 0
M  V30 1227 N 107.901 -0.206675 1.56239 0
M  V30 1228 C 109.126 -0.949474 1.8439 0
M  V30 1229 C 109.551 -1.76549 0.649016 0
M  V30 1230 O 108.909 -1.76782 -0.402231 0
M  V30 1231 C 108.957 -1.83078 3.10668 0
M  V30 1232 O 108.061 -2.9281 2.90407 0
M  V30 1233 H 107.402 -0.268033 0.607499 0
M  V30 1234 H 109.932 -0.215488 2.03462 0
M  V30 1235 H 109.942 -2.2377 3.41161 0
M  V30 1236 H 108.617 -1.23112 3.97261 0
M  V30 1237 H 107.194 -2.55956 2.71184 0
M  V30 1238 N 109.379 -1.50304 -0.473955 0
M  V30 1239 C 110.79 -1.54042 -1.0549 0
M  V30 1240 C 111.141 -0.342248 -1.93192 0
M  V30 1241 O 110.266 0.545157 -2.09421 0
M  V30 1242 C 110.861 -2.79152 -1.91989 0
M  V30 1243 C 109.42 -2.8558 -2.45196 0
M  V30 1244 C 108.567 -2.48295 -1.2347 0
M  V30 1245 H 111.518 -1.5661 -0.256693 0
M  V30 1246 H 111.539 -2.60845 -2.7702 0
M  V30 1247 H 111.051 -3.66339 -1.28131 0
M  V30 1248 H 109.152 -2.02738 -3.12615 0
M  V30 1249 H 109.265 -3.88403 -2.80499 0
M  V30 1250 H 107.629 -2.00669 -1.56856 0
M  V30 1251 H 108.412 -3.37787 -0.612789 0
M  V30 1252 N 110.857 0.726932 -1.39834 0
M  V30 1253 C 111.804 1.841 -1.39197 0
M  V30 1254 C 112.774 1.642 -0.250502 0
M  V30 1255 O 113.959 1.85494 -0.446846 0
M  V30 1256 C 111.099 3.21697 -1.24919 0
M  V30 1257 C 110.212 3.53247 -2.48678 0
M  V30 1258 C 109.347 4.80289 -2.26928 0
M  V30 1259 C 108.386 5.04707 -3.4632 0
M  V30 1260 N 107.523 6.22956 -3.23836 0
M  V30 1261 H 112.363 1.83979 -2.34427 0
M  V30 1262 H 109.9 0.898876 -1.16442 0
M  V30 1263 H 111.858 4.01137 -1.1465 0
M  V30 1264 H 110.488 3.21076 -0.333153 0
M  V30 1265 H 109.54 2.68447 -2.69519 0
M  V30 1266 H 110.852 3.67205 -3.37582 0
M  V30 1267 H 110.006 5.67725 -2.13947 0
M  V30 1268 H 108.745 4.68519 -1.35431 0
M  V30 1269 H 107.75 4.1573 -3.5979 0
M  V30 1270 H 108.975 5.18357 -4.38729 0
M  V30 1271 H 106.921 6.12459 -2.35011 0
M  V30 1272 H 106.838 6.37539 -4.063 0
M  V30 1273 H 108.106 7.1321 -3.14566 0
M  V30 1274 N 112.336 1.25143 0.95797 0
M  V30 1275 C 113.564 1.12424 1.73691 0
M  V30 1276 C 113.979 -0.322304 1.86029 0
M  V30 1277 O 113.336 -1.22186 1.35561 0
M  V30 1278 C 113.387 1.76933 3.15241 0
M  V30 1279 O 113.108 3.15932 3.03511 0
M  V30 1280 C 114.609 1.6995 4.09429 0
M  V30 1281 H 111.829 0.3923 0.544373 0
M  V30 1282 H 114.373 1.6544 1.20207 0
M  V30 1283 H 112.528 1.27895 3.6568 0
M  V30 1284 H 112.942 3.47598 3.9278 0
M  V30 1285 H 114.416 2.19753 5.06372 0
M  V30 1286 H 114.893 0.662619 4.34173 0
M  V30 1287 H 115.499 2.18461 3.64904 0
M  V30 1288 N 113.814 -1.1601 1.06675 0
M  V30 1289 C 114.762 -2.22586 0.675157 0
M  V30 1290 C 115.756 -1.66525 -0.310766 0
M  V30 1291 O 116.962 -1.79145 -0.175215 0
M  V30 1292 H 113.337 -0.724855 0.200223 0
M  V30 1293 H 115.308 -2.52899 1.58381 0
M  V30 1294 C 114.057 -3.47604 0.0817162 0
M  V30 1295 H 113.38 -3.91058 0.831484 0
M  V30 1296 H 114.82 -4.23718 -0.154708 0
M  V30 1297 C 113.279 -3.15718 -1.17576 0
M  V30 1298 O 113.809 -3.31878 -2.26318 0
M  V30 1299 N 112.015 -2.69816 -1.07923 0
M  V30 1300 H 111.562 -2.56866 -0.194293 0
M  V30 1301 H 111.52 -2.48855 -1.92141 0
M  V30 1302 N 115.292 -0.849877 -1.32721 0
M  V30 1303 C 116.52 -0.464754 -2.01613 0
M  V30 1304 C 116.935 0.937191 -1.63897 0
M  V30 1305 O 116.292 1.61081 -0.857856 0
M  V30 1306 C 116.343 -0.588638 -3.56675 0
M  V30 1307 O 116.064 -1.93535 -3.93034 0
M  V30 1308 C 117.565 -0.2019 -4.4284 0
M  V30 1309 H 114.785 -0.183215 -0.645502 0
M  V30 1310 H 117.329 -1.1455 -1.69407 0
M  V30 1311 H 115.484 0.0443159 -3.87375 0
M  V30 1312 H 115.898 -1.92871 -4.87751 0
M  V30 1313 H 117.372 -0.339599 -5.50954 0
M  V30 1314 H 117.849 0.857224 -4.30753 0
M  V30 1315 H 118.455 -0.809733 -4.17521 0
M  V30 1316 N 116.77 1.45427 -0.607355 0
M  V30 1317 C 118.01 2.04128 -0.105458 0
M  V30 1318 C 118.374 1.46555 1.24039 0
M  V30 1319 O 119.575 1.96608 1.833 0
M  V30 1320 C 117.846 3.57338 -0.0665324 0
M  V30 1321 S 119.405 4.37201 0.374207 0
M  V30 1322 H 116.223 0.709278 -0.0494575 0
M  V30 1323 H 118.825 1.78139 -0.805404 0
M  V30 1324 H 117.529 3.96752 -1.04957 0
M  V30 1325 H 117.06 3.87902 0.655415 0
M  V30 1326 H 119.075 4.6888 1.62377 0
M  V30 1327 N 118.248 0.346503 1.53744 0
M  V30 1328 C 119.664 -0.00530975 1.59599 0
M  V30 1329 C 119.864 -1.48465 1.36236 0
M  V30 1330 O 118.92 -2.24376 1.15808 0
M  V30 1331 C 120.233 0.433516 2.97559 0
M  V30 1332 C 121.781 0.386111 3.10609 0
M  V30 1333 C 122.256 0.800451 4.50951 0
M  V30 1334 N 123.747 0.754753 4.5701 0
M  V30 1335 C 124.482 1.04727 5.63755 0
M  V30 1336 N 123.978 1.4081 6.7834 0
M  V30 1337 N 125.771 0.971316 5.53644 0
M  V30 1338 H 117.922 1.31009 1.67184 0
M  V30 1339 H 120.185 0.534242 0.783128 0
M  V30 1340 H 119.891 1.46509 3.19731 0
M  V30 1341 H 119.765 -0.189753 3.76722 0
M  V30 1342 H 122.152 -0.636295 2.88158 0
M  V30 1343 H 122.233 1.04462 2.33498 0
M  V30 1344 H 121.877 1.82088 4.74137 0
M  V30 1345 H 121.807 0.119386 5.26465 0
M  V30 1346 H 124.298 0.488662 3.74727 0
M  V30 1347 H 124.611 1.61607 7.55714 0
M  V30 1348 H 122.956 1.44657 6.79779 0
M  V30 1349 H 126.147 0.688748 4.63005 0
M  V30 1350 H 126.32 1.20263 6.36742 0
M  V30 1351 N 119.726 -1.57421 0.075193 0
M  V30 1352 C 120.974 -1.93236 -0.591974 0
M  V30 1353 C 121.295 -0.956241 -1.69944 0
M  V30 1354 O 120.565 -0.00494792 -1.95899 0
M  V30 1355 H 119.145 -0.713355 -0.22166 0
M  V30 1356 H 121.807 -1.9444 0.133848 0
M  V30 1357 H 120.903 -2.95131 -1.01509 0
M  V30 1358 N 121.204 0.198386 -1.56346 0
M  V30 1359 C 122.444 0.92609 -1.82217 0
M  V30 1360 C 122.808 1.80584 -0.652195 0
M  V30 1361 O 124.009 2.56907 -0.790716 0
M  V30 1362 C 122.28 1.72354 -3.13096 0
M  V30 1363 S 123.839 2.50371 -3.6036 0
M  V30 1364 H 120.657 0.310677 -0.639532 0
M  V30 1365 H 123.259 0.189755 -1.94577 0
M  V30 1366 H 121.963 1.0678 -3.96265 0
M  V30 1367 H 121.494 2.50175 -3.03605 0
M  V30 1368 H 123.509 3.74488 -3.25535 0
M  V30 1369 N 122.682 1.50554 0.465978 0
M  V30 1370 C 123.63 1.70324 1.58406 0
M  V30 1371 C 124.624 0.569139 1.59553 0
M  V30 1372 O 125.83 0.749776 1.63641 0
M  V30 1373 H 122.205 0.537688 0.525734 0
M  V30 1374 H 124.176 2.64104 1.38894 0
M  V30 1375 C 122.925 1.81928 2.96307 0
M  V30 1376 H 122.248 2.68586 2.96144 0
M  V30 1377 H 123.688 1.99784 3.73982 0
M  V30 1378 C 122.147 0.572095 3.32007 0
M  V30 1379 O 122.677 -0.286416 4.00678 0
M  V30 1380 N 120.883 0.424606 2.87481 0
M  V30 1381 H 120.43 1.12427 2.31771 0
M  V30 1382 H 120.388 -0.408697 3.11732 0
M  V30 1383 N 124.16 -0.719506 1.40217 0
M  V30 1384 C 125.11 -1.8251 1.36653 0
M  V30 1385 C 126.094 -1.59028 0.244732 0
M  V30 1386 O 127.286 -1.70268 0.483524 0
M  V30 1387 C 124.415 -3.20599 1.22763 0
M  V30 1388 C 123.501 -3.49858 2.39708 0
M  V30 1389 N 123.892 -3.49957 3.6519 0
M  V30 1390 C 122.19 -3.80297 2.33002 0
M  V30 1391 C 122.891 -3.77449 4.42614 0
M  V30 1392 N 121.867 -3.96002 3.72402 0
M  V30 1393 H 125.669 -1.80914 2.31619 0
M  V30 1394 H 123.183 -0.918455 1.33933 0
M  V30 1395 H 125.18 -3.99766 1.18292 0
M  V30 1396 H 123.84 -3.23424 0.287614 0
M  V30 1397 H 124.851 -3.309 3.98404 0
M  V30 1398 H 121.528 -3.90635 1.47346 0
M  V30 1399 H 122.918 -3.83863 5.51451 0
M  V30 1400 N 125.638 -1.25649 -0.95132 0
M  V30 1401 C 126.568 -1.08808 -2.06599 0
M  V30 1402 C 127.549 0.00382547 -1.701 0
M  V30 1403 O 128.734 -0.166325 -1.93486 0
M  V30 1404 C 125.864 -0.709542 -3.39975 0
M  V30 1405 C 124.818 -1.75206 -3.90496 0
M  V30 1406 C 124.144 -1.22811 -5.20405 0
M  V30 1407 C 125.444 -3.15153 -4.16504 0
M  V30 1408 H 127.138 -2.02048 -2.20946 0
M  V30 1409 H 124.684 -0.972835 -1.06169 0
M  V30 1410 H 126.637 -0.578649 -4.17408 0
M  V30 1411 H 125.361 0.258556 -3.25575 0
M  V30 1412 H 124.02 -1.87145 -3.15234 0
M  V30 1413 H 123.668 -0.250145 -5.02378 0
M  V30 1414 H 123.368 -1.92492 -5.55176 0
M  V30 1415 H 124.892 -1.10968 -6.00432 0
M  V30 1416 H 126.306 -3.06349 -4.84586 0
M  V30 1417 H 124.703 -3.82333 -4.62538 0
M  V30 1418 H 125.773 -3.61966 -3.22658 0
M  V30 1419 N 127.117 1.15442 -1.07289 0
M  V30 1420 C 128.363 1.86489 -0.796846 0
M  V30 1421 C 128.696 1.82078 0.675371 0
M  V30 1422 O 127.971 1.24346 1.4956 0
M  V30 1423 C 128.254 3.35626 -1.30489 0
M  V30 1424 C 128.107 3.48673 -2.84161 0
M  V30 1425 C 129.426 4.30357 -0.920907 0
M  V30 1426 H 126.545 0.677144 -0.290939 0
M  V30 1427 H 129.187 1.35633 -1.33056 0
M  V30 1428 H 127.337 3.79068 -0.850883 0
M  V30 1429 H 129.009 3.14099 -3.37846 0
M  V30 1430 H 127.252 2.90253 -3.22391 0
M  V30 1431 H 127.923 4.53453 -3.14777 0
M  V30 1432 H 130.399 3.94871 -1.3121 0
M  V30 1433 H 129.275 5.33193 -1.30372 0
M  V30 1434 H 129.536 4.4176 0.173226 0
M  V30 1435 N 128.595 0.856903 1.32268 0
M  V30 1436 C 129.835 0.467705 1.98977 0
M  V30 1437 C 130.199 -0.959231 1.66321 0
M  V30 1438 O 131.4 -1.4531 2.26138 0
M  V30 1439 C 129.671 0.70256 3.50427 0
M  V30 1440 S 131.23 0.411269 4.36868 0
M  V30 1441 H 128.048 0.175121 0.689096 0
M  V30 1442 H 130.65 1.1101 1.60925 0
M  V30 1443 H 129.354 1.74012 3.71683 0
M  V30 1444 H 128.885 0.0466707 3.93372 0
M  V30 1445 H 130.9 -0.761799 4.90317 0
M  V30 1446 N 130.073 -1.45103 0.615059 0
M  V30 1447 C 131.489 -1.57137 0.279322 0
M  V30 1448 C 131.689 -1.60523 -1.21797 0
M  V30 1449 O 130.745 -1.53956 -2.00134 0
M  V30 1450 C 132.058 -2.85062 0.957083 0
M  V30 1451 C 133.606 -2.98749 0.933706 0
M  V30 1452 C 134.081 -4.29455 1.59162 0
M  V30 1453 N 135.572 -4.36231 1.55746 0
M  V30 1454 C 136.307 -5.36051 2.0356 0
M  V30 1455 N 135.803 -6.42367 2.59494 0
M  V30 1456 N 137.596 -5.27456 1.94284 0
M  V30 1457 H 129.747 -1.41148 1.58717 0
M  V30 1458 H 132.01 -0.675331 0.665306 0
M  V30 1459 H 131.716 -2.88488 2.01166 0
M  V30 1460 H 131.59 -3.7407 0.48494 0
M  V30 1461 H 133.977 -2.94886 -0.112347 0
M  V30 1462 H 134.058 -2.11132 1.44419 0
M  V30 1463 H 133.702 -4.34077 2.63704 0
M  V30 1464 H 133.632 -5.15901 1.0561 0
M  V30 1465 H 136.123 -3.60011 1.14893 0
M  V30 1466 H 136.436 -7.14793 2.93752 0
M  V30 1467 H 134.781 -6.43097 2.63537 0
M  V30 1468 H 137.972 -4.43308 1.5032 0
M  V30 1469 H 138.145 -6.05099 2.3186 0
M  V30 1470 N 131.551 -0.354651 -1.53558 0
M  V30 1471 C 132.828 0.294281 -1.93374 0
M  V30 1472 C 133.208 1.67313 -1.28723 0
M  V30 1473 O 132.556 2.24179 -0.442247 0
M  V30 1474 C 132.766 0.355445 -3.47185 0
M  V30 1475 C 134.114 0.601007 -4.20325 0
M  V30 1476 O 135.138 0.437106 -3.53508 0
M  V30 1477 O 133.997 0.919322 -5.38712 0
M  V30 1478 H 131.091 0.174033 -0.808481 0
M  V30 1479 H 133.637 -0.406638 -1.64756 0
M  V30 1480 H 132.409 -0.611729 -3.86489 0
M  V30 1481 H 132.032 1.1027 -3.82003 0
M  V30 1482 N 133.029 1.57378 -0.0835403 0
M  V30 1483 C 134.269 1.95808 0.586381 0
M  V30 1484 C 134.633 0.963706 1.66062 0
M  V30 1485 O 135.834 1.23608 2.38693 0
M  V30 1486 C 134.105 3.38808 1.13771 0
M  V30 1487 S 135.664 3.99225 1.82112 0
M  V30 1488 H 132.482 0.684675 0.191679 0
M  V30 1489 H 135.084 1.94843 -0.160194 0
M  V30 1490 H 133.788 4.08954 0.344197 0
M  V30 1491 H 133.319 3.43344 1.92038 0
M  V30 1492 H 135.334 3.87087 3.10449 0
M  V30 1493 N 134.507 -0.190092 1.56449 0
M  V30 1494 C 135.923 -0.54113 1.50146 0
M  V30 1495 C 136.123 -1.85603 0.784465 0
M  V30 1496 O 135.179 -2.5024 0.337051 0
M  V30 1497 C 136.492 -0.591241 2.9483 0
M  V30 1498 C 138.04 -0.679732 3.0553 0
M  V30 1499 C 138.515 -0.760908 4.51635 0
M  V30 1500 N 140.006 -0.824302 4.55806 0
M  V30 1501 C 140.741 -0.907365 5.66175 0
M  V30 1502 N 140.237 -0.952422 6.86222 0
M  V30 1503 N 142.03 -0.94494 5.541 0
M  V30 1504 H 134.181 0.67235 2.01478 0
M  V30 1505 H 136.444 0.240127 0.917084 0
M  V30 1506 H 136.15 0.305905 3.50367 0
M  V30 1507 H 136.024 -1.44422 3.48457 0
M  V30 1508 H 138.411 -1.56731 2.50039 0
M  V30 1509 H 138.492 0.199549 2.5502 0
M  V30 1510 H 138.136 0.122336 5.07753 0
M  V30 1511 H 138.066 -1.65606 4.99882 0
M  V30 1512 H 140.557 -0.798526 3.69367 0
M  V30 1513 H 140.87 -1.01645 7.66086 0
M  V30 1514 H 139.215 -0.921014 6.8887 0
M  V30 1515 H 142.406 -0.906612 4.59236 0
M  V30 1516 H 142.579 -1.00622 6.4014 0
M  V30 1517 N 135.985 -1.50799 -0.457987 0
M  V30 1518 C 137.234 -1.6168 -1.20593 0
M  V30 1519 C 137.547 -0.32888 -1.92815 0
M  V30 1520 O 138.753 -0.316773 -2.69646 0
M  V30 1521 C 137.209 -2.8545 -2.19195 0
M  V30 1522 C 136.817 -4.21168 -1.52715 0
M  V30 1523 C 138.561 -3.05681 -2.94549 0
M  V30 1524 C 136.468 -5.3611 -2.4968 0
M  V30 1525 H 135.398 -0.602134 -0.453818 0
M  V30 1526 H 138.049 -1.77245 -0.475031 0
M  V30 1527 H 136.431 -2.63472 -2.95632 0
M  V30 1528 H 137.605 -4.53449 -0.819775 0
M  V30 1529 H 135.92 -4.06648 -0.895922 0
M  V30 1530 H 138.517 -3.88727 -3.67145 0
M  V30 1531 H 138.86 -2.17929 -3.54701 0
M  V30 1532 H 139.393 -3.27901 -2.25223 0
M  V30 1533 H 136.132 -6.26057 -1.94249 0
M  V30 1534 H 135.652 -5.0823 -3.18532 0
M  V30 1535 H 137.331 -5.6722 -3.11241 0
M  V30 1536 N 137.463 0.71206 -1.40597 0
M  V30 1537 C 138.395 1.83704 -1.37061 0
M  V30 1538 C 139.408 1.60453 -0.275426 0
M  V30 1539 O 140.597 1.70262 -0.53602 0
M  V30 1540 C 137.697 3.20172 -1.11099 0
M  V30 1541 C 136.87 3.7059 -2.3234 0
M  V30 1542 C 135.929 4.85681 -2.02485 0
M  V30 1543 O 134.955 4.9815 -2.75382 0
M  V30 1544 N 136.157 5.71735 -1.00497 0
M  V30 1545 H 138.922 1.87235 -2.34016 0
M  V30 1546 H 136.483 0.893739 -1.34996 0
M  V30 1547 H 138.475 3.94768 -0.891064 0
M  V30 1548 H 137.045 3.11767 -0.227989 0
M  V30 1549 H 136.265 2.87085 -2.7014 0
M  V30 1550 H 137.553 4.01011 -3.13157 0
M  V30 1551 H 136.951 5.64275 -0.401298 0
M  V30 1552 H 135.508 6.463 -0.844942 0
M  V30 1553 N 138.941 1.26152 0.944643 0
M  V30 1554 C 139.851 1.09176 2.07648 0
M  V30 1555 C 140.867 0.0261935 1.7398 0
M  V30 1556 O 142.043 0.229208 2.00091 0
M  V30 1557 C 139.108 0.722915 3.39079 0
M  V30 1558 C 138.169 1.86752 3.86552 0
M  V30 1559 C 137.402 1.51617 5.11711 0
M  V30 1560 O 137.625 0.416331 5.68879 0
M  V30 1561 O 136.559 2.34975 5.54139 0
M  V30 1562 H 140.385 2.0412 2.24875 0
M  V30 1563 H 137.97 1.05182 1.061 0
M  V30 1564 H 139.852 0.529787 4.18056 0
M  V30 1565 H 138.527 -0.197159 3.23099 0
M  V30 1566 H 137.434 2.11558 3.08535 0
M  V30 1567 H 138.767 2.76719 4.07047 0
M  V30 1568 N 140.419 -1.14872 1.07899 0
M  V30 1569 C 141.644 -1.90202 0.826926 0
M  V30 1570 C 142.069 -1.77774 -0.614664 0
M  V30 1571 O 141.427 -1.11431 -1.43013 0
M  V30 1572 C 141.475 -3.38352 1.24702 0
M  V30 1573 O 140.579 -4.10497 0.39575 0
M  V30 1574 H 139.92 -0.591968 0.300782 0
M  V30 1575 H 142.45 -1.45437 1.43907 0
M  V30 1576 H 142.46 -3.89156 1.22563 0
M  V30 1577 H 141.135 -3.46715 2.29698 0
M  V30 1578 H 139.712 -3.69796 0.480117 0
M  V30 1579 N 141.898 -0.863906 -1.31812 0
M  V30 1580 C 142.846 -0.30422 -2.30602 0
M  V30 1581 C 143.84 0.577419 -1.59255 0
M  V30 1582 O 145.046 0.464194 -1.73912 0
M  V30 1583 H 141.421 -0.0796877 -0.747766 0
M  V30 1584 H 143.392 -1.15148 -2.75288 0
M  V30 1585 C 142.141 0.484617 -3.44306 0
M  V30 1586 H 141.464 -0.18451 -3.99374 0
M  V30 1587 H 142.904 0.841664 -4.15562 0
M  V30 1588 C 141.363 1.6735 -2.92396 0
M  V30 1589 O 141.893 2.77273 -2.90659 0
M  V30 1590 N 140.099 1.50362 -2.48676 0
M  V30 1591 H 139.646 0.609402 -2.50288 0
M  V30 1592 H 139.604 2.30051 -2.14299 0
M  V30 1593 N 143.376 1.44774 -0.622745 0
M  V30 1594 C 144.624 2.01721 -0.123655 0
M  V30 1595 C 144.945 1.49172 1.25589 0
M  V30 1596 O 144.215 0.691974 1.83272 0
M  V30 1597 H 142.795 0.745777 -0.0427225 0
M  V30 1598 H 145.457 1.77382 -0.807559 0
M  V30 1599 H 144.553 3.11984 -0.0849534 0
M  V30 1600 N 144.854 0.36279 1.53368 0
M  V30 1601 C 146.082 -0.228613 2.05633 0
M  V30 1602 C 146.497 -1.42676 1.23649 0
M  V30 1603 O 145.854 -1.80394 0.27647 0
M  V30 1604 C 145.905 -0.624845 3.56059 0
M  V30 1605 O 145.626 0.525675 4.34935 0
M  V30 1606 C 147.127 -1.27493 4.24571 0
M  V30 1607 H 144.347 -0.0407183 0.669763 0
M  V30 1608 H 146.891 0.520352 1.97769 0
M  V30 1609 H 145.046 -1.32373 3.64083 0
M  V30 1610 H 145.46 0.205969 5.24095 0
M  V30 1611 H 146.934 -1.50277 5.31151 0
M  V30 1612 H 147.411 -2.23439 3.78116 0
M  V30 1613 H 148.017 -0.617558 4.20792 0
M  V30 1614 N 146.332 -1.57332 0.0918853 0
M  V30 1615 C 147.578 -1.95328 -0.567313 0
M  V30 1616 C 147.933 -0.972866 -1.65991 0
M  V30 1617 O 147.226 0.00166256 -1.916 0
M  V30 1618 C 147.42 -3.37689 -1.17051 0
M  V30 1619 C 147.249 -4.49489 -0.137875 0
M  V30 1620 C 146.019 -5.04498 0.284515 0
M  V30 1621 C 148.217 -5.10393 0.63271 0
M  V30 1622 N 146.199 -5.99853 1.30576 0
M  V30 1623 C 147.57 -6.01435 1.50587 0
M  V30 1624 C 149.625 -4.93143 0.68658 0
M  V30 1625 C 148.328 -6.77077 2.42815 0
M  V30 1626 C 150.354 -5.69445 1.59645 0
M  V30 1627 C 149.716 -6.60151 2.45725 0
M  V30 1628 H 145.815 -0.761467 -0.178023 0
M  V30 1629 H 148.399 -1.93924 0.173706 0
M  V30 1630 H 146.57 -3.39793 -1.88136 0
M  V30 1631 H 148.302 -3.62872 -1.79181 0
M  V30 1632 H 145.057 -4.73489 -0.102593 0
M  V30 1633 H 145.481 -6.52231 1.81449 0
M  V30 1634 H 150.123 -4.22785 0.035244 0
M  V30 1635 H 147.841 -7.46699 3.08975 0
M  V30 1636 H 151.427 -5.58112 1.64323 0
M  V30 1637 H 150.307 -7.18159 3.14987 0
M  V30 1638 N 147.81 0.181792 -1.56548 0
M  V30 1639 C 149.226 0.53316 -1.50431 0
M  V30 1640 C 149.426 1.85184 -0.794297 0
M  V30 1641 O 148.482 2.50058 -0.350318 0
M  V30 1642 C 149.795 0.575597 -2.9514 0
M  V30 1643 C 151.343 0.663519 -3.05886 0
M  V30 1644 C 151.818 0.736946 -4.52032 0
M  V30 1645 N 153.309 0.800118 -4.56237 0
M  V30 1646 C 154.044 0.877327 -5.66649 0
M  V30 1647 N 153.54 0.916016 -6.86718 0
M  V30 1648 N 155.333 0.915542 -5.54594 0
M  V30 1649 H 147.484 -0.683025 -2.01118 0
M  V30 1650 H 149.747 -0.244988 -0.915797 0
M  V30 1651 H 149.453 -0.324482 -3.502 0
M  V30 1652 H 149.327 1.42572 -3.49218 0
M  V30 1653 H 151.714 1.55403 -2.50867 0
M  V30 1654 H 151.795 -0.21307 -2.54911 0
M  V30 1655 H 151.439 -0.149262 -5.07681 0
M  V30 1656 H 151.369 1.62953 -5.00753 0
M  V30 1657 H 153.86 0.778926 -3.69785 0
M  V30 1658 H 154.173 0.975813 -7.66614 0
M  V30 1659 H 152.518 0.884469 -6.89349 0
M  V30 1660 H 155.709 0.882245 -4.59711 0
M  V30 1661 H 155.882 0.972253 -6.40665 0
M  V30 1662 N 149.288 1.51039 0.449983 0
M  V30 1663 C 150.528 1.64732 1.21007 0
M  V30 1664 C 150.892 0.349865 1.88785 0
M  V30 1665 O 152.093 0.362431 2.66345 0
M  V30 1666 C 150.364 2.80902 2.20973 0
M  V30 1667 S 151.923 3.14851 3.05638 0
M  V30 1668 H 148.741 0.5805 0.410538 0
M  V30 1669 H 151.343 1.88901 0.503634 0
M  V30 1670 H 150.047 3.73627 1.69796 0
M  V30 1671 H 149.578 2.58882 2.96215 0
M  V30 1672 H 151.593 2.60306 4.22439 0
M  V30 1673 N 150.766 -0.704594 1.40972 0
M  V30 1674 C 151.713 -1.81862 1.42109 0
M  V30 1675 C 152.683 -1.63781 0.276593 0
M  V30 1676 O 153.868 -1.84759 0.4763 0
M  V30 1677 C 151.008 -3.19669 1.30022 0
M  V30 1678 C 150.121 -3.49246 2.54267 0
M  V30 1679 C 149.256 -4.76618 2.3454 0
M  V30 1680 C 148.295 -4.99133 3.54306 0
M  V30 1681 N 147.432 -6.17726 3.33706 0
M  V30 1682 H 152.272 -1.80226 2.37324 0
M  V30 1683 H 149.809 -0.880238 1.17857 0
M  V30 1684 H 151.767 -3.99263 1.21018 0
M  V30 1685 H 150.397 -3.20506 0.384192 0
M  V30 1686 H 149.449 -2.64125 2.73756 0
M  V30 1687 H 150.761 -3.61788 3.43381 0
M  V30 1688 H 149.915 -5.64249 2.22952 0
M  V30 1689 H 148.654 -4.66305 1.42867 0
M  V30 1690 H 147.659 -4.09953 3.66359 0
M  V30 1691 H 148.884 -5.11311 4.4692 0
M  V30 1692 H 146.83 -6.08642 2.44725 0
M  V30 1693 H 146.747 -6.30995 4.16391 0
M  V30 1694 H 148.015 -7.08115 3.25873 0
M  V30 1695 N 152.244 -1.26651 -0.937939 0
M  V30 1696 C 153.49 -1.12553 -1.687 0
M  V30 1697 C 153.823 0.329782 -1.91379 0
M  V30 1698 O 153.098 1.24202 -1.4968 0
M  V30 1699 C 153.381 -1.89862 -3.05981 0
M  V30 1700 C 153.234 -3.43318 -2.90607 0
M  V30 1701 C 154.553 -1.69499 -4.0615 0
M  V30 1702 H 151.672 -0.410257 -0.612257 0
M  V30 1703 H 154.314 -1.55685 -1.08913 0
M  V30 1704 H 152.464 -1.53204 -3.57017 0
M  V30 1705 H 154.136 -3.89747 -2.46769 0
M  V30 1706 H 152.379 -3.70179 -2.26164 0
M  V30 1707 H 153.05 -3.92642 -3.8799 0
M  V30 1708 H 155.526 -2.01442 -3.64088 0
M  V30 1709 H 154.402 -2.26002 -5.00214 0
M  V30 1710 H 154.663 -0.640365 -4.37438 0
M  V30 1711 N 153.722 1.14298 -1.08507 0
M  V30 1712 C 154.962 1.87016 -0.824894 0
M  V30 1713 C 155.326 1.81099 0.637735 0
M  V30 1714 O 156.527 2.48963 1.01345 0
M  V30 1715 C 154.798 3.31584 -1.33368 0
M  V30 1716 S 156.357 4.21903 -1.20596 0
M  V30 1717 H 153.175 0.645259 -0.2986 0
M  V30 1718 H 155.777 1.37822 -1.38656 0
M  V30 1719 H 154.481 3.33439 -2.39262 0
M  V30 1720 H 154.012 3.85836 -0.767734 0
M  V30 1721 H 156.027 4.95971 -0.150891 0
M  V30 1722 N 155.201 0.870884 1.31352 0
M  V30 1723 C 156.164 0.332243 2.26779 0
M  V30 1724 C 157.164 -0.517302 1.52252 0
M  V30 1725 O 158.354 -0.326477 1.71113 0
M  V30 1726 C 155.486 -0.528066 3.36785 0
M  V30 1727 H 156.679 1.17469 2.75937 0
M  V30 1728 H 154.232 0.64655 1.423 0
M  V30 1729 H 154.967 -1.39167 2.92922 0
M  V30 1730 H 154.752 0.0802582 3.92018 0
M  V30 1731 H 156.242 -0.897179 4.07849 0
M  V30 1732 N 156.679 -1.44442 0.630414 0
M  V30 1733 C 157.626 -2.30678 -0.0749355 0
M  V30 1734 C 158.596 -1.4344 -0.837502 0
M  V30 1735 O 159.781 -1.72343 -0.818684 0
M  V30 1736 C 156.921 -3.28706 -1.05103 0
M  V30 1737 C 156.034 -4.31046 -0.286954 0
M  V30 1738 C 155.169 -5.16167 -1.2548 0
M  V30 1739 C 154.208 -6.10216 -0.479843 0
M  V30 1740 N 153.345 -6.88039 -1.39811 0
M  V30 1741 H 158.185 -2.90454 0.666386 0
M  V30 1742 H 155.722 -1.43107 0.340404 0
M  V30 1743 H 157.68 -3.84027 -1.63031 0
M  V30 1744 H 156.31 -2.70632 -1.75949 0
M  V30 1745 H 155.362 -3.78203 0.408243 0
M  V30 1746 H 156.674 -4.97794 0.316657 0
M  V30 1747 H 155.828 -5.76002 -1.90544 0
M  V30 1748 H 154.567 -4.49491 -1.89233 0
M  V30 1749 H 153.572 -5.49491 0.184295 0
M  V30 1750 H 154.797 -6.78928 0.152965 0
M  V30 1751 H 152.743 -6.24032 -2.02287 0
M  V30 1752 H 152.66 -7.51223 -0.848508 0
M  V30 1753 H 153.928 -7.52397 -2.03762 0
M  V30 1754 N 158.157 -0.370918 -1.53173 0
M  V30 1755 C 159.067 0.480823 -2.2962 0
M  V30 1756 C 160.083 1.08789 -1.35798 0
M  V30 1757 O 161.259 1.09768 -1.68858 0
M  V30 1758 C 158.324 1.60227 -3.07454 0
M  V30 1759 C 157.385 1.0222 -4.16953 0
M  V30 1760 C 156.618 2.0902 -4.91066 0
M  V30 1761 O 156.841 3.30222 -4.65091 0
M  V30 1762 O 155.775 1.71778 -5.76867 0
M  V30 1763 H 159.601 -0.141421 -3.03371 0
M  V30 1764 H 157.186 -0.135146 -1.48787 0
M  V30 1765 H 159.068 2.25417 -3.56041 0
M  V30 1766 H 157.743 2.20982 -2.36535 0
M  V30 1767 H 156.65 0.334064 -3.72605 0
M  V30 1768 H 157.983 0.459131 -4.90054 0
M  V30 1769 N 159.635 1.57281 -0.100228 0
M  V30 1770 C 160.884 1.93713 0.561984 0
M  V30 1771 C 161.197 0.984492 1.69018 0
M  V30 1772 O 162.403 1.24273 2.41389 0
M  V30 1773 C 160.859 3.4421 1.05106 0
M  V30 1774 C 160.467 4.47975 -0.0476628 0
M  V30 1775 C 162.211 3.89595 1.68571 0
M  V30 1776 C 160.118 5.89631 0.457055 0
M  V30 1777 H 159.048 0.723082 0.2137 0
M  V30 1778 H 161.699 1.82644 -0.177057 0
M  V30 1779 H 160.081 3.50449 1.84395 0
M  V30 1780 H 161.255 4.53385 -0.823333 0
M  V30 1781 H 159.57 4.1223 -0.587816 0
M  V30 1782 H 162.167 4.92832 2.07414 0
M  V30 1783 H 162.51 3.28526 2.55688 0
M  V30 1784 H 163.043 3.86078 0.958562 0
M  V30 1785 H 159.782 6.54411 -0.377616 0
M  V30 1786 H 159.302 5.87681 1.19962 0
M  V30 1787 H 160.981 6.40363 0.92437 0
M  V30 1788 N 161.113 -0.173488 1.56642 0
M  V30 1789 C 162.023 -1.23482 1.99473 0
M  V30 1790 C 163.039 -1.48567 0.905752 0
M  V30 1791 O 164.215 -1.60758 1.21321 0
M  V30 1792 C 161.28 -2.55444 2.34413 0
M  V30 1793 C 160.341 -2.38241 3.57127 0
M  V30 1794 C 159.574 -3.63909 3.90392 0
M  V30 1795 O 159.797 -4.68996 3.24653 0
M  V30 1796 O 158.731 -3.58149 4.83749 0
M  V30 1797 H 162.557 -0.901279 2.90018 0
M  V30 1798 H 160.142 -0.380185 1.44482 0
M  V30 1799 H 162.024 -3.33292 2.57865 0
M  V30 1800 H 160.699 -2.88382 1.4703 0
M  V30 1801 H 159.606 -1.58431 3.38896 0
M  V30 1802 H 160.939 -2.10228 4.45045 0
M  V30 1803 N 162.591 -1.51276 -0.441967 0
M  V30 1804 C 163.521 -1.752 -1.54361 0
M  V30 1805 C 164.502 -0.601682 -1.59103 0
M  V30 1806 O 165.687 -0.843913 -1.74905 0
M  V30 1807 C 162.817 -1.87282 -2.92477 0
M  V30 1808 C 161.771 -3.02687 -3.02596 0
M  V30 1809 C 161.097 -2.99947 -4.42647 0
M  V30 1810 C 162.397 -4.4273 -2.77106 0
M  V30 1811 H 164.091 -2.67442 -1.34592 0
M  V30 1812 H 161.637 -1.28694 -0.646048 0
M  V30 1813 H 163.59 -2.02602 -3.695 0
M  V30 1814 H 162.314 -0.916844 -3.13467 0
M  V30 1815 H 160.973 -2.87065 -2.28012 0
M  V30 1816 H 160.621 -2.02136 -4.60597 0
M  V30 1817 H 160.321 -3.77439 -4.50348 0
M  V30 1818 H 161.845 -3.17354 -5.2165 0
M  V30 1819 H 163.259 -4.58727 -3.43864 0
M  V30 1820 H 161.656 -5.21893 -2.96222 0
M  V30 1821 H 162.726 -4.53087 -1.72744 0
M  V30 1822 N 164.069 0.697108 -1.41344 0
M  V30 1823 C 165.016 1.81106 -1.43071 0
M  V30 1824 C 165.986 1.63632 -0.285275 0
M  V30 1825 O 167.171 1.84504 -0.486091 0
M  V30 1826 C 164.311 3.18975 -1.31715 0
M  V30 1827 C 163.424 3.47892 -2.56115 0
M  V30 1828 C 162.559 4.75367 -2.37064 0
M  V30 1829 C 161.598 4.97247 -3.56948 0
M  V30 1830 N 160.735 6.15947 -3.36977 0
M  V30 1831 H 165.575 1.78965 -2.38276 0
M  V30 1832 H 163.112 0.873975 -1.18322 0
M  V30 1833 H 165.07 3.98615 -1.23133 0
M  V30 1834 H 163.7 3.20297 -0.401183 0
M  V30 1835 H 162.752 2.62669 -2.75153 0
M  V30 1836 H 164.064 3.59962 -3.45295 0
M  V30 1837 H 163.218 5.63059 -2.25941 0
M  V30 1838 H 161.957 4.65541 -1.45338 0
M  V30 1839 H 160.962 4.08004 -3.68527 0
M  V30 1840 H 162.187 5.08934 -4.49626 0
M  V30 1841 H 160.133 6.07336 -2.47949 0
M  V30 1842 H 160.05 6.28777 -4.19732 0
M  V30 1843 H 161.318 7.06377 -3.29623 0
M  V30 1844 N 165.547 1.27147 0.931209 0
M  V30 1845 C 166.494 1.09568 2.03134 0
M  V30 1846 C 167.464 -0.00222433 1.661 0
M  V30 1847 O 168.649 0.159439 1.90133 0
M  V30 1848 C 165.789 0.745231 3.36957 0
M  V30 1849 C 164.902 1.92041 3.86968 0
M  V30 1850 C 164.037 1.51216 5.09222 0
M  V30 1851 C 163.076 2.65504 5.5152 0
M  V30 1852 N 162.213 2.25291 6.64972 0
M  V30 1853 H 167.053 2.03708 2.17502 0
M  V30 1854 H 164.59 1.01411 1.06556 0
M  V30 1855 H 166.548 0.522878 4.1391 0
M  V30 1856 H 165.178 -0.159202 3.22407 0
M  V30 1857 H 164.23 2.25541 3.06326 0
M  V30 1858 H 165.542 2.77787 4.1429 0
M  V30 1859 H 164.696 1.25084 5.93666 0
M  V30 1860 H 163.435 0.625749 4.83669 0
M  V30 1861 H 162.44 2.92354 4.65628 0
M  V30 1862 H 163.665 3.54761 5.7907 0
M  V30 1863 H 161.611 1.39098 6.41083 0
M  V30 1864 H 161.528 3.04577 6.91931 0
M  V30 1865 H 162.796 2.02398 7.52765 0
M  V30 1866 N 167.025 -1.13721 1.09112 0
M  V30 1867 C 167.988 -2.17222 0.731241 0
M  V30 1868 C 168.988 -1.59035 -0.237566 0
M  V30 1869 O 170.178 -1.74192 -0.0161704 0
M  V30 1870 C 167.31 -3.40804 0.0808443 0
M  V30 1871 H 168.503 -2.50573 1.64783 0
M  V30 1872 H 166.056 -1.28493 0.889897 0
M  V30 1873 H 166.791 -3.1304 -0.847127 0
M  V30 1874 H 166.576 -3.84306 0.777896 0
M  V30 1875 H 168.066 -4.1731 -0.155657 0
M  V30 1876 N 168.503 -0.877838 -1.30888 0
M  V30 1877 C 169.731 -0.507414 -2.00581 0
M  V30 1878 C 170.146 0.902216 -1.65848 0
M  V30 1879 O 169.503 1.59225 -0.891831 0
M  V30 1880 C 169.554 -0.664162 -3.55347 0
M  V30 1881 O 169.275 -2.01829 -3.8884 0
M  V30 1882 C 170.776 -0.295787 -4.42312 0
M  V30 1883 H 167.996 -0.196866 -0.641471 0
M  V30 1884 H 170.54 -1.18117 -1.66939 0
M  V30 1885 H 168.695 -0.0378619 -3.87381 0
M  V30 1886 H 169.109 -2.03174 -4.8355 0
M  V30 1887 H 170.583 -0.456388 -5.5011 0
M  V30 1888 H 171.06 0.765663 -4.32475 0
M  V30 1889 H 171.666 -0.898113 -4.15709 0
M  V30 1890 N 169.982 1.44106 -0.638065 0
M  V30 1891 C 171.23 2.01579 -0.145043 0
M  V30 1892 C 171.551 1.50496 1.24 0
M  V30 1893 O 170.821 0.711374 1.82527 0
M  V30 1894 H 169.401 0.745282 -0.05063 0
M  V30 1895 H 172.063 1.76516 -0.826327 0
M  V30 1896 H 171.159 3.11877 -0.118039 0
M  V30 1897 N 171.46 0.379036 1.52974 0
M  V30 1898 C 172.737 -0.263479 1.93817 0
M  V30 1899 C 173.117 -1.65244 1.31368 0
M  V30 1900 O 172.465 -2.23448 0.477856 0
M  V30 1901 C 172.675 -0.300166 3.47707 0
M  V30 1902 C 174.023 -0.534061 4.21228 0
M  V30 1903 O 175.047 -0.38081 3.54159 0
M  V30 1904 O 173.906 -0.833501 5.40106 0
M  V30 1905 H 171 -0.161149 0.811147 0
M  V30 1906 H 173.546 0.432798 1.64088 0
M  V30 1907 H 172.318 0.673138 3.85467 0
M  V30 1908 H 171.941 -1.04179 3.83709 0
M  V30 1909 N 172.938 -1.57226 0.108567 0
M  V30 1910 C 174.184 -1.95919 -0.546564 0
M  V30 1911 C 174.539 -0.990417 -1.6495 0
M  V30 1912 O 173.832 -0.0186593 -1.91591 0
M  V30 1913 C 174.026 -3.38911 -1.13463 0
M  V30 1914 C 173.855 -4.4961 -0.0901926 0
M  V30 1915 C 172.625 -5.04168 0.338008 0
M  V30 1916 C 174.823 -5.09693 0.686808 0
M  V30 1917 N 172.805 -5.98434 1.36931 0
M  V30 1918 C 174.176 -5.99804 1.56958 0
M  V30 1919 C 176.231 -4.92388 0.738846 0
M  V30 1920 C 174.934 -6.74463 2.49983 0
M  V30 1921 C 176.96 -5.67719 1.65676 0
M  V30 1922 C 176.322 -6.57507 2.52713 0
M  V30 1923 H 172.421 -0.763312 -0.169936 0
M  V30 1924 H 175.005 -1.93728 0.194264 0
M  V30 1925 H 173.176 -3.41769 -1.84522 0
M  V30 1926 H 174.908 -3.64752 -1.75322 0
M  V30 1927 H 171.663 -4.73571 -0.0523673 0
M  V30 1928 H 172.087 -6.5027 1.88356 0
M  V30 1929 H 176.729 -4.22724 0.080084 0
M  V30 1930 H 174.447 -7.4338 3.16878 0
M  V30 1931 H 178.033 -5.56338 1.70233 0
M  V30 1932 H 176.913 -7.14778 3.22586 0
M  V30 1933 N 174.416 0.165178 -1.56732 0
M  V30 1934 C 175.663 0.880807 -1.8234 0
M  V30 1935 C 175.991 1.81977 -0.686621 0
M  V30 1936 O 175.246 1.92971 0.325697 0
M  V30 1937 C 175.545 1.70405 -3.1416 0
M  V30 1938 C 175.211 0.913475 -4.4155 0
M  V30 1939 C 173.873 0.695303 -4.7615 0
M  V30 1940 C 176.225 0.359349 -5.1996 0
M  V30 1941 C 173.553 -0.0879947 -5.86634 0
M  V30 1942 C 175.905 -0.410893 -6.31264 0
M  V30 1943 C 174.569 -0.639808 -6.64427 0
M  V30 1944 H 173.839 0.32231 -0.667231 0
M  V30 1945 H 176.486 0.145402 -1.90947 0
M  V30 1946 H 174.791 2.50903 -3.00923 0
M  V30 1947 H 176.488 2.26091 -3.31186 0
M  V30 1948 H 173.078 1.09357 -4.14414 0
M  V30 1949 H 177.262 0.515228 -4.93618 0
M  V30 1950 H 172.518 -0.27503 -6.10781 0
M  V30 1951 H 176.692 -0.847494 -6.91224 0
M  V30 1952 H 174.319 -1.24864 -7.49875 0
M  V30 1953 N 175.894 1.51508 0.433938 0
M  V30 1954 C 177.124 1.67914 1.20369 0
M  V30 1955 C 177.532 0.377461 1.85397 0
M  V30 1956 O 176.875 -0.654255 1.71654 0
M  V30 1957 C 176.937 2.74045 2.32679 0
M  V30 1958 C 176.601 4.16543 1.87991 0
M  V30 1959 C 177.598 5.01211 1.38145 0
M  V30 1960 C 175.283 4.6266 1.95579 0
M  V30 1961 C 177.277 6.30056 0.964774 0
M  V30 1962 C 174.964 5.91501 1.53523 0
M  V30 1963 C 175.962 6.75027 1.04055 0
M  V30 1964 O 175.65 8.01459 0.625964 0
M  V30 1965 H 175.382 0.566578 0.368735 0
M  V30 1966 H 177.936 1.98709 0.51999 0
M  V30 1967 H 176.166 2.38572 3.04336 0
M  V30 1968 H 177.855 2.79295 2.94532 0
M  V30 1969 H 178.621 4.66783 1.31675 0
M  V30 1970 H 174.5 3.97767 2.33029 0
M  V30 1971 H 178.044 6.95202 0.57796 0
M  V30 1972 H 173.941 6.25442 1.59665 0
M  V30 1973 H 174.709 8.15043 0.751509 0
M  V30 1974 N 177.372 -0.689602 1.41712 0
M  V30 1975 C 178.649 -1.44457 1.31877 0
M  V30 1976 C 179.029 -2.11039 -0.0508537 0
M  V30 1977 O 178.377 -2.02138 -1.06547 0
M  V30 1978 C 178.587 -2.45913 2.47645 0
M  V30 1979 C 179.935 -3.10991 2.89084 0
M  V30 1980 O 180.959 -2.56238 2.47428 0
M  V30 1981 O 179.818 -4.10174 3.61137 0
M  V30 1982 H 176.912 -0.64362 0.519309 0
M  V30 1983 H 179.458 -0.719576 1.53689 0
M  V30 1984 H 178.23 -1.95409 3.39015 0
M  V30 1985 H 177.853 -3.25913 2.27742 0
M  V30 1986 N 178.85 -1.27639 -0.924453 0
M  V30 1987 C 179.782 -1.06442 -2.02985 0
M  V30 1988 C 180.795 -0.0194771 -1.62788 0
M  V30 1989 O 181.984 -0.261388 -1.76576 0
M  V30 1990 C 179.084 -0.59327 -3.33667 0
M  V30 1991 C 178.257 -1.71123 -4.02537 0
M  V30 1992 C 177.316 -1.23527 -5.11495 0
M  V30 1993 O 176.342 -1.93553 -5.35281 0
M  V30 1994 N 177.544 -0.0926678 -5.80426 0
M  V30 1995 H 180.309 -2.01633 -2.2173 0
M  V30 1996 H 177.87 -1.19248 -1.09505 0
M  V30 1997 H 179.862 -0.258686 -4.03872 0
M  V30 1998 H 178.432 0.265502 -3.1147 0
M  V30 1999 H 177.652 -2.21593 -3.26022 0
M  V30 2000 H 178.94 -2.46145 -4.45298 0
M  V30 2001 H 178.338 0.491741 -5.63559 0
M  V30 2002 H 176.895 0.182714 -6.51544 0
M  V30 2003 N 180.328 1.1314 -1.09713 0
M  V30 2004 C 181.275 2.18642 -0.739196 0
M  V30 2005 C 182.245 1.63706 0.280978 0
M  V30 2006 O 183.43 1.90111 0.161946 0
M  V30 2007 C 180.57 3.44685 -0.169102 0
M  V30 2008 C 179.683 4.13711 -1.24367 0
M  V30 2009 C 178.818 5.27379 -0.636019 0
M  V30 2010 C 177.857 5.88259 -1.69169 0
M  V30 2011 N 176.994 6.93352 -1.10485 0
M  V30 2012 H 181.834 2.48607 -1.64312 0
M  V30 2013 H 179.371 1.22066 -0.820875 0
M  V30 2014 H 181.329 4.16815 0.179256 0
M  V30 2015 H 179.959 3.15161 0.698079 0
M  V30 2016 H 179.011 3.39835 -1.70927 0
M  V30 2017 H 180.323 4.55037 -2.04311 0
M  V30 2018 H 179.477 6.06238 -0.236677 0
M  V30 2019 H 178.216 4.8731 0.194928 0
M  V30 2020 H 177.221 5.08092 -2.10055 0
M  V30 2021 H 178.446 6.30399 -2.52536 0
M  V30 2022 H 176.392 6.55335 -0.295234 0
M  V30 2023 H 176.309 7.33236 -1.84121 0
M  V30 2024 H 177.577 7.76057 -0.73181 0
M  V30 2025 N 181.806 0.884767 1.30421 0
M  V30 2026 C 183.052 0.503851 1.96441 0
M  V30 2027 C 183.385 -0.944518 1.69684 0
M  V30 2028 O 182.66 -1.66737 1.00145 0
M  V30 2029 C 182.943 0.779085 3.51571 0
M  V30 2030 C 182.796 2.27807 3.87846 0
M  V30 2031 C 184.115 0.255452 4.39358 0
M  V30 2032 H 181.234 0.184533 0.713524 0
M  V30 2033 H 183.876 1.10872 1.54297 0
M  V30 2034 H 182.026 0.264274 3.876 0
M  V30 2035 H 183.698 2.86127 3.61841 0
M  V30 2036 H 181.941 2.74479 3.35922 0
M  V30 2037 H 182.612 2.42125 4.96064 0
M  V30 2038 H 185.088 0.696079 4.10236 0
M  V30 2039 H 183.964 0.477361 5.4682 0
M  V30 2040 H 184.225 -0.843293 4.33983 0
M  V30 2041 N 183.284 -1.43765 0.645699 0
M  V30 2042 C 184.232 -2.32516 -0.0624849 0
M  V30 2043 C 185.226 -1.48183 -0.820855 0
M  V30 2044 O 186.432 -1.64439 -0.732106 0
M  V30 2045 H 182.807 -0.750989 -0.0389864 0
M  V30 2046 H 184.778 -2.89979 0.703892 0
M  V30 2047 C 183.527 -3.32389 -1.02044 0
M  V30 2048 H 182.85 -3.97301 -0.446312 0
M  V30 2049 H 184.29 -3.97138 -1.48517 0
M  V30 2050 C 182.749 -2.62416 -2.11281 0
M  V30 2051 O 183.279 -2.434 -3.19561 0
M  V30 2052 N 181.485 -2.21913 -1.87624 0
M  V30 2053 H 181.032 -2.37578 -0.995703 0
M  V30 2054 H 180.99 -1.75424 -2.6091 0
M  V30 2055 N 184.763 -0.387143 -1.52771 0
M  V30 2056 C 186.179 -0.037007 -1.59557 0
M  V30 2057 C 186.379 1.44801 -1.40124 0
M  V30 2058 O 185.435 2.21227 -1.21716 0
M  V30 2059 C 186.748 -0.512256 -2.96305 0
M  V30 2060 C 188.296 -0.468328 -3.09476 0
M  V30 2061 C 188.771 -0.919731 -4.4867 0
M  V30 2062 N 190.262 -0.875656 -4.54848 0
M  V30 2063 C 190.997 -1.19637 -5.6078 0
M  V30 2064 N 190.493 -1.58745 -6.74368 0
M  V30 2065 N 192.286 -1.11776 -5.50874 0
M  V30 2066 H 184.437 -1.35395 -1.63652 0
M  V30 2067 H 186.7 -0.554818 -0.768688 0
M  V30 2068 H 186.406 -1.54935 -3.15734 0
M  V30 2069 H 186.28 0.089805 -3.77093 0
M  V30 2070 H 188.667 0.559671 -2.89744 0
M  V30 2071 H 188.748 -1.10616 -2.30646 0
M  V30 2072 H 188.392 -1.94595 -4.69143 0
M  V30 2073 H 188.322 -0.258927 -5.25963 0
M  V30 2074 H 190.813 -0.587843 -3.733 0
M  V30 2075 H 191.126 -1.81586 -7.51163 0
M  V30 2076 H 189.471 -1.6263 -6.75705 0
M  V30 2077 H 192.662 -0.811264 -4.61016 0
M  V30 2078 H 192.835 -1.37103 -6.3333 0
M  V30 2079 N 186.241 1.57166 -0.116904 0
M  V30 2080 C 187.488 1.95123 0.541603 0
M  V30 2081 C 187.816 1.00006 1.6682 0
M  V30 2082 O 187.071 0.0235658 1.95686 0
M  V30 2083 C 187.37 3.39508 1.11664 0
M  V30 2084 C 187.036 4.50762 0.111606 0
M  V30 2085 C 185.698 4.80918 -0.164758 0
M  V30 2086 C 188.05 5.18036 -0.573438 0
M  V30 2087 C 185.378 5.75666 -1.13249 0
M  V30 2088 C 187.73 6.13824 -1.52978 0
M  V30 2089 C 186.394 6.42374 -1.81415 0
M  V30 2090 H 185.664 0.714005 0.198187 0
M  V30 2091 H 188.311 1.9048 -0.197365 0
M  V30 2092 H 186.616 3.40835 1.93232 0
M  V30 2093 H 188.313 3.66189 1.63422 0
M  V30 2094 H 184.903 4.27272 0.337192 0
M  V30 2095 H 189.087 4.94896 -0.373092 0
M  V30 2096 H 184.343 5.96092 -1.35958 0
M  V30 2097 H 188.517 6.65039 -2.06629 0
M  V30 2098 H 186.144 7.15599 -2.56557 0
M  V30 2099 N 187.719 -0.156864 1.56817 0
M  V30 2100 C 188.682 -1.17781 1.96622 0
M  V30 2101 C 189.682 -1.36401 0.851555 0
M  V30 2102 O 190.872 -1.33561 1.11836 0
M  V30 2103 C 188.004 -2.54008 2.27361 0
M  V30 2104 H 189.197 -0.836564 2.87996 0
M  V30 2105 H 186.75 -0.39985 1.51099 0
M  V30 2106 H 187.485 -2.9312 1.38748 0
M  V30 2107 H 187.27 -2.41856 3.08623 0
M  V30 2108 H 188.76 -3.27558 2.59029 0
M  V30 2109 N 189.197 -1.51736 -0.425897 0
M  V30 2110 C 190.427 -1.68549 -1.19476 0
M  V30 2111 C 190.835 -0.387288 -1.85194 0
M  V30 2112 O 190.178 0.645142 -1.71999 0
M  V30 2113 C 190.24 -2.75275 -2.31223 0
M  V30 2114 C 189.904 -4.17534 -1.8578 0
M  V30 2115 C 190.901 -5.01936 -1.35485 0
M  V30 2116 C 188.586 -4.6369 -1.93123 0
M  V30 2117 C 190.58 -6.30559 -0.931347 0
M  V30 2118 C 188.267 -5.92307 -1.50384 0
M  V30 2119 C 189.265 -6.75569 -1.00473 0
M  V30 2120 O 188.953 -8.0178 -0.583452 0
M  V30 2121 H 188.685 -0.568525 -0.365725 0
M  V30 2122 H 191.239 -1.98982 -0.509444 0
M  V30 2123 H 189.469 -2.40182 -3.03067 0
M  V30 2124 H 191.158 -2.80853 -2.93047 0
M  V30 2125 H 191.924 -4.67475 -1.29197 0
M  V30 2126 H 187.803 -3.98997 -2.30916 0
M  V30 2127 H 191.347 -6.95498 -0.541084 0
M  V30 2128 H 187.244 -6.2628 -1.56346 0
M  V30 2129 H 188.012 -8.1543 -0.708275 0
M  V30 2130 N 190.675 0.682077 -1.42076 0
M  V30 2131 C 192.091 0.994324 -1.24841 0
M  V30 2132 C 192.291 2.0096 -0.147389 0
M  V30 2133 O 191.347 2.47822 0.483782 0
M  V30 2134 C 192.66 1.50607 -2.60265 0
M  V30 2135 C 194.208 1.62421 -2.6756 0
M  V30 2136 C 194.683 2.16994 -4.03333 0
M  V30 2137 N 196.174 2.24337 -4.0525 0
M  V30 2138 C 196.909 2.67621 -5.07116 0
M  V30 2139 N 196.405 3.1041 -6.19368 0
M  V30 2140 N 198.198 2.67305 -4.94474 0
M  V30 2141 H 190.349 0.00973908 -2.12398 0
M  V30 2142 H 192.612 0.0668593 -0.945639 0
M  V30 2143 H 192.318 0.834583 -3.41654 0
M  V30 2144 H 192.192 2.48602 -2.83684 0
M  V30 2145 H 194.579 2.28678 -1.86521 0
M  V30 2146 H 194.66 0.629352 -2.47937 0
M  V30 2147 H 194.304 1.51349 -4.84826 0
M  V30 2148 H 194.234 3.17258 -4.20304 0
M  V30 2149 H 196.725 1.94158 -3.24209 0
M  V30 2150 H 197.038 3.42103 -6.92954 0
M  V30 2151 H 195.383 3.08286 -6.22884 0
M  V30 2152 H 198.574 2.33233 -4.05857 0
M  V30 2153 H 198.747 3.00718 -5.73997 0
M  V30 2154 N 192.153 1.28127 0.917671 0
M  V30 2155 C 193.381 1.17892 1.70026 0
M  V30 2156 C 193.796 -0.262958 1.8696 0
M  V30 2157 O 193.153 -1.17811 1.3938 0
M  V30 2158 C 193.204 1.86872 3.09453 0
M  V30 2159 O 192.925 3.25428 2.93306 0
M  V30 2160 C 194.426 1.8289 4.03815 0
M  V30 2161 H 191.646 0.40942 0.531617 0
M  V30 2162 H 194.19 1.69181 1.14883 0
M  V30 2163 H 192.345 1.39464 3.61426 0
M  V30 2164 H 192.759 3.59918 3.81523 0
M  V30 2165 H 194.233 2.35751 4.99125 0
M  V30 2166 H 194.71 0.800412 4.31845 0
M  V30 2167 H 195.316 2.29959 3.57769 0
M  V30 2168 N 193.631 -1.12557 1.10312 0
M  V30 2169 C 194.879 -1.83675 0.843091 0
M  V30 2170 C 195.2 -1.84435 -0.633131 0
M  V30 2171 O 194.47 -1.30657 -1.45964 0
M  V30 2172 H 193.05 -0.680138 0.308904 0
M  V30 2173 H 195.712 -1.36301 1.39313 0
M  V30 2174 H 194.808 -2.87908 1.2048 0
M  V30 2175 N 195.109 -0.891671 -1.2995 0
M  V30 2176 C 196.334 -0.527932 -2.00568 0
M  V30 2177 C 196.759 0.877969 -1.66353 0
M  V30 2178 O 196.117 1.58301 -0.883762 0
M  V30 2179 C 196.165 -0.717745 -3.53385 0
M  V30 2180 O 195.269 0.233376 -4.11739 0
M  V30 2181 H 194.61 -0.20722 -0.630837 0
M  V30 2182 H 197.14 -1.20105 -1.65638 0
M  V30 2183 H 197.15 -0.619307 -4.03272 0
M  V30 2184 H 195.825 -1.74276 -3.77625 0
M  V30 2185 H 194.402 0.0880706 -3.72796 0
M  V30 2186 N 196.587 1.43421 -0.653314 0
M  V30 2187 C 197.497 2.34568 0.0388565 0
M  V30 2188 C 198.513 1.53888 0.81207 0
M  V30 2189 O 199.689 1.86539 0.759294 0
M  V30 2190 C 196.754 3.32167 0.993269 0
M  V30 2191 C 195.815 4.28751 0.216977 0
M  V30 2192 C 195.048 5.21688 1.12593 0
M  V30 2193 O 195.271 5.19052 2.36519 0
M  V30 2194 O 194.205 5.98919 0.598284 0
M  V30 2195 H 198.031 2.95251 -0.711386 0
M  V30 2196 H 195.616 1.43564 -0.413502 0
M  V30 2197 H 197.498 3.92183 1.54176 0
M  V30 2198 H 196.173 2.73987 1.72374 0
M  V30 2199 H 195.08 3.72215 -0.375101 0
M  V30 2200 H 196.413 4.89913 -0.473924 0
M  V30 2201 N 198.065 0.39524 1.52563 0
M  V30 2202 C 199.314 -0.186321 2.00838 0
M  V30 2203 C 199.627 -1.47402 1.28577 0
M  V30 2204 O 200.833 -2.13599 1.67593 0
M  V30 2205 C 199.289 -0.382595 3.57861 0
M  V30 2206 C 198.897 0.892202 4.39026 0
M  V30 2207 C 200.641 -0.9202 4.14406 0
M  V30 2208 C 198.548 0.66388 5.87662 0
M  V30 2209 H 197.478 -0.0734041 0.750418 0
M  V30 2210 H 200.129 0.518552 1.76021 0
M  V30 2211 H 198.511 -1.14946 3.7895 0
M  V30 2212 H 199.685 1.66414 4.29701 0
M  V30 2213 H 198 1.35519 3.9373 0
M  V30 2214 H 200.597 -1.10683 5.23119 0
M  V30 2215 H 200.94 -1.89096 3.70875 0
M  V30 2216 H 201.473 -0.212751 3.97231 0
M  V30 2217 H 198.212 1.6058 6.35527 0
M  V30 2218 H 197.732 -0.0690193 5.9976 0
M  V30 2219 H 199.411 0.300699 6.46301 0
M  V30 2220 N 199.544 -1.57102 0.125237 0
M  V30 2221 C 200.793 -1.94582 -0.531095 0
M  V30 2222 C 201.106 -1.01126 -1.6743 0
M  V30 2223 O 202.312 -1.28097 -2.39381 0
M  V30 2224 C 200.768 -3.45839 -0.996164 0
M  V30 2225 C 200.376 -4.47842 0.118926 0
M  V30 2226 C 202.12 -3.92227 -1.62352 0
M  V30 2227 C 200.027 -5.90284 -0.363192 0
M  V30 2228 H 198.957 -0.726391 -0.20217 0
M  V30 2229 H 201.608 -1.82339 0.206092 0
M  V30 2230 H 199.99 -3.53338 -1.78796 0
M  V30 2231 H 201.164 -4.52018 0.895358 0
M  V30 2232 H 199.479 -4.11243 0.653324 0
M  V30 2233 H 202.076 -4.96069 -1.99548 0
M  V30 2234 H 202.419 -3.32552 -2.50429 0
M  V30 2235 H 202.952 -3.87554 -0.897019 0
M  V30 2236 H 199.691 -6.53728 0.481679 0
M  V30 2237 H 199.211 -5.89515 -1.10597 0
M  V30 2238 H 200.89 -6.41752 -0.822377 0
M  V30 2239 N 201.022 0.148545 -1.56898 0
M  V30 2240 C 202.438 0.501131 -1.51528 0
M  V30 2241 C 202.638 1.83458 -0.833399 0
M  V30 2242 O 201.694 2.49259 -0.40328 0
M  V30 2243 C 203.007 0.512864 -2.96294 0
M  V30 2244 C 204.555 0.598487 -3.07225 0
M  V30 2245 C 205.03 0.640897 -4.53494 0
M  V30 2246 N 206.521 0.703163 -4.57832 0
M  V30 2247 C 207.256 0.756935 -5.68382 0
M  V30 2248 N 206.752 0.770147 -6.88506 0
M  V30 2249 N 208.545 0.797698 -5.56411 0
M  V30 2250 H 200.696 -0.725532 -1.99624 0
M  V30 2251 H 202.959 -0.264358 -0.910395 0
M  V30 2252 H 202.665 -0.398691 -3.49433 0
M  V30 2253 H 202.539 1.35133 -3.52163 0
M  V30 2254 H 204.926 1.50046 -2.54106 0
M  V30 2255 H 205.007 -0.267093 -2.54402 0
M  V30 2256 H 204.651 -0.256915 -5.0725 0
M  V30 2257 H 204.581 1.52295 -5.04097 0
M  V30 2258 H 207.072 0.700314 -3.71354 0
M  V30 2259 H 207.385 0.812983 -7.68512 0
M  V30 2260 H 205.73 0.738049 -6.9107 0
M  V30 2261 H 208.921 0.784535 -4.61479 0
M  V30 2262 H 209.094 0.83614 -6.42583 0
M  V30 2263 N 202.5 1.5196 0.417844 0
M  V30 2264 C 203.433 1.69387 1.52916 0
M  V30 2265 C 204.411 0.541419 1.53321 0
M  V30 2266 O 205.595 0.767695 1.72159 0
M  V30 2267 C 202.722 1.72525 2.91467 0
M  V30 2268 C 201.768 2.93967 3.09008 0
M  V30 2269 S 202.601 4.54461 2.83242 0
M  V30 2270 C 203.757 4.60372 4.24038 0
M  V30 2271 H 203.99 2.63382 1.37903 0
M  V30 2272 H 201.523 1.41889 0.608845 0
M  V30 2273 H 203.481 1.75018 3.7132 0
M  V30 2274 H 202.142 0.796733 3.03827 0
M  V30 2275 H 201.335 2.92619 4.10353 0
M  V30 2276 H 200.937 2.89316 2.37007 0
M  V30 2277 H 203.229 4.37213 5.17544 0
M  V30 2278 H 204.172 5.62273 4.30412 0
M  V30 2279 H 204.58 3.89492 4.08602 0
M  V30 2280 N 203.978 -0.674533 1.42435 0
M  V30 2281 C 205.203 -1.46784 1.46524 0
M  V30 2282 C 205.628 -1.87938 0.078066 0
M  V30 2283 O 204.986 -1.56014 -0.92354 0
M  V30 2284 C 205.034 -2.69307 2.39805 0
M  V30 2285 O 204.138 -3.67587 1.86959 0
M  V30 2286 H 203.479 -0.440959 0.496439 0
M  V30 2287 H 206.009 -0.827326 1.87127 0
M  V30 2288 H 206.019 -3.17374 2.56393 0
M  V30 2289 H 204.694 -2.38692 3.40586 0
M  V30 2290 H 203.271 -3.2662 1.79927 0
M  V30 2291 N 205.456 -1.28612 -0.910864 0
M  V30 2292 C 206.386 -1.15326 -2.03032 0
M  V30 2293 C 207.367 -0.0502924 -1.70026 0
M  V30 2294 O 208.552 -0.227797 -1.92859 0
M  V30 2295 C 205.682 -0.817343 -3.37545 0
M  V30 2296 C 204.636 -1.8754 -3.84724 0
M  V30 2297 C 203.962 -1.39305 -5.16235 0
M  V30 2298 C 205.262 -3.28244 -4.06267 0
M  V30 2299 H 206.956 -2.08975 -2.14406 0
M  V30 2300 H 204.502 -1.00612 -1.03021 0
M  V30 2301 H 206.455 -0.711151 -4.15356 0
M  V30 2302 H 205.179 0.154846 -3.26233 0
M  V30 2303 H 203.838 -1.97079 -3.09121 0
M  V30 2304 H 203.486 -0.409846 -5.01328 0
M  V30 2305 H 203.186 -2.10057 -5.48771 0
M  V30 2306 H 204.71 -1.30014 -5.96598 0
M  V30 2307 H 206.124 -3.21611 -4.74594 0
M  V30 2308 H 204.521 -3.96855 -4.5014 0
M  V30 2309 H 205.591 -3.72048 -3.10979 0
M  V30 2310 N 206.934 1.1197 -1.10907 0
M  V30 2311 C 208.35 1.35591 -0.841852 0
M  V30 2312 C 208.55 1.94233 0.536246 0
M  V30 2313 O 207.606 2.1717 1.28816 0
M  V30 2314 C 208.919 2.29284 -1.94549 0
M  V30 2315 C 210.467 2.42862 -1.97451 0
M  V30 2316 C 210.942 3.39873 -3.07002 0
M  V30 2317 N 212.433 3.47433 -3.06341 0
M  V30 2318 C 213.168 4.22421 -3.87748 0
M  V30 2319 N 212.664 5.00432 -4.79103 0
M  V30 2320 N 214.457 4.17876 -3.75946 0
M  V30 2321 H 206.608 0.722664 -1.99728 0
M  V30 2322 H 208.871 0.380635 -0.868229 0
M  V30 2323 H 208.577 1.93378 -2.93765 0
M  V30 2324 H 208.451 3.29452 -1.83688 0
M  V30 2325 H 210.838 2.78046 -0.988645 0
M  V30 2326 H 210.919 1.42566 -2.12388 0
M  V30 2327 H 210.563 3.05417 -4.05811 0
M  V30 2328 H 210.493 4.40011 -2.89306 0
M  V30 2329 H 212.984 2.91784 -2.40147 0
M  V30 2330 H 213.297 5.55002 -5.37766 0
M  V30 2331 H 211.642 4.99612 -4.83128 0
M  V30 2332 H 214.833 3.56016 -3.03924 0
M  V30 2333 H 215.006 4.76061 -4.39624 0
M  V30 2334 N 208.412 0.89855 1.29475 0
M  V30 2335 C 209.362 0.346767 2.25348 0
M  V30 2336 C 210.346 -0.532509 1.51833 0
M  V30 2337 O 211.538 -0.374714 1.72988 0
M  V30 2338 C 208.667 -0.425681 3.40651 0
M  V30 2339 C 207.753 0.46845 4.21505 0
M  V30 2340 N 208.144 1.57514 4.80648 0
M  V30 2341 C 206.442 0.26603 4.45206 0
M  V30 2342 C 207.143 2.12889 5.41344 0
M  V30 2343 N 206.119 1.42208 5.24669 0
M  V30 2344 H 209.921 1.19219 2.68634 0
M  V30 2345 H 207.435 0.749473 1.44072 0
M  V30 2346 H 209.432 -0.837716 4.08397 0
M  V30 2347 H 208.092 -1.26838 2.98902 0
M  V30 2348 H 209.103 1.95789 4.79465 0
M  V30 2349 H 205.78 -0.538394 4.14014 0
M  V30 2350 H 207.17 3.05901 5.98226 0
M  V30 2351 N 209.89 -1.43072 0.660911 0
M  V30 2352 C 210.837 -2.30785 -0.0259884 0
M  V30 2353 C 211.807 -1.45184 -0.806888 0
M  V30 2354 O 212.992 -1.74041 -0.781943 0
M  V30 2355 C 210.132 -3.30861 -0.981067 0
M  V30 2356 C 209.245 -4.31558 -0.195458 0
M  V30 2357 C 208.38 -5.18712 -1.14503 0
M  V30 2358 C 207.419 -6.11097 -0.350299 0
M  V30 2359 N 206.556 -6.90849 -1.25186 0
M  V30 2360 H 211.396 -2.88975 0.727846 0
M  V30 2361 H 208.933 -1.42353 0.370682 0
M  V30 2362 H 210.891 -3.87399 -1.54849 0
M  V30 2363 H 209.521 -2.74304 -1.70169 0
M  V30 2364 H 208.573 -3.77252 0.488374 0
M  V30 2365 H 209.885 -4.9701 0.422176 0
M  V30 2366 H 209.039 -5.79914 -1.78284 0
M  V30 2367 H 207.778 -4.53404 -1.79656 0
M  V30 2368 H 206.783 -5.48976 0.300808 0
M  V30 2369 H 208.008 -6.7845 0.296941 0
M  V30 2370 H 205.954 -6.28182 -1.89005 0
M  V30 2371 H 205.871 -7.52854 -0.688971 0
M  V30 2372 H 207.139 -7.5655 -1.87757 0
M  V30 2373 N 211.368 -0.403325 -1.52352 0
M  V30 2374 C 212.779 0.0675782 -1.86578 0
M  V30 2375 C 213.13 1.44941 -1.32236 0
M  V30 2376 O 212.255 2.06112 -0.659307 0
M  V30 2377 C 212.85 0.129404 -3.38553 0
M  V30 2378 C 211.409 0.544629 -3.72439 0
M  V30 2379 C 210.556 -0.284551 -2.75836 0
M  V30 2380 H 213.507 -0.620631 -1.46061 0
M  V30 2381 H 213.528 0.94581 -3.68558 0
M  V30 2382 H 213.04 -0.87645 -3.78074 0
M  V30 2383 H 211.141 1.55734 -3.38493 0
M  V30 2384 H 211.254 0.293046 -4.78203 0
M  V30 2385 H 209.618 0.252258 -2.53448 0
M  V30 2386 H 210.401 -1.28865 -3.18196 0
M  V30 2387 N 212.846 1.57033 -0.133567 0
M  V30 2388 C 213.809 2.14897 0.796995 0
M  V30 2389 C 214.809 1.0874 1.18458 0
M  V30 2390 O 215.999 1.34446 1.1077 0
M  V30 2391 C 213.131 2.70112 2.07973 0
M  V30 2392 H 214.324 2.98457 0.293873 0
M  V30 2393 H 211.877 1.55871 0.115787 0
M  V30 2394 H 212.612 1.9018 2.62682 0
M  V30 2395 H 212.397 3.47764 1.81115 0
M  V30 2396 H 213.887 3.14738 2.74462 0
M  V30 2397 N 214.325 -0.140222 1.56975 0
M  V30 2398 C 215.571 -0.852949 1.83991 0
M  V30 2399 C 215.904 -1.80512 0.716187 0
M  V30 2400 O 215.179 -1.92479 -0.279681 0
M  V30 2401 C 215.462 -1.6215 3.21527 0
M  V30 2402 C 215.315 -0.690363 4.4447 0
M  V30 2403 C 216.634 -2.58247 3.56366 0
M  V30 2404 H 213.753 -0.308634 0.669264 0
M  V30 2405 H 216.395 -0.117898 1.89634 0
M  V30 2406 H 214.545 -2.24812 3.16847 0
M  V30 2407 H 216.217 -0.0742264 4.6124 0
M  V30 2408 H 214.46 -0.000396433 4.338 0
M  V30 2409 H 215.131 -1.2643 5.37326 0
M  V30 2410 H 217.607 -2.05701 3.61699 0
M  V30 2411 H 216.483 -3.09067 4.53617 0
M  V30 2412 H 216.744 -3.39923 2.82674 0
M  V30 2413 N 215.803 -1.52179 -0.40978 0
M  V30 2414 C 217.028 -1.70347 -1.18308 0
M  V30 2415 C 217.453 -0.411887 -1.83535 0
M  V30 2416 O 216.811 0.630587 -1.6998 0
M  V30 2417 C 216.859 -2.83977 -2.22238 0
M  V30 2418 O 215.963 -2.495 -3.28365 0
M  V30 2419 H 215.304 -0.567103 -0.345384 0
M  V30 2420 H 217.834 -1.98879 -0.480445 0
M  V30 2421 H 217.844 -3.0887 -2.66577 0
M  V30 2422 H 216.519 -3.77685 -1.74146 0
M  V30 2423 H 215.096 -2.35277 -2.89308 0
M  V30 2424 N 217.281 0.66697 -1.42791 0
M  V30 2425 C 218.228 1.7803 -1.4688 0
M  V30 2426 C 219.198 1.6299 -0.319919 0
M  V30 2427 O 220.383 1.83432 -0.525118 0
M  V30 2428 C 217.523 3.1611 -1.38451 0
M  V30 2429 C 216.636 3.42381 -2.63437 0
M  V30 2430 C 215.771 4.70232 -2.47094 0
M  V30 2431 C 214.81 4.89564 -3.67415 0
M  V30 2432 N 213.947 6.08661 -3.49966 0
M  V30 2433 H 218.787 1.7387 -2.42019 0
M  V30 2434 H 216.324 0.84868 -1.20149 0
M  V30 2435 H 218.282 3.95914 -1.31561 0
M  V30 2436 H 216.912 3.19374 -0.469033 0
M  V30 2437 H 215.964 2.56774 -2.80662 0
M  V30 2438 H 217.276 3.52557 -3.52853 0
M  V30 2439 H 216.43 5.5814 -2.37834 0
M  V30 2440 H 215.169 4.62353 -1.5518 0
M  V30 2441 H 214.174 4.00096 -3.77099 0
M  V30 2442 H 215.399 4.99282 -4.6032 0
M  V30 2443 H 213.345 6.0194 -2.60776 0
M  V30 2444 H 213.262 6.19733 -4.32975 0
M  V30 2445 H 214.53 6.99226 -3.44532 0
M  V30 2446 N 218.759 1.29093 0.90403 0
M  V30 2447 C 220.175 1.07011 1.1841 0
M  V30 2448 C 220.375 -0.181358 2.00682 0
M  V30 2449 O 219.431 -0.880331 2.36657 0
M  V30 2450 C 220.744 2.32311 1.90924 0
M  V30 2451 C 222.292 2.37587 2.03768 0
M  V30 2452 C 222.767 3.62679 2.79693 0
M  V30 2453 N 224.258 3.63376 2.87249 0
M  V30 2454 C 224.993 4.56848 3.46522 0
M  V30 2455 N 224.489 5.60648 4.06996 0
M  V30 2456 N 226.282 4.44426 3.44154 0
M  V30 2457 H 218.433 2.09412 0.354993 0
M  V30 2458 H 220.696 0.922181 0.219742 0
M  V30 2459 H 220.402 3.23536 1.37905 0
M  V30 2460 H 220.276 2.39483 2.91424 0
M  V30 2461 H 222.663 1.46853 2.55965 0
M  V30 2462 H 222.744 2.34403 1.02415 0
M  V30 2463 H 222.388 4.53762 2.28173 0
M  V30 2464 H 222.318 3.63119 3.81381 0
M  V30 2465 H 224.809 2.88321 2.44293 0
M  V30 2466 H 225.122 6.28101 4.50232 0
M  V30 2467 H 223.467 5.64463 4.05471 0
M  V30 2468 H 226.658 3.62529 2.96126 0
M  V30 2469 H 226.831 5.17457 3.90054 0
M  V30 2470 N 220.237 -1.11381 1.11499 0
M  V30 2471 C 221.147 -2.21019 0.786628 0
M  V30 2472 C 222.163 -1.72597 -0.220507 0
M  V30 2473 O 223.339 -2.01321 -0.0565251 0
M  V30 2474 C 220.404 -3.459 0.235333 0
M  V30 2475 C 219.465 -4.09107 1.30115 0
M  V30 2476 C 218.698 -5.28027 0.776068 0
M  V30 2477 O 218.921 -5.6904 -0.393661 0
M  V30 2478 O 217.855 -5.81835 1.54114 0
M  V30 2479 H 221.681 -2.51521 1.70209 0
M  V30 2480 H 219.266 -1.19928 0.890928 0
M  V30 2481 H 221.148 -4.21346 -0.067715 0
M  V30 2482 H 219.823 -3.17049 -0.652828 0
M  V30 2483 H 218.73 -3.35391 1.65722 0
M  V30 2484 H 220.063 -4.42139 2.16273 0
M  V30 2485 N 221.715 -0.905404 -1.28997 0
M  V30 2486 C 222.943 -0.549846 -1.9946 0
M  V30 2487 C 223.358 0.866834 -1.67724 0
M  V30 2488 O 222.715 1.57298 -0.925404 0
M  V30 2489 C 222.766 -0.739387 -3.53858 0
M  V30 2490 O 222.487 -2.10031 -3.84472 0
M  V30 2491 C 223.988 -0.389541 -4.41585 0
M  V30 2492 H 221.208 -0.210429 -0.637151 0
M  V30 2493 H 223.752 -1.21632 -1.64396 0
M  V30 2494 H 221.907 -0.120023 -3.87214 0
M  V30 2495 H 222.321 -2.13385 -4.79132 0
M  V30 2496 H 223.795 -0.572972 -5.49018 0
M  V30 2497 H 224.272 0.673756 -4.34001 0
M  V30 2498 H 224.878 -0.986089 -4.1371 0
M  V30 2499 N 223.193 1.4272 -0.668489 0
M  V30 2500 C 224.439 2.01923 -0.188419 0
M  V30 2501 C 224.772 1.52704 1.19979 0
M  V30 2502 O 224.047 0.726566 1.8042 0
M  V30 2503 C 224.33 3.59451 -0.216085 0
M  V30 2504 C 224.183 4.18864 -1.6393 0
M  V30 2505 C 225.502 4.37903 0.439179 0
M  V30 2506 H 222.621 0.733674 -0.0699412 0
M  V30 2507 H 225.263 1.69822 -0.852076 0
M  V30 2508 H 223.413 3.86929 0.349012 0
M  V30 2509 H 225.085 4.02362 -2.25616 0
M  V30 2510 H 223.328 3.74933 -2.18193 0
M  V30 2511 H 223.999 5.27987 -1.61039 0
M  V30 2512 H 226.475 4.16079 -0.0417878 0
M  V30 2513 H 225.351 5.47519 0.389157 0
M  V30 2514 H 225.612 4.15303 1.51577 0
M  V30 2515 N 224.671 0.411399 1.52136 0
M  V30 2516 C 225.919 -0.163322 2.01439 0
M  V30 2517 C 226.24 -1.45453 1.29879 0
M  V30 2518 O 225.51 -1.91225 0.4254 0
M  V30 2519 H 224.09 -0.0633447 0.744309 0
M  V30 2520 H 226.752 0.548161 1.87033 0
M  V30 2521 H 225.848 -0.357817 3.10042 0
M  V30 2522 N 226.149 -1.5696 0.141893 0
M  V30 2523 C 227.081 -2.13619 -0.830627 0
M  V30 2524 C 228.094 -1.08439 -1.21428 0
M  V30 2525 O 229.283 -1.35734 -1.15925 0
M  V30 2526 C 226.383 -2.63978 -2.12529 0
M  V30 2527 C 225.556 -3.93504 -1.9098 0
M  V30 2528 C 224.615 -4.29225 -3.04388 0
M  V30 2529 O 223.641 -4.97641 -2.76302 0
M  V30 2530 N 224.843 -3.88393 -4.31429 0
M  V30 2531 H 227.608 -2.97691 -0.34641 0
M  V30 2532 H 225.169 -1.61846 -0.0418375 0
M  V30 2533 H 227.161 -2.84891 -2.87436 0
M  V30 2534 H 225.731 -1.84659 -2.52229 0
M  V30 2535 H 224.951 -3.81269 -1.00139 0
M  V30 2536 H 226.239 -4.78154 -1.73914 0
M  V30 2537 H 225.637 -3.33257 -4.57117 0
M  V30 2538 H 224.194 -4.14368 -5.03133 0
M  V30 2539 N 227.627 0.131896 -1.57047 0
M  V30 2540 C 228.852 0.860418 -1.8871 0
M  V30 2541 C 229.277 1.73251 -0.73251 0
M  V30 2542 O 228.635 1.785 0.317429 0
M  V30 2543 C 228.683 1.68047 -3.19049 0
M  V30 2544 O 227.787 2.7862 -3.04047 0
M  V30 2545 H 227.128 0.238743 -0.619595 0
M  V30 2546 H 229.658 0.118169 -2.04258 0
M  V30 2547 H 229.668 2.07238 -3.51449 0
M  V30 2548 H 228.343 1.04018 -4.02682 0
M  V30 2549 H 226.92 2.42726 -2.83088 0
M  V30 2550 N 229.106 1.52395 0.401703 0
M  V30 2551 C 230.036 1.79231 1.49661 0
M  V30 2552 C 231.017 0.643654 1.57452 0
M  V30 2553 O 232.202 0.889989 1.72606 0
M  V30 2554 C 229.332 1.94971 2.87409 0
M  V30 2555 C 228.286 3.10604 2.94465 0
M  V30 2556 C 227.612 3.11577 4.34538 0
M  V30 2557 C 228.912 4.49921 2.6527 0
M  V30 2558 H 230.606 2.70917 1.27454 0
M  V30 2559 H 228.152 1.30362 0.6117 0
M  V30 2560 H 230.105 2.12328 3.63999 0
M  V30 2561 H 228.829 0.999632 3.10926 0
M  V30 2562 H 227.488 2.93009 2.20321 0
M  V30 2563 H 227.136 2.14277 4.55076 0
M  V30 2564 H 226.836 3.89247 4.40183 0
M  V30 2565 H 228.36 3.31073 5.13053 0
M  V30 2566 H 229.774 4.67683 3.31581 0
M  V30 2567 H 228.171 5.29564 2.82281 0
M  V30 2568 H 229.241 4.57507 1.60671 0
M  V30 2569 N 230.584 -0.659388 1.43143 0
M  V30 2570 C 231.514 -1.78422 1.50625 0
M  V30 2571 C 232.495 -1.66216 0.361443 0
M  V30 2572 O 233.68 -1.85404 0.577834 0
M  V30 2573 C 230.81 -3.16815 1.42287 0
M  V30 2574 C 229.764 -3.43777 2.54954 0
M  V30 2575 C 229.09 -4.81905 2.31671 0
M  V30 2576 C 230.39 -3.39134 3.97222 0
M  V30 2577 H 232.084 -1.72417 2.44771 0
M  V30 2578 H 229.63 -0.828084 1.17808 0
M  V30 2579 H 231.583 -3.95253 1.46127 0
M  V30 2580 H 230.307 -3.23534 0.446435 0
M  V30 2581 H 228.966 -2.67707 2.50457 0
M  V30 2582 H 228.614 -4.85294 1.32284 0
M  V30 2583 H 228.314 -5.00906 3.07192 0
M  V30 2584 H 229.838 -5.62609 2.37284 0
M  V30 2585 H 231.252 -4.07518 4.03239 0
M  V30 2586 H 229.649 -3.69671 4.72719 0
M  V30 2587 H 230.719 -2.37426 4.22797 0
M  V30 2588 N 232.062 -1.29571 -0.897171 0
M  V30 2589 C 233.012 -1.11539 -1.98855 0
M  V30 2590 C 233.996 -0.0340716 -1.60864 0
M  V30 2591 O 235.188 -0.256062 -1.75138 0
M  V30 2592 C 232.317 -0.796603 -3.3393 0
M  V30 2593 C 231.403 -1.91758 -3.78272 0
M  V30 2594 N 231.794 -3.16143 -3.94826 0
M  V30 2595 C 230.092 -1.81119 -4.07568 0
M  V30 2596 C 230.793 -3.89293 -4.32233 0
M  V30 2597 N 229.769 -3.17255 -4.41419 0
M  V30 2598 H 233.571 -2.05894 -2.09726 0
M  V30 2599 H 231.085 -1.20732 -1.08616 0
M  V30 2600 H 233.082 -0.648459 -4.11826 0
M  V30 2601 H 231.742 0.139003 -3.24402 0
M  V30 2602 H 232.753 -3.5157 -3.80288 0
M  V30 2603 H 229.43 -0.948461 -4.06584 0
M  V30 2604 H 230.82 -4.9635 -4.52865 0
M  V30 2605 N 233.54 1.10788 -1.12088 0
M  V30 2606 C 234.472 2.16816 -0.743213 0
M  V30 2607 C 235.485 1.6119 0.228412 0
M  V30 2608 O 236.674 1.78497 0.0102931 0
M  V30 2609 C 233.774 3.38809 -0.0787313 0
M  V30 2610 C 232.947 4.23885 -1.0789 0
M  V30 2611 C 232.006 5.24334 -0.442713 0
M  V30 2612 O 231.032 5.58497 -1.09864 0
M  V30 2613 N 232.234 5.75079 0.791457 0
M  V30 2614 H 234.999 2.49825 -1.65552 0
M  V30 2615 H 232.56 1.26373 -1.012 0
M  V30 2616 H 234.552 4.03107 0.358766 0
M  V30 2617 H 233.122 3.03805 0.736275 0
M  V30 2618 H 232.342 3.55939 -1.69414 0
M  V30 2619 H 233.63 4.77562 -1.75533 0
M  V30 2620 H 233.028 5.49517 1.3434 0
M  V30 2621 H 231.585 6.4118 1.17183 0
M  V30 2622 N 235.018 0.912232 1.28515 0
M  V30 2623 C 236.246 0.560416 1.99166 0
M  V30 2624 C 236.661 -0.857927 1.68182 0
M  V30 2625 O 236.018 -1.56805 0.933733 0
M  V30 2626 C 236.069 0.758142 3.53461 0
M  V30 2627 O 235.79 2.12067 3.83352 0
M  V30 2628 C 237.291 0.412954 4.41372 0
M  V30 2629 H 234.511 0.213805 0.636026 0
M  V30 2630 H 237.055 1.22502 1.63749 0
M  V30 2631 H 235.21 0.140556 3.87145 0
M  V30 2632 H 235.624 2.15923 4.77993 0
M  V30 2633 H 237.098 0.60208 5.48707 0
M  V30 2634 H 237.575 -0.65073 4.34353 0
M  V30 2635 H 238.181 1.00802 4.13182 0
M  V30 2636 N 236.496 -1.42363 0.676048 0
M  V30 2637 C 237.428 -2.29164 -0.0404605 0
M  V30 2638 C 238.441 -1.43747 -0.764245 0
M  V30 2639 O 239.63 -1.67453 -0.618195 0
M  V30 2640 C 236.73 -3.21196 -1.08103 0
M  V30 2641 C 235.903 -4.35273 -0.430812 0
M  V30 2642 C 234.962 -5.08017 -1.37133 0
M  V30 2643 O 233.988 -5.62494 -0.87116 0
M  V30 2644 N 235.19 -5.13647 -2.70456 0
M  V30 2645 H 237.955 -2.91298 0.704667 0
M  V30 2646 H 235.516 -1.53303 0.520559 0
M  V30 2647 H 237.508 -3.66728 -1.71152 0
M  V30 2648 H 236.078 -2.60505 -1.72788 0
M  V30 2649 H 235.298 -3.92372 0.379209 0
M  V30 2650 H 236.586 -5.08795 0.0221132 0
M  V30 2651 H 235.984 -4.708 -3.1363 0
M  V30 2652 H 234.541 -5.62821 -3.28749 0
M  V30 2653 N 237.974 -0.419461 -1.51915 0
M  V30 2654 C 238.907 0.445751 -2.23804 0
M  V30 2655 C 239.885 1.03951 -1.25031 0
M  V30 2656 O 241.069 1.08541 -1.54114 0
M  V30 2657 C 238.196 1.61964 -2.97465 0
M  V30 2658 C 237.242 1.14828 -4.10751 0
M  V30 2659 S 238.075 0.104938 -5.35397 0
M  V30 2660 C 239.231 1.28391 -6.1259 0
M  V30 2661 H 239.464 -0.164627 -2.96844 0
M  V30 2662 H 236.997 -0.203833 -1.53049 0
M  V30 2663 H 238.955 2.29271 -3.40507 0
M  V30 2664 H 237.616 2.20139 -2.24048 0
M  V30 2665 H 236.809 2.02561 -4.61503 0
M  V30 2666 H 236.411 0.553712 -3.69878 0
M  V30 2667 H 238.703 2.20563 -6.40592 0
M  V30 2668 H 239.646 0.816724 -7.03374 0
M  V30 2669 H 240.054 1.51439 -5.43807 0
M  V30 2670 N 239.452 1.56882 -0.150215 0
M  V30 2671 C 240.7 1.9584 0.499105 0
M  V30 2672 C 241.021 1.03623 1.65188 0
M  V30 2673 O 240.291 0.0984084 1.95653 0
M  V30 2674 H 238.871 0.723119 0.187373 0
M  V30 2675 H 241.533 1.9358 -0.226466 0
M  V30 2676 H 240.629 2.99638 0.873122 0
M  V30 2677 N 240.93 -0.123565 1.57115 0
M  V30 2678 C 242.207 -0.862196 1.75572 0
M  V30 2679 C 242.587 -1.98279 0.724475 0
M  V30 2680 O 241.935 -2.27102 -0.252407 0
M  V30 2681 C 242.145 -1.38309 3.20424 0
M  V30 2682 C 243.493 -1.83724 3.82793 0
M  V30 2683 O 244.517 -1.47999 3.23998 0
M  V30 2684 O 243.376 -2.49685 4.86127 0
M  V30 2685 H 240.47 -0.409113 0.718718 0
M  V30 2686 H 243.016 -0.107661 1.69358 0
M  V30 2687 H 241.788 -0.578889 3.86994 0
M  V30 2688 H 241.411 -2.20046 3.31158 0
M  V30 2689 N 242.408 -1.52605 -0.393616 0
M  V30 2690 C 243.657 -1.66649 -1.13627 0
M  V30 2691 C 243.97 -0.410364 -1.91247 0
M  V30 2692 O 245.176 -0.430854 -2.68059 0
M  V30 2693 C 243.632 -2.9449 -2.06891 0
M  V30 2694 C 243.24 -4.27266 -1.34714 0
M  V30 2695 C 244.984 -3.17899 -2.81319 0
M  V30 2696 C 242.891 -5.46217 -2.26717 0
M  V30 2697 H 241.821 -0.62084 -0.427871 0
M  V30 2698 H 244.472 -1.791 -0.399428 0
M  V30 2699 H 242.854 -2.75774 -2.84191 0
M  V30 2700 H 244.028 -4.56518 -0.626714 0
M  V30 2701 H 242.343 -4.10081 -0.722643 0
M  V30 2702 H 244.94 -4.03949 -3.50328 0
M  V30 2703 H 245.283 -2.32777 -3.45139 0
M  V30 2704 H 245.816 -3.37159 -2.11113 0
M  V30 2705 H 242.555 -6.33733 -1.67521 0
M  V30 2706 H 242.075 -5.21283 -2.96689 0
M  V30 2707 H 243.754 -5.7991 -2.86903 0
M  V30 2708 N 243.887 0.651787 -1.4349 0
M  V30 2709 C 245.133 1.4121 -1.46395 0
M  V30 2710 C 245.488 1.92202 -0.087366 0
M  V30 2711 O 244.781 1.69452 0.894231 0
M  V30 2712 C 244.975 2.60914 -2.44251 0
M  V30 2713 C 244.804 2.21639 -3.91288 0
M  V30 2714 C 243.574 2.09897 -4.59643 0
M  V30 2715 C 245.772 1.81835 -4.81083 0
M  V30 2716 N 243.754 1.63967 -5.91598 0
M  V30 2717 C 245.125 1.46998 -6.02322 0
M  V30 2718 C 247.18 1.69031 -4.6833 0
M  V30 2719 C 245.883 1.00638 -7.12225 0
M  V30 2720 C 247.909 1.24077 -5.78238 0
M  V30 2721 C 247.271 0.901772 -6.98604 0
M  V30 2722 H 243.37 0.512322 -0.590805 0
M  V30 2723 H 245.954 0.74989 -1.7968 0
M  V30 2724 H 244.125 3.24792 -2.1299 0
M  V30 2725 H 245.857 3.27622 -2.37584 0
M  V30 2726 H 242.612 2.297 -4.14168 0
M  V30 2727 H 243.036 1.43359 -6.61647 0
M  V30 2728 H 247.678 1.93878 -3.75727 0
M  V30 2729 H 245.396 0.745399 -8.04655 0
M  V30 2730 H 248.982 1.14657 -5.7039 0
M  V30 2731 H 247.862 0.559226 -7.82203 0
M  V30 2732 N 245.365 1.30045 0.890287 0
M  V30 2733 C 246.776 1.16738 1.45702 0
M  V30 2734 C 247.127 -0.233939 1.948 0
M  V30 2735 O 246.252 -1.13021 1.84541 0
M  V30 2736 C 246.847 2.11313 2.64825 0
M  V30 2737 C 245.406 2.02001 3.17604 0
M  V30 2738 C 244.553 2.01699 1.90296 0
M  V30 2739 H 247.504 1.42392 0.700726 0
M  V30 2740 H 247.525 1.69086 3.40867 0
M  V30 2741 H 247.037 3.13294 2.2906 0
M  V30 2742 H 245.138 1.03142 3.5804 0
M  V30 2743 H 245.251 2.90128 3.81264 0
M  V30 2744 H 243.615 1.46427 2.08402 0
M  V30 2745 H 244.398 3.05402 1.56795 0
M  V30 2746 N 246.843 -1.10192 1.12674 0
M  V30 2747 C 248.091 -1.81845 0.881861 0
M  V30 2748 C 248.412 -1.85737 -0.593867 0
M  V30 2749 O 247.682 -1.33724 -1.4316 0
M  V30 2750 H 246.262 -0.673432 0.323261 0
M  V30 2751 H 248.924 -1.33316 1.42172 0
M  V30 2752 H 248.02 -2.85288 1.2656 0
M  V30 2753 N 248.321 -0.919034 -1.28029 0
M  V30 2754 C 249.737 -0.617972 -1.4715 0
M  V30 2755 C 249.937 0.835242 -1.83374 0
M  V30 2756 O 248.993 1.61388 -1.94191 0
M  V30 2757 C 250.306 -1.56041 -2.57044 0
M  V30 2758 C 251.854 -1.56769 -2.7091 0
M  V30 2759 C 252.329 -2.49688 -3.83953 0
M  V30 2760 N 253.82 -2.47845 -3.91314 0
M  V30 2761 C 254.555 -3.16437 -4.78179 0
M  V30 2762 N 254.051 -3.94376 -5.69596 0
M  V30 2763 N 255.844 -3.05498 -4.71834 0
M  V30 2764 H 247.995 -1.85866 -1.02798 0
M  V30 2765 H 250.258 -0.797506 -0.512531 0
M  V30 2766 H 249.964 -2.59671 -2.372 0
M  V30 2767 H 249.838 -1.29551 -3.54255 0
M  V30 2768 H 252.225 -0.538745 -2.90141 0
M  V30 2769 H 252.306 -1.87305 -1.74214 0
M  V30 2770 H 251.95 -3.52688 -3.65477 0
M  V30 2771 H 251.88 -2.16453 -4.80058 0
M  V30 2772 H 254.371 -1.91234 -3.25941 0
M  V30 2773 H 254.684 -4.43721 -6.32718 0
M  V30 2774 H 253.029 -3.98481 -5.69419 0
M  V30 2775 H 256.22 -2.44108 -3.99411 0
M  V30 2776 H 256.393 -3.59225 -5.39316 0
M  V30 2777 N 249.799 1.42003 -0.683588 0
M  V30 2778 C 250.746 2.30798 -0.0107309 0
M  V30 2779 C 251.716 1.4645 0.783688 0
M  V30 2780 O 252.901 1.75263 0.754156 0
M  V30 2781 C 250.041 3.3238 0.928306 0
M  V30 2782 C 249.154 4.31814 0.126776 0
M  V30 2783 C 248.289 5.20468 1.06236 0
M  V30 2784 C 247.328 6.11577 0.253035 0
M  V30 2785 N 246.465 6.92754 1.14179 0
M  V30 2786 H 251.305 2.8778 -0.773727 0
M  V30 2787 H 248.842 1.41745 -0.393283 0
M  V30 2788 H 250.8 3.89813 1.48666 0
M  V30 2789 H 249.43 2.76976 1.65783 0
M  V30 2790 H 248.482 3.76427 -0.54833 0
M  V30 2791 H 249.794 4.96276 -0.501192 0
M  V30 2792 H 248.948 5.82677 1.69035 0
M  V30 2793 H 247.687 4.56204 1.7242 0
M  V30 2794 H 246.692 5.48428 -0.388108 0
M  V30 2795 H 247.917 6.77892 -0.404839 0
M  V30 2796 H 245.863 6.3111 1.78987 0
M  V30 2797 H 245.78 7.53855 0.569111 0
M  V30 2798 H 247.048 7.59441 1.75697 0
M  V30 2799 N 251.277 0.427512 1.51691 0
M  V30 2800 C 252.526 -0.143679 2.01188 0
M  V30 2801 C 252.839 -1.44642 1.31674 0
M  V30 2802 O 254.045 -2.09997 1.72086 0
M  V30 2803 C 252.501 -0.306602 3.58592 0
M  V30 2804 C 252.109 0.985125 4.37035 0
M  V30 2805 C 253.853 -0.832091 4.16265 0
M  V30 2806 C 251.76 0.788382 5.86122 0
M  V30 2807 H 250.69 -0.0574701 0.751807 0
M  V30 2808 H 253.341 0.555772 1.74881 0
M  V30 2809 H 251.723 -1.06882 3.81303 0
M  V30 2810 H 252.897 1.75492 4.26074 0
M  V30 2811 H 251.212 1.4384 3.90767 0
M  V30 2812 H 253.809 -0.995617 5.25349 0
M  V30 2813 H 254.152 -1.81186 3.74803 0
M  V30 2814 H 254.685 -0.128444 3.97593 0
M  V30 2815 H 251.424 1.74025 6.31978 0
M  V30 2816 H 250.944 0.0582143 5.99772 0
M  V30 2817 H 252.623 0.437722 6.45518 0
M  V30 2818 N 252.755 -1.56801 0.158532 0
M  V30 2819 C 254.004 -1.95665 -0.489702 0
M  V30 2820 C 254.317 -1.04654 -1.65248 0
M  V30 2821 O 255.523 -1.33146 -2.3661 0
M  V30 2822 C 253.979 -3.47874 -0.922582 0
M  V30 2823 C 253.587 -4.47489 0.213893 0
M  V30 2824 C 255.331 -3.95583 -1.53996 0
M  V30 2825 C 253.238 -5.90921 -0.237903 0
M  V30 2826 H 252.168 -0.730516 -0.186716 0
M  V30 2827 H 254.819 -1.81861 0.244722 0
M  V30 2828 H 253.201 -3.57051 -1.71261 0
M  V30 2829 H 254.375 -4.50017 0.991036 0
M  V30 2830 H 252.69 -4.09764 0.740407 0
M  V30 2831 H 255.287 -5.0019 -1.8898 0
M  V30 2832 H 255.63 -3.37789 -2.43319 0
M  V30 2833 H 256.163 -3.8937 -0.814611 0
M  V30 2834 H 252.902 -6.52559 0.620236 0
M  V30 2835 H 252.422 -5.91729 -0.980676 0
M  V30 2836 H 254.101 -6.43352 -0.686067 0
M  V30 2837 N 254.233 0.115231 -1.57178 0
M  V30 2838 C 255.165 1.16694 -1.97269 0
M  V30 2839 C 256.178 1.37445 -0.872502 0
M  V30 2840 O 257.367 1.36454 -1.15077 0
M  V30 2841 C 254.467 2.52627 -2.25905 0
M  V30 2842 C 253.64 2.52427 -3.57211 0
M  V30 2843 C 252.699 3.70134 -3.74016 0
M  V30 2844 O 251.725 3.53546 -4.46087 0
M  V30 2845 N 252.927 4.88844 -3.13068 0
M  V30 2846 H 255.692 0.82588 -2.88096 0
M  V30 2847 H 253.253 0.304461 -1.59011 0
M  V30 2848 H 255.245 3.29937 -2.34359 0
M  V30 2849 H 253.815 2.789 -1.41186 0
M  V30 2850 H 253.035 1.60805 -3.5991 0
M  V30 2851 H 254.323 2.49353 -4.43509 0
M  V30 2852 H 253.721 5.05225 -2.54489 0
M  V30 2853 H 252.278 5.63817 -3.27037 0
M  V30 2854 N 255.711 1.52812 0.385517 0
M  V30 2855 C 256.621 1.80766 1.49535 0
M  V30 2856 C 257.637 0.694651 1.59532 0
M  V30 2857 O 258.813 0.982611 1.75803 0
M  V30 2858 C 255.878 1.97381 2.85029 0
M  V30 2859 C 254.939 3.21295 2.84724 0
M  V30 2860 C 254.172 3.37108 4.13756 0
M  V30 2861 O 254.395 2.5765 5.08893 0
M  V30 2862 O 253.329 4.30378 4.20783 0
M  V30 2863 H 257.155 2.75015 1.28842 0
M  V30 2864 H 254.74 1.37946 0.573697 0
M  V30 2865 H 256.622 2.09996 3.65349 0
M  V30 2866 H 255.297 1.06322 3.05741 0
M  V30 2867 H 254.204 3.1412 2.03174 0
M  V30 2868 H 255.537 4.12212 2.68965 0
M  V30 2869 N 257.189 -0.644168 1.43834 0
M  V30 2870 C 258.605 -0.960875 1.27434 0
M  V30 2871 C 258.805 -2.00499 0.200618 0
M  V30 2872 O 257.861 -2.49018 -0.417906 0
M  V30 2873 C 259.174 -1.43653 2.64167 0
M  V30 2874 C 260.722 -1.55271 2.71772 0
M  V30 2875 C 261.197 -2.06224 4.08944 0
M  V30 2876 N 262.688 -2.13513 4.11055 0
M  V30 2877 C 263.423 -2.54081 5.14033 0
M  V30 2878 N 262.919 -2.9388 6.27381 0
M  V30 2879 N 264.712 -2.54101 5.01387 0
M  V30 2880 H 256.863 0.0465779 2.12349 0
M  V30 2881 H 259.126 -0.0417638 0.94708 0
M  V30 2882 H 258.832 -0.743706 3.43747 0
M  V30 2883 H 258.706 -2.40993 2.90176 0
M  V30 2884 H 261.093 -2.23653 1.92519 0
M  V30 2885 H 261.174 -0.563395 2.49519 0
M  V30 2886 H 260.818 -1.38441 4.88668 0
M  V30 2887 H 260.748 -3.06003 4.28567 0
M  V30 2888 H 263.239 -1.85493 3.29242 0
M  V30 2889 H 263.552 -3.2361 7.01781 0
M  V30 2890 H 261.897 -2.91663 6.30839 0
M  V30 2891 H 265.088 -2.22391 4.11898 0
M  V30 2892 H 265.261 -2.85394 5.81768 0
M  V30 2893 N 258.668 -1.30515 -0.883378 0
M  V30 2894 C 259.6 -1.12846 -1.99496 0
M  V30 2895 C 260.613 -0.0712571 -1.62644 0
M  V30 2896 O 261.802 -0.317432 -1.75655 0
M  V30 2897 C 258.902 -0.699123 -3.3161 0
M  V30 2898 C 258.075 -1.83842 -3.96889 0
M  V30 2899 C 257.134 -1.39737 -5.07307 0
M  V30 2900 O 256.16 -2.10485 -5.28852 0
M  V30 2901 N 257.362 -0.277279 -5.79837 0
M  V30 2902 H 260.127 -2.08585 -2.15203 0
M  V30 2903 H 257.688 -1.22672 -1.05656 0
M  V30 2904 H 259.68 -0.387044 -4.02845 0
M  V30 2905 H 258.25 0.166276 -3.12157 0
M  V30 2906 H 257.47 -2.31853 -3.18807 0
M  V30 2907 H 258.758 -2.60187 -4.37241 0
M  V30 2908 H 258.156 0.3122 -5.64838 0
M  V30 2909 H 256.713 -0.0246623 -6.51795 0
M  V30 2910 N 260.146 1.09593 -1.13257 0
M  V30 2911 C 261.093 2.1618 -0.808381 0
M  V30 2912 C 262.063 1.64517 0.228754 0
M  V30 2913 O 263.248 1.9053 0.101381 0
M  V30 2914 C 260.388 3.43973 -0.278675 0
M  V30 2915 C 259.501 4.09545 -1.37466 0
M  V30 2916 C 258.636 5.25088 -0.803479 0
M  V30 2917 C 257.675 5.82579 -1.87799 0
M  V30 2918 N 256.812 6.89486 -1.32488 0
M  V30 2919 H 261.652 2.43254 -1.72138 0
M  V30 2920 H 259.189 1.19392 -0.859294 0
M  V30 2921 H 261.147 4.17174 0.0465583 0
M  V30 2922 H 259.777 3.17223 0.597459 0
M  V30 2923 H 258.829 3.34226 -1.81652 0
M  V30 2924 H 260.141 4.48307 -2.18684 0
M  V30 2925 H 259.295 6.05178 -0.429427 0
M  V30 2926 H 258.034 4.87684 0.0397956 0
M  V30 2927 H 257.039 5.01152 -2.26113 0
M  V30 2928 H 258.264 6.22045 -2.72463 0
M  V30 2929 H 256.21 6.54064 -0.503575 0
M  V30 2930 H 256.127 7.27007 -2.07355 0
M  V30 2931 H 257.395 7.73336 -0.978336 0
M  V30 2932 N 261.624 0.925811 1.2754 0
M  V30 2933 C 262.534 0.428993 2.30644 0
M  V30 2934 C 263.55 -0.489387 1.66976 0
M  V30 2935 O 264.726 -0.372653 1.97922 0
M  V30 2936 C 261.791 -0.311967 3.45294 0
M  V30 2937 C 260.852 0.641098 4.24486 0
M  V30 2938 C 260.085 -0.0645955 5.33661 0
M  V30 2939 O 260.308 -1.28429 5.55754 0
M  V30 2940 O 259.242 0.606265 5.98839 0
M  V30 2941 H 263.068 1.28504 2.75173 0
M  V30 2942 H 260.653 0.691086 1.32455 0
M  V30 2943 H 262.535 -0.729972 4.15029 0
M  V30 2944 H 261.21 -1.14365 3.02824 0
M  V30 2945 H 260.117 1.10874 3.57292 0
M  V30 2946 H 261.45 1.43995 4.70666 0
M  V30 2947 N 263.102 -1.41638 0.69111 0
M  V30 2948 C 264.513 -1.84346 0.295517 0
M  V30 2949 C 264.864 -1.57833 -1.16547 0
M  V30 2950 O 263.989 -1.04648 -1.89414 0
M  V30 2951 C 264.584 -3.34636 0.529575 0
M  V30 2952 C 263.143 -3.7593 0.187944 0
M  V30 2953 C 262.29 -2.65082 0.814052 0
M  V30 2954 H 265.241 -1.31253 0.892092 0
M  V30 2955 H 265.262 -3.79903 -0.213148 0
M  V30 2956 H 264.774 -3.53901 1.59297 0
M  V30 2957 H 262.875 -3.62268 -0.871367 0
M  V30 2958 H 262.988 -4.74808 0.63985 0
M  V30 2959 H 261.352 -2.53528 0.244017 0
M  V30 2960 H 262.135 -2.87167 1.88123 0
M  V30 2961 N 264.58 -0.43555 -1.51462 0
M  V30 2962 C 265.805 0.132627 -2.06976 0
M  V30 2963 C 266.23 1.35848 -1.30104 0
M  V30 2964 O 265.588 1.78112 -0.338493 0
M  V30 2965 C 265.636 0.43523 -3.57964 0
M  V30 2966 O 264.74 1.52198 -3.83288 0
M  V30 2967 H 264.081 0.00265 -0.663995 0
M  V30 2968 H 266.611 -0.616369 -1.95095 0
M  V30 2969 H 266.621 0.686206 -4.02188 0
M  V30 2970 H 265.296 -0.460739 -4.1334 0
M  V30 2971 H 263.873 1.2611 -3.50928 0
M  V30 2972 N 266.058 1.56714 -0.166846 0
M  V30 2973 C 267.304 1.97039 0.479962 0
M  V30 2974 C 267.637 1.05264 1.63197 0
M  V30 2975 O 266.912 0.0988833 1.94248 0
M  V30 2976 C 267.195 3.46867 0.967212 0
M  V30 2977 C 267.048 4.49421 -0.18466 0
M  V30 2978 C 268.367 3.9968 1.84238 0
M  V30 2979 H 265.486 0.71641 0.172992 0
M  V30 2980 H 268.128 1.8832 -0.252079 0
M  V30 2981 H 266.278 3.54428 1.59101 0
M  V30 2982 H 267.95 4.53924 -0.821621 0
M  V30 2983 H 266.193 4.25573 -0.840837 0
M  V30 2984 H 266.864 5.51644 0.198317 0
M  V30 2985 H 269.34 3.94723 1.31655 0
M  V30 2986 H 268.216 5.04941 2.15234 0
M  V30 2987 H 268.477 3.43226 2.78654 0
M  V30 2988 N 267.536 -0.106894 1.57237 0
M  V30 2989 C 268.466 -1.13148 2.04254 0
M  V30 2990 C 269.447 -1.42476 0.929224 0
M  V30 2991 O 270.632 -1.52709 1.19973 0
M  V30 2992 C 267.762 -2.4545 2.45706 0
M  V30 2993 C 266.716 -2.30558 3.60592 0
M  V30 2994 C 266.042 -3.67931 3.87983 0
M  V30 2995 C 267.342 -1.75597 4.91897 0
M  V30 2996 H 269.036 -0.740374 2.90101 0
M  V30 2997 H 266.582 -0.354696 1.39563 0
M  V30 2998 H 268.535 -3.17389 2.77205 0
M  V30 2999 H 267.259 -2.86475 1.56843 0
M  V30 3000 H 265.918 -1.61067 3.29322 0
M  V30 3001 H 265.566 -4.06462 2.96306 0
M  V30 3002 H 265.266 -3.58817 4.65322 0
M  V30 3003 H 266.79 -4.41356 4.21945 0
M  V30 3004 H 268.204 -2.37364 5.21854 0
M  V30 3005 H 266.601 -1.77272 5.73319 0
M  V30 3006 H 267.671 -0.714451 4.79608 0
M  V30 3007 N 269.014 -1.53014 -0.377408 0
M  V30 3008 C 270.261 -1.68623 -1.12128 0
M  V30 3009 C 270.589 -0.431997 -1.89642 0
M  V30 3010 O 269.844 0.585855 -1.86725 0
M  V30 3011 C 270.143 -2.87982 -2.11663 0
M  V30 3012 C 269.809 -4.24964 -1.50719 0
M  V30 3013 C 268.471 -4.62217 -1.33825 0
M  V30 3014 C 270.823 -5.10199 -1.06519 0
M  V30 3015 C 268.151 -5.82352 -0.712963 0
M  V30 3016 C 270.503 -6.30969 -0.453955 0
M  V30 3017 C 269.167 -6.66944 -0.272411 0
M  V30 3018 H 268.437 -0.617034 -0.410305 0
M  V30 3019 H 271.084 -1.8718 -0.404484 0
M  V30 3020 H 269.389 -2.63889 -2.89603 0
M  V30 3021 H 271.086 -2.97253 -2.6915 0
M  V30 3022 H 267.676 -3.95626 -1.64858 0
M  V30 3023 H 271.86 -4.81978 -1.18368 0
M  V30 3024 H 267.116 -6.08824 -0.560611 0
M  V30 3025 H 271.29 -6.96324 -0.103217 0
M  V30 3026 H 268.917 -7.59898 0.214181 0
M  V30 3027 N 270.492 0.636531 -1.44174 0
M  V30 3028 C 271.402 1.77754 -1.53103 0
M  V30 3029 C 272.418 1.68928 -0.417034 0
M  V30 3030 O 273.594 1.89801 -0.6736 0
M  V30 3031 C 270.659 3.14115 -1.46741 0
M  V30 3032 C 269.72 3.34612 -2.68948 0
M  V30 3033 C 268.953 4.64467 -2.6288 0
M  V30 3034 O 269.176 5.44919 -1.68581 0
M  V30 3035 O 268.11 4.87049 -3.53648 0
M  V30 3036 H 271.936 1.73174 -2.49489 0
M  V30 3037 H 269.521 0.79709 -1.2636 0
M  V30 3038 H 271.403 3.95412 -1.45696 0
M  V30 3039 H 270.078 3.19249 -0.534975 0
M  V30 3040 H 268.985 2.53014 -2.75562 0
M  V30 3041 H 270.318 3.34336 -3.61221 0
M  V30 3042 N 271.97 1.30982 0.876444 0
M  V30 3043 C 273.216 1.20474 1.63138 0
M  V30 3044 C 273.549 -0.238096 1.92735 0
M  V30 3045 O 272.824 -1.1692 1.55435 0
M  V30 3046 C 273.107 2.04244 2.96574 0
M  V30 3047 C 272.96 3.56793 2.73896 0
M  V30 3048 C 274.279 1.88684 3.97601 0
M  V30 3049 H 271.398 0.439001 0.591985 0
M  V30 3050 H 274.04 1.60704 1.01361 0
M  V30 3051 H 272.19 1.70063 3.493 0
M  V30 3052 H 273.862 4.01077 2.27892 0
M  V30 3053 H 272.105 3.80548 2.08245 0
M  V30 3054 H 272.776 4.10706 3.68815 0
M  V30 3055 H 275.252 2.18584 3.54062 0
M  V30 3056 H 274.128 2.4961 4.88862 0
M  V30 3057 H 274.389 0.848343 4.33884 0
M  V30 3058 N 273.449 -1.08991 1.13837 0
M  V30 3059 C 274.86 -1.62746 0.914917 0
M  V30 3060 C 275.211 -1.88403 -0.547594 0
M  V30 3061 O 274.336 -1.63706 -1.41525 0
M  V30 3062 C 274.931 -2.95662 1.65437 0
M  V30 3063 C 273.49 -3.46225 1.47666 0
M  V30 3064 C 272.637 -2.20562 1.6807 0
M  V30 3065 H 275.588 -0.922946 1.29102 0
M  V30 3066 H 275.609 -3.63825 1.11407 0
M  V30 3067 H 275.121 -2.76956 2.71877 0
M  V30 3068 H 273.222 -3.70046 0.435478 0
M  V30 3069 H 273.335 -4.23368 2.24268 0
M  V30 3070 H 271.699 -2.29439 1.10589 0
M  V30 3071 H 272.482 -2.0437 2.7584 0
M  V30 3072 N 274.927 -0.932562 -1.27047 0
M  V30 3073 C 275.874 -0.434072 -2.26681 0
M  V30 3074 C 276.844 0.501639 -1.58344 0
M  V30 3075 O 278.029 0.419734 -1.86126 0
M  V30 3076 C 275.169 0.30261 -3.43771 0
M  V30 3077 C 274.282 -0.667774 -4.26808 0
M  V30 3078 C 273.417 0.0892393 -5.31125 0
M  V30 3079 C 272.456 -0.873532 -6.05835 0
M  V30 3080 N 271.593 -0.148832 -7.01942 0
M  V30 3081 H 276.433 -1.28868 -2.68695 0
M  V30 3082 H 273.97 -0.646713 -1.32121 0
M  V30 3083 H 275.928 0.746092 -4.10474 0
M  V30 3084 H 274.558 1.12142 -3.02695 0
M  V30 3085 H 273.61 -1.22978 -3.59973 0
M  V30 3086 H 274.922 -1.40337 -4.78651 0
M  V30 3087 H 274.076 0.592409 -6.03801 0
M  V30 3088 H 272.815 0.85777 -4.80097 0
M  V30 3089 H 271.82 -1.38791 -5.31994 0
M  V30 3090 H 273.045 -1.64193 -6.58952 0
M  V30 3091 H 270.991 0.601365 -6.53238 0
M  V30 3092 H 270.908 -0.82391 -7.51497 0
M  V30 3093 H 272.176 0.333527 -7.78786 0
M  V30 3094 N 276.405 1.4127 -0.698611 0
M  V30 3095 C 277.335 2.33447 -0.049629 0
M  V30 3096 C 278.316 1.51982 0.763898 0
M  V30 3097 O 279.501 1.80509 0.716257 0
M  V30 3098 C 276.631 3.35828 0.885267 0
M  V30 3099 C 275.585 4.27627 0.178613 0
M  V30 3100 C 274.911 5.20406 1.22807 0
M  V30 3101 C 276.211 5.13459 -0.956933 0
M  V30 3102 H 277.905 2.87966 -0.81951 0
M  V30 3103 H 275.451 1.38461 -0.395538 0
M  V30 3104 H 277.404 3.9924 1.34854 0
M  V30 3105 H 276.128 2.79666 1.68685 0
M  V30 3106 H 274.787 3.65643 -0.26466 0
M  V30 3107 H 274.435 4.60558 2.02226 0
M  V30 3108 H 274.135 5.82661 0.760239 0
M  V30 3109 H 275.659 5.86695 1.69179 0
M  V30 3110 H 277.073 5.70421 -0.573805 0
M  V30 3111 H 275.47 5.8467 -1.35205 0
M  V30 3112 H 276.54 4.50443 -1.79524 0
M  V30 3113 N 277.883 0.443576 1.51229 0
M  V30 3114 C 278.83 -0.364716 2.279 0
M  V30 3115 C 279.8 -1.0114 1.31757 0
M  V30 3116 O 280.985 -1.02912 1.60667 0
M  V30 3117 C 278.125 -1.45644 3.12861 0
M  V30 3118 C 277.238 -0.827269 4.24005 0
M  V30 3119 C 276.373 -1.89456 4.96266 0
M  V30 3120 C 275.412 -1.24416 5.99322 0
M  V30 3121 N 274.549 -2.25309 6.64966 0
M  V30 3122 H 279.389 0.295464 2.96532 0
M  V30 3123 H 276.926 0.157554 1.46254 0
M  V30 3124 H 278.884 -2.10076 3.6045 0
M  V30 3125 H 277.514 -2.08616 2.46331 0
M  V30 3126 H 276.566 -0.0710839 3.80334 0
M  V30 3127 H 277.878 -0.312481 4.9782 0
M  V30 3128 H 277.032 -2.61535 5.47434 0
M  V30 3129 H 275.771 -2.4431 4.22095 0
M  V30 3130 H 274.776 -0.508868 5.4744 0
M  V30 3131 H 276.001 -0.702882 6.75453 0
M  V30 3132 H 273.947 -2.79231 5.93604 0
M  V30 3133 H 273.864 -1.78739 7.34567 0
M  V30 3134 H 275.132 -2.96853 7.20763 0
M  V30 3135 N 279.361 -1.56624 0.175154 0
M  V30 3136 C 280.586 -2.01813 -0.478137 0
M  V30 3137 C 281.011 -1.05457 -1.55757 0
M  V30 3138 O 280.369 -0.0347439 -1.81267 0
M  V30 3139 C 280.417 -3.45581 -1.02987 0
M  V30 3140 O 279.521 -3.52305 -2.14371 0
M  V30 3141 H 278.862 -0.65413 -0.114059 0
M  V30 3142 H 281.392 -2.02673 0.280173 0
M  V30 3143 H 281.402 -3.84965 -1.35151 0
M  V30 3144 H 280.077 -4.1521 -0.239556 0
M  V30 3145 H 278.654 -3.24783 -1.83222 0
M  V30 3146 N 280.839 0.0985539 -1.57292 0
M  V30 3147 C 282.087 0.801092 -1.85545 0
M  V30 3148 C 282.408 1.79438 -0.763353 0
M  V30 3149 O 281.678 1.94763 0.21073 0
M  V30 3150 H 280.258 0.29884 -0.684619 0
M  V30 3151 H 282.92 0.0810064 -1.94732 0
M  V30 3152 H 282.016 1.3338 -2.82163 0
M  V30 3153 N 282.317 1.53212 0.369288 0
M  V30 3154 C 283.264 1.79388 1.45219 0
M  V30 3155 C 284.234 0.638059 1.53356 0
M  V30 3156 O 285.419 0.879852 1.69302 0
M  V30 3157 C 282.559 1.98623 2.82211 0
M  V30 3158 C 281.672 3.26337 2.8307 0
M  V30 3159 C 280.807 3.35779 4.11614 0
M  V30 3160 C 279.846 4.5754 4.06601 0
M  V30 3161 N 278.983 4.64155 5.26787 0
M  V30 3162 H 283.823 2.71794 1.22198 0
M  V30 3163 H 281.36 1.34642 0.592444 0
M  V30 3164 H 283.318 2.07761 3.61789 0
M  V30 3165 H 281.948 1.09558 3.03639 0
M  V30 3166 H 281 3.26171 1.95747 0
M  V30 3167 H 282.312 4.15988 2.75237 0
M  V30 3168 H 281.466 3.44208 4.99606 0
M  V30 3169 H 280.205 2.44137 4.22195 0
M  V30 3170 H 279.21 4.49215 3.16996 0
M  V30 3171 H 280.435 5.50519 3.97625 0
M  V30 3172 H 278.381 3.75413 5.3796 0
M  V30 3173 H 278.298 5.47706 5.21109 0
M  V30 3174 H 279.566 4.76863 6.16621 0
M  V30 3175 N 283.795 -0.628877 1.44509 0
M  V30 3176 C 285.02 -1.42048 1.5112 0
M  V30 3177 C 285.445 -1.87594 0.137818 0
M  V30 3178 O 284.803 -1.58873 -0.873437 0
M  V30 3179 C 284.851 -2.61541 2.48251 0
M  V30 3180 O 283.955 -3.61453 1.98559 0
M  V30 3181 H 283.296 -0.424942 0.510216 0
M  V30 3182 H 285.826 -0.767374 1.89664 0
M  V30 3183 H 285.836 -3.09057 2.66361 0
M  V30 3184 H 284.511 -2.27736 3.48007 0
M  V30 3185 H 283.088 -3.20731 1.90227 0
M  V30 3186 N 285.273 -1.31445 -0.869486 0
M  V30 3187 C 286.236 -1.19094 -1.9583 0
M  V30 3188 C 287.236 -0.117906 -1.60367 0
M  V30 3189 O 288.426 -0.367208 -1.70286 0
M  V30 3190 C 285.558 -0.828165 -3.30688 0
M  V30 3191 H 286.751 -2.15842 -2.08212 0
M  V30 3192 H 284.304 -1.15063 -1.05784 0
M  V30 3193 H 285.039 0.138142 -3.24006 0
M  V30 3194 H 284.824 -1.6038 -3.578 0
M  V30 3195 H 286.314 -0.765658 -4.10521 0
M  V30 3196 N 286.751 1.08385 -1.14413 0
M  V30 3197 C 287.681 2.17321 -0.854044 0
M  V30 3198 C 288.662 1.69024 0.191049 0
M  V30 3199 O 289.847 1.94141 0.0476779 0
M  V30 3200 C 286.977 3.45719 -0.330983 0
M  V30 3201 C 285.931 4.07409 -1.31155 0
M  V30 3202 C 285.257 5.30762 -0.64778 0
M  V30 3203 C 286.557 4.48665 -2.67388 0
M  V30 3204 H 288.251 2.41845 -1.76498 0
M  V30 3205 H 285.797 1.16233 -0.850051 0
M  V30 3206 H 287.75 4.21241 -0.115645 0
M  V30 3207 H 286.474 3.2075 0.615381 0
M  V30 3208 H 285.133 3.33919 -1.51306 0
M  V30 3209 H 284.781 5.02078 0.304398 0
M  V30 3210 H 284.481 5.72992 -1.30207 0
M  V30 3211 H 286.005 6.08998 -0.441972 0
M  V30 3212 H 287.419 5.15364 -2.51143 0
M  V30 3213 H 285.816 5.01814 -3.29093 0
M  V30 3214 H 286.886 3.60543 -3.24248 0
M  V30 3215 N 288.23 0.939286 1.26551 0
M  V30 3216 C 289.14 0.453432 2.30176 0
M  V30 3217 C 290.156 -0.471649 1.67486 0
M  V30 3218 O 291.332 -0.35164 1.98306 0
M  V30 3219 C 288.397 -0.275326 3.45605 0
M  V30 3220 C 287.458 0.686084 4.23782 0
M  V30 3221 C 286.691 -0.00798994 5.33699 0
M  V30 3222 O 286.914 -1.22528 5.57085 0
M  V30 3223 O 285.848 0.669746 5.98162 0
M  V30 3224 H 289.674 1.31416 2.73795 0
M  V30 3225 H 287.259 0.705095 1.31715 0
M  V30 3226 H 289.141 -0.685911 4.1578 0
M  V30 3227 H 287.816 -1.11147 3.0402 0
M  V30 3228 H 286.723 1.14658 3.56096 0
M  V30 3229 H 288.056 1.48979 4.69112 0
M  V30 3230 N 289.708 -1.40897 0.706093 0
M  V30 3231 C 290.671 -2.29131 0.0562841 0
M  V30 3232 C 291.671 -1.44901 -0.697166 0
M  V30 3233 O 292.861 -1.65926 -0.530484 0
M  V30 3234 C 289.993 -3.27957 -0.93043 0
M  V30 3235 H 291.186 -2.88091 0.833284 0
M  V30 3236 H 288.739 -1.4906 0.470192 0
M  V30 3237 H 289.474 -2.73997 -1.73482 0
M  V30 3238 H 289.259 -3.90124 -0.393166 0
M  V30 3239 H 290.749 -3.94049 -1.38256 0
M  V30 3240 N 291.186 -0.45159 -1.50991 0
M  V30 3241 C 292.096 0.358431 -2.31846 0
M  V30 3242 C 293.112 1.01438 -1.41373 0
M  V30 3243 O 294.288 1.00663 -1.74439 0
M  V30 3244 C 291.353 1.43704 -3.15515 0
M  V30 3245 C 290.414 0.799742 -4.21785 0
M  V30 3246 C 289.647 1.82696 -5.01456 0
M  V30 3247 O 289.87 3.05105 -4.81941 0
M  V30 3248 O 288.804 1.40958 -5.85162 0
M  V30 3249 H 292.63 -0.302032 -3.02194 0
M  V30 3250 H 290.215 -0.213825 -1.47862 0
M  V30 3251 H 292.097 2.06227 -3.67489 0
M  V30 3252 H 290.772 2.08133 -2.47916 0
M  V30 3253 H 289.679 0.136084 -3.73852 0
M  V30 3254 H 291.012 0.198718 -4.91799 0
M  V30 3255 N 292.664 1.56529 -0.183458 0
M  V30 3256 C 293.889 2.02064 0.467428 0
M  V30 3257 C 294.314 1.06282 1.55196 0
M  V30 3258 O 293.672 0.0443565 1.81246 0
M  V30 3259 C 293.72 3.46122 1.01153 0
M  V30 3260 O 292.824 3.53437 2.12499 0
M  V30 3261 H 292.165 0.654726 0.110588 0
M  V30 3262 H 294.695 2.02521 -0.290917 0
M  V30 3263 H 294.705 3.85676 1.33108 0
M  V30 3264 H 293.38 4.15331 0.217533 0
M  V30 3265 H 291.957 3.2575 1.81497 0
M  V30 3266 N 294.142 -0.090211 1.57342 0
M  V30 3267 C 295.052 -1.12735 2.05738 0
M  V30 3268 C 296.068 -1.43557 0.983231 0
M  V30 3269 O 297.244 -1.54101 1.29672 0
M  V30 3270 C 294.309 -2.42659 2.47624 0
M  V30 3271 C 293.37 -2.18975 3.69254 0
M  V30 3272 C 292.603 -3.42704 4.09133 0
M  V30 3273 O 292.826 -4.51127 3.49057 0
M  V30 3274 O 291.76 -3.32003 5.02053 0
M  V30 3275 H 295.586 -0.746279 2.94388 0
M  V30 3276 H 293.171 -0.303064 1.46294 0
M  V30 3277 H 295.053 -3.19155 2.7517 0
M  V30 3278 H 293.728 -2.80182 1.62109 0
M  V30 3279 H 292.635 -1.40244 3.46818 0
M  V30 3280 H 293.968 -1.86342 4.55563 0
M  V30 3281 N 295.62 -1.53406 -0.361157 0
M  V30 3282 C 296.845 -1.74024 -1.12829 0
M  V30 3283 C 297.27 -0.470069 -1.82132 0
M  V30 3284 O 296.628 0.57619 -1.719 0
M  V30 3285 C 296.676 -2.90903 -2.13091 0
M  V30 3286 O 295.78 -2.59821 -3.20261 0
M  V30 3287 H 295.121 -0.577804 -0.327168 0
M  V30 3288 H 297.651 -2.00307 -0.41693 0
M  V30 3289 H 297.661 -3.17194 -2.56616 0
M  V30 3290 H 296.336 -3.83034 -1.62042 0
M  V30 3291 H 294.913 -2.44362 -2.81677 0
M  V30 3292 N 297.098 0.621204 -1.44841 0
M  V30 3293 C 298.028 1.74366 -1.55303 0
M  V30 3294 C 299.009 1.65199 -0.405385 0
M  V30 3295 O 300.194 1.83807 -0.626787 0
M  V30 3296 C 297.324 3.12931 -1.50637 0
M  V30 3297 C 296.278 3.36896 -2.63979 0
M  V30 3298 C 295.604 4.75594 -2.44366 0
M  V30 3299 C 296.904 3.28483 -4.06074 0
M  V30 3300 H 298.598 1.65867 -2.49256 0
M  V30 3301 H 296.144 0.796558 -1.19962 0
M  V30 3302 H 298.097 3.9124 -1.56555 0
M  V30 3303 H 296.821 3.22237 -0.532057 0
M  V30 3304 H 295.48 2.60972 -2.57467 0
M  V30 3305 H 295.128 4.81616 -1.45105 0
M  V30 3306 H 294.828 4.92586 -3.20364 0
M  V30 3307 H 296.352 5.5612 -2.52117 0
M  V30 3308 H 297.766 3.96684 -4.13902 0
M  V30 3309 H 296.163 3.57008 -4.82354 0
M  V30 3310 H 297.233 2.26133 -4.28943 0
M  V30 3311 N 298.576 1.31904 0.862503 0
M  V30 3312 C 299.853 1.12644 1.59908 0
M  V30 3313 C 300.233 -0.316104 2.0872 0
M  V30 3314 O 299.581 -1.31145 1.87118 0
M  V30 3315 C 299.791 2.1472 2.7513 0
M  V30 3316 C 301.139 2.47637 3.44907 0
M  V30 3317 O 302.163 2.13205 2.85346 0
M  V30 3318 O 301.022 3.06632 4.52371 0
M  V30 3319 H 298.116 0.43416 0.703871 0
M  V30 3320 H 300.662 1.43408 0.907314 0
M  V30 3321 H 299.434 3.1172 2.3653 0
M  V30 3322 H 299.057 1.84905 3.51989 0
M  V30 3323 N 300.054 -1.07777 1.14986 0
M  V30 3324 C 301.279 -1.84558 0.946213 0
M  V30 3325 C 301.704 -1.81323 -0.500362 0
M  V30 3326 O 301.062 -1.20301 -1.35637 0
M  V30 3327 C 301.11 -3.29736 1.45968 0
M  V30 3328 O 300.214 -4.07149 0.65601 0
M  V30 3329 H 299.555 -0.571641 0.33782 0
M  V30 3330 H 302.085 -1.35991 1.52865 0
M  V30 3331 H 302.095 -3.80574 1.47063 0
M  V30 3332 H 300.77 -3.31406 2.51283 0
M  V30 3333 H 299.347 -3.65994 0.714322 0
M  V30 3334 N 301.532 -0.945985 -1.26051 0
M  V30 3335 C 302.779 -0.596118 -1.93527 0
M  V30 3336 C 303.107 0.865559 -1.74179 0
M  V30 3337 O 302.362 1.63524 -1.0751 0
M  V30 3338 C 302.661 -0.890475 -3.46129 0
M  V30 3339 C 302.327 -2.3368 -3.85622 0
M  V30 3340 C 300.989 -2.73216 -3.96114 0
M  V30 3341 C 303.341 -3.27648 -4.05334 0
M  V30 3342 C 300.669 -4.05806 -4.2372 0
M  V30 3343 C 303.021 -4.59841 -4.3443 0
M  V30 3344 C 301.685 -4.99185 -4.43137 0
M  V30 3345 H 300.955 -0.218135 -0.708165 0
M  V30 3346 H 303.602 -1.1934 -1.49768 0
M  V30 3347 H 301.907 -0.210711 -3.91233 0
M  V30 3348 H 303.604 -0.598478 -3.96509 0
M  V30 3349 H 300.194 -2.02015 -3.78005 0
M  V30 3350 H 304.378 -2.98298 -3.96651 0
M  V30 3351 H 299.634 -4.35945 -4.28675 0
M  V30 3352 H 303.808 -5.32641 -4.48628 0
M  V30 3353 H 301.435 -6.01952 -4.64282 0
M  V30 3354 N 303.011 1.40521 -0.713556 0
M  V30 3355 C 304.239 2.05237 -0.261775 0
M  V30 3356 C 304.654 1.53755 1.09567 0
M  V30 3357 O 304.011 0.693268 1.6882 0
M  V30 3358 C 304.062 3.60763 -0.230706 0
M  V30 3359 O 303.783 4.10345 -1.53455 0
M  V30 3360 C 305.284 4.42651 0.239874 0
M  V30 3361 H 302.504 0.660533 -0.118057 0
M  V30 3362 H 305.048 1.79967 -0.971192 0
M  V30 3363 H 303.203 3.8501 0.429661 0
M  V30 3364 H 303.617 5.04526 -1.43366 0
M  V30 3365 H 305.091 5.51599 0.210468 0
M  V30 3366 H 305.568 4.20082 1.28171 0
M  V30 3367 H 306.174 4.23507 -0.390142 0
M  V30 3368 N 304.489 0.459591 1.5075 0
M  V30 3369 C 305.452 -0.329093 2.26825 0
M  V30 3370 C 306.452 -0.930481 1.31144 0
M  V30 3371 O 307.642 -0.801453 1.54669 0
M  V30 3372 C 304.774 -1.46768 3.07688 0
M  V30 3373 H 305.967 0.337924 2.9799 0
M  V30 3374 H 303.52 0.213336 1.54837 0
M  V30 3375 H 304.255 -2.17009 2.40993 0
M  V30 3376 H 304.04 -1.04238 3.77991 0
M  V30 3377 H 305.53 -2.02433 3.65254 0
M  V30 3378 N 305.967 -1.56429 0.191757 0
M  V30 3379 C 307.244 -1.89224 -0.495332 0
M  V30 3380 C 307.624 -1.10478 -1.79883 0
M  V30 3381 O 306.972 -0.204852 -2.2758 0
M  V30 3382 C 307.182 -3.41548 -0.717367 0
M  V30 3383 C 308.53 -4.11711 -1.03823 0
M  V30 3384 O 309.554 -3.4698 -0.805204 0
M  V30 3385 O 308.413 -5.2611 -1.47887 0
M  V30 3386 H 305.507 -0.785788 -0.25781 0
M  V30 3387 H 308.053 -1.68111 0.231721 0
M  V30 3388 H 306.825 -3.90772 0.203287 0
M  V30 3389 H 306.448 -3.68342 -1.497 0
M  V30 3390 N 307.445 0.0818655 -1.57387 0
M  V30 3391 C 308.67 0.799946 -1.91352 0
M  V30 3392 C 309.095 1.70833 -0.787258 0
M  V30 3393 O 308.453 1.79419 0.26048 0
M  V30 3394 C 308.501 1.57812 -3.24234 0
M  V30 3395 O 307.605 2.68806 -3.12757 0
M  V30 3396 H 306.946 0.21891 -0.626877 0
M  V30 3397 H 309.476 0.0531256 -2.04531 0
M  V30 3398 H 309.486 1.95952 -3.57864 0
M  V30 3399 H 308.161 0.911548 -4.05788 0
M  V30 3400 H 306.738 2.33597 -2.90666 0
M  V30 3401 N 308.923 1.53595 0.353017 0
M  V30 3402 C 310.2 1.61002 1.11075 0
M  V30 3403 C 310.58 0.425356 2.0677 0
M  V30 3404 O 309.928 -0.583267 2.2093 0
M  V30 3405 C 310.138 2.96631 1.83877 0
M  V30 3406 C 311.486 3.51653 2.37961 0
M  V30 3407 O 312.51 2.98743 1.93987 0
M  V30 3408 O 311.369 4.44177 3.18386 0
M  V30 3409 H 308.463 0.650825 0.510251 0
M  V30 3410 H 311.009 1.6594 0.35527 0
M  V30 3411 H 309.781 3.74293 1.14108 0
M  V30 3412 H 309.404 2.95242 2.66304 0
M  V30 3413 N 310.401 -0.613514 1.45168 0
M  V30 3414 C 311.626 -1.40437 1.52618 0
M  V30 3415 C 312.051 -1.87438 0.157707 0
M  V30 3416 O 311.409 -1.59791 -0.856537 0
M  V30 3417 C 311.457 -2.58894 2.51011 0
M  V30 3418 O 310.561 -3.59326 2.02382 0
M  V30 3419 H 309.902 -0.419506 0.514695 0
M  V30 3420 H 312.432 -0.747215 1.90467 0
M  V30 3421 H 312.442 -3.06214 2.69624 0
M  V30 3422 H 311.117 -2.24032 3.50403 0
M  V30 3423 H 309.694 -3.18695 1.93618 0
M  V30 3424 N 311.879 -1.3236 -0.855495 0
M  V30 3425 C 313.107 -1.2587 -1.64208 0
M  V30 3426 C 313.522 0.173457 -1.88002 0
M  V30 3427 O 312.879 1.11027 -1.44842 0
M  V30 3428 C 312.93 -2.01424 -3.00184 0
M  V30 3429 O 312.651 -3.39051 -2.77445 0
M  V30 3430 C 314.152 -2.01948 -3.94629 0
M  V30 3431 H 311.372 -0.434318 -0.511477 0
M  V30 3432 H 313.916 -1.74469 -1.0668 0
M  V30 3433 H 312.071 -1.56549 -3.5436 0
M  V30 3434 H 312.485 -3.77711 -3.63916 0
M  V30 3435 H 313.959 -2.59297 -4.87308 0
M  V30 3436 H 314.436 -1.00554 -4.27534 0
M  V30 3437 H 315.042 -2.46767 -3.4639 0
M  V30 3438 N 313.357 1.07166 -1.15556 0
M  V30 3439 C 314.582 1.84053 -0.955988 0
M  V30 3440 C 315.007 1.81586 0.490739 0
M  V30 3441 O 314.365 1.21018 1.34997 0
M  V30 3442 C 314.413 3.28957 -1.47714 0
M  V30 3443 O 313.517 4.06795 -0.677593 0
M  V30 3444 H 312.858 0.569842 -0.340847 0
M  V30 3445 H 315.388 1.35178 -1.53584 0
M  V30 3446 H 315.398 3.79788 -1.4908 0
M  V30 3447 H 314.073 3.30068 -2.53037 0
M  V30 3448 H 312.65 3.6561 -0.733721 0
M  V30 3449 N 314.835 0.952656 1.25548 0
M  V30 3450 C 316.251 0.656769 1.4546 0
M  V30 3451 C 316.451 -0.78633 1.85524 0
M  V30 3452 O 315.507 -1.56183 1.98402 0
M  V30 3453 C 316.82 1.62801 2.52817 0
M  V30 3454 C 318.368 1.63897 2.66659 0
M  V30 3455 C 318.843 2.5978 3.77198 0
M  V30 3456 N 320.334 2.58133 3.84606 0
M  V30 3457 C 321.069 3.29003 4.69621 0
M  V30 3458 N 320.565 4.09339 5.58939 0
M  V30 3459 N 322.358 3.179 4.63569 0
M  V30 3460 H 314.509 1.88526 0.978344 0
M  V30 3461 H 316.772 0.810815 0.491206 0
M  V30 3462 H 316.478 2.65869 2.30232 0
M  V30 3463 H 316.352 1.38898 3.50695 0
M  V30 3464 H 318.739 0.615481 2.8861 0
M  V30 3465 H 318.82 1.91858 1.69187 0
M  V30 3466 H 318.464 3.62254 3.55997 0
M  V30 3467 H 318.394 2.29105 4.7415 0
M  V30 3468 H 320.885 1.99809 3.20757 0
M  V30 3469 H 321.198 4.6034 6.20731 0
M  V30 3470 H 319.543 4.13438 5.58654 0
M  V30 3471 H 322.734 2.54612 3.92798 0
M  V30 3472 H 322.907 3.73398 5.29602 0
M  V30 3473 N 316.313 -1.40141 0.720998 0
M  V30 3474 C 317.729 -1.54632 0.395113 0
M  V30 3475 C 317.929 -1.69115 -1.09555 0
M  V30 3476 O 316.985 -1.68377 -1.88163 0
M  V30 3477 C 318.298 -2.77177 1.1659 0
M  V30 3478 C 319.846 -2.91 1.15274 0
M  V30 3479 C 320.321 -4.16465 1.90579 0
M  V30 3480 N 321.812 -4.23476 1.87675 0
M  V30 3481 C 322.547 -5.19475 2.42762 0
M  V30 3482 N 322.043 -6.21348 3.06428 0
M  V30 3483 N 323.836 -5.11592 2.32874 0
M  V30 3484 H 315.987 -1.28986 1.68749 0
M  V30 3485 H 318.25 -0.62412 0.713567 0
M  V30 3486 H 317.956 -2.72771 2.22011 0
M  V30 3487 H 317.83 -3.69442 0.76108 0
M  V30 3488 H 320.217 -2.94907 0.106702 0
M  V30 3489 H 320.298 -1.99838 1.59682 0
M  V30 3490 H 319.942 -4.1332 2.95176 0
M  V30 3491 H 319.872 -5.06646 1.43587 0
M  V30 3492 H 322.363 -3.50497 1.41281 0
M  V30 3493 H 322.676 -6.91034 3.45965 0
M  V30 3494 H 321.021 -6.21777 3.10514 0
M  V30 3495 H 324.212 -4.30936 1.82789 0
M  V30 3496 H 324.385 -5.86233 2.76106 0
M  V30 3497 N 317.792 -0.46758 -1.50504 0
M  V30 3498 C 319.069 0.15003 -1.95024 0
M  V30 3499 C 319.449 1.57304 -1.40779 0
M  V30 3500 O 318.797 2.20281 -0.607319 0
M  V30 3501 C 319.007 0.0969324 -3.48865 0
M  V30 3502 C 320.355 0.287565 -4.23625 0
M  V30 3503 O 321.379 0.173678 -3.55776 0
M  V30 3504 O 320.238 0.517186 -5.44047 0
M  V30 3505 H 317.332 0.113582 -0.819163 0
M  V30 3506 H 319.878 -0.52773 -1.61286 0
M  V30 3507 H 318.65 -0.896732 -3.80886 0
M  V30 3508 H 318.273 0.816303 -3.8913 0
M  V30 3509 N 319.27 1.56325 -0.20005 0
M  V30 3510 C 320.495 2.02548 0.44597 0
M  V30 3511 C 320.92 1.07922 1.5406 0
M  V30 3512 O 320.278 0.0635775 1.81188 0
M  V30 3513 C 320.326 3.47175 0.974761 0
M  V30 3514 O 319.43 3.55671 2.08739 0
M  V30 3515 H 318.771 0.655862 0.103638 0
M  V30 3516 H 321.301 2.02201 -0.312381 0
M  V30 3517 H 321.311 3.87067 1.2901 0
M  V30 3518 H 319.986 4.15538 0.17347 0
M  V30 3519 H 318.563 3.27657 1.78032 0
M  V30 3520 N 320.748 -0.0735177 1.57428 0
M  V30 3521 C 321.678 -1.0879 2.06608 0
M  V30 3522 C 322.659 -1.40473 0.959237 0
M  V30 3523 O 323.844 -1.5013 1.23185 0
M  V30 3524 C 320.974 -2.40183 2.50857 0
M  V30 3525 C 319.928 -2.22858 3.65402 0
M  V30 3526 C 319.254 -3.59619 3.957 0
M  V30 3527 C 320.554 -1.65123 4.95511 0
M  V30 3528 H 322.248 -0.678673 2.91607 0
M  V30 3529 H 319.794 -0.325013 1.40284 0
M  V30 3530 H 321.747 -3.11437 2.83874 0
M  V30 3531 H 320.471 -2.83083 1.62885 0
M  V30 3532 H 319.13 -1.54045 3.32664 0
M  V30 3533 H 318.778 -4.00086 3.04861 0
M  V30 3534 H 318.478 -3.48866 4.72828 0
M  V30 3535 H 320.002 -4.32306 4.31212 0
M  V30 3536 H 321.416 -2.26241 5.26771 0
M  V30 3537 H 319.813 -1.65071 5.7695 0
M  V30 3538 H 320.883 -0.612559 4.81015 0
M  V30 3539 N 322.226 -1.5378 -0.344866 0
M  V30 3540 C 323.503 -1.61589 -1.10219 0
M  V30 3541 C 323.883 -0.436316 -2.06542 0
M  V30 3542 O 323.231 0.571543 -2.21237 0
M  V30 3543 C 323.441 -2.97602 -1.82301 0
M  V30 3544 C 324.789 -3.5291 -2.36093 0
M  V30 3545 O 325.813 -2.99768 -1.924 0
M  V30 3546 O 324.672 -4.45859 -3.16026 0
M  V30 3547 H 321.766 -0.653522 -0.506792 0
M  V30 3548 H 324.312 -1.66126 -0.346465 0
M  V30 3549 H 323.084 -3.74893 -1.12121 0
M  V30 3550 H 322.707 -2.9665 -2.64735 0
M  V30 3551 N 323.704 0.605807 -1.45491 0
M  V30 3552 C 324.651 1.7164 -1.54299 0
M  V30 3553 C 325.621 1.61486 -0.388761 0
M  V30 3554 O 326.806 1.81039 -0.602445 0
M  V30 3555 C 323.946 3.09953 -1.51734 0
M  V30 3556 C 323.059 3.309 -2.77721 0
M  V30 3557 C 322.194 4.59329 -2.66816 0
M  V30 3558 C 321.233 4.7354 -3.87848 0
M  V30 3559 N 320.37 5.9327 -3.75467 0
M  V30 3560 H 325.21 1.63449 -2.49176 0
M  V30 3561 H 322.747 0.796957 -1.23641 0
M  V30 3562 H 324.705 3.89977 -1.48235 0
M  V30 3563 H 323.335 3.17098 -0.604068 0
M  V30 3564 H 322.387 2.44639 -2.913 0
M  V30 3565 H 323.699 3.37274 -3.67488 0
M  V30 3566 H 322.853 5.4755 -2.61292 0
M  V30 3567 H 321.592 4.55355 -1.74651 0
M  V30 3568 H 320.597 3.83741 -3.93729 0
M  V30 3569 H 321.822 4.79309 -4.81082 0
M  V30 3570 H 319.768 5.90338 -2.86072 0
M  V30 3571 H 319.685 6.00811 -4.5887 0
M  V30 3572 H 320.953 6.83984 -3.73879 0
M  V30 3573 N 325.182 1.32811 0.848464 0
M  V30 3574 C 326.407 1.26882 1.6406 0
M  V30 3575 C 326.832 -0.15913 1.87426 0
M  V30 3576 O 326.19 -1.11258 1.43148 0
M  V30 3577 C 326.238 2.03997 2.97351 0
M  V30 3578 O 325.342 1.39201 3.88197 0
M  V30 3579 H 324.683 0.436982 0.499943 0
M  V30 3580 H 327.213 1.75224 1.0563 0
M  V30 3581 H 327.223 2.14403 3.47124 0
M  V30 3582 H 325.898 3.0783 2.79666 0
M  V30 3583 H 324.475 1.37381 3.46671 0
M  V30 3584 N 326.66 -1.06551 1.16123 0
M  V30 3585 C 327.908 -1.78947 0.939267 0
M  V30 3586 C 328.229 -1.87532 -0.534476 0
M  V30 3587 O 327.499 -1.38211 -1.38833 0
M  V30 3588 H 326.079 -0.662807 0.344523 0
M  V30 3589 H 328.741 -1.28725 1.46342 0
M  V30 3590 H 327.837 -2.81117 1.35572 0
M  V30 3591 N 328.138 -0.959301 -1.25041 0
M  V30 3592 C 329.068 -0.501388 -2.28053 0
M  V30 3593 C 330.049 0.454673 -1.63911 0
M  V30 3594 O 331.234 0.352618 -1.90972 0
M  V30 3595 C 328.364 0.217224 -3.4662 0
M  V30 3596 C 327.318 -0.654034 -4.22973 0
M  V30 3597 C 326.644 0.195589 -5.34342 0
M  V30 3598 C 327.944 -1.93447 -4.85155 0
M  V30 3599 H 329.638 -1.36238 -2.66608 0
M  V30 3600 H 327.184 -0.656534 -1.28163 0
M  V30 3601 H 329.137 0.548732 -4.17812 0
M  V30 3602 H 327.861 1.1125 -3.07068 0
M  V30 3603 H 326.52 -0.968693 -3.5357 0
M  V30 3604 H 326.168 1.09076 -4.91031 0
M  V30 3605 H 325.868 -0.384091 -5.86343 0
M  V30 3606 H 327.392 0.521958 -6.08365 0
M  V30 3607 H 328.806 -1.66908 -5.48466 0
M  V30 3608 H 327.203 -2.46018 -5.47353 0
M  V30 3609 H 328.273 -2.63466 -4.07079 0
M  V30 3610 N 329.616 1.39756 -0.72842 0
M  V30 3611 C 330.863 2.00645 -0.273487 0
M  V30 3612 C 331.191 1.57786 1.13727 0
M  V30 3613 O 330.446 0.794886 1.7883 0
M  V30 3614 C 330.745 3.56002 -0.315776 0
M  V30 3615 C 330.411 4.18489 -1.67863 0
M  V30 3616 C 329.073 4.3527 -2.05166 0
M  V30 3617 C 331.425 4.53219 -2.57375 0
M  V30 3618 C 328.753 4.84069 -3.31503 0
M  V30 3619 C 331.105 5.03423 -3.83077 0
M  V30 3620 C 329.769 5.18413 -4.20481 0
M  V30 3621 H 329.039 0.734211 -0.100076 0
M  V30 3622 H 331.686 1.6718 -0.933972 0
M  V30 3623 H 329.991 3.89452 0.428285 0
M  V30 3624 H 331.688 4.00963 0.0542575 0
M  V30 3625 H 328.278 4.05824 -1.37858 0
M  V30 3626 H 332.462 4.39878 -2.29827 0
M  V30 3627 H 327.718 4.93859 -3.60435 0
M  V30 3628 H 331.892 5.2927 -4.52599 0
M  V30 3629 H 329.519 5.55987 -5.18443 0
M  V30 3630 N 331.094 0.475555 1.50254 0
M  V30 3631 C 332.505 0.0215174 1.86688 0
M  V30 3632 C 332.856 -1.38467 1.39001 0
M  V30 3633 O 331.981 -2.02732 0.756894 0
M  V30 3634 C 332.576 0.0322715 3.38785 0
M  V30 3635 C 331.135 -0.366314 3.74613 0
M  V30 3636 C 330.282 0.415832 2.74164 0
M  V30 3637 H 333.233 0.689612 1.42934 0
M  V30 3638 H 333.254 -0.76889 3.7265 0
M  V30 3639 H 332.766 1.05584 3.73462 0
M  V30 3640 H 330.867 -1.39406 3.45538 0
M  V30 3641 H 330.98 -0.064555 4.79057 0
M  V30 3642 H 329.344 -0.131048 2.54363 0
M  V30 3643 H 330.127 1.43899 3.11686 0
M  V30 3644 N 332.573 -1.56217 0.208337 0
M  V30 3645 C 333.483 -2.23316 -0.718836 0
M  V30 3646 C 334.499 -1.23648 -1.22422 0
M  V30 3647 O 335.675 -1.56423 -1.26861 0
M  V30 3648 C 332.74 -2.88968 -1.91568 0
M  V30 3649 C 331.801 -4.03943 -1.45357 0
M  V30 3650 C 331.034 -4.66455 -2.59337 0
M  V30 3651 O 331.257 -4.27919 -3.77149 0
M  V30 3652 O 330.191 -5.55686 -2.31293 0
M  V30 3653 H 334.017 -3.03182 -0.177315 0
M  V30 3654 H 331.602 -1.49384 -0.0215402 0
M  V30 3655 H 333.484 -3.30455 -2.61491 0
M  V30 3656 H 332.159 -2.12071 -2.44556 0
M  V30 3657 H 331.066 -3.67052 -0.722746 0
M  V30 3658 H 332.399 -4.82543 -0.970219 0
M  V30 3659 N 334.051 0.0651679 -1.57465 0
M  V30 3660 C 335.297 0.758912 -1.88712 0
M  V30 3661 C 335.652 1.7485 -0.802819 0
M  V30 3662 O 334.945 1.90632 0.192359 0
M  V30 3663 C 335.139 1.50081 -3.24362 0
M  V30 3664 C 334.968 0.584579 -4.45884 0
M  V30 3665 C 333.738 0.219039 -5.04825 0
M  V30 3666 C 335.936 -0.121559 -5.14156 0
M  V30 3667 N 333.918 -0.702222 -6.09871 0
M  V30 3668 C 335.289 -0.899767 -6.13436 0
M  V30 3669 C 337.344 -0.192331 -4.97528 0
M  V30 3670 C 336.047 -1.74218 -6.97883 0
M  V30 3671 C 338.073 -1.02174 -5.82507 0
M  V30 3672 C 337.435 -1.78798 -6.8133 0
M  V30 3673 H 333.534 0.25293 -0.739967 0
M  V30 3674 H 336.118 0.0201744 -1.9469 0
M  V30 3675 H 334.289 2.21023 -3.1938 0
M  V30 3676 H 336.021 2.14409 -3.43236 0
M  V30 3677 H 332.776 0.57336 -4.70117 0
M  V30 3678 H 333.2 -1.15629 -6.67052 0
M  V30 3679 H 337.842 0.385741 -4.21037 0
M  V30 3680 H 335.56 -2.3312 -7.73745 0
M  V30 3681 H 339.146 -1.07957 -5.71696 0
M  V30 3682 H 338.026 -2.41942 -7.45945 0
M  V30 3683 N 335.529 1.53961 0.336706 0
M  V30 3684 C 336.476 1.82428 1.41381 0
M  V30 3685 C 337.446 0.670444 1.51968 0
M  V30 3686 O 338.631 0.915565 1.67398 0
M  V30 3687 C 335.771 2.04564 2.77934 0
M  V30 3688 C 334.884 3.32267 2.76084 0
M  V30 3689 C 334.019 3.44434 4.04399 0
M  V30 3690 C 333.058 4.66061 3.96804 0
M  V30 3691 N 332.195 4.75224 5.16823 0
M  V30 3692 H 337.035 2.74324 1.16405 0
M  V30 3693 H 334.572 1.35869 0.563752 0
M  V30 3694 H 336.53 2.15388 3.57301 0
M  V30 3695 H 335.16 1.15974 3.01247 0
M  V30 3696 H 334.212 3.3025 1.88784 0
M  V30 3697 H 335.524 4.21733 2.66351 0
M  V30 3698 H 334.678 3.54728 4.92192 0
M  V30 3699 H 333.417 2.53037 4.16921 0
M  V30 3700 H 332.422 4.55838 3.07396 0
M  V30 3701 H 333.647 5.58829 3.85858 0
M  V30 3702 H 331.593 3.86739 5.29876 0
M  V30 3703 H 331.51 5.58636 5.09374 0
M  V30 3704 H 332.778 4.89835 6.06367 0
M  V30 3705 N 337.007 -0.598083 1.45811 0
M  V30 3706 C 337.954 -1.7082 1.55207 0
M  V30 3707 C 338.924 -1.61278 0.39732 0
M  V30 3708 O 340.109 -1.80717 0.612038 0
M  V30 3709 C 337.249 -3.09144 1.53376 0
M  V30 3710 C 336.362 -3.29423 2.79472 0
M  V30 3711 C 335.497 -4.57907 2.69248 0
M  V30 3712 C 334.536 -4.71476 3.90354 0
M  V30 3713 N 333.673 -5.9127 3.78608 0
M  V30 3714 H 338.513 -1.62125 2.50039 0
M  V30 3715 H 336.05 -0.790389 1.24062 0
M  V30 3716 H 338.008 -3.89186 1.50301 0
M  V30 3717 H 336.638 -3.16773 0.620876 0
M  V30 3718 H 335.69 -2.43091 2.92594 0
M  V30 3719 H 337.002 -3.3532 3.69272 0
M  V30 3720 H 336.156 -5.46157 2.64192 0
M  V30 3721 H 334.895 -4.54423 1.77063 0
M  V30 3722 H 333.9 -3.81648 3.95759 0
M  V30 3723 H 335.125 -4.76751 4.83617 0
M  V30 3724 H 333.071 -5.88813 2.89199 0
M  V30 3725 H 332.988 -5.98369 4.6205 0
M  V30 3726 H 334.256 -6.81992 3.77501 0
M  V30 3727 N 338.485 -1.33259 -0.841409 0
M  V30 3728 C 339.418 -1.1764 -1.95541 0
M  V30 3729 C 340.396 -0.072501 -1.62438 0
M  V30 3730 O 341.58 -0.23427 -1.87039 0
M  V30 3731 C 338.707 -0.803794 -3.29024 0
M  V30 3732 C 337.753 -1.91482 -3.81099 0
M  V30 3733 S 338.586 -3.52538 -4.03085 0
M  V30 3734 C 339.742 -3.17279 -5.39523 0
M  V30 3735 H 339.975 -2.11941 -2.08491 0
M  V30 3736 H 337.508 -1.18072 -0.9949 0
M  V30 3737 H 339.466 -0.595592 -4.06156 0
M  V30 3738 H 338.127 0.120574 -3.13868 0
M  V30 3739 H 337.32 -1.60742 -4.7768 0
M  V30 3740 H 336.922 -2.07956 -3.10854 0
M  V30 3741 H 339.214 -2.67946 -6.22263 0
M  V30 3742 H 340.157 -4.1293 -5.75234 0
M  V30 3743 H 340.565 -2.53943 -5.04156 0
M  V30 3744 N 339.963 1.05934 -1.16686 0
M  V30 3745 C 341.188 1.83029 -0.975455 0
M  V30 3746 C 341.613 1.82096 0.471452 0
M  V30 3747 O 340.971 1.22443 1.33706 0
M  V30 3748 C 341.019 3.27372 -1.51195 0
M  V30 3749 O 340.123 4.06054 -0.720701 0
M  V30 3750 H 339.464 0.566194 -0.346872 0
M  V30 3751 H 341.994 1.33541 -1.55009 0
M  V30 3752 H 342.004 3.78186 -1.53099 0
M  V30 3753 H 340.679 3.27366 -2.56523 0
M  V30 3754 H 339.256 3.64812 -0.772458 0
M  V30 3755 N 341.441 0.965919 1.2453 0
M  V30 3756 C 342.404 0.499547 2.2369 0
M  V30 3757 C 343.404 -0.40294 1.5567 0
M  V30 3758 O 344.594 -0.19865 1.73064 0
M  V30 3759 C 341.726 -0.276792 3.39774 0
M  V30 3760 H 342.919 1.37613 2.66463 0
M  V30 3761 H 340.472 0.750324 1.37112 0
M  V30 3762 H 341.207 -1.17055 3.02438 0
M  V30 3763 H 340.992 0.370826 3.90343 0
M  V30 3764 H 342.482 -0.592175 4.1338 0
M  V30 3765 N 342.919 -1.39368 0.735821 0
M  V30 3766 C 344.33 -1.83313 0.354015 0
M  V30 3767 C 344.681 -1.61461 -1.11466 0
M  V30 3768 O 343.806 -1.10621 -1.85989 0
M  V30 3769 C 344.401 -3.32781 0.635769 0
M  V30 3770 C 342.96 -3.75142 0.307448 0
M  V30 3771 C 342.107 -2.62358 0.897974 0
M  V30 3772 H 345.058 -1.28349 0.933398 0
M  V30 3773 H 345.079 -3.80388 -0.0921773 0
M  V30 3774 H 344.591 -3.48654 1.70476 0
M  V30 3775 H 342.692 -3.64857 -0.755674 0
M  V30 3776 H 342.805 -4.72532 0.790583 0
M  V30 3777 H 341.169 -2.52624 0.324551 0
M  V30 3778 H 341.952 -2.81036 1.97164 0
M  V30 3779 N 344.397 -0.483516 -1.5 0
M  V30 3780 C 345.344 0.304164 -2.28787 0
M  V30 3781 C 346.314 0.976114 -1.34392 0
M  V30 3782 O 347.499 0.986156 -1.63339 0
M  V30 3783 C 344.639 1.37298 -3.16612 0
M  V30 3784 C 343.752 0.714561 -4.26049 0
M  V30 3785 C 342.887 1.76232 -5.01114 0
M  V30 3786 C 341.926 1.08483 -6.0241 0
M  V30 3787 N 341.063 2.076 -6.70706 0
M  V30 3788 H 345.903 -0.373981 -2.95644 0
M  V30 3789 H 343.44 -0.196275 -1.45785 0
M  V30 3790 H 345.398 2.00445 -3.65893 0
M  V30 3791 H 344.028 2.02012 -2.51776 0
M  V30 3792 H 343.08 -0.0297798 -3.80388 0
M  V30 3793 H 344.392 0.180383 -4.98474 0
M  V30 3794 H 343.546 2.46929 -5.54176 0
M  V30 3795 H 342.285 2.33033 -4.28424 0
M  V30 3796 H 341.29 0.363545 -5.48597 0
M  V30 3797 H 342.515 0.523551 -6.77079 0
M  V30 3798 H 340.461 2.63394 -6.00799 0
M  V30 3799 H 340.378 1.59201 -7.39047 0
M  V30 3800 H 341.646 2.77639 -7.2838 0
M  V30 3801 N 345.875 1.56104 -0.216619 0
M  V30 3802 C 347.1 2.0301 0.424462 0
M  V30 3803 C 347.525 1.0955 1.52907 0
M  V30 3804 O 346.883 0.0827914 1.81111 0
M  V30 3805 C 346.931 3.4819 0.937883 0
M  V30 3806 O 346.035 3.57865 2.04955 0
M  V30 3807 H 345.376 0.656925 0.0966755 0
M  V30 3808 H 347.906 2.01859 -0.33381 0
M  V30 3809 H 347.916 3.88413 1.24897 0
M  V30 3810 H 346.591 4.15699 0.129387 0
M  V30 3811 H 345.168 3.29527 1.74546 0
M  V30 3812 N 347.353 -0.0568162 1.57498 0
M  V30 3813 C 348.285 -1.09292 2.01464 0
M  V30 3814 C 349.298 -1.34112 0.922913 0
M  V30 3815 O 350.487 -1.32089 1.20062 0
M  V30 3816 C 347.587 -2.44068 2.35125 0
M  V30 3817 C 346.76 -2.38995 3.66333 0
M  V30 3818 C 345.819 -3.55997 3.87495 0
M  V30 3819 O 344.845 -3.36746 4.58901 0
M  V30 3820 N 346.047 -4.76888 3.30996 0
M  V30 3821 H 348.812 -0.718386 2.90963 0
M  V30 3822 H 346.373 -0.245235 1.60032 0
M  V30 3823 H 348.365 -3.21011 2.46443 0
M  V30 3824 H 346.935 -2.73468 1.5144 0
M  V30 3825 H 346.155 -1.47336 3.65631 0
M  V30 3826 H 347.443 -2.3272 4.52458 0
M  V30 3827 H 346.841 -4.95431 2.73065 0
M  V30 3828 H 345.398 -5.51291 3.47738 0
M  V30 3829 N 348.832 -1.54138 -0.328536 0
M  V30 3830 C 350.078 -1.7236 -1.06865 0
M  V30 3831 C 350.411 -0.493231 -1.87832 0
M  V30 3832 O 349.686 0.5098 -1.877 0
M  V30 3833 C 349.969 -2.99621 -1.99747 0
M  V30 3834 C 349.822 -4.32899 -1.22143 0
M  V30 3835 C 351.141 -3.22615 -2.99345 0
M  V30 3836 H 348.26 -0.627151 -0.387105 0
M  V30 3837 H 350.902 -1.86827 -0.345767 0
M  V30 3838 H 349.052 -2.87418 -2.61387 0
M  V30 3839 H 350.724 -4.56978 -0.630017 0
M  V30 3840 H 348.967 -4.30628 -0.523628 0
M  V30 3841 H 349.638 -5.18154 -1.90318 0
M  V30 3842 H 352.114 -3.34248 -2.47826 0
M  V30 3843 H 350.99 -4.13027 -3.61524 0
M  V30 3844 H 351.251 -2.3961 -3.71536 0
M  V30 3845 N 350.31 0.590341 -1.46126 0
M  V30 3846 C 351.22 1.72793 -1.58681 0
M  V30 3847 C 352.236 1.67516 -0.470566 0
M  V30 3848 O 353.412 1.87562 -0.733642 0
M  V30 3849 C 350.477 3.09287 -1.5666 0
M  V30 3850 C 349.538 3.25886 -2.79458 0
M  V30 3851 C 348.771 4.55869 -2.77524 0
M  V30 3852 O 348.994 5.3928 -1.85832 0
M  V30 3853 O 347.928 4.75552 -3.68964 0
M  V30 3854 H 351.754 1.65149 -2.54872 0
M  V30 3855 H 349.339 0.756486 -1.28832 0
M  V30 3856 H 351.221 3.90577 -1.58202 0
M  V30 3857 H 349.896 3.17385 -0.636271 0
M  V30 3858 H 348.803 2.44119 -2.83472 0
M  V30 3859 H 350.136 3.22675 -3.71674 0
M  V30 3860 N 351.788 1.33704 0.83433 0
M  V30 3861 C 352.735 1.24335 1.94447 0
M  V30 3862 C 353.705 0.120991 1.65659 0
M  V30 3863 O 354.89 0.300035 1.88426 0
M  V30 3864 C 352.03 0.993124 3.30501 0
M  V30 3865 C 351.143 2.20217 3.71657 0
M  V30 3866 C 350.278 1.88572 4.96602 0
M  V30 3867 C 349.317 3.05683 5.30306 0
M  V30 3868 N 348.454 2.73997 6.46429 0
M  V30 3869 H 353.294 2.1928 2.01792 0
M  V30 3870 H 350.831 1.09035 0.987404 0
M  V30 3871 H 352.789 0.828467 4.08892 0
M  V30 3872 H 351.419 0.0803902 3.227 0
M  V30 3873 H 350.471 2.47642 2.88752 0
M  V30 3874 H 351.783 3.07752 3.92543 0
M  V30 3875 H 350.937 1.68776 5.82752 0
M  V30 3876 H 349.676 0.982799 4.77695 0
M  V30 3877 H 348.681 3.26088 4.42659 0
M  V30 3878 H 349.906 3.96737 5.51159 0
M  V30 3879 H 347.852 1.86268 6.28999 0
M  V30 3880 H 347.769 3.55064 6.67432 0
M  V30 3881 H 349.037 2.57679 7.35678 0
M  V30 3882 N 353.266 -1.05314 1.17247 0
M  V30 3883 C 354.176 -2.16538 0.90268 0
M  V30 3884 C 355.192 -1.73523 -0.128707 0
M  V30 3885 O 356.368 -2.01337 0.0502701 0
M  V30 3886 C 353.433 -3.44167 0.418356 0
M  V30 3887 C 352.494 -4.01635 1.51618 0
M  V30 3888 C 351.727 -5.23171 1.05487 0
M  V30 3889 O 351.95 -5.70327 -0.0914715 0
M  V30 3890 O 350.884 -5.72848 1.8474 0
M  V30 3891 H 354.71 -2.42145 1.83302 0
M  V30 3892 H 352.295 -1.15037 0.953246 0
M  V30 3893 H 354.177 -4.21112 0.155726 0
M  V30 3894 H 352.852 -3.20063 -0.48385 0
M  V30 3895 H 351.759 -3.26135 1.83268 0
M  V30 3896 H 353.092 -4.30053 2.39405 0
M  V30 3897 N 354.744 -0.972509 -1.24016 0
M  V30 3898 C 355.972 -0.654803 -1.96265 0
M  V30 3899 C 356.387 0.776708 -1.72083 0
M  V30 3900 O 355.744 1.52171 -1.00748 0
M  V30 3901 C 355.795 -0.92592 -3.49441 0
M  V30 3902 O 355.516 -2.30116 -3.72798 0
M  V30 3903 C 357.017 -0.623068 -4.38899 0
M  V30 3904 H 354.237 -0.243907 -0.6251 0
M  V30 3905 H 356.781 -1.30175 -1.57717 0
M  V30 3906 H 354.936 -0.325108 -3.86033 0
M  V30 3907 H 355.35 -2.38483 -4.67147 0
M  V30 3908 H 356.824 -0.863189 -5.45209 0
M  V30 3909 H 357.301 0.442754 -4.36963 0
M  V30 3910 H 357.907 -1.204 -4.07902 0
M  V30 3911 N 356.222 1.38976 -0.743202 0
M  V30 3912 C 357.154 2.29096 -0.0689228 0
M  V30 3913 C 358.167 1.47229 0.694791 0
M  V30 3914 O 359.356 1.70212 0.537597 0
M  V30 3915 C 356.456 3.25988 0.926548 0
M  V30 3916 C 355.629 4.36833 0.222647 0
M  V30 3917 C 354.688 5.13981 1.12739 0
M  V30 3918 O 353.714 5.6601 0.601795 0
M  V30 3919 N 354.916 5.25966 2.45641 0
M  V30 3920 H 357.681 2.87604 -0.842846 0
M  V30 3921 H 355.242 1.50645 -0.593109 0
M  V30 3922 H 357.234 3.74476 1.5346 0
M  V30 3923 H 355.804 2.68453 1.60162 0
M  V30 3924 H 355.024 3.90116 -0.565983 0
M  V30 3925 H 356.312 5.0811 -0.264841 0
M  V30 3926 H 355.71 4.85228 2.9081 0
M  V30 3927 H 354.267 5.77865 3.01522 0
M  V30 3928 N 357.7 0.491464 1.49741 0
M  V30 3929 C 359.111 0.0413169 1.86654 0
M  V30 3930 C 359.462 -1.36985 1.40462 0
M  V30 3931 O 358.587 -2.01917 0.778354 0
M  V30 3932 C 359.182 0.0682023 3.38731 0
M  V30 3933 C 357.741 -0.32656 3.74981 0
M  V30 3934 C 356.888 0.444888 2.73708 0
M  V30 3935 H 359.839 0.704733 1.42194 0
M  V30 3936 H 359.86 -0.729322 3.73445 0
M  V30 3937 H 359.372 1.09539 3.72321 0
M  V30 3938 H 357.473 -1.35734 3.46997 0
M  V30 3939 H 357.586 -0.013741 4.79098 0
M  V30 3940 H 355.95 -0.104062 2.54487 0
M  V30 3941 H 356.733 1.47197 3.10142 0
M  V30 3942 N 359.178 -1.55987 0.224894 0
M  V30 3943 C 360.426 -1.97998 -0.405099 0
M  V30 3944 C 360.747 -1.11387 -1.60056 0
M  V30 3945 O 360.017 -0.191645 -1.9496 0
M  V30 3946 H 358.597 -0.731235 -0.152658 0
M  V30 3947 H 361.259 -1.92279 0.318567 0
M  V30 3948 H 360.355 -3.03463 -0.729167 0
M  V30 3949 N 360.656 0.0484629 -1.57525 0
M  V30 3950 C 361.904 0.741657 -1.88 0
M  V30 3951 C 362.225 1.76918 -0.820054 0
M  V30 3952 O 361.495 1.95335 0.148661 0
M  V30 3953 H 360.075 0.276908 -0.69378 0
M  V30 3954 H 362.737 0.019013 -1.94891 0
M  V30 3955 H 361.833 1.24336 -2.86264 0
M  V30 3956 N 362.134 1.5431 0.320358 0
M  V30 3957 C 363.066 1.80262 1.41556 0
M  V30 3958 C 364.079 0.684723 1.477 0
M  V30 3959 O 365.268 0.961886 1.50366 0
M  V30 3960 C 362.368 1.90825 2.8007 0
M  V30 3961 C 361.541 3.21023 2.97091 0
M  V30 3962 C 360.6 3.22247 4.15985 0
M  V30 3963 O 359.626 3.95871 4.08992 0
M  V30 3964 N 360.828 2.46258 5.25678 0
M  V30 3965 H 363.593 2.74778 1.19655 0
M  V30 3966 H 361.154 1.53646 0.510358 0
M  V30 3967 H 363.146 1.89067 3.57821 0
M  V30 3968 H 361.716 1.03392 2.95006 0
M  V30 3969 H 360.936 3.35715 2.06614 0
M  V30 3970 H 362.224 4.0698 3.05361 0
M  V30 3971 H 361.622 1.86037 5.34235 0
M  V30 3972 H 360.179 2.50275 6.01835 0
M  V30 3973 N 363.613 -0.582584 1.46437 0
M  V30 3974 C 364.561 -1.71272 1.5738 0
M  V30 3975 C 365.555 -1.63524 0.44229 0
M  V30 3976 O 366.761 -1.69016 0.619166 0
M  V30 3977 H 363.136 -0.566273 0.494813 0
M  V30 3978 H 365.107 -1.59174 2.52401 0
M  V30 3979 C 363.856 -3.09658 1.58136 0
M  V30 3980 H 363.179 -3.16291 2.44541 0
M  V30 3981 H 364.619 -3.88494 1.69847 0
M  V30 3982 C 363.078 -3.3547 0.310026 0
M  V30 3983 O 363.608 -3.97199 -0.599683 0
M  V30 3984 N 361.814 -2.89925 0.197901 0
M  V30 3985 H 361.361 -2.39873 0.93909 0
M  V30 3986 H 361.319 -3.07568 -0.65185 0
M  V30 3987 N 365.091 -1.34144 -0.827227 0
M  V30 3988 C 366.337 -1.26446 -1.58554 0
M  V30 3989 C 366.67 0.1664 -1.93486 0
M  V30 3990 O 365.945 1.1107 -1.59667 0
M  V30 3991 C 366.228 -2.15111 -2.8879 0
M  V30 3992 C 366.081 -3.66712 -2.60465 0
M  V30 3993 C 367.4 -2.03311 -3.90324 0
M  V30 3994 H 364.519 -0.46067 -0.575284 0
M  V30 3995 H 367.161 -1.64356 -0.953269 0
M  V30 3996 H 365.311 -1.8291 -3.42748 0
M  V30 3997 H 366.983 -4.09259 -2.1285 0
M  V30 3998 H 365.226 -3.88014 -1.93978 0
M  V30 3999 H 365.897 -4.24112 -3.53317 0
M  V30 4000 H 368.373 -2.31574 -3.45706 0
M  V30 4001 H 367.249 -2.67582 -4.79261 0
M  V30 4002 H 367.51 -1.00879 -4.30437 0
M  V30 4003 N 366.569 1.04691 -1.17803 0
M  V30 4004 C 367.815 1.78045 -0.970969 0
M  V30 4005 C 368.148 1.87686 0.498751 0
M  V30 4006 O 367.423 1.38035 1.37027 0
M  V30 4007 C 367.706 3.2166 -1.61884 0
M  V30 4008 C 367.559 3.20001 -3.161 0
M  V30 4009 C 368.878 4.1962 -1.3269 0
M  V30 4010 H 365.997 0.64633 -0.354155 0
M  V30 4011 H 368.639 1.22333 -1.45378 0
M  V30 4012 H 366.789 3.69232 -1.20831 0
M  V30 4013 H 368.461 2.80467 -3.66246 0
M  V30 4014 H 366.704 2.58203 -3.48588 0
M  V30 4015 H 367.375 4.21386 -3.56564 0
M  V30 4016 H 369.851 3.80567 -1.68249 0
M  V30 4017 H 368.727 5.18339 -1.80599 0
M  V30 4018 H 368.988 4.414 -0.248622 0
M  V30 4019 N 368.047 0.979072 1.23499 0
M  V30 4020 C 369.294 0.647219 1.91878 0
M  V30 4021 C 369.622 -0.819074 1.76413 0
M  V30 4022 O 368.877 -1.60616 1.11808 0
M  V30 4023 C 369.176 0.981932 3.43646 0
M  V30 4024 C 368.842 2.43822 3.79291 0
M  V30 4025 C 367.504 2.83622 3.88731 0
M  V30 4026 C 369.856 3.3828 3.96505 0
M  V30 4027 C 367.184 4.16897 4.12812 0
M  V30 4028 C 369.536 4.71197 4.22085 0
M  V30 4029 C 368.2 5.10758 4.29747 0
M  V30 4030 H 367.47 0.236834 0.702133 0
M  V30 4031 H 370.117 1.23268 1.46551 0
M  V30 4032 H 368.422 0.314365 3.90537 0
M  V30 4033 H 370.119 0.703395 3.94783 0
M  V30 4034 H 366.709 2.11966 3.72516 0
M  V30 4035 H 370.893 3.0871 3.88603 0
M  V30 4036 H 366.149 4.47157 4.16966 0
M  V30 4037 H 370.323 5.44348 4.34348 0
M  V30 4038 H 367.95 6.1405 4.48159 0
M  V30 4039 N 369.525 -1.3858 0.750561 0
M  V30 4040 C 370.771 -2.00481 0.305825 0
M  V30 4041 C 371.104 -1.5944 -1.10872 0
M  V30 4042 O 370.379 -0.83052 -1.75877 0
M  V30 4043 C 370.662 -3.5758 0.425287 0
M  V30 4044 C 370.515 -4.08594 1.88072 0
M  V30 4045 C 371.834 -4.39719 -0.183122 0
M  V30 4046 H 368.953 -0.728348 0.112598 0
M  V30 4047 H 371.595 -1.64566 0.949638 0
M  V30 4048 H 369.745 -3.88306 -0.122828 0
M  V30 4049 H 371.417 -3.88523 2.48691 0
M  V30 4050 H 369.66 -3.61574 2.39681 0
M  V30 4051 H 370.331 -5.177 1.91548 0
M  V30 4052 H 372.807 -4.15128 0.284303 0
M  V30 4053 H 371.683 -5.48856 -0.0692757 0
M  V30 4054 H 371.944 -4.23434 -1.27106 0
M  V30 4055 N 371.003 -0.499398 -1.49478 0
M  V30 4056 C 372.28 0.108629 -1.95298 0
M  V30 4057 C 372.66 1.54282 -1.44084 0
M  V30 4058 O 372.008 2.18944 -0.653908 0
M  V30 4059 C 372.218 0.0229111 -3.48992 0
M  V30 4060 C 373.566 0.197643 -4.2414 0
M  V30 4061 O 374.59 0.0981735 -3.56065 0
M  V30 4062 O 373.449 0.401669 -5.45022 0
M  V30 4063 H 370.543 0.096181 -0.821388 0
M  V30 4064 H 373.089 -0.561822 -1.6013 0
M  V30 4065 H 371.861 -0.977321 -3.78899 0
M  V30 4066 H 371.484 0.733579 -3.90774 0
M  V30 4067 N 372.481 1.55866 -0.233164 0
M  V30 4068 C 373.391 2.24431 0.683217 0
M  V30 4069 C 374.407 1.2558 1.2044 0
M  V30 4070 O 375.583 1.58422 1.24356 0
M  V30 4071 C 372.648 2.91979 1.86947 0
M  V30 4072 C 371.709 4.06204 1.38912 0
M  V30 4073 C 370.942 4.70522 2.51883 0
M  V30 4074 O 371.165 4.33865 3.70293 0
M  V30 4075 O 370.099 5.59296 2.22423 0
M  V30 4076 H 373.925 3.03426 0.129059 0
M  V30 4077 H 371.51 1.494 -0.0022283 0
M  V30 4078 H 373.392 3.34573 2.56201 0
M  V30 4079 H 372.067 2.15935 2.41151 0
M  V30 4080 H 370.974 3.68155 0.664259 0
M  V30 4081 H 372.307 4.84025 0.893328 0
M  V30 4082 N 373.959 -0.0401083 1.57549 0
M  V30 4083 C 375.207 -0.731677 1.8839 0
M  V30 4084 C 375.528 -1.76481 0.829425 0
M  V30 4085 O 374.798 -1.95411 -0.1383 0
M  V30 4086 H 373.378 -0.273225 0.695239 0
M  V30 4087 H 376.04 -0.00867725 1.94898 0
M  V30 4088 H 375.136 -1.22816 2.86919 0
M  V30 4089 N 375.437 -1.54477 -0.31217 0
M  V30 4090 C 376.347 -1.87695 -1.4074 0
M  V30 4091 C 377.363 -0.769975 -1.56036 0
M  V30 4092 O 378.539 -1.06537 -1.70915 0
M  V30 4093 C 375.604 -2.10755 -2.75287 0
M  V30 4094 C 374.665 -3.34514 -2.69071 0
M  V30 4095 C 373.898 -3.56465 -3.97201 0
M  V30 4096 O 374.121 -2.81637 -4.96021 0
M  V30 4097 O 373.055 -4.49964 -3.9977 0
M  V30 4098 H 376.881 -2.80849 -1.15574 0
M  V30 4099 H 374.466 -1.40526 -0.507228 0
M  V30 4100 H 376.348 -2.27188 -3.54913 0
M  V30 4101 H 375.023 -1.20788 -3.0032 0
M  V30 4102 H 373.93 -3.23456 -1.87955 0
M  V30 4103 H 375.263 -4.24575 -2.48992 0
M  V30 4104 N 376.915 0.57481 -1.46744 0
M  V30 4105 C 377.848 1.69827 -1.52427 0
M  V30 4106 C 378.826 1.58151 -0.377744 0
M  V30 4107 O 380.01 1.79257 -0.58303 0
M  V30 4108 C 377.137 3.07943 -1.41027 0
M  V30 4109 C 376.183 3.38116 -2.59961 0
M  V30 4110 S 377.016 3.29313 -4.22272 0
M  V30 4111 C 378.172 4.69953 -4.13394 0
M  V30 4112 H 378.405 1.64748 -2.47478 0
M  V30 4113 H 375.938 0.754203 -1.34726 0
M  V30 4114 H 377.896 3.87619 -1.35137 0
M  V30 4115 H 376.557 3.10504 -0.473909 0
M  V30 4116 H 375.75 4.38762 -2.47999 0
M  V30 4117 H 375.352 2.66024 -2.62882 0
M  V30 4118 H 377.644 5.60517 -3.80562 0
M  V30 4119 H 378.587 4.86972 -5.14066 0
M  V30 4120 H 378.995 4.47174 -3.44522 0
M  V30 4121 N 378.394 1.34581 0.820102 0
M  V30 4122 C 379.643 1.26437 1.57151 0
M  V30 4123 C 379.956 -0.163111 1.94919 0
M  V30 4124 O 381.162 -0.366722 2.69012 0
M  V30 4125 C 379.618 2.21658 2.83541 0
M  V30 4126 C 379.226 3.69679 2.53065 0
M  V30 4127 C 380.97 2.22428 3.61561 0
M  V30 4128 C 378.877 4.56761 3.75664 0
M  V30 4129 H 377.807 0.469707 0.589823 0
M  V30 4130 H 380.458 1.59763 0.902656 0
M  V30 4131 H 378.84 1.81287 3.52067 0
M  V30 4132 H 380.014 4.18605 1.92631 0
M  V30 4133 H 378.329 3.71384 1.88316 0
M  V30 4134 H 380.926 2.8471 4.52597 0
M  V30 4135 H 381.269 1.22434 3.97889 0
M  V30 4136 H 381.802 2.61259 2.99981 0
M  V30 4137 H 378.541 5.57702 3.44454 0
M  V30 4138 H 378.061 4.12568 4.35371 0
M  V30 4139 H 379.74 4.71509 4.43044 0
M  V30 4140 N 379.872 -1.04064 1.18357 0
M  V30 4141 C 381.119 -1.77265 0.978947 0
M  V30 4142 C 381.447 -1.88189 -0.491428 0
M  V30 4143 O 380.702 -1.38653 -1.38108 0
M  V30 4144 C 381.001 -3.20634 1.57888 0
M  V30 4145 C 380.667 -3.29743 3.07539 0
M  V30 4146 C 379.329 -3.31937 3.48384 0
M  V30 4147 C 381.681 -3.29841 4.03552 0
M  V30 4148 C 379.009 -3.3187 4.83818 0
M  V30 4149 C 381.361 -3.31313 5.38901 0
M  V30 4150 C 380.025 -3.31799 5.79194 0
M  V30 4151 H 379.295 -0.648659 0.358222 0
M  V30 4152 H 381.942 -1.22225 1.47422 0
M  V30 4153 H 380.247 -3.78675 1.00561 0
M  V30 4154 H 381.944 -3.75917 1.39598 0
M  V30 4155 H 378.534 -3.28757 2.74986 0
M  V30 4156 H 382.718 -3.27337 3.73047 0
M  V30 4157 H 377.974 -3.30562 5.14333 0
M  V30 4158 H 382.148 -3.30338 6.13066 0
M  V30 4159 H 379.775 -3.315 6.84114 0
M  V30 4160 N 381.35 -0.985608 -1.22978 0
M  V30 4161 C 382.297 -0.529825 -2.24636 0
M  V30 4162 C 383.267 0.434028 -1.60329 0
M  V30 4163 O 384.452 0.340414 -1.87739 0
M  V30 4164 C 381.592 0.156533 -3.44745 0
M  V30 4165 C 380.705 -0.848197 -4.23591 0
M  V30 4166 C 379.84 -0.136109 -5.31026 0
M  V30 4167 C 378.879 -1.1297 -6.01585 0
M  V30 4168 N 378.016 -0.446415 -7.00679 0
M  V30 4169 H 382.856 -1.40148 -2.62988 0
M  V30 4170 H 380.393 -0.702168 -1.29259 0
M  V30 4171 H 382.351 0.571324 -4.1327 0
M  V30 4172 H 380.981 0.992025 -3.07179 0
M  V30 4173 H 380.033 -1.38135 -3.54433 0
M  V30 4174 H 381.345 -1.60512 -4.72268 0
M  V30 4175 H 380.499 0.335784 -6.0577 0
M  V30 4176 H 379.238 0.653373 -4.83304 0
M  V30 4177 H 378.243 -1.6123 -5.25628 0
M  V30 4178 H 379.468 -1.91993 -6.51395 0
M  V30 4179 H 377.414 0.323763 -6.55201 0
M  V30 4180 H 377.331 -1.1419 -7.47326 0
M  V30 4181 H 378.599 0.00291697 -7.795 0
M  V30 4182 N 382.828 1.3818 -0.7579 0
M  V30 4183 C 383.775 2.30416 -0.133057 0
M  V30 4184 C 384.745 1.50398 0.704957 0
M  V30 4185 O 385.93 1.79014 0.660192 0
M  V30 4186 C 383.07 3.36834 0.750813 0
M  V30 4187 C 382.183 4.31879 -0.102297 0
M  V30 4188 C 381.318 5.25368 0.784979 0
M  V30 4189 C 380.357 6.12058 -0.0715046 0
M  V30 4190 N 379.494 6.97832 0.772972 0
M  V30 4191 H 384.334 2.83274 -0.925186 0
M  V30 4192 H 381.871 1.39461 -0.467866 0
M  V30 4193 H 383.829 3.97145 1.27794 0
M  V30 4194 H 382.459 2.85374 1.50868 0
M  V30 4195 H 381.511 3.72991 -0.747095 0
M  V30 4196 H 382.823 4.92921 -0.763552 0
M  V30 4197 H 381.977 5.90818 1.37911 0
M  V30 4198 H 380.716 4.64703 1.47996 0
M  V30 4199 H 379.721 5.456 -0.678272 0
M  V30 4200 H 380.946 6.74793 -0.763606 0
M  V30 4201 H 378.892 6.3971 1.45282 0
M  V30 4202 H 378.809 7.55812 0.168709 0
M  V30 4203 H 380.077 7.67687 1.35194 0
M  V30 4204 N 384.306 0.507319 1.49211 0
M  V30 4205 C 385.254 -0.281364 2.30892 0
M  V30 4206 C 386.248 -0.95687 1.39787 0
M  V30 4207 O 387.454 -0.883838 1.56807 0
M  V30 4208 H 383.829 -0.109597 0.743971 0
M  V30 4209 H 385.8 0.42744 2.95323 0
M  V30 4210 C 384.549 -1.32918 3.21291 0
M  V30 4211 H 383.872 -0.818799 3.91326 0
M  V30 4212 H 385.312 -1.85288 3.81372 0
M  V30 4213 C 383.771 -2.35074 2.41333 0
M  V30 4214 O 384.301 -3.4108 2.12197 0
M  V30 4215 N 382.507 -2.07705 2.03241 0
M  V30 4216 H 382.054 -1.2152 2.27136 0
M  V30 4217 H 382.012 -2.76283 1.50051 0
M  V30 4218 N 385.784 -1.5574 0.241426 0
M  V30 4219 C 387.012 -2.03208 -0.389134 0
M  V30 4220 C 387.427 -1.12082 -1.51931 0
M  V30 4221 O 386.784 -0.134183 -1.82006 0
M  V30 4222 C 386.835 -3.50064 -0.902087 0
M  V30 4223 O 386.556 -4.37717 0.18305 0
M  V30 4224 C 388.057 -4.13268 -1.60389 0
M  V30 4225 H 385.277 -0.664509 -0.0931053 0
M  V30 4226 H 387.821 -2.0124 0.36369 0
M  V30 4227 H 385.976 -3.52583 -1.60511 0
M  V30 4228 H 386.39 -5.24097 -0.205579 0
M  V30 4229 H 387.864 -5.17733 -1.91458 0
M  V30 4230 H 388.341 -3.59434 -2.52397 0
M  V30 4231 H 388.947 -4.14655 -0.945576 0
M  V30 4232 N 387.262 0.0317525 -1.57568 0
M  V30 4233 C 388.678 0.38735 -1.54828 0
M  V30 4234 C 388.878 1.7677 -0.967187 0
M  V30 4235 O 387.934 2.45581 -0.587063 0
M  V30 4236 C 389.247 0.291667 -2.99282 0
M  V30 4237 C 390.795 0.368946 -3.10818 0
M  V30 4238 C 391.27 0.302741 -4.56998 0
M  V30 4239 N 392.761 0.361617 -4.61786 0
M  V30 4240 C 393.496 0.333238 -5.72431 0
M  V30 4241 N 392.992 0.257308 -6.92322 0
M  V30 4242 N 394.785 0.382769 -5.60795 0
M  V30 4243 H 386.936 -0.871609 -1.93692 0
M  V30 4244 H 389.199 -0.331161 -0.888277 0
M  V30 4245 H 388.905 -0.656794 -3.45513 0
M  V30 4246 H 388.779 1.08638 -3.61217 0
M  V30 4247 H 391.166 1.30784 -2.64536 0
M  V30 4248 H 391.247 -0.455066 -2.5172 0
M  V30 4249 H 390.891 -0.632473 -5.03947 0
M  V30 4250 H 390.821 1.14482 -5.14005 0
M  V30 4251 H 393.312 0.422923 -3.75526 0
M  V30 4252 H 393.625 0.24068 -7.72425 0
M  V30 4253 H 391.97 0.223396 -6.94641 0
M  V30 4254 H 395.161 0.44006 -4.66027 0
M  V30 4255 H 395.334 0.357184 -6.47015 0
M  V30 4256 N 388.74 1.54641 0.303973 0
M  V30 4257 C 389.687 1.85386 1.37479 0
M  V30 4258 C 390.657 0.702528 1.50512 0
M  V30 4259 O 391.842 0.950867 1.65418 0
M  V30 4260 C 388.982 2.10413 2.73533 0
M  V30 4261 C 388.095 3.38049 2.68974 0
M  V30 4262 C 387.23 3.52934 3.97002 0
M  V30 4263 C 386.269 4.74373 3.86829 0
M  V30 4264 N 385.406 4.8608 5.06627 0
M  V30 4265 H 390.246 2.76732 1.1056 0
M  V30 4266 H 387.783 1.37034 0.534805 0
M  V30 4267 H 389.741 2.22919 3.52652 0
M  V30 4268 H 388.371 1.22338 2.98719 0
M  V30 4269 H 387.423 3.3418 1.81736 0
M  V30 4270 H 388.735 4.27288 2.57346 0
M  V30 4271 H 387.889 3.65088 4.84557 0
M  V30 4272 H 386.628 2.61824 4.1146 0
M  V30 4273 H 385.633 4.62255 2.97658 0
M  V30 4274 H 386.858 5.66888 3.73918 0
M  V30 4275 H 384.804 3.97891 5.21554 0
M  V30 4276 H 384.721 5.69315 4.9741 0
M  V30 4277 H 385.989 5.02587 5.95841 0
M  V30 4278 N 390.218 -0.567019 1.47046 0
M  V30 4279 C 391.467 -1.32091 1.5243 0
M  V30 4280 C 391.78 -1.94704 0.187021 0
M  V30 4281 O 392.986 -2.7124 0.118771 0
M  V30 4282 C 391.442 -2.39479 2.68659 0
M  V30 4283 C 391.05 -1.831 4.08874 0
M  V30 4284 C 392.794 -3.16111 2.83327 0
M  V30 4285 C 390.701 -2.8821 5.16419 0
M  V30 4286 H 389.631 -0.496629 0.56734 0
M  V30 4287 H 392.282 -0.603354 1.73297 0
M  V30 4288 H 390.664 -3.14105 2.41152 0
M  V30 4289 H 391.838 -1.14913 4.46242 0
M  V30 4290 H 390.153 -1.19085 3.99008 0
M  V30 4291 H 392.75 -3.94585 3.60842 0
M  V30 4292 H 393.093 -3.69686 1.91411 0
M  V30 4293 H 393.626 -2.48595 3.10556 0
M  V30 4294 H 390.365 -2.39504 6.10179 0
M  V30 4295 H 389.885 -3.54839 4.8358 0
M  V30 4296 H 391.564 -3.51881 5.42945 0
M  V30 4297 N 391.696 -1.35014 -0.812953 0
M  V30 4298 C 392.626 -1.30069 -1.93919 0
M  V30 4299 C 393.607 -0.176275 -1.69184 0
M  V30 4300 O 394.792 -0.370227 -1.90638 0
M  V30 4301 C 391.922 -1.06547 -3.30552 0
M  V30 4302 C 390.876 -2.15561 -3.69753 0
M  V30 4303 C 390.202 -1.77214 -5.04479 0
M  V30 4304 C 391.502 -3.57476 -3.808 0
M  V30 4305 H 393.196 -2.24303 -1.98314 0
M  V30 4306 H 390.742 -1.07977 -0.952736 0
M  V30 4307 H 392.695 -1.01729 -4.08937 0
M  V30 4308 H 391.419 -0.0875719 -3.26483 0
M  V30 4309 H 390.078 -2.19466 -2.9365 0
M  V30 4310 H 389.726 -0.780589 -4.96906 0
M  V30 4311 H 389.426 -2.50184 -5.31678 0
M  V30 4312 H 390.95 -1.7391 -5.8531 0
M  V30 4313 H 392.364 -3.55929 -4.4943 0
M  V30 4314 H 390.761 -4.29152 -4.19462 0
M  V30 4315 H 391.831 -3.94091 -2.82525 0
M  V30 4316 N 393.175 1.03435 -1.18907 0
M  V30 4317 C 394.591 1.28973 -0.940111 0
M  V30 4318 C 394.791 1.97676 0.390691 0
M  V30 4319 O 393.847 2.26127 1.12352 0
M  V30 4320 C 395.16 2.14221 -2.11021 0
M  V30 4321 C 396.708 2.27547 -2.14922 0
M  V30 4322 C 397.183 3.16164 -3.31367 0
M  V30 4323 N 398.674 3.23752 -3.31269 0
M  V30 4324 C 399.409 3.92495 -4.18014 0
M  V30 4325 N 398.905 4.63515 -5.14904 0
M  V30 4326 N 400.698 3.88838 -4.05908 0
M  V30 4327 H 392.849 0.57252 -2.04538 0
M  V30 4328 H 395.112 0.315184 -0.894071 0
M  V30 4329 H 394.818 1.71054 -3.073 0
M  V30 4330 H 394.692 3.14919 -2.0762 0
M  V30 4331 H 397.079 2.69947 -1.19217 0
M  V30 4332 H 397.16 1.26418 -2.22378 0
M  V30 4333 H 396.804 2.74474 -4.27348 0
M  V30 4334 H 396.734 4.17339 -3.21148 0
M  V30 4335 H 399.225 2.73167 -2.61129 0
M  V30 4336 H 399.538 5.13583 -5.77453 0
M  V30 4337 H 397.883 4.62398 -5.18857 0
M  V30 4338 H 401.074 3.32491 -3.29495 0
M  V30 4339 H 401.247 4.4214 -4.73726 0
M  V30 4340 N 394.653 0.992116 1.22453 0
M  V30 4341 C 396.064 0.702776 1.72968 0
M  V30 4342 C 396.415 -0.780399 1.80012 0
M  V30 4343 O 395.54 -1.61007 1.44589 0
M  V30 4344 C 396.135 1.26903 3.14135 0
M  V30 4345 C 394.694 1.02909 3.62059 0
M  V30 4346 C 393.841 1.38969 2.39964 0
M  V30 4347 H 396.792 1.16457 1.07812 0
M  V30 4348 H 396.813 0.647223 3.74955 0
M  V30 4349 H 396.325 2.34851 3.08977 0
M  V30 4350 H 394.426 -0.0337979 3.72585 0
M  V30 4351 H 394.539 1.69191 4.48231 0
M  V30 4352 H 392.903 0.808279 2.41535 0
M  V30 4353 H 393.686 2.4792 2.37467 0
M  V30 4354 N 396.131 -1.37776 0.765217 0
M  V30 4355 C 397.356 -2.04651 0.336537 0
M  V30 4356 C 397.781 -1.57337 -1.03086 0
M  V30 4357 O 397.139 -0.730621 -1.65927 0
M  V30 4358 C 397.187 -3.58577 0.381468 0
M  V30 4359 O 396.291 -4.07706 -0.62042 0
M  V30 4360 H 395.632 -0.64756 0.146838 0
M  V30 4361 H 398.162 -1.76221 1.03959 0
M  V30 4362 H 398.172 -4.07314 0.236448 0
M  V30 4363 H 396.847 -3.9237 1.37907 0
M  V30 4364 H 395.424 -3.70306 -0.439056 0
M  V30 4365 N 397.609 -0.515225 -1.4894 0
M  V30 4366 C 398.519 0.259774 -2.33157 0
M  V30 4367 C 399.535 0.953501 -1.45548 0
M  V30 4368 O 400.711 0.931735 -1.78552 0
M  V30 4369 C 397.776 1.30193 -3.21326 0
M  V30 4370 C 396.837 0.620129 -4.24797 0
M  V30 4371 C 396.07 1.61263 -5.08753 0
M  V30 4372 O 396.293 2.84389 -4.94448 0
M  V30 4373 O 395.227 1.16013 -5.90614 0
M  V30 4374 H 399.053 -0.429932 -3.00641 0
M  V30 4375 H 396.638 -0.276346 -1.46822 0
M  V30 4376 H 398.52 1.90455 -3.75905 0
M  V30 4377 H 397.195 1.97431 -2.56521 0
M  V30 4378 H 396.102 -0.0226019 -3.74093 0
M  V30 4379 H 397.435 -0.0100493 -4.92199 0
M  V30 4380 N 399.087 1.5561 -0.249682 0
M  V30 4381 C 400.317 2.03116 0.377803 0
M  V30 4382 C 400.725 1.12822 1.51881 0
M  V30 4383 O 400.068 0.13562 1.83199 0
M  V30 4384 C 400.13 3.46866 0.944693 0
M  V30 4385 C 399.794 4.56955 -0.0644259 0
M  V30 4386 C 400.791 5.12485 -0.874957 0
M  V30 4387 C 398.476 5.01936 -0.19132 0
M  V30 4388 C 400.47 6.11491 -1.79881 0
M  V30 4389 C 398.157 6.00773 -1.11868 0
M  V30 4390 C 399.155 6.5543 -1.92095 0
M  V30 4391 O 398.843 7.5234 -2.83267 0
M  V30 4392 H 398.575 0.669489 0.0935961 0
M  V30 4393 H 401.129 2.02004 -0.371966 0
M  V30 4394 H 399.359 3.45136 1.74407 0
M  V30 4395 H 401.048 3.77856 1.48255 0
M  V30 4396 H 401.814 4.78564 -0.787523 0
M  V30 4397 H 397.693 4.59055 0.423072 0
M  V30 4398 H 401.237 6.54078 -2.42543 0
M  V30 4399 H 397.134 6.34114 -1.20703 0
M  V30 4400 H 397.902 7.69966 -2.7766 0
M  V30 4401 N 400.565 -0.0233959 1.57583 0
M  V30 4402 C 401.793 -0.724682 1.93794 0
M  V30 4403 C 402.208 -1.68588 0.849912 0
M  V30 4404 O 401.565 -1.81676 -0.173204 0
M  V30 4405 C 401.616 -1.47684 3.29957 0
M  V30 4406 O 401.337 -0.554222 4.3458 0
M  V30 4407 C 402.838 -2.27477 3.80485 0
M  V30 4408 H 400.058 -0.203317 0.639455 0
M  V30 4409 H 402.602 0.0207653 2.04489 0
M  V30 4410 H 400.757 -2.17412 3.20641 0
M  V30 4411 H 401.171 -1.08232 5.13212 0
M  V30 4412 H 402.645 -2.7564 4.78254 0
M  V30 4413 H 403.122 -3.09144 3.11972 0
M  V30 4414 H 403.728 -1.62813 3.92902 0
M  V30 4415 N 402.043 -1.548 -0.295768 0
M  V30 4416 C 402.99 -1.86113 -1.36494 0
M  V30 4417 C 403.96 -0.7105 -1.50137 0
M  V30 4418 O 405.145 -0.959626 -1.64912 0
M  V30 4419 C 402.285 -2.11861 -2.72413 0
M  V30 4420 C 401.398 -3.39471 -2.67177 0
M  V30 4421 C 400.533 -3.55035 -3.95125 0
M  V30 4422 C 399.572 -4.76418 -3.84308 0
M  V30 4423 N 398.709 -4.8876 -5.04042 0
M  V30 4424 H 403.549 -2.77314 -1.09091 0
M  V30 4425 H 401.086 -1.37315 -0.52753 0
M  V30 4426 H 403.044 -2.24786 -3.51464 0
M  V30 4427 H 401.674 -1.2392 -2.98066 0
M  V30 4428 H 400.726 -3.35139 -1.79962 0
M  V30 4429 H 402.038 -4.28646 -2.55076 0
M  V30 4430 H 401.192 -3.67653 -4.82614 0
M  V30 4431 H 399.931 -2.64002 -4.10066 0
M  V30 4432 H 398.936 -4.63827 -2.95202 0
M  V30 4433 H 400.161 -5.68863 -3.70906 0
M  V30 4434 H 398.107 -4.00652 -5.19436 0
M  V30 4435 H 398.024 -5.71945 -4.94384 0
M  V30 4436 H 399.292 -5.0574 -5.93167 0
M  V30 4437 N 403.521 0.559213 -1.47345 0
M  V30 4438 C 404.746 1.34676 -1.57725 0
M  V30 4439 C 405.171 1.86723 -0.227164 0
M  V30 4440 O 404.529 1.6286 0.796642 0
M  V30 4441 C 404.577 2.49399 -2.60447 0
M  V30 4442 O 403.681 3.51567 -2.15578 0
M  V30 4443 H 403.022 0.400115 -0.52991 0
M  V30 4444 H 405.552 0.676009 -1.93109 0
M  V30 4445 H 405.562 2.95996 -2.80803 0
M  V30 4446 H 404.237 2.10873 -3.58477 0
M  V30 4447 H 402.814 3.11289 -2.05313 0
M  V30 4448 N 404.999 1.35443 0.805782 0
M  V30 4449 C 406.245 1.28952 1.56522 0
M  V30 4450 C 406.578 -0.135597 1.93726 0
M  V30 4451 O 405.853 -1.08516 1.61414 0
M  V30 4452 C 406.136 2.19678 2.85331 0
M  V30 4453 C 405.989 3.7081 2.54598 0
M  V30 4454 C 407.308 2.09495 3.8704 0
M  V30 4455 H 404.427 0.469764 0.567883 0
M  V30 4456 H 407.069 1.65851 0.927001 0
M  V30 4457 H 405.219 1.8834 3.39795 0
M  V30 4458 H 406.891 4.12593 2.06312 0
M  V30 4459 H 405.134 3.91051 1.8778 0
M  V30 4460 H 405.805 4.29679 3.46525 0
M  V30 4461 H 408.281 2.37045 3.41978 0
M  V30 4462 H 407.157 2.75173 4.74943 0
M  V30 4463 H 407.418 1.07714 4.28777 0
M  V30 4464 N 406.477 -1.02803 1.19454 0
M  V30 4465 C 407.726 -1.7562 0.991996 0
M  V30 4466 C 408.039 -1.89672 -0.477901 0
M  V30 4467 O 409.245 -2.59468 -0.799287 0
M  V30 4468 C 407.701 -3.15812 1.72601 0
M  V30 4469 C 407.309 -3.0981 3.23607 0
M  V30 4470 C 409.053 -3.92918 1.60674 0
M  V30 4471 C 406.96 -4.44939 3.89594 0
M  V30 4472 H 405.89 -0.658352 0.367543 0
M  V30 4473 H 408.541 -1.15044 1.42959 0
M  V30 4474 H 406.923 -3.7686 1.21624 0
M  V30 4475 H 408.097 -2.58138 3.81709 0
M  V30 4476 H 406.412 -2.46201 3.35819 0
M  V30 4477 H 409.009 -4.9287 2.07323 0
M  V30 4478 H 409.352 -4.12502 0.561025 0
M  V30 4479 H 409.885 -3.38472 2.09001 0
M  V30 4480 H 406.624 -4.30559 4.94267 0
M  V30 4481 H 406.144 -4.96664 3.36281 0
M  V30 4482 H 407.823 -5.1382 3.93189 0
M  V30 4483 N 407.956 -0.998596 -1.21925 0
M  V30 4484 C 409.233 -0.593401 -1.86382 0
M  V30 4485 C 409.613 0.92916 -1.89552 0
M  V30 4486 O 408.961 1.81347 -1.39017 0
M  V30 4487 C 409.171 -1.22039 -3.26967 0
M  V30 4488 C 410.519 -1.32449 -4.03413 0
M  V30 4489 O 411.543 -1.17522 -3.36254 0
M  V30 4490 O 410.402 -1.56395 -5.23644 0
M  V30 4491 H 407.496 -0.202385 -0.801854 0
M  V30 4492 H 410.042 -1.09484 -1.29659 0
M  V30 4493 H 408.814 -2.26158 -3.19325 0
M  V30 4494 H 408.437 -0.704906 -3.91301 0
M  V30 4495 N 409.434 1.37368 -0.772513 0
M  V30 4496 C 410.364 2.32856 -0.173304 0
M  V30 4497 C 411.345 1.55818 0.682262 0
M  V30 4498 O 412.53 1.84052 0.619566 0
M  V30 4499 C 409.66 3.40048 0.706007 0
M  V30 4500 C 408.614 4.27973 -0.0483144 0
M  V30 4501 C 407.94 5.26184 0.950491 0
M  V30 4502 C 409.24 5.07665 -1.22776 0
M  V30 4503 H 410.934 2.83217 -0.971002 0
M  V30 4504 H 408.48 1.3617 -0.468377 0
M  V30 4505 H 410.433 4.05827 1.13501 0
M  V30 4506 H 409.157 2.88214 1.53623 0
M  V30 4507 H 407.816 3.63726 -0.458107 0
M  V30 4508 H 407.464 4.7063 1.77529 0
M  V30 4509 H 407.164 5.85872 0.450314 0
M  V30 4510 H 408.688 5.94838 1.37842 0
M  V30 4511 H 410.102 5.66578 -0.875366 0
M  V30 4512 H 408.499 5.76681 -1.66007 0
M  V30 4513 H 409.569 4.40294 -2.03149 0
M  V30 4514 N 410.912 0.523116 1.48665 0
M  V30 4515 C 412.328 0.180511 1.58576 0
M  V30 4516 C 412.528 -1.31597 1.52592 0
M  V30 4517 O 411.584 -2.0937 1.4114 0
M  V30 4518 C 412.897 0.776949 2.90489 0
M  V30 4519 C 414.445 0.745058 3.04003 0
M  V30 4520 C 414.92 1.31995 4.38567 0
M  V30 4521 N 416.411 1.28162 4.45117 0
M  V30 4522 C 417.146 1.6964 5.47731 0
M  V30 4523 N 416.642 2.18816 6.57337 0
M  V30 4524 N 418.435 1.6092 5.38573 0
M  V30 4525 H 410.586 1.4958 1.50797 0
M  V30 4526 H 412.849 0.621772 0.715614 0
M  V30 4527 H 412.555 1.82732 3.00503 0
M  V30 4528 H 412.429 0.25007 3.7637 0
M  V30 4529 H 414.816 -0.296532 2.93606 0
M  V30 4530 H 414.897 1.30933 2.1975 0
M  V30 4531 H 414.541 2.36043 4.49718 0
M  V30 4532 H 414.471 0.731418 5.21496 0
M  V30 4533 H 416.962 0.92155 3.66491 0
M  V30 4534 H 417.275 2.48478 7.31764 0
M  V30 4535 H 415.62 2.22805 6.58318 0
M  V30 4536 H 418.811 1.22304 4.5184 0
M  V30 4537 H 418.984 1.93567 6.18414 0
M  V30 4538 N 412.39 -1.55475 0.257931 0
M  V30 4539 C 413.801 -1.8511 -0.243135 0
M  V30 4540 C 414.152 -1.17986 -1.5676 0
M  V30 4541 O 413.277 -0.462102 -2.11409 0
M  V30 4542 C 413.872 -3.35826 -0.447929 0
M  V30 4543 C 412.431 -3.65647 -0.893245 0
M  V30 4544 C 411.578 -2.7729 0.0232965 0
M  V30 4545 H 414.529 -1.51261 0.480199 0
M  V30 4546 H 414.55 -3.58002 -1.28898 0
M  V30 4547 H 414.062 -3.84652 0.516196 0
M  V30 4548 H 412.163 -3.22308 -1.86945 0
M  V30 4549 H 412.276 -4.73312 -0.742469 0
M  V30 4550 H 410.64 -2.49942 -0.490021 0
M  V30 4551 H 411.423 -3.28926 0.982994 0
M  V30 4552 N 413.868 0.0150385 -1.57593 0
M  V30 4553 C 414.778 1.02791 -2.10882 0
M  V30 4554 C 415.794 1.38702 -1.0506 0
M  V30 4555 O 416.97 1.47739 -1.36877 0
M  V30 4556 C 414.035 2.30568 -2.58919 0
M  V30 4557 C 413.096 2.01108 -3.79281 0
M  V30 4558 C 412.329 3.22794 -4.25018 0
M  V30 4559 O 412.552 4.33959 -3.70183 0
M  V30 4560 O 411.486 3.07672 -5.17322 0
M  V30 4561 H 415.312 0.604973 -2.97613 0
M  V30 4562 H 412.897 0.23292 -1.47573 0
M  V30 4563 H 414.779 3.05662 -2.90084 0
M  V30 4564 H 413.454 2.72129 -1.75293 0
M  V30 4565 H 412.361 1.23537 -3.53114 0
M  V30 4566 H 413.694 1.64394 -4.63935 0
M  V30 4567 N 415.346 1.54954 0.287554 0
M  V30 4568 C 416.623 1.65569 1.04146 0
M  V30 4569 C 417.003 0.512672 2.0478 0
M  V30 4570 O 416.351 -0.489038 2.23205 0
M  V30 4571 C 416.561 3.04163 1.71131 0
M  V30 4572 C 417.909 3.61429 2.22832 0
M  V30 4573 O 418.933 3.06702 1.81141 0
M  V30 4574 O 417.792 4.57281 2.9926 0
M  V30 4575 H 414.886 0.671881 0.482188 0
M  V30 4576 H 417.432 1.67297 0.28457 0
M  V30 4577 H 416.204 3.78796 0.981303 0
M  V30 4578 H 415.827 3.06271 2.53543 0
M  V30 4579 N 416.824 -0.551391 1.4764 0
M  V30 4580 C 418.07 -1.31024 1.54792 0
M  V30 4581 C 418.403 -1.9304 0.211967 0
M  V30 4582 O 417.678 -1.78175 -0.77999 0
M  V30 4583 C 417.961 -2.41593 2.67029 0
M  V30 4584 C 417.814 -1.84408 4.10261 0
M  V30 4585 C 419.133 -3.43488 2.75143 0
M  V30 4586 H 416.252 -0.475031 0.563485 0
M  V30 4587 H 418.894 -0.616454 1.79722 0
M  V30 4588 H 417.044 -3.00772 2.45904 0
M  V30 4589 H 418.716 -1.29445 4.42766 0
M  V30 4590 H 416.959 -1.15051 4.18265 0
M  V30 4591 H 417.63 -2.64367 4.84576 0
M  V30 4592 H 420.106 -2.94236 2.94218 0
M  V30 4593 H 418.982 -4.18274 3.55441 0
M  V30 4594 H 419.243 -4.02703 1.82435 0
M  V30 4595 N 418.302 -1.35869 -0.798587 0
M  V30 4596 C 419.548 -1.2978 -1.55836 0
M  V30 4597 C 419.881 0.125322 -1.93795 0
M  V30 4598 O 419.156 1.07658 -1.61987 0
M  V30 4599 C 419.439 -2.21188 -2.84162 0
M  V30 4600 C 419.292 -3.72155 -2.52628 0
M  V30 4601 C 420.611 -2.11545 -3.85923 0
M  V30 4602 H 417.73 -0.472769 -0.565383 0
M  V30 4603 H 420.372 -1.66341 -0.918192 0
M  V30 4604 H 418.522 -1.90139 -3.38791 0
M  V30 4605 H 420.194 -4.13682 -2.04121 0
M  V30 4606 H 418.437 -3.92042 -1.85704 0
M  V30 4607 H 419.108 -4.31511 -3.44242 0
M  V30 4608 H 421.584 -2.38855 -3.40716 0
M  V30 4609 H 420.46 -2.77688 -4.73477 0
M  V30 4610 H 420.721 -1.09987 -4.282 0
M  V30 4611 N 419.78 1.02168 -1.19998 0
M  V30 4612 C 420.73 2.08969 -0.911921 0
M  V30 4613 C 421.714 1.60404 0.12621 0
M  V30 4614 O 422.906 1.76817 -0.0804706 0
M  V30 4615 C 420.035 3.402 -0.460277 0
M  V30 4616 C 419.121 3.9548 -1.53155 0
M  V30 4617 N 419.512 4.24332 -2.75275 0
M  V30 4618 C 417.81 4.23572 -1.39653 0
M  V30 4619 C 418.511 4.68834 -3.44339 0
M  V30 4620 N 417.487 4.70804 -2.71744 0
M  V30 4621 H 421.289 2.29178 -1.83997 0
M  V30 4622 H 418.803 1.20094 -1.09322 0
M  V30 4623 H 420.8 4.16235 -0.235337 0
M  V30 4624 H 419.46 3.21408 0.4612 0
M  V30 4625 H 420.471 4.13393 -3.11973 0
M  V30 4626 H 417.148 4.14005 -0.539067 0
M  V30 4627 H 418.538 5.00019 -4.4881 0
M  V30 4628 N 421.258 1.00505 1.21394 0
M  V30 4629 C 422.168 0.574806 2.27449 0
M  V30 4630 C 423.184 -0.382206 1.6975 0
M  V30 4631 O 424.36 -0.246027 1.99892 0
M  V30 4632 C 421.425 -0.0917414 3.46579 0
M  V30 4633 C 420.486 0.909758 4.1955 0
M  V30 4634 C 419.719 0.274924 5.32991 0
M  V30 4635 O 419.942 -0.928254 5.62796 0
M  V30 4636 O 418.876 0.985877 5.93771 0
M  V30 4637 H 422.702 1.45744 2.66444 0
M  V30 4638 H 420.287 0.773923 1.27792 0
M  V30 4639 H 422.169 -0.464551 4.18832 0
M  V30 4640 H 420.844 -0.948755 3.09484 0
M  V30 4641 H 419.751 1.33372 3.49518 0
M  V30 4642 H 421.084 1.73636 4.60555 0
M  V30 4643 N 422.737 -1.36956 0.779787 0
M  V30 4644 C 423.962 -2.04283 0.358224 0
M  V30 4645 C 424.387 -1.58422 -1.01411 0
M  V30 4646 O 423.745 -0.748179 -1.65142 0
M  V30 4647 C 423.793 -3.58152 0.419479 0
M  V30 4648 O 422.897 -4.08342 -0.577142 0
M  V30 4649 H 422.238 -0.645967 0.153698 0
M  V30 4650 H 424.768 -1.75108 1.05822 0
M  V30 4651 H 424.778 -4.07041 0.279636 0
M  V30 4652 H 423.453 -3.90886 1.42061 0
M  V30 4653 H 422.03 -3.70751 -0.399755 0
M  V30 4654 N 424.215 -0.530993 -1.48385 0
M  V30 4655 C 425.463 0.00273189 -2.021 0
M  V30 4656 C 425.784 1.34672 -1.41027 0
M  V30 4657 O 425.054 1.8724 -0.576012 0
M  V30 4658 H 423.634 0.00399774 -0.746989 0
M  V30 4659 H 426.296 -0.695054 -1.82085 0
M  V30 4660 H 425.392 0.11031 -3.11905 0
M  V30 4661 N 425.693 1.55336 -0.266172 0
M  V30 4662 C 426.918 2.04258 0.359661 0
M  V30 4663 C 427.343 1.14359 1.49344 0
M  V30 4664 O 426.701 0.140369 1.80756 0
M  V30 4665 C 426.749 3.50997 0.826635 0
M  V30 4666 O 425.853 3.64204 1.93466 0
M  V30 4667 H 425.194 0.659668 0.075727 0
M  V30 4668 H 427.724 2.00694 -0.39786 0
M  V30 4669 H 427.734 3.9219 1.12477 0
M  V30 4670 H 426.409 4.159 -0.00293032 0
M  V30 4671 H 424.986 3.34913 1.63974 0
M  V30 4672 N 427.171 -0.0066808 1.57599 0
M  V30 4673 C 428.101 -0.999296 2.11036 0
M  V30 4674 C 429.082 -1.36278 1.01795 0
M  V30 4675 O 430.267 -1.4477 1.29442 0
M  V30 4676 C 427.397 -2.29328 2.60818 0
M  V30 4677 C 426.351 -2.07159 3.74525 0
M  V30 4678 C 425.677 -3.42512 4.10596 0
M  V30 4679 C 426.977 -1.43959 5.02069 0
M  V30 4680 H 428.671 -0.554382 2.94223 0
M  V30 4681 H 426.217 -0.265221 1.41536 0
M  V30 4682 H 428.17 -2.99117 2.96828 0
M  V30 4683 H 426.894 -2.7592 1.74745 0
M  V30 4684 H 425.553 -1.39797 3.38899 0
M  V30 4685 H 425.201 -3.86795 3.21556 0
M  V30 4686 H 424.901 -3.28498 4.87199 0
M  V30 4687 H 426.425 -4.13628 4.4916 0
M  V30 4688 H 427.839 -2.03696 5.35893 0
M  V30 4689 H 426.236 -1.40452 5.83432 0
M  V30 4690 H 427.306 -0.407992 4.83181 0
M  V30 4691 N 428.649 -1.55105 -0.279332 0
M  V30 4692 C 429.897 -1.75066 -1.00977 0
M  V30 4693 C 430.218 -0.551276 -1.87045 0
M  V30 4694 O 429.488 0.433984 -1.91032 0
M  V30 4695 H 428.068 -0.645578 -0.375816 0
M  V30 4696 H 430.73 -1.92497 -0.305089 0
M  V30 4697 H 429.826 -2.64894 -1.65038 0
M  V30 4698 N 430.127 0.543554 -1.4793 0
M  V30 4699 C 431.404 1.30458 -1.4574 0
M  V30 4700 C 431.784 2.1048 -0.161692 0
M  V30 4701 O 431.132 2.11831 0.856734 0
M  V30 4702 C 431.342 2.19754 -2.71126 0
M  V30 4703 C 432.69 2.80334 -3.18901 0
M  V30 4704 O 433.714 2.30049 -2.71948 0
M  V30 4705 O 432.573 3.71766 -4.00565 0
M  V30 4706 H 429.667 0.588117 -0.581418 0
M  V30 4707 H 432.213 0.561328 -1.60147 0
M  V30 4708 H 430.985 1.60316 -3.56952 0
M  V30 4709 H 430.608 3.01351 -2.59371 0
M  V30 4710 N 431.605 1.3629 0.791371 0
M  V30 4711 C 433.021 1.16661 1.08914 0
M  V30 4712 C 433.221 -0.0106266 2.01497 0
M  V30 4713 O 432.277 -0.676596 2.43266 0
M  V30 4714 C 433.59 2.47656 1.70549 0
M  V30 4715 C 435.138 2.54002 1.82899 0
M  V30 4716 C 435.613 3.85078 2.47949 0
M  V30 4717 N 437.104 3.86413 2.5542 0
M  V30 4718 C 437.839 4.84572 3.06557 0
M  V30 4719 N 437.335 5.93124 3.58016 0
M  V30 4720 N 439.128 4.71994 3.05251 0
M  V30 4721 H 431.279 2.11668 0.176238 0
M  V30 4722 H 433.542 0.937486 0.140796 0
M  V30 4723 H 433.248 3.34059 1.09989 0
M  V30 4724 H 433.122 2.63319 2.70079 0
M  V30 4725 H 435.509 1.68018 2.42598 0
M  V30 4726 H 435.59 2.42239 0.821808 0
M  V30 4727 H 435.234 4.71467 1.88895 0
M  V30 4728 H 435.164 3.94135 3.49235 0
M  V30 4729 H 437.655 3.07988 2.18979 0
M  V30 4730 H 437.968 6.63999 3.95381 0
M  V30 4731 H 436.313 5.96796 3.56173 0
M  V30 4732 H 439.504 3.86321 2.64336 0
M  V30 4733 H 439.677 5.48653 3.44796 0
M  V30 4734 N 433.083 -1.0153 1.20538 0
M  V30 4735 C 434.308 -1.79283 1.04271 0
M  V30 4736 C 434.733 -1.8372 -0.403544 0
M  V30 4737 O 434.091 -1.27321 -1.2907 0
M  V30 4738 C 434.139 -3.21535 1.63241 0
M  V30 4739 O 433.243 -4.03099 0.870908 0
M  V30 4740 H 432.584 -0.55293 0.367647 0
M  V30 4741 H 435.114 -1.27696 1.59859 0
M  V30 4742 H 435.124 -3.72243 1.6703 0
M  V30 4743 H 433.799 -3.1762 2.68497 0
M  V30 4744 H 432.376 -3.61693 0.907323 0
M  V30 4745 N 434.561 -1.01147 -1.20859 0
M  V30 4746 C 435.508 -0.577354 -2.23462 0
M  V30 4747 C 436.478 0.399922 -1.61214 0
M  V30 4748 O 437.663 0.300515 -1.88419 0
M  V30 4749 C 434.803 0.083372 -3.44999 0
M  V30 4750 C 433.916 -0.937856 -4.21697 0
M  V30 4751 C 433.051 -0.248717 -5.30617 0
M  V30 4752 C 432.09 -1.25705 -5.99053 0
M  V30 4753 N 431.227 -0.594939 -6.99575 0
M  V30 4754 H 436.067 -1.45695 -2.59956 0
M  V30 4755 H 433.604 -0.729428 -1.27741 0
M  V30 4756 H 435.562 0.483535 -4.14388 0
M  V30 4757 H 434.192 0.926645 -3.09214 0
M  V30 4758 H 433.244 -1.45622 -3.51423 0
M  V30 4759 H 434.556 -1.70493 -4.68757 0
M  V30 4760 H 433.71 0.207215 -6.06346 0
M  V30 4761 H 432.449 0.55071 -4.84581 0
M  V30 4762 H 431.454 -1.72343 -5.2209 0
M  V30 4763 H 432.679 -2.05767 -6.47176 0
M  V30 4764 H 430.625 0.184713 -6.5574 0
M  V30 4765 H 430.542 -1.30017 -7.44736 0
M  V30 4766 H 431.81 -0.162427 -7.79331 0
M  V30 4767 N 436.039 1.36541 -0.78704 0
M  V30 4768 C 437.264 2.0409 -0.369053 0
M  V30 4769 C 437.689 1.58957 1.00569 0
M  V30 4770 O 437.047 0.756926 1.64743 0
M  V30 4771 C 437.095 3.57924 -0.438466 0
M  V30 4772 O 436.199 4.08642 0.555479 0
M  V30 4773 H 435.54 0.645142 -0.157122 0
M  V30 4774 H 438.07 1.74545 -1.06749 0
M  V30 4775 H 438.08 4.06887 -0.301218 0
M  V30 4776 H 436.755 3.90127 -1.44132 0
M  V30 4777 H 435.332 3.70958 0.380088 0
M  V30 4778 N 437.518 0.538854 1.48102 0
M  V30 4779 C 438.764 0.00801365 2.02798 0
M  V30 4780 C 439.097 -1.3309 1.41424 0
M  V30 4781 O 438.372 -1.86169 0.563158 0
M  V30 4782 C 438.655 -0.104589 3.59948 0
M  V30 4783 C 438.508 1.26012 4.31788 0
M  V30 4784 C 439.827 -0.827055 4.32259 0
M  V30 4785 H 436.946 0.00438624 0.736987 0
M  V30 4786 H 439.588 0.6976 1.7673 0
M  V30 4787 H 437.738 -0.691893 3.82289 0
M  V30 4788 H 439.41 1.88922 4.2084 0
M  V30 4789 H 437.653 1.83968 3.92859 0
M  V30 4790 H 438.324 1.13424 5.40221 0
M  V30 4791 H 440.8 -0.328578 4.14801 0
M  V30 4792 H 439.676 -0.87476 5.41885 0
M  V30 4793 H 439.937 -1.87927 4.0017 0
M  V30 4794 N 438.996 -1.55193 0.274407 0
M  V30 4795 C 440.407 -1.85358 -0.223488 0
M  V30 4796 C 440.758 -1.19642 -1.555 0
M  V30 4797 O 439.883 -0.484498 -2.10907 0
M  V30 4798 C 440.478 -3.36282 -0.412285 0
M  V30 4799 C 439.037 -3.66574 -0.854413 0
M  V30 4800 C 438.184 -2.7725 0.0527056 0
M  V30 4801 H 441.135 -1.50743 0.496215 0
M  V30 4802 H 441.156 -3.59349 -1.25094 0
M  V30 4803 H 440.668 -3.84083 0.556965 0
M  V30 4804 H 438.769 -3.24273 -1.83516 0
M  V30 4805 H 438.882 -4.74073 -0.692226 0
M  V30 4806 H 437.246 -2.50447 -0.463484 0
M  V30 4807 H 438.029 -3.27865 1.01783 0
M  V30 4808 N 440.474 -0.00167713 -1.576 0
M  V30 4809 C 441.722 0.681471 -1.90264 0
M  V30 4810 C 442.043 1.7422 -0.875924 0
M  V30 4811 O 441.313 1.95709 0.0864412 0
M  V30 4812 H 439.893 0.254696 -0.702239 0
M  V30 4813 H 442.555 -0.0429996 -1.94853 0
M  V30 4814 H 441.651 1.15166 -2.90075 0
M  V30 4815 N 441.952 1.55251 0.271103 0
M  V30 4816 C 442.882 1.9127 1.33933 0
M  V30 4817 C 443.863 0.77478 1.5143 0
M  V30 4818 O 445.048 1.03307 1.64442 0
M  V30 4819 C 442.178 2.18627 2.69851 0
M  V30 4820 C 441.132 3.34442 2.67081 0
M  V30 4821 C 440.458 3.47284 4.06569 0
M  V30 4822 C 441.758 4.70784 2.26185 0
M  V30 4823 H 443.452 2.80744 1.04035 0
M  V30 4824 H 440.998 1.35077 0.499017 0
M  V30 4825 H 442.951 2.42413 3.44694 0
M  V30 4826 H 441.675 1.25955 3.01335 0
M  V30 4827 H 440.334 3.10627 1.94695 0
M  V30 4828 H 439.982 2.52074 4.35279 0
M  V30 4829 H 439.682 4.25152 4.0561 0
M  V30 4830 H 441.206 3.73363 4.83148 0
M  V30 4831 H 442.62 4.94102 2.90751 0
M  V30 4832 H 441.017 5.51582 2.36384 0
M  V30 4833 H 442.087 4.69478 1.21319 0
M  V30 4834 N 443.43 -0.535701 1.48216 0
M  V30 4835 C 444.378 -1.66179 1.62749 0
M  V30 4836 C 445.372 -1.62034 0.49409 0
M  V30 4837 O 446.578 -1.6696 0.672624 0
M  V30 4838 H 442.953 -0.550244 0.512578 0
M  V30 4839 H 444.924 -1.51063 2.57337 0
M  V30 4840 C 443.673 -3.04471 1.67907 0
M  V30 4841 H 442.996 -3.08351 2.54479 0
M  V30 4842 H 444.436 -3.82894 1.82121 0
M  V30 4843 C 442.895 -3.34314 0.416596 0
M  V30 4844 O 443.425 -3.98905 -0.473014 0
M  V30 4845 N 441.631 -2.89149 0.290038 0
M  V30 4846 H 441.178 -2.36764 1.01493 0
M  V30 4847 H 441.136 -3.09486 -0.55367 0
M  V30 4848 N 444.908 -1.36708 -0.784132 0
M  V30 4849 C 446.154 -1.31426 -1.54451 0
M  V30 4850 C 446.487 0.10476 -1.93917 0
M  V30 4851 O 445.762 1.05934 -1.6312 0
M  V30 4852 C 446.045 -2.24189 -2.818 0
M  V30 4853 C 445.898 -3.74813 -2.48667 0
M  V30 4854 C 447.217 -2.15626 -3.83658 0
M  V30 4855 H 444.336 -0.478739 -0.560337 0
M  V30 4856 H 446.978 -1.67305 -0.900498 0
M  V30 4857 H 445.128 -1.93722 -3.36755 0
M  V30 4858 H 446.8 -4.15823 -1.99722 0
M  V30 4859 H 445.043 -3.93989 -1.81535 0
M  V30 4860 H 445.714 -4.35138 -3.39646 0
M  V30 4861 H 448.19 -2.42456 -3.38163 0
M  V30 4862 H 447.066 -2.82694 -4.70506 0
M  V30 4863 H 447.327 -1.14522 -4.27009 0
M  V30 4864 N 446.386 1.0089 -1.21074 0
M  V30 4865 C 447.663 1.71834 -0.934469 0
M  V30 4866 C 448.043 2.0368 0.554753 0
M  V30 4867 O 447.391 1.70742 1.51854 0
M  V30 4868 C 447.601 2.98061 -1.8155 0
M  V30 4869 C 448.949 3.7117 -2.06199 0
M  V30 4870 O 449.973 3.08034 -1.78867 0
M  V30 4871 O 448.832 4.84721 -2.52404 0
M  V30 4872 H 445.926 0.749253 -0.35007 0
M  V30 4873 H 448.472 1.06668 -1.31985 0
M  V30 4874 H 447.244 2.70908 -2.82355 0
M  V30 4875 H 446.867 3.70968 -1.43068 0
M  V30 4876 N 447.864 1.01787 1.20321 0
M  V30 4877 C 448.797 0.533882 2.21867 0
M  V30 4878 C 449.775 -0.419361 1.57099 0
M  V30 4879 O 450.959 -0.339062 1.85426 0
M  V30 4880 C 448.086 -0.222899 3.37966 0
M  V30 4881 C 447.132 0.680091 4.21043 0
M  V30 4882 S 447.965 2.14997 4.90445 0
M  V30 4883 C 449.121 1.40339 6.09964 0
M  V30 4884 H 449.354 1.39429 2.62577 0
M  V30 4885 H 446.887 0.826867 1.30393 0
M  V30 4886 H 448.845 -0.653425 4.05266 0
M  V30 4887 H 447.506 -1.0589 2.95713 0
M  V30 4888 H 446.699 0.0964704 5.03908 0
M  V30 4889 H 446.301 1.04845 3.59004 0
M  V30 4890 H 448.593 0.68407 6.74038 0
M  V30 4891 H 449.536 2.20823 6.72787 0
M  V30 4892 H 449.944 0.905716 5.57187 0
M  V30 4893 N 449.342 -1.36122 0.79427 0
M  V30 4894 C 450.252 -2.33769 0.197296 0
M  V30 4895 C 451.268 -1.61276 -0.653153 0
M  V30 4896 O 452.444 -1.9323 -0.5678 0
M  V30 4897 C 449.509 -3.40474 -0.654098 0
M  V30 4898 C 448.57 -4.28759 0.215411 0
M  V30 4899 C 447.803 -5.30368 -0.595443 0
M  V30 4900 O 448.026 -5.40211 -1.83107 0
M  V30 4901 O 446.96 -6.019 0.00721351 0
M  V30 4902 H 450.786 -2.86597 1.00478 0
M  V30 4903 H 448.371 -1.38676 0.555818 0
M  V30 4904 H 450.253 -4.05703 -1.13944 0
M  V30 4905 H 448.928 -2.89937 -1.43938 0
M  V30 4906 H 447.835 -3.66554 0.747615 0
M  V30 4907 H 449.168 -4.82661 0.964332 0
M  V30 4908 N 450.82 -0.546701 -1.47814 0
M  V30 4909 C 451.73 0.21026 -2.33656 0
M  V30 4910 C 452.746 0.922413 -1.47538 0
M  V30 4911 O 453.922 0.893652 -1.80488 0
M  V30 4912 C 450.987 1.23348 -3.24016 0
M  V30 4913 C 450.048 0.529883 -4.26017 0
M  V30 4914 C 449.281 1.50435 -5.12059 0
M  V30 4915 O 449.504 2.73837 -5.00369 0
M  V30 4916 O 448.438 1.03459 -5.92942 0
M  V30 4917 H 452.264 -0.493605 -2.99662 0
M  V30 4918 H 449.849 -0.307427 -1.46203 0
M  V30 4919 H 451.731 1.82438 -3.79861 0
M  V30 4920 H 450.406 1.91945 -2.60651 0
M  V30 4921 H 449.313 -0.101948 -3.73961 0
M  V30 4922 H 450.646 -0.11445 -4.92067 0
M  V30 4923 N 452.299 1.55045 -0.282633 0
M  V30 4924 C 453.209 2.26491 0.61147 0
M  V30 4925 C 454.225 1.29348 1.16384 0
M  V30 4926 O 455.401 1.62298 1.19253 0
M  V30 4927 C 452.466 2.97779 1.77563 0
M  V30 4928 C 451.527 4.10418 1.25919 0
M  V30 4929 C 450.76 4.78297 2.36786 0
M  V30 4930 O 450.983 4.45426 3.56303 0
M  V30 4931 O 449.917 5.66089 2.04517 0
M  V30 4932 H 453.743 3.03683 0.0324615 0
M  V30 4933 H 451.328 1.49317 -0.0497576 0
M  V30 4934 H 453.21 3.42554 2.45427 0
M  V30 4935 H 451.885 2.23498 2.34159 0
M  V30 4936 H 450.792 3.70082 0.546797 0
M  V30 4937 H 452.125 4.86622 0.738887 0
M  V30 4938 N 453.777 0.010035 1.57597 0
M  V30 4939 C 454.687 -0.994226 2.12491 0
M  V30 4940 C 455.703 -1.37013 1.07254 0
M  V30 4941 O 456.879 -1.45542 1.3921 0
M  V30 4942 C 453.944 -2.2642 2.62555 0
M  V30 4943 C 453.005 -1.95049 3.82432 0
M  V30 4944 C 452.238 -3.15991 4.30099 0
M  V30 4945 O 452.461 -4.28015 3.7704 0
M  V30 4946 O 451.395 -2.99403 5.22151 0
M  V30 4947 H 455.221 -0.557549 2.98538 0
M  V30 4948 H 452.806 -0.209413 1.47925 0
M  V30 4949 H 454.688 -3.01009 2.9491 0
M  V30 4950 H 453.363 -2.69306 1.796 0
M  V30 4951 H 452.27 -1.17904 3.55034 0
M  V30 4952 H 453.603 -1.56992 4.66491 0
M  V30 4953 N 455.255 -1.55392 -0.262866 0
M  V30 4954 C 456.165 -1.92077 -1.34698 0
M  V30 4955 C 457.181 -0.819227 -1.53508 0
M  V30 4956 O 458.357 -1.11921 -1.67439 0
M  V30 4957 C 455.422 -2.19407 -2.68443 0
M  V30 4958 C 454.483 -3.42905 -2.58292 0
M  V30 4959 C 453.716 -3.68921 -3.85659 0
M  V30 4960 O 453.939 -2.97275 -4.8681 0
M  V30 4961 O 452.873 -4.62455 -3.85252 0
M  V30 4962 H 456.699 -2.84384 -1.06581 0
M  V30 4963 H 454.284 -1.42069 -0.462264 0
M  V30 4964 H 456.166 -2.38365 -3.47506 0
M  V30 4965 H 454.841 -1.30282 -2.96325 0
M  V30 4966 H 453.748 -3.29272 -1.7757 0
M  V30 4967 H 455.081 -4.32282 -2.35358 0
M  V30 4968 N 456.733 0.527833 -1.48498 0
M  V30 4969 C 457.643 1.65907 -1.65867 0
M  V30 4970 C 458.659 1.6537 -0.541192 0
M  V30 4971 O 459.835 1.84282 -0.812534 0
M  V30 4972 C 456.9 3.02364 -1.69637 0
M  V30 4973 C 455.961 3.1374 -2.93028 0
M  V30 4974 C 455.194 4.43688 -2.96609 0
M  V30 4975 O 455.417 5.30913 -2.08538 0
M  V30 4976 O 454.351 4.59475 -3.88802 0
M  V30 4977 H 458.177 1.5419 -2.61647 0
M  V30 4978 H 455.762 0.701163 -1.31924 0
M  V30 4979 H 457.644 3.83515 -1.74625 0
M  V30 4980 H 456.319 3.14401 -0.770312 0
M  V30 4981 H 455.226 2.31877 -2.93571 0
M  V30 4982 H 456.559 3.06621 -3.85026 0
M  V30 4983 N 458.211 1.37122 0.776871 0
M  V30 4984 C 459.121 1.34651 1.9211 0
M  V30 4985 C 460.137 0.246824 1.7224 0
M  V30 4986 O 461.313 0.48134 1.95563 0
M  V30 4987 C 458.378 1.14748 3.2716 0
M  V30 4988 C 457.439 2.34308 3.5972 0
M  V30 4989 C 456.672 2.15345 4.88326 0
M  V30 4990 O 456.895 1.13507 5.58992 0
M  V30 4991 O 455.829 3.03414 5.1983 0
M  V30 4992 H 459.655 2.31013 1.97146 0
M  V30 4993 H 457.24 1.17799 0.918901 0
M  V30 4994 H 459.122 1.05616 4.0795 0
M  V30 4995 H 457.797 0.214562 3.22988 0
M  V30 4996 H 456.704 2.49011 2.79185 0
M  V30 4997 H 458.037 3.26149 3.68629 0
M  V30 4998 N 459.689 -1.00246 1.21608 0
M  V30 4999 C 460.966 -1.71336 0.943568 0
M  V30 5000 C 461.346 -2.03972 -0.543943 0
M  V30 5001 O 460.694 -1.71545 -1.50946 0
M  V30 5002 C 460.904 -2.97094 1.83128 0
M  V30 5003 C 462.252 -3.70071 2.08165 0
M  V30 5004 O 463.276 -3.07081 1.80498 0
M  V30 5005 O 462.135 -4.83376 2.54971 0
M  V30 5006 H 459.229 -0.747386 0.354039 0
M  V30 5007 H 461.775 -1.05967 1.32549 0
M  V30 5008 H 460.547 -2.69407 2.83788 0
M  V30 5009 H 460.17 -3.70204 1.45034 0
M  V30 5010 N 461.167 -1.02423 -1.1978 0
M  V30 5011 C 462.416 -0.713265 -1.88667 0
M  V30 5012 C 462.729 0.7609 -1.80193 0
M  V30 5013 O 463.935 1.18473 -2.44288 0
M  V30 5014 C 462.391 -1.22545 -3.38394 0
M  V30 5015 C 461.999 -2.72706 -3.55437 0
M  V30 5016 C 463.743 -0.990257 -4.12788 0
M  V30 5017 C 461.65 -3.17367 -4.99031 0
M  V30 5018 H 460.58 -0.263105 -0.706606 0
M  V30 5019 H 463.231 -1.23792 -1.35454 0
M  V30 5020 H 461.613 -0.628732 -3.90977 0
M  V30 5021 H 462.787 -3.37993 -3.13205 0
M  V30 5022 H 461.102 -2.94453 -2.94425 0
M  V30 5023 H 463.699 -1.29926 -5.18675 0
M  V30 5024 H 464.042 0.0730761 -4.16236 0
M  V30 5025 H 464.575 -1.55074 -3.66329 0
M  V30 5026 H 461.314 -4.23009 -5.00743 0
M  V30 5027 H 460.834 -2.56805 -5.42044 0
M  V30 5028 H 462.513 -3.10441 -5.67658 0
M  V30 5029 N 462.645 1.35699 -0.801477 0
M  V30 5030 C 463.922 1.9324 -0.302937 0
M  V30 5031 C 464.302 1.73209 1.20672 0
M  V30 5032 O 463.65 1.09809 2.00385 0
M  V30 5033 C 463.86 3.41728 -0.708747 0
M  V30 5034 C 465.208 4.18868 -0.695328 0
M  V30 5035 O 466.232 3.5022 -0.649971 0
M  V30 5036 O 465.091 5.41342 -0.749081 0
M  V30 5037 H 462.185 0.82331 -0.0780367 0
M  V30 5038 H 464.731 1.44806 -0.884832 0
M  V30 5039 H 463.503 3.50015 -1.74944 0
M  V30 5040 H 463.126 3.97471 -0.101384 0
M  V30 5041 N 464.123 0.554532 1.47522 0
M  V30 5042 C 465.073 -0.215008 2.26984 0
M  V30 5043 C 466.057 -0.88774 1.34194 0
M  V30 5044 O 467.249 -0.786489 1.58567 0
M  V30 5045 C 464.378 -1.24604 3.19889 0
M  V30 5046 C 463.464 -0.576857 4.20159 0
M  V30 5047 N 463.855 0.351541 5.04577 0
M  V30 5048 C 462.153 -0.831104 4.38188 0
M  V30 5049 C 462.854 0.739995 5.76974 0
M  V30 5050 N 461.83 0.0954407 5.43516 0
M  V30 5051 H 465.632 0.498843 2.89636 0
M  V30 5052 H 463.146 0.374279 1.58028 0
M  V30 5053 H 465.143 -1.81128 3.75498 0
M  V30 5054 H 463.803 -1.96101 2.58794 0
M  V30 5055 H 464.814 0.725556 5.12792 0
M  V30 5056 H 461.491 -1.53479 3.88266 0
M  V30 5057 H 462.881 1.50271 6.5488 0
M  V30 5058 N 465.601 -1.54893 0.290851 0
M  V30 5059 C 466.531 -2.26103 -0.583084 0
M  V30 5060 C 467.512 -1.25684 -1.14619 0
M  V30 5061 O 468.697 -1.54436 -1.17741 0
M  V30 5062 C 465.827 -2.99409 -1.75987 0
M  V30 5063 C 464.781 -4.0689 -1.32758 0
M  V30 5064 C 464.107 -4.67856 -2.58872 0
M  V30 5065 C 465.407 -5.20215 -0.46624 0
M  V30 5066 H 467.101 -2.99398 0.0108214 0
M  V30 5067 H 464.647 -1.43998 0.00664468 0
M  V30 5068 H 466.6 -3.47943 -2.37727 0
M  V30 5069 H 465.324 -2.23675 -2.37985 0
M  V30 5070 H 463.983 -3.59191 -0.733299 0
M  V30 5071 H 463.631 -3.88772 -3.19163 0
M  V30 5072 H 463.331 -5.40438 -2.30653 0
M  V30 5073 H 464.855 -5.19147 -3.21433 0
M  V30 5074 H 466.269 -5.64704 -0.989047 0
M  V30 5075 H 464.666 -5.99455 -0.27826 0
M  V30 5076 H 465.736 -4.82198 0.511173 0
M  V30 5077 N 467.08 -0.0183926 -1.57589 0
M  V30 5078 C 468.326 0.663543 -1.91638 0
M  V30 5079 C 468.659 1.72392 -0.894134 0
M  V30 5080 O 467.934 1.94316 0.0846449 0
M  V30 5081 C 468.217 1.28984 -3.36207 0
M  V30 5082 C 468.07 0.239761 -4.49161 0
M  V30 5083 C 469.389 2.2109 -3.80536 0
M  V30 5084 H 466.508 0.239746 -0.696915 0
M  V30 5085 H 469.15 -0.073456 -1.89858 0
M  V30 5086 H 467.3 1.91799 -3.37854 0
M  V30 5087 H 468.972 -0.390119 -4.59647 0
M  V30 5088 H 467.215 -0.435972 -4.31604 0
M  V30 5089 H 467.886 0.717383 -5.47319 0
M  V30 5090 H 470.362 1.68273 -3.80557 0
M  V30 5091 H 469.238 2.61869 -4.82406 0
M  V30 5092 H 469.499 3.09764 -3.15434 0
M  V30 5093 N 468.558 1.5553 0.254621 0
M  V30 5094 C 469.505 1.89666 1.31512 0
M  V30 5095 C 470.475 0.750057 1.482 0
M  V30 5096 O 471.66 1.00301 1.62309 0
M  V30 5097 C 468.8 2.19009 2.667 0
M  V30 5098 C 467.913 3.46435 2.58083 0
M  V30 5099 C 467.048 3.65386 3.85573 0
M  V30 5100 C 466.087 4.8644 3.71541 0
M  V30 5101 N 465.224 5.01952 4.90906 0
M  V30 5102 H 470.064 2.80109 1.017 0
M  V30 5103 H 467.601 1.38666 0.490938 0
M  V30 5104 H 469.559 2.34025 3.45381 0
M  V30 5105 H 468.189 1.31779 2.94676 0
M  V30 5106 H 467.241 3.39792 1.71013 0
M  V30 5107 H 468.553 4.35258 2.43622 0
M  V30 5108 H 467.707 3.80319 4.72697 0
M  V30 5109 H 466.446 2.74781 4.02922 0
M  V30 5110 H 465.451 4.71491 2.82801 0
M  V30 5111 H 466.676 5.78497 3.55694 0
M  V30 5112 H 464.622 4.14283 5.08631 0
M  V30 5113 H 464.539 5.84851 4.79046 0
M  V30 5114 H 465.807 5.21289 5.7955 0
M  V30 5115 N 470.036 -0.519951 1.48776 0
M  V30 5116 C 470.966 -1.63253 1.66945 0
M  V30 5117 C 471.947 -1.62014 0.518224 0
M  V30 5118 O 473.132 -1.79053 0.751919 0
M  V30 5119 C 470.262 -3.0181 1.71836 0
M  V30 5120 C 469.216 -3.17911 2.8656 0
M  V30 5121 C 468.542 -4.5763 2.76548 0
M  V30 5122 C 469.842 -2.99729 4.27738 0
M  V30 5123 H 471.536 -1.48302 2.6009 0
M  V30 5124 H 469.082 -0.712026 1.25165 0
M  V30 5125 H 471.035 -3.79525 1.83135 0
M  V30 5126 H 469.759 -3.17806 0.752775 0
M  V30 5127 H 468.418 -2.42616 2.74833 0
M  V30 5128 H 468.066 -4.70476 1.77937 0
M  V30 5129 H 467.766 -4.69346 3.53536 0
M  V30 5130 H 469.29 -5.37431 2.89828 0
M  V30 5131 H 470.704 -3.67228 4.40246 0
M  V30 5132 H 469.101 -3.22932 5.05801 0
M  V30 5133 H 470.171 -1.96047 4.43502 0
M  V30 5134 N 471.514 -1.37532 -0.769588 0
M  V30 5135 C 472.464 -1.29984 -1.87318 0
M  V30 5136 C 473.448 -0.187242 -1.59807 0
M  V30 5137 O 474.64 -0.421827 -1.719 0
M  V30 5138 C 471.769 -1.11126 -3.24817 0
M  V30 5139 C 470.855 -2.26939 -3.58273 0
M  V30 5140 N 471.246 -3.52336 -3.62895 0
M  V30 5141 C 469.544 -2.19141 -3.8845 0
M  V30 5142 C 470.245 -4.28719 -3.9316 0
M  V30 5143 N 469.221 -3.57884 -4.0917 0
M  V30 5144 H 473.023 -2.24946 -1.89147 0
M  V30 5145 H 470.537 -1.30535 -0.966143 0
M  V30 5146 H 472.534 -1.03803 -4.0377 0
M  V30 5147 H 471.194 -0.17083 -3.2425 0
M  V30 5148 H 472.205 -3.86216 -3.45048 0
M  V30 5149 H 468.882 -1.33167 -3.95693 0
M  V30 5150 H 470.272 -5.37254 -4.03494 0
M  V30 5151 N 472.992 0.995999 -1.22138 0
M  V30 5152 C 474.408 1.25917 -0.980667 0
M  V30 5153 C 474.608 1.98819 0.327604 0
M  V30 5154 O 473.664 2.29587 1.05101 0
M  V30 5155 C 474.977 2.07399 -2.17729 0
M  V30 5156 C 476.525 2.20594 -2.22052 0
M  V30 5157 C 477 3.05462 -3.41258 0
M  V30 5158 N 478.491 3.13049 -3.41401 0
M  V30 5159 C 479.226 3.78997 -4.30289 0
M  V30 5160 N 478.722 4.46899 -5.2939 0
M  V30 5161 N 480.515 3.75728 -4.18073 0
M  V30 5162 H 472.666 0.507158 -2.06256 0
M  V30 5163 H 474.929 0.28658 -0.903646 0
M  V30 5164 H 474.635 1.61191 -3.12586 0
M  V30 5165 H 474.509 3.08154 -2.17534 0
M  V30 5166 H 476.896 2.66017 -1.27745 0
M  V30 5167 H 476.977 1.1928 -2.26287 0
M  V30 5168 H 476.621 2.60739 -4.35864 0
M  V30 5169 H 476.551 4.06911 -3.34262 0
M  V30 5170 H 479.042 2.64721 -2.69688 0
M  V30 5171 H 479.355 4.94952 -5.935 0
M  V30 5172 H 477.7 4.45657 -5.33306 0
M  V30 5173 H 480.891 3.2184 -3.39907 0
M  V30 5174 H 481.064 4.26845 -4.87553 0
M  V30 5175 N 474.47 1.03057 1.19235 0
M  V30 5176 C 475.402 0.570932 2.21975 0
M  V30 5177 C 476.415 -0.354088 1.58903 0
M  V30 5178 O 477.604 -0.150211 1.77867 0
M  V30 5179 C 474.704 -0.187152 3.38383 0
M  V30 5180 C 473.877 0.743231 4.31039 0
M  V30 5181 C 472.936 0.0302493 5.26191 0
M  V30 5182 O 471.962 0.657371 5.65391 0
M  V30 5183 N 473.164 -1.23991 5.67104 0
M  V30 5184 H 475.929 1.45456 2.62036 0
M  V30 5185 H 473.49 0.909807 1.33918 0
M  V30 5186 H 475.482 -0.673715 3.99053 0
M  V30 5187 H 474.052 -0.972205 2.97098 0
M  V30 5188 H 473.272 1.40985 3.68126 0
M  V30 5189 H 474.56 1.3755 4.89854 0
M  V30 5190 H 473.958 -1.77011 5.37293 0
M  V30 5191 H 472.515 -1.67093 6.30018 0
M  V30 5192 N 475.948 -1.35272 0.808662 0
M  V30 5193 C 476.895 -2.29764 0.218482 0
M  V30 5194 C 477.865 -1.52911 -0.648652 0
M  V30 5195 O 479.05 -1.81341 -0.593297 0
M  V30 5196 C 476.19 -3.39388 -0.625282 0
M  V30 5197 C 475.303 -4.31202 0.262516 0
M  V30 5198 C 474.438 -5.27919 -0.589451 0
M  V30 5199 C 473.477 -6.11371 0.298617 0
M  V30 5200 N 472.614 -7.0022 -0.513443 0
M  V30 5201 H 477.454 -2.79645 1.02968 0
M  V30 5202 H 474.991 -1.37629 0.519303 0
M  V30 5203 H 476.949 -4.01615 -1.12966 0
M  V30 5204 H 475.579 -2.90777 -1.40173 0
M  V30 5205 H 474.631 -3.69962 0.885013 0
M  V30 5206 H 475.943 -4.89748 0.945971 0
M  V30 5207 H 475.097 -5.95529 -1.15888 0
M  V30 5208 H 473.836 -4.69875 -1.30647 0
M  V30 5209 H 472.841 -5.42707 0.880301 0
M  V30 5210 H 474.066 -6.71494 1.01352 0
M  V30 5211 H 472.012 -6.44662 -1.21439 0
M  V30 5212 H 471.929 -7.55917 0.111922 0
M  V30 5213 H 473.197 -7.72175 -1.06608 0
M  V30 5214 N 477.426 -0.562348 -1.47226 0
M  V30 5215 C 478.356 0.170627 -2.32876 0
M  V30 5216 C 479.337 0.903748 -1.44106 0
M  V30 5217 O 480.522 0.883206 -1.72954 0
M  V30 5218 C 477.652 1.19786 -3.25989 0
M  V30 5219 C 476.606 0.580875 -4.2404 0
M  V30 5220 C 475.932 1.71311 -5.06514 0
M  V30 5221 C 477.232 -0.468714 -5.20193 0
M  V30 5222 H 478.926 -0.544441 -2.94408 0
M  V30 5223 H 476.472 -0.263271 -1.41573 0
M  V30 5224 H 478.425 1.71884 -3.84752 0
M  V30 5225 H 477.149 1.94294 -2.62521 0
M  V30 5226 H 475.808 0.0811538 -3.6651 0
M  V30 5227 H 475.456 2.44736 -4.39447 0
M  V30 5228 H 475.156 1.30604 -5.72902 0
M  V30 5229 H 476.68 2.23725 -5.68137 0
M  V30 5230 H 478.094 -0.0336028 -5.7329 0
M  V30 5231 H 476.491 -0.794957 -5.94811 0
M  V30 5232 H 477.561 -1.36269 -4.65359 0
M  V30 5233 N 478.904 1.54736 -0.299062 0
M  V30 5234 C 479.867 2.22127 0.565012 0
M  V30 5235 C 480.867 1.20669 1.06281 0
M  V30 5236 O 482.057 1.45417 0.959145 0
M  V30 5237 C 479.189 2.90611 1.78208 0
M  V30 5238 H 480.382 2.99891 -0.0237448 0
M  V30 5239 H 477.935 1.5622 -0.0498788 0
M  V30 5240 H 478.67 2.16921 2.41072 0
M  V30 5241 H 478.455 3.64984 1.43281 0
M  V30 5242 H 479.945 3.42026 2.396 0
M  V30 5243 N 480.382 0.0267497 1.57577 0
M  V30 5244 C 481.798 -0.32962 1.56159 0
M  V30 5245 C 481.998 -1.73059 1.03213 0
M  V30 5246 O 481.054 -2.43233 0.677804 0
M  V30 5247 C 482.367 -0.18039 3.00158 0
M  V30 5248 C 483.915 -0.253334 3.11973 0
M  V30 5249 C 484.39 -0.132921 4.57807 0
M  V30 5250 N 485.881 -0.189979 4.6281 0
M  V30 5251 C 486.616 -0.120554 5.73273 0
M  V30 5252 N 486.112 -0.000180315 6.928 0
M  V30 5253 N 487.905 -0.174369 5.61829 0
M  V30 5254 H 480.056 0.942896 1.90324 0
M  V30 5255 H 482.319 0.3639 0.875375 0
M  V30 5256 H 482.025 0.784576 3.42837 0
M  V30 5257 H 481.899 -0.951565 3.65 0
M  V30 5258 H 484.286 -1.20876 2.69208 0
M  V30 5259 H 484.367 0.548177 2.49857 0
M  V30 5260 H 484.011 0.819073 5.01252 0
M  V30 5261 H 483.941 -0.953264 5.179 0
M  V30 5262 H 486.432 -0.283257 3.76837 0
M  V30 5263 H 486.745 0.0461666 7.72786 0
M  V30 5264 H 485.09 0.034569 6.94991 0
M  V30 5265 H 488.281 -0.266794 4.67339 0
M  V30 5266 H 488.454 -0.116802 6.47895 0
M  V30 5267 N 481.861 -1.55662 -0.24637 0
M  V30 5268 C 483.086 -1.81914 -0.996093 0
M  V30 5269 C 483.511 -0.603875 -1.78143 0
M  V30 5270 O 482.869 0.447091 -1.75701 0
M  V30 5271 C 482.917 -3.05908 -1.90925 0
M  V30 5272 O 482.021 -2.82861 -3.00105 0
M  V30 5273 H 481.362 -0.600481 -0.283406 0
M  V30 5274 H 483.892 -2.02848 -0.267199 0
M  V30 5275 H 483.902 -3.35356 -2.3238 0
M  V30 5276 H 482.577 -3.93999 -1.33183 0
M  V30 5277 H 481.154 -2.64583 -2.62775 0
M  V30 5278 N 483.339 0.512053 -1.4905 0
M  V30 5279 C 484.564 1.2959 -1.6193 0
M  V30 5280 C 484.989 1.85906 -0.286454 0
M  V30 5281 O 484.347 1.65312 0.744426 0
M  V30 5282 C 484.395 2.40987 -2.68249 0
M  V30 5283 O 483.499 3.44531 -2.26654 0
M  V30 5284 H 482.84 0.383053 -0.542371 0
M  V30 5285 H 485.37 0.614231 -1.95162 0
M  V30 5286 H 485.38 2.86913 -2.90078 0
M  V30 5287 H 484.055 1.99361 -3.65004 0
M  V30 5288 H 482.632 3.046 -2.15112 0
M  V30 5289 N 484.817 1.37938 0.762283 0
M  V30 5290 C 485.75 1.2884 1.88349 0
M  V30 5291 C 486.728 0.167084 1.61739 0
M  V30 5292 O 487.912 0.34292 1.85355 0
M  V30 5293 C 485.039 0.994257 3.23778 0
M  V30 5294 C 484.085 2.13376 3.69287 0
M  V30 5295 S 484.918 3.75439 3.81845 0
M  V30 5296 C 486.074 3.48195 5.20107 0
M  V30 5297 H 486.307 2.23736 1.95779 0
M  V30 5298 H 483.84 1.23672 0.924368 0
M  V30 5299 H 485.798 0.83138 4.01993 0
M  V30 5300 H 484.459 0.0626251 3.14038 0
M  V30 5301 H 483.652 1.88319 4.67495 0
M  V30 5302 H 483.254 2.25726 2.98201 0
M  V30 5303 H 485.546 3.0377 6.05583 0
M  V30 5304 H 486.489 4.45765 5.50181 0
M  V30 5305 H 486.897 2.82905 4.88493 0
M  V30 5306 N 486.295 -0.989507 1.22664 0
M  V30 5307 C 487.227 -2.0824 0.957542 0
M  V30 5308 C 488.24 -1.6267 -0.0651098 0
M  V30 5309 O 489.429 -1.77695 0.169312 0
M  V30 5310 C 486.529 -3.36298 0.419145 0
M  V30 5311 C 485.702 -4.10882 1.49982 0
M  V30 5312 C 484.761 -5.17221 0.967904 0
M  V30 5313 O 483.787 -5.44613 1.65487 0
M  V30 5314 N 484.989 -5.80124 -0.20896 0
M  V30 5315 H 487.754 -2.31904 1.89843 0
M  V30 5316 H 485.315 -1.15552 1.13399 0
M  V30 5317 H 487.307 -4.04671 0.0485451 0
M  V30 5318 H 485.877 -3.09671 -0.426937 0
M  V30 5319 H 485.097 -3.37092 2.04359 0
M  V30 5320 H 486.385 -4.57482 2.22682 0
M  V30 5321 H 485.783 -5.60244 -0.783818 0
M  V30 5322 H 484.34 -6.49715 -0.520913 0
M  V30 5323 N 487.773 -1.03688 -1.18687 0
M  V30 5324 C 488.998 -0.757819 -1.93059 0
M  V30 5325 C 489.423 0.678353 -1.75442 0
M  V30 5326 O 488.781 1.46938 -1.06203 0
M  V30 5327 C 488.829 -1.12423 -3.42627 0
M  V30 5328 O 487.933 -0.247505 -4.11657 0
M  V30 5329 H 487.274 -0.279245 -0.602427 0
M  V30 5330 H 489.804 -1.3857 -1.5053 0
M  V30 5331 H 489.814 -1.08454 -3.93322 0
M  V30 5332 H 488.489 -2.17049 -3.54771 0
M  V30 5333 H 487.066 -0.34649 -3.71287 0
M  V30 5334 N 489.251 1.34841 -0.815825 0
M  V30 5335 C 490.499 1.98107 -0.399744 0
M  V30 5336 C 490.82 1.65019 1.03894 0
M  V30 5337 O 490.09 0.937311 1.72021 0
M  V30 5338 H 488.67 0.732827 -0.144823 0
M  V30 5339 H 491.332 1.64599 -1.0437 0
M  V30 5340 H 490.428 3.07856 -0.512965 0
M  V30 5341 N 490.729 0.570148 1.46925 0
M  V30 5342 C 491.954 0.0542592 2.07329 0
M  V30 5343 C 492.379 -1.23582 1.41806 0
M  V30 5344 O 491.737 -1.74341 0.497479 0
M  V30 5345 C 491.785 -0.111175 3.60429 0
M  V30 5346 O 490.889 -1.17071 3.95434 0
M  V30 5347 H 490.23 0.0571425 0.661537 0
M  V30 5348 H 492.76 0.789516 1.88753 0
M  V30 5349 H 492.77 -0.321315 4.06733 0
M  V30 5350 H 491.445 0.831012 4.07513 0
M  V30 5351 H 490.022 -0.940029 3.60857 0
M  V30 5352 N 492.207 -1.54576 0.307264 0
M  V30 5353 C 493.432 -2.05139 -0.305379 0
M  V30 5354 C 493.857 -1.18278 -1.46259 0
M  V30 5355 O 493.215 -0.188243 -1.8032 0
M  V30 5356 C 493.263 -3.53066 -0.733283 0
M  V30 5357 O 492.367 -3.69206 -1.83741 0
M  V30 5358 H 491.708 -0.661444 -0.0582105 0
M  V30 5359 H 494.238 -1.99569 0.450931 0
M  V30 5360 H 494.248 -3.95034 -1.02039 0
M  V30 5361 H 492.923 -4.15746 0.113198 0
M  V30 5362 H 491.5 -3.39143 -1.55037 0
M  V30 5363 N 493.685 -0.035106 -1.57561 0
M  V30 5364 C 494.618 0.979673 -2.06101 0
M  V30 5365 C 495.596 1.31378 -0.958046 0
M  V30 5366 O 496.78 1.42942 -1.22881 0
M  V30 5367 C 493.907 2.29809 -2.48808 0
M  V30 5368 C 492.953 2.11817 -3.70184 0
M  V30 5369 S 493.786 1.41143 -5.16565 0
M  V30 5370 C 494.942 2.74341 -5.62572 0
M  V30 5371 H 495.175 0.566506 -2.91853 0
M  V30 5372 H 492.708 0.176744 -1.53385 0
M  V30 5373 H 494.666 3.056 -2.74078 0
M  V30 5374 H 493.327 2.68257 -1.63392 0
M  V30 5375 H 492.52 3.09299 -3.97933 0
M  V30 5376 H 492.122 1.44168 -3.45097 0
M  V30 5377 H 494.414 3.70562 -5.67177 0
M  V30 5378 H 495.357 2.51249 -6.62027 0
M  V30 5379 H 495.765 2.79863 -4.90242 0
M  V30 5380 N 495.163 1.55791 0.238111 0
M  V30 5381 C 496.388 1.8244 0.986432 0
M  V30 5382 C 496.813 0.613314 1.7782 0
M  V30 5383 O 496.171 -0.437767 1.75935 0
M  V30 5384 C 496.219 3.06917 1.893 0
M  V30 5385 O 495.323 2.84449 2.98601 0
M  V30 5386 H 494.664 0.601975 0.280218 0
M  V30 5387 H 497.194 2.02987 0.256437 0
M  V30 5388 H 497.204 3.36583 2.30598 0
M  V30 5389 H 495.879 3.947 1.31091 0
M  V30 5390 H 494.456 2.65972 2.61368 0
M  V30 5391 N 496.642 -0.504142 1.49319 0
M  V30 5392 C 497.87 -1.28256 1.62351 0
M  V30 5393 C 498.285 -1.86502 0.293682 0
M  V30 5394 O 497.642 -1.67678 -0.720449 0
M  V30 5395 C 497.693 -2.41507 2.68992 0
M  V30 5396 O 497.414 -1.85656 3.96817 0
M  V30 5397 C 498.915 -3.32929 2.927 0
M  V30 5398 H 496.135 -0.389115 0.546654 0
M  V30 5399 H 498.679 -0.605531 1.95329 0
M  V30 5400 H 496.834 -3.05046 2.38801 0
M  V30 5401 H 497.248 -2.59981 4.55533 0
M  V30 5402 H 498.722 -4.0868 3.71058 0
M  V30 5403 H 499.199 -3.89733 2.02496 0
M  V30 5404 H 499.805 -2.75158 3.24296 0
M  V30 5405 N 498.12 -1.38341 -0.754957 0
M  V30 5406 C 499.369 -1.33791 -1.5094 0
M  V30 5407 C 499.682 0.0699267 -1.95475 0
M  V30 5408 O 500.888 0.237956 -2.70455 0
M  V30 5409 C 499.344 -2.34934 -2.72643 0
M  V30 5410 C 498.952 -3.81332 -2.35138 0
M  V30 5411 C 500.696 -2.39425 -3.50536 0
M  V30 5412 C 498.603 -4.74164 -3.53444 0
M  V30 5413 H 497.533 -0.497314 -0.566741 0
M  V30 5414 H 500.184 -1.63888 -0.825403 0
M  V30 5415 H 498.566 -1.97878 -3.43017 0
M  V30 5416 H 499.74 -4.27319 -1.7244 0
M  V30 5417 H 498.055 -3.79946 -1.70382 0
M  V30 5418 H 500.652 -3.0598 -4.38498 0
M  V30 5419 H 500.995 -1.41278 -3.91594 0
M  V30 5420 H 501.528 -2.75274 -2.87174 0
M  V30 5421 H 498.267 -5.73501 -3.17453 0
M  V30 5422 H 497.787 -4.3287 -4.15191 0
M  V30 5423 H 499.466 -4.92111 -4.20043 0
M  V30 5424 N 499.598 0.982988 -1.23187 0
M  V30 5425 C 500.846 1.72052 -1.06031 0
M  V30 5426 C 501.167 1.90769 0.404019 0
M  V30 5427 O 500.437 1.47446 1.28982 0
M  V30 5428 H 499.017 0.637499 -0.389363 0
M  V30 5429 H 501.679 1.18338 -1.54862 0
M  V30 5430 H 500.775 2.7111 -1.54615 0
M  V30 5431 N 501.076 1.04316 1.18135 0
M  V30 5432 C 502.301 0.768047 1.92655 0
M  V30 5433 C 502.726 -0.66904 1.758 0
M  V30 5434 O 502.084 -1.46372 1.06981 0
M  V30 5435 C 502.132 1.14239 3.42026 0
M  V30 5436 O 501.236 0.269333 4.1152 0
M  V30 5437 H 500.577 0.282436 0.600937 0
M  V30 5438 H 503.107 1.39367 1.49793 0
M  V30 5439 H 503.117 1.10538 3.92741 0
M  V30 5440 H 501.792 2.18928 3.53615 0
M  V30 5441 H 500.369 0.366175 3.71098 0
M  V30 5442 N 502.554 -1.34406 0.822964 0
M  V30 5443 C 503.487 -2.27407 0.190124 0
M  V30 5444 C 504.465 -1.4889 -0.653486 0
M  V30 5445 O 505.649 -1.78109 -0.617216 0
M  V30 5446 C 502.776 -3.3064 -0.734477 0
M  V30 5447 C 501.822 -4.26488 0.0316099 0
M  V30 5448 S 502.655 -5.17445 1.3788 0
M  V30 5449 C 503.811 -6.24214 0.45907 0
M  V30 5450 H 504.044 -2.80733 0.978586 0
M  V30 5451 H 501.577 -1.41455 0.618866 0
M  V30 5452 H 503.535 -3.90607 -1.26238 0
M  V30 5453 H 502.196 -2.76161 -1.49646 0
M  V30 5454 H 501.389 -4.9951 -0.671285 0
M  V30 5455 H 500.991 -3.70775 0.490066 0
M  V30 5456 H 503.283 -6.76599 -0.349357 0
M  V30 5457 H 504.226 -6.98551 1.15896 0
M  V30 5458 H 504.634 -5.6448 0.0474825 0
M  V30 5459 N 504.032 -0.577932 -1.46621 0
M  V30 5460 C 504.965 0.206312 -2.27265 0
M  V30 5461 C 505.943 0.901306 -1.35334 0
M  V30 5462 O 507.127 0.916151 -1.64739 0
M  V30 5463 C 504.254 1.29563 -3.1294 0
M  V30 5464 C 503.3 0.706981 -4.206 0
M  V30 5465 S 504.133 -0.462459 -5.33499 0
M  V30 5466 C 505.289 0.628171 -6.2274 0
M  V30 5467 H 505.522 -0.477961 -2.93433 0
M  V30 5468 H 503.055 -0.364715 -1.50031 0
M  V30 5469 H 505.013 1.91935 -3.62865 0
M  V30 5470 H 503.674 1.95183 -2.46095 0
M  V30 5471 H 502.867 1.52565 -4.80354 0
M  V30 5472 H 502.469 0.159022 -3.73662 0
M  V30 5473 H 504.761 1.51506 -6.60342 0
M  V30 5474 H 505.704 0.0674961 -7.08068 0
M  V30 5475 H 506.112 0.930167 -5.56784 0
M  V30 5476 N 505.51 1.54411 -0.315457 0
M  V30 5477 C 506.735 2.05299 0.294496 0
M  V30 5478 C 507.16 1.19052 1.4563 0
M  V30 5479 O 506.518 0.197804 1.80218 0
M  V30 5480 C 506.566 3.5345 0.714549 0
M  V30 5481 O 505.67 3.70175 1.81781 0
M  V30 5482 H 505.011 0.661743 0.0547019 0
M  V30 5483 H 507.541 1.99327 -0.461508 0
M  V30 5484 H 507.551 3.9557 0.999426 0
M  V30 5485 H 506.226 4.1568 -0.135244 0
M  V30 5486 H 504.803 3.3996 1.53236 0
M  V30 5487 N 506.988 0.0434614 1.5754 0
M  V30 5488 C 508.237 -0.631454 1.91561 0
M  V30 5489 C 508.55 -1.72457 0.92292 0
M  V30 5490 O 509.756 -2.45712 1.15489 0
M  V30 5491 C 508.212 -1.17447 3.40197 0
M  V30 5492 C 507.82 -0.113867 4.47855 0
M  V30 5493 C 509.564 -1.82507 3.83264 0
M  V30 5494 C 507.471 -0.669326 5.876 0
M  V30 5495 H 506.401 -0.239629 0.714908 0
M  V30 5496 H 509.052 0.111097 1.83163 0
M  V30 5497 H 507.434 -1.96909 3.43574 0
M  V30 5498 H 508.608 0.659348 4.56058 0
M  V30 5499 H 506.923 0.438821 4.14081 0
M  V30 5500 H 509.52 -2.25047 4.85034 0
M  V30 5501 H 509.863 -2.67365 3.19095 0
M  V30 5502 H 510.396 -1.09712 3.82372 0
M  V30 5503 H 507.135 0.141449 6.55347 0
M  V30 5504 H 506.655 -1.4107 5.82974 0
M  V30 5505 H 508.334 -1.15463 6.36614 0
M  V30 5506 N 508.466 -1.55915 -0.229846 0
M  V30 5507 C 509.696 -1.82352 -0.971152 0
M  V30 5508 C 510.104 -0.619231 -1.7878 0
M  V30 5509 O 509.447 0.421597 -1.78797 0
M  V30 5510 C 509.509 -3.02399 -1.9441 0
M  V30 5511 C 509.173 -4.37739 -1.31277 0
M  V30 5512 C 510.17 -5.15074 -0.706757 0
M  V30 5513 C 507.855 -4.84454 -1.32702 0
M  V30 5514 C 509.849 -6.37281 -0.123413 0
M  V30 5515 C 507.536 -6.06605 -0.739831 0
M  V30 5516 C 508.534 -6.82858 -0.139071 0
M  V30 5517 O 508.222 -8.027 0.439007 0
M  V30 5518 H 507.954 -0.61035 -0.290601 0
M  V30 5519 H 510.508 -2.03839 -0.252746 0
M  V30 5520 H 508.738 -2.76709 -2.70128 0
M  V30 5521 H 510.427 -3.15779 -2.55026 0
M  V30 5522 H 511.193 -4.80093 -0.688131 0
M  V30 5523 H 507.072 -4.25081 -1.78402 0
M  V30 5524 H 510.616 -6.96741 0.346124 0
M  V30 5525 H 506.513 -6.4106 -0.755841 0
M  V30 5526 H 507.281 -8.17824 0.332521 0
M  V30 5527 N 509.944 0.496216 -1.49584 0
M  V30 5528 C 511.169 1.27865 -1.63295 0
M  V30 5529 C 511.594 1.85592 -0.306156 0
M  V30 5530 O 510.952 1.66092 0.726851 0
M  V30 5531 C 511 2.38128 -2.7079 0
M  V30 5532 O 510.104 3.42108 -2.30296 0
M  V30 5533 H 509.445 0.377279 -0.546403 0
M  V30 5534 H 511.975 0.593497 -1.95803 0
M  V30 5535 H 511.985 2.8382 -2.93104 0
M  V30 5536 H 510.66 1.95479 -3.67098 0
M  V30 5537 H 509.237 3.02301 -2.18331 0
M  V30 5538 N 511.423 1.38739 0.74761 0
M  V30 5539 C 512.333 1.38696 1.89211 0
M  V30 5540 C 513.349 0.283303 1.71678 0
M  V30 5541 O 514.525 0.522713 1.94498 0
M  V30 5542 C 511.59 1.21662 3.24653 0
M  V30 5543 C 510.651 2.41886 3.54669 0
M  V30 5544 C 509.884 2.25655 4.83648 0
M  V30 5545 O 510.107 1.25339 5.56459 0
M  V30 5546 O 509.041 3.14372 5.13277 0
M  V30 5547 H 512.867 2.35143 1.92202 0
M  V30 5548 H 510.452 1.19721 0.893708 0
M  V30 5549 H 512.334 1.14246 4.05618 0
M  V30 5550 H 511.009 0.283024 3.2246 0
M  V30 5551 H 509.916 2.54877 2.73841 0
M  V30 5552 H 511.249 3.33895 3.61628 0
M  V30 5553 N 512.901 -0.976442 1.23707 0
M  V30 5554 C 513.864 -2.0511 1.02287 0
M  V30 5555 C 514.864 -1.60791 -0.0167195 0
M  V30 5556 O 516.054 -1.72761 0.223408 0
M  V30 5557 C 513.186 -3.36458 0.548507 0
M  V30 5558 H 514.379 -2.25545 1.9766 0
M  V30 5559 H 511.932 -1.15042 1.05806 0
M  V30 5560 H 512.667 -3.21713 -0.408818 0
M  V30 5561 H 512.452 -3.69967 1.29874 0
M  V30 5562 H 513.942 -4.15489 0.419406 0
M  V30 5563 N 514.379 -1.04941 -1.1758 0
M  V30 5564 C 515.627 -0.756492 -1.87408 0
M  V30 5565 C 515.948 0.718478 -1.81281 0
M  V30 5566 O 515.218 1.519 -1.23706 0
M  V30 5567 H 513.798 -0.276841 -0.693807 0
M  V30 5568 H 516.46 -1.32803 -1.42652 0
M  V30 5569 H 515.556 -1.06918 -2.93215 0
M  V30 5570 N 515.857 1.33968 -0.830081 0
M  V30 5571 C 517.134 1.92554 -0.343858 0
M  V30 5572 C 517.514 1.7573 1.16971 0
M  V30 5573 O 516.862 1.14035 1.98011 0
M  V30 5574 C 517.072 3.40147 -0.781073 0
M  V30 5575 C 518.42 4.17299 -0.78402 0
M  V30 5576 O 519.444 3.48762 -0.724112 0
M  V30 5577 O 518.303 5.39631 -0.863739 0
M  V30 5578 H 515.397 0.821469 -0.0954827 0
M  V30 5579 H 517.943 1.42897 -0.915348 0
M  V30 5580 H 516.715 3.46225 -1.82329 0
M  V30 5581 H 516.338 3.97166 -0.18567 0
M  V30 5582 N 517.335 0.585699 1.46312 0
M  V30 5583 C 518.582 0.0724211 2.0237 0
M  V30 5584 C 518.91 -1.28868 1.45683 0
M  V30 5585 O 518.165 -1.85853 0.612945 0
M  V30 5586 C 518.464 -0.0401312 3.57377 0
M  V30 5587 C 518.13 1.25376 4.33119 0
M  V30 5588 C 516.792 1.60824 4.5353 0
M  V30 5589 C 519.144 2.10987 4.76586 0
M  V30 5590 C 516.472 2.81676 5.14661 0
M  V30 5591 C 518.824 3.31068 5.39052 0
M  V30 5592 C 517.488 3.66794 5.5769 0
M  V30 5593 H 516.758 0.0265007 0.740526 0
M  V30 5594 H 519.405 0.762935 1.75646 0
M  V30 5595 H 517.71 -0.813791 3.83255 0
M  V30 5596 H 519.407 -0.453078 3.98432 0
M  V30 5597 H 515.997 0.967808 4.1753 0
M  V30 5598 H 520.181 1.84904 4.60569 0
M  V30 5599 H 515.437 3.0949 5.27282 0
M  V30 5600 H 519.611 3.97672 5.71691 0
M  V30 5601 H 517.238 4.60529 6.04828 0
M  V30 5602 N 518.813 -1.54241 0.323641 0
M  V30 5603 C 520.061 -2.00174 -0.278359 0
M  V30 5604 C 520.382 -1.2134 -1.52648 0
M  V30 5605 O 519.652 -0.315244 -1.93347 0
M  V30 5606 H 518.232 -0.739463 -0.105845 0
M  V30 5607 H 520.894 -1.89864 0.440204 0
M  V30 5608 H 519.99 -3.07486 -0.5347 0
M  V30 5609 N 520.291 -0.0518155 -1.57515 0
M  V30 5610 C 521.239 0.940195 -2.12751 0
M  V30 5611 C 522.233 1.3218 -1.05948 0
M  V30 5612 O 523.439 1.30138 -1.24355 0
M  V30 5613 H 519.814 0.321066 -0.680015 0
M  V30 5614 H 521.785 0.449217 -2.94999 0
M  V30 5615 C 520.534 2.2055 -2.68799 0
M  V30 5616 H 519.857 1.92066 -3.50643 0
M  V30 5617 H 521.297 2.88119 -3.11068 0
M  V30 5618 C 519.756 2.95061 -1.62605 0
M  V30 5619 O 520.286 3.88025 -1.03921 0
M  V30 5620 N 518.492 2.57804 -1.34111 0
M  V30 5621 H 518.039 1.82281 -1.8202 0
M  V30 5622 H 517.997 3.07964 -0.632872 0
M  V30 5623 N 521.769 1.56035 0.221574 0
M  V30 5624 C 523.018 1.78245 0.944016 0
M  V30 5625 C 523.331 0.620371 1.85501 0
M  V30 5626 O 524.537 0.726103 2.6161 0
M  V30 5627 C 522.993 3.15659 1.7288 0
M  V30 5628 C 522.601 4.39591 0.863942 0
M  V30 5629 C 524.345 3.47195 2.44246 0
M  V30 5630 C 522.252 5.6803 1.64607 0
M  V30 5631 H 521.182 0.664547 0.356222 0
M  V30 5632 H 523.833 1.8243 0.197904 0
M  V30 5633 H 522.215 3.0565 2.51781 0
M  V30 5634 H 523.389 4.60655 0.115464 0
M  V30 5635 H 521.704 4.15572 0.262407 0
M  V30 5636 H 524.301 4.40381 3.03263 0
M  V30 5637 H 524.644 2.69693 3.1713 0
M  V30 5638 H 525.177 3.58533 1.72334 0
M  V30 5639 H 521.916 6.48425 0.960507 0
M  V30 5640 H 521.436 5.51027 2.36917 0
M  V30 5641 H 523.115 6.08203 2.20675 0
M  V30 5642 N 523.247 -0.488276 1.49845 0
M  V30 5643 C 524.494 -1.24157 1.59973 0
M  V30 5644 C 524.822 -1.92293 0.292182 0
M  V30 5645 O 524.077 -1.81942 -0.720813 0
M  V30 5646 C 524.376 -2.32152 2.71735 0
M  V30 5647 C 524.042 -1.81387 4.12807 0
M  V30 5648 C 522.704 -1.67262 4.51195 0
M  V30 5649 C 525.056 -1.43537 5.01045 0
M  V30 5650 C 522.384 -1.13685 5.7558 0
M  V30 5651 C 524.736 -0.914081 6.25961 0
M  V30 5652 C 523.4 -0.759327 6.63167 0
M  V30 5653 H 522.67 -0.454322 0.585383 0
M  V30 5654 H 525.317 -0.540261 1.83721 0
M  V30 5655 H 523.622 -3.08122 2.42008 0
M  V30 5656 H 525.319 -2.90164 2.76778 0
M  V30 5657 H 521.909 -1.93344 3.82513 0
M  V30 5658 H 526.093 -1.53292 4.72033 0
M  V30 5659 H 521.349 -1.00426 6.03096 0
M  V30 5660 H 525.523 -0.612066 6.93705 0
M  V30 5661 H 523.15 -0.342002 7.5943 0
M  V30 5662 N 524.725 -1.39134 -0.740242 0
M  V30 5663 C 525.971 -1.36273 -1.50192 0
M  V30 5664 C 526.304 0.0430136 -1.94152 0
M  V30 5665 O 525.579 1.00691 -1.66408 0
M  V30 5666 C 525.862 -2.33041 -2.74525 0
M  V30 5667 C 525.715 -3.82535 -2.36617 0
M  V30 5668 C 527.034 -2.27723 -3.76604 0
M  V30 5669 H 524.153 -0.496323 -0.544823 0
M  V30 5670 H 526.795 -1.70085 -0.846815 0
M  V30 5671 H 524.945 -2.04337 -3.30422 0
M  V30 5672 H 526.617 -4.21967 -1.86391 0
M  V30 5673 H 524.86 -3.99565 -1.68909 0
M  V30 5674 H 525.531 -4.45723 -3.2563 0
M  V30 5675 H 528.007 -2.53091 -3.30279 0
M  V30 5676 H 526.883 -2.97519 -4.61274 0
M  V30 5677 H 527.144 -1.28049 -4.2315 0
M  V30 5678 N 526.204 0.969867 -1.24223 0
M  V30 5679 C 527.432 1.74756 -1.10761 0
M  V30 5680 C 527.847 1.85713 0.340041 0
M  V30 5681 O 527.204 1.34389 1.23474 0
M  V30 5682 C 527.255 3.16915 -1.73917 0
M  V30 5683 O 526.976 3.06511 -3.13021 0
M  V30 5684 C 528.477 4.11032 -1.66036 0
M  V30 5685 H 525.697 0.548092 -0.387087 0
M  V30 5686 H 528.241 1.2178 -1.64286 0
M  V30 5687 H 526.396 3.66884 -1.244 0
M  V30 5688 H 526.81 3.96079 -3.43834 0
M  V30 5689 H 528.284 5.08446 -2.14911 0
M  V30 5690 H 528.761 4.34785 -0.621159 0
M  V30 5691 H 529.367 3.66972 -2.14969 0
M  V30 5692 N 527.682 1.05563 1.17022 0
M  V30 5693 C 528.93 0.76642 1.87004 0
M  V30 5694 C 529.251 -0.708854 1.8166 0
M  V30 5695 O 528.521 -1.51242 1.2451 0
M  V30 5696 H 527.101 0.280516 0.692329 0
M  V30 5697 H 529.763 1.33557 1.41945 0
M  V30 5698 H 528.859 1.08472 2.92644 0
M  V30 5699 N 529.16 -1.33526 0.837174 0
M  V30 5700 C 530.576 -1.50727 0.524743 0
M  V30 5701 C 530.776 -1.77792 -0.948279 0
M  V30 5702 O 529.832 -1.83719 -1.73216 0
M  V30 5703 C 531.145 -2.66299 1.39661 0
M  V30 5704 C 532.693 -2.80183 1.39521 0
M  V30 5705 C 533.168 -3.98815 2.25189 0
M  V30 5706 N 534.659 -4.06047 2.2289 0
M  V30 5707 C 535.394 -4.97032 2.85915 0
M  V30 5708 N 534.89 -5.93143 3.57985 0
M  V30 5709 N 536.683 -4.90015 2.75394 0
M  V30 5710 H 528.834 -1.1422 1.79074 0
M  V30 5711 H 531.097 -0.561399 0.763894 0
M  V30 5712 H 530.803 -2.52974 2.4433 0
M  V30 5713 H 530.677 -3.61663 1.07145 0
M  V30 5714 H 533.064 -2.92942 0.356253 0
M  V30 5715 H 533.145 -1.85586 1.76044 0
M  V30 5716 H 532.789 -3.86817 3.29143 0
M  V30 5717 H 532.719 -4.92654 1.86009 0
M  V30 5718 H 535.21 -3.37262 1.70478 0
M  V30 5719 H 535.523 -6.59227 4.03286 0
M  V30 5720 H 533.868 -5.93223 3.62093 0
M  V30 5721 H 537.059 -4.13894 2.18654 0
M  V30 5722 H 537.232 -5.60724 3.24796 0
M  V30 5723 N 530.638 -0.59345 -1.46 0
M  V30 5724 C 531.887 -0.0808084 -2.01538 0
M  V30 5725 C 532.2 1.29112 -1.46934 0
M  V30 5726 O 533.406 1.8957 -1.94359 0
M  V30 5727 C 531.862 -0.0938311 -3.59778 0
M  V30 5728 C 531.47 -1.46474 -4.23379 0
M  V30 5729 C 533.214 0.364306 -4.22934 0
M  V30 5730 C 531.121 -1.4349 -5.73729 0
M  V30 5731 H 530.051 -0.0264407 -0.753536 0
M  V30 5732 H 532.702 -0.746689 -1.67621 0
M  V30 5733 H 531.084 0.638427 -3.9082 0
M  V30 5734 H 532.258 -2.21758 -4.03931 0
M  V30 5735 H 530.573 -1.86379 -3.7236 0
M  V30 5736 H 533.17 0.405584 -5.3316 0
M  V30 5737 H 533.513 1.38409 -3.92618 0
M  V30 5738 H 534.046 -0.31423 -3.96557 0
M  V30 5739 H 530.785 -2.43184 -6.08722 0
M  V30 5740 H 530.305 -0.724431 -5.95409 0
M  V30 5741 H 531.984 -1.15243 -6.36654 0
M  V30 5742 N 532.116 1.54067 -0.331816 0
M  V30 5743 C 533.079 2.23275 0.517768 0
M  V30 5744 C 534.079 1.22897 1.03697 0
M  V30 5745 O 535.269 1.47419 0.928084 0
M  V30 5746 C 532.401 2.94326 1.72004 0
M  V30 5747 H 533.594 2.99773 -0.0873507 0
M  V30 5748 H 531.147 1.56079 -0.0830042 0
M  V30 5749 H 531.882 2.21986 2.36417 0
M  V30 5750 H 531.667 3.67941 1.35507 0
M  V30 5751 H 533.157 3.47031 2.32291 0
M  V30 5752 N 533.594 0.0601682 1.57485 0
M  V30 5753 C 534.841 -0.611594 1.93043 0
M  V30 5754 C 535.169 -1.70317 0.939274 0
M  V30 5755 O 534.424 -1.95644 -0.046996 0
M  V30 5756 C 534.723 -1.23831 3.35262 0
M  V30 5757 C 534.389 -0.274037 4.50066 0
M  V30 5758 C 533.051 -0.00872394 4.81199 0
M  V30 5759 C 535.403 0.386308 5.19766 0
M  V30 5760 C 532.731 0.924218 5.79375 0
M  V30 5761 C 535.083 1.3075 6.1894 0
M  V30 5762 C 533.747 1.58139 6.48497 0
M  V30 5763 H 533.017 -0.223798 0.706396 0
M  V30 5764 H 535.664 0.128566 1.91068 0
M  V30 5765 H 533.969 -2.05394 3.33647 0
M  V30 5766 H 535.666 -1.76517 3.60059 0
M  V30 5767 H 532.256 -0.491008 4.25778 0
M  V30 5768 H 536.44 0.194436 4.95919 0
M  V30 5769 H 531.696 1.1438 6.00606 0
M  V30 5770 H 535.87 1.82519 6.72056 0
M  V30 5771 H 533.497 2.30593 7.24383 0
M  V30 5772 N 535.072 -1.5615 -0.213296 0
M  V30 5773 C 536.297 -1.83986 -0.957282 0
M  V30 5774 C 536.722 -0.641526 -1.76822 0
M  V30 5775 O 536.08 0.409722 -1.7661 0
M  V30 5776 C 536.128 -3.09889 -1.84393 0
M  V30 5777 O 535.232 -2.89163 -2.94038 0
M  V30 5778 H 534.573 -0.606357 -0.270605 0
M  V30 5779 H 537.103 -2.03369 -0.224111 0
M  V30 5780 H 537.113 -3.40209 -2.25215 0
M  V30 5781 H 535.788 -3.96735 -1.24795 0
M  V30 5782 H 534.365 -2.70097 -2.57103 0
M  V30 5783 N 536.55 0.480323 -1.50102 0
M  V30 5784 C 537.48 1.58769 -1.71215 0
M  V30 5785 C 538.461 1.60583 -0.560997 0
M  V30 5786 O 539.646 1.76996 -0.799127 0
M  V30 5787 C 536.776 2.97148 -1.79778 0
M  V30 5788 C 535.73 3.10201 -2.94888 0
M  V30 5789 C 535.056 4.50137 -2.88584 0
M  V30 5790 C 536.356 2.88283 -4.35534 0
M  V30 5791 H 538.05 1.41354 -2.6393 0
M  V30 5792 H 535.596 0.678591 -1.27008 0
M  V30 5793 H 537.549 3.74536 -1.93133 0
M  V30 5794 H 536.273 3.15699 -0.836772 0
M  V30 5795 H 534.932 2.35244 -2.81169 0
M  V30 5796 H 534.58 4.65593 -1.90349 0
M  V30 5797 H 534.28 4.59808 -3.65856 0
M  V30 5798 H 535.804 5.29558 -3.03976 0
M  V30 5799 H 537.218 3.55427 -4.49827 0
M  V30 5800 H 535.615 3.09408 -5.14186 0
M  V30 5801 H 536.685 1.84219 -4.48544 0
M  V30 5802 N 538.028 1.39524 0.732853 0
M  V30 5803 C 538.975 1.38416 1.84688 0
M  V30 5804 C 539.945 0.243539 1.64305 0
M  V30 5805 O 541.13 0.438979 1.85681 0
M  V30 5806 C 538.27 1.23555 3.22224 0
M  V30 5807 C 537.383 2.47179 3.54298 0
M  V30 5808 C 536.518 2.2489 4.81246 0
M  V30 5809 C 535.557 3.44178 5.0617 0
M  V30 5810 N 534.694 3.21192 6.24323 0
M  V30 5811 H 539.534 2.33645 1.84971 0
M  V30 5812 H 537.071 1.16059 0.903804 0
M  V30 5813 H 539.029 1.12949 4.0162 0
M  V30 5814 H 537.659 0.31954 3.21215 0
M  V30 5815 H 536.711 2.68379 2.69587 0
M  V30 5816 H 538.023 3.36022 3.68633 0
M  V30 5817 H 537.177 2.11538 5.68627 0
M  V30 5818 H 535.916 1.33443 4.69089 0
M  V30 5819 H 534.921 3.58025 4.17251 0
M  V30 5820 H 536.146 4.36528 5.20212 0
M  V30 5821 H 534.092 2.32413 6.1345 0
M  V30 5822 H 534.009 4.03594 6.39256 0
M  V30 5823 H 535.277 3.1154 7.14537 0
M  V30 5824 N 539.506 -0.963266 1.24736 0
M  V30 5825 C 540.736 -1.73913 1.11524 0
M  V30 5826 C 541.144 -1.86218 -0.334612 0
M  V30 5827 O 540.487 -1.3531 -1.24245 0
M  V30 5828 C 540.549 -3.17501 1.68622 0
M  V30 5829 C 540.213 -3.28655 3.17546 0
M  V30 5830 C 541.21 -3.13637 4.14642 0
M  V30 5831 C 538.895 -3.52753 3.5759 0
M  V30 5832 C 540.889 -3.2255 5.49764 0
M  V30 5833 C 538.576 -3.61303 4.92852 0
M  V30 5834 C 539.574 -3.46214 5.88748 0
M  V30 5835 O 539.262 -3.5443 7.2155 0
M  V30 5836 H 538.994 -0.552057 0.390139 0
M  V30 5837 H 541.548 -1.2177 1.65412 0
M  V30 5838 H 539.778 -3.70969 1.09172 0
M  V30 5839 H 541.467 -3.76914 1.50635 0
M  V30 5840 H 542.233 -2.94899 3.85045 0
M  V30 5841 H 538.112 -3.63561 2.83451 0
M  V30 5842 H 541.656 -3.1069 6.24594 0
M  V30 5843 H 537.553 -3.79556 5.22118 0
M  V30 5844 H 538.321 -3.71116 7.29531 0
M  V30 5845 N 540.985 -1.06182 -1.16461 0
M  V30 5846 C 541.895 -0.682671 -2.24448 0
M  V30 5847 C 542.911 0.30078 -1.71381 0
M  V30 5848 O 544.087 0.150376 -2.00838 0
M  V30 5849 C 541.152 -0.0737202 -3.46622 0
M  V30 5850 C 540.213 -1.10889 -4.14731 0
M  V30 5851 C 539.446 -0.528908 -5.31073 0
M  V30 5852 O 539.669 0.65868 -5.66584 0
M  V30 5853 O 538.603 -1.26805 -5.88391 0
M  V30 5854 H 542.429 -1.58291 -2.59187 0
M  V30 5855 H 540.014 -0.834013 -1.23954 0
M  V30 5856 H 541.896 0.264192 -4.20571 0
M  V30 5857 H 540.571 0.800015 -3.13658 0
M  V30 5858 H 539.478 -1.49896 -3.42756 0
M  V30 5859 H 540.811 -1.95412 -4.51747 0
M  V30 5860 N 542.463 1.3308 -0.844243 0
M  V30 5861 C 543.395 2.27954 -0.238671 0
M  V30 5862 C 544.408 1.51978 0.583665 0
M  V30 5863 O 545.597 1.73731 0.409857 0
M  V30 5864 C 542.697 3.31963 0.682185 0
M  V30 5865 C 541.87 4.37281 -0.101998 0
M  V30 5866 C 540.929 5.20928 0.743022 0
M  V30 5867 O 539.955 5.68914 0.180285 0
M  V30 5868 N 541.157 5.42738 2.0595 0
M  V30 5869 H 543.922 2.8056 -1.05386 0
M  V30 5870 H 541.483 1.4583 -0.70322 0
M  V30 5871 H 543.475 3.84828 1.25259 0
M  V30 5872 H 542.045 2.79594 1.39808 0
M  V30 5873 H 541.265 3.84843 -0.853802 0
M  V30 5874 H 542.553 5.04746 -0.641015 0
M  V30 5875 H 541.951 5.05463 2.54016 0
M  V30 5876 H 540.508 5.98639 2.57827 0
M  V30 5877 N 543.941 0.601185 1.45683 0
M  V30 5878 C 544.873 -0.159446 2.28645 0
M  V30 5879 C 545.886 -0.837882 1.39583 0
M  V30 5880 O 547.075 -0.704344 1.64016 0
M  V30 5881 C 544.175 -1.24641 3.15147 0
M  V30 5882 C 543.348 -0.656334 4.32448 0
M  V30 5883 C 542.407 -1.63337 5.00208 0
M  V30 5884 O 541.433 -1.16217 5.57209 0
M  V30 5885 N 542.635 -2.96773 4.98905 0
M  V30 5886 H 545.4 0.5524 2.94565 0
M  V30 5887 H 542.961 0.440223 1.558 0
M  V30 5888 H 544.953 -1.8997 3.57342 0
M  V30 5889 H 543.523 -1.86087 2.51178 0
M  V30 5890 H 542.743 0.174879 3.93812 0
M  V30 5891 H 544.031 -0.242211 5.08223 0
M  V30 5892 H 543.429 -3.37662 4.53873 0
M  V30 5893 H 541.986 -3.57541 5.44984 0
M  V30 5894 N 545.419 -1.53889 0.339982 0
M  V30 5895 C 546.647 -2.05271 -0.259114 0
M  V30 5896 C 547.062 -1.21517 -1.44496 0
M  V30 5897 O 546.419 -0.24966 -1.80784 0
M  V30 5898 C 546.47 -3.55092 -0.677634 0
M  V30 5899 O 546.191 -4.35667 0.461051 0
M  V30 5900 C 547.692 -4.22631 -1.33782 0
M  V30 5901 H 544.912 -0.669085 -0.0506566 0
M  V30 5902 H 547.456 -1.9852 0.490935 0
M  V30 5903 H 545.611 -3.62077 -1.37763 0
M  V30 5904 H 546.025 -5.24343 0.128144 0
M  V30 5905 H 547.499 -5.28861 -1.58145 0
M  V30 5906 H 547.976 -3.74758 -2.29027 0
M  V30 5907 H 548.582 -4.19829 -0.679957 0
M  V30 5908 N 546.897 -0.0685191 -1.57451 0
M  V30 5909 C 547.829 0.929372 -2.09512 0
M  V30 5910 C 548.842 1.26354 -1.02657 0
M  V30 5911 O 550.031 1.2213 -1.30179 0
M  V30 5912 C 547.131 2.24612 -2.53777 0
M  V30 5913 C 546.304 2.09128 -3.84167 0
M  V30 5914 C 545.363 3.24079 -4.14559 0
M  V30 5915 O 544.389 2.99215 -4.8421 0
M  V30 5916 N 545.591 4.49077 -3.67845 0
M  V30 5917 H 548.356 0.484901 -2.95751 0
M  V30 5918 H 545.917 0.11729 -1.61475 0
M  V30 5919 H 547.909 3.00412 -2.71172 0
M  V30 5920 H 546.479 2.60569 -1.72692 0
M  V30 5921 H 545.699 1.17815 -3.76182 0
M  V30 5922 H 546.987 1.9603 -4.69521 0
M  V30 5923 H 546.385 4.72165 -3.11571 0
M  V30 5924 H 544.942 5.21915 -3.90446 0
M  V30 5925 N 548.375 1.56261 0.205012 0
M  V30 5926 C 549.6 1.84491 0.947512 0
M  V30 5927 C 550.025 0.650894 1.76479 0
M  V30 5928 O 549.383 -0.40035 1.76824 0
M  V30 5929 C 549.431 3.10863 1.82747 0
M  V30 5930 O 548.535 2.90719 2.925 0
M  V30 5931 H 547.876 0.607783 0.267386 0
M  V30 5932 H 550.406 2.03485 0.213323 0
M  V30 5933 H 550.416 3.41399 2.23407 0
M  V30 5934 H 549.091 3.97392 1.2269 0
M  V30 5935 H 547.668 2.71457 2.55667 0
M  V30 5936 N 549.853 -0.472356 1.50355 0
M  V30 5937 C 550.783 -1.57859 1.72055 0
M  V30 5938 C 551.764 -1.60283 0.569505 0
M  V30 5939 O 552.949 -1.7657 0.808503 0
M  V30 5940 C 550.079 -2.96191 1.81351 0
M  V30 5941 C 549.033 -3.08633 2.96529 0
M  V30 5942 C 548.359 -4.486 2.90968 0
M  V30 5943 C 549.659 -2.85969 4.37057 0
M  V30 5944 H 551.353 -1.39953 2.64676 0
M  V30 5945 H 548.899 -0.671846 1.27367 0
M  V30 5946 H 550.852 -3.73507 1.95117 0
M  V30 5947 H 549.576 -3.15251 0.853502 0
M  V30 5948 H 548.235 -2.33749 2.82413 0
M  V30 5949 H 547.883 -4.64577 1.92815 0
M  V30 5950 H 547.583 -4.57861 3.68289 0
M  V30 5951 H 549.107 -5.27938 3.0678 0
M  V30 5952 H 550.521 -3.53036 4.51706 0
M  V30 5953 H 548.918 -3.06677 5.15819 0
M  V30 5954 H 549.988 -1.81838 4.49514 0
M  V30 5955 N 551.331 -1.39911 -0.725443 0
M  V30 5956 C 552.577 -1.37858 -1.48738 0
M  V30 5957 C 552.91 0.0224187 -1.94187 0
M  V30 5958 O 552.185 0.989204 -1.67466 0
M  V30 5959 C 552.468 -2.3594 -2.72038 0
M  V30 5960 C 552.321 -3.85023 -2.32546 0
M  V30 5961 C 553.64 -2.31704 -3.74167 0
M  V30 5962 H 550.759 -0.502074 -0.539528 0
M  V30 5963 H 553.401 -1.70974 -0.828728 0
M  V30 5964 H 551.551 -2.0783 -3.28236 0
M  V30 5965 H 553.223 -4.2392 -1.81905 0
M  V30 5966 H 551.466 -4.01334 -1.64661 0
M  V30 5967 H 552.137 -4.49152 -3.20884 0
M  V30 5968 H 554.613 -2.5658 -3.27576 0
M  V30 5969 H 553.489 -3.02395 -4.58092 0
M  V30 5970 H 553.75 -1.3253 -4.21768 0
M  V30 5971 N 552.809 0.956637 -1.25245 0
M  V30 5972 C 554.055 1.70352 -1.10036 0
M  V30 5973 C 554.388 1.90869 0.358156 0
M  V30 5974 O 553.663 1.47819 1.26411 0
M  V30 5975 C 553.946 3.08766 -1.85298 0
M  V30 5976 C 553.799 2.95672 -3.38966 0
M  V30 5977 C 555.118 4.08622 -1.63451 0
M  V30 5978 H 552.237 0.618279 -0.401123 0
M  V30 5979 H 554.879 1.11212 -1.54051 0
M  V30 5980 H 553.029 3.59252 -1.47887 0
M  V30 5981 H 554.701 2.52527 -3.86041 0
M  V30 5982 H 552.944 2.31634 -3.6678 0
M  V30 5983 H 553.615 3.93776 -3.86839 0
M  V30 5984 H 556.091 3.67038 -1.96015 0
M  V30 5985 H 554.967 5.03514 -2.18551 0
M  V30 5986 H 555.228 4.3834 -0.575357 0
M  V30 5987 N 554.287 1.06798 1.15896 0
M  V30 5988 C 555.237 0.653213 2.18443 0
M  V30 5989 C 556.221 -0.318763 1.57711 0
M  V30 5990 O 557.413 -0.133388 1.76497 0
M  V30 5991 C 554.542 0.0465785 3.43268 0
M  V30 5992 C 553.628 1.04336 4.11066 0
M  V30 5993 N 554.019 2.22084 4.54436 0
M  V30 5994 C 552.317 0.875433 4.37324 0
M  V30 5995 C 553.018 2.85276 5.06944 0
M  V30 5996 N 551.994 2.12973 5.00143 0
M  V30 5997 H 555.796 1.55011 2.49698 0
M  V30 5998 H 553.31 0.940384 1.32403 0
M  V30 5999 H 555.307 -0.26843 4.16035 0
M  V30 6000 H 553.967 -0.845504 3.13499 0
M  V30 6001 H 554.978 2.59833 4.48004 0
M  V30 6002 H 551.655 0.0357721 4.17485 0
M  V30 6003 H 553.045 3.85223 5.50503 0
M  V30 6004 N 555.766 -1.3263 0.851289 0
M  V30 6005 C 557.012 -1.9766 0.453694 0
M  V30 6006 C 557.345 -1.67225 -0.987396 0
M  V30 6007 O 556.62 -0.958693 -1.69232 0
M  V30 6008 C 556.903 -3.5344 0.68936 0
M  V30 6009 C 556.756 -3.93517 2.17862 0
M  V30 6010 C 558.075 -4.39866 0.143555 0
M  V30 6011 H 555.194 -0.717989 0.166314 0
M  V30 6012 H 557.836 -1.57068 1.06909 0
M  V30 6013 H 555.986 -3.88147 0.165546 0
M  V30 6014 H 557.658 -3.69006 2.76826 0
M  V30 6015 H 555.901 -3.42798 2.65841 0
M  V30 6016 H 556.572 -5.02065 2.29422 0
M  V30 6017 H 559.048 -4.11875 0.591451 0
M  V30 6018 H 557.924 -5.47858 0.338043 0
M  V30 6019 H 558.185 -4.31696 -0.953466 0
M  V30 6020 N 557.244 -0.608902 -1.45362 0
M  V30 6021 C 558.191 0.109172 -2.30542 0
M  V30 6022 C 559.161 0.858704 -1.42181 0
M  V30 6023 O 560.346 0.844178 -1.71109 0
M  V30 6024 C 557.486 1.09971 -3.27109 0
M  V30 6025 C 556.599 0.350911 -4.30572 0
M  V30 6026 C 555.734 1.33129 -5.14247 0
M  V30 6027 C 554.773 0.570377 -6.09437 0
M  V30 6028 N 553.91 1.5001 -6.85887 0
M  V30 6029 H 558.75 -0.623195 -2.91411 0
M  V30 6030 H 556.287 -0.319122 -1.43597 0
M  V30 6031 H 558.245 1.68714 -3.81564 0
M  V30 6032 H 556.875 1.79947 -2.67991 0
M  V30 6033 H 555.927 -0.352054 -3.78767 0
M  V30 6034 H 557.239 -0.242725 -4.98209 0
M  V30 6035 H 556.393 1.99074 -5.73109 0
M  V30 6036 H 555.132 1.95885 -4.46632 0
M  V30 6037 H 554.137 -0.102702 -5.49704 0
M  V30 6038 H 555.362 -0.0521607 -6.7908 0
M  V30 6039 H 553.308 2.11529 -6.2096 0
M  V30 6040 H 553.225 0.959934 -7.49881 0
M  V30 6041 H 554.493 2.14909 -7.49289 0
M  V30 6042 N 558.722 1.53707 -0.348139 0
M  V30 6043 C 559.632 2.28881 0.514857 0
M  V30 6044 C 560.648 1.34168 1.10793 0
M  V30 6045 O 561.824 1.6721 1.12262 0
M  V30 6046 C 558.889 3.05042 1.64774 0
M  V30 6047 C 557.95 4.15389 1.08398 0
M  V30 6048 C 557.183 4.87909 2.16287 0
M  V30 6049 O 557.406 4.60137 3.3709 0
M  V30 6050 O 556.34 5.74254 1.80323 0
M  V30 6051 H 560.166 3.03547 -0.0963699 0
M  V30 6052 H 557.751 1.48972 -0.113043 0
M  V30 6053 H 559.633 3.52656 2.30677 0
M  V30 6054 H 558.308 2.33228 2.24469 0
M  V30 6055 H 557.215 3.72068 0.389341 0
M  V30 6056 H 558.548 4.89318 0.531829 0
M  V30 6057 N 560.2 0.0768682 1.57412 0
M  V30 6058 C 561.44 -0.594676 1.95558 0
M  V30 6059 C 561.804 -1.66469 0.956658 0
M  V30 6060 O 563.005 -2.39215 1.22595 0
M  V30 6061 C 561.276 -1.15206 3.38323 0
M  V30 6062 S 562.835 -1.83803 3.9845 0
M  V30 6063 H 559.653 -0.194579 0.683857 0
M  V30 6064 H 562.255 0.151933 1.94909 0
M  V30 6065 H 560.959 -0.36153 4.08805 0
M  V30 6066 H 560.49 -1.93491 3.42527 0
M  V30 6067 H 562.505 -3.12087 3.85767 0
M  V30 6068 N 561.678 -1.56367 -0.196722 0
M  V30 6069 C 562.628 -1.9082 -1.24787 0
M  V30 6070 C 563.612 -0.773719 -1.41076 0
M  V30 6071 O 564.804 -1.03655 -1.43474 0
M  V30 6072 C 561.933 -2.24982 -2.59303 0
M  V30 6073 C 561.019 -3.44882 -2.46814 0
M  V30 6074 N 561.41 -4.62835 -2.04003 0
M  V30 6075 C 559.708 -3.48988 -2.77711 0
M  V30 6076 C 560.409 -5.44993 -2.03366 0
M  V30 6077 N 559.385 -4.85356 -2.44807 0
M  V30 6078 H 563.187 -2.79516 -0.908175 0
M  V30 6079 H 560.701 -1.57265 -0.405166 0
M  V30 6080 H 562.698 -2.47848 -3.35227 0
M  V30 6081 H 561.358 -1.37611 -2.94098 0
M  V30 6082 H 562.369 -4.87532 -1.74738 0
M  V30 6083 H 559.046 -2.72029 -3.16712 0
M  V30 6084 H 560.436 -6.49464 -1.72181 0
M  V30 6085 N 563.156 0.464375 -1.50603 0
M  V30 6086 C 564.088 1.57916 -1.66118 0
M  V30 6087 C 565.101 1.53497 -0.54246 0
M  V30 6088 O 566.29 1.58763 -0.815877 0
M  V30 6089 C 563.39 2.96809 -1.63577 0
M  V30 6090 C 562.563 3.26026 -2.91592 0
M  V30 6091 C 561.622 4.44506 -2.81604 0
M  V30 6092 O 560.648 4.44484 -3.55559 0
M  V30 6093 N 561.85 5.46549 -1.95614 0
M  V30 6094 H 564.615 1.45022 -2.62276 0
M  V30 6095 H 562.176 0.652903 -1.48151 0
M  V30 6096 H 564.168 3.74048 -1.54499 0
M  V30 6097 H 562.738 3.03438 -0.751262 0
M  V30 6098 H 561.958 2.37337 -3.14746 0
M  V30 6099 H 563.246 3.42361 -3.76386 0
M  V30 6100 H 562.644 5.49391 -1.34854 0
M  V30 6101 H 561.201 6.22746 -1.92435 0
M  V30 6102 N 564.634 1.40294 0.718013 0
M  V30 6103 C 565.564 1.43118 1.84498 0
M  V30 6104 C 566.545 0.292403 1.67568 0
M  V30 6105 O 567.73 0.500675 1.87635 0
M  V30 6106 C 564.86 1.29065 3.22427 0
M  V30 6107 C 563.814 2.40521 3.54025 0
M  V30 6108 C 563.14 2.11546 4.91073 0
M  V30 6109 C 564.44 3.82859 3.55269 0
M  V30 6110 H 566.134 2.37432 1.82391 0
M  V30 6111 H 563.68 1.14283 0.87609 0
M  V30 6112 H 565.633 1.29658 4.00957 0
M  V30 6113 H 564.357 0.312271 3.25104 0
M  V30 6114 H 563.016 2.39173 2.77834 0
M  V30 6115 H 562.664 1.12104 4.90348 0
M  V30 6116 H 562.364 2.86216 5.1318 0
M  V30 6117 H 563.888 2.13817 5.71939 0
M  V30 6118 H 565.302 3.86044 4.23843 0
M  V30 6119 H 563.699 4.57029 3.88902 0
M  V30 6120 H 564.769 4.12617 2.54706 0
M  V30 6121 N 566.112 -0.949982 1.2575 0
M  V30 6122 C 567.075 -2.02894 1.06615 0
M  V30 6123 C 568.075 -1.60791 0.0173905 0
M  V30 6124 O 569.265 -1.72249 0.260003 0
M  V30 6125 C 566.397 -3.35219 0.619751 0
M  V30 6126 H 567.59 -2.21302 2.02399 0
M  V30 6127 H 565.143 -1.12772 1.08223 0
M  V30 6128 H 565.878 -3.22508 -0.340486 0
M  V30 6129 H 565.663 -3.67129 1.37692 0
M  V30 6130 H 567.153 -4.14505 0.507443 0
M  V30 6131 N 567.59 -1.07411 -1.15328 0
M  V30 6132 C 568.82 -0.817595 -1.89734 0
M  V30 6133 C 569.228 0.63297 -1.78298 0
M  V30 6134 O 568.571 1.44594 -1.13306 0
M  V30 6135 C 568.633 -1.14748 -3.40695 0
M  V30 6136 C 568.297 -2.59876 -3.75917 0
M  V30 6137 C 569.294 -3.58122 -3.76888 0
M  V30 6138 C 566.979 -2.95469 -4.06206 0
M  V30 6139 C 568.973 -4.89996 -4.07655 0
M  V30 6140 C 566.66 -4.2754 -4.36638 0
M  V30 6141 C 567.658 -5.24614 -4.37344 0
M  V30 6142 O 567.346 -6.54312 -4.67045 0
M  V30 6143 H 567.078 -0.295175 -0.608151 0
M  V30 6144 H 569.632 -1.43409 -1.47048 0
M  V30 6145 H 567.862 -0.47395 -3.83785 0
M  V30 6146 H 569.551 -0.873397 -3.96392 0
M  V30 6147 H 570.317 -3.31966 -3.53587 0
M  V30 6148 H 566.196 -2.20558 -4.04815 0
M  V30 6149 H 569.74 -5.65759 -4.08121 0
M  V30 6150 H 565.637 -4.53449 -4.59407 0
M  V30 6151 H 566.405 -6.59473 -4.84807 0
M  V30 6152 N 569.068 1.32177 -0.85831 0
M  V30 6153 C 570.031 2.27086 -0.310588 0
M  V30 6154 C 571.031 1.51751 0.531806 0
M  V30 6155 O 572.221 1.70794 0.34279 0
M  V30 6156 C 569.353 3.36266 0.560179 0
M  V30 6157 H 570.546 2.77045 -1.1483 0
M  V30 6158 H 568.099 1.42911 -0.632942 0
M  V30 6159 H 568.834 2.9158 1.41956 0
M  V30 6160 H 568.619 3.92077 -0.0428473 0
M  V30 6161 H 570.109 4.06974 0.936056 0
M  V30 6162 N 570.547 0.616602 1.45037 0
M  V30 6163 C 571.824 0.0469086 1.95544 0
M  V30 6164 C 572.204 -1.42345 1.55888 0
M  V30 6165 O 571.552 -2.13055 0.825824 0
M  V30 6166 C 571.762 0.254489 3.48071 0
M  V30 6167 C 573.11 0.140025 4.24369 0
M  V30 6168 O 574.134 0.185084 3.55719 0
M  V30 6169 O 572.993 0.0327034 5.4649 0
M  V30 6170 H 570.087 -0.0306051 0.826433 0
M  V30 6171 H 572.633 0.687293 1.55159 0
M  V30 6172 H 571.405 1.27532 3.69934 0
M  V30 6173 H 571.028 -0.42073 3.95368 0
M  V30 6174 N 572.025 -1.5352 0.356285 0
M  V30 6175 C 572.935 -2.29151 -0.502712 0
M  V30 6176 C 573.951 -1.34753 -1.1008 0
M  V30 6177 O 575.127 -1.67803 -1.11374 0
M  V30 6178 C 572.192 -3.05911 -1.63154 0
M  V30 6179 C 571.253 -4.15958 -1.06194 0
M  V30 6180 C 570.486 -4.8905 -2.13696 0
M  V30 6181 O 570.709 -4.61919 -3.34645 0
M  V30 6182 O 569.643 -5.75202 -1.77275 0
M  V30 6183 H 573.469 -3.03492 0.112466 0
M  V30 6184 H 571.054 -1.4891 0.120942 0
M  V30 6185 H 572.936 -3.53874 -2.28804 0
M  V30 6186 H 571.611 -2.34415 -2.23229 0
M  V30 6187 H 570.518 -3.7227 -0.369603 0
M  V30 6188 H 571.851 -4.89593 -0.505872 0
M  V30 6189 N 573.503 -0.0852151 -1.57369 0
M  V30 6190 C 574.466 0.8627 -2.12344 0
M  V30 6191 C 575.466 1.21746 -1.05046 0
M  V30 6192 O 576.656 1.14852 -1.30976 0
M  V30 6193 C 573.788 2.1618 -2.63589 0
M  V30 6194 H 574.981 0.385511 -2.97412 0
M  V30 6195 H 572.534 0.163663 -1.55441 0
M  V30 6196 H 573.269 2.68406 -1.82013 0
M  V30 6197 H 573.054 1.91723 -3.4203 0
M  V30 6198 H 574.544 2.84011 -3.06149 0
M  V30 6199 N 574.981 1.5647 0.188427 0
M  V30 6200 C 575.928 1.95073 1.23349 0
M  V30 6201 C 576.898 0.812238 1.44886 0
M  V30 6202 O 578.083 1.07095 1.57909 0
M  V30 6203 C 575.223 2.30124 2.57171 0
M  V30 6204 C 574.336 3.57069 2.43157 0
M  V30 6205 C 573.471 3.81411 3.69729 0
M  V30 6206 C 572.51 5.0176 3.50575 0
M  V30 6207 N 571.647 5.22321 4.69175 0
M  V30 6208 H 576.487 2.84171 0.89728 0
M  V30 6209 H 574.024 1.40623 0.431683 0
M  V30 6210 H 575.982 2.48463 3.35145 0
M  V30 6211 H 574.612 1.44159 2.88822 0
M  V30 6212 H 573.664 3.4674 1.56447 0
M  V30 6213 H 574.976 4.452 2.24942 0
M  V30 6214 H 574.13 4.00026 4.56141 0
M  V30 6215 H 572.869 2.91624 3.90905 0
M  V30 6216 H 571.874 4.83061 2.62549 0
M  V30 6217 H 573.099 5.93063 3.30837 0
M  V30 6218 H 571.045 4.35483 4.90602 0
M  V30 6219 H 570.962 6.04643 4.53809 0
M  V30 6220 H 572.23 5.45401 5.56919 0
M  V30 6221 N 576.459 -0.456382 1.50847 0
M  V30 6222 C 577.406 -1.55249 1.70782 0
M  V30 6223 C 578.376 -1.56757 0.549231 0
M  V30 6224 O 579.561 -1.74061 0.7815 0
M  V30 6225 C 576.701 -2.93118 1.82143 0
M  V30 6226 C 575.814 -3.01285 3.09598 0
M  V30 6227 C 574.949 -4.30159 3.11667 0
M  V30 6228 C 573.988 -4.32124 4.33515 0
M  V30 6229 N 573.125 -5.52492 4.3324 0
M  V30 6230 H 577.965 -1.37555 2.64353 0
M  V30 6231 H 575.502 -0.668543 1.3103 0
M  V30 6232 H 577.46 -3.73088 1.86711 0
M  V30 6233 H 576.09 -3.09413 0.919978 0
M  V30 6234 H 575.142 -2.14096 3.14431 0
M  V30 6235 H 576.454 -2.98597 3.99551 0
M  V30 6236 H 575.608 -5.18489 3.15046 0
M  V30 6237 H 574.347 -4.35477 2.1957 0
M  V30 6238 H 573.352 -3.42189 4.30333 0
M  V30 6239 H 574.577 -4.28485 5.26856 0
M  V30 6240 H 572.523 -5.58567 3.44004 0
M  V30 6241 H 572.44 -5.51605 5.16979 0
M  V30 6242 H 573.708 -6.42906 4.40786 0
M  V30 6243 N 577.937 -1.40673 -0.710563 0
M  V30 6244 C 579.353 -1.22813 -1.01928 0
M  V30 6245 C 579.553 -0.10687 -2.01216 0
M  V30 6246 O 578.609 0.533614 -2.46797 0
M  V30 6247 C 579.922 -2.57178 -1.5582 0
M  V30 6248 C 581.47 -2.64233 -1.67779 0
M  V30 6249 C 581.945 -3.98879 -2.25076 0
M  V30 6250 N 583.436 -4.00647 -2.32456 0
M  V30 6251 C 584.171 -5.01621 -2.77784 0
M  V30 6252 N 583.667 -6.12989 -3.22826 0
M  V30 6253 N 585.46 -4.88988 -2.77213 0
M  V30 6254 H 577.611 -2.12335 -0.05253 0
M  V30 6255 H 579.874 -0.9441 -0.085898 0
M  V30 6256 H 579.58 -3.39903 -0.903249 0
M  V30 6257 H 579.454 -2.78618 -2.54267 0
M  V30 6258 H 581.841 -1.81876 -2.3239 0
M  V30 6259 H 581.922 -2.46619 -0.679178 0
M  V30 6260 H 581.566 -4.81678 -1.61086 0
M  V30 6261 H 581.496 -4.13826 -3.25661 0
M  V30 6262 H 583.987 -3.20231 -2.0065 0
M  V30 6263 H 584.3 -6.85921 -3.55995 0
M  V30 6264 H 582.645 -6.16547 -3.20773 0
M  V30 6265 H 585.836 -4.01075 -2.41363 0
M  V30 6266 H 586.009 -5.67822 -3.12221 0
M  V30 6267 N 579.415 0.9433 -1.26252 0
M  V30 6268 C 580.64 1.72898 -1.14547 0
M  V30 6269 C 581.065 1.85761 0.295743 0
M  V30 6270 O 580.423 1.3463 1.21427 0
M  V30 6271 C 580.471 3.11471 -1.8171 0
M  V30 6272 O 579.575 3.97336 -1.10445 0
M  V30 6273 H 578.916 0.530555 -0.399259 0
M  V30 6274 H 581.446 1.18159 -1.67032 0
M  V30 6275 H 581.456 3.61872 -1.88449 0
M  V30 6276 H 580.131 3.01425 -2.86558 0
M  V30 6277 H 578.708 3.55788 -1.11666 0
M  V30 6278 N 580.893 1.08022 1.14757 0
M  V30 6279 C 581.841 0.701088 2.21783 0
M  V30 6280 C 582.835 -0.291311 1.66876 0
M  V30 6281 O 584.041 -0.154296 1.79337 0
M  V30 6282 H 580.416 0.208668 0.722469 0
M  V30 6283 H 582.387 1.61321 2.51034 0
M  V30 6284 C 581.136 0.122278 3.47485 0
M  V30 6285 H 580.459 0.877065 3.90061 0
M  V30 6286 H 581.899 -0.105248 4.23869 0
M  V30 6287 C 580.358 -1.13883 3.17068 0
M  V30 6288 O 580.888 -2.22429 3.34497 0
M  V30 6289 N 579.094 -1.04767 2.71058 0
M  V30 6290 H 578.641 -0.164302 2.57075 0
M  V30 6291 H 578.599 -1.89224 2.51081 0
M  V30 6292 N 582.371 -1.3172 0.865308 0
M  V30 6293 C 583.782 -1.79104 0.527126 0
M  V30 6294 C 584.133 -1.7135 -0.955695 0
M  V30 6295 O 583.258 -1.27845 -1.74598 0
M  V30 6296 C 583.853 -3.25207 0.950061 0
M  V30 6297 C 582.412 -3.70504 0.663611 0
M  V30 6298 C 581.559 -2.52605 1.14395 0
M  V30 6299 H 584.51 -1.18868 1.05148 0
M  V30 6300 H 584.531 -3.79535 0.270805 0
M  V30 6301 H 584.043 -3.30818 2.02931 0
M  V30 6302 H 582.144 -3.70398 -0.404474 0
M  V30 6303 H 582.257 -4.62845 1.23737 0
M  V30 6304 H 580.621 -2.4838 0.563859 0
M  V30 6305 H 581.404 -2.60964 2.23053 0
M  V30 6306 N 583.85 -0.624285 -1.44708 0
M  V30 6307 C 585.08 -0.132726 -2.06173 0
M  V30 6308 C 585.488 1.19513 -1.46674 0
M  V30 6309 O 584.831 1.74254 -0.581491 0
M  V30 6310 C 584.893 0.0636732 -3.59444 0
M  V30 6311 C 584.557 -1.18496 -4.4137 0
M  V30 6312 C 585.553 -2.10706 -4.75288 0
M  V30 6313 C 583.239 -1.41846 -4.81856 0
M  V30 6314 C 585.233 -3.24582 -5.48567 0
M  V30 6315 C 582.92 -2.5602 -5.54885 0
M  V30 6316 C 583.918 -3.47215 -5.88159 0
M  V30 6317 O 583.606 -4.59399 -6.59703 0
M  V30 6318 H 583.338 -0.0737313 -0.671967 0
M  V30 6319 H 585.892 -0.856789 -1.86677 0
M  V30 6320 H 584.122 0.842809 -3.77404 0
M  V30 6321 H 585.811 0.508924 -4.02697 0
M  V30 6322 H 586.577 -1.93898 -4.44554 0
M  V30 6323 H 582.456 -0.717556 -4.55381 0
M  V30 6324 H 586 -3.95785 -5.74456 0
M  V30 6325 H 581.897 -2.72774 -5.85034 0
M  V30 6326 H 582.665 -4.58293 -6.78166 0
M  V30 6327 N 585.328 1.53329 -0.364422 0
M  V30 6328 C 586.574 2.01537 0.225969 0
M  V30 6329 C 586.907 1.25128 1.48515 0
M  V30 6330 O 586.182 0.344653 1.91422 0
M  V30 6331 C 586.465 3.56339 0.519092 0
M  V30 6332 C 586.318 4.43441 -0.753639 0
M  V30 6333 C 587.637 4.19833 1.32015 0
M  V30 6334 H 584.756 0.732573 0.0806548 0
M  V30 6335 H 587.398 1.83597 -0.489084 0
M  V30 6336 H 585.548 3.71756 1.12825 0
M  V30 6337 H 587.22 4.39823 -1.39116 0
M  V30 6338 H 585.463 4.11457 -1.37424 0
M  V30 6339 H 586.134 5.49699 -0.503517 0
M  V30 6340 H 588.61 4.08242 0.804859 0
M  V30 6341 H 587.486 5.28177 1.49399 0
M  V30 6342 H 587.747 3.75821 2.32832 0
M  V30 6343 N 586.806 0.0935595 1.57322 0
M  V30 6344 C 587.753 -0.865935 2.1394 0
M  V30 6345 C 588.723 -1.28083 1.05754 0
M  V30 6346 O 589.908 -1.36285 1.33533 0
M  V30 6347 C 587.048 -2.12023 2.72287 0
M  V30 6348 C 586.161 -1.756 3.94701 0
M  V30 6349 C 585.296 -2.95804 4.41218 0
M  V30 6350 C 584.335 -2.555 5.56225 0
M  V30 6351 N 583.472 -3.68534 5.97601 0
M  V30 6352 H 588.312 -0.376261 2.95615 0
M  V30 6353 H 585.849 -0.174052 1.46067 0
M  V30 6354 H 587.807 -2.85477 3.04235 0
M  V30 6355 H 586.437 -2.58492 1.93343 0
M  V30 6356 H 585.489 -0.921208 3.69077 0
M  V30 6357 H 586.801 -1.41964 4.78171 0
M  V30 6358 H 585.955 -3.77513 4.74941 0
M  V30 6359 H 584.694 -3.32649 3.56645 0
M  V30 6360 H 583.699 -1.72218 5.22131 0
M  V30 6361 H 584.924 -2.19801 6.42545 0
M  V30 6362 H 582.87 -4.051 5.15974 0
M  V30 6363 H 582.787 -3.38737 6.75865 0
M  V30 6364 H 584.055 -4.50757 6.35955 0
M  V30 6365 N 588.284 -1.56567 -0.180126 0
M  V30 6366 C 589.512 -1.85618 -0.913972 0
M  V30 6367 C 589.927 -0.677892 -1.7621 0
M  V30 6368 O 589.284 0.353171 -1.7905 0
M  V30 6369 C 589.335 -3.13619 -1.79793 0
M  V30 6370 O 589.056 -4.26906 -0.98402 0
M  V30 6371 C 590.557 -3.55954 -2.64219 0
M  V30 6372 H 587.777 -0.616043 -0.265954 0
M  V30 6373 H 590.321 -2.03681 -0.182872 0
M  V30 6374 H 588.476 -2.97409 -2.48247 0
M  V30 6375 H 588.89 -4.9989 -1.58776 0
M  V30 6376 H 590.364 -4.48444 -3.21873 0
M  V30 6377 H 590.841 -2.79653 -3.38661 0
M  V30 6378 H 591.447 -3.74746 -2.01111 0
M  V30 6379 N 589.762 0.448376 -1.51087 0
M  V30 6380 C 590.992 1.21965 -1.66757 0
M  V30 6381 C 591.4 1.85748 -0.359753 0
M  V30 6382 O 590.743 1.71022 0.670604 0
M  V30 6383 C 590.805 2.35284 -2.71812 0
M  V30 6384 C 590.469 1.91957 -4.1473 0
M  V30 6385 C 591.466 1.42921 -4.9987 0
M  V30 6386 C 589.151 1.99985 -4.60772 0
M  V30 6387 C 591.145 1.02485 -6.29107 0
M  V30 6388 C 588.832 1.5916 -5.90009 0
M  V30 6389 C 589.83 1.10491 -6.74004 0
M  V30 6390 O 589.518 0.702413 -8.00825 0
M  V30 6391 H 589.25 0.374125 -0.563034 0
M  V30 6392 H 591.804 0.538927 -1.98204 0
M  V30 6393 H 590.034 3.06599 -2.35657 0
M  V30 6394 H 591.723 2.97184 -2.76472 0
M  V30 6395 H 592.489 1.36123 -4.65506 0
M  V30 6396 H 588.368 2.36814 -3.95525 0
M  V30 6397 H 591.912 0.644271 -6.94619 0
M  V30 6398 H 587.809 1.65626 -6.2389 0
M  V30 6399 H 588.577 0.829248 -8.14288 0
M  V30 6400 N 591.24 1.41047 0.703093 0
M  V30 6401 C 592.17 1.45067 1.82969 0
M  V30 6402 C 593.151 0.31016 1.67248 0
M  V30 6403 O 594.336 0.520548 1.87093 0
M  V30 6404 C 591.466 1.32478 3.2104 0
M  V30 6405 C 590.42 2.44262 3.51454 0
M  V30 6406 C 589.746 2.16742 4.88801 0
M  V30 6407 C 591.046 3.86606 3.51189 0
M  V30 6408 H 592.74 2.39353 1.79863 0
M  V30 6409 H 590.286 1.15206 0.863919 0
M  V30 6410 H 592.239 1.33904 3.99559 0
M  V30 6411 H 590.963 0.346735 3.24754 0
M  V30 6412 H 589.622 2.42107 2.75282 0
M  V30 6413 H 589.27 1.17299 4.89132 0
M  V30 6414 H 588.97 2.91643 5.10116 0
M  V30 6415 H 590.494 2.19872 5.69639 0
M  V30 6416 H 591.908 3.90517 4.19725 0
M  V30 6417 H 590.305 4.61128 3.84033 0
M  V30 6418 H 591.375 4.15296 2.50315 0
M  V30 6419 N 592.718 -0.936591 1.26751 0
M  V30 6420 C 593.648 -2.05315 1.11212 0
M  V30 6421 C 594.629 -1.70092 0.0160262 0
M  V30 6422 O 595.814 -1.93279 0.188894 0
M  V30 6423 C 592.944 -3.39123 0.749171 0
M  V30 6424 C 591.898 -3.88425 1.79751 0
M  V30 6425 C 591.224 -5.18936 1.28876 0
M  V30 6426 C 592.524 -4.12798 3.19992 0
M  V30 6427 H 594.218 -2.18573 2.04613 0
M  V30 6428 H 591.764 -1.05027 0.985159 0
M  V30 6429 H 593.717 -4.16704 0.627323 0
M  V30 6430 H 592.441 -3.25855 -0.220543 0
M  V30 6431 H 591.1 -3.13028 1.90811 0
M  V30 6432 H 590.748 -5.02051 0.308757 0
M  V30 6433 H 590.448 -5.52892 1.98958 0
M  V30 6434 H 591.972 -5.99096 1.17967 0
M  V30 6435 H 593.386 -4.80977 3.11983 0
M  V30 6436 H 591.783 -4.58044 3.87705 0
M  V30 6437 H 592.853 -3.18412 3.65707 0
M  V30 6438 N 594.196 -1.08629 -1.14182 0
M  V30 6439 C 595.607 -0.838003 -1.66836 0
M  V30 6440 C 595.958 0.634885 -1.85644 0
M  V30 6441 O 595.083 1.49008 -1.56926 0
M  V30 6442 C 595.678 -1.51465 -3.03058 0
M  V30 6443 C 594.237 -1.31355 -3.52736 0
M  V30 6444 C 593.384 -1.57599 -2.28162 0
M  V30 6445 H 596.335 -1.24656 -0.982165 0
M  V30 6446 H 596.356 -0.943134 -3.68626 0
M  V30 6447 H 595.868 -2.58661 -2.89337 0
M  V30 6448 H 593.969 -0.262384 -3.71675 0
M  V30 6449 H 594.082 -2.04275 -4.33369 0
M  V30 6450 H 592.446 -0.997659 -2.34348 0
M  V30 6451 H 593.229 -2.66006 -2.17015 0
M  V30 6452 N 595.674 1.31259 -0.872281 0
M  V30 6453 C 596.951 1.91362 -0.404943 0
M  V30 6454 C 597.331 1.79362 1.11321 0
M  V30 6455 O 596.679 1.20277 1.94283 0
M  V30 6456 C 596.889 3.3749 -0.888893 0
M  V30 6457 C 598.237 4.14593 -0.916384 0
M  V30 6458 O 599.261 3.46282 -0.834701 0
M  V30 6459 O 598.12 5.3661 -1.03498 0
M  V30 6460 H 595.214 0.818016 -0.121569 0
M  V30 6461 H 597.76 1.39912 -0.960346 0
M  V30 6462 H 596.532 3.40249 -1.93251 0
M  V30 6463 H 596.155 3.96375 -0.311932 0
M  V30 6464 N 597.152 0.631951 1.44375 0
M  V30 6465 C 598.099 -0.0724807 2.30686 0
M  V30 6466 C 599.069 -0.835975 1.43529 0
M  V30 6467 O 600.254 -0.816849 1.7243 0
M  V30 6468 C 597.394 -1.04753 3.28817 0
M  V30 6469 C 596.507 -0.282367 4.31076 0
M  V30 6470 C 595.642 -1.2493 5.163 0
M  V30 6471 C 594.681 -0.473349 6.10267 0
M  V30 6472 N 593.818 -1.39079 6.88187 0
M  V30 6473 H 598.658 0.669477 2.90383 0
M  V30 6474 H 596.195 0.341927 1.43071 0
M  V30 6475 H 598.153 -1.62623 3.842 0
M  V30 6476 H 596.783 -1.75661 2.70819 0
M  V30 6477 H 595.835 0.412268 3.78159 0
M  V30 6478 H 597.147 0.321955 4.9776 0
M  V30 6479 H 596.301 -1.89931 5.76204 0
M  V30 6480 H 595.04 -1.88755 4.49692 0
M  V30 6481 H 594.045 0.190142 5.49471 0
M  V30 6482 H 595.27 0.16019 6.78911 0
M  V30 6483 H 593.216 -2.01623 6.24247 0
M  V30 6484 H 593.133 -0.840513 7.51313 0
M  V30 6485 H 594.401 -2.02961 7.52613 0
M  V30 6486 N 598.631 -1.53133 0.372548 0
M  V30 6487 C 599.856 -2.0625 -0.218098 0
M  V30 6488 C 600.281 -1.24375 -1.41111 0
M  V30 6489 O 599.639 -0.264554 -1.79359 0
M  V30 6490 C 599.687 -3.55858 -0.582876 0
M  V30 6491 O 598.791 -3.76667 -1.67917 0
M  V30 6492 H 598.132 -0.663317 -0.030104 0
M  V30 6493 H 600.662 -1.97477 0.535169 0
M  V30 6494 H 600.672 -3.99007 -0.851925 0
M  V30 6495 H 599.347 -4.14892 0.289428 0
M  V30 6496 H 597.924 -3.45413 -1.40513 0
M  V30 6497 N 600.109 -0.101901 -1.5727 0
M  V30 6498 C 601.525 0.254739 -1.57554 0
M  V30 6499 C 601.725 1.67937 -1.11352 0
M  V30 6500 O 600.781 2.39722 -0.793081 0
M  V30 6501 C 602.094 0.036975 -3.00677 0
M  V30 6502 C 603.642 0.104199 -3.12827 0
M  V30 6503 C 604.117 -0.0856565 -4.5792 0
M  V30 6504 N 605.608 -0.0310498 -4.6319 0
M  V30 6505 C 606.343 -0.153099 -5.73196 0
M  V30 6506 N 605.839 -0.330364 -6.92012 0
M  V30 6507 N 607.632 -0.0938854 -5.62022 0
M  V30 6508 H 599.783 -1.03263 -1.85609 0
M  V30 6509 H 602.046 -0.405251 -0.857016 0
M  V30 6510 H 601.752 -0.947254 -3.38703 0
M  V30 6511 H 601.626 0.776335 -3.69124 0
M  V30 6512 H 604.013 1.07894 -2.74669 0
M  V30 6513 H 604.094 -0.666762 -2.46957 0
M  V30 6514 H 603.738 -1.05729 -4.96773 0
M  V30 6515 H 603.668 0.705082 -5.21858 0
M  V30 6516 H 606.159 0.103141 -3.77759 0
M  V30 6517 H 606.472 -0.41482 -7.71686 0
M  V30 6518 H 604.817 -0.366119 -6.94035 0
M  V30 6519 H 608.008 0.0435168 -4.6808 0
M  V30 6520 H 608.181 -0.19245 -6.47714 0
M  V30 6521 N 601.587 1.56661 0.17182 0
M  V30 6522 C 602.519 1.92934 1.2373 0
M  V30 6523 C 603.532 0.822385 1.40502 0
M  V30 6524 O 604.721 1.10083 1.40514 0
M  V30 6525 C 601.821 2.16651 2.60607 0
M  V30 6526 C 600.994 3.47878 2.6514 0
M  V30 6527 C 600.053 3.60429 3.83377 0
M  V30 6528 O 599.079 4.33051 3.69398 0
M  V30 6529 N 600.281 2.95241 4.99813 0
M  V30 6530 H 603.046 2.84931 0.929205 0
M  V30 6531 H 600.607 1.5781 0.361588 0
M  V30 6532 H 602.599 2.22312 3.38171 0
M  V30 6533 H 601.169 1.3104 2.83809 0
M  V30 6534 H 600.389 3.53879 1.73675 0
M  V30 6535 H 601.677 4.34232 2.6518 0
M  V30 6536 H 601.075 2.3611 5.14071 0
M  V30 6537 H 599.632 3.06499 5.75241 0
M  V30 6538 N 603.065 -0.440357 1.51323 0
M  V30 6539 C 604.313 -1.18769 1.63518 0
M  V30 6540 C 604.634 -1.91793 0.352201 0
M  V30 6541 O 603.904 -1.85432 -0.631811 0
M  V30 6542 H 602.484 -0.441408 0.602634 0
M  V30 6543 H 605.146 -0.505162 1.8824 0
M  V30 6544 H 604.242 -1.91892 2.46138 0
M  V30 6545 N 604.543 -1.41418 -0.695603 0
M  V30 6546 C 605.49 -1.43264 -1.80954 0
M  V30 6547 C 606.46 -0.287016 -1.63601 0
M  V30 6548 O 607.645 -0.488054 -1.84452 0
M  V30 6549 C 604.785 -1.32054 -3.18835 0
M  V30 6550 C 603.898 -2.56485 -3.4762 0
M  V30 6551 C 603.033 -2.3757 -4.75115 0
M  V30 6552 C 602.072 -3.57477 -4.96867 0
M  V30 6553 N 601.209 -3.37632 -6.15588 0
M  V30 6554 H 606.049 -2.38467 -1.78711 0
M  V30 6555 H 603.586 -1.18415 -0.872715 0
M  V30 6556 H 605.544 -1.23558 -3.98484 0
M  V30 6557 H 604.174 -0.404592 -3.20254 0
M  V30 6558 H 603.226 -2.75432 -2.62376 0
M  V30 6559 H 604.538 -3.45678 -3.59594 0
M  V30 6560 H 603.692 -2.2654 -5.62818 0
M  V30 6561 H 602.431 -1.45834 -4.65386 0
M  V30 6562 H 601.436 -3.68961 -4.07612 0
M  V30 6563 H 602.661 -4.50167 -5.08455 0
M  V30 6564 H 600.607 -2.48596 -6.07072 0
M  V30 6565 H 600.524 -4.20401 -6.2833 0
M  V30 6566 H 601.792 -3.30375 -7.06026 0
M  V30 6567 N 606.021 0.929856 -1.27246 0
M  V30 6568 C 607.437 1.20542 -1.04603 0
M  V30 6569 C 607.637 2.00276 0.221754 0
M  V30 6570 O 606.693 2.34835 0.927833 0
M  V30 6571 C 608.006 1.95566 -2.28417 0
M  V30 6572 C 609.554 2.08513 -2.33433 0
M  V30 6573 C 610.029 2.86943 -3.5697 0
M  V30 6574 N 611.52 2.94512 -3.57515 0
M  V30 6575 C 612.255 3.55656 -4.49774 0
M  V30 6576 N 611.751 4.18209 -5.52334 0
M  V30 6577 N 613.544 3.53038 -4.37402 0
M  V30 6578 H 605.695 0.397113 -2.08655 0
M  V30 6579 H 607.958 0.238277 -0.917566 0
M  V30 6580 H 607.664 1.44395 -3.20691 0
M  V30 6581 H 607.538 2.9619 -2.33563 0
M  V30 6582 H 609.925 2.58872 -1.41666 0
M  V30 6583 H 610.006 1.07117 -2.32292 0
M  V30 6584 H 609.65 2.37268 -4.49072 0
M  V30 6585 H 609.58 3.8862 -3.55362 0
M  V30 6586 H 612.071 2.50053 -2.83341 0
M  V30 6587 H 612.384 4.62796 -6.18902 0
M  V30 6588 H 610.729 4.16761 -5.56179 0
M  V30 6589 H 613.92 3.0337 -3.56489 0
M  V30 6590 H 614.093 4.004 -5.09493 0
M  V30 6591 N 607.499 1.09233 1.13605 0
M  V30 6592 C 608.446 0.729921 2.18954 0
M  V30 6593 C 609.416 -0.287916 1.63586 0
M  V30 6594 O 610.601 -0.170003 1.90041 0
M  V30 6595 C 607.741 0.154489 3.44754 0
M  V30 6596 C 606.854 1.22613 4.14234 0
M  V30 6597 C 605.989 0.613657 5.27644 0
M  V30 6598 C 605.028 1.66674 5.8897 0
M  V30 6599 N 604.165 1.07545 6.93814 0
M  V30 6600 H 609.005 1.63257 2.49302 0
M  V30 6601 H 606.542 0.815693 1.22413 0
M  V30 6602 H 608.5 -0.196923 4.16735 0
M  V30 6603 H 607.13 -0.711433 3.14863 0
M  V30 6604 H 606.182 1.69485 3.40557 0
M  V30 6605 H 607.494 2.0238 4.55899 0
M  V30 6606 H 606.648 0.210976 6.06333 0
M  V30 6607 H 605.387 -0.215584 4.87223 0
M  V30 6608 H 604.392 2.07899 5.08978 0
M  V30 6609 H 605.617 2.49861 6.31464 0
M  V30 6610 H 603.563 0.267451 6.55455 0
M  V30 6611 H 603.48 1.81011 7.3401 0
M  V30 6612 H 604.748 0.698906 7.7636 0
M  V30 6613 N 608.977 -1.30795 0.87923 0
M  V30 6614 C 610.205 -2.00527 0.509548 0
M  V30 6615 C 610.62 -1.65944 -0.90045 0
M  V30 6616 O 609.977 -0.893525 -1.5913 0
M  V30 6617 C 610.028 -3.55276 0.667943 0
M  V30 6618 O 609.749 -3.88625 2.02242 0
M  V30 6619 C 611.25 -4.4228 0.300494 0
M  V30 6620 H 608.47 -0.641261 0.197549 0
M  V30 6621 H 611.014 -1.66813 1.18295 0
M  V30 6622 H 609.169 -3.87377 0.0419843 0
M  V30 6623 H 609.583 -4.83334 2.03688 0
M  V30 6624 H 611.057 -5.50061 0.462242 0
M  V30 6625 H 611.534 -4.32556 -0.76106 0
M  V30 6626 H 612.14 -4.15613 0.902536 0
M  V30 6627 N 610.455 -0.639598 -1.44038 0
M  V30 6628 C 611.68 -0.153117 -2.06834 0
M  V30 6629 C 612.105 1.16676 -1.47541 0
M  V30 6630 O 611.463 1.71769 -0.580093 0
M  V30 6631 C 611.511 -0.0609169 -3.60549 0
M  V30 6632 O 610.615 0.98071 -4.00569 0
M  V30 6633 H 609.956 -0.0886402 -0.658057 0
M  V30 6634 H 612.486 -0.878674 -1.84771 0
M  V30 6635 H 612.496 0.126892 -4.07803 0
M  V30 6636 H 611.171 -1.0245 -4.03084 0
M  V30 6637 H 609.748 0.766789 -3.64931 0
M  V30 6638 N 611.933 1.52934 -0.380664 0
M  V30 6639 C 613.182 2.00651 0.205477 0
M  V30 6640 C 613.495 1.27164 1.48623 0
M  V30 6641 O 614.701 1.65547 2.15189 0
M  V30 6642 C 613.157 3.57479 0.416726 0
M  V30 6643 C 612.765 4.39857 -0.850268 0
M  V30 6644 C 614.509 4.13509 0.959702 0
M  V30 6645 C 612.416 5.88269 -0.607773 0
M  V30 6646 H 611.346 0.749684 0.0805614 0
M  V30 6647 H 613.997 1.76508 -0.501732 0
M  V30 6648 H 612.379 3.77836 1.18557 0
M  V30 6649 H 613.553 4.31269 -1.62307 0
M  V30 6650 H 611.868 3.95005 -1.31756 0
M  V30 6651 H 614.465 5.22039 1.15669 0
M  V30 6652 H 614.808 3.69054 1.92626 0
M  V30 6653 H 615.341 3.9701 0.250645 0
M  V30 6654 H 612.08 6.3703 -1.54509 0
M  V30 6655 H 611.6 5.99667 0.126247 0
M  V30 6656 H 613.279 6.46558 -0.239014 0
M  V30 6657 N 613.412 0.11024 1.57214 0
M  V30 6658 C 614.359 -0.843195 2.14846 0
M  V30 6659 C 615.329 -1.26954 1.07107 0
M  V30 6660 O 616.514 -1.34861 1.34971 0
M  V30 6661 C 613.654 -2.09123 2.74521 0
M  V30 6662 C 612.767 -1.71404 3.96541 0
M  V30 6663 C 611.902 -2.91107 4.44331 0
M  V30 6664 C 610.941 -2.49586 5.58903 0
M  V30 6665 N 610.078 -3.62175 6.01477 0
M  V30 6666 H 614.918 -0.344886 2.95998 0
M  V30 6667 H 612.455 -0.15855 1.46243 0
M  V30 6668 H 614.413 -2.82234 3.07246 0
M  V30 6669 H 613.043 -2.56427 1.96074 0
M  V30 6670 H 612.095 -0.88201 3.70033 0
M  V30 6671 H 613.407 -1.36884 4.7965 0
M  V30 6672 H 612.561 -3.72454 4.78919 0
M  V30 6673 H 611.3 -3.28848 3.60153 0
M  V30 6674 H 610.305 -1.6667 5.23929 0
M  V30 6675 H 611.53 -2.12973 6.4484 0
M  V30 6676 H 609.476 -3.99605 5.20242 0
M  V30 6677 H 609.393 -3.3155 6.79419 0
M  V30 6678 H 610.661 -4.43987 6.407 0
M  V30 6679 N 614.89 -1.56749 -0.16351 0
M  V30 6680 C 616.306 -1.51043 -0.515567 0
M  V30 6681 C 616.506 -0.815855 -1.84245 0
M  V30 6682 O 615.562 -0.379477 -2.49632 0
M  V30 6683 C 616.875 -2.95791 -0.541114 0
M  V30 6684 C 618.423 -3.0664 -0.627776 0
M  V30 6685 C 618.898 -4.52861 -0.684141 0
M  V30 6686 N 620.389 -4.5714 -0.746818 0
M  V30 6687 C 621.124 -5.67634 -0.811137 0
M  V30 6688 N 620.62 -6.8774 -0.835811 0
M  V30 6689 N 622.413 -5.55624 -0.850756 0
M  V30 6690 H 614.564 -2.00307 0.70645 0
M  V30 6691 H 616.827 -0.912876 0.255659 0
M  V30 6692 H 616.533 -3.49797 0.365329 0
M  V30 6693 H 616.407 -3.50858 -1.38487 0
M  V30 6694 H 618.794 -2.52663 -1.52464 0
M  V30 6695 H 618.875 -2.54645 0.242805 0
M  V30 6696 H 618.519 -5.07472 0.2085 0
M  V30 6697 H 618.449 -5.02621 -1.57098 0
M  V30 6698 H 620.94 -3.70669 -0.735717 0
M  V30 6699 H 621.253 -7.67701 -0.886279 0
M  V30 6700 H 619.598 -6.90334 -0.803958 0
M  V30 6701 H 622.789 -4.60709 -0.828535 0
M  V30 6702 H 622.962 -6.41756 -0.897418 0
M  V30 6703 N 616.368 0.432326 -1.51554 0
M  V30 6704 C 617.645 1.19288 -1.55015 0
M  V30 6705 C 618.025 2.08701 -0.317375 0
M  V30 6706 O 617.373 2.17602 0.697243 0
M  V30 6707 C 617.583 1.99037 -2.86679 0
M  V30 6708 C 618.931 2.55907 -3.38817 0
M  V30 6709 O 619.955 2.09243 -2.88263 0
M  V30 6710 O 618.814 3.41029 -4.27038 0
M  V30 6711 H 615.908 0.543369 -0.623441 0
M  V30 6712 H 618.454 0.440988 -1.6387 0
M  V30 6713 H 617.226 1.33397 -3.6786 0
M  V30 6714 H 616.849 2.81281 -2.8101 0
M  V30 6715 N 617.846 1.41785 0.688094 0
M  V30 6716 C 619.074 1.44915 1.47673 0
M  V30 6717 C 619.489 0.0565786 1.88715 0
M  V30 6718 O 618.846 -0.92579 1.57275 0
M  V30 6719 C 618.897 2.36452 2.73446 0
M  V30 6720 O 618.618 3.7029 2.34131 0
M  V30 6721 C 620.119 2.48463 3.67125 0
M  V30 6722 H 617.339 0.493324 0.454832 0
M  V30 6723 H 619.883 1.86153 0.846594 0
M  V30 6724 H 618.038 1.98502 3.3268 0
M  V30 6725 H 618.452 4.19183 3.15255 0
M  V30 6726 H 619.926 3.16662 4.52138 0
M  V30 6727 H 620.403 1.51826 4.12123 0
M  V30 6728 H 621.009 2.8708 3.13792 0
M  V30 6729 N 619.324 -0.923095 1.27737 0
M  V30 6730 C 620.573 -1.66581 1.13727 0
M  V30 6731 C 620.886 -1.9304 -0.315433 0
M  V30 6732 O 622.092 -2.65309 -0.57651 0
M  V30 6733 C 620.548 -3.00047 1.98745 0
M  V30 6734 C 620.156 -2.8127 3.48699 0
M  V30 6735 C 621.9 -3.77887 1.93395 0
M  V30 6736 C 619.807 -4.1032 4.25901 0
M  V30 6737 H 618.737 -0.624834 0.422017 0
M  V30 6738 H 621.388 -1.02514 1.52194 0
M  V30 6739 H 619.77 -3.65197 1.53125 0
M  V30 6740 H 620.944 -2.24859 4.02213 0
M  V30 6741 H 619.259 -2.16854 3.55476 0
M  V30 6742 H 621.856 -4.73526 2.48348 0
M  V30 6743 H 622.199 -4.06264 0.908605 0
M  V30 6744 H 622.732 -3.19541 2.36935 0
M  V30 6745 H 619.471 -3.8712 5.28978 0
M  V30 6746 H 618.991 -4.66377 3.77163 0
M  V30 6747 H 620.67 -4.78648 4.35321 0
M  V30 6748 N 620.802 -1.09834 -1.13024 0
M  V30 6749 C 621.75 -0.736283 -2.20639 0
M  V30 6750 C 622.744 0.264725 -1.67319 0
M  V30 6751 O 623.95 0.125745 -1.7956 0
M  V30 6752 H 620.325 -0.220136 -0.719058 0
M  V30 6753 H 622.296 -1.65295 -2.48436 0
M  V30 6754 C 621.045 -0.177544 -3.47246 0
M  V30 6755 H 620.368 -0.939009 -3.88616 0
M  V30 6756 H 621.808 0.0378007 -4.23983 0
M  V30 6757 C 620.267 1.08824 -3.1884 0
M  V30 6758 O 620.797 2.1708 -3.37993 0
M  V30 6759 N 619.003 1.00442 -2.7269 0
M  V30 6760 H 618.55 0.123383 -2.57304 0
M  V30 6761 H 618.508 1.85206 -2.5406 0
M  V30 6762 N 622.28 1.30327 -0.886154 0
M  V30 6763 C 623.691 1.78243 -0.555554 0
M  V30 6764 C 624.042 1.72849 0.928314 0
M  V30 6765 O 623.167 1.30607 1.72542 0
M  V30 6766 C 623.762 3.23654 -1.00168 0
M  V30 6767 C 622.321 3.69401 -0.722471 0
M  V30 6768 C 621.468 2.50753 -1.18399 0
M  V30 6769 H 624.419 1.1718 -1.07026 0
M  V30 6770 H 624.44 3.79056 -0.331152 0
M  V30 6771 H 623.952 3.27548 -2.08169 0
M  V30 6772 H 622.053 3.70995 0.345496 0
M  V30 6773 H 622.166 4.60818 -1.31085 0
M  V30 6774 H 620.53 2.47452 -0.603303 0
M  V30 6775 H 621.313 2.57383 -2.27176 0
M  V30 6776 N 623.758 0.647228 1.43697 0
M  V30 6777 C 624.688 -0.0345631 2.33474 0
M  V30 6778 C 625.669 -0.818193 1.4913 0
M  V30 6779 O 626.854 -0.780867 1.77809 0
M  V30 6780 C 623.984 -1.00576 3.32418 0
M  V30 6781 C 622.938 -0.33266 4.26705 0
M  V30 6782 C 622.264 -1.41489 5.1564 0
M  V30 6783 C 623.564 0.771204 5.16575 0
M  V30 6784 H 625.258 0.715163 2.90733 0
M  V30 6785 H 622.804 0.345364 1.39797 0
M  V30 6786 H 624.757 -1.49159 3.94119 0
M  V30 6787 H 623.481 -1.78657 2.73403 0
M  V30 6788 H 622.14 0.13267 3.6636 0
M  V30 6789 H 621.788 -2.18698 4.52968 0
M  V30 6790 H 621.488 -0.969799 5.79542 0
M  V30 6791 H 623.012 -1.9022 5.80214 0
M  V30 6792 H 624.426 0.36779 5.72119 0
M  V30 6793 H 622.823 1.1404 5.89165 0
M  V30 6794 H 623.893 1.63169 4.56622 0
M  V30 6795 N 625.236 -1.5273 0.388769 0
M  V30 6796 C 626.466 -2.05693 -0.193397 0
M  V30 6797 C 626.874 -1.26038 -1.41107 0
M  V30 6798 O 626.217 -0.30001 -1.81234 0
M  V30 6799 C 626.279 -3.53962 -0.628561 0
M  V30 6800 C 625.943 -4.54519 0.475576 0
M  V30 6801 C 626.94 -5.02526 1.33281 0
M  V30 6802 C 624.625 -4.98174 0.642453 0
M  V30 6803 C 626.619 -5.92812 2.34205 0
M  V30 6804 C 624.306 -5.88262 1.65503 0
M  V30 6805 C 625.304 -6.35473 2.50325 0
M  V30 6806 O 624.992 -7.23781 3.49852 0
M  V30 6807 H 624.724 -0.675197 -0.0329395 0
M  V30 6808 H 627.278 -1.97835 0.552326 0
M  V30 6809 H 625.508 -3.59437 -1.42625 0
M  V30 6810 H 627.197 -3.89669 -1.13633 0
M  V30 6811 H 627.963 -4.6953 1.21519 0
M  V30 6812 H 623.842 -4.60999 -0.00805093 0
M  V30 6813 H 627.386 -6.29585 3.00447 0
M  V30 6814 H 623.283 -6.20672 1.77304 0
M  V30 6815 H 624.051 -7.4184 3.45855 0
M  V30 6816 N 626.714 -0.118576 -1.57153 0
M  V30 6817 C 627.991 0.583062 -1.86708 0
M  V30 6818 C 628.371 1.84841 -1.01967 0
M  V30 6819 O 627.719 2.28288 -0.0984673 0
M  V30 6820 C 627.929 0.875912 -3.3783 0
M  V30 6821 C 629.277 1.22916 -4.0642 0
M  V30 6822 O 630.301 0.966188 -3.42846 0
M  V30 6823 O 629.16 1.72269 -5.18638 0
M  V30 6824 H 626.254 0.294185 -0.772906 0
M  V30 6825 H 628.8 -0.153048 -1.69008 0
M  V30 6826 H 627.572 -0.0207776 -3.91294 0
M  V30 6827 H 627.195 1.66719 -3.60958 0
M  V30 6828 N 628.193 1.56834 0.155195 0
M  V30 6829 C 629.103 2.009 1.21146 0
M  V30 6830 C 630.119 0.923029 1.475 0
M  V30 6831 O 631.295 1.23189 1.59331 0
M  V30 6832 C 628.36 2.37378 2.52691 0
M  V30 6833 C 627.421 3.59883 2.34057 0
M  V30 6834 C 626.654 3.94612 3.59329 0
M  V30 6835 O 626.877 3.30104 4.65175 0
M  V30 6836 O 625.811 4.87895 3.52479 0
M  V30 6837 H 629.637 2.9105 0.867371 0
M  V30 6838 H 627.222 1.44916 0.363298 0
M  V30 6839 H 629.104 2.61737 3.3026 0
M  V30 6840 H 627.779 1.50385 2.86646 0
M  V30 6841 H 626.686 3.40722 1.54465 0
M  V30 6842 H 628.019 4.47468 2.0502 0
M  V30 6843 N 629.671 -0.424282 1.51781 0
M  V30 6844 C 630.899 -1.1947 1.68921 0
M  V30 6845 C 631.314 -1.84683 0.39213 0
M  V30 6846 O 630.671 -1.71261 -0.630554 0
M  V30 6847 C 630.722 -2.26909 2.81416 0
M  V30 6848 O 630.443 -1.64361 4.061 0
M  V30 6849 C 631.944 -3.16945 3.09937 0
M  V30 6850 H 629.164 -0.359591 0.566511 0
M  V30 6851 H 631.708 -0.501139 1.98265 0
M  V30 6852 H 629.863 -2.91959 2.54635 0
M  V30 6853 H 630.277 -2.35468 4.68674 0
M  V30 6854 H 631.751 -3.88437 3.922 0
M  V30 6855 H 632.228 -3.78451 2.22871 0
M  V30 6856 H 632.834 -2.57581 3.38426 0
M  V30 6857 N 631.149 -1.42148 -0.680565 0
M  V30 6858 C 632.079 -1.4796 -1.80638 0
M  V30 6859 C 633.06 -0.336728 -1.66734 0
M  V30 6860 O 634.245 -0.550247 -1.86242 0
M  V30 6861 C 631.375 -1.37569 -3.18892 0
M  V30 6862 C 630.329 -2.49823 -3.47524 0
M  V30 6863 C 629.655 -2.24491 -4.85291 0
M  V30 6864 C 630.955 -3.92144 -3.44994 0
M  V30 6865 H 632.649 -2.42184 -1.76032 0
M  V30 6866 H 630.195 -1.16566 -0.845481 0
M  V30 6867 H 632.148 -1.40243 -3.97379 0
M  V30 6868 H 630.872 -0.398357 -3.24162 0
M  V30 6869 H 629.531 -2.46455 -2.71395 0
M  V30 6870 H 629.179 -1.25066 -4.87204 0
M  V30 6871 H 628.879 -2.99722 -5.05411 0
M  V30 6872 H 630.403 -2.28906 -5.66069 0
M  V30 6873 H 631.817 -3.97145 -4.13459 0
M  V30 6874 H 630.214 -4.67179 -3.76648 0
M  V30 6875 H 631.284 -4.19225 -2.43676 0
M  V30 6876 N 632.627 0.916307 -1.28225 0
M  V30 6877 C 634.043 1.19425 -1.05876 0
M  V30 6878 C 634.243 2.005 0.2005 0
M  V30 6879 O 633.299 2.35806 0.902873 0
M  V30 6880 C 634.612 1.93133 -2.30478 0
M  V30 6881 C 636.16 2.06026 -2.35632 0
M  V30 6882 C 636.635 2.83141 -3.59994 0
M  V30 6883 N 638.126 2.90704 -3.60618 0
M  V30 6884 C 638.861 3.50865 -4.53521 0
M  V30 6885 N 638.357 4.12327 -5.56739 0
M  V30 6886 N 640.15 3.48379 -4.41122 0
M  V30 6887 H 632.301 0.37496 -2.09064 0
M  V30 6888 H 634.564 0.228531 -0.920042 0
M  V30 6889 H 634.27 1.40985 -3.22205 0
M  V30 6890 H 634.144 2.93696 -2.36691 0
M  V30 6891 H 636.531 2.57355 -1.44404 0
M  V30 6892 H 636.612 1.04647 -2.33415 0
M  V30 6893 H 636.256 2.32492 -4.51564 0
M  V30 6894 H 636.186 3.84829 -3.59464 0
M  V30 6895 H 638.677 2.47034 -2.85977 0
M  V30 6896 H 638.99 4.56205 -6.23776 0
M  V30 6897 H 637.335 4.10839 -5.60568 0
M  V30 6898 H 640.526 2.99572 -3.59686 0
M  V30 6899 H 640.699 3.94974 -5.13712 0
M  V30 6900 N 634.105 1.10431 1.1244 0
M  V30 6901 C 635.335 0.867612 1.87499 0
M  V30 6902 C 635.743 -0.585475 1.79913 0
M  V30 6903 O 635.086 -1.41539 1.171 0
M  V30 6904 C 635.148 1.2374 3.37533 0
M  V30 6905 C 634.812 2.69751 3.68895 0
M  V30 6906 C 635.809 3.67988 3.67261 0
M  V30 6907 C 633.494 3.06135 3.98229 0
M  V30 6908 C 635.488 5.00632 3.9452 0
M  V30 6909 C 633.175 4.38967 4.25149 0
M  V30 6910 C 634.173 5.36025 4.23281 0
M  V30 6911 O 633.861 6.66465 4.49533 0
M  V30 6912 H 633.593 0.311196 0.600111 0
M  V30 6913 H 636.147 1.47257 1.43194 0
M  V30 6914 H 634.377 0.575537 3.82393 0
M  V30 6915 H 636.066 0.978187 3.93937 0
M  V30 6916 H 636.832 3.41224 3.44661 0
M  V30 6917 H 632.711 2.31214 3.98825 0
M  V30 6918 H 636.255 5.7638 3.92978 0
M  V30 6919 H 632.152 4.6547 4.47223 0
M  V30 6920 H 632.92 6.72095 4.67152 0
M  V30 6921 N 635.583 -1.29855 0.893053 0
M  V30 6922 C 636.493 -2.31661 0.370157 0
M  V30 6923 C 637.509 -1.65677 -0.531723 0
M  V30 6924 O 638.685 -1.9691 -0.422902 0
M  V30 6925 C 635.75 -3.44388 -0.399741 0
M  V30 6926 C 634.811 -4.2598 0.532861 0
M  V30 6927 C 634.044 -5.33324 -0.200388 0
M  V30 6928 O 634.267 -5.52305 -1.42531 0
M  V30 6929 O 633.201 -6.00188 0.453668 0
M  V30 6930 H 637.027 -2.78354 1.2146 0
M  V30 6931 H 634.612 -1.34171 0.657153 0
M  V30 6932 H 636.494 -4.13037 -0.835358 0
M  V30 6933 H 635.169 -2.99815 -1.22035 0
M  V30 6934 H 634.076 -3.59998 1.01746 0
M  V30 6935 H 635.409 -4.74178 1.3197 0
M  V30 6936 N 637.061 -0.65484 -1.43351 0
M  V30 6937 C 638.31 -0.166215 -2.01014 0
M  V30 6938 C 638.623 1.22764 -1.52278 0
M  V30 6939 O 639.829 1.81156 -2.02224 0
M  V30 6940 C 638.285 -0.246341 -3.59056 0
M  V30 6941 C 637.893 -1.64299 -4.16785 0
M  V30 6942 C 639.637 0.184597 -4.24098 0
M  V30 6943 C 637.544 -1.67695 -5.67126 0
M  V30 6944 H 636.474 -0.0583769 -0.751737 0
M  V30 6945 H 639.125 -0.817111 -1.64303 0
M  V30 6946 H 637.507 0.472092 -3.93176 0
M  V30 6947 H 638.681 -2.3869 -3.94162 0
M  V30 6948 H 636.996 -2.02004 -3.6412 0
M  V30 6949 H 639.593 0.179088 -5.344 0
M  V30 6950 H 639.936 1.21632 -3.98135 0
M  V30 6951 H 640.469 -0.482141 -3.94867 0
M  V30 6952 H 637.208 -2.68783 -5.9786 0
M  V30 6953 H 636.728 -0.976313 -5.91801 0
M  V30 6954 H 638.407 -1.42142 -6.31193 0
M  V30 6955 N 638.539 1.52521 -0.396863 0
M  V30 6956 C 639.95 1.86547 0.0754868 0
M  V30 6957 C 640.301 1.31621 1.45501 0
M  V30 6958 O 639.426 0.650563 2.0639 0
M  V30 6959 C 640.021 3.38495 0.143754 0
M  V30 6960 C 638.58 3.72205 0.560413 0
M  V30 6961 C 637.727 2.75954 -0.272856 0
M  V30 6962 H 640.678 1.46323 -0.614434 0
M  V30 6963 H 640.699 3.68153 0.961425 0
M  V30 6964 H 640.211 3.78442 -0.860415 0
M  V30 6965 H 638.312 3.3783 1.57167 0
M  V30 6966 H 638.425 4.78074 0.313314 0
M  V30 6967 H 636.789 2.53339 0.263 0
M  V30 6968 H 637.572 3.1874 -1.27515 0
M  V30 6969 N 640.017 0.126909 1.57088 0
M  V30 6970 C 640.927 -0.833867 2.1928 0
M  V30 6971 C 641.943 -1.2868 1.17122 0
M  V30 6972 O 643.119 -1.34815 1.49622 0
M  V30 6973 C 640.184 -2.0632 2.78627 0
M  V30 6974 C 639.245 -1.66143 3.95847 0
M  V30 6975 C 638.478 -2.83217 4.52354 0
M  V30 6976 O 638.701 -3.98868 4.0775 0
M  V30 6977 O 637.635 -2.59846 5.42922 0
M  V30 6978 H 641.461 -0.334564 3.01852 0
M  V30 6979 H 639.046 -0.0991091 1.49071 0
M  V30 6980 H 640.928 -2.78304 3.16425 0
M  V30 6981 H 639.603 -2.55242 1.99082 0
M  V30 6982 H 638.51 -0.912435 3.62802 0
M  V30 6983 H 639.843 -1.21957 4.76852 0
M  V30 6984 N 641.495 -1.56914 -0.146875 0
M  V30 6985 C 642.72 -1.87881 -0.878386 0
M  V30 6986 C 643.145 -0.715945 -1.73942 0
M  V30 6987 O 642.503 0.334447 -1.78189 0
M  V30 6988 C 642.551 -3.17431 -1.71084 0
M  V30 6989 O 641.655 -3.01374 -2.81509 0
M  V30 6990 H 640.996 -0.617289 -0.244644 0
M  V30 6991 H 643.526 -2.04136 -0.137654 0
M  V30 6992 H 643.536 -3.49455 -2.10582 0
M  V30 6993 H 642.211 -4.01671 -1.07856 0
M  V30 6994 H 640.788 -2.80758 -2.45416 0
M  V30 6995 N 642.974 0.416227 -1.52004 0
M  V30 6996 C 643.904 1.51365 -1.77795 0
M  V30 6997 C 644.885 1.58059 -0.628601 0
M  V30 6998 O 646.07 1.73447 -0.873478 0
M  V30 6999 C 643.2 2.89256 -1.92219 0
M  V30 7000 C 642.154 2.97415 -3.0778 0
M  V30 7001 C 641.48 4.37492 -3.07417 0
M  V30 7002 C 642.78 2.69551 -4.47369 0
M  V30 7003 H 644.474 1.30033 -2.69688 0
M  V30 7004 H 642.02 0.624112 -1.29772 0
M  V30 7005 H 643.973 3.66008 -2.08845 0
M  V30 7006 H 642.697 3.11866 -0.969917 0
M  V30 7007 H 641.356 2.23107 -2.90893 0
M  V30 7008 H 641.004 4.571 -2.09925 0
M  V30 7009 H 640.704 4.43877 -3.85029 0
M  V30 7010 H 642.228 5.16188 -3.26162 0
M  V30 7011 H 643.642 3.36028 -4.64497 0
M  V30 7012 H 642.039 2.87321 -5.26846 0
M  V30 7013 H 643.109 1.65029 -4.55953 0
M  V30 7014 N 644.452 1.42507 0.673017 0
M  V30 7015 C 645.382 1.48916 1.79851 0
M  V30 7016 C 646.363 0.345566 1.66553 0
M  V30 7017 O 647.548 0.560116 1.85947 0
M  V30 7018 C 644.678 1.39258 3.18158 0
M  V30 7019 C 643.632 2.51662 3.46194 0
M  V30 7020 C 642.958 2.27062 4.84094 0
M  V30 7021 C 644.258 3.93968 3.42909 0
M  V30 7022 H 645.952 2.43114 1.74745 0
M  V30 7023 H 643.498 1.17013 0.839288 0
M  V30 7024 H 645.451 1.42349 3.96629 0
M  V30 7025 H 644.175 0.415542 3.23946 0
M  V30 7026 H 642.834 2.47891 2.70084 0
M  V30 7027 H 642.482 1.27648 4.86534 0
M  V30 7028 H 642.182 3.02398 5.03815 0
M  V30 7029 H 643.706 2.31905 5.64847 0
M  V30 7030 H 645.12 3.99332 4.11347 0
M  V30 7031 H 643.517 4.6917 3.74165 0
M  V30 7032 H 644.587 4.20512 2.41449 0
M  V30 7033 N 645.93 -0.909495 1.28709 0
M  V30 7034 C 646.893 -1.99399 1.13016 0
M  V30 7035 C 647.893 -1.60654 0.068536 0
M  V30 7036 O 649.083 -1.71334 0.314671 0
M  V30 7037 C 646.215 -3.33078 0.726085 0
M  V30 7038 H 647.408 -2.14751 2.09338 0
M  V30 7039 H 644.961 -1.09272 1.11756 0
M  V30 7040 H 645.696 -3.23428 -0.23771 0
M  V30 7041 H 645.481 -3.62562 1.49302 0
M  V30 7042 H 646.971 -4.12681 0.639058 0
M  V30 7043 N 647.408 -1.11026 -1.11852 0
M  V30 7044 C 648.34 -0.72249 -2.17515 0
M  V30 7045 C 649.353 0.243782 -1.60964 0
M  V30 7046 O 650.542 0.0273252 -1.78479 0
M  V30 7047 C 647.642 -0.0463979 -3.38868 0
M  V30 7048 C 646.815 -1.0384 -4.24895 0
M  V30 7049 C 645.874 -0.392659 -5.24733 0
M  V30 7050 O 644.9 -1.0453 -5.5952 0
M  V30 7051 N 646.102 0.846296 -5.74298 0
M  V30 7052 H 648.867 -1.63161 -2.51393 0
M  V30 7053 H 646.428 -0.999899 -1.27333 0
M  V30 7054 H 648.42 0.397215 -4.02746 0
M  V30 7055 H 646.99 0.765231 -3.03089 0
M  V30 7056 H 646.21 -1.6601 -3.57539 0
M  V30 7057 H 647.498 -1.70968 -4.79215 0
M  V30 7058 H 646.896 1.39578 -5.4821 0
M  V30 7059 H 645.453 1.23296 -6.40032 0
M  V30 7060 N 648.886 1.2938 -0.899927 0
M  V30 7061 C 650.302 1.48052 -0.596059 0
M  V30 7062 C 650.502 1.82114 0.862372 0
M  V30 7063 O 649.558 1.91774 1.64253 0
M  V30 7064 C 650.871 2.59332 -1.52208 0
M  V30 7065 C 652.419 2.73208 -1.5273 0
M  V30 7066 C 652.894 3.87617 -2.43961 0
M  V30 7067 N 654.385 3.9495 -2.42009 0
M  V30 7068 C 655.12 4.82824 -3.09303 0
M  V30 7069 N 654.616 5.75387 -3.85877 0
M  V30 7070 N 656.409 4.76317 -2.98459 0
M  V30 7071 H 648.56 1.05546 -1.8432 0
M  V30 7072 H 650.823 0.524314 -0.78981 0
M  V30 7073 H 650.529 2.41029 -2.56121 0
M  V30 7074 H 650.403 3.56139 -1.24278 0
M  V30 7075 H 652.79 2.90908 -0.495614 0
M  V30 7076 H 652.871 1.76975 -1.84698 0
M  V30 7077 H 652.515 3.70672 -3.47224 0
M  V30 7078 H 652.445 4.83218 -2.09303 0
M  V30 7079 H 654.936 3.28744 -1.86375 0
M  V30 7080 H 655.249 6.39235 -4.34279 0
M  V30 7081 H 653.594 5.75272 -3.89984 0
M  V30 7082 H 656.785 4.0299 -2.38152 0
M  V30 7083 H 656.958 5.44589 -3.51179 0
M  V30 7084 N 650.364 0.662433 1.43002 0
M  V30 7085 C 651.592 0.187615 2.06048 0
M  V30 7086 C 652.007 -1.15039 1.49705 0
M  V30 7087 O 651.364 -1.71209 0.631956 0
M  V30 7088 C 651.415 0.100498 3.6136 0
M  V30 7089 O 651.136 1.38562 4.15611 0
M  V30 7090 C 652.637 -0.399298 4.41498 0
M  V30 7091 H 649.857 0.0941675 0.664359 0
M  V30 7092 H 652.401 0.905681 1.83351 0
M  V30 7093 H 650.556 -0.568181 3.83211 0
M  V30 7094 H 650.97 1.25084 5.09366 0
M  V30 7095 H 652.444 -0.409187 5.50481 0
M  V30 7096 H 652.921 -1.43232 4.15188 0
M  V30 7097 H 653.527 0.23721 4.24638 0
M  V30 7098 N 651.842 -1.52309 0.404946 0
M  V30 7099 C 652.772 -2.29805 -0.41376 0
M  V30 7100 C 653.753 -1.3384 -1.0498 0
M  V30 7101 O 654.938 -1.62745 -1.05961 0
M  V30 7102 C 652.068 -3.11639 -1.53292 0
M  V30 7103 C 651.022 -4.15616 -1.02211 0
M  V30 7104 C 650.348 -4.8577 -2.23455 0
M  V30 7105 C 651.648 -5.2224 -0.0790725 0
M  V30 7106 H 653.342 -2.98493 0.232878 0
M  V30 7107 H 650.888 -1.43552 0.113441 0
M  V30 7108 H 652.841 -3.64618 -2.11262 0
M  V30 7109 H 651.565 -2.40712 -2.20738 0
M  V30 7110 H 650.224 -3.63641 -0.46484 0
M  V30 7111 H 649.872 -4.11376 -2.89445 0
M  V30 7112 H 649.572 -5.56058 -1.89929 0
M  V30 7113 H 651.096 -5.4156 -2.82038 0
M  V30 7114 H 652.51 -5.70485 -0.567438 0
M  V30 7115 H 650.907 -5.99867 0.167167 0
M  V30 7116 H 651.977 -4.77078 0.867447 0
M  V30 7117 N 653.32 -0.135238 -1.57019 0
M  V30 7118 C 654.252 0.839675 -2.13265 0
M  V30 7119 C 655.265 1.21887 -1.07923 0
M  V30 7120 O 656.454 1.16499 -1.35241 0
M  V30 7121 C 653.554 2.13647 -2.63075 0
M  V30 7122 C 652.727 1.92646 -3.92691 0
M  V30 7123 C 651.786 3.06205 -4.27931 0
M  V30 7124 O 650.812 2.78409 -4.96465 0
M  V30 7125 N 652.014 4.33072 -3.86561 0
M  V30 7126 H 654.779 0.359026 -2.97542 0
M  V30 7127 H 652.34 0.0486979 -1.61827 0
M  V30 7128 H 654.332 2.88641 -2.8367 0
M  V30 7129 H 652.902 2.5301 -1.83588 0
M  V30 7130 H 652.122 1.01754 -3.80841 0
M  V30 7131 H 653.41 1.75939 -4.77413 0
M  V30 7132 H 652.808 4.58526 -3.31316 0
M  V30 7133 H 651.365 5.04885 -4.12231 0
M  V30 7134 N 654.798 1.5699 0.138552 0
M  V30 7135 C 656.045 1.83809 0.849732 0
M  V30 7136 C 656.373 0.717409 1.80786 0
M  V30 7137 O 655.628 -0.292897 1.93496 0
M  V30 7138 C 655.927 3.17007 1.65049 0
M  V30 7139 C 655.593 4.43037 0.838398 0
M  V30 7140 C 654.255 4.77262 0.614385 0
M  V30 7141 C 656.607 5.20495 0.271044 0
M  V30 7142 C 653.935 5.864 -0.187552 0
M  V30 7143 C 656.287 6.30476 -0.517979 0
M  V30 7144 C 654.951 6.63245 -0.75249 0
M  V30 7145 H 654.221 0.672605 0.310939 0
M  V30 7146 H 656.868 1.91166 0.112971 0
M  V30 7147 H 655.173 3.05138 2.4576 0
M  V30 7148 H 656.87 3.34975 2.20437 0
M  V30 7149 H 653.46 4.16211 1.02307 0
M  V30 7150 H 657.644 4.94422 0.431371 0
M  V30 7151 H 652.9 6.10226 -0.378659 0
M  V30 7152 H 657.074 6.89686 -0.964694 0
M  V30 7153 H 654.701 7.47648 -1.37573 0
M  V30 7154 N 656.276 -0.40816 1.52223 0
M  V30 7155 C 657.501 -1.18127 1.70472 0
M  V30 7156 C 657.926 -1.83491 0.41384 0
M  V30 7157 O 657.284 -1.70047 -0.628778 0
M  V30 7158 C 657.332 -2.21935 2.84213 0
M  V30 7159 O 656.436 -3.28099 2.4985 0
M  V30 7160 H 655.777 -0.344781 0.56747 0
M  V30 7161 H 658.307 -0.478328 1.9893 0
M  V30 7162 H 658.317 -2.66248 3.09153 0
M  V30 7163 H 656.992 -1.73744 3.7787 0
M  V30 7164 H 655.569 -2.89058 2.35584 0
M  V30 7165 N 657.755 -1.42862 -0.66545 0
M  V30 7166 C 659.001 -1.44043 -1.42757 0
M  V30 7167 C 659.334 -0.0599629 -1.94107 0
M  V30 7168 O 658.609 0.917286 -1.71511 0
M  V30 7169 C 658.892 -2.47266 -2.61786 0
M  V30 7170 C 658.745 -3.94539 -2.16007 0
M  V30 7171 C 660.064 -2.47365 -3.64003 0
M  V30 7172 H 657.183 -0.524506 -0.517748 0
M  V30 7173 H 659.825 -1.74335 -0.755466 0
M  V30 7174 H 657.975 -2.21565 -3.19126 0
M  V30 7175 H 659.647 -4.31254 -1.63762 0
M  V30 7176 H 657.89 -4.07957 -1.47491 0
M  V30 7177 H 658.561 -4.62357 -3.01546 0
M  V30 7178 H 661.037 -2.70243 -3.16399 0
M  V30 7179 H 659.913 -3.21552 -4.44854 0
M  V30 7180 H 660.174 -1.50299 -4.15767 0
M  V30 7181 N 659.233 0.902656 -1.29189 0
M  V30 7182 C 660.479 1.6555 -1.18172 0
M  V30 7183 C 660.834 1.90569 0.264788 0
M  V30 7184 O 660.127 1.50292 1.1884 0
M  V30 7185 C 660.321 3.011 -1.92545 0
M  V30 7186 C 660.15 2.89312 -3.4428 0
M  V30 7187 C 658.92 2.90239 -4.1363 0
M  V30 7188 C 661.118 2.6656 -4.3983 0
M  V30 7189 N 659.1 2.69156 -5.5175 0
M  V30 7190 C 660.471 2.54429 -5.6539 0
M  V30 7191 C 662.526 2.51644 -4.29627 0
M  V30 7192 C 661.229 2.289 -6.81907 0
M  V30 7193 C 663.255 2.27498 -5.45892 0
M  V30 7194 C 662.617 2.16129 -6.70423 0
M  V30 7195 H 658.716 0.611519 -0.48741 0
M  V30 7196 H 661.3 1.06514 -1.62981 0
M  V30 7197 H 659.471 3.58202 -1.50154 0
M  V30 7198 H 661.203 3.65471 -1.73818 0
M  V30 7199 H 657.958 3.01412 -3.65305 0
M  V30 7200 H 658.382 2.61676 -6.24383 0
M  V30 7201 H 663.024 2.59178 -3.34045 0
M  V30 7202 H 660.742 2.20104 -7.77547 0
M  V30 7203 H 664.328 2.16805 -5.39895 0
M  V30 7204 H 663.208 1.97703 -7.5887 0
M  V30 7205 N 660.711 1.11618 1.11262 0
M  V30 7206 C 661.661 0.745274 2.15475 0
M  V30 7207 C 662.645 -0.251585 1.58921 0
M  V30 7208 O 663.837 -0.0584093 1.76904 0
M  V30 7209 C 660.966 0.192128 3.42762 0
M  V30 7210 C 660.052 1.21676 4.0627 0
M  V30 7211 N 660.443 2.41158 4.44608 0
M  V30 7212 C 658.741 1.06013 4.33217 0
M  V30 7213 C 659.442 3.0652 4.94389 0
M  V30 7214 N 658.418 2.33994 4.9066 0
M  V30 7215 H 662.22 1.65462 2.42898 0
M  V30 7216 H 659.734 0.995695 1.28295 0
M  V30 7217 H 661.731 -0.0917339 4.16799 0
M  V30 7218 H 660.391 -0.711778 3.16802 0
M  V30 7219 H 661.402 2.786 4.3658 0
M  V30 7220 H 658.079 0.212809 4.16957 0
M  V30 7221 H 659.469 4.08225 5.33669 0
M  V30 7222 N 662.189 -1.289 0.906776 0
M  V30 7223 C 663.139 -2.25122 0.361109 0
M  V30 7224 C 664.123 -1.52169 -0.52283 0
M  V30 7225 O 665.315 -1.73223 -0.363691 0
M  V30 7226 C 662.444 -3.40915 -0.403982 0
M  V30 7227 C 661.53 -4.21198 0.495279 0
M  V30 7228 N 661.921 -4.79636 1.60572 0
M  V30 7229 C 660.219 -4.45027 0.294372 0
M  V30 7230 C 660.92 -5.39977 2.16332 0
M  V30 7231 N 659.896 -5.23753 1.45546 0
M  V30 7232 H 663.698 -2.67869 1.20927 0
M  V30 7233 H 661.212 -1.43592 0.758632 0
M  V30 7234 H 663.209 -4.08922 -0.811695 0
M  V30 7235 H 661.869 -2.99703 -1.24932 0
M  V30 7236 H 662.88 -4.78209 1.98838 0
M  V30 7237 H 659.557 -4.14348 -0.512021 0
M  V30 7238 H 660.947 -5.96266 3.09704 0
M  V30 7239 N 663.667 -0.670007 -1.42649 0
M  V30 7240 C 664.915 -0.18991 -2.01206 0
M  V30 7241 C 665.236 1.20617 -1.53221 0
M  V30 7242 O 664.506 1.80898 -0.751856 0
M  V30 7243 H 663.086 -0.0672189 -0.743969 0
M  V30 7244 H 665.748 -0.865442 -1.74631 0
M  V30 7245 H 664.844 -0.187481 -3.11536 0
M  V30 7246 N 665.145 1.52092 -0.413018 0
M  V30 7247 C 666.561 1.59471 -0.0640836 0
M  V30 7248 C 666.761 1.42562 1.42402 0
M  V30 7249 O 665.817 1.25453 2.19129 0
M  V30 7250 C 667.13 2.95392 -0.562474 0
M  V30 7251 C 668.678 3.08637 -0.520788 0
M  V30 7252 C 669.153 4.47044 -0.995752 0
M  V30 7253 N 670.644 4.53296 -0.952732 0
M  V30 7254 C 671.379 5.58669 -1.29138 0
M  V30 7255 N 670.875 6.71576 -1.70168 0
M  V30 7256 N 672.668 5.48898 -1.2111 0
M  V30 7257 H 664.819 1.6133 -1.38153 0
M  V30 7258 H 667.082 0.75916 -0.567785 0
M  V30 7259 H 666.788 3.13059 -1.60271 0
M  V30 7260 H 666.662 3.77191 0.0257875 0
M  V30 7261 H 669.049 2.90652 0.510412 0
M  V30 7262 H 669.13 2.28735 -1.14515 0
M  V30 7263 H 668.774 4.65773 -2.0253 0
M  V30 7264 H 668.704 5.25448 -0.348162 0
M  V30 7265 H 671.195 3.72248 -0.651119 0
M  V30 7266 H 671.508 7.47973 -1.9431 0
M  V30 7267 H 669.853 6.72847 -1.74075 0
M  V30 7268 H 673.044 4.59573 -0.889396 0
M  V30 7269 H 673.217 6.30912 -1.47833 0
M  V30 7270 N 666.623 0.143563 1.56945 0
M  V30 7271 C 667.87 -0.508407 1.96014 0
M  V30 7272 C 668.198 -1.65099 1.02824 0
M  V30 7273 O 667.453 -1.95618 0.0567764 0
M  V30 7274 C 667.752 -1.05885 3.41355 0
M  V30 7275 C 667.418 -0.0350809 4.50886 0
M  V30 7276 C 666.08 0.246362 4.80569 0
M  V30 7277 C 668.432 0.661282 5.16988 0
M  V30 7278 C 665.76 1.23003 5.73661 0
M  V30 7279 C 668.112 1.63375 6.11139 0
M  V30 7280 C 666.776 1.92292 6.39203 0
M  V30 7281 H 666.046 -0.186039 0.717266 0
M  V30 7282 H 668.693 0.229667 1.90118 0
M  V30 7283 H 666.998 -1.87419 3.44066 0
M  V30 7284 H 668.695 -1.57183 3.6891 0
M  V30 7285 H 665.285 -0.264622 4.27782 0
M  V30 7286 H 669.469 0.457038 4.94191 0
M  V30 7287 H 664.725 1.46056 5.93698 0
M  V30 7288 H 668.899 2.17887 6.61436 0
M  V30 7289 H 666.526 2.68666 7.11142 0
M  V30 7290 N 668.101 -1.57061 -0.130224 0
M  V30 7291 C 669.349 -1.83893 -0.838313 0
M  V30 7292 C 669.67 -0.727046 -1.80939 0
M  V30 7293 O 668.94 0.249927 -1.94299 0
M  V30 7294 H 667.52 -0.67846 -0.312573 0
M  V30 7295 H 670.182 -1.94529 -0.120224 0
M  V30 7296 H 669.278 -2.79419 -1.39038 0
M  V30 7297 N 669.579 0.400081 -1.52437 0
M  V30 7298 C 670.995 0.739359 -1.41441 0
M  V30 7299 C 671.195 1.94512 -0.526053 0
M  V30 7300 O 670.251 2.525 0.00472502 0
M  V30 7301 C 671.564 0.984824 -2.84116 0
M  V30 7302 C 673.112 1.08698 -2.93519 0
M  V30 7303 C 673.587 1.36515 -4.37181 0
M  V30 7304 N 675.078 1.43361 -4.40457 0
M  V30 7305 C 675.813 1.66528 -5.48686 0
M  V30 7306 N 675.309 1.87239 -6.67018 0
M  V30 7307 N 677.102 1.68617 -5.36213 0
M  V30 7308 H 669.253 -0.393484 -2.08723 0
M  V30 7309 H 671.516 -0.1138 -0.941145 0
M  V30 7310 H 671.222 0.171096 -3.51284 0
M  V30 7311 H 671.096 1.90253 -3.25705 0
M  V30 7312 H 673.483 1.89129 -2.26526 0
M  V30 7313 H 673.564 0.147432 -2.55375 0
M  V30 7314 H 673.208 0.565982 -5.04737 0
M  V30 7315 H 673.138 2.31737 -4.7287 0
M  V30 7316 H 675.629 1.29108 -3.55161 0
M  V30 7317 H 675.942 2.04392 -7.45281 0
M  V30 7318 H 674.287 1.84486 -6.70067 0
M  V30 7319 H 677.478 1.5198 -4.42741 0
M  V30 7320 H 677.651 1.86332 -6.20632 0
M  V30 7321 N 671.057 1.43213 0.657864 0
M  V30 7322 C 672.005 1.48271 1.79216 0
M  V30 7323 C 672.999 0.35675 1.65601 0
M  V30 7324 O 674.205 0.530535 1.72004 0
M  V30 7325 H 670.58 0.464729 0.591211 0
M  V30 7326 H 672.551 2.43792 1.7207 0
M  V30 7327 C 671.3 1.41837 3.17455 0
M  V30 7328 H 670.623 2.27781 3.28567 0
M  V30 7329 H 672.063 1.49438 3.96793 0
M  V30 7330 C 670.522 0.135347 3.36628 0
M  V30 7331 O 671.052 -0.805199 3.93547 0
M  V30 7332 N 669.258 0.0470316 2.90562 0
M  V30 7333 H 668.805 0.813221 2.44427 0
M  V30 7334 H 668.763 -0.810737 3.03767 0
M  V30 7335 N 672.536 -0.895792 1.29666 0
M  V30 7336 C 673.764 -1.68001 1.20761 0
M  V30 7337 C 674.179 -1.87379 -0.231187 0
M  V30 7338 O 673.536 -1.41359 -1.15429 0
M  V30 7339 C 673.587 -3.06236 1.92098 0
M  V30 7340 O 673.308 -2.8774 3.30359 0
M  V30 7341 C 674.809 -4.00652 1.89717 0
M  V30 7342 H 672.029 -0.524591 0.418384 0
M  V30 7343 H 674.573 -1.11995 1.71106 0
M  V30 7344 H 672.728 -3.59007 1.45578 0
M  V30 7345 H 673.142 -3.75359 3.66342 0
M  V30 7346 H 674.616 -4.95051 2.44189 0
M  V30 7347 H 675.093 -4.30424 0.873595 0
M  V30 7348 H 675.699 -3.53815 2.35998 0
M  V30 7349 N 674.014 -1.12206 -1.10668 0
M  V30 7350 C 675.261 -0.875875 -1.82578 0
M  V30 7351 C 675.589 0.598342 -1.85068 0
M  V30 7352 O 674.844 1.45818 -1.3052 0
M  V30 7353 C 675.143 -1.39276 -3.29146 0
M  V30 7354 C 674.809 -2.8816 -3.46806 0
M  V30 7355 C 673.471 -3.28813 -3.51334 0
M  V30 7356 C 675.823 -3.8401 -3.52399 0
M  V30 7357 C 673.151 -4.64028 -3.59019 0
M  V30 7358 C 675.503 -5.19053 -3.61617 0
M  V30 7359 C 674.167 -5.59252 -3.64408 0
M  V30 7360 H 673.437 -0.320505 -0.6681 0
M  V30 7361 H 676.084 -1.40184 -1.30464 0
M  V30 7362 H 674.389 -0.787207 -3.8381 0
M  V30 7363 H 676.086 -1.17851 -3.83291 0
M  V30 7364 H 672.676 -2.55716 -3.43958 0
M  V30 7365 H 676.86 -3.53698 -3.48154 0
M  V30 7366 H 672.116 -4.94568 -3.59461 0
M  V30 7367 H 676.29 -5.93152 -3.64889 0
M  V30 7368 H 673.917 -6.64017 -3.70116 0
M  V30 7369 N 675.492 1.28418 -0.913599 0
M  V30 7370 C 676.422 2.29713 -0.418847 0
M  V30 7371 C 677.403 1.62165 0.513469 0
M  V30 7372 O 678.588 1.89576 0.421235 0
M  V30 7373 C 675.718 3.45612 0.342042 0
M  V30 7374 C 674.672 4.25056 -0.501123 0
M  V30 7375 C 673.998 5.3329 0.388097 0
M  V30 7376 C 675.298 4.91814 -1.75831 0
M  V30 7377 H 676.992 2.71346 -1.26538 0
M  V30 7378 H 674.538 1.30446 -0.609903 0
M  V30 7379 H 676.491 4.15562 0.699 0
M  V30 7380 H 675.215 3.02858 1.22248 0
M  V30 7381 H 673.874 3.56833 -0.840598 0
M  V30 7382 H 673.522 4.8678 1.26707 0
M  V30 7383 H 673.222 5.87347 -0.172459 0
M  V30 7384 H 674.746 6.06088 0.74094 0
M  V30 7385 H 676.16 5.54126 -1.47026 0
M  V30 7386 H 674.557 5.55866 -2.26126 0
M  V30 7387 H 675.627 4.16313 -2.4862 0
M  V30 7388 N 676.97 0.677563 1.42291 0
M  V30 7389 C 678.218 0.200578 2.01102 0
M  V30 7390 C 678.539 -1.19803 1.53858 0
M  V30 7391 O 677.809 -1.80496 0.761439 0
M  V30 7392 H 676.389 0.0711634 0.743603 0
M  V30 7393 H 679.051 0.874691 1.7417 0
M  V30 7394 H 678.147 0.204 3.11433 0
M  V30 7395 N 678.448 -1.51871 0.421078 0
M  V30 7396 C 679.358 -2.31077 -0.405069 0
M  V30 7397 C 680.374 -1.39301 -1.04265 0
M  V30 7398 O 681.55 -1.72376 -1.04157 0
M  V30 7399 C 678.615 -3.12556 -1.50032 0
M  V30 7400 C 677.676 -4.20088 -0.884559 0
M  V30 7401 C 676.909 -4.97673 -1.92762 0
M  V30 7402 O 677.132 -4.75696 -3.14753 0
M  V30 7403 O 676.066 -5.82203 -1.52719 0
M  V30 7404 H 679.892 -3.02742 0.241086 0
M  V30 7405 H 677.477 -1.48263 0.183991 0
M  V30 7406 H 679.359 -3.6326 -2.13589 0
M  V30 7407 H 678.034 -2.43672 -2.13086 0
M  V30 7408 H 676.941 -3.73502 -0.211379 0
M  V30 7409 H 678.274 -4.91298 -0.297763 0
M  V30 7410 N 679.926 -0.151884 -1.56866 0
M  V30 7411 C 680.889 0.771861 -2.15812 0
M  V30 7412 C 681.889 1.17181 -1.10115 0
M  V30 7413 O 683.079 1.09194 -1.35729 0
M  V30 7414 C 680.211 2.04806 -2.7252 0
M  V30 7415 H 681.404 0.259021 -2.98779 0
M  V30 7416 H 678.957 0.097588 -1.55995 0
M  V30 7417 H 679.692 2.60445 -1.93233 0
M  V30 7418 H 679.477 1.77044 -3.49854 0
M  V30 7419 H 680.967 2.70771 -3.1792 0
M  V30 7420 N 681.404 1.57128 0.121893 0
M  V30 7421 C 682.314 2.03425 1.16857 0
M  V30 7422 C 683.33 0.954108 1.45509 0
M  V30 7423 O 684.506 1.26541 1.56682 0
M  V30 7424 C 681.571 2.42685 2.47599 0
M  V30 7425 C 680.632 3.64767 2.2637 0
M  V30 7426 C 679.865 4.02145 3.50878 0
M  V30 7427 O 680.088 3.39897 4.58068 0
M  V30 7428 O 679.022 4.95262 3.42051 0
M  V30 7429 H 682.848 2.92825 0.80544 0
M  V30 7430 H 680.433 1.45654 0.332477 0
M  V30 7431 H 682.315 2.68684 3.24634 0
M  V30 7432 H 680.99 1.56432 2.83392 0
M  V30 7433 H 679.897 3.43922 1.47203 0
M  V30 7434 H 681.23 4.51716 1.95482 0
M  V30 7435 N 682.882 -0.391992 1.52647 0
M  V30 7436 C 684.131 -1.13449 1.6677 0
M  V30 7437 C 684.444 -1.91203 0.412399 0
M  V30 7438 O 685.65 -2.68013 0.433707 0
M  V30 7439 C 684.106 -2.06577 2.9471 0
M  V30 7440 C 683.714 -1.3426 4.27409 0
M  V30 7441 C 685.458 -2.80981 3.18198 0
M  V30 7442 C 683.365 -2.26136 5.46458 0
M  V30 7443 H 682.295 -0.427211 0.621295 0
M  V30 7444 H 684.946 -0.397522 1.79142 0
M  V30 7445 H 683.328 -2.83898 2.76076 0
M  V30 7446 H 684.502 -0.621856 4.56585 0
M  V30 7447 H 682.817 -0.718279 4.10158 0
M  V30 7448 H 685.414 -3.49898 4.04321 0
M  V30 7449 H 685.757 -3.44891 2.33144 0
M  V30 7450 H 686.29 -2.10754 3.37383 0
M  V30 7451 H 683.029 -1.66846 6.33911 0
M  V30 7452 H 682.549 -2.96134 5.21598 0
M  V30 7453 H 684.228 -2.86286 5.80215 0
M  V30 7454 N 684.36 -1.4356 -0.65026 0
M  V30 7455 C 685.292 -1.44918 -1.77571 0
M  V30 7456 C 686.305 -0.344925 -1.59104 0
M  V30 7457 O 687.494 -0.609537 -1.6777 0
M  V30 7458 C 684.594 -1.24914 -3.15039 0
M  V30 7459 C 683.767 -2.48232 -3.60138 0
M  V30 7460 C 682.826 -2.23409 -4.76419 0
M  V30 7461 O 681.852 -2.9678 -4.85706 0
M  V30 7462 N 683.054 -1.25259 -5.66825 0
M  V30 7463 H 685.819 -2.41935 -1.76883 0
M  V30 7464 H 683.38 -1.38754 -0.834202 0
M  V30 7465 H 685.372 -1.06185 -3.90521 0
M  V30 7466 H 683.942 -0.363319 -3.10481 0
M  V30 7467 H 683.162 -2.82366 -2.75069 0
M  V30 7468 H 684.45 -3.30296 -3.87017 0
M  V30 7469 H 683.848 -0.646246 -5.61997 0
M  V30 7470 H 682.405 -1.12513 -6.42016 0
M  V30 7471 N 685.838 0.888903 -1.30139 0
M  V30 7472 C 686.771 1.99655 -1.10514 0
M  V30 7473 C 687.749 1.62594 -0.0138934 0
M  V30 7474 O 688.933 1.87762 -0.166689 0
M  V30 7475 C 686.06 3.31708 -0.684655 0
M  V30 7476 C 685.106 3.87755 -1.77619 0
M  V30 7477 S 685.939 4.15532 -3.37777 0
M  V30 7478 C 687.095 5.5061 -2.97622 0
M  V30 7479 H 687.328 2.15996 -2.04287 0
M  V30 7480 H 684.861 1.03682 -1.14409 0
M  V30 7481 H 686.819 4.08039 -0.448782 0
M  V30 7482 H 685.48 3.1323 0.233648 0
M  V30 7483 H 684.673 4.83164 -1.43417 0
M  V30 7484 H 684.275 3.18149 -1.96614 0
M  V30 7485 H 686.567 6.31518 -2.45338 0
M  V30 7486 H 687.51 5.89747 -3.91924 0
M  V30 7487 H 687.918 5.12983 -2.35603 0
M  V30 7488 N 687.317 1.12792 1.10072 0
M  V30 7489 C 688.594 0.796867 1.78632 0
M  V30 7490 C 688.974 -0.712739 1.98704 0
M  V30 7491 O 688.322 -1.64773 1.5831 0
M  V30 7492 C 688.532 1.57622 3.11378 0
M  V30 7493 C 689.88 1.76463 3.86194 0
M  V30 7494 O 690.904 1.54165 3.2111 0
M  V30 7495 O 689.763 2.13623 5.03018 0
M  V30 7496 H 686.857 0.290248 0.774394 0
M  V30 7497 H 689.403 1.23215 1.16688 0
M  V30 7498 H 688.175 2.60246 2.92212 0
M  V30 7499 H 687.798 1.13543 3.81043 0
M  V30 7500 N 688.795 -1.27931 0.920396 0
M  V30 7501 C 690.02 -1.99343 0.572478 0
M  V30 7502 C 690.445 -1.68267 -0.840696 0
M  V30 7503 O 689.803 -0.918805 -1.56294 0
M  V30 7504 C 689.851 -3.51698 0.796284 0
M  V30 7505 O 688.955 -4.12157 -0.141602 0
M  V30 7506 H 688.296 -0.626065 0.221221 0
M  V30 7507 H 690.826 -1.62921 1.23765 0
M  V30 7508 H 690.836 -4.01793 0.708984 0
M  V30 7509 H 689.511 -3.73649 1.82644 0
M  V30 7510 H 688.088 -3.729 -0.005007 0
M  V30 7511 N 690.273 -0.685099 -1.4193 0
M  V30 7512 C 691.519 -0.220688 -2.02199 0
M  V30 7513 C 691.874 1.16329 -1.5325 0
M  V30 7514 O 691.167 1.77175 -0.729345 0
M  V30 7515 C 691.361 -0.206154 -3.56805 0
M  V30 7516 C 691.19 -1.58718 -4.2076 0
M  V30 7517 C 689.96 -2.18747 -4.55497 0
M  V30 7518 C 692.158 -2.53182 -4.47664 0
M  V30 7519 N 690.14 -3.49523 -5.04685 0
M  V30 7520 C 691.511 -3.68625 -4.98514 0
M  V30 7521 C 693.566 -2.51582 -4.29664 0
M  V30 7522 C 692.269 -4.82734 -5.33255 0
M  V30 7523 C 694.295 -3.64795 -4.65487 0
M  V30 7524 C 693.657 -4.78967 -5.16498 0
M  V30 7525 H 689.756 -0.12591 -0.771797 0
M  V30 7526 H 692.34 -0.900316 -1.72634 0
M  V30 7527 H 690.511 0.442923 -3.85866 0
M  V30 7528 H 692.243 0.272103 -4.03784 0
M  V30 7529 H 688.998 -1.71135 -4.41599 0
M  V30 7530 H 689.422 -4.1653 -5.33696 0
M  V30 7531 H 694.064 -1.64535 -3.89472 0
M  V30 7532 H 691.782 -5.7045 -5.72375 0
M  V30 7533 H 695.368 -3.64796 -4.53227 0
M  V30 7534 H 694.248 -5.6512 -5.437 0
M  V30 7535 N 691.751 1.51645 -0.429126 0
M  V30 7536 C 692.698 2.27542 0.386446 0
M  V30 7537 C 693.668 1.30786 1.02393 0
M  V30 7538 O 694.853 1.59678 1.0444 0
M  V30 7539 C 691.993 3.11457 1.48623 0
M  V30 7540 C 691.106 4.23196 0.867691 0
M  V30 7541 C 690.241 4.94435 1.94183 0
M  V30 7542 C 689.28 5.98108 1.30129 0
M  V30 7543 N 688.417 6.62786 2.31644 0
M  V30 7544 H 693.257 2.968 -0.267155 0
M  V30 7545 H 690.794 1.46397 -0.143591 0
M  V30 7546 H 692.752 3.58429 2.13506 0
M  V30 7547 H 691.382 2.44329 2.10957 0
M  V30 7548 H 690.434 3.80248 0.107373 0
M  V30 7549 H 691.746 4.97499 0.35997 0
M  V30 7550 H 690.9 5.44914 2.66747 0
M  V30 7551 H 689.639 4.19744 2.48326 0
M  V30 7552 H 688.644 5.4693 0.561082 0
M  V30 7553 H 689.869 6.74751 0.767303 0
M  V30 7554 H 687.815 5.90913 2.84883 0
M  V30 7555 H 687.732 7.32828 1.85741 0
M  V30 7556 H 689 7.17897 3.03717 0
M  V30 7557 N 693.229 0.160201 1.56784 0
M  V30 7558 C 694.159 -0.770264 2.2043 0
M  V30 7559 C 695.14 -1.24736 1.15651 0
M  V30 7560 O 696.325 -1.30253 1.44041 0
M  V30 7561 C 693.455 -2.00427 2.83631 0
M  V30 7562 C 692.409 -1.66345 3.94352 0
M  V30 7563 C 691.735 -2.97119 4.4455 0
M  V30 7564 C 693.035 -0.899972 5.14488 0
M  V30 7565 H 694.729 -0.239783 2.98438 0
M  V30 7566 H 692.275 -0.113891 1.43549 0
M  V30 7567 H 694.228 -2.66012 3.26827 0
M  V30 7568 H 692.952 -2.5587 2.02973 0
M  V30 7569 H 691.611 -1.03133 3.51794 0
M  V30 7570 H 691.259 -3.5058 3.60698 0
M  V30 7571 H 690.959 -2.75073 5.19238 0
M  V30 7572 H 692.483 -3.63753 4.90425 0
M  V30 7573 H 693.897 -1.45818 5.54446 0
M  V30 7574 H 692.294 -0.778968 5.95023 0
M  V30 7575 H 693.364 0.105827 4.84785 0
M  V30 7576 N 694.707 -1.5719 -0.113559 0
M  V30 7577 C 695.984 -1.76117 -0.850999 0
M  V30 7578 C 696.364 -0.737085 -1.97814 0
M  V30 7579 O 695.712 0.237942 -2.27258 0
M  V30 7580 C 695.922 -3.21298 -1.36266 0
M  V30 7581 C 697.27 -3.83955 -1.81283 0
M  V30 7582 O 698.294 -3.24934 -1.45933 0
M  V30 7583 O 697.153 -4.87707 -2.46585 0
M  V30 7584 H 694.247 -0.721308 -0.404529 0
M  V30 7585 H 696.793 -1.69423 -0.0968756 0
M  V30 7586 H 695.565 -3.87355 -0.554235 0
M  V30 7587 H 695.188 -3.32552 -2.17933 0
M  V30 7588 N 696.185 0.383891 -1.52853 0
M  V30 7589 C 697.132 1.46924 -1.77995 0
M  V30 7590 C 698.102 1.53958 -0.623396 0
M  V30 7591 O 699.287 1.70134 -0.863657 0
M  V30 7592 C 696.427 2.84093 -1.95921 0
M  V30 7593 C 695.54 2.86171 -3.23621 0
M  V30 7594 C 694.675 4.14799 -3.31836 0
M  V30 7595 C 693.714 4.10948 -4.53639 0
M  V30 7596 N 692.851 5.31192 -4.59107 0
M  V30 7597 H 697.691 1.24786 -2.70615 0
M  V30 7598 H 695.228 0.605265 -1.34071 0
M  V30 7599 H 697.186 3.63755 -2.04299 0
M  V30 7600 H 695.816 3.04671 -1.06656 0
M  V30 7601 H 694.868 1.9885 -3.24288 0
M  V30 7602 H 696.18 2.79194 -4.13343 0
M  V30 7603 H 695.334 5.02867 -3.39425 0
M  V30 7604 H 694.073 4.24505 -2.40097 0
M  V30 7605 H 693.078 3.21268 -4.46169 0
M  V30 7606 H 694.303 4.0286 -5.467 0
M  V30 7607 H 692.249 5.41518 -3.70262 0
M  V30 7608 H 692.166 5.26311 -5.42708 0
M  V30 7609 H 693.434 6.21143 -4.70958 0
M  V30 7610 N 697.663 1.43903 0.642637 0
M  V30 7611 C 698.61 1.49881 1.75512 0
M  V30 7612 C 699.58 0.347538 1.62423 0
M  V30 7613 O 700.765 0.556177 1.82514 0
M  V30 7614 C 697.905 1.43797 3.13714 0
M  V30 7615 C 697.018 2.6921 3.37861 0
M  V30 7616 C 696.153 2.5504 4.6597 0
M  V30 7617 C 695.192 3.75671 4.83257 0
M  V30 7618 N 694.329 3.60247 6.02633 0
M  V30 7619 H 699.169 2.44935 1.69737 0
M  V30 7620 H 696.706 1.21572 0.828165 0
M  V30 7621 H 698.664 1.38262 3.93624 0
M  V30 7622 H 697.294 0.523173 3.18532 0
M  V30 7623 H 696.346 2.8498 2.51973 0
M  V30 7624 H 697.658 3.58786 3.46517 0
M  V30 7625 H 696.812 2.47273 5.54023 0
M  V30 7626 H 695.551 1.63006 4.59653 0
M  V30 7627 H 694.556 3.83836 3.93637 0
M  V30 7628 H 695.781 4.68728 4.91397 0
M  V30 7629 H 693.727 2.70955 5.97427 0
M  V30 7630 H 693.644 4.43431 6.12295 0
M  V30 7631 H 694.912 3.56351 6.93278 0
M  V30 7632 N 699.141 -0.881989 1.30609 0
M  V30 7633 C 700.071 -2.00413 1.1982 0
M  V30 7634 C 701.052 -1.69871 0.0881538 0
M  V30 7635 O 702.237 -1.92304 0.2707 0
M  V30 7636 C 699.367 -3.35641 0.89233 0
M  V30 7637 C 698.321 -3.80451 1.96064 0
M  V30 7638 C 697.647 -5.13003 1.5077 0
M  V30 7639 C 698.947 -3.98855 3.37213 0
M  V30 7640 H 700.641 -2.09698 2.13699 0
M  V30 7641 H 698.187 -1.00754 1.02882 0
M  V30 7642 H 700.14 -4.13669 0.803497 0
M  V30 7643 H 698.864 -3.26497 -0.0821381 0
M  V30 7644 H 697.523 -3.04654 2.03916 0
M  V30 7645 H 697.171 -5.0029 0.521417 0
M  V30 7646 H 696.871 -5.43956 2.22229 0
M  V30 7647 H 698.395 -5.93554 1.43271 0
M  V30 7648 H 699.809 -4.67312 3.32103 0
M  V30 7649 H 698.206 -4.41188 4.06784 0
M  V30 7650 H 699.276 -3.02614 3.78883 0
M  V30 7651 N 700.619 -1.13374 -1.09472 0
M  V30 7652 C 701.896 -0.806329 -1.78207 0
M  V30 7653 C 702.276 0.702191 -1.99079 0
M  V30 7654 O 701.624 1.63931 -1.59182 0
M  V30 7655 C 701.834 -1.59271 -3.10538 0
M  V30 7656 C 703.182 -1.78509 -3.85253 0
M  V30 7657 O 704.206 -1.55866 -3.20288 0
M  V30 7658 O 703.065 -2.16287 -5.01879 0
M  V30 7659 H 700.159 -0.29435 -0.772843 0
M  V30 7660 H 702.705 -1.23833 -1.16033 0
M  V30 7661 H 701.477 -2.61792 -2.90828 0
M  V30 7662 H 701.1 -1.15562 -3.80436 0
M  V30 7663 N 702.098 1.27442 -0.927168 0
M  V30 7664 C 703.048 2.24519 -0.396878 0
M  V30 7665 C 704.032 1.52981 0.498555 0
M  V30 7666 O 705.224 1.7378 0.336087 0
M  V30 7667 C 702.353 3.41514 0.349694 0
M  V30 7668 C 701.439 4.20357 -0.562226 0
M  V30 7669 N 701.83 4.7702 -1.68182 0
M  V30 7670 C 700.128 4.44503 -0.365135 0
M  V30 7671 C 700.829 5.36467 -2.24895 0
M  V30 7672 N 699.805 5.21371 -1.5386 0
M  V30 7673 H 703.607 2.65911 -1.25173 0
M  V30 7674 H 701.121 1.42366 -0.78138 0
M  V30 7675 H 703.118 4.10161 0.746536 0
M  V30 7676 H 701.778 3.01653 1.20148 0
M  V30 7677 H 702.789 4.74985 -2.06421 0
M  V30 7678 H 699.466 4.15111 0.446037 0
M  V30 7679 H 700.856 5.91264 -3.1915 0
M  V30 7680 N 703.576 0.692616 1.41565 0
M  V30 7681 C 704.816 0.226453 2.03142 0
M  V30 7682 C 705.18 -1.1512 1.5366 0
M  V30 7683 O 706.381 -1.71305 2.07143 0
M  V30 7684 C 704.652 0.27855 3.56313 0
M  V30 7685 S 706.211 -0.114001 4.38652 0
M  V30 7686 H 703.029 0.0914767 0.705091 0
M  V30 7687 H 705.631 0.909737 1.73043 0
M  V30 7688 H 704.335 1.28325 3.89821 0
M  V30 7689 H 703.866 -0.423981 3.91109 0
M  V30 7690 H 705.881 -1.34256 4.77692 0
M  V30 7691 N 705.054 -1.51416 0.437162 0
M  V30 7692 C 705.984 -2.30631 -0.364922 0
M  V30 7693 C 706.965 -1.36037 -1.02118 0
M  V30 7694 O 708.15 -1.64956 -1.02485 0
M  V30 7695 C 705.28 -3.1482 -1.46648 0
M  V30 7696 C 704.234 -4.17691 -0.933717 0
M  V30 7697 C 703.56 -4.904 -2.13101 0
M  V30 7698 C 704.86 -5.2229 0.0317201 0
M  V30 7699 H 706.554 -2.97932 0.29614 0
M  V30 7700 H 704.1 -1.4328 0.143865 0
M  V30 7701 H 706.053 -3.69017 -2.03481 0
M  V30 7702 H 704.777 -2.4534 -2.15583 0
M  V30 7703 H 703.436 -3.64545 -0.387602 0
M  V30 7704 H 703.084 -4.17423 -2.80654 0
M  V30 7705 H 702.784 -5.59962 -1.78092 0
M  V30 7706 H 704.308 -5.4742 -2.70487 0
M  V30 7707 H 705.722 -5.7156 -0.446302 0
M  V30 7708 H 704.119 -5.99378 0.29437 0
M  V30 7709 H 705.189 -4.75131 0.968447 0
M  V30 7710 N 706.532 -0.168513 -1.56696 0
M  V30 7711 C 707.943 0.348694 -1.83415 0
M  V30 7712 C 708.294 1.63257 -1.0882 0
M  V30 7713 O 707.419 2.13707 -0.340333 0
M  V30 7714 C 708.014 0.639423 -3.32711 0
M  V30 7715 C 706.573 1.10108 -3.59935 0
M  V30 7716 C 705.72 0.135464 -2.76969 0
M  V30 7717 H 708.671 -0.392829 -1.53761 0
M  V30 7718 H 708.692 1.49179 -3.50037 0
M  V30 7719 H 708.204 -0.295173 -3.86976 0
M  V30 7720 H 706.305 2.05088 -3.11079 0
M  V30 7721 H 706.418 1.01218 -4.68286 0
M  V30 7722 H 704.782 0.632286 -2.46727 0
M  V30 7723 H 705.565 -0.793104 -3.34013 0
M  V30 7724 N 708.01 1.57248 0.105221 0
M  V30 7725 C 708.94 2.04374 1.12931 0
M  V30 7726 C 709.921 0.93074 1.42377 0
M  V30 7727 O 711.106 1.20136 1.52581 0
M  V30 7728 C 708.236 2.45967 2.45189 0
M  V30 7729 C 707.19 3.60838 2.30174 0
M  V30 7730 C 706.516 3.88374 3.67518 0
M  V30 7731 C 707.816 4.92084 1.75073 0
M  V30 7732 H 709.51 2.9018 0.737287 0
M  V30 7733 H 707.056 1.39601 0.353211 0
M  V30 7734 H 709.009 2.77542 3.17094 0
M  V30 7735 H 707.733 1.57148 2.86308 0
M  V30 7736 H 706.392 3.29493 1.60716 0
M  V30 7737 H 706.04 2.96739 4.06147 0
M  V30 7738 H 705.74 4.65703 3.58321 0
M  V30 7739 H 707.264 4.22415 4.40906 0
M  V30 7740 H 708.678 5.22106 2.36809 0
M  V30 7741 H 707.075 5.73507 1.76662 0
M  V30 7742 H 708.145 4.79684 0.709347 0
M  V30 7743 N 709.488 -0.375779 1.53054 0
M  V30 7744 C 710.438 -1.45965 1.75152 0
M  V30 7745 C 711.422 -1.49059 0.605823 0
M  V30 7746 O 712.614 -1.54472 0.864133 0
M  V30 7747 C 709.743 -2.83524 1.93569 0
M  V30 7748 C 708.829 -2.84949 3.1411 0
M  V30 7749 N 709.22 -2.56029 4.36214 0
M  V30 7750 C 707.518 -3.16113 3.14625 0
M  V30 7751 C 708.219 -2.64873 5.17897 0
M  V30 7752 N 707.195 -2.99159 4.53878 0
M  V30 7753 H 710.997 -1.22454 2.67175 0
M  V30 7754 H 708.511 -0.583867 1.51541 0
M  V30 7755 H 710.508 -3.61578 2.07525 0
M  V30 7756 H 709.168 -3.08008 1.02768 0
M  V30 7757 H 710.179 -2.29808 4.64121 0
M  V30 7758 H 706.856 -3.45977 2.3368 0
M  V30 7759 H 708.246 -2.45947 6.25268 0
M  V30 7760 N 710.966 -1.44241 -0.634997 0
M  V30 7761 C 712.214 -1.46531 -1.39187 0
M  V30 7762 C 712.535 -0.0976441 -1.94755 0
M  V30 7763 O 711.805 0.869528 -1.75545 0
M  V30 7764 H 710.385 -0.539544 -0.516625 0
M  V30 7765 H 713.047 -1.79989 -0.747655 0
M  V30 7766 H 712.143 -2.18848 -2.22513 0
M  V30 7767 N 712.444 0.87505 -1.31075 0
M  V30 7768 C 713.391 1.98178 -1.18296 0
M  V30 7769 C 714.361 1.65952 -0.0699923 0
M  V30 7770 O 715.546 1.8926 -0.241951 0
M  V30 7771 C 712.686 3.33399 -0.891024 0
M  V30 7772 C 711.799 3.78253 -2.08684 0
M  V30 7773 C 710.934 5.02166 -1.73212 0
M  V30 7774 C 709.973 5.39455 -2.89231 0
M  V30 7775 N 709.11 6.54549 -2.53989 0
M  V30 7776 H 713.95 2.0844 -2.12971 0
M  V30 7777 H 711.487 1.02047 -1.05948 0
M  V30 7778 H 713.445 4.11246 -0.702338 0
M  V30 7779 H 712.075 3.22794 0.0188799 0
M  V30 7780 H 711.127 2.9623 -2.38646 0
M  V30 7781 H 712.439 4.01821 -2.95536 0
M  V30 7782 H 711.593 5.87666 -1.50777 0
M  V30 7783 H 710.332 4.80491 -0.83544 0
M  V30 7784 H 709.337 4.52477 -3.12321 0
M  V30 7785 H 710.562 5.63098 -3.79601 0
M  V30 7786 H 708.508 6.3443 -1.66838 0
M  V30 7787 H 708.425 6.78035 -3.34372 0
M  V30 7788 H 709.693 7.43254 -2.34934 0
M  V30 7789 N 713.922 1.13953 1.08869 0
M  V30 7790 C 715.171 0.899431 1.80536 0
M  V30 7791 C 715.484 -0.575781 1.86933 0
M  V30 7792 O 716.69 -0.932988 2.54966 0
M  V30 7793 C 715.146 1.55963 3.24351 0
M  V30 7794 C 714.754 3.07077 3.26202 0
M  V30 7795 C 716.498 1.40046 4.00733 0
M  V30 7796 C 714.405 3.65955 4.64576 0
M  V30 7797 H 713.335 0.332849 0.676556 0
M  V30 7798 H 715.986 1.3679 1.22314 0
M  V30 7799 H 714.368 1.01883 3.82669 0
M  V30 7800 H 715.542 3.67785 2.77617 0
M  V30 7801 H 713.857 3.22576 2.63312 0
M  V30 7802 H 716.454 1.81441 5.02974 0
M  V30 7803 H 716.797 0.345993 4.1486 0
M  V30 7804 H 717.33 1.91137 3.48872 0
M  V30 7805 H 714.069 4.71234 4.55652 0
M  V30 7806 H 713.589 3.10027 5.13462 0
M  V30 7807 H 715.268 3.65968 5.33551 0
M  V30 7808 N 715.4 -1.26948 0.933913 0
M  V30 7809 C 716.625 -1.98724 0.593589 0
M  V30 7810 C 717.05 -1.6915 -0.822801 0
M  V30 7811 O 716.408 -0.93533 -1.5531 0
M  V30 7812 C 716.456 -3.50834 0.833542 0
M  V30 7813 O 715.56 -4.12284 -0.0978788 0
M  V30 7814 H 714.901 -0.623683 0.227849 0
M  V30 7815 H 717.431 -1.61599 1.25486 0
M  V30 7816 H 717.441 -4.01018 0.75156 0
M  V30 7817 H 716.116 -3.71691 1.86597 0
M  V30 7818 H 714.693 -3.72884 0.0345443 0
M  V30 7819 N 716.879 -0.700114 -1.41195 0
M  V30 7820 C 717.842 -0.0465706 -2.29153 0
M  V30 7821 C 718.842 0.703302 -1.44604 0
M  V30 7822 O 720.032 0.537513 -1.657 0
M  V30 7823 C 717.164 0.944324 -3.2756 0
M  V30 7824 H 718.357 -0.821064 -2.88442 0
M  V30 7825 H 715.91 -0.463869 -1.49258 0
M  V30 7826 H 716.645 1.74642 -2.73259 0
M  V30 7827 H 716.43 0.409701 -3.89954 0
M  V30 7828 H 717.92 1.39925 -3.9346 0
M  V30 7829 N 718.357 1.51182 -0.445186 0
M  V30 7830 C 719.267 2.31692 0.368255 0
M  V30 7831 C 720.283 1.40942 1.02036 0
M  V30 7832 O 721.459 1.74011 1.01401 0
M  V30 7833 C 718.524 3.14903 1.45041 0
M  V30 7834 C 717.585 4.21442 0.817615 0
M  V30 7835 C 716.818 5.00677 1.8482 0
M  V30 7836 O 717.041 4.80644 3.07145 0
M  V30 7837 O 715.975 5.84559 1.43438 0
M  V30 7838 H 719.801 3.0232 -0.289219 0
M  V30 7839 H 717.386 1.47951 -0.207555 0
M  V30 7840 H 719.268 3.66612 2.07783 0
M  V30 7841 H 717.943 2.47031 2.09182 0
M  V30 7842 H 716.85 3.73791 0.151931 0
M  V30 7843 H 718.183 4.9171 0.219564 0
M  V30 7844 N 719.835 0.176821 1.56605 0
M  V30 7845 C 721.06 -0.47599 2.01864 0
M  V30 7846 C 721.485 -1.55645 1.05623 0
M  V30 7847 O 720.843 -1.81263 0.0366729 0
M  V30 7848 C 720.891 -1.02619 3.4569 0
M  V30 7849 O 719.995 -2.13996 3.52533 0
M  V30 7850 H 719.336 -0.113363 0.654251 0
M  V30 7851 H 721.866 0.28233 2.02643 0
M  V30 7852 H 721.876 -1.34742 3.85109 0
M  V30 7853 H 720.551 -0.235138 4.15235 0
M  V30 7854 H 719.128 -1.82876 3.24978 0
M  V30 7855 N 721.313 -1.57302 -0.09688 0
M  V30 7856 C 722.724 -1.7496 -0.651595 0
M  V30 7857 C 723.075 -0.798746 -1.79205 0
M  V30 7858 O 722.2 0.0231858 -2.16388 0
M  V30 7859 C 722.795 -3.17259 -1.18878 0
M  V30 7860 C 721.354 -3.36348 -1.68958 0
M  V30 7861 C 720.501 -2.70766 -0.598413 0
M  V30 7862 H 723.452 -1.58173 0.12918 0
M  V30 7863 H 723.473 -3.20033 -2.05814 0
M  V30 7864 H 722.985 -3.8644 -0.358523 0
M  V30 7865 H 721.086 -2.72243 -2.5439 0
M  V30 7866 H 721.199 -4.44654 -1.7838 0
M  V30 7867 H 719.563 -2.32615 -1.03743 0
M  V30 7868 H 720.346 -3.42586 0.221238 0
M  V30 7869 N 722.791 0.367657 -1.53252 0
M  V30 7870 C 724.019 1.13119 -1.73239 0
M  V30 7871 C 724.434 1.831 -0.460404 0
M  V30 7872 O 723.791 1.73483 0.566557 0
M  V30 7873 C 723.842 2.16308 -2.89643 0
M  V30 7874 O 723.563 1.49175 -4.1192 0
M  V30 7875 C 725.064 3.05224 -3.21486 0
M  V30 7876 H 722.284 0.338318 -0.579467 0
M  V30 7877 H 724.828 0.42721 -1.99988 0
M  V30 7878 H 722.983 2.82307 -2.65295 0
M  V30 7879 H 723.397 2.17912 -4.7709 0
M  V30 7880 H 724.871 3.73613 -4.06346 0
M  V30 7881 H 725.348 3.69919 -2.36763 0
M  V30 7882 H 725.954 2.44843 -3.47753 0
M  V30 7883 N 724.269 1.44576 0.627338 0
M  V30 7884 C 725.517 1.47267 1.38408 0
M  V30 7885 C 725.838 0.107971 1.94701 0
M  V30 7886 O 725.108 -0.860206 1.76004 0
M  V30 7887 H 723.688 0.542276 0.513756 0
M  V30 7888 H 726.35 1.80383 0.738099 0
M  V30 7889 H 725.446 2.20025 2.21349 0
M  V30 7890 N 725.747 -0.868086 1.31537 0
M  V30 7891 C 726.677 -1.99131 1.21939 0
M  V30 7892 C 727.658 -1.69768 0.106166 0
M  V30 7893 O 728.843 -1.92006 0.291081 0
M  V30 7894 C 725.973 -3.34676 0.927879 0
M  V30 7895 C 724.927 -3.7835 2.00088 0
M  V30 7896 C 724.253 -5.11375 1.56203 0
M  V30 7897 C 725.553 -3.95256 3.41424 0
M  V30 7898 H 727.247 -2.07419 2.15911 0
M  V30 7899 H 724.793 -0.996569 1.03945 0
M  V30 7900 H 726.746 -4.12793 0.847327 0
M  V30 7901 H 725.47 -3.26565 -0.0475042 0
M  V30 7902 H 724.129 -3.02474 2.07135 0
M  V30 7903 H 723.777 -4.99709 0.57445 0
M  V30 7904 H 723.477 -5.41568 2.27985 0
M  V30 7905 H 725.001 -5.92001 1.49558 0
M  V30 7906 H 726.415 -4.63764 3.3704 0
M  V30 7907 H 724.812 -4.36849 4.1144 0
M  V30 7908 H 725.882 -2.98579 3.82072 0
M  V30 7909 N 727.225 -1.14528 -1.08264 0
M  V30 7910 C 728.636 -0.925261 -1.6216 0
M  V30 7911 C 728.987 0.535587 -1.88748 0
M  V30 7912 O 728.112 1.4048 -1.64604 0
M  V30 7913 C 728.707 -1.67316 -2.94603 0
M  V30 7914 C 727.266 -1.49868 -3.45278 0
M  V30 7915 C 726.413 -1.69471 -2.19487 0
M  V30 7916 H 729.364 -1.29687 -0.914707 0
M  V30 7917 H 729.385 -1.13721 -3.63109 0
M  V30 7918 H 728.897 -2.73635 -2.75219 0
M  V30 7919 H 726.998 -0.459032 -3.69762 0
M  V30 7920 H 727.111 -2.2696 -4.21931 0
M  V30 7921 H 725.475 -1.12048 -2.2873 0
M  V30 7922 H 726.258 -2.77136 -2.0261 0
M  V30 7923 N 728.703 1.26451 -0.940633 0
M  V30 7924 C 729.928 1.98407 -0.60412 0
M  V30 7925 C 730.353 1.69584 0.81382 0
M  V30 7926 O 729.711 0.943553 1.54812 0
M  V30 7927 C 729.759 3.50387 -0.852136 0
M  V30 7928 O 728.863 4.1233 0.076013 0
M  V30 7929 H 728.204 0.622466 -0.231153 0
M  V30 7930 H 730.734 1.60932 -1.26342 0
M  V30 7931 H 730.744 4.00614 -0.772816 0
M  V30 7932 H 729.419 3.70696 -1.88566 0
M  V30 7933 H 727.996 3.7286 -0.0543187 0
M  V30 7934 N 730.181 0.707592 1.40822 0
M  V30 7935 C 731.131 0.0265008 2.27985 0
M  V30 7936 C 732.115 -0.740685 1.42838 0
M  V30 7937 O 733.307 -0.6142 1.66002 0
M  V30 7938 C 730.436 -0.900382 3.31282 0
M  V30 7939 C 729.522 -0.128807 4.23904 0
M  V30 7940 N 729.913 0.883744 4.9802 0
M  V30 7941 C 728.211 -0.362539 4.44524 0
M  V30 7942 C 728.912 1.34666 5.65898 0
M  V30 7943 N 727.888 0.670306 5.39451 0
M  V30 7944 H 731.69 0.802667 2.82727 0
M  V30 7945 H 729.204 0.539475 1.53178 0
M  V30 7946 H 731.201 -1.40357 3.92563 0
M  V30 7947 H 729.861 -1.67601 2.781 0
M  V30 7948 H 730.872 1.26435 5.0223 0
M  V30 7949 H 727.549 -1.11512 4.02332 0
M  V30 7950 H 728.939 2.18756 6.35292 0
M  V30 7951 N 731.66 -1.50943 0.453197 0
M  V30 7952 C 732.607 -2.28128 -0.350197 0
M  V30 7953 C 733.577 -1.32398 -1.00299 0
M  V30 7954 O 734.762 -1.61319 -1.01887 0
M  V30 7955 C 731.902 -3.13782 -1.43649 0
M  V30 7956 C 731.015 -4.24523 -0.800255 0
M  V30 7957 C 730.15 -4.97462 -1.86293 0
M  V30 7958 C 729.189 -6.00102 -1.20598 0
M  V30 7959 N 728.326 -6.66387 -2.21071 0
M  V30 7960 H 733.166 -2.96337 0.31434 0
M  V30 7961 H 730.703 -1.46151 0.166863 0
M  V30 7962 H 732.661 -3.6178 -2.07776 0
M  V30 7963 H 731.291 -2.47655 -2.07044 0
M  V30 7964 H 730.343 -3.80371 -0.0468651 0
M  V30 7965 H 731.655 -4.98009 -0.280777 0
M  V30 7966 H 730.809 -5.49088 -2.58044 0
M  V30 7967 H 729.548 -4.23642 -2.41617 0
M  V30 7968 H 728.553 -5.47753 -0.474 0
M  V30 7969 H 729.778 -6.75887 -0.659859 0
M  V30 7970 H 727.724 -5.9537 -2.75446 0
M  V30 7971 H 727.641 -7.3569 -1.74058 0
M  V30 7972 H 728.909 -7.22638 -2.92257 0
M  V30 7973 N 733.138 -0.185124 -1.56509 0
M  V30 7974 C 734.386 0.455357 -1.96903 0
M  V30 7975 C 734.707 1.62839 -1.07277 0
M  V30 7976 O 733.977 1.95385 -0.141966 0
M  V30 7977 H 732.557 0.171218 -0.727113 0
M  V30 7978 H 735.219 -0.26953 -1.93027 0
M  V30 7979 H 734.315 0.80616 -3.01509 0
M  V30 7980 N 734.616 1.57351 0.0885366 0
M  V30 7981 C 735.526 2.05858 1.12516 0
M  V30 7982 C 736.542 0.984758 1.43452 0
M  V30 7983 O 737.718 1.29836 1.53963 0
M  V30 7984 C 734.783 2.47882 2.42395 0
M  V30 7985 C 733.844 3.69487 2.18582 0
M  V30 7986 C 733.077 4.09497 3.42268 0
M  V30 7987 O 733.3 3.49536 4.50755 0
M  V30 7988 O 732.234 5.02406 3.31469 0
M  V30 7989 H 736.06 2.94467 0.743146 0
M  V30 7990 H 733.645 1.46326 0.301507 0
M  V30 7991 H 735.527 2.75509 3.18862 0
M  V30 7992 H 734.202 1.62408 2.8001 0
M  V30 7993 H 733.109 3.46967 1.39875 0
M  V30 7994 H 734.442 4.55761 1.85857 0
M  V30 7995 N 736.094 -0.359525 1.53444 0
M  V30 7996 C 737.024 -1.44662 1.8329 0
M  V30 7997 C 738.005 -1.55617 0.68683 0
M  V30 7998 O 739.19 -1.70086 0.93725 0
M  V30 7999 C 736.32 -2.81923 2.02822 0
M  V30 8000 C 735.274 -2.85787 3.18606 0
M  V30 8001 C 734.6 -4.25781 3.23442 0
M  V30 8002 C 735.9 -2.52762 4.57065 0
M  V30 8003 H 737.594 -1.19934 2.74329 0
M  V30 8004 H 735.14 -0.575517 1.31999 0
M  V30 8005 H 737.093 -3.58005 2.22285 0
M  V30 8006 H 735.817 -3.08051 1.085 0
M  V30 8007 H 734.476 -2.12157 2.98973 0
M  V30 8008 H 734.124 -4.48994 2.26745 0
M  V30 8009 H 733.824 -4.29281 4.01238 0
M  V30 8010 H 735.348 -5.03727 3.45096 0
M  V30 8011 H 736.762 -3.18557 4.76649 0
M  V30 8012 H 735.159 -2.67569 5.37147 0
M  V30 8013 H 736.229 -1.47993 4.61764 0
M  V30 8014 N 737.572 -1.44907 -0.619662 0
M  V30 8015 C 738.818 -1.48512 -1.38102 0
M  V30 8016 C 739.151 -0.121686 -1.93818 0
M  V30 8017 O 738.426 0.862256 -1.74343 0
M  V30 8018 C 738.709 -2.55469 -2.53787 0
M  V30 8019 C 738.562 -4.01212 -2.03345 0
M  V30 8020 C 739.881 -2.58821 -3.55949 0
M  V30 8021 H 737 -0.540712 -0.500799 0
M  V30 8022 H 739.642 -1.7665 -0.69962 0
M  V30 8023 H 737.792 -2.31606 -3.11915 0
M  V30 8024 H 739.464 -4.36245 -1.49959 0
M  V30 8025 H 737.707 -4.12443 -1.34438 0
M  V30 8026 H 738.378 -4.71717 -2.86683 0
M  V30 8027 H 740.854 -2.80172 -3.07641 0
M  V30 8028 H 739.73 -3.35542 -4.34399 0
M  V30 8029 H 739.991 -1.63451 -4.10775 0
M  V30 8030 N 739.05 0.861098 -1.31996 0
M  V30 8031 C 740.296 1.61721 -1.22369 0
M  V30 8032 C 740.629 1.93 0.215587 0
M  V30 8033 O 739.904 1.56789 1.15098 0
M  V30 8034 C 740.187 2.9417 -2.07691 0
M  V30 8035 C 740.04 2.69714 -3.59965 0
M  V30 8036 C 741.359 3.95372 -1.93312 0
M  V30 8037 H 738.478 0.586822 -0.44588 0
M  V30 8038 H 741.12 0.994788 -1.61876 0
M  V30 8039 H 739.27 3.47292 -1.74128 0
M  V30 8040 H 740.942 2.23196 -4.03709 0
M  V30 8041 H 739.185 2.03789 -3.82952 0
M  V30 8042 H 739.856 3.63996 -4.14983 0
M  V30 8043 H 742.332 3.51487 -2.22701 0
M  V30 8044 H 741.208 4.85916 -2.55298 0
M  V30 8045 H 741.469 4.32865 -0.898922 0
M  V30 8046 N 740.528 1.15101 1.07655 0
M  V30 8047 C 741.753 0.948177 1.84457 0
M  V30 8048 C 742.178 -0.498432 1.81376 0
M  V30 8049 O 741.536 -1.35509 1.20445 0
M  V30 8050 C 741.584 1.46318 3.29581 0
M  V30 8051 O 740.688 0.660342 4.07079 0
M  V30 8052 H 740.029 0.338428 0.571281 0
M  V30 8053 H 742.559 1.5301 1.35828 0
M  V30 8054 H 742.569 1.47468 3.80417 0
M  V30 8055 H 741.244 2.51635 3.31138 0
M  V30 8056 H 739.821 0.718216 3.65918 0
M  V30 8057 N 742.006 -1.2595 0.947325 0
M  V30 8058 C 742.936 -2.28521 0.479604 0
M  V30 8059 C 743.917 -1.63469 -0.470293 0
M  V30 8060 O 745.102 -1.90627 -0.370824 0
M  V30 8061 C 742.232 -3.46397 -0.250289 0
M  V30 8062 C 741.186 -4.23578 0.613643 0
M  V30 8063 C 740.512 -5.34131 -0.246568 0
M  V30 8064 C 741.812 -4.86979 1.88809 0
M  V30 8065 H 743.506 -2.67895 1.33688 0
M  V30 8066 H 741.052 -1.28783 0.644274 0
M  V30 8067 H 743.005 -4.17269 -0.588576 0
M  V30 8068 H 741.729 -3.05993 -1.14175 0
M  V30 8069 H 740.388 -3.54478 0.93491 0
M  V30 8070 H 740.036 -4.89968 -1.13756 0
M  V30 8071 H 739.736 -5.86683 0.328123 0
M  V30 8072 H 741.26 -6.07839 -0.579986 0
M  V30 8073 H 742.674 -5.50034 1.61666 0
M  V30 8074 H 741.071 -5.49675 2.40784 0
M  V30 8075 H 742.141 -4.09575 2.5957 0
M  V30 8076 N 743.484 -0.715051 -1.40445 0
M  V30 8077 C 744.431 -0.0621393 -2.30716 0
M  V30 8078 C 745.401 0.750871 -1.48159 0
M  V30 8079 O 746.586 0.714928 -1.76899 0
M  V30 8080 C 743.726 0.854036 -3.34365 0
M  V30 8081 C 742.839 0.0305565 -4.31989 0
M  V30 8082 C 741.974 0.946162 -5.22706 0
M  V30 8083 C 741.013 0.116741 -6.11989 0
M  V30 8084 N 740.15 0.987194 -6.95125 0
M  V30 8085 H 744.99 -0.83764 -2.85985 0
M  V30 8086 H 742.527 -0.424759 -1.40834 0
M  V30 8087 H 744.485 1.39946 -3.93028 0
M  V30 8088 H 743.115 1.59572 -2.806 0
M  V30 8089 H 742.167 -0.632044 -3.75112 0
M  V30 8090 H 743.479 -0.611615 -4.95036 0
M  V30 8091 H 742.633 1.56014 -5.86297 0
M  V30 8092 H 741.372 1.62216 -4.59932 0
M  V30 8093 H 740.377 -0.510176 -5.47428 0
M  V30 8094 H 741.602 -0.555742 -6.76822 0
M  V30 8095 H 739.548 1.64885 -6.3494 0
M  V30 8096 H 739.465 0.401046 -7.54936 0
M  V30 8097 H 740.733 1.58737 -7.63166 0
M  V30 8098 N 744.962 1.50701 -0.461195 0
M  V30 8099 C 746.192 2.06381 0.0950376 0
M  V30 8100 C 746.6 1.32627 1.34933 0
M  V30 8101 O 745.943 0.386137 1.79596 0
M  V30 8102 C 746.005 3.56558 0.458965 0
M  V30 8103 C 745.669 4.51732 -0.691891 0
M  V30 8104 C 746.666 4.95594 -1.57105 0
M  V30 8105 C 744.351 4.94542 -0.879407 0
M  V30 8106 C 746.345 5.80963 -2.62223 0
M  V30 8107 C 744.032 5.79695 -1.93382 0
M  V30 8108 C 745.03 6.22806 -2.80359 0
M  V30 8109 O 744.718 7.06265 -3.83986 0
M  V30 8110 H 744.45 0.676 0.000687488 0
M  V30 8111 H 747.004 1.94974 -0.646087 0
M  V30 8112 H 745.234 3.65832 1.25314 0
M  V30 8113 H 746.923 3.94647 0.949124 0
M  V30 8114 H 747.689 4.63197 -1.43783 0
M  V30 8115 H 743.568 4.60513 -0.211907 0
M  V30 8116 H 747.112 6.14533 -3.30143 0
M  V30 8117 H 743.009 6.11506 -2.06715 0
M  V30 8118 H 743.777 7.24494 -3.80855 0
M  V30 8119 N 746.441 0.193421 1.56409 0
M  V30 8120 C 747.69 -0.445995 1.96707 0
M  V30 8121 C 748.003 -1.62876 1.08309 0
M  V30 8122 O 749.209 -2.33586 1.38383 0
M  V30 8123 C 747.665 -0.844863 3.49843 0
M  V30 8124 C 747.273 0.31352 4.46902 0
M  V30 8125 C 749.017 -1.45146 3.98915 0
M  V30 8126 C 746.924 -0.106214 5.91305 0
M  V30 8127 H 745.854 -0.170398 0.734493 0
M  V30 8128 H 748.505 0.285172 1.81271 0
M  V30 8129 H 746.887 -1.63265 3.60778 0
M  V30 8130 H 748.061 1.09103 4.47698 0
M  V30 8131 H 746.376 0.8315 4.08014 0
M  V30 8132 H 748.973 -1.77792 5.04276 0
M  V30 8133 H 749.316 -2.35734 3.43126 0
M  V30 8134 H 749.849 -0.727675 3.91088 0
M  V30 8135 H 746.588 0.765442 6.51016 0
M  V30 8136 H 746.108 -0.848623 5.93766 0
M  V30 8137 H 747.787 -0.542588 6.44721 0
M  V30 8138 N 747.919 -1.57396 -0.0801906 0
M  V30 8139 C 749.33 -1.75642 -0.633002 0
M  V30 8140 C 749.681 -0.817708 -1.78348 0
M  V30 8141 O 748.806 0.000233743 -2.164 0
M  V30 8142 C 749.401 -3.18502 -1.15507 0
M  V30 8143 C 747.96 -3.38121 -1.65381 0
M  V30 8144 C 747.107 -2.71386 -0.569661 0
M  V30 8145 H 750.058 -1.58027 0.145949 0
M  V30 8146 H 750.079 -3.22198 -2.02408 0
M  V30 8147 H 749.591 -3.86799 -0.317515 0
M  V30 8148 H 747.692 -2.74926 -2.51488 0
M  V30 8149 H 747.805 -4.46521 -1.73654 0
M  V30 8150 H 746.169 -2.33702 -1.0127 0
M  V30 8151 H 746.952 -3.42332 0.257561 0
M  V30 8152 N 749.397 0.351382 -1.53633 0
M  V30 8153 C 750.36 1.41403 -1.80383 0
M  V30 8154 C 751.36 1.45963 -0.674635 0
M  V30 8155 O 752.55 1.46476 -0.942895 0
M  V30 8156 C 749.682 2.80401 -1.93876 0
M  V30 8157 H 750.875 1.18951 -2.75301 0
M  V30 8158 H 748.428 0.58533 -1.44926 0
M  V30 8159 H 749.163 3.08147 -1.01074 0
M  V30 8160 H 748.948 2.78488 -2.7602 0
M  V30 8161 H 750.438 3.57329 -2.16116 0
M  V30 8162 N 750.875 1.45233 0.611969 0
M  V30 8163 C 752.1 1.52767 1.40274 0
M  V30 8164 C 752.525 0.159701 1.87421 0
M  V30 8165 O 751.883 -0.854837 1.59882 0
M  V30 8166 C 751.931 2.51286 2.58626 0
M  V30 8167 O 751.035 2.02764 3.59111 0
M  V30 8168 H 750.376 0.515141 0.418958 0
M  V30 8169 H 752.906 1.90547 0.745188 0
M  V30 8170 H 752.916 2.69949 3.05927 0
M  V30 8171 H 751.591 3.50641 2.23659 0
M  V30 8172 H 750.168 1.93957 3.18489 0
M  V30 8173 N 752.353 -0.854086 1.3245 0
M  V30 8174 C 753.3 -1.96271 1.21434 0
M  V30 8175 C 754.27 -1.6582 0.0963851 0
M  V30 8176 O 755.455 -1.88851 0.27203 0
M  V30 8177 C 752.595 -3.31939 0.943952 0
M  V30 8178 C 751.708 -3.74885 2.14675 0
M  V30 8179 C 750.843 -4.99347 1.81179 0
M  V30 8180 C 749.882 -5.34785 2.97777 0
M  V30 8181 N 749.019 -6.50425 2.6437 0
M  V30 8182 H 753.859 -2.05025 2.16261 0
M  V30 8183 H 751.396 -1.00348 1.07558 0
M  V30 8184 H 753.354 -4.10076 0.767675 0
M  V30 8185 H 751.984 -3.22784 0.0324763 0
M  V30 8186 H 751.036 -2.92396 2.43328 0
M  V30 8187 H 752.348 -3.97068 3.01891 0
M  V30 8188 H 751.502 -5.85193 1.60107 0
M  V30 8189 H 750.241 -4.79101 0.911777 0
M  V30 8190 H 749.246 -4.47451 3.1948 0
M  V30 8191 H 750.471 -5.56988 3.88511 0
M  V30 8192 H 748.417 -6.31695 1.7691 0
M  V30 8193 H 748.334 -6.7263 3.45116 0
M  V30 8194 H 749.602 -7.39422 2.46729 0
M  V30 8195 N 753.831 -1.1567 -1.07043 0
M  V30 8196 C 755.059 -0.957471 -1.83412 0
M  V30 8197 C 755.474 0.494271 -1.82215 0
M  V30 8198 O 754.831 1.34288 -1.23584 0
M  V30 8199 C 754.882 -1.46784 -3.30359 0
M  V30 8200 O 754.603 -2.86271 -3.31633 0
M  V30 8201 C 756.104 -1.31054 -4.23485 0
M  V30 8202 H 753.324 -0.33986 -0.578564 0
M  V30 8203 H 755.868 -1.53518 -1.35102 0
M  V30 8204 H 754.023 -0.932586 -3.76007 0
M  V30 8205 H 754.437 -3.0948 -4.23465 0
M  V30 8206 H 755.911 -1.71605 -5.24648 0
M  V30 8207 H 756.388 -0.255107 -4.38458 0
M  V30 8208 H 756.994 -1.83503 -3.83676 0
M  V30 8209 N 755.309 1.25446 -0.953992 0
M  V30 8210 C 756.72 1.75047 -0.649255 0
M  V30 8211 C 757.071 1.77527 0.835385 0
M  V30 8212 O 756.196 1.39569 1.65377 0
M  V30 8213 C 756.791 3.17889 -1.17183 0
M  V30 8214 C 755.35 3.65052 -0.917267 0
M  V30 8215 C 754.497 2.44124 -1.31525 0
M  V30 8216 H 757.448 1.11342 -1.13087 0
M  V30 8217 H 757.469 3.76768 -0.531616 0
M  V30 8218 H 756.981 3.16052 -2.25239 0
M  V30 8219 H 755.082 3.72305 0.148354 0
M  V30 8220 H 755.195 4.53222 -1.55328 0
M  V30 8221 H 753.559 2.43906 -0.733624 0
M  V30 8222 H 754.342 2.44979 -2.405 0
M  V30 8223 N 756.787 0.722489 1.40064 0
M  V30 8224 C 758.033 0.265371 2.01056 0
M  V30 8225 C 758.366 -1.14062 1.57174 0
M  V30 8226 O 757.641 -1.77514 0.794916 0
M  V30 8227 C 757.924 0.353157 3.58364 0
M  V30 8228 C 757.777 1.79802 4.123 0
M  V30 8229 C 759.096 -0.271677 4.39261 0
M  V30 8230 H 756.215 0.0979002 0.730469 0
M  V30 8231 H 758.857 0.916289 1.66446 0
M  V30 8232 H 757.007 -0.201037 3.87979 0
M  V30 8233 H 758.679 2.40813 3.93455 0
M  V30 8234 H 756.922 2.32348 3.66329 0
M  V30 8235 H 757.593 1.81079 5.21454 0
M  V30 8236 H 760.069 0.200607 4.15616 0
M  V30 8237 H 758.945 -0.179843 5.48605 0
M  V30 8238 H 759.206 -1.35611 4.20787 0
M  V30 8239 N 758.265 -1.50454 0.469181 0
M  V30 8240 C 759.513 -2.01916 -0.0862982 0
M  V30 8241 C 759.834 -1.35337 -1.40388 0
M  V30 8242 O 759.104 -0.498096 -1.89462 0
M  V30 8243 H 757.684 -0.746185 -0.0348825 0
M  V30 8244 H 760.346 -1.84804 0.619167 0
M  V30 8245 H 759.442 -3.11182 -0.239189 0
M  V30 8246 N 759.743 -0.201713 -1.56304 0
M  V30 8247 C 760.991 0.434447 -1.97375 0
M  V30 8248 C 761.312 1.61692 -1.08998 0
M  V30 8249 O 760.582 1.95223 -0.162682 0
M  V30 8250 H 759.162 0.163497 -0.728888 0
M  V30 8251 H 761.824 -0.289988 -1.92731 0
M  V30 8252 H 760.92 0.774136 -3.02347 0
M  V30 8253 N 761.222 1.57436 0.0718424 0
M  V30 8254 C 762.499 1.78312 0.804006 0
M  V30 8255 C 762.879 0.789273 1.9579 0
M  V30 8256 O 762.227 -0.177605 2.27809 0
M  V30 8257 C 762.437 3.24798 1.277 0
M  V30 8258 C 763.785 3.88627 1.71039 0
M  V30 8259 O 764.809 3.28689 1.37266 0
M  V30 8260 O 763.668 4.94073 2.33567 0
M  V30 8261 H 760.762 0.73178 0.385262 0
M  V30 8262 H 763.308 1.69621 0.0519219 0
M  V30 8263 H 762.08 3.88688 0.45134 0
M  V30 8264 H 761.703 3.38213 2.0904 0
M  V30 8265 N 762.7 -0.34323 1.53817 0
M  V30 8266 C 764.116 -0.686355 1.44088 0
M  V30 8267 C 764.316 -1.92426 0.597882 0
M  V30 8268 O 763.372 -2.52343 0.0889918 0
M  V30 8269 C 764.685 -0.878698 2.87575 0
M  V30 8270 C 766.233 -0.977296 2.97352 0
M  V30 8271 C 766.708 -1.20195 4.41947 0
M  V30 8272 N 768.199 -1.26915 4.45474 0
M  V30 8273 C 768.934 -1.46049 5.54488 0
M  V30 8274 N 768.43 -1.62354 6.73508 0
M  V30 8275 N 770.223 -1.48599 5.42102 0
M  V30 8276 H 762.374 0.470679 2.07119 0
M  V30 8277 H 764.637 0.148652 0.936273 0
M  V30 8278 H 764.343 -0.040602 3.51677 0
M  V30 8279 H 764.217 -1.78034 3.32541 0
M  V30 8280 H 766.604 -1.80591 2.3339 0
M  V30 8281 H 766.685 -0.0525498 2.55746 0
M  V30 8282 H 766.329 -0.378262 5.06489 0
M  V30 8283 H 766.259 -2.14027 4.81145 0
M  V30 8284 H 768.75 -1.15837 3.59708 0
M  V30 8285 H 769.063 -1.76591 7.52353 0
M  V30 8286 H 767.408 -1.5949 6.76453 0
M  V30 8287 H 770.599 -1.35443 4.48077 0
M  V30 8288 H 770.772 -1.6317 6.2712 0
M  V30 8289 N 764.178 -1.45556 -0.604258 0
M  V30 8290 C 765.125 -1.54482 -1.71476 0
M  V30 8291 C 766.095 -0.390479 -1.61445 0
M  V30 8292 O 767.28 -0.604371 -1.80975 0
M  V30 8293 C 764.42 -1.52064 -3.09791 0
M  V30 8294 C 763.533 -2.78073 -3.30604 0
M  V30 8295 C 762.668 -2.67304 -4.59044 0
M  V30 8296 C 761.707 -3.88352 -4.73127 0
M  V30 8297 N 760.844 -3.76098 -5.9287 0
M  V30 8298 H 765.684 -2.49349 -1.63184 0
M  V30 8299 H 763.221 -1.23725 -0.795641 0
M  V30 8300 H 765.179 -1.48649 -3.89819 0
M  V30 8301 H 763.809 -0.607442 -3.17033 0
M  V30 8302 H 762.861 -2.91561 -2.44329 0
M  V30 8303 H 764.173 -3.67847 -3.36883 0
M  V30 8304 H 763.327 -2.61875 -5.47272 0
M  V30 8305 H 762.066 -1.75135 -4.55169 0
M  V30 8306 H 761.071 -3.94137 -3.83322 0
M  V30 8307 H 762.296 -4.81591 -4.78797 0
M  V30 8308 H 760.242 -2.867 -5.90033 0
M  V30 8309 H 760.159 -4.59509 -6.00323 0
M  V30 8310 H 761.427 -3.74607 -6.83586 0
M  V30 8311 N 765.656 0.84705 -1.32902 0
M  V30 8312 C 766.603 1.95624 -1.22473 0
M  V30 8313 C 767.573 1.65767 -0.105178 0
M  V30 8314 O 768.758 1.88704 -0.282042 0
M  V30 8315 C 765.898 3.31434 -0.961542 0
M  V30 8316 C 765.011 3.73741 -2.1666 0
M  V30 8317 C 764.146 4.98379 -1.83825 0
M  V30 8318 C 763.185 5.33199 -3.00609 0
M  V30 8319 N 762.322 6.49014 -2.67816 0
M  V30 8320 H 767.162 2.03875 -2.17345 0
M  V30 8321 H 764.699 0.997764 -1.08088 0
M  V30 8322 H 766.657 4.09663 -0.789411 0
M  V30 8323 H 765.287 3.22762 -0.0495938 0
M  V30 8324 H 764.339 2.91102 -2.44875 0
M  V30 8325 H 765.651 3.95462 -3.03993 0
M  V30 8326 H 764.805 5.84336 -1.63208 0
M  V30 8327 H 763.544 4.78611 -0.937172 0
M  V30 8328 H 762.549 4.4575 -3.21849 0
M  V30 8329 H 763.774 5.5492 -3.9146 0
M  V30 8330 H 761.72 6.30748 -1.80258 0
M  V30 8331 H 761.637 6.7079 -3.48679 0
M  V30 8332 H 762.905 7.38103 -2.50647 0
M  V30 8333 N 767.134 1.16236 1.06428 0
M  V30 8334 C 768.359 0.967688 1.83441 0
M  V30 8335 C 768.784 -0.479167 1.81894 0
M  V30 8336 O 768.142 -1.34224 1.21875 0
M  V30 8337 C 768.19 1.49806 3.2801 0
M  V30 8338 O 767.294 0.703481 4.06356 0
M  V30 8339 H 766.635 0.344468 0.56766 0
M  V30 8340 H 769.165 1.54442 1.34197 0
M  V30 8341 H 769.175 1.51495 3.78831 0
M  V30 8342 H 767.85 2.55133 3.2845 0
M  V30 8343 H 766.427 0.756986 3.65136 0
M  V30 8344 N 768.612 -1.24939 0.960631 0
M  V30 8345 C 769.559 -2.25658 0.484459 0
M  V30 8346 C 770.529 -1.59422 -0.466242 0
M  V30 8347 O 771.714 -1.87015 -0.378169 0
M  V30 8348 C 768.854 -3.44359 -0.225958 0
M  V30 8349 C 767.967 -4.25214 0.762682 0
M  V30 8350 C 767.102 -5.31192 0.0290931 0
M  V30 8351 C 766.141 -6.03739 1.00827 0
M  V30 8352 N 765.278 -7.01437 0.305155 0
M  V30 8353 H 770.118 -2.65758 1.34821 0
M  V30 8354 H 767.655 -1.30648 0.675983 0
M  V30 8355 H 769.613 -4.12035 -0.654472 0
M  V30 8356 H 768.243 -3.05118 -1.05371 0
M  V30 8357 H 767.295 -3.57144 1.30966 0
M  V30 8358 H 768.607 -4.75406 1.50964 0
M  V30 8359 H 767.761 -6.04971 -0.457763 0
M  V30 8360 H 766.5 -4.81889 -0.750614 0
M  V30 8361 H 765.505 -5.2877 1.50607 0
M  V30 8362 H 766.73 -6.55131 1.7883 0
M  V30 8363 H 764.676 -6.54415 -0.455704 0
M  V30 8364 H 764.593 -7.49475 0.991104 0
M  V30 8365 H 765.861 -7.79336 -0.159966 0
M  V30 8366 N 770.09 -0.729906 -1.39679 0
M  V30 8367 C 771.338 -0.275077 -2.00219 0
M  V30 8368 C 771.659 1.1401 -1.58199 0
M  V30 8369 O 770.929 1.77546 -0.827904 0
M  V30 8370 H 769.509 -0.0987127 -0.740449 0
M  V30 8371 H 772.171 -0.93873 -1.70804 0
M  V30 8372 H 771.267 -0.319446 -3.10461 0
M  V30 8373 N 771.568 1.50203 -0.477153 0
M  V30 8374 C 772.816 2.01959 0.0755889 0
M  V30 8375 C 773.137 1.3608 1.39668 0
M  V30 8376 O 772.407 0.508136 1.89195 0
M  V30 8377 H 770.987 0.74636 0.0309248 0
M  V30 8378 H 773.649 1.84473 -0.628959 0
M  V30 8379 H 772.745 3.11305 0.222683 0
M  V30 8380 N 773.046 0.209999 1.56195 0
M  V30 8381 C 773.956 -0.716459 2.23392 0
M  V30 8382 C 774.972 -1.22291 1.23778 0
M  V30 8383 O 776.148 -1.26694 1.56558 0
M  V30 8384 C 773.213 -1.91261 2.89172 0
M  V30 8385 C 772.274 -1.44927 4.04097 0
M  V30 8386 C 771.507 -2.5884 4.66731 0
M  V30 8387 O 771.73 -3.76693 4.2832 0
M  V30 8388 O 770.664 -2.30701 5.55932 0
M  V30 8389 H 774.49 -0.174089 3.03201 0
M  V30 8390 H 772.075 -0.0199505 1.49387 0
M  V30 8391 H 773.957 -2.6114 3.30733 0
M  V30 8392 H 772.632 -2.4433 2.12331 0
M  V30 8393 H 771.539 -0.718839 3.67129 0
M  V30 8394 H 772.872 -0.965084 4.82646 0
M  V30 8395 N 774.524 -1.57472 -0.0634922 0
M  V30 8396 C 775.772 -1.87283 -0.759563 0
M  V30 8397 C 776.093 -0.803135 -1.77693 0
M  V30 8398 O 775.363 0.167293 -1.95184 0
M  V30 8399 H 773.943 -0.691106 -0.283516 0
M  V30 8400 H 776.605 -1.94864 -0.0376091 0
M  V30 8401 H 775.701 -2.85064 -1.27062 0
M  V30 8402 N 776.003 0.335068 -1.53997 0
M  V30 8403 C 777.251 1.07223 -1.71312 0
M  V30 8404 C 777.572 1.88911 -0.483486 0
M  V30 8405 O 776.842 1.89344 0.50257 0
M  V30 8406 H 775.422 0.398846 -0.63161 0
M  V30 8407 H 778.084 0.374288 -1.91272 0
M  V30 8408 H 777.18 1.7448 -2.58772 0
M  V30 8409 N 777.481 1.45874 0.596531 0
M  V30 8410 C 778.391 1.57947 1.73464 0
M  V30 8411 C 779.407 0.463461 1.67714 0
M  V30 8412 O 780.583 0.725685 1.87872 0
M  V30 8413 C 777.648 1.55348 3.09948 0
M  V30 8414 C 776.709 2.78074 3.27068 0
M  V30 8415 C 775.942 2.75589 4.57041 0
M  V30 8416 O 776.165 1.83545 5.40063 0
M  V30 8417 O 775.099 3.66945 4.77111 0
M  V30 8418 H 778.925 2.54169 1.66228 0
M  V30 8419 H 776.51 1.2851 0.76194 0
M  V30 8420 H 778.392 1.56545 3.91244 0
M  V30 8421 H 777.067 0.622811 3.17652 0
M  V30 8422 H 775.974 2.82435 2.45319 0
M  V30 8423 H 777.307 3.70303 3.24248 0
M  V30 8424 N 778.959 -0.83999 1.33349 0
M  V30 8425 C 779.889 -1.965 1.26135 0
M  V30 8426 C 780.87 -1.69505 0.142152 0
M  V30 8427 O 782.055 -1.91346 0.331743 0
M  V30 8428 C 779.185 -3.32632 0.99866 0
M  V30 8429 C 778.139 -3.74021 2.08068 0
M  V30 8430 C 777.465 -5.07947 1.67014 0
M  V30 8431 C 778.765 -3.87925 3.49731 0
M  V30 8432 H 780.459 -2.02793 2.20262 0
M  V30 8433 H 778.005 -0.974297 1.06035 0
M  V30 8434 H 779.958 -4.10903 0.934696 0
M  V30 8435 H 778.682 -3.26593 0.0217759 0
M  V30 8436 H 777.341 -2.98012 2.13505 0
M  V30 8437 H 776.989 -4.98378 0.680316 0
M  V30 8438 H 776.689 -5.36611 2.39422 0
M  V30 8439 H 778.213 -5.88695 1.62082 0
M  V30 8440 H 779.627 -4.5651 3.46802 0
M  V30 8441 H 778.024 -4.28023 4.20614 0
M  V30 8442 H 779.094 -2.90407 3.88319 0
M  V30 8443 N 780.437 -1.16799 -1.0581 0
M  V30 8444 C 781.369 -0.836774 -2.13379 0
M  V30 8445 C 782.382 0.158116 -1.6203 0
M  V30 8446 O 783.571 -0.0673211 -1.78373 0
M  V30 8447 C 780.671 -0.225959 -3.38146 0
M  V30 8448 C 779.844 -1.26217 -4.18794 0
M  V30 8449 C 778.903 -0.670257 -5.21914 0
M  V30 8450 O 777.929 -1.34042 -5.53192 0
M  V30 8451 N 779.131 0.540683 -5.77977 0
M  V30 8452 H 781.896 -1.76257 -2.42391 0
M  V30 8453 H 779.457 -1.06599 -1.21853 0
M  V30 8454 H 781.449 0.18317 -4.04285 0
M  V30 8455 H 780.019 0.603494 -3.06719 0
M  V30 8456 H 779.239 -1.84729 -3.48237 0
M  V30 8457 H 780.527 -1.9613 -4.69479 0
M  V30 8458 H 779.925 1.10322 -5.54838 0
M  V30 8459 H 778.482 0.891958 -6.45668 0
M  V30 8460 N 781.915 1.24427 -0.967243 0
M  V30 8461 C 783.161 1.92772 -0.629812 0
M  V30 8462 C 783.494 1.75436 0.832827 0
M  V30 8463 O 782.769 1.10716 1.59913 0
M  V30 8464 C 783.052 3.45798 -1.00477 0
M  V30 8465 C 782.905 3.72304 -2.52407 0
M  V30 8466 C 784.224 4.36787 -0.538999 0
M  V30 8467 H 781.343 0.700099 -0.230282 0
M  V30 8468 H 783.985 1.46805 -1.20616 0
M  V30 8469 H 782.135 3.8508 -0.514336 0
M  V30 8470 H 783.807 3.42584 -3.08924 0
M  V30 8471 H 782.05 3.17472 -2.95625 0
M  V30 8472 H 782.721 4.7937 -2.73693 0
M  V30 8473 H 785.197 4.04877 -0.959874 0
M  V30 8474 H 784.073 5.4259 -0.829926 0
M  V30 8475 H 784.334 4.38527 0.560923 0
M  V30 8476 N 783.393 0.737304 1.3929 0
M  V30 8477 C 784.639 0.295581 2.01241 0
M  V30 8478 C 784.994 -1.10561 1.57461 0
M  V30 8479 O 784.287 -1.74346 0.7946 0
M  V30 8480 C 784.481 0.338438 3.55794 0
M  V30 8481 C 784.31 1.74225 4.14579 0
M  V30 8482 C 783.08 2.35502 4.47065 0
M  V30 8483 C 785.278 2.69623 4.37959 0
M  V30 8484 N 783.26 3.68014 4.91365 0
M  V30 8485 C 784.631 3.86873 4.84489 0
M  V30 8486 C 786.686 2.67355 4.2003 0
M  V30 8487 C 785.389 5.02193 5.14971 0
M  V30 8488 C 787.415 3.8182 4.51627 0
M  V30 8489 C 786.777 4.97806 4.98366 0
M  V30 8490 H 782.876 0.154468 0.766592 0
M  V30 8491 H 785.46 0.963768 1.69173 0
M  V30 8492 H 783.631 -0.299406 3.87244 0
M  V30 8493 H 785.363 -0.122053 4.04516 0
M  V30 8494 H 782.118 1.87406 4.34943 0
M  V30 8495 H 782.542 4.36051 5.17869 0
M  V30 8496 H 787.184 1.78876 3.83097 0
M  V30 8497 H 784.902 5.913 5.50809 0
M  V30 8498 H 788.488 3.81366 4.39376 0
M  V30 8499 H 787.368 5.84909 5.22351 0
M  V30 8500 N 784.871 -1.49948 0.485112 0
M  V30 8501 C 786.12 -2.01589 -0.066765 0
M  V30 8502 C 786.433 -1.371 -1.39509 0
M  V30 8503 O 787.639 -1.79978 -2.03274 0
M  V30 8504 C 786.095 -3.59501 -0.169476 0
M  V30 8505 C 785.703 -4.32955 1.15126 0
M  V30 8506 C 787.447 -4.19138 -0.672564 0
M  V30 8507 C 785.354 -5.82684 1.01158 0
M  V30 8508 H 784.284 -0.753453 -0.0287259 0
M  V30 8509 H 786.935 -1.72632 0.622132 0
M  V30 8510 H 785.317 -3.85106 -0.922471 0
M  V30 8511 H 786.491 -4.19064 1.9163 0
M  V30 8512 H 784.806 -3.84991 1.58654 0
M  V30 8513 H 787.403 -5.28767 -0.794325 0
M  V30 8514 H 787.746 -3.81447 -1.66745 0
M  V30 8515 H 788.279 -3.97793 0.0234415 0
M  V30 8516 H 785.018 -6.24873 1.98025 0
M  V30 8517 H 784.538 -5.99112 0.287151 0
M  V30 8518 H 786.217 -6.43376 0.683847 0
M  V30 8519 N 786.349 -0.21828 -1.56081 0
M  V30 8520 C 787.296 0.693189 -2.20144 0
M  V30 8521 C 788.266 1.19274 -1.15598 0
M  V30 8522 O 789.451 1.25243 -1.4394 0
M  V30 8523 C 786.591 1.89715 -2.88275 0
M  V30 8524 C 785.704 1.4368 -4.07407 0
M  V30 8525 C 784.839 2.59807 -4.63329 0
M  V30 8526 C 783.878 2.10492 -5.74769 0
M  V30 8527 N 783.015 3.1988 -6.24997 0
M  V30 8528 H 787.855 0.14016 -2.9767 0
M  V30 8529 H 785.392 0.0574292 -1.46988 0
M  V30 8530 H 787.35 2.60398 -3.25958 0
M  V30 8531 H 785.98 2.42311 -2.13273 0
M  V30 8532 H 785.032 0.625007 -3.7523 0
M  V30 8533 H 786.344 1.03517 -4.8794 0
M  V30 8534 H 785.498 3.38577 -5.03438 0
M  V30 8535 H 784.237 3.03256 -3.81951 0
M  V30 8536 H 783.242 1.30182 -5.34165 0
M  V30 8537 H 784.467 1.68045 -6.5798 0
M  V30 8538 H 782.413 3.62817 -5.46534 0
M  V30 8539 H 782.33 2.83958 -7.00645 0
M  V30 8540 H 783.598 3.98796 -6.69763 0
M  V30 8541 N 787.827 1.57504 0.0551401 0
M  V30 8542 C 788.737 2.08198 1.08124 0
M  V30 8543 C 789.753 1.01496 1.41331 0
M  V30 8544 O 790.929 1.33073 1.51174 0
M  V30 8545 C 787.994 2.52968 2.37083 0
M  V30 8546 C 787.055 3.7404 2.10696 0
M  V30 8547 C 786.288 4.16665 3.33505 0
M  V30 8548 O 786.511 3.59019 4.4324 0
M  V30 8549 O 785.445 5.09324 3.20737 0
M  V30 8550 H 789.271 2.95977 0.680518 0
M  V30 8551 H 786.856 1.46933 0.270401 0
M  V30 8552 H 788.738 2.82211 3.12946 0
M  V30 8553 H 787.413 1.6831 2.76502 0
M  V30 8554 H 786.32 3.49855 1.32484 0
M  V30 8555 H 787.653 4.59601 1.76148 0
M  V30 8556 N 789.305 -0.326896 1.54172 0
M  V30 8557 C 790.268 -1.38515 1.8261 0
M  V30 8558 C 791.268 -1.44872 0.697771 0
M  V30 8559 O 792.458 -1.44957 0.966078 0
M  V30 8560 C 789.59 -2.77281 1.98313 0
M  V30 8561 H 790.783 -1.14556 2.77159 0
M  V30 8562 H 788.336 -0.562199 1.45839 0
M  V30 8563 H 789.071 -3.065 1.05964 0
M  V30 8564 H 788.856 -2.74061 2.80416 0
M  V30 8565 H 790.346 -3.53845 2.21773 0
M  V30 8566 N 790.784 -1.46188 -0.588786 0
M  V30 8567 C 791.731 -1.56292 -1.69828 0
M  V30 8568 C 792.701 -0.407581 -1.61022 0
M  V30 8569 O 793.886 -0.623532 -1.80324 0
M  V30 8570 C 791.026 -1.55341 -3.08161 0
M  V30 8571 C 790.139 -2.81564 -3.27636 0
M  V30 8572 C 789.274 -2.72158 -4.56183 0
M  V30 8573 C 788.313 -3.93348 -4.68981 0
M  V30 8574 N 787.45 -3.82365 -5.88848 0
M  V30 8575 H 792.29 -2.51066 -1.6053 0
M  V30 8576 H 789.827 -1.24562 -0.782474 0
M  V30 8577 H 791.785 -1.52776 -3.88221 0
M  V30 8578 H 790.415 -0.641034 -3.16371 0
M  V30 8579 H 789.467 -2.94136 -2.41223 0
M  V30 8580 H 790.779 -3.714 -3.32962 0
M  V30 8581 H 789.933 -2.67665 -5.44464 0
M  V30 8582 H 788.672 -1.79953 -4.53286 0
M  V30 8583 H 787.677 -3.98181 -3.7912 0
M  V30 8584 H 788.902 -4.86643 -4.73662 0
M  V30 8585 H 786.848 -2.92942 -5.86959 0
M  V30 8586 H 786.765 -4.65851 -5.95415 0
M  V30 8587 H 788.033 -3.81836 -6.79575 0
M  V30 8588 N 792.262 0.832906 -1.33792 0
M  V30 8589 C 793.21 1.96455 -1.24532 0
M  V30 8590 C 794.204 1.68774 -0.145455 0
M  V30 8591 O 795.41 1.77314 -0.309797 0
M  V30 8592 H 791.785 0.645008 -0.386611 0
M  V30 8593 H 793.756 2.01389 -2.20193 0
M  V30 8594 C 792.505 3.32784 -1.00748 0
M  V30 8595 H 791.828 3.54626 -1.84609 0
M  V30 8596 H 793.268 4.12447 -0.98301 0
M  V30 8597 C 791.727 3.35654 0.289475 0
M  V30 8598 O 792.257 3.80281 1.29419 0
M  V30 8599 N 790.463 2.88843 0.3191 0
M  V30 8600 H 790.01 2.52719 -0.499069 0
M  V30 8601 H 789.968 2.91145 1.18667 0
M  V30 8602 N 793.74 1.17359 1.05189 0
M  V30 8603 C 794.67 0.91365 2.14883 0
M  V30 8604 C 795.651 -0.144365 1.69486 0
M  V30 8605 O 796.836 0.00587861 1.94199 0
M  V30 8606 C 793.966 0.426196 3.44675 0
M  V30 8607 C 792.92 1.4234 4.03638 0
M  V30 8608 C 792.246 0.793902 5.28773 0
M  V30 8609 C 793.546 2.7966 4.41121 0
M  V30 8610 H 795.24 1.831 2.36885 0
M  V30 8611 H 792.786 0.881781 1.13845 0
M  V30 8612 H 794.739 0.231767 4.20762 0
M  V30 8613 H 793.463 -0.526693 3.22325 0
M  V30 8614 H 792.122 1.60457 3.2962 0
M  V30 8615 H 791.77 -0.165824 5.02727 0
M  V30 8616 H 791.47 1.45959 5.69183 0
M  V30 8617 H 792.994 0.609747 6.07548 0
M  V30 8618 H 794.408 2.6526 5.08242 0
M  V30 8619 H 792.805 3.42807 4.92548 0
M  V30 8620 H 793.875 3.34068 3.51464 0
M  V30 8621 N 795.218 -1.23913 0.973828 0
M  V30 8622 C 796.446 -1.96195 0.656891 0
M  V30 8623 C 796.861 -1.72166 -0.774876 0
M  V30 8624 O 796.218 -1.0091 -1.52064 0
M  V30 8625 C 796.269 -3.49342 0.929638 0
M  V30 8626 O 795.99 -3.72553 2.30512 0
M  V30 8627 C 797.491 -4.38833 0.627739 0
M  V30 8628 H 794.711 -0.624841 0.244572 0
M  V30 8629 H 797.255 -1.57579 1.30343 0
M  V30 8630 H 795.41 -3.85999 0.329216 0
M  V30 8631 H 795.824 -4.66893 2.3898 0
M  V30 8632 H 797.298 -5.45117 0.868991 0
M  V30 8633 H 797.775 -4.37009 -0.438104 0
M  V30 8634 H 798.381 -4.07773 1.20834 0
M  V30 8635 N 796.696 -0.74468 -1.38897 0
M  V30 8636 C 797.659 -0.11945 -2.28889 0
M  V30 8637 C 798.659 0.656942 -1.46768 0
M  V30 8638 O 799.849 0.484525 -1.67326 0
M  V30 8639 C 796.981 0.839635 -3.30398 0
M  V30 8640 H 798.174 -0.912414 -2.85683 0
M  V30 8641 H 795.727 -0.511119 -1.47707 0
M  V30 8642 H 796.462 1.6586 -2.78677 0
M  V30 8643 H 796.247 0.285432 -3.9106 0
M  V30 8644 H 797.737 1.27337 -3.97712 0
M  V30 8645 N 798.174 1.49689 -0.493057 0
M  V30 8646 C 799.137 2.27502 0.278485 0
M  V30 8647 C 800.137 1.33184 0.901037 0
M  V30 8648 O 801.327 1.56415 0.766801 0
M  V30 8649 C 798.459 3.10881 1.39878 0
M  V30 8650 H 799.652 2.97163 -0.404219 0
M  V30 8651 H 797.205 1.54324 -0.247774 0
M  V30 8652 H 797.94 2.45767 2.11587 0
M  V30 8653 H 797.725 3.80219 0.957924 0
M  V30 8654 H 799.215 3.69673 1.94247 0
M  V30 8655 N 799.652 0.226554 1.55963 0
M  V30 8656 C 800.599 -0.681504 2.20509 0
M  V30 8657 C 801.569 -1.1866 1.16229 0
M  V30 8658 O 802.754 -1.24478 1.44602 0
M  V30 8659 C 799.894 -1.88183 2.89277 0
M  V30 8660 C 799.007 -1.41517 4.08163 0
M  V30 8661 C 798.142 -2.57346 4.647 0
M  V30 8662 C 797.181 -2.07441 5.75877 0
M  V30 8663 N 796.318 -3.16561 6.26685 0
M  V30 8664 H 801.158 -0.124372 2.9774 0
M  V30 8665 H 798.695 -0.0496333 1.47016 0
M  V30 8666 H 800.653 -2.58666 3.27335 0
M  V30 8667 H 799.283 -2.41177 2.14555 0
M  V30 8668 H 798.335 -0.605099 3.75557 0
M  V30 8669 H 799.647 -1.00928 4.88482 0
M  V30 8670 H 798.801 -3.35903 5.05227 0
M  V30 8671 H 797.54 -3.01227 3.83554 0
M  V30 8672 H 796.545 -1.27347 5.34848 0
M  V30 8673 H 797.77 -1.64554 6.58862 0
M  V30 8674 H 795.716 -3.59914 5.48451 0
M  V30 8675 H 795.633 -2.80239 7.02141 0
M  V30 8676 H 796.901 -3.95238 6.71868 0
M  V30 8677 N 801.13 -1.57531 -0.0467866 0
M  V30 8678 C 802.093 -2.04379 -1.03738 0
M  V30 8679 C 803.093 -0.944881 -1.3011 0
M  V30 8680 O 804.283 -1.20904 -1.25411 0
M  V30 8681 C 801.415 -2.44572 -2.37482 0
M  V30 8682 H 802.608 -2.93142 -0.633063 0
M  V30 8683 H 800.161 -1.53526 -0.293177 0
M  V30 8684 H 800.896 -1.58911 -2.82697 0
M  V30 8685 H 800.681 -3.24785 -2.19675 0
M  V30 8686 H 802.171 -2.81307 -3.08636 0
M  V30 8687 N 802.608 0.318715 -1.54344 0
M  V30 8688 C 803.856 1.054 -1.72439 0
M  V30 8689 C 804.177 1.88388 -0.503495 0
M  V30 8690 O 803.447 1.89866 0.48246 0
M  V30 8691 H 802.027 0.392124 -0.635805 0
M  V30 8692 H 804.689 0.35398 -1.91659 0
M  V30 8693 H 803.785 1.71726 -2.60608 0
M  V30 8694 N 804.086 1.46499 0.581025 0
M  V30 8695 C 805.334 1.51596 1.33653 0
M  V30 8696 C 805.655 0.169859 1.94259 0
M  V30 8697 O 804.925 -0.803776 1.78651 0
M  V30 8698 H 803.505 0.558346 0.496244 0
M  V30 8699 H 806.167 1.8264 0.680338 0
M  V30 8700 H 805.263 2.26956 2.14237 0
M  V30 8701 N 805.565 -0.825799 1.34232 0
M  V30 8702 C 806.793 -1.61363 1.29497 0
M  V30 8703 C 807.208 -1.88341 -0.131536 0
M  V30 8704 O 806.565 -1.47279 -1.07773 0
M  V30 8705 C 806.616 -2.95623 2.08061 0
M  V30 8706 O 806.337 -2.69824 3.45147 0
M  V30 8707 C 807.838 -3.90032 2.10688 0
M  V30 8708 H 805.058 -0.501676 0.445603 0
M  V30 8709 H 807.602 -1.02767 1.76803 0
M  V30 8710 H 805.757 -3.50785 1.64404 0
M  V30 8711 H 806.171 -3.55412 3.85723 0
M  V30 8712 H 807.645 -4.81411 2.70087 0
M  V30 8713 H 808.122 -4.25188 1.10052 0
M  V30 8714 H 808.728 -3.40807 2.54422 0
M  V30 8715 N 807.043 -1.17915 -1.04565 0
M  V30 8716 C 808.268 -0.996749 -1.81878 0
M  V30 8717 C 808.693 0.450169 -1.82634 0
M  V30 8718 O 808.051 1.32268 -1.23995 0
M  V30 8719 C 808.099 -1.55005 -3.25585 0
M  V30 8720 O 807.203 -0.76804 -4.05185 0
M  V30 8721 H 806.544 -0.353456 -0.562108 0
M  V30 8722 H 809.074 -1.56557 -1.31723 0
M  V30 8723 H 809.084 -1.57503 -3.76373 0
M  V30 8724 H 807.759 -2.60327 -3.2435 0
M  V30 8725 H 806.336 -0.81498 -3.63885 0
M  V30 8726 N 808.521 1.23394 -0.980386 0
M  V30 8727 C 809.798 1.87242 -0.565667 0
M  V30 8728 C 810.178 1.88151 0.957197 0
M  V30 8729 O 809.526 1.36309 1.8339 0
M  V30 8730 C 809.736 3.28743 -1.17172 0
M  V30 8731 C 811.084 4.05335 -1.26446 0
M  V30 8732 O 812.108 3.37962 -1.12517 0
M  V30 8733 O 810.967 5.25908 -1.48604 0
M  V30 8734 H 808.061 0.80477 -0.190459 0
M  V30 8735 H 810.607 1.3127 -1.07547 0
M  V30 8736 H 809.379 3.22647 -2.21392 0
M  V30 8737 H 809.002 3.92305 -0.646739 0
M  V30 8738 N 809.999 0.752036 1.385 0
M  V30 8739 C 811.224 0.316993 2.04963 0
M  V30 8740 C 811.649 -1.04582 1.56346 0
M  V30 8741 O 811.007 -1.66616 0.714755 0
M  V30 8742 C 811.055 0.347235 3.58924 0
M  V30 8743 O 810.159 -0.659296 4.07096 0
M  V30 8744 H 809.5 0.140652 0.648932 0
M  V30 8745 H 812.03 1.02272 1.77205 0
M  V30 8746 H 812.04 0.19757 4.07521 0
M  V30 8747 H 810.715 1.34157 3.93668 0
M  V30 8748 H 809.292 -0.474371 3.6987 0
M  V30 8749 N 811.477 -1.49425 0.500989 0
M  V30 8750 C 812.724 -2.02453 -0.0435355 0
M  V30 8751 C 813.052 -1.38067 -1.36995 0
M  V30 8752 O 812.307 -0.505557 -1.89057 0
M  V30 8753 C 812.606 -3.56562 -0.24463 0
M  V30 8754 C 812.272 -4.39585 1.00379 0
M  V30 8755 C 810.934 -4.61992 1.346 0
M  V30 8756 C 813.286 -4.87881 1.83361 0
M  V30 8757 C 810.614 -5.2994 2.51755 0
M  V30 8758 C 812.966 -5.57119 2.99669 0
M  V30 8759 C 811.63 -5.77771 3.3427 0
M  V30 8760 H 810.9 -0.740829 -0.0159308 0
M  V30 8761 H 813.547 -1.79725 0.661143 0
M  V30 8762 H 811.852 -3.77969 -1.03183 0
M  V30 8763 H 813.549 -3.95185 -0.6804 0
M  V30 8764 H 810.139 -4.22385 0.727225 0
M  V30 8765 H 814.323 -4.70398 1.58237 0
M  V30 8766 H 809.579 -5.44133 2.788 0
M  V30 8767 H 813.753 -5.93516 3.64296 0
M  V30 8768 H 811.38 -6.30197 4.25154 0
M  V30 8769 N 812.955 -0.234822 -1.55841 0
M  V30 8770 C 814.201 0.393843 -1.98939 0
M  V30 8771 C 814.534 1.58466 -1.1226 0
M  V30 8772 O 813.809 1.93635 -0.183242 0
M  V30 8773 C 814.092 0.815492 -3.50745 0
M  V30 8774 C 813.945 -0.379878 -4.48193 0
M  V30 8775 C 815.264 1.66687 -4.07312 0
M  V30 8776 H 812.383 0.141681 -0.723253 0
M  V30 8777 H 815.025 -0.333716 -1.87046 0
M  V30 8778 H 813.175 1.43541 -3.6101 0
M  V30 8779 H 814.847 -1.0182 -4.49923 0
M  V30 8780 H 813.09 -1.02507 -4.21515 0
M  V30 8781 H 813.761 -0.0417069 -5.51984 0
M  V30 8782 H 816.237 1.14369 -4.00074 0
M  V30 8783 H 815.113 1.93078 -5.13821 0
M  V30 8784 H 815.374 2.63468 -3.55017 0
M  V30 8785 N 814.433 1.57553 0.0384317 0
M  V30 8786 C 815.38 2.05942 1.04194 0
M  V30 8787 C 816.35 0.946637 1.36484 0
M  V30 8788 O 817.535 1.21658 1.46983 0
M  V30 8789 C 814.675 2.53588 2.34066 0
M  V30 8790 C 813.788 3.7862 2.08017 0
M  V30 8791 C 812.923 4.14915 3.31692 0
M  V30 8792 C 811.962 5.32891 3.01155 0
M  V30 8793 N 811.099 5.64662 4.17254 0
M  V30 8794 H 815.939 2.91429 0.622341 0
M  V30 8795 H 813.476 1.44098 0.295684 0
M  V30 8796 H 815.434 2.79276 3.09937 0
M  V30 8797 H 814.064 1.71031 2.73767 0
M  V30 8798 H 813.116 3.60073 1.22686 0
M  V30 8799 H 814.428 4.64613 1.81484 0
M  V30 8800 H 813.582 4.41681 4.15936 0
M  V30 8801 H 812.321 3.27555 3.6133 0
M  V30 8802 H 811.326 5.05887 2.15311 0
M  V30 8803 H 812.551 6.21896 2.72804 0
M  V30 8804 H 810.497 4.80261 4.46861 0
M  V30 8805 H 810.414 6.45145 3.94112 0
M  V30 8806 H 811.682 5.96 5.02399 0
M  V30 8807 N 815.911 -0.310526 1.54511 0
M  V30 8808 C 817.159 -1.04484 1.72996 0
M  V30 8809 C 817.48 -1.88118 0.513479 0
M  V30 8810 O 816.75 -1.90119 -0.472384 0
M  V30 8811 H 815.33 -0.388747 0.637875 0
M  V30 8812 H 817.992 -0.343811 1.91844 0
M  V30 8813 H 817.088 -1.70341 2.61515 0
M  V30 8814 N 817.389 -1.46805 -0.573248 0
M  V30 8815 C 818.619 -1.55965 -1.35494 0
M  V30 8816 C 819.027 -0.203038 -1.88107 0
M  V30 8817 O 818.37 0.81138 -1.6481 0
M  V30 8818 C 818.432 -2.51168 -2.57206 0
M  V30 8819 C 818.096 -3.97211 -2.25993 0
M  V30 8820 C 819.093 -4.86155 -1.84254 0
M  V30 8821 C 816.778 -4.42419 -2.37846 0
M  V30 8822 C 818.772 -6.18323 -1.54776 0
M  V30 8823 C 816.459 -5.74619 -2.0798 0
M  V30 8824 C 817.457 -6.62392 -1.66511 0
M  V30 8825 O 817.145 -7.92137 -1.37016 0
M  V30 8826 H 816.877 -0.529748 -0.419932 0
M  V30 8827 H 819.431 -1.92998 -0.702914 0
M  V30 8828 H 817.661 -2.09171 -3.25245 0
M  V30 8829 H 819.35 -2.50631 -3.19279 0
M  V30 8830 H 820.116 -4.52481 -1.74603 0
M  V30 8831 H 815.995 -3.74319 -2.69085 0
M  V30 8832 H 819.539 -6.8679 -1.22334 0
M  V30 8833 H 815.436 -6.0784 -2.17258 0
M  V30 8834 H 816.204 -8.04492 -1.50782 0
M  V30 8835 N 818.867 0.818669 -1.34668 0
M  V30 8836 C 819.797 1.94468 -1.29245 0
M  V30 8837 C 820.778 1.69257 -0.169101 0
M  V30 8838 O 821.963 1.90794 -0.362143 0
M  V30 8839 C 819.093 3.31001 -1.05145 0
M  V30 8840 C 818.047 3.70663 -2.13992 0
M  V30 8841 C 817.373 5.05226 -1.75074 0
M  V30 8842 C 818.673 3.82312 -3.55858 0
M  V30 8843 H 820.367 1.99263 -2.2346 0
M  V30 8844 H 817.913 0.957304 -1.07572 0
M  V30 8845 H 819.866 4.09364 -0.999949 0
M  V30 8846 H 818.59 3.26517 -0.0737312 0
M  V30 8847 H 817.249 2.94578 -2.18219 0
M  V30 8848 H 816.897 4.97233 -0.759518 0
M  V30 8849 H 816.597 5.32734 -2.47928 0
M  V30 8850 H 818.121 5.86042 -1.71427 0
M  V30 8851 H 819.535 4.50935 -3.5402 0
M  V30 8852 H 817.932 4.21278 -4.2737 0
M  V30 8853 H 819.002 2.84193 -3.9289 0
M  V30 8854 N 820.346 1.18468 1.03938 0
M  V30 8855 C 821.276 0.936389 2.13902 0
M  V30 8856 C 822.257 -0.126381 1.6963 0
M  V30 8857 O 823.442 0.0264757 1.94182 0
M  V30 8858 C 820.572 0.462729 3.44204 0
M  V30 8859 C 819.526 1.46613 4.02105 0
M  V30 8860 C 818.852 0.84994 5.27902 0
M  V30 8861 C 820.152 2.84323 4.3813 0
M  V30 8862 H 821.846 1.85602 2.3493 0
M  V30 8863 H 819.392 0.893806 1.12903 0
M  V30 8864 H 821.345 0.276382 4.20493 0
M  V30 8865 H 820.069 -0.492477 3.22866 0
M  V30 8866 H 818.728 1.63944 3.27899 0
M  V30 8867 H 818.376 -0.112493 5.02874 0
M  V30 8868 H 818.076 1.51988 5.67603 0
M  V30 8869 H 819.6 0.674152 6.06867 0
M  V30 8870 H 821.014 2.70636 5.054 0
M  V30 8871 H 819.411 3.48012 4.88884 0
M  V30 8872 H 820.481 3.37776 3.47901 0
M  V30 8873 N 821.824 -1.22873 0.986916 0
M  V30 8874 C 823.235 -1.73264 0.695438 0
M  V30 8875 C 823.586 -1.79679 -0.788023 0
M  V30 8876 O 822.711 -1.43905 -1.61618 0
M  V30 8877 C 823.306 -3.14671 1.2557 0
M  V30 8878 C 821.865 -3.62492 1.01373 0
M  V30 8879 C 821.012 -2.40551 1.37951 0
M  V30 8880 H 823.963 -1.08304 1.15999 0
M  V30 8881 H 823.984 -3.75226 0.631322 0
M  V30 8882 H 823.496 -3.0997 2.33539 0
M  V30 8883 H 821.597 -3.72567 -0.0495917 0
M  V30 8884 H 821.71 -4.48944 1.67289 0
M  V30 8885 H 820.074 -2.41875 0.798033 0
M  V30 8886 H 820.857 -2.38516 2.46911 0
M  V30 8887 N 823.302 -0.75937 -1.38099 0
M  V30 8888 C 824.235 -0.0838362 -2.28046 0
M  V30 8889 C 825.213 0.722229 -1.4568 0
M  V30 8890 O 826.397 0.699629 -1.75036 0
M  V30 8891 C 823.524 0.887916 -3.26854 0
M  V30 8892 C 822.57 0.167374 -4.26171 0
M  V30 8893 S 823.403 -1.13592 -5.23314 0
M  V30 8894 C 824.559 -0.167385 -6.25676 0
M  V30 8895 H 824.792 -0.846564 -2.84992 0
M  V30 8896 H 822.325 -0.552206 -1.44188 0
M  V30 8897 H 824.283 1.44322 -3.84293 0
M  V30 8898 H 822.944 1.62366 -2.68879 0
M  V30 8899 H 822.137 0.903567 -4.95834 0
M  V30 8900 H 821.739 -0.316572 -3.72658 0
M  V30 8901 H 824.031 0.664598 -6.74232 0
M  V30 8902 H 824.974 -0.831836 -7.03197 0
M  V30 8903 H 825.382 0.21589 -5.64087 0
M  V30 8904 N 824.78 1.49157 -0.508906 0
M  V30 8905 C 826.196 1.58741 -0.165372 0
M  V30 8906 C 826.396 1.5133 1.33047 0
M  V30 8907 O 825.452 1.39135 2.10707 0
M  V30 8908 C 826.765 2.91217 -0.749194 0
M  V30 8909 C 828.313 3.047 -0.716015 0
M  V30 8910 C 828.788 4.39807 -1.27804 0
M  V30 8911 N 830.279 4.46319 -1.23908 0
M  V30 8912 C 831.014 5.49325 -1.64406 0
M  V30 8913 N 830.51 6.59395 -2.12534 0
M  V30 8914 N 832.303 5.40084 -1.55773 0
M  V30 8915 H 824.454 1.52217 -1.48134 0
M  V30 8916 H 826.717 0.721514 -0.614915 0
M  V30 8917 H 826.423 3.02233 -1.79856 0
M  V30 8918 H 826.297 3.76592 -0.214144 0
M  V30 8919 H 828.684 2.9331 0.324535 0
M  V30 8920 H 828.765 2.2099 -1.2883 0
M  V30 8921 H 828.409 4.5195 -2.31741 0
M  V30 8922 H 828.339 5.2217 -0.681623 0
M  V30 8923 H 830.83 3.67354 -0.886537 0
M  V30 8924 H 831.143 7.34102 -2.41485 0
M  V30 8925 H 829.488 6.60414 -2.16513 0
M  V30 8926 H 832.679 4.52986 -1.17987 0
M  V30 8927 H 832.852 6.20233 -1.87657 0
M  V30 8928 N 826.258 0.243083 1.55714 0
M  V30 8929 C 827.206 -0.674349 2.2261 0
M  V30 8930 C 828.2 -1.18307 1.21243 0
M  V30 8931 O 829.406 -1.1404 1.39265 0
M  V30 8932 H 825.781 -0.235941 0.714028 0
M  V30 8933 H 827.752 -0.0869446 2.98273 0
M  V30 8934 C 826.501 -1.86206 2.93637 0
M  V30 8935 H 825.824 -1.47975 3.71407 0
M  V30 8936 H 827.264 -2.4813 3.43813 0
M  V30 8937 C 825.723 -2.73084 1.97298 0
M  V30 8938 O 826.253 -3.72497 1.50361 0
M  V30 8939 N 824.459 -2.39571 1.64482 0
M  V30 8940 H 824.006 -1.5878 2.02846 0
M  V30 8941 H 823.964 -2.97976 1.00288 0
M  V30 8942 N 827.736 -1.57571 -0.0300757 0
M  V30 8943 C 828.683 -2.06492 -1.03101 0
M  V30 8944 C 829.653 -0.953862 -1.3598 0
M  V30 8945 O 830.838 -1.22436 -1.46335 0
M  V30 8946 C 827.978 -2.54826 -2.32718 0
M  V30 8947 C 827.091 -3.79718 -2.06006 0
M  V30 8948 C 826.226 -4.16668 -3.29487 0
M  V30 8949 C 825.265 -5.3448 -2.98324 0
M  V30 8950 N 824.402 -5.66867 -4.14254 0
M  V30 8951 H 829.242 -2.91755 -0.606877 0
M  V30 8952 H 826.779 -1.44252 -0.288038 0
M  V30 8953 H 828.737 -2.80916 -3.08451 0
M  V30 8954 H 827.367 -1.72481 -2.72856 0
M  V30 8955 H 826.419 -3.60718 -1.20774 0
M  V30 8956 H 827.731 -4.65569 -1.79017 0
M  V30 8957 H 826.885 -4.43881 -4.13588 0
M  V30 8958 H 825.624 -3.29466 -3.59588 0
M  V30 8959 H 824.629 -5.07021 -2.12625 0
M  V30 8960 H 825.854 -6.23334 -2.69502 0
M  V30 8961 H 823.8 -4.82625 -4.44308 0
M  V30 8962 H 823.717 -6.47226 -3.90685 0
M  V30 8963 H 824.985 -5.98656 -4.99231 0
M  V30 8964 N 829.214 0.302327 -1.54673 0
M  V30 8965 C 830.177 1.35592 -1.8479 0
M  V30 8966 C 831.177 1.43743 -0.72073 0
M  V30 8967 O 832.367 1.43402 -0.989017 0
M  V30 8968 C 829.499 2.74091 -2.02699 0
M  V30 8969 H 830.692 1.10132 -2.78946 0
M  V30 8970 H 828.245 0.538926 -1.46715 0
M  V30 8971 H 828.98 3.04775 -1.10826 0
M  V30 8972 H 828.765 2.69565 -2.8474 0
M  V30 8973 H 830.255 3.50272 -2.27374 0
M  V30 8974 N 830.692 1.47107 0.565454 0
M  V30 8975 C 831.917 1.57153 1.35343 0
M  V30 8976 C 832.342 0.219247 1.86818 0
M  V30 8977 O 831.7 -0.803539 1.62521 0
M  V30 8978 C 831.748 2.59387 2.50501 0
M  V30 8979 O 830.852 2.14086 3.52478 0
M  V30 8980 H 830.193 0.528209 0.402357 0
M  V30 8981 H 832.723 1.92821 0.684189 0
M  V30 8982 H 832.733 2.79546 2.97184 0
M  V30 8983 H 831.408 3.57579 2.12391 0
M  V30 8984 H 829.985 2.03991 3.12157 0
M  V30 8985 N 832.17 -0.811516 1.35101 0
M  V30 8986 C 833.117 -1.92308 1.27617 0
M  V30 8987 C 834.087 -1.6543 0.149091 0
M  V30 8988 O 835.272 -1.8789 0.331974 0
M  V30 8989 C 832.412 -3.28768 1.04908 0
M  V30 8990 C 831.525 -3.67865 2.26493 0
M  V30 8991 C 830.66 -4.9333 1.96974 0
M  V30 8992 C 829.699 -5.25041 3.1464 0
M  V30 8993 N 828.836 -6.41685 2.84929 0
M  V30 8994 H 833.676 -1.98041 2.22674 0
M  V30 8995 H 831.213 -0.968755 1.10696 0
M  V30 8996 H 833.171 -4.07426 0.897749 0
M  V30 8997 H 831.801 -3.22517 0.135151 0
M  V30 8998 H 830.853 -2.84507 2.52507 0
M  V30 8999 H 832.165 -3.87263 3.14371 0
M  V30 9000 H 831.319 -5.79803 1.78643 0
M  V30 9001 H 830.058 -4.75958 1.06374 0
M  V30 9002 H 829.063 -4.3706 3.33554 0
M  V30 9003 H 830.288 -5.44346 4.06035 0
M  V30 9004 H 828.234 -6.25747 1.96918 0
M  V30 9005 H 828.151 -6.6131 3.66341 0
M  V30 9006 H 829.419 -7.31198 2.70128 0
M  V30 9007 N 833.648 -1.19017 -1.03309 0
M  V30 9008 C 835.064 -0.941483 -1.28873 0
M  V30 9009 C 835.264 0.388587 -1.97718 0
M  V30 9010 O 834.32 1.12111 -2.26246 0
M  V30 9011 C 835.633 -2.11249 -2.13996 0
M  V30 9012 C 837.181 -2.15164 -2.27318 0
M  V30 9013 C 837.656 -3.31704 -3.15811 0
M  V30 9014 N 839.147 -3.31613 -3.23399 0
M  V30 9015 C 839.882 -4.18431 -3.9205 0
M  V30 9016 N 839.378 -5.15397 -4.62966 0
M  V30 9017 N 841.171 -4.06321 -3.88406 0
M  V30 9018 H 833.322 -2.04599 -0.570343 0
M  V30 9019 H 835.585 -0.894406 -0.314232 0
M  V30 9020 H 835.291 -3.07482 -1.70727 0
M  V30 9021 H 835.165 -2.07955 -3.14697 0
M  V30 9022 H 837.552 -1.19504 -2.6982 0
M  V30 9023 H 837.633 -2.22513 -1.26182 0
M  V30 9024 H 837.277 -4.2764 -2.74019 0
M  V30 9025 H 837.207 -3.21592 -4.16997 0
M  V30 9026 H 839.698 -2.6142 -2.72888 0
M  V30 9027 H 840.011 -5.78 -5.12968 0
M  V30 9028 H 838.356 -5.19349 -4.61846 0
M  V30 9029 H 841.547 -3.29849 -3.3214 0
M  V30 9030 H 841.72 -4.74196 -4.41635 0
M  V30 9031 N 835.127 1.22348 -0.993418 0
M  V30 9032 C 836.074 2.24294 -0.544118 0
M  V30 9033 C 837.044 1.60602 0.42381 0
M  V30 9034 O 838.229 1.87952 0.328453 0
M  V30 9035 C 835.369 3.44837 0.134578 0
M  V30 9036 C 834.482 4.23043 -0.875151 0
M  V30 9037 C 833.617 5.30928 -0.169919 0
M  V30 9038 C 832.656 6.00853 -1.16798 0
M  V30 9039 N 831.793 7.00381 -0.491021 0
M  V30 9040 H 836.633 2.6209 -1.4182 0
M  V30 9041 H 834.17 1.2881 -0.710384 0
M  V30 9042 H 836.128 4.13625 0.544998 0
M  V30 9043 H 834.758 3.07804 0.972446 0
M  V30 9044 H 833.81 3.53546 -1.40389 0
M  V30 9045 H 835.122 4.71237 -1.63516 0
M  V30 9046 H 834.276 6.05972 0.297205 0
M  V30 9047 H 833.015 4.8371 0.622586 0
M  V30 9048 H 832.02 5.24591 -1.64573 0
M  V30 9049 H 833.245 6.50159 -1.96137 0
M  V30 9050 H 831.191 6.55393 0.282037 0
M  V30 9051 H 831.108 7.46584 -1.18947 0
M  V30 9052 H 832.376 7.79486 -0.0467169 0
M  V30 9053 N 836.605 0.766683 1.37694 0
M  V30 9054 C 837.833 0.339939 2.04088 0
M  V30 9055 C 838.248 -1.03617 1.57826 0
M  V30 9056 O 837.605 -1.6605 0.757214 0
M  V30 9057 C 837.656 0.368269 3.59619 0
M  V30 9058 O 837.377 1.69009 4.04188 0
M  V30 9059 C 838.878 -0.0707053 4.43244 0
M  V30 9060 H 836.098 0.143189 0.655544 0
M  V30 9061 H 838.642 1.03919 1.76128 0
M  V30 9062 H 836.797 -0.282359 3.8637 0
M  V30 9063 H 837.211 1.62523 4.98685 0
M  V30 9064 H 838.685 0.000273538 5.52 0
M  V30 9065 H 839.162 -1.1204 4.24669 0
M  V30 9066 H 839.768 0.551543 4.21709 0
M  V30 9067 N 838.083 -1.48885 0.516809 0
M  V30 9068 C 839.494 -1.86557 0.0729921 0
M  V30 9069 C 839.845 -1.42767 -1.34581 0
M  V30 9070 O 838.97 -0.812514 -2.00567 0
M  V30 9071 C 839.565 -3.38567 0.125686 0
M  V30 9072 C 838.124 -3.75481 -0.262867 0
M  V30 9073 C 837.271 -2.72913 0.491281 0
M  V30 9074 H 840.222 -1.40978 0.728767 0
M  V30 9075 H 840.243 -3.74629 -0.665831 0
M  V30 9076 H 839.755 -3.70408 1.15842 0
M  V30 9077 H 837.856 -3.49251 -1.29824 0
M  V30 9078 H 837.969 -4.79052 0.067579 0
M  V30 9079 H 836.333 -2.54627 -0.0608525 0
M  V30 9080 H 837.116 -3.07599 1.5244 0
M  V30 9081 N 839.561 -0.251338 -1.55583 0
M  V30 9082 C 840.807 0.37272 -1.99346 0
M  V30 9083 C 841.14 1.57266 -1.13934 0
M  V30 9084 O 840.415 1.9343 -0.20377 0
M  V30 9085 C 840.698 0.778245 -3.5159 0
M  V30 9086 C 840.551 -0.427394 -4.47765 0
M  V30 9087 C 841.87 1.62358 -4.09057 0
M  V30 9088 H 838.989 0.134002 -0.724715 0
M  V30 9089 H 841.631 -0.353536 -1.86682 0
M  V30 9090 H 839.781 1.39704 -3.62512 0
M  V30 9091 H 841.453 -1.06586 -4.48818 0
M  V30 9092 H 839.696 -1.06972 -4.20404 0
M  V30 9093 H 840.367 -0.10025 -5.51909 0
M  V30 9094 H 842.843 1.1012 -4.01264 0
M  V30 9095 H 841.719 1.87617 -5.1584 0
M  V30 9096 H 841.98 2.59688 -3.57791 0
M  V30 9097 N 841.039 1.57585 0.0217189 0
M  V30 9098 C 841.972 2.02435 1.05334 0
M  V30 9099 C 842.95 0.91006 1.34747 0
M  V30 9100 O 844.134 1.17648 1.47279 0
M  V30 9101 C 841.261 2.40362 2.38629 0
M  V30 9102 C 840.307 3.62307 2.25025 0
M  V30 9103 S 841.14 5.11141 1.59673 0
M  V30 9104 C 842.296 5.52316 2.94444 0
M  V30 9105 H 842.529 2.89621 0.671354 0
M  V30 9106 H 840.062 1.52648 0.231925 0
M  V30 9107 H 842.02 2.62883 3.15282 0
M  V30 9108 H 840.681 1.53615 2.73973 0
M  V30 9109 H 839.874 3.86523 3.23443 0
M  V30 9110 H 839.476 3.39675 1.56515 0
M  V30 9111 H 841.768 5.53449 3.90768 0
M  V30 9112 H 842.711 6.52539 2.74952 0
M  V30 9113 H 843.119 4.79834 2.97355 0
M  V30 9114 N 842.517 -0.29412 1.54831 0
M  V30 9115 C 843.464 -1.36296 1.86258 0
M  V30 9116 C 844.434 -1.50061 0.712097 0
M  V30 9117 O 845.619 -1.64809 0.961381 0
M  V30 9118 C 842.759 -2.72187 2.12151 0
M  V30 9119 C 841.872 -2.66816 3.39755 0
M  V30 9120 C 841.007 -3.94747 3.55455 0
M  V30 9121 C 840.046 -3.838 4.76827 0
M  V30 9122 N 839.183 -5.03521 4.89296 0
M  V30 9123 H 844.023 -1.08796 2.7743 0
M  V30 9124 H 841.56 -0.526069 1.37371 0
M  V30 9125 H 843.518 -3.51225 2.25159 0
M  V30 9126 H 842.148 -2.97934 1.24237 0
M  V30 9127 H 841.2 -1.79605 3.3533 0
M  V30 9128 H 842.512 -2.5462 4.28917 0
M  V30 9129 H 841.666 -4.82223 3.68166 0
M  V30 9130 H 840.405 -4.09785 2.64438 0
M  V30 9131 H 839.41 -2.94708 4.64141 0
M  V30 9132 H 840.635 -3.70301 5.69258 0
M  V30 9133 H 838.581 -5.1901 4.01204 0
M  V30 9134 H 838.498 -4.93775 5.72471 0
M  V30 9135 H 839.766 -5.92629 5.06371 0
M  V30 9136 N 843.995 -1.47404 -0.557645 0
M  V30 9137 C 844.942 -1.59859 -1.66475 0
M  V30 9138 C 845.912 -0.441644 -1.60121 0
M  V30 9139 O 847.097 -0.661641 -1.78961 0
M  V30 9140 C 844.237 -1.61843 -3.04797 0
M  V30 9141 C 843.35 -2.8845 -3.2159 0
M  V30 9142 C 842.485 -2.81773 -4.50308 0
M  V30 9143 C 841.524 -4.03208 -4.60532 0
M  V30 9144 N 840.661 -3.94769 -5.80604 0
M  V30 9145 H 845.501 -2.54415 -1.55168 0
M  V30 9146 H 843.038 -1.26194 -0.755876 0
M  V30 9147 H 844.996 -1.60976 -3.84893 0
M  V30 9148 H 843.626 -0.707997 -3.1494 0
M  V30 9149 H 842.678 -2.99186 -2.34929 0
M  V30 9150 H 843.99 -3.78379 -3.25009 0
M  V30 9151 H 843.144 -2.79153 -5.38663 0
M  V30 9152 H 841.883 -1.89527 -4.49367 0
M  V30 9153 H 840.888 -4.06133 -3.70589 0
M  V30 9154 H 842.113 -4.9658 -4.63233 0
M  V30 9155 H 840.059 -3.05326 -5.80613 0
M  V30 9156 H 839.976 -4.78375 -5.854 0
M  V30 9157 H 841.244 -3.96165 -6.71322 0
M  V30 9158 N 845.473 0.80434 -1.35529 0
M  V30 9159 C 846.701 1.59283 -1.32048 0
M  V30 9160 C 847.116 1.88527 0.101556 0
M  V30 9161 O 846.473 1.48975 1.05417 0
M  V30 9162 C 846.524 2.92276 -2.12737 0
M  V30 9163 O 846.245 2.64299 -3.49396 0
M  V30 9164 C 847.746 3.86631 -2.16867 0
M  V30 9165 H 844.966 0.494523 -0.453528 0
M  V30 9166 H 847.51 0.999415 -1.78415 0
M  V30 9167 H 845.665 3.48125 -1.69964 0
M  V30 9168 H 846.079 3.4923 -3.91329 0
M  V30 9169 H 847.553 4.77053 -2.77712 0
M  V30 9170 H 848.03 4.23384 -1.16803 0
M  V30 9171 H 848.636 3.36717 -2.59811 0
M  V30 9172 N 846.951 1.19563 1.02676 0
M  V30 9173 C 847.881 0.959024 2.12897 0
M  V30 9174 C 848.862 -0.108382 1.69754 0
M  V30 9175 O 850.047 0.0470698 1.94143 0
M  V30 9176 C 847.177 0.499211 3.43693 0
M  V30 9177 C 846.131 1.5087 4.00528 0
M  V30 9178 C 845.457 0.905884 5.2697 0
M  V30 9179 C 846.757 2.88954 4.3509 0
M  V30 9180 H 848.451 1.88084 2.32948 0
M  V30 9181 H 845.997 0.905731 1.11949 0
M  V30 9182 H 847.95 0.320965 4.20176 0
M  V30 9183 H 846.674 -0.458205 3.2337 0
M  V30 9184 H 845.333 1.67413 3.26142 0
M  V30 9185 H 844.981 -0.0591506 5.02965 0
M  V30 9186 H 844.681 1.58 5.65959 0
M  V30 9187 H 846.205 0.73848 6.06118 0
M  V30 9188 H 847.619 2.75981 5.02501 0
M  V30 9189 H 846.016 3.53177 4.85166 0
M  V30 9190 H 847.086 3.41447 3.44299 0
M  V30 9191 N 848.429 -1.21819 0.999893 0
M  V30 9192 C 849.377 -2.26027 0.549047 0
M  V30 9193 C 850.371 -1.64516 -0.403826 0
M  V30 9194 O 851.577 -1.77878 -0.275578 0
M  V30 9195 H 847.952 -0.734958 0.159185 0
M  V30 9196 H 849.923 -2.61398 1.43923 0
M  V30 9197 C 848.672 -3.47514 -0.11369 0
M  V30 9198 H 847.995 -3.95112 0.610482 0
M  V30 9199 H 849.435 -4.22179 -0.3925 0
M  V30 9200 C 847.894 -3.08614 -1.35126 0
M  V30 9201 O 848.424 -3.1864 -2.44605 0
M  V30 9202 N 846.63 -2.63327 -1.22911 0
M  V30 9203 H 846.177 -2.55369 -0.338288 0
M  V30 9204 H 846.135 -2.37668 -2.05818 0
M  V30 9205 N 849.908 -0.773975 -1.37286 0
M  V30 9206 C 851.319 -0.404433 -1.82267 0
M  V30 9207 C 851.67 1.06971 -1.64474 0
M  V30 9208 O 850.795 1.82867 -1.15708 0
M  V30 9209 C 851.39 -0.727298 -3.30902 0
M  V30 9210 C 849.949 -0.410784 -3.74152 0
M  V30 9211 C 849.096 -0.969983 -2.59782 0
M  V30 9212 H 852.047 -0.968437 -1.25726 0
M  V30 9213 H 852.068 -0.0127575 -3.80498 0
M  V30 9214 H 851.58 -1.80026 -3.4382 0
M  V30 9215 H 849.681 0.65477 -3.66802 0
M  V30 9216 H 849.794 -0.920592 -4.70172 0
M  V30 9217 H 848.158 -0.394094 -2.51633 0
M  V30 9218 H 848.941 -2.04839 -2.75492 0
M  V30 9219 N 851.386 1.48609 -0.524698 0
M  V30 9220 C 852.336 2.26505 0.260696 0
M  V30 9221 C 853.32 1.32378 0.914597 0
M  V30 9222 O 854.512 1.5695 0.818277 0
M  V30 9223 C 851.641 3.17313 1.31024 0
M  V30 9224 C 850.727 4.18911 0.661391 0
M  V30 9225 N 851.118 5.05183 -0.24981 0
M  V30 9226 C 849.416 4.36425 0.91922 0
M  V30 9227 C 850.117 5.78348 -0.623598 0
M  V30 9228 N 849.093 5.43598 0.0140839 0
M  V30 9229 H 852.895 2.90582 -0.440388 0
M  V30 9230 H 850.409 1.5875 -0.342364 0
M  V30 9231 H 852.406 3.71772 1.88656 0
M  V30 9232 H 851.066 2.54791 2.01275 0
M  V30 9233 H 852.077 5.1415 -0.622093 0
M  V30 9234 H 848.754 3.85095 1.6127 0
M  V30 9235 H 850.144 6.57775 -1.37046 0
M  V30 9236 N 852.864 0.259585 1.55447 0
M  V30 9237 C 854.094 -0.364863 2.03353 0
M  V30 9238 C 854.502 -1.5116 1.13786 0
M  V30 9239 O 853.845 -1.83109 0.147283 0
M  V30 9240 C 853.907 -0.922587 3.4746 0
M  V30 9241 C 853.571 0.0935207 4.56904 0
M  V30 9242 C 854.568 0.907571 5.11917 0
M  V30 9243 C 852.253 0.223276 5.01804 0
M  V30 9244 C 854.247 1.83771 6.10333 0
M  V30 9245 C 851.934 1.15691 6.00049 0
M  V30 9246 C 852.932 1.96264 6.54194 0
M  V30 9247 O 852.62 2.88052 7.50521 0
M  V30 9248 H 852.352 -0.0893313 0.670072 0
M  V30 9249 H 854.906 0.384821 2.01763 0
M  V30 9250 H 853.136 -1.72206 3.4624 0
M  V30 9251 H 854.825 -1.45846 3.78792 0
M  V30 9252 H 855.591 0.817979 4.78052 0
M  V30 9253 H 851.47 -0.393834 4.59315 0
M  V30 9254 H 855.014 2.46703 6.52521 0
M  V30 9255 H 850.911 1.24738 6.33333 0
M  V30 9256 H 851.679 2.82557 7.68182 0
M  V30 9257 N 854.342 -1.57594 -0.0133615 0
M  V30 9258 C 855.29 -2.08682 -1.02736 0
M  V30 9259 C 856.284 -1.00391 -1.36448 0
M  V30 9260 O 857.49 -1.18868 -1.35168 0
M  V30 9261 H 853.865 -0.666158 -0.34891 0
M  V30 9262 H 855.836 -2.9289 -0.570815 0
M  V30 9263 C 854.585 -2.5945 -2.31476 0
M  V30 9264 H 853.908 -3.42401 -2.06401 0
M  V30 9265 H 855.348 -2.98888 -3.00735 0
M  V30 9266 C 853.807 -1.50266 -3.01533 0
M  V30 9267 O 854.337 -0.877875 -3.9199 0
M  V30 9268 N 852.543 -1.23336 -2.63129 0
M  V30 9269 H 852.09 -1.74327 -1.89652 0
M  V30 9270 H 852.048 -0.504987 -3.10318 0
M  V30 9271 N 855.82 0.285905 -1.54985 0
M  V30 9272 C 856.77 1.35505 -1.83364 0
M  V30 9273 C 857.754 1.45273 -0.691698 0
M  V30 9274 O 858.946 1.49172 -0.952725 0
M  V30 9275 C 856.075 2.71756 -2.0977 0
M  V30 9276 C 855.161 2.6615 -3.30189 0
M  V30 9277 N 855.552 2.30161 -4.50399 0
M  V30 9278 C 853.85 2.97232 -3.3252 0
M  V30 9279 C 854.551 2.34228 -5.32459 0
M  V30 9280 N 853.527 2.72187 -4.70548 0
M  V30 9281 H 857.329 1.06668 -2.7386 0
M  V30 9282 H 854.843 0.494521 -1.54688 0
M  V30 9283 H 856.84 3.48864 -2.28253 0
M  V30 9284 H 855.5 3.01492 -1.20551 0
M  V30 9285 H 856.511 2.02358 -4.7673 0
M  V30 9286 H 853.188 3.31764 -2.53454 0
M  V30 9287 H 854.578 2.09074 -6.38543 0
M  V30 9288 N 857.298 1.47698 0.54982 0
M  V30 9289 C 858.526 1.5833 1.33188 0
M  V30 9290 C 858.941 0.236193 1.87317 0
M  V30 9291 O 858.298 -0.77167 1.65383 0
M  V30 9292 C 858.349 2.61438 2.49664 0
M  V30 9293 O 858.07 3.9092 1.97771 0
M  V30 9294 C 859.571 2.82324 3.41772 0
M  V30 9295 H 856.791 0.53443 0.405741 0
M  V30 9296 H 859.335 1.93375 0.665309 0
M  V30 9297 H 857.49 2.29307 3.12245 0
M  V30 9298 H 857.904 4.47323 2.73866 0
M  V30 9299 H 859.378 3.58316 4.19897 0
M  V30 9300 H 859.855 1.90416 3.95776 0
M  V30 9301 H 860.461 3.15682 2.85 0
M  V30 9302 N 858.776 -0.797141 1.35954 0
M  V30 9303 C 860.023 -1.55468 1.29754 0
M  V30 9304 C 860.351 -1.94095 -0.125391 0
M  V30 9305 O 859.606 -1.62341 -1.09288 0
M  V30 9306 C 859.905 -2.84847 2.15863 0
M  V30 9307 C 859.571 -2.65394 3.64523 0
M  V30 9308 C 858.233 -2.59796 4.05042 0
M  V30 9309 C 860.585 -2.4727 4.58811 0
M  V30 9310 C 857.913 -2.3403 5.38002 0
M  V30 9311 C 860.265 -2.23032 5.91979 0
M  V30 9312 C 858.929 -2.15862 6.31633 0
M  V30 9313 H 858.199 -0.568897 0.474803 0
M  V30 9314 H 860.846 -0.920299 1.67937 0
M  V30 9315 H 859.151 -3.52712 1.70591 0
M  V30 9316 H 860.848 -3.42597 2.08395 0
M  V30 9317 H 857.438 -2.70602 3.32374 0
M  V30 9318 H 861.622 -2.506 4.28384 0
M  V30 9319 H 856.878 -2.26956 5.67715 0
M  V30 9320 H 861.052 -2.08001 6.64612 0
M  V30 9321 H 858.679 -1.9566 7.34589 0
M  V30 9322 N 860.254 -1.20106 -1.0204 0
M  V30 9323 C 861.5 -1.01039 -1.75838 0
M  V30 9324 C 861.833 0.456819 -1.88751 0
M  V30 9325 O 861.108 1.33919 -1.41053 0
M  V30 9326 C 861.391 -1.69009 -3.17975 0
M  V30 9327 C 861.244 -3.2315 -3.1288 0
M  V30 9328 C 862.563 -1.42005 -4.16561 0
M  V30 9329 H 859.682 -0.368465 -0.638281 0
M  V30 9330 H 862.324 -1.48066 -1.19064 0
M  V30 9331 H 860.474 -1.29026 -3.66449 0
M  V30 9332 H 862.146 -3.72402 -2.72239 0
M  V30 9333 H 860.389 -3.54253 -2.50374 0
M  V30 9334 H 861.06 -3.65862 -4.13339 0
M  V30 9335 H 863.536 -1.76685 -3.76725 0
M  V30 9336 H 862.412 -1.92101 -5.14187 0
M  V30 9337 H 862.673 -0.346884 -4.40737 0
M  V30 9338 N 861.732 1.21287 -1.00634 0
M  V30 9339 C 862.962 1.94103 -0.70765 0
M  V30 9340 C 863.37 1.74382 0.733991 0
M  V30 9341 O 862.713 1.04843 1.50843 0
M  V30 9342 C 862.775 3.46705 -0.950581 0
M  V30 9343 C 862.439 3.90176 -2.37932 0
M  V30 9344 C 863.436 3.96769 -3.35961 0
M  V30 9345 C 861.121 4.22453 -2.71733 0
M  V30 9346 C 863.115 4.35034 -4.65858 0
M  V30 9347 C 860.802 4.60394 -4.01846 0
M  V30 9348 C 861.8 4.66656 -4.9872 0
M  V30 9349 O 861.488 5.03732 -6.26505 0
M  V30 9350 H 861.22 0.62405 -0.259881 0
M  V30 9351 H 863.774 1.55015 -1.34757 0
M  V30 9352 H 862.004 3.85868 -0.253492 0
M  V30 9353 H 863.693 4.00741 -0.645069 0
M  V30 9354 H 864.459 3.72009 -3.11182 0
M  V30 9355 H 860.338 4.16776 -1.97025 0
M  V30 9356 H 863.882 4.39836 -5.4147 0
M  V30 9357 H 859.779 4.84609 -4.26409 0
M  V30 9358 H 860.547 5.21761 -6.30641 0
M  V30 9359 N 863.21 0.781244 1.36873 0
M  V30 9360 C 864.158 0.161889 2.32036 0
M  V30 9361 C 865.152 -0.674225 1.55405 0
M  V30 9362 O 866.358 -0.570223 1.70729 0
M  V30 9363 H 862.733 0.0335702 0.75125 0
M  V30 9364 H 864.704 0.980078 2.81846 0
M  V30 9365 C 863.453 -0.695352 3.40676 0
M  V30 9366 H 862.776 -0.0613425 3.99753 0
M  V30 9367 H 864.216 -1.09553 4.09602 0
M  V30 9368 C 862.675 -1.85008 2.81556 0
M  V30 9369 O 863.205 -2.94616 2.73065 0
M  V30 9370 N 861.411 -1.65364 2.38962 0
M  V30 9371 H 860.958 -0.762106 2.46068 0
M  V30 9372 H 860.916 -2.42789 1.99752 0
M  V30 9373 N 864.689 -1.48329 0.532571 0
M  V30 9374 C 865.937 -2.021 -0.000581206 0
M  V30 9375 C 866.258 -1.4117 -1.34522 0
M  V30 9376 O 865.528 -0.578005 -1.87179 0
M  V30 9377 H 864.108 -0.746993 -0.00320281 0
M  V30 9378 H 866.77 -1.82011 0.696991 0
M  V30 9379 H 865.866 -3.11917 -0.106991 0
M  V30 9380 N 866.167 -0.267825 -1.55308 0
M  V30 9381 C 867.413 0.351556 -1.9973 0
M  V30 9382 C 867.746 1.56049 -1.15596 0
M  V30 9383 O 867.021 1.93203 -0.224274 0
M  V30 9384 C 867.304 0.74091 -3.52395 0
M  V30 9385 C 867.157 -0.474861 -4.47286 0
M  V30 9386 C 868.476 1.5801 -4.10756 0
M  V30 9387 H 865.595 0.126308 -0.726096 0
M  V30 9388 H 868.237 -0.373316 -1.86296 0
M  V30 9389 H 866.387 1.35851 -3.63973 0
M  V30 9390 H 868.059 -1.1134 -4.47662 0
M  V30 9391 H 866.302 -1.11425 -4.19246 0
M  V30 9392 H 866.973 -0.158782 -5.51772 0
M  V30 9393 H 869.449 1.05857 -4.0241 0
M  V30 9394 H 868.325 1.82135 -5.17801 0
M  V30 9395 H 868.586 2.55878 -3.60526 0
M  V30 9396 N 867.645 1.57599 0.00500368 0
M  V30 9397 C 869.061 1.55463 0.361015 0
M  V30 9398 C 869.261 0.997051 1.75103 0
M  V30 9399 O 868.317 0.628661 2.44549 0
M  V30 9400 C 869.63 2.99734 0.240828 0
M  V30 9401 C 871.178 3.11399 0.316138 0
M  V30 9402 C 871.653 4.57446 0.22513 0
M  V30 9403 N 873.144 4.62334 0.283186 0
M  V30 9404 C 873.879 5.72914 0.23603 0
M  V30 9405 N 873.375 6.92659 0.139762 0
M  V30 9406 N 875.168 5.61364 0.287529 0
M  V30 9407 H 867.319 1.92185 -0.904359 0
M  V30 9408 H 869.582 0.882529 -0.34619 0
M  V30 9409 H 869.288 3.44348 -0.715343 0
M  V30 9410 H 869.162 3.63009 1.02491 0
M  V30 9411 H 871.549 2.66718 1.26275 0
M  V30 9412 H 871.63 2.50911 -0.497725 0
M  V30 9413 H 871.274 5.02801 -0.717917 0
M  V30 9414 H 871.204 5.15874 1.05742 0
M  V30 9415 H 873.695 3.7619 0.359123 0
M  V30 9416 H 874.008 7.72722 0.10954 0
M  V30 9417 H 872.353 6.9492 0.105462 0
M  V30 9418 H 875.544 4.66707 0.360897 0
M  V30 9419 H 875.717 6.47528 0.247313 0
M  V30 9420 N 869.123 -0.277682 1.55134 0
M  V30 9421 C 870.053 -1.34742 1.90701 0
M  V30 9422 C 871.034 -1.51757 0.768354 0
M  V30 9423 O 872.219 -1.64879 1.02609 0
M  V30 9424 C 869.349 -2.70775 2.17481 0
M  V30 9425 C 868.303 -2.68497 3.33307 0
M  V30 9426 C 867.629 -4.08037 3.45557 0
M  V30 9427 C 868.929 -2.28178 4.69821 0
M  V30 9428 H 870.623 -1.05224 2.803 0
M  V30 9429 H 868.169 -0.504738 1.34864 0
M  V30 9430 H 870.122 -3.45719 2.40949 0
M  V30 9431 H 868.846 -3.01867 1.24676 0
M  V30 9432 H 867.505 -1.9601 3.09799 0
M  V30 9433 H 867.153 -4.36344 2.50226 0
M  V30 9434 H 866.853 -4.07409 4.23429 0
M  V30 9435 H 868.377 -4.84726 3.71312 0
M  V30 9436 H 869.791 -2.92843 4.92865 0
M  V30 9437 H 868.188 -2.3872 5.50575 0
M  V30 9438 H 869.258 -1.23308 4.6896 0
M  V30 9439 N 870.601 -1.47988 -0.541979 0
M  V30 9440 C 871.511 -1.64276 -1.67483 0
M  V30 9441 C 872.527 -0.525387 -1.65879 0
M  V30 9442 O 873.703 -0.794912 -1.85049 0
M  V30 9443 C 870.768 -1.66744 -3.03969 0
M  V30 9444 C 869.829 -2.90021 -3.16522 0
M  V30 9445 C 869.062 -2.92362 -4.46498 0
M  V30 9446 O 869.285 -2.03462 -5.32878 0
M  V30 9447 O 868.219 -3.84399 -4.63164 0
M  V30 9448 H 872.045 -2.60164 -1.5668 0
M  V30 9449 H 869.63 -1.31249 -0.71372 0
M  V30 9450 H 871.512 -1.70958 -3.85164 0
M  V30 9451 H 870.187 -0.740277 -3.15122 0
M  V30 9452 H 869.094 -2.91345 -2.34667 0
M  V30 9453 H 870.427 -3.82082 -3.10281 0
M  V30 9454 N 872.079 0.78992 -1.36375 0
M  V30 9455 C 873.356 1.53584 -1.21126 0
M  V30 9456 C 873.736 2.10124 0.202785 0
M  V30 9457 O 873.084 1.93936 1.20835 0
M  V30 9458 C 873.294 2.63117 -2.29282 0
M  V30 9459 C 874.642 3.31013 -2.65924 0
M  V30 9460 O 875.666 2.734 -2.28321 0
M  V30 9461 O 874.525 4.35129 -3.30643 0
M  V30 9462 H 871.619 0.679366 -0.471583 0
M  V30 9463 H 874.165 0.828446 -1.48104 0
M  V30 9464 H 872.937 2.19329 -3.24053 0
M  V30 9465 H 872.56 3.41476 -2.03666 0
M  V30 9466 N 873.557 1.20646 1.01402 0
M  V30 9467 C 874.487 0.98155 2.11867 0
M  V30 9468 C 875.468 -0.0903712 1.6986 0
M  V30 9469 O 876.653 0.0676586 1.94082 0
M  V30 9470 C 873.783 0.535636 3.43145 0
M  V30 9471 C 872.737 1.55109 3.98905 0
M  V30 9472 C 872.063 0.961725 5.2598 0
M  V30 9473 C 873.363 2.93552 4.32001 0
M  V30 9474 H 875.057 1.90544 2.3094 0
M  V30 9475 H 872.603 0.917554 1.10982 0
M  V30 9476 H 874.556 0.365512 4.19812 0
M  V30 9477 H 873.28 -0.423882 3.23838 0
M  V30 9478 H 871.939 1.70862 3.24348 0
M  V30 9479 H 871.587 -0.00580108 5.03 0
M  V30 9480 H 871.287 1.63993 5.64252 0
M  V30 9481 H 872.811 0.802726 6.053 0
M  V30 9482 H 874.225 2.81295 4.99546 0
M  V30 9483 H 872.622 3.58303 4.81393 0
M  V30 9484 H 873.692 3.4508 3.40658 0
M  V30 9485 N 875.035 -1.20752 1.01276 0
M  V30 9486 C 875.967 -2.22798 0.537917 0
M  V30 9487 C 876.98 -1.5836 -0.377638 0
M  V30 9488 O 878.169 -1.77624 -0.176599 0
M  V30 9489 C 875.269 -3.38068 -0.237364 0
M  V30 9490 C 874.442 -4.32095 0.679161 0
M  V30 9491 C 873.501 -5.26178 -0.0478676 0
M  V30 9492 O 872.527 -5.66305 0.573366 0
M  V30 9493 N 873.729 -5.65201 -1.32396 0
M  V30 9494 H 876.494 -2.64166 1.4155 0
M  V30 9495 H 874.055 -1.35254 0.889826 0
M  V30 9496 H 876.047 -3.98009 -0.73288 0
M  V30 9497 H 874.617 -2.95622 -1.0162 0
M  V30 9498 H 873.837 -3.70179 1.35505 0
M  V30 9499 H 875.125 -4.91842 1.30263 0
M  V30 9500 H 874.523 -5.34606 -1.84968 0
M  V30 9501 H 873.08 -6.27468 -1.76428 0
M  V30 9502 N 876.513 -0.788492 -1.36457 0
M  V30 9503 C 877.463 -0.159377 -2.27442 0
M  V30 9504 C 878.447 0.656146 -1.46913 0
M  V30 9505 O 879.639 0.516372 -1.693 0
M  V30 9506 C 876.768 0.705703 -3.35968 0
M  V30 9507 C 875.854 -0.11856 -4.23934 0
M  V30 9508 N 876.245 -1.1726 -4.9202 0
M  V30 9509 C 874.543 0.102752 -4.45882 0
M  V30 9510 C 875.244 -1.6743 -5.57083 0
M  V30 9511 N 874.22 -0.983682 -5.34626 0
M  V30 9512 H 878.022 -0.96614 -2.77566 0
M  V30 9513 H 875.536 -0.627864 -1.49772 0
M  V30 9514 H 877.533 1.17231 -4.00078 0
M  V30 9515 H 876.193 1.51102 -2.87399 0
M  V30 9516 H 877.204 -1.55502 -4.94004 0
M  V30 9517 H 873.881 0.878651 -4.08149 0
M  V30 9518 H 875.271 -2.55423 -6.21457 0
M  V30 9519 N 877.991 1.48044 -0.54043 0
M  V30 9520 C 878.924 2.26667 0.264083 0
M  V30 9521 C 879.902 1.32996 0.935456 0
M  V30 9522 O 881.086 1.62354 0.95778 0
M  V30 9523 C 878.213 3.09541 1.37485 0
M  V30 9524 C 877.259 4.18664 0.813792 0
M  V30 9525 S 878.092 5.34503 -0.326536 0
M  V30 9526 C 879.248 6.20939 0.786452 0
M  V30 9527 H 879.481 2.94554 -0.403129 0
M  V30 9528 H 877.014 1.5091 -0.326415 0
M  V30 9529 H 878.972 3.57863 2.01107 0
M  V30 9530 H 877.633 2.41048 2.01382 0
M  V30 9531 H 876.826 4.76316 1.6474 0
M  V30 9532 H 876.428 3.73136 0.254066 0
M  V30 9533 H 878.72 6.56273 1.68262 0
M  V30 9534 H 879.663 7.07667 0.247673 0
M  V30 9535 H 880.071 5.54236 1.07156 0
M  V30 9536 N 879.47 0.276058 1.55163 0
M  V30 9537 C 880.71 -0.341634 2.01525 0
M  V30 9538 C 881.074 -1.52979 1.16023 0
M  V30 9539 O 882.275 -2.21718 1.51968 0
M  V30 9540 C 880.546 -0.713294 3.5021 0
M  V30 9541 S 882.105 -1.31739 4.18558 0
M  V30 9542 H 878.923 -0.1062 0.703024 0
M  V30 9543 H 881.525 0.398112 1.91404 0
M  V30 9544 H 880.229 0.160311 4.10087 0
M  V30 9545 H 879.76 -1.48448 3.64317 0
M  V30 9546 H 881.775 -2.60595 4.22261 0
M  V30 9547 N 880.948 -1.576 0.00335426 0
M  V30 9548 C 881.878 -2.11668 -0.985839 0
M  V30 9549 C 882.859 -1.02661 -1.35627 0
M  V30 9550 O 884.044 -1.30361 -1.43943 0
M  V30 9551 C 881.174 -2.62273 -2.27662 0
M  V30 9552 C 880.128 -3.75837 -2.0477 0
M  V30 9553 C 879.454 -4.12769 -3.39891 0
M  V30 9554 C 880.754 -5.02975 -1.40759 0
M  V30 9555 H 882.448 -2.9457 -0.535637 0
M  V30 9556 H 879.994 -1.41702 -0.256204 0
M  V30 9557 H 881.947 -2.98727 -2.97221 0
M  V30 9558 H 880.671 -1.76498 -2.74802 0
M  V30 9559 H 879.33 -3.39782 -1.37636 0
M  V30 9560 H 878.978 -3.24013 -3.8474 0
M  V30 9561 H 878.678 -4.89281 -3.25389 0
M  V30 9562 H 880.202 -4.51784 -4.1076 0
M  V30 9563 H 881.616 -5.37179 -2.00279 0
M  V30 9564 H 880.013 -5.84315 -1.36734 0
M  V30 9565 H 881.083 -4.83431 -0.377218 0
M  V30 9566 N 882.426 0.269451 -1.5528 0
M  V30 9567 C 883.336 1.35511 -1.91505 0
M  V30 9568 C 884.352 1.53854 -0.812712 0
M  V30 9569 O 885.528 1.67912 -1.1121 0
M  V30 9570 C 882.593 2.6937 -2.18267 0
M  V30 9571 C 881.654 2.59743 -3.41807 0
M  V30 9572 C 880.887 3.87219 -3.67283 0
M  V30 9573 O 881.11 4.88066 -2.95208 0
M  V30 9574 O 880.044 3.87209 -4.60818 0
M  V30 9575 H 883.87 1.07785 -2.8393 0
M  V30 9576 H 881.455 0.468282 -1.41871 0
M  V30 9577 H 883.337 3.48513 -2.36889 0
M  V30 9578 H 882.012 2.96874 -1.29024 0
M  V30 9579 H 880.919 1.78964 -3.28516 0
M  V30 9580 H 882.252 2.37188 -4.3128 0
M  V30 9581 N 883.904 1.48273 0.534124 0
M  V30 9582 C 884.834 1.6538 1.64839 0
M  V30 9583 C 885.815 0.502741 1.62501 0
M  V30 9584 O 887 0.734799 1.79762 0
M  V30 9585 C 884.13 1.68949 3.03436 0
M  V30 9586 C 883.084 2.83513 3.20631 0
M  V30 9587 C 882.41 2.72169 4.60248 0
M  V30 9588 C 883.71 4.24858 3.03797 0
M  V30 9589 H 885.404 2.58663 1.50777 0
M  V30 9590 H 882.95 1.24479 0.723937 0
M  V30 9591 H 884.903 1.79505 3.81256 0
M  V30 9592 H 883.627 0.722415 3.1851 0
M  V30 9593 H 882.286 2.72505 2.45227 0
M  V30 9594 H 881.934 1.7344 4.72152 0
M  V30 9595 H 881.634 3.49042 4.72698 0
M  V30 9596 H 883.158 2.84687 5.40172 0
M  V30 9597 H 884.572 4.36721 3.71413 0
M  V30 9598 H 882.969 5.02697 3.27743 0
M  V30 9599 H 884.039 4.41611 2.0027 0
M  V30 9600 N 885.382 -0.782676 1.36792 0
M  V30 9601 C 886.61 -1.57162 1.34565 0
M  V30 9602 C 887.025 -1.88664 -0.0715501 0
M  V30 9603 O 886.382 -1.50633 -1.03033 0
M  V30 9604 C 886.433 -2.88854 2.1736 0
M  V30 9605 O 886.154 -2.58707 3.53557 0
M  V30 9606 C 887.655 -3.83132 2.2299 0
M  V30 9607 H 884.875 -0.487245 0.461338 0
M  V30 9608 H 887.419 -0.970905 1.79982 0
M  V30 9609 H 885.574 -3.45377 1.7548 0
M  V30 9610 H 885.988 -3.42961 3.96835 0
M  V30 9611 H 887.462 -4.72575 2.85266 0
M  V30 9612 H 887.939 -4.21472 1.23524 0
M  V30 9613 H 888.545 -3.32541 2.65135 0
M  V30 9614 N 886.86 -1.21182 -1.00761 0
M  V30 9615 C 888.106 -1.02898 -1.74756 0
M  V30 9616 C 888.439 0.436774 -1.89225 0
M  V30 9617 O 887.714 1.32415 -1.42466 0
M  V30 9618 C 887.997 -1.72372 -3.16164 0
M  V30 9619 C 887.85 -3.2645 -3.09435 0
M  V30 9620 C 889.169 -1.46415 -4.15031 0
M  V30 9621 H 886.288 -0.375214 -0.634337 0
M  V30 9622 H 888.93 -1.49321 -1.17487 0
M  V30 9623 H 887.08 -1.32906 -3.65059 0
M  V30 9624 H 888.752 -3.75269 -2.68274 0
M  V30 9625 H 886.995 -3.56889 -2.46603 0
M  V30 9626 H 887.666 -3.70226 -4.09435 0
M  V30 9627 H 890.142 -1.80671 -3.7483 0
M  V30 9628 H 889.018 -1.97544 -5.12121 0
M  V30 9629 H 889.279 -0.39361 -4.40344 0
M  V30 9630 N 888.338 1.20213 -1.01915 0
M  V30 9631 C 889.584 1.90203 -0.720724 0
M  V30 9632 C 889.939 1.77526 0.74178 0
M  V30 9633 O 889.232 1.15037 1.53222 0
M  V30 9634 C 889.426 3.40232 -1.09438 0
M  V30 9635 C 889.255 3.67509 -2.59167 0
M  V30 9636 C 888.025 3.86082 -3.25989 0
M  V30 9637 C 890.223 3.69863 -3.5736 0
M  V30 9638 N 888.205 4.009 -4.64922 0
M  V30 9639 C 889.576 3.90136 -4.81865 0
M  V30 9640 C 891.631 3.52839 -3.51296 0
M  V30 9641 C 890.334 3.9515 -6.0104 0
M  V30 9642 C 892.36 3.59125 -4.69875 0
M  V30 9643 C 891.722 3.79874 -5.93191 0
M  V30 9644 H 887.821 0.715556 -0.315442 0
M  V30 9645 H 890.405 1.44538 -1.30449 0
M  V30 9646 H 888.576 3.84643 -0.538933 0
M  V30 9647 H 890.308 3.97704 -0.74923 0
M  V30 9648 H 887.063 3.84569 -2.76413 0
M  V30 9649 H 887.487 4.12181 -5.37062 0
M  V30 9650 H 892.129 3.35762 -2.56951 0
M  V30 9651 H 889.847 4.11022 -6.95763 0
M  V30 9652 H 893.433 3.47257 -4.66802 0
M  V30 9653 H 892.313 3.846 -6.83412 0
M  V30 9654 N 889.816 0.795718 1.36037 0
M  V30 9655 C 891.093 0.294743 1.93367 0
M  V30 9656 C 891.473 -1.21406 1.72696 0
M  V30 9657 O 890.821 -2.00849 1.08959 0
M  V30 9658 C 891.031 0.694254 3.42025 0
M  V30 9659 C 892.379 0.677566 4.19159 0
M  V30 9660 O 893.403 0.635119 3.50492 0
M  V30 9661 O 892.262 0.726127 5.41655 0
M  V30 9662 H 889.356 0.0745459 0.823633 0
M  V30 9663 H 891.902 0.878685 1.4518 0
M  V30 9664 H 890.674 1.73458 3.50753 0
M  V30 9665 H 890.297 0.0845338 3.9751 0
M  V30 9666 N 891.294 -1.47756 0.548274 0
M  V30 9667 C 892.71 -1.58247 0.207401 0
M  V30 9668 C 892.91 -1.54804 -1.28988 0
M  V30 9669 O 891.966 -1.44673 -2.06944 0
M  V30 9670 C 893.279 -2.89129 0.826142 0
M  V30 9671 C 894.827 -3.02695 0.79655 0
M  V30 9672 C 895.302 -4.36264 1.3942 0
M  V30 9673 N 896.793 -4.42877 1.35698 0
M  V30 9674 C 897.528 -5.44773 1.78913 0
M  V30 9675 N 897.024 -6.53528 2.29942 0
M  V30 9676 N 898.817 -5.35765 1.70038 0
M  V30 9677 H 890.968 -1.48236 1.52117 0
M  V30 9678 H 893.231 -0.704957 0.633829 0
M  V30 9679 H 892.937 -2.97358 1.87806 0
M  V30 9680 H 892.811 -3.75891 0.313916 0
M  V30 9681 H 895.198 -2.94067 -0.246655 0
M  V30 9682 H 895.279 -2.17496 1.34644 0
M  V30 9683 H 894.923 -4.45646 2.43642 0
M  V30 9684 H 894.853 -5.20179 0.819827 0
M  V30 9685 H 897.344 -3.64874 0.983623 0
M  V30 9686 H 897.657 -7.27441 2.60863 0
M  V30 9687 H 896.002 -6.54442 2.33947 0
M  V30 9688 H 899.193 -4.49699 1.29955 0
M  V30 9689 H 899.366 -6.1504 2.04035 0
M  V30 9690 N 892.772 -0.284283 -1.55015 0
M  V30 9691 C 893.682 0.60906 -2.26556 0
M  V30 9692 C 894.698 1.16246 -1.29472 0
M  V30 9693 O 895.874 1.1908 -1.62425 0
M  V30 9694 C 892.939 1.77246 -2.97968 0
M  V30 9695 C 892 1.25482 -4.10552 0
M  V30 9696 C 891.233 2.36277 -4.78549 0
M  V30 9697 O 891.456 3.55829 -4.45805 0
M  V30 9698 O 890.39 2.03914 -5.66306 0
M  V30 9699 H 894.216 0.0292298 -3.03686 0
M  V30 9700 H 891.801 -0.0513466 -1.49312 0
M  V30 9701 H 893.683 2.45062 -3.42815 0
M  V30 9702 H 892.358 2.33921 -2.23747 0
M  V30 9703 H 891.265 0.542859 -3.7014 0
M  V30 9704 H 892.598 0.733708 -4.86701 0
M  V30 9705 N 894.251 1.57596 -0.0117121 0
M  V30 9706 C 895.662 1.79033 0.529521 0
M  V30 9707 C 896.013 0.920299 1.73277 0
M  V30 9708 O 895.138 0.125934 2.16033 0
M  V30 9709 C 895.733 3.24695 0.967405 0
M  V30 9710 C 894.292 3.47188 1.45387 0
M  V30 9711 C 893.439 2.74245 0.410466 0
M  V30 9712 H 896.39 1.56908 -0.237836 0
M  V30 9713 H 896.411 3.33451 1.83278 0
M  V30 9714 H 895.923 3.87992 0.0914605 0
M  V30 9715 H 894.024 2.89121 2.35032 0
M  V30 9716 H 894.137 4.55886 1.47325 0
M  V30 9717 H 892.501 2.39209 0.874721 0
M  V30 9718 H 893.284 3.40248 -0.456713 0
M  V30 9719 N 895.729 -0.261212 1.5542 0
M  V30 9720 C 896.659 -1.32712 1.92119 0
M  V30 9721 C 897.64 -1.50934 0.784406 0
M  V30 9722 O 898.825 -1.63781 1.04352 0
M  V30 9723 C 895.955 -2.68453 2.20341 0
M  V30 9724 C 894.909 -2.64947 3.36136 0
M  V30 9725 C 894.235 -4.04349 3.49865 0
M  V30 9726 C 895.535 -2.23182 4.72215 0
M  V30 9727 H 897.229 -1.02245 2.81401 0
M  V30 9728 H 894.775 -0.490406 1.35392 0
M  V30 9729 H 896.728 -3.43144 2.44603 0
M  V30 9730 H 895.452 -3.00527 1.27871 0
M  V30 9731 H 894.111 -1.92714 3.11861 0
M  V30 9732 H 893.759 -4.33665 2.5484 0
M  V30 9733 H 893.459 -4.02895 4.27726 0
M  V30 9734 H 894.983 -4.80761 3.76432 0
M  V30 9735 H 896.397 -2.87599 4.95943 0
M  V30 9736 H 894.794 -2.32867 5.53076 0
M  V30 9737 H 895.864 -1.18327 4.70241 0
M  V30 9738 N 897.207 -1.48554 -0.526253 0
M  V30 9739 C 898.17 -1.62868 -1.61266 0
M  V30 9740 C 899.17 -0.501762 -1.52771 0
M  V30 9741 O 900.36 -0.76764 -1.56374 0
M  V30 9742 C 897.492 -1.60238 -3.00893 0
M  V30 9743 H 898.685 -2.59742 -1.49913 0
M  V30 9744 H 896.238 -1.37207 -0.748595 0
M  V30 9745 H 896.973 -0.648545 -3.17749 0
M  V30 9746 H 896.758 -2.42054 -3.08468 0
M  V30 9747 H 898.248 -1.73455 -3.79872 0
M  V30 9748 N 898.685 0.775411 -1.37205 0
M  V30 9749 C 899.91 1.5696 -1.35567 0
M  V30 9750 C 900.335 1.88012 0.0575554 0
M  V30 9751 O 899.693 1.48954 1.03355 0
M  V30 9752 C 899.741 2.85886 -2.19776 0
M  V30 9753 O 898.845 3.80103 -1.59987 0
M  V30 9754 H 898.186 0.475583 -0.463375 0
M  V30 9755 H 900.716 0.96001 -1.80679 0
M  V30 9756 H 900.726 3.35024 -2.32859 0
M  V30 9757 H 899.401 2.62613 -3.22502 0
M  V30 9758 H 897.978 3.38736 -1.55924 0
M  V30 9759 N 900.163 1.21714 1.00117 0
M  V30 9760 C 901.111 0.976937 2.11089 0
M  V30 9761 C 902.105 -0.0771295 1.69224 0
M  V30 9762 O 903.311 0.0745945 1.79845 0
M  V30 9763 H 899.686 0.298687 0.690138 0
M  V30 9764 H 901.657 1.91881 2.28526 0
M  V30 9765 C 900.406 0.562369 3.43122 0
M  V30 9766 H 899.729 1.36509 3.75773 0
M  V30 9767 H 901.169 0.433642 4.21777 0
M  V30 9768 C 899.628 -0.727148 3.28959 0
M  V30 9769 O 900.158 -1.78171 3.60025 0
M  V30 9770 N 898.364 -0.695129 2.82164 0
M  V30 9771 H 897.911 0.163346 2.57082 0
M  V30 9772 H 897.869 -1.55822 2.73069 0
M  V30 9773 N 901.641 -1.19671 1.02551 0
M  V30 9774 C 902.918 -1.85014 0.634771 0
M  V30 9775 C 903.298 -1.91574 -0.886706 0
M  V30 9776 O 902.646 -1.43022 -1.78205 0
M  V30 9777 C 902.856 -3.24167 1.29292 0
M  V30 9778 C 904.204 -4.00363 1.41402 0
M  V30 9779 O 905.228 -3.33553 1.24983 0
M  V30 9780 O 904.087 -5.2003 1.6802 0
M  V30 9781 H 901.181 -0.797147 0.220196 0
M  V30 9782 H 903.727 -1.27188 1.12345 0
M  V30 9783 H 902.499 -3.14208 2.33215 0
M  V30 9784 H 902.122 -3.89634 0.791895 0
M  V30 9785 N 903.119 -0.802921 -1.35613 0
M  V30 9786 C 904.366 -0.381576 -1.98872 0
M  V30 9787 C 904.694 1.0503 -1.63704 0
M  V30 9788 O 903.949 1.7427 -0.890418 0
M  V30 9789 C 904.248 -0.507806 -3.53774 0
M  V30 9790 C 903.914 -1.90245 -4.088 0
M  V30 9791 C 902.576 -2.28401 -4.2354 0
M  V30 9792 C 904.928 -2.81504 -4.3864 0
M  V30 9793 C 902.256 -3.57192 -4.65436 0
M  V30 9794 C 904.608 -4.09737 -4.81973 0
M  V30 9795 C 903.272 -4.47897 -4.94919 0
M  V30 9796 H 902.542 -0.139629 -0.727726 0
M  V30 9797 H 905.189 -1.023 -1.61886 0
M  V30 9798 H 903.494 0.21708 -3.91198 0
M  V30 9799 H 905.191 -0.162625 -4.0067 0
M  V30 9800 H 901.781 -1.596 -3.97776 0
M  V30 9801 H 905.965 -2.53276 -4.26808 0
M  V30 9802 H 901.221 -3.86611 -4.73648 0
M  V30 9803 H 905.395 -4.80555 -5.04024 0
M  V30 9804 H 903.022 -5.47747 -5.27141 0
M  V30 9805 N 904.597 1.47463 -0.556102 0
M  V30 9806 C 905.527 2.32801 0.180497 0
M  V30 9807 C 906.508 1.43721 0.909848 0
M  V30 9808 O 907.693 1.72578 0.89053 0
M  V30 9809 C 904.823 3.25478 1.21167 0
M  V30 9810 C 903.777 4.2379 0.598846 0
M  V30 9811 C 903.103 5.05783 1.73457 0
M  V30 9812 C 904.403 5.20387 -0.446659 0
M  V30 9813 H 906.097 2.94636 -0.531956 0
M  V30 9814 H 903.643 1.41683 -0.257267 0
M  V30 9815 H 905.596 3.8402 1.73513 0
M  V30 9816 H 904.32 2.61695 1.95405 0
M  V30 9817 H 902.979 3.66472 0.0966897 0
M  V30 9818 H 902.627 4.38405 2.46596 0
M  V30 9819 H 902.327 5.72343 1.33031 0
M  V30 9820 H 903.851 5.67183 2.26131 0
M  V30 9821 H 905.265 5.73299 -0.00930019 0
M  V30 9822 H 903.662 5.95143 -0.769735 0
M  V30 9823 H 904.732 4.65932 -1.34295 0
M  V30 9824 N 906.075 0.2925 1.54862 0
M  V30 9825 C 907.323 -0.318633 1.99572 0
M  V30 9826 C 907.644 -1.55062 1.1824 0
M  V30 9827 O 906.914 -1.93943 0.276226 0
M  V30 9828 H 905.494 -0.120722 0.737181 0
M  V30 9829 H 908.156 0.401862 1.90712 0
M  V30 9830 H 907.252 -0.596542 3.06346 0
M  V30 9831 N 907.553 -1.57587 0.0200696 0
M  V30 9832 C 908.801 -1.91046 -0.65922 0
M  V30 9833 C 909.122 -0.896197 -1.73186 0
M  V30 9834 O 908.392 0.0635952 -1.95797 0
M  V30 9835 H 906.972 -0.705163 -0.246483 0
M  V30 9836 H 909.634 -1.94789 0.0657368 0
M  V30 9837 H 908.73 -2.91399 -1.11773 0
M  V30 9838 N 909.032 0.252966 -1.55557 0
M  V30 9839 C 910.278 0.983306 -1.77367 0
M  V30 9840 C 910.611 1.85203 -0.584258 0
M  V30 9841 O 909.886 1.89963 0.417644 0
M  V30 9842 C 910.169 1.84896 -3.09007 0
M  V30 9843 C 910.022 1.00883 -4.38341 0
M  V30 9844 C 911.341 2.83254 -3.36831 0
M  V30 9845 H 908.46 0.356056 -0.645286 0
M  V30 9846 H 911.102 0.254232 -1.88291 0
M  V30 9847 H 909.252 2.47058 -2.99825 0
M  V30 9848 H 910.924 0.40638 -4.59507 0
M  V30 9849 H 909.167 0.31297 -4.3267 0
M  V30 9850 H 909.838 1.64818 -5.2682 0
M  V30 9851 H 912.314 2.31228 -3.45937 0
M  V30 9852 H 911.19 3.40949 -4.30169 0
M  V30 9853 H 911.451 3.59407 -2.57447 0
M  V30 9854 N 910.51 1.48831 0.518367 0
M  V30 9855 C 911.926 1.35209 0.847979 0
M  V30 9856 C 912.126 0.371927 1.98038 0
M  V30 9857 O 911.182 -0.202681 2.51685 0
M  V30 9858 C 912.495 2.7552 1.20455 0
M  V30 9859 C 914.043 2.84094 1.31377 0
M  V30 9860 C 914.518 4.25132 1.70372 0
M  V30 9861 N 916.009 4.27861 1.77453 0
M  V30 9862 C 916.744 5.3394 2.09035 0
M  V30 9863 N 916.24 6.50285 2.3896 0
M  V30 9864 N 918.033 5.21343 2.10139 0
M  V30 9865 H 910.184 2.11166 -0.228624 0
M  V30 9866 H 912.447 0.94717 -0.0396599 0
M  V30 9867 H 912.153 3.48861 0.445991 0
M  V30 9868 H 912.027 3.09785 2.15204 0
M  V30 9869 H 914.414 2.11001 2.06307 0
M  V30 9870 H 914.495 2.53433 0.347203 0
M  V30 9871 H 914.139 4.98745 0.959975 0
M  V30 9872 H 914.069 4.53245 2.68098 0
M  V30 9873 H 916.56 3.43945 1.56557 0
M  V30 9874 H 916.873 7.26961 2.62196 0
M  V30 9875 H 915.218 6.5354 2.36454 0
M  V30 9876 H 918.409 4.29462 1.86225 0
M  V30 9877 H 918.582 6.04112 2.34419 0
M  V30 9878 N 911.988 -0.768124 1.37614 0
M  V30 9879 C 912.918 -1.89537 1.36374 0
M  V30 9880 C 913.899 -1.68513 0.231803 0
M  V30 9881 O 915.084 -1.89318 0.432705 0
M  V30 9882 C 912.214 -3.26871 1.17358 0
M  V30 9883 C 911.168 -3.62466 2.27602 0
M  V30 9884 C 910.494 -4.9838 1.93705 0
M  V30 9885 C 911.794 -3.68841 3.69802 0
M  V30 9886 H 913.488 -1.90832 2.30702 0
M  V30 9887 H 911.034 -0.91672 1.11051 0
M  V30 9888 H 912.987 -4.05371 1.15119 0
M  V30 9889 H 911.711 -3.26018 0.194865 0
M  V30 9890 H 910.37 -2.86276 2.29002 0
M  V30 9891 H 910.018 -4.94071 0.943539 0
M  V30 9892 H 909.718 -5.23165 2.6753 0
M  V30 9893 H 911.242 -5.79276 1.93059 0
M  V30 9894 H 912.656 -4.37485 3.70513 0
M  V30 9895 H 911.053 -4.05126 4.42711 0
M  V30 9896 H 912.123 -2.69415 4.03167 0
M  V30 9897 N 913.466 -1.22244 -0.994698 0
M  V30 9898 C 914.714 -1.04384 -1.73056 0
M  V30 9899 C 915.035 0.422204 -1.90374 0
M  V30 9900 O 914.305 1.30383 -1.46209 0
M  V30 9901 H 912.885 -0.383263 -0.641185 0
M  V30 9902 H 915.547 -1.53725 -1.1981 0
M  V30 9903 H 914.643 -1.52021 -2.72573 0
M  V30 9904 N 914.944 1.19125 -1.03184 0
M  V30 9905 C 916.19 1.89163 -0.731111 0
M  V30 9906 C 916.523 1.79604 0.738662 0
M  V30 9907 O 915.798 1.19037 1.53819 0
M  V30 9908 C 916.081 3.39986 -1.18666 0
M  V30 9909 C 915.934 3.58401 -2.71788 0
M  V30 9910 C 917.253 4.33316 -0.769772 0
M  V30 9911 H 914.372 0.686908 -0.267069 0
M  V30 9912 H 917.014 1.40205 -1.28229 0
M  V30 9913 H 915.164 3.81813 -0.717736 0
M  V30 9914 H 916.836 3.25727 -3.26649 0
M  V30 9915 H 915.079 3.01355 -3.12038 0
M  V30 9916 H 915.75 4.64189 -2.98719 0
M  V30 9917 H 918.226 3.9922 -1.17314 0
M  V30 9918 H 917.102 5.37427 -1.11637 0
M  V30 9919 H 917.363 4.40884 0.327681 0
M  V30 9920 N 916.422 0.810101 1.35185 0
M  V30 9921 C 917.67 0.391343 1.98275 0
M  V30 9922 C 917.991 -1.04592 1.64577 0
M  V30 9923 O 917.261 -1.72417 0.93001 0
M  V30 9924 H 915.841 0.141715 0.733434 0
M  V30 9925 H 918.503 1.03672 1.6504 0
M  V30 9926 H 917.599 0.49991 3.0807 0
M  V30 9927 N 917.9 -1.47166 0.563914 0
M  V30 9928 C 919.128 -2.06846 0.0474287 0
M  V30 9929 C 919.543 -1.41557 -1.24928 0
M  V30 9930 O 918.9 -0.514376 -1.75101 0
M  V30 9931 C 918.951 -3.6121 -0.144831 0
M  V30 9932 O 918.672 -4.24052 1.10053 0
M  V30 9933 C 920.173 -4.37773 -0.69783 0
M  V30 9934 H 917.393 -0.669217 0.0488896 0
M  V30 9935 H 919.937 -1.89072 0.779235 0
M  V30 9936 H 918.092 -3.78474 -0.82679 0
M  V30 9937 H 918.506 -5.16677 0.902481 0
M  V30 9938 H 919.98 -5.46438 -0.781616 0
M  V30 9939 H 920.457 -4.04517 -1.71063 0
M  V30 9940 H 921.063 -4.25269 -0.0513516 0
M  V30 9941 N 919.378 -0.300708 -1.54705 0
M  V30 9942 C 920.626 0.308044 -1.99739 0
M  V30 9943 C 920.947 1.54433 -1.19061 0
M  V30 9944 O 920.217 1.93794 -0.286507 0
M  V30 9945 H 918.797 0.116811 -0.73781 0
M  V30 9946 H 921.459 -0.41197 -1.90496 0
M  V30 9947 H 920.555 0.580287 -3.06658 0
M  V30 9948 N 920.856 1.57574 -0.0284266 0
M  V30 9949 C 922.105 1.9095 0.649704 0
M  V30 9950 C 922.418 0.906421 1.7333 0
M  V30 9951 O 923.624 1.1314 2.46803 0
M  V30 9952 C 922.08 3.39061 1.20687 0
M  V30 9953 C 921.688 4.47726 0.156597 0
M  V30 9954 C 923.432 3.81505 1.86156 0
M  V30 9955 C 921.339 5.86935 0.725365 0
M  V30 9956 H 920.269 0.712589 0.24644 0
M  V30 9957 H 922.92 1.83261 -0.0936143 0
M  V30 9958 H 921.302 3.41679 2.00178 0
M  V30 9959 H 922.476 4.56667 -0.6158 0
M  V30 9960 H 920.791 4.14481 -0.399288 0
M  V30 9961 H 923.388 4.82865 2.29665 0
M  V30 9962 H 923.731 3.16529 2.70398 0
M  V30 9963 H 924.264 3.81307 1.13356 0
M  V30 9964 H 921.003 6.55453 -0.0789081 0
M  V30 9965 H 920.523 5.81602 1.46627 0
M  V30 9966 H 922.202 6.35483 1.21532 0
M  V30 9967 N 922.334 -0.244713 1.55689 0
M  V30 9968 C 923.559 -0.994157 1.8202 0
M  V30 9969 C 923.984 -1.78079 0.60577 0
M  V30 9970 O 923.342 -1.75748 -0.445221 0
M  V30 9971 C 923.39 -1.90599 3.06111 0
M  V30 9972 O 922.494 -2.99804 2.8318 0
M  V30 9973 H 921.835 -0.282767 0.600782 0
M  V30 9974 H 924.365 -0.26504 2.02876 0
M  V30 9975 H 924.375 -2.32023 3.35603 0
M  V30 9976 H 923.05 -1.32763 3.9414 0
M  V30 9977 H 921.627 -2.62493 2.64862 0
M  V30 9978 N 923.813 -1.49104 -0.510467 0
M  V30 9979 C 924.761 -1.65547 -1.63392 0
M  V30 9980 C 925.755 -0.521522 -1.61172 0
M  V30 9981 O 926.961 -0.700865 -1.65795 0
M  V30 9982 H 923.336 -0.521843 -0.541464 0
M  V30 9983 H 925.307 -2.59864 -1.46673 0
M  V30 9984 C 924.056 -1.73051 -3.01577 0
M  V30 9985 H 923.379 -2.59676 -3.03987 0
M  V30 9986 H 924.819 -1.88594 -3.79748 0
M  V30 9987 C 923.278 -0.47328 -3.33559 0
M  V30 9988 O 923.808 0.405239 -3.99651 0
M  V30 9989 N 922.014 -0.339074 -2.88615 0
M  V30 9990 H 921.561 -1.05497 -2.35007 0
M  V30 9991 H 921.519 0.501061 -3.10382 0
M  V30 9992 N 925.291 0.760815 -1.38019 0
M  V30 9993 C 926.539 1.51673 -1.33566 0
M  V30 9994 C 926.86 1.94852 0.076024 0
M  V30 9995 O 926.13 1.67112 1.02227 0
M  V30 9996 H 924.71 0.562581 -0.491438 0
M  V30 9997 H 927.372 0.904832 -1.72623 0
M  V30 9998 H 926.468 2.41102 -1.98182 0
M  V30 9999 N 926.769 1.22769 0.988202 0
M  V30 10000 C 927.679 1.01844 2.11341 0
M  V30 10001 C 928.695 -0.0346937 1.73965 0
M  V30 10002 O 929.871 0.159061 2.00771 0
M  V30 10003 C 926.936 0.603837 3.41401 0
M  V30 10004 C 925.997 1.73113 3.92849 0
M  V30 10005 C 925.23 1.33621 5.16702 0
M  V30 10006 O 925.453 0.217041 5.69987 0
M  V30 10007 O 924.387 2.15444 5.62021 0
M  V30 10008 H 928.213 1.96127 2.31879 0
M  V30 10009 H 925.798 1.01405 1.09715 0
M  V30 10010 H 927.68 0.383196 4.19654 0
M  V30 10011 H 926.355 -0.310082 3.22211 0
M  V30 10012 H 925.262 2.00634 3.15748 0
M  V30 10013 H 926.595 2.62308 4.1648 0
M  V30 10014 N 928.247 -1.18576 1.03814 0
M  V30 10015 C 929.493 -1.88773 0.741132 0
M  V30 10016 C 929.826 -1.79993 -0.729127 0
M  V30 10017 O 929.101 -1.19851 -1.53186 0
M  V30 10018 C 929.384 -3.39352 1.20468 0
M  V30 10019 C 929.237 -3.56955 2.73684 0
M  V30 10020 C 930.556 -4.32901 0.792741 0
M  V30 10021 H 927.675 -0.685482 0.270708 0
M  V30 10022 H 930.317 -1.39523 1.2897 0
M  V30 10023 H 928.467 -3.81427 0.737974 0
M  V30 10024 H 930.139 -3.2399 3.28372 0
M  V30 10025 H 928.382 -2.99696 3.13632 0
M  V30 10026 H 929.053 -4.62598 3.01176 0
M  V30 10027 H 931.529 -3.98592 1.1943 0
M  V30 10028 H 930.405 -5.36828 1.14486 0
M  V30 10029 H 930.666 -4.41052 -0.304295 0
M  V30 10030 N 929.725 -0.817259 -1.34754 0
M  V30 10031 C 930.971 -0.403244 -1.98751 0
M  V30 10032 C 931.304 1.02963 -1.64658 0
M  V30 10033 O 930.579 1.71617 -0.915314 0
M  V30 10034 C 930.862 -0.599188 -3.5508 0
M  V30 10035 C 930.715 -2.07777 -3.98934 0
M  V30 10036 C 932.034 -0.0315656 -4.40089 0
M  V30 10037 H 929.153 -0.147988 -0.721989 0
M  V30 10038 H 931.795 -1.02877 -1.59738 0
M  V30 10039 H 929.945 -0.0667116 -3.88443 0
M  V30 10040 H 931.617 -2.67345 -3.75931 0
M  V30 10041 H 929.86 -2.57031 -3.49453 0
M  V30 10042 H 930.531 -2.16571 -5.07741 0
M  V30 10043 H 933.007 -0.48644 -4.13247 0
M  V30 10044 H 931.883 -0.198507 -5.48541 0
M  V30 10045 H 932.144 1.06302 -4.2913 0
M  V30 10046 N 931.203 1.46865 -0.571711 0
M  V30 10047 C 932.48 1.95596 0.0132445 0
M  V30 10048 C 932.86 1.51438 1.47071 0
M  V30 10049 O 932.208 0.759917 2.15494 0
M  V30 10050 C 932.418 3.48689 -0.147335 0
M  V30 10051 C 933.766 4.24599 -0.00946329 0
M  V30 10052 O 934.79 3.5612 -0.0756112 0
M  V30 10053 O 933.649 5.46332 0.135361 0
M  V30 10054 H 930.743 0.825102 0.0560039 0
M  V30 10055 H 933.289 1.57199 -0.639256 0
M  V30 10056 H 932.061 3.73681 -1.16096 0
M  V30 10057 H 931.684 3.93887 0.542109 0
M  V30 10058 N 932.681 0.308908 1.54543 0
M  V30 10059 C 933.927 -0.291311 2.01303 0
M  V30 10060 C 934.282 -1.50917 1.19339 0
M  V30 10061 O 933.575 -1.89776 0.263724 0
M  V30 10062 C 933.769 -0.691522 3.50646 0
M  V30 10063 C 933.598 0.486007 4.47066 0
M  V30 10064 C 932.368 0.980515 4.95695 0
M  V30 10065 C 934.566 1.33352 4.96711 0
M  V30 10066 N 932.548 2.12398 5.75986 0
M  V30 10067 C 933.919 2.32436 5.74781 0
M  V30 10068 C 935.974 1.36298 4.78881 0
M  V30 10069 C 934.677 3.34252 6.36921 0
M  V30 10070 C 936.703 2.36976 5.41845 0
M  V30 10071 C 936.065 3.34789 6.19755 0
M  V30 10072 H 932.164 -0.0708418 0.778785 0
M  V30 10073 H 934.748 0.440621 1.89649 0
M  V30 10074 H 932.919 -1.39261 3.62575 0
M  V30 10075 H 934.651 -1.27196 3.84192 0
M  V30 10076 H 931.406 0.55419 4.70346 0
M  V30 10077 H 931.83 2.70036 6.20814 0
M  V30 10078 H 936.472 0.620472 4.18222 0
M  V30 10079 H 934.19 4.09417 6.96709 0
M  V30 10080 H 937.776 2.40039 5.29974 0
M  V30 10081 H 936.656 4.11418 6.67611 0
M  V30 10082 N 934.159 -1.57557 0.0367827 0
M  V30 10083 C 935.092 -2.06205 -0.977479 0
M  V30 10084 C 936.07 -0.959444 -1.31276 0
M  V30 10085 O 937.254 -1.23033 -1.42811 0
M  V30 10086 C 934.381 -2.49053 -2.29544 0
M  V30 10087 C 933.427 -3.70409 -2.11423 0
M  V30 10088 S 934.26 -5.16715 -1.40593 0
M  V30 10089 C 935.416 -5.62864 -2.73742 0
M  V30 10090 H 935.649 -2.91913 -0.5634 0
M  V30 10091 H 933.182 -1.53404 -0.175111 0
M  V30 10092 H 935.14 -2.74403 -3.05308 0
M  V30 10093 H 933.801 -1.63677 -2.68083 0
M  V30 10094 H 932.994 -3.98262 -3.08875 0
M  V30 10095 H 932.596 -3.4525 -1.438 0
M  V30 10096 H 934.888 -5.67571 -3.69958 0
M  V30 10097 H 935.831 -6.62294 -2.50544 0
M  V30 10098 H 936.239 -4.90539 -2.79341 0
M  V30 10099 N 935.637 0.236453 -1.55816 0
M  V30 10100 C 936.914 0.986463 -1.68903 0
M  V30 10101 C 937.294 2.02984 -0.579722 0
M  V30 10102 O 936.642 2.24693 0.415389 0
M  V30 10103 C 936.852 1.61038 -3.09625 0
M  V30 10104 C 938.2 2.10829 -3.6856 0
M  V30 10105 O 939.224 1.7096 -3.12492 0
M  V30 10106 O 938.083 2.84064 -4.66873 0
M  V30 10107 H 935.177 0.459837 -0.687371 0
M  V30 10108 H 937.723 0.229412 -1.68142 0
M  V30 10109 H 936.495 0.856232 -3.81817 0
M  V30 10110 H 936.118 2.43336 -3.14441 0
M  V30 10111 N 937.115 1.49373 0.502552 0
M  V30 10112 C 938.34 1.62752 1.28556 0
M  V30 10113 C 938.765 0.298285 1.8572 0
M  V30 10114 O 938.123 -0.733885 1.65782 0
M  V30 10115 C 938.171 2.69778 2.39274 0
M  V30 10116 O 937.275 2.28843 3.43081 0
M  V30 10117 H 936.616 0.544799 0.379592 0
M  V30 10118 H 939.146 1.9555 0.601792 0
M  V30 10119 H 939.156 2.91899 2.8506 0
M  V30 10120 H 937.831 3.66266 1.97033 0
M  V30 10121 H 936.408 2.17047 3.03224 0
M  V30 10122 N 938.594 -0.753485 1.38421 0
M  V30 10123 C 939.822 -1.54272 1.37868 0
M  V30 10124 C 940.237 -1.88774 -0.0315155 0
M  V30 10125 O 939.594 -1.52785 -0.998148 0
M  V30 10126 C 939.645 -2.84179 2.23438 0
M  V30 10127 O 939.366 -2.51149 3.58965 0
M  V30 10128 C 940.867 -3.78316 2.31067 0
M  V30 10129 H 938.087 -0.47735 0.47157 0
M  V30 10130 H 940.631 -0.932509 1.82001 0
M  V30 10131 H 938.786 -3.41577 1.82767 0
M  V30 10132 H 939.2 -3.34466 4.04021 0
M  V30 10133 H 940.674 -4.66418 2.95226 0
M  V30 10134 H 941.151 -4.18757 1.32436 0
M  V30 10135 H 941.757 -3.26842 2.72129 0
M  V30 10136 N 940.072 -1.23292 -0.981677 0
M  V30 10137 C 941.32 -1.06214 -1.71939 0
M  V30 10138 C 941.641 0.401989 -1.90812 0
M  V30 10139 O 940.911 1.28825 -1.47584 0
M  V30 10140 H 939.491 -0.390042 -0.637084 0
M  V30 10141 H 942.153 -1.54988 -1.18173 0
M  V30 10142 H 941.249 -1.54904 -2.70945 0
M  V30 10143 N 941.55 1.18024 -1.04442 0
M  V30 10144 C 942.46 2.25436 -0.649276 0
M  V30 10145 C 943.476 1.70915 0.326189 0
M  V30 10146 O 944.652 2.00592 0.180174 0
M  V30 10147 C 941.717 3.46693 -0.0222558 0
M  V30 10148 C 940.778 4.16332 -1.0472 0
M  V30 10149 C 940.011 5.31799 -0.450011 0
M  V30 10150 O 940.234 5.65544 0.742717 0
M  V30 10151 O 939.168 5.90209 -1.18056 0
M  V30 10152 H 942.994 2.61508 -1.54426 0
M  V30 10153 H 940.579 1.25178 -0.81552 0
M  V30 10154 H 942.461 4.20132 0.326597 0
M  V30 10155 H 941.136 3.12436 0.84649 0
M  V30 10156 H 940.043 3.44944 -1.44792 0
M  V30 10157 H 941.376 4.54598 -1.88684 0
M  V30 10158 N 943.028 0.824394 1.34319 0
M  V30 10159 C 943.938 0.24932 2.33271 0
M  V30 10160 C 944.954 -0.617066 1.62691 0
M  V30 10161 O 946.13 -0.524616 1.94447 0
M  V30 10162 C 943.195 -0.578094 3.41846 0
M  V30 10163 C 942.256 0.310866 4.28173 0
M  V30 10164 C 941.489 -0.477153 5.31563 0
M  V30 10165 O 941.712 -1.71028 5.44156 0
M  V30 10166 O 940.646 0.141287 6.01734 0
M  V30 10167 H 944.472 1.06837 2.84288 0
M  V30 10168 H 942.057 0.58657 1.37403 0
M  V30 10169 H 943.939 -1.04878 4.0814 0
M  V30 10170 H 942.614 -1.37444 2.93071 0
M  V30 10171 H 941.521 0.829081 3.64797 0
M  V30 10172 H 942.854 1.07161 4.80393 0
M  V30 10173 N 944.506 -1.46559 0.579492 0
M  V30 10174 C 945.752 -2.02699 0.0639363 0
M  V30 10175 C 946.085 -1.4504 -1.29139 0
M  V30 10176 O 945.36 -0.614284 -1.84545 0
M  V30 10177 C 945.643 -3.601 -0.00528618 0
M  V30 10178 C 945.496 -4.28149 1.37871 0
M  V30 10179 C 946.815 -4.34375 -0.707537 0
M  V30 10180 H 943.934 -0.736586 0.0247085 0
M  V30 10181 H 946.576 -1.74739 0.746071 0
M  V30 10182 H 944.726 -3.84052 -0.586206 0
M  V30 10183 H 946.398 -4.1547 2.00455 0
M  V30 10184 H 944.641 -3.87636 1.94732 0
M  V30 10185 H 945.312 -5.36888 1.28278 0
M  V30 10186 H 947.788 -4.15549 -0.214064 0
M  V30 10187 H 946.664 -5.44091 -0.724992 0
M  V30 10188 H 946.925 -4.052 -1.7682 0
M  V30 10189 N 945.984 -0.3171 -1.54377 0
M  V30 10190 C 947.209 0.292311 -2.0533 0
M  V30 10191 C 947.634 1.45503 -1.19207 0
M  V30 10192 O 946.992 1.80197 -0.199721 0
M  V30 10193 C 947.04 0.710787 -3.53525 0
M  V30 10194 O 946.144 1.81387 -3.70368 0
M  V30 10195 H 945.485 0.0539976 -0.661801 0
M  V30 10196 H 948.015 -0.463629 -1.99278 0
M  V30 10197 H 948.025 0.995216 -3.95676 0
M  V30 10198 H 946.7 -0.139668 -4.15665 0
M  V30 10199 H 945.277 1.52875 -3.40123 0
M  V30 10200 N 947.462 1.57535 -0.0451378 0
M  V30 10201 C 948.392 2.14208 0.929372 0
M  V30 10202 C 949.373 1.06221 1.32858 0
M  V30 10203 O 950.558 1.34132 1.40436 0
M  V30 10204 C 947.688 2.68217 2.20629 0
M  V30 10205 C 946.642 3.81134 1.94734 0
M  V30 10206 C 945.968 4.21636 3.28828 0
M  V30 10207 C 947.268 5.06531 1.27374 0
M  V30 10208 H 948.962 2.95886 0.457348 0
M  V30 10209 H 946.508 1.42332 0.218544 0
M  V30 10210 H 948.461 3.06502 2.89196 0
M  V30 10211 H 947.185 1.83722 2.70026 0
M  V30 10212 H 945.844 3.43312 1.28579 0
M  V30 10213 H 945.492 3.34099 3.76014 0
M  V30 10214 H 945.192 4.97736 3.12302 0
M  V30 10215 H 946.716 4.62516 3.98637 0
M  V30 10216 H 948.13 5.423 1.85967 0
M  V30 10217 H 946.527 5.87735 1.21194 0
M  V30 10218 H 947.597 4.84261 0.248913 0
M  V30 10219 N 948.94 -0.228186 1.55939 0
M  V30 10220 C 950.186 -0.950604 1.7982 0
M  V30 10221 C 950.541 -1.82236 0.617079 0
M  V30 10222 O 949.834 -1.87607 -0.389102 0
M  V30 10223 C 950.028 -1.82924 3.0704 0
M  V30 10224 C 949.857 -1.04403 4.37413 0
M  V30 10225 C 948.627 -0.741613 4.99828 0
M  V30 10226 C 950.825 -0.412534 5.12643 0
M  V30 10227 N 948.807 0.0656922 6.13865 0
M  V30 10228 C 950.178 0.258471 6.19461 0
M  V30 10229 C 952.233 -0.324893 4.96839 0
M  V30 10230 C 950.936 1.00873 7.12192 0
M  V30 10231 C 952.962 0.411878 5.89964 0
M  V30 10232 C 952.324 1.07145 6.96203 0
M  V30 10233 H 948.423 -0.328336 0.709732 0
M  V30 10234 H 951.007 -0.222056 1.9343 0
M  V30 10235 H 949.178 -2.52966 2.94725 0
M  V30 10236 H 950.91 -2.48863 3.19139 0
M  V30 10237 H 947.665 -1.05801 4.61631 0
M  V30 10238 H 948.089 0.457986 6.75449 0
M  V30 10239 H 952.731 -0.820485 4.14762 0
M  V30 10240 H 950.449 1.51586 7.93755 0
M  V30 10241 H 954.035 0.480606 5.79812 0
M  V30 10242 H 952.915 1.63245 7.67021 0
M  V30 10243 N 950.418 -1.49637 -0.494624 0
M  V30 10244 C 951.35 -1.62902 -1.61231 0
M  V30 10245 C 952.363 -0.511425 -1.54558 0
M  V30 10246 O 953.552 -0.783724 -1.60375 0
M  V30 10247 C 950.652 -1.57564 -3.00045 0
M  V30 10248 C 949.825 -2.84964 -3.31835 0
M  V30 10249 C 948.884 -2.72591 -4.5009 0
M  V30 10250 O 947.91 -3.46532 -4.51558 0
M  V30 10251 N 949.112 -1.84563 -5.50379 0
M  V30 10252 H 951.877 -2.59301 -1.50276 0
M  V30 10253 H 949.438 -1.46806 -0.68262 0
M  V30 10254 H 951.43 -1.46932 -3.77085 0
M  V30 10255 H 950 -0.689974 -3.0489 0
M  V30 10256 H 949.22 -3.099 -2.4363 0
M  V30 10257 H 950.508 -3.69412 -3.49875 0
M  V30 10258 H 949.906 -1.23758 -5.51997 0
M  V30 10259 H 948.463 -1.79849 -6.26496 0
M  V30 10260 N 951.896 0.746133 -1.38819 0
M  V30 10261 C 952.843 1.86001 -1.36647 0
M  V30 10262 C 953.813 1.6453 -0.227849 0
M  V30 10263 O 954.998 1.86092 -0.421241 0
M  V30 10264 C 952.138 3.23388 -1.20474 0
M  V30 10265 C 951.251 3.5664 -2.43786 0
M  V30 10266 C 950.386 4.8337 -2.20287 0
M  V30 10267 C 949.425 5.09431 -3.39332 0
M  V30 10268 N 948.562 6.2736 -3.1522 0
M  V30 10269 H 953.402 1.87192 -2.31869 0
M  V30 10270 H 950.939 0.914838 -1.15192 0
M  V30 10271 H 952.897 4.02679 -1.09112 0
M  V30 10272 H 951.527 3.21505 -0.288874 0
M  V30 10273 H 950.579 2.72135 -2.65794 0
M  V30 10274 H 951.891 3.71823 -3.3249 0
M  V30 10275 H 951.045 5.70619 -2.06103 0
M  V30 10276 H 949.784 4.70341 -1.28961 0
M  V30 10277 H 948.789 4.20648 -3.54027 0
M  V30 10278 H 950.014 5.24354 -4.31544 0
M  V30 10279 H 947.96 6.15639 -2.26549 0
M  V30 10280 H 947.877 6.43078 -3.97476 0
M  V30 10281 H 949.145 7.17477 -3.04707 0
M  V30 10282 N 953.375 1.23811 0.975125 0
M  V30 10283 C 954.308 0.967173 2.06691 0
M  V30 10284 C 955.286 -0.09642 1.62314 0
M  V30 10285 O 956.47 0.0389532 1.8846 0
M  V30 10286 C 953.597 0.458094 3.35588 0
M  V30 10287 C 952.643 1.5091 3.98909 0
M  V30 10288 S 953.476 3.08815 4.37485 0
M  V30 10289 C 954.632 2.59591 5.69529 0
M  V30 10290 H 954.865 1.89166 2.29355 0
M  V30 10291 H 952.398 1.07113 1.11203 0
M  V30 10292 H 954.356 0.170991 4.10144 0
M  V30 10293 H 953.017 -0.445562 3.10924 0
M  V30 10294 H 952.21 1.10315 4.91779 0
M  V30 10295 H 951.812 1.74582 3.30752 0
M  V30 10296 H 954.104 2.0194 6.46704 0
M  V30 10297 H 955.047 3.51021 6.14971 0
M  V30 10298 H 955.455 2.00267 5.27782 0
M  V30 10299 N 954.853 -1.17469 1.05066 0
M  V30 10300 C 956.269 -1.39699 0.771769 0
M  V30 10301 C 956.469 -1.91253 -0.634382 0
M  V30 10302 O 955.525 -2.10334 -1.39699 0
M  V30 10303 C 956.838 -2.38886 1.82631 0
M  V30 10304 C 958.386 -2.52595 1.84838 0
M  V30 10305 C 958.861 -3.55054 2.89311 0
M  V30 10306 N 960.352 -3.6257 2.88266 0
M  V30 10307 C 961.087 -4.41603 3.65752 0
M  V30 10308 N 960.583 -5.24162 4.53019 0
M  V30 10309 N 962.376 -4.36464 3.54197 0
M  V30 10310 H 954.527 -0.823355 1.95792 0
M  V30 10311 H 956.79 -0.42432 0.847736 0
M  V30 10312 H 956.496 -2.08075 2.83545 0
M  V30 10313 H 956.37 -3.38371 1.66687 0
M  V30 10314 H 958.757 -2.82717 0.845888 0
M  V30 10315 H 958.838 -1.53188 2.04859 0
M  V30 10316 H 958.482 -3.2567 3.89745 0
M  V30 10317 H 958.412 -4.54162 2.66542 0
M  V30 10318 H 960.903 -3.03625 2.24989 0
M  V30 10319 H 961.216 -5.81646 5.0883 0
M  V30 10320 H 959.561 -5.23547 4.57081 0
M  V30 10321 H 962.752 -3.7102 2.85416 0
M  V30 10322 H 962.925 -4.97814 4.14832 0
M  V30 10323 N 956.331 -0.831506 -1.3388 0
M  V30 10324 C 957.263 -0.216908 -2.28171 0
M  V30 10325 C 958.276 0.598141 -1.51414 0
M  V30 10326 O 959.465 0.426416 -1.73332 0
M  V30 10327 C 956.565 0.713831 -3.31297 0
M  V30 10328 C 955.738 -0.0602673 -4.37358 0
M  V30 10329 C 954.797 0.792696 -5.20195 0
M  V30 10330 O 953.823 0.234564 -5.68716 0
M  V30 10331 N 955.025 2.11119 -5.40748 0
M  V30 10332 H 957.79 -1.02704 -2.81553 0
M  V30 10333 H 955.351 -0.689272 -1.46495 0
M  V30 10334 H 957.343 1.28925 -3.83615 0
M  V30 10335 H 955.913 1.42469 -2.78247 0
M  V30 10336 H 955.133 -0.817041 -3.8564 0
M  V30 10337 H 956.421 -0.592822 -5.05335 0
M  V30 10338 H 955.819 2.58828 -5.03016 0
M  V30 10339 H 954.376 2.63527 -5.96151 0
M  V30 10340 N 957.809 1.4625 -0.587256 0
M  V30 10341 C 959.039 2.06444 -0.0802135 0
M  V30 10342 C 959.447 1.43585 1.23207 0
M  V30 10343 O 958.79 0.536956 1.75677 0
M  V30 10344 C 958.852 3.59165 0.155129 0
M  V30 10345 C 958.516 4.44243 -1.07225 0
M  V30 10346 C 959.513 4.80497 -1.98542 0
M  V30 10347 C 957.198 4.8531 -1.29537 0
M  V30 10348 C 959.192 5.56649 -3.10516 0
M  V30 10349 C 956.879 5.61221 -2.41815 0
M  V30 10350 C 957.877 5.96805 -3.32134 0
M  V30 10351 O 957.565 6.71181 -4.42461 0
M  V30 10352 H 957.297 0.673626 -0.0566063 0
M  V30 10353 H 959.851 1.88797 -0.809004 0
M  V30 10354 H 958.081 3.75137 0.938583 0
M  V30 10355 H 959.77 4.01271 0.611243 0
M  V30 10356 H 960.536 4.49345 -1.82522 0
M  V30 10357 H 956.415 4.5706 -0.601431 0
M  V30 10358 H 959.959 5.84343 -3.81037 0
M  V30 10359 H 955.856 5.91786 -2.57797 0
M  V30 10360 H 956.624 6.8961 -4.40886 0
M  V30 10361 N 959.287 0.325282 1.54207 0
M  V30 10362 C 960.698 -0.162426 1.85992 0
M  V30 10363 C 961.049 -1.51482 1.2469 0
M  V30 10364 O 960.174 -2.092 0.553578 0
M  V30 10365 C 960.769 -0.3015 3.37456 0
M  V30 10366 C 959.328 -0.73343 3.69185 0
M  V30 10367 C 958.475 0.143831 2.76927 0
M  V30 10368 H 961.426 0.545508 1.4903 0
M  V30 10369 H 961.447 -1.13212 3.63268 0
M  V30 10370 H 960.959 0.682942 3.82044 0
M  V30 10371 H 959.06 -1.72755 3.30131 0
M  V30 10372 H 959.173 -0.535987 4.76092 0
M  V30 10373 H 957.537 -0.380892 2.51836 0
M  V30 10374 H 958.32 1.12507 3.24341 0
M  V30 10375 N 960.765 -1.57509 0.0534917 0
M  V30 10376 C 962.013 -1.92402 -0.618548 0
M  V30 10377 C 962.334 -0.93273 -1.71246 0
M  V30 10378 O 961.604 0.0220495 -1.95888 0
M  V30 10379 H 960.184 -0.710233 -0.23147 0
M  V30 10380 H 962.846 -1.94606 0.10704 0
M  V30 10381 H 961.942 -2.93704 -1.05566 0
M  V30 10382 N 962.243 0.219913 -1.56058 0
M  V30 10383 C 963.468 0.965073 -1.83579 0
M  V30 10384 C 963.893 1.77092 -0.634024 0
M  V30 10385 O 963.251 1.76434 0.417205 0
M  V30 10386 C 963.299 1.85705 -3.09105 0
M  V30 10387 O 962.403 2.95261 -2.87914 0
M  V30 10388 H 961.744 0.273173 -0.605204 0
M  V30 10389 H 964.274 0.23273 -2.03272 0
M  V30 10390 H 964.284 2.26655 -3.39252 0
M  V30 10391 H 962.959 1.26476 -3.96203 0
M  V30 10392 H 961.536 2.58246 -2.69005 0
M  V30 10393 N 963.721 1.49897 0.486681 0
M  V30 10394 C 964.967 1.61313 1.23893 0
M  V30 10395 C 965.322 0.302457 1.90008 0
M  V30 10396 O 964.615 -0.698466 1.78415 0
M  V30 10397 C 964.809 2.71982 2.31863 0
M  V30 10398 C 964.638 4.13685 1.76338 0
M  V30 10399 C 963.408 4.8029 1.57002 0
M  V30 10400 C 965.606 4.98446 1.26711 0
M  V30 10401 N 963.588 6.06259 0.965564 0
M  V30 10402 C 964.959 6.15011 0.784912 0
M  V30 10403 C 967.014 4.84338 1.15419 0
M  V30 10404 C 965.717 7.19019 0.200942 0
M  V30 10405 C 967.743 5.88508 0.584173 0
M  V30 10406 C 967.105 7.04311 0.112272 0
M  V30 10407 H 963.204 0.644555 0.442801 0
M  V30 10408 H 965.788 1.86959 0.543562 0
M  V30 10409 H 963.959 2.48086 2.98844 0
M  V30 10410 H 965.691 2.72842 2.98897 0
M  V30 10411 H 962.446 4.37324 1.81781 0
M  V30 10412 H 962.87 6.73554 0.6822 0
M  V30 10413 H 967.512 3.95107 1.50499 0
M  V30 10414 H 965.23 8.07937 -0.162099 0
M  V30 10415 H 968.816 5.79653 0.49938 0
M  V30 10416 H 967.696 7.83539 -0.321907 0
M  V30 10417 N 965.199 -0.738761 1.39212 0
M  V30 10418 C 966.162 -1.83441 1.37412 0
M  V30 10419 C 967.162 -1.58484 0.271908 0
M  V30 10420 O 968.352 -1.65954 0.529609 0
M  V30 10421 C 965.484 -3.21167 1.143 0
M  V30 10422 H 966.677 -1.86441 2.34904 0
M  V30 10423 H 964.23 -0.942023 1.24722 0
M  V30 10424 H 964.965 -3.23829 0.174756 0
M  V30 10425 H 964.75 -3.40678 1.94116 0
M  V30 10426 H 966.24 -4.01231 1.15773 0
M  V30 10427 N 966.677 -1.24326 -0.968545 0
M  V30 10428 C 967.587 -1.05194 -2.09694 0
M  V30 10429 C 968.603 0.00701291 -1.73999 0
M  V30 10430 O 969.779 -0.190981 -2.00492 0
M  V30 10431 C 966.844 -0.658075 -3.40397 0
M  V30 10432 C 965.905 -1.79341 -3.90045 0
M  V30 10433 C 965.138 -1.41824 -5.14511 0
M  V30 10434 O 965.361 -0.307693 -5.69569 0
M  V30 10435 O 964.295 -2.24358 -5.58522 0
M  V30 10436 H 968.121 -1.99791 -2.2873 0
M  V30 10437 H 965.706 -1.03138 -1.08088 0
M  V30 10438 H 967.588 -0.449911 -4.18991 0
M  V30 10439 H 966.263 0.258782 -3.22664 0
M  V30 10440 H 965.17 -2.05632 -3.12516 0
M  V30 10441 H 966.503 -2.68901 -4.12254 0
M  V30 10442 N 968.156 1.1691 -1.05688 0
M  V30 10443 C 969.404 1.86922 -0.768409 0
M  V30 10444 C 969.725 1.81735 0.706921 0
M  V30 10445 O 968.995 1.24671 1.51109 0
M  V30 10446 H 967.575 0.69203 -0.281253 0
M  V30 10447 H 970.237 1.41803 -1.33708 0
M  V30 10448 H 969.333 2.92528 -1.08783 0
M  V30 10449 N 969.634 0.838594 1.33437 0
M  V30 10450 C 970.862 0.447644 2.01999 0
M  V30 10451 C 971.277 -0.951053 1.63096 0
M  V30 10452 O 970.634 -1.61802 0.844169 0
M  V30 10453 C 970.685 0.558378 3.57162 0
M  V30 10454 O 970.406 1.90196 3.94661 0
M  V30 10455 C 971.907 0.164348 4.42995 0
M  V30 10456 H 969.127 0.177736 0.647032 0
M  V30 10457 H 971.671 1.13109 1.70372 0
M  V30 10458 H 969.826 -0.0771563 3.87323 0
M  V30 10459 H 970.24 1.88729 4.89369 0
M  V30 10460 H 971.714 0.292876 5.51222 0
M  V30 10461 H 972.191 -0.893713 4.30011 0
M  V30 10462 H 972.797 0.774306 4.18192 0
M  V30 10463 N 971.112 -1.45937 0.595003 0
M  V30 10464 C 972.042 -2.33198 -0.11871 0
M  V30 10465 C 973.023 -1.46083 -0.871423 0
M  V30 10466 O 974.208 -1.74879 -0.844461 0
M  V30 10467 C 971.338 -3.28576 -1.12495 0
M  V30 10468 C 970.292 -4.25229 -0.486275 0
M  V30 10469 C 969.618 -5.10204 -1.59986 0
M  V30 10470 C 970.918 -5.19019 0.584473 0
M  V30 10471 H 972.612 -2.93122 0.609886 0
M  V30 10472 H 970.158 -1.40951 0.294742 0
M  V30 10473 H 972.111 -3.88485 -1.6327 0
M  V30 10474 H 970.835 -2.66784 -1.88398 0
M  V30 10475 H 969.494 -3.666 0.000507962 0
M  V30 10476 H 969.142 -4.44789 -2.34886 0
M  V30 10477 H 968.842 -5.75669 -1.1781 0
M  V30 10478 H 970.366 -5.7298 -2.11014 0
M  V30 10479 H 971.78 -5.73073 0.161297 0
M  V30 10480 H 970.177 -5.92893 0.927256 0
M  V30 10481 H 971.247 -4.62208 1.46601 0
M  V30 10482 N 972.59 -0.333456 -1.54032 0
M  V30 10483 C 973.522 0.562174 -2.22199 0
M  V30 10484 C 974.535 1.07202 -1.22522 0
M  V30 10485 O 975.724 0.983897 -1.48935 0
M  V30 10486 C 972.824 1.78525 -2.88066 0
M  V30 10487 C 971.997 1.41242 -4.13968 0
M  V30 10488 C 971.056 2.49408 -4.63338 0
M  V30 10489 O 970.082 2.13138 -5.27789 0
M  V30 10490 N 971.284 3.805 -4.38406 0
M  V30 10491 H 974.049 -0.0215629 -2.99692 0
M  V30 10492 H 971.61 -0.157111 -1.61136 0
M  V30 10493 H 973.602 2.50298 -3.18014 0
M  V30 10494 H 972.172 2.2766 -2.14219 0
M  V30 10495 H 971.392 0.525887 -3.90676 0
M  V30 10496 H 972.68 1.13916 -4.95884 0
M  V30 10497 H 972.078 4.12761 -3.86839 0
M  V30 10498 H 970.635 4.48474 -4.72984 0
M  V30 10499 N 974.068 1.57479 -0.061844 0
M  V30 10500 C 974.998 2.15181 0.9066 0
M  V30 10501 C 975.979 1.07624 1.31724 0
M  V30 10502 O 977.164 1.35614 1.39006 0
M  V30 10503 C 974.294 2.70542 2.17771 0
M  V30 10504 C 973.248 3.83178 1.9068 0
M  V30 10505 C 972.574 4.25099 3.24337 0
M  V30 10506 C 973.874 5.07853 1.21994 0
M  V30 10507 H 975.568 2.96355 0.42594 0
M  V30 10508 H 973.114 1.42556 0.203435 0
M  V30 10509 H 975.067 3.09552 2.85929 0
M  V30 10510 H 973.791 1.86575 2.68062 0
M  V30 10511 H 972.45 3.44656 1.24931 0
M  V30 10512 H 972.098 3.38069 3.72449 0
M  V30 10513 H 971.798 5.01021 3.07005 0
M  V30 10514 H 973.322 4.66718 3.93709 0
M  V30 10515 H 974.736 5.44242 1.80204 0
M  V30 10516 H 973.133 5.88987 1.14954 0
M  V30 10517 H 974.203 4.84497 0.197536 0
M  V30 10518 N 975.546 -0.211634 1.56173 0
M  V30 10519 C 976.962 -0.56177 1.49386 0
M  V30 10520 C 977.162 -1.86666 0.758813 0
M  V30 10521 O 976.218 -2.50681 0.302534 0
M  V30 10522 C 977.531 -0.631815 2.93987 0
M  V30 10523 C 979.079 -0.721773 3.04564 0
M  V30 10524 C 979.554 -0.823075 4.50544 0
M  V30 10525 N 981.045 -0.887038 4.54627 0
M  V30 10526 C 981.78 -0.985304 5.64871 0
M  V30 10527 N 981.276 -1.0469 6.84844 0
M  V30 10528 N 983.069 -1.02121 5.52746 0
M  V30 10529 H 975.22 0.64452 2.02385 0
M  V30 10530 H 977.483 0.227466 0.920306 0
M  V30 10531 H 977.189 0.257592 3.50755 0
M  V30 10532 H 977.063 -1.4921 3.46433 0
M  V30 10533 H 979.45 -1.60162 2.47855 0
M  V30 10534 H 979.531 0.164385 2.55271 0
M  V30 10535 H 979.175 0.0523511 5.07873 0
M  V30 10536 H 979.105 -1.72479 4.97552 0
M  V30 10537 H 981.596 -0.849352 3.68231 0
M  V30 10538 H 981.909 -1.12193 7.64613 0
M  V30 10539 H 980.254 -1.01586 6.87536 0
M  V30 10540 H 983.445 -0.969814 4.57943 0
M  V30 10541 H 983.618 -1.09434 6.38693 0
M  V30 10542 N 977.024 -1.50153 -0.478725 0
M  V30 10543 C 978.249 -1.64776 -1.2595 0
M  V30 10544 C 978.674 -0.327794 -1.85222 0
M  V30 10545 O 978.032 0.707418 -1.66929 0
M  V30 10546 C 978.08 -2.73551 -2.34952 0
M  V30 10547 O 977.184 -2.34273 -3.39397 0
M  V30 10548 H 976.525 -0.550769 -0.370877 0
M  V30 10549 H 979.055 -1.96482 -0.570605 0
M  V30 10550 H 979.065 -2.96397 -2.8038 0
M  V30 10551 H 977.74 -3.69354 -1.91181 0
M  V30 10552 H 976.317 -2.21844 -2.99733 0
M  V30 10553 N 978.502 0.731368 -1.39602 0
M  V30 10554 C 979.727 1.52567 -1.40492 0
M  V30 10555 C 980.152 1.881 -0.00228828 0
M  V30 10556 O 979.51 1.52167 0.985643 0
M  V30 10557 C 979.558 2.78749 -2.2876 0
M  V30 10558 O 978.662 3.7482 -1.71999 0
M  V30 10559 H 978.003 0.460601 -0.478271 0
M  V30 10560 H 980.533 0.902042 -1.83642 0
M  V30 10561 H 980.543 3.27446 -2.43399 0
M  V30 10562 H 979.218 2.5222 -3.30693 0
M  V30 10563 H 977.795 3.33604 -1.66622 0
M  V30 10564 N 979.98 1.24838 0.961938 0
M  V30 10565 C 980.913 0.989041 2.05653 0
M  V30 10566 C 981.891 -0.079199 1.62407 0
M  V30 10567 O 983.075 0.0589397 1.88408 0
M  V30 10568 C 980.202 0.493661 3.35083 0
M  V30 10569 C 979.248 1.55132 3.97286 0
M  V30 10570 S 980.081 3.13438 4.34185 0
M  V30 10571 C 981.237 2.65617 5.66744 0
M  V30 10572 H 981.47 1.91588 2.27335 0
M  V30 10573 H 979.003 1.08287 1.10061 0
M  V30 10574 H 980.961 0.214482 4.09939 0
M  V30 10575 H 979.622 -0.412559 3.11379 0
M  V30 10576 H 978.815 1.15525 4.90581 0
M  V30 10577 H 978.417 1.78081 3.28882 0
M  V30 10578 H 980.709 2.08788 6.44526 0
M  V30 10579 H 981.652 3.57524 6.11214 0
M  V30 10580 H 982.06 2.05853 5.25628 0
M  V30 10581 N 981.458 -1.16348 1.06306 0
M  V30 10582 C 982.421 -2.18941 0.678053 0
M  V30 10583 C 983.421 -1.58409 -0.276277 0
M  V30 10584 O 984.611 -1.74101 -0.0586435 0
M  V30 10585 C 981.743 -3.409 -0.00228684 0
M  V30 10586 H 982.936 -2.54516 1.58624 0
M  V30 10587 H 980.489 -1.30625 0.858298 0
M  V30 10588 H 981.224 -3.10881 -0.923212 0
M  V30 10589 H 981.009 -3.86089 0.683949 0
M  V30 10590 H 982.499 -4.16806 -0.257374 0
M  V30 10591 N 982.937 -0.845659 -1.3299 0
M  V30 10592 C 983.884 -0.281761 -2.29074 0
M  V30 10593 C 984.854 0.606237 -1.54641 0
M  V30 10594 O 986.039 0.543063 -1.82908 0
M  V30 10595 C 983.179 0.531451 -3.40983 0
M  V30 10596 C 982.292 -0.381328 -4.30314 0
M  V30 10597 C 981.427 0.443643 -5.29344 0
M  V30 10598 C 980.466 -0.467101 -6.10315 0
M  V30 10599 N 979.603 0.320148 -7.0137 0
M  V30 10600 H 984.443 -1.10641 -2.76699 0
M  V30 10601 H 981.98 -0.55706 -1.36144 0
M  V30 10602 H 983.938 1.01848 -4.04577 0
M  V30 10603 H 982.568 1.32101 -2.94532 0
M  V30 10604 H 981.62 -0.986701 -3.6738 0
M  V30 10605 H 982.932 -1.08067 -4.86953 0
M  V30 10606 H 982.086 0.994212 -5.98498 0
M  V30 10607 H 980.825 1.17639 -4.73299 0
M  V30 10608 H 979.83 -1.02963 -5.40073 0
M  V30 10609 H 981.055 -1.19832 -6.68444 0
M  V30 10610 H 979.001 1.03615 -6.47765 0
M  V30 10611 H 978.918 -0.320338 -7.55321 0
M  V30 10612 H 980.186 0.852735 -7.74822 0
M  V30 10613 N 984.415 1.45619 -0.602734 0
M  V30 10614 C 985.347 2.28662 0.157012 0
M  V30 10615 C 986.36 1.39672 0.836396 0
M  V30 10616 O 987.549 1.64091 0.702599 0
M  V30 10617 C 984.649 3.1528 1.24306 0
M  V30 10618 C 983.822 4.32517 0.651731 0
M  V30 10619 C 982.881 5.00381 1.62804 0
M  V30 10620 O 981.907 5.57333 1.15624 0
M  V30 10621 N 983.109 4.99221 2.96241 0
M  V30 10622 H 985.874 2.94506 -0.555535 0
M  V30 10623 H 983.435 1.55753 -0.441881 0
M  V30 10624 H 985.427 3.57544 1.8959 0
M  V30 10625 H 983.997 2.51376 1.85819 0
M  V30 10626 H 983.217 3.93793 -0.17907 0
M  V30 10627 H 984.505 5.08249 0.236802 0
M  V30 10628 H 983.903 4.54232 3.37179 0
M  V30 10629 H 982.46 5.45364 3.56961 0
M  V30 10630 N 985.893 0.34162 1.53853 0
M  V30 10631 C 986.84 -0.516058 2.24957 0
M  V30 10632 C 987.81 -1.09711 1.2471 0
M  V30 10633 O 988.995 -1.13409 1.53438 0
M  V30 10634 C 986.135 -1.66207 3.02439 0
M  V30 10635 C 985.248 -1.10851 4.17536 0
M  V30 10636 C 984.383 -2.22167 4.82509 0
M  V30 10637 C 983.422 -1.64152 5.89678 0
M  V30 10638 N 982.559 -2.69203 6.4844 0
M  V30 10639 H 987.399 0.0968275 2.97843 0
M  V30 10640 H 984.936 0.0595565 1.46979 0
M  V30 10641 H 986.894 -2.33672 3.4562 0
M  V30 10642 H 985.524 -2.24597 2.31853 0
M  V30 10643 H 984.576 -0.324853 3.7901 0
M  V30 10644 H 985.888 -0.644151 4.94623 0
M  V30 10645 H 985.042 -2.97501 5.28751 0
M  V30 10646 H 983.781 -2.71946 4.04842 0
M  V30 10647 H 982.786 -0.873228 5.42821 0
M  V30 10648 H 984.011 -1.15228 6.69253 0
M  V30 10649 H 981.957 -3.1824 5.73637 0
M  V30 10650 H 981.874 -2.27383 7.20994 0
M  V30 10651 H 983.142 -3.44312 6.99335 0
M  V30 10652 N 987.371 -1.57444 0.0701946 0
M  V30 10653 C 988.301 -2.15659 -0.895176 0
M  V30 10654 C 989.282 -1.08321 -1.31151 0
M  V30 10655 O 990.467 -1.36349 -1.38284 0
M  V30 10656 C 987.597 -2.71693 -2.16334 0
M  V30 10657 C 986.551 -3.84183 -1.88645 0
M  V30 10658 C 985.877 -4.26814 -3.22078 0
M  V30 10659 C 987.177 -5.08493 -1.19299 0
M  V30 10660 H 988.871 -2.96576 -0.410217 0
M  V30 10661 H 986.417 -1.42662 -0.195872 0
M  V30 10662 H 988.37 -3.11064 -2.84284 0
M  V30 10663 H 987.094 -1.87994 -2.67069 0
M  V30 10664 H 985.753 -3.45314 -1.23101 0
M  V30 10665 H 985.401 -3.40039 -3.70651 0
M  V30 10666 H 985.101 -5.02642 -3.04344 0
M  V30 10667 H 986.625 -4.68799 -3.91228 0
M  V30 10668 H 988.039 -5.4519 -1.77316 0
M  V30 10669 H 986.436 -5.89588 -1.11828 0
M  V30 10670 H 987.506 -4.84595 -0.171839 0
M  V30 10671 N 988.849 0.203349 -1.56283 0
M  V30 10672 C 990.097 0.923183 -1.79782 0
M  V30 10673 C 990.418 1.84134 -0.64185 0
M  V30 10674 O 989.688 1.92922 0.340292 0
M  V30 10675 H 988.268 0.343881 -0.66314 0
M  V30 10676 H 990.93 0.210837 -1.93756 0
M  V30 10677 H 990.026 1.51921 -2.72629 0
M  V30 10678 N 990.327 1.50405 0.470755 0
M  V30 10679 C 991.257 1.72222 1.57676 0
M  V30 10680 C 992.238 0.57121 1.60222 0
M  V30 10681 O 993.423 0.810381 1.76484 0
M  V30 10682 C 990.553 1.81666 2.95998 0
M  V30 10683 C 989.507 2.96857 3.08318 0
M  V30 10684 C 988.833 2.91445 4.4829 0
M  V30 10685 C 990.133 4.37361 2.85504 0
M  V30 10686 H 991.827 2.64825 1.39671 0
M  V30 10687 H 989.373 1.27438 0.67049 0
M  V30 10688 H 991.326 1.95514 3.73299 0
M  V30 10689 H 990.05 0.856856 3.1516 0
M  V30 10690 H 988.709 2.82661 2.33449 0
M  V30 10691 H 988.357 1.93309 4.64371 0
M  V30 10692 H 988.057 3.68776 4.57469 0
M  V30 10693 H 989.581 3.07341 5.27611 0
M  V30 10694 H 990.995 4.52081 3.52555 0
M  V30 10695 H 989.392 5.16145 3.06127 0
M  V30 10696 H 990.462 4.49708 1.81359 0
M  V30 10697 O 991.844 -0.616299 1.49278 0
M  V30 10698 H 992.535 -1.27072 1.46193 0
M  V30 END ATOM
M  V30 BEGIN BOND
M  V30 END BOND
M  V30 END CTAB
M  END
$$$$
