drugbank_target|Q99643 Succinate dehydrogenase cytochrome b560 subunit, mitochondrial (DB04141; DB08689)
 OpenBabel12092120083D

  0  0  0     0  0            999 V3000
M  V30 BEGIN CTAB
M  V30 COUNTS 2661 2695 0 0 0
M  V30 BEGIN ATOM
M  V30 1 H -0.908 1.98254 -0.117106 0
M  V30 2 N 0 1.576 0 0
M  V30 3 C 0.933 2.03868 1.02534 0
M  V30 4 C 1.911 0.928543 1.3348 0
M  V30 5 O 3.095 1.19667 1.45644 0
M  V30 6 C 0.222 2.43627 2.35294 0
M  V30 7 C -0.732 3.65373 2.2001 0
M  V30 8 S 0.101 5.13292 1.52614 0
M  V30 9 C 1.257 5.56322 2.86805 0
M  V30 10 H 1.49 2.90518 0.631377 0
M  V30 11 H -0.977 1.52953 0.210867 0
M  V30 12 H 0.981 2.67203 3.11629 0
M  V30 13 H -0.358 1.57376 2.7183 0
M  V30 14 H -1.165 3.90944 3.18086 0
M  V30 15 H -1.563 3.418 1.51819 0
M  V30 16 H 0.729 5.58782 3.83104 0
M  V30 17 H 1.672 6.56266 2.65933 0
M  V30 18 H 2.08 4.83886 2.90714 0
M  V30 19 N 1.4781 -0.272755 1.55222 0
M  V30 20 C 2.4411 -1.32041 1.87344 0
M  V30 21 C 3.4411 -1.42342 0.74803 0
M  V30 22 O 4.6311 -1.41488 1.0162 0
M  V30 23 C 1.7631 -2.70173 2.07893 0
M  V30 24 H 2.9561 -1.04789 2.80997 0
M  V30 25 H 0.5091 -0.51083 1.47717 0
M  V30 26 H 1.2441 -3.02605 1.16622 0
M  V30 27 H 1.0291 -2.64082 2.89833 0
M  V30 28 H 2.5191 -3.45869 2.34017 0
M  V30 29 N 2.9562 -1.48159 -0.537278 0
M  V30 30 C 3.9192 -1.61665 -1.62472 0
M  V30 31 C 4.9192 -0.490395 -1.5314 0
M  V30 32 O 6.1092 -0.755998 -1.5694 0
M  V30 33 C 3.2412 -1.57997 -3.02076 0
M  V30 34 H 4.4342 -2.58621 -1.51839 0
M  V30 35 H 1.9872 -1.36647 -0.758771 0
M  V30 36 H 2.7222 -0.624913 -3.18222 0
M  V30 37 H 2.5072 -2.39755 -3.10258 0
M  V30 38 H 3.9972 -1.70627 -3.81151 0
M  V30 39 N 4.4343 0.785586 -1.36625 0
M  V30 40 C 5.3643 1.91259 -1.33949 0
M  V30 41 C 6.3453 1.68795 -0.210325 0
M  V30 42 O 7.5303 1.89854 -0.408561 0
M  V30 43 C 4.6603 3.28339 -1.13186 0
M  V30 44 C 3.6143 3.65335 -2.22967 0
M  V30 45 C 2.9403 5.00806 -1.87342 0
M  V30 46 C 4.2403 3.7352 -3.65075 0
M  V30 47 H 5.9343 1.93755 -2.28253 0
M  V30 48 H 3.4803 0.930788 -1.09874 0
M  V30 49 H 5.4333 4.06804 -1.09948 0
M  V30 50 H 4.1573 3.2624 -0.153332 0
M  V30 51 H 2.8163 2.89169 -2.25337 0
M  V30 52 H 2.4643 4.95233 -0.880545 0
M  V30 53 H 2.1643 5.26529 -2.60846 0
M  V30 54 H 3.6883 5.81687 -1.85667 0
M  V30 55 H 5.1023 4.42168 -3.64911 0
M  V30 56 H 3.4993 4.10731 -4.37516 0
M  V30 57 H 4.5693 2.74527 -3.99703 0
M  V30 58 N 5.9124 1.20967 1.01018 0
M  V30 59 C 6.8424 0.988272 2.11555 0
M  V30 60 C 7.8234 -0.0849778 1.69888 0
M  V30 61 O 9.0084 0.0738202 1.9406 0
M  V30 62 C 6.1384 0.546528 3.42973 0
M  V30 63 C 5.0924 1.56375 3.9841 0
M  V30 64 C 4.4184 0.97842 5.25672 0
M  V30 65 C 5.7184 2.94922 4.31066 0
M  V30 66 H 7.4124 1.91276 2.30334 0
M  V30 67 H 4.9584 0.921073 1.1069 0
M  V30 68 H 6.9114 0.378839 4.19694 0
M  V30 69 H 5.6354 -0.413598 3.23971 0
M  V30 70 H 4.2944 1.71891 3.23804 0
M  V30 71 H 3.9424 0.0101688 5.02999 0
M  V30 72 H 3.6424 1.65784 5.63728 0
M  V30 73 H 5.1664 0.821939 6.05043 0
M  V30 74 H 6.5804 2.8288 4.9865 0
M  V30 75 H 4.9774 3.5983 4.80253 0
M  V30 76 H 6.0474 3.4616 3.39561 0
M  V30 77 N 7.3905 -1.2043 1.01659 0
M  V30 78 C 8.3205 -2.25466 0.607226 0
M  V30 79 C 9.3015 -1.65853 -0.377716 0
M  V30 80 O 10.4865 -1.92409 -0.263149 0
M  V30 81 C 7.6165 -3.47256 -0.0552949 0
M  V30 82 C 6.5705 -4.19462 0.850632 0
M  V30 83 C 5.8965 -5.34673 0.0538859 0
M  V30 84 C 7.1965 -4.75603 2.15868 0
M  V30 85 H 8.8905 -2.59962 1.48526 0
M  V30 86 H 6.4365 -1.2496 0.715605 0
M  V30 87 H 8.3895 -4.19917 -0.353233 0
M  V30 88 H 7.1135 -3.11924 -0.968045 0
M  V30 89 H 5.7725 -3.48667 1.13257 0
M  V30 90 H 5.4205 -4.95585 -0.860514 0
M  V30 91 H 5.1205 -5.83913 0.657192 0
M  V30 92 H 6.6445 -6.10138 -0.237598 0
M  V30 93 H 8.0585 -5.40083 1.92311 0
M  V30 94 H 6.4555 -5.3528 2.71284 0
M  V30 95 H 7.5255 -3.94346 2.82169 0
M  V30 96 N 8.8686 -0.792821 -1.36206 0
M  V30 97 C 10.2846 -0.474903 -1.52371 0
M  V30 98 C 10.4846 1.00622 -1.74578 0
M  V30 99 O 9.5406 1.79162 -1.77924 0
M  V30 100 C 10.8536 -1.3083 -2.70747 0
M  V30 101 C 12.4016 -1.30234 -2.84619 0
M  V30 102 C 12.8766 -2.11956 -4.06004 0
M  V30 103 N 14.3676 -2.09419 -4.13156 0
M  V30 104 C 15.1026 -2.69419 -5.06163 0
M  V30 105 N 14.5986 -3.3829 -6.04592 0
M  V30 106 N 16.3916 -2.59134 -4.98804 0
M  V30 107 H 8.5426 -1.75222 -1.20046 0
M  V30 108 H 10.8056 -0.745024 -0.586211 0
M  V30 109 H 10.5116 -2.35881 -2.6087 0
M  V30 110 H 10.3856 -0.95196 -3.6499 0
M  V30 111 H 12.7726 -0.259748 -2.93955 0
M  V30 112 H 12.8536 -1.69847 -1.91274 0
M  V30 113 H 12.4976 -3.16248 -3.97429 0
M  V30 114 H 12.4276 -1.69711 -4.98503 0
M  V30 115 H 14.9186 -1.59297 -3.42685 0
M  V30 116 H 15.2316 -3.81394 -6.7213 0
M  V30 117 H 13.5766 -3.42393 -6.04807 0
M  V30 118 H 16.7676 -2.04927 -4.20859 0
M  V30 119 H 16.9406 -3.06185 -5.711 0
M  V30 120 N 10.3467 1.47872 -0.545128 0
M  V30 121 C 11.2967 2.26842 0.229456 0
M  V30 122 C 12.2807 1.33626 0.896267 0
M  V30 123 O 13.4727 1.58063 0.79657 0
M  V30 124 C 10.6017 3.19089 1.26638 0
M  V30 125 C 9.6877 4.19783 0.603598 0
M  V30 126 N 10.0787 5.0479 -0.319405 0
M  V30 127 C 8.3767 4.3765 0.858989 0
M  V30 128 C 9.0777 5.77433 -0.703241 0
M  V30 129 N 8.0537 5.43566 -0.0608309 0
M  V30 130 H 11.8557 2.89947 -0.480391 0
M  V30 131 H 9.3697 1.58263 -0.364209 0
M  V30 132 H 11.3667 3.74337 1.83515 0
M  V30 133 H 10.0267 2.5754 1.97745 0
M  V30 134 H 11.0377 5.13244 -0.692889 0
M  V30 135 H 7.7147 3.87281 1.55948 0
M  V30 136 H 9.1047 6.55824 -1.46098 0
M  V30 137 N 11.8248 0.280983 1.55075 0
M  V30 138 C 13.0708 -0.33461 2.00021 0
M  V30 139 C 13.4038 -1.55063 1.16915 0
M  V30 140 O 12.6788 -1.93006 0.240646 0
M  V30 141 C 12.9618 -0.711007 3.53011 0
M  V30 142 C 12.8148 0.512766 4.46868 0
M  V30 143 C 14.1338 -1.54522 4.12081 0
M  V30 144 H 11.2528 -0.120147 0.727141 0
M  V30 145 H 13.8948 0.389097 1.85973 0
M  V30 146 H 12.0448 -1.32761 3.65112 0
M  V30 147 H 13.7168 1.15131 4.46702 0
M  V30 148 H 11.9598 1.14975 4.18286 0
M  V30 149 H 12.6308 0.205556 5.51617 0
M  V30 150 H 15.1068 -1.02442 4.03293 0
M  V30 151 H 13.9828 -1.77739 5.19327 0
M  V30 152 H 14.2438 -2.52813 3.62682 0
M  V30 153 N 13.3029 -1.57598 0.00835791 0
M  V30 154 C 14.5509 -1.90551 -0.6734 0
M  V30 155 C 14.8719 -0.883301 -1.73847 0
M  V30 156 O 14.1419 0.0781442 -1.95744 0
M  V30 157 H 12.7219 -0.703312 -0.251717 0
M  V30 158 H 15.3839 -1.94833 0.0512592 0
M  V30 159 H 14.4799 -2.9056 -1.13935 0
M  V30 160 N 14.781 0.264519 -1.55364 0
M  V30 161 C 16.197 0.61215 -1.47394 0
M  V30 162 C 16.397 1.89134 -0.695018 0
M  V30 163 O 15.453 2.51563 -0.217275 0
M  V30 164 C 16.766 0.731235 -2.91674 0
M  V30 165 C 18.314 0.82473 -3.01939 0
M  V30 166 C 18.789 0.975522 -4.4749 0
M  V30 167 N 20.28 1.04083 -4.51354 0
M  V30 168 C 21.015 1.17646 -5.61201 0
M  V30 169 N 20.511 1.27874 -6.80896 0
M  V30 170 N 22.304 1.20823 -5.48961 0
M  V30 171 H 14.455 -0.575456 -2.04456 0
M  V30 172 H 16.718 -0.196099 -0.927496 0
M  V30 173 H 16.424 -0.138392 -3.51428 0
M  V30 174 H 16.298 1.60883 -3.41169 0
M  V30 175 H 18.685 1.68482 -2.42276 0
M  V30 176 H 18.766 -0.0776479 -2.55682 0
M  V30 177 H 18.41 0.120058 -5.07758 0
M  V30 178 H 18.34 1.89268 -4.91412 0
M  V30 179 H 20.831 0.973846 -3.65136 0
M  V30 180 H 21.144 1.38081 -7.60364 0
M  V30 181 H 19.489 1.24863 -6.83692 0
M  V30 182 H 22.68 1.12469 -4.54388 0
M  V30 183 H 22.853 1.31049 -6.3461 0
M  V30 184 N 16.2591 1.48442 0.529413 0
M  V30 185 C 17.2091 1.59407 1.63014 0
M  V30 186 C 18.1931 0.451166 1.54445 0
M  V30 187 O 19.3851 0.702635 1.62456 0
M  V30 188 C 16.5141 1.63746 3.01732 0
M  V30 189 C 15.6001 2.83518 3.15402 0
M  V30 190 N 15.9911 4.07929 2.99045 0
M  V30 191 C 14.2891 2.80862 3.46457 0
M  V30 192 C 14.9901 4.8829 3.16146 0
M  V30 193 N 13.9661 4.21117 3.43746 0
M  V30 194 H 17.7681 2.53343 1.48978 0
M  V30 195 H 15.2821 1.44821 0.734885 0
M  V30 196 H 17.2791 1.69695 3.80801 0
M  V30 197 H 15.9391 0.709264 3.16859 0
M  V30 198 H 16.9501 4.38357 2.75796 0
M  V30 199 H 13.6271 1.97301 3.67938 0
M  V30 200 H 15.0171 5.97028 3.08232 0
M  V30 201 N 17.7372 -0.778329 1.37039 0
M  V30 202 C 18.9772 -1.54973 1.33276 0
M  V30 203 C 19.3412 -1.91816 -0.0839376 0
M  V30 204 O 20.5422 -2.6767 -0.246228 0
M  V30 205 C 18.8132 -2.78517 2.23971 0
M  V30 206 S 20.3722 -3.6865 2.37997 0
M  V30 207 H 17.1902 -0.530639 0.473226 0
M  V30 208 H 19.7922 -0.915806 1.72723 0
M  V30 209 H 18.4962 -2.4952 3.25835 0
M  V30 210 H 18.0272 -3.46875 1.85584 0
M  V30 211 H 20.0422 -4.70182 1.58567 0
M  V30 212 N 19.2153 -1.21501 -1.00376 0
M  V30 213 C 20.1453 -0.999478 -2.11028 0
M  V30 214 C 21.1263 0.0759671 -1.6993 0
M  V30 215 O 22.3113 -0.0841106 -1.94018 0
M  V30 216 C 19.4413 -0.564709 -3.42678 0
M  V30 217 C 18.3953 -1.58486 -3.97576 0
M  V30 218 C 17.7213 -1.00628 -5.25146 0
M  V30 219 C 19.0213 -2.97204 -4.29496 0
M  V30 220 H 20.7153 -1.92495 -2.29317 0
M  V30 221 H 18.2613 -0.92693 -1.102 0
M  V30 222 H 20.2143 -0.401091 -4.19487 0
M  V30 223 H 18.9383 0.396411 -3.24185 0
M  V30 224 H 17.5973 -1.73606 -3.22888 0
M  V30 225 H 17.2453 -0.0368439 -5.02987 0
M  V30 226 H 16.9453 -1.68771 -5.62841 0
M  V30 227 H 18.4693 -0.854015 -6.04598 0
M  V30 228 H 19.8833 -2.8552 -4.97143 0
M  V30 229 H 18.2803 -3.62372 -4.78338 0
M  V30 230 H 19.3503 -3.47956 -3.3772 0
M  V30 231 N 20.6934 1.19889 -1.02296 0
M  V30 232 C 22.1094 1.41462 -0.738954 0
M  V30 233 C 22.3094 1.89721 0.678846 0
M  V30 234 O 21.3654 2.07016 1.4457 0
M  V30 235 C 22.6784 2.43083 -1.77005 0
M  V30 236 C 24.2264 2.5684 -1.78892 0
M  V30 237 C 24.7014 3.61709 -2.80945 0
M  V30 238 N 26.1924 3.69199 -2.79725 0
M  V30 239 C 26.9274 4.50019 -3.55345 0
M  V30 240 N 26.4234 5.34592 -4.40662 0
M  V30 241 N 28.2164 4.44612 -3.43914 0
M  V30 242 H 20.3674 0.868827 -1.93817 0
M  V30 243 H 22.6304 0.44399 -0.837602 0
M  V30 244 H 22.3364 2.14636 -2.78612 0
M  V30 245 H 22.2104 3.4217 -1.58744 0
M  V30 246 H 24.5974 2.84614 -0.779674 0
M  V30 247 H 24.6784 1.57927 -2.01228 0
M  V30 248 H 24.3224 3.34678 -3.82038 0
M  V30 249 H 24.2524 4.60259 -2.5587 0
M  V30 250 H 26.7434 3.08794 -2.17842 0
M  V30 251 H 27.0564 5.93363 -4.95116 0
M  V30 252 H 25.4014 5.34073 -4.44737 0
M  V30 253 H 28.5924 3.7758 -2.76679 0
M  V30 254 H 28.7654 5.0736 -4.031 0
M  V30 255 N 22.1715 0.800033 1.35784 0
M  V30 256 C 23.1345 0.211565 2.28221 0
M  V30 257 C 24.1345 -0.59728 1.49296 0
M  V30 258 O 25.3245 -0.416721 1.69142 0
M  V30 259 C 22.4565 -0.705846 3.33513 0
M  V30 260 H 23.6495 1.02677 2.81776 0
M  V30 261 H 21.2025 0.570211 1.45528 0
M  V30 262 H 21.9375 -1.54498 2.85133 0
M  V30 263 H 21.7225 -0.127655 3.91892 0
M  V30 264 H 23.2125 -1.11211 4.02519 0
M  V30 265 N 23.6496 -1.47581 0.552962 0
M  V30 266 C 24.5996 -2.26961 -0.217423 0
M  V30 267 C 25.5836 -1.34099 -0.889168 0
M  V30 268 O 26.7756 -1.58483 -0.788176 0
M  V30 269 C 23.9046 -3.19756 -1.24944 0
M  V30 270 C 22.9906 -4.20097 -0.581327 0
M  V30 271 N 23.3816 -5.04614 0.346171 0
M  V30 272 C 21.6796 -4.38099 -0.835767 0
M  V30 273 C 22.3806 -5.77052 0.733854 0
M  V30 274 N 21.3566 -5.43526 0.0896567 0
M  V30 275 H 25.1586 -2.89688 0.495761 0
M  V30 276 H 22.6726 -1.58068 0.372597 0
M  V30 277 H 24.6696 -3.75305 -1.81527 0
M  V30 278 H 23.3296 -2.58585 -1.96376 0
M  V30 279 H 24.3406 -5.12869 0.720098 0
M  V30 280 H 21.0176 -3.88102 -1.53892 0
M  V30 281 H 22.4076 -6.5504 1.49574 0
M  V30 282 N 25.1277 -0.289203 -1.54924 0
M  V30 283 C 26.3747 0.323519 -1.99899 0
M  V30 284 C 26.7027 1.54797 -1.17762 0
M  V30 285 O 25.9577 1.94237 -0.238835 0
M  V30 286 C 26.2567 0.736119 -3.49737 0
M  V30 287 C 25.9227 -0.385276 -4.49251 0
M  V30 288 C 24.5847 -0.693156 -4.76181 0
M  V30 289 C 26.9367 -1.14021 -5.08575 0
M  V30 290 C 24.2647 -1.7593 -5.59701 0
M  V30 291 C 26.6167 -2.19619 -5.93254 0
M  V30 292 C 25.2807 -2.51026 -6.185 0
M  V30 293 H 24.5507 0.118384 -0.731482 0
M  V30 294 H 27.1977 -0.405847 -1.8715 0
M  V30 295 H 25.5027 1.54539 -3.60035 0
M  V30 296 H 27.1997 1.22118 -3.81953 0
M  V30 297 H 23.7897 -0.135202 -4.28387 0
M  V30 298 H 27.9737 -0.915611 -4.87781 0
M  V30 299 H 23.2297 -2.0075 -5.77503 0
M  V30 300 H 27.4037 -2.78581 -6.38252 0
M  V30 301 H 25.0307 -3.33772 -6.83008 0
M  V30 302 N 26.6058 1.57591 -0.0167156 0
M  V30 303 C 27.8308 1.9598 0.67872 0
M  V30 304 C 28.2558 0.892546 1.65575 0
M  V30 305 O 27.6138 -0.147772 1.80697 0
M  V30 306 C 27.6618 3.33468 1.37227 0
M  V30 307 O 26.7658 3.28954 2.48722 0
M  V30 308 H 26.1068 0.639339 0.17928 0
M  V30 309 H 28.6368 2.04463 -0.0748802 0
M  V30 310 H 28.6468 3.69417 1.7319 0
M  V30 311 H 27.3218 4.10694 0.656007 0
M  V30 312 H 25.8988 3.04705 2.14963 0
M  V30 313 N 28.0839 -0.256276 1.55502 0
M  V30 314 C 29.4949 -0.826068 1.67431 0
M  V30 315 C 29.8459 -1.86396 0.612446 0
M  V30 316 O 28.9709 -2.15031 -0.243025 0
M  V30 317 C 29.5659 -1.50512 3.03532 0
M  V30 318 C 28.1249 -2.02273 3.17431 0
M  V30 319 C 27.2719 -0.870548 2.63281 0
M  V30 320 H 30.2229 -0.0322728 1.58667 0
M  V30 321 H 30.2439 -2.37279 2.97454 0
M  V30 322 H 29.7559 -0.749484 3.80794 0
M  V30 323 H 27.8569 -2.80746 2.44974 0
M  V30 324 H 27.9699 -2.22655 4.24219 0
M  V30 325 H 26.3339 -1.26851 2.20864 0
M  V30 326 H 27.1169 -0.128149 3.43061 0
M  V30 327 N 29.562 -1.4872 -0.521534 0
M  V30 328 C 30.494 -1.59968 -1.64143 0
M  V30 329 C 31.507 -0.483463 -1.55456 0
M  V30 330 O 32.696 -0.75467 -1.61762 0
M  V30 331 C 29.796 -1.52127 -3.02838 0
M  V30 332 C 28.969 -2.78932 -3.36921 0
M  V30 333 C 28.028 -2.64428 -4.54933 0
M  V30 334 O 27.054 -3.38331 -4.57735 0
M  V30 335 N 28.256 -1.74606 -5.53618 0
M  V30 336 H 31.021 -2.56548 -1.54929 0
M  V30 337 H 28.582 -1.45551 -0.708988 0
M  V30 338 H 30.574 -1.40106 -3.79674 0
M  V30 339 H 29.144 -0.634868 -3.06085 0
M  V30 340 H 28.364 -3.05455 -2.4918 0
M  V30 341 H 29.652 -3.63041 -3.56481 0
M  V30 342 H 29.05 -1.13782 -5.54139 0
M  V30 343 H 27.607 -1.6852 -6.29638 0
M  V30 344 N 31.0401 0.771051 -1.3745 0
M  V30 345 C 31.9701 1.89827 -1.3597 0
M  V30 346 C 32.9511 1.68562 -0.228216 0
M  V30 347 O 34.1361 1.8941 -0.428675 0
M  V30 348 C 31.2661 3.2712 -1.16662 0
M  V30 349 C 30.2201 3.6295 -2.2683 0
M  V30 350 C 29.5461 4.98791 -1.92644 0
M  V30 351 C 30.8461 3.69627 -3.69017 0
M  V30 352 H 32.5401 1.91323 -2.30295 0
M  V30 353 H 30.0861 0.919082 -1.10855 0
M  V30 354 H 32.0391 4.05615 -1.14256 0
M  V30 355 H 30.7631 3.26059 -0.187926 0
M  V30 356 H 29.4221 2.86763 -2.28392 0
M  V30 357 H 29.0701 4.94271 -0.933021 0
M  V30 358 H 28.7701 5.23733 -2.66416 0
M  V30 359 H 30.2941 5.79685 -1.91826 0
M  V30 360 H 31.7081 4.38273 -3.69581 0
M  V30 361 H 30.1051 4.06067 -4.41848 0
M  V30 362 H 31.1751 2.70273 -4.02592 0
M  V30 363 N 32.5182 1.22032 0.997298 0
M  V30 364 C 33.7582 1.05375 1.75144 0
M  V30 365 C 34.1222 -0.404696 1.87686 0
M  V30 366 O 35.3232 -0.691998 2.5974 0
M  V30 367 C 33.5942 1.74046 3.12158 0
M  V30 368 S 35.1532 1.72745 4.03366 0
M  V30 369 H 31.9712 0.377449 0.602539 0
M  V30 370 H 34.5732 1.54902 1.19272 0
M  V30 371 H 33.2772 2.79332 3.00669 0
M  V30 372 H 32.8082 1.24731 3.73103 0
M  V30 373 H 34.8232 0.774015 4.90126 0
M  V30 374 N 33.9963 -1.19345 1.0293 0
M  V30 375 C 35.2453 -1.88363 0.721256 0
M  V30 376 C 35.5583 -1.80514 -0.753254 0
M  V30 377 O 36.7643 -2.44788 -1.17436 0
M  V30 378 C 35.2203 -3.37872 1.23978 0
M  V30 379 C 34.8283 -3.54278 2.74211 0
M  V30 380 C 36.5723 -4.12365 1.00775 0
M  V30 381 C 34.4793 -4.97682 3.19479 0
M  V30 382 H 33.4093 -0.705484 0.266098 0
M  V30 383 H 36.0603 -1.34928 1.24365 0
M  V30 384 H 34.4423 -3.90707 0.6453 0
M  V30 385 H 35.6163 -3.11769 3.39318 0
M  V30 386 H 33.9313 -2.93174 2.95699 0
M  V30 387 H 36.5283 -5.18119 1.32123 0
M  V30 388 H 36.8713 -4.16263 -0.0554308 0
M  V30 389 H 37.4043 -3.65668 1.56625 0
M  V30 390 H 34.1433 -4.98945 4.25128 0
M  V30 391 H 33.6633 -5.4095 2.591 0
M  V30 392 H 35.3423 -5.66337 3.12845 0
M  V30 393 N 35.4744 -0.807222 -1.35358 0
M  V30 394 C 36.8904 -0.491038 -1.51858 0
M  V30 395 C 37.0904 0.987648 -1.75635 0
M  V30 396 O 36.1464 1.77265 -1.79815 0
M  V30 397 C 37.4594 -1.33695 -2.69344 0
M  V30 398 C 39.0074 -1.33246 -2.83222 0
M  V30 399 C 39.4824 -2.1625 -4.03733 0
M  V30 400 N 40.9734 -2.1379 -4.10911 0
M  V30 401 C 41.7084 -2.74772 -5.03277 0
M  V30 402 N 41.2044 -3.44684 -6.0097 0
M  V30 403 N 42.9974 -2.6441 -4.96028 0
M  V30 404 H 35.1484 -1.76485 -1.18181 0
M  V30 405 H 37.4114 -0.751199 -0.578276 0
M  V30 406 H 37.1174 -2.38634 -2.58354 0
M  V30 407 H 36.9914 -0.990618 -3.6396 0
M  V30 408 H 39.3784 -0.290911 -2.93663 0
M  V30 409 H 39.4594 -1.71866 -1.89461 0
M  V30 410 H 39.1034 -3.20445 -3.94052 0
M  V30 411 H 39.0334 -1.74989 -4.96675 0
M  V30 412 H 41.5244 -1.62923 -3.40976 0
M  V30 413 H 41.8374 -3.88501 -6.68047 0
M  V30 414 H 40.1824 -3.48788 -6.01142 0
M  V30 415 H 43.3734 -2.0938 -4.18662 0
M  V30 416 H 43.5464 -3.12225 -5.6782 0
M  V30 417 N 36.9525 1.47285 -0.560781 0
M  V30 418 C 37.9005 2.31756 0.197942 0
M  V30 419 C 38.8945 1.43146 0.905854 0
M  V30 420 O 40.1005 1.59891 0.826733 0
M  V30 421 H 36.4755 0.747438 0.0827049 0
M  V30 422 H 38.4465 2.9359 -0.533629 0
M  V30 423 C 37.1955 3.25874 1.21249 0
M  V30 424 H 36.5185 3.94023 0.67719 0
M  V30 425 H 37.9585 3.87803 1.71419 0
M  V30 426 C 36.4175 2.49651 2.26221 0
M  V30 427 O 36.9475 2.24355 3.33208 0
M  V30 428 N 35.1535 2.10597 2.00243 0
M  V30 429 H 34.7005 2.31369 1.13252 0
M  V30 430 H 34.6585 1.59913 2.70694 0
M  V30 431 N 38.4306 0.297415 1.54768 0
M  V30 432 C 39.3936 -0.567375 2.22066 0
M  V30 433 C 40.3936 -1.06409 1.20556 0
M  V30 434 O 41.5836 -0.960691 1.45315 0
M  V30 435 C 38.7156 -1.78517 2.90421 0
M  V30 436 H 39.9086 0.0205534 2.99893 0
M  V30 437 H 37.4616 0.0482163 1.56226 0
M  V30 438 H 38.1966 -2.41303 2.16664 0
M  V30 439 H 37.9816 -1.43669 3.64831 0
M  V30 440 H 39.4716 -2.39964 3.41771 0
M  V30 441 N 39.9087 -1.5758 0.0250728 0
M  V30 442 C 41.1547 -1.91917 -0.655413 0
M  V30 443 C 41.4877 -0.901433 -1.72011 0
M  V30 444 O 40.7627 0.0764069 -1.9435 0
M  V30 445 C 41.0457 -3.36751 -1.27558 0
M  V30 446 C 40.8987 -4.49258 -0.220719 0
M  V30 447 C 42.2177 -3.81469 -2.19475 0
M  V30 448 H 39.3367 -0.697925 -0.23679 0
M  V30 449 H 41.9787 -1.89825 0.0815036 0
M  V30 450 H 40.1287 -3.38664 -1.90365 0
M  V30 451 H 41.8007 -4.59478 0.409601 0
M  V30 452 H 40.0437 -4.31415 0.454264 0
M  V30 453 H 40.7147 -5.47618 -0.694175 0
M  V30 454 H 43.1907 -3.81266 -1.66659 0
M  V30 455 H 42.0667 -4.83512 -2.59822 0
M  V30 456 H 42.3277 -3.16744 -3.08424 0
M  V30 457 N 41.3868 0.248026 -1.55636 0
M  V30 458 C 42.7978 0.817177 -1.67866 0
M  V30 459 C 43.1488 1.86069 -0.622322 0
M  V30 460 O 42.2738 2.15157 0.231618 0
M  V30 461 C 42.8688 1.489 -3.04326 0
M  V30 462 C 41.4278 2.00587 -3.185 0
M  V30 463 C 40.5748 0.856573 -2.63739 0
M  V30 464 H 43.5258 0.0238579 -1.58682 0
M  V30 465 H 43.5468 2.35698 -2.98708 0
M  V30 466 H 43.0588 0.729279 -3.81186 0
M  V30 467 H 41.1598 2.79443 -2.4646 0
M  V30 468 H 41.2728 2.20402 -4.25393 0
M  V30 469 H 39.6368 1.25678 -2.21534 0
M  V30 470 H 40.4198 0.109953 -3.43124 0
M  V30 471 N 42.8649 1.48995 0.513639 0
M  V30 472 C 43.7949 1.67636 1.62544 0
M  V30 473 C 44.7759 0.525087 1.61793 0
M  V30 474 O 45.9609 0.759502 1.78732 0
M  V30 475 C 43.0909 1.73114 3.01079 0
M  V30 476 C 42.0449 2.87905 3.16693 0
M  V30 477 C 41.3709 2.78486 4.56453 0
M  V30 478 C 42.6709 4.29005 2.97913 0
M  V30 479 H 44.3649 2.60716 1.47198 0
M  V30 480 H 41.9109 1.25465 0.706714 0
M  V30 481 H 43.8639 1.84742 3.78746 0
M  V30 482 H 42.5879 0.766241 3.17484 0
M  V30 483 H 41.2469 2.75859 2.41448 0
M  V30 484 H 40.8949 1.7993 4.69717 0
M  V30 485 H 40.5949 3.55523 4.67843 0
M  V30 486 H 42.1189 2.92104 5.36197 0
M  V30 487 H 43.5329 4.41798 3.65359 0
M  V30 488 H 41.9299 5.07166 3.20785 0
M  V30 489 H 42.9999 4.44329 1.94165 0
M  V30 490 N 44.343 -0.763751 1.37857 0
M  V30 491 C 45.591 -1.51957 1.33243 0
M  V30 492 C 45.912 -1.94835 -0.0801709 0
M  V30 493 O 45.182 -1.66894 -1.02582 0
M  V30 494 H 43.762 -0.563626 0.49024 0
M  V30 495 H 46.424 -0.908504 1.7243 0
M  V30 496 H 45.52 -2.41523 1.97669 0
M  V30 497 N 45.8211 -1.22559 -0.990812 0
M  V30 498 C 47.0491 -1.07779 -1.76611 0
M  V30 499 C 47.4641 0.371513 -1.85109 0
M  V30 500 O 46.8211 1.25737 -1.32274 0
M  V30 501 C 46.8721 -1.68512 -3.19822 0
M  V30 502 O 46.5931 -3.07774 -3.1178 0
M  V30 503 C 48.0941 -1.59035 -4.13791 0
M  V30 504 H 45.3141 -0.377729 -0.554583 0
M  V30 505 H 47.8581 -1.62195 -1.24551 0
M  V30 506 H 46.0131 -1.18154 -3.68942 0
M  V30 507 H 46.4271 -3.37062 -4.01858 0
M  V30 508 H 47.9011 -2.0625 -5.1202 0
M  V30 509 H 48.3781 -0.547273 -4.35777 0
M  V30 510 H 48.9841 -2.08709 -3.70568 0
M  V30 511 N 47.2992 1.18797 -1.03562 0
M  V30 512 C 48.5272 1.92599 -0.755869 0
M  V30 513 C 48.9422 1.75886 0.686271 0
M  V30 514 O 48.2992 1.08517 1.46732 0
M  V30 515 C 48.3502 3.44159 -1.10619 0
M  V30 516 O 48.0712 3.60341 -2.4917 0
M  V30 517 C 49.5722 4.3507 -0.850214 0
M  V30 518 H 46.7922 0.611587 -0.276048 0
M  V30 519 H 49.3362 1.50742 -1.38192 0
M  V30 520 H 47.4912 3.83823 -0.525194 0
M  V30 521 H 47.9052 4.54128 -2.62427 0
M  V30 522 H 49.3792 5.39989 -1.14523 0
M  V30 523 H 49.8562 4.38673 0.215176 0
M  V30 524 H 50.4622 4.01097 -1.41426 0
M  V30 525 N 48.7773 0.814389 1.34928 0
M  V30 526 C 49.7403 0.235759 2.27984 0
M  V30 527 C 50.7403 -0.581412 1.49921 0
M  V30 528 O 51.9303 -0.398758 1.69575 0
M  V30 529 C 49.0623 -0.670433 3.34242 0
M  V30 530 H 50.2553 1.05659 2.80671 0
M  V30 531 H 47.8083 0.585614 1.44915 0
M  V30 532 H 48.5433 -1.51466 2.86755 0
M  V30 533 H 48.3283 -0.0860822 3.92005 0
M  V30 534 H 49.8183 -1.06935 4.03676 0
M  V30 535 N 50.2554 -1.46986 0.568584 0
M  V30 536 C 51.2024 -2.30153 -0.172707 0
M  V30 537 C 52.1724 -1.39759 -0.897586 0
M  V30 538 O 53.3574 -1.68716 -0.891044 0
M  V30 539 C 50.4974 -3.23952 -1.1895 0
M  V30 540 C 49.6104 -4.29441 -0.469517 0
M  V30 541 C 48.7454 -5.1038 -1.47259 0
M  V30 542 C 47.7844 -6.07632 -0.738225 0
M  V30 543 N 46.9214 -6.8149 -1.68868 0
M  V30 544 H 51.7614 -2.93019 0.542596 0
M  V30 545 H 49.2984 -1.44422 0.279401 0
M  V30 546 H 51.2564 -3.76767 -1.79173 0
M  V30 547 H 49.8864 -2.62926 -1.87269 0
M  V30 548 H 48.9384 -3.79594 0.247467 0
M  V30 549 H 50.2504 -4.98689 0.105241 0
M  V30 550 H 49.4044 -5.67402 -2.14803 0
M  V30 551 H 48.1434 -4.4106 -2.08128 0
M  V30 552 H 47.1484 -5.49778 -0.0489293 0
M  V30 553 H 48.3734 -6.78966 -0.135129 0
M  V30 554 H 46.3194 -6.14891 -2.28573 0
M  V30 555 H 46.2364 -7.46948 -1.16636 0
M  V30 556 H 47.5044 -7.43078 -2.3549 0
M  V30 557 N 51.7335 -0.305618 -1.54608 0
M  V30 558 C 52.6435 0.57778 -2.27374 0
M  V30 559 C 53.6595 1.14451 -1.31061 0
M  V30 560 O 54.8355 1.16831 -1.6405 0
M  V30 561 C 51.9005 1.73123 -3.00382 0
M  V30 562 C 50.9615 1.19812 -4.12242 0
M  V30 563 C 50.1945 2.2966 -4.81759 0
M  V30 564 O 50.4175 3.49651 -4.50666 0
M  V30 565 O 49.3515 1.96091 -5.69062 0
M  V30 566 H 53.1775 -0.012624 -3.03697 0
M  V30 567 H 50.7625 -0.0719184 -1.49227 0
M  V30 568 H 52.6445 2.40315 -3.4616 0
M  V30 569 H 51.3195 2.30815 -2.26949 0
M  V30 570 H 50.2265 0.491798 -3.70853 0
M  V30 571 H 51.5595 0.666566 -4.87666 0
M  V30 572 N 53.2116 1.57565 -0.0334293 0
M  V30 573 C 54.1216 2.13943 0.962572 0
M  V30 574 C 55.1376 1.09276 1.35406 0
M  V30 575 O 56.3136 1.41355 1.4346 0
M  V30 576 C 53.3786 2.65887 2.22497 0
M  V30 577 C 52.4396 3.85286 1.8935 0
M  V30 578 C 51.6726 4.34743 3.09571 0
M  V30 579 O 51.8956 3.83352 4.22371 0
M  V30 580 O 50.8296 5.26538 2.91618 0
M  V30 581 H 54.6556 2.99333 0.513169 0
M  V30 582 H 52.2406 1.4822 0.18743 0
M  V30 583 H 54.1226 2.99346 2.96598 0
M  V30 584 H 52.7976 1.83578 2.6661 0
M  V30 585 H 51.7046 3.56746 1.1262 0
M  V30 586 H 53.0376 4.68771 1.5005 0
M  V30 587 N 54.6897 -0.239769 1.55765 0
M  V30 588 C 55.6227 -1.32356 1.85895 0
M  V30 589 C 56.6007 -1.46053 0.714662 0
M  V30 590 O 57.7847 -1.62154 0.961157 0
M  V30 591 C 54.9117 -2.6962 2.04994 0
M  V30 592 C 53.9577 -2.73036 3.27648 0
M  V30 593 S 54.7907 -2.28929 4.84099 0
M  V30 594 C 55.9467 -3.68103 5.06212 0
M  V30 595 H 56.1797 -1.06601 2.77531 0
M  V30 596 H 53.7127 -0.441112 1.47965 0
M  V30 597 H 55.6707 -3.48653 2.16682 0
M  V30 598 H 54.3317 -2.92609 1.14188 0
M  V30 599 H 53.5247 -3.7386 3.38 0
M  V30 600 H 53.1267 -2.02052 3.14723 0
M  V30 601 H 55.4187 -4.63656 4.93993 0
M  V30 602 H 56.3617 -3.6268 6.08168 0
M  V30 603 H 56.7697 -3.60947 4.34025 0
M  V30 604 N 56.1678 -1.49265 -0.50573 0
M  V30 605 C 57.0778 -1.68312 -1.63427 0
M  V30 606 C 58.0938 -0.565682 -1.64548 0
M  V30 607 O 59.2698 -0.839801 -1.83055 0
M  V30 608 C 56.3348 -1.74107 -2.99813 0
M  V30 609 C 55.3958 -2.97653 -3.09356 0
M  V30 610 C 54.6288 -3.03163 -4.39236 0
M  V30 611 O 54.8518 -2.16396 -5.27758 0
M  V30 612 O 53.7858 -3.9558 -4.53652 0
M  V30 613 H 57.6118 -2.63907 -1.50289 0
M  V30 614 H 55.1968 -1.32951 -0.681502 0
M  V30 615 H 57.0788 -1.803 -3.80881 0
M  V30 616 H 55.7538 -0.816901 -3.13223 0
M  V30 617 H 54.6608 -2.96981 -2.27493 0
M  V30 618 H 55.9938 -3.89535 -3.00871 0
M  V30 619 N 57.6459 0.756429 -1.3826 0
M  V30 620 C 59.0619 1.0591 -1.19395 0
M  V30 621 C 59.2619 2.01459 -0.0406567 0
M  V30 622 O 58.3179 2.44909 0.614467 0
M  V30 623 C 59.6309 1.64191 -2.51916 0
M  V30 624 C 61.1789 1.76376 -2.58574 0
M  V30 625 C 61.6539 2.38069 -3.91264 0
M  V30 626 N 63.1449 2.45503 -3.92788 0
M  V30 627 C 63.8799 2.94126 -4.92217 0
M  V30 628 N 63.3759 3.42805 -6.02043 0
M  V30 629 N 65.1689 2.9314 -4.7961 0
M  V30 630 H 57.3199 0.122313 -2.12048 0
M  V30 631 H 59.5829 0.116892 -0.940766 0
M  V30 632 H 59.2889 1.01451 -3.3675 0
M  V30 633 H 59.1629 2.6329 -2.70108 0
M  V30 634 H 61.5499 2.38244 -1.74137 0
M  V30 635 H 61.6309 0.759894 -2.44252 0
M  V30 636 H 61.2749 1.76835 -4.76121 0
M  V30 637 H 61.2049 3.39091 -4.02895 0
M  V30 638 H 63.6959 2.1107 -3.13461 0
M  V30 639 H 64.0089 3.78354 -6.73846 0
M  V30 640 H 62.3539 3.4087 -6.05667 0
M  V30 641 H 65.5449 2.54419 -3.92923 0
M  V30 642 H 65.7179 3.30721 -5.5725 0
M  V30 643 N 59.124 1.23083 0.984299 0
M  V30 644 C 60.371 1.06057 1.72505 0
M  V30 645 C 60.699 -0.403105 1.90277 0
M  V30 646 O 59.954 -1.3149 1.44944 0
M  V30 647 C 60.253 1.72673 3.1292 0
M  V30 648 C 59.919 3.22586 3.15038 0
M  V30 649 C 58.581 3.63489 3.15324 0
M  V30 650 C 60.933 4.185 3.10657 0
M  V30 651 C 58.261 4.98772 3.08939 0
M  V30 652 C 60.613 5.53769 3.05814 0
M  V30 653 C 59.277 5.94041 3.04419 0
M  V30 654 H 58.547 0.388091 0.631242 0
M  V30 655 H 61.194 1.52963 1.15215 0
M  V30 656 H 59.499 1.18116 3.73572 0
M  V30 657 H 61.196 1.56982 3.68996 0
M  V30 658 H 57.786 2.90022 3.15571 0
M  V30 659 H 61.97 3.87911 3.09579 0
M  V30 660 H 57.226 5.29193 3.0621 0
M  V30 661 H 61.4 6.27808 3.0138 0
M  V30 662 H 59.027 6.98833 2.99227 0
M  V30 663 N 60.6021 -1.18246 1.0419 0
M  V30 664 C 61.8481 -1.88793 0.75689 0
M  V30 665 C 62.2031 -1.78909 -0.707767 0
M  V30 666 O 61.4961 -1.1794 -1.50999 0
M  V30 667 C 61.6901 -3.38082 1.15911 0
M  V30 668 C 61.5191 -3.62496 2.66133 0
M  V30 669 C 60.2891 -3.7979 3.33298 0
M  V30 670 C 62.4871 -3.62976 3.64353 0
M  V30 671 N 60.4691 -3.91955 4.72487 0
M  V30 672 C 61.8401 -3.80869 4.89222 0
M  V30 673 C 63.8951 -3.46071 3.57965 0
M  V30 674 C 62.5981 -3.83608 6.08471 0
M  V30 675 C 64.6241 -3.50093 4.76643 0
M  V30 676 C 63.9861 -3.68484 6.00332 0
M  V30 677 H 60.0851 -0.709406 0.32904 0
M  V30 678 H 62.6691 -1.42022 1.33183 0
M  V30 679 H 60.8401 -3.83544 0.612238 0
M  V30 680 H 62.5721 -3.96202 0.824989 0
M  V30 681 H 59.3271 -3.79224 2.83701 0
M  V30 682 H 59.7511 -4.01857 5.44831 0
M  V30 683 H 64.3931 -3.30797 2.63311 0
M  V30 684 H 62.1111 -3.97669 7.0348 0
M  V30 685 H 65.6971 -3.38285 4.73344 0
M  V30 686 H 64.5771 -3.71488 6.90627 0
M  V30 687 N 62.0802 -0.821533 -1.34494 0
M  V30 688 C 63.0282 -0.230702 -2.31453 0
M  V30 689 C 64.0222 0.627793 -1.57338 0
M  V30 690 O 65.2282 0.519288 -1.72347 0
M  V30 691 H 61.6032 -0.0558577 -0.749923 0
M  V30 692 H 63.5742 -1.06332 -2.78812 0
M  V30 693 C 62.3232 0.59391 -3.4259 0
M  V30 694 H 61.6462 -0.0573588 -3.99759 0
M  V30 695 H 63.0862 0.973446 -4.12674 0
M  V30 696 C 61.5452 1.76568 -2.86924 0
M  V30 697 O 62.0752 2.8638 -2.81691 0
M  V30 698 N 60.2812 1.58198 -2.43766 0
M  V30 699 H 59.8282 0.68872 -2.48222 0
M  V30 700 H 59.7862 2.36752 -2.06871 0
M  V30 701 N 63.5583 1.46682 -0.576371 0
M  V30 702 C 64.5053 2.30241 0.160499 0
M  V30 703 C 65.4753 1.40233 0.890162 0
M  V30 704 O 66.6603 1.69186 0.882084 0
M  V30 705 C 63.8003 3.24578 1.1723 0
M  V30 706 C 62.9133 4.29684 0.446736 0
M  V30 707 C 62.0483 5.11154 1.44551 0
M  V30 708 C 61.0873 6.08015 0.70599 0
M  V30 709 N 60.2243 6.82376 1.65251 0
M  V30 710 H 65.0643 2.92727 -0.558127 0
M  V30 711 H 62.6013 1.44272 -0.287056 0
M  V30 712 H 64.5593 3.77711 1.77172 0
M  V30 713 H 63.1893 2.63916 1.85872 0
M  V30 714 H 62.2413 3.79458 -0.267594 0
M  V30 715 H 63.5533 4.98626 -0.131686 0
M  V30 716 H 62.7073 5.68533 2.11791 0
M  V30 717 H 61.4463 4.42158 2.05786 0
M  V30 718 H 60.4513 5.49796 0.0197725 0
M  V30 719 H 61.6763 6.79028 0.09912 0
M  V30 720 H 59.6223 6.16094 2.25308 0
M  V30 721 H 59.5393 7.47556 1.12673 0
M  V30 722 H 60.8073 7.44316 2.31546 0
M  V30 723 N 65.0364 0.313813 1.54444 0
M  V30 724 C 65.9844 -0.572171 2.25453 0
M  V30 725 C 66.9784 -1.12657 1.2651 0
M  V30 726 O 68.1844 -1.07573 1.44319 0
M  V30 727 H 64.5594 -0.203146 0.724041 0
M  V30 728 H 66.5304 0.0491145 2.9836 0
M  V30 729 C 65.2794 -1.72626 3.0182 0
M  V30 730 H 64.6024 -1.30891 3.77767 0
M  V30 731 H 66.0424 -2.32199 3.54767 0
M  V30 732 C 64.5014 -2.63806 2.09542 0
M  V30 733 O 65.0314 -3.65256 1.67185 0
M  V30 734 N 63.2374 -2.31824 1.75232 0
M  V30 735 H 62.7844 -1.49368 2.09873 0
M  V30 736 H 62.7424 -2.93095 1.13767 0
M  V30 737 N 66.5145 -1.57545 0.0417849 0
M  V30 738 C 67.7635 -1.91494 -0.633492 0
M  V30 739 C 68.0765 -0.921084 -1.72556 0
M  V30 740 O 69.2825 -1.15228 -2.45835 0
M  V30 741 C 67.7385 -3.40072 -1.17808 0
M  V30 742 C 67.3465 -4.47843 -0.118633 0
M  V30 743 C 69.0905 -3.8307 -1.82915 0
M  V30 744 C 66.9975 -5.87529 -0.675578 0
M  V30 745 H 65.9275 -0.714653 -0.24039 0
M  V30 746 H 68.5785 -1.83175 0.109148 0
M  V30 747 H 66.9605 -3.43364 -1.97274 0
M  V30 748 H 68.1345 -4.56128 0.654494 0
M  V30 749 H 66.4495 -4.14128 0.434414 0
M  V30 750 H 69.0465 -4.84794 -2.25563 0
M  V30 751 H 69.3895 -3.1881 -2.67705 0
M  V30 752 H 69.9225 -3.82255 -1.10119 0
M  V30 753 H 66.6615 -6.55362 0.134475 0
M  V30 754 H 66.1815 -5.82824 -1.4169 0
M  V30 755 H 67.8605 -6.36491 -1.1614 0
M  V30 756 N 67.9926 0.231505 -1.5589 0
M  V30 757 C 69.2406 0.955461 -1.78088 0
M  V30 758 C 69.5616 1.85262 -0.608533 0
M  V30 759 O 68.8316 1.92277 0.375035 0
M  V30 760 H 67.4116 0.355787 -0.656829 0
M  V30 761 H 70.0736 0.245751 -1.93344 0
M  V30 762 H 69.1696 1.56814 -2.69844 0
M  V30 763 N 69.4707 1.49531 0.497807 0
M  V30 764 C 70.6957 1.63159 1.28039 0
M  V30 765 C 71.1207 0.30418 1.85624 0
M  V30 766 O 70.4787 -0.728618 1.66015 0
M  V30 767 C 70.5267 2.70537 2.38416 0
M  V30 768 O 69.6307 2.29931 3.42353 0
M  V30 769 H 68.9717 0.546001 0.377861 0
M  V30 770 H 71.5017 1.9574 0.59558 0
M  V30 771 H 71.5117 2.92802 2.84132 0
M  V30 772 H 70.1867 3.6689 1.95869 0
M  V30 773 H 68.7637 2.18009 3.02533 0
M  V30 774 N 70.9488 -0.749086 1.3866 0
M  V30 775 C 71.8968 -1.88428 1.36373 0
M  V30 776 C 72.8908 -1.67561 0.248929 0
M  V30 777 O 74.0968 -1.75074 0.41821 0
M  V30 778 H 70.4718 -0.620023 0.42553 0
M  V30 779 H 72.4428 -1.87473 2.32156 0
M  V30 780 C 71.1918 -3.25961 1.21014 0
M  V30 781 H 70.5148 -3.42607 2.06059 0
M  V30 782 H 71.9548 -4.05625 1.23469 0
M  V30 783 C 70.4138 -3.36799 -0.0825941 0
M  V30 784 O 70.9438 -3.87517 -1.05797 0
M  V30 785 N 69.1498 -2.90258 -0.140939 0
M  V30 786 H 68.6968 -2.49174 0.653477 0
M  V30 787 H 68.6548 -2.97889 -1.00545 0
M  V30 788 N 72.4269 -1.23603 -0.977757 0
M  V30 789 C 73.8429 -0.999251 -1.24447 0
M  V30 790 C 74.0429 0.298053 -1.99283 0
M  V30 791 O 73.0989 1.01681 -2.31122 0
M  V30 792 C 74.4119 -2.20784 -2.04144 0
M  V30 793 C 75.9599 -2.25303 -2.17273 0
M  V30 794 C 76.4349 -3.45755 -3.00362 0
M  V30 795 N 77.9259 -3.4601 -3.07947 0
M  V30 796 C 78.6609 -4.35868 -3.72568 0
M  V30 797 N 78.1569 -5.35966 -4.38991 0
M  V30 798 N 79.9499 -4.23605 -3.6948 0
M  V30 799 H 72.1009 -2.06986 -0.476483 0
M  V30 800 H 74.3639 -0.907801 -0.273134 0
M  V30 801 H 74.0699 -3.14945 -1.56533 0
M  V30 802 H 73.9439 -2.22085 -3.04891 0
M  V30 803 H 76.3309 -1.3168 -2.64092 0
M  V30 804 H 76.4119 -2.28033 -1.15907 0
M  V30 805 H 76.0559 -4.39687 -2.5424 0
M  V30 806 H 75.9859 -3.40266 -4.01904 0
M  V30 807 H 78.4769 -2.73588 -2.60688 0
M  V30 808 H 78.7899 -6.00783 -4.86086 0
M  V30 809 H 77.1349 -5.39863 -4.37691 0
M  V30 810 H 80.3259 -3.44647 -3.16759 0
M  V30 811 H 80.4989 -4.93836 -4.1956 0
M  V30 812 N 73.905 1.17692 -1.04816 0
M  V30 813 C 75.316 1.69501 -0.782698 0
M  V30 814 C 75.667 1.83456 0.695577 0
M  V30 815 O 74.792 1.51942 1.54086 0
M  V30 816 C 75.387 3.07874 -1.41419 0
M  V30 817 C 73.946 3.56864 -1.19686 0
M  V30 818 C 73.093 2.3322 -1.50012 0
M  V30 819 H 76.044 1.02262 -1.2136 0
M  V30 820 H 76.065 3.71528 -0.821428 0
M  V30 821 H 75.577 2.97685 -2.49009 0
M  V30 822 H 73.678 3.72337 -0.140043 0
M  V30 823 H 73.791 4.39851 -1.89916 0
M  V30 824 H 72.155 2.37501 -0.920071 0
M  V30 825 H 72.938 2.25644 -2.58727 0
M  V30 826 N 75.3831 0.828654 1.34056 0
M  V30 827 C 76.3131 0.269443 2.3194 0
M  V30 828 C 77.2941 -0.617247 1.58506 0
M  V30 829 O 78.4791 -0.542931 1.86456 0
M  V30 830 C 75.6091 -0.564793 3.42677 0
M  V30 831 C 74.5631 0.225241 4.27407 0
M  V30 832 C 73.8891 -0.7321 5.29664 0
M  V30 833 C 75.1891 1.43663 5.02154 0
M  V30 834 H 76.8831 1.08728 2.7896 0
M  V30 835 H 74.4291 0.524283 1.34117 0
M  V30 836 H 76.3821 -0.966233 4.10173 0
M  V30 837 H 75.1061 -1.41574 2.9432 0
M  V30 838 H 73.7651 0.608117 3.61521 0
M  V30 839 H 73.4131 -1.57916 4.77568 0
M  V30 840 H 73.1131 -0.20767 5.87233 0
M  V30 841 H 74.6371 -1.13128 6.00029 0
M  V30 842 H 76.0511 1.1089 5.62473 0
M  V30 843 H 74.4481 1.89711 5.69324 0
M  V30 844 H 75.5181 2.21181 4.31517 0
M  V30 845 N 76.8612 -1.46375 0.584142 0
M  V30 846 C 78.0862 -2.07268 0.0740405 0
M  V30 847 C 78.5112 -1.42979 -1.22223 0
M  V30 848 O 77.8692 -0.514092 -1.73859 0
M  V30 849 C 77.9172 -3.60518 -0.0767769 0
M  V30 850 O 77.0212 -3.96533 -1.13292 0
M  V30 851 H 76.3622 -0.660961 0.0634524 0
M  V30 852 H 78.8922 -1.87991 0.807492 0
M  V30 853 H 78.9022 -4.07021 -0.282489 0
M  V30 854 H 77.5772 -4.06702 0.86986 0
M  V30 855 H 76.1542 -3.61738 -0.905553 0
M  V30 856 N 78.3393 -0.321999 -1.54275 0
M  V30 857 C 79.7503 0.166384 -1.85957 0
M  V30 858 C 80.1013 1.51747 -1.24367 0
M  V30 859 O 79.2263 2.09317 -0.549124 0
M  V30 860 C 79.8213 0.308681 -3.37391 0
M  V30 861 C 78.3803 0.741286 -3.69028 0
M  V30 862 C 77.5273 -0.137937 -2.76957 0
M  V30 863 H 80.4783 -0.542335 -1.49146 0
M  V30 864 H 80.4993 1.13984 -3.63026 0
M  V30 865 H 80.0113 -0.674809 -3.82188 0
M  V30 866 H 78.1123 1.73458 -3.29762 0
M  V30 867 H 78.2253 0.546118 -4.75977 0
M  V30 868 H 76.5893 0.386251 -2.51754 0
M  V30 869 H 77.3723 -1.11816 -3.2458 0
M  V30 870 N 79.8174 1.5752 -0.0501392 0
M  V30 871 C 80.7674 2.07981 0.934231 0
M  V30 872 C 81.7514 0.984745 1.27246 0
M  V30 873 O 82.9434 1.24809 1.25506 0
M  V30 874 C 80.0724 2.62751 2.20945 0
M  V30 875 C 79.1584 3.79225 1.89865 0
M  V30 876 N 79.5494 4.89036 1.29142 0
M  V30 877 C 77.8474 3.88111 2.19741 0
M  V30 878 C 78.5484 5.70084 1.15669 0
M  V30 879 N 77.5244 5.17659 1.65923 0
M  V30 880 H 81.3264 2.90277 0.460053 0
M  V30 881 H 78.8404 1.61665 0.15434 0
M  V30 882 H 80.8374 2.97205 2.9236 0
M  V30 883 H 79.4974 1.81894 2.6897 0
M  V30 884 H 80.5084 5.08854 0.963756 0
M  V30 885 H 77.1854 3.18194 2.70293 0
M  V30 886 H 78.5754 6.68395 0.685356 0
M  V30 887 N 81.2955 -0.223234 1.56011 0
M  V30 888 C 82.5445 -0.945912 1.78144 0
M  V30 889 C 82.8575 -1.85567 0.618396 0
M  V30 890 O 84.0635 -2.61688 0.723318 0
M  V30 891 C 82.5195 -1.73216 3.15475 0
M  V30 892 C 82.1275 -0.868619 4.39499 0
M  V30 893 C 83.8715 -2.44615 3.46935 0
M  V30 894 C 81.7785 -1.65212 5.67855 0
M  V30 895 H 80.7085 -0.356929 0.664167 0
M  V30 896 H 83.3595 -0.199845 1.82409 0
M  V30 897 H 81.7415 -2.52107 3.05382 0
M  V30 898 H 82.9155 -0.120366 4.60643 0
M  V30 899 H 81.2305 -0.26683 4.15544 0
M  V30 900 H 83.8275 -3.03732 4.40058 0
M  V30 901 H 84.1705 -3.17417 2.69355 0
M  V30 902 H 84.7035 -1.72715 3.58349 0
M  V30 903 H 81.4425 -0.967407 6.48322 0
M  V30 904 H 80.9625 -2.37503 5.50774 0
M  V30 905 H 82.6415 -2.21322 6.07968 0
M  V30 906 N 82.7736 -1.49793 -0.48987 0
M  V30 907 C 84.0016 -1.63568 -1.26701 0
M  V30 908 C 84.4166 -0.311465 -1.86213 0
M  V30 909 O 83.7736 0.704416 -1.68357 0
M  V30 910 C 83.8246 -2.71284 -2.38929 0
M  V30 911 O 83.5456 -3.9857 -1.81861 0
M  V30 912 C 85.0466 -2.95864 -3.3012 0
M  V30 913 H 82.2666 -0.550342 -0.383881 0
M  V30 914 H 84.8106 -1.95898 -0.586864 0
M  V30 915 H 82.9656 -2.417 -3.02753 0
M  V30 916 H 83.3796 -4.57993 -2.55622 0
M  V30 917 H 84.8536 -3.74941 -4.05121 0
M  V30 918 H 85.3306 -2.06206 -3.87783 0
M  V30 919 H 85.9366 -3.26907 -2.72051 0
M  V30 920 N 84.2517 0.741722 -1.39055 0
M  V30 921 C 85.5007 1.49656 -1.35225 0
M  V30 922 C 85.8137 1.95533 0.0512708 0
M  V30 923 O 87.0197 2.7067 0.212138 0
M  V30 924 C 85.4757 2.70389 -2.37525 0
M  V30 925 C 85.0837 2.31489 -3.83558 0
M  V30 926 C 86.8277 3.48236 -2.42759 0
M  V30 927 C 84.7347 3.48903 -4.77515 0
M  V30 928 H 83.6647 0.56197 -0.502699 0
M  V30 929 H 86.3157 0.809727 -1.64668 0
M  V30 930 H 84.6977 3.41113 -2.01142 0
M  V30 931 H 85.8717 1.68354 -4.28945 0
M  V30 932 H 84.1867 1.66749 -3.81554 0
M  V30 933 H 86.7837 4.35558 -3.1015 0
M  V30 934 H 87.1267 3.90229 -1.45008 0
M  V30 935 H 87.6597 2.84535 -2.78002 0
M  V30 936 H 84.3987 3.11966 -5.76504 0
M  V30 937 H 83.9187 4.11041 -4.36813 0
M  V30 938 H 85.5977 4.15328 -4.96096 0
M  V30 939 N 85.7298 1.2412 0.971189 0
M  V30 940 C 86.9598 1.10415 1.7462 0
M  V30 941 C 87.3678 -0.346462 1.86001 0
M  V30 942 O 86.7108 -1.25104 1.34517 0
M  V30 943 C 86.7728 1.66596 3.18568 0
M  V30 944 C 86.4368 3.15446 3.3067 0
M  V30 945 C 87.4338 4.12636 3.16271 0
M  V30 946 C 85.1188 3.55337 3.55022 0
M  V30 947 C 87.1128 5.47699 3.26044 0
M  V30 948 C 84.7998 4.90542 3.64434 0
M  V30 949 C 85.7978 5.86532 3.49956 0
M  V30 950 O 85.4858 7.19279 3.59017 0
M  V30 951 H 85.2178 0.386616 0.55453 0
M  V30 952 H 87.7718 1.64633 1.22821 0
M  V30 953 H 86.0018 1.06808 3.71657 0
M  V30 954 H 87.6908 1.48232 3.77865 0
M  V30 955 H 88.4568 3.8316 2.97344 0
M  V30 956 H 84.3358 2.8113 3.65359 0
M  V30 957 H 87.8798 6.22603 3.14661 0
M  V30 958 H 83.7768 5.19691 3.82873 0
M  V30 959 H 84.5448 7.27153 3.75754 0
M  V30 960 N 87.2079 -1.17134 1.05439 0
M  V30 961 C 88.4329 -1.91913 0.786396 0
M  V30 962 C 88.8579 -1.7643 -0.652234 0
M  V30 963 O 88.2159 -1.08372 -1.45345 0
M  V30 964 C 88.2639 -3.40921 1.17497 0
M  V30 965 O 87.3679 -4.11244 0.308589 0
M  V30 966 H 86.7089 -0.598215 0.288158 0
M  V30 967 H 89.2389 -1.48457 1.4079 0
M  V30 968 H 89.2489 -3.91668 1.14281 0
M  V30 969 H 87.9239 -3.5151 2.22292 0
M  V30 970 H 86.5009 -3.70731 0.40157 0
M  V30 971 N 88.686 -0.835752 -1.33615 0
M  V30 972 C 89.932 -0.439817 -1.98588 0
M  V30 973 C 90.287 0.989274 -1.65019 0
M  V30 974 O 89.58 1.68168 -0.918159 0
M  V30 975 C 89.774 -0.593925 -3.52431 0
M  V30 976 C 89.603 -2.03644 -4.00948 0
M  V30 977 C 88.373 -2.67103 -4.28934 0
M  V30 978 C 90.571 -3.00479 -4.17393 0
M  V30 979 N 88.553 -4.02462 -4.6357 0
M  V30 980 C 89.924 -4.20777 -4.55353 0
M  V30 981 C 91.979 -2.96926 -3.99674 0
M  V30 982 C 90.682 -5.37994 -4.77447 0
M  V30 983 C 92.708 -4.1337 -4.22941 0
M  V30 984 C 92.07 -5.32422 -4.61201 0
M  V30 985 H 88.169 -0.209303 -0.75347 0
M  V30 986 H 90.753 -1.08316 -1.61789 0
M  V30 987 H 88.924 0.019599 -3.88395 0
M  V30 988 H 90.656 -0.169738 -4.04344 0
M  V30 989 H 87.411 -2.18259 -4.20309 0
M  V30 990 H 87.835 -4.72232 -4.85104 0
M  V30 991 H 92.477 -2.06015 -3.69212 0
M  V30 992 H 90.195 -6.29451 -5.06771 0
M  V30 993 H 93.781 -4.12034 -4.10754 0
M  V30 994 H 92.661 -6.21027 -4.78848 0
M  V30 995 N 90.1641 1.46063 -0.591896 0
M  V30 996 C 91.3891 2.07226 -0.0850314 0
M  V30 997 C 91.8141 1.43625 1.21463 0
M  V30 998 O 91.1721 0.523305 1.73583 0
M  V30 999 C 91.2201 3.60554 0.0576567 0
M  V30 1000 O 90.3241 3.97128 1.11188 0
M  V30 1001 H 89.6651 0.660615 -0.0669568 0
M  V30 1002 H 92.1951 1.8756 -0.81745 0
M  V30 1003 H 92.2051 4.07165 0.2609 0
M  V30 1004 H 90.8801 4.06235 -0.891416 0
M  V30 1005 H 89.4571 3.62213 0.886356 0
M  V30 1006 N 91.6422 0.330177 1.54103 0
M  V30 1007 C 92.5722 -0.525353 2.27513 0
M  V30 1008 C 93.5532 -1.11383 1.2856 0
M  V30 1009 O 94.7382 -1.13773 1.57383 0
M  V30 1010 C 91.8682 -1.6831 3.03791 0
M  V30 1011 C 90.8222 -1.2236 4.10137 0
M  V30 1012 C 90.1482 -2.46882 4.74293 0
M  V30 1013 C 91.4482 -0.333697 5.21233 0
M  V30 1014 H 93.1422 0.087013 2.99274 0
M  V30 1015 H 90.6882 0.0432893 1.43935 0
M  V30 1016 H 92.6412 -2.28795 3.5388 0
M  V30 1017 H 91.3652 -2.32216 2.29659 0
M  V30 1018 H 90.0242 -0.64165 3.60941 0
M  V30 1019 H 89.6722 -3.09165 3.96769 0
M  V30 1020 H 89.3722 -2.16825 5.46133 0
M  V30 1021 H 90.8962 -3.08117 5.27159 0
M  V30 1022 H 92.3102 -0.845013 5.67038 0
M  V30 1023 H 90.7072 -0.125612 5.99969 0
M  V30 1024 H 91.7772 0.633724 4.80741 0
M  V30 1025 N 93.1203 -1.57491 0.0584922 0
M  V30 1026 C 94.5313 -1.80526 -0.476138 0
M  V30 1027 C 94.8823 -0.971334 -1.70469 0
M  V30 1028 O 94.0073 -0.190012 -2.15564 0
M  V30 1029 C 94.6023 -3.27424 -0.870587 0
M  V30 1030 C 93.1613 -3.51351 -1.35015 0
M  V30 1031 C 92.3083 -2.75343 -0.32887 0
M  V30 1032 H 95.2593 -1.56133 0.284312 0
M  V30 1033 H 95.2803 -3.38745 -1.73299 0
M  V30 1034 H 94.7923 -3.88093 0.0237627 0
M  V30 1035 H 92.8933 -2.95971 -2.26345 0
M  V30 1036 H 93.0063 -4.60059 -1.33726 0
M  V30 1037 H 91.3703 -2.417 -0.803321 0
M  V30 1038 H 92.1533 -3.38743 0.557521 0
M  V30 1039 N 94.5984 0.214957 -1.56127 0
M  V30 1040 C 95.5314 1.29382 -1.87977 0
M  V30 1041 C 96.5094 1.44897 -0.737807 0
M  V30 1042 O 97.6934 1.60605 -0.986833 0
M  V30 1043 C 94.8204 2.66325 -2.09258 0
M  V30 1044 C 93.8664 2.67789 -3.31951 0
M  V30 1045 S 94.6994 2.21198 -4.8768 0
M  V30 1046 C 95.8554 3.60003 -5.12004 0
M  V30 1047 H 96.0884 1.02173 -2.79192 0
M  V30 1048 H 93.6214 0.417516 -1.48648 0
M  V30 1049 H 95.5794 3.45162 -2.22201 0
M  V30 1050 H 94.2404 2.90755 -1.18829 0
M  V30 1051 H 93.4334 3.68436 -3.43906 0
M  V30 1052 H 93.0354 1.9702 -3.17898 0
M  V30 1053 H 95.3274 4.55739 -5.01307 0
M  V30 1054 H 96.2704 3.52959 -6.13861 0
M  V30 1055 H 96.6784 3.53996 -4.39712 0
M  V30 1056 N 96.0765 1.50051 0.48192 0
M  V30 1057 C 97.0395 1.67584 1.5636 0
M  V30 1058 C 98.0395 0.546894 1.51214 0
M  V30 1059 O 99.2295 0.813725 1.54026 0
M  V30 1060 C 96.3615 1.691 2.96003 0
M  V30 1061 H 97.5545 2.64078 1.42136 0
M  V30 1062 H 95.1075 1.39369 0.707533 0
M  V30 1063 H 95.8425 0.742589 3.15684 0
M  V30 1064 H 95.6275 2.51105 3.01146 0
M  V30 1065 H 97.1175 1.84656 3.74556 0
M  V30 1066 N 97.5546 -0.734337 1.39446 0
M  V30 1067 C 98.4876 -1.85715 1.32609 0
M  V30 1068 C 99.4656 -1.6137 0.199636 0
M  V30 1069 O 100.65 -1.84626 0.380195 0
M  V30 1070 C 97.7766 -3.21709 1.05929 0
M  V30 1071 C 96.8226 -3.64913 2.20773 0
M  V30 1072 S 97.6556 -3.74203 3.83056 0
M  V30 1073 C 98.8116 -5.12986 3.58603 0
M  V30 1074 H 99.0446 -1.91232 2.27635 0
M  V30 1075 H 96.5776 -0.899263 1.25509 0
M  V30 1076 H 98.5356 -4.00236 0.912203 0
M  V30 1077 H 97.1966 -3.13848 0.125883 0
M  V30 1078 H 96.3896 -4.63606 1.97699 0
M  V30 1079 H 95.9916 -2.93593 2.31688 0
M  V30 1080 H 98.2836 -5.99339 3.15909 0
M  V30 1081 H 99.2266 -5.41088 4.5676 0
M  V30 1082 H 99.6346 -4.82694 2.9269 0
M  V30 1083 N 99.0327 -1.24633 -0.964593 0
M  V30 1084 C 100.258 -1.11596 -1.74818 0
M  V30 1085 C 100.683 0.32723 -1.85232 0
M  V30 1086 O 100.041 1.23695 -1.32549 0
M  V30 1087 C 100.089 -1.76397 -3.1451 0
M  V30 1088 O 99.1927 -1.03685 -3.99153 0
M  V30 1089 H 98.5337 -0.390196 -0.537255 0
M  V30 1090 H 101.064 -1.65002 -1.20977 0
M  V30 1091 H 101.074 -1.8228 -3.65018 0
M  V30 1092 H 99.7487 -2.81401 -3.06246 0
M  V30 1093 H 98.3257 -1.05611 -3.57632 0
M  V30 1094 N 100.511 1.16574 -1.06058 0
M  V30 1095 C 101.76 1.86385 -0.770944 0
M  V30 1096 C 102.073 1.82448 0.705129 0
M  V30 1097 O 103.279 2.47815 1.10905 0
M  V30 1098 C 101.735 3.34466 -1.32893 0
M  V30 1099 C 101.343 3.46883 -2.83507 0
M  V30 1100 C 103.087 4.09548 -1.11672 0
M  V30 1101 C 100.994 4.89036 -3.32562 0
M  V30 1102 H 99.9238 0.698181 -0.284709 0
M  V30 1103 H 102.575 1.31583 -1.27899 0
M  V30 1104 H 100.957 3.88859 -0.748662 0
M  V30 1105 H 102.131 3.02663 -3.47465 0
M  V30 1106 H 100.446 2.85232 -3.03368 0
M  V30 1107 H 103.043 5.14434 -1.45814 0
M  V30 1108 H 103.386 4.16264 -0.0549535 0
M  V30 1109 H 103.919 3.61387 -1.66265 0
M  V30 1110 H 100.658 4.87499 -4.38207 0
M  V30 1111 H 100.178 5.3389 -2.73351 0
M  V30 1112 H 101.857 5.57843 -3.2775 0
M  V30 1113 N 101.989 0.842826 1.3317 0
M  V30 1114 C 103.229 0.446574 1.99462 0
M  V30 1115 C 103.593 -0.976818 1.65295 0
M  V30 1116 O 104.794 -1.477 2.24584 0
M  V30 1117 C 103.065 0.665353 3.51152 0
M  V30 1118 S 104.624 0.364911 4.3728 0
M  V30 1119 H 101.442 0.167803 0.690915 0
M  V30 1120 H 104.044 1.09297 1.62094 0
M  V30 1121 H 102.748 1.7006 3.73507 0
M  V30 1122 H 102.279 0.00494568 3.934 0
M  V30 1123 H 104.294 -0.813761 4.89482 0
M  V30 1124 N 103.467 -1.45747 0.599634 0
M  V30 1125 C 104.417 -2.27538 -0.145107 0
M  V30 1126 C 105.401 -1.3686 -0.846055 0
M  V30 1127 O 106.593 -1.6091 -0.737357 0
M  V30 1128 C 103.722 -3.23569 -1.14708 0
M  V30 1129 C 102.808 -4.21734 -0.447383 0
M  V30 1130 N 103.199 -5.03257 0.506535 0
M  V30 1131 C 101.497 -4.40536 -0.695966 0
M  V30 1132 C 102.198 -5.74426 0.917068 0
M  V30 1133 N 101.174 -5.42966 0.26253 0
M  V30 1134 H 104.976 -2.87965 0.587672 0
M  V30 1135 H 102.49 -1.56803 0.422697 0
M  V30 1136 H 104.487 -3.8089 -1.69495 0
M  V30 1137 H 103.147 -2.64702 -1.8805 0
M  V30 1138 H 104.158 -5.10319 0.882899 0
M  V30 1139 H 100.835 -3.92802 -1.41467 0
M  V30 1140 H 102.225 -6.4995 1.70338 0
M  V30 1141 N 104.945 -0.338344 -1.53925 0
M  V30 1142 C 106.361 0.0137736 -1.59594 0
M  V30 1143 C 106.561 1.49186 -1.35447 0
M  V30 1144 O 105.617 2.24987 -1.14616 0
M  V30 1145 C 106.93 -0.41773 -2.97784 0
M  V30 1146 C 108.478 -0.369633 -3.1081 0
M  V30 1147 C 108.953 -0.776524 -4.51369 0
M  V30 1148 N 110.444 -0.730506 -4.57403 0
M  V30 1149 C 111.179 -1.01736 -5.64303 0
M  V30 1150 N 110.675 -1.3721 -6.79077 0
M  V30 1151 N 112.468 -0.941942 -5.54151 0
M  V30 1152 H 104.619 -1.3012 -1.67876 0
M  V30 1153 H 106.882 -0.530082 -0.78595 0
M  V30 1154 H 106.588 -1.44811 -3.20504 0
M  V30 1155 H 106.462 0.209729 -3.76616 0
M  V30 1156 H 108.849 0.651568 -2.87817 0
M  V30 1157 H 108.93 -1.03223 -2.34049 0
M  V30 1158 H 108.574 -1.79571 -4.75096 0
M  V30 1159 H 108.504 -0.0914649 -5.26521 0
M  V30 1160 H 110.995 -0.468783 -3.74981 0
M  V30 1161 H 111.308 -1.57597 -7.5656 0
M  V30 1162 H 109.653 -1.4105 -6.80536 0
M  V30 1163 H 112.844 -0.664184 -4.63364 0
M  V30 1164 H 113.017 -1.16884 -6.37371 0
M  V30 1165 N 106.423 1.57458 -0.0668435 0
M  V30 1166 C 107.671 1.92919 0.602214 0
M  V30 1167 C 107.992 0.947215 1.70449 0
M  V30 1168 O 107.262 -0.00544117 1.95899 0
M  V30 1169 H 105.842 0.71217 0.22544 0
M  V30 1170 H 108.504 1.94508 -0.123535 0
M  V30 1171 H 107.6 2.94589 1.03073 0
M  V30 1172 N 107.901 -0.206675 1.56239 0
M  V30 1173 C 109.129 -0.945345 1.8404 0
M  V30 1174 C 109.544 -1.77336 0.647885 0
M  V30 1175 O 108.901 -1.78425 -0.383511 0
M  V30 1176 C 108.952 -1.8509 3.10522 0
M  V30 1177 O 108.673 -1.05634 4.25174 0
M  V30 1178 C 110.174 -2.70222 3.51418 0
M  V30 1179 H 107.394 -0.276372 0.61144 0
M  V30 1180 H 109.938 -0.217417 2.03341 0
M  V30 1181 H 108.093 -2.53259 2.93153 0
M  V30 1182 H 108.507 -1.67238 4.97124 0
M  V30 1183 H 109.981 -3.29438 4.42916 0
M  V30 1184 H 110.458 -3.43358 2.73864 0
M  V30 1185 H 111.064 -2.07443 3.71278 0
M  V30 1186 N 109.379 -1.50304 -0.473955 0
M  V30 1187 C 110.627 -1.60832 -1.22382 0
M  V30 1188 C 110.948 -0.30939 -1.9253 0
M  V30 1189 O 110.218 0.67296 -1.83978 0
M  V30 1190 H 108.798 -0.592652 -0.454723 0
M  V30 1191 H 111.46 -1.87068 -0.546968 0
M  V30 1192 H 110.556 -2.41803 -1.97327 0
M  V30 1193 N 110.857 0.726932 -1.39834 0
M  V30 1194 C 112.106 1.48214 -1.36805 0
M  V30 1195 C 112.419 1.95576 0.0305291 0
M  V30 1196 O 113.625 2.7088 0.183417 0
M  V30 1197 C 112.081 2.67854 -2.40379 0
M  V30 1198 C 111.689 2.27408 -3.85992 0
M  V30 1199 C 113.433 3.45641 -2.46439 0
M  V30 1200 C 111.34 3.43819 -4.81189 0
M  V30 1201 H 110.27 0.556606 -0.508631 0
M  V30 1202 H 112.921 0.792216 -1.65518 0
M  V30 1203 H 111.303 3.3896 -2.04749 0
M  V30 1204 H 112.477 1.63795 -4.30706 0
M  V30 1205 H 110.792 1.62692 -3.83302 0
M  V30 1206 H 113.389 4.32244 -3.14753 0
M  V30 1207 H 113.732 3.88669 -1.49139 0
M  V30 1208 H 114.265 2.8157 -2.81004 0
M  V30 1209 H 111.004 3.05834 -5.79781 0
M  V30 1210 H 110.524 4.06385 -4.41148 0
M  V30 1211 H 112.203 4.10043 -5.00474 0
M  V30 1212 N 112.336 1.25143 0.95797 0
M  V30 1213 C 113.299 1.05321 2.03569 0
M  V30 1214 C 114.299 0.007152 1.60798 0
M  V30 1215 O 115.489 0.24903 1.72411 0
M  V30 1216 C 112.621 0.598394 3.35607 0
M  V30 1217 H 113.814 2.00986 2.22586 0
M  V30 1218 H 111.367 1.07502 1.13459 0
M  V30 1219 H 112.102 -0.361014 3.22284 0
M  V30 1220 H 111.887 1.35351 3.67998 0
M  V30 1221 H 113.377 0.48104 4.1482 0
M  V30 1222 N 113.814 -1.1601 1.06675 0
M  V30 1223 C 114.744 -2.22688 0.702307 0
M  V30 1224 C 115.725 -1.67306 -0.307032 0
M  V30 1225 O 116.91 -1.93352 -0.181305 0
M  V30 1226 C 114.04 -3.47178 0.092038 0
M  V30 1227 C 112.994 -4.15477 1.02777 0
M  V30 1228 C 112.32 -5.33963 0.28061 0
M  V30 1229 C 113.62 -4.66019 2.35846 0
M  V30 1230 H 115.314 -2.53429 1.59419 0
M  V30 1231 H 112.86 -1.21813 0.767961 0
M  V30 1232 H 114.813 -4.21037 -0.174814 0
M  V30 1233 H 113.537 -3.15749 -0.834877 0
M  V30 1234 H 112.196 -3.43549 1.27944 0
M  V30 1235 H 111.844 -4.98788 -0.649545 0
M  V30 1236 H 111.544 -5.806 0.904258 0
M  V30 1237 H 113.068 -6.10596 0.021396 0
M  V30 1238 H 114.482 -5.3144 2.15045 0
M  V30 1239 H 112.879 -5.23293 2.93743 0
M  V30 1240 H 113.949 -3.82023 2.98641 0
M  V30 1241 N 115.292 -0.849877 -1.32721 0
M  V30 1242 C 116.517 -0.463856 -2.02146 0
M  V30 1243 C 116.942 0.930449 -1.63476 0
M  V30 1244 O 116.3 1.61033 -0.832952 0
M  V30 1245 C 116.348 -0.604955 -3.55489 0
M  V30 1246 O 115.452 0.36425 -4.10788 0
M  V30 1247 H 114.793 -0.187046 -0.637111 0
M  V30 1248 H 117.323 -1.14775 -1.69375 0
M  V30 1249 H 117.333 -0.490696 -4.05038 0
M  V30 1250 H 116.008 -1.62174 -3.82978 0
M  V30 1251 H 114.585 0.206628 -3.72327 0
M  V30 1252 N 116.77 1.45427 -0.607355 0
M  V30 1253 C 117.733 2.28974 0.101693 0
M  V30 1254 C 118.733 1.39754 0.795329 0
M  V30 1255 O 119.923 1.61878 0.643527 0
M  V30 1256 C 117.055 3.20768 1.15414 0
M  V30 1257 H 118.248 2.93147 -0.632844 0
M  V30 1258 H 115.801 1.51945 -0.366391 0
M  V30 1259 H 116.536 2.61395 1.91945 0
M  V30 1260 H 116.321 3.86489 0.66098 0
M  V30 1261 H 117.811 3.83589 1.65073 0
M  V30 1262 N 118.248 0.346503 1.53744 0
M  V30 1263 C 119.496 -0.248612 2.00565 0
M  V30 1264 C 119.817 -1.5083 1.23593 0
M  V30 1265 O 119.087 -1.92858 0.343912 0
M  V30 1266 H 117.667 -0.0948564 0.740953 0
M  V30 1267 H 120.329 0.468341 1.89189 0
M  V30 1268 H 119.425 -0.488994 3.08245 0
M  V30 1269 N 119.726 -1.57421 0.075193 0
M  V30 1270 C 120.972 -1.93905 -0.594025 0
M  V30 1271 C 121.305 -0.955701 -1.69056 0
M  V30 1272 O 120.58 0.0145373 -1.94495 0
M  V30 1273 C 120.863 -3.40638 -1.1678 0
M  V30 1274 C 120.716 -4.49733 -0.0776792 0
M  V30 1275 C 122.035 -3.88259 -2.07228 0
M  V30 1276 H 119.154 -0.705105 -0.214466 0
M  V30 1277 H 121.796 -1.8947 0.141854 0
M  V30 1278 H 119.946 -3.44549 -1.79494 0
M  V30 1279 H 121.618 -4.57942 0.555573 0
M  V30 1280 H 119.861 -4.29751 0.591286 0
M  V30 1281 H 120.532 -5.49549 -0.519603 0
M  V30 1282 H 123.008 -3.86376 -1.54445 0
M  V30 1283 H 121.884 -4.91533 -2.44308 0
M  V30 1284 H 122.145 -3.26396 -2.98191 0
M  V30 1285 N 121.204 0.198386 -1.56346 0
M  V30 1286 C 122.429 0.939682 -1.84891 0
M  V30 1287 C 122.854 1.76202 -0.658369 0
M  V30 1288 O 122.212 1.76993 0.392851 0
M  V30 1289 C 122.26 1.81428 -3.11635 0
M  V30 1290 O 121.364 2.91265 -2.91956 0
M  V30 1291 H 120.705 0.264807 -0.608912 0
M  V30 1292 H 123.235 0.204695 -2.03573 0
M  V30 1293 H 123.245 2.21958 -3.42343 0
M  V30 1294 H 121.92 1.21004 -3.97908 0
M  V30 1295 H 120.497 2.54514 -2.72538 0
M  V30 1296 N 122.682 1.50554 0.465978 0
M  V30 1297 C 123.612 1.72722 1.57128 0
M  V30 1298 C 124.593 0.576294 1.6004 0
M  V30 1299 O 125.778 0.81598 1.76225 0
M  V30 1300 C 122.908 1.82605 2.95419 0
M  V30 1301 C 121.862 2.97835 3.07373 0
M  V30 1302 C 121.188 2.92867 4.47363 0
M  V30 1303 C 122.488 4.38265 2.84114 0
M  V30 1304 H 124.182 2.65267 1.38829 0
M  V30 1305 H 121.728 1.2765 0.666441 0
M  V30 1306 H 123.681 1.96698 3.72677 0
M  V30 1307 H 122.405 0.866858 3.14886 0
M  V30 1308 H 121.064 2.83401 2.3255 0
M  V30 1309 H 120.712 1.94783 4.63755 0
M  V30 1310 H 120.412 3.70227 4.56296 0
M  V30 1311 H 121.936 3.09015 5.26633 0
M  V30 1312 H 123.35 4.53198 3.51118 0
M  V30 1313 H 121.747 5.17115 3.04487 0
M  V30 1314 H 122.817 4.50281 1.7993 0
M  V30 1315 N 124.16 -0.719506 1.40217 0
M  V30 1316 C 125.407 -1.47933 1.38283 0
M  V30 1317 C 125.735 -1.94493 -0.0161536 0
M  V30 1318 O 124.99 -1.68224 -0.999956 0
M  V30 1319 C 125.289 -2.72271 2.31524 0
M  V30 1320 C 124.955 -2.44496 3.78857 0
M  V30 1321 C 123.617 -2.36631 4.18998 0
M  V30 1322 C 125.969 -2.21104 4.71977 0
M  V30 1323 C 123.297 -2.03437 5.503 0
M  V30 1324 C 125.649 -1.89423 6.03574 0
M  V30 1325 C 124.313 -1.80038 6.42762 0
M  V30 1326 H 123.583 -0.541325 0.506012 0
M  V30 1327 H 126.23 -0.824502 1.72842 0
M  V30 1328 H 124.535 -3.42572 1.90137 0
M  V30 1329 H 126.232 -3.30348 2.27313 0
M  V30 1330 H 122.822 -2.51503 3.47051 0
M  V30 1331 H 127.006 -2.26139 4.41786 0
M  V30 1332 H 122.262 -1.94705 5.79569 0
M  V30 1333 H 126.436 -1.70336 6.75247 0
M  V30 1334 H 124.063 -1.54083 7.44421 0
M  V30 1335 N 125.638 -1.25649 -0.95132 0
M  V30 1336 C 126.886 -1.10375 -1.69298 0
M  V30 1337 C 127.207 0.355339 -1.91735 0
M  V30 1338 O 126.477 1.25188 -1.50681 0
M  V30 1339 H 125.057 -0.405461 -0.627384 0
M  V30 1340 H 127.719 -1.57823 -1.14358 0
M  V30 1341 H 126.815 -1.61465 -2.67087 0
M  V30 1342 N 127.117 1.15442 -1.07289 0
M  V30 1343 C 128.05 2.19135 -0.636798 0
M  V30 1344 C 129.028 1.58884 0.34562 0
M  V30 1345 O 130.212 1.86805 0.252195 0
M  V30 1346 C 127.339 3.38638 0.0650014 0
M  V30 1347 C 126.385 4.17412 -0.87576 0
M  V30 1348 S 127.218 4.79882 -2.37642 0
M  V30 1349 C 128.374 6.02753 -1.6864 0
M  V30 1350 H 128.607 2.55787 -1.51526 0
M  V30 1351 H 126.14 1.26394 -0.886793 0
M  V30 1352 H 128.098 4.07873 0.463664 0
M  V30 1353 H 126.759 3.00331 0.919801 0
M  V30 1354 H 125.952 5.02909 -0.33143 0
M  V30 1355 H 125.554 3.53722 -1.21478 0
M  V30 1356 H 127.846 6.70113 -0.997753 0
M  V30 1357 H 128.789 6.61754 -2.51967 0
M  V30 1358 H 129.197 5.52355 -1.16465 0
M  V30 1359 N 128.595 0.856903 1.32268 0
M  V30 1360 C 129.82 0.474569 2.01897 0
M  V30 1361 C 130.245 -0.921766 1.63967 0
M  V30 1362 O 129.603 -1.60589 0.84148 0
M  V30 1363 C 129.651 0.623799 3.55164 0
M  V30 1364 O 128.755 -0.342459 4.10976 0
M  V30 1365 H 128.096 0.190422 0.63611 0
M  V30 1366 H 130.626 1.15672 1.68764 0
M  V30 1367 H 130.636 0.512169 4.04773 0
M  V30 1368 H 129.311 1.64202 3.82113 0
M  V30 1369 H 127.888 -0.18688 3.72431 0
M  V30 1370 N 130.073 -1.45103 0.615059 0
M  V30 1371 C 131.036 -2.29025 -0.0895485 0
M  V30 1372 C 132.036 -1.40174 -0.787906 0
M  V30 1373 O 133.226 -1.62217 -0.634933 0
M  V30 1374 C 130.358 -3.21376 -1.13711 0
M  V30 1375 H 131.551 -2.92807 0.648382 0
M  V30 1376 H 129.104 -1.51749 0.374444 0
M  V30 1377 H 129.839 -2.6241 -1.90556 0
M  V30 1378 H 129.624 -3.86834 -0.640475 0
M  V30 1379 H 131.114 -3.84459 -1.63036 0
M  V30 1380 N 131.551 -0.354651 -1.53558 0
M  V30 1381 C 132.481 0.489091 -2.2832 0
M  V30 1382 C 133.462 1.09324 -1.30316 0
M  V30 1383 O 134.647 1.11255 -1.59173 0
M  V30 1384 C 131.777 1.63456 -3.0643 0
M  V30 1385 C 130.731 1.1582 -4.12031 0
M  V30 1386 C 130.057 2.39305 -4.7816 0
M  V30 1387 C 131.357 0.250731 -5.21698 0
M  V30 1388 H 133.051 -0.134614 -2.99097 0
M  V30 1389 H 130.597 -0.0661826 -1.43848 0
M  V30 1390 H 132.55 2.23136 -3.57475 0
M  V30 1391 H 131.274 2.28533 -2.33325 0
M  V30 1392 H 129.933 0.584146 -3.61916 0
M  V30 1393 H 129.581 3.02814 -4.01637 0
M  V30 1394 H 129.281 2.08109 -5.49513 0
M  V30 1395 H 130.805 2.99691 -5.31994 0
M  V30 1396 H 132.219 0.754695 -5.68311 0
M  V30 1397 H 130.616 0.0301468 -6.00092 0
M  V30 1398 H 131.686 -0.710125 -4.79672 0
M  V30 1399 N 133.029 1.57378 -0.0835403 0
M  V30 1400 C 133.959 2.1641 0.87686 0
M  V30 1401 C 134.94 1.09429 1.30228 0
M  V30 1402 O 136.125 1.37516 1.37124 0
M  V30 1403 C 133.255 2.73517 2.14022 0
M  V30 1404 C 132.209 3.85769 1.85381 0
M  V30 1405 C 131.535 4.29529 3.18448 0
M  V30 1406 C 132.835 5.09486 1.14984 0
M  V30 1407 H 134.529 2.96914 0.385059 0
M  V30 1408 H 132.075 1.42823 0.18377 0
M  V30 1409 H 134.028 3.13463 2.81636 0
M  V30 1410 H 132.752 1.90252 2.65465 0
M  V30 1411 H 131.411 3.46345 1.20169 0
M  V30 1412 H 131.059 3.43169 3.67755 0
M  V30 1413 H 130.759 5.05204 3.00071 0
M  V30 1414 H 132.283 4.72099 3.8724 0
M  V30 1415 H 133.697 5.46674 1.72687 0
M  V30 1416 H 132.094 5.90515 1.06826 0
M  V30 1417 H 133.164 4.84724 0.130749 0
M  V30 1418 N 134.507 -0.190092 1.56449 0
M  V30 1419 C 135.437 -1.23816 1.97969 0
M  V30 1420 C 136.418 -1.47201 0.852395 0
M  V30 1421 O 137.603 -1.58854 1.1171 0
M  V30 1422 C 134.733 -2.5813 2.3235 0
M  V30 1423 C 133.687 -2.49348 3.47864 0
M  V30 1424 C 133.013 -3.8798 3.67934 0
M  V30 1425 C 134.313 -2.01424 4.81898 0
M  V30 1426 H 136.007 -0.89311 2.85769 0
M  V30 1427 H 133.553 -0.428177 1.37487 0
M  V30 1428 H 135.506 -3.31637 2.59991 0
M  V30 1429 H 134.23 -2.94386 1.41438 0
M  V30 1430 H 132.889 -1.78297 3.20321 0
M  V30 1431 H 132.537 -4.21597 2.74344 0
M  V30 1432 H 132.237 -3.82978 4.45648 0
M  V30 1433 H 133.761 -4.63101 3.97957 0
M  V30 1434 H 135.175 -2.64693 5.08538 0
M  V30 1435 H 133.572 -2.07413 5.63116 0
M  V30 1436 H 134.642 -0.967677 4.75146 0
M  V30 1437 N 135.985 -1.50799 -0.457987 0
M  V30 1438 C 137.396 -1.55152 -1.0385 0
M  V30 1439 C 137.747 -0.362719 -1.92818 0
M  V30 1440 O 136.872 0.522915 -2.09987 0
M  V30 1441 C 137.467 -2.81173 -1.89017 0
M  V30 1442 C 136.026 -2.88164 -2.42154 0
M  V30 1443 C 135.173 -2.49591 -1.20829 0
M  V30 1444 H 138.124 -1.56874 -0.240068 0
M  V30 1445 H 138.145 -2.63769 -2.74238 0
M  V30 1446 H 137.657 -3.67677 -1.24238 0
M  V30 1447 H 135.758 -2.06042 -3.10447 0
M  V30 1448 H 135.871 -3.91356 -2.76364 0
M  V30 1449 H 134.235 -2.02322 -1.54719 0
M  V30 1450 H 135.018 -3.38418 -0.576927 0
M  V30 1451 N 137.463 0.71206 -1.40597 0
M  V30 1452 C 138.711 1.46907 -1.38791 0
M  V30 1453 C 139.032 1.94998 0.00780391 0
M  V30 1454 O 138.302 1.70587 0.963174 0
M  V30 1455 H 136.882 0.545043 -0.51082 0
M  V30 1456 H 139.544 0.843882 -1.75683 0
M  V30 1457 H 138.64 2.34021 -2.06496 0
M  V30 1458 N 138.941 1.26152 0.944643 0
M  V30 1459 C 139.889 1.07215 2.06417 0
M  V30 1460 C 140.883 9.2007e-05 1.694 0
M  V30 1461 O 142.089 0.1565 1.79318 0
M  V30 1462 H 138.464 0.329837 0.675805 0
M  V30 1463 H 140.435 2.02099 2.19541 0
M  V30 1464 C 139.184 0.718197 3.40202 0
M  V30 1465 H 138.507 1.53497 3.69159 0
M  V30 1466 H 139.947 0.625459 4.19361 0
M  V30 1467 C 138.406 -0.576435 3.31932 0
M  V30 1468 O 138.936 -1.61574 3.67773 0
M  V30 1469 N 137.142 -0.565781 2.85039 0
M  V30 1470 H 136.689 0.280367 2.5607 0
M  V30 1471 H 136.647 -1.43213 2.79888 0
M  V30 1472 N 140.419 -1.14872 1.07899 0
M  V30 1473 C 141.666 -1.85789 0.805532 0
M  V30 1474 C 141.994 -1.82649 -0.668561 0
M  V30 1475 O 141.249 -1.24858 -1.50695 0
M  V30 1476 C 141.548 -3.34223 1.26609 0
M  V30 1477 C 141.214 -3.57555 2.74709 0
M  V30 1478 C 139.876 -3.63631 3.1516 0
M  V30 1479 C 142.228 -3.66803 3.70277 0
M  V30 1480 C 139.556 -3.76473 4.49983 0
M  V30 1481 C 141.908 -3.8117 5.04869 0
M  V30 1482 C 140.572 -3.85494 5.44932 0
M  V30 1483 H 139.842 -0.679849 0.294765 0
M  V30 1484 H 142.489 -1.3572 1.35101 0
M  V30 1485 H 140.794 -3.86536 0.640103 0
M  V30 1486 H 142.491 -3.87511 1.03132 0
M  V30 1487 H 139.081 -3.5347 2.42398 0
M  V30 1488 H 143.265 -3.61404 3.40149 0
M  V30 1489 H 138.521 -3.7808 4.80484 0
M  V30 1490 H 142.695 -3.87268 5.78789 0
M  V30 1491 H 140.322 -3.95197 6.49403 0
M  V30 1492 N 141.898 -0.863906 -1.31812 0
M  V30 1493 C 142.808 -0.318461 -2.32428 0
M  V30 1494 C 143.824 0.568496 -1.64451 0
M  V30 1495 O 145 0.46666 -1.95919 0
M  V30 1496 C 142.065 0.476355 -3.43412 0
M  V30 1497 C 141.126 -0.43784 -4.27061 0
M  V30 1498 C 140.359 0.319138 -5.32745 0
M  V30 1499 O 140.582 1.54799 -5.48993 0
M  V30 1500 O 139.516 -0.319861 -6.01049 0
M  V30 1501 H 143.342 -1.15229 -2.80991 0
M  V30 1502 H 140.927 -0.627103 -1.35602 0
M  V30 1503 H 142.809 0.927156 -4.11074 0
M  V30 1504 H 141.484 1.28683 -2.97022 0
M  V30 1505 H 140.391 -0.937013 -3.62175 0
M  V30 1506 H 141.724 -1.21375 -4.77 0
M  V30 1507 N 143.376 1.44774 -0.622745 0
M  V30 1508 C 144.601 2.06999 -0.128968 0
M  V30 1509 C 145.026 1.4617 1.1839 0
M  V30 1510 O 144.384 0.560007 1.72434 0
M  V30 1511 C 144.432 3.60595 -0.0188351 0
M  V30 1512 O 143.536 3.99398 1.02739 0
M  V30 1513 H 142.877 0.659047 -0.0809544 0
M  V30 1514 H 145.407 1.85784 -0.85705 0
M  V30 1515 H 145.417 4.07627 0.174476 0
M  V30 1516 H 144.092 4.04252 -0.977384 0
M  V30 1517 H 142.669 3.64011 0.809326 0
M  V30 1518 N 144.854 0.36279 1.53368 0
M  V30 1519 C 146.084 -0.228281 2.05335 0
M  V30 1520 C 146.492 -1.43226 1.23625 0
M  V30 1521 O 145.835 -1.81717 0.269206 0
M  V30 1522 C 145.897 -0.688549 3.52845 0
M  V30 1523 C 145.561 0.398362 4.5526 0
M  V30 1524 C 146.558 1.24732 5.04716 0
M  V30 1525 C 144.243 0.557805 4.99193 0
M  V30 1526 C 146.237 2.2411 5.96702 0
M  V30 1527 C 143.924 1.55495 5.90986 0
M  V30 1528 C 144.922 2.39503 6.39631 0
M  V30 1529 O 144.61 3.37517 7.29615 0
M  V30 1530 H 144.342 -0.044395 0.674541 0
M  V30 1531 H 146.896 0.518668 1.98744 0
M  V30 1532 H 145.126 -1.48706 3.56964 0
M  V30 1533 H 146.815 -1.20231 3.87685 0
M  V30 1534 H 147.581 1.13532 4.71525 0
M  V30 1535 H 143.46 -0.0862959 4.60919 0
M  V30 1536 H 147.004 2.89718 6.34594 0
M  V30 1537 H 142.901 1.66744 6.23592 0
M  V30 1538 H 143.669 3.33213 7.47604 0
M  V30 1539 N 146.332 -1.57332 0.0918853 0
M  V30 1540 C 147.262 -2.16872 -0.865371 0
M  V30 1541 C 148.243 -1.10118 -1.29646 0
M  V30 1542 O 149.428 -1.38242 -1.36392 0
M  V30 1543 C 146.558 -2.74649 -2.12569 0
M  V30 1544 C 145.512 -3.86747 -1.83333 0
M  V30 1545 C 144.838 -4.31212 -3.16166 0
M  V30 1546 C 146.138 -5.10089 -1.1228 0
M  V30 1547 H 147.832 -2.97114 -0.369307 0
M  V30 1548 H 145.378 -1.42918 -0.176194 0
M  V30 1549 H 147.331 -3.14952 -2.7997 0
M  V30 1550 H 146.055 -1.91657 -2.64452 0
M  V30 1551 H 144.714 -3.46978 -1.18331 0
M  V30 1552 H 144.362 -3.45115 -3.6593 0
M  V30 1553 H 144.062 -5.06788 -2.97388 0
M  V30 1554 H 145.586 -4.74146 -3.84731 0
M  V30 1555 H 147 -5.47582 -1.69785 0
M  V30 1556 H 145.397 -5.91073 -1.03693 0
M  V30 1557 H 146.467 -4.84786 -0.105041 0
M  V30 1558 N 147.81 0.181792 -1.56548 0
M  V30 1559 C 148.72 1.24538 -1.98815 0
M  V30 1560 C 149.736 1.49045 -0.897861 0
M  V30 1561 O 150.912 1.61399 -1.20467 0
M  V30 1562 C 147.977 2.56683 -2.33055 0
M  V30 1563 C 147.038 2.40131 -3.55859 0
M  V30 1564 C 146.271 3.65975 -3.88456 0
M  V30 1565 O 146.494 4.70711 -3.22161 0
M  V30 1566 O 145.428 3.6071 -4.81842 0
M  V30 1567 H 149.254 0.916647 -2.89536 0
M  V30 1568 H 146.839 0.387842 -1.44278 0
M  V30 1569 H 148.721 3.34655 -2.56094 0
M  V30 1570 H 147.396 2.89157 -1.45498 0
M  V30 1571 H 146.303 1.60226 -3.38051 0
M  V30 1572 H 147.636 2.12585 -4.43924 0
M  V30 1573 N 149.288 1.51039 0.449983 0
M  V30 1574 C 150.218 1.74379 1.55288 0
M  V30 1575 C 151.199 0.593236 1.5942 0
M  V30 1576 O 152.384 0.834625 1.7535 0
M  V30 1577 C 149.514 1.85728 2.93466 0
M  V30 1578 C 148.468 3.01078 3.04197 0
M  V30 1579 C 147.794 2.97595 4.44231 0
M  V30 1580 C 149.094 4.41254 2.7945 0
M  V30 1581 H 150.788 2.66725 1.36008 0
M  V30 1582 H 148.334 1.2835 0.652864 0
M  V30 1583 H 150.287 2.0064 3.70569 0
M  V30 1584 H 149.011 0.900207 3.13949 0
M  V30 1585 H 147.67 2.85851 2.29531 0
M  V30 1586 H 147.318 1.99691 4.61663 0
M  V30 1587 H 147.018 3.75046 4.52343 0
M  V30 1588 H 148.542 3.14583 5.23326 0
M  V30 1589 H 149.956 4.56897 3.46292 0
M  V30 1590 H 148.353 5.20315 2.98985 0
M  V30 1591 H 149.423 4.52164 1.75144 0
M  V30 1592 N 150.766 -0.704594 1.40972 0
M  V30 1593 C 152.012 -1.46675 1.40051 0
M  V30 1594 C 152.345 -1.94199 0.00641102 0
M  V30 1595 O 151.62 -1.68916 -0.964235 0
M  V30 1596 C 151.903 -2.68505 2.39952 0
M  V30 1597 C 151.756 -2.26805 3.88432 0
M  V30 1598 C 153.075 -3.70686 2.37233 0
M  V30 1599 H 150.194 -0.532015 0.510028 0
M  V30 1600 H 152.836 -0.803255 1.72185 0
M  V30 1601 H 150.986 -3.25114 2.1268 0
M  V30 1602 H 152.658 -1.75592 4.26574 0
M  V30 1603 H 150.901 -1.58685 4.03734 0
M  V30 1604 H 151.572 -3.14181 4.53866 0
M  V30 1605 H 154.048 -3.23731 2.61415 0
M  V30 1606 H 152.924 -4.53553 3.09162 0
M  V30 1607 H 153.185 -4.19754 1.38777 0
M  V30 1608 N 152.244 -1.26651 -0.937939 0
M  V30 1609 C 153.191 -1.0849 -2.03712 0
M  V30 1610 C 154.161 0.011033 -1.66096 0
M  V30 1611 O 155.346 -0.149353 -1.90215 0
M  V30 1612 C 152.486 -0.72735 -3.37348 0
M  V30 1613 C 151.599 -1.89986 -3.87981 0
M  V30 1614 C 150.734 -1.48513 -5.10017 0
M  V30 1615 C 149.773 -2.62575 -5.5292 0
M  V30 1616 N 148.91 -2.21762 -6.66158 0
M  V30 1617 H 153.75 -2.02551 -2.18579 0
M  V30 1618 H 151.287 -1.00844 -1.07093 0
M  V30 1619 H 153.245 -0.50092 -4.14182 0
M  V30 1620 H 151.875 0.176298 -3.22318 0
M  V30 1621 H 150.927 -2.23913 -3.07518 0
M  V30 1622 H 152.239 -2.75586 -4.15757 0
M  V30 1623 H 151.393 -1.21934 -5.94321 0
M  V30 1624 H 150.132 -0.60009 -4.83994 0
M  V30 1625 H 149.137 -2.8988 -4.67172 0
M  V30 1626 H 150.362 -3.51685 -5.80943 0
M  V30 1627 H 148.308 -1.35696 -6.41812 0
M  V30 1628 H 148.225 -3.00903 -6.93537 0
M  V30 1629 H 149.493 -1.98403 -7.53828 0
M  V30 1630 N 153.722 1.14298 -1.08507 0
M  V30 1631 C 154.947 1.8976 -0.837001 0
M  V30 1632 C 155.372 1.78097 0.605228 0
M  V30 1633 O 154.73 1.12188 1.4242 0
M  V30 1634 C 154.778 3.37685 -1.26495 0
M  V30 1635 O 153.882 4.10281 -0.417514 0
M  V30 1636 H 153.223 0.590365 -0.303917 0
M  V30 1637 H 155.753 1.44672 -1.44676 0
M  V30 1638 H 155.763 3.88501 -1.24625 0
M  V30 1639 H 154.438 3.45492 -2.31534 0
M  V30 1640 H 153.015 3.69536 -0.499722 0
M  V30 1641 N 155.201 0.870884 1.31352 0
M  V30 1642 C 156.131 0.343096 2.30966 0
M  V30 1643 C 157.112 -0.566507 1.60389 0
M  V30 1644 O 158.297 -0.483336 1.88089 0
M  V30 1645 C 155.427 -0.455487 3.443 0
M  V30 1646 C 154.381 0.361103 4.26474 0
M  V30 1647 C 153.707 -0.563221 5.31725 0
M  V30 1648 C 155.007 1.59566 4.97329 0
M  V30 1649 H 156.701 1.17548 2.75359 0
M  V30 1650 H 154.247 0.566686 1.32381 0
M  V30 1651 H 156.2 -0.83525 4.13039 0
M  V30 1652 H 154.924 -1.32139 2.98675 0
M  V30 1653 H 153.583 0.722825 3.59403 0
M  V30 1654 H 153.231 -1.42643 4.82351 0
M  V30 1655 H 152.931 -0.0207409 5.87596 0
M  V30 1656 H 154.455 -0.939808 6.03324 0
M  V30 1657 H 155.869 1.28728 5.58661 0
M  V30 1658 H 154.266 2.07728 5.63 0
M  V30 1659 H 155.336 2.34798 4.24262 0
M  V30 1660 N 156.679 -1.44442 0.630414 0
M  V30 1661 C 157.919 -2.03934 0.137919 0
M  V30 1662 C 158.283 -1.48509 -1.21692 0
M  V30 1663 O 159.484 -1.99499 -1.80149 0
M  V30 1664 C 157.755 -3.57187 0.123373 0
M  V30 1665 S 159.314 -4.37741 -0.304604 0
M  V30 1666 H 156.132 -0.708401 0.0607353 0
M  V30 1667 H 158.734 -1.76835 0.833643 0
M  V30 1668 H 157.438 -3.95032 1.11256 0
M  V30 1669 H 156.969 -3.88895 -0.59362 0
M  V30 1670 H 158.984 -4.71403 -1.54897 0
M  V30 1671 N 158.157 -0.370918 -1.53173 0
M  V30 1672 C 159.087 0.464847 -2.28826 0
M  V30 1673 C 160.068 1.07936 -1.31468 0
M  V30 1674 O 161.253 1.0956 -1.60344 0
M  V30 1675 C 158.383 1.60196 -3.08147 0
M  V30 1676 C 157.337 1.11443 -4.13237 0
M  V30 1677 C 156.663 2.3422 -4.80672 0
M  V30 1678 C 157.963 0.195384 -5.21934 0
M  V30 1679 H 159.657 -0.166329 -2.98938 0
M  V30 1680 H 157.203 -0.0814359 -1.4377 0
M  V30 1681 H 159.156 2.19332 -3.59822 0
M  V30 1682 H 157.88 2.26045 -2.35735 0
M  V30 1683 H 156.539 0.545727 -3.62515 0
M  V30 1684 H 156.187 2.98537 -4.04827 0
M  V30 1685 H 155.887 2.02269 -5.51689 0
M  V30 1686 H 157.411 2.94032 -5.35143 0
M  V30 1687 H 158.825 0.694375 -5.69079 0
M  V30 1688 H 157.222 -0.0335027 -6.00091 0
M  V30 1689 H 158.292 -0.760961 -4.78892 0
M  V30 1690 N 159.635 1.57281 -0.100228 0
M  V30 1691 C 160.883 1.94153 0.561157 0
M  V30 1692 C 161.204 0.983157 1.68401 0
M  V30 1693 O 160.474 0.0361132 1.95867 0
M  V30 1694 H 159.054 0.716791 0.210283 0
M  V30 1695 H 161.716 1.94202 -0.164765 0
M  V30 1696 H 160.812 2.96709 0.968008 0
M  V30 1697 N 161.113 -0.173488 1.56642 0
M  V30 1698 C 162.524 -0.736155 1.71574 0
M  V30 1699 C 162.875 -1.82888 0.710389 0
M  V30 1700 O 162 -2.16017 -0.1287 0
M  V30 1701 C 162.595 -1.34211 3.11083 0
M  V30 1702 C 161.154 -1.85162 3.27707 0
M  V30 1703 C 160.301 -0.729765 2.67525 0
M  V30 1704 H 163.252 0.0518786 1.58615 0
M  V30 1705 H 163.273 -2.21178 3.09613 0
M  V30 1706 H 162.785 -0.546579 3.84232 0
M  V30 1707 H 160.886 -2.67366 2.59512 0
M  V30 1708 H 160.999 -1.99855 4.35425 0
M  V30 1709 H 159.363 -1.14965 2.27278 0
M  V30 1710 H 160.146 0.0538806 3.43258 0
M  V30 1711 N 162.591 -1.51276 -0.441967 0
M  V30 1712 C 163.554 -1.7167 -1.51862 0
M  V30 1713 C 164.554 -0.586793 -1.49711 0
M  V30 1714 O 165.744 -0.854276 -1.51815 0
M  V30 1715 C 162.876 -1.76889 -2.91416 0
M  V30 1716 H 164.069 -2.67754 -1.35084 0
M  V30 1717 H 161.622 -1.41196 -0.670333 0
M  V30 1718 H 162.357 -0.826026 -3.13604 0
M  V30 1719 H 162.142 -2.59001 -2.94382 0
M  V30 1720 H 163.632 -1.94522 -3.69528 0
M  V30 1721 N 164.069 0.697108 -1.41344 0
M  V30 1722 C 164.999 1.82353 -1.45841 0
M  V30 1723 C 165.98 1.67115 -0.317247 0
M  V30 1724 O 167.165 1.86871 -0.528474 0
M  V30 1725 C 164.295 3.20476 -1.33838 0
M  V30 1726 C 163.249 3.50415 -2.4575 0
M  V30 1727 C 162.575 4.87878 -2.18813 0
M  V30 1728 C 163.875 3.49546 -3.88091 0
M  V30 1729 H 165.569 1.78846 -2.40113 0
M  V30 1730 H 163.115 0.859028 -1.15571 0
M  V30 1731 H 165.068 3.98988 -1.35596 0
M  V30 1732 H 163.792 3.24604 -0.360498 0
M  V30 1733 H 162.451 2.74253 -2.43271 0
M  V30 1734 H 162.099 4.8863 -1.19371 0
M  V30 1735 H 161.799 5.08875 -2.93803 0
M  V30 1736 H 163.323 5.68702 -2.22284 0
M  V30 1737 H 164.737 4.18066 -3.92293 0
M  V30 1738 H 163.134 3.82075 -4.62751 0
M  V30 1739 H 164.204 2.48552 -4.16353 0
M  V30 1740 N 165.547 1.27147 0.931209 0
M  V30 1741 C 166.796 1.12664 1.67302 0
M  V30 1742 C 167.109 -0.327718 1.92835 0
M  V30 1743 O 168.315 -0.593392 2.64936 0
M  V30 1744 C 166.771 1.9683 3.01307 0
M  V30 1745 C 166.379 3.46901 2.83485 0
M  V30 1746 C 168.123 1.90985 3.79111 0
M  V30 1747 C 166.03 4.23279 4.13024 0
M  V30 1748 H 164.96 0.41803 0.627509 0
M  V30 1749 H 167.611 1.51539 1.03481 0
M  V30 1750 H 165.993 1.50797 3.66164 0
M  V30 1751 H 167.167 4.00773 2.27415 0
M  V30 1752 H 165.482 3.54088 2.19113 0
M  V30 1753 H 168.079 2.45328 4.75098 0
M  V30 1754 H 168.422 0.882718 4.06834 0
M  V30 1755 H 168.955 2.34895 3.21044 0
M  V30 1756 H 165.694 5.26503 3.90481 0
M  V30 1757 H 165.214 3.74186 4.6877 0
M  V30 1758 H 166.893 4.32265 4.81411 0
M  V30 1759 N 167.025 -1.13721 1.09112 0
M  V30 1760 C 167.975 -2.17082 0.697091 0
M  V30 1761 C 168.959 -1.58321 -0.286923 0
M  V30 1762 O 170.151 -1.7673 -0.0978008 0
M  V30 1763 C 167.28 -3.43105 0.115729 0
M  V30 1764 C 166.366 -4.0888 1.12596 0
M  V30 1765 N 166.757 -4.4987 2.31195 0
M  V30 1766 C 165.055 -4.35471 0.963366 0
M  V30 1767 C 165.756 -5.01094 2.95431 0
M  V30 1768 N 164.732 -4.95751 2.23006 0
M  V30 1769 H 168.534 -2.46524 1.6001 0
M  V30 1770 H 166.048 -1.30481 0.966869 0
M  V30 1771 H 168.045 -4.16491 -0.184555 0
M  V30 1772 H 166.705 -3.15138 -0.78217 0
M  V30 1773 H 167.716 -4.42678 2.68806 0
M  V30 1774 H 164.393 -4.17328 0.119878 0
M  V30 1775 H 165.783 -5.4263 3.96236 0
M  V30 1776 N 168.503 -0.877838 -1.30888 0
M  V30 1777 C 169.731 -0.507414 -2.00581 0
M  V30 1778 C 170.146 0.902216 -1.65848 0
M  V30 1779 O 169.503 1.59225 -0.891831 0
M  V30 1780 C 169.554 -0.664162 -3.55347 0
M  V30 1781 O 169.275 -2.01829 -3.8884 0
M  V30 1782 C 170.776 -0.295787 -4.42312 0
M  V30 1783 H 167.996 -0.196866 -0.641471 0
M  V30 1784 H 170.54 -1.18117 -1.66939 0
M  V30 1785 H 168.695 -0.0378619 -3.87381 0
M  V30 1786 H 169.109 -2.03174 -4.8355 0
M  V30 1787 H 170.583 -0.456388 -5.5011 0
M  V30 1788 H 171.06 0.765663 -4.32475 0
M  V30 1789 H 171.666 -0.898113 -4.15709 0
M  V30 1790 N 169.982 1.44106 -0.638065 0
M  V30 1791 C 170.945 2.29138 0.0531013 0
M  V30 1792 C 171.945 1.41409 0.765506 0
M  V30 1793 O 173.135 1.63206 0.609046 0
M  V30 1794 C 170.267 3.23144 1.08584 0
M  V30 1795 H 171.46 2.91739 -0.694883 0
M  V30 1796 H 169.013 1.51134 -0.398538 0
M  V30 1797 H 169.748 2.65408 1.86357 0
M  V30 1798 H 169.533 3.87804 0.578852 0
M  V30 1799 H 171.023 3.87004 1.56899 0
M  V30 1800 N 171.46 0.379036 1.52974 0
M  V30 1801 C 172.407 -0.461048 2.26148 0
M  V30 1802 C 173.377 -1.06637 1.27349 0
M  V30 1803 O 174.562 -1.09633 1.56157 0
M  V30 1804 C 171.702 -1.58782 3.06402 0
M  V30 1805 C 170.815 -1.00636 4.20115 0
M  V30 1806 C 169.95 -2.10334 4.87784 0
M  V30 1807 C 168.989 -1.49724 5.93506 0
M  V30 1808 N 168.126 -2.5331 6.54812 0
M  V30 1809 H 172.966 0.169429 2.97518 0
M  V30 1810 H 170.503 0.0953806 1.4679 0
M  V30 1811 H 172.461 -2.25174 3.51215 0
M  V30 1812 H 171.091 -2.18876 2.37261 0
M  V30 1813 H 170.143 -0.232332 3.7969 0
M  V30 1814 H 171.455 -0.523343 4.96047 0
M  V30 1815 H 170.609 -2.84519 5.35849 0
M  V30 1816 H 169.348 -2.61992 4.11353 0
M  V30 1817 H 168.353 -0.740598 5.44789 0
M  V30 1818 H 169.578 -0.988732 6.71864 0
M  V30 1819 H 167.524 -3.04156 5.81227 0
M  V30 1820 H 167.441 -2.09734 7.26325 0
M  V30 1821 H 168.709 -3.27155 7.07524 0
M  V30 1822 N 172.938 -1.57226 0.108567 0
M  V30 1823 C 174.185 -1.94833 -0.551943 0
M  V30 1824 C 174.513 -0.991204 -1.67348 0
M  V30 1825 O 173.768 -0.0131878 -1.95696 0
M  V30 1826 C 174.067 -3.38911 -1.13463 0
M  V30 1827 C 173.733 -4.50696 -0.135509 0
M  V30 1828 C 172.395 -4.80998 0.139252 0
M  V30 1829 C 174.747 -5.18333 0.545957 0
M  V30 1830 C 172.075 -5.76259 1.10194 0
M  V30 1831 C 174.427 -6.14627 1.49721 0
M  V30 1832 C 173.091 -6.43327 1.78006 0
M  V30 1833 H 172.361 -0.712944 -0.20197 0
M  V30 1834 H 175.008 -1.90582 0.18726 0
M  V30 1835 H 173.313 -3.39805 -1.95037 0
M  V30 1836 H 175.01 -3.65317 -1.65362 0
M  V30 1837 H 171.6 -4.27087 -0.359846 0
M  V30 1838 H 175.784 -4.95087 0.346842 0
M  V30 1839 H 171.04 -5.96804 1.32795 0
M  V30 1840 H 175.214 -6.66126 2.03099 0
M  V30 1841 H 172.841 -7.1695 2.52759 0
M  V30 1842 N 174.416 0.165178 -1.56732 0
M  V30 1843 C 175.379 1.18822 -1.95995 0
M  V30 1844 C 176.379 1.3685 -0.84431 0
M  V30 1845 O 177.569 1.34152 -1.11126 0
M  V30 1846 C 174.701 2.5521 -2.26011 0
M  V30 1847 H 175.894 0.851825 -2.87548 0
M  V30 1848 H 173.447 0.407857 -1.50885 0
M  V30 1849 H 174.182 2.93852 -1.37191 0
M  V30 1850 H 173.967 2.43489 -3.07336 0
M  V30 1851 H 175.457 3.28927 -2.57288 0
M  V30 1852 N 175.894 1.51508 0.433938 0
M  V30 1853 C 176.824 1.76016 1.53429 0
M  V30 1854 C 177.805 0.610112 1.58782 0
M  V30 1855 O 178.99 0.853177 1.74455 0
M  V30 1856 C 176.12 1.88831 2.9148 0
M  V30 1857 C 175.074 3.04288 3.00987 0
M  V30 1858 C 174.4 3.0229 4.4105 0
M  V30 1859 C 175.7 4.44193 2.74754 0
M  V30 1860 H 177.394 2.68152 1.33171 0
M  V30 1861 H 174.94 1.29035 0.639214 0
M  V30 1862 H 176.893 2.04559 3.6842 0
M  V30 1863 H 175.617 0.933455 3.12976 0
M  V30 1864 H 174.276 2.8827 2.26486 0
M  V30 1865 H 173.924 2.04576 4.59519 0
M  V30 1866 H 173.624 3.79822 4.4834 0
M  V30 1867 H 175.148 3.20116 5.1996 0
M  V30 1868 H 176.562 4.60544 3.41426 0
M  V30 1869 H 174.959 5.23457 2.9345 0
M  V30 1870 H 176.029 4.53996 1.70339 0
M  V30 1871 N 177.372 -0.689602 1.41712 0
M  V30 1872 C 178.618 -1.45181 1.41599 0
M  V30 1873 C 178.951 -1.94181 0.0270081 0
M  V30 1874 O 178.226 -1.6993 -0.946265 0
M  V30 1875 C 178.509 -2.65945 2.42787 0
M  V30 1876 C 178.362 -2.22672 3.90816 0
M  V30 1877 C 179.681 -3.68149 2.41151 0
M  V30 1878 H 176.8 -0.526576 0.515642 0
M  V30 1879 H 179.442 -0.784947 1.73028 0
M  V30 1880 H 177.592 -3.2284 2.16116 0
M  V30 1881 H 179.264 -1.71058 4.28412 0
M  V30 1882 H 177.507 -1.54394 4.05395 0
M  V30 1883 H 178.178 -3.0935 4.57172 0
M  V30 1884 H 180.654 -3.2094 2.64834 0
M  V30 1885 H 179.53 -4.50248 3.13955 0
M  V30 1886 H 179.791 -4.18259 1.43221 0
M  V30 1887 N 178.85 -1.27639 -0.924453 0
M  V30 1888 C 180.097 -1.14167 -1.67249 0
M  V30 1889 C 180.425 0.311863 -1.91984 0
M  V30 1890 O 179.68 1.24425 -1.51053 0
M  V30 1891 C 179.979 -1.87407 -3.04325 0
M  V30 1892 C 179.645 -3.37249 -2.99289 0
M  V30 1893 C 178.307 -3.7812 -2.97622 0
M  V30 1894 C 180.659 -4.32845 -2.90336 0
M  V30 1895 C 177.987 -5.12944 -2.8479 0
M  V30 1896 C 180.339 -5.6773 -2.79045 0
M  V30 1897 C 179.003 -6.07889 -2.7573 0
M  V30 1898 H 178.273 -0.417766 -0.612007 0
M  V30 1899 H 180.92 -1.58286 -1.07786 0
M  V30 1900 H 179.225 -1.35805 -3.67511 0
M  V30 1901 H 180.922 -1.74408 -3.61086 0
M  V30 1902 H 177.512 -3.04748 -3.01374 0
M  V30 1903 H 181.696 -4.02239 -2.90719 0
M  V30 1904 H 176.952 -5.432 -2.80612 0
M  V30 1905 H 181.126 -6.41472 -2.71083 0
M  V30 1906 H 178.753 -7.12314 -2.65544 0
M  V30 1907 N 180.328 1.1314 -1.09713 0
M  V30 1908 C 181.739 1.66029 -0.853885 0
M  V30 1909 C 182.09 1.86241 0.617142 0
M  V30 1910 O 181.215 1.5834 1.47503 0
M  V30 1911 C 181.81 3.01599 -1.5435 0
M  V30 1912 C 180.369 3.51467 -1.34714 0
M  V30 1913 C 179.516 2.26648 -1.59769 0
M  V30 1914 H 182.467 0.970226 -1.25588 0
M  V30 1915 H 182.488 3.67709 -0.978267 0
M  V30 1916 H 182 2.86856 -2.6141 0
M  V30 1917 H 180.101 3.71408 -0.297838 0
M  V30 1918 H 180.214 4.314 -2.08401 0
M  V30 1919 H 178.578 2.33385 -1.01998 0
M  V30 1920 H 179.361 2.14467 -2.68065 0
M  V30 1921 N 181.806 0.884767 1.30421 0
M  V30 1922 C 182.736 0.367574 2.30589 0
M  V30 1923 C 183.717 -0.549464 1.60981 0
M  V30 1924 O 184.902 -0.46336 1.88591 0
M  V30 1925 C 182.032 -0.418944 3.44764 0
M  V30 1926 C 180.986 0.406316 4.26067 0
M  V30 1927 C 180.312 -0.506793 5.32293 0
M  V30 1928 C 181.612 1.64832 4.95608 0
M  V30 1929 H 183.306 1.20462 2.74097 0
M  V30 1930 H 180.852 0.580695 1.31772 0
M  V30 1931 H 182.805 -0.791395 4.13902 0
M  V30 1932 H 181.529 -1.28964 3.0006 0
M  V30 1933 H 180.188 0.760903 3.58617 0
M  V30 1934 H 179.836 -1.37519 4.83836 0
M  V30 1935 H 179.536 0.0415828 5.87585 0
M  V30 1936 H 181.06 -0.875764 6.04287 0
M  V30 1937 H 182.474 1.34646 5.57264 0
M  V30 1938 H 180.871 2.13688 5.60765 0
M  V30 1939 H 181.941 2.39284 4.21748 0
M  V30 1940 N 183.284 -1.43765 0.645699 0
M  V30 1941 C 184.217 -2.2798 -0.100072 0
M  V30 1942 C 185.195 -1.39391 -0.837194 0
M  V30 1943 O 186.379 -1.68833 -0.838306 0
M  V30 1944 C 183.506 -3.18643 -1.14823 0
M  V30 1945 C 182.552 -4.2344 -0.510009 0
M  V30 1946 S 183.385 -5.30761 0.710824 0
M  V30 1947 C 184.541 -6.24992 -0.33699 0
M  V30 1948 H 184.774 -2.90884 0.614322 0
M  V30 1949 H 182.307 -1.48166 0.434304 0
M  V30 1950 H 184.265 -3.71424 -1.74799 0
M  V30 1951 H 182.926 -2.54932 -1.8349 0
M  V30 1952 H 182.119 -4.86948 -1.29991 0
M  V30 1953 H 181.721 -3.73997 0.0154577 0
M  V30 1954 H 184.013 -6.66691 -1.20537 0
M  V30 1955 H 184.956 -7.07612 0.262879 0
M  V30 1956 H 185.364 -5.60517 -0.669425 0
M  V30 1957 N 184.763 -0.387143 -1.52771 0
M  V30 1958 C 185.993 0.195585 -2.05672 0
M  V30 1959 C 186.401 1.41241 -1.25887 0
M  V30 1960 O 185.744 1.81265 -0.298081 0
M  V30 1961 C 185.806 0.632327 -3.53895 0
M  V30 1962 C 185.47 -0.470739 -4.54569 0
M  V30 1963 C 186.467 -1.32746 -5.02667 0
M  V30 1964 C 184.152 -0.637151 -4.98243 0
M  V30 1965 C 186.146 -2.33574 -5.93061 0
M  V30 1966 C 183.833 -1.64877 -5.88438 0
M  V30 1967 C 184.831 -2.49649 -6.35739 0
M  V30 1968 O 184.519 -3.49082 -7.24153 0
M  V30 1969 H 184.251 0.033658 -0.675162 0
M  V30 1970 H 186.805 -0.550221 -1.97893 0
M  V30 1971 H 185.035 1.43008 -3.59285 0
M  V30 1972 H 186.724 1.14048 -3.89548 0
M  V30 1973 H 187.49 -1.21019 -4.69659 0
M  V30 1974 H 183.369 0.0129567 -4.60998 0
M  V30 1975 H 186.913 -2.99777 -6.29904 0
M  V30 1976 H 182.81 -1.76643 -6.2086 0
M  V30 1977 H 183.578 -3.45065 -7.42208 0
M  V30 1978 N 186.241 1.57166 -0.116904 0
M  V30 1979 C 187.191 2.11756 0.845178 0
M  V30 1980 C 188.175 1.03783 1.22955 0
M  V30 1981 O 189.367 1.3002 1.20099 0
M  V30 1982 C 186.496 2.71886 2.09602 0
M  V30 1983 C 185.582 3.86937 1.7361 0
M  V30 1984 N 185.973 4.94073 1.08284 0
M  V30 1985 C 184.271 3.97082 2.03082 0
M  V30 1986 C 184.972 5.74477 0.913855 0
M  V30 1987 N 183.948 5.2423 1.43818 0
M  V30 1988 H 187.75 2.91967 0.336523 0
M  V30 1989 H 185.264 1.62174 0.0856332 0
M  V30 1990 H 187.261 3.09338 2.79492 0
M  V30 1991 H 185.921 1.93138 2.61013 0
M  V30 1992 H 186.932 5.12483 0.747067 0
M  V30 1993 H 183.609 3.29372 2.56554 0
M  V30 1994 H 184.999 6.70701 0.40125 0
M  V30 1995 N 187.719 -0.156864 1.56817 0
M  V30 1996 C 188.947 -0.886316 1.86955 0
M  V30 1997 C 189.362 -1.75185 0.703975 0
M  V30 1998 O 188.719 -1.79555 -0.326552 0
M  V30 1999 C 188.77 -1.75117 3.16253 0
M  V30 2000 O 188.491 -0.920537 4.2832 0
M  V30 2001 C 189.992 -2.58905 3.59837 0
M  V30 2002 H 187.212 -0.25678 0.619923 0
M  V30 2003 H 189.756 -0.152615 2.0393 0
M  V30 2004 H 187.911 -2.43805 3.01062 0
M  V30 2005 H 188.325 -1.51337 5.02192 0
M  V30 2006 H 189.799 -3.1518 4.53172 0
M  V30 2007 H 190.276 -3.34472 2.84649 0
M  V30 2008 H 190.882 -1.95526 3.7769 0
M  V30 2009 N 189.197 -1.51736 -0.425897 0
M  V30 2010 C 190.443 -1.66174 -1.17294 0
M  V30 2011 C 190.798 -0.37876 -1.88635 0
M  V30 2012 O 190.091 0.626021 -1.81084 0
M  V30 2013 C 190.285 -2.81103 -2.20717 0
M  V30 2014 C 190.114 -4.20453 -1.59529 0
M  V30 2015 C 188.884 -4.86225 -1.37525 0
M  V30 2016 C 191.082 -5.03146 -1.06528 0
M  V30 2017 N 189.064 -6.09657 -0.720537 0
M  V30 2018 C 190.435 -6.17674 -0.536506 0
M  V30 2019 C 192.49 -4.88594 -0.958127 0
M  V30 2020 C 191.193 -7.19245 0.0888917 0
M  V30 2021 C 193.219 -5.90383 -0.346608 0
M  V30 2022 C 192.581 -7.04191 0.171564 0
M  V30 2023 H 188.68 -0.661871 -0.416475 0
M  V30 2024 H 191.264 -1.88997 -0.467801 0
M  V30 2025 H 189.435 -2.59924 -2.88607 0
M  V30 2026 H 191.167 -2.84662 -2.87663 0
M  V30 2027 H 187.922 -4.44293 -1.64015 0
M  V30 2028 H 188.346 -6.75756 -0.410292 0
M  V30 2029 H 192.988 -4.0085 -1.34459 0
M  V30 2030 H 190.706 -8.06628 0.48746 0
M  V30 2031 H 194.292 -5.81194 -0.265451 0
M  V30 2032 H 193.172 -7.81606 0.637309 0
M  V30 2033 N 190.675 0.682077 -1.42076 0
M  V30 2034 C 191.623 1.81707 -1.45208 0
M  V30 2035 C 192.617 1.66183 -0.328591 0
M  V30 2036 O 193.823 1.7288 -0.501264 0
M  V30 2037 H 190.198 0.599014 -0.454628 0
M  V30 2038 H 192.169 1.76183 -2.40836 0
M  V30 2039 C 190.918 3.19816 -1.36428 0
M  V30 2040 H 190.241 3.32385 -2.22171 0
M  V30 2041 H 191.681 3.99272 -1.42681 0
M  V30 2042 C 190.14 3.36809 -0.078191 0
M  V30 2043 O 190.67 3.92124 0.87188 0
M  V30 2044 N 188.876 2.906 0.00229266 0
M  V30 2045 H 188.423 2.45772 -0.771616 0
M  V30 2046 H 188.381 3.02347 0.862179 0
M  V30 2047 N 192.153 1.28127 0.917671 0
M  V30 2048 C 193.401 1.14825 1.66312 0
M  V30 2049 C 193.722 -0.304379 1.9261 0
M  V30 2050 O 192.992 -1.21149 1.53947 0
M  V30 2051 H 191.572 0.421953 0.616413 0
M  V30 2052 H 194.234 1.608 1.10134 0
M  V30 2053 H 193.33 1.68489 2.62712 0
M  V30 2054 N 193.631 -1.12557 1.10312 0
M  V30 2055 C 194.88 -1.83395 0.839588 0
M  V30 2056 C 195.193 -1.84939 -0.636929 0
M  V30 2057 O 196.399 -2.51761 -1.01631 0
M  V30 2058 C 194.855 -3.29303 1.45215 0
M  V30 2059 C 194.463 -3.36122 2.96186 0
M  V30 2060 C 196.207 -4.05121 1.26796 0
M  V30 2061 C 194.114 -4.76357 3.50483 0
M  V30 2062 H 193.044 -0.687133 0.310425 0
M  V30 2063 H 195.695 -1.26746 1.32694 0
M  V30 2064 H 194.077 -3.85812 0.892469 0
M  V30 2065 H 195.251 -2.89559 3.58458 0
M  V30 2066 H 193.566 -2.73776 3.13745 0
M  V30 2067 H 196.163 -5.08668 1.64806 0
M  V30 2068 H 196.506 -4.15773 0.209409 0
M  V30 2069 H 197.039 -3.54967 1.79563 0
M  V30 2070 H 193.778 -4.70899 4.55998 0
M  V30 2071 H 193.298 -5.23377 2.92978 0
M  V30 2072 H 194.977 -5.45294 3.48228 0
M  V30 2073 N 195.109 -0.891671 -1.2995 0
M  V30 2074 C 196.525 -0.58662 -1.48428 0
M  V30 2075 C 196.725 0.873951 -1.81561 0
M  V30 2076 O 195.781 1.65471 -1.90724 0
M  V30 2077 C 197.094 -1.50553 -2.60296 0
M  V30 2078 C 198.642 -1.50988 -2.74175 0
M  V30 2079 C 199.117 -2.41488 -3.89163 0
M  V30 2080 N 200.608 -2.39489 -3.96483 0
M  V30 2081 C 201.343 -3.06223 -4.84784 0
M  V30 2082 N 200.839 -3.82206 -5.77833 0
M  V30 2083 N 202.632 -2.95421 -4.78208 0
M  V30 2084 H 194.783 -1.83644 -1.06718 0
M  V30 2085 H 197.046 -0.786455 -0.529332 0
M  V30 2086 H 196.752 -2.54581 -2.42654 0
M  V30 2087 H 196.626 -1.22008 -3.56923 0
M  V30 2088 H 199.013 -0.47708 -2.91218 0
M  V30 2089 H 199.094 -1.83567 -1.78148 0
M  V30 2090 H 198.738 -3.44857 -3.72876 0
M  V30 2091 H 198.668 -2.06222 -4.84541 0
M  V30 2092 H 201.159 -1.84278 -3.29924 0
M  V30 2093 H 201.472 -4.302 -6.41988 0
M  V30 2094 H 199.817 -3.86313 -5.77743 0
M  V30 2095 H 203.008 -2.35581 -4.04499 0
M  V30 2096 H 203.181 -3.47704 -5.46814 0
M  V30 2097 N 196.587 1.43421 -0.653314 0
M  V30 2098 C 197.537 2.2792 0.060558 0
M  V30 2099 C 198.521 1.39906 0.794677 0
M  V30 2100 O 199.713 1.63536 0.677128 0
M  V30 2101 C 196.842 3.27603 1.0262 0
M  V30 2102 C 195.928 4.23104 0.290551 0
M  V30 2103 N 196.319 5.01031 -0.692967 0
M  V30 2104 C 194.617 4.42816 0.531984 0
M  V30 2105 C 195.318 5.70626 -1.12963 0
M  V30 2106 N 194.294 5.41617 -0.463867 0
M  V30 2107 H 198.096 2.85585 -0.694143 0
M  V30 2108 H 195.61 1.55126 -0.480602 0
M  V30 2109 H 197.607 3.86918 1.55242 0
M  V30 2110 H 196.267 2.71499 1.78096 0
M  V30 2111 H 197.278 5.0669 -1.07169 0
M  V30 2112 H 193.955 3.97782 1.26791 0
M  V30 2113 H 195.345 6.4318 -1.94343 0
M  V30 2114 N 198.065 0.39524 1.52563 0
M  V30 2115 C 198.995 -0.428384 2.29537 0
M  V30 2116 C 199.976 -1.05831 1.33169 0
M  V30 2117 O 201.161 -1.06995 1.62067 0
M  V30 2118 C 198.291 -1.55274 3.10656 0
M  V30 2119 C 197.245 -1.04855 4.14957 0
M  V30 2120 C 196.571 -2.26543 4.84337 0
M  V30 2121 C 197.871 -0.112324 5.22179 0
M  V30 2122 H 199.565 0.213867 2.98635 0
M  V30 2123 H 197.111 0.104298 1.43622 0
M  V30 2124 H 199.064 -2.1358 3.63265 0
M  V30 2125 H 197.788 -2.22266 2.39302 0
M  V30 2126 H 196.447 -0.487985 3.63338 0
M  V30 2127 H 196.095 -2.92059 4.09525 0
M  V30 2128 H 195.795 -1.93466 5.54837 0
M  V30 2129 H 197.319 -2.85481 5.39753 0
M  V30 2130 H 198.733 -0.603752 5.70112 0
M  V30 2131 H 197.13 0.128968 5.99961 0
M  V30 2132 H 198.2 0.837052 4.77621 0
M  V30 2133 N 199.544 -1.57102 0.125237 0
M  V30 2134 C 200.477 -2.11371 -0.860094 0
M  V30 2135 C 201.455 -1.03168 -1.25679 0
M  V30 2136 O 202.639 -1.30862 -1.35674 0
M  V30 2137 C 199.766 -2.61555 -2.1519 0
M  V30 2138 C 198.812 -3.81701 -1.9028 0
M  V30 2139 S 199.645 -5.23797 -1.11343 0
M  V30 2140 C 200.801 -5.77353 -2.41689 0
M  V30 2141 H 201.034 -2.94617 -0.39852 0
M  V30 2142 H 198.567 -1.54145 -0.0886555 0
M  V30 2143 H 200.525 -2.91122 -2.89411 0
M  V30 2144 H 199.186 -1.78479 -2.58465 0
M  V30 2145 H 198.379 -4.14985 -2.86014 0
M  V30 2146 H 197.981 -3.52783 -1.24178 0
M  V30 2147 H 200.273 -5.87458 -3.37489 0
M  V30 2148 H 201.216 -6.75323 -2.12942 0
M  V30 2149 H 201.624 -5.05457 -2.51342 0
M  V30 2150 N 201.022 0.148545 -1.56898 0
M  V30 2151 C 202.268 0.857877 -1.84424 0
M  V30 2152 C 202.623 1.7886 -0.709006 0
M  V30 2153 O 201.916 1.89344 0.293139 0
M  V30 2154 C 202.11 1.67064 -3.1595 0
M  V30 2155 C 201.939 0.82011 -4.42159 0
M  V30 2156 C 200.709 0.486328 -5.02954 0
M  V30 2157 C 202.907 0.151155 -5.14078 0
M  V30 2158 N 200.889 -0.377956 -6.12735 0
M  V30 2159 C 202.26 -0.573333 -6.17343 0
M  V30 2160 C 204.315 0.0716685 -4.97848 0
M  V30 2161 C 203.018 -1.3698 -7.06137 0
M  V30 2162 C 205.044 -0.711532 -5.87104 0
M  V30 2163 C 204.406 -1.42431 -6.8985 0
M  V30 2164 H 200.505 0.291798 -0.725519 0
M  V30 2165 H 203.089 0.123347 -1.94309 0
M  V30 2166 H 201.26 2.37642 -3.07215 0
M  V30 2167 H 202.992 2.32302 -3.31388 0
M  V30 2168 H 199.747 0.821753 -4.66416 0
M  V30 2169 H 200.171 -0.801077 -6.72244 0
M  V30 2170 H 204.813 0.608381 -4.184 0
M  V30 2171 H 202.531 -1.91778 -7.85014 0
M  V30 2172 H 206.117 -0.775005 -5.76615 0
M  V30 2173 H 204.997 -2.02061 -7.57721 0
M  V30 2174 N 202.5 1.5196 0.417844 0
M  V30 2175 C 203.777 1.56146 1.17803 0
M  V30 2176 C 204.157 0.337275 2.08388 0
M  V30 2177 O 203.505 -0.676447 2.18258 0
M  V30 2178 C 203.715 2.88566 1.96293 0
M  V30 2179 C 205.063 3.41244 2.52662 0
M  V30 2180 O 206.087 2.90247 2.06483 0
M  V30 2181 O 204.946 4.30273 3.36938 0
M  V30 2182 H 202.04 0.628598 0.537395 0
M  V30 2183 H 204.586 1.64283 0.425331 0
M  V30 2184 H 203.358 3.69116 1.2988 0
M  V30 2185 H 202.981 2.83681 2.78587 0
M  V30 2186 N 203.978 -0.674533 1.42435 0
M  V30 2187 C 204.908 -1.80009 1.48724 0
M  V30 2188 C 205.889 -1.6659 0.343793 0
M  V30 2189 O 207.074 -1.86007 0.558137 0
M  V30 2190 C 204.204 -3.18306 1.38919 0
M  V30 2191 C 203.158 -3.46461 2.51294 0
M  V30 2192 C 202.484 -4.84335 2.26547 0
M  V30 2193 C 203.784 -3.43328 3.93603 0
M  V30 2194 H 205.478 -1.75004 2.42928 0
M  V30 2195 H 203.024 -0.840533 1.16923 0
M  V30 2196 H 204.977 -3.9678 1.41927 0
M  V30 2197 H 203.701 -3.2399 0.412094 0
M  V30 2198 H 202.36 -2.70348 2.47604 0
M  V30 2199 H 202.008 -4.86669 1.2713 0
M  V30 2200 H 201.708 -5.04136 3.01861 0
M  V30 2201 H 203.232 -5.65094 2.31304 0
M  V30 2202 H 204.646 -4.11772 3.98894 0
M  V30 2203 H 203.043 -3.74664 4.68771 0
M  V30 2204 H 204.113 -2.41897 4.20255 0
M  V30 2205 N 205.456 -1.28612 -0.910864 0
M  V30 2206 C 206.704 -1.15705 -1.65701 0
M  V30 2207 C 207.025 0.29416 -1.92769 0
M  V30 2208 O 206.295 1.20331 -1.54588 0
M  V30 2209 H 204.875 -0.425216 -0.614167 0
M  V30 2210 H 207.537 -1.61381 -1.0928 0
M  V30 2211 H 206.633 -1.6988 -2.61815 0
M  V30 2212 N 206.934 1.1197 -1.10907 0
M  V30 2213 C 207.881 2.17846 -0.762345 0
M  V30 2214 C 208.851 1.63995 0.263599 0
M  V30 2215 O 210.036 1.90273 0.141773 0
M  V30 2216 C 207.176 3.44487 -0.205651 0
M  V30 2217 C 206.289 4.12369 -1.28748 0
M  V30 2218 C 205.424 5.26674 -0.691919 0
M  V30 2219 C 204.463 5.86431 -1.75399 0
M  V30 2220 N 203.6 6.92142 -1.17833 0
M  V30 2221 H 208.44 2.46851 -1.6694 0
M  V30 2222 H 205.977 1.21188 -0.833776 0
M  V30 2223 H 207.935 4.16981 0.135037 0
M  V30 2224 H 206.565 3.15884 0.664613 0
M  V30 2225 H 205.617 3.38003 -1.74522 0
M  V30 2226 H 206.929 4.52844 -2.09125 0
M  V30 2227 H 206.083 6.05953 -0.300963 0
M  V30 2228 H 204.822 4.8749 0.143232 0
M  V30 2229 H 203.827 5.05835 -2.15432 0
M  V30 2230 H 205.052 6.27685 -2.59208 0
M  V30 2231 H 202.998 6.54985 -0.364725 0
M  V30 2232 H 202.915 7.31242 -1.91887 0
M  V30 2233 H 204.183 7.75237 -0.81408 0
M  V30 2234 N 208.412 0.89855 1.29475 0
M  V30 2235 C 209.66 0.522847 1.9522 0
M  V30 2236 C 209.981 -0.93371 1.71192 0
M  V30 2237 O 209.251 -1.65823 1.04305 0
M  V30 2238 H 207.831 0.190366 0.722336 0
M  V30 2239 H 210.493 1.14459 1.5775 0
M  V30 2240 H 209.589 0.704476 3.04045 0
M  V30 2241 N 209.89 -1.43072 0.660911 0
M  V30 2242 C 210.82 -2.33497 -0.0122829 0
M  V30 2243 C 211.801 -1.49903 -0.803925 0
M  V30 2244 O 212.986 -1.78546 -0.763864 0
M  V30 2245 C 210.116 -3.33363 -0.973994 0
M  V30 2246 C 209.07 -4.27003 -0.291928 0
M  V30 2247 C 208.396 -5.16967 -1.36562 0
M  V30 2248 C 209.696 -5.15816 0.820462 0
M  V30 2249 H 211.39 -2.90038 0.742873 0
M  V30 2250 H 208.936 -1.39461 0.358688 0
M  V30 2251 H 210.889 -3.95524 -1.45392 0
M  V30 2252 H 209.613 -2.75095 -1.7604 0
M  V30 2253 H 208.272 -3.66217 0.167623 0
M  V30 2254 H 207.92 -4.55034 -2.14366 0
M  V30 2255 H 207.62 -5.80441 -0.914454 0
M  V30 2256 H 209.144 -5.82003 -1.84675 0
M  V30 2257 H 210.558 -5.71742 0.422366 0
M  V30 2258 H 208.955 -5.8805 1.19656 0
M  V30 2259 H 210.025 -4.55045 1.67518 0
M  V30 2260 N 211.368 -0.403325 -1.52352 0
M  V30 2261 C 212.315 0.425011 -2.26853 0
M  V30 2262 C 213.285 1.04598 -1.29029 0
M  V30 2263 O 214.47 1.07135 -1.57882 0
M  V30 2264 C 211.61 1.53888 -3.08889 0
M  V30 2265 C 210.723 0.939396 -4.21663 0
M  V30 2266 C 209.858 2.02547 -4.91068 0
M  V30 2267 C 208.897 1.40263 -5.95813 0
M  V30 2268 N 208.034 2.4286 -6.58759 0
M  V30 2269 H 212.874 -0.21674 -2.97211 0
M  V30 2270 H 210.411 -0.118722 -1.4662 0
M  V30 2271 H 212.369 2.19558 -3.54753 0
M  V30 2272 H 210.999 2.15074 -2.40714 0
M  V30 2273 H 210.051 0.171898 -3.80011 0
M  V30 2274 H 211.363 0.44436 -4.96817 0
M  V30 2275 H 210.517 2.75958 -5.40308 0
M  V30 2276 H 209.256 2.55415 -4.15469 0
M  V30 2277 H 208.261 0.653833 -5.45898 0
M  V30 2278 H 209.486 0.881719 -6.73352 0
M  V30 2279 H 207.432 2.94871 -5.85992 0
M  V30 2280 H 207.349 1.98152 -7.2957 0
M  V30 2281 H 208.617 3.15858 -7.12639 0
M  V30 2282 N 212.846 1.57033 -0.133567 0
M  V30 2283 C 214.095 1.94861 0.520768 0
M  V30 2284 C 214.408 1.02012 1.66892 0
M  V30 2285 O 215.614 1.29365 2.38699 0
M  V30 2286 C 214.07 3.46362 0.977809 0
M  V30 2287 C 213.678 4.47773 -0.142674 0
M  V30 2288 C 215.422 3.93083 1.60269 0
M  V30 2289 C 213.329 5.90468 0.331883 0
M  V30 2290 H 212.259 0.727453 0.198315 0
M  V30 2291 H 214.91 1.82227 -0.215759 0
M  V30 2292 H 213.292 3.54282 1.7692 0
M  V30 2293 H 214.466 4.51536 -0.919317 0
M  V30 2294 H 212.781 4.10891 -0.675124 0
M  V30 2295 H 215.378 4.97121 1.96914 0
M  V30 2296 H 215.721 3.33876 2.48662 0
M  V30 2297 H 216.254 3.88025 0.876453 0
M  V30 2298 H 212.993 6.53463 -0.516341 0
M  V30 2299 H 212.513 5.90094 1.07469 0
M  V30 2300 H 214.192 6.42179 0.788332 0
M  V30 2301 N 214.325 -0.140222 1.56975 0
M  V30 2302 C 215.736 -0.699596 1.73097 0
M  V30 2303 C 216.087 -1.8134 0.749022 0
M  V30 2304 O 215.212 -2.16241 -0.0828503 0
M  V30 2305 C 215.807 -1.27582 3.1386 0
M  V30 2306 C 214.366 -1.78169 3.31561 0
M  V30 2307 C 213.513 -0.672855 2.69013 0
M  V30 2308 H 216.464 0.0855115 1.58469 0
M  V30 2309 H 216.485 -2.14561 3.14235 0
M  V30 2310 H 215.997 -0.464955 3.85305 0
M  V30 2311 H 214.098 -2.61801 2.65124 0
M  V30 2312 H 214.211 -1.90574 4.39566 0
M  V30 2313 H 212.575 -1.10118 2.29665 0
M  V30 2314 H 213.358 0.126679 3.43066 0
M  V30 2315 N 215.803 -1.52179 -0.40978 0
M  V30 2316 C 216.735 -1.71703 -1.51825 0
M  V30 2317 C 217.748 -0.597445 -1.51441 0
M  V30 2318 O 218.937 -0.872582 -1.55719 0
M  V30 2319 C 216.037 -1.74171 -2.90719 0
M  V30 2320 C 215.21 -3.03156 -3.15302 0
M  V30 2321 C 214.269 -2.97445 -4.34065 0
M  V30 2322 O 213.295 -3.71352 -4.31377 0
M  V30 2323 N 214.497 -2.15191 -5.39141 0
M  V30 2324 H 217.262 -2.67334 -1.35472 0
M  V30 2325 H 214.823 -1.50409 -0.599069 0
M  V30 2326 H 216.815 -1.67884 -3.68235 0
M  V30 2327 H 215.385 -0.860166 -3.00533 0
M  V30 2328 H 214.605 -3.23097 -2.25836 0
M  V30 2329 H 215.893 -3.88484 -3.28569 0
M  V30 2330 H 215.291 -1.54573 -5.44173 0
M  V30 2331 H 213.848 -2.1476 -6.15403 0
M  V30 2332 N 217.281 0.66697 -1.42791 0
M  V30 2333 C 218.211 1.79218 -1.49677 0
M  V30 2334 C 219.192 1.66405 -0.352623 0
M  V30 2335 O 220.377 1.85708 -0.567993 0
M  V30 2336 C 217.507 3.17565 -1.40605 0
M  V30 2337 C 216.461 3.45124 -2.53127 0
M  V30 2338 C 215.787 4.83127 -2.29112 0
M  V30 2339 C 217.087 3.41236 -3.95418 0
M  V30 2340 H 218.781 1.73713 -2.43853 0
M  V30 2341 H 216.327 0.83432 -1.17367 0
M  V30 2342 H 218.28 3.96022 -1.44029 0
M  V30 2343 H 217.004 3.23767 -0.429271 0
M  V30 2344 H 215.663 2.69031 -2.49034 0
M  V30 2345 H 215.311 4.85988 -1.29709 0
M  V30 2346 H 215.011 5.02528 -3.04531 0
M  V30 2347 H 216.535 5.63859 -2.34297 0
M  V30 2348 H 217.949 4.09651 -4.01073 0
M  V30 2349 H 216.346 3.72173 -4.70752 0
M  V30 2350 H 217.416 2.39665 -4.21532 0
M  V30 2351 N 218.759 1.29093 0.90403 0
M  V30 2352 C 219.989 1.19516 1.68522 0
M  V30 2353 C 220.397 -0.24738 1.87576 0
M  V30 2354 O 219.74 -1.17798 1.40959 0
M  V30 2355 C 219.802 1.83249 3.0929 0
M  V30 2356 C 219.466 3.32531 3.13484 0
M  V30 2357 C 220.463 4.28821 2.93953 0
M  V30 2358 C 218.148 3.73656 3.35688 0
M  V30 2359 C 220.142 5.64212 2.96553 0
M  V30 2360 C 217.829 5.0917 3.37919 0
M  V30 2361 C 218.827 6.04258 3.18373 0
M  V30 2362 O 218.515 7.37298 3.20385 0
M  V30 2363 H 218.247 0.415467 0.533257 0
M  V30 2364 H 220.801 1.70912 1.13922 0
M  V30 2365 H 219.031 1.26358 3.65473 0
M  V30 2366 H 220.72 1.68054 3.69476 0
M  V30 2367 H 221.486 3.98382 2.76616 0
M  V30 2368 H 217.365 3.00101 3.49943 0
M  V30 2369 H 220.909 6.38407 2.81216 0
M  V30 2370 H 216.806 5.39256 3.54787 0
M  V30 2371 H 217.574 7.46048 3.36681 0
M  V30 2372 N 220.237 -1.11381 1.11499 0
M  V30 2373 C 221.169 -2.17207 0.731704 0
M  V30 2374 C 222.182 -1.61066 -0.236957 0
M  V30 2375 O 223.371 -1.78489 -0.0197591 0
M  V30 2376 C 220.471 -3.38846 0.0607624 0
M  V30 2377 C 219.644 -4.24451 1.0564 0
M  V30 2378 C 218.703 -5.24562 0.4149 0
M  V30 2379 O 217.729 -5.59071 1.069 0
M  V30 2380 N 218.931 -5.74651 -0.821943 0
M  V30 2381 H 221.696 -2.50699 1.64225 0
M  V30 2382 H 219.257 -1.26908 1.00529 0
M  V30 2383 H 221.249 -4.02911 -0.380139 0
M  V30 2384 H 219.819 -3.03411 -0.752376 0
M  V30 2385 H 219.039 -3.56833 1.67524 0
M  V30 2386 H 220.327 -4.78486 1.72998 0
M  V30 2387 H 219.725 -5.48797 -1.37252 0
M  V30 2388 H 218.282 -6.40549 -1.20582 0
M  V30 2389 N 221.715 -0.905404 -1.28997 0
M  V30 2390 C 222.94 -0.549175 -1.99997 0
M  V30 2391 C 223.365 0.860276 -1.67275 0
M  V30 2392 O 222.723 1.57355 -0.900502 0
M  V30 2393 C 222.771 -0.755185 -3.52604 0
M  V30 2394 O 221.875 0.189692 -4.11964 0
M  V30 2395 H 221.216 -0.213899 -0.628604 0
M  V30 2396 H 223.746 -1.21856 -1.64354 0
M  V30 2397 H 223.756 -0.662045 -4.02593 0
M  V30 2398 H 222.431 -1.78271 -3.75755 0
M  V30 2399 H 221.008 0.0485257 -3.72868 0
M  V30 2400 N 223.193 1.4272 -0.668489 0
M  V30 2401 C 224.441 2.01226 -0.187769 0
M  V30 2402 C 224.762 1.53092 1.2078 0
M  V30 2403 O 224.032 0.74993 1.80977 0
M  V30 2404 H 222.612 0.744041 -0.0664272 0
M  V30 2405 H 225.274 1.74723 -0.863583 0
M  V30 2406 H 224.37 3.11556 -0.184166 0
M  V30 2407 N 224.671 0.411399 1.52136 0
M  V30 2408 C 225.917 -0.163888 2.02137 0
M  V30 2409 C 226.25 -1.44597 1.29636 0
M  V30 2410 O 225.525 -1.90272 0.403353 0
M  V30 2411 C 225.808 -0.40927 3.57767 0
M  V30 2412 C 225.661 0.889643 4.40914 0
M  V30 2413 C 226.98 -1.19042 4.23694 0
M  V30 2414 H 224.099 -0.0580896 0.734707 0
M  V30 2415 H 226.741 0.54531 1.82007 0
M  V30 2416 H 224.891 -1.0134 3.7505 0
M  V30 2417 H 226.563 1.52575 4.35337 0
M  V30 2418 H 224.806 1.50011 4.07037 0
M  V30 2419 H 225.477 0.672314 5.4789 0
M  V30 2420 H 227.953 -0.678942 4.10524 0
M  V30 2421 H 226.829 -1.33086 5.32522 0
M  V30 2422 H 227.09 -2.21166 3.82803 0
M  V30 2423 N 226.149 -1.5696 0.141893 0
M  V30 2424 C 227.395 -1.9625 -0.511248 0
M  V30 2425 C 227.728 -1.02654 -1.64851 0
M  V30 2426 O 227.003 -0.0679676 -1.94381 0
M  V30 2427 C 227.286 -3.45285 -1.02227 0
M  V30 2428 C 227.139 -4.49658 0.113138 0
M  V30 2429 C 228.458 -3.96698 -1.90574 0
M  V30 2430 H 225.577 -0.713567 -0.184367 0
M  V30 2431 H 228.219 -1.88698 0.222087 0
M  V30 2432 H 226.369 -3.51852 -1.64719 0
M  V30 2433 H 228.041 -4.55174 0.749302 0
M  V30 2434 H 226.284 -4.26857 0.773026 0
M  V30 2435 H 226.955 -5.51258 -0.286053 0
M  V30 2436 H 229.431 -3.92578 -1.37918 0
M  V30 2437 H 228.307 -5.01453 -2.2324 0
M  V30 2438 H 228.568 -3.3875 -2.84079 0
M  V30 2439 N 227.627 0.131896 -1.57047 0
M  V30 2440 C 228.873 0.843179 -1.84441 0
M  V30 2441 C 229.206 1.80129 -0.725749 0
M  V30 2442 O 228.481 1.92624 0.269469 0
M  V30 2443 C 228.764 1.60442 -3.22382 0
M  V30 2444 C 228.617 0.666782 -4.4483 0
M  V30 2445 C 229.936 2.56354 -3.5773 0
M  V30 2446 H 227.055 0.305081 -0.670891 0
M  V30 2447 H 229.697 0.107839 -1.89694 0
M  V30 2448 H 227.847 2.23128 -3.18035 0
M  V30 2449 H 229.519 0.0497646 -4.61273 0
M  V30 2450 H 227.762 -0.022609 -4.33794 0
M  V30 2451 H 228.433 1.23579 -5.37989 0
M  V30 2452 H 230.909 2.0378 -3.62785 0
M  V30 2453 H 229.785 3.06657 -4.5525 0
M  V30 2454 H 230.046 3.38419 -2.84473 0
M  V30 2455 N 229.106 1.52395 0.401703 0
M  V30 2456 C 230.036 1.79231 1.49661 0
M  V30 2457 C 231.017 0.643654 1.57452 0
M  V30 2458 O 232.202 0.889989 1.72606 0
M  V30 2459 C 229.332 1.94971 2.87409 0
M  V30 2460 C 228.286 3.10604 2.94465 0
M  V30 2461 C 227.612 3.11577 4.34538 0
M  V30 2462 C 228.912 4.49921 2.6527 0
M  V30 2463 H 230.606 2.70917 1.27454 0
M  V30 2464 H 228.152 1.30362 0.6117 0
M  V30 2465 H 230.105 2.12328 3.63999 0
M  V30 2466 H 228.829 0.999632 3.10926 0
M  V30 2467 H 227.488 2.93009 2.20321 0
M  V30 2468 H 227.136 2.14277 4.55076 0
M  V30 2469 H 226.836 3.89247 4.40183 0
M  V30 2470 H 228.36 3.31073 5.13053 0
M  V30 2471 H 229.774 4.67683 3.31581 0
M  V30 2472 H 228.171 5.29564 2.82281 0
M  V30 2473 H 229.241 4.57507 1.60671 0
M  V30 2474 N 230.584 -0.659388 1.43143 0
M  V30 2475 C 231.83 -1.42145 1.44647 0
M  V30 2476 C 232.163 -1.9408 0.0681907 0
M  V30 2477 O 231.438 -1.71899 -0.910007 0
M  V30 2478 C 231.721 -2.60735 2.48373 0
M  V30 2479 C 231.574 -2.14332 3.95451 0
M  V30 2480 C 232.893 -3.62951 2.48906 0
M  V30 2481 H 230.012 -0.51552 0.526696 0
M  V30 2482 H 232.654 -0.748069 1.74654 0
M  V30 2483 H 230.804 -3.18184 2.22916 0
M  V30 2484 H 232.476 -1.61932 4.31944 0
M  V30 2485 H 230.719 -1.4576 4.08578 0
M  V30 2486 H 231.39 -2.99583 4.63631 0
M  V30 2487 H 233.866 -3.1525 2.71582 0
M  V30 2488 H 232.742 -4.43487 3.23435 0
M  V30 2489 H 233.003 -4.15126 1.52061 0
M  V30 2490 N 232.062 -1.29571 -0.897171 0
M  V30 2491 C 232.992 -1.17473 -2.01798 0
M  V30 2492 C 233.973 -0.068323 -1.69963 0
M  V30 2493 O 235.158 -0.248239 -1.92607 0
M  V30 2494 C 232.288 -0.853099 -3.36659 0
M  V30 2495 C 231.242 -1.9161 -3.82713 0
M  V30 2496 C 230.568 -1.44773 -5.14728 0
M  V30 2497 C 231.868 -3.32535 -4.02763 0
M  V30 2498 H 233.562 -2.11237 -2.12177 0
M  V30 2499 H 231.108 -1.01699 -1.01948 0
M  V30 2500 H 233.061 -0.755165 -4.14578 0
M  V30 2501 H 231.785 0.120236 -3.26379 0
M  V30 2502 H 230.444 -2.00346 -3.07013 0
M  V30 2503 H 230.092 -0.462995 -5.00865 0
M  V30 2504 H 229.792 -2.15865 -5.46513 0
M  V30 2505 H 231.316 -1.36334 -5.95185 0
M  V30 2506 H 232.73 -3.26626 -4.71156 0
M  V30 2507 H 231.127 -4.01607 -4.45905 0
M  V30 2508 H 232.197 -3.75326 -3.07016 0
M  V30 2509 N 233.54 1.10788 -1.12088 0
M  V30 2510 C 234.768 1.86461 -0.896651 0
M  V30 2511 C 235.183 1.80492 0.553912 0
M  V30 2512 O 234.54 1.19102 1.38278 0
M  V30 2513 C 234.591 3.35006 -1.35843 0
M  V30 2514 O 234.312 3.40866 -2.75213 0
M  V30 2515 C 235.813 4.27565 -1.1706 0
M  V30 2516 H 233.033 0.589425 -0.320654 0
M  V30 2517 H 235.577 1.40076 -1.48993 0
M  V30 2518 H 233.732 3.7887 -0.808458 0
M  V30 2519 H 234.146 4.33411 -2.9539 0
M  V30 2520 H 235.62 5.30007 -1.54263 0
M  V30 2521 H 236.097 4.3906 -0.110814 0
M  V30 2522 H 236.703 3.89501 -1.70789 0
M  V30 2523 N 235.018 0.912232 1.28515 0
M  V30 2524 C 236.264 0.545405 1.95328 0
M  V30 2525 C 236.597 -0.908313 1.71649 0
M  V30 2526 O 235.872 -1.64575 1.03659 0
M  V30 2527 C 236.155 0.853483 3.4984 0
M  V30 2528 C 236.008 2.35982 3.82926 0
M  V30 2529 C 237.327 0.348589 4.38717 0
M  V30 2530 H 234.446 0.199626 0.709449 0
M  V30 2531 H 237.088 1.1412 1.5191 0
M  V30 2532 H 235.238 0.34643 3.86952 0
M  V30 2533 H 236.91 2.93738 3.55691 0
M  V30 2534 H 235.153 2.81543 3.30024 0
M  V30 2535 H 235.824 2.52593 4.90816 0
M  V30 2536 H 238.3 0.78294 4.08668 0
M  V30 2537 H 237.176 0.593242 5.45685 0
M  V30 2538 H 237.437 -0.751049 4.35674 0
M  V30 2539 N 236.496 -1.42363 0.676048 0
M  V30 2540 C 237.426 -2.33497 0.0124832 0
M  V30 2541 C 238.407 -1.50748 -0.787981 0
M  V30 2542 O 239.592 -1.79346 -0.744884 0
M  V30 2543 C 236.722 -3.34377 -0.938582 0
M  V30 2544 C 235.676 -4.27289 -0.246622 0
M  V30 2545 C 235.002 -5.18386 -1.31071 0
M  V30 2546 C 236.302 -5.14916 0.875125 0
M  V30 2547 H 237.996 -2.89233 0.773593 0
M  V30 2548 H 235.542 -1.39073 0.37346 0
M  V30 2549 H 237.495 -3.97044 -1.41188 0
M  V30 2550 H 236.219 -2.76947 -1.73113 0
M  V30 2551 H 234.878 -3.66018 0.206456 0
M  V30 2552 H 234.526 -4.57282 -2.09528 0
M  V30 2553 H 234.226 -5.81378 -0.852839 0
M  V30 2554 H 235.75 -5.83929 -1.78492 0
M  V30 2555 H 237.164 -5.71262 0.482983 0
M  V30 2556 H 235.561 -5.86747 1.25887 0
M  V30 2557 H 236.631 -4.53242 1.72335 0
M  V30 2558 N 237.974 -0.419461 -1.51915 0
M  V30 2559 C 239.199 0.154572 -2.06823 0
M  V30 2560 C 239.624 1.3722 -1.28656 0
M  V30 2561 O 238.982 1.78461 -0.319583 0
M  V30 2562 C 239.03 0.473172 -3.57482 0
M  V30 2563 O 238.134 1.56255 -3.81652 0
M  V30 2564 H 237.475 0.0096924 -0.663929 0
M  V30 2565 H 240.005 -0.595642 -1.95738 0
M  V30 2566 H 240.015 0.728825 -4.01438 0
M  V30 2567 H 238.69 -0.416873 -4.13805 0
M  V30 2568 H 237.267 1.29825 -3.49571 0
M  V30 2569 N 239.452 1.56882 -0.150215 0
M  V30 2570 C 240.677 2.01027 0.510184 0
M  V30 2571 C 241.102 1.02966 1.57415 0
M  V30 2572 O 240.46 0.00590158 1.81299 0
M  V30 2573 C 240.508 3.43899 1.08472 0
M  V30 2574 O 239.612 3.4885 2.19948 0
M  V30 2575 H 238.953 0.652233 0.124451 0
M  V30 2576 H 241.483 2.03093 -0.247894 0
M  V30 2577 H 241.493 3.82766 1.41259 0
M  V30 2578 H 240.168 4.14776 0.305582 0
M  V30 2579 H 238.745 3.21827 1.88366 0
M  V30 2580 N 240.93 -0.123565 1.57115 0
M  V30 2581 C 241.863 -1.18202 1.95201 0
M  V30 2582 C 242.841 -1.40349 0.821031 0
M  V30 2583 O 244.025 -1.54578 1.07879 0
M  V30 2584 C 241.152 -2.53671 2.24429 0
M  V30 2585 C 240.198 -2.4798 3.46999 0
M  V30 2586 S 241.031 -1.92389 4.99747 0
M  V30 2587 C 242.187 -3.2954 5.32123 0
M  V30 2588 H 242.42 -0.857212 2.84674 0
M  V30 2589 H 239.953 -0.33014 1.50829 0
M  V30 2590 H 241.911 -3.3162 2.41947 0
M  V30 2591 H 240.572 -2.83332 1.35579 0
M  V30 2592 H 239.765 -3.47758 3.64801 0
M  V30 2593 H 239.367 -1.7815 3.28844 0
M  V30 2594 H 241.659 -4.25736 5.27025 0
M  V30 2595 H 242.602 -3.16569 6.33395 0
M  V30 2596 H 243.01 -3.27758 4.59603 0
M  V30 2597 N 242.408 -1.52605 -0.393616 0
M  V30 2598 C 243.656 -1.67093 -1.13685 0
M  V30 2599 C 243.977 -0.411011 -1.90619 0
M  V30 2600 O 243.247 0.574491 -1.87287 0
M  V30 2601 H 241.827 -0.615923 -0.422668 0
M  V30 2602 H 244.489 -1.89704 -0.447039 0
M  V30 2603 H 243.585 -2.51922 -1.84232 0
M  V30 2604 N 243.887 0.651787 -1.4349 0
M  V30 2605 C 244.817 1.77621 -1.51569 0
M  V30 2606 C 245.798 1.66022 -0.370253 0
M  V30 2607 O 246.983 1.85095 -0.587658 0
M  V30 2608 C 244.113 3.16056 -1.43966 0
M  V30 2609 C 243.067 3.4242 -2.56774 0
M  V30 2610 C 242.393 4.8067 -2.34223 0
M  V30 2611 C 243.693 3.37023 -3.99015 0
M  V30 2612 H 245.387 1.71117 -2.45681 0
M  V30 2613 H 242.933 0.821825 -1.18246 0
M  V30 2614 H 244.886 3.94472 -1.48221 0
M  V30 2615 H 243.61 3.23293 -0.463586 0
M  V30 2616 H 242.269 2.66375 -2.51873 0
M  V30 2617 H 241.917 4.84585 -1.34856 0
M  V30 2618 H 241.617 4.9927 -3.09844 0
M  V30 2619 H 243.141 5.61342 -2.40265 0
M  V30 2620 H 244.555 4.05374 -4.05395 0
M  V30 2621 H 242.952 3.67159 -4.74673 0
M  V30 2622 H 244.022 2.3518 -4.2405 0
M  V30 2623 N 245.365 1.30045 0.890287 0
M  V30 2624 C 246.328 1.15963 1.977 0
M  V30 2625 C 247.328 0.0923777 1.60534 0
M  V30 2626 O 248.518 0.340071 1.70848 0
M  V30 2627 C 245.65 0.775451 3.31963 0
M  V30 2628 H 246.843 2.12502 2.11619 0
M  V30 2629 H 244.396 1.13366 1.07601 0
M  V30 2630 H 245.131 -0.189671 3.23745 0
M  V30 2631 H 244.916 1.54668 3.60306 0
M  V30 2632 H 246.406 0.700251 4.11687 0
M  V30 2633 N 246.843 -1.10192 1.12674 0
M  V30 2634 C 247.806 -2.14786 0.799979 0
M  V30 2635 C 248.806 -1.59711 -0.18685 0
M  V30 2636 O 249.996 -1.74156 0.0392558 0
M  V30 2637 C 247.128 -3.40374 0.189228 0
M  V30 2638 H 248.321 -2.45203 1.72671 0
M  V30 2639 H 245.874 -1.25597 0.930326 0
M  V30 2640 H 246.609 -3.15577 -0.747107 0
M  V30 2641 H 246.394 -3.81637 0.899766 0
M  V30 2642 H 247.884 -4.17594 -0.0228143 0
M  V30 2643 N 248.321 -0.919034 -1.28029 0
M  V30 2644 C 249.254 -0.355887 -2.25408 0
M  V30 2645 C 250.232 0.542874 -1.5327 0
M  V30 2646 O 251.416 0.485338 -1.82145 0
M  V30 2647 C 248.543 0.490759 -3.35126 0
M  V30 2648 C 247.589 -0.343358 -4.25116 0
M  V30 2649 S 248.422 -1.75344 -5.05979 0
M  V30 2650 C 249.578 -0.914244 -6.19187 0
M  V30 2651 H 249.811 -1.18123 -2.72826 0
M  V30 2652 H 247.344 -0.720636 -1.36551 0
M  V30 2653 H 249.302 0.973404 -3.98792 0
M  V30 2654 H 247.963 1.29054 -2.86363 0
M  V30 2655 H 247.156 0.304266 -5.03081 0
M  V30 2656 H 246.758 -0.759851 -3.662 0
M  V30 2657 H 249.05 -0.146282 -6.77342 0
M  V30 2658 H 249.993 -1.66661 -6.88208 0
M  V30 2659 H 250.401 -0.460082 -5.62622 0
M  V30 2660 O 249.838 1.38984 -0.822545 0
M  V30 2661 H 250.529 1.89429 -0.404525 0
M  V30 END ATOM
M  V30 BEGIN BOND
M  V30 END BOND
M  V30 END CTAB
M  END
$$$$
