drugbank_target|Q9ULZ9 Matrix metalloproteinase-17 (DB00786)
 OpenBabel12092120363D

  0  0  0     0  0            999 V3000
M  V30 BEGIN CTAB
M  V30 COUNTS 9217 9380 0 0 0
M  V30 BEGIN ATOM
M  V30 1 H -0.908 1.98254 -0.117106 0
M  V30 2 N 0 1.576 0 0
M  V30 3 C 0.933 2.03868 1.02534 0
M  V30 4 C 1.911 0.928543 1.3348 0
M  V30 5 O 3.095 1.19667 1.45644 0
M  V30 6 C 0.222 2.43627 2.35294 0
M  V30 7 C -0.732 3.65373 2.2001 0
M  V30 8 S 0.101 5.13292 1.52614 0
M  V30 9 C 1.257 5.56322 2.86805 0
M  V30 10 H 1.49 2.90518 0.631377 0
M  V30 11 H -0.977 1.52953 0.210867 0
M  V30 12 H 0.981 2.67203 3.11629 0
M  V30 13 H -0.358 1.57376 2.7183 0
M  V30 14 H -1.165 3.90944 3.18086 0
M  V30 15 H -1.563 3.418 1.51819 0
M  V30 16 H 0.729 5.58782 3.83104 0
M  V30 17 H 1.672 6.56266 2.65933 0
M  V30 18 H 2.08 4.83886 2.90714 0
M  V30 19 N 1.4781 -0.272755 1.55222 0
M  V30 20 C 2.8941 -0.619959 1.47067 0
M  V30 21 C 3.0941 -1.895 0.684978 0
M  V30 22 O 2.1501 -2.51675 0.203931 0
M  V30 23 C 3.4631 -0.746693 2.91282 0
M  V30 24 C 5.0111 -0.840731 3.01497 0
M  V30 25 C 5.4861 -0.99924 4.46967 0
M  V30 26 N 6.9771 -1.06476 4.50796 0
M  V30 27 C 7.7121 -1.20621 5.6057 0
M  V30 28 N 7.2081 -1.31483 6.80209 0
M  V30 29 N 9.0011 -1.23733 5.48312 0
M  V30 30 H 1.1521 0.564606 2.04758 0
M  V30 31 H 3.4151 0.191177 0.928523 0
M  V30 32 H 3.1211 0.119753 3.51496 0
M  V30 33 H 2.9951 -1.6269 3.40311 0
M  V30 34 H 5.3821 -1.69764 2.41379 0
M  V30 35 H 5.4631 0.0640874 2.5572 0
M  V30 36 H 5.1071 -0.146984 5.07687 0
M  V30 37 H 5.0371 -1.91871 4.90401 0
M  V30 38 H 7.5281 -0.993196 3.64615 0
M  V30 39 H 7.8411 -1.42111 7.59621 0
M  V30 40 H 6.1861 -1.28487 6.8302 0
M  V30 41 H 9.3771 -1.14877 4.53785 0
M  V30 42 H 9.5501 -1.34412 6.33906 0
M  V30 43 N 2.9562 -1.48159 -0.537278 0
M  V30 44 C 4.3722 -1.34118 -0.865129 0
M  V30 45 C 4.5722 -0.346678 -1.98495 0
M  V30 46 O 3.6282 0.234715 -2.51407 0
M  V30 47 C 4.9412 -2.73963 -1.23954 0
M  V30 48 C 6.4892 -2.82397 -1.34984 0
M  V30 49 C 6.9642 -4.22928 -1.75772 0
M  V30 50 N 8.4552 -4.25566 -1.82887 0
M  V30 51 C 9.1902 -5.31235 -2.15817 0
M  V30 52 N 8.6862 -6.47189 -2.47222 0
M  V30 53 N 10.4792 -5.18624 -2.16761 0
M  V30 54 H 2.6302 -2.1144 0.201715 0
M  V30 55 H 4.8932 -0.947598 0.0275949 0
M  V30 56 H 4.5992 -3.48264 -0.490381 0
M  V30 57 H 4.4732 -3.0702 -2.19132 0
M  V30 58 H 6.8602 -2.08356 -2.08978 0
M  V30 59 H 6.9412 -2.5297 -0.379448 0
M  V30 60 H 6.5852 -4.97482 -1.02341 0
M  V30 61 H 6.5152 -4.49794 -2.73848 0
M  V30 62 H 9.0062 -3.41924 -1.60924 0
M  V30 63 H 9.3192 -7.23564 -2.71433 0
M  V30 64 H 7.6642 -6.50476 -2.44757 0
M  V30 65 H 10.8552 -4.27056 -1.91679 0
M  V30 66 H 11.0282 -6.01078 -2.42093 0
M  V30 67 N 4.4343 0.785586 -1.36625 0
M  V30 68 C 5.8503 1.08419 -1.17122 0
M  V30 69 C 6.0503 2.015 0.00208491 0
M  V30 70 O 5.1063 2.43551 0.666278 0
M  V30 71 C 6.4193 1.69498 -2.48377 0
M  V30 72 C 7.9673 1.81821 -2.54775 0
M  V30 73 C 8.4423 2.46315 -3.86126 0
M  V30 74 N 9.9333 2.53779 -3.87492 0
M  V30 75 C 10.6683 3.045 -4.85868 0
M  V30 76 N 10.1643 3.55499 -5.94637 0
M  V30 77 N 11.9573 3.03247 -4.73284 0
M  V30 78 H 4.1083 0.167264 -2.1174 0
M  V30 79 H 6.3713 0.13682 -0.938075 0
M  V30 80 H 6.0773 1.08571 -3.34522 0
M  V30 81 H 5.9513 2.6896 -2.64462 0
M  V30 82 H 8.3383 2.41884 -1.69045 0
M  V30 83 H 8.4193 0.811532 -2.42586 0
M  V30 84 H 8.0633 1.86895 -4.72263 0
M  V30 85 H 7.9933 3.47561 -3.95612 0
M  V30 86 H 10.4843 2.17672 -3.08913 0
M  V30 87 H 10.7973 3.92562 -6.65669 0
M  V30 88 H 9.1423 3.5364 -5.98301 0
M  V30 89 H 12.3333 2.62696 -3.87438 0
M  V30 90 H 12.5063 3.42467 -5.50109 0
M  V30 91 N 5.9124 1.20967 1.01018 0
M  V30 92 C 6.8754 0.965918 2.07853 0
M  V30 93 C 7.8754 -0.0610545 1.60684 0
M  V30 94 O 9.0654 0.175681 1.73312 0
M  V30 95 C 6.1974 0.455513 3.37843 0
M  V30 96 H 7.3904 1.91365 2.3091 0
M  V30 97 H 4.9434 1.02594 1.17916 0
M  V30 98 H 5.6784 -0.497381 3.20463 0
M  V30 99 H 5.4634 1.19622 3.73407 0
M  V30 100 H 6.9534 0.304667 4.16487 0
M  V30 101 N 7.3905 -1.2043 1.01659 0
M  V30 102 C 8.3535 -2.21433 0.591616 0
M  V30 103 C 9.3535 -1.57203 -0.338226 0
M  V30 104 O 10.5435 -1.73737 -0.126918 0
M  V30 105 C 7.6755 -3.40628 -0.136058 0
M  V30 106 H 8.8685 -2.60545 1.48514 0
M  V30 107 H 6.4215 -1.33893 0.806379 0
M  V30 108 H 7.1565 -3.07019 -1.04449 0
M  V30 109 H 6.9415 -3.88475 0.531917 0
M  V30 110 H 8.4315 -4.15475 -0.420735 0
M  V30 111 N 8.8686 -0.792821 -1.36206 0
M  V30 112 C 10.2846 -0.474903 -1.52371 0
M  V30 113 C 10.4846 1.00622 -1.74578 0
M  V30 114 O 9.5406 1.79162 -1.77924 0
M  V30 115 C 10.8536 -1.3083 -2.70747 0
M  V30 116 C 12.4016 -1.30234 -2.84619 0
M  V30 117 C 12.8766 -2.11956 -4.06004 0
M  V30 118 N 14.3676 -2.09419 -4.13156 0
M  V30 119 C 15.1026 -2.69419 -5.06163 0
M  V30 120 N 14.5986 -3.3829 -6.04592 0
M  V30 121 N 16.3916 -2.59134 -4.98804 0
M  V30 122 H 8.5426 -1.75222 -1.20046 0
M  V30 123 H 10.8056 -0.745024 -0.586211 0
M  V30 124 H 10.5116 -2.35881 -2.6087 0
M  V30 125 H 10.3856 -0.95196 -3.6499 0
M  V30 126 H 12.7726 -0.259748 -2.93955 0
M  V30 127 H 12.8536 -1.69847 -1.91274 0
M  V30 128 H 12.4976 -3.16248 -3.97429 0
M  V30 129 H 12.4276 -1.69711 -4.98503 0
M  V30 130 H 14.9186 -1.59297 -3.42685 0
M  V30 131 H 15.2316 -3.81394 -6.7213 0
M  V30 132 H 13.5766 -3.42393 -6.04807 0
M  V30 133 H 16.7676 -2.04927 -4.20859 0
M  V30 134 H 16.9406 -3.06185 -5.711 0
M  V30 135 N 10.3467 1.47872 -0.545128 0
M  V30 136 C 11.5947 2.02093 -0.016553 0
M  V30 137 C 11.9157 1.42305 1.3332 0
M  V30 138 O 11.1857 0.593853 1.86682 0
M  V30 139 H 9.7657 0.746993 -0.00313038 0
M  V30 140 H 12.4277 1.81414 -0.712397 0
M  V30 141 H 11.5237 3.11996 0.0805422 0
M  V30 142 N 11.8248 0.280983 1.55075 0
M  V30 143 C 13.2358 -0.215629 1.85451 0
M  V30 144 C 13.5868 -1.54991 1.203 0
M  V30 145 O 12.7118 -2.10699 0.493435 0
M  V30 146 C 13.3068 -0.398026 3.36454 0
M  V30 147 C 11.8658 -0.838866 3.66933 0
M  V30 148 C 11.0128 0.064458 2.77225 0
M  V30 149 H 13.9638 0.502601 1.50531 0
M  V30 150 H 13.9848 -1.23569 3.59876 0
M  V30 151 H 13.4968 0.573241 3.83843 0
M  V30 152 H 11.5978 -1.8214 3.25048 0
M  V30 153 H 11.7108 -0.672123 4.74362 0
M  V30 154 H 10.0748 -0.452863 2.50642 0
M  V30 155 H 10.8578 1.03172 3.2743 0
M  V30 156 N 13.3029 -1.57598 0.00835791 0
M  V30 157 C 14.5509 -1.90551 -0.6734 0
M  V30 158 C 14.8719 -0.883301 -1.73847 0
M  V30 159 O 14.1419 0.0781442 -1.95744 0
M  V30 160 H 12.7219 -0.703312 -0.251717 0
M  V30 161 H 15.3839 -1.94833 0.0512592 0
M  V30 162 H 14.4799 -2.9056 -1.13935 0
M  V30 163 N 14.781 0.264519 -1.55364 0
M  V30 164 C 16.192 0.834936 -1.6699 0
M  V30 165 C 16.543 1.86718 -0.602552 0
M  V30 166 O 15.668 2.14899 0.254425 0
M  V30 167 C 16.263 1.5212 -3.02729 0
M  V30 168 C 14.822 2.03954 -3.16354 0
M  V30 169 C 13.969 0.884498 -2.62815 0
M  V30 170 H 16.92 0.0406869 -1.58648 0
M  V30 171 H 16.941 2.38853 -2.96191 0
M  V30 172 H 16.453 0.769668 -3.80392 0
M  V30 173 H 14.554 2.82041 -2.43482 0
M  V30 174 H 14.667 2.24902 -4.23032 0
M  V30 175 H 13.031 1.2802 -2.20188 0
M  V30 176 H 13.814 0.14634 -3.42988 0
M  V30 177 N 16.2591 1.48442 0.529413 0
M  V30 178 C 17.6701 1.5002 1.11134 0
M  V30 179 C 18.0211 0.27031 1.94329 0
M  V30 180 O 17.1461 -0.622507 2.07253 0
M  V30 181 C 17.7411 2.71834 2.02217 0
M  V30 182 C 16.3001 2.76283 2.55627 0
M  V30 183 C 15.4471 2.43542 1.326 0
M  V30 184 H 18.3981 1.5555 0.314641 0
M  V30 185 H 18.4191 2.50384 2.8651 0
M  V30 186 H 17.9311 3.61331 1.41639 0
M  V30 187 H 16.0321 1.90995 3.19924 0
M  V30 188 H 16.1451 3.77725 2.94721 0
M  V30 189 H 14.5091 1.94709 1.64196 0
M  V30 190 H 15.2921 3.3528 0.737734 0
M  V30 191 N 17.7372 -0.778329 1.37039 0
M  V30 192 C 19.1482 -1.35421 1.28523 0
M  V30 193 C 19.4992 -1.96075 -0.0700901 0
M  V30 194 O 18.6242 -1.93352 -0.971801 0
M  V30 195 C 19.2192 -2.46211 2.32735 0
M  V30 196 C 17.7782 -2.99585 2.27873 0
M  V30 197 C 16.9252 -1.72748 2.16918 0
M  V30 198 H 19.8762 -0.5791 1.47757 0
M  V30 199 H 19.8972 -3.2552 1.9702 0
M  V30 200 H 19.4092 -2.02036 3.31365 0
M  V30 201 H 17.5102 -3.48152 1.32745 0
M  V30 202 H 17.6232 -3.55646 3.21018 0
M  V30 203 H 15.9872 -1.95416 1.63354 0
M  V30 204 H 16.7702 -1.30686 3.17452 0
M  V30 205 N 19.2153 -1.21501 -1.00376 0
M  V30 206 C 20.6263 -1.03146 -1.55621 0
M  V30 207 C 20.9773 0.408375 -1.91903 0
M  V30 208 O 20.1023 1.29177 -1.73616 0
M  V30 209 C 20.6973 -1.86612 -2.82775 0
M  V30 210 C 19.2563 -1.72586 -3.34501 0
M  V30 211 C 18.4033 -1.83747 -2.07683 0
M  V30 212 H 21.3543 -1.35505 -0.826081 0
M  V30 213 H 21.3753 -1.3771 -3.54706 0
M  V30 214 H 20.8873 -2.91399 -2.56336 0
M  V30 215 H 18.9883 -0.704877 -3.65872 0
M  V30 216 H 19.1013 -2.54623 -4.05837 0
M  V30 217 H 17.4653 -1.27069 -2.20739 0
M  V30 218 H 18.2483 -2.90044 -1.83655 0
M  V30 219 N 20.6934 1.19889 -1.02296 0
M  V30 220 C 21.9414 1.89046 -0.714558 0
M  V30 221 C 22.2624 1.79636 0.758681 0
M  V30 222 O 21.5324 1.20292 1.54618 0
M  V30 223 H 20.1124 0.699802 -0.261317 0
M  V30 224 H 22.7744 1.45574 -1.29592 0
M  V30 225 H 21.8704 2.95524 -1.0036 0
M  V30 226 N 22.1715 0.800033 1.35784 0
M  V30 227 C 23.5825 0.439142 1.81462 0
M  V30 228 C 23.9335 -1.03813 1.66485 0
M  V30 229 O 23.0585 -1.80626 1.19177 0
M  V30 230 C 23.6535 0.790314 3.29453 0
M  V30 231 C 22.2125 0.482111 3.733 0
M  V30 232 C 21.3595 1.01938 2.57883 0
M  V30 233 H 24.3105 0.992254 1.23855 0
M  V30 234 H 24.3315 0.0853677 3.80404 0
M  V30 235 H 23.8435 1.86554 3.40322 0
M  V30 236 H 21.9445 -0.584652 3.67984 0
M  V30 237 H 22.0575 1.01015 4.6833 0
M  V30 238 H 20.4215 0.442043 2.50835 0
M  V30 239 H 21.2045 2.10059 2.71533 0
M  V30 240 N 23.6496 -1.47581 0.552962 0
M  V30 241 C 24.8976 -2.02082 0.0272703 0
M  V30 242 C 25.2186 -1.4301 -1.32563 0
M  V30 243 O 24.4886 -0.603745 -1.86365 0
M  V30 244 H 23.0686 -0.746966 0.00709182 0
M  V30 245 H 25.7306 -1.81033 0.722008 0
M  V30 246 H 24.8266 -3.12034 -0.0639951 0
M  V30 247 N 25.1277 -0.289203 -1.54924 0
M  V30 248 C 26.0577 0.58549 -2.2604 0
M  V30 249 C 27.0387 1.14753 -1.25562 0
M  V30 250 O 28.2237 1.17906 -1.54311 0
M  V30 251 C 25.3537 1.76305 -2.99222 0
M  V30 252 C 24.3077 1.33191 -4.06748 0
M  V30 253 C 23.6337 2.5937 -4.6758 0
M  V30 254 C 24.9337 0.471775 -5.20165 0
M  V30 255 H 26.6277 -0.00763532 -2.99399 0
M  V30 256 H 24.1737 -0.00511229 -1.43999 0
M  V30 257 H 26.1267 2.38097 -3.47689 0
M  V30 258 H 24.8507 2.38223 -2.23422 0
M  V30 259 H 23.5097 0.737121 -3.59113 0
M  V30 260 H 23.1577 3.19576 -3.88433 0
M  V30 261 H 22.8577 2.31228 -5.40192 0
M  V30 262 H 24.3817 3.21985 -5.18804 0
M  V30 263 H 25.7957 0.995056 -5.64599 0
M  V30 264 H 24.1927 0.284639 -5.99425 0
M  V30 265 H 25.2627 -0.506041 -4.82252 0
M  V30 266 N 26.6058 1.57591 -0.0167156 0
M  V30 267 C 27.8308 1.9598 0.67872 0
M  V30 268 C 28.2558 0.892546 1.65575 0
M  V30 269 O 27.6138 -0.147772 1.80697 0
M  V30 270 C 27.6618 3.33468 1.37227 0
M  V30 271 O 26.7658 3.28954 2.48722 0
M  V30 272 H 26.1068 0.639339 0.17928 0
M  V30 273 H 28.6368 2.04463 -0.0748802 0
M  V30 274 H 28.6468 3.69417 1.7319 0
M  V30 275 H 27.3218 4.10694 0.656007 0
M  V30 276 H 25.8988 3.04705 2.14963 0
M  V30 277 N 28.0839 -0.256276 1.55502 0
M  V30 278 C 29.4999 -0.604325 1.47716 0
M  V30 279 C 29.6999 -1.88763 0.705039 0
M  V30 280 O 28.7559 -2.51445 0.230613 0
M  V30 281 C 30.0689 -0.715756 2.92057 0
M  V30 282 C 31.6169 -0.808706 3.02372 0
M  V30 283 C 32.0919 -0.951777 4.48001 0
M  V30 284 N 33.5829 -1.01688 4.519 0
M  V30 285 C 34.3179 -1.14668 5.61817 0
M  V30 286 N 33.8139 -1.24261 6.81565 0
M  V30 287 N 35.6069 -1.1791 5.49594 0
M  V30 288 H 27.7579 0.586291 2.04148 0
M  V30 289 H 30.0209 0.201015 0.926443 0
M  V30 290 H 29.7269 0.157027 3.51349 0
M  V30 291 H 29.6009 -1.59071 3.42018 0
M  V30 292 H 31.9879 -1.67195 2.43166 0
M  V30 293 H 32.0689 0.0912063 2.55637 0
M  V30 294 H 31.7129 -0.0931291 5.07815 0
M  V30 295 H 31.6429 -1.86659 4.92408 0
M  V30 296 H 34.1339 -0.954468 3.65648 0
M  V30 297 H 34.4469 -1.34046 7.61086 0
M  V30 298 H 32.7919 -1.21236 6.84344 0
M  V30 299 H 35.9829 -1.10057 4.54978 0
M  V30 300 H 36.1559 -1.27681 6.35296 0
M  V30 301 N 29.562 -1.4872 -0.521534 0
M  V30 302 C 30.492 -1.66771 -1.63431 0
M  V30 303 C 31.473 -0.516499 -1.62069 0
M  V30 304 O 32.658 -0.750013 -1.79132 0
M  V30 305 C 29.788 -1.71515 -3.01993 0
M  V30 306 C 28.742 -2.86222 -3.18216 0
M  V30 307 C 28.068 -2.76061 -4.57924 0
M  V30 308 C 29.368 -4.27419 -3.00184 0
M  V30 309 H 31.062 -2.59932 -1.48579 0
M  V30 310 H 28.608 -1.25089 -0.713358 0
M  V30 311 H 30.561 -1.82731 -3.7972 0
M  V30 312 H 29.285 -0.749393 -3.17886 0
M  V30 313 H 27.944 -2.74575 -2.42908 0
M  V30 314 H 27.592 -1.77437 -4.70665 0
M  V30 315 H 27.292 -3.53037 -4.69722 0
M  V30 316 H 28.816 -2.89256 -5.37739 0
M  V30 317 H 30.23 -4.39855 -3.67697 0
M  V30 318 H 28.627 -5.05458 -3.2347 0
M  V30 319 H 29.697 -4.43293 -1.96518 0
M  V30 320 N 31.0401 0.771051 -1.3745 0
M  V30 321 C 32.4511 1.34737 -1.29239 0
M  V30 322 C 32.8021 1.96109 0.0596908 0
M  V30 323 O 31.9271 1.93865 0.961534 0
M  V30 324 C 32.5221 2.44973 -2.34037 0
M  V30 325 C 31.0811 2.98372 -2.29458 0
M  V30 326 C 30.2281 1.71595 -2.17831 0
M  V30 327 H 33.1791 0.571256 -1.48062 0
M  V30 328 H 33.2001 3.24471 -1.98744 0
M  V30 329 H 32.7121 2.00276 -3.32432 0
M  V30 330 H 30.8131 3.47443 -1.34589 0
M  V30 331 H 30.9261 3.53939 -3.229 0
M  V30 332 H 29.2901 1.94547 -1.64388 0
M  V30 333 H 30.0731 1.29001 -3.18141 0
M  V30 334 N 32.5182 1.22032 0.997298 0
M  V30 335 C 33.4482 1.01065 2.10495 0
M  V30 336 C 34.4292 -0.0669542 1.69968 0
M  V30 337 O 35.6142 0.0943987 1.9397 0
M  V30 338 C 32.7442 0.582874 3.42374 0
M  V30 339 C 31.6982 1.60592 3.96729 0
M  V30 340 C 31.0242 1.03412 5.24605 0
M  V30 341 C 32.3242 2.99478 4.27914 0
M  V30 342 H 34.0182 1.93708 2.28292 0
M  V30 343 H 31.5642 0.932761 1.09707 0
M  V30 344 H 33.5172 0.423332 4.19268 0
M  V30 345 H 32.2412 -0.379213 3.24391 0
M  V30 346 H 30.9002 1.75316 3.21963 0
M  V30 347 H 30.5482 0.063518 5.0296 0
M  V30 348 H 30.2482 1.71754 5.61938 0
M  V30 349 H 31.7722 0.886066 6.04137 0
M  V30 350 H 33.1862 2.88153 4.95622 0
M  V30 351 H 31.5832 3.64903 4.76409 0
M  V30 352 H 32.6532 3.49742 3.3587 0
M  V30 353 N 33.9963 -1.19345 1.0293 0
M  V30 354 C 35.4073 -1.70725 0.755633 0
M  V30 355 C 35.7583 -1.82326 -0.724676 0
M  V30 356 O 34.8833 -1.49471 -1.56484 0
M  V30 357 C 35.4783 -3.10084 1.36503 0
M  V30 358 C 34.0373 -3.58723 1.13994 0
M  V30 359 C 33.1843 -2.35577 1.46283 0
M  V30 360 H 36.1353 -1.0418 1.19718 0
M  V30 361 H 36.1563 -3.72787 0.762217 0
M  V30 362 H 35.6683 -3.01609 2.44241 0
M  V30 363 H 33.7693 -3.72512 0.0807901 0
M  V30 364 H 33.8823 -4.42816 1.82894 0
M  V30 365 H 32.2463 -2.38935 0.88217 0
M  V30 366 H 33.0293 -2.29731 2.55105 0
M  V30 367 N 35.4744 -0.807222 -1.35358 0
M  V30 368 C 36.4044 -0.232509 -2.3234 0
M  V30 369 C 37.3854 0.642386 -1.57504 0
M  V30 370 O 38.5704 0.572526 -1.85569 0
M  V30 371 C 35.7004 0.619238 -3.41735 0
M  V30 372 C 34.6544 -0.157215 -4.27711 0
M  V30 373 C 33.9804 0.816273 -5.28433 0
M  V30 374 C 35.2804 -1.35656 -5.04376 0
M  V30 375 H 36.9744 -1.04276 -2.80654 0
M  V30 376 H 34.5204 -0.50288 -1.34934 0
M  V30 377 H 36.4734 1.03137 -4.08584 0
M  V30 378 H 35.1974 1.46239 -2.92031 0
M  V30 379 H 33.8564 -0.550525 -3.62443 0
M  V30 380 H 33.5044 1.65494 -4.74996 0
M  V30 381 H 33.2044 0.301067 -5.86828 0
M  V30 382 H 34.7284 1.22659 -5.98153 0
M  V30 383 H 36.1424 -1.01927 -5.64166 0
M  V30 384 H 34.5394 -1.8063 -5.7227 0
M  V30 385 H 35.6094 -2.14288 -4.34981 0
M  V30 386 N 36.9525 1.47285 -0.560781 0
M  V30 387 C 37.8825 2.32857 0.173105 0
M  V30 388 C 38.8635 1.44009 0.905281 0
M  V30 389 O 40.0485 1.7286 0.885046 0
M  V30 390 C 37.1785 3.25861 1.20133 0
M  V30 391 C 36.1325 4.23978 0.585388 0
M  V30 392 C 35.4585 5.06332 1.7185 0
M  V30 393 C 36.7585 5.20242 -0.463178 0
M  V30 394 H 38.4525 2.94466 -0.541307 0
M  V30 395 H 35.9985 1.41601 -0.261764 0
M  V30 396 H 37.9515 3.84569 1.72293 0
M  V30 397 H 36.6755 2.62315 1.94573 0
M  V30 398 H 35.3345 3.66501 0.085054 0
M  V30 399 H 34.9825 4.39186 2.45203 0
M  V30 400 H 34.6825 5.72762 1.31213 0
M  V30 401 H 36.2065 5.67899 2.24329 0
M  V30 402 H 37.6205 5.73293 -0.027502 0
M  V30 403 H 36.0175 5.94896 -0.788627 0
M  V30 404 H 37.0875 4.65504 -1.35773 0
M  V30 405 N 38.4306 0.297415 1.54768 0
M  V30 406 C 39.3606 -0.573494 2.26348 0
M  V30 407 C 40.3416 -1.14085 1.26169 0
M  V30 408 O 41.5266 -1.17086 1.54934 0
M  V30 409 C 38.6566 -1.74716 3.00153 0
M  V30 410 C 37.6106 -1.31032 4.07449 0
M  V30 411 C 36.9366 -2.56887 4.68949 0
M  V30 412 C 38.2366 -0.444183 5.20408 0
M  V30 413 H 39.9306 0.0235131 2.99391 0
M  V30 414 H 37.4766 0.0127488 1.43994 0
M  V30 415 H 39.4296 -2.3625 3.48947 0
M  V30 416 H 38.1536 -2.37035 2.24682 0
M  V30 417 H 36.8126 -0.718066 3.59499 0
M  V30 418 H 36.4606 -3.17512 3.90122 0
M  V30 419 H 36.1606 -2.2836 5.41411 0
M  V30 420 H 37.6846 -3.19229 5.20505 0
M  V30 421 H 39.0986 -0.9651 5.65118 0
M  V30 422 H 37.4956 -0.252846 5.99567 0
M  V30 423 H 38.5656 0.531609 4.81977 0
M  V30 424 N 39.9087 -1.5758 0.0250728 0
M  V30 425 C 40.8387 -2.13007 -0.956575 0
M  V30 426 C 41.8197 -1.0452 -1.342 0
M  V30 427 O 43.0047 -1.32332 -1.42133 0
M  V30 428 C 40.1347 -2.65386 -2.24026 0
M  V30 429 C 39.0887 -3.78623 -1.99571 0
M  V30 430 C 38.4147 -4.17414 -3.3417 0
M  V30 431 C 39.7147 -5.04867 -1.33814 0
M  V30 432 H 41.4087 -2.9528 -0.494991 0
M  V30 433 H 38.9547 -1.42042 -0.236651 0
M  V30 434 H 40.9077 -3.02794 -2.93076 0
M  V30 435 H 39.6317 -1.80268 -2.72343 0
M  V30 436 H 38.2907 -3.41646 -1.32941 0
M  V30 437 H 37.9387 -3.29284 -3.80238 0
M  V30 438 H 37.6387 -4.93719 -3.18615 0
M  V30 439 H 39.1627 -4.57402 -4.04495 0
M  V30 440 H 40.5767 -5.39888 -1.92857 0
M  V30 441 H 38.9737 -5.86144 -1.28669 0
M  V30 442 H 40.0437 -4.83904 -0.310561 0
M  V30 443 N 41.3868 0.248026 -1.55636 0
M  V30 444 C 42.3168 1.31079 -1.93237 0
M  V30 445 C 43.2978 1.50264 -0.797174 0
M  V30 446 O 44.4828 1.62891 -1.05737 0
M  V30 447 C 41.6128 2.66575 -2.22609 0
M  V30 448 C 40.5668 2.62087 -3.3837 0
M  V30 449 C 39.8928 4.01369 -3.53281 0
M  V30 450 C 41.1928 2.19171 -4.7409 0
M  V30 451 H 42.8868 0.998556 -2.82257 0
M  V30 452 H 40.4328 0.47891 -1.35803 0
M  V30 453 H 42.3858 3.41057 -2.47503 0
M  V30 454 H 41.1098 2.99432 -1.30414 0
M  V30 455 H 39.7688 1.90063 -3.13483 0
M  V30 456 H 39.4168 4.31489 -2.58508 0
M  V30 457 H 39.1168 3.99254 -4.31127 0
M  V30 458 H 40.6408 4.77552 -3.80495 0
M  V30 459 H 42.0548 2.83384 -4.98363 0
M  V30 460 H 40.4518 2.2817 -5.5503 0
M  V30 461 H 41.5218 1.14336 -4.71227 0
M  V30 462 N 42.8649 1.48995 0.513639 0
M  V30 463 C 43.8279 1.64229 1.59879 0
M  V30 464 C 44.8279 0.514696 1.5234 0
M  V30 465 O 46.0179 0.78087 1.55718 0
M  V30 466 C 43.1499 1.62783 2.99524 0
M  V30 467 H 44.3429 2.61004 1.47705 0
M  V30 468 H 41.8959 1.37837 0.736936 0
M  V30 469 H 42.6309 0.675461 3.17188 0
M  V30 470 H 42.4159 2.4466 3.06404 0
M  V30 471 H 43.9059 1.76669 3.78388 0
M  V30 472 N 44.343 -0.763751 1.37857 0
M  V30 473 C 45.273 -1.89103 1.36975 0
M  V30 474 C 46.254 -1.68439 0.237152 0
M  V30 475 O 47.439 -1.8918 0.438713 0
M  V30 476 C 44.569 -3.26496 1.18395 0
M  V30 477 C 43.523 -3.61741 2.28751 0
M  V30 478 C 42.849 -4.97762 1.95286 0
M  V30 479 C 44.149 -3.67665 3.70972 0
M  V30 480 H 45.843 -1.90099 2.31307 0
M  V30 481 H 43.389 -0.91319 1.11341 0
M  V30 482 H 45.342 -4.05003 1.16406 0
M  V30 483 H 44.066 -3.25955 0.205215 0
M  V30 484 H 42.725 -2.85547 2.29909 0
M  V30 485 H 42.373 -4.93769 0.959221 0
M  V30 486 H 42.073 -5.22313 2.69189 0
M  V30 487 H 43.597 -5.7866 1.94898 0
M  V30 488 H 45.011 -4.36307 3.719 0
M  V30 489 H 43.408 -4.03718 4.43995 0
M  V30 490 H 44.478 -2.68134 4.0402 0
M  V30 491 N 45.8211 -1.22559 -0.990812 0
M  V30 492 C 47.0691 -1.04933 -1.72724 0
M  V30 493 C 47.3901 0.416158 -1.90508 0
M  V30 494 O 46.6601 1.29918 -1.46622 0
M  V30 495 H 45.2401 -0.385296 -0.639965 0
M  V30 496 H 47.9021 -1.54105 -1.19322 0
M  V30 497 H 46.9981 -1.52886 -2.72089 0
M  V30 498 N 47.2992 1.18797 -1.03562 0
M  V30 499 C 48.5272 1.92599 -0.755869 0
M  V30 500 C 48.9422 1.75886 0.686271 0
M  V30 501 O 48.2992 1.08517 1.46732 0
M  V30 502 C 48.3502 3.44159 -1.10619 0
M  V30 503 O 48.0712 3.60341 -2.4917 0
M  V30 504 C 49.5722 4.3507 -0.850214 0
M  V30 505 H 46.7922 0.611587 -0.276048 0
M  V30 506 H 49.3362 1.50742 -1.38192 0
M  V30 507 H 47.4912 3.83823 -0.525194 0
M  V30 508 H 47.9052 4.54128 -2.62427 0
M  V30 509 H 49.3792 5.39989 -1.14523 0
M  V30 510 H 49.8562 4.38673 0.215176 0
M  V30 511 H 50.4622 4.01097 -1.41426 0
M  V30 512 N 48.7773 0.814389 1.34928 0
M  V30 513 C 50.1933 0.499084 1.51596 0
M  V30 514 C 50.3933 -0.978319 1.76157 0
M  V30 515 O 49.4493 -1.76309 1.80752 0
M  V30 516 C 50.7623 1.35121 2.68631 0
M  V30 517 C 52.3103 1.34746 2.82511 0
M  V30 518 C 52.7853 2.18388 4.0258 0
M  V30 519 N 54.2763 2.15966 4.09772 0
M  V30 520 C 55.0113 2.77437 5.01813 0
M  V30 521 N 54.5073 3.47866 5.99134 0
M  V30 522 N 56.3003 2.67037 4.94619 0
M  V30 523 H 48.4513 1.7711 1.17243 0
M  V30 524 H 50.7143 0.754256 0.574284 0
M  V30 525 H 50.4203 2.40001 2.57085 0
M  V30 526 H 50.2943 1.00991 3.63429 0
M  V30 527 H 52.6813 0.30648 2.93504 0
M  V30 528 H 52.7623 1.72869 1.88547 0
M  V30 529 H 52.4063 3.2253 3.92347 0
M  V30 530 H 52.3363 1.77621 4.9574 0
M  V30 531 H 54.8273 1.64729 3.40107 0
M  V30 532 H 55.1403 3.92038 6.65977 0
M  V30 533 H 53.4853 3.51972 5.99284 0
M  V30 534 H 56.6763 2.11597 4.17546 0
M  V30 535 H 56.8493 3.15232 5.66156 0
M  V30 536 N 50.2554 -1.46986 0.568584 0
M  V30 537 C 51.5034 -2.02041 0.0487022 0
M  V30 538 C 51.8244 -1.44408 -1.31039 0
M  V30 539 O 51.0944 -0.623477 -1.85714 0
M  V30 540 H 49.6744 -0.746849 0.015014 0
M  V30 541 H 52.3364 -1.80257 0.741168 0
M  V30 542 H 51.4324 -3.12085 -0.0308961 0
M  V30 543 N 51.7335 -0.305618 -1.54608 0
M  V30 544 C 52.9815 0.301701 -1.99835 0
M  V30 545 C 53.3025 1.54054 -1.19551 0
M  V30 546 O 52.5725 1.93702 -0.292658 0
M  V30 547 H 51.1525 0.114468 -0.738178 0
M  V30 548 H 53.8145 -0.418016 -1.90364 0
M  V30 549 H 52.9105 0.570548 -3.06841 0
M  V30 550 N 53.2116 1.57565 -0.0334293 0
M  V30 551 C 54.4516 1.93844 0.648379 0
M  V30 552 C 54.8156 0.910387 1.69044 0
M  V30 553 O 56.0166 1.15952 2.42505 0
M  V30 554 C 54.2876 3.35017 1.24492 0
M  V30 555 S 55.8466 3.93229 1.94721 0
M  V30 556 H 52.6646 0.678231 0.213364 0
M  V30 557 H 55.2666 1.95254 -0.0981253 0
M  V30 558 H 53.9706 4.07652 0.474128 0
M  V30 559 H 53.5016 3.37061 2.02864 0
M  V30 560 H 55.5166 3.77014 3.22606 0
M  V30 561 N 54.6897 -0.239769 1.55765 0
M  V30 562 C 55.6527 -1.28038 1.90103 0
M  V30 563 C 56.6527 -1.40723 0.778055 0
M  V30 564 O 57.8427 -1.39301 1.04599 0
M  V30 565 C 54.9747 -2.65702 2.13577 0
M  V30 566 H 56.1677 -0.988048 2.83157 0
M  V30 567 H 53.7207 -0.479382 1.48767 0
M  V30 568 H 54.4557 -3.00063 1.23015 0
M  V30 569 H 54.2407 -2.57875 2.95369 0
M  V30 570 H 55.7307 -3.40828 2.41301 0
M  V30 571 N 56.1678 -1.49265 -0.50573 0
M  V30 572 C 57.1308 -1.65075 -1.59006 0
M  V30 573 C 58.1308 -0.522768 -1.52065 0
M  V30 574 O 59.3208 -0.789117 -1.55302 0
M  V30 575 C 56.4528 -1.64369 -2.98656 0
M  V30 576 H 57.6458 -2.61784 -1.46319 0
M  V30 577 H 55.1988 -1.38226 -0.729616 0
M  V30 578 H 55.9338 -0.692272 -3.16825 0
M  V30 579 H 55.7188 -2.46282 -3.05103 0
M  V30 580 H 57.2088 -1.78674 -3.77446 0
M  V30 581 N 57.6459 0.756429 -1.3826 0
M  V30 582 C 59.0569 1.33359 -1.30661 0
M  V30 583 C 59.4079 1.96161 0.0388875 0
M  V30 584 O 58.5329 1.94874 0.940918 0
M  V30 585 C 59.1279 2.42477 -2.36622 0
M  V30 586 C 57.6869 2.95922 -2.3261 0
M  V30 587 C 56.8339 1.69275 -2.19639 0
M  V30 588 H 59.7849 0.55552 -1.4866 0
M  V30 589 H 59.8059 3.22345 -2.02174 0
M  V30 590 H 59.3179 1.96739 -3.34538 0
M  V30 591 H 57.4189 3.45996 -1.38267 0
M  V30 592 H 57.5319 3.50494 -3.26636 0
M  V30 593 H 55.8959 1.92793 -1.66442 0
M  V30 594 H 56.6789 1.25619 -3.19491 0
M  V30 595 N 59.124 1.23083 0.984299 0
M  V30 596 C 60.087 1.00979 2.05757 0
M  V30 597 C 61.087 -0.0269573 1.60777 0
M  V30 598 O 62.277 0.212403 1.729 0
M  V30 599 C 59.409 0.527072 3.36801 0
M  V30 600 H 60.602 1.9622 2.26799 0
M  V30 601 H 58.155 1.05072 1.15714 0
M  V30 602 H 58.89 -0.429294 3.21446 0
M  V30 603 H 58.675 1.27515 3.70786 0
M  V30 604 H 60.165 0.392942 4.15747 0
M  V30 605 N 60.6021 -1.18246 1.0419 0
M  V30 606 C 62.0131 -1.69914 0.773698 0
M  V30 607 C 62.3641 -1.83085 -0.705297 0
M  V30 608 O 61.4891 -1.51123 -1.5489 0
M  V30 609 C 62.0841 -3.08619 1.39784 0
M  V30 610 C 60.6431 -3.57494 1.17792 0
M  V30 611 C 59.7901 -2.34013 1.48773 0
M  V30 612 H 62.7411 -1.02904 1.20816 0
M  V30 613 H 62.7621 -3.71958 0.801714 0
M  V30 614 H 62.2741 -2.99001 2.47426 0
M  V30 615 H 60.3751 -3.72406 0.120295 0
M  V30 616 H 60.4881 -4.40852 1.87581 0
M  V30 617 H 58.8521 -2.37986 0.907463 0
M  V30 618 H 59.6351 -2.27013 2.57527 0
M  V30 619 N 62.0802 -0.821533 -1.34494 0
M  V30 620 C 63.0432 -0.247847 -2.27856 0
M  V30 621 C 64.0432 0.573453 -1.50227 0
M  V30 622 O 65.2332 0.389759 -1.69784 0
M  V30 623 C 62.3652 0.652698 -3.34593 0
M  V30 624 H 63.5582 -1.07146 -2.80107 0
M  V30 625 H 61.1112 -0.593291 -1.44602 0
M  V30 626 H 61.8462 1.49943 -2.87555 0
M  V30 627 H 61.6312 0.065292 -3.92046 0
M  V30 628 H 63.1212 1.04793 -4.04238 0
M  V30 629 N 63.5583 1.46682 -0.576371 0
M  V30 630 C 64.9693 1.86112 -0.148091 0
M  V30 631 C 65.3203 1.48073 1.2872 0
M  V30 632 O 64.4453 0.892656 1.97131 0
M  V30 633 C 65.0403 3.37786 -0.261982 0
M  V30 634 C 63.5993 3.76235 0.111384 0
M  V30 635 C 62.7463 2.70713 -0.60083 0
M  V30 636 H 65.6973 1.37927 -0.78497 0
M  V30 637 H 65.7183 3.77007 0.514364 0
M  V30 638 H 65.2303 3.6544 -1.30671 0
M  V30 639 H 63.3313 3.54198 1.15649 0
M  V30 640 H 63.4443 4.78391 -0.26052 0
M  V30 641 H 61.8083 2.54666 -0.0417783 0
M  V30 642 H 62.5913 3.01208 -1.64708 0
M  V30 643 N 65.0364 0.313813 1.54444 0
M  V30 644 C 66.4524 -0.0391619 1.59552 0
M  V30 645 C 66.6524 -1.51322 1.33056 0
M  V30 646 O 65.7084 -2.26782 1.11022 0
M  V30 647 C 67.0214 0.370302 2.98411 0
M  V30 648 C 68.5694 0.320139 3.11358 0
M  V30 649 C 69.0444 0.704617 4.52547 0
M  V30 650 N 70.5354 0.657645 4.58508 0
M  V30 651 C 71.2704 0.927453 5.6585 0
M  V30 652 N 70.7664 1.26389 6.81174 0
M  V30 653 N 72.5594 0.853662 5.5558 0
M  V30 654 H 64.7104 1.27433 1.69925 0
M  V30 655 H 66.9734 0.517511 0.794284 0
M  V30 656 H 66.6794 1.39694 3.22767 0
M  V30 657 H 66.5534 -0.269619 3.76235 0
M  V30 658 H 68.9404 -0.697275 2.86744 0
M  V30 659 H 69.0214 0.99486 2.35661 0
M  V30 660 H 68.6654 1.7199 4.77893 0
M  V30 661 H 68.5954 0.00768843 5.26599 0
M  V30 662 H 71.0864 0.409067 3.75679 0
M  V30 663 H 71.3994 1.4554 7.58972 0
M  V30 664 H 69.7444 1.30206 6.82694 0
M  V30 665 H 72.9354 0.590383 4.64362 0
M  V30 666 H 73.1084 1.0673 6.3915 0
M  V30 667 N 66.5145 -1.57545 0.0417849 0
M  V30 668 C 67.4775 -2.09885 -0.92093 0
M  V30 669 C 68.4775 -1.01648 -1.24596 0
M  V30 670 O 69.6675 -1.27759 -1.1842 0
M  V30 671 C 66.7995 -2.57527 -2.23367 0
M  V30 672 H 67.9925 -2.96236 -0.467382 0
M  V30 673 H 65.5455 -1.5493 -0.206467 0
M  V30 674 H 66.2805 -1.74542 -2.73323 0
M  V30 675 H 66.0655 -3.36613 -2.01083 0
M  V30 676 H 67.5555 -2.98201 -2.92346 0
M  V30 677 N 67.9926 0.231505 -1.5589 0
M  V30 678 C 68.9026 1.308 -1.94752 0
M  V30 679 C 69.9186 1.51826 -0.849989 0
M  V30 680 O 71.0946 1.6515 -1.15271 0
M  V30 681 C 68.1596 2.63968 -2.24771 0
M  V30 682 C 67.2206 2.51331 -3.48039 0
M  V30 683 C 66.4536 3.78148 -3.76616 0
M  V30 684 O 66.6766 4.80722 -3.07022 0
M  V30 685 O 65.6106 3.75857 -4.70123 0
M  V30 686 H 69.4366 1.0083 -2.86474 0
M  V30 687 H 67.0216 0.433547 -1.42971 0
M  V30 688 H 68.9036 3.42633 -2.45318 0
M  V30 689 H 67.5786 2.9364 -1.36225 0
M  V30 690 H 66.4856 1.709 -3.32782 0
M  V30 691 H 67.8186 2.26601 -4.36936 0
M  V30 692 N 69.4707 1.49531 0.497807 0
M  V30 693 C 70.7477 1.49682 1.25915 0
M  V30 694 C 71.1277 0.226339 2.09883 0
M  V30 695 O 70.4757 -0.791189 2.14365 0
M  V30 696 C 70.6857 2.77755 2.11313 0
M  V30 697 C 72.0337 3.27371 2.70395 0
M  V30 698 O 73.0577 2.78894 2.21578 0
M  V30 699 O 71.9167 4.11808 3.59272 0
M  V30 700 H 69.0107 0.599228 0.56996 0
M  V30 701 H 71.5567 1.61798 0.511816 0
M  V30 702 H 70.3287 3.61713 1.49264 0
M  V30 703 H 69.9517 2.68515 2.93233 0
M  V30 704 N 70.9488 -0.749086 1.3866 0
M  V30 705 C 71.8788 -1.8764 1.38973 0
M  V30 706 C 72.8598 -1.68178 0.255004 0
M  V30 707 O 74.0448 -1.88704 0.458754 0
M  V30 708 C 71.1748 -3.25222 1.21851 0
M  V30 709 C 70.1288 -3.59295 2.32575 0
M  V30 710 C 69.4548 -4.95663 2.00555 0
M  V30 711 C 70.7548 -3.63709 3.7485 0
M  V30 712 H 72.4488 -1.87635 2.3331 0
M  V30 713 H 69.9948 -0.901329 1.12303 0
M  V30 714 H 71.9478 -4.03746 1.20695 0
M  V30 715 H 70.6718 -3.25719 0.239775 0
M  V30 716 H 69.3308 -2.83093 2.32925 0
M  V30 717 H 68.9788 -4.92724 1.01154 0
M  V30 718 H 68.6788 -5.19429 2.74714 0
M  V30 719 H 70.2028 -5.7656 2.01024 0
M  V30 720 H 71.6168 -4.32338 3.76506 0
M  V30 721 H 70.0138 -3.98986 4.48252 0
M  V30 722 H 71.0838 -2.63834 4.06841 0
M  V30 723 N 72.4269 -1.23603 -0.977757 0
M  V30 724 C 73.6519 -1.09735 -1.75991 0
M  V30 725 C 74.0769 0.346858 -1.84874 0
M  V30 726 O 73.4349 1.25093 -1.3123 0
M  V30 727 C 73.4829 -1.73051 -3.16363 0
M  V30 728 O 72.5869 -0.994452 -4.0023 0
M  V30 729 H 71.9279 -0.384476 -0.541364 0
M  V30 730 H 74.4579 -1.6371 -1.2272 0
M  V30 731 H 74.4679 -1.78398 -3.66931 0
M  V30 732 H 73.1429 -2.78137 -3.09213 0
M  V30 733 H 71.7199 -1.01812 -3.58732 0
M  V30 734 N 73.905 1.17692 -1.04816 0
M  V30 735 C 74.835 2.23777 -0.666791 0
M  V30 736 C 75.816 1.66796 0.33361 0
M  V30 737 O 77.001 1.93039 0.212042 0
M  V30 738 C 74.131 3.47281 -0.0367933 0
M  V30 739 C 73.085 4.17059 -0.961546 0
M  V30 740 C 72.411 5.34342 -0.195626 0
M  V30 741 C 73.711 4.69713 -2.28402 0
M  V30 742 H 75.405 2.55933 -1.55367 0
M  V30 743 H 72.951 1.23019 -0.748484 0
M  V30 744 H 74.904 4.20706 0.241775 0
M  V30 745 H 73.628 3.14381 0.885004 0
M  V30 746 H 72.287 3.45541 -1.22462 0
M  V30 747 H 71.935 4.97692 0.728816 0
M  V30 748 H 71.635 5.81966 -0.811775 0
M  V30 749 H 73.159 6.10553 0.0757473 0
M  V30 750 H 74.573 5.34794 -2.06563 0
M  V30 751 H 72.97 5.279 -2.8538 0
M  V30 752 H 74.04 3.86726 -2.92525 0
M  V30 753 N 75.3831 0.828654 1.34056 0
M  V30 754 C 76.6311 0.41863 1.97717 0
M  V30 755 C 76.9521 -1.02314 1.66002 0
M  V30 756 O 76.2221 -1.71119 0.953683 0
M  V30 757 H 74.8021 0.151809 0.731412 0
M  V30 758 H 77.4641 1.05936 1.63596 0
M  V30 759 H 76.5601 0.542318 3.07352 0
M  V30 760 N 76.8612 -1.46375 0.584142 0
M  V30 761 C 78.1072 -2.02678 0.0703716 0
M  V30 762 C 78.4402 -1.4545 -1.28678 0
M  V30 763 O 77.7152 -0.62014 -1.84349 0
M  V30 764 C 77.9982 -3.60099 0.00614674 0
M  V30 765 C 77.8512 -4.27709 1.3923 0
M  V30 766 C 79.1702 -4.34598 -0.693742 0
M  V30 767 H 76.2892 -0.736504 0.027047 0
M  V30 768 H 78.9312 -1.74501 0.751615 0
M  V30 769 H 77.0812 -3.84236 -0.574009 0
M  V30 770 H 78.7532 -4.14832 2.01773 0
M  V30 771 H 76.9962 -3.87016 1.95962 0
M  V30 772 H 77.6672 -5.36478 1.29982 0
M  V30 773 H 80.1432 -4.15615 -0.200869 0
M  V30 774 H 79.0192 -5.44318 -0.707714 0
M  V30 775 H 79.2802 -4.05759 -1.75533 0
M  V30 776 N 78.3393 -0.321999 -1.54275 0
M  V30 777 C 79.2493 0.553631 -2.27974 0
M  V30 778 C 80.2653 1.13054 -1.32268 0
M  V30 779 O 81.4413 1.15084 -1.6528 0
M  V30 780 C 78.5063 1.69927 -3.02201 0
M  V30 781 C 77.5673 1.15433 -4.1349 0
M  V30 782 C 76.8003 2.24537 -4.84168 0
M  V30 783 O 77.0233 3.44852 -4.5435 0
M  V30 784 O 75.9573 1.90044 -5.7111 0
M  V30 785 H 79.7833 -0.0448345 -3.03667 0
M  V30 786 H 77.3683 -0.0877418 -1.49142 0
M  V30 787 H 79.2503 2.3663 -3.48689 0
M  V30 788 H 77.9253 2.28395 -2.29385 0
M  V30 789 H 76.8323 0.452436 -3.71354 0
M  V30 790 H 78.1653 0.614805 -4.88345 0
M  V30 791 N 79.8174 1.5752 -0.0501392 0
M  V30 792 C 81.0634 1.93755 0.618901 0
M  V30 793 C 81.4184 0.928514 1.68512 0
M  V30 794 O 80.7114 -0.0524613 1.91528 0
M  V30 795 C 80.9054 3.34467 1.25963 0
M  V30 796 C 80.7344 4.48965 0.257 0
M  V30 797 C 79.5044 5.05075 -0.150656 0
M  V30 798 C 81.7024 5.11891 -0.497166 0
M  V30 799 N 79.6844 6.03104 -1.14626 0
M  V30 800 C 81.0554 6.05216 -1.34588 0
M  V30 801 C 83.1104 4.9479 -0.55559 0
M  V30 802 C 81.8134 6.83277 -2.24778 0
M  V30 803 C 83.8394 5.73477 -1.44492 0
M  V30 804 C 83.2014 6.66433 -2.28136 0
M  V30 805 H 79.3004 0.756479 0.198149 0
M  V30 806 H 81.8844 1.94316 -0.122229 0
M  V30 807 H 80.0554 3.34685 1.97079 0
M  V30 808 H 81.7874 3.57994 1.88739 0
M  V30 809 H 78.5424 4.7305 0.228094 0
M  V30 810 H 78.9664 6.56813 -1.64092 0
M  V30 811 H 83.6084 4.2273 0.0768625 0
M  V30 812 H 81.3264 7.54629 -2.89069 0
M  V30 813 H 84.9124 5.62273 -1.49468 0
M  V30 814 H 83.7924 7.26258 -2.95835 0
M  V30 815 N 81.2955 -0.223234 1.56011 0
M  V30 816 C 82.2255 -1.27988 1.95298 0
M  V30 817 C 83.2065 -1.48976 0.820979 0
M  V30 818 O 84.3915 -1.61188 1.08315 0
M  V30 819 C 81.5215 -2.63 2.26822 0
M  V30 820 C 80.4755 -2.56671 3.42497 0
M  V30 821 C 79.8015 -3.95697 3.59622 0
M  V30 822 C 81.1015 -2.11601 4.77517 0
M  V30 823 H 82.7955 -0.953525 2.8381 0
M  V30 824 H 80.3415 -0.457244 1.36548 0
M  V30 825 H 82.2945 -3.37077 2.52898 0
M  V30 826 H 81.0185 -2.9732 1.35161 0
M  V30 827 H 79.6775 -1.85051 3.16467 0
M  V30 828 H 79.3255 -4.27322 2.6534 0
M  V30 829 H 79.0255 -3.92345 4.37424 0
M  V30 830 H 80.5495 -4.71438 3.88044 0
M  V30 831 H 81.9635 -2.7542 5.02809 0
M  V30 832 H 80.3605 -2.19311 5.5859 0
M  V30 833 H 81.4305 -1.06824 4.72987 0
M  V30 834 N 82.7736 -1.49793 -0.48987 0
M  V30 835 C 83.9986 -1.63836 -1.27172 0
M  V30 836 C 84.4236 -0.31402 -1.8546 0
M  V30 837 O 83.7816 0.719803 -1.66399 0
M  V30 838 C 83.8296 -2.71797 -2.36978 0
M  V30 839 O 82.9336 -2.31744 -3.41128 0
M  V30 840 H 82.2746 -0.547997 -0.37496 0
M  V30 841 H 84.8046 -1.96053 -0.585191 0
M  V30 842 H 84.8146 -2.94305 -2.82575 0
M  V30 843 H 83.4896 -3.67923 -1.93921 0
M  V30 844 H 82.0666 -2.1961 -3.01373 0
M  V30 845 N 84.2517 0.741722 -1.39055 0
M  V30 846 C 85.6677 1.04638 -1.20512 0
M  V30 847 C 85.8677 2.01405 -0.0620218 0
M  V30 848 O 84.9237 2.45547 0.588457 0
M  V30 849 C 86.2367 1.6151 -2.53643 0
M  V30 850 C 87.7847 1.73623 -2.6043 0
M  V30 851 C 88.2597 2.33906 -3.93767 0
M  V30 852 N 89.7507 2.41323 -3.9537 0
M  V30 853 C 90.4857 2.88888 -4.95309 0
M  V30 854 N 89.9817 3.36401 -6.05645 0
M  V30 855 N 91.7747 2.88037 -4.82692 0
M  V30 856 H 83.9257 0.0998155 -2.12165 0
M  V30 857 H 86.1887 0.106907 -0.941953 0
M  V30 858 H 85.8947 0.978739 -3.37807 0
M  V30 859 H 85.7687 2.60411 -2.72885 0
M  V30 860 H 88.1557 2.36384 -1.76655 0
M  V30 861 H 88.2367 0.733945 -2.45045 0
M  V30 862 H 87.8807 1.71776 -4.7797 0
M  V30 863 H 87.8107 3.34799 -4.06469 0
M  V30 864 H 90.3017 2.07734 -3.15682 0
M  V30 865 H 90.6147 3.71186 -6.77821 0
M  V30 866 H 88.9597 3.34427 -6.09248 0
M  V30 867 H 92.1507 2.50237 -3.95599 0
M  V30 868 H 92.3237 3.24792 -5.60726 0
M  V30 869 N 85.7298 1.2412 0.971189 0
M  V30 870 C 86.9768 1.07881 1.71371 0
M  V30 871 C 87.3048 -0.382901 1.90694 0
M  V30 872 O 86.5598 -1.29945 1.46331 0
M  V30 873 C 86.8588 1.75983 3.11071 0
M  V30 874 C 86.5248 3.25909 3.11599 0
M  V30 875 C 85.1868 3.66813 3.11451 0
M  V30 876 C 87.5388 4.21771 3.062 0
M  V30 877 C 84.8668 5.02021 3.03631 0
M  V30 878 C 87.2188 5.56982 2.99923 0
M  V30 879 C 85.8828 5.97237 2.98102 0
M  V30 880 H 85.1528 0.394764 0.62709 0
M  V30 881 H 87.7998 1.54176 1.13587 0
M  V30 882 H 86.1048 1.22072 3.72298 0
M  V30 883 H 87.8018 1.60887 3.6731 0
M  V30 884 H 84.3918 2.93353 3.12477 0
M  V30 885 H 88.5758 3.91172 3.05447 0
M  V30 886 H 83.8318 5.32411 3.0058 0
M  V30 887 H 88.0058 6.30969 2.94704 0
M  V30 888 H 85.6328 7.01967 2.91798 0
M  V30 889 N 87.2079 -1.17134 1.05439 0
M  V30 890 C 88.4559 -1.87085 0.764429 0
M  V30 891 C 88.7769 -1.81584 -0.710787 0
M  V30 892 O 88.0469 -1.24349 -1.51374 0
M  V30 893 H 86.6269 -0.692627 0.279779 0
M  V30 894 H 89.2889 -1.42087 1.33406 0
M  V30 895 H 88.3849 -2.92759 1.0816 0
M  V30 896 N 88.686 -0.835752 -1.33615 0
M  V30 897 C 89.916 -0.442701 -2.01801 0
M  V30 898 C 90.324 0.959807 -1.63047 0
M  V30 899 O 89.667 1.63468 -0.838088 0
M  V30 900 C 89.729 -0.480125 -3.56279 0
M  V30 901 C 89.393 -1.8382 -4.18401 0
M  V30 902 C 90.39 -2.80097 -4.37998 0
M  V30 903 C 88.075 -2.13019 -4.54894 0
M  V30 904 C 90.069 -4.03736 -4.9323 0
M  V30 905 C 87.756 -3.36916 -5.09834 0
M  V30 906 C 88.754 -4.32091 -5.28948 0
M  V30 907 O 88.442 -5.53797 -5.82721 0
M  V30 908 H 88.174 -0.17441 -0.653114 0
M  V30 909 H 90.728 -1.129 -1.71589 0
M  V30 910 H 88.958 0.262931 -3.85805 0
M  V30 911 H 90.647 -0.105335 -4.05763 0
M  V30 912 H 91.413 -2.58838 -4.10156 0
M  V30 913 H 87.292 -1.39733 -4.39313 0
M  V30 914 H 90.836 -4.78034 -5.08064 0
M  V30 915 H 86.733 -3.58033 -5.37106 0
M  V30 916 H 87.501 -5.55494 -6.0114 0
M  V30 917 N 90.1641 1.46063 -0.591896 0
M  V30 918 C 91.0941 2.33172 0.123673 0
M  V30 919 C 92.0751 1.45897 0.87453 0
M  V30 920 O 93.2601 1.74698 0.848181 0
M  V30 921 C 90.3901 3.28336 1.13194 0
M  V30 922 C 89.3441 4.25124 0.495324 0
M  V30 923 C 88.6701 5.09863 1.61071 0
M  V30 924 C 89.9701 5.19143 -0.573425 0
M  V30 925 H 91.6641 2.93252 -0.603646 0
M  V30 926 H 89.2101 1.41014 -0.291741 0
M  V30 927 H 91.1631 3.88137 1.64097 0
M  V30 928 H 89.8871 2.66383 1.88965 0
M  V30 929 H 88.5461 3.66599 0.00729452 0
M  V30 930 H 88.1941 4.44288 2.35832 0
M  V30 931 H 87.8941 5.75417 1.19035 0
M  V30 932 H 89.4181 5.72529 2.12233 0
M  V30 933 H 90.8321 5.73106 -0.1491 0
M  V30 934 H 89.2291 5.93089 -0.914636 0
M  V30 935 H 90.2991 4.62519 -1.45617 0
M  V30 936 N 91.6422 0.330177 1.54103 0
M  V30 937 C 93.0532 -0.15652 1.86043 0
M  V30 938 C 93.4042 -1.51086 1.2517 0
M  V30 939 O 92.5292 -2.09023 0.560217 0
M  V30 940 C 93.1242 -0.290784 3.3755 0
M  V30 941 C 91.6832 -0.721705 3.69416 0
M  V30 942 C 90.8302 0.152622 2.7688 0
M  V30 943 H 93.7812 0.550237 1.48856 0
M  V30 944 H 93.8022 -1.12058 3.63625 0
M  V30 945 H 93.3142 0.695068 3.81825 0
M  V30 946 H 91.4152 -1.71706 3.30678 0
M  V30 947 H 91.5282 -0.520869 4.7626 0
M  V30 948 H 89.8922 -0.372894 2.51956 0
M  V30 949 H 90.6752 1.13536 3.23982 0
M  V30 950 N 93.1203 -1.57491 0.0584922 0
M  V30 951 C 94.5313 -1.80526 -0.476138 0
M  V30 952 C 94.8823 -0.971334 -1.70469 0
M  V30 953 O 94.0073 -0.190012 -2.15564 0
M  V30 954 C 94.6023 -3.27424 -0.870587 0
M  V30 955 C 93.1613 -3.51351 -1.35015 0
M  V30 956 C 92.3083 -2.75343 -0.32887 0
M  V30 957 H 95.2593 -1.56133 0.284312 0
M  V30 958 H 95.2803 -3.38745 -1.73299 0
M  V30 959 H 94.7923 -3.88093 0.0237627 0
M  V30 960 H 92.8933 -2.95971 -2.26345 0
M  V30 961 H 93.0063 -4.60059 -1.33726 0
M  V30 962 H 91.3703 -2.417 -0.803321 0
M  V30 963 H 92.1533 -3.38743 0.557521 0
M  V30 964 N 94.5984 0.214957 -1.56127 0
M  V30 965 C 95.5614 1.24997 -1.92116 0
M  V30 966 C 96.5614 1.39467 -0.800344 0
M  V30 967 O 97.7514 1.37619 -1.06802 0
M  V30 968 C 94.8834 2.62271 -2.17777 0
M  V30 969 H 96.0764 0.942875 -2.84693 0
M  V30 970 H 93.6294 0.455654 -1.49511 0
M  V30 971 H 94.3644 2.98068 -1.27773 0
M  V30 972 H 94.1494 2.53143 -2.99434 0
M  V30 973 H 95.6394 3.36946 -2.46693 0
M  V30 974 N 96.0765 1.50051 0.48192 0
M  V30 975 C 97.3535 1.51009 1.2432 0
M  V30 976 C 97.7335 0.248587 2.09631 0
M  V30 977 O 97.0815 -0.768409 2.15192 0
M  V30 978 C 97.2915 2.79981 2.08355 0
M  V30 979 C 98.6395 3.3022 2.66908 0
M  V30 980 O 99.6635 2.81228 2.18607 0
M  V30 981 O 98.5225 4.15595 3.54884 0
M  V30 982 H 95.6165 0.605239 0.563573 0
M  V30 983 H 98.1625 1.62332 0.494627 0
M  V30 984 H 96.9345 3.63275 1.45419 0
M  V30 985 H 96.5575 2.7161 2.90368 0
M  V30 986 N 97.5546 -0.734337 1.39446 0
M  V30 987 C 98.9656 -1.31264 1.32766 0
M  V30 988 C 99.3166 -1.96198 -0.00767497 0
M  V30 989 O 98.4416 -1.96346 -0.909796 0
M  V30 990 C 99.0366 -2.38682 2.4045 0
M  V30 991 C 97.5956 -2.92184 2.37288 0
M  V30 992 C 96.7426 -1.6576 2.22304 0
M  V30 993 H 99.6936 -0.531799 1.49525 0
M  V30 994 H 99.7146 -3.19087 2.07276 0
M  V30 995 H 99.2266 -1.91392 3.37625 0
M  V30 996 H 97.3276 -3.43752 1.43754 0
M  V30 997 H 97.4406 -3.45253 3.3217 0
M  V30 998 H 95.8046 -1.9012 1.69489 0
M  V30 999 H 96.5876 -1.20521 3.21449 0
M  V30 1000 N 99.0327 -1.24633 -0.964593 0
M  V30 1001 C 100.261 -1.11501 -1.74285 0
M  V30 1002 C 100.676 0.332165 -1.85855 0
M  V30 1003 O 100.033 1.22903 -1.34911 0
M  V30 1004 C 100.084 -1.75258 -3.16175 0
M  V30 1005 O 99.8047 -3.14318 -3.05182 0
M  V30 1006 C 101.306 -1.67776 -4.10324 0
M  V30 1007 H 98.5257 -0.389407 -0.546446 0
M  V30 1008 H 101.07 -1.64801 -1.21083 0
M  V30 1009 H 99.2247 -1.25954 -3.66353 0
M  V30 1010 H 99.6387 -3.4551 -3.94618 0
M  V30 1011 H 101.113 -2.17064 -5.0753 0
M  V30 1012 H 101.59 -0.639584 -4.34518 0
M  V30 1013 H 102.196 -2.16522 -3.66058 0
M  V30 1014 N 100.511 1.16574 -1.06058 0
M  V30 1015 C 101.739 1.90952 -0.796552 0
M  V30 1016 C 102.154 1.77302 0.648808 0
M  V30 1017 O 101.511 1.11605 1.44397 0
M  V30 1018 C 101.562 3.41736 -1.17894 0
M  V30 1019 O 101.283 3.54975 -2.56758 0
M  V30 1020 C 102.784 4.33169 -0.942308 0
M  V30 1021 H 100.004 0.605594 -0.288959 0
M  V30 1022 H 102.548 1.47777 -1.41358 0
M  V30 1023 H 100.703 3.82623 -0.606491 0
M  V30 1024 H 101.117 4.4846 -2.72 0
M  V30 1025 H 102.591 5.37439 -1.25952 0
M  V30 1026 H 103.068 4.3903 0.122078 0
M  V30 1027 H 103.674 3.98007 -1.49902 0
M  V30 1028 N 101.989 0.842826 1.3317 0
M  V30 1029 C 103.237 0.439577 1.97262 0
M  V30 1030 C 103.558 -1.00548 1.67078 0
M  V30 1031 O 102.828 -1.70098 0.971779 0
M  V30 1032 H 101.408 0.159558 0.72976 0
M  V30 1033 H 104.07 1.07665 1.62463 0
M  V30 1034 H 103.166 0.574886 3.0676 0
M  V30 1035 N 103.467 -1.45747 0.599634 0
M  V30 1036 C 104.399 -2.28628 -0.161879 0
M  V30 1037 C 105.412 -1.39494 -0.839367 0
M  V30 1038 O 106.601 -1.63941 -0.706089 0
M  V30 1039 C 103.701 -3.15014 -1.24976 0
M  V30 1040 C 102.874 -4.32378 -0.660935 0
M  V30 1041 C 101.933 -5.00033 -1.63869 0
M  V30 1042 O 100.959 -5.57085 -1.1681 0
M  V30 1043 N 102.161 -4.98589 -2.97303 0
M  V30 1044 H 104.926 -2.94624 0.549265 0
M  V30 1045 H 102.487 -1.55847 0.438565 0
M  V30 1046 H 104.479 -3.5714 -1.9035 0
M  V30 1047 H 103.049 -2.5098 -1.86354 0
M  V30 1048 H 102.269 -3.9383 0.170688 0
M  V30 1049 H 103.557 -5.08197 -0.247619 0
M  V30 1050 H 102.955 -4.53514 -3.38145 0
M  V30 1051 H 101.512 -5.44603 -3.58121 0
M  V30 1052 N 104.945 -0.338344 -1.53925 0
M  V30 1053 C 105.875 0.51328 -2.27789 0
M  V30 1054 C 106.856 1.107 -1.29149 0
M  V30 1055 O 108.041 1.12937 -1.57984 0
M  V30 1056 C 105.171 1.66697 -3.04679 0
M  V30 1057 C 104.125 1.20183 -4.1078 0
M  V30 1058 C 103.451 2.44363 -4.75595 0
M  V30 1059 C 104.751 0.30605 -5.21403 0
M  V30 1060 H 106.445 -0.102883 -2.99223 0
M  V30 1061 H 103.991 -0.0509219 -1.4391 0
M  V30 1062 H 105.944 2.26915 -3.55088 0
M  V30 1063 H 104.668 2.30995 -2.30887 0
M  V30 1064 H 103.327 0.622499 -3.61276 0
M  V30 1065 H 102.975 3.07057 -3.98403 0
M  V30 1066 H 102.675 2.13925 -5.47275 0
M  V30 1067 H 104.199 3.05317 -5.28786 0
M  V30 1068 H 105.613 0.814929 -5.67478 0
M  V30 1069 H 104.01 0.0937929 -6.00027 0
M  V30 1070 H 105.08 -0.65921 -4.80398 0
M  V30 1071 N 106.423 1.57458 -0.0668435 0
M  V30 1072 C 107.355 2.09413 0.931601 0
M  V30 1073 C 108.368 1.02522 1.26464 0
M  V30 1074 O 109.557 1.30049 1.22269 0
M  V30 1075 C 106.657 2.53537 2.24882 0
M  V30 1076 C 105.83 3.83944 2.09537 0
M  V30 1077 C 104.889 4.14214 3.2452 0
M  V30 1078 O 103.915 4.83891 2.9973 0
M  V30 1079 N 105.117 3.67367 4.49469 0
M  V30 1080 H 107.882 2.95699 0.488048 0
M  V30 1081 H 105.443 1.61462 0.119009 0
M  V30 1082 H 107.435 2.70853 3.00701 0
M  V30 1083 H 106.005 1.72415 2.60753 0
M  V30 1084 H 105.225 3.76057 1.18215 0
M  V30 1085 H 106.513 4.69312 1.96529 0
M  V30 1086 H 105.911 3.11068 4.72497 0
M  V30 1087 H 104.468 3.89891 5.2233 0
M  V30 1088 N 107.901 -0.206675 1.56239 0
M  V30 1089 C 109.129 -0.945345 1.8404 0
M  V30 1090 C 109.544 -1.77336 0.647885 0
M  V30 1091 O 108.901 -1.78425 -0.383511 0
M  V30 1092 C 108.952 -1.8509 3.10522 0
M  V30 1093 O 108.673 -1.05634 4.25174 0
M  V30 1094 C 110.174 -2.70222 3.51418 0
M  V30 1095 H 107.394 -0.276372 0.61144 0
M  V30 1096 H 109.938 -0.217417 2.03341 0
M  V30 1097 H 108.093 -2.53259 2.93153 0
M  V30 1098 H 108.507 -1.67238 4.97124 0
M  V30 1099 H 109.981 -3.29438 4.42916 0
M  V30 1100 H 110.458 -3.43358 2.73864 0
M  V30 1101 H 111.064 -2.07443 3.71278 0
M  V30 1102 N 109.379 -1.50304 -0.473955 0
M  V30 1103 C 110.311 -1.65109 -1.58971 0
M  V30 1104 C 111.324 -0.532676 -1.53839 0
M  V30 1105 O 112.513 -0.805751 -1.59279 0
M  V30 1106 C 109.613 -1.61684 -2.97845 0
M  V30 1107 C 108.786 -2.8951 -3.27876 0
M  V30 1108 C 107.845 -2.78768 -4.4629 0
M  V30 1109 O 106.871 -3.52722 -4.46739 0
M  V30 1110 N 108.073 -1.9213 -5.47783 0
M  V30 1111 H 110.838 -2.61347 -1.46689 0
M  V30 1112 H 108.399 -1.47732 -0.662324 0
M  V30 1113 H 110.391 -1.52114 -3.75024 0
M  V30 1114 H 108.961 -0.731925 -3.03911 0
M  V30 1115 H 108.181 -3.13228 -2.39336 0
M  V30 1116 H 109.469 -3.74199 -3.4475 0
M  V30 1117 H 108.867 -1.31353 -5.50239 0
M  V30 1118 H 107.424 -1.88466 -6.23958 0
M  V30 1119 N 110.857 0.726932 -1.39834 0
M  V30 1120 C 111.767 1.87131 -1.41489 0
M  V30 1121 C 112.783 1.71239 -0.308757 0
M  V30 1122 O 113.959 1.93701 -0.551529 0
M  V30 1123 C 111.024 3.22811 -1.26468 0
M  V30 1124 C 110.085 3.51039 -2.47124 0
M  V30 1125 C 109.318 4.80245 -2.3281 0
M  V30 1126 O 109.541 5.54537 -1.33585 0
M  V30 1127 O 108.475 5.08554 -3.21957 0
M  V30 1128 H 112.301 1.8869 -2.3797 0
M  V30 1129 H 109.886 0.875837 -1.21035 0
M  V30 1130 H 111.768 4.03877 -1.20255 0
M  V30 1131 H 110.443 3.22005 -0.330862 0
M  V30 1132 H 109.35 2.70027 -2.58914 0
M  V30 1133 H 110.683 3.56632 -3.39227 0
M  V30 1134 N 112.336 1.25143 0.95797 0
M  V30 1135 C 113.246 1.06968 2.08794 0
M  V30 1136 C 114.262 0.00773911 1.73998 0
M  V30 1137 O 115.438 0.207972 2.00323 0
M  V30 1138 C 112.503 0.68691 3.39827 0
M  V30 1139 C 111.564 1.82641 3.88511 0
M  V30 1140 C 110.797 1.46181 5.1329 0
M  V30 1141 O 111.02 0.355971 5.69288 0
M  V30 1142 O 109.954 2.29085 5.566 0
M  V30 1143 H 113.78 2.01723 2.27027 0
M  V30 1144 H 111.365 1.04051 1.07209 0
M  V30 1145 H 113.247 0.485417 4.18595 0
M  V30 1146 H 111.922 -0.231417 3.22872 0
M  V30 1147 H 110.829 2.08274 3.10762 0
M  V30 1148 H 112.162 2.72386 4.09959 0
M  V30 1149 N 113.814 -1.1601 1.06675 0
M  V30 1150 C 114.744 -2.22688 0.702307 0
M  V30 1151 C 115.725 -1.67306 -0.307032 0
M  V30 1152 O 116.91 -1.93352 -0.181305 0
M  V30 1153 C 114.04 -3.47178 0.092038 0
M  V30 1154 C 112.994 -4.15477 1.02777 0
M  V30 1155 C 112.32 -5.33963 0.28061 0
M  V30 1156 C 113.62 -4.66019 2.35846 0
M  V30 1157 H 115.314 -2.53429 1.59419 0
M  V30 1158 H 112.86 -1.21813 0.767961 0
M  V30 1159 H 114.813 -4.21037 -0.174814 0
M  V30 1160 H 113.537 -3.15749 -0.834877 0
M  V30 1161 H 112.196 -3.43549 1.27944 0
M  V30 1162 H 111.844 -4.98788 -0.649545 0
M  V30 1163 H 111.544 -5.806 0.904258 0
M  V30 1164 H 113.068 -6.10596 0.021396 0
M  V30 1165 H 114.482 -5.3144 2.15045 0
M  V30 1166 H 112.879 -5.23293 2.93743 0
M  V30 1167 H 113.949 -3.82023 2.98641 0
M  V30 1168 N 115.292 -0.849877 -1.32721 0
M  V30 1169 C 116.517 -0.463856 -2.02146 0
M  V30 1170 C 116.942 0.930449 -1.63476 0
M  V30 1171 O 116.3 1.61033 -0.832952 0
M  V30 1172 C 116.348 -0.604955 -3.55489 0
M  V30 1173 O 115.452 0.36425 -4.10788 0
M  V30 1174 H 114.793 -0.187046 -0.637111 0
M  V30 1175 H 117.323 -1.14775 -1.69375 0
M  V30 1176 H 117.333 -0.490696 -4.05038 0
M  V30 1177 H 116.008 -1.62174 -3.82978 0
M  V30 1178 H 114.585 0.206628 -3.72327 0
M  V30 1179 N 116.77 1.45427 -0.607355 0
M  V30 1180 C 117.717 2.3053 0.111625 0
M  V30 1181 C 118.687 1.4209 0.860216 0
M  V30 1182 O 119.872 1.71019 0.845998 0
M  V30 1183 C 117.012 3.26992 1.10319 0
M  V30 1184 C 116.125 4.30535 0.355493 0
M  V30 1185 C 115.26 5.14105 1.33676 0
M  V30 1186 C 114.299 6.09376 0.576862 0
M  V30 1187 N 113.436 6.85727 1.5074 0
M  V30 1188 H 118.276 2.91477 -0.620093 0
M  V30 1189 H 115.813 1.43631 -0.317594 0
M  V30 1190 H 117.771 3.81385 1.6912 0
M  V30 1191 H 116.401 2.67799 1.80232 0
M  V30 1192 H 115.453 3.78805 -0.348023 0
M  V30 1193 H 116.765 4.98235 -0.237423 0
M  V30 1194 H 115.919 5.72897 1.99684 0
M  V30 1195 H 114.658 4.46423 1.9636 0
M  V30 1196 H 113.663 5.49715 -0.0968519 0
M  V30 1197 H 114.888 6.79085 -0.0449341 0
M  V30 1198 H 112.834 6.20735 2.12189 0
M  V30 1199 H 112.751 7.49778 0.967913 0
M  V30 1200 H 114.019 7.4906 2.15706 0
M  V30 1201 N 118.248 0.346503 1.53744 0
M  V30 1202 C 119.211 -0.496439 2.23759 0
M  V30 1203 C 120.211 -1.0252 1.2388 0
M  V30 1204 O 121.401 -0.913974 1.48297 0
M  V30 1205 C 118.533 -1.69187 2.95954 0
M  V30 1206 H 119.726 0.115952 2.99676 0
M  V30 1207 H 117.279 0.0978939 1.55993 0
M  V30 1208 H 118.014 -2.34288 2.24231 0
M  V30 1209 H 117.799 -1.31989 3.69217 0
M  V30 1210 H 119.289 -2.28969 3.49232 0
M  V30 1211 N 119.726 -1.57421 0.075193 0
M  V30 1212 C 120.975 -1.92794 -0.592731 0
M  V30 1213 C 121.288 -0.957478 -1.70563 0
M  V30 1214 O 122.494 -1.20417 -2.43335 0
M  V30 1215 C 120.95 -3.42495 -1.10569 0
M  V30 1216 C 120.558 -4.47994 -0.0236121 0
M  V30 1217 C 122.302 -3.86864 -1.74748 0
M  V30 1218 C 120.209 -5.88829 -0.550803 0
M  V30 1219 H 119.139 -0.719591 -0.225177 0
M  V30 1220 H 121.79 -1.82902 0.147978 0
M  V30 1221 H 120.172 -3.47471 -1.89947 0
M  V30 1222 H 121.346 -4.54637 0.751099 0
M  V30 1223 H 119.661 -4.13113 0.522159 0
M  V30 1224 H 122.258 -4.8947 -2.15229 0
M  V30 1225 H 122.601 -3.24417 -2.60882 0
M  V30 1226 H 123.134 -3.84504 -1.01986 0
M  V30 1227 H 119.873 -6.54929 0.273457 0
M  V30 1228 H 119.393 -5.85698 -1.29296 0
M  V30 1229 H 121.072 -6.38811 -1.02613 0
M  V30 1230 N 121.204 0.198386 -1.56346 0
M  V30 1231 C 122.432 0.935572 -1.84539 0
M  V30 1232 C 122.847 1.76989 -0.657281 0
M  V30 1233 O 122.204 1.78626 0.374043 0
M  V30 1234 C 122.255 1.8344 -3.11499 0
M  V30 1235 O 121.976 1.03377 -4.25728 0
M  V30 1236 C 123.477 2.68355 -3.52846 0
M  V30 1237 H 120.697 0.273126 -0.612897 0
M  V30 1238 H 123.241 0.20663 -2.03453 0
M  V30 1239 H 121.396 2.51701 -2.94492 0
M  V30 1240 H 121.81 1.64599 -4.98003 0
M  V30 1241 H 123.284 3.27085 -4.44657 0
M  V30 1242 H 123.761 3.41901 -2.75681 0
M  V30 1243 H 124.367 2.05471 -3.72373 0
M  V30 1244 N 122.682 1.50554 0.465978 0
M  V30 1245 C 123.645 1.69233 1.54574 0
M  V30 1246 C 124.645 0.562901 1.50626 0
M  V30 1247 O 125.835 0.830016 1.53155 0
M  V30 1248 C 122.967 1.7223 2.94193 0
M  V30 1249 H 124.16 2.65571 1.39327 0
M  V30 1250 H 121.713 1.40111 0.692711 0
M  V30 1251 H 122.448 0.77603 3.14878 0
M  V30 1252 H 122.233 2.54285 2.98466 0
M  V30 1253 H 123.723 1.88618 3.72576 0
M  V30 1254 N 124.16 -0.719506 1.40217 0
M  V30 1255 C 125.093 -1.84298 1.34571 0
M  V30 1256 C 126.071 -1.61149 0.216741 0
M  V30 1257 O 127.255 -1.84212 0.399756 0
M  V30 1258 C 124.382 -3.20568 1.09335 0
M  V30 1259 C 123.428 -3.62551 2.24631 0
M  V30 1260 S 124.261 -3.7012 3.87004 0
M  V30 1261 C 125.417 -5.09154 3.64024 0
M  V30 1262 H 125.65 -1.88807 2.2965 0
M  V30 1263 H 123.183 -0.885901 1.26456 0
M  V30 1264 H 125.141 -3.99246 0.954602 0
M  V30 1265 H 123.802 -3.13696 0.159164 0
M  V30 1266 H 122.995 -4.61483 2.02606 0
M  V30 1267 H 122.597 -2.91119 2.34789 0
M  V30 1268 H 124.889 -5.95955 3.22248 0
M  V30 1269 H 125.832 -5.36213 4.62473 0
M  V30 1270 H 126.24 -4.79562 2.97793 0
M  V30 1271 N 125.638 -1.25649 -0.95132 0
M  V30 1272 C 126.57 -1.02112 -2.05197 0
M  V30 1273 C 127.583 0.0150571 -1.62793 0
M  V30 1274 O 128.772 -0.223874 -1.77091 0
M  V30 1275 C 125.872 -0.522361 -3.3485 0
M  V30 1276 C 125.045 -1.62546 -4.06076 0
M  V30 1277 C 124.104 -1.12649 -5.14001 0
M  V30 1278 O 123.13 -1.82156 -5.39266 0
M  V30 1279 N 124.332 0.03047 -5.80492 0
M  V30 1280 H 127.097 -1.96885 -2.25957 0
M  V30 1281 H 124.658 -1.16899 -1.1201 0
M  V30 1282 H 126.65 -0.172961 -4.0433 0
M  V30 1283 H 125.22 0.33151 -3.10837 0
M  V30 1284 H 124.44 -2.14628 -3.30649 0
M  V30 1285 H 125.728 -2.36644 -4.50419 0
M  V30 1286 H 125.126 0.611169 -5.62389 0
M  V30 1287 H 123.683 0.320875 -6.5101 0
M  V30 1288 N 127.117 1.15442 -1.07289 0
M  V30 1289 C 128.049 2.19773 -0.650585 0
M  V30 1290 C 129.062 1.60076 0.296572 0
M  V30 1291 O 130.251 1.78293 0.0859905 0
M  V30 1292 C 127.351 3.38838 0.0650398 0
M  V30 1293 C 126.524 4.2808 -0.898141 0
M  V30 1294 C 125.583 5.2574 -0.219926 0
M  V30 1295 O 124.609 5.62654 -0.860773 0
M  V30 1296 N 125.811 5.71205 1.03466 0
M  V30 1297 H 128.576 2.56622 -1.54808 0
M  V30 1298 H 126.137 1.30551 -0.957494 0
M  V30 1299 H 128.129 4.01222 0.529415 0
M  V30 1300 H 126.699 3.00409 0.864466 0
M  V30 1301 H 125.919 3.62804 -1.54165 0
M  V30 1302 H 127.207 4.84577 -1.5512 0
M  V30 1303 H 126.605 5.43325 1.57526 0
M  V30 1304 H 125.162 6.35633 1.44272 0
M  V30 1305 N 128.595 0.856903 1.32268 0
M  V30 1306 C 129.842 0.461386 1.97174 0
M  V30 1307 C 130.17 -0.983491 1.67803 0
M  V30 1308 O 129.425 -1.70541 0.959903 0
M  V30 1309 C 129.724 0.649919 3.51441 0
M  V30 1310 C 129.39 2.0656 4.00804 0
M  V30 1311 C 128.052 2.45279 4.13995 0
M  V30 1312 C 130.404 2.98947 4.26943 0
M  V30 1313 C 127.732 3.75653 4.50668 0
M  V30 1314 C 130.084 4.28822 4.65075 0
M  V30 1315 C 128.748 4.67472 4.76472 0
M  V30 1316 H 128.018 0.168833 0.72151 0
M  V30 1317 H 130.665 1.08739 1.57633 0
M  V30 1318 H 128.97 -0.0593018 3.91755 0
M  V30 1319 H 130.667 0.32391 3.9969 0
M  V30 1320 H 127.257 1.75495 3.91024 0
M  V30 1321 H 131.441 2.70265 4.16258 0
M  V30 1322 H 126.697 4.05379 4.57688 0
M  V30 1323 H 130.871 5.0047 4.84255 0
M  V30 1324 H 128.498 5.68539 5.04646 0
M  V30 1325 N 130.073 -1.45103 0.615059 0
M  V30 1326 C 131.321 -2.01784 0.112955 0
M  V30 1327 C 131.642 -1.48504 -1.26378 0
M  V30 1328 O 130.912 -0.682245 -1.83636 0
M  V30 1329 H 129.492 -0.745993 0.0387668 0
M  V30 1330 H 132.154 -1.77808 0.798141 0
M  V30 1331 H 131.25 -3.12025 0.0684069 0
M  V30 1332 N 131.551 -0.354651 -1.53558 0
M  V30 1333 C 132.799 0.237972 -2.00694 0
M  V30 1334 C 133.12 1.50173 -1.24391 0
M  V30 1335 O 132.39 1.92673 -0.354135 0
M  V30 1336 H 130.97 0.0909256 -0.741446 0
M  V30 1337 H 133.632 -0.478368 -1.88938 0
M  V30 1338 H 132.728 0.47264 -3.085 0
M  V30 1339 N 133.029 1.57378 -0.0835403 0
M  V30 1340 C 133.959 2.1641 0.87686 0
M  V30 1341 C 134.94 1.09429 1.30228 0
M  V30 1342 O 136.125 1.37516 1.37124 0
M  V30 1343 C 133.255 2.73517 2.14022 0
M  V30 1344 C 132.209 3.85769 1.85381 0
M  V30 1345 C 131.535 4.29529 3.18448 0
M  V30 1346 C 132.835 5.09486 1.14984 0
M  V30 1347 H 134.529 2.96914 0.385059 0
M  V30 1348 H 132.075 1.42823 0.18377 0
M  V30 1349 H 134.028 3.13463 2.81636 0
M  V30 1350 H 132.752 1.90252 2.65465 0
M  V30 1351 H 131.411 3.46345 1.20169 0
M  V30 1352 H 131.059 3.43169 3.67755 0
M  V30 1353 H 130.759 5.05204 3.00071 0
M  V30 1354 H 132.283 4.72099 3.8724 0
M  V30 1355 H 133.697 5.46674 1.72687 0
M  V30 1356 H 132.094 5.90515 1.06826 0
M  V30 1357 H 133.164 4.84724 0.130749 0
M  V30 1358 N 134.507 -0.190092 1.56449 0
M  V30 1359 C 135.417 -1.25591 1.98152 0
M  V30 1360 C 136.433 -1.49519 0.889944 0
M  V30 1361 O 137.609 -1.62036 1.19609 0
M  V30 1362 C 134.674 -2.57916 2.3169 0
M  V30 1363 C 133.735 -2.42015 3.5458 0
M  V30 1364 C 132.968 -3.6803 3.8651 0
M  V30 1365 O 133.191 -4.72413 3.1966 0
M  V30 1366 O 132.125 -3.6326 4.79923 0
M  V30 1367 H 135.951 -0.931988 2.89046 0
M  V30 1368 H 133.536 -0.395488 1.4407 0
M  V30 1369 H 135.418 -3.36008 2.54316 0
M  V30 1370 H 134.093 -2.89925 1.43963 0
M  V30 1371 H 133 -1.62017 3.37196 0
M  V30 1372 H 134.333 -2.14937 4.4279 0
M  V30 1373 N 135.985 -1.50799 -0.457987 0
M  V30 1374 C 136.948 -1.7005 -1.53674 0
M  V30 1375 C 137.948 -0.570881 -1.50325 0
M  V30 1376 O 139.138 -0.838126 -1.52712 0
M  V30 1377 C 136.27 -1.73788 -2.93276 0
M  V30 1378 H 137.463 -2.66306 -1.37917 0
M  V30 1379 H 135.016 -1.40477 -0.685271 0
M  V30 1380 H 135.751 -0.792717 -3.14462 0
M  V30 1381 H 135.536 -2.55864 -2.97113 0
M  V30 1382 H 137.026 -1.90591 -3.71571 0
M  V30 1383 N 137.463 0.71206 -1.40597 0
M  V30 1384 C 138.691 1.50111 -1.42388 0
M  V30 1385 C 139.106 1.88784 -0.0245395 0
M  V30 1386 O 138.463 1.55681 0.952351 0
M  V30 1387 C 138.514 2.7742 -2.31776 0
M  V30 1388 O 138.235 2.40382 -3.66262 0
M  V30 1389 C 139.736 3.7129 -2.42196 0
M  V30 1390 H 136.956 0.46314 -0.485533 0
M  V30 1391 H 139.5 0.878068 -1.8469 0
M  V30 1392 H 137.655 3.36001 -1.92827 0
M  V30 1393 H 138.069 3.22324 -4.13772 0
M  V30 1394 H 139.543 4.57448 -3.08943 0
M  V30 1395 H 140.02 4.14641 -1.44809 0
M  V30 1396 H 140.626 3.18619 -2.81712 0
M  V30 1397 N 138.941 1.26152 0.944643 0
M  V30 1398 C 140.189 1.11271 1.6871 0
M  V30 1399 C 140.51 -0.345166 1.91921 0
M  V30 1400 O 139.78 -1.24387 1.51343 0
M  V30 1401 H 138.36 0.408783 0.625224 0
M  V30 1402 H 141.022 1.58427 1.1352 0
M  V30 1403 H 140.118 1.62879 2.66227 0
M  V30 1404 N 140.419 -1.14872 1.07899 0
M  V30 1405 C 141.668 -1.85135 0.800499 0
M  V30 1406 C 141.981 -1.83547 -0.676014 0
M  V30 1407 O 143.187 -2.49548 -1.06948 0
M  V30 1408 C 141.643 -3.3231 1.38197 0
M  V30 1409 C 141.251 -3.42329 2.8899 0
M  V30 1410 C 142.995 -4.0772 1.18174 0
M  V30 1411 C 140.902 -4.83684 3.403 0
M  V30 1412 H 139.832 -0.693563 0.29578 0
M  V30 1413 H 142.483 -1.29532 1.29976 0
M  V30 1414 H 140.865 -3.87618 0.810431 0
M  V30 1415 H 142.039 -2.97097 3.52236 0
M  V30 1416 H 140.354 -2.80369 3.07867 0
M  V30 1417 H 142.951 -5.12049 1.5398 0
M  V30 1418 H 143.294 -4.16124 0.12117 0
M  V30 1419 H 143.827 -3.58696 1.71994 0
M  V30 1420 H 140.566 -4.80465 4.45907 0
M  V30 1421 H 140.086 -5.29474 2.81811 0
M  V30 1422 H 141.765 -5.52558 3.36584 0
M  V30 1423 N 141.898 -0.863906 -1.31812 0
M  V30 1424 C 142.828 -0.330843 -2.31144 0
M  V30 1425 C 143.809 0.575005 -1.60087 0
M  V30 1426 O 144.994 0.493304 -1.8783 0
M  V30 1427 C 142.124 0.47374 -3.44054 0
M  V30 1428 C 141.078 -0.338481 -4.26659 0
M  V30 1429 C 140.404 0.591412 -5.31419 0
M  V30 1430 C 141.704 -1.56926 -4.98168 0
M  V30 1431 H 143.398 -1.16086 -2.75979 0
M  V30 1432 H 140.944 -0.559657 -1.32679 0
M  V30 1433 H 142.897 0.857143 -4.12591 0
M  V30 1434 H 141.621 1.33721 -2.9797 0
M  V30 1435 H 140.28 -0.703754 -3.59782 0
M  V30 1436 H 139.928 1.45199 -4.81587 0
M  V30 1437 H 139.628 0.0519022 -5.87577 0
M  V30 1438 H 141.152 0.97179 -6.02817 0
M  V30 1439 H 142.566 -1.25764 -5.59336 0
M  V30 1440 H 140.963 -2.04739 -5.64094 0
M  V30 1441 H 142.033 -2.32544 -4.25501 0
M  V30 1442 N 143.376 1.44774 -0.622745 0
M  V30 1443 C 144.653 1.95522 -0.0551974 0
M  V30 1444 C 145.033 1.5649 1.41683 0
M  V30 1445 O 144.381 0.834848 2.12703 0
M  V30 1446 C 144.591 3.4796 -0.269242 0
M  V30 1447 C 145.939 4.24306 -0.158014 0
M  V30 1448 O 146.963 3.55637 -0.200162 0
M  V30 1449 O 145.822 5.46471 -0.0558693 0
M  V30 1450 H 142.916 0.826556 0.0271015 0
M  V30 1451 H 145.462 1.54866 -0.693864 0
M  V30 1452 H 144.234 3.6939 -1.29099 0
M  V30 1453 H 143.857 3.95543 0.403966 0
M  V30 1454 N 144.854 0.36279 1.53368 0
M  V30 1455 C 145.764 -0.492994 2.29362 0
M  V30 1456 C 146.78 -1.09507 1.35219 0
M  V30 1457 O 147.956 -1.10662 1.68273 0
M  V30 1458 C 145.021 -1.61855 3.066 0
M  V30 1459 C 144.082 -1.04429 4.16405 0
M  V30 1460 C 143.315 -2.11621 4.89951 0
M  V30 1461 O 143.538 -3.32684 4.63333 0
M  V30 1462 O 142.472 -1.74835 5.75948 0
M  V30 1463 H 146.298 0.125331 3.03441 0
M  V30 1464 H 143.883 0.127253 1.48857 0
M  V30 1465 H 145.765 -2.27302 3.54841 0
M  V30 1466 H 144.44 -2.22233 2.3536 0
M  V30 1467 H 143.347 -0.353819 3.72423 0
M  V30 1468 H 144.68 -0.485113 4.89804 0
M  V30 1469 N 146.332 -1.57332 0.0918853 0
M  V30 1470 C 147.295 -2.12708 -0.85369 0
M  V30 1471 C 148.295 -1.05561 -1.213 0
M  V30 1472 O 149.485 -1.31461 -1.14296 0
M  V30 1473 C 146.617 -2.64503 -2.15061 0
M  V30 1474 H 147.81 -2.97573 -0.3729 0
M  V30 1475 H 145.363 -1.55509 -0.157072 0
M  V30 1476 H 146.098 -1.83149 -2.67632 0
M  V30 1477 H 145.883 -3.4284 -1.90272 0
M  V30 1478 H 147.373 -3.07351 -2.82711 0
M  V30 1479 N 147.81 0.181792 -1.56548 0
M  V30 1480 C 149.038 0.915947 -1.85521 0
M  V30 1481 C 149.453 1.76282 -0.676016 0
M  V30 1482 O 148.81 1.79012 0.355077 0
M  V30 1483 C 148.861 1.80126 -3.13427 0
M  V30 1484 O 148.582 0.988562 -4.26801 0
M  V30 1485 C 150.083 2.64597 -3.55673 0
M  V30 1486 H 147.303 0.26661 -0.61576 0
M  V30 1487 H 149.847 0.185039 -2.03661 0
M  V30 1488 H 148.002 2.48563 -2.97145 0
M  V30 1489 H 148.416 1.59308 -4.99721 0
M  V30 1490 H 149.89 3.2235 -4.48101 0
M  V30 1491 H 150.367 3.38958 -2.79292 0
M  V30 1492 H 150.973 2.0151 -3.74532 0
M  V30 1493 N 149.288 1.51039 0.449983 0
M  V30 1494 C 150.218 1.74379 1.55288 0
M  V30 1495 C 151.199 0.593236 1.5942 0
M  V30 1496 O 152.384 0.834625 1.7535 0
M  V30 1497 C 149.514 1.85728 2.93466 0
M  V30 1498 C 148.468 3.01078 3.04197 0
M  V30 1499 C 147.794 2.97595 4.44231 0
M  V30 1500 C 149.094 4.41254 2.7945 0
M  V30 1501 H 150.788 2.66725 1.36008 0
M  V30 1502 H 148.334 1.2835 0.652864 0
M  V30 1503 H 150.287 2.0064 3.70569 0
M  V30 1504 H 149.011 0.900207 3.13949 0
M  V30 1505 H 147.67 2.85851 2.29531 0
M  V30 1506 H 147.318 1.99691 4.61663 0
M  V30 1507 H 147.018 3.75046 4.52343 0
M  V30 1508 H 148.542 3.14583 5.23326 0
M  V30 1509 H 149.956 4.56897 3.46292 0
M  V30 1510 H 148.353 5.20315 2.98985 0
M  V30 1511 H 149.423 4.52164 1.75144 0
M  V30 1512 N 150.766 -0.704594 1.40972 0
M  V30 1513 C 151.729 -1.80035 1.41845 0
M  V30 1514 C 152.729 -1.57774 0.310474 0
M  V30 1515 O 153.919 -1.64613 0.56992 0
M  V30 1516 C 151.051 -3.18284 1.22098 0
M  V30 1517 H 152.244 -1.80658 2.3938 0
M  V30 1518 H 149.797 -0.911329 1.26982 0
M  V30 1519 H 150.532 -3.23306 0.253672 0
M  V30 1520 H 150.317 -3.35843 2.02366 0
M  V30 1521 H 151.807 -3.98289 1.25522 0
M  V30 1522 N 152.244 -1.26651 -0.937939 0
M  V30 1523 C 153.174 -1.10993 -2.05433 0
M  V30 1524 C 154.155 -0.0142161 -1.70094 0
M  V30 1525 O 155.34 -0.186837 -1.93299 0
M  V30 1526 C 152.47 -0.745561 -3.39203 0
M  V30 1527 C 151.424 -1.79337 -3.88616 0
M  V30 1528 C 150.75 -1.28324 -5.19073 0
M  V30 1529 C 152.05 -3.19553 -4.13138 0
M  V30 1530 H 153.744 -2.0438 -2.1879 0
M  V30 1531 H 151.29 -0.984041 -1.05131 0
M  V30 1532 H 153.243 -0.622888 -4.16771 0
M  V30 1533 H 151.967 0.22401 -3.25831 0
M  V30 1534 H 150.626 -1.90477 -3.13231 0
M  V30 1535 H 150.274 -0.303414 -5.02084 0
M  V30 1536 H 149.974 -1.98369 -5.53103 0
M  V30 1537 H 151.498 -1.1733 -5.99221 0
M  V30 1538 H 152.912 -3.11471 -4.81309 0
M  V30 1539 H 151.309 -3.87218 -4.58457 0
M  V30 1540 H 152.379 -3.65368 -3.18801 0
M  V30 1541 N 153.722 1.14298 -1.08507 0
M  V30 1542 C 154.655 2.18447 -0.660004 0
M  V30 1543 C 155.633 1.59242 0.328749 0
M  V30 1544 O 156.817 1.87062 0.232367 0
M  V30 1545 C 153.944 3.38688 0.0290807 0
M  V30 1546 C 152.99 4.1646 -0.919982 0
M  V30 1547 S 153.823 4.77334 -2.42718 0
M  V30 1548 C 154.979 6.00931 -1.75024 0
M  V30 1549 H 155.212 2.54166 -1.54231 0
M  V30 1550 H 152.745 1.25446 -0.900149 0
M  V30 1551 H 154.703 4.08342 0.420378 0
M  V30 1552 H 153.364 3.01289 0.887895 0
M  V30 1553 H 152.557 5.02529 -0.384751 0
M  V30 1554 H 152.159 3.52414 -1.25223 0
M  V30 1555 H 154.451 6.69017 -1.06877 0
M  V30 1556 H 155.394 6.59044 -2.58971 0
M  V30 1557 H 155.802 5.51089 -1.22317 0
M  V30 1558 N 155.201 0.870884 1.31352 0
M  V30 1559 C 156.148 0.325425 2.28494 0
M  V30 1560 C 157.118 -0.576615 1.5577 0
M  V30 1561 O 158.303 -0.508059 1.83911 0
M  V30 1562 C 155.443 -0.466283 3.41935 0
M  V30 1563 C 154.556 0.463378 4.29508 0
M  V30 1564 C 153.691 -0.342544 5.30094 0
M  V30 1565 C 152.73 0.583486 6.09313 0
M  V30 1566 N 151.867 -0.186244 7.01853 0
M  V30 1567 H 156.707 1.15901 2.74538 0
M  V30 1568 H 154.244 0.58294 1.35056 0
M  V30 1569 H 156.202 -0.941085 4.06447 0
M  V30 1570 H 154.832 -1.26456 2.97 0
M  V30 1571 H 153.884 1.05663 3.65431 0
M  V30 1572 H 155.196 1.1734 4.84802 0
M  V30 1573 H 154.35 -0.879816 6.00287 0
M  V30 1574 H 153.089 -1.08585 4.75458 0
M  V30 1575 H 152.094 1.13251 5.3801 0
M  V30 1576 H 153.319 1.32566 6.66035 0
M  V30 1577 H 151.265 -0.912348 6.49625 0
M  V30 1578 H 151.182 0.464422 7.54572 0
M  V30 1579 H 152.45 -0.704716 7.76308 0
M  V30 1580 N 156.679 -1.44442 0.630414 0
M  V30 1581 C 157.907 -2.06414 0.141671 0
M  V30 1582 C 158.322 -1.47105 -1.18345 0
M  V30 1583 O 157.679 -0.593662 -1.72574 0
M  V30 1584 C 157.73 -3.61494 0.0199784 0
M  V30 1585 O 157.451 -4.18594 1.29269 0
M  V30 1586 C 158.952 -4.40499 -0.497544 0
M  V30 1587 H 156.172 -0.666292 0.0793452 0
M  V30 1588 H 158.716 -1.85323 0.864614 0
M  V30 1589 H 156.871 -3.8185 -0.653402 0
M  V30 1590 H 157.285 -5.12026 1.13707 0
M  V30 1591 H 158.759 -5.49433 -0.531708 0
M  V30 1592 H 159.236 -4.11895 -1.52445 0
M  V30 1593 H 159.842 -4.25061 0.142562 0
M  V30 1594 N 158.157 -0.370918 -1.53173 0
M  V30 1595 C 159.568 0.107139 -1.86392 0
M  V30 1596 C 159.919 1.47714 -1.29132 0
M  V30 1597 O 159.044 2.07464 -0.615439 0
M  V30 1598 C 159.639 0.201187 -3.38202 0
M  V30 1599 C 158.198 0.623507 -3.712 0
M  V30 1600 C 157.345 -0.225978 -2.76378 0
M  V30 1601 H 160.296 -0.58951 -1.47345 0
M  V30 1602 H 160.317 1.02377 -3.66468 0
M  V30 1603 H 159.829 -0.796058 -3.79848 0
M  V30 1604 H 157.93 1.62879 -3.35114 0
M  V30 1605 H 158.043 0.394414 -4.77474 0
M  V30 1606 H 156.407 0.305962 -2.52856 0
M  V30 1607 H 157.19 -1.22086 -3.20858 0
M  V30 1608 N 159.635 1.57281 -0.100228 0
M  V30 1609 C 161.051 1.57527 0.256416 0
M  V30 1610 C 161.251 1.11173 1.68056 0
M  V30 1611 O 160.307 0.79053 2.39806 0
M  V30 1612 C 161.62 3.00673 0.0401747 0
M  V30 1613 C 163.168 3.12815 0.107528 0
M  V30 1614 C 163.643 4.57929 -0.0807834 0
M  V30 1615 N 165.134 4.63193 -0.0261207 0
M  V30 1616 C 165.869 5.73212 -0.146999 0
M  V30 1617 N 165.365 6.92047 -0.322999 0
M  V30 1618 N 167.158 5.62031 -0.0879044 0
M  V30 1619 H 159.309 1.85718 -1.03065 0
M  V30 1620 H 161.572 0.857446 -0.404339 0
M  V30 1621 H 161.278 3.38804 -0.943649 0
M  V30 1622 H 161.152 3.69042 0.780262 0
M  V30 1623 H 163.539 2.74554 1.08186 0
M  V30 1624 H 163.62 2.47028 -0.664134 0
M  V30 1625 H 163.264 4.96886 -1.05201 0
M  V30 1626 H 163.194 5.21783 0.710635 0
M  V30 1627 H 165.685 3.77748 0.107161 0
M  V30 1628 H 165.998 7.7173 -0.406608 0
M  V30 1629 H 164.343 6.94074 -0.358733 0
M  V30 1630 H 167.534 4.68075 0.048498 0
M  V30 1631 H 167.707 6.47734 -0.185557 0
M  V30 1632 N 161.113 -0.173488 1.56642 0
M  V30 1633 C 162.353 -0.896984 1.83667 0
M  V30 1634 C 162.717 -1.79523 0.680842 0
M  V30 1635 O 163.918 -2.55616 0.831488 0
M  V30 1636 C 162.189 -1.67351 3.15798 0
M  V30 1637 S 163.748 -2.44607 3.64298 0
M  V30 1638 H 160.566 -0.300464 0.644393 0
M  V30 1639 H 163.168 -0.158775 1.94854 0
M  V30 1640 H 161.872 -1.00462 3.97914 0
M  V30 1641 H 161.403 -2.45313 3.07546 0
M  V30 1642 H 163.418 -3.69261 3.31452 0
M  V30 1643 N 162.591 -1.51276 -0.441967 0
M  V30 1644 C 163.816 -1.67799 -1.21895 0
M  V30 1645 C 164.241 -0.372864 -1.84367 0
M  V30 1646 O 163.599 0.666501 -1.68604 0
M  V30 1647 C 163.647 -2.79199 -2.28211 0
M  V30 1648 O 162.751 -2.42479 -3.33583 0
M  V30 1649 H 162.092 -0.559649 -0.357336 0
M  V30 1650 H 164.622 -1.97815 -0.522522 0
M  V30 1651 H 164.632 -3.03146 -2.73069 0
M  V30 1652 H 163.307 -3.73906 -1.82118 0
M  V30 1653 H 161.884 -2.29087 -2.94234 0
M  V30 1654 N 164.069 0.697108 -1.41344 0
M  V30 1655 C 164.999 1.82353 -1.45841 0
M  V30 1656 C 165.98 1.67115 -0.317247 0
M  V30 1657 O 167.165 1.86871 -0.528474 0
M  V30 1658 C 164.295 3.20476 -1.33838 0
M  V30 1659 C 163.249 3.50415 -2.4575 0
M  V30 1660 C 162.575 4.87878 -2.18813 0
M  V30 1661 C 163.875 3.49546 -3.88091 0
M  V30 1662 H 165.569 1.78846 -2.40113 0
M  V30 1663 H 163.115 0.859028 -1.15571 0
M  V30 1664 H 165.068 3.98988 -1.35596 0
M  V30 1665 H 163.792 3.24604 -0.360498 0
M  V30 1666 H 162.451 2.74253 -2.43271 0
M  V30 1667 H 162.099 4.8863 -1.19371 0
M  V30 1668 H 161.799 5.08875 -2.93803 0
M  V30 1669 H 163.323 5.68702 -2.22284 0
M  V30 1670 H 164.737 4.18066 -3.92293 0
M  V30 1671 H 163.134 3.82075 -4.62751 0
M  V30 1672 H 164.204 2.48552 -4.16353 0
M  V30 1673 N 165.547 1.27147 0.931209 0
M  V30 1674 C 166.958 1.12044 1.49342 0
M  V30 1675 C 167.309 -0.295795 1.93957 0
M  V30 1676 O 166.434 -1.18835 1.80852 0
M  V30 1677 C 167.029 2.02781 2.71414 0
M  V30 1678 C 165.588 1.91794 3.2387 0
M  V30 1679 C 164.735 1.95543 1.96617 0
M  V30 1680 H 167.686 1.40091 0.745672 0
M  V30 1681 H 167.707 1.58156 3.46074 0
M  V30 1682 H 167.219 3.05848 2.38911 0
M  V30 1683 H 165.32 0.916992 3.6114 0
M  V30 1684 H 165.433 2.77852 3.90302 0
M  V30 1685 H 163.797 1.39722 2.12955 0
M  V30 1686 H 164.58 3.00259 1.66432 0
M  V30 1687 N 167.025 -1.13721 1.09112 0
M  V30 1688 C 168.302 -1.81155 0.737706 0
M  V30 1689 C 168.682 -1.96253 -0.777683 0
M  V30 1690 O 168.03 -1.52807 -1.69889 0
M  V30 1691 C 168.24 -3.16392 1.47299 0
M  V30 1692 C 169.588 -3.91787 1.63671 0
M  V30 1693 O 170.612 -3.26005 1.43524 0
M  V30 1694 O 169.471 -5.0977 1.96969 0
M  V30 1695 H 166.565 -0.783518 0.26463 0
M  V30 1696 H 169.111 -1.20676 1.19312 0
M  V30 1697 H 167.883 -3.0061 2.50498 0
M  V30 1698 H 167.506 -3.8457 1.00953 0
M  V30 1699 N 168.503 -0.877838 -1.30888 0
M  V30 1700 C 169.433 -0.35534 -2.3078 0
M  V30 1701 C 170.414 0.557994 -1.60687 0
M  V30 1702 O 171.599 0.473355 -1.88343 0
M  V30 1703 C 168.729 0.437221 -3.44537 0
M  V30 1704 C 167.683 -0.383715 -4.26276 0
M  V30 1705 C 167.009 0.535014 -5.32017 0
M  V30 1706 C 168.309 -1.62201 -4.96476 0
M  V30 1707 H 170.003 -1.19007 -2.74732 0
M  V30 1708 H 167.549 -0.573698 -1.32078 0
M  V30 1709 H 169.502 0.813334 -4.13477 0
M  V30 1710 H 168.226 1.30553 -2.99372 0
M  V30 1711 H 166.885 -0.741874 -3.59015 0
M  V30 1712 H 166.533 1.40083 -4.831 0
M  V30 1713 H 166.233 -0.0104211 -5.87599 0
M  V30 1714 H 167.757 0.907799 -6.03814 0
M  V30 1715 H 169.171 -1.31689 -5.5797 0
M  V30 1716 H 167.568 -2.10711 -5.61891 0
M  V30 1717 H 168.638 -2.37044 -4.23011 0
M  V30 1718 N 169.982 1.44106 -0.638065 0
M  V30 1719 C 171.393 1.85316 -0.226894 0
M  V30 1720 C 171.744 1.53399 1.22324 0
M  V30 1721 O 170.869 0.975463 1.93167 0
M  V30 1722 C 171.464 3.3637 -0.405013 0
M  V30 1723 C 170.023 3.76369 -0.0482902 0
M  V30 1724 C 169.17 2.67921 -0.715108 0
M  V30 1725 H 172.121 1.34474 -0.842764 0
M  V30 1726 H 172.142 3.7885 0.354 0
M  V30 1727 H 171.654 3.59569 -1.46053 0
M  V30 1728 H 169.755 3.58784 1.00522 0
M  V30 1729 H 169.868 4.76856 -0.463187 0
M  V30 1730 H 168.232 2.54259 -0.149753 0
M  V30 1731 H 169.015 2.93951 -1.77335 0
M  V30 1732 N 171.46 0.379036 1.52974 0
M  V30 1733 C 172.706 -0.206727 2.01744 0
M  V30 1734 C 173.039 -1.47314 1.26539 0
M  V30 1735 O 172.314 -1.91084 0.362903 0
M  V30 1736 C 172.597 -0.485066 3.56818 0
M  V30 1737 C 172.45 0.795919 4.42702 0
M  V30 1738 C 173.769 -1.28003 4.21074 0
M  V30 1739 H 170.888 -0.0736607 0.73331 0
M  V30 1740 H 173.53 0.506581 1.83122 0
M  V30 1741 H 171.68 -1.09272 3.72816 0
M  V30 1742 H 173.352 1.43307 4.38476 0
M  V30 1743 H 171.595 1.41344 4.10127 0
M  V30 1744 H 172.266 0.555947 5.49193 0
M  V30 1745 H 174.742 -0.765867 4.08991 0
M  V30 1746 H 173.618 -1.44352 5.29579 0
M  V30 1747 H 173.879 -2.29236 3.78026 0
M  V30 1748 N 172.938 -1.57226 0.108567 0
M  V30 1749 C 173.868 -2.17778 -0.84232 0
M  V30 1750 C 174.849 -1.11487 -1.2847 0
M  V30 1751 O 176.034 -1.39681 -1.34918 0
M  V30 1752 C 173.164 -2.76888 -2.09644 0
M  V30 1753 C 172.118 -3.88669 -1.79221 0
M  V30 1754 C 171.444 -4.34541 -3.11574 0
M  V30 1755 C 172.744 -5.11251 -1.06864 0
M  V30 1756 H 174.438 -2.97489 -0.337774 0
M  V30 1757 H 171.984 -1.43097 -0.161025 0
M  V30 1758 H 173.937 -3.17904 -2.76614 0
M  V30 1759 H 172.661 -1.94451 -2.62405 0
M  V30 1760 H 171.32 -3.48213 -1.14644 0
M  V30 1761 H 170.968 -3.48977 -3.62249 0
M  V30 1762 H 170.668 -5.09914 -2.91996 0
M  V30 1763 H 172.192 -4.782 -3.7968 0
M  V30 1764 H 173.606 -5.49352 -1.63968 0
M  V30 1765 H 172.003 -5.9214 -0.974178 0
M  V30 1766 H 173.073 -4.8487 -0.0536168 0
M  V30 1767 N 174.416 0.165178 -1.56732 0
M  V30 1768 C 175.644 0.896218 -1.86482 0
M  V30 1769 C 176.059 1.75555 -0.694675 0
M  V30 1770 O 175.416 1.79379 0.33607 0
M  V30 1771 C 175.467 1.76792 -3.1532 0
M  V30 1772 O 175.188 0.943239 -4.27825 0
M  V30 1773 C 176.689 2.6081 -3.58459 0
M  V30 1774 H 173.909 0.260064 -0.618553 0
M  V30 1775 H 176.453 0.163428 -2.03846 0
M  V30 1776 H 174.608 2.45398 -2.99764 0
M  V30 1777 H 175.022 1.53998 -5.01383 0
M  V30 1778 H 176.496 3.17579 -4.51495 0
M  V30 1779 H 176.973 3.35977 -2.82872 0
M  V30 1780 H 177.579 1.97526 -3.76648 0
M  V30 1781 N 175.894 1.51508 0.433938 0
M  V30 1782 C 176.826 1.69266 1.54537 0
M  V30 1783 C 177.839 0.573276 1.52373 0
M  V30 1784 O 179.028 0.847698 1.57087 0
M  V30 1785 C 176.128 1.69524 2.93453 0
M  V30 1786 C 175.301 2.98101 3.20085 0
M  V30 1787 C 174.36 2.90502 4.38742 0
M  V30 1788 O 173.386 3.64442 4.3723 0
M  V30 1789 N 174.588 2.06586 5.42496 0
M  V30 1790 H 177.353 2.65145 1.39708 0
M  V30 1791 H 174.914 1.49437 0.622922 0
M  V30 1792 H 176.906 1.62004 3.70859 0
M  V30 1793 H 175.476 0.812245 3.01863 0
M  V30 1794 H 174.696 3.19464 2.30947 0
M  V30 1795 H 175.984 3.83207 3.34708 0
M  V30 1796 H 175.382 1.45896 5.46563 0
M  V30 1797 H 173.939 2.04943 6.18742 0
M  V30 1798 N 177.372 -0.689602 1.41712 0
M  V30 1799 C 178.335 -1.78521 1.43746 0
M  V30 1800 C 179.335 -1.57436 0.327191 0
M  V30 1801 O 180.525 -1.64 0.587348 0
M  V30 1802 C 177.657 -3.16971 1.25467 0
M  V30 1803 H 178.85 -1.78108 2.41283 0
M  V30 1804 H 176.403 -0.89781 1.27942 0
M  V30 1805 H 177.138 -3.23019 0.287948 0
M  V30 1806 H 176.923 -3.33678 2.05917 0
M  V30 1807 H 178.413 -3.96935 1.2974 0
M  V30 1808 N 178.85 -1.27639 -0.924453 0
M  V30 1809 C 180.266 -1.05113 -1.20097 0
M  V30 1810 C 180.466 0.213262 -2.00368 0
M  V30 1811 O 179.522 0.91787 -2.35226 0
M  V30 1812 C 180.835 -2.29244 -1.94596 0
M  V30 1813 C 182.383 -2.34315 -2.07522 0
M  V30 1814 C 182.858 -3.58183 -2.85427 0
M  V30 1815 N 184.349 -3.5876 -2.92994 0
M  V30 1816 C 185.084 -4.51277 -3.53746 0
M  V30 1817 N 184.58 -5.54102 -4.15863 0
M  V30 1818 N 186.373 -4.38894 -3.51181 0
M  V30 1819 H 178.524 -2.08821 -0.388264 0
M  V30 1820 H 180.787 -0.918568 -0.234385 0
M  V30 1821 H 180.493 -3.21301 -1.43034 0
M  V30 1822 H 180.367 -2.34816 -2.95197 0
M  V30 1823 H 182.754 -1.42762 -2.58269 0
M  V30 1824 H 182.835 -2.32744 -1.06131 0
M  V30 1825 H 182.479 -4.50074 -2.35363 0
M  V30 1826 H 182.409 -3.57006 -3.8711 0
M  V30 1827 H 184.9 -2.84398 -2.4885 0
M  V30 1828 H 185.213 -6.20859 -4.60168 0
M  V30 1829 H 183.558 -5.57941 -4.144 0
M  V30 1830 H 186.749 -3.57772 -3.01856 0
M  V30 1831 H 186.922 -5.11186 -3.98237 0
M  V30 1832 N 180.328 1.1314 -1.09713 0
M  V30 1833 C 181.744 1.36477 -0.827423 0
M  V30 1834 C 181.944 1.93654 0.556817 0
M  V30 1835 O 181 2.15791 1.31112 0
M  V30 1836 C 182.313 2.31334 -1.92106 0
M  V30 1837 C 183.861 2.44943 -1.94864 0
M  V30 1838 C 184.336 3.4311 -3.0338 0
M  V30 1839 N 185.827 3.50662 -3.02639 0
M  V30 1840 C 186.562 4.2651 -3.83246 0
M  V30 1841 N 186.058 5.05485 -4.73768 0
M  V30 1842 N 187.851 4.2184 -3.71493 0
M  V30 1843 H 180.002 0.743807 -1.9895 0
M  V30 1844 H 182.265 0.389823 -0.864143 0
M  V30 1845 H 181.971 1.96483 -2.91698 0
M  V30 1846 H 181.845 3.31381 -1.80184 0
M  V30 1847 H 184.232 2.79079 -0.959099 0
M  V30 1848 H 184.313 1.4481 -2.10864 0
M  V30 1849 H 183.957 3.09704 -4.02549 0
M  V30 1850 H 183.887 4.43055 -2.84622 0
M  V30 1851 H 186.378 2.94315 -2.37039 0
M  V30 1852 H 186.691 5.60675 -5.3185 0
M  V30 1853 H 185.036 5.04708 -4.77802 0
M  V30 1854 H 188.227 3.5922 -3.00131 0
M  V30 1855 H 188.4 4.80697 -4.3455 0
M  V30 1856 N 181.806 0.884767 1.30421 0
M  V30 1857 C 183.222 0.57874 1.48737 0
M  V30 1858 C 183.422 -0.883567 1.81095 0
M  V30 1859 O 182.478 -1.6648 1.89844 0
M  V30 1860 C 183.791 1.49171 2.61091 0
M  V30 1861 C 185.339 1.49532 2.74971 0
M  V30 1862 C 185.814 2.39421 3.90438 0
M  V30 1863 N 187.305 2.37383 3.97748 0
M  V30 1864 C 188.04 3.03647 4.86401 0
M  V30 1865 N 187.536 3.79136 5.79852 0
M  V30 1866 N 189.329 2.9288 4.79768 0
M  V30 1867 H 181.48 1.83075 1.0769 0
M  V30 1868 H 183.743 0.783637 0.533495 0
M  V30 1869 H 183.449 2.53291 2.44001 0
M  V30 1870 H 183.323 1.20113 3.57565 0
M  V30 1871 H 185.71 0.46163 2.91467 0
M  V30 1872 H 185.791 1.8262 1.79119 0
M  V30 1873 H 185.435 3.42874 3.74699 0
M  V30 1874 H 185.365 2.03649 4.85628 0
M  V30 1875 H 187.856 1.82525 3.30897 0
M  V30 1876 H 188.169 4.26789 6.4426 0
M  V30 1877 H 186.514 3.83243 5.79784 0
M  V30 1878 H 189.705 2.33433 4.05742 0
M  V30 1879 H 189.878 3.448 5.4865 0
M  V30 1880 N 183.284 -1.43765 0.645699 0
M  V30 1881 C 184.7 -1.56509 0.312591 0
M  V30 1882 C 184.9 -1.6307 -1.18365 0
M  V30 1883 O 183.956 -1.58167 -1.96824 0
M  V30 1884 C 185.269 -2.82968 1.01733 0
M  V30 1885 C 186.817 -2.96701 0.996865 0
M  V30 1886 C 187.292 -4.25982 1.68236 0
M  V30 1887 N 188.783 -4.32829 1.64964 0
M  V30 1888 C 189.518 -5.31613 2.14885 0
M  V30 1889 N 189.014 -6.36718 2.73061 0
M  V30 1890 N 190.807 -5.23217 2.05428 0
M  V30 1891 H 182.958 -1.3775 1.61675 0
M  V30 1892 H 185.221 -0.661067 0.679481 0
M  V30 1893 H 184.927 -2.84156 2.0724 0
M  V30 1894 H 184.801 -3.72957 0.564177 0
M  V30 1895 H 187.188 -2.95058 -0.0497719 0
M  V30 1896 H 187.269 -2.08022 1.48865 0
M  V30 1897 H 186.913 -4.28386 2.72852 0
M  V30 1898 H 186.843 -5.13545 1.16529 0
M  V30 1899 H 189.334 -3.57493 1.22503 0
M  V30 1900 H 189.647 -7.08401 3.08848 0
M  V30 1901 H 187.992 -6.37362 2.77118 0
M  V30 1902 H 191.183 -4.40019 1.59689 0
M  V30 1903 H 191.356 -6.00045 2.44643 0
M  V30 1904 N 184.763 -0.387143 -1.52771 0
M  V30 1905 C 185.695 0.484089 -2.2403 0
M  V30 1906 C 186.708 1.02849 -1.26198 0
M  V30 1907 O 187.897 0.931186 -1.52286 0
M  V30 1908 C 184.997 1.68337 -2.94136 0
M  V30 1909 C 184.17 1.26672 -4.18656 0
M  V30 1910 C 183.229 2.33045 -4.7178 0
M  V30 1911 O 182.255 1.94541 -5.34923 0
M  V30 1912 N 183.457 3.64929 -4.5145 0
M  V30 1913 H 186.222 -0.126404 -2.99433 0
M  V30 1914 H 183.783 -0.213392 -1.60488 0
M  V30 1915 H 185.775 2.39019 -3.26577 0
M  V30 1916 H 184.345 2.20025 -2.22053 0
M  V30 1917 H 183.565 0.388878 -3.92277 0
M  V30 1918 H 184.853 0.964964 -4.99566 0
M  V30 1919 H 184.251 3.98974 -4.01044 0
M  V30 1920 H 182.808 4.31651 -4.88386 0
M  V30 1921 N 186.241 1.57166 -0.116904 0
M  V30 1922 C 187.204 2.14039 0.819742 0
M  V30 1923 C 188.204 1.07477 1.19605 0
M  V30 1924 O 189.394 1.33263 1.1219 0
M  V30 1925 C 186.526 2.67891 2.10826 0
M  V30 1926 H 187.719 2.98128 0.325511 0
M  V30 1927 H 185.272 1.55739 0.132312 0
M  V30 1928 H 186.007 1.87384 2.64685 0
M  V30 1929 H 185.792 3.45823 1.84793 0
M  V30 1930 H 187.282 3.11809 2.77785 0
M  V30 1931 N 187.719 -0.156864 1.56817 0
M  V30 1932 C 189.13 -0.717916 1.72345 0
M  V30 1933 C 189.481 -1.82124 0.729747 0
M  V30 1934 O 188.606 -2.16141 -0.105781 0
M  V30 1935 C 189.201 -1.30904 3.12489 0
M  V30 1936 C 187.76 -1.81676 3.29653 0
M  V30 1937 C 186.907 -0.701349 2.68284 0
M  V30 1938 H 189.858 0.0686989 1.58551 0
M  V30 1939 H 189.879 -2.17882 3.11942 0
M  V30 1940 H 189.391 -0.505796 3.8479 0
M  V30 1941 H 187.492 -2.64598 2.62333 0
M  V30 1942 H 187.605 -1.95226 4.3752 0
M  V30 1943 H 185.969 -1.12548 2.28484 0
M  V30 1944 H 186.752 0.0902846 3.43181 0
M  V30 1945 N 189.197 -1.51736 -0.425897 0
M  V30 1946 C 190.16 -1.73271 -1.50032 0
M  V30 1947 C 191.16 -0.602639 -1.4908 0
M  V30 1948 O 192.35 -0.87033 -1.509 0
M  V30 1949 C 189.482 -1.79969 -2.89523 0
M  V30 1950 H 190.675 -2.69172 -1.32237 0
M  V30 1951 H 188.228 -1.41899 -0.65532 0
M  V30 1952 H 188.963 -0.859241 -3.1271 0
M  V30 1953 H 188.748 -2.62109 -2.91619 0
M  V30 1954 H 190.238 -1.9843 -3.67444 0
M  V30 1955 N 190.675 0.682077 -1.42076 0
M  V30 1956 C 192.086 1.26246 -1.37546 0
M  V30 1957 C 192.437 1.96092 -0.0651481 0
M  V30 1958 O 191.562 1.99587 0.836297 0
M  V30 1959 C 192.157 2.29594 -2.49143 0
M  V30 1960 C 190.716 2.83175 -2.47969 0
M  V30 1961 C 189.863 1.57395 -2.28303 0
M  V30 1962 H 192.814 0.475937 -1.51395 0
M  V30 1963 H 192.835 3.11175 -2.18976 0
M  V30 1964 H 192.347 1.78729 -3.44496 0
M  V30 1965 H 190.448 3.3818 -1.56413 0
M  V30 1966 H 190.561 3.32687 -3.44755 0
M  V30 1967 H 188.925 1.83699 -1.76428 0
M  V30 1968 H 189.708 1.08507 -3.25701 0
M  V30 1969 N 192.153 1.28127 0.917671 0
M  V30 1970 C 193.381 1.17892 1.70026 0
M  V30 1971 C 193.796 -0.262958 1.8696 0
M  V30 1972 O 193.153 -1.17811 1.3938 0
M  V30 1973 C 193.204 1.86872 3.09453 0
M  V30 1974 O 192.925 3.25428 2.93306 0
M  V30 1975 C 194.426 1.8289 4.03815 0
M  V30 1976 H 191.646 0.40942 0.531617 0
M  V30 1977 H 194.19 1.69181 1.14883 0
M  V30 1978 H 192.345 1.39464 3.61426 0
M  V30 1979 H 192.759 3.59918 3.81523 0
M  V30 1980 H 194.233 2.35751 4.99125 0
M  V30 1981 H 194.71 0.800412 4.31845 0
M  V30 1982 H 195.316 2.29959 3.57769 0
M  V30 1983 N 193.631 -1.12557 1.10312 0
M  V30 1984 C 194.578 -2.18247 0.750781 0
M  V30 1985 C 195.548 -1.63853 -0.272293 0
M  V30 1986 O 196.733 -1.90195 -0.151862 0
M  V30 1987 C 193.873 -3.44591 0.187379 0
M  V30 1988 C 192.986 -4.13046 1.2656 0
M  V30 1989 C 192.121 -5.27034 0.663978 0
M  V30 1990 C 191.16 -5.87353 1.72287 0
M  V30 1991 N 190.297 -6.92757 1.1416 0
M  V30 1992 H 195.137 -2.47732 1.65628 0
M  V30 1993 H 192.674 -1.21629 0.827337 0
M  V30 1994 H 194.632 -4.16904 -0.157148 0
M  V30 1995 H 193.262 -3.15527 -0.681355 0
M  V30 1996 H 192.314 -3.38924 1.72727 0
M  V30 1997 H 193.626 -4.53947 2.06721 0
M  V30 1998 H 192.78 -6.06104 0.268824 0
M  V30 1999 H 191.519 -4.87407 -0.169082 0
M  V30 2000 H 190.524 -5.06971 2.12746 0
M  V30 2001 H 191.749 -6.29051 2.55875 0
M  V30 2002 H 189.695 -6.5517 0.329984 0
M  V30 2003 H 189.612 -7.3225 1.88007 0
M  V30 2004 H 190.88 -7.75658 0.772956 0
M  V30 2005 N 195.109 -0.891671 -1.2995 0
M  V30 2006 C 196.355 -0.523649 -1.96544 0
M  V30 2007 C 196.71 0.918394 -1.69066 0
M  V30 2008 O 196.003 1.64122 -0.988659 0
M  V30 2009 C 196.197 -0.742868 -3.49594 0
M  V30 2010 C 196.026 -2.20467 -3.9195 0
M  V30 2011 C 194.796 -2.85055 -4.17219 0
M  V30 2012 C 196.994 -3.17912 -4.04273 0
M  V30 2013 N 194.976 -4.21762 -4.46083 0
M  V30 2014 C 196.347 -4.39712 -4.37097 0
M  V30 2015 C 198.402 -3.1361 -3.86721 0
M  V30 2016 C 197.105 -5.5776 -4.54199 0
M  V30 2017 C 199.131 -4.30936 -4.05028 0
M  V30 2018 C 198.493 -5.51504 -4.38204 0
M  V30 2019 H 194.592 -0.241072 -0.743914 0
M  V30 2020 H 197.176 -1.15081 -1.5705 0
M  V30 2021 H 195.347 -0.14515 -3.88129 0
M  V30 2022 H 197.079 -0.341081 -4.0326 0
M  V30 2023 H 193.834 -2.35889 -4.10674 0
M  V30 2024 H 194.258 -4.92382 -4.64638 0
M  V30 2025 H 198.9 -2.21489 -3.60142 0
M  V30 2026 H 196.618 -6.50379 -4.79618 0
M  V30 2027 H 200.204 -4.29085 -3.92909 0
M  V30 2028 H 199.084 -6.40778 -4.52077 0
M  V30 2029 N 196.587 1.43421 -0.653314 0
M  V30 2030 C 197.535 2.32546 0.0501531 0
M  V30 2031 C 198.529 1.48617 0.812985 0
M  V30 2032 O 199.735 1.64825 0.723375 0
M  V30 2033 H 196.11 0.751185 0.0350032 0
M  V30 2034 H 198.081 2.89602 -0.719261 0
M  V30 2035 C 196.83 3.32925 1.00279 0
M  V30 2036 H 196.153 3.97532 0.425236 0
M  V30 2037 H 197.593 3.9792 1.46409 0
M  V30 2038 C 196.052 2.63532 2.09886 0
M  V30 2039 O 196.582 2.45092 3.18265 0
M  V30 2040 N 194.788 2.22905 1.86445 0
M  V30 2041 H 194.335 2.38103 0.98309 0
M  V30 2042 H 194.293 1.76805 2.59976 0
M  V30 2043 N 198.065 0.39524 1.52563 0
M  V30 2044 C 199.012 -0.437036 2.26624 0
M  V30 2045 C 199.982 -1.05281 1.28472 0
M  V30 2046 O 201.167 -1.07971 1.57311 0
M  V30 2047 C 198.307 -1.55524 3.08069 0
M  V30 2048 C 197.42 -0.961745 4.21158 0
M  V30 2049 C 196.555 -2.05149 4.89987 0
M  V30 2050 C 195.594 -1.4342 5.95061 0
M  V30 2051 N 194.731 -2.46351 6.57462 0
M  V30 2052 H 199.571 0.200976 2.97322 0
M  V30 2053 H 197.108 0.110944 1.46681 0
M  V30 2054 H 199.066 -2.21437 3.53584 0
M  V30 2055 H 197.696 -2.16348 2.3957 0
M  V30 2056 H 196.748 -0.192048 3.79915 0
M  V30 2057 H 198.06 -0.470701 4.96574 0
M  V30 2058 H 197.214 -2.78819 5.38837 0
M  V30 2059 H 195.953 -2.57615 4.14109 0
M  V30 2060 H 194.958 -0.682774 5.45544 0
M  V30 2061 H 196.183 -0.917416 6.72875 0
M  V30 2062 H 194.129 -2.97975 5.8442 0
M  V30 2063 H 194.046 -2.02019 7.28508 0
M  V30 2064 H 195.314 -3.19633 7.10954 0
M  V30 2065 N 199.544 -1.57102 0.125237 0
M  V30 2066 C 200.96 -1.57915 -0.231322 0
M  V30 2067 C 201.16 -1.13833 -1.66266 0
M  V30 2068 O 200.216 -0.828581 -2.38518 0
M  V30 2069 C 201.529 -3.00699 0.00766489 0
M  V30 2070 C 203.077 -3.12947 -0.0577483 0
M  V30 2071 C 203.552 -4.57742 0.153626 0
M  V30 2072 N 205.043 -4.63092 0.0998073 0
M  V30 2073 C 205.778 -5.72905 0.238174 0
M  V30 2074 N 205.274 -6.91445 0.433057 0
M  V30 2075 N 207.067 -5.6182 0.177308 0
M  V30 2076 H 199.218 -1.84055 1.06007 0
M  V30 2077 H 201.481 -0.850905 0.417929 0
M  V30 2078 H 201.187 -3.3726 0.997431 0
M  V30 2079 H 201.061 -3.70236 -0.721452 0
M  V30 2080 H 203.448 -2.7624 -1.03804 0
M  V30 2081 H 203.529 -2.4594 0.70335 0
M  V30 2082 H 203.173 -4.95149 1.13092 0
M  V30 2083 H 203.103 -5.22848 -0.627534 0
M  V30 2084 H 205.594 -3.77871 -0.047051 0
M  V30 2085 H 205.907 -7.70985 0.529332 0
M  V30 2086 H 204.252 -6.93415 0.469109 0
M  V30 2087 H 207.443 -4.68093 0.0259748 0
M  V30 2088 H 207.616 -6.47357 0.288582 0
M  V30 2089 N 201.022 0.148545 -1.56898 0
M  V30 2090 C 201.97 1.20265 -1.99096 0
M  V30 2091 C 202.964 1.44559 -0.883123 0
M  V30 2092 O 204.17 1.4487 -1.0683 0
M  V30 2093 H 200.545 0.404786 -0.63376 0
M  V30 2094 H 202.516 0.82004 -2.86911 0
M  V30 2095 C 201.265 2.52886 -2.3863 0
M  V30 2096 H 200.588 2.35021 -3.23427 0
M  V30 2097 H 202.028 3.25274 -2.7198 0
M  V30 2098 C 200.487 3.13315 -1.23837 0
M  V30 2099 O 201.017 3.98077 -0.538268 0
M  V30 2100 N 199.223 2.72742 -1.00301 0
M  V30 2101 H 198.77 2.03912 -1.5741 0
M  V30 2102 H 198.728 3.13507 -0.236838 0
M  V30 2103 N 202.5 1.5196 0.417844 0
M  V30 2104 C 203.43 1.77634 1.51554 0
M  V30 2105 C 204.411 0.626918 1.58126 0
M  V30 2106 O 205.596 0.871632 1.7354 0
M  V30 2107 C 202.726 1.91911 2.8946 0
M  V30 2108 C 201.68 3.07463 2.97743 0
M  V30 2109 C 201.006 3.06951 4.37819 0
M  V30 2110 C 202.306 4.47082 2.70027 0
M  V30 2111 H 204 2.6955 1.3032 0
M  V30 2112 H 201.546 1.29706 0.625492 0
M  V30 2113 H 203.499 2.08455 3.6623 0
M  V30 2114 H 202.223 0.966598 3.11969 0
M  V30 2115 H 200.882 2.90656 2.23416 0
M  V30 2116 H 200.53 2.09438 4.57323 0
M  V30 2117 H 200.23 3.84556 4.44286 0
M  V30 2118 H 201.754 3.25613 5.16535 0
M  V30 2119 H 203.168 4.6414 3.36522 0
M  V30 2120 H 201.565 5.2654 2.87881 0
M  V30 2121 H 202.635 4.55777 1.65514 0
M  V30 2122 N 203.978 -0.674533 1.42435 0
M  V30 2123 C 205.203 -1.46784 1.46524 0
M  V30 2124 C 205.628 -1.87938 0.078066 0
M  V30 2125 O 204.986 -1.56014 -0.92354 0
M  V30 2126 C 205.034 -2.69307 2.39805 0
M  V30 2127 O 204.138 -3.67587 1.86959 0
M  V30 2128 H 203.479 -0.440959 0.496439 0
M  V30 2129 H 206.009 -0.827326 1.87127 0
M  V30 2130 H 206.019 -3.17374 2.56393 0
M  V30 2131 H 204.694 -2.38692 3.40586 0
M  V30 2132 H 203.271 -3.2662 1.79927 0
M  V30 2133 N 205.456 -1.28612 -0.910864 0
M  V30 2134 C 206.702 -1.17116 -1.66299 0
M  V30 2135 C 207.057 0.276917 -1.90397 0
M  V30 2136 O 206.35 1.19795 -1.49532 0
M  V30 2137 C 206.544 -1.90624 -3.0232 0
M  V30 2138 C 206.373 -3.42431 -2.91498 0
M  V30 2139 C 205.143 -4.11773 -2.92867 0
M  V30 2140 C 207.341 -4.38124 -2.69355 0
M  V30 2141 N 205.323 -5.50025 -2.72664 0
M  V30 2142 C 206.694 -5.63759 -2.58023 0
M  V30 2143 C 208.749 -4.28016 -2.54375 0
M  V30 2144 C 207.452 -6.80436 -2.33238 0
M  V30 2145 C 209.478 -5.44433 -2.30969 0
M  V30 2146 C 208.84 -6.69034 -2.20394 0
M  V30 2147 H 204.939 -0.483506 -0.61461 0
M  V30 2148 H 207.523 -1.62299 -1.0755 0
M  V30 2149 H 205.694 -1.4787 -3.5915 0
M  V30 2150 H 207.426 -1.71488 -3.66571 0
M  V30 2151 H 204.181 -3.63378 -3.03732 0
M  V30 2152 H 204.605 -6.22705 -2.65646 0
M  V30 2153 H 209.247 -3.32388 -2.613 0
M  V30 2154 H 206.965 -7.7613 -2.25051 0
M  V30 2155 H 210.551 -5.38504 -2.20238 0
M  V30 2156 H 209.431 -7.57595 -2.02531 0
M  V30 2157 N 206.934 1.1197 -1.10907 0
M  V30 2158 C 208.35 1.35591 -0.841852 0
M  V30 2159 C 208.55 1.94233 0.536246 0
M  V30 2160 O 207.606 2.1717 1.28816 0
M  V30 2161 C 208.919 2.29284 -1.94549 0
M  V30 2162 C 210.467 2.42862 -1.97451 0
M  V30 2163 C 210.942 3.39873 -3.07002 0
M  V30 2164 N 212.433 3.47433 -3.06341 0
M  V30 2165 C 213.168 4.22421 -3.87748 0
M  V30 2166 N 212.664 5.00432 -4.79103 0
M  V30 2167 N 214.457 4.17876 -3.75946 0
M  V30 2168 H 206.608 0.722664 -1.99728 0
M  V30 2169 H 208.871 0.380635 -0.868229 0
M  V30 2170 H 208.577 1.93378 -2.93765 0
M  V30 2171 H 208.451 3.29452 -1.83688 0
M  V30 2172 H 210.838 2.78046 -0.988645 0
M  V30 2173 H 210.919 1.42566 -2.12388 0
M  V30 2174 H 210.563 3.05417 -4.05811 0
M  V30 2175 H 210.493 4.40011 -2.89306 0
M  V30 2176 H 212.984 2.91784 -2.40147 0
M  V30 2177 H 213.297 5.55002 -5.37766 0
M  V30 2178 H 211.642 4.99612 -4.83128 0
M  V30 2179 H 214.833 3.56016 -3.03924 0
M  V30 2180 H 215.006 4.76061 -4.39624 0
M  V30 2181 N 208.412 0.89855 1.29475 0
M  V30 2182 C 209.658 0.524658 1.95896 0
M  V30 2183 C 209.991 -0.926468 1.70676 0
M  V30 2184 O 209.266 -1.65665 1.01908 0
M  V30 2185 C 209.549 0.81633 3.50725 0
M  V30 2186 C 209.402 2.31907 3.85408 0
M  V30 2187 C 210.721 0.302038 4.39062 0
M  V30 2188 H 207.84 0.19209 0.711527 0
M  V30 2189 H 210.482 1.12502 1.53112 0
M  V30 2190 H 208.632 0.305369 3.87298 0
M  V30 2191 H 210.304 2.89949 3.58786 0
M  V30 2192 H 208.547 2.78027 3.32992 0
M  V30 2193 H 209.218 2.47373 4.93468 0
M  V30 2194 H 211.694 0.739551 4.09475 0
M  V30 2195 H 210.57 0.535331 5.46283 0
M  V30 2196 H 210.831 -0.797216 4.34853 0
M  V30 2197 N 209.89 -1.43072 0.660911 0
M  V30 2198 C 211.306 -1.56169 0.329173 0
M  V30 2199 C 211.506 -1.64317 -1.16629 0
M  V30 2200 O 210.562 -1.60245 -1.95135 0
M  V30 2201 C 211.875 -2.81873 1.04729 0
M  V30 2202 C 213.423 -2.95627 1.02828 0
M  V30 2203 C 213.898 -4.24174 1.72744 0
M  V30 2204 N 215.389 -4.31055 1.69545 0
M  V30 2205 C 216.124 -5.29304 2.20511 0
M  V30 2206 N 215.62 -6.33786 2.79799 0
M  V30 2207 N 217.413 -5.21008 2.10966 0
M  V30 2208 H 209.564 -1.36027 1.63127 0
M  V30 2209 H 211.827 -0.653823 0.686454 0
M  V30 2210 H 211.533 -2.81942 2.10242 0
M  V30 2211 H 211.407 -3.72338 0.603702 0
M  V30 2212 H 213.794 -2.95094 -0.0184742 0
M  V30 2213 H 213.875 -2.06431 1.51063 0
M  V30 2214 H 213.519 -4.25467 2.7738 0
M  V30 2215 H 213.449 -5.1228 1.2197 0
M  V30 2216 H 215.94 -3.56174 1.26288 0
M  V30 2217 H 216.253 -7.05086 3.16344 0
M  V30 2218 H 214.598 -6.34387 2.83863 0
M  V30 2219 H 217.789 -4.38301 1.64347 0
M  V30 2220 H 217.962 -5.97416 2.50993 0
M  V30 2221 N 211.368 -0.403325 -1.52352 0
M  V30 2222 C 212.596 0.174012 -2.06167 0
M  V30 2223 C 213.011 1.39347 -1.27388 0
M  V30 2224 O 212.368 1.79597 -0.324201 0
M  V30 2225 C 212.419 0.530223 -3.5759 0
M  V30 2226 O 212.14 -0.640806 -4.33388 0
M  V30 2227 C 213.641 1.16192 -4.27802 0
M  V30 2228 H 210.861 0.0229464 -0.670608 0
M  V30 2229 H 213.405 -0.572604 -1.9632 0
M  V30 2230 H 211.56 1.22673 -3.67464 0
M  V30 2231 H 211.974 -0.344851 -5.23365 0
M  V30 2232 H 213.448 1.36141 -5.34948 0
M  V30 2233 H 213.925 2.13335 -3.83907 0
M  V30 2234 H 214.531 0.505775 -4.22282 0
M  V30 2235 N 212.846 1.57033 -0.133567 0
M  V30 2236 C 214.093 1.95686 0.520877 0
M  V30 2237 C 214.421 1.0177 1.6575 0
M  V30 2238 O 213.676 0.0443195 1.9565 0
M  V30 2239 C 213.975 3.40674 1.08057 0
M  V30 2240 C 213.641 4.50855 0.0637899 0
M  V30 2241 C 212.303 4.80716 -0.215757 0
M  V30 2242 C 214.655 5.17398 -0.62835 0
M  V30 2243 C 211.983 5.74433 -1.19348 0
M  V30 2244 C 214.335 6.12167 -1.5948 0
M  V30 2245 C 212.999 6.40414 -1.88218 0
M  V30 2246 H 212.269 0.716067 0.190602 0
M  V30 2247 H 214.916 1.9026 -0.217556 0
M  V30 2248 H 213.221 3.42865 1.89606 0
M  V30 2249 H 214.918 3.67902 1.59529 0
M  V30 2250 H 211.508 4.27605 0.291855 0
M  V30 2251 H 215.692 4.94472 -0.425562 0
M  V30 2252 H 210.948 5.94616 -1.42272 0
M  V30 2253 H 215.122 6.6281 -2.13671 0
M  V30 2254 H 212.749 7.12838 -2.64133 0
M  V30 2255 N 214.325 -0.140222 1.56975 0
M  V30 2256 C 215.736 -0.699596 1.73097 0
M  V30 2257 C 216.087 -1.8134 0.749022 0
M  V30 2258 O 215.212 -2.16241 -0.0828503 0
M  V30 2259 C 215.807 -1.27582 3.1386 0
M  V30 2260 C 214.366 -1.78169 3.31561 0
M  V30 2261 C 213.513 -0.672855 2.69013 0
M  V30 2262 H 216.464 0.0855115 1.58469 0
M  V30 2263 H 216.485 -2.14561 3.14235 0
M  V30 2264 H 215.997 -0.464955 3.85305 0
M  V30 2265 H 214.098 -2.61801 2.65124 0
M  V30 2266 H 214.211 -1.90574 4.39566 0
M  V30 2267 H 212.575 -1.10118 2.29665 0
M  V30 2268 H 213.358 0.126679 3.43066 0
M  V30 2269 N 215.803 -1.52179 -0.40978 0
M  V30 2270 C 217.219 -1.40968 -0.74835 0
M  V30 2271 C 217.419 -0.513657 -1.94843 0
M  V30 2272 O 216.475 0.0208026 -2.52491 0
M  V30 2273 C 217.788 -2.83483 -1.0029 0
M  V30 2274 C 219.336 -2.92821 -1.10565 0
M  V30 2275 C 219.811 -4.36303 -1.39296 0
M  V30 2276 N 221.302 -4.39535 -1.46162 0
M  V30 2277 C 222.037 -5.47614 -1.70018 0
M  V30 2278 N 221.533 -6.65812 -1.91483 0
M  V30 2279 N 223.326 -5.35129 -1.72027 0
M  V30 2280 H 215.477 -2.0897 0.380186 0
M  V30 2281 H 217.74 -0.94185 0.107805 0
M  V30 2282 H 217.446 -3.51168 -0.193461 0
M  V30 2283 H 217.32 -3.24487 -1.92323 0
M  V30 2284 H 219.707 -2.25318 -1.90568 0
M  V30 2285 H 219.788 -2.55276 -0.16369 0
M  V30 2286 H 219.432 -5.04366 -0.598109 0
M  V30 2287 H 219.362 -4.71385 -2.34743 0
M  V30 2288 H 221.853 -3.54332 -1.31367 0
M  V30 2289 H 222.166 -7.43964 -2.09134 0
M  V30 2290 H 220.511 -6.68879 -1.88749 0
M  V30 2291 H 223.702 -4.41764 -1.54796 0
M  V30 2292 H 223.875 -6.19433 -1.9028 0
M  V30 2293 N 217.281 0.66697 -1.42791 0
M  V30 2294 C 218.558 1.4234 -1.34159 0
M  V30 2295 C 218.938 2.11093 0.0172729 0
M  V30 2296 O 218.286 2.03808 1.03318 0
M  V30 2297 C 218.496 2.41942 -2.51526 0
M  V30 2298 C 219.844 3.06353 -2.93995 0
M  V30 2299 O 220.868 2.52269 -2.51473 0
M  V30 2300 O 219.727 4.04376 -3.67617 0
M  V30 2301 H 216.821 0.635277 -0.529483 0
M  V30 2302 H 219.367 0.695034 -1.54814 0
M  V30 2303 H 218.139 1.89991 -3.42081 0
M  V30 2304 H 217.762 3.22249 -2.32898 0
M  V30 2305 N 218.759 1.29093 0.90403 0
M  V30 2306 C 219.984 1.19809 1.69294 0
M  V30 2307 C 220.409 -0.238481 1.86582 0
M  V30 2308 O 219.767 -1.1723 1.383 0
M  V30 2309 C 219.815 1.91202 3.05736 0
M  V30 2310 O 218.919 1.22611 3.93752 0
M  V30 2311 H 218.26 0.415385 0.518027 0
M  V30 2312 H 220.79 1.70586 1.12967 0
M  V30 2313 H 220.8 1.99487 3.55906 0
M  V30 2314 H 219.475 2.95692 2.92471 0
M  V30 2315 H 218.052 1.22554 3.52186 0
M  V30 2316 N 220.237 -1.11381 1.11499 0
M  V30 2317 C 221.648 -1.6465 0.880191 0
M  V30 2318 C 221.999 -1.87199 -0.587434 0
M  V30 2319 O 221.124 -1.60667 -1.44966 0
M  V30 2320 C 221.719 -2.99105 1.59128 0
M  V30 2321 C 220.278 -3.49279 1.40289 0
M  V30 2322 C 219.425 -2.24077 1.63354 0
M  V30 2323 H 222.376 -0.950123 1.27116 0
M  V30 2324 H 222.397 -3.66107 1.03664 0
M  V30 2325 H 221.909 -2.82661 2.65941 0
M  V30 2326 H 220.01 -3.70887 0.356888 0
M  V30 2327 H 220.123 -4.2803 2.15238 0
M  V30 2328 H 218.487 -2.31733 1.05698 0
M  V30 2329 H 219.27 -2.10175 2.71443 0
M  V30 2330 N 221.715 -0.905404 -1.28997 0
M  V30 2331 C 222.645 -0.404212 -2.29975 0
M  V30 2332 C 223.626 0.523784 -1.61835 0
M  V30 2333 O 224.811 0.433298 -1.89304 0
M  V30 2334 C 221.941 0.364042 -3.45387 0
M  V30 2335 C 220.895 -0.474048 -4.25367 0
M  V30 2336 C 220.221 0.422045 -5.33032 0
M  V30 2337 C 221.521 -1.72696 -4.92923 0
M  V30 2338 H 223.215 -1.24807 -2.72146 0
M  V30 2339 H 220.761 -0.601585 -1.30832 0
M  V30 2340 H 222.714 0.725447 -4.15109 0
M  V30 2341 H 221.438 1.24174 -3.02074 0
M  V30 2342 H 220.097 -0.81786 -3.57361 0
M  V30 2343 H 219.745 1.29804 -4.85963 0
M  V30 2344 H 219.445 -0.135057 -5.87445 0
M  V30 2345 H 220.969 0.779517 -6.05604 0
M  V30 2346 H 222.383 -1.43495 -5.55051 0
M  V30 2347 H 220.78 -2.22582 -5.57295 0
M  V30 2348 H 221.85 -2.45964 -4.17887 0
M  V30 2349 N 223.193 1.4272 -0.668489 0
M  V30 2350 C 224.441 2.01226 -0.187769 0
M  V30 2351 C 224.762 1.53092 1.2078 0
M  V30 2352 O 224.032 0.74993 1.80977 0
M  V30 2353 H 222.612 0.744041 -0.0664272 0
M  V30 2354 H 225.274 1.74723 -0.863583 0
M  V30 2355 H 224.37 3.11556 -0.184166 0
M  V30 2356 N 224.671 0.411399 1.52136 0
M  V30 2357 C 225.621 -0.430376 2.23901 0
M  V30 2358 C 226.605 -1.0116 1.25121 0
M  V30 2359 O 227.797 -0.934044 1.50348 0
M  V30 2360 C 224.926 -1.54527 3.06556 0
M  V30 2361 C 224.012 -0.9747 4.12747 0
M  V30 2362 N 224.403 -0.130991 5.0563 0
M  V30 2363 C 222.701 -1.24497 4.28271 0
M  V30 2364 C 223.402 0.186689 5.814 0
M  V30 2365 N 222.378 -0.42304 5.41951 0
M  V30 2366 H 226.18 0.220509 2.93072 0
M  V30 2367 H 223.694 0.221952 1.60876 0
M  V30 2368 H 225.691 -2.16093 3.56524 0
M  V30 2369 H 224.351 -2.19875 2.38925 0
M  V30 2370 H 225.362 0.23349 5.17373 0
M  V30 2371 H 222.039 -1.89787 3.7187 0
M  V30 2372 H 223.429 0.871673 6.66222 0
M  V30 2373 N 226.149 -1.5696 0.141893 0
M  V30 2374 C 227.426 -1.87553 -0.555281 0
M  V30 2375 C 227.806 -1.04699 -1.83306 0
M  V30 2376 O 227.154 -0.132346 -2.28116 0
M  V30 2377 C 227.364 -3.39093 -0.825664 0
M  V30 2378 C 228.712 -4.08199 -1.16869 0
M  V30 2379 O 229.736 -3.44242 -0.915185 0
M  V30 2380 O 228.595 -5.21139 -1.6455 0
M  V30 2381 H 225.689 -0.777188 -0.282679 0
M  V30 2382 H 228.235 -1.68763 0.17812 0
M  V30 2383 H 227.007 -3.91221 0.0788633 0
M  V30 2384 H 226.63 -3.63393 -1.61343 0
M  V30 2385 N 227.627 0.131896 -1.57047 0
M  V30 2386 C 228.855 0.856461 -1.88341 0
M  V30 2387 C 229.27 1.74042 -0.731757 0
M  V30 2388 O 228.627 1.80051 0.297945 0
M  V30 2389 C 228.678 1.70064 -3.18999 0
M  V30 2390 O 228.399 0.852278 -4.2973 0
M  V30 2391 C 229.9 2.53148 -3.63911 0
M  V30 2392 H 227.12 0.246885 -0.62393 0
M  V30 2393 H 229.664 0.120152 -2.04147 0
M  V30 2394 H 227.819 2.38984 -3.04902 0
M  V30 2395 H 228.233 1.43329 -5.04537 0
M  V30 2396 H 229.707 3.07931 -4.58129 0
M  V30 2397 H 230.184 3.29901 -2.89935 0
M  V30 2398 H 230.79 1.89492 -3.80753 0
M  V30 2399 N 229.106 1.52395 0.401703 0
M  V30 2400 C 230.352 1.67065 1.14966 0
M  V30 2401 C 230.685 0.403052 1.89971 0
M  V30 2402 O 229.96 -0.598774 1.85054 0
M  V30 2403 C 230.243 2.8975 2.13815 0
M  V30 2404 C 230.096 4.26578 1.42658 0
M  V30 2405 C 231.415 3.07965 3.14397 0
M  V30 2406 H 228.534 0.607968 0.416587 0
M  V30 2407 H 231.176 1.84965 0.434511 0
M  V30 2408 H 229.326 2.74619 2.74803 0
M  V30 2409 H 230.998 4.53451 0.847329 0
M  V30 2410 H 229.241 4.27639 0.72849 0
M  V30 2411 H 229.912 5.08483 2.14823 0
M  V30 2412 H 232.388 3.22043 2.63491 0
M  V30 2413 H 231.264 3.95308 3.80819 0
M  V30 2414 H 231.525 2.21611 3.82545 0
M  V30 2415 N 230.584 -0.659388 1.43143 0
M  V30 2416 C 232 -0.974337 1.26407 0
M  V30 2417 C 232.2 -2.007 0.179341 0
M  V30 2418 O 231.256 -2.4856 -0.444295 0
M  V30 2419 C 232.569 -1.46447 2.62628 0
M  V30 2420 C 234.117 -1.58144 2.7011 0
M  V30 2421 C 234.592 -2.1055 4.06734 0
M  V30 2422 N 236.083 -2.17861 4.08767 0
M  V30 2423 C 236.818 -2.59519 5.1131 0
M  V30 2424 N 236.314 -3.00518 6.24228 0
M  V30 2425 N 238.107 -2.59404 4.98664 0
M  V30 2426 H 230.258 0.0240528 2.12386 0
M  V30 2427 H 232.521 -0.0518065 0.946583 0
M  V30 2428 H 232.227 -0.780123 3.42939 0
M  V30 2429 H 232.101 -2.44058 2.87603 0
M  V30 2430 H 234.488 -2.25682 1.90136 0
M  V30 2431 H 234.569 -0.589828 2.48907 0
M  V30 2432 H 234.213 -1.43616 4.87172 0
M  V30 2433 H 234.143 -3.10531 4.25298 0
M  V30 2434 H 236.634 -1.88975 3.27257 0
M  V30 2435 H 236.947 -3.31036 6.98309 0
M  V30 2436 H 235.292 -2.98337 6.2771 0
M  V30 2437 H 238.483 -2.26747 4.09516 0
M  V30 2438 H 238.656 -2.91548 5.78709 0
M  V30 2439 N 232.062 -1.29571 -0.897171 0
M  V30 2440 C 233.025 -1.14913 -1.98312 0
M  V30 2441 C 234.025 -0.0838629 -1.60581 0
M  V30 2442 O 235.215 -0.331006 -1.71026 0
M  V30 2443 C 232.347 -0.757835 -3.3237 0
M  V30 2444 H 233.54 -2.11377 -2.12743 0
M  V30 2445 H 231.093 -1.12793 -1.08201 0
M  V30 2446 H 231.828 0.206837 -3.2364 0
M  V30 2447 H 231.613 -1.52755 -3.61121 0
M  V30 2448 H 233.103 -0.678408 -4.12053 0
M  V30 2449 N 233.54 1.10788 -1.12088 0
M  V30 2450 C 234.47 2.19083 -0.807755 0
M  V30 2451 C 235.451 1.6858 0.226859 0
M  V30 2452 O 236.636 1.93997 0.0888475 0
M  V30 2453 C 233.766 3.46344 -0.257576 0
M  V30 2454 C 232.72 4.101 -1.22483 0
M  V30 2455 C 232.046 5.32016 -0.535052 0
M  V30 2456 C 233.346 4.54236 -2.57811 0
M  V30 2457 H 235.04 2.45534 -1.71328 0
M  V30 2458 H 232.586 1.1801 -0.825205 0
M  V30 2459 H 234.539 4.21392 -0.0262679 0
M  V30 2460 H 233.263 3.19373 0.683278 0
M  V30 2461 H 231.922 3.37054 -1.44189 0
M  V30 2462 H 231.57 5.01319 0.410827 0
M  V30 2463 H 231.27 5.75625 -1.18024 0
M  V30 2464 H 232.794 6.09799 -0.312695 0
M  V30 2465 H 234.208 5.20575 -2.40155 0
M  V30 2466 H 232.605 5.08682 -3.18375 0
M  V30 2467 H 233.675 3.6734 -3.16528 0
M  V30 2468 N 235.018 0.912232 1.28515 0
M  V30 2469 C 235.951 0.343928 2.25593 0
M  V30 2470 C 236.929 -0.550994 1.5298 0
M  V30 2471 O 238.113 -0.494991 1.81885 0
M  V30 2472 C 235.24 -0.508525 3.34861 0
M  V30 2473 C 234.286 0.320808 4.25292 0
M  V30 2474 S 235.119 1.72658 5.06902 0
M  V30 2475 C 236.275 0.881394 6.19663 0
M  V30 2476 H 236.508 1.16674 2.73449 0
M  V30 2477 H 234.041 0.713384 1.36931 0
M  V30 2478 H 235.999 -0.994539 3.9827 0
M  V30 2479 H 234.66 -1.30571 2.85675 0
M  V30 2480 H 233.853 -0.330941 5.02912 0
M  V30 2481 H 233.455 0.74042 3.66598 0
M  V30 2482 H 235.747 0.110359 6.7741 0
M  V30 2483 H 236.69 1.63009 6.89082 0
M  V30 2484 H 237.098 0.430239 5.62858 0
M  V30 2485 N 236.496 -1.42363 0.676048 0
M  V30 2486 C 237.726 -2.05561 0.206967 0
M  V30 2487 C 238.134 -1.50887 -1.14148 0
M  V30 2488 O 237.477 -0.643933 -1.72044 0
M  V30 2489 C 237.539 -3.5944 0.0659508 0
M  V30 2490 C 237.203 -4.36812 1.34331 0
M  V30 2491 C 238.2 -4.67383 2.27704 0
M  V30 2492 C 235.885 -4.76429 1.59125 0
M  V30 2493 C 237.879 -5.36509 3.44147 0
M  V30 2494 C 235.566 -5.45294 2.75857 0
M  V30 2495 C 236.564 -5.75259 3.68193 0
M  V30 2496 O 236.252 -6.42712 4.82883 0
M  V30 2497 H 235.984 -0.668872 0.0979084 0
M  V30 2498 H 238.538 -1.83467 0.923531 0
M  V30 2499 H 236.768 -3.80197 -0.706204 0
M  V30 2500 H 238.457 -4.0427 -0.363418 0
M  V30 2501 H 239.223 -4.37275 2.09799 0
M  V30 2502 H 235.102 -4.52498 0.881258 0
M  V30 2503 H 238.646 -5.59814 4.16238 0
M  V30 2504 H 234.543 -5.7482 2.93688 0
M  V30 2505 H 235.311 -6.61204 4.82444 0
M  V30 2506 N 237.974 -0.419461 -1.51915 0
M  V30 2507 C 239.204 0.151915 -2.06041 0
M  V30 2508 C 239.612 1.38539 -1.28855 0
M  V30 2509 O 238.955 1.80592 -0.336463 0
M  V30 2510 C 239.017 0.557119 -3.55157 0
M  V30 2511 C 238.681 -0.567054 -4.53468 0
M  V30 2512 C 239.678 -1.43379 -4.99738 0
M  V30 2513 C 237.363 -0.742693 -4.96779 0
M  V30 2514 C 239.357 -2.46102 -5.87973 0
M  V30 2515 C 237.044 -1.77322 -5.84808 0
M  V30 2516 C 238.042 -2.63078 -6.30301 0
M  V30 2517 O 237.73 -3.64364 -7.16585 0
M  V30 2518 H 237.462 0.0193293 -0.675724 0
M  V30 2519 H 240.016 -0.592073 -1.96682 0
M  V30 2520 H 238.246 1.35355 -3.62238 0
M  V30 2521 H 239.935 1.05759 -3.9188 0
M  V30 2522 H 240.701 -1.30954 -4.66986 0
M  V30 2523 H 236.58 -0.0848307 -4.60922 0
M  V30 2524 H 240.124 -3.13071 -6.23404 0
M  V30 2525 H 236.021 -1.89773 -6.16974 0
M  V30 2526 H 236.789 -3.60731 -7.34721 0
M  V30 2527 N 239.452 1.56882 -0.150215 0
M  V30 2528 C 240.415 2.1573 0.774157 0
M  V30 2529 C 241.415 1.0999 1.17298 0
M  V30 2530 O 242.605 1.35613 1.09338 0
M  V30 2531 C 239.737 2.72302 2.05096 0
M  V30 2532 H 240.93 2.98752 0.262201 0
M  V30 2533 H 238.483 1.55985 0.099248 0
M  V30 2534 H 239.218 1.92956 2.6065 0
M  V30 2535 H 239.003 3.49665 1.77416 0
M  V30 2536 H 240.493 3.17632 2.71109 0
M  V30 2537 N 240.93 -0.123565 1.57115 0
M  V30 2538 C 241.86 -1.15309 2.03042 0
M  V30 2539 C 242.841 -1.43454 0.914061 0
M  V30 2540 O 244.026 -1.53973 1.18347 0
M  V30 2541 C 241.156 -2.48043 2.43089 0
M  V30 2542 C 240.11 -2.3437 3.58127 0
M  V30 2543 C 239.436 -3.72026 3.84059 0
M  V30 2544 C 240.736 -1.80804 4.90007 0
M  V30 2545 H 242.43 -0.771102 2.893 0
M  V30 2546 H 239.976 -0.369479 1.39179 0
M  V30 2547 H 241.929 -3.20311 2.73823 0
M  V30 2548 H 240.653 -2.88122 1.53796 0
M  V30 2549 H 239.312 -1.64551 3.27595 0
M  V30 2550 H 238.96 -4.09582 2.91979 0
M  V30 2551 H 238.66 -3.63732 4.6149 0
M  V30 2552 H 240.184 -4.45806 4.1724 0
M  V30 2553 H 241.598 -2.42886 5.19307 0
M  V30 2554 H 239.995 -1.83343 5.71407 0
M  V30 2555 H 241.065 -0.76528 4.78823 0
M  V30 2556 N 242.408 -1.52605 -0.393616 0
M  V30 2557 C 243.355 -1.77055 -1.48054 0
M  V30 2558 C 244.325 -0.61358 -1.54352 0
M  V30 2559 O 245.51 -0.852806 -1.70681 0
M  V30 2560 C 242.65 -1.94108 -2.85335 0
M  V30 2561 C 241.763 -3.21792 -2.88226 0
M  V30 2562 C 240.898 -3.29188 -4.16904 0
M  V30 2563 C 239.937 -4.51013 -4.13828 0
M  V30 2564 N 239.074 -4.55716 -5.34105 0
M  V30 2565 H 243.914 -2.69815 -1.26506 0
M  V30 2566 H 241.451 -1.33683 -0.61379 0
M  V30 2567 H 243.409 -2.01979 -3.65049 0
M  V30 2568 H 242.039 -1.04713 -3.05344 0
M  V30 2569 H 241.091 -3.23015 -2.00911 0
M  V30 2570 H 242.403 -4.11557 -2.8182 0
M  V30 2571 H 241.557 -3.36216 -5.05018 0
M  V30 2572 H 240.296 -2.37389 -4.26026 0
M  V30 2573 H 239.301 -4.44115 -3.24102 0
M  V30 2574 H 240.526 -5.44123 -4.06333 0
M  V30 2575 H 238.472 -3.66807 -5.43865 0
M  V30 2576 H 238.389 -5.39346 -5.29756 0
M  V30 2577 H 239.657 -4.66993 -6.2413 0
M  V30 2578 N 243.887 0.651787 -1.4349 0
M  V30 2579 C 245.133 1.41376 -1.45398 0
M  V30 2580 C 245.466 1.94041 -0.0784823 0
M  V30 2581 O 244.741 1.72379 0.900878 0
M  V30 2582 C 245.024 2.59414 -2.49752 0
M  V30 2583 C 244.877 2.12232 -3.96582 0
M  V30 2584 C 246.196 3.61626 -2.50827 0
M  V30 2585 H 243.315 0.512719 -0.529422 0
M  V30 2586 H 245.957 0.738796 -1.75048 0
M  V30 2587 H 244.107 3.16997 -2.246 0
M  V30 2588 H 245.779 1.59639 -4.32797 0
M  V30 2589 H 244.022 1.43592 -4.09346 0
M  V30 2590 H 244.693 2.9712 -4.65214 0
M  V30 2591 H 247.169 3.13805 -2.7325 0
M  V30 2592 H 246.045 4.41766 -3.25783 0
M  V30 2593 H 246.306 4.14314 -1.5426 0
M  V30 2594 N 245.365 1.30045 0.890287 0
M  V30 2595 C 246.611 1.19747 1.64415 0
M  V30 2596 C 246.966 -0.246591 1.90813 0
M  V30 2597 O 246.259 -1.174 1.51419 0
M  V30 2598 C 246.453 1.95409 2.99249 0
M  V30 2599 C 246.282 3.47025 2.86013 0
M  V30 2600 C 245.052 4.1638 2.86279 0
M  V30 2601 C 247.25 4.42353 2.62351 0
M  V30 2602 N 245.232 5.54293 2.63879 0
M  V30 2603 C 246.603 5.67792 2.49022 0
M  V30 2604 C 248.658 4.32009 2.47533 0
M  V30 2605 C 247.361 6.8406 2.22383 0
M  V30 2606 C 249.387 5.48038 2.22279 0
M  V30 2607 C 248.749 6.72455 2.09722 0
M  V30 2608 H 244.848 0.493223 0.60684 0
M  V30 2609 H 247.432 1.6399 1.04954 0
M  V30 2610 H 245.603 1.53565 3.56752 0
M  V30 2611 H 247.335 1.77298 3.63796 0
M  V30 2612 H 244.09 3.68164 2.97913 0
M  V30 2613 H 244.514 6.26852 2.55706 0
M  V30 2614 H 249.156 3.36503 2.55979 0
M  V30 2615 H 246.874 7.79612 2.12675 0
M  V30 2616 H 250.46 5.41939 2.11643 0
M  V30 2617 H 249.34 7.60722 1.90453 0
M  V30 2618 N 246.843 -1.10192 1.12674 0
M  V30 2619 C 248.068 -1.86523 0.906853 0
M  V30 2620 C 248.493 -1.80221 -0.538711 0
M  V30 2621 O 247.851 -1.17396 -1.38158 0
M  V30 2622 C 247.899 -3.32758 1.3894 0
M  V30 2623 O 247.003 -4.08449 0.5695 0
M  V30 2624 H 246.344 -0.578678 0.325619 0
M  V30 2625 H 248.874 -1.39203 1.49946 0
M  V30 2626 H 248.884 -3.83608 1.38958 0
M  V30 2627 H 247.559 -3.36661 2.44197 0
M  V30 2628 H 246.136 -3.67427 0.636528 0
M  V30 2629 N 248.321 -0.919034 -1.28029 0
M  V30 2630 C 249.598 -0.473668 -1.89778 0
M  V30 2631 C 249.978 1.04783 -1.83259 0
M  V30 2632 O 249.326 1.8982 -1.27202 0
M  V30 2633 C 249.536 -1.00998 -3.34066 0
M  V30 2634 C 250.884 -1.06525 -4.1102 0
M  V30 2635 O 251.908 -0.958996 -3.43048 0
M  V30 2636 O 250.767 -1.22776 -5.3253 0
M  V30 2637 H 247.861 -0.15098 -0.813101 0
M  V30 2638 H 250.407 -1.01016 -1.36359 0
M  V30 2639 H 249.179 -2.05392 -3.33061 0
M  V30 2640 H 248.802 -0.454626 -3.94992 0
M  V30 2641 N 249.799 1.42003 -0.683588 0
M  V30 2642 C 251.048 2.00638 -0.206681 0
M  V30 2643 C 251.361 1.5472 1.19671 0
M  V30 2644 O 252.567 2.05833 1.77045 0
M  V30 2645 C 251.023 3.58487 -0.318632 0
M  V30 2646 C 250.631 4.1339 -1.72663 0
M  V30 2647 C 252.375 4.24384 0.0991141 0
M  V30 2648 C 250.282 5.63633 -1.79087 0
M  V30 2649 H 249.212 0.750408 -0.0735107 0
M  V30 2650 H 251.863 1.62624 -0.850048 0
M  V30 2651 H 250.245 3.94047 0.392781 0
M  V30 2652 H 251.419 3.89273 -2.46583 0
M  V30 2653 H 249.734 3.59976 -2.09299 0
M  V30 2654 H 252.331 5.34652 0.0713833 0
M  V30 2655 H 252.674 4.00505 1.13586 0
M  V30 2656 H 253.207 3.93816 -0.561599 0
M  V30 2657 H 249.946 5.92323 -2.80774 0
M  V30 2658 H 249.466 5.89714 -1.09535 0
M  V30 2659 H 251.145 6.28201 -1.5483 0
M  V30 2660 N 251.277 0.427512 1.51691 0
M  V30 2661 C 252.24 -0.377132 2.26076 0
M  V30 2662 C 253.24 -0.958089 1.29141 0
M  V30 2663 O 254.43 -0.83408 1.52934 0
M  V30 2664 C 251.562 -1.53262 3.04506 0
M  V30 2665 H 252.755 0.27464 2.9864 0
M  V30 2666 H 250.308 0.180445 1.55255 0
M  V30 2667 H 251.043 -2.22072 2.36335 0
M  V30 2668 H 250.828 -1.12232 3.75694 0
M  V30 2669 H 252.318 -2.10135 3.60878 0
M  V30 2670 N 252.755 -1.56801 0.158532 0
M  V30 2671 C 254.166 -1.83189 -0.360366 0
M  V30 2672 C 254.517 -1.07778 -1.63946 0
M  V30 2673 O 253.642 -0.326718 -2.13919 0
M  V30 2674 C 254.237 -3.32297 -0.660595 0
M  V30 2675 C 252.796 -3.59227 -1.12398 0
M  V30 2676 C 251.943 -2.76877 -0.153097 0
M  V30 2677 H 254.894 -1.54008 0.383031 0
M  V30 2678 H 254.915 -3.4908 -1.51405 0
M  V30 2679 H 254.427 -3.87156 0.270527 0
M  V30 2680 H 252.528 -3.09766 -2.07064 0
M  V30 2681 H 252.641 -4.67632 -1.04197 0
M  V30 2682 H 251.005 -2.46319 -0.647983 0
M  V30 2683 H 251.788 -3.34511 0.77182 0
M  V30 2684 N 254.233 0.115231 -1.57178 0
M  V30 2685 C 255.163 1.1423 -2.03651 0
M  V30 2686 C 256.144 1.42967 -0.921655 0
M  V30 2687 O 257.329 1.53343 -1.19162 0
M  V30 2688 C 254.459 2.4675 -2.44401 0
M  V30 2689 C 253.413 2.32467 -3.59365 0
M  V30 2690 C 252.739 3.69984 -3.86026 0
M  V30 2691 C 254.039 1.78203 -4.90959 0
M  V30 2692 H 255.733 0.755749 -2.89705 0
M  V30 2693 H 253.279 0.362093 -1.39373 0
M  V30 2694 H 255.232 3.18854 -2.75517 0
M  V30 2695 H 253.956 2.87302 -1.55322 0
M  V30 2696 H 252.615 1.62811 -3.28463 0
M  V30 2697 H 252.263 4.08028 -2.94147 0
M  V30 2698 H 251.963 3.61279 -4.63412 0
M  V30 2699 H 253.487 4.43587 -4.19599 0
M  V30 2700 H 254.901 2.40128 -5.20587 0
M  V30 2701 H 253.298 1.8031 -5.72371 0
M  V30 2702 H 254.368 0.739876 -4.79222 0
M  V30 2703 N 255.711 1.52812 0.385517 0
M  V30 2704 C 256.659 1.78482 1.49155 0
M  V30 2705 C 257.653 0.652914 1.56312 0
M  V30 2706 O 258.859 0.835464 1.59436 0
M  V30 2707 H 255.234 0.5648 0.496493 0
M  V30 2708 H 257.205 2.71095 1.24699 0
M  V30 2709 C 255.954 1.97378 2.86247 0
M  V30 2710 H 255.277 2.83907 2.81491 0
M  V30 2711 H 256.717 2.19327 3.62866 0
M  V30 2712 C 255.176 0.74728 3.28508 0
M  V30 2713 O 255.706 -0.0736232 4.01633 0
M  V30 2714 N 253.912 0.576396 2.84826 0
M  V30 2715 H 253.459 1.24555 2.25486 0
M  V30 2716 H 253.417 -0.24288 3.1346 0
M  V30 2717 N 257.189 -0.644168 1.43834 0
M  V30 2718 C 258.436 -1.40395 1.4593 0
M  V30 2719 C 258.764 -1.94305 0.0869658 0
M  V30 2720 O 258.019 -1.73288 -0.909378 0
M  V30 2721 C 258.318 -2.59615 2.45631 0
M  V30 2722 C 257.984 -2.2407 3.91284 0
M  V30 2723 C 256.646 -2.14089 4.30952 0
M  V30 2724 C 258.998 -1.95775 4.83034 0
M  V30 2725 C 256.326 -1.73981 5.6031 0
M  V30 2726 C 258.678 -1.57163 6.12766 0
M  V30 2727 C 257.342 -1.45713 6.51402 0
M  V30 2728 H 256.612 -0.513741 0.533995 0
M  V30 2729 H 259.259 -0.731724 1.76969 0
M  V30 2730 H 257.564 -3.32011 2.08028 0
M  V30 2731 H 259.261 -3.17834 2.44504 0
M  V30 2732 H 255.851 -2.32753 3.59895 0
M  V30 2733 H 260.035 -2.02403 4.53152 0
M  V30 2734 H 255.291 -1.63709 5.89075 0
M  V30 2735 H 259.465 -1.34303 6.83327 0
M  V30 2736 H 257.092 -1.14406 7.51542 0
M  V30 2737 N 258.668 -1.30515 -0.883378 0
M  V30 2738 C 259.618 -1.13641 -1.9766 0
M  V30 2739 C 260.602 -0.0511314 -1.60819 0
M  V30 2740 O 261.794 -0.274623 -1.74857 0
M  V30 2741 C 258.923 -0.831976 -3.33066 0
M  V30 2742 C 258.009 -1.95759 -3.76217 0
M  V30 2743 N 258.4 -3.20313 -3.9145 0
M  V30 2744 C 256.698 -1.85431 -4.05625 0
M  V30 2745 C 257.399 -3.93856 -4.2808 0
M  V30 2746 N 256.375 -3.21919 -4.38029 0
M  V30 2747 H 260.177 -2.08106 -2.07531 0
M  V30 2748 H 257.691 -1.21877 -1.0733 0
M  V30 2749 H 259.688 -0.692102 -4.11115 0
M  V30 2750 H 258.348 0.104588 -3.24532 0
M  V30 2751 H 259.359 -3.55583 -3.76538 0
M  V30 2752 H 256.036 -0.991531 -4.05555 0
M  V30 2753 H 257.426 -5.01125 -4.47575 0
M  V30 2754 N 260.146 1.09593 -1.13257 0
M  V30 2755 C 261.056 2.19739 -0.821691 0
M  V30 2756 C 262.072 1.72926 0.19302 0
M  V30 2757 O 263.248 2.01385 0.0244895 0
M  V30 2758 C 260.313 3.45482 -0.290333 0
M  V30 2759 C 259.374 4.06985 -1.36607 0
M  V30 2760 C 258.607 5.26726 -0.859975 0
M  V30 2761 O 258.83 5.69594 0.303082 0
M  V30 2762 O 257.764 5.7931 -1.63351 0
M  V30 2763 H 261.59 2.48781 -1.74189 0
M  V30 2764 H 259.175 1.18496 -0.909894 0
M  V30 2765 H 261.057 4.214 0.000674022 0
M  V30 2766 H 259.732 3.18047 0.602306 0
M  V30 2767 H 258.639 3.32712 -1.71037 0
M  V30 2768 H 259.972 4.38643 -2.23279 0
M  V30 2769 N 261.624 0.925811 1.2754 0
M  V30 2770 C 262.87 0.566092 1.94739 0
M  V30 2771 C 263.203 -0.890057 1.72603 0
M  V30 2772 O 262.478 -1.63467 1.05399 0
M  V30 2773 C 262.761 0.89054 3.48915 0
M  V30 2774 C 262.614 2.4003 3.80402 0
M  V30 2775 C 263.933 0.395101 4.38323 0
M  V30 2776 H 261.052 0.20714 0.707292 0
M  V30 2777 H 263.694 1.15725 1.50691 0
M  V30 2778 H 261.844 0.387452 3.86563 0
M  V30 2779 H 263.516 2.97494 3.52555 0
M  V30 2780 H 261.759 2.85028 3.2702 0
M  V30 2781 H 262.43 2.57785 4.8811 0
M  V30 2782 H 264.906 0.826241 4.07814 0
M  V30 2783 H 263.782 0.651086 5.45025 0
M  V30 2784 H 264.043 -0.704798 4.36446 0
M  V30 2785 N 263.102 -1.41638 0.69111 0
M  V30 2786 C 264.065 -2.29178 0.0319786 0
M  V30 2787 C 265.065 -1.44153 -0.712496 0
M  V30 2788 O 266.255 -1.65354 -0.548053 0
M  V30 2789 C 263.387 -3.26952 -0.965161 0
M  V30 2790 H 264.58 -2.88959 0.802681 0
M  V30 2791 H 262.133 -1.4955 0.454356 0
M  V30 2792 H 262.868 -2.72142 -1.76378 0
M  V30 2793 H 262.653 -3.89685 -0.434522 0
M  V30 2794 H 264.143 -3.92561 -1.42428 0
M  V30 2795 N 264.58 -0.43555 -1.51462 0
M  V30 2796 C 265.828 0.131254 -2.01673 0
M  V30 2797 C 266.149 1.43368 -1.32177 0
M  V30 2798 O 265.419 1.90524 -0.455769 0
M  V30 2799 H 263.999 0.0514954 -0.745223 0
M  V30 2800 H 266.661 -0.577847 -1.86137 0
M  V30 2801 H 265.757 0.308446 -3.10572 0
M  V30 2802 N 266.058 1.56714 -0.166846 0
M  V30 2803 C 267.283 2.01557 0.488833 0
M  V30 2804 C 267.708 1.0463 1.56314 0
M  V30 2805 O 267.066 0.0251304 1.81283 0
M  V30 2806 C 267.114 3.4503 1.04818 0
M  V30 2807 O 266.218 3.51163 2.16236 0
M  V30 2808 H 265.559 0.653516 0.117526 0
M  V30 2809 H 268.089 2.02818 -0.269421 0
M  V30 2810 H 268.099 3.84243 1.37191 0
M  V30 2811 H 266.774 4.15077 0.261572 0
M  V30 2812 H 265.351 3.23807 1.84942 0
M  V30 2813 N 267.536 -0.106894 1.57237 0
M  V30 2814 C 268.499 -1.11466 2.0027 0
M  V30 2815 C 269.499 -1.33623 0.894519 0
M  V30 2816 O 270.689 -1.29935 1.16028 0
M  V30 2817 C 267.821 -2.46646 2.35327 0
M  V30 2818 H 269.014 -0.744516 2.90512 0
M  V30 2819 H 266.567 -0.351576 1.52295 0
M  V30 2820 H 267.302 -2.88558 1.48003 0
M  V30 2821 H 267.087 -2.31915 3.16161 0
M  V30 2822 H 268.577 -3.19151 2.69318 0
M  V30 2823 N 269.014 -1.53014 -0.377408 0
M  V30 2824 C 269.977 -1.77957 -1.44444 0
M  V30 2825 C 270.977 -0.649763 -1.47087 0
M  V30 2826 O 272.167 -0.917897 -1.48055 0
M  V30 2827 C 269.299 -1.89089 -2.83651 0
M  V30 2828 H 270.492 -2.73243 -1.23606 0
M  V30 2829 H 268.045 -1.43912 -0.609844 0
M  V30 2830 H 268.78 -0.958293 -3.09818 0
M  V30 2831 H 268.565 -2.71254 -2.83132 0
M  V30 2832 H 270.055 -2.1002 -3.60945 0
M  V30 2833 N 270.492 0.636531 -1.44174 0
M  V30 2834 C 271.769 1.39463 -1.37148 0
M  V30 2835 C 272.149 2.11082 -0.027507 0
M  V30 2836 O 271.497 2.05954 0.989716 0
M  V30 2837 C 271.707 2.36552 -2.56601 0
M  V30 2838 C 273.055 3.00048 -3.00427 0
M  V30 2839 O 274.079 2.46878 -2.56767 0
M  V30 2840 O 272.938 3.96488 -3.76111 0
M  V30 2841 H 270.032 0.623903 -0.542839 0
M  V30 2842 H 272.578 0.662039 -1.56253 0
M  V30 2843 H 271.35 1.82692 -3.46034 0
M  V30 2844 H 270.973 3.17236 -2.39681 0
M  V30 2845 N 271.97 1.30982 0.876444 0
M  V30 2846 C 273.219 1.19658 1.62373 0
M  V30 2847 C 273.532 -0.245636 1.94052 0
M  V30 2848 O 274.738 -0.48049 2.67214 0
M  V30 2849 C 273.194 2.09433 2.92687 0
M  V30 2850 C 272.802 3.58613 2.68516 0
M  V30 2851 C 274.546 2.06893 3.70669 0
M  V30 2852 C 272.453 4.40416 3.94699 0
M  V30 2853 H 271.383 0.444268 0.609214 0
M  V30 2854 H 274.034 1.55791 0.969605 0
M  V30 2855 H 272.416 1.66191 3.59439 0
M  V30 2856 H 273.59 4.10058 2.10212 0
M  V30 2857 H 271.905 3.63063 2.03898 0
M  V30 2858 H 274.502 2.65258 4.64265 0
M  V30 2859 H 274.845 1.05448 4.02724 0
M  V30 2860 H 275.378 2.48301 3.10792 0
M  V30 2861 H 272.117 5.42591 3.67798 0
M  V30 2862 H 271.637 3.93731 4.52477 0
M  V30 2863 H 273.316 4.52294 4.62644 0
M  V30 2864 N 273.449 -1.08991 1.13837 0
M  V30 2865 C 274.381 -2.15606 0.777612 0
M  V30 2866 C 275.394 -1.61533 -0.202739 0
M  V30 2867 O 276.583 -1.78491 0.0181055 0
M  V30 2868 C 273.683 -3.3864 0.132623 0
M  V30 2869 C 272.856 -4.22115 1.1462 0
M  V30 2870 C 271.915 -5.23564 0.526074 0
M  V30 2871 O 270.941 -5.56678 1.18735 0
M  V30 2872 N 272.143 -5.76266 -0.699866 0
M  V30 2873 H 274.908 -2.47159 1.69506 0
M  V30 2874 H 272.469 -1.24747 1.03198 0
M  V30 2875 H 274.461 -4.03626 -0.29459 0
M  V30 2876 H 273.031 -3.04938 -0.687849 0
M  V30 2877 H 272.251 -3.53199 1.75055 0
M  V30 2878 H 273.539 -4.74709 1.83109 0
M  V30 2879 H 272.937 -5.51585 -1.25581 0
M  V30 2880 H 271.494 -6.42963 -1.06968 0
M  V30 2881 N 274.927 -0.932562 -1.27047 0
M  V30 2882 C 276.176 -0.571351 -1.93439 0
M  V30 2883 C 276.489 0.892467 -1.74053 0
M  V30 2884 O 277.695 1.36267 -2.34826 0
M  V30 2885 C 276.151 -0.97106 -3.46552 0
M  V30 2886 C 275.759 -2.4559 -3.74686 0
M  V30 2887 C 277.503 -0.681333 -4.18997 0
M  V30 2888 C 275.41 -2.79475 -5.21198 0
M  V30 2889 H 274.34 -0.209966 -0.724176 0
M  V30 2890 H 276.991 -1.13403 -1.44263 0
M  V30 2891 H 275.373 -0.336983 -3.94564 0
M  V30 2892 H 276.547 -3.13829 -3.37414 0
M  V30 2893 H 274.862 -2.71802 -3.15456 0
M  V30 2894 H 277.459 -0.910939 -5.26883 0
M  V30 2895 H 277.802 0.381628 -4.14547 0
M  V30 2896 H 278.335 -1.27473 -3.76823 0
M  V30 2897 H 275.074 -3.847 -5.30741 0
M  V30 2898 H 274.594 -2.1589 -5.596 0
M  V30 2899 H 276.273 -2.67478 -5.89122 0
M  V30 2900 N 276.405 1.4127 -0.698611 0
M  V30 2901 C 277.682 1.94955 -0.158762 0
M  V30 2902 C 278.062 1.63781 1.33188 0
M  V30 2903 O 277.41 0.946423 2.07979 0
M  V30 2904 C 277.62 3.46044 -0.453309 0
M  V30 2905 C 278.968 4.22872 -0.382707 0
M  V30 2906 O 279.992 3.54076 -0.388396 0
M  V30 2907 O 278.851 5.45407 -0.345463 0
M  V30 2908 H 275.945 0.82683 -0.0167505 0
M  V30 2909 H 278.491 1.50971 -0.77498 0
M  V30 2910 H 277.263 3.62028 -1.48498 0
M  V30 2911 H 276.886 3.97128 0.19373 0
M  V30 2912 N 277.883 0.443576 1.51229 0
M  V30 2913 C 279.13 -0.120796 2.02139 0
M  V30 2914 C 279.458 -1.42166 1.32736 0
M  V30 2915 O 278.713 -1.90849 0.43301 0
M  V30 2916 C 279.012 -0.380579 3.55368 0
M  V30 2917 C 278.678 0.83523 4.43097 0
M  V30 2918 C 277.34 1.16864 4.66794 0
M  V30 2919 C 279.692 1.64601 4.94526 0
M  V30 2920 C 277.02 2.31339 5.39165 0
M  V30 2921 C 279.372 2.78181 5.68153 0
M  V30 2922 C 278.036 3.11969 5.90112 0
M  V30 2923 H 277.306 -0.0442023 0.73968 0
M  V30 2924 H 279.953 0.592046 1.82118 0
M  V30 2925 H 278.258 -1.17538 3.73754 0
M  V30 2926 H 279.955 -0.830777 3.923 0
M  V30 2927 H 276.545 0.565437 4.24854 0
M  V30 2928 H 280.729 1.40163 4.76097 0
M  V30 2929 H 275.985 2.57823 5.5438 0
M  V30 2930 H 280.159 3.41371 6.06992 0
M  V30 2931 H 277.786 4.00784 6.45969 0
M  V30 2932 N 279.361 -1.56624 0.175154 0
M  V30 2933 C 280.586 -2.01813 -0.478137 0
M  V30 2934 C 281.011 -1.05457 -1.55757 0
M  V30 2935 O 280.369 -0.0347439 -1.81267 0
M  V30 2936 C 280.417 -3.45581 -1.02987 0
M  V30 2937 O 279.521 -3.52305 -2.14371 0
M  V30 2938 H 278.862 -0.65413 -0.114059 0
M  V30 2939 H 281.392 -2.02673 0.280173 0
M  V30 2940 H 281.402 -3.84965 -1.35151 0
M  V30 2941 H 280.077 -4.1521 -0.239556 0
M  V30 2942 H 278.654 -3.24783 -1.83222 0
M  V30 2943 N 280.839 0.0985539 -1.57292 0
M  V30 2944 C 281.786 1.11981 -2.01814 0
M  V30 2945 C 282.756 1.39999 -0.89384 0
M  V30 2946 O 283.941 1.5152 -1.15958 0
M  V30 2947 C 281.081 2.43577 -2.44467 0
M  V30 2948 C 280.194 2.2232 -3.70402 0
M  V30 2949 C 279.329 3.4729 -4.01949 0
M  V30 2950 C 278.368 3.2128 -5.21005 0
M  V30 2951 N 277.505 4.38507 -5.48321 0
M  V30 2952 H 282.345 0.733149 -2.88841 0
M  V30 2953 H 279.882 0.350482 -1.42864 0
M  V30 2954 H 281.84 3.20373 -2.6724 0
M  V30 2955 H 280.47 2.80097 -1.60455 0
M  V30 2956 H 279.522 1.36343 -3.55126 0
M  V30 2957 H 280.834 1.99089 -4.57345 0
M  V30 2958 H 279.988 4.32495 -4.25479 0
M  V30 2959 H 278.727 3.73572 -3.13521 0
M  V30 2960 H 277.732 2.34468 -4.97298 0
M  V30 2961 H 278.957 2.96348 -6.11028 0
M  V30 2962 H 276.903 4.64871 -4.62851 0
M  V30 2963 H 276.82 4.18455 -6.29628 0
M  V30 2964 H 278.088 5.24787 -5.76385 0
M  V30 2965 N 282.317 1.53212 0.369288 0
M  V30 2966 C 283.28 1.7872 1.43498 0
M  V30 2967 C 284.28 0.657554 1.46741 0
M  V30 2968 O 285.47 0.925736 1.47566 0
M  V30 2969 C 282.602 1.90591 2.82645 0
M  V30 2970 H 283.795 2.73894 1.22156 0
M  V30 2971 H 281.348 1.44233 0.602203 0
M  V30 2972 H 282.083 0.974709 3.09306 0
M  V30 2973 H 281.868 2.72751 2.8169 0
M  V30 2974 H 283.358 2.11931 3.59826 0
M  V30 2975 N 283.795 -0.628877 1.44509 0
M  V30 2976 C 285.072 -1.38733 1.37886 0
M  V30 2977 C 285.452 -2.11065 0.0387008 0
M  V30 2978 O 284.8 -2.06476 -0.97878 0
M  V30 2979 C 285.01 -2.35188 2.57852 0
M  V30 2980 C 286.358 -2.9845 3.02014 0
M  V30 2981 O 287.382 -2.45513 2.58073 0
M  V30 2982 O 286.241 -3.94487 3.78209 0
M  V30 2983 H 283.335 -0.621015 0.54614 0
M  V30 2984 H 285.881 -0.653744 1.56602 0
M  V30 2985 H 284.653 -1.80855 3.46998 0
M  V30 2986 H 284.276 -3.1596 2.4136 0
M  V30 2987 N 285.273 -1.31445 -0.869486 0
M  V30 2988 C 286.223 -1.15731 -1.96444 0
M  V30 2989 C 287.207 -0.0681855 -1.60755 0
M  V30 2990 O 288.399 -0.293154 -1.74555 0
M  V30 2991 C 285.528 -0.867255 -3.32165 0
M  V30 2992 C 284.614 -1.99738 -3.74119 0
M  V30 2993 N 285.005 -3.24447 -3.88031 0
M  V30 2994 C 283.303 -1.89723 -4.03635 0
M  V30 2995 C 284.004 -3.98374 -4.23879 0
M  V30 2996 N 282.98 -3.26547 -4.3459 0
M  V30 2997 H 286.782 -2.10296 -2.05312 0
M  V30 2998 H 284.296 -1.23009 -1.06031 0
M  V30 2999 H 286.293 -0.735668 -4.10358 0
M  V30 3000 H 284.953 0.0701614 -3.24624 0
M  V30 3001 H 285.964 -3.59557 -3.72746 0
M  V30 3002 H 282.641 -1.03449 -4.04481 0
M  V30 3003 H 284.031 -5.05844 -4.42235 0
M  V30 3004 N 286.751 1.08385 -1.14413 0
M  V30 3005 C 287.699 2.17406 -0.826888 0
M  V30 3006 C 288.693 1.6827 0.195312 0
M  V30 3007 O 289.899 1.79927 0.0513892 0
M  V30 3008 H 286.274 0.70934 -0.249681 0
M  V30 3009 H 288.245 2.41388 -1.75426 0
M  V30 3010 C 286.994 3.46215 -0.320979 0
M  V30 3011 H 286.317 3.84401 -1.0989 0
M  V30 3012 H 287.757 4.23777 -0.137549 0
M  V30 3013 C 286.216 3.23067 0.955472 0
M  V30 3014 O 286.746 3.4668 2.02918 0
M  V30 3015 N 284.952 2.7661 0.890798 0
M  V30 3016 H 284.499 2.57594 0.0168815 0
M  V30 3017 H 284.457 2.61501 1.74542 0
M  V30 3018 N 288.23 0.939286 1.26551 0
M  V30 3019 C 289.507 0.5038 1.89001 0
M  V30 3020 C 289.887 -1.01854 1.84903 0
M  V30 3021 O 289.235 -1.87773 1.30206 0
M  V30 3022 C 289.445 1.063 3.32417 0
M  V30 3023 C 290.793 1.13051 4.09273 0
M  V30 3024 O 291.817 1.01345 3.41479 0
M  V30 3025 O 290.676 1.31233 5.30509 0
M  V30 3026 H 287.77 0.163897 0.810597 0
M  V30 3027 H 290.316 1.03173 1.34735 0
M  V30 3028 H 289.088 2.10665 3.29752 0
M  V30 3029 H 288.711 0.517408 3.94219 0
M  V30 3030 N 289.708 -1.40897 0.706093 0
M  V30 3031 C 290.956 -2.00657 0.241054 0
M  V30 3032 C 291.277 -1.56241 -1.16678 0
M  V30 3033 O 290.547 -0.79765 -1.78926 0
M  V30 3034 H 289.127 -0.742018 0.0861308 0
M  V30 3035 H 291.789 -1.72372 0.909604 0
M  V30 3036 H 290.885 -3.10958 0.266705 0
M  V30 3037 N 291.186 -0.45159 -1.50991 0
M  V30 3038 C 292.416 0.108177 -2.06317 0
M  V30 3039 C 292.824 1.35774 -1.31765 0
M  V30 3040 O 292.167 1.79838 -0.374694 0
M  V30 3041 C 292.229 0.481659 -3.56259 0
M  V30 3042 C 291.893 -0.663114 -4.52163 0
M  V30 3043 C 292.89 -1.53947 -4.96585 0
M  V30 3044 C 290.575 -0.8479 -4.95092 0
M  V30 3045 C 292.569 -2.58518 -5.82621 0
M  V30 3046 C 290.256 -1.89686 -5.80915 0
M  V30 3047 C 291.254 -2.76388 -6.24579 0
M  V30 3048 O 290.942 -3.79482 -7.08695 0
M  V30 3049 H 290.674 0.00499183 -0.675982 0
M  V30 3050 H 293.228 -0.633659 -1.95381 0
M  V30 3051 H 291.458 1.27641 -3.65027 0
M  V30 3052 H 293.147 0.974233 -3.94035 0
M  V30 3053 H 293.913 -1.4083 -4.64103 0
M  V30 3054 H 289.792 -0.18258 -4.60638 0
M  V30 3055 H 293.336 -3.26224 -6.16623 0
M  V30 3056 H 289.233 -2.02817 -6.12809 0
M  V30 3057 H 290.001 -3.76234 -7.26905 0
M  V30 3058 N 292.664 1.56529 -0.183458 0
M  V30 3059 C 294.075 1.83739 0.331177 0
M  V30 3060 C 294.426 1.10373 1.62211 0
M  V30 3061 O 293.551 0.36071 2.13373 0
M  V30 3062 C 294.146 3.33306 0.607646 0
M  V30 3063 C 292.705 3.60969 1.06668 0
M  V30 3064 C 291.852 2.77086 0.109029 0
M  V30 3065 H 294.803 1.53379 -0.407484 0
M  V30 3066 H 294.824 3.51444 1.45832 0
M  V30 3067 H 294.336 3.86677 -0.332086 0
M  V30 3068 H 292.437 3.13021 2.0211 0
M  V30 3069 H 292.55 4.69231 0.967447 0
M  V30 3070 H 290.914 2.47319 0.608714 0
M  V30 3071 H 291.697 3.33241 -0.82494 0
M  V30 3072 N 294.142 -0.090211 1.57342 0
M  V30 3073 C 295.389 -0.792807 1.86335 0
M  V30 3074 C 295.717 -1.78494 0.772662 0
M  V30 3075 O 294.972 -1.94305 -0.233258 0
M  V30 3076 C 295.271 -1.55222 3.21933 0
M  V30 3077 C 294.937 -0.701765 4.45406 0
M  V30 3078 C 293.599 -0.467334 4.78925 0
M  V30 3079 C 295.951 -0.11086 5.21082 0
M  V30 3080 C 293.279 0.367785 5.85546 0
M  V30 3081 C 295.631 0.711609 6.28585 0
M  V30 3082 C 294.295 0.956086 6.60617 0
M  V30 3083 H 293.565 -0.290109 0.681849 0
M  V30 3084 H 296.212 -0.0541332 1.91423 0
M  V30 3085 H 294.517 -2.3626 3.12551 0
M  V30 3086 H 296.214 -2.10032 3.41595 0
M  V30 3087 H 292.804 -0.894598 4.1916 0
M  V30 3088 H 296.988 -0.279129 4.95514 0
M  V30 3089 H 292.244 0.566128 6.08773 0
M  V30 3090 H 296.418 1.17632 6.86393 0
M  V30 3091 H 294.045 1.60499 7.43064 0
M  V30 3092 N 295.62 -1.53406 -0.361157 0
M  V30 3093 C 296.897 -1.60411 -1.11927 0
M  V30 3094 C 297.277 -0.414385 -2.06993 0
M  V30 3095 O 296.625 0.594976 -2.20618 0
M  V30 3096 C 296.835 -2.95652 -1.85448 0
M  V30 3097 C 298.183 -3.50386 -2.39823 0
M  V30 3098 O 299.207 -2.97711 -1.95568 0
M  V30 3099 O 298.066 -4.42482 -3.20737 0
M  V30 3100 H 295.16 -0.64811 -0.513695 0
M  V30 3101 H 297.706 -1.65749 -0.364065 0
M  V30 3102 H 296.478 -3.73682 -1.16091 0
M  V30 3103 H 296.101 -2.93825 -2.67866 0
M  V30 3104 N 297.098 0.621204 -1.44841 0
M  V30 3105 C 298.346 1.37783 -1.47852 0
M  V30 3106 C 298.667 1.94653 -0.116224 0
M  V30 3107 O 297.937 1.76367 0.852737 0
M  V30 3108 H 296.517 0.511453 -0.544449 0
M  V30 3109 H 299.179 0.730446 -1.80694 0
M  V30 3110 H 298.275 2.20414 -2.20961 0
M  V30 3111 N 298.576 1.31904 0.862503 0
M  V30 3112 C 299.987 1.19803 1.43193 0
M  V30 3113 C 300.338 -0.192567 1.95253 0
M  V30 3114 O 299.463 -1.09081 1.86896 0
M  V30 3115 C 300.058 2.16883 2.60283 0
M  V30 3116 C 298.617 2.08692 3.13248 0
M  V30 3117 C 297.764 2.05691 1.85975 0
M  V30 3118 H 300.715 1.43846 0.670365 0
M  V30 3119 H 300.736 1.76278 3.37204 0
M  V30 3120 H 300.248 3.18083 2.22363 0
M  V30 3121 H 298.349 1.10713 3.55771 0
M  V30 3122 H 298.462 2.9815 3.75025 0
M  V30 3123 H 296.826 1.50814 2.05249 0
M  V30 3124 H 297.609 3.08659 1.50282 0
M  V30 3125 N 300.054 -1.07777 1.14986 0
M  V30 3126 C 301.302 -1.79934 0.920235 0
M  V30 3127 C 301.623 -1.86955 -0.554336 0
M  V30 3128 O 300.893 -1.36731 -1.40291 0
M  V30 3129 H 299.473 -0.666424 0.337473 0
M  V30 3130 H 302.135 -1.3027 1.44968 0
M  V30 3131 H 301.231 -2.82539 1.32583 0
M  V30 3132 N 301.532 -0.945985 -1.26051 0
M  V30 3133 C 302.78 -0.594941 -1.93145 0
M  V30 3134 C 303.101 0.86953 -1.7454 0
M  V30 3135 O 302.371 1.61838 -1.10387 0
M  V30 3136 H 300.951 -0.217044 -0.714773 0
M  V30 3137 H 303.613 -1.20235 -1.53393 0
M  V30 3138 H 302.709 -0.816835 -3.01221 0
M  V30 3139 N 303.011 1.40521 -0.713556 0
M  V30 3140 C 304.239 2.05237 -0.261775 0
M  V30 3141 C 304.654 1.53755 1.09567 0
M  V30 3142 O 304.011 0.693268 1.6882 0
M  V30 3143 C 304.062 3.60763 -0.230706 0
M  V30 3144 O 303.783 4.10345 -1.53455 0
M  V30 3145 C 305.284 4.42651 0.239874 0
M  V30 3146 H 302.504 0.660533 -0.118057 0
M  V30 3147 H 305.048 1.79967 -0.971192 0
M  V30 3148 H 303.203 3.8501 0.429661 0
M  V30 3149 H 303.617 5.04526 -1.43366 0
M  V30 3150 H 305.091 5.51599 0.210468 0
M  V30 3151 H 305.568 4.20082 1.28171 0
M  V30 3152 H 306.174 4.23507 -0.390142 0
M  V30 3153 N 304.489 0.459591 1.5075 0
M  V30 3154 C 305.735 -0.0994966 2.02556 0
M  V30 3155 C 306.068 -1.40399 1.3417 0
M  V30 3156 O 305.343 -1.88892 0.463683 0
M  V30 3157 C 305.626 -0.295242 3.58888 0
M  V30 3158 C 305.479 1.02947 4.37861 0
M  V30 3159 C 306.798 -1.05502 4.27267 0
M  V30 3160 H 303.917 -0.034686 0.736183 0
M  V30 3161 H 306.559 0.602938 1.8018 0
M  V30 3162 H 304.709 -0.893563 3.78084 0
M  V30 3163 H 306.381 1.66348 4.30263 0
M  V30 3164 H 304.624 1.62885 4.02058 0
M  V30 3165 H 305.295 0.846281 5.45474 0
M  V30 3166 H 307.771 -0.547993 4.12476 0
M  V30 3167 H 306.647 -1.16077 5.36486 0
M  V30 3168 H 306.908 -2.08875 3.89645 0
M  V30 3169 N 305.967 -1.56429 0.191757 0
M  V30 3170 C 306.93 -2.17707 -0.716688 0
M  V30 3171 C 307.93 -1.13061 -1.14341 0
M  V30 3172 O 309.12 -1.38464 -1.05704 0
M  V30 3173 C 306.252 -2.77644 -1.97804 0
M  V30 3174 H 307.445 -2.99342 -0.1829 0
M  V30 3175 H 304.998 -1.56193 -0.0578566 0
M  V30 3176 H 305.733 -1.99799 -2.55443 0
M  V30 3177 H 305.518 -3.54246 -1.68083 0
M  V30 3178 H 307.008 -3.24708 -2.62592 0
M  V30 3179 N 307.445 0.0818655 -1.57387 0
M  V30 3180 C 308.395 1.10501 -1.99433 0
M  V30 3181 C 309.379 1.35041 -0.874798 0
M  V30 3182 O 310.571 1.35511 -1.13868 0
M  V30 3183 C 307.7 2.42159 -2.43339 0
M  V30 3184 C 306.786 2.20937 -3.62005 0
M  V30 3185 N 307.177 1.69616 -4.76512 0
M  V30 3186 C 305.475 2.51451 -3.68359 0
M  V30 3187 C 306.176 1.62973 -5.58404 0
M  V30 3188 N 305.152 2.08664 -5.01956 0
M  V30 3189 H 308.954 0.701373 -2.85408 0
M  V30 3190 H 306.468 0.289096 -1.59806 0
M  V30 3191 H 308.465 3.16208 -2.71695 0
M  V30 3192 H 307.125 2.83249 -1.58746 0
M  V30 3193 H 308.136 1.38624 -4.99003 0
M  V30 3194 H 304.813 2.95975 -2.94457 0
M  V30 3195 H 306.203 1.24233 -6.60315 0
M  V30 3196 N 308.923 1.53595 0.353017 0
M  V30 3197 C 309.886 1.80232 1.41594 0
M  V30 3198 C 310.886 0.673081 1.46035 0
M  V30 3199 O 312.076 0.941335 1.46576 0
M  V30 3200 C 309.208 1.93578 2.80607 0
M  V30 3201 H 310.401 2.75174 1.19244 0
M  V30 3202 H 307.954 1.44864 0.586872 0
M  V30 3203 H 308.689 1.00746 3.08254 0
M  V30 3204 H 308.474 2.75724 2.78781 0
M  V30 3205 H 309.964 2.15735 3.57558 0
M  V30 3206 N 310.401 -0.613514 1.45168 0
M  V30 3207 C 311.648 -1.37268 1.48875 0
M  V30 3208 C 311.976 -1.94077 0.128161 0
M  V30 3209 O 311.231 -1.75178 -0.872416 0
M  V30 3210 C 311.53 -2.54347 2.51083 0
M  V30 3211 C 311.196 -2.1572 3.95949 0
M  V30 3212 C 309.858 -2.04899 4.35396 0
M  V30 3213 C 312.21 -1.85485 4.87078 0
M  V30 3214 C 309.538 -1.62057 5.63875 0
M  V30 3215 C 311.89 -1.4413 6.15962 0
M  V30 3216 C 310.554 -1.31863 6.54346 0
M  V30 3217 H 309.824 -0.502299 0.544773 0
M  V30 3218 H 312.471 -0.694021 1.78481 0
M  V30 3219 H 310.776 -3.27524 2.15024 0
M  V30 3220 H 312.473 -3.12577 2.51191 0
M  V30 3221 H 309.063 -2.25066 3.64751 0
M  V30 3222 H 313.247 -1.92745 4.57343 0
M  V30 3223 H 308.503 -1.51177 5.92415 0
M  V30 3224 H 312.677 -1.19778 6.86022 0
M  V30 3225 H 310.304 -0.984392 7.538 0
M  V30 3226 N 311.879 -1.3236 -0.855495 0
M  V30 3227 C 313.126 -1.22872 -1.60962 0
M  V30 3228 C 313.454 0.209658 -1.93367 0
M  V30 3229 O 312.709 1.16243 -1.57436 0
M  V30 3230 C 313.008 -2.03275 -2.93963 0
M  V30 3231 C 312.674 -3.5264 -2.80991 0
M  V30 3232 C 311.336 -3.93364 -2.7716 0
M  V30 3233 C 313.688 -4.47626 -2.66983 0
M  V30 3234 C 311.016 -5.27319 -2.572 0
M  V30 3235 C 313.368 -5.81723 -2.48558 0
M  V30 3236 C 312.032 -6.2165 -2.4312 0
M  V30 3237 H 311.302 -0.44962 -0.589001 0
M  V30 3238 H 313.949 -1.63777 -0.992442 0
M  V30 3239 H 312.254 -1.55095 -3.59795 0
M  V30 3240 H 313.951 -1.93303 -3.51333 0
M  V30 3241 H 310.541 -3.20295 -2.84797 0
M  V30 3242 H 314.725 -4.17084 -2.68988 0
M  V30 3243 H 309.981 -5.57311 -2.51424 0
M  V30 3244 H 314.155 -6.5494 -2.36699 0
M  V30 3245 H 311.782 -7.25388 -2.27412 0
M  V30 3246 N 313.357 1.07166 -1.15556 0
M  V30 3247 C 314.768 1.6127 -0.940693 0
M  V30 3248 C 315.119 1.89251 0.517551 0
M  V30 3249 O 314.244 1.65937 1.38903 0
M  V30 3250 C 314.839 2.92993 -1.7012 0
M  V30 3251 C 313.398 3.43832 -1.53156 0
M  V30 3252 C 312.545 2.1786 -1.71558 0
M  V30 3253 H 315.496 0.90229 -1.30554 0
M  V30 3254 H 315.517 3.62007 -1.17181 0
M  V30 3255 H 315.029 2.72596 -2.76248 0
M  V30 3256 H 313.13 3.69307 -0.494294 0
M  V30 3257 H 313.243 4.19747 -2.30975 0
M  V30 3258 H 311.607 2.2765 -1.14225 0
M  V30 3259 H 312.39 1.99956 -2.79056 0
M  V30 3260 N 314.835 0.952656 1.25548 0
M  V30 3261 C 316.083 0.605176 1.92826 0
M  V30 3262 C 316.404 -0.860261 1.74999 0
M  V30 3263 O 315.674 -1.6125 1.11244 0
M  V30 3264 H 314.254 0.220832 0.713612 0
M  V30 3265 H 316.916 1.21047 1.52754 0
M  V30 3266 H 316.012 0.832798 3.00784 0
M  V30 3267 N 316.313 -1.40141 0.720998 0
M  V30 3268 C 317.263 -2.27949 0.0482544 0
M  V30 3269 C 318.247 -1.43538 -0.727021 0
M  V30 3270 O 319.439 -1.6658 -0.598332 0
M  V30 3271 C 316.568 -3.32126 -0.868729 0
M  V30 3272 C 315.654 -4.24008 -0.0883515 0
M  V30 3273 N 316.045 -4.97154 0.931226 0
M  V30 3274 C 314.343 -4.4485 -0.320105 0
M  V30 3275 C 315.044 -5.64587 1.4006 0
M  V30 3276 N 314.02 -5.38787 0.721752 0
M  V30 3277 H 317.822 -2.81948 0.829609 0
M  V30 3278 H 315.336 -1.52656 0.554067 0
M  V30 3279 H 317.333 -3.93884 -1.36605 0
M  V30 3280 H 315.993 -2.79687 -1.6494 0
M  V30 3281 H 317.004 -5.01 1.31222 0
M  V30 3282 H 313.681 -4.03378 -1.07668 0
M  V30 3283 H 315.071 -6.33175 2.24808 0
M  V30 3284 N 317.792 -0.46758 -1.50504 0
M  V30 3285 C 318.742 0.34698 -2.25344 0
M  V30 3286 C 319.726 0.964469 -1.2879 0
M  V30 3287 O 320.918 0.8776 -1.53711 0
M  V30 3288 C 318.047 1.43042 -3.1208 0
M  V30 3289 C 317.133 0.82084 -4.16081 0
M  V30 3290 N 317.524 -0.0567602 -5.05768 0
M  V30 3291 C 315.822 1.08517 -4.32597 0
M  V30 3292 C 316.523 -0.402343 -5.80307 0
M  V30 3293 N 315.499 0.221607 -5.43148 0
M  V30 3294 H 319.301 -0.329129 -2.92051 0
M  V30 3295 H 316.815 -0.281508 -1.59942 0
M  V30 3296 H 318.812 2.02712 -3.64299 0
M  V30 3297 H 317.472 2.10856 -2.46921 0
M  V30 3298 H 318.483 -0.425349 -5.1615 0
M  V30 3299 H 315.16 1.75855 -3.78657 0
M  V30 3300 H 316.55 -1.11834 -6.62528 0
M  V30 3301 N 319.27 1.56325 -0.20005 0
M  V30 3302 C 320.22 2.15939 0.731743 0
M  V30 3303 C 321.204 1.10154 1.17281 0
M  V30 3304 O 322.396 1.36203 1.13038 0
M  V30 3305 C 319.525 2.82614 1.94895 0
M  V30 3306 C 318.611 3.95596 1.52855 0
M  V30 3307 N 319.002 4.99118 0.819418 0
M  V30 3308 C 317.3 4.07288 1.81748 0
M  V30 3309 C 318.001 5.78513 0.608053 0
M  V30 3310 N 316.977 5.31117 1.15828 0
M  V30 3311 H 320.779 2.9334 0.181285 0
M  V30 3312 H 318.293 1.624 -0.000452172 0
M  V30 3313 H 320.29 3.23718 2.62702 0
M  V30 3314 H 318.95 2.06702 2.50408 0
M  V30 3315 H 319.961 5.15723 0.47436 0
M  V30 3316 H 316.638 3.42509 2.38734 0
M  V30 3317 H 318.028 6.71885 0.0451619 0
M  V30 3318 N 320.748 -0.0735177 1.57428 0
M  V30 3319 C 321.976 -0.785969 1.9139 0
M  V30 3320 C 322.391 -1.71207 0.795847 0
M  V30 3321 O 321.748 -1.81033 -0.230915 0
M  V30 3322 C 321.799 -1.58107 3.25091 0
M  V30 3323 O 321.52 -0.6922 4.32597 0
M  V30 3324 C 323.021 -2.39467 3.73055 0
M  V30 3325 H 320.241 -0.223558 0.632663 0
M  V30 3326 H 322.785 -0.044302 2.04452 0
M  V30 3327 H 320.94 -2.27503 3.13562 0
M  V30 3328 H 321.354 -1.24504 5.09508 0
M  V30 3329 H 322.828 -2.90716 4.69242 0
M  V30 3330 H 323.305 -3.18913 3.01979 0
M  V30 3331 H 323.911 -1.7523 3.87523 0
M  V30 3332 N 322.226 -1.5378 -0.344866 0
M  V30 3333 C 323.189 -1.80981 -1.40637 0
M  V30 3334 C 324.189 -0.680816 -1.45676 0
M  V30 3335 O 325.379 -0.949095 -1.46075 0
M  V30 3336 C 322.511 -1.95063 -2.79577 0
M  V30 3337 H 323.704 -2.75803 -1.17783 0
M  V30 3338 H 321.257 -1.45173 -0.579181 0
M  V30 3339 H 321.992 -1.02379 -3.07716 0
M  V30 3340 H 321.777 -2.77198 -2.77315 0
M  V30 3341 H 323.267 -2.17629 -3.56409 0
M  V30 3342 N 323.704 0.605807 -1.45491 0
M  V30 3343 C 324.952 1.36207 -1.49305 0
M  V30 3344 C 325.273 1.94519 -0.136863 0
M  V30 3345 O 324.543 1.77261 0.833983 0
M  V30 3346 H 323.123 0.50565 -0.549843 0
M  V30 3347 H 325.785 0.711239 -1.81459 0
M  V30 3348 H 324.881 2.18058 -2.23287 0
M  V30 3349 N 325.182 1.32811 0.848464 0
M  V30 3350 C 326.459 1.14334 1.58704 0
M  V30 3351 C 326.839 -0.293948 2.09043 0
M  V30 3352 O 326.187 -1.29153 1.88499 0
M  V30 3353 C 326.397 2.17626 2.72837 0
M  V30 3354 C 327.745 2.51282 3.42261 0
M  V30 3355 O 328.769 2.16219 2.83068 0
M  V30 3356 O 327.628 3.11413 4.49093 0
M  V30 3357 H 324.722 0.441601 0.699226 0
M  V30 3358 H 327.268 1.44362 0.892053 0
M  V30 3359 H 326.04 3.14211 2.3321 0
M  V30 3360 H 325.663 1.88628 3.50008 0
M  V30 3361 N 326.66 -1.06551 1.16123 0
M  V30 3362 C 327.888 -1.83005 0.965237 0
M  V30 3363 C 328.303 -1.82423 -0.486542 0
M  V30 3364 O 327.66 -1.24152 -1.33763 0
M  V30 3365 C 327.711 -3.29733 1.48183 0
M  V30 3366 O 327.432 -3.30416 2.87674 0
M  V30 3367 C 328.933 -4.22926 1.32848 0
M  V30 3368 H 326.153 -0.577118 0.342309 0
M  V30 3369 H 328.697 -1.3445 1.54089 0
M  V30 3370 H 326.852 -3.75609 0.948517 0
M  V30 3371 H 327.266 -4.22149 3.11272 0
M  V30 3372 H 328.74 -5.23916 1.73827 0
M  V30 3373 H 329.217 -4.38346 0.273692 0
M  V30 3374 H 329.823 -3.82894 1.85127 0
M  V30 3375 N 328.138 -0.959301 -1.25041 0
M  V30 3376 C 329.088 -0.453888 -2.23436 0
M  V30 3377 C 330.072 0.459461 -1.542 0
M  V30 3378 O 331.264 0.291752 -1.74579 0
M  V30 3379 C 328.393 0.262667 -3.42294 0
M  V30 3380 C 327.479 -0.669022 -4.1879 0
M  V30 3381 N 327.87 -1.80267 -4.72586 0
M  V30 3382 C 326.168 -0.47814 -4.4343 0
M  V30 3383 C 326.869 -2.38475 -5.3057 0
M  V30 3384 N 325.845 -1.67078 -5.17287 0
M  V30 3385 H 329.647 -1.319 -2.6264 0
M  V30 3386 H 327.161 -0.817358 -1.40332 0
M  V30 3387 H 329.158 0.641911 -4.11929 0
M  V30 3388 H 327.818 1.12432 -3.04613 0
M  V30 3389 H 328.829 -2.18442 -4.69578 0
M  V30 3390 H 325.506 0.340249 -4.16111 0
M  V30 3391 H 326.896 -3.34094 -5.8295 0
M  V30 3392 N 329.616 1.39756 -0.72842 0
M  V30 3393 C 330.863 2.00645 -0.273487 0
M  V30 3394 C 331.191 1.57786 1.13727 0
M  V30 3395 O 330.446 0.794886 1.7883 0
M  V30 3396 C 330.745 3.56002 -0.315776 0
M  V30 3397 C 330.411 4.18489 -1.67863 0
M  V30 3398 C 329.073 4.3527 -2.05166 0
M  V30 3399 C 331.425 4.53219 -2.57375 0
M  V30 3400 C 328.753 4.84069 -3.31503 0
M  V30 3401 C 331.105 5.03423 -3.83077 0
M  V30 3402 C 329.769 5.18413 -4.20481 0
M  V30 3403 H 329.039 0.734211 -0.100076 0
M  V30 3404 H 331.686 1.6718 -0.933972 0
M  V30 3405 H 329.991 3.89452 0.428285 0
M  V30 3406 H 331.688 4.00963 0.0542575 0
M  V30 3407 H 328.278 4.05824 -1.37858 0
M  V30 3408 H 332.462 4.39878 -2.29827 0
M  V30 3409 H 327.718 4.93859 -3.60435 0
M  V30 3410 H 331.892 5.2927 -4.52599 0
M  V30 3411 H 329.519 5.55987 -5.18443 0
M  V30 3412 N 331.094 0.475555 1.50254 0
M  V30 3413 C 332.371 -0.139685 1.95101 0
M  V30 3414 C 332.751 -1.56555 1.41611 0
M  V30 3415 O 332.099 -2.19956 0.618993 0
M  V30 3416 C 332.309 -0.0784298 3.48912 0
M  V30 3417 C 333.657 -0.265095 4.23772 0
M  V30 3418 O 334.681 -0.154808 3.55863 0
M  V30 3419 O 333.54 -0.488327 5.44314 0
M  V30 3420 H 330.634 -0.109236 0.819754 0
M  V30 3421 H 333.18 0.536276 1.61004 0
M  V30 3422 H 331.952 0.916918 3.80405 0
M  V30 3423 H 331.575 -0.795655 3.89558 0
M  V30 3424 N 332.573 -1.56217 0.208337 0
M  V30 3425 C 333.85 -1.89739 -0.475234 0
M  V30 3426 C 334.23 -1.1238 -1.78701 0
M  V30 3427 O 333.578 -0.228979 -2.2735 0
M  V30 3428 C 333.788 -3.42289 -0.681101 0
M  V30 3429 C 335.136 -4.12789 -0.994507 0
M  V30 3430 O 336.16 -3.47814 -0.768357 0
M  V30 3431 O 335.019 -5.27649 -1.42299 0
M  V30 3432 H 332.113 -0.788478 -0.249461 0
M  V30 3433 H 334.659 -1.67855 0.249538 0
M  V30 3434 H 333.431 -3.90534 0.244722 0
M  V30 3435 H 333.054 -3.69909 -1.45785 0
M  V30 3436 N 334.051 0.0651679 -1.57465 0
M  V30 3437 C 335.328 0.79644 -1.78651 0
M  V30 3438 C 335.708 1.95454 -0.797566 0
M  V30 3439 O 335.056 2.27882 0.167946 0
M  V30 3440 C 335.266 1.26322 -3.25337 0
M  V30 3441 C 336.614 1.6939 -3.89348 0
M  V30 3442 O 337.638 1.35872 -3.29268 0
M  V30 3443 O 336.497 2.31471 -4.95059 0
M  V30 3444 H 333.591 0.382157 -0.733407 0
M  V30 3445 H 336.137 0.0447311 -1.69641 0
M  V30 3446 H 334.909 0.434859 -3.88876 0
M  V30 3447 H 334.532 2.07604 -3.39096 0
M  V30 3448 N 335.529 1.53961 0.336706 0
M  V30 3449 C 336.439 1.85432 1.43708 0
M  V30 3450 C 337.455 0.745053 1.57242 0
M  V30 3451 O 338.631 1.03804 1.72588 0
M  V30 3452 C 335.696 2.06349 2.78605 0
M  V30 3453 C 334.757 3.30191 2.74358 0
M  V30 3454 C 333.99 3.50101 4.02822 0
M  V30 3455 O 334.213 2.7371 5.00439 0
M  V30 3456 O 333.147 4.43547 4.06878 0
M  V30 3457 H 336.973 2.78975 1.20028 0
M  V30 3458 H 334.558 1.39701 0.52952 0
M  V30 3459 H 336.44 2.21513 3.58483 0
M  V30 3460 H 335.115 1.15995 3.02203 0
M  V30 3461 H 334.022 3.20425 1.93078 0
M  V30 3462 H 335.355 4.2056 2.55715 0
M  V30 3463 N 337.007 -0.598083 1.45811 0
M  V30 3464 C 337.97 -1.69018 1.54808 0
M  V30 3465 C 338.97 -1.55037 0.426652 0
M  V30 3466 O 340.16 -1.59932 0.690456 0
M  V30 3467 C 337.292 -3.0835 1.45371 0
M  V30 3468 H 338.485 -1.62403 2.52121 0
M  V30 3469 H 336.038 -0.814626 1.33392 0
M  V30 3470 H 336.773 -3.20534 0.492793 0
M  V30 3471 H 336.558 -3.19907 2.26721 0
M  V30 3472 H 338.048 -3.8788 1.54721 0
M  V30 3473 N 338.485 -1.33259 -0.841409 0
M  V30 3474 C 339.731 -1.25766 -1.59857 0
M  V30 3475 C 340.086 0.175602 -1.91597 0
M  V30 3476 O 339.379 1.117 -1.55672 0
M  V30 3477 C 339.573 -2.06381 -2.9179 0
M  V30 3478 C 339.402 -3.57401 -2.72937 0
M  V30 3479 C 338.172 -4.26718 -2.70628 0
M  V30 3480 C 340.37 -4.51786 -2.45753 0
M  V30 3481 N 338.352 -5.63705 -2.43125 0
M  V30 3482 C 339.723 -5.76643 -2.27777 0
M  V30 3483 C 341.778 -4.40898 -2.31329 0
M  V30 3484 C 340.481 -6.91842 -1.96841 0
M  V30 3485 C 342.507 -5.55911 -2.01786 0
M  V30 3486 C 341.869 -6.79776 -1.8462 0
M  V30 3487 H 337.968 -0.515406 -0.588117 0
M  V30 3488 H 340.552 -1.67772 -0.987955 0
M  V30 3489 H 338.723 -1.667 -3.50807 0
M  V30 3490 H 340.455 -1.90678 -3.56965 0
M  V30 3491 H 337.21 -3.78968 -2.84043 0
M  V30 3492 H 337.634 -6.35911 -2.32265 0
M  V30 3493 H 342.276 -3.45772 -2.43314 0
M  V30 3494 H 339.994 -7.86968 -1.83594 0
M  V30 3495 H 343.58 -5.49421 -1.91384 0
M  V30 3496 H 342.46 -7.67266 -1.62088 0
M  V30 3497 N 339.963 1.05934 -1.16686 0
M  V30 3498 C 341.191 1.8249 -0.974929 0
M  V30 3499 C 341.606 1.82679 0.476861 0
M  V30 3500 O 340.963 1.2486 1.33103 0
M  V30 3501 C 341.014 3.28943 -1.49929 0
M  V30 3502 O 340.735 3.28886 -2.89423 0
M  V30 3503 C 342.236 4.22215 -1.35089 0
M  V30 3504 H 339.456 0.575295 -0.345365 0
M  V30 3505 H 342 1.33631 -1.548 0
M  V30 3506 H 340.155 3.751 -0.968423 0
M  V30 3507 H 340.569 4.20493 -3.13506 0
M  V30 3508 H 342.043 5.22987 -1.76603 0
M  V30 3509 H 342.52 4.38195 -0.296935 0
M  V30 3510 H 343.126 3.81907 -1.87155 0
M  V30 3511 N 341.441 0.965919 1.2453 0
M  V30 3512 C 342.688 0.626831 1.92554 0
M  V30 3513 C 343.016 -0.837739 1.75534 0
M  V30 3514 O 342.271 -1.61793 1.10098 0
M  V30 3515 C 342.57 0.945428 3.44669 0
M  V30 3516 C 342.236 2.39785 3.81856 0
M  V30 3517 C 340.898 2.79483 3.91718 0
M  V30 3518 C 343.25 3.34055 4.00071 0
M  V30 3519 C 340.578 4.12496 4.1721 0
M  V30 3520 C 342.93 4.66694 4.27059 0
M  V30 3521 C 341.594 5.06172 4.3514 0
M  V30 3522 H 340.864 0.229374 0.704605 0
M  V30 3523 H 343.511 1.21707 1.4785 0
M  V30 3524 H 341.816 0.272926 3.90848 0
M  V30 3525 H 343.513 0.661484 3.95507 0
M  V30 3526 H 340.103 2.08003 3.74743 0
M  V30 3527 H 344.287 3.04571 3.91855 0
M  V30 3528 H 339.543 4.42709 4.21685 0
M  V30 3529 H 343.717 5.3971 4.40097 0
M  V30 3530 H 341.344 6.09262 4.54646 0
M  V30 3531 N 342.919 -1.39368 0.735821 0
M  V30 3532 C 344.335 -1.54204 0.411492 0
M  V30 3533 C 344.535 -1.70268 -1.07755 0
M  V30 3534 O 343.591 -1.70364 -1.86366 0
M  V30 3535 C 344.904 -2.75925 1.19523 0
M  V30 3536 C 346.452 -2.89761 1.18354 0
M  V30 3537 C 346.927 -4.14421 1.94986 0
M  V30 3538 N 348.418 -4.21462 1.92156 0
M  V30 3539 C 349.153 -5.16871 2.48258 0
M  V30 3540 N 348.649 -6.18063 3.13001 0
M  V30 3541 N 350.442 -5.09093 2.38287 0
M  V30 3542 H 342.593 -1.27189 1.70108 0
M  V30 3543 H 344.856 -0.616517 0.720147 0
M  V30 3544 H 344.562 -2.70401 2.24892 0
M  V30 3545 H 344.436 -3.68614 0.800222 0
M  V30 3546 H 346.823 -2.94777 0.137975 0
M  V30 3547 H 346.904 -1.98133 1.61793 0
M  V30 3548 H 346.548 -4.10166 2.99543 0
M  V30 3549 H 346.478 -5.05095 1.48953 0
M  V30 3550 H 348.969 -3.48979 1.44991 0
M  V30 3551 H 349.282 -6.87326 3.53275 0
M  V30 3552 H 347.627 -6.18448 3.17091 0
M  V30 3553 H 350.818 -4.28973 1.8735 0
M  V30 3554 H 350.991 -5.83272 2.82308 0
M  V30 3555 N 344.397 -0.483516 -1.5 0
M  V30 3556 C 345.622 0.0667119 -2.07293 0
M  V30 3557 C 346.047 1.3164 -1.3436 0
M  V30 3558 O 345.405 1.76945 -0.394987 0
M  V30 3559 C 345.453 0.321126 -3.59167 0
M  V30 3560 O 344.557 1.39927 -3.87936 0
M  V30 3561 H 343.898 -0.0184758 -0.663743 0
M  V30 3562 H 346.428 -0.678125 -1.93035 0
M  V30 3563 H 346.438 0.557906 -4.04168 0
M  V30 3564 H 345.113 -0.592007 -4.11665 0
M  V30 3565 H 343.69 1.14882 -3.54763 0
M  V30 3566 N 345.875 1.56104 -0.216619 0
M  V30 3567 C 347.1 2.0301 0.424462 0
M  V30 3568 C 347.525 1.0955 1.52907 0
M  V30 3569 O 346.883 0.0827914 1.81111 0
M  V30 3570 C 346.931 3.4819 0.937883 0
M  V30 3571 O 346.035 3.57865 2.04955 0
M  V30 3572 H 345.376 0.656925 0.0966755 0
M  V30 3573 H 347.906 2.01859 -0.33381 0
M  V30 3574 H 347.916 3.88413 1.24897 0
M  V30 3575 H 346.591 4.15699 0.129387 0
M  V30 3576 H 345.168 3.29527 1.74546 0
M  V30 3577 N 347.353 -0.0568162 1.57498 0
M  V30 3578 C 348.63 -0.786954 1.79071 0
M  V30 3579 C 349.01 -1.95028 0.80792 0
M  V30 3580 O 348.358 -2.27968 -0.155858 0
M  V30 3581 C 348.568 -1.24594 3.26002 0
M  V30 3582 C 349.916 -1.67323 3.90241 0
M  V30 3583 O 350.94 -1.34124 3.29984 0
M  V30 3584 O 349.799 -2.28842 4.9628 0
M  V30 3585 H 346.893 -0.378262 0.735423 0
M  V30 3586 H 349.439 -0.035734 1.69662 0
M  V30 3587 H 348.211 -0.41423 3.89101 0
M  V30 3588 H 347.834 -2.05803 3.40192 0
M  V30 3589 N 348.832 -1.54138 -0.328536 0
M  V30 3590 C 349.795 -1.82462 -1.38709 0
M  V30 3591 C 350.795 -0.696229 -1.44946 0
M  V30 3592 O 351.985 -0.964535 -1.4506 0
M  V30 3593 C 349.117 -1.98018 -2.77492 0
M  V30 3594 H 350.31 -2.77037 -1.14851 0
M  V30 3595 H 347.863 -1.45779 -0.563751 0
M  V30 3596 H 348.598 -1.05637 -3.06613 0
M  V30 3597 H 348.383 -2.80124 -2.74359 0
M  V30 3598 H 349.873 -2.21396 -3.54081 0
M  V30 3599 N 350.31 0.590341 -1.46126 0
M  V30 3600 C 351.26 1.69466 -1.5253 0
M  V30 3601 C 352.244 1.56179 -0.386917 0
M  V30 3602 O 353.436 1.65223 -0.634858 0
M  V30 3603 C 350.565 3.08245 -1.5113 0
M  V30 3604 C 349.651 3.26856 -2.70233 0
M  V30 3605 N 350.042 3.15657 -3.95214 0
M  V30 3606 C 348.34 3.57775 -2.66296 0
M  V30 3607 C 349.041 3.36066 -4.74799 0
M  V30 3608 N 348.017 3.60865 -4.06543 0
M  V30 3609 H 351.819 1.59326 -2.46966 0
M  V30 3610 H 349.333 0.79414 -1.41659 0
M  V30 3611 H 351.33 3.87492 -1.53804 0
M  V30 3612 H 349.99 3.19521 -0.577636 0
M  V30 3613 H 351.001 2.93686 -4.26578 0
M  V30 3614 H 347.678 3.75782 -1.81918 0
M  V30 3615 H 349.068 3.32655 -5.83772 0
M  V30 3616 N 351.788 1.33704 0.83433 0
M  V30 3617 C 353.036 1.25169 1.58673 0
M  V30 3618 C 353.357 -0.18127 1.94156 0
M  V30 3619 O 352.627 -1.11113 1.6134 0
M  V30 3620 H 351.207 0.4603 0.58833 0
M  V30 3621 H 353.869 1.67478 0.996847 0
M  V30 3622 H 352.965 1.84856 2.51465 0
M  V30 3623 N 353.266 -1.05314 1.17247 0
M  V30 3624 C 354.199 -2.12512 0.831507 0
M  V30 3625 C 355.177 -1.61351 -0.201168 0
M  V30 3626 O 356.361 -1.88317 -0.0829831 0
M  V30 3627 C 353.488 -3.37848 0.24015 0
M  V30 3628 C 352.534 -4.07832 1.24801 0
M  V30 3629 S 353.367 -4.56537 2.79882 0
M  V30 3630 C 354.523 -5.85122 2.22223 0
M  V30 3631 H 354.756 -2.41106 1.7394 0
M  V30 3632 H 352.289 -1.17896 0.996988 0
M  V30 3633 H 354.247 -4.10391 -0.0945588 0
M  V30 3634 H 352.908 -3.07392 -0.645668 0
M  V30 3635 H 352.101 -4.97883 0.78287 0
M  V30 3636 H 351.703 -3.41348 1.52831 0
M  V30 3637 H 353.995 -6.58408 1.59703 0
M  V30 3638 H 354.938 -6.36381 3.10523 0
M  V30 3639 H 355.346 -5.39626 1.65722 0
M  V30 3640 N 354.744 -0.972509 -1.24016 0
M  V30 3641 C 356.021 -0.553733 -1.87598 0
M  V30 3642 C 356.401 0.969158 -1.87538 0
M  V30 3643 O 355.749 1.84255 -1.35139 0
M  V30 3644 C 355.959 -1.15076 -3.29482 0
M  V30 3645 C 357.307 -1.23862 -4.06132 0
M  V30 3646 O 358.331 -1.10363 -3.38672 0
M  V30 3647 O 357.19 -1.45252 -5.26844 0
M  V30 3648 H 354.284 -0.185331 -0.805966 0
M  V30 3649 H 356.83 -1.06709 -1.31952 0
M  V30 3650 H 355.602 -2.19333 -3.2405 0
M  V30 3651 H 355.225 -0.621746 -3.92709 0
M  V30 3652 N 356.222 1.38976 -0.743202 0
M  V30 3653 C 357.152 2.33171 -0.123873 0
M  V30 3654 C 358.133 1.54336 0.71516 0
M  V30 3655 O 359.318 1.82696 0.658467 0
M  V30 3656 C 356.448 3.38474 0.777978 0
M  V30 3657 C 355.402 4.27979 0.0424758 0
M  V30 3658 C 354.728 5.2405 1.06189 0
M  V30 3659 C 356.028 5.10155 -1.1198 0
M  V30 3660 H 357.722 2.85213 -0.910709 0
M  V30 3661 H 355.268 1.37133 -0.439388 0
M  V30 3662 H 357.221 4.03328 1.22084 0
M  V30 3663 H 355.945 2.84891 1.59702 0
M  V30 3664 H 354.604 3.64616 -0.380853 0
M  V30 3665 H 354.252 4.66758 1.87472 0
M  V30 3666 H 353.952 5.84785 0.574485 0
M  V30 3667 H 355.476 5.9178 1.50428 0
M  V30 3668 H 356.89 5.68307 -0.75499 0
M  V30 3669 H 355.287 5.80073 -1.53738 0
M  V30 3670 H 356.357 4.44504 -1.93764 0
M  V30 3671 N 357.7 0.491464 1.49741 0
M  V30 3672 C 358.947 -0.0564256 2.02421 0
M  V30 3673 C 359.275 -1.37872 1.37192 0
M  V30 3674 O 358.53 -1.89375 0.493508 0
M  V30 3675 C 358.829 -0.267329 3.56399 0
M  V30 3676 C 358.495 0.975775 4.40215 0
M  V30 3677 C 357.157 1.31655 4.62839 0
M  V30 3678 C 359.509 1.80251 4.89039 0
M  V30 3679 C 356.837 2.48375 5.31532 0
M  V30 3680 C 359.189 2.96116 5.59015 0
M  V30 3681 C 357.853 3.30585 5.79888 0
M  V30 3682 H 357.123 -0.0206476 0.740712 0
M  V30 3683 H 359.77 0.649686 1.80143 0
M  V30 3684 H 358.075 -1.05588 3.77304 0
M  V30 3685 H 359.772 -0.705549 3.94744 0
M  V30 3686 H 356.362 0.700315 4.2284 0
M  V30 3687 H 360.546 1.55239 4.71396 0
M  V30 3688 H 355.802 2.7533 5.45897 0
M  V30 3689 H 359.976 3.60509 5.95824 0
M  V30 3690 H 357.603 4.21132 6.32892 0
M  V30 3691 N 359.178 -1.55987 0.224894 0
M  V30 3692 C 360.141 -2.19178 -0.670348 0
M  V30 3693 C 361.141 -1.15461 -1.11917 0
M  V30 3694 O 362.331 -1.40675 -1.02743 0
M  V30 3695 C 359.463 -2.81777 -1.9187 0
M  V30 3696 H 360.656 -2.99662 -0.119364 0
M  V30 3697 H 358.209 -1.5628 -0.0247128 0
M  V30 3698 H 358.944 -2.05172 -2.51147 0
M  V30 3699 H 358.729 -3.57732 -1.60531 0
M  V30 3700 H 360.219 -3.30205 -2.55645 0
M  V30 3701 N 360.656 0.0484629 -1.57525 0
M  V30 3702 C 361.902 0.744226 -1.88651 0
M  V30 3703 C 362.235 1.76029 -0.820212 0
M  V30 3704 O 361.51 1.93782 0.166985 0
M  V30 3705 C 361.793 1.43128 -3.30434 0
M  V30 3706 C 361.646 0.43005 -4.47739 0
M  V30 3707 C 362.965 2.37031 -3.70816 0
M  V30 3708 H 360.084 0.269089 -0.68612 0
M  V30 3709 H 362.726 0.00713532 -1.89999 0
M  V30 3710 H 360.876 2.05956 -3.29415 0
M  V30 3711 H 362.548 -0.194816 -4.60888 0
M  V30 3712 H 360.791 -0.252522 -4.33064 0
M  V30 3713 H 361.462 0.948874 -5.43783 0
M  V30 3714 H 363.938 1.84263 -3.73077 0
M  V30 3715 H 362.814 2.82094 -4.70865 0
M  V30 3716 H 363.075 3.22864 -3.02012 0
M  V30 3717 N 362.134 1.5431 0.320358 0
M  V30 3718 C 363.097 1.83195 1.3774 0
M  V30 3719 C 364.097 0.703906 1.44575 0
M  V30 3720 O 365.287 0.972214 1.44546 0
M  V30 3721 C 362.419 1.99487 2.76438 0
M  V30 3722 H 363.612 2.77642 1.1338 0
M  V30 3723 H 361.165 1.46076 0.556012 0
M  V30 3724 H 361.9 1.07262 3.06048 0
M  V30 3725 H 361.685 2.81575 2.7287 0
M  V30 3726 H 363.175 2.23271 3.52902 0
M  V30 3727 N 363.613 -0.582584 1.46437 0
M  V30 3728 C 364.859 -1.34278 1.51978 0
M  V30 3729 C 365.192 -1.93446 0.170973 0
M  V30 3730 O 364.467 -1.76481 -0.817608 0
M  V30 3731 C 364.75 -2.47203 2.61845 0
M  V30 3732 C 364.603 -1.93069 4.06257 0
M  V30 3733 C 365.922 -3.49247 2.67795 0
M  V30 3734 H 363.041 -0.486876 0.553282 0
M  V30 3735 H 365.683 -0.654437 1.78374 0
M  V30 3736 H 363.833 -3.0592 2.39469 0
M  V30 3737 H 365.505 -1.38808 4.3992 0
M  V30 3738 H 363.748 -1.23898 4.1573 0
M  V30 3739 H 364.419 -2.74586 4.7886 0
M  V30 3740 H 366.895 -3.00411 2.8791 0
M  V30 3741 H 365.771 -4.25719 3.46489 0
M  V30 3742 H 366.032 -4.06482 1.73852 0
M  V30 3743 N 365.091 -1.34144 -0.827227 0
M  V30 3744 C 366.041 -1.21923 -1.92663 0
M  V30 3745 C 367.025 -0.119294 -1.60457 0
M  V30 3746 O 368.217 -0.348539 -1.73534 0
M  V30 3747 C 365.346 -0.972492 -3.29238 0
M  V30 3748 C 364.432 -2.1154 -3.67576 0
M  V30 3749 N 364.823 -3.36627 -3.77512 0
M  V30 3750 C 363.121 -2.02468 -3.97395 0
M  V30 3751 C 363.822 -4.11658 -4.1099 0
M  V30 3752 N 362.798 -3.40207 -4.23981 0
M  V30 3753 H 366.6 -2.16721 -1.98517 0
M  V30 3754 H 364.114 -1.2632 -1.02064 0
M  V30 3755 H 366.111 -0.865847 -4.0781 0
M  V30 3756 H 364.771 -0.0331509 -3.24683 0
M  V30 3757 H 365.782 -3.71234 -3.61118 0
M  V30 3758 H 362.459 -1.16265 -4.00985 0
M  V30 3759 H 363.849 -5.19657 -4.25918 0
M  V30 3760 N 366.569 1.04691 -1.17803 0
M  V30 3761 C 367.479 2.16057 -0.914151 0
M  V30 3762 C 368.495 1.73589 0.119503 0
M  V30 3763 O 369.671 2.01308 -0.0609468 0
M  V30 3764 C 366.736 3.4394 -0.436603 0
M  V30 3765 C 365.797 4.00825 -1.53746 0
M  V30 3766 C 365.03 5.22604 -1.0826 0
M  V30 3767 O 365.253 5.70367 0.0612244 0
M  V30 3768 O 364.187 5.7186 -1.87775 0
M  V30 3769 H 368.013 2.41169 -1.84584 0
M  V30 3770 H 365.598 1.1453 -0.959334 0
M  V30 3771 H 367.48 4.21024 -0.178057 0
M  V30 3772 H 366.155 3.20316 0.466869 0
M  V30 3773 H 365.062 3.25158 -1.84995 0
M  V30 3774 H 366.395 4.28778 -2.41683 0
M  V30 3775 N 368.047 0.979072 1.23499 0
M  V30 3776 C 369.294 0.647219 1.91878 0
M  V30 3777 C 369.622 -0.819074 1.76413 0
M  V30 3778 O 368.877 -1.60616 1.11808 0
M  V30 3779 C 369.176 0.981932 3.43646 0
M  V30 3780 C 368.842 2.43822 3.79291 0
M  V30 3781 C 367.504 2.83622 3.88731 0
M  V30 3782 C 369.856 3.3828 3.96505 0
M  V30 3783 C 367.184 4.16897 4.12812 0
M  V30 3784 C 369.536 4.71197 4.22085 0
M  V30 3785 C 368.2 5.10758 4.29747 0
M  V30 3786 H 367.47 0.236834 0.702133 0
M  V30 3787 H 370.117 1.23268 1.46551 0
M  V30 3788 H 368.422 0.314365 3.90537 0
M  V30 3789 H 370.119 0.703395 3.94783 0
M  V30 3790 H 366.709 2.11966 3.72516 0
M  V30 3791 H 370.893 3.0871 3.88603 0
M  V30 3792 H 366.149 4.47157 4.16966 0
M  V30 3793 H 370.323 5.44348 4.34348 0
M  V30 3794 H 367.95 6.1405 4.48159 0
M  V30 3795 N 369.525 -1.3858 0.750561 0
M  V30 3796 C 370.773 -1.99789 0.30477 0
M  V30 3797 C 371.094 -1.59874 -1.11649 0
M  V30 3798 O 370.364 -0.85417 -1.76297 0
M  V30 3799 H 368.944 -0.738902 0.109694 0
M  V30 3800 H 371.606 -1.69391 0.963983 0
M  V30 3801 H 370.702 -3.09952 0.365499 0
M  V30 3802 N 371.003 -0.499398 -1.49478 0
M  V30 3803 C 371.953 0.299103 -2.2603 0
M  V30 3804 C 372.937 0.936934 -1.30807 0
M  V30 3805 O 374.129 0.844798 -1.55538 0
M  V30 3806 C 371.258 1.36391 -3.15044 0
M  V30 3807 C 370.344 0.732398 -4.17728 0
M  V30 3808 N 370.735 -0.164028 -5.05534 0
M  V30 3809 C 369.033 0.993162 -4.34801 0
M  V30 3810 C 369.734 -0.525345 -5.79323 0
M  V30 3811 N 368.71 0.106348 -5.43496 0
M  V30 3812 H 372.512 -0.391003 -2.91287 0
M  V30 3813 H 370.026 -0.31537 -1.59308 0
M  V30 3814 H 372.023 1.94939 -3.68516 0
M  V30 3815 H 370.683 2.05571 -2.51338 0
M  V30 3816 H 371.694 -0.534736 -5.15132 0
M  V30 3817 H 368.371 1.67783 -3.82302 0
M  V30 3818 H 369.761 -1.25862 -6.60006 0
M  V30 3819 N 372.481 1.55866 -0.233164 0
M  V30 3820 C 373.444 2.1953 0.658715 0
M  V30 3821 C 374.444 1.16053 1.11303 0
M  V30 3822 O 375.634 1.41218 1.01996 0
M  V30 3823 C 372.766 2.82791 1.90373 0
M  V30 3824 H 373.959 2.99721 0.10347 0
M  V30 3825 H 371.512 1.56291 0.0164245 0
M  V30 3826 H 372.247 2.06501 2.50056 0
M  V30 3827 H 372.032 3.58578 1.58632 0
M  V30 3828 H 373.522 3.31556 2.53891 0
M  V30 3829 N 373.959 -0.0401083 1.57549 0
M  V30 3830 C 375.208 -0.732108 1.87944 0
M  V30 3831 C 375.521 -1.77107 0.830206 0
M  V30 3832 O 376.727 -2.51488 1.02302 0
M  V30 3833 C 375.183 -1.35315 3.33494 0
M  V30 3834 C 374.791 -0.351105 4.46622 0
M  V30 3835 C 376.535 -2.02566 3.73051 0
M  V30 3836 C 374.442 -0.979859 5.83226 0
M  V30 3837 H 373.372 -0.277188 0.701201 0
M  V30 3838 H 376.023 0.0138501 1.83495 0
M  V30 3839 H 374.405 -2.14844 3.32653 0
M  V30 3840 H 375.579 0.416674 4.58912 0
M  V30 3841 H 373.894 0.218708 4.15825 0
M  V30 3842 H 376.491 -2.50441 4.72423 0
M  V30 3843 H 376.834 -2.83904 3.04474 0
M  V30 3844 H 377.367 -1.29827 3.76018 0
M  V30 3845 H 374.106 -0.206135 6.55176 0
M  V30 3846 H 373.626 -1.71774 5.74677 0
M  V30 3847 H 375.305 -1.49046 6.29599 0
M  V30 3848 N 375.437 -1.54477 -0.31217 0
M  V30 3849 C 376.685 -1.72884 -1.04668 0
M  V30 3850 C 377.006 -0.511477 -1.88173 0
M  V30 3851 O 376.276 0.474407 -1.90069 0
M  V30 3852 H 374.856 -0.637461 -0.389425 0
M  V30 3853 H 377.518 -1.91807 -0.345852 0
M  V30 3854 H 376.614 -2.61334 -1.70619 0
M  V30 3855 N 376.915 0.57481 -1.46744 0
M  V30 3856 C 377.845 1.69337 -1.60771 0
M  V30 3857 C 378.826 1.63825 -0.457736 0
M  V30 3858 O 380.011 1.8172 -0.684947 0
M  V30 3859 C 377.141 3.0798 -1.60517 0
M  V30 3860 C 376.095 3.28327 -2.74564 0
M  V30 3861 C 375.421 4.67578 -2.59373 0
M  V30 3862 C 376.721 3.15398 -4.16319 0
M  V30 3863 H 378.415 1.57853 -2.54407 0
M  V30 3864 H 375.961 0.75799 -1.22436 0
M  V30 3865 H 377.914 3.86061 -1.68923 0
M  V30 3866 H 376.638 3.20381 -0.634305 0
M  V30 3867 H 375.297 2.52649 -2.65639 0
M  V30 3868 H 374.945 4.76755 -1.60353 0
M  V30 3869 H 374.645 4.82144 -3.35873 0
M  V30 3870 H 376.169 5.47817 -2.69682 0
M  V30 3871 H 377.583 3.83315 -4.26313 0
M  V30 3872 H 375.98 3.41482 -4.93468 0
M  V30 3873 H 377.05 2.12372 -4.3592 0
M  V30 3874 N 378.394 1.34581 0.820102 0
M  V30 3875 C 379.619 1.30333 1.61332 0
M  V30 3876 C 380.044 -0.119339 1.87721 0
M  V30 3877 O 379.402 -1.08197 1.45475 0
M  V30 3878 C 379.45 2.10258 2.92957 0
M  V30 3879 O 378.554 1.47404 3.85157 0
M  V30 3880 H 377.895 0.447488 0.490561 0
M  V30 3881 H 380.425 1.77425 1.01889 0
M  V30 3882 H 380.435 2.21718 3.42498 0
M  V30 3883 H 379.11 3.13693 2.73074 0
M  V30 3884 H 377.687 1.44703 3.43679 0
M  V30 3885 N 379.872 -1.04064 1.18357 0
M  V30 3886 C 380.822 -2.10393 0.878561 0
M  V30 3887 C 381.806 -1.60183 -0.151713 0
M  V30 3888 O 382.998 -1.76923 0.0523303 0
M  V30 3889 C 380.127 -3.4089 0.406096 0
M  V30 3890 C 379.213 -3.97866 1.46844 0
M  V30 3891 N 379.604 -4.28657 2.68489 0
M  V30 3892 C 377.902 -4.2574 1.32896 0
M  V30 3893 C 378.603 -4.74253 3.36836 0
M  V30 3894 N 377.579 -4.75068 2.64219 0
M  V30 3895 H 381.381 -2.32076 1.80327 0
M  V30 3896 H 378.895 -1.21818 1.07397 0
M  V30 3897 H 380.892 -4.16557 0.169088 0
M  V30 3898 H 379.552 -3.20633 -0.512275 0
M  V30 3899 H 380.563 -4.18304 3.05356 0
M  V30 3900 H 377.24 -4.1481 0.473134 0
M  V30 3901 H 378.63 -5.07096 4.40798 0
M  V30 3902 N 381.35 -0.985608 -1.22978 0
M  V30 3903 C 382.596 -0.65836 -1.91816 0
M  V30 3904 C 382.929 0.806692 -1.76653 0
M  V30 3905 O 382.204 1.58252 -1.13078 0
M  V30 3906 C 382.487 -1.056 -3.44268 0
M  V30 3907 C 382.34 -2.57906 -3.68516 0
M  V30 3908 C 383.659 -0.603781 -4.35939 0
M  V30 3909 H 380.778 -0.24065 -0.696604 0
M  V30 3910 H 383.42 -1.22783 -1.44998 0
M  V30 3911 H 381.57 -0.571445 -3.84274 0
M  V30 3912 H 383.242 -3.13976 -3.3796 0
M  V30 3913 H 381.485 -3.00305 -3.13048 0
M  V30 3914 H 382.156 -2.80779 -4.75255 0
M  V30 3915 H 384.632 -1.01987 -4.03408 0
M  V30 3916 H 383.508 -0.910383 -5.41298 0
M  V30 3917 H 383.769 0.495761 -4.39312 0
M  V30 3918 N 382.828 1.3818 -0.7579 0
M  V30 3919 C 383.791 2.28764 -0.141286 0
M  V30 3920 C 384.791 1.47388 0.642907 0
M  V30 3921 O 385.981 1.67781 0.468536 0
M  V30 3922 C 383.113 3.31184 0.808069 0
M  V30 3923 H 384.306 2.848 -0.939633 0
M  V30 3924 H 381.859 1.47212 -0.525191 0
M  V30 3925 H 382.594 2.80247 1.63193 0
M  V30 3926 H 382.379 3.91314 0.248104 0
M  V30 3927 H 383.869 3.98909 1.23536 0
M  V30 3928 N 384.306 0.507319 1.49211 0
M  V30 3929 C 385.269 -0.256763 2.27757 0
M  V30 3930 C 386.269 -0.888287 1.34038 0
M  V30 3931 O 387.459 -0.751841 1.5714 0
M  V30 3932 C 384.591 -1.36905 3.12202 0
M  V30 3933 H 385.784 0.432557 2.96764 0
M  V30 3934 H 383.337 0.262488 1.5408 0
M  V30 3935 H 384.072 -2.09233 2.47775 0
M  V30 3936 H 383.857 -0.921599 3.81115 0
M  V30 3937 H 385.347 -1.9071 3.7151 0
M  V30 3938 N 385.784 -1.5574 0.241426 0
M  V30 3939 C 386.747 -2.19877 -0.647063 0
M  V30 3940 C 387.747 -1.16642 -1.10686 0
M  V30 3941 O 388.937 -1.41757 -1.01245 0
M  V30 3942 C 386.069 -2.83797 -1.88871 0
M  V30 3943 H 387.262 -2.99772 -0.087574 0
M  V30 3944 H 384.815 -1.56298 -0.00813574 0
M  V30 3945 H 385.55 -2.07824 -2.48957 0
M  V30 3946 H 385.335 -3.59414 -1.56728 0
M  V30 3947 H 386.825 -3.32898 -2.52129 0
M  V30 3948 N 387.262 0.0317525 -1.57568 0
M  V30 3949 C 388.212 1.04101 -2.02847 0
M  V30 3950 C 389.196 1.3219 -0.917317 0
M  V30 3951 O 390.388 1.31819 -1.18121 0
M  V30 3952 C 387.517 2.34295 -2.5092 0
M  V30 3953 C 386.603 2.09308 -3.68851 0
M  V30 3954 N 386.994 1.5437 -4.81667 0
M  V30 3955 C 385.292 2.39604 -3.76172 0
M  V30 3956 C 385.993 1.45126 -5.63306 0
M  V30 3957 N 384.969 1.92589 -5.08341 0
M  V30 3958 H 388.771 0.610217 -2.87495 0
M  V30 3959 H 386.285 0.238108 -1.60645 0
M  V30 3960 H 388.282 3.07404 -2.81617 0
M  V30 3961 H 386.942 2.78055 -1.67677 0
M  V30 3962 H 387.953 1.22678 -5.03161 0
M  V30 3963 H 384.63 2.86457 -3.03724 0
M  V30 3964 H 386.02 1.03163 -6.63933 0
M  V30 3965 N 388.74 1.54641 0.303973 0
M  V30 3966 C 389.965 1.78092 1.06292 0
M  V30 3967 C 390.39 0.537342 1.80262 0
M  V30 3968 O 389.748 -0.511993 1.7392 0
M  V30 3969 C 389.796 2.98612 2.02147 0
M  V30 3970 O 388.9 2.71528 3.10397 0
M  V30 3971 H 388.241 0.589548 0.305497 0
M  V30 3972 H 390.771 2.01716 0.3423 0
M  V30 3973 H 390.781 3.265 2.44667 0
M  V30 3974 H 389.456 3.88785 1.47714 0
M  V30 3975 H 388.033 2.54648 2.72413 0
M  V30 3976 N 390.218 -0.567019 1.47046 0
M  V30 3977 C 391.467 -1.32091 1.5243 0
M  V30 3978 C 391.78 -1.94704 0.187021 0
M  V30 3979 O 392.986 -2.7124 0.118771 0
M  V30 3980 C 391.442 -2.39479 2.68659 0
M  V30 3981 C 391.05 -1.831 4.08874 0
M  V30 3982 C 392.794 -3.16111 2.83327 0
M  V30 3983 C 390.701 -2.8821 5.16419 0
M  V30 3984 H 389.631 -0.496629 0.56734 0
M  V30 3985 H 392.282 -0.603354 1.73297 0
M  V30 3986 H 390.664 -3.14105 2.41152 0
M  V30 3987 H 391.838 -1.14913 4.46242 0
M  V30 3988 H 390.153 -1.19085 3.99008 0
M  V30 3989 H 392.75 -3.94585 3.60842 0
M  V30 3990 H 393.093 -3.69686 1.91411 0
M  V30 3991 H 393.626 -2.48595 3.10556 0
M  V30 3992 H 390.365 -2.39504 6.10179 0
M  V30 3993 H 389.885 -3.54839 4.8358 0
M  V30 3994 H 391.564 -3.51881 5.42945 0
M  V30 3995 N 391.696 -1.35014 -0.812953 0
M  V30 3996 C 392.629 -1.21761 -1.93001 0
M  V30 3997 C 393.607 -0.10694 -1.62248 0
M  V30 3998 O 394.791 -0.273891 -1.865 0
M  V30 3999 C 391.918 -0.873404 -3.27245 0
M  V30 4000 C 390.964 -1.99523 -3.76952 0
M  V30 4001 S 391.797 -3.61009 -3.95516 0
M  V30 4002 C 392.953 -3.28651 -5.32672 0
M  V30 4003 H 393.186 -2.16315 -2.03948 0
M  V30 4004 H 390.719 -1.20156 -0.969631 0
M  V30 4005 H 392.677 -0.68161 -4.04802 0
M  V30 4006 H 391.338 0.053971 -3.14054 0
M  V30 4007 H 390.531 -1.70838 -4.74163 0
M  V30 4008 H 390.133 -2.14503 -3.06373 0
M  V30 4009 H 392.425 -2.81085 -6.1644 0
M  V30 4010 H 393.368 -4.25039 -5.66346 0
M  V30 4011 H 393.776 -2.6458 -4.98656 0
M  V30 4012 N 393.175 1.03435 -1.18907 0
M  V30 4013 C 394.591 1.28973 -0.940111 0
M  V30 4014 C 394.791 1.97676 0.390691 0
M  V30 4015 O 393.847 2.26127 1.12352 0
M  V30 4016 C 395.16 2.14221 -2.11021 0
M  V30 4017 C 396.708 2.27547 -2.14922 0
M  V30 4018 C 397.183 3.16164 -3.31367 0
M  V30 4019 N 398.674 3.23752 -3.31269 0
M  V30 4020 C 399.409 3.92495 -4.18014 0
M  V30 4021 N 398.905 4.63515 -5.14904 0
M  V30 4022 N 400.698 3.88838 -4.05908 0
M  V30 4023 H 392.849 0.57252 -2.04538 0
M  V30 4024 H 395.112 0.315184 -0.894071 0
M  V30 4025 H 394.818 1.71054 -3.073 0
M  V30 4026 H 394.692 3.14919 -2.0762 0
M  V30 4027 H 397.079 2.69947 -1.19217 0
M  V30 4028 H 397.16 1.26418 -2.22378 0
M  V30 4029 H 396.804 2.74474 -4.27348 0
M  V30 4030 H 396.734 4.17339 -3.21148 0
M  V30 4031 H 399.225 2.73167 -2.61129 0
M  V30 4032 H 399.538 5.13583 -5.77453 0
M  V30 4033 H 397.883 4.62398 -5.18857 0
M  V30 4034 H 401.074 3.32491 -3.29495 0
M  V30 4035 H 401.247 4.4214 -4.73726 0
M  V30 4036 N 394.653 0.992116 1.22453 0
M  V30 4037 C 396.064 0.702776 1.72968 0
M  V30 4038 C 396.415 -0.780399 1.80012 0
M  V30 4039 O 395.54 -1.61007 1.44589 0
M  V30 4040 C 396.135 1.26903 3.14135 0
M  V30 4041 C 394.694 1.02909 3.62059 0
M  V30 4042 C 393.841 1.38969 2.39964 0
M  V30 4043 H 396.792 1.16457 1.07812 0
M  V30 4044 H 396.813 0.647223 3.74955 0
M  V30 4045 H 396.325 2.34851 3.08977 0
M  V30 4046 H 394.426 -0.0337979 3.72585 0
M  V30 4047 H 394.539 1.69191 4.48231 0
M  V30 4048 H 392.903 0.808279 2.41535 0
M  V30 4049 H 393.686 2.4792 2.37467 0
M  V30 4050 N 396.131 -1.37776 0.765217 0
M  V30 4051 C 397.361 -2.03828 0.337277 0
M  V30 4052 C 397.769 -1.57841 -1.04321 0
M  V30 4053 O 397.112 -0.752043 -1.67601 0
M  V30 4054 C 397.174 -3.58292 0.294407 0
M  V30 4055 C 396.838 -4.27384 1.61838 0
M  V30 4056 C 397.835 -4.51956 2.56967 0
M  V30 4057 C 395.52 -4.65345 1.89102 0
M  V30 4058 C 397.514 -5.13536 3.77571 0
M  V30 4059 C 395.201 -5.26647 3.09978 0
M  V30 4060 C 396.199 -5.50679 4.04032 0
M  V30 4061 O 395.887 -6.10702 5.2278 0
M  V30 4062 H 395.619 -0.661292 0.140248 0
M  V30 4063 H 398.173 -1.77222 1.03834 0
M  V30 4064 H 396.403 -3.83918 -0.462983 0
M  V30 4065 H 398.092 -4.05763 -0.105581 0
M  V30 4066 H 398.858 -4.23048 2.37183 0
M  V30 4067 H 394.737 -4.45978 1.16725 0
M  V30 4068 H 398.281 -5.3221 4.50997 0
M  V30 4069 H 394.178 -5.54979 3.29649 0
M  V30 4070 H 394.946 -6.29183 5.23517 0
M  V30 4071 N 397.609 -0.515225 -1.4894 0
M  V30 4072 C 398.839 0.0205735 -2.0659 0
M  V30 4073 C 399.247 1.30064 -1.37405 0
M  V30 4074 O 398.59 1.78087 -0.450632 0
M  V30 4075 C 398.652 0.330124 -3.57981 0
M  V30 4076 C 398.316 -0.854295 -4.48944 0
M  V30 4077 C 399.313 -1.7487 -4.89609 0
M  V30 4078 C 396.998 -1.05712 -4.9105 0
M  V30 4079 C 398.992 -2.82996 -5.71132 0
M  V30 4080 C 396.679 -2.14154 -5.72347 0
M  V30 4081 C 397.677 -3.0263 -6.12294 0
M  V30 4082 O 397.365 -4.09198 -6.91962 0
M  V30 4083 H 397.097 -0.0236833 -0.675585 0
M  V30 4084 H 399.651 -0.715956 -1.92518 0
M  V30 4085 H 397.881 1.12044 -3.70112 0
M  V30 4086 H 399.57 0.806233 -3.97812 0
M  V30 4087 H 400.336 -1.60388 -4.57712 0
M  V30 4088 H 396.215 -0.377788 -4.59449 0
M  V30 4089 H 399.759 -3.52083 -6.02232 0
M  V30 4090 H 395.656 -2.28626 -6.03656 0
M  V30 4091 H 396.424 -4.06726 -7.10293 0
M  V30 4092 N 399.087 1.5561 -0.249682 0
M  V30 4093 C 400.019 2.18834 0.681496 0
M  V30 4094 C 401.032 1.16546 1.1367 0
M  V30 4095 O 402.221 1.43397 1.06299 0
M  V30 4096 C 399.321 2.77992 1.9384 0
M  V30 4097 C 398.494 4.05725 1.63419 0
M  V30 4098 C 397.553 4.49174 2.74096 0
M  V30 4099 O 396.579 5.15492 2.41364 0
M  V30 4100 N 397.781 4.17191 4.03649 0
M  V30 4101 H 400.546 2.9937 0.140514 0
M  V30 4102 H 398.107 1.6175 -0.0697541 0
M  V30 4103 H 400.099 3.04015 2.67127 0
M  V30 4104 H 398.669 2.01596 2.38909 0
M  V30 4105 H 397.889 3.87261 0.736358 0
M  V30 4106 H 399.177 4.88999 1.40562 0
M  V30 4107 H 398.575 3.63955 4.33074 0
M  V30 4108 H 397.132 4.48043 4.73393 0
M  V30 4109 N 400.565 -0.0233959 1.57583 0
M  V30 4110 C 401.813 -0.711654 1.89156 0
M  V30 4111 C 402.134 -1.75591 0.848096 0
M  V30 4112 O 401.404 -1.95547 -0.117566 0
M  V30 4113 H 399.984 -0.265835 0.698098 0
M  V30 4114 H 402.646 0.0119948 1.94896 0
M  V30 4115 H 401.742 -1.19766 2.88206 0
M  V30 4116 N 402.043 -1.548 -0.295768 0
M  V30 4117 C 403.454 -1.65274 -0.868411 0
M  V30 4118 C 403.805 -0.56481 -1.87894 0
M  V30 4119 O 402.93 0.29767 -2.14343 0
M  V30 4120 C 403.525 -2.99603 -1.58188 0
M  V30 4121 C 402.084 -3.12181 -2.10286 0
M  V30 4122 C 401.231 -2.6098 -0.93727 0
M  V30 4123 H 404.182 -1.58534 -0.0726422 0
M  V30 4124 H 404.203 -2.91319 -2.44772 0
M  V30 4125 H 403.715 -3.78764 -0.846151 0
M  V30 4126 H 401.816 -2.3775 -2.8689 0
M  V30 4127 H 401.929 -4.18415 -2.33379 0
M  V30 4128 H 400.293 -2.17564 -1.32431 0
M  V30 4129 H 401.076 -3.42623 -0.215414 0
M  V30 4130 N 403.521 0.559213 -1.47345 0
M  V30 4131 C 404.767 1.31843 -1.54095 0
M  V30 4132 C 405.1 1.93149 -0.201726 0
M  V30 4133 O 404.375 1.77759 0.789428 0
M  V30 4134 C 404.658 2.43006 -2.65744 0
M  V30 4135 C 404.511 1.86581 -4.09277 0
M  V30 4136 C 405.83 3.44943 -2.73318 0
M  V30 4137 H 402.949 0.478012 -0.560957 0
M  V30 4138 H 405.591 0.625977 -1.79392 0
M  V30 4139 H 403.741 3.02072 -2.44305 0
M  V30 4140 H 405.413 1.31792 -4.42073 0
M  V30 4141 H 403.656 1.17268 -4.17649 0
M  V30 4142 H 404.327 2.66933 -4.83168 0
M  V30 4143 H 406.803 2.95793 -2.92653 0
M  V30 4144 H 405.679 4.20153 -3.53218 0
M  V30 4145 H 405.94 4.03665 -1.80296 0
M  V30 4146 N 404.999 1.35443 0.805782 0
M  V30 4147 C 406.247 1.28507 1.55982 0
M  V30 4148 C 406.568 -0.140046 1.94496 0
M  V30 4149 O 405.838 -1.07666 1.63661 0
M  V30 4150 H 404.418 0.472676 0.578434 0
M  V30 4151 H 407.08 1.69555 0.961098 0
M  V30 4152 H 406.176 1.90148 2.47488 0
M  V30 4153 N 406.477 -1.02803 1.19454 0
M  V30 4154 C 407.754 -1.73299 0.907013 0
M  V30 4155 C 408.134 -2.02772 -0.587086 0
M  V30 4156 O 407.482 -1.68304 -1.54551 0
M  V30 4157 C 407.692 -3.00912 1.76785 0
M  V30 4158 C 409.04 -3.74403 2.00268 0
M  V30 4159 O 410.064 -3.10841 1.73943 0
M  V30 4160 O 408.923 -4.88675 2.4466 0
M  V30 4161 H 406.017 -0.754727 0.338106 0
M  V30 4162 H 408.563 -1.08754 1.30271 0
M  V30 4163 H 407.335 -2.75366 2.7801 0
M  V30 4164 H 406.958 -3.73197 1.37149 0
M  V30 4165 N 407.956 -0.998596 -1.21925 0
M  V30 4166 C 409.367 -0.711939 -1.72593 0
M  V30 4167 C 409.718 0.770842 -1.80423 0
M  V30 4168 O 408.843 1.60237 -1.4544 0
M  V30 4169 C 409.438 -1.28567 -3.13458 0
M  V30 4170 C 407.997 -1.04828 -3.61508 0
M  V30 4171 C 407.144 -1.4024 -2.39224 0
M  V30 4172 H 410.095 -1.17027 -1.07193 0
M  V30 4173 H 410.116 -0.667098 -3.74607 0
M  V30 4174 H 409.628 -2.36486 -3.07727 0
M  V30 4175 H 407.729 0.0140383 -3.72597 0
M  V30 4176 H 407.842 -1.71566 -4.47328 0
M  V30 4177 H 406.206 -0.821077 -2.41103 0
M  V30 4178 H 406.989 -2.49176 -2.36149 0
M  V30 4179 N 409.434 1.37368 -0.772513 0
M  V30 4180 C 410.364 2.32856 -0.173304 0
M  V30 4181 C 411.345 1.55818 0.682262 0
M  V30 4182 O 412.53 1.84052 0.619566 0
M  V30 4183 C 409.66 3.40048 0.706007 0
M  V30 4184 C 408.614 4.27973 -0.0483144 0
M  V30 4185 C 407.94 5.26184 0.950491 0
M  V30 4186 C 409.24 5.07665 -1.22776 0
M  V30 4187 H 410.934 2.83217 -0.971002 0
M  V30 4188 H 408.48 1.3617 -0.468377 0
M  V30 4189 H 410.433 4.05827 1.13501 0
M  V30 4190 H 409.157 2.88214 1.53623 0
M  V30 4191 H 407.816 3.63726 -0.458107 0
M  V30 4192 H 407.464 4.7063 1.77529 0
M  V30 4193 H 407.164 5.85872 0.450314 0
M  V30 4194 H 408.688 5.94838 1.37842 0
M  V30 4195 H 410.102 5.66578 -0.875366 0
M  V30 4196 H 408.499 5.76681 -1.66007 0
M  V30 4197 H 409.569 4.40294 -2.03149 0
M  V30 4198 N 410.912 0.523116 1.48665 0
M  V30 4199 C 412.328 0.180511 1.58576 0
M  V30 4200 C 412.528 -1.31597 1.52592 0
M  V30 4201 O 411.584 -2.0937 1.4114 0
M  V30 4202 C 412.897 0.776949 2.90489 0
M  V30 4203 C 414.445 0.745058 3.04003 0
M  V30 4204 C 414.92 1.31995 4.38567 0
M  V30 4205 N 416.411 1.28162 4.45117 0
M  V30 4206 C 417.146 1.6964 5.47731 0
M  V30 4207 N 416.642 2.18816 6.57337 0
M  V30 4208 N 418.435 1.6092 5.38573 0
M  V30 4209 H 410.586 1.4958 1.50797 0
M  V30 4210 H 412.849 0.621772 0.715614 0
M  V30 4211 H 412.555 1.82732 3.00503 0
M  V30 4212 H 412.429 0.25007 3.7637 0
M  V30 4213 H 414.816 -0.296532 2.93606 0
M  V30 4214 H 414.897 1.30933 2.1975 0
M  V30 4215 H 414.541 2.36043 4.49718 0
M  V30 4216 H 414.471 0.731418 5.21496 0
M  V30 4217 H 416.962 0.92155 3.66491 0
M  V30 4218 H 417.275 2.48478 7.31764 0
M  V30 4219 H 415.62 2.22805 6.58318 0
M  V30 4220 H 418.811 1.22304 4.5184 0
M  V30 4221 H 418.984 1.93567 6.18414 0
M  V30 4222 N 412.39 -1.55475 0.257931 0
M  V30 4223 C 413.62 -2.03314 -0.367026 0
M  V30 4224 C 414.028 -1.13625 -1.51281 0
M  V30 4225 O 413.371 -0.145334 -1.83124 0
M  V30 4226 C 413.433 -3.47362 -0.926284 0
M  V30 4227 C 413.097 -4.56914 0.0886584 0
M  V30 4228 C 414.094 -5.12013 0.902123 0
M  V30 4229 C 411.779 -5.01827 0.217936 0
M  V30 4230 C 413.773 -6.10529 1.83122 0
M  V30 4231 C 411.46 -6.00172 1.15052 0
M  V30 4232 C 412.458 -6.54402 1.95568 0
M  V30 4233 O 412.146 -7.50827 2.87253 0
M  V30 4234 H 411.878 -0.669976 -0.0900443 0
M  V30 4235 H 414.432 -2.01804 0.382673 0
M  V30 4236 H 412.662 -3.46056 -1.72575 0
M  V30 4237 H 414.351 -3.78637 -1.46249 0
M  V30 4238 H 415.117 -4.78139 0.812891 0
M  V30 4239 H 410.996 -4.59272 -0.398721 0
M  V30 4240 H 414.54 -6.52783 2.46008 0
M  V30 4241 H 410.437 -6.33465 1.24064 0
M  V30 4242 H 411.205 -7.68483 2.81739 0
M  V30 4243 N 413.868 0.0150385 -1.57593 0
M  V30 4244 C 415.116 0.701613 -1.8953 0
M  V30 4245 C 415.437 1.75139 -0.857396 0
M  V30 4246 O 414.707 1.95607 0.107194 0
M  V30 4247 H 413.287 0.26213 -0.699498 0
M  V30 4248 H 415.949 -0.0223304 -1.94887 0
M  V30 4249 H 415.045 1.18236 -2.88837 0
M  V30 4250 N 415.346 1.54954 0.287554 0
M  V30 4251 C 416.276 1.89839 1.35954 0
M  V30 4252 C 417.257 0.758675 1.52244 0
M  V30 4253 O 418.442 1.01557 1.65529 0
M  V30 4254 C 415.572 2.15753 2.72154 0
M  V30 4255 C 414.526 3.3159 2.70614 0
M  V30 4256 C 413.852 3.42952 4.10229 0
M  V30 4257 C 415.152 4.68359 2.31165 0
M  V30 4258 H 416.846 2.79625 1.07007 0
M  V30 4259 H 414.392 1.3454 0.513316 0
M  V30 4260 H 416.345 2.38743 3.47246 0
M  V30 4261 H 415.069 1.22752 3.02654 0
M  V30 4262 H 413.728 3.08545 1.97979 0
M  V30 4263 H 413.376 2.47443 4.37928 0
M  V30 4264 H 413.076 4.20826 4.10097 0
M  V30 4265 H 414.6 3.68218 4.87081 0
M  V30 4266 H 416.014 4.9099 2.95976 0
M  V30 4267 H 414.411 5.49044 2.42221 0
M  V30 4268 H 415.481 4.68165 1.26291 0
M  V30 4269 N 416.824 -0.551391 1.4764 0
M  V30 4270 C 418.235 -1.13349 1.48354 0
M  V30 4271 C 418.586 -1.94709 0.241432 0
M  V30 4272 O 417.711 -2.06306 -0.653205 0
M  V30 4273 C 418.306 -2.0623 2.68802 0
M  V30 4274 C 416.865 -2.597 2.72457 0
M  V30 4275 C 416.012 -1.36201 2.41546 0
M  V30 4276 H 418.963 -0.337698 1.55065 0
M  V30 4277 H 418.984 -2.90196 2.46103 0
M  V30 4278 H 418.496 -1.46987 3.59188 0
M  V30 4279 H 416.597 -3.22724 1.86225 0
M  V30 4280 H 416.71 -3.00296 3.73308 0
M  V30 4281 H 415.074 -1.67068 1.9225 0
M  V30 4282 H 415.857 -0.787425 3.34147 0
M  V30 4283 N 418.302 -1.35869 -0.798587 0
M  V30 4284 C 419.532 -1.32529 -1.58491 0
M  V30 4285 C 419.94 0.0975405 -1.88948 0
M  V30 4286 O 419.283 1.06224 -1.49874 0
M  V30 4287 C 419.345 -2.07247 -2.9375 0
M  V30 4288 C 419.009 -3.56391 -2.86068 0
M  V30 4289 C 420.006 -4.50824 -2.58947 0
M  V30 4290 C 417.691 -3.9915 -3.04933 0
M  V30 4291 C 419.685 -5.85993 -2.5078 0
M  V30 4292 C 417.372 -5.34413 -2.96389 0
M  V30 4293 C 418.37 -6.27646 -2.69349 0
M  V30 4294 O 418.058 -7.60426 -2.60782 0
M  V30 4295 H 417.79 -0.456529 -0.498556 0
M  V30 4296 H 420.344 -1.79425 -0.999799 0
M  V30 4297 H 418.574 -1.55001 -3.54276 0
M  V30 4298 H 420.263 -1.96883 -3.54954 0
M  V30 4299 H 421.029 -4.19104 -2.44084 0
M  V30 4300 H 416.908 -3.26961 -3.24989 0
M  V30 4301 H 420.452 -6.58735 -2.29595 0
M  V30 4302 H 416.349 -5.65743 -3.10813 0
M  V30 4303 H 417.117 -7.70444 -2.76331 0
M  V30 4304 N 419.78 1.02168 -1.19998 0
M  V30 4305 C 420.69 2.14069 -0.959774 0
M  V30 4306 C 421.706 1.73804 0.082655 0
M  V30 4307 O 422.882 2.01133 -0.103633 0
M  V30 4308 C 419.947 3.42936 -0.509459 0
M  V30 4309 C 419.008 3.97474 -1.62213 0
M  V30 4310 C 418.241 5.2019 -1.19321 0
M  V30 4311 O 418.464 5.70369 -0.0597726 0
M  V30 4312 O 417.398 5.67749 -1.99863 0
M  V30 4313 H 421.224 2.37199 -1.89658 0
M  V30 4314 H 418.809 1.12469 -0.983411 0
M  V30 4315 H 420.691 4.20551 -0.267322 0
M  V30 4316 H 419.366 3.21234 0.398821 0
M  V30 4317 H 418.273 3.21161 -1.9185 0
M  V30 4318 H 419.606 4.23555 -2.50723 0
M  V30 4319 N 421.258 1.00505 1.21394 0
M  V30 4320 C 422.535 0.603277 1.86064 0
M  V30 4321 C 422.915 -0.919095 1.90042 0
M  V30 4322 O 422.263 -1.80607 1.39977 0
M  V30 4323 C 422.473 1.23772 3.26315 0
M  V30 4324 C 423.821 1.34586 4.02705 0
M  V30 4325 O 424.845 1.19304 3.35626 0
M  V30 4326 O 423.704 1.59169 5.22807 0
M  V30 4327 H 420.798 0.206634 0.800769 0
M  V30 4328 H 423.344 1.1017 1.29076 0
M  V30 4329 H 422.116 2.27848 3.18121 0
M  V30 4330 H 421.739 0.725648 3.90922 0
M  V30 4331 N 422.737 -1.36956 0.779787 0
M  V30 4332 C 423.684 -2.30175 0.169697 0
M  V30 4333 C 424.654 -1.51501 -0.68094 0
M  V30 4334 O 425.839 -1.80042 -0.631629 0
M  V30 4335 C 422.979 -3.37985 -0.697131 0
M  V30 4336 C 422.092 -4.31661 0.170992 0
M  V30 4337 C 421.227 -5.2655 -0.701298 0
M  V30 4338 C 420.266 -6.11867 0.168869 0
M  V30 4339 N 419.403 -6.98973 -0.661855 0
M  V30 4340 H 424.243 -2.81767 0.970135 0
M  V30 4341 H 421.78 -1.38699 0.489994 0
M  V30 4342 H 423.738 -3.99128 -1.2146 0
M  V30 4343 H 422.368 -2.87739 -1.46309 0
M  V30 4344 H 421.42 -3.71756 0.80634 0
M  V30 4345 H 422.732 -4.91644 0.841875 0
M  V30 4346 H 421.886 -5.92937 -1.28494 0
M  V30 4347 H 420.625 -4.66998 -1.40584 0
M  V30 4348 H 419.63 -5.44452 0.764986 0
M  V30 4349 H 420.855 -6.73493 0.870863 0
M  V30 4350 H 418.801 -6.41941 -1.35086 0
M  V30 4351 H 418.718 -7.55984 -0.0484447 0
M  V30 4352 H 419.986 -7.6974 -1.22963 0
M  V30 4353 N 424.215 -0.530993 -1.48385 0
M  V30 4354 C 425.461 0.00274135 -2.028 0
M  V30 4355 C 425.794 1.33838 -1.40716 0
M  V30 4356 O 425.069 1.86465 -0.553277 0
M  V30 4357 C 425.352 0.123676 -3.59888 0
M  V30 4358 C 425.205 -1.2372 -4.3245 0
M  V30 4359 C 426.524 0.849967 -4.31814 0
M  V30 4360 H 423.643 -0.000477758 -0.737 0
M  V30 4361 H 426.285 -0.688217 -1.77098 0
M  V30 4362 H 424.435 0.712157 -3.81917 0
M  V30 4363 H 426.107 -1.86687 -4.21836 0
M  V30 4364 H 424.35 -1.81882 -3.93829 0
M  V30 4365 H 425.021 -1.10557 -5.40815 0
M  V30 4366 H 427.497 0.350572 -4.14621 0
M  V30 4367 H 426.373 0.903486 -5.41413 0
M  V30 4368 H 426.634 1.90047 -3.99167 0
M  V30 4369 N 425.693 1.55336 -0.266172 0
M  V30 4370 C 427.109 1.59356 0.0882065 0
M  V30 4371 C 427.309 1.2834 1.55342 0
M  V30 4372 O 426.365 1.03996 2.30089 0
M  V30 4373 C 427.678 2.99409 -0.278364 0
M  V30 4374 C 429.226 3.12196 -0.224243 0
M  V30 4375 C 429.701 4.545 -0.565123 0
M  V30 4376 N 431.192 4.60313 -0.51634 0
M  V30 4377 C 431.927 5.68434 -0.753013 0
M  V30 4378 N 431.423 6.84738 -1.05383 0
M  V30 4379 N 433.216 5.57942 -0.682414 0
M  V30 4380 H 425.367 1.73764 -1.22147 0
M  V30 4381 H 427.63 0.809822 -0.492841 0
M  V30 4382 H 427.336 3.2691 -1.29703 0
M  V30 4383 H 427.21 3.75228 0.385186 0
M  V30 4384 H 429.597 2.84464 0.78512 0
M  V30 4385 H 429.678 2.38609 -0.921922 0
M  V30 4386 H 429.322 4.82956 -1.57213 0
M  V30 4387 H 429.252 5.26374 0.154248 0
M  V30 4388 H 431.743 3.7676 -0.29335 0
M  V30 4389 H 432.056 7.63088 -1.22133 0
M  V30 4390 H 430.401 6.86375 -1.09151 0
M  V30 4391 H 433.592 4.65958 -0.44731 0
M  V30 4392 H 433.765 6.4213 -0.870248 0
M  V30 4393 N 427.171 -0.0066808 1.57599 0
M  V30 4394 C 428.417 -0.693947 1.90558 0
M  V30 4395 C 428.75 -1.73792 0.866594 0
M  V30 4396 O 428.025 -1.94156 -0.115548 0
M  V30 4397 C 428.308 -1.34317 3.34112 0
M  V30 4398 C 428.161 -0.311189 4.48722 0
M  V30 4399 C 429.48 -2.27116 3.7697 0
M  V30 4400 H 426.599 -0.250803 0.693013 0
M  V30 4401 H 429.241 0.043242 1.89951 0
M  V30 4402 H 427.391 -1.9715 3.3476 0
M  V30 4403 H 429.063 0.316944 4.6021 0
M  V30 4404 H 427.306 0.367253 4.32243 0
M  V30 4405 H 427.977 -0.804366 5.46108 0
M  V30 4406 H 430.453 -1.74306 3.77831 0
M  V30 4407 H 429.329 -2.69511 4.78179 0
M  V30 4408 H 429.59 -3.14743 3.10466 0
M  V30 4409 N 428.649 -1.55105 -0.279332 0
M  V30 4410 C 429.895 -1.76597 -1.00921 0
M  V30 4411 C 430.25 -0.556831 -1.84166 0
M  V30 4412 O 429.543 0.450573 -1.86227 0
M  V30 4413 C 429.737 -3.0086 -1.92919 0
M  V30 4414 C 429.566 -4.33744 -1.18728 0
M  V30 4415 C 428.336 -4.9712 -0.905545 0
M  V30 4416 C 430.534 -5.11009 -0.580857 0
M  V30 4417 N 428.516 -6.13749 -0.136169 0
M  V30 4418 C 429.887 -6.19976 0.0546661 0
M  V30 4419 C 431.942 -4.95502 -0.488067 0
M  V30 4420 C 430.645 -7.15123 0.774028 0
M  V30 4421 C 432.671 -5.90999 0.217688 0
M  V30 4422 C 432.033 -6.9935 0.841975 0
M  V30 4423 H 428.132 -0.698553 -0.351493 0
M  V30 4424 H 430.716 -1.92595 -0.285531 0
M  V30 4425 H 428.887 -2.86249 -2.62519 0
M  V30 4426 H 430.619 -3.10784 -2.59221 0
M  V30 4427 H 427.374 -4.57903 -1.20921 0
M  V30 4428 H 427.798 -6.7659 0.235665 0
M  V30 4429 H 432.44 -4.11841 -0.956406 0
M  V30 4430 H 430.158 -7.9831 1.25407 0
M  V30 4431 H 433.744 -5.81078 0.289717 0
M  V30 4432 H 432.624 -7.71973 1.37939 0
M  V30 4433 N 430.127 0.543554 -1.4793 0
M  V30 4434 C 431.059 1.665 -1.57513 0
M  V30 4435 C 432.072 1.56156 -0.460333 0
M  V30 4436 O 433.261 1.62865 -0.730573 0
M  V30 4437 C 430.361 3.05063 -1.47614 0
M  V30 4438 C 429.534 3.41024 -2.739 0
M  V30 4439 C 428.593 4.58809 -2.57645 0
M  V30 4440 O 427.619 4.62707 -3.31498 0
M  V30 4441 N 428.821 5.56149 -1.66368 0
M  V30 4442 H 431.586 1.5872 -2.5422 0
M  V30 4443 H 429.147 0.730517 -1.44482 0
M  V30 4444 H 431.139 3.81712 -1.34455 0
M  V30 4445 H 429.709 3.06994 -0.589359 0
M  V30 4446 H 428.929 2.53687 -3.01723 0
M  V30 4447 H 430.217 3.61831 -3.57709 0
M  V30 4448 H 429.615 5.55767 -1.05543 0
M  V30 4449 H 428.172 6.32071 -1.59154 0
M  V30 4450 N 431.605 1.3629 0.791371 0
M  V30 4451 C 432.535 1.33137 1.91825 0
M  V30 4452 C 433.516 0.203168 1.68882 0
M  V30 4453 O 434.701 0.400509 1.90025 0
M  V30 4454 C 431.831 1.11793 3.28816 0
M  V30 4455 C 430.785 2.21417 3.66277 0
M  V30 4456 C 430.111 1.85218 5.01596 0
M  V30 4457 C 431.411 3.63489 3.75064 0
M  V30 4458 H 433.105 2.2743 1.9472 0
M  V30 4459 H 430.651 1.09479 0.935437 0
M  V30 4460 H 432.604 1.08222 4.07266 0
M  V30 4461 H 431.328 0.139501 3.26302 0
M  V30 4462 H 429.987 2.2411 2.90121 0
M  V30 4463 H 429.635 0.859544 4.95602 0
M  V30 4464 H 429.335 2.58611 5.27631 0
M  V30 4465 H 430.859 1.832 5.82469 0
M  V30 4466 H 432.273 3.63034 4.43711 0
M  V30 4467 H 430.67 4.35771 4.12582 0
M  V30 4468 H 431.74 3.98536 2.76219 0
M  V30 4469 N 433.083 -1.0153 1.20538 0
M  V30 4470 C 434.313 -1.78487 1.04048 0
M  V30 4471 C 434.721 -1.84631 -0.413292 0
M  V30 4472 O 434.064 -1.29919 -1.29872 0
M  V30 4473 C 434.126 -3.24367 1.55003 0
M  V30 4474 C 433.79 -3.41827 3.0332 0
M  V30 4475 C 434.787 -3.30941 4.00966 0
M  V30 4476 C 432.472 -3.67602 3.42307 0
M  V30 4477 C 434.466 -3.45577 5.35589 0
M  V30 4478 C 432.153 -3.81881 4.77085 0
M  V30 4479 C 433.151 -3.70874 5.73534 0
M  V30 4480 O 432.839 -3.84714 7.05868 0
M  V30 4481 H 432.571 -0.568108 0.366373 0
M  V30 4482 H 435.125 -1.28677 1.60098 0
M  V30 4483 H 433.355 -3.75266 0.933397 0
M  V30 4484 H 435.044 -3.82963 1.34514 0
M  V30 4485 H 435.81 -3.10964 3.72191 0
M  V30 4486 H 431.689 -3.75256 2.67776 0
M  V30 4487 H 435.233 -3.36902 6.10854 0
M  V30 4488 H 431.13 -4.01359 5.0555 0
M  V30 4489 H 431.898 -4.01724 7.13134 0
M  V30 4490 N 434.561 -1.01147 -1.20859 0
M  V30 4491 C 435.809 -0.696486 -1.89719 0
M  V30 4492 C 436.13 0.775788 -1.78904 0
M  V30 4493 O 435.4 1.55759 -1.18811 0
M  V30 4494 H 433.98 -0.254628 -0.702263 0
M  V30 4495 H 436.642 -1.28197 -1.46804 0
M  V30 4496 H 435.738 -0.975357 -2.96468 0
M  V30 4497 N 436.039 1.36541 -0.78704 0
M  V30 4498 C 437.285 1.99599 -0.358872 0
M  V30 4499 C 437.618 1.62323 1.06606 0
M  V30 4500 O 436.893 0.876858 1.73613 0
M  V30 4501 C 437.176 3.56327 -0.519944 0
M  V30 4502 C 437.029 4.03464 -1.98839 0
M  V30 4503 C 438.348 4.4005 0.0664737 0
M  V30 4504 H 435.467 0.725107 -0.131869 0
M  V30 4505 H 438.109 1.6199 -0.992936 0
M  V30 4506 H 436.259 3.88495 0.0198321 0
M  V30 4507 H 437.931 3.81793 -2.58905 0
M  V30 4508 H 436.174 3.55092 -2.49183 0
M  V30 4509 H 436.845 5.12439 -2.05207 0
M  V30 4510 H 439.321 4.14228 -0.394267 0
M  V30 4511 H 438.197 5.48847 -0.0762682 0
M  V30 4512 H 438.458 4.26655 1.15835 0
M  V30 4513 N 437.518 0.538854 1.48102 0
M  V30 4514 C 438.934 0.19732 1.58376 0
M  V30 4515 C 439.134 -1.29971 1.5398 0
M  V30 4516 O 438.19 -2.07861 1.43352 0
M  V30 4517 C 439.503 0.807716 2.89649 0
M  V30 4518 C 441.051 0.77726 3.03196 0
M  V30 4519 C 441.526 1.36639 4.37143 0
M  V30 4520 N 443.017 1.32875 4.43732 0
M  V30 4521 C 443.752 1.7544 5.45901 0
M  V30 4522 N 443.248 2.25776 6.54979 0
M  V30 4523 N 445.041 1.66623 5.36836 0
M  V30 4524 H 437.192 1.5117 1.49202 0
M  V30 4525 H 439.455 0.629327 0.708979 0
M  V30 4526 H 439.161 1.85909 2.98548 0
M  V30 4527 H 439.035 0.289975 3.76084 0
M  V30 4528 H 441.422 -0.265374 2.93904 0
M  V30 4529 H 441.503 1.33256 2.18349 0
M  V30 4530 H 441.147 2.408 4.47189 0
M  V30 4531 H 441.077 0.786689 5.20691 0
M  V30 4532 H 443.568 0.96037 3.65493 0
M  V30 4533 H 443.881 2.56226 7.29087 0
M  V30 4534 H 442.226 2.29775 6.55918 0
M  V30 4535 H 445.417 1.27089 4.50517 0
M  V30 4536 H 445.59 2.00115 6.16326 0
M  V30 4537 N 438.996 -1.55193 0.274407 0
M  V30 4538 C 439.906 -2.26164 -0.623473 0
M  V30 4539 C 440.922 -1.28729 -1.17068 0
M  V30 4540 O 442.098 -1.61663 -1.20112 0
M  V30 4541 C 439.163 -2.96833 -1.7914 0
M  V30 4542 C 438.224 -4.09745 -1.28093 0
M  V30 4543 C 437.457 -4.77034 -2.3932 0
M  V30 4544 O 437.68 -4.4353 -3.5866 0
M  V30 4545 O 436.614 -5.64996 -2.07516 0
M  V30 4546 H 440.44 -3.03661 -0.0485661 0
M  V30 4547 H 438.025 -1.49341 0.0418382 0
M  V30 4548 H 439.907 -3.41248 -2.4724 0
M  V30 4549 H 438.582 -2.22253 -2.35341 0
M  V30 4550 H 437.489 -3.69787 -0.566416 0
M  V30 4551 H 438.822 -4.86224 -0.764683 0
M  V30 4552 N 440.474 -0.00167713 -1.576 0
M  V30 4553 C 441.699 0.69739 -1.95323 0
M  V30 4554 C 442.124 1.6642 -0.876706 0
M  V30 4555 O 441.482 1.80548 0.165007 0
M  V30 4556 C 441.53 1.40403 -3.32144 0
M  V30 4557 O 440.634 2.5185 -3.26566 0
M  V30 4558 H 439.975 0.185373 -0.637599 0
M  V30 4559 H 442.505 -0.0553665 -2.04525 0
M  V30 4560 H 442.515 1.76707 -3.67748 0
M  V30 4561 H 441.19 0.695167 -4.10049 0
M  V30 4562 H 439.767 2.17861 -3.0264 0
M  V30 4563 N 441.952 1.55251 0.271103 0
M  V30 4564 C 443.198 1.76207 1.00394 0
M  V30 4565 C 443.531 0.562604 1.85872 0
M  V30 4566 O 442.806 -0.439785 1.89463 0
M  V30 4567 C 443.089 3.06828 1.8849 0
M  V30 4568 C 442.942 4.37134 1.05992 0
M  V30 4569 C 444.261 3.33503 2.87165 0
M  V30 4570 H 441.38 0.641086 0.363562 0
M  V30 4571 H 444.022 1.87982 0.276189 0
M  V30 4572 H 442.172 2.96921 2.5054 0
M  V30 4573 H 443.844 4.59001 0.459978 0
M  V30 4574 H 442.087 4.32275 0.363443 0
M  V30 4575 H 442.758 5.2486 1.70955 0
M  V30 4576 H 445.234 3.43215 2.3525 0
M  V30 4577 H 444.11 4.2616 3.45946 0
M  V30 4578 H 444.371 2.53235 3.62387 0
M  V30 4579 N 443.43 -0.535701 1.48216 0
M  V30 4580 C 444.655 -1.32149 1.59848 0
M  V30 4581 C 445.08 -1.86338 0.256842 0
M  V30 4582 O 444.438 -1.64107 -0.770632 0
M  V30 4583 C 444.486 -2.45224 2.64381 0
M  V30 4584 O 443.59 -3.48093 2.21144 0
M  V30 4585 H 442.931 -0.391634 0.536208 0
M  V30 4586 H 445.461 -0.645202 1.94161 0
M  V30 4587 H 445.471 -2.91491 2.85476 0
M  V30 4588 H 444.146 -2.05143 3.61786 0
M  V30 4589 H 442.723 -3.07984 2.10239 0
M  V30 4590 N 444.908 -1.36708 -0.784132 0
M  V30 4591 C 446.319 -1.27947 -1.35965 0
M  V30 4592 C 446.67 0.0784013 -1.96043 0
M  V30 4593 O 445.795 0.979989 -1.92938 0
M  V30 4594 C 446.39 -2.31689 -2.47195 0
M  V30 4595 C 444.949 -2.26601 -3.00548 0
M  V30 4596 C 444.096 -2.16184 -1.73666 0
M  V30 4597 H 447.047 -1.4751 -0.585358 0
M  V30 4598 H 447.068 -1.95638 -3.26352 0
M  V30 4599 H 446.58 -3.30506 -2.03439 0
M  V30 4600 H 444.681 -1.31268 -3.48711 0
M  V30 4601 H 444.794 -3.19508 -3.57004 0
M  V30 4602 H 443.158 -1.62524 -1.96107 0
M  V30 4603 H 443.941 -3.16896 -1.32031 0
M  V30 4604 N 446.386 1.0089 -1.21074 0
M  V30 4605 C 447.614 1.78191 -1.05145 0
M  V30 4606 C 448.029 1.84537 0.398952 0
M  V30 4607 O 447.386 1.30393 1.27687 0
M  V30 4608 C 447.437 3.22288 -1.63746 0
M  V30 4609 O 447.158 3.16315 -3.03111 0
M  V30 4610 C 448.659 4.16106 -1.52875 0
M  V30 4611 H 445.879 0.560129 -0.369454 0
M  V30 4612 H 448.423 1.26945 -1.60328 0
M  V30 4613 H 446.578 3.70655 -1.12664 0
M  V30 4614 H 446.992 4.06817 -3.31059 0
M  V30 4615 H 448.466 5.15026 -1.98626 0
M  V30 4616 H 448.943 4.36541 -0.482521 0
M  V30 4617 H 449.549 3.73625 -2.03185 0
M  V30 4618 N 447.864 1.01787 1.20321 0
M  V30 4619 C 448.827 0.593972 2.2137 0
M  V30 4620 C 449.827 -0.336553 1.57239 0
M  V30 4621 O 451.017 -0.125069 1.7375 0
M  V30 4622 C 448.149 -0.132433 3.40643 0
M  V30 4623 H 449.342 1.48791 2.60387 0
M  V30 4624 H 446.895 0.807803 1.33807 0
M  V30 4625 H 447.63 -1.04123 3.0713 0
M  V30 4626 H 447.415 0.53605 3.88418 0
M  V30 4627 H 448.905 -0.416314 4.1552 0
M  V30 4628 N 449.342 -1.36122 0.79427 0
M  V30 4629 C 450.274 -2.28683 0.153903 0
M  V30 4630 C 451.287 -1.49707 -0.639669 0
M  V30 4631 O 452.476 -1.7209 -0.474054 0
M  V30 4632 C 449.576 -3.29202 -0.804921 0
M  V30 4633 C 448.749 -4.37358 -0.060366 0
M  V30 4634 C 447.808 -5.17811 -0.935849 0
M  V30 4635 O 446.834 -5.67853 -0.391309 0
M  V30 4636 N 448.036 -5.34721 -2.25951 0
M  V30 4637 H 450.801 -2.84278 0.949008 0
M  V30 4638 H 448.362 -1.4834 0.648611 0
M  V30 4639 H 450.354 -3.79914 -1.39455 0
M  V30 4640 H 448.924 -2.74212 -1.50088 0
M  V30 4641 H 448.144 -3.87746 0.710382 0
M  V30 4642 H 449.432 -5.06777 0.45324 0
M  V30 4643 H 448.83 -4.95687 -2.72601 0
M  V30 4644 H 447.387 -5.88657 -2.79867 0
M  V30 4645 N 450.82 -0.546701 -1.47814 0
M  V30 4646 C 452.231 -0.110564 -1.86372 0
M  V30 4647 C 452.582 1.31678 -1.45449 0
M  V30 4648 O 451.707 1.98889 -0.852758 0
M  V30 4649 C 452.302 -0.193873 -3.38245 0
M  V30 4650 C 450.861 0.187164 -3.75934 0
M  V30 4651 C 450.008 -0.546166 -2.71868 0
M  V30 4652 H 452.959 -0.757022 -1.39481 0
M  V30 4653 H 452.98 0.590218 -3.75895 0
M  V30 4654 H 452.492 -1.23282 -3.67999 0
M  V30 4655 H 450.593 1.22762 -3.51796 0
M  V30 4656 H 450.706 -0.164083 -4.78819 0
M  V30 4657 H 449.07 0.00953904 -2.54698 0
M  V30 4658 H 449.853 -1.58606 -3.04465 0
M  V30 4659 N 452.299 1.55045 -0.282633 0
M  V30 4660 C 453.209 2.26491 0.61147 0
M  V30 4661 C 454.225 1.29348 1.16384 0
M  V30 4662 O 455.401 1.62298 1.19253 0
M  V30 4663 C 452.466 2.97779 1.77563 0
M  V30 4664 C 451.527 4.10418 1.25919 0
M  V30 4665 C 450.76 4.78297 2.36786 0
M  V30 4666 O 450.983 4.45426 3.56303 0
M  V30 4667 O 449.917 5.66089 2.04517 0
M  V30 4668 H 453.743 3.03683 0.0324615 0
M  V30 4669 H 451.328 1.49317 -0.0497576 0
M  V30 4670 H 453.21 3.42554 2.45427 0
M  V30 4671 H 451.885 2.23498 2.34159 0
M  V30 4672 H 450.792 3.70082 0.546797 0
M  V30 4673 H 452.125 4.86622 0.738887 0
M  V30 4674 N 453.777 0.010035 1.57597 0
M  V30 4675 C 454.687 -0.994226 2.12491 0
M  V30 4676 C 455.703 -1.37013 1.07254 0
M  V30 4677 O 456.879 -1.45542 1.3921 0
M  V30 4678 C 453.944 -2.2642 2.62555 0
M  V30 4679 C 453.005 -1.95049 3.82432 0
M  V30 4680 C 452.238 -3.15991 4.30099 0
M  V30 4681 O 452.461 -4.28015 3.7704 0
M  V30 4682 O 451.395 -2.99403 5.22151 0
M  V30 4683 H 455.221 -0.557549 2.98538 0
M  V30 4684 H 452.806 -0.209413 1.47925 0
M  V30 4685 H 454.688 -3.01009 2.9491 0
M  V30 4686 H 453.363 -2.69306 1.796 0
M  V30 4687 H 452.27 -1.17904 3.55034 0
M  V30 4688 H 453.603 -1.56992 4.66491 0
M  V30 4689 N 455.255 -1.55392 -0.262866 0
M  V30 4690 C 456.666 -1.67079 -0.833158 0
M  V30 4691 C 457.017 -0.604539 -1.86654 0
M  V30 4692 O 456.142 0.252138 -2.14926 0
M  V30 4693 C 456.737 -3.02891 -1.51797 0
M  V30 4694 C 455.296 -3.16571 -2.03617 0
M  V30 4695 C 454.443 -2.62909 -0.881701 0
M  V30 4696 H 457.394 -1.58652 -0.0389986 0
M  V30 4697 H 457.415 -2.96445 -2.38538 0
M  V30 4698 H 456.927 -3.80473 -0.765619 0
M  V30 4699 H 455.028 -2.43782 -2.81782 0
M  V30 4700 H 455.141 -4.23271 -2.24452 0
M  V30 4701 H 453.505 -2.20324 -1.27786 0
M  V30 4702 H 454.288 -3.43003 -0.14269 0
M  V30 4703 N 456.733 0.527833 -1.48498 0
M  V30 4704 C 458.144 1.10975 -1.50138 0
M  V30 4705 C 458.495 1.943 -0.272378 0
M  V30 4706 O 457.62 2.07319 0.620301 0
M  V30 4707 C 458.215 2.01927 -2.72049 0
M  V30 4708 C 456.774 2.55332 -2.76554 0
M  V30 4709 C 455.921 1.32341 -2.43683 0
M  V30 4710 H 458.872 0.312986 -1.55583 0
M  V30 4711 H 458.893 2.86244 -2.50689 0
M  V30 4712 H 458.405 1.41254 -3.61481 0
M  V30 4713 H 456.506 3.19721 -1.91336 0
M  V30 4714 H 456.619 2.94319 -3.78038 0
M  V30 4715 H 454.983 1.63989 -1.94884 0
M  V30 4716 H 455.766 0.734165 -3.35358 0
M  V30 4717 N 458.211 1.37122 0.776871 0
M  V30 4718 C 459.141 1.35164 1.90402 0
M  V30 4719 C 460.122 0.221069 1.68657 0
M  V30 4720 O 461.307 0.420642 1.8959 0
M  V30 4721 C 458.437 1.15274 3.27611 0
M  V30 4722 C 457.391 2.25289 3.63908 0
M  V30 4723 C 456.717 1.90527 4.99603 0
M  V30 4724 C 458.017 3.67446 3.71188 0
M  V30 4725 H 459.711 2.29482 1.92297 0
M  V30 4726 H 457.257 1.10465 0.923773 0
M  V30 4727 H 459.21 1.12536 4.06096 0
M  V30 4728 H 457.934 0.174102 3.26136 0
M  V30 4729 H 456.593 2.27174 2.87728 0
M  V30 4730 H 456.241 0.91206 4.94662 0
M  V30 4731 H 455.941 2.64193 5.24858 0
M  V30 4732 H 457.465 1.89367 5.80493 0
M  V30 4733 H 458.879 3.67719 4.39836 0
M  V30 4734 H 457.276 4.40123 4.07936 0
M  V30 4735 H 458.346 4.01443 2.71977 0
M  V30 4736 N 459.689 -1.00246 1.21608 0
M  V30 4737 C 460.619 -2.10921 1.00172 0
M  V30 4738 C 461.6 -1.69938 -0.0741587 0
M  V30 4739 O 462.785 -1.94009 0.0861753 0
M  V30 4740 C 459.915 -3.42618 0.568355 0
M  V30 4741 C 458.869 -3.97407 1.58909 0
M  V30 4742 C 458.195 -5.25038 1.01187 0
M  V30 4743 C 459.495 -4.2918 2.97661 0
M  V30 4744 H 461.189 -2.29112 1.92739 0
M  V30 4745 H 458.735 -1.10101 0.928102 0
M  V30 4746 H 460.688 -4.19444 0.405555 0
M  V30 4747 H 459.412 -3.24227 -0.392961 0
M  V30 4748 H 458.071 -3.22703 1.73949 0
M  V30 4749 H 457.719 -5.02982 0.0421965 0
M  V30 4750 H 457.419 -5.62661 1.6937 0
M  V30 4751 H 458.943 -6.04507 0.860448 0
M  V30 4752 H 460.357 -4.96839 2.86049 0
M  V30 4753 H 458.754 -4.77952 3.6288 0
M  V30 4754 H 459.824 -3.3735 3.48315 0
M  V30 4755 N 461.167 -1.02423 -1.1978 0
M  V30 4756 C 462.578 -0.748389 -1.71044 0
M  V30 4757 C 462.929 0.732398 -1.82017 0
M  V30 4758 O 462.054 1.57116 -1.48807 0
M  V30 4759 C 462.649 -1.35187 -3.1066 0
M  V30 4760 C 461.208 -1.12472 -3.59203 0
M  V30 4761 C 460.355 -1.45283 -2.36195 0
M  V30 4762 H 463.306 -1.19275 -1.04686 0
M  V30 4763 H 463.327 -0.746408 -3.73107 0
M  V30 4764 H 462.839 -2.4296 -3.02642 0
M  V30 4765 H 460.94 -0.0649983 -3.72543 0
M  V30 4766 H 461.053 -1.81016 -4.43588 0
M  V30 4767 H 459.417 -0.872034 -2.39307 0
M  V30 4768 H 460.2 -2.54129 -2.30811 0
M  V30 4769 N 462.645 1.35699 -0.801477 0
M  V30 4770 C 463.555 2.33661 -0.209691 0
M  V30 4771 C 464.571 1.6162 0.644591 0
M  V30 4772 O 465.747 1.93529 0.557545 0
M  V30 4773 C 462.812 3.40816 0.636033 0
M  V30 4774 C 461.873 4.28639 -0.238147 0
M  V30 4775 C 461.106 5.30676 0.567307 0
M  V30 4776 O 461.329 5.41174 1.8024 0
M  V30 4777 O 460.263 6.01887 -0.0391336 0
M  V30 4778 H 464.089 2.8606 -1.01996 0
M  V30 4779 H 461.674 1.38379 -0.563164 0
M  V30 4780 H 463.556 4.06301 1.11791 0
M  V30 4781 H 462.231 2.90696 1.42399 0
M  V30 4782 H 461.138 3.66152 -0.767044 0
M  V30 4783 H 462.471 4.82143 -0.989915 0
M  V30 4784 N 464.123 0.554532 1.47522 0
M  V30 4785 C 465.534 0.120446 1.86311 0
M  V30 4786 C 465.885 -1.30904 1.46145 0
M  V30 4787 O 465.01 -1.98434 0.863294 0
M  V30 4788 C 465.605 0.211808 3.38137 0
M  V30 4789 C 464.164 -0.167224 3.76028 0
M  V30 4790 C 463.311 0.560576 2.71575 0
M  V30 4791 H 466.262 0.764408 1.39077 0
M  V30 4792 H 466.283 -0.570275 3.76202 0
M  V30 4793 H 465.795 1.25232 3.6734 0
M  V30 4794 H 463.896 -1.20894 3.52442 0
M  V30 4795 H 464.009 0.189473 4.78725 0
M  V30 4796 H 462.373 0.00396836 2.547 0
M  V30 4797 H 463.156 1.60219 3.0362 0
M  V30 4798 N 465.601 -1.54893 0.290851 0
M  V30 4799 C 467.012 -1.85584 -0.203816 0
M  V30 4800 C 467.363 -1.21285 -1.54222 0
M  V30 4801 O 466.488 -0.506841 -2.10381 0
M  V30 4802 C 467.083 -3.367 -0.376595 0
M  V30 4803 C 465.642 -3.6746 -0.815485 0
M  V30 4804 C 464.789 -2.77178 0.0821087 0
M  V30 4805 H 467.74 -1.50208 0.512175 0
M  V30 4806 H 467.761 -3.60656 -1.21275 0
M  V30 4807 H 467.273 -3.8347 0.59767 0
M  V30 4808 H 465.374 -3.26201 -1.80066 0
M  V30 4809 H 465.487 -4.7478 -0.641905 0
M  V30 4810 H 463.851 -2.50925 -0.436895 0
M  V30 4811 H 464.634 -3.26767 1.05254 0
M  V30 4812 N 467.08 -0.0183926 -1.57589 0
M  V30 4813 C 468.357 0.700621 -1.82622 0
M  V30 4814 C 468.737 1.90951 -0.90005 0
M  V30 4815 O 468.085 2.28452 0.0469145 0
M  V30 4816 C 468.295 1.08899 -3.31575 0
M  V30 4817 C 469.643 1.48514 -3.9778 0
M  V30 4818 O 470.667 1.18227 -3.36007 0
M  V30 4819 O 469.526 2.04903 -5.06633 0
M  V30 4820 H 466.62 0.342743 -0.752633 0
M  V30 4821 H 469.166 -0.0452548 -1.6964 0
M  V30 4822 H 467.938 0.228113 -3.90635 0
M  V30 4823 H 467.561 1.89338 -3.49624 0
M  V30 4824 N 468.558 1.5553 0.254621 0
M  V30 4825 C 469.506 1.9048 1.33492 0
M  V30 4826 C 470.5 0.78304 1.50216 0
M  V30 4827 O 471.706 0.967582 1.51782 0
M  V30 4828 H 468.081 0.604846 0.44684 0
M  V30 4829 H 470.052 2.80688 1.01275 0
M  V30 4830 C 468.801 2.20928 2.68489 0
M  V30 4831 H 468.124 3.06742 2.56417 0
M  V30 4832 H 469.564 2.49291 3.42972 0
M  V30 4833 C 468.023 1.023 3.20993 0
M  V30 4834 O 468.553 0.267027 4.00811 0
M  V30 4835 N 466.759 0.815714 2.78917 0
M  V30 4836 H 466.306 1.43217 2.14119 0
M  V30 4837 H 466.264 0.0236532 3.14391 0
M  V30 4838 N 470.036 -0.519951 1.48776 0
M  V30 4839 C 471.452 -0.849418 1.35119 0
M  V30 4840 C 471.652 -1.98077 0.36982 0
M  V30 4841 O 470.708 -2.51664 -0.205359 0
M  V30 4842 C 472.021 -1.20748 2.75391 0
M  V30 4843 C 473.569 -1.31679 2.83954 0
M  V30 4844 C 474.044 -1.70824 4.24951 0
M  V30 4845 N 475.535 -1.77908 4.27672 0
M  V30 4846 C 476.27 -2.09603 5.33717 0
M  V30 4847 N 475.766 -2.39652 6.5003 0
M  V30 4848 N 477.559 -2.10694 5.21119 0
M  V30 4849 H 469.71 0.226377 2.1119 0
M  V30 4850 H 471.973 0.0386519 0.947212 0
M  V30 4851 H 471.679 -0.449703 3.48813 0
M  V30 4852 H 471.553 -2.15534 3.09556 0
M  V30 4853 H 473.94 -2.06532 2.10781 0
M  V30 4854 H 474.021 -0.3499 2.53396 0
M  V30 4855 H 473.665 -0.965282 4.98643 0
M  V30 4856 H 473.595 -2.6858 4.52959 0
M  V30 4857 H 476.086 -1.56923 3.43779 0
M  V30 4858 H 476.399 -2.6297 7.26682 0
M  V30 4859 H 474.744 -2.37149 6.53288 0
M  V30 4860 H 477.935 -1.86682 4.29264 0
M  V30 4861 H 478.108 -2.35062 6.03863 0
M  V30 4862 N 471.514 -1.37532 -0.769588 0
M  V30 4863 C 472.739 -1.36231 -1.56384 0
M  V30 4864 C 473.164 0.0495849 -1.88035 0
M  V30 4865 O 472.522 1.02723 -1.49391 0
M  V30 4866 C 472.57 -2.20986 -2.84952 0
M  V30 4867 O 471.674 -1.61597 -3.79421 0
M  V30 4868 H 471.015 -0.465387 -0.473615 0
M  V30 4869 H 473.545 -1.81085 -0.952342 0
M  V30 4870 H 473.555 -2.34277 -3.34034 0
M  V30 4871 H 472.23 -3.23612 -2.61243 0
M  V30 4872 H 470.807 -1.57359 -3.38072 0
M  V30 4873 N 472.992 0.995999 -1.22138 0
M  V30 4874 C 474.217 1.77601 -1.0711 0
M  V30 4875 C 474.642 1.84339 0.374264 0
M  V30 4876 O 474 1.29359 1.27028 0
M  V30 4877 C 474.048 3.18897 -1.68336 0
M  V30 4878 O 473.152 4.01663 -0.934928 0
M  V30 4879 H 472.493 0.547011 -0.376397 0
M  V30 4880 H 475.023 1.25137 -1.6187 0
M  V30 4881 H 475.033 3.69539 -1.72931 0
M  V30 4882 H 473.708 3.13308 -2.73516 0
M  V30 4883 H 472.285 3.60204 -0.964751 0
M  V30 4884 N 474.47 1.03057 1.19235 0
M  V30 4885 C 475.433 0.617418 2.20727 0
M  V30 4886 C 476.433 -0.319856 1.57587 0
M  V30 4887 O 477.623 -0.106633 1.73873 0
M  V30 4888 C 474.755 -0.096296 3.40764 0
M  V30 4889 H 475.948 1.51544 2.58794 0
M  V30 4890 H 473.501 0.821949 1.32942 0
M  V30 4891 H 474.236 -1.00859 3.08217 0
M  V30 4892 H 474.021 0.577217 3.87828 0
M  V30 4893 H 475.511 -0.372219 4.15938 0
M  V30 4894 N 475.948 -1.35272 0.808662 0
M  V30 4895 C 477.359 -1.81179 0.450688 0
M  V30 4896 C 477.71 -1.67143 -1.02751 0
M  V30 4897 O 476.835 -1.20325 -1.79864 0
M  V30 4898 C 477.43 -3.28943 0.811275 0
M  V30 4899 C 475.989 -3.72985 0.505871 0
M  V30 4900 C 475.136 -2.57229 1.03578 0
M  V30 4901 H 478.087 -1.2322 1.00012 0
M  V30 4902 H 478.108 -3.80342 0.109588 0
M  V30 4903 H 477.62 -3.39127 1.88718 0
M  V30 4904 H 475.721 -3.68349 -0.561209 0
M  V30 4905 H 475.834 -4.67677 1.03995 0
M  V30 4906 H 474.198 -2.50548 0.458005 0
M  V30 4907 H 474.981 -2.7019 2.11784 0
M  V30 4908 N 477.426 -0.562348 -1.47226 0
M  V30 4909 C 478.837 -0.130325 -1.86245 0
M  V30 4910 C 479.188 1.30128 -1.46838 0
M  V30 4911 O 478.313 1.97974 -0.873805 0
M  V30 4912 C 478.908 -0.229738 -3.3802 0
M  V30 4913 C 477.467 0.14728 -3.76112 0
M  V30 4914 C 476.614 -0.574971 -2.71274 0
M  V30 4915 H 479.565 -0.771773 -1.3867 0
M  V30 4916 H 479.586 0.550316 -3.76499 0
M  V30 4917 H 479.098 -1.27178 -3.66671 0
M  V30 4918 H 477.199 1.19023 -3.53078 0
M  V30 4919 H 477.312 -0.214858 -4.78618 0
M  V30 4920 H 475.676 -0.0174756 -2.54694 0
M  V30 4921 H 476.459 -1.61827 -3.02766 0
M  V30 4922 N 478.904 1.54736 -0.299062 0
M  V30 4923 C 480.32 1.59507 0.0543849 0
M  V30 4924 C 480.52 1.31606 1.52585 0
M  V30 4925 O 479.576 1.08853 2.27832 0
M  V30 4926 C 480.889 2.98751 -0.34181 0
M  V30 4927 C 482.437 3.1165 -0.290414 0
M  V30 4928 C 482.912 4.53199 -0.661402 0
M  V30 4929 N 484.403 4.59114 -0.613863 0
M  V30 4930 C 485.138 5.66709 -0.873417 0
M  V30 4931 N 484.634 6.82349 -1.19884 0
M  V30 4932 N 486.427 5.56369 -0.800608 0
M  V30 4933 H 478.578 1.71133 -1.25806 0
M  V30 4934 H 480.841 0.799186 -0.509908 0
M  V30 4935 H 480.547 3.24085 -1.36608 0
M  V30 4936 H 480.421 3.75961 0.305508 0
M  V30 4937 H 482.808 2.86066 0.724605 0
M  V30 4938 H 482.889 2.366 -0.972327 0
M  V30 4939 H 482.533 4.79513 -1.67422 0
M  V30 4940 H 482.463 5.26583 0.0425612 0
M  V30 4941 H 484.954 3.76053 -0.3732 0
M  V30 4942 H 485.267 7.60326 -1.38291 0
M  V30 4943 H 483.612 6.83906 -1.23685 0
M  V30 4944 H 486.803 4.64904 -0.546045 0
M  V30 4945 H 486.976 6.40139 -1.00626 0
M  V30 4946 N 480.382 0.0267497 1.57577 0
M  V30 4947 C 481.329 -0.955894 2.10075 0
M  V30 4948 C 482.299 -1.32453 1.00226 0
M  V30 4949 O 483.484 -1.41826 1.27632 0
M  V30 4950 C 480.624 -2.2338 2.6305 0
M  V30 4951 C 479.737 -1.92183 3.86898 0
M  V30 4952 C 478.872 -3.14251 4.28275 0
M  V30 4953 C 477.911 -2.78862 5.44888 0
M  V30 4954 N 477.048 -3.93548 5.81433 0
M  V30 4955 H 481.888 -0.501303 2.93753 0
M  V30 4956 H 479.425 -0.235847 1.45197 0
M  V30 4957 H 481.383 -2.98124 2.91853 0
M  V30 4958 H 480.013 -2.6646 1.82205 0
M  V30 4959 H 479.065 -1.07692 3.64838 0
M  V30 4960 H 480.377 -1.62117 4.7172 0
M  V30 4961 H 479.531 -3.97317 4.58502 0
M  V30 4962 H 478.27 -3.47476 3.42215 0
M  V30 4963 H 477.275 -1.94208 5.14357 0
M  V30 4964 H 478.5 -2.46855 6.32645 0
M  V30 4965 H 476.446 -4.2662 4.98328 0
M  V30 4966 H 476.363 -3.67098 6.6089 0
M  V30 4967 H 477.631 -4.77325 6.16264 0
M  V30 4968 N 481.861 -1.55662 -0.24637 0
M  V30 4969 C 483.138 -1.68272 -0.997198 0
M  V30 4970 C 483.518 -0.566785 -2.03349 0
M  V30 4971 O 482.866 0.429688 -2.24424 0
M  V30 4972 C 483.076 -3.08594 -1.63006 0
M  V30 4973 C 484.424 -3.6721 -2.13171 0
M  V30 4974 O 485.448 -3.11397 -1.72946 0
M  V30 4975 O 484.307 -4.65054 -2.87031 0
M  V30 4976 H 481.401 -0.684429 -0.464205 0
M  V30 4977 H 483.947 -1.67993 -0.240114 0
M  V30 4978 H 482.719 -3.81264 -0.880527 0
M  V30 4979 H 482.342 -3.12886 -2.45333 0
M  V30 4980 N 483.339 0.512053 -1.4905 0
M  V30 4981 C 484.585 1.26874 -1.58212 0
M  V30 4982 C 484.918 1.9241 -0.263073 0
M  V30 4983 O 484.193 1.80181 0.732476 0
M  V30 4984 C 484.476 2.34428 -2.73341 0
M  V30 4985 C 484.329 1.73466 -4.15006 0
M  V30 4986 C 485.648 3.36073 -2.84154 0
M  V30 4987 H 482.767 0.459924 -0.575881 0
M  V30 4988 H 485.409 0.568587 -1.81293 0
M  V30 4989 H 483.559 2.94146 -2.53792 0
M  V30 4990 H 485.231 1.17661 -4.46042 0
M  V30 4991 H 483.474 1.03921 -4.21168 0
M  V30 4992 H 484.145 2.51426 -4.91415 0
M  V30 4993 H 486.621 2.86332 -3.01916 0
M  V30 4994 H 485.497 4.08703 -3.66406 0
M  V30 4995 H 485.758 3.97725 -1.93048 0
M  V30 4996 N 484.817 1.37938 0.762283 0
M  V30 4997 C 486.228 1.30094 1.33912 0
M  V30 4998 C 486.579 -0.0472026 1.96143 0
M  V30 4999 O 485.704 -0.94917 1.94473 0
M  V30 5000 C 486.299 2.35592 2.43478 0
M  V30 5001 C 484.858 2.31353 2.96905 0
M  V30 5002 C 484.005 2.18919 1.70205 0
M  V30 5003 H 486.956 1.48423 0.561816 0
M  V30 5004 H 486.977 2.00806 3.23199 0
M  V30 5005 H 486.489 3.33701 1.98155 0
M  V30 5006 H 484.59 1.36799 3.46579 0
M  V30 5007 H 484.703 3.25147 3.51875 0
M  V30 5008 H 483.067 1.65624 1.93496 0
M  V30 5009 H 483.85 3.18956 1.26973 0
M  V30 5010 N 486.295 -0.989507 1.22664 0
M  V30 5011 C 487.245 -2.06478 0.967005 0
M  V30 5012 C 488.229 -1.60682 -0.0836374 0
M  V30 5013 O 489.421 -1.76541 0.127322 0
M  V30 5014 C 486.55 -3.38861 0.550313 0
M  V30 5015 C 485.636 -3.9128 1.63587 0
M  V30 5016 N 486.027 -4.16884 2.86429 0
M  V30 5017 C 484.325 -4.1972 1.50834 0
M  V30 5018 C 485.026 -4.5954 3.56648 0
M  V30 5019 N 484.002 -4.63434 2.84131 0
M  V30 5020 H 487.804 -2.24219 1.90008 0
M  V30 5021 H 485.318 -1.17153 1.12467 0
M  V30 5022 H 487.315 -4.15465 0.345612 0
M  V30 5023 H 485.975 -3.22518 -0.375822 0
M  V30 5024 H 486.986 -4.04976 3.22823 0
M  V30 5025 H 483.663 -4.1243 0.648643 0
M  V30 5026 H 485.053 -4.87944 4.61909 0
M  V30 5027 N 487.773 -1.03688 -1.18687 0
M  V30 5028 C 489.189 -0.755413 -1.4059 0
M  V30 5029 C 489.389 0.656659 -1.905 0
M  V30 5030 O 488.445 1.42144 -2.08689 0
M  V30 5031 C 489.758 -1.7983 -2.41001 0
M  V30 5032 C 491.306 -1.81877 -2.54735 0
M  V30 5033 C 491.781 -2.85148 -3.58406 0
M  V30 5034 N 493.272 -2.84015 -3.6591 0
M  V30 5035 C 494.007 -3.60573 -4.45841 0
M  V30 5036 N 493.503 -4.46871 -5.29413 0
M  V30 5037 N 495.296 -3.49079 -4.40568 0
M  V30 5038 H 487.447 -1.94818 -0.846148 0
M  V30 5039 H 489.71 -0.842727 -0.434184 0
M  V30 5040 H 489.416 -2.81097 -2.1137 0
M  V30 5041 H 489.29 -1.62727 -3.40294 0
M  V30 5042 H 491.677 -0.812836 -2.83685 0
M  V30 5043 H 491.758 -2.03057 -1.55568 0
M  V30 5044 H 491.402 -3.85918 -3.30197 0
M  V30 5045 H 491.332 -2.61224 -4.57241 0
M  V30 5046 H 493.823 -2.21431 -3.0623 0
M  V30 5047 H 494.136 -5.02007 -5.87545 0
M  V30 5048 H 492.481 -4.5094 -5.28846 0
M  V30 5049 H 495.672 -2.81066 -3.74325 0
M  V30 5050 H 495.845 -4.08994 -5.02621 0
M  V30 5051 N 489.251 1.34841 -0.815825 0
M  V30 5052 C 490.491 2.00321 -0.406297 0
M  V30 5053 C 490.855 1.63293 1.00992 0
M  V30 5054 O 492.056 2.21563 1.52195 0
M  V30 5055 C 490.327 3.52421 -0.594469 0
M  V30 5056 S 491.886 4.37926 -0.276735 0
M  V30 5057 H 488.704 0.694155 -0.153848 0
M  V30 5058 H 491.306 1.64263 -1.06009 0
M  V30 5059 H 490.01 3.76858 -1.625 0
M  V30 5060 H 489.541 3.9333 0.0743157 0
M  V30 5061 H 491.556 4.87743 0.912215 0
M  V30 5062 N 490.729 0.570148 1.46925 0
M  V30 5063 C 491.954 0.0542592 2.07329 0
M  V30 5064 C 492.379 -1.23582 1.41806 0
M  V30 5065 O 491.737 -1.74341 0.497479 0
M  V30 5066 C 491.785 -0.111175 3.60429 0
M  V30 5067 O 490.889 -1.17071 3.95434 0
M  V30 5068 H 490.23 0.0571425 0.661537 0
M  V30 5069 H 492.76 0.789516 1.88753 0
M  V30 5070 H 492.77 -0.321315 4.06733 0
M  V30 5071 H 491.445 0.831012 4.07513 0
M  V30 5072 H 490.022 -0.940029 3.60857 0
M  V30 5073 N 492.207 -1.54576 0.307264 0
M  V30 5074 C 493.435 -2.04675 -0.302597 0
M  V30 5075 C 493.85 -1.18425 -1.47041 0
M  V30 5076 O 493.207 -0.211257 -1.81273 0
M  V30 5077 C 493.258 -3.53575 -0.752801 0
M  V30 5078 O 492.979 -4.36547 0.368536 0
M  V30 5079 C 494.48 -4.19699 -1.42717 0
M  V30 5080 H 491.7 -0.66786 -0.0648374 0
M  V30 5081 H 494.244 -1.99516 0.448716 0
M  V30 5082 H 492.399 -3.59074 -1.45412 0
M  V30 5083 H 492.813 -5.24497 0.0168937 0
M  V30 5084 H 494.287 -5.25388 -1.69327 0
M  V30 5085 H 494.764 -3.69815 -2.36925 0
M  V30 5086 H 495.37 -4.18293 -0.768856 0
M  V30 5087 N 493.685 -0.035106 -1.57561 0
M  V30 5088 C 494.635 0.954034 -2.0708 0
M  V30 5089 C 495.619 1.2818 -0.972558 0
M  V30 5090 O 496.811 1.26691 -1.23606 0
M  V30 5091 C 493.94 2.23442 -2.60631 0
M  V30 5092 C 493.026 1.93475 -3.77396 0
M  V30 5093 N 493.417 1.33802 -4.87781 0
M  V30 5094 C 491.715 2.23434 -3.85996 0
M  V30 5095 C 492.416 1.21103 -5.68954 0
M  V30 5096 N 491.392 1.70855 -5.16052 0
M  V30 5097 H 495.194 0.487731 -2.89825 0
M  V30 5098 H 492.708 0.169759 -1.6151 0
M  V30 5099 H 494.705 2.95183 -2.94402 0
M  V30 5100 H 493.365 2.70693 -1.79319 0
M  V30 5101 H 494.376 1.01227 -5.07911 0
M  V30 5102 H 491.053 2.73317 -3.15601 0
M  V30 5103 H 492.443 0.749105 -6.67711 0
M  V30 5104 N 495.163 1.55791 0.238111 0
M  V30 5105 C 496.41 1.78033 0.964907 0
M  V30 5106 C 496.738 0.600984 1.84982 0
M  V30 5107 O 495.993 -0.41536 1.91241 0
M  V30 5108 C 496.292 3.05869 1.84875 0
M  V30 5109 C 495.958 4.36808 1.11846 0
M  V30 5110 C 494.62 4.72388 0.916662 0
M  V30 5111 C 496.972 5.17717 0.60151 0
M  V30 5112 C 494.3 5.86406 0.185756 0
M  V30 5113 C 496.652 6.32494 -0.115972 0
M  V30 5114 C 495.316 6.66688 -0.329168 0
M  V30 5115 H 494.586 0.651469 0.353085 0
M  V30 5116 H 497.233 1.90061 0.234318 0
M  V30 5117 H 495.538 2.88891 2.64668 0
M  V30 5118 H 497.235 3.20278 2.41294 0
M  V30 5119 H 493.825 4.08862 1.28569 0
M  V30 5120 H 498.009 4.90678 0.744932 0
M  V30 5121 H 493.265 6.11399 0.0101886 0
M  V30 5122 H 497.439 6.94425 -0.524127 0
M  V30 5123 H 495.066 7.54884 -0.897474 0
M  V30 5124 N 496.642 -0.504142 1.49319 0
M  V30 5125 C 497.919 -1.26548 1.49147 0
M  V30 5126 C 498.299 -2.09977 0.21744 0
M  V30 5127 O 497.647 -2.14028 -0.800269 0
M  V30 5128 C 497.857 -2.12489 2.76857 0
M  V30 5129 C 499.205 -2.7178 3.26222 0
M  V30 5130 O 500.229 -2.22758 2.77952 0
M  V30 5131 O 499.088 -3.61015 4.10281 0
M  V30 5132 H 496.182 -0.572495 0.596806 0
M  V30 5133 H 498.728 -0.51867 1.61579 0
M  V30 5134 H 497.5 -1.50796 3.61077 0
M  V30 5135 H 497.123 -2.94368 2.6727 0
M  V30 5136 N 498.12 -1.38341 -0.754957 0
M  V30 5137 C 499.083 -1.35262 -1.85032 0
M  V30 5138 C 500.083 -0.253393 -1.58791 0
M  V30 5139 O 501.273 -0.510205 -1.66561 0
M  V30 5140 C 498.405 -1.10544 -3.22479 0
M  V30 5141 H 499.598 -2.32712 -1.8917 0
M  V30 5142 H 497.151 -1.23614 -0.956515 0
M  V30 5143 H 497.886 -0.136952 -3.24011 0
M  V30 5144 H 497.671 -1.90127 -3.4292 0
M  V30 5145 H 499.161 -1.11082 -4.02555 0
M  V30 5146 N 499.598 0.982988 -1.23187 0
M  V30 5147 C 500.844 1.72648 -1.06398 0
M  V30 5148 C 501.177 1.90066 0.398561 0
M  V30 5149 O 500.452 1.45105 1.29518 0
M  V30 5150 C 500.735 3.12627 -1.78707 0
M  V30 5151 C 500.588 3.02795 -3.32618 0
M  V30 5152 C 501.907 4.11997 -1.54747 0
M  V30 5153 H 499.026 0.626649 -0.387918 0
M  V30 5154 H 501.668 1.14455 -1.51658 0
M  V30 5155 H 499.818 3.62308 -1.40234 0
M  V30 5156 H 501.49 2.60659 -3.80598 0
M  V30 5157 H 499.733 2.39362 -3.61785 0
M  V30 5158 H 500.404 4.01893 -3.78399 0
M  V30 5159 H 502.88 3.71114 -1.88186 0
M  V30 5160 H 501.756 5.08037 -2.07821 0
M  V30 5161 H 502.017 4.39462 -0.482249 0
M  V30 5162 N 501.076 1.04316 1.18135 0
M  V30 5163 C 502.039 0.640794 2.2006 0
M  V30 5164 C 503.039 -0.303124 1.57917 0
M  V30 5165 O 504.229 -0.0881855 1.73977 0
M  V30 5166 C 501.361 -0.060148 3.40847 0
M  V30 5167 H 502.554 1.54281 2.57172 0
M  V30 5168 H 500.107 0.836004 1.32063 0
M  V30 5169 H 500.842 -0.975845 3.0927 0
M  V30 5170 H 500.627 0.618319 3.87194 0
M  V30 5171 H 502.117 -0.328082 4.16309 0
M  V30 5172 N 502.554 -1.34406 0.822964 0
M  V30 5173 C 503.486 -2.28305 0.202375 0
M  V30 5174 C 504.499 -1.5103 -0.60777 0
M  V30 5175 O 505.688 -1.73057 -0.437444 0
M  V30 5176 C 502.788 -3.30836 -0.734911 0
M  V30 5177 C 501.961 -4.37388 0.0324177 0
M  V30 5178 C 501.02 -5.1968 -0.825803 0
M  V30 5179 O 500.046 -5.68556 -0.270771 0
M  V30 5180 N 501.248 -5.39393 -2.14558 0
M  V30 5181 H 504.013 -2.82201 1.00909 0
M  V30 5182 H 501.574 -1.4693 0.67993 0
M  V30 5183 H 503.566 -3.82786 -1.31365 0
M  V30 5184 H 502.136 -2.77334 -1.44238 0
M  V30 5185 H 501.356 -3.86152 0.792469 0
M  V30 5186 H 502.644 -5.05702 0.560633 0
M  V30 5187 H 502.042 -5.01357 -2.62025 0
M  V30 5188 H 500.599 -5.94461 -2.67318 0
M  V30 5189 N 504.032 -0.577932 -1.46621 0
M  V30 5190 C 505.281 -0.0594281 -2.01612 0
M  V30 5191 C 505.594 1.30663 -1.45556 0
M  V30 5192 O 506.8 1.91621 -1.92337 0
M  V30 5193 C 505.256 -0.0556666 -3.59857 0
M  V30 5194 C 504.864 -1.41975 -4.24908 0
M  V30 5195 C 506.608 0.409143 -4.22524 0
M  V30 5196 C 504.515 -1.37397 -5.75218 0
M  V30 5197 H 503.445 -0.0184469 -0.753774 0
M  V30 5198 H 506.096 -0.728869 -1.68404 0
M  V30 5199 H 504.478 0.679843 -3.90121 0
M  V30 5200 H 505.652 -2.17461 -4.0626 0
M  V30 5201 H 503.967 -1.82419 -3.74316 0
M  V30 5202 H 506.564 0.46211 -5.32699 0
M  V30 5203 H 506.907 1.42565 -3.91128 0
M  V30 5204 H 507.44 -0.272152 -3.96868 0
M  V30 5205 H 504.179 -2.36714 -6.11267 0
M  V30 5206 H 503.699 -0.661239 -5.96144 0
M  V30 5207 H 505.378 -1.08484 -6.3784 0
M  V30 5208 N 505.51 1.54411 -0.315457 0
M  V30 5209 C 506.926 1.59556 0.037464 0
M  V30 5210 C 507.126 1.33217 1.5118 0
M  V30 5211 O 506.182 1.11264 2.26664 0
M  V30 5212 C 507.495 2.98372 -0.373477 0
M  V30 5213 C 509.043 3.11324 -0.323452 0
M  V30 5214 C 509.518 4.52472 -0.709433 0
M  V30 5215 N 511.009 4.58437 -0.662524 0
M  V30 5216 C 511.744 5.65751 -0.933474 0
M  V30 5217 N 511.24 6.81039 -1.27114 0
M  V30 5218 N 513.033 5.55489 -0.859573 0
M  V30 5219 H 505.184 1.6979 -1.27614 0
M  V30 5220 H 507.447 0.793732 -0.518356 0
M  V30 5221 H 507.153 3.22618 -1.40037 0
M  V30 5222 H 507.027 3.76264 0.265615 0
M  V30 5223 H 509.414 2.86818 0.694223 0
M  V30 5224 H 509.495 2.35555 -0.997367 0
M  V30 5225 H 509.139 4.7771 -1.72498 0
M  V30 5226 H 509.069 5.26598 -0.0132923 0
M  V30 5227 H 511.56 3.75636 -0.413065 0
M  V30 5228 H 511.873 7.58816 -1.46348 0
M  V30 5229 H 510.218 6.82555 -1.30932 0
M  V30 5230 H 513.409 4.64299 -0.595324 0
M  V30 5231 H 513.582 6.39036 -1.0741 0
M  V30 5232 N 506.988 0.0434614 1.5754 0
M  V30 5233 C 508.236 -0.630786 1.92004 0
M  V30 5234 C 508.557 -1.71836 0.921807 0
M  V30 5235 O 507.827 -1.9587 -0.034522 0
M  V30 5236 H 506.407 -0.235988 0.708745 0
M  V30 5237 H 509.069 0.0946462 1.9467 0
M  V30 5238 H 508.165 -1.07434 2.93026 0
M  V30 5239 N 508.466 -1.55915 -0.229846 0
M  V30 5240 C 509.376 -1.94891 -1.30593 0
M  V30 5241 C 510.392 -0.851604 -1.51736 0
M  V30 5242 O 511.568 -1.15447 -1.65027 0
M  V30 5243 C 508.633 -2.25052 -2.63728 0
M  V30 5244 C 507.694 -3.48306 -2.5096 0
M  V30 5245 C 506.927 -3.77019 -3.77747 0
M  V30 5246 O 507.15 -3.07534 -4.80395 0
M  V30 5247 O 506.084 -4.70523 -3.75356 0
M  V30 5248 H 509.91 -2.86581 -1.00525 0
M  V30 5249 H 507.495 -1.43017 -0.432025 0
M  V30 5250 H 509.377 -2.45682 -3.42372 0
M  V30 5251 H 508.052 -1.36538 -2.93495 0
M  V30 5252 H 506.959 -3.32964 -1.70546 0
M  V30 5253 H 508.292 -4.37177 -2.26136 0
M  V30 5254 N 509.944 0.496216 -1.49584 0
M  V30 5255 C 510.907 1.57952 -1.66084 0
M  V30 5256 C 511.907 1.51729 -0.53244 0
M  V30 5257 O 513.097 1.54796 -0.79899 0
M  V30 5258 C 510.229 2.97604 -1.66268 0
M  V30 5259 H 511.422 1.44649 -2.6271 0
M  V30 5260 H 508.975 0.7208 -1.38687 0
M  V30 5261 H 509.71 3.16378 -0.712432 0
M  V30 5262 H 509.495 3.03528 -2.4822 0
M  V30 5263 H 510.985 3.76301 -1.81073 0
M  V30 5264 N 511.423 1.38739 0.74761 0
M  V30 5265 C 512.67 1.35274 1.50689 0
M  V30 5266 C 512.998 -0.0553359 1.94421 0
M  V30 5267 O 512.253 -1.03365 1.66175 0
M  V30 5268 C 512.552 2.25992 2.7688 0
M  V30 5269 C 512.218 3.73854 2.5208 0
M  V30 5270 C 510.88 4.14145 2.45025 0
M  V30 5271 C 513.232 4.67427 2.30568 0
M  V30 5272 C 510.56 5.4609 2.14483 0
M  V30 5273 C 512.912 5.99635 2.01545 0
M  V30 5274 C 511.576 6.39004 1.92951 0
M  V30 5275 H 510.846 0.495003 0.55141 0
M  V30 5276 H 513.493 1.71145 0.859158 0
M  V30 5277 H 511.798 1.83196 3.46333 0
M  V30 5278 H 513.495 2.20611 3.34861 0
M  V30 5279 H 510.085 3.41913 2.58444 0
M  V30 5280 H 514.269 4.3714 2.34994 0
M  V30 5281 H 509.525 5.75528 2.06342 0
M  V30 5282 H 513.699 6.71678 1.83906 0
M  V30 5283 H 511.326 7.41165 1.6905 0
M  V30 5284 N 512.901 -0.976442 1.23707 0
M  V30 5285 C 514.148 -1.71827 1.07153 0
M  V30 5286 C 514.476 -1.9053 -0.390982 0
M  V30 5287 O 513.731 -1.45779 -1.30564 0
M  V30 5288 C 514.03 -3.11814 1.74662 0
M  V30 5289 C 513.696 -3.12978 3.24585 0
M  V30 5290 C 512.358 -3.13003 3.6549 0
M  V30 5291 C 514.71 -3.07986 4.20469 0
M  V30 5292 C 512.038 -3.05757 5.00729 0
M  V30 5293 C 514.39 -3.02282 5.55705 0
M  V30 5294 C 513.054 -3.00631 5.95968 0
M  V30 5295 H 512.324 -0.628758 0.392102 0
M  V30 5296 H 514.971 -1.14239 1.53693 0
M  V30 5297 H 513.276 -3.72812 1.20492 0
M  V30 5298 H 514.973 -3.67989 1.59328 0
M  V30 5299 H 511.563 -3.13718 2.92026 0
M  V30 5300 H 515.747 -3.07103 3.89874 0
M  V30 5301 H 511.003 -3.02834 5.31132 0
M  V30 5302 H 515.177 -2.97376 6.29714 0
M  V30 5303 H 512.804 -2.94771 7.00724 0
M  V30 5304 N 514.379 -1.04941 -1.1758 0
M  V30 5305 C 515.626 -0.757989 -1.87779 0
M  V30 5306 C 515.954 0.714827 -1.80888 0
M  V30 5307 O 515.209 1.53824 -1.20982 0
M  V30 5308 C 515.508 -1.18062 -3.37337 0
M  V30 5309 C 515.174 -2.65521 -3.6443 0
M  V30 5310 C 513.836 -3.05804 -3.71534 0
M  V30 5311 C 516.188 -3.60822 -3.76108 0
M  V30 5312 C 513.516 -4.40256 -3.87803 0
M  V30 5313 C 515.868 -4.95005 -3.93895 0
M  V30 5314 C 514.532 -5.34945 -3.99237 0
M  V30 5315 H 513.802 -0.277368 -0.68713 0
M  V30 5316 H 516.449 -1.31603 -1.39115 0
M  V30 5317 H 514.754 -0.541525 -3.8804 0
M  V30 5318 H 516.451 -0.932368 -3.9001 0
M  V30 5319 H 513.041 -2.33324 -3.59524 0
M  V30 5320 H 517.225 -3.30841 -3.69943 0
M  V30 5321 H 512.481 -4.70707 -3.90186 0
M  V30 5322 H 516.655 -5.68746 -4.01872 0
M  V30 5323 H 514.282 -6.39135 -4.11596 0
M  V30 5324 N 515.857 1.33968 -0.830081 0
M  V30 5325 C 516.804 2.29387 -0.255008 0
M  V30 5326 C 517.774 1.53923 0.624243 0
M  V30 5327 O 518.959 1.82262 0.564372 0
M  V30 5328 C 516.099 3.4034 0.571209 0
M  V30 5329 C 515.212 4.30729 -0.331083 0
M  V30 5330 C 514.347 5.2879 0.505389 0
M  V30 5331 C 513.386 6.10819 -0.395843 0
M  V30 5332 N 512.523 7.00948 0.401979 0
M  V30 5333 H 517.363 2.77972 -1.07404 0
M  V30 5334 H 514.9 1.36785 -0.541133 0
M  V30 5335 H 516.858 4.03361 1.06562 0
M  V30 5336 H 515.488 2.9297 1.35529 0
M  V30 5337 H 514.54 3.68507 -0.943759 0
M  V30 5338 H 515.852 4.88181 -1.02377 0
M  V30 5339 H 515.006 5.97297 1.06399 0
M  V30 5340 H 513.745 4.71894 1.23155 0
M  V30 5341 H 512.75 5.41238 -0.966529 0
M  V30 5342 H 513.975 6.69797 -1.12023 0
M  V30 5343 H 511.921 6.46512 1.11168 0
M  V30 5344 H 511.838 7.55643 -0.232167 0
M  V30 5345 H 513.106 7.73774 0.943102 0
M  V30 5346 N 517.335 0.585699 1.46312 0
M  V30 5347 C 518.583 0.072278 2.01971 0
M  V30 5348 C 518.904 -1.29345 1.45928 0
M  V30 5349 O 518.174 -1.84973 0.645109 0
M  V30 5350 H 516.754 0.023729 0.746623 0
M  V30 5351 H 519.416 0.762155 1.7938 0
M  V30 5352 H 518.512 0.00552767 3.121 0
M  V30 5353 N 518.813 -1.54241 0.323641 0
M  V30 5354 C 519.76 -2.24339 -0.542277 0
M  V30 5355 C 520.73 -1.23421 -1.11159 0
M  V30 5356 O 521.915 -1.52104 -1.15192 0
M  V30 5357 C 519.055 -3.00479 -1.69725 0
M  V30 5358 C 518.168 -4.16214 -1.15716 0
M  V30 5359 C 517.303 -4.79884 -2.27783 0
M  V30 5360 C 516.342 -5.87722 -1.71023 0
M  V30 5361 N 515.479 -6.45254 -2.76752 0
M  V30 5362 H 520.319 -2.97935 0.0620613 0
M  V30 5363 H 517.856 -1.47039 0.0423993 0
M  V30 5364 H 519.814 -3.42869 -2.3769 0
M  V30 5365 H 518.444 -2.29217 -2.27288 0
M  V30 5366 H 517.496 -3.78605 -0.369063 0
M  V30 5367 H 518.808 -4.93838 -0.701832 0
M  V30 5368 H 517.962 -5.25243 -3.03651 0
M  V30 5369 H 516.701 -4.01641 -2.76652 0
M  V30 5370 H 515.706 -5.41765 -0.936518 0
M  V30 5371 H 516.931 -6.67863 -1.2303 0
M  V30 5372 H 514.877 -5.69884 -3.24912 0
M  V30 5373 H 514.794 -7.18292 -2.35782 0
M  V30 5374 H 516.062 -6.95269 -3.5245 0
M  V30 5375 N 520.291 -0.0518155 -1.57515 0
M  V30 5376 C 521.521 0.63048 -1.96745 0
M  V30 5377 C 521.929 1.64875 -0.928054 0
M  V30 5378 O 521.272 1.83449 0.0960678 0
M  V30 5379 C 521.334 1.37381 -3.32215 0
M  V30 5380 C 520.998 0.511298 -4.54131 0
M  V30 5381 C 521.995 -0.222884 -5.19422 0
M  V30 5382 C 519.68 0.442035 -5.00351 0
M  V30 5383 C 521.674 -1.01476 -6.2927 0
M  V30 5384 C 519.361 -0.35353 -6.10077 0
M  V30 5385 C 520.359 -1.08062 -6.74397 0
M  V30 5386 O 520.047 -1.8631 -7.82013 0
M  V30 5387 H 519.779 0.177126 -0.652382 0
M  V30 5388 H 522.333 -0.114726 -2.05079 0
M  V30 5389 H 520.563 2.16466 -3.20436 0
M  V30 5390 H 522.252 1.9464 -3.56188 0
M  V30 5391 H 523.018 -0.178846 -4.8467 0
M  V30 5392 H 518.897 0.997562 -4.50077 0
M  V30 5393 H 522.441 -1.58279 -6.79407 0
M  V30 5394 H 518.338 -0.399205 -6.44264 0
M  V30 5395 H 519.106 -1.78528 -7.98793 0
M  V30 5396 N 521.769 1.56035 0.221574 0
M  V30 5397 C 523.016 1.79047 0.94597 0
M  V30 5398 C 523.344 0.62057 1.84334 0
M  V30 5399 O 522.599 -0.395053 1.91671 0
M  V30 5400 C 522.898 3.07813 1.8162 0
M  V30 5401 C 522.564 4.3797 1.07206 0
M  V30 5402 C 521.226 4.73334 0.866508 0
M  V30 5403 C 523.578 5.18326 0.546565 0
M  V30 5404 C 520.906 5.8657 0.123549 0
M  V30 5405 C 523.258 6.32335 -0.18305 0
M  V30 5406 C 521.922 6.66301 -0.399861 0
M  V30 5407 H 521.192 0.655178 0.346155 0
M  V30 5408 H 523.839 1.90299 0.214146 0
M  V30 5409 H 522.144 2.91682 2.61589 0
M  V30 5410 H 523.841 3.2282 2.37884 0
M  V30 5411 H 520.431 4.10202 1.24226 0
M  V30 5412 H 524.615 4.9144 0.692847 0
M  V30 5413 H 519.871 6.11376 -0.0546591 0
M  V30 5414 H 524.045 6.9383 -0.59775 0
M  V30 5415 H 521.672 7.53889 -0.977489 0
M  V30 5416 N 523.247 -0.488276 1.49845 0
M  V30 5417 C 524.493 -1.24065 1.61182 0
M  V30 5418 C 524.848 -1.9004 0.300435 0
M  V30 5419 O 524.141 -1.78341 -0.700365 0
M  V30 5420 C 524.335 -2.32152 2.71735 0
M  V30 5421 C 524.164 -1.76778 4.13497 0
M  V30 5422 C 522.934 -1.57513 4.80123 0
M  V30 5423 C 525.132 -1.27242 4.98311 0
M  V30 5424 N 523.114 -0.972015 6.06156 0
M  V30 5425 C 524.485 -0.791457 6.14928 0
M  V30 5426 C 526.54 -1.15934 4.84214 0
M  V30 5427 C 525.243 -0.208593 7.18997 0
M  V30 5428 C 527.269 -0.590436 5.88445 0
M  V30 5429 C 526.631 -0.119767 7.04298 0
M  V30 5430 H 522.73 -0.443487 0.644083 0
M  V30 5431 H 525.314 -0.545551 1.86901 0
M  V30 5432 H 523.485 -2.99108 2.47768 0
M  V30 5433 H 525.217 -2.99187 2.72523 0
M  V30 5434 H 521.972 -1.82247 4.37131 0
M  V30 5435 H 522.396 -0.689367 6.73481 0
M  V30 5436 H 527.038 -1.5092 3.94947 0
M  V30 5437 H 524.756 0.153501 8.07954 0
M  V30 5438 H 528.342 -0.505548 5.79599 0
M  V30 5439 H 527.222 0.313568 7.83573 0
M  V30 5440 N 524.725 -1.39134 -0.740242 0
M  V30 5441 C 526.141 -1.20623 -1.0451 0
M  V30 5442 C 526.341 -0.0641651 -2.01398 0
M  V30 5443 O 525.397 0.585843 -2.4561 0
M  V30 5444 C 526.71 -2.53815 -1.6124 0
M  V30 5445 C 528.258 -2.60615 -1.73346 0
M  V30 5446 C 528.733 -3.94015 -2.33486 0
M  V30 5447 N 530.224 -3.95627 -2.40902 0
M  V30 5448 C 530.959 -4.95616 -2.88361 0
M  V30 5449 N 530.455 -6.06003 -3.35756 0
M  V30 5450 N 532.248 -4.82998 -2.87523 0
M  V30 5451 H 524.399 -2.12176 -0.0975576 0
M  V30 5452 H 526.662 -0.942066 -0.105904 0
M  V30 5453 H 526.368 -3.37911 -0.975144 0
M  V30 5454 H 526.242 -2.73162 -2.6012 0
M  V30 5455 H 528.629 -1.76906 -2.36195 0
M  V30 5456 H 528.71 -2.45123 -0.731336 0
M  V30 5457 H 528.354 -4.78153 -1.71267 0
M  V30 5458 H 528.284 -4.06825 -3.34366 0
M  V30 5459 H 530.775 -3.15903 -2.07398 0
M  V30 5460 H 531.088 -6.78215 -3.70464 0
M  V30 5461 H 529.433 -6.09604 -3.33778 0
M  V30 5462 H 532.624 -3.95866 -2.49816 0
M  V30 5463 H 532.797 -5.61072 -3.24196 0
M  V30 5464 N 526.204 0.969867 -1.24223 0
M  V30 5465 C 527.134 2.08191 -1.05729 0
M  V30 5466 C 528.115 1.70075 0.0290765 0
M  V30 5467 O 529.3 1.93712 -0.137583 0
M  V30 5468 C 526.43 3.40991 -0.658995 0
M  V30 5469 C 525.384 3.93054 -1.69389 0
M  V30 5470 C 524.71 5.22171 -1.15072 0
M  V30 5471 C 526.01 4.21137 -3.08935 0
M  V30 5472 H 527.704 2.23921 -1.98746 0
M  V30 5473 H 525.25 1.07602 -0.956967 0
M  V30 5474 H 527.203 4.18221 -0.51662 0
M  V30 5475 H 525.927 3.25155 0.30686 0
M  V30 5476 H 524.586 3.17977 -1.82444 0
M  V30 5477 H 524.234 5.02694 -0.175539 0
M  V30 5478 H 523.934 5.57973 -1.84229 0
M  V30 5479 H 525.458 6.02013 -1.02042 0
M  V30 5480 H 526.872 4.8908 -2.99121 0
M  V30 5481 H 525.269 4.68163 -3.75425 0
M  V30 5482 H 526.339 3.27996 -3.57137 0
M  V30 5483 N 527.682 1.05563 1.17022 0
M  V30 5484 C 528.91 0.78845 1.91288 0
M  V30 5485 C 529.325 -0.656318 1.77025 0
M  V30 5486 O 528.682 -1.44869 1.10992 0
M  V30 5487 C 528.733 1.16444 3.42232 0
M  V30 5488 O 528.454 2.5525 3.5606 0
M  V30 5489 C 529.955 0.923937 4.33565 0
M  V30 5490 H 527.175 0.286389 0.606813 0
M  V30 5491 H 529.719 1.4073 1.48375 0
M  V30 5492 H 527.874 0.590266 3.82877 0
M  V30 5493 H 528.288 2.70097 4.49609 0
M  V30 5494 H 529.762 1.23672 5.37968 0
M  V30 5495 H 530.239 -0.140688 4.38975 0
M  V30 5496 H 530.845 1.48214 3.98639 0
M  V30 5497 N 529.16 -1.33526 0.837174 0
M  V30 5498 C 530.576 -1.50727 0.524743 0
M  V30 5499 C 530.776 -1.77792 -0.948279 0
M  V30 5500 O 529.832 -1.83719 -1.73216 0
M  V30 5501 C 531.145 -2.66299 1.39661 0
M  V30 5502 C 532.693 -2.80183 1.39521 0
M  V30 5503 C 533.168 -3.98815 2.25189 0
M  V30 5504 N 534.659 -4.06047 2.2289 0
M  V30 5505 C 535.394 -4.97032 2.85915 0
M  V30 5506 N 534.89 -5.93143 3.57985 0
M  V30 5507 N 536.683 -4.90015 2.75394 0
M  V30 5508 H 528.834 -1.1422 1.79074 0
M  V30 5509 H 531.097 -0.561399 0.763894 0
M  V30 5510 H 530.803 -2.52974 2.4433 0
M  V30 5511 H 530.677 -3.61663 1.07145 0
M  V30 5512 H 533.064 -2.92942 0.356253 0
M  V30 5513 H 533.145 -1.85586 1.76044 0
M  V30 5514 H 532.789 -3.86817 3.29143 0
M  V30 5515 H 532.719 -4.92654 1.86009 0
M  V30 5516 H 535.21 -3.37262 1.70478 0
M  V30 5517 H 535.523 -6.59227 4.03286 0
M  V30 5518 H 533.868 -5.93223 3.62093 0
M  V30 5519 H 537.059 -4.13894 2.18654 0
M  V30 5520 H 537.232 -5.60724 3.24796 0
M  V30 5521 N 530.638 -0.59345 -1.46 0
M  V30 5522 C 531.915 -0.0157933 -1.95594 0
M  V30 5523 C 532.295 1.44807 -1.53604 0
M  V30 5524 O 531.643 2.14342 -0.791824 0
M  V30 5525 C 531.853 -0.199081 -3.48432 0
M  V30 5526 C 533.201 -0.0724943 -4.24538 0
M  V30 5527 O 534.225 -0.128469 -3.55968 0
M  V30 5528 O 533.084 0.0542426 -5.46473 0
M  V30 5529 H 530.178 0.043749 -0.825842 0
M  V30 5530 H 532.724 -0.662522 -1.56233 0
M  V30 5531 H 531.496 -1.21631 -3.71916 0
M  V30 5532 H 531.119 0.483576 -3.94648 0
M  V30 5533 N 532.116 1.54067 -0.331816 0
M  V30 5534 C 533.532 1.59587 0.0205388 0
M  V30 5535 C 533.732 1.34813 1.49759 0
M  V30 5536 O 532.788 1.13661 2.25471 0
M  V30 5537 C 534.101 2.97959 -0.405103 0
M  V30 5538 C 535.649 3.10964 -0.356454 0
M  V30 5539 C 536.124 4.51694 -0.757384 0
M  V30 5540 N 537.615 4.57709 -0.71111 0
M  V30 5541 C 538.35 5.64729 -0.993427 0
M  V30 5542 N 537.846 6.79652 -1.3433 0
M  V30 5543 N 539.639 5.54546 -0.918442 0
M  V30 5544 H 531.79 1.68426 -1.29407 0
M  V30 5545 H 534.053 0.78819 -0.526745 0
M  V30 5546 H 533.759 3.21115 -1.43451 0
M  V30 5547 H 533.633 3.76524 0.225692 0
M  V30 5548 H 536.02 2.87538 0.663763 0
M  V30 5549 H 536.101 2.34484 -1.02229 0
M  V30 5550 H 535.745 4.75853 -1.77555 0
M  V30 5551 H 535.675 5.26555 -0.0691444 0
M  V30 5552 H 538.166 3.75176 -0.452883 0
M  V30 5553 H 538.479 7.57221 -1.54388 0
M  V30 5554 H 536.824 6.81128 -1.38164 0
M  V30 5555 H 540.015 4.63641 -0.644536 0
M  V30 5556 H 540.188 6.37861 -1.14181 0
M  V30 5557 N 533.594 0.0601682 1.57485 0
M  V30 5558 C 534.544 -0.920969 2.08572 0
M  V30 5559 C 535.528 -1.26617 0.992827 0
M  V30 5560 O 536.72 -1.24708 1.25606 0
M  V30 5561 C 533.849 -2.19267 2.64153 0
M  V30 5562 C 532.935 -1.87447 3.80427 0
M  V30 5563 N 533.326 -1.26025 4.89848 0
M  V30 5564 C 531.624 -2.17265 3.89502 0
M  V30 5565 C 532.325 -1.12036 5.70809 0
M  V30 5566 N 531.301 -1.62624 5.18705 0
M  V30 5567 H 535.103 -0.441561 2.90564 0
M  V30 5568 H 532.617 -0.144043 1.6176 0
M  V30 5569 H 534.614 -2.90462 2.99061 0
M  V30 5570 H 533.274 -2.67806 1.83603 0
M  V30 5571 H 534.285 -0.931336 5.09457 0
M  V30 5572 H 530.962 -2.68262 3.19909 0
M  V30 5573 H 532.352 -0.642783 6.68818 0
M  V30 5574 N 535.072 -1.5615 -0.213296 0
M  V30 5575 C 536.002 -1.96109 -1.26742 0
M  V30 5576 C 536.983 -0.830448 -1.48451 0
M  V30 5577 O 538.168 -1.09339 -1.60495 0
M  V30 5578 C 535.298 -2.28492 -2.61551 0
M  V30 5579 C 534.252 -3.44124 -2.54485 0
M  V30 5580 C 533.578 -3.62134 -3.93399 0
M  V30 5581 C 534.878 -4.78855 -2.08556 0
M  V30 5582 H 536.572 -2.84412 -0.935434 0
M  V30 5583 H 534.118 -1.36836 -0.44854 0
M  V30 5584 H 536.071 -2.55039 -3.3546 0
M  V30 5585 H 534.795 -1.37052 -2.96453 0
M  V30 5586 H 533.454 -3.17639 -1.83033 0
M  V30 5587 H 533.102 -2.68055 -4.25623 0
M  V30 5588 H 532.802 -4.39913 -3.89551 0
M  V30 5589 H 534.326 -3.91038 -4.68958 0
M  V30 5590 H 535.74 -5.04552 -2.72213 0
M  V30 5591 H 534.137 -5.59975 -2.1575 0
M  V30 5592 H 535.207 -4.73657 -1.03811 0
M  V30 5593 N 536.55 0.480323 -1.50102 0
M  V30 5594 C 537.796 1.23489 -1.60867 0
M  V30 5595 C 538.129 1.91809 -0.303827 0
M  V30 5596 O 537.404 1.81694 0.694092 0
M  V30 5597 C 537.687 2.28578 -2.78252 0
M  V30 5598 C 537.54 1.64624 -4.18592 0
M  V30 5599 C 538.859 3.2997 -2.91218 0
M  V30 5600 H 535.978 0.447605 -0.585507 0
M  V30 5601 H 538.62 0.530005 -1.82458 0
M  V30 5602 H 536.77 2.88697 -2.59974 0
M  V30 5603 H 538.442 1.08173 -4.48438 0
M  V30 5604 H 536.685 0.949645 -4.23278 0
M  V30 5605 H 537.356 2.40946 -4.96638 0
M  V30 5606 H 539.832 2.79864 -3.07921 0
M  V30 5607 H 538.708 4.00839 -3.74993 0
M  V30 5608 H 538.969 3.93541 -2.0144 0
M  V30 5609 N 538.028 1.39524 0.732853 0
M  V30 5610 C 539.253 1.40329 1.52717 0
M  V30 5611 C 539.678 0.000286574 1.881 0
M  V30 5612 O 539.036 -0.987262 1.52062 0
M  V30 5613 C 539.084 2.28464 2.78992 0
M  V30 5614 O 538.188 1.716 3.75003 0
M  V30 5615 H 537.529 0.47778 0.461109 0
M  V30 5616 H 540.059 1.83546 0.903996 0
M  V30 5617 H 540.069 2.43051 3.27705 0
M  V30 5618 H 538.744 3.30425 2.52572 0
M  V30 5619 H 537.321 1.66267 3.33781 0
M  V30 5620 N 539.506 -0.963266 1.24736 0
M  V30 5621 C 540.436 -2.07628 1.06832 0
M  V30 5622 C 541.417 -1.70088 -0.0200566 0
M  V30 5623 O 542.602 -1.93636 0.147854 0
M  V30 5624 C 539.732 -3.40636 0.677069 0
M  V30 5625 C 538.686 -3.9215 1.71471 0
M  V30 5626 C 538.012 -5.21553 1.1784 0
M  V30 5627 C 539.312 -4.19493 3.11164 0
M  V30 5628 H 541.006 -2.22864 1.9993 0
M  V30 5629 H 538.552 -1.07093 0.96266 0
M  V30 5630 H 540.505 -4.17941 0.538792 0
M  V30 5631 H 539.229 -3.25313 -0.289612 0
M  V30 5632 H 537.888 -3.17005 1.84128 0
M  V30 5633 H 537.536 -5.02593 0.202195 0
M  V30 5634 H 537.236 -5.56988 1.87185 0
M  V30 5635 H 538.76 -6.01463 1.05233 0
M  V30 5636 H 540.174 -4.87487 3.01711 0
M  V30 5637 H 538.571 -4.66165 3.77902 0
M  V30 5638 H 539.641 -3.26097 3.58871 0
M  V30 5639 N 540.985 -1.06182 -1.16461 0
M  V30 5640 C 541.917 -0.629584 -2.20383 0
M  V30 5641 C 542.93 0.311834 -1.59786 0
M  V30 5642 O 544.119 0.103 -1.78203 0
M  V30 5643 C 541.219 0.0973695 -3.3876 0
M  V30 5644 C 540.392 -0.857252 -4.28917 0
M  V30 5645 C 539.451 -0.169749 -5.25926 0
M  V30 5646 O 538.477 -0.807044 -5.6345 0
M  V30 5647 N 539.679 1.08911 -5.70192 0
M  V30 5648 H 542.444 -1.52352 -2.58087 0
M  V30 5649 H 540.005 -0.944993 -1.31459 0
M  V30 5650 H 541.997 0.567676 -4.00699 0
M  V30 5651 H 540.567 0.893093 -2.99571 0
M  V30 5652 H 539.787 -1.50696 -3.64259 0
M  V30 5653 H 541.075 -1.50489 -4.86035 0
M  V30 5654 H 540.473 1.62703 -5.41797 0
M  V30 5655 H 539.03 1.50331 -6.34227 0
M  V30 5656 N 542.463 1.3308 -0.844243 0
M  V30 5657 C 543.874 1.7992 -0.498566 0
M  V30 5658 C 544.225 1.69808 0.982834 0
M  V30 5659 O 543.35 1.25051 1.7661 0
M  V30 5660 C 543.945 3.26677 -0.898204 0
M  V30 5661 C 542.504 3.71513 -0.604583 0
M  V30 5662 C 541.651 2.54393 -1.10362 0
M  V30 5663 H 544.602 1.20526 -1.03244 0
M  V30 5664 H 544.623 3.79918 -0.21039 0
M  V30 5665 H 544.135 3.34004 -1.97643 0
M  V30 5666 H 542.236 3.69708 0.46335 0
M  V30 5667 H 542.349 4.64755 -1.16358 0
M  V30 5668 H 540.713 2.49246 -0.524273 0
M  V30 5669 H 541.496 2.6448 -2.18873 0
M  V30 5670 N 543.941 0.601185 1.45683 0
M  V30 5671 C 544.904 -0.111398 2.28929 0
M  V30 5672 C 545.904 -0.801246 1.39416 0
M  V30 5673 O 547.094 -0.650383 1.61603 0
M  V30 5674 C 544.226 -1.16773 3.20276 0
M  V30 5675 H 545.419 0.620412 2.93413 0
M  V30 5676 H 542.972 0.359946 1.52099 0
M  V30 5677 H 543.707 -1.93051 2.60579 0
M  V30 5678 H 543.492 -0.677358 3.86205 0
M  V30 5679 H 544.982 -1.66698 3.82886 0
M  V30 5680 N 545.419 -1.53889 0.339982 0
M  V30 5681 C 546.351 -2.22435 -0.55275 0
M  V30 5682 C 547.364 -1.22975 -1.06681 0
M  V30 5683 O 548.553 -1.49351 -0.977575 0
M  V30 5684 C 545.653 -2.8882 -1.77302 0
M  V30 5685 C 544.826 -4.14563 -1.39486 0
M  V30 5686 C 543.885 -4.64391 -2.47442 0
M  V30 5687 O 542.911 -5.28687 -2.10899 0
M  V30 5688 N 544.113 -4.40015 -3.78639 0
M  V30 5689 H 546.878 -2.9968 0.0342669 0
M  V30 5690 H 544.439 -1.61068 0.16394 0
M  V30 5691 H 546.431 -3.19072 -2.48948 0
M  V30 5692 H 545.001 -2.15182 -2.26749 0
M  V30 5693 H 544.221 -3.90896 -0.509321 0
M  V30 5694 H 545.509 -4.96362 -1.11813 0
M  V30 5695 H 544.907 -3.88586 -4.11118 0
M  V30 5696 H 543.464 -4.74881 -4.46465 0
M  V30 5697 N 546.897 -0.0685191 -1.57451 0
M  V30 5698 C 547.83 0.935736 -2.08133 0
M  V30 5699 C 548.808 1.29317 -0.985698 0
M  V30 5700 O 549.992 1.40304 -1.25886 0
M  V30 5701 C 547.119 2.2448 -2.53627 0
M  V30 5702 C 546.165 2.03917 -3.74593 0
M  V30 5703 S 546.998 1.30154 -5.19442 0
M  V30 5704 C 548.154 2.62346 -5.68265 0
M  V30 5705 H 548.387 0.504473 -2.92989 0
M  V30 5706 H 545.92 0.144169 -1.53725 0
M  V30 5707 H 547.878 2.99718 -2.80499 0
M  V30 5708 H 546.539 2.64731 -1.69045 0
M  V30 5709 H 545.732 3.00788 -4.04404 0
M  V30 5710 H 545.334 1.36815 -3.48077 0
M  V30 5711 H 547.626 3.58448 -5.7491 0
M  V30 5712 H 548.569 2.3715 -6.67207 0
M  V30 5713 H 548.977 2.69401 -4.96068 0
M  V30 5714 N 548.375 1.56261 0.205012 0
M  V30 5715 C 549.325 1.90155 1.25798 0
M  V30 5716 C 550.309 0.766227 1.41484 0
M  V30 5717 O 551.501 1.02893 1.44021 0
M  V30 5718 C 548.63 2.23603 2.60493 0
M  V30 5719 C 547.716 3.43568 2.48639 0
M  V30 5720 N 548.107 4.61747 2.06455 0
M  V30 5721 C 546.405 3.4751 2.79558 0
M  V30 5722 C 547.106 5.43907 2.06253 0
M  V30 5723 N 546.082 4.84051 2.47377 0
M  V30 5724 H 549.884 2.79031 0.922986 0
M  V30 5725 H 547.398 1.57048 0.413501 0
M  V30 5726 H 549.395 2.46067 3.36537 0
M  V30 5727 H 548.055 1.36049 2.94823 0
M  V30 5728 H 549.066 4.86598 1.77321 0
M  V30 5729 H 545.743 2.70345 3.18151 0
M  V30 5730 H 547.133 6.48542 1.75622 0
M  V30 5731 N 549.853 -0.472356 1.50355 0
M  V30 5732 C 551.269 -0.806001 1.37753 0
M  V30 5733 C 551.469 -1.968 0.432649 0
M  V30 5734 O 550.525 -2.52189 -0.12519 0
M  V30 5735 C 551.838 -1.11926 2.79093 0
M  V30 5736 C 553.386 -1.22579 2.87999 0
M  V30 5737 C 553.861 -1.57218 4.3017 0
M  V30 5738 N 555.352 -1.64212 4.33115 0
M  V30 5739 C 556.087 -1.92517 5.40116 0
M  V30 5740 N 555.583 -2.1885 6.57325 0
M  V30 5741 N 557.376 -1.94008 5.27558 0
M  V30 5742 H 549.527 0.293451 2.10363 0
M  V30 5743 H 551.79 0.0687672 0.945503 0
M  V30 5744 H 551.496 -0.338504 3.50067 0
M  V30 5745 H 551.37 -2.05577 3.16256 0
M  V30 5746 H 553.757 -1.99722 2.17245 0
M  V30 5747 H 553.838 -0.269107 2.54381 0
M  V30 5748 H 553.482 -0.806154 5.01461 0
M  V30 5749 H 553.412 -2.54034 4.61275 0
M  V30 5750 H 555.903 -1.45906 3.48597 0
M  V30 5751 H 556.216 -2.39718 7.3468 0
M  V30 5752 H 554.561 -2.16245 6.60502 0
M  V30 5753 H 557.752 -1.72931 4.34986 0
M  V30 5754 H 557.925 -2.15731 6.11035 0
M  V30 5755 N 551.331 -1.39911 -0.725443 0
M  V30 5756 C 552.578 -1.37654 -1.48518 0
M  V30 5757 C 552.906 0.0243982 -1.94485 0
M  V30 5758 O 552.161 1.00708 -1.67799 0
M  V30 5759 C 552.46 -2.30368 -2.7325 0
M  V30 5760 C 552.126 -3.77817 -2.461 0
M  V30 5761 C 550.788 -4.17991 -2.38405 0
M  V30 5762 C 553.14 -4.71036 -2.23103 0
M  V30 5763 C 550.468 -5.49433 -2.05768 0
M  V30 5764 C 552.82 -6.02766 -1.9198 0
M  V30 5765 C 551.484 -6.41993 -1.82761 0
M  V30 5766 H 550.754 -0.503713 -0.543465 0
M  V30 5767 H 553.401 -1.7249 -0.831822 0
M  V30 5768 H 551.706 -1.88683 -3.43375 0
M  V30 5769 H 553.403 -2.2591 -3.31309 0
M  V30 5770 H 549.993 -3.45982 -2.52972 0
M  V30 5771 H 554.177 -4.40823 -2.2801 0
M  V30 5772 H 549.433 -5.78738 -1.9716 0
M  V30 5773 H 553.607 -6.74519 -1.73197 0
M  V30 5774 H 551.234 -7.43761 -1.57237 0
M  V30 5775 N 552.809 0.956637 -1.25245 0
M  V30 5776 C 554.055 1.70413 -1.11044 0
M  V30 5777 C 554.41 1.89275 0.345377 0
M  V30 5778 O 553.703 1.45116 1.25107 0
M  V30 5779 C 553.897 3.08996 -1.79601 0
M  V30 5780 C 553.726 3.03654 -3.317 0
M  V30 5781 C 552.496 3.07521 -4.00947 0
M  V30 5782 C 554.694 2.84975 -4.28128 0
M  V30 5783 N 552.676 2.92316 -5.39838 0
M  V30 5784 C 554.047 2.7818 -5.5409 0
M  V30 5785 C 556.102 2.6964 -4.18568 0
M  V30 5786 C 554.805 2.57616 -6.71585 0
M  V30 5787 C 556.831 2.50447 -5.35752 0
M  V30 5788 C 556.193 2.4437 -6.60653 0
M  V30 5789 H 552.292 0.631642 -0.461035 0
M  V30 5790 H 554.876 1.13331 -1.58317 0
M  V30 5791 H 553.047 3.64248 -1.34826 0
M  V30 5792 H 554.779 3.72515 -1.58161 0
M  V30 5793 H 551.534 3.16635 -3.52192 0
M  V30 5794 H 551.958 2.87923 -6.12723 0
M  V30 5795 H 556.6 2.73113 -3.22752 0
M  V30 5796 H 554.318 2.52885 -7.67512 0
M  V30 5797 H 557.904 2.39509 -5.30214 0
M  V30 5798 H 556.784 2.29712 -7.49801 0
M  V30 5799 N 554.287 1.06798 1.15896 0
M  V30 5800 C 555.703 0.792423 1.38538 0
M  V30 5801 C 555.903 -0.60592 1.92174 0
M  V30 5802 O 554.959 -1.36561 2.12385 0
M  V30 5803 C 556.272 1.86157 2.36149 0
M  V30 5804 C 557.82 1.88567 2.49823 0
M  V30 5805 C 558.295 2.9455 3.5072 0
M  V30 5806 N 559.786 2.93616 3.58251 0
M  V30 5807 C 560.521 3.72267 4.36125 0
M  V30 5808 N 560.017 4.60751 5.17379 0
M  V30 5809 N 561.81 3.60637 4.31158 0
M  V30 5810 H 553.961 1.96993 0.794198 0
M  V30 5811 H 556.224 0.853942 0.411688 0
M  V30 5812 H 555.93 2.86603 2.03843 0
M  V30 5813 H 555.804 1.71692 3.3586 0
M  V30 5814 H 558.191 0.887765 2.8143 0
M  V30 5815 H 558.272 2.0711 1.5013 0
M  V30 5816 H 557.916 3.94537 3.19849 0
M  V30 5817 H 557.846 2.73255 4.50155 0
M  V30 5818 H 560.337 2.29472 3.00252 0
M  V30 5819 H 560.65 5.17408 5.74028 0
M  V30 5820 H 558.995 4.64803 5.16704 0
M  V30 5821 H 562.186 2.90892 3.66742 0
M  V30 5822 H 562.359 4.22176 4.91601 0
M  V30 5823 N 555.766 -1.3263 0.851289 0
M  V30 5824 C 557.014 -1.96978 0.452128 0
M  V30 5825 C 557.335 -1.67715 -0.99482 0
M  V30 5826 O 556.605 -0.98259 -1.69476 0
M  V30 5827 H 555.185 -0.72873 0.164202 0
M  V30 5828 H 557.847 -1.61774 1.08698 0
M  V30 5829 H 556.943 -3.06387 0.594407 0
M  V30 5830 N 557.244 -0.608902 -1.45362 0
M  V30 5831 C 558.174 0.0964526 -2.33301 0
M  V30 5832 C 559.155 0.857444 -1.46908 0
M  V30 5833 O 560.34 0.827735 -1.75676 0
M  V30 5834 C 557.47 1.09354 -3.29635 0
M  V30 5835 C 556.424 0.445676 -4.25673 0
M  V30 5836 C 555.75 1.5511 -5.11708 0
M  V30 5837 C 557.05 -0.633972 -5.18438 0
M  V30 5838 H 558.744 -0.637829 -2.92527 0
M  V30 5839 H 556.29 -0.308178 -1.40664 0
M  V30 5840 H 558.243 1.59556 -3.90025 0
M  V30 5841 H 556.967 1.85843 -2.6857 0
M  V30 5842 H 555.626 -0.0354897 -3.66583 0
M  V30 5843 H 555.274 2.30631 -4.4701 0
M  V30 5844 H 554.974 1.12311 -5.76767 0
M  V30 5845 H 556.498 2.05537 -5.74967 0
M  V30 5846 H 557.912 -0.215974 -5.72893 0
M  V30 5847 H 556.309 -0.983789 -5.91981 0
M  V30 5848 H 557.379 -1.51005 -4.60788 0
M  V30 5849 N 558.722 1.53707 -0.348139 0
M  V30 5850 C 560.133 1.86213 0.134797 0
M  V30 5851 C 560.484 1.26925 1.49614 0
M  V30 5852 O 559.609 0.584573 2.08355 0
M  V30 5853 C 560.204 3.37866 0.251371 0
M  V30 5854 C 558.763 3.70233 0.678543 0
M  V30 5855 C 557.91 2.76683 -0.184925 0
M  V30 5856 H 560.861 1.48204 -0.567571 0
M  V30 5857 H 560.882 3.64908 1.07806 0
M  V30 5858 H 560.394 3.80988 -0.739581 0
M  V30 5859 H 558.495 3.32659 1.67835 0
M  V30 5860 H 558.608 4.76836 0.465251 0
M  V30 5861 H 556.972 2.52374 0.343465 0
M  V30 5862 H 557.755 3.22635 -1.1731 0
M  V30 5863 N 560.2 0.0768682 1.57412 0
M  V30 5864 C 561.13 -0.886026 2.16037 0
M  V30 5865 C 562.111 -1.30691 1.08876 0
M  V30 5866 O 563.296 -1.37705 1.36934 0
M  V30 5867 C 560.426 -2.1518 2.72608 0
M  V30 5868 C 559.38 -1.87015 3.8498 0
M  V30 5869 C 558.706 -3.20266 4.28175 0
M  V30 5870 C 560.006 -1.17143 5.08994 0
M  V30 5871 H 561.7 -0.397642 2.96748 0
M  V30 5872 H 559.246 -0.189823 1.42743 0
M  V30 5873 H 561.199 -2.82962 3.12266 0
M  V30 5874 H 559.923 -2.66269 1.89125 0
M  V30 5875 H 558.582 -1.21636 3.45833 0
M  V30 5876 H 558.23 -3.69207 3.41607 0
M  V30 5877 H 557.93 -3.0221 5.03927 0
M  V30 5878 H 559.454 -3.89237 4.70454 0
M  V30 5879 H 560.868 -1.75003 5.45937 0
M  V30 5880 H 559.265 -1.09328 5.90057 0
M  V30 5881 H 560.335 -0.151295 4.84664 0
M  V30 5882 N 561.678 -1.56367 -0.196722 0
M  V30 5883 C 562.628 -1.9082 -1.24787 0
M  V30 5884 C 563.612 -0.773719 -1.41076 0
M  V30 5885 O 564.804 -1.03655 -1.43474 0
M  V30 5886 C 561.933 -2.24982 -2.59303 0
M  V30 5887 C 561.019 -3.44882 -2.46814 0
M  V30 5888 N 561.41 -4.62835 -2.04003 0
M  V30 5889 C 559.708 -3.48988 -2.77711 0
M  V30 5890 C 560.409 -5.44993 -2.03366 0
M  V30 5891 N 559.385 -4.85356 -2.44807 0
M  V30 5892 H 563.187 -2.79516 -0.908175 0
M  V30 5893 H 560.701 -1.57265 -0.405166 0
M  V30 5894 H 562.698 -2.47848 -3.35227 0
M  V30 5895 H 561.358 -1.37611 -2.94098 0
M  V30 5896 H 562.369 -4.87532 -1.74738 0
M  V30 5897 H 559.046 -2.72029 -3.16712 0
M  V30 5898 H 560.436 -6.49464 -1.72181 0
M  V30 5899 N 563.156 0.464375 -1.50603 0
M  V30 5900 C 564.086 1.56944 -1.72889 0
M  V30 5901 C 565.067 1.59979 -0.577997 0
M  V30 5902 O 566.252 1.76138 -0.817855 0
M  V30 5903 C 563.382 2.95225 -1.8292 0
M  V30 5904 C 562.336 3.07056 -2.98162 0
M  V30 5905 C 561.662 4.47051 -2.93343 0
M  V30 5906 C 562.962 2.83648 -4.38567 0
M  V30 5907 H 564.656 1.38547 -2.65415 0
M  V30 5908 H 562.202 0.665082 -1.27721 0
M  V30 5909 H 564.155 3.72467 -1.97095 0
M  V30 5910 H 562.879 3.14793 -0.870209 0
M  V30 5911 H 561.538 2.32248 -2.83648 0
M  V30 5912 H 561.186 4.63547 -1.95276 0
M  V30 5913 H 560.886 4.55902 -3.70712 0
M  V30 5914 H 562.41 5.26304 -3.09575 0
M  V30 5915 H 563.824 3.50636 -4.53572 0
M  V30 5916 H 562.221 3.03937 -5.17438 0
M  V30 5917 H 563.291 1.79451 -4.50472 0
M  V30 5918 N 564.634 1.40294 0.718013 0
M  V30 5919 C 565.911 1.2894 1.47084 0
M  V30 5920 C 566.291 -0.0933625 2.10893 0
M  V30 5921 O 565.639 -1.10598 1.99951 0
M  V30 5922 C 565.849 2.4264 2.50852 0
M  V30 5923 C 567.197 2.8276 3.16752 0
M  V30 5924 O 568.221 2.42215 2.61171 0
M  V30 5925 O 567.08 3.528 4.17366 0
M  V30 5926 H 564.174 0.506236 0.653952 0
M  V30 5927 H 566.72 1.52208 0.750394 0
M  V30 5928 H 565.492 3.35009 2.022 0
M  V30 5929 H 565.115 2.21129 3.30435 0
M  V30 5930 N 566.112 -0.949982 1.2575 0
M  V30 5931 C 567.337 -1.73503 1.13628 0
M  V30 5932 C 567.762 -1.85601 -0.30559 0
M  V30 5933 O 567.12 -1.33984 -1.22139 0
M  V30 5934 C 567.168 -3.1243 1.80055 0
M  V30 5935 O 566.272 -3.97916 1.08336 0
M  V30 5936 H 565.613 -0.532665 0.396439 0
M  V30 5937 H 568.143 -1.19043 1.66403 0
M  V30 5938 H 568.153 -3.62866 1.86527 0
M  V30 5939 H 566.828 -3.02941 2.84956 0
M  V30 5940 H 565.405 -3.56375 1.09777 0
M  V30 5941 N 567.59 -1.07411 -1.15328 0
M  V30 5942 C 568.836 -0.798831 -1.86404 0
M  V30 5943 C 569.169 0.673433 -1.8215 0
M  V30 5944 O 568.444 1.49428 -1.24505 0
M  V30 5945 C 568.727 -1.30846 -3.35487 0
M  V30 5946 C 568.58 -2.84532 -3.4837 0
M  V30 5947 C 569.899 -0.925486 -4.30259 0
M  V30 5948 H 567.018 -0.291659 -0.676834 0
M  V30 5949 H 569.66 -1.332 -1.35491 0
M  V30 5950 H 567.81 -0.854916 -3.78977 0
M  V30 5951 H 569.482 -3.3818 -3.13739 0
M  V30 5952 H 567.725 -3.22699 -2.8991 0
M  V30 5953 H 568.396 -3.15259 -4.53118 0
M  V30 5954 H 570.872 -1.3163 -3.94731 0
M  V30 5955 H 569.748 -1.3094 -5.33053 0
M  V30 5956 H 570.009 0.168525 -4.41779 0
M  V30 5957 N 569.068 1.32177 -0.85831 0
M  V30 5958 C 570.345 1.91781 -0.384624 0
M  V30 5959 C 570.725 1.78171 1.13217 0
M  V30 5960 O 570.073 1.18209 1.95548 0
M  V30 5961 C 570.283 3.38414 -0.853047 0
M  V30 5962 C 571.631 4.15542 -0.872359 0
M  V30 5963 O 572.655 3.47148 -0.797926 0
M  V30 5964 O 571.514 5.37678 -0.978009 0
M  V30 5965 H 568.608 0.819259 -0.112886 0
M  V30 5966 H 571.154 1.40923 -0.945453 0
M  V30 5967 H 569.926 3.4228 -1.89632 0
M  V30 5968 H 569.549 3.96683 -0.269874 0
M  V30 5969 N 570.547 0.616602 1.45037 0
M  V30 5970 C 571.51 -0.0871112 2.29034 0
M  V30 5971 C 572.51 -0.786414 1.40258 0
M  V30 5972 O 573.7 -0.633207 1.62284 0
M  V30 5973 C 570.832 -1.13369 3.21497 0
M  V30 5974 H 572.025 0.651497 2.92738 0
M  V30 5975 H 569.578 0.376058 1.51709 0
M  V30 5976 H 570.313 -1.90277 2.62612 0
M  V30 5977 H 570.098 -0.636358 3.86902 0
M  V30 5978 H 571.588 -1.62627 3.84633 0
M  V30 5979 N 572.025 -1.5352 0.356285 0
M  V30 5980 C 573.271 -2.01414 -0.236653 0
M  V30 5981 C 573.604 -1.24339 -1.49176 0
M  V30 5982 O 572.879 -0.334496 -1.91602 0
M  V30 5983 C 573.162 -3.56059 -0.537982 0
M  V30 5984 C 573.015 -4.43835 0.730112 0
M  V30 5985 C 574.334 -4.19127 -1.34239 0
M  V30 5986 H 571.453 -0.732135 -0.0845386 0
M  V30 5987 H 574.095 -1.83854 0.479341 0
M  V30 5988 H 572.245 -3.71153 -1.14795 0
M  V30 5989 H 573.917 -4.40555 1.36782 0
M  V30 5990 H 572.16 -4.1218 1.3524 0
M  V30 5991 H 572.831 -5.49958 0.474358 0
M  V30 5992 H 575.307 -4.07809 -0.826498 0
M  V30 5993 H 574.183 -5.27378 -1.52198 0
M  V30 5994 H 574.444 -3.74581 -2.34822 0
M  V30 5995 N 573.503 -0.0852151 -1.57369 0
M  V30 5996 C 574.733 0.588605 -1.98038 0
M  V30 5997 C 575.141 1.62869 -0.962817 0
M  V30 5998 O 574.484 1.83611 0.057134 0
M  V30 5999 C 574.546 1.30303 -3.35054 0
M  V30 6000 C 574.21 0.414855 -4.55113 0
M  V30 6001 C 575.207 -0.333011 -5.18832 0
M  V30 6002 C 572.892 0.335804 -5.01176 0
M  V30 6003 C 574.886 -1.14801 -6.26976 0
M  V30 6004 C 572.573 -0.482857 -6.09189 0
M  V30 6005 C 573.571 -1.22342 -6.71953 0
M  V30 6006 O 573.259 -2.02855 -7.77885 0
M  V30 6007 H 572.991 0.163249 -0.655992 0
M  V30 6008 H 575.545 -0.1582 -2.0479 0
M  V30 6009 H 573.775 2.0962 -3.24956 0
M  V30 6010 H 575.464 1.87041 -3.60237 0
M  V30 6011 H 576.23 -0.281611 -4.84182 0
M  V30 6012 H 572.109 0.901869 -4.52092 0
M  V30 6013 H 575.653 -1.72654 -6.75897 0
M  V30 6014 H 571.55 -0.535773 -6.43273 0
M  V30 6015 H 572.318 -1.95432 -7.94826 0
M  V30 6016 N 574.981 1.5647 0.188427 0
M  V30 6017 C 575.891 1.98285 1.2538 0
M  V30 6018 C 576.907 0.891535 1.49424 0
M  V30 6019 O 578.083 1.19782 1.61908 0
M  V30 6020 C 575.148 2.31965 2.57669 0
M  V30 6021 C 574.209 3.54838 2.41638 0
M  V30 6022 C 573.442 3.86901 3.67618 0
M  V30 6023 O 573.665 3.20163 4.72072 0
M  V30 6024 O 572.599 4.80309 3.62749 0
M  V30 6025 H 576.425 2.89145 0.928912 0
M  V30 6026 H 574.01 1.44112 0.393955 0
M  V30 6027 H 575.892 2.54673 3.35737 0
M  V30 6028 H 574.567 1.44271 2.89771 0
M  V30 6029 H 573.474 3.37369 1.61658 0
M  V30 6030 H 574.807 4.43019 2.14465 0
M  V30 6031 N 576.459 -0.456382 1.50847 0
M  V30 6032 C 577.875 -0.791345 1.386 0
M  V30 6033 C 578.075 -1.9633 0.453498 0
M  V30 6034 O 577.131 -2.52308 -0.0984353 0
M  V30 6035 C 578.444 -1.08959 2.80265 0
M  V30 6036 C 579.992 -1.19517 2.89283 0
M  V30 6037 C 580.467 -1.52647 4.31814 0
M  V30 6038 N 581.958 -1.59609 4.34832 0
M  V30 6039 C 582.693 -1.86777 5.42127 0
M  V30 6040 N 582.189 -2.11866 6.59609 0
M  V30 6041 N 583.982 -1.88402 5.29586 0
M  V30 6042 H 576.133 0.315746 2.1004 0
M  V30 6043 H 578.396 0.0787916 0.94472 0
M  V30 6044 H 578.102 -0.301355 3.50407 0
M  V30 6045 H 577.976 -2.02211 3.18419 0
M  V30 6046 H 580.363 -1.97406 2.19351 0
M  V30 6047 H 580.444 -0.242111 2.54652 0
M  V30 6048 H 580.088 -0.752922 5.02288 0
M  V30 6049 H 580.018 -2.49127 4.63943 0
M  V30 6050 H 582.509 -1.42201 3.50125 0
M  V30 6051 H 582.822 -2.31912 7.37182 0
M  V30 6052 H 581.167 -2.09228 6.62758 0
M  V30 6053 H 584.358 -1.68307 4.36795 0
M  V30 6054 H 584.531 -2.09238 6.13289 0
M  V30 6055 N 577.937 -1.40673 -0.710563 0
M  V30 6056 C 579.165 -1.42547 -1.4996 0
M  V30 6057 C 579.58 -0.0265485 -1.88781 0
M  V30 6058 O 578.937 0.950694 -1.55782 0
M  V30 6059 C 578.988 -2.32071 -2.77173 0
M  V30 6060 O 578.709 -3.66518 -2.39992 0
M  V30 6061 C 580.21 -2.42591 -3.71032 0
M  V30 6062 H 577.43 -0.486025 -0.462623 0
M  V30 6063 H 579.974 -1.84783 -0.876102 0
M  V30 6064 H 578.129 -1.93184 -3.35795 0
M  V30 6065 H 578.543 -4.14115 -3.21884 0
M  V30 6066 H 580.017 -3.09429 -4.57119 0
M  V30 6067 H 580.494 -1.4525 -4.14486 0
M  V30 6068 H 581.1 -2.82051 -3.18319 0
M  V30 6069 N 579.415 0.9433 -1.26252 0
M  V30 6070 C 580.64 1.72898 -1.14547 0
M  V30 6071 C 581.065 1.85761 0.295743 0
M  V30 6072 O 580.423 1.3463 1.21427 0
M  V30 6073 C 580.471 3.11471 -1.8171 0
M  V30 6074 O 579.575 3.97336 -1.10445 0
M  V30 6075 H 578.916 0.530555 -0.399259 0
M  V30 6076 H 581.446 1.18159 -1.67032 0
M  V30 6077 H 581.456 3.61872 -1.88449 0
M  V30 6078 H 580.131 3.01425 -2.86558 0
M  V30 6079 H 578.708 3.55788 -1.11666 0
M  V30 6080 N 580.893 1.08022 1.14757 0
M  V30 6081 C 582.17 0.720386 1.81851 0
M  V30 6082 C 582.55 -0.796375 1.95502 0
M  V30 6083 O 581.898 -1.71339 1.51179 0
M  V30 6084 C 582.108 1.44273 3.17783 0
M  V30 6085 C 583.456 1.59925 3.93331 0
M  V30 6086 O 584.48 1.40407 3.2736 0
M  V30 6087 O 583.339 1.92096 5.11626 0
M  V30 6088 H 580.433 0.257142 0.786007 0
M  V30 6089 H 582.979 1.18155 1.21809 0
M  V30 6090 H 581.751 2.47618 3.02987 0
M  V30 6091 H 581.374 0.97279 3.85516 0
M  V30 6092 N 582.371 -1.3172 0.865308 0
M  V30 6093 C 583.321 -2.26157 0.289305 0
M  V30 6094 C 584.305 -1.50428 -0.570977 0
M  V30 6095 O 585.497 -1.71978 -0.418617 0
M  V30 6096 C 582.626 -3.39457 -0.512237 0
M  V30 6097 C 581.712 -4.22561 0.361028 0
M  V30 6098 N 582.103 -4.84501 1.45231 0
M  V30 6099 C 580.401 -4.45739 0.152641 0
M  V30 6100 C 581.102 -5.46586 1.99043 0
M  V30 6101 N 580.078 -5.28119 1.28809 0
M  V30 6102 H 583.88 -2.71581 1.12344 0
M  V30 6103 H 581.394 -1.45932 0.712565 0
M  V30 6104 H 583.391 -4.06133 -0.941379 0
M  V30 6105 H 582.051 -2.95577 -1.34404 0
M  V30 6106 H 583.062 -4.84293 1.83524 0
M  V30 6107 H 579.739 -4.1251 -0.643583 0
M  V30 6108 H 581.129 -6.05817 2.90577 0
M  V30 6109 N 583.85 -0.624285 -1.44708 0
M  V30 6110 C 584.797 0.0847135 -2.30644 0
M  V30 6111 C 585.767 0.843575 -1.43084 0
M  V30 6112 O 586.952 0.825982 -1.71995 0
M  V30 6113 C 584.091 1.06495 -3.28257 0
M  V30 6114 C 583.205 0.305224 -4.3092 0
M  V30 6115 C 582.34 1.27667 -5.1563 0
M  V30 6116 C 581.379 0.505706 -6.10007 0
M  V30 6117 N 580.516 1.42727 -6.8744 0
M  V30 6118 H 585.356 -0.654068 -2.90733 0
M  V30 6119 H 582.893 -0.334334 -1.4325 0
M  V30 6120 H 584.851 1.64658 -3.83332 0
M  V30 6121 H 583.481 1.77094 -2.69884 0
M  V30 6122 H 582.533 -0.392207 -3.78373 0
M  V30 6123 H 583.845 -0.295553 -4.97924 0
M  V30 6124 H 582.999 1.92984 -5.75189 0
M  V30 6125 H 581.738 1.91137 -4.48685 0
M  V30 6126 H 580.743 -0.160999 -5.49564 0
M  V30 6127 H 581.968 -0.124183 -6.78986 0
M  V30 6128 H 579.913 2.04931 -6.23169 0
M  V30 6129 H 579.831 0.880345 -7.50857 0
M  V30 6130 H 581.099 2.0695 -7.51526 0
M  V30 6131 N 585.328 1.53329 -0.364422 0
M  V30 6132 C 586.577 2.00421 0.226747 0
M  V30 6133 C 586.89 1.25581 1.49963 0
M  V30 6134 O 588.096 1.63256 2.16933 0
M  V30 6135 C 586.552 3.57017 0.454618 0
M  V30 6136 C 586.16 4.40734 -0.803568 0
M  V30 6137 C 587.904 4.12468 1.00351 0
M  V30 6138 C 585.811 5.8888 -0.545345 0
M  V30 6139 H 584.741 0.748787 0.0885082 0
M  V30 6140 H 587.392 1.7703 -0.482983 0
M  V30 6141 H 585.774 3.76558 1.22558 0
M  V30 6142 H 586.948 4.32967 -1.57723 0
M  V30 6143 H 585.263 3.96381 -1.27559 0
M  V30 6144 H 587.86 5.20783 1.212 0
M  V30 6145 H 588.203 3.6699 1.9653 0
M  V30 6146 H 588.736 3.96721 0.29274 0
M  V30 6147 H 585.475 6.38633 -1.47743 0
M  V30 6148 H 584.995 5.99499 0.189842 0
M  V30 6149 H 586.674 6.46776 -0.170425 0
M  V30 6150 N 586.806 0.0935595 1.57322 0
M  V30 6151 C 588.052 -0.571355 1.94585 0
M  V30 6152 C 588.385 -1.67929 0.975366 0
M  V30 6153 O 587.66 -1.94498 0.00816206 0
M  V30 6154 C 587.943 -1.12797 3.41978 0
M  V30 6155 C 587.796 -0.0251881 4.49793 0
M  V30 6156 C 589.115 -2.02682 3.90651 0
M  V30 6157 H 586.234 -0.206223 0.70756 0
M  V30 6158 H 588.876 0.163956 1.89291 0
M  V30 6159 H 587.026 -1.75461 3.4662 0
M  V30 6160 H 588.698 0.608979 4.57263 0
M  V30 6161 H 586.941 0.641399 4.29032 0
M  V30 6162 H 587.612 -0.455433 5.50118 0
M  V30 6163 H 590.088 -1.49925 3.88152 0
M  V30 6164 H 588.964 -2.38555 4.94351 0
M  V30 6165 H 589.225 -2.94362 3.29854 0
M  V30 6166 N 588.284 -1.56567 -0.180126 0
M  V30 6167 C 589.531 -1.81492 -0.898167 0
M  V30 6168 C 589.859 -0.669225 -1.82624 0
M  V30 6169 O 589.114 0.344096 -1.92651 0
M  V30 6170 C 589.413 -3.1252 -1.73395 0
M  V30 6171 C 589.079 -4.40658 -0.955567 0
M  V30 6172 C 587.741 -4.75465 -0.740707 0
M  V30 6173 C 590.093 -5.19593 -0.408948 0
M  V30 6174 C 587.421 -5.86691 0.0320128 0
M  V30 6175 C 589.773 -6.31627 0.350638 0
M  V30 6176 C 588.437 -6.65007 0.576378 0
M  V30 6177 H 587.707 -0.664125 -0.328662 0
M  V30 6178 H 590.354 -1.908 -0.163616 0
M  V30 6179 H 588.659 -2.98515 -2.53763 0
M  V30 6180 H 590.356 -3.29013 -2.29241 0
M  V30 6181 H 586.946 -4.13352 -1.13306 0
M  V30 6182 H 591.13 -4.93104 -0.562307 0
M  V30 6183 H 586.386 -6.11016 0.216735 0
M  V30 6184 H 590.56 -6.92001 0.781497 0
M  V30 6185 H 588.187 -7.51033 1.17703 0
M  V30 6186 N 589.762 0.448376 -1.51087 0
M  V30 6187 C 591.009 1.19872 -1.63209 0
M  V30 6188 C 591.337 1.91451 -0.343062 0
M  V30 6189 O 590.592 1.83789 0.672321 0
M  V30 6190 C 590.891 2.24866 -2.77795 0
M  V30 6191 C 590.557 1.70378 -4.17471 0
M  V30 6192 C 589.219 1.55241 -4.55471 0
M  V30 6193 C 591.571 1.30203 -5.04675 0
M  V30 6194 C 588.899 0.983844 -5.78392 0
M  V30 6195 C 591.251 0.747798 -6.28165 0
M  V30 6196 C 589.915 0.583233 -6.64947 0
M  V30 6197 H 589.185 0.438642 -0.597222 0
M  V30 6198 H 591.832 0.49136 -1.85089 0
M  V30 6199 H 590.137 3.01598 -2.50092 0
M  V30 6200 H 591.834 2.82723 -2.84374 0
M  V30 6201 H 588.424 1.83134 -3.87505 0
M  V30 6202 H 592.608 1.40723 -4.75932 0
M  V30 6203 H 587.864 0.844007 -6.05546 0
M  V30 6204 H 592.038 0.427927 -6.95084 0
M  V30 6205 H 589.665 0.140532 -7.6007 0
M  V30 6206 N 591.24 1.41047 0.703093 0
M  V30 6207 C 592.187 1.42302 1.81711 0
M  V30 6208 C 593.157 0.278336 1.63751 0
M  V30 6209 O 594.342 0.478266 1.84709 0
M  V30 6210 C 591.482 1.30362 3.19531 0
M  V30 6211 C 590.595 2.54638 3.48975 0
M  V30 6212 C 589.73 2.35047 4.76368 0
M  V30 6213 C 588.769 3.54837 4.98756 0
M  V30 6214 N 587.906 3.34363 6.1737 0
M  V30 6215 H 592.746 2.37516 1.79973 0
M  V30 6216 H 590.283 1.1795 0.878983 0
M  V30 6217 H 592.241 1.21443 3.99134 0
M  V30 6218 H 590.871 0.387602 3.20464 0
M  V30 6219 H 589.923 2.74037 2.63833 0
M  V30 6220 H 591.235 3.43766 3.61423 0
M  V30 6221 H 590.389 2.23552 5.64012 0
M  V30 6222 H 589.128 1.43363 4.66153 0
M  V30 6223 H 588.133 3.66795 4.09563 0
M  V30 6224 H 589.358 4.47464 5.10835 0
M  V30 6225 H 587.304 2.45373 6.08382 0
M  V30 6226 H 587.221 4.17063 6.30551 0
M  V30 6227 H 588.489 3.26626 7.07768 0
M  V30 6228 N 592.718 -0.936591 1.26751 0
M  V30 6229 C 593.966 -1.67998 1.12343 0
M  V30 6230 C 594.287 -1.92137 -0.332938 0
M  V30 6231 O 593.557 -1.52132 -1.23421 0
M  V30 6232 H 592.137 -0.622609 0.412756 0
M  V30 6233 H 594.799 -1.12509 1.59147 0
M  V30 6234 H 593.895 -2.65185 1.64571 0
M  V30 6235 N 594.196 -1.08629 -1.14182 0
M  V30 6236 C 595.473 -0.73002 -1.81466 0
M  V30 6237 C 595.853 0.785996 -1.95922 0
M  V30 6238 O 595.201 1.70535 -1.52086 0
M  V30 6239 C 595.411 -1.45957 -3.17014 0
M  V30 6240 C 596.759 -1.62008 -3.92477 0
M  V30 6241 O 597.783 -1.42141 -3.26611 0
M  V30 6242 O 596.642 -1.94806 -5.106 0
M  V30 6243 H 593.736 -0.261307 -0.784632 0
M  V30 6244 H 596.282 -1.188 -1.2118 0
M  V30 6245 H 595.054 -2.49221 -3.01669 0
M  V30 6246 H 594.677 -0.993222 -3.84995 0
M  V30 6247 N 595.674 1.31259 -0.872281 0
M  V30 6248 C 597.09 1.49283 -0.564521 0
M  V30 6249 C 597.29 1.80243 0.900807 0
M  V30 6250 O 596.346 1.88246 1.68284 0
M  V30 6251 C 597.659 2.62503 -1.46673 0
M  V30 6252 C 599.207 2.76386 -1.46901 0
M  V30 6253 C 599.682 3.92705 -2.35684 0
M  V30 6254 N 601.173 3.99995 -2.33577 0
M  V30 6255 C 601.908 4.89276 -2.98992 0
M  V30 6256 N 601.404 5.83443 -3.73585 0
M  V30 6257 N 603.197 4.82541 -2.88289 0
M  V30 6258 H 595.348 1.09432 -1.82039 0
M  V30 6259 H 597.611 0.540949 -0.77851 0
M  V30 6260 H 597.317 2.46407 -2.50951 0
M  V30 6261 H 597.191 3.58695 -1.16696 0
M  V30 6262 H 599.578 2.91894 -0.433796 0
M  V30 6263 H 599.659 1.80853 -1.80903 0
M  V30 6264 H 599.303 3.77954 -3.39283 0
M  V30 6265 H 599.233 4.87549 -1.99006 0
M  V30 6266 H 601.724 3.32624 -1.7936 0
M  V30 6267 H 602.037 6.48303 -4.20622 0
M  V30 6268 H 600.382 5.83415 -3.77694 0
M  V30 6269 H 603.573 4.07951 -2.2955 0
M  V30 6270 H 603.746 5.51916 -3.39549 0
M  V30 6271 N 597.152 0.631951 1.44375 0
M  V30 6272 C 598.382 0.143658 2.061 0
M  V30 6273 C 598.79 -1.18733 1.47306 0
M  V30 6274 O 598.133 -1.73943 0.590724 0
M  V30 6275 C 598.195 -0.0446102 3.59472 0
M  V30 6276 C 597.859 1.20835 4.40736 0
M  V30 6277 C 598.856 2.13224 4.74164 0
M  V30 6278 C 596.541 1.44399 4.81097 0
M  V30 6279 C 598.535 3.27487 5.46838 0
M  V30 6280 C 596.222 2.58959 5.53519 0
M  V30 6281 C 597.22 3.50329 5.86309 0
M  V30 6282 O 596.908 4.62891 6.57257 0
M  V30 6283 H 596.64 0.0772939 0.671567 0
M  V30 6284 H 599.194 0.866677 1.8622 0
M  V30 6285 H 597.424 -0.822783 3.77845 0
M  V30 6286 H 599.113 -0.487561 4.02961 0
M  V30 6287 H 599.879 1.96253 4.4352 0
M  V30 6288 H 595.758 0.741696 4.54994 0
M  V30 6289 H 599.302 3.98826 5.72349 0
M  V30 6290 H 595.199 2.75873 5.83579 0
M  V30 6291 H 595.967 4.61883 6.75726 0
M  V30 6292 N 598.631 -1.53133 0.372548 0
M  V30 6293 C 599.877 -2.02336 -0.207823 0
M  V30 6294 C 600.232 -1.25477 -1.45853 0
M  V30 6295 O 599.525 -0.341971 -1.88524 0
M  V30 6296 C 599.719 -3.53206 -0.545938 0
M  V30 6297 C 599.548 -4.44674 0.670454 0
M  V30 6298 C 598.318 -4.91217 1.18465 0
M  V30 6299 C 600.516 -4.90772 1.53777 0
M  V30 6300 N 598.498 -5.66711 2.36034 0
M  V30 6301 C 599.869 -5.64678 2.56004 0
M  V30 6302 C 601.924 -4.72836 1.55983 0
M  V30 6303 C 600.627 -6.22555 3.60303 0
M  V30 6304 C 602.653 -5.31583 2.59179 0
M  V30 6305 C 602.015 -6.05381 3.6013 0
M  V30 6306 H 598.114 -0.781048 -0.0385783 0
M  V30 6307 H 600.698 -1.87665 0.518664 0
M  V30 6308 H 598.869 -3.68024 -1.24149 0
M  V30 6309 H 600.601 -3.89123 -1.112 0
M  V30 6310 H 597.356 -4.67652 0.748205 0
M  V30 6311 H 597.78 -6.09117 2.95475 0
M  V30 6312 H 602.422 -4.15299 0.792877 0
M  V30 6313 H 600.14 -6.79183 4.37876 0
M  V30 6314 H 603.726 -5.19595 2.61749 0
M  V30 6315 H 602.606 -6.50028 4.38672 0
M  V30 6316 N 600.109 -0.101901 -1.5727 0
M  V30 6317 C 601.355 0.561027 -1.94885 0
M  V30 6318 C 601.688 1.6741 -0.984258 0
M  V30 6319 O 600.963 1.94491 -0.0184767 0
M  V30 6320 C 601.246 1.10982 -3.42571 0
M  V30 6321 C 601.099 0.00133418 -4.498 0
M  V30 6322 C 602.418 2.00608 -3.9172 0
M  V30 6323 H 599.537 0.202467 -0.708644 0
M  V30 6324 H 602.179 -0.173992 -1.89202 0
M  V30 6325 H 600.329 1.73621 -3.47546 0
M  V30 6326 H 602.001 -0.63322 -4.56933 0
M  V30 6327 H 600.244 -0.664143 -4.28686 0
M  V30 6328 H 600.915 0.426253 -5.50352 0
M  V30 6329 H 603.391 1.47864 -3.88941 0
M  V30 6330 H 602.267 2.3593 -4.95609 0
M  V30 6331 H 602.528 2.92608 -3.3141 0
M  V30 6332 N 601.587 1.56661 0.17182 0
M  V30 6333 C 602.834 1.81965 0.888529 0
M  V30 6334 C 603.162 0.6789 1.82267 0
M  V30 6335 O 602.417 -0.333875 1.92831 0
M  V30 6336 C 602.716 3.13435 1.71736 0
M  V30 6337 C 602.382 4.41159 0.932184 0
M  V30 6338 C 601.044 4.75851 0.715481 0
M  V30 6339 C 603.396 5.19803 0.381387 0
M  V30 6340 C 600.724 5.86666 -0.063126 0
M  V30 6341 C 603.076 6.31433 -0.384129 0
M  V30 6342 C 601.74 6.64692 -0.611637 0
M  V30 6343 H 601.01 0.665859 0.325136 0
M  V30 6344 H 603.657 1.90884 0.153495 0
M  V30 6345 H 601.962 2.99857 2.52177 0
M  V30 6346 H 603.659 3.30224 2.27493 0
M  V30 6347 H 600.249 4.13947 1.11112 0
M  V30 6348 H 604.433 4.93396 0.536148 0
M  V30 6349 H 599.689 6.10892 -0.249136 0
M  V30 6350 H 603.863 6.91577 -0.818185 0
M  V30 6351 H 601.49 7.50398 -1.21684 0
M  V30 6352 N 603.065 -0.440357 1.51323 0
M  V30 6353 C 604.012 -1.53429 1.72419 0
M  V30 6354 C 604.982 -1.56165 0.565826 0
M  V30 6355 O 606.167 -1.73222 0.799917 0
M  V30 6356 C 603.307 -2.91169 1.85242 0
M  V30 6357 C 602.42 -2.97985 3.12777 0
M  V30 6358 C 601.555 -4.26829 3.16212 0
M  V30 6359 C 600.594 -4.27501 4.38074 0
M  V30 6360 N 599.731 -5.47866 4.39076 0
M  V30 6361 H 604.571 -1.34743 2.65797 0
M  V30 6362 H 602.108 -0.654608 1.31732 0
M  V30 6363 H 604.066 -3.71087 1.90658 0
M  V30 6364 H 602.696 -3.0842 0.952744 0
M  V30 6365 H 601.748 -2.10749 3.16685 0
M  V30 6366 H 603.06 -2.94342 4.02696 0
M  V30 6367 H 602.214 -5.15118 3.20527 0
M  V30 6368 H 600.953 -4.33124 2.24176 0
M  V30 6369 H 599.958 -3.37606 4.33938 0
M  V30 6370 H 601.183 -4.22873 5.31371 0
M  V30 6371 H 599.129 -5.54887 3.49909 0
M  V30 6372 H 599.046 -5.46091 5.22801 0
M  V30 6373 H 600.314 -6.38195 4.4758 0
M  V30 6374 N 604.543 -1.41418 -0.695603 0
M  V30 6375 C 605.82 -1.31264 -1.45014 0
M  V30 6376 C 606.2 0.0597994 -2.11015 0
M  V30 6377 O 605.548 1.07403 -2.01685 0
M  V30 6378 C 605.758 -2.466 -2.4696 0
M  V30 6379 C 607.106 -2.87763 -3.12214 0
M  V30 6380 O 608.13 -2.46339 -2.57285 0
M  V30 6381 O 606.989 -3.59395 -4.11701 0
M  V30 6382 H 604.083 -0.516576 -0.645816 0
M  V30 6383 H 606.629 -1.53382 -0.726084 0
M  V30 6384 H 605.401 -3.38183 -1.96845 0
M  V30 6385 H 605.024 -2.26358 -3.26876 0
M  V30 6386 N 606.021 0.929856 -1.27246 0
M  V30 6387 C 606.969 2.05151 -1.09616 0
M  V30 6388 C 607.963 1.69388 -0.0198617 0
M  V30 6389 O 609.169 1.79124 -0.177417 0
M  V30 6390 H 605.544 0.671909 -0.337701 0
M  V30 6391 H 607.515 2.17168 -2.04648 0
M  V30 6392 C 606.264 3.3934 -0.757851 0
M  V30 6393 H 605.587 3.67343 -1.57795 0
M  V30 6394 H 607.027 4.18603 -0.674358 0
M  V30 6395 C 605.486 3.32582 0.537658 0
M  V30 6396 O 606.016 3.69633 1.57271 0
M  V30 6397 N 604.222 2.8568 0.532478 0
M  V30 6398 H 603.769 2.55725 -0.310233 0
M  V30 6399 H 603.727 2.81541 1.39936 0
M  V30 6400 N 607.499 1.09233 1.13605 0
M  V30 6401 C 608.447 0.724572 2.21027 0
M  V30 6402 C 609.441 -0.273595 1.67176 0
M  V30 6403 O 610.647 -0.135266 1.79491 0
M  V30 6404 H 607.022 0.216319 0.720215 0
M  V30 6405 H 608.993 1.63975 2.49309 0
M  V30 6406 C 607.742 0.159126 3.47336 0
M  V30 6407 H 607.065 0.918387 3.89109 0
M  V30 6408 H 608.505 -0.0602851 4.23957 0
M  V30 6409 C 606.964 -1.10514 3.18258 0
M  V30 6410 O 607.494 -2.18869 3.36837 0
M  V30 6411 N 605.7 -1.01886 2.72154 0
M  V30 6412 H 605.247 -0.137027 2.57235 0
M  V30 6413 H 605.205 -1.8655 2.53074 0
M  V30 6414 N 608.977 -1.30795 0.87923 0
M  V30 6415 C 610.223 -1.96653 0.495519 0
M  V30 6416 C 610.556 -1.69282 -0.951703 0
M  V30 6417 O 609.831 -0.994374 -1.6716 0
M  V30 6418 C 610.114 -3.51898 0.764174 0
M  V30 6419 C 609.967 -3.88808 2.2616 0
M  V30 6420 C 611.286 -4.39462 0.236825 0
M  V30 6421 H 608.405 -0.7143 0.181507 0
M  V30 6422 H 611.047 -1.54765 1.10217 0
M  V30 6423 H 609.197 -3.87709 0.247841 0
M  V30 6424 H 610.869 -3.63051 2.8459 0
M  V30 6425 H 609.112 -3.37082 2.73053 0
M  V30 6426 H 609.783 -4.97086 2.4002 0
M  V30 6427 H 612.259 -4.10528 0.678683 0
M  V30 6428 H 611.135 -5.47018 0.454176 0
M  V30 6429 H 611.396 -4.33621 -0.861683 0
M  V30 6430 N 610.455 -0.639598 -1.44038 0
M  V30 6431 C 611.365 0.0612377 -2.3452 0
M  V30 6432 C 612.381 0.826717 -1.53106 0
M  V30 6433 O 613.557 0.777059 -1.85806 0
M  V30 6434 C 610.622 1.02492 -3.31204 0
M  V30 6435 C 609.683 0.25788 -4.28525 0
M  V30 6436 C 608.916 1.17566 -5.2059 0
M  V30 6437 O 609.139 2.41461 -5.16771 0
M  V30 6438 O 608.073 0.655407 -5.98321 0
M  V30 6439 H 611.899 -0.68318 -2.95916 0
M  V30 6440 H 609.484 -0.399784 -1.43952 0
M  V30 6441 H 611.366 1.57911 -3.90694 0
M  V30 6442 H 610.041 1.7498 -2.7233 0
M  V30 6443 H 608.948 -0.339566 -3.72556 0
M  V30 6444 H 610.281 -0.427154 -4.90343 0
M  V30 6445 N 611.933 1.52934 -0.380664 0
M  V30 6446 C 612.843 2.29921 0.466192 0
M  V30 6447 C 613.859 1.36488 1.07922 0
M  V30 6448 O 615.035 1.69553 1.0869 0
M  V30 6449 C 612.1 3.08468 1.58266 0
M  V30 6450 C 611.161 4.17595 0.995627 0
M  V30 6451 C 610.394 4.92387 2.05889 0
M  V30 6452 O 610.617 4.67184 3.27254 0
M  V30 6453 O 609.551 5.77949 1.68102 0
M  V30 6454 H 613.377 3.03274 -0.160735 0
M  V30 6455 H 610.962 1.48698 -0.144617 0
M  V30 6456 H 612.844 3.57469 2.23145 0
M  V30 6457 H 611.519 2.37937 2.19471 0
M  V30 6458 H 610.426 3.72811 0.310332 0
M  V30 6459 H 611.759 4.90336 0.427918 0
M  V30 6460 N 613.412 0.11024 1.57214 0
M  V30 6461 C 614.66 -0.548783 1.94506 0
M  V30 6462 C 614.981 -1.67772 0.99386 0
M  V30 6463 O 614.251 -1.9584 0.0485841 0
M  V30 6464 H 612.831 -0.205715 0.718116 0
M  V30 6465 H 615.493 0.177127 1.94093 0
M  V30 6466 H 614.589 -0.949096 2.97319 0
M  V30 6467 N 614.89 -1.56749 -0.16351 0
M  V30 6468 C 616.12 -1.86307 -0.892936 0
M  V30 6469 C 616.528 -0.6945 -1.75992 0
M  V30 6470 O 615.871 0.345384 -1.80424 0
M  V30 6471 C 615.933 -3.10372 -1.81409 0
M  V30 6472 C 615.597 -4.42913 -1.12593 0
M  V30 6473 C 616.594 -5.17608 -0.487661 0
M  V30 6474 C 614.279 -4.89646 -1.12035 0
M  V30 6475 C 616.273 -6.3723 0.14699 0
M  V30 6476 C 613.96 -6.09197 -0.481883 0
M  V30 6477 C 614.958 -6.82834 0.150678 0
M  V30 6478 O 614.646 -8.00116 0.779065 0
M  V30 6479 H 614.378 -0.622126 -0.264452 0
M  V30 6480 H 616.932 -2.04728 -0.166063 0
M  V30 6481 H 615.162 -2.87917 -2.58148 0
M  V30 6482 H 616.851 -3.26312 -2.41403 0
M  V30 6483 H 617.617 -4.8258 -0.483888 0
M  V30 6484 H 613.496 -4.32265 -1.60212 0
M  V30 6485 H 617.04 -6.94646 0.641325 0
M  V30 6486 H 612.937 -6.43688 -0.483266 0
M  V30 6487 H 613.705 -8.15678 0.679089 0
M  V30 6488 N 616.368 0.432326 -1.51554 0
M  V30 6489 C 617.779 1.01202 -1.56892 0
M  V30 6490 C 618.13 1.92175 -0.395394 0
M  V30 6491 O 617.255 2.10844 0.487198 0
M  V30 6492 C 617.85 1.84217 -2.8434 0
M  V30 6493 C 616.409 2.37228 -2.92233 0
M  V30 6494 C 615.556 1.16576 -2.51606 0
M  V30 6495 H 618.507 0.213407 -1.57259 0
M  V30 6496 H 618.528 2.69721 -2.68385 0
M  V30 6497 H 618.04 1.17979 -3.69733 0
M  V30 6498 H 616.141 3.06905 -2.11282 0
M  V30 6499 H 616.254 2.69682 -3.95991 0
M  V30 6500 H 614.618 1.51263 -2.04919 0
M  V30 6501 H 615.401 0.519404 -3.39348 0
M  V30 6502 N 617.846 1.41785 0.688094 0
M  V30 6503 C 619.262 1.24419 0.999608 0
M  V30 6504 C 619.462 0.138868 2.01021 0
M  V30 6505 O 618.518 -0.494283 2.47615 0
M  V30 6506 C 619.831 2.59625 1.51709 0
M  V30 6507 C 621.379 2.66869 1.63554 0
M  V30 6508 C 621.854 4.0241 2.18702 0
M  V30 6509 N 623.345 4.04295 2.26053 0
M  V30 6510 C 624.08 5.05977 2.69768 0
M  V30 6511 N 623.576 6.18047 3.13033 0
M  V30 6512 N 625.369 4.93336 2.69398 0
M  V30 6513 H 617.52 2.12392 0.0187427 0
M  V30 6514 H 619.783 0.945347 0.0708673 0
M  V30 6515 H 619.489 3.41297 0.849059 0
M  V30 6516 H 619.363 2.82628 2.49803 0
M  V30 6517 H 621.75 1.8555 2.29467 0
M  V30 6518 H 621.831 2.47668 0.639857 0
M  V30 6519 H 621.475 4.8418 1.53402 0
M  V30 6520 H 621.405 4.18955 3.19037 0
M  V30 6521 H 623.896 3.23383 1.9553 0
M  V30 6522 H 624.209 6.91498 3.45038 0
M  V30 6523 H 622.554 6.21572 3.10923 0
M  V30 6524 H 625.745 4.04865 2.34952 0
M  V30 6525 H 625.918 5.72717 3.03148 0
M  V30 6526 N 619.324 -0.923095 1.27737 0
M  V30 6527 C 620.735 -1.48626 1.12993 0
M  V30 6528 C 621.086 -1.94142 -0.283439 0
M  V30 6529 O 620.211 -1.81605 -1.17681 0
M  V30 6530 C 620.806 -2.70117 2.04505 0
M  V30 6531 C 619.365 -3.22642 1.93853 0
M  V30 6532 C 618.512 -1.95368 1.96791 0
M  V30 6533 H 621.463 -0.736737 1.40563 0
M  V30 6534 H 621.484 -3.4506 1.60356 0
M  V30 6535 H 620.996 -2.36959 3.07363 0
M  V30 6536 H 619.097 -3.60549 0.939968 0
M  V30 6537 H 619.21 -3.88525 2.80331 0
M  V30 6538 H 617.574 -2.12061 1.41076 0
M  V30 6539 H 618.357 -1.64517 3.01312 0
M  V30 6540 N 620.802 -1.09834 -1.13024 0
M  V30 6541 C 622.048 -0.83819 -1.84668 0
M  V30 6542 C 622.381 0.634645 -1.83537 0
M  V30 6543 O 621.656 1.46753 -1.27647 0
M  V30 6544 C 621.939 -1.37933 -3.32636 0
M  V30 6545 C 621.792 -2.91857 -3.42257 0
M  V30 6546 C 623.111 -1.01654 -4.28199 0
M  V30 6547 H 620.23 -0.30595 -0.670495 0
M  V30 6548 H 622.872 -1.36044 -1.32635 0
M  V30 6549 H 621.022 -0.935111 -3.77078 0
M  V30 6550 H 622.694 -3.44759 -3.06495 0
M  V30 6551 H 620.937 -3.28776 -2.83 0
M  V30 6552 H 621.608 -3.24799 -4.46329 0
M  V30 6553 H 624.084 -1.39973 -3.9185 0
M  V30 6554 H 622.96 -1.42217 -5.30156 0
M  V30 6555 H 623.221 0.0747794 -4.42037 0
M  V30 6556 N 622.28 1.30327 -0.886154 0
M  V30 6557 C 623.505 2.0079 -0.519425 0
M  V30 6558 C 623.93 1.65979 0.885013 0
M  V30 6559 O 623.288 0.877043 1.58675 0
M  V30 6560 C 623.336 3.53686 -0.702758 0
M  V30 6561 O 622.44 4.11637 0.250828 0
M  V30 6562 H 621.781 0.63171 -0.204544 0
M  V30 6563 H 624.311 1.66145 -1.19402 0
M  V30 6564 H 624.321 4.03531 -0.602207 0
M  V30 6565 H 622.996 3.78361 -1.72673 0
M  V30 6566 H 621.573 3.72755 0.103873 0
M  V30 6567 N 623.758 0.647228 1.43697 0
M  V30 6568 C 625.035 0.0883758 1.954 0
M  V30 6569 C 625.415 -1.39006 1.58873 0
M  V30 6570 O 624.763 -2.11255 0.87083 0
M  V30 6571 C 624.973 0.328263 3.47453 0
M  V30 6572 C 626.321 0.230009 4.23977 0
M  V30 6573 O 627.345 0.260496 3.55246 0
M  V30 6574 O 626.204 0.148615 5.46298 0
M  V30 6575 H 623.298 -0.0130683 0.826897 0
M  V30 6576 H 625.844 0.72005 1.53666 0
M  V30 6577 H 624.616 1.3535 3.67146 0
M  V30 6578 H 624.239 -0.336772 3.96171 0
M  V30 6579 N 625.236 -1.5273 0.388769 0
M  V30 6580 C 626.483 -2.01573 -0.19359 0
M  V30 6581 C 626.811 -1.27525 -1.46859 0
M  V30 6582 O 626.066 -0.363926 -1.92286 0
M  V30 6583 C 626.365 -3.53765 -0.508445 0
M  V30 6584 C 626.031 -4.4582 0.674947 0
M  V30 6585 C 624.693 -4.70703 0.999596 0
M  V30 6586 C 627.045 -5.00138 1.46666 0
M  V30 6587 C 624.373 -5.47155 2.11751 0
M  V30 6588 C 626.725 -5.77812 2.57518 0
M  V30 6589 C 625.389 -6.00975 2.90492 0
M  V30 6590 H 624.659 -0.737606 -0.0708397 0
M  V30 6591 H 627.306 -1.84134 0.526006 0
M  V30 6592 H 625.611 -3.69274 -1.30936 0
M  V30 6593 H 627.308 -3.8905 -0.971664 0
M  V30 6594 H 623.898 -4.26616 0.411906 0
M  V30 6595 H 628.082 -4.8084 1.22909 0
M  V30 6596 H 623.338 -5.63314 2.3767 0
M  V30 6597 H 627.512 -6.18904 3.19267 0
M  V30 6598 H 625.139 -6.59998 3.77236 0
M  V30 6599 N 626.714 -0.118576 -1.57153 0
M  V30 6600 C 627.939 0.550582 -1.99958 0
M  V30 6601 C 628.364 1.59458 -0.997736 0
M  V30 6602 O 627.722 1.81274 0.0306269 0
M  V30 6603 C 627.77 1.15379 -3.41643 0
M  V30 6604 O 626.874 2.26932 -3.44348 0
M  V30 6605 H 626.215 0.137567 -0.649593 0
M  V30 6606 H 628.745 -0.206926 -2.03551 0
M  V30 6607 H 628.755 1.48942 -3.79843 0
M  V30 6608 H 627.43 0.389087 -4.14076 0
M  V30 6609 H 626.007 1.94812 -3.17967 0
M  V30 6610 N 628.193 1.56834 0.155195 0
M  V30 6611 C 629.123 2.00678 1.19376 0
M  V30 6612 C 630.104 0.884973 1.45266 0
M  V30 6613 O 631.289 1.1522 1.56326 0
M  V30 6614 C 628.419 2.38042 2.5289 0
M  V30 6615 C 627.373 3.53332 2.41538 0
M  V30 6616 C 626.699 3.76485 3.79688 0
M  V30 6617 C 627.999 4.86265 1.9064 0
M  V30 6618 H 629.693 2.87688 0.829232 0
M  V30 6619 H 627.239 1.38407 0.397445 0
M  V30 6620 H 629.192 2.67314 3.25763 0
M  V30 6621 H 627.916 1.4796 2.91162 0
M  V30 6622 H 626.575 3.24213 1.71117 0
M  V30 6623 H 626.223 2.83667 4.15382 0
M  V30 6624 H 625.923 4.54068 3.72956 0
M  V30 6625 H 627.447 4.08174 4.54122 0
M  V30 6626 H 628.861 5.14308 2.53299 0
M  V30 6627 H 627.258 5.67597 1.94818 0
M  V30 6628 H 628.328 4.77184 0.861596 0
M  V30 6629 N 629.671 -0.424282 1.51781 0
M  V30 6630 C 631.082 -1.00368 1.57427 0
M  V30 6631 C 631.433 -1.91962 0.40558 0
M  V30 6632 O 630.558 -2.111 -0.47601 0
M  V30 6633 C 631.153 -1.82707 2.85313 0
M  V30 6634 C 629.712 -2.35675 2.93487 0
M  V30 6635 C 628.859 -1.1524 2.5222 0
M  V30 6636 H 631.81 -0.205064 1.5737 0
M  V30 6637 H 631.831 -2.68294 2.69812 0
M  V30 6638 H 631.343 -1.16017 3.70353 0
M  V30 6639 H 629.444 -3.05781 2.12906 0
M  V30 6640 H 629.557 -2.67578 3.97415 0
M  V30 6641 H 627.921 -1.50174 2.05718 0
M  V30 6642 H 628.704 -0.5014 3.39619 0
M  V30 6643 N 631.149 -1.42148 -0.680565 0
M  V30 6644 C 632.56 -1.3768 -1.26099 0
M  V30 6645 C 632.911 -0.0672348 -1.96085 0
M  V30 6646 O 632.036 0.834172 -1.99676 0
M  V30 6647 C 632.631 -2.49387 -2.29328 0
M  V30 6648 C 631.19 -2.4827 -2.82911 0
M  V30 6649 C 630.337 -2.2847 -1.57152 0
M  V30 6650 H 633.288 -1.51446 -0.474326 0
M  V30 6651 H 633.309 -2.19307 -3.10941 0
M  V30 6652 H 632.821 -3.44686 -1.78363 0
M  V30 6653 H 630.922 -1.56773 -3.38013 0
M  V30 6654 H 631.035 -3.45109 -3.3232 0
M  V30 6655 H 629.399 -1.76623 -1.83511 0
M  V30 6656 H 630.182 -3.25816 -1.0816 0
M  V30 6657 N 632.627 0.916307 -1.28225 0
M  V30 6658 C 633.875 1.6619 -1.15002 0
M  V30 6659 C 634.196 1.92642 0.302329 0
M  V30 6660 O 633.466 1.54076 1.20985 0
M  V30 6661 H 632.046 0.615964 -0.422608 0
M  V30 6662 H 634.708 1.09963 -1.60917 0
M  V30 6663 H 633.804 2.62533 -1.68769 0
M  V30 6664 N 634.105 1.10431 1.1244 0
M  V30 6665 C 635.353 0.845045 1.83585 0
M  V30 6666 C 635.674 -0.631168 1.84503 0
M  V30 6667 O 634.944 -1.45825 1.30813 0
M  V30 6668 H 633.524 0.309628 0.679809 0
M  V30 6669 H 636.186 1.39458 1.36153 0
M  V30 6670 H 635.282 1.20786 2.8778 0
M  V30 6671 N 635.583 -1.29855 0.893053 0
M  V30 6672 C 636.832 -1.95104 0.511597 0
M  V30 6673 C 637.145 -1.71226 -0.945567 0
M  V30 6674 O 638.351 -2.30525 -1.43424 0
M  V30 6675 C 636.807 -3.49374 0.864034 0
M  V30 6676 C 636.415 -3.82061 2.33952 0
M  V30 6677 C 638.159 -4.20894 0.552167 0
M  V30 6678 C 636.066 -5.29546 2.63316 0
M  V30 6679 H 634.996 -0.73029 0.187597 0
M  V30 6680 H 637.647 -1.47682 1.08914 0
M  V30 6681 H 636.029 -3.95413 0.215493 0
M  V30 6682 H 637.203 -3.46904 3.03305 0
M  V30 6683 H 635.518 -3.23665 2.61973 0
M  V30 6684 H 638.115 -5.29435 0.748489 0
M  V30 6685 H 638.458 -4.13178 -0.508924 0
M  V30 6686 H 638.991 -3.80564 1.15825 0
M  V30 6687 H 635.73 -5.4232 3.68197 0
M  V30 6688 H 635.25 -5.65974 1.9858 0
M  V30 6689 H 636.929 -5.97068 2.49236 0
M  V30 6690 N 637.061 -0.65484 -1.43351 0
M  V30 6691 C 638.338 -0.0987371 -1.95351 0
M  V30 6692 C 638.718 1.38161 -1.59608 0
M  V30 6693 O 638.066 2.10791 -0.882021 0
M  V30 6694 C 638.276 -0.346684 -3.47274 0
M  V30 6695 C 639.624 -0.25249 -4.23849 0
M  V30 6696 O 640.648 -0.279332 -3.55103 0
M  V30 6697 O 639.507 -0.177584 -5.46211 0
M  V30 6698 H 636.601 0.0086829 -0.826954 0
M  V30 6699 H 639.147 -0.728189 -1.53282 0
M  V30 6700 H 637.919 -1.37296 -3.66423 0
M  V30 6701 H 637.542 0.315757 -3.96344 0
M  V30 6702 N 638.539 1.52521 -0.396863 0
M  V30 6703 C 639.502 2.2527 0.422604 0
M  V30 6704 C 640.502 1.27184 0.983913 0
M  V30 6705 O 641.692 1.51222 0.864723 0
M  V30 6706 C 638.824 3.01356 1.59365 0
M  V30 6707 H 640.017 2.99133 -0.214416 0
M  V30 6708 H 637.57 1.55587 -0.149128 0
M  V30 6709 H 638.305 2.31813 2.26789 0
M  V30 6710 H 638.09 3.73357 1.19779 0
M  V30 6711 H 639.58 3.56571 2.17363 0
M  V30 6712 N 640.017 0.126909 1.57088 0
M  V30 6713 C 640.98 -0.806097 2.14557 0
M  V30 6714 C 641.98 -1.18918 1.08236 0
M  V30 6715 O 643.17 -1.11339 1.33975 0
M  V30 6716 C 640.302 -2.09116 2.69227 0
M  V30 6717 H 641.495 -0.306522 2.98329 0
M  V30 6718 H 639.048 -0.122393 1.5582 0
M  V30 6719 H 639.783 -2.63486 1.89065 0
M  V30 6720 H 639.568 -1.82588 3.46993 0
M  V30 6721 H 641.058 -2.75794 3.13572 0
M  V30 6722 N 641.495 -1.56914 -0.146875 0
M  V30 6723 C 642.742 -1.83356 -0.859467 0
M  V30 6724 C 643.07 -0.707811 -1.81164 0
M  V30 6725 O 642.325 0.303155 -1.93338 0
M  V30 6726 C 642.624 -3.16128 -1.66727 0
M  V30 6727 C 642.29 -4.42586 -0.861881 0
M  V30 6728 C 640.952 -4.76929 -0.639687 0
M  V30 6729 C 643.304 -5.20344 -0.298643 0
M  V30 6730 C 640.632 -5.86491 0.156451 0
M  V30 6731 C 642.984 -6.30742 0.484536 0
M  V30 6732 C 641.648 -6.63635 0.717306 0
M  V30 6733 H 640.918 -0.670947 -0.314501 0
M  V30 6734 H 643.565 -1.91104 -0.123108 0
M  V30 6735 H 641.87 -3.03831 -2.47374 0
M  V30 6736 H 643.567 -3.33802 -2.2221 0
M  V30 6737 H 640.157 -4.15662 -1.04513 0
M  V30 6738 H 644.341 -4.94186 -0.457585 0
M  V30 6739 H 639.597 -6.10419 0.346292 0
M  V30 6740 H 643.771 -6.90188 0.928105 0
M  V30 6741 H 641.398 -7.48367 1.33607 0
M  V30 6742 N 642.974 0.416227 -1.52004 0
M  V30 6743 C 644.199 1.19029 -1.69843 0
M  V30 6744 C 644.624 1.83708 -0.404103 0
M  V30 6745 O 643.982 1.69711 0.637787 0
M  V30 6746 C 644.03 2.23439 -2.83032 0
M  V30 6747 O 643.134 3.29419 -2.48106 0
M  V30 6748 H 642.475 0.347785 -0.565634 0
M  V30 6749 H 645.005 0.488871 -1.98674 0
M  V30 6750 H 645.015 2.67884 -3.07737 0
M  V30 6751 H 643.69 1.75745 -3.76944 0
M  V30 6752 H 642.267 2.90303 -2.34048 0
M  V30 6753 N 644.452 1.42507 0.673017 0
M  V30 6754 C 645.698 1.44282 1.43367 0
M  V30 6755 C 646.053 0.0588239 1.9231 0
M  V30 6756 O 645.346 -0.919288 1.68106 0
M  V30 6757 C 645.54 2.40351 2.64511 0
M  V30 6758 C 645.369 3.87955 2.27423 0
M  V30 6759 C 644.139 4.56476 2.16697 0
M  V30 6760 C 646.337 4.7833 1.88957 0
M  V30 6761 N 644.319 5.89099 1.72731 0
M  V30 6762 C 645.69 6.00073 1.55923 0
M  V30 6763 C 647.745 4.65769 1.75965 0
M  V30 6764 C 646.448 7.10652 1.112 0
M  V30 6765 C 648.474 5.76332 1.32647 0
M  V30 6766 C 647.836 6.97188 1.00538 0
M  V30 6767 H 643.935 0.583134 0.521036 0
M  V30 6768 H 646.519 1.78547 0.776481 0
M  V30 6769 H 644.69 2.08145 3.27918 0
M  V30 6770 H 646.422 2.32694 3.31113 0
M  V30 6771 H 643.177 4.10712 2.35823 0
M  V30 6772 H 643.601 6.59446 1.53166 0
M  V30 6773 H 648.243 3.72808 1.99435 0
M  V30 6774 H 645.961 8.0346 0.864768 0
M  V30 6775 H 649.547 5.68625 1.23112 0
M  V30 6776 H 648.427 7.81287 0.675283 0
M  V30 6777 N 645.93 -0.909495 1.28709 0
M  V30 6778 C 646.893 -1.99399 1.13016 0
M  V30 6779 C 647.893 -1.60654 0.068536 0
M  V30 6780 O 649.083 -1.71334 0.314671 0
M  V30 6781 C 646.215 -3.33078 0.726085 0
M  V30 6782 H 647.408 -2.14751 2.09338 0
M  V30 6783 H 644.961 -1.09272 1.11756 0
M  V30 6784 H 645.696 -3.23428 -0.23771 0
M  V30 6785 H 645.481 -3.62562 1.49302 0
M  V30 6786 H 646.971 -4.12681 0.639058 0
M  V30 6787 N 647.408 -1.11026 -1.11852 0
M  V30 6788 C 648.358 -0.733836 -2.15868 0
M  V30 6789 C 649.342 0.26001 -1.58785 0
M  V30 6790 O 650.534 0.0677901 -1.7687 0
M  V30 6791 C 647.663 -0.173948 -3.42859 0
M  V30 6792 C 646.749 -1.1952 -4.0691 0
M  V30 6793 N 647.14 -2.38797 -4.45881 0
M  V30 6794 C 645.438 -1.03714 -4.33773 0
M  V30 6795 C 646.139 -3.03894 -4.96007 0
M  V30 6796 N 645.115 -2.31389 -4.91894 0
M  V30 6797 H 648.917 -1.64171 -2.43773 0
M  V30 6798 H 646.431 -0.988877 -1.28822 0
M  V30 6799 H 648.428 0.113836 -4.16745 0
M  V30 6800 H 647.088 0.728568 -3.16421 0
M  V30 6801 H 648.099 -2.76281 -4.38051 0
M  V30 6802 H 644.776 -0.190694 -4.17064 0
M  V30 6803 H 646.166 -4.05389 -5.35826 0
M  V30 6804 N 648.886 1.2938 -0.899927 0
M  V30 6805 C 649.834 2.29675 -0.367698 0
M  V30 6806 C 650.828 1.60787 0.533282 0
M  V30 6807 O 652.034 1.75126 0.416058 0
M  V30 6808 H 648.409 0.745284 -0.100279 0
M  V30 6809 H 650.38 2.72008 -1.22696 0
M  V30 6810 C 649.129 3.45512 0.389483 0
M  V30 6811 H 648.452 3.98713 -0.294575 0
M  V30 6812 H 649.892 4.17725 0.726744 0
M  V30 6813 C 648.351 2.969 1.59223 0
M  V30 6814 O 648.881 2.98195 2.69152 0
M  V30 6815 N 647.087 2.52728 1.43447 0
M  V30 6816 H 646.634 2.51873 0.540148 0
M  V30 6817 H 646.592 2.20561 2.24054 0
M  V30 6818 N 650.364 0.662433 1.43002 0
M  V30 6819 C 651.641 0.109096 1.95296 0
M  V30 6820 C 652.021 -1.37313 1.60338 0
M  V30 6821 O 651.369 -2.1032 0.893187 0
M  V30 6822 C 651.579 0.365096 3.47085 0
M  V30 6823 C 652.927 0.274964 4.23709 0
M  V30 6824 O 653.951 0.29816 3.5495 0
M  V30 6825 O 652.81 0.206549 5.4611 0
M  V30 6826 H 649.904 -0.00429724 0.826989 0
M  V30 6827 H 652.45 0.736308 1.52894 0
M  V30 6828 H 651.222 1.39237 3.65689 0
M  V30 6829 H 650.845 -0.294733 3.96506 0
M  V30 6830 N 651.842 -1.52309 0.404946 0
M  V30 6831 C 653.258 -1.59503 0.0556255 0
M  V30 6832 C 653.458 -1.41805 -1.43156 0
M  V30 6833 O 652.514 -1.2429 -2.19792 0
M  V30 6834 C 653.827 -2.95687 0.546801 0
M  V30 6835 C 655.375 -3.08909 0.504413 0
M  V30 6836 C 655.85 -4.47566 0.97203 0
M  V30 6837 N 657.341 -4.53795 0.928679 0
M  V30 6838 C 658.076 -5.59346 1.26174 0
M  V30 6839 N 657.572 -6.72469 1.66604 0
M  V30 6840 N 659.365 -5.49532 1.18198 0
M  V30 6841 H 651.516 -1.6206 1.37296 0
M  V30 6842 H 653.779 -0.762161 0.563751 0
M  V30 6843 H 653.485 -3.13905 1.58609 0
M  V30 6844 H 653.359 -3.77172 -0.0457905 0
M  V30 6845 H 655.746 -2.90378 -0.525819 0
M  V30 6846 H 655.827 -2.2934 1.13301 0
M  V30 6847 H 655.471 -4.6684 2.00057 0
M  V30 6848 H 655.401 -5.25625 0.320292 0
M  V30 6849 H 657.892 -3.72588 0.631369 0
M  V30 6850 H 658.205 -7.48993 1.9034 0
M  V30 6851 H 656.55 -6.73761 1.70504 0
M  V30 6852 H 659.741 -4.60038 0.865011 0
M  V30 6853 H 659.914 -6.31687 1.44485 0
M  V30 6854 N 653.32 -0.135238 -1.57019 0
M  V30 6855 C 654.548 0.526066 -2.001 0
M  V30 6856 C 654.963 1.59184 -1.01519 0
M  V30 6857 O 654.32 1.82497 -0.0104258 0
M  V30 6858 C 654.371 1.13744 -3.43139 0
M  V30 6859 O 654.092 0.114259 -4.37951 0
M  V30 6860 C 655.593 1.8805 -4.01438 0
M  V30 6861 H 652.813 0.137962 -0.656664 0
M  V30 6862 H 655.357 -0.226359 -2.03243 0
M  V30 6863 H 653.512 1.84056 -3.40885 0
M  V30 6864 H 653.926 0.56058 -5.21496 0
M  V30 6865 H 655.4 2.26133 -5.03555 0
M  V30 6866 H 655.877 2.76194 -3.41487 0
M  V30 6867 H 656.483 1.22464 -4.07287 0
M  V30 6868 N 654.798 1.5699 0.138552 0
M  V30 6869 C 656.028 1.87704 0.863184 0
M  V30 6870 C 656.436 0.722411 1.74865 0
M  V30 6871 O 655.779 -0.316636 1.80951 0
M  V30 6872 C 655.841 3.13219 1.76449 0
M  V30 6873 C 655.505 4.44648 1.05532 0
M  V30 6874 C 656.502 5.18318 0.405252 0
M  V30 6875 C 654.187 4.91367 1.04231 0
M  V30 6876 C 656.181 6.36916 -0.24835 0
M  V30 6877 C 653.868 6.09887 0.384904 0
M  V30 6878 C 654.866 6.82508 -0.259292 0
M  V30 6879 O 654.554 7.98775 -0.906258 0
M  V30 6880 H 654.286 0.626255 0.254521 0
M  V30 6881 H 656.84 2.04966 0.133472 0
M  V30 6882 H 655.07 2.91988 2.53535 0
M  V30 6883 H 656.759 3.30111 2.36181 0
M  V30 6884 H 657.525 4.83289 0.407053 0
M  V30 6885 H 653.404 4.34759 1.53315 0
M  V30 6886 H 656.948 6.93538 -0.751755 0
M  V30 6887 H 652.845 6.44376 0.380799 0
M  V30 6888 H 653.613 8.14494 -0.80877 0
M  V30 6889 N 656.276 -0.40816 1.52223 0
M  V30 6890 C 657.523 -1.15502 1.66329 0
M  V30 6891 C 657.851 -1.90474 0.393701 0
M  V30 6892 O 657.106 -1.85507 -0.623356 0
M  V30 6893 C 657.405 -2.17422 2.83659 0
M  V30 6894 C 657.071 -1.5925 4.21841 0
M  V30 6895 C 655.733 -1.4311 4.59427 0
M  V30 6896 C 658.085 -1.16776 5.0795 0
M  V30 6897 C 655.413 -0.830148 5.80797 0
M  V30 6898 C 657.765 -0.580988 6.29926 0
M  V30 6899 C 656.429 -0.406729 6.6626 0
M  V30 6900 H 655.699 -0.422653 0.608642 0
M  V30 6901 H 658.346 -0.442114 1.86327 0
M  V30 6902 H 656.651 -2.94861 2.58001 0
M  V30 6903 H 658.348 -2.75084 2.9177 0
M  V30 6904 H 654.938 -1.72796 3.92224 0
M  V30 6905 H 659.122 -1.28055 4.79495 0
M  V30 6906 H 654.378 -0.68316 6.07571 0
M  V30 6907 H 658.552 -0.243488 6.95974 0
M  V30 6908 H 656.179 0.0610366 7.60175 0
M  V30 6909 N 657.755 -1.42862 -0.66545 0
M  V30 6910 C 659.002 -1.4383 -1.42546 0
M  V30 6911 C 659.33 -0.0581114 -1.94413 0
M  V30 6912 O 658.585 0.935002 -1.71919 0
M  V30 6913 C 658.884 -2.4175 -2.63233 0
M  V30 6914 C 658.55 -3.87915 -2.29854 0
M  V30 6915 C 657.212 -4.27726 -2.20463 0
M  V30 6916 C 659.564 -4.80074 -2.02924 0
M  V30 6917 C 656.892 -5.57666 -1.82279 0
M  V30 6918 C 659.244 -6.10366 -1.66242 0
M  V30 6919 C 657.908 -6.49167 -1.55367 0
M  V30 6920 H 657.178 -0.52631 -0.521612 0
M  V30 6921 H 659.825 -1.75863 -0.757914 0
M  V30 6922 H 658.13 -2.03077 -3.35063 0
M  V30 6923 H 659.827 -2.39759 -3.21429 0
M  V30 6924 H 656.417 -3.564 -2.3807 0
M  V30 6925 H 660.601 -4.50097 -2.09108 0
M  V30 6926 H 655.857 -5.8658 -1.72436 0
M  V30 6927 H 660.031 -6.81258 -1.44432 0
M  V30 6928 H 657.658 -7.49761 -1.2555 0
M  V30 6929 N 659.233 0.902656 -1.29189 0
M  V30 6930 C 660.18 2.00643 -1.14066 0
M  V30 6931 C 661.15 1.66064 -0.0347756 0
M  V30 6932 O 662.335 1.8973 -0.201752 0
M  V30 6933 C 659.475 3.35214 -0.820104 0
M  V30 6934 C 658.588 3.82594 -2.00614 0
M  V30 6935 C 657.723 5.05727 -1.62522 0
M  V30 6936 C 656.762 5.45469 -2.77724 0
M  V30 6937 N 655.899 6.59789 -2.40048 0
M  V30 6938 H 660.739 2.1291 -2.08502 0
M  V30 6939 H 658.276 1.04271 -1.03759 0
M  V30 6940 H 660.234 4.12643 -0.614949 0
M  V30 6941 H 658.864 3.22682 0.0873452 0
M  V30 6942 H 657.916 3.01226 -2.32308 0
M  V30 6943 H 659.228 4.07999 -2.86946 0
M  V30 6944 H 658.382 5.90732 -1.38277 0
M  V30 6945 H 657.121 4.82155 -0.733333 0
M  V30 6946 H 656.126 4.59 -3.02653 0
M  V30 6947 H 657.351 5.71024 -3.67572 0
M  V30 6948 H 655.297 6.37826 -1.53343 0
M  V30 6949 H 655.214 6.84975 -3.19914 0
M  V30 6950 H 656.482 7.4807 -2.19116 0
M  V30 6951 N 660.711 1.11618 1.11262 0
M  V30 6952 C 661.988 0.777876 1.79467 0
M  V30 6953 C 662.368 -0.733774 1.97937 0
M  V30 6954 O 661.716 -1.66443 1.56554 0
M  V30 6955 C 661.926 1.5431 3.13032 0
M  V30 6956 C 663.274 1.72357 3.88044 0
M  V30 6957 O 664.298 1.5075 3.22727 0
M  V30 6958 O 663.157 2.08276 5.05256 0
M  V30 6959 H 660.251 0.282018 0.777428 0
M  V30 6960 H 662.797 1.21971 1.17988 0
M  V30 6961 H 661.569 2.57132 2.94956 0
M  V30 6962 H 661.192 1.09495 3.82226 0
M  V30 6963 N 662.189 -1.289 0.906776 0
M  V30 6964 C 663.121 -2.26556 0.347159 0
M  V30 6965 C 664.134 -1.54589 -0.51049 0
M  V30 6966 O 665.323 -1.75489 -0.326501 0
M  V30 6967 C 662.423 -3.3484 -0.523024 0
M  V30 6968 C 661.596 -4.36296 0.310515 0
M  V30 6969 C 660.655 -5.23879 -0.493634 0
M  V30 6970 O 659.681 -5.69127 0.0913569 0
M  V30 6971 N 660.883 -5.51946 -1.7982 0
M  V30 6972 H 663.648 -2.75212 1.18652 0
M  V30 6973 H 661.209 -1.42309 0.771996 0
M  V30 6974 H 663.201 -3.90366 -1.06756 0
M  V30 6975 H 661.771 -2.85946 -1.26309 0
M  V30 6976 H 660.991 -3.80331 1.03644 0
M  V30 6977 H 662.279 -5.01113 0.881106 0
M  V30 6978 H 661.677 -5.17006 -2.2961 0
M  V30 6979 H 660.234 -6.10258 -2.28971 0
M  V30 6980 N 663.667 -0.670007 -1.42649 0
M  V30 6981 C 664.597 -0.00258501 -2.335 0
M  V30 6982 C 665.578 0.794364 -1.50412 0
M  V30 6983 O 666.763 0.75248 -1.79029 0
M  V30 6984 C 663.893 0.952748 -3.33976 0
M  V30 6985 C 662.847 0.264733 -4.2718 0
M  V30 6986 C 662.173 1.33267 -5.17826 0
M  V30 6987 C 663.473 -0.853289 -5.15283 0
M  V30 6988 H 665.167 -0.761326 -2.89559 0
M  V30 6989 H 662.713 -0.367561 -1.3923 0
M  V30 6990 H 664.666 1.4287 -3.96442 0
M  V30 6991 H 663.39 1.74285 -2.7621 0
M  V30 6992 H 662.049 -0.190938 -3.66102 0
M  V30 6993 H 661.697 2.11464 -4.5639 0
M  V30 6994 H 661.397 0.877476 -5.81011 0
M  V30 6995 H 662.921 1.80965 -5.83167 0
M  V30 6996 H 664.335 -0.458763 -5.71462 0
M  V30 6997 H 662.732 -1.23398 -5.87276 0
M  V30 6998 H 663.802 -1.70412 -4.53969 0
M  V30 6999 N 665.145 1.52092 -0.413018 0
M  V30 7000 C 666.375 2.05974 0.160648 0
M  V30 7001 C 666.783 1.28267 1.39084 0
M  V30 7002 O 666.126 0.328805 1.80733 0
M  V30 7003 C 666.188 3.54918 0.572169 0
M  V30 7004 C 665.852 4.53705 -0.547826 0
M  V30 7005 C 666.849 5.00342 -1.41259 0
M  V30 7006 C 664.534 4.97089 -0.721627 0
M  V30 7007 C 666.528 5.89011 -2.43607 0
M  V30 7008 C 664.215 5.85554 -1.74841 0
M  V30 7009 C 665.213 6.3141 -2.60403 0
M  V30 7010 O 664.901 7.18123 -3.61323 0
M  V30 7011 H 664.633 0.675636 0.0221936 0
M  V30 7012 H 667.187 1.96931 -0.58373 0
M  V30 7013 H 665.417 3.61661 1.36889 0
M  V30 7014 H 667.106 3.91428 1.0742 0
M  V30 7015 H 667.872 4.67537 -1.28974 0
M  V30 7016 H 663.751 4.60954 -0.0652911 0
M  V30 7017 H 667.295 6.24725 -3.10425 0
M  V30 7018 H 663.192 6.17773 -1.87156 0
M  V30 7019 H 663.96 7.36244 -3.57613 0
M  V30 7020 N 666.623 0.143563 1.56945 0
M  V30 7021 C 667.869 -0.502787 1.97088 0
M  V30 7022 C 668.224 -1.62703 1.02691 0
M  V30 7023 O 667.517 -1.91502 0.0613323 0
M  V30 7024 C 667.711 -1.05885 3.41355 0
M  V30 7025 C 667.54 0.00998209 4.49699 0
M  V30 7026 C 666.31 0.450229 5.0329 0
M  V30 7027 C 668.508 0.800174 5.08037 0
M  V30 7028 N 666.49 1.50227 5.95235 0
M  V30 7029 C 667.861 1.70279 5.96158 0
M  V30 7030 C 669.916 0.848344 4.9062 0
M  V30 7031 C 668.619 2.64945 6.68728 0
M  V30 7032 C 670.645 1.78281 5.63888 0
M  V30 7033 C 670.007 2.67296 6.51715 0
M  V30 7034 H 666.106 -0.152891 0.766908 0
M  V30 7035 H 668.69 0.23737 1.93248 0
M  V30 7036 H 666.861 -1.76863 3.45795 0
M  V30 7037 H 668.593 -1.67154 3.68567 0
M  V30 7038 H 665.348 0.0531355 4.7357 0
M  V30 7039 H 665.772 2.02795 6.45913 0
M  V30 7040 H 670.414 0.174228 4.22441 0
M  V30 7041 H 668.132 3.33358 7.36137 0
M  V30 7042 H 671.718 1.82584 5.52408 0
M  V30 7043 H 670.598 3.38428 7.07415 0
M  V30 7044 N 668.101 -1.57061 -0.130224 0
M  V30 7045 C 669.517 -1.52103 -0.483413 0
M  V30 7046 C 669.717 -0.854752 -1.82473 0
M  V30 7047 O 668.773 -0.432342 -2.48771 0
M  V30 7048 C 670.086 -2.96872 -0.47825 0
M  V30 7049 C 671.634 -3.07902 -0.562592 0
M  V30 7050 C 672.109 -4.54211 -0.587929 0
M  V30 7051 N 673.6 -4.58621 -0.649684 0
M  V30 7052 C 674.335 -5.69227 -0.690551 0
M  V30 7053 N 673.831 -6.89358 -0.689743 0
M  V30 7054 N 675.624 -5.57304 -0.732708 0
M  V30 7055 H 667.775 -1.98764 0.748779 0
M  V30 7056 H 670.038 -0.907248 0.274965 0
M  V30 7057 H 669.744 -3.48944 0.439444 0
M  V30 7058 H 669.618 -3.53716 -1.31013 0
M  V30 7059 H 672.005 -2.5584 -1.47071 0
M  V30 7060 H 672.086 -2.54073 0.296764 0
M  V30 7061 H 671.73 -5.06915 0.316096 0
M  V30 7062 H 671.66 -5.0584 -1.46401 0
M  V30 7063 H 674.151 -3.72146 -0.656927 0
M  V30 7064 H 674.464 -7.69408 -0.723239 0
M  V30 7065 H 672.809 -6.91884 -0.657347 0
M  V30 7066 H 676 -4.62363 -0.730625 0
M  V30 7067 H 676.173 -6.43515 -0.76109 0
M  V30 7068 N 669.579 0.400081 -1.52437 0
M  V30 7069 C 670.809 1.16598 -1.70553 0
M  V30 7070 C 671.217 1.8451 -0.418665 0
M  V30 7071 O 670.56 1.73069 0.615855 0
M  V30 7072 C 670.622 2.26517 -2.7916 0
M  V30 7073 C 670.286 1.78666 -4.20628 0
M  V30 7074 C 671.283 1.26946 -5.04163 0
M  V30 7075 C 668.968 1.85225 -4.66902 0
M  V30 7076 C 670.962 0.824187 -6.32049 0
M  V30 7077 C 668.649 1.40309 -5.94774 0
M  V30 7078 C 669.647 0.889922 -6.77178 0
M  V30 7079 O 669.335 0.447281 -8.02655 0
M  V30 7080 H 669.067 0.356023 -0.574651 0
M  V30 7081 H 671.621 0.475598 -1.99818 0
M  V30 7082 H 669.851 2.98946 -2.45292 0
M  V30 7083 H 671.54 2.88237 -2.85787 0
M  V30 7084 H 672.306 1.21244 -4.69601 0
M  V30 7085 H 668.185 2.24111 -4.02859 0
M  V30 7086 H 671.729 0.422958 -6.96317 0
M  V30 7087 H 667.626 1.45693 -6.28843 0
M  V30 7088 H 668.394 0.569768 -8.16514 0
M  V30 7089 N 671.057 1.43213 0.657864 0
M  V30 7090 C 672.334 1.35063 1.41483 0
M  V30 7091 C 672.714 -0.0038314 2.111 0
M  V30 7092 O 672.062 -1.02018 2.04462 0
M  V30 7093 C 672.272 2.53061 2.40335 0
M  V30 7094 C 673.62 2.9594 3.04474 0
M  V30 7095 O 674.644 2.53074 2.50663 0
M  V30 7096 O 673.503 3.70184 4.02027 0
M  V30 7097 H 670.597 0.533517 0.631893 0
M  V30 7098 H 673.143 1.55253 0.685162 0
M  V30 7099 H 671.915 3.43283 1.87809 0
M  V30 7100 H 671.538 2.34945 3.20759 0
M  V30 7101 N 672.536 -0.895792 1.29666 0
M  V30 7102 C 673.813 -1.62723 1.08538 0
M  V30 7103 C 674.193 -2.07848 -0.369119 0
M  V30 7104 O 673.541 -1.8372 -1.35864 0
M  V30 7105 C 673.751 -2.80505 2.07648 0
M  V30 7106 C 675.099 -3.51098 2.3878 0
M  V30 7107 O 676.123 -2.90679 2.05874 0
M  V30 7108 O 674.982 -4.60028 2.9502 0
M  V30 7109 H 672.076 -0.714692 0.416106 0
M  V30 7110 H 674.622 -0.943517 1.41053 0
M  V30 7111 H 673.394 -2.44386 3.05599 0
M  V30 7112 H 673.017 -3.5658 1.75887 0
M  V30 7113 N 674.014 -1.12206 -1.10668 0
M  V30 7114 C 674.964 -0.75669 -2.15077 0
M  V30 7115 C 675.948 0.243154 -1.59052 0
M  V30 7116 O 677.14 0.0490268 -1.76932 0
M  V30 7117 C 674.269 -0.210303 -3.42655 0
M  V30 7118 C 673.355 -1.23829 -4.05619 0
M  V30 7119 N 673.746 -2.43513 -4.43323 0
M  V30 7120 C 672.044 -1.08309 -4.32649 0
M  V30 7121 C 672.745 -3.09138 -4.92756 0
M  V30 7122 N 671.721 -2.36593 -4.89413 0
M  V30 7123 H 675.523 -1.66747 -2.42018 0
M  V30 7124 H 673.037 -1.00248 -1.27765 0
M  V30 7125 H 675.034 0.0696287 -4.16842 0
M  V30 7126 H 673.694 0.694967 -3.17176 0
M  V30 7127 H 674.705 -2.80912 -4.35097 0
M  V30 7128 H 671.382 -0.234919 -4.16839 0
M  V30 7129 H 672.772 -4.11049 -5.31496 0
M  V30 7130 N 675.492 1.28418 -0.913599 0
M  V30 7131 C 676.72 1.99106 -0.562536 0
M  V30 7132 C 677.135 1.68273 0.856137 0
M  V30 7133 O 676.492 0.935401 1.56705 0
M  V30 7134 C 676.543 3.5338 -0.761903 0
M  V30 7135 O 676.264 3.83127 -2.12475 0
M  V30 7136 C 677.765 4.41328 -0.417651 0
M  V30 7137 H 674.985 0.635798 -0.214481 0
M  V30 7138 H 677.529 1.63618 -1.22676 0
M  V30 7139 H 675.684 3.8713 -0.144676 0
M  V30 7140 H 676.098 4.77763 -2.16431 0
M  V30 7141 H 677.572 5.48642 -0.607919 0
M  V30 7142 H 678.049 4.34422 0.646108 0
M  V30 7143 H 678.655 4.13074 -1.01241 0
M  V30 7144 N 676.97 0.677563 1.42291 0
M  V30 7145 C 678.386 0.347376 1.55774 0
M  V30 7146 C 678.586 -1.14703 1.65667 0
M  V30 7147 O 677.642 -1.93252 1.62512 0
M  V30 7148 C 678.955 1.08011 2.80631 0
M  V30 7149 C 680.503 1.06271 2.94407 0
M  V30 7150 C 680.978 1.77683 4.22129 0
M  V30 7151 N 682.469 1.74564 4.29047 0
M  V30 7152 C 683.204 2.26673 5.26694 0
M  V30 7153 N 682.7 2.87176 6.30477 0
M  V30 7154 N 684.493 2.17032 5.18511 0
M  V30 7155 H 676.644 1.64703 1.34114 0
M  V30 7156 H 678.907 0.694038 0.645768 0
M  V30 7157 H 678.613 2.13518 2.79469 0
M  V30 7158 H 678.487 0.647115 3.71608 0
M  V30 7159 H 680.874 0.0159658 2.95096 0
M  V30 7160 H 680.955 1.53461 2.04654 0
M  V30 7161 H 680.599 2.82327 4.22201 0
M  V30 7162 H 680.529 1.2794 5.10822 0
M  V30 7163 H 683.02 1.30436 3.54676 0
M  V30 7164 H 683.333 3.24551 7.01346 0
M  V30 7165 H 681.678 2.91247 6.31031 0
M  V30 7166 H 684.869 1.69451 4.36353 0
M  V30 7167 H 685.042 2.57948 5.94446 0
M  V30 7168 N 678.448 -1.51871 0.421078 0
M  V30 7169 C 679.398 -2.24171 -0.416111 0
M  V30 7170 C 680.382 -1.25763 -1.00362 0
M  V30 7171 O 681.574 -1.5094 -0.924452 0
M  V30 7172 C 678.703 -3.07533 -1.52571 0
M  V30 7173 C 677.789 -4.1336 -0.948399 0
M  V30 7174 N 678.18 -5.05704 -0.0987933 0
M  V30 7175 C 676.478 -4.29055 -1.21768 0
M  V30 7176 C 677.179 -5.8127 0.223705 0
M  V30 7177 N 676.155 -5.4221 -0.388524 0
M  V30 7178 H 679.957 -2.92925 0.239166 0
M  V30 7179 H 677.471 -1.60732 0.232191 0
M  V30 7180 H 679.468 -3.57893 -2.13819 0
M  V30 7181 H 678.128 -2.4032 -2.18349 0
M  V30 7182 H 679.139 -5.17214 0.266428 0
M  V30 7183 H 675.816 -3.73071 -1.87416 0
M  V30 7184 H 677.206 -6.65653 0.914076 0
M  V30 7185 N 679.926 -0.151884 -1.56866 0
M  V30 7186 C 680.859 0.824094 -2.128 0
M  V30 7187 C 681.837 1.2391 -1.05286 0
M  V30 7188 O 683.021 1.33433 -1.33146 0
M  V30 7189 C 680.148 2.1072 -2.65169 0
M  V30 7190 C 679.194 1.83774 -3.84876 0
M  V30 7191 S 680.027 1.02436 -5.25611 0
M  V30 7192 C 681.183 2.31855 -5.81373 0
M  V30 7193 H 681.416 0.348456 -2.95251 0
M  V30 7194 H 678.949 0.0624794 -1.54274 0
M  V30 7195 H 680.907 2.84428 -2.95992 0
M  V30 7196 H 679.568 2.55398 -1.8284 0
M  V30 7197 H 678.761 2.78929 -4.19779 0
M  V30 7198 H 678.363 1.18172 -3.5484 0
M  V30 7199 H 680.655 3.27469 -5.93102 0
M  V30 7200 H 681.598 2.01449 -6.7884 0
M  V30 7201 H 682.006 2.42727 -5.09651 0
M  V30 7202 N 681.404 1.57128 0.121893 0
M  V30 7203 C 682.681 1.75664 0.860327 0
M  V30 7204 C 683.061 0.726585 1.98202 0
M  V30 7205 O 682.409 -0.24999 2.27128 0
M  V30 7206 C 682.619 3.20571 1.37968 0
M  V30 7207 C 683.967 3.82988 1.83317 0
M  V30 7208 O 684.991 3.24156 1.47654 0
M  V30 7209 O 683.85 4.86393 2.49168 0
M  V30 7210 H 680.944 0.719153 0.408348 0
M  V30 7211 H 683.49 1.6937 0.105859 0
M  V30 7212 H 682.262 3.87056 0.57477 0
M  V30 7213 H 681.885 3.31392 2.19694 0
M  V30 7214 N 682.882 -0.391992 1.52647 0
M  V30 7215 C 684.293 -0.970064 1.5952 0
M  V30 7216 C 684.644 -1.91059 0.446207 0
M  V30 7217 O 683.769 -2.12062 -0.431125 0
M  V30 7218 C 684.364 -1.76614 2.89125 0
M  V30 7219 C 682.923 -2.29396 2.9842 0
M  V30 7220 C 682.07 -1.09864 2.54608 0
M  V30 7221 H 685.021 -0.171638 1.57769 0
M  V30 7222 H 685.042 -2.62511 2.75442 0
M  V30 7223 H 684.554 -1.08135 3.72731 0
M  V30 7224 H 682.655 -3.01196 2.19344 0
M  V30 7225 H 682.768 -2.59088 4.03002 0
M  V30 7226 H 681.132 -1.45777 2.08857 0
M  V30 7227 H 681.915 -0.429249 3.40606 0
M  V30 7228 N 684.36 -1.4356 -0.65026 0
M  V30 7229 C 685.608 -1.45046 -1.40734 0
M  V30 7230 C 685.929 -0.0769822 -1.94848 0
M  V30 7231 O 685.199 0.888098 -1.74613 0
M  V30 7232 H 683.779 -0.534034 -0.522318 0
M  V30 7233 H 686.441 -1.79186 -0.766703 0
M  V30 7234 H 685.537 -2.16476 -2.24822 0
M  V30 7235 N 685.838 0.888903 -1.30139 0
M  V30 7236 C 687.068 1.67115 -1.21474 0
M  V30 7237 C 687.476 1.87852 0.225472 0
M  V30 7238 O 686.819 1.42324 1.16145 0
M  V30 7239 C 686.881 3.0713 -1.86846 0
M  V30 7240 C 686.545 3.09582 -3.36167 0
M  V30 7241 C 687.542 2.88929 -4.32222 0
M  V30 7242 C 685.227 3.31304 -3.77549 0
M  V30 7243 C 687.221 2.89949 -5.67634 0
M  V30 7244 C 684.908 3.31954 -5.13079 0
M  V30 7245 C 685.906 3.113 -6.07932 0
M  V30 7246 O 685.594 3.11758 -7.40987 0
M  V30 7247 H 685.326 0.528372 -0.421662 0
M  V30 7248 H 687.88 1.11919 -1.7223 0
M  V30 7249 H 686.11 3.63973 -1.30615 0
M  V30 7250 H 687.799 3.6749 -1.72354 0
M  V30 7251 H 688.565 2.71948 -4.01584 0
M  V30 7252 H 684.444 3.46417 -3.04165 0
M  V30 7253 H 687.988 2.73746 -6.41645 0
M  V30 7254 H 683.885 3.48469 -5.43359 0
M  V30 7255 H 684.653 3.27951 -7.49927 0
M  V30 7256 N 687.317 1.12792 1.10072 0
M  V30 7257 C 688.728 0.899346 1.63611 0
M  V30 7258 C 689.079 -0.565547 1.87872 0
M  V30 7259 O 688.204 -1.43081 1.62348 0
M  V30 7260 C 688.799 1.62608 2.97227 0
M  V30 7261 C 687.358 1.44356 3.47618 0
M  V30 7262 C 686.505 1.65958 2.22156 0
M  V30 7263 H 689.456 1.28216 0.935223 0
M  V30 7264 H 689.477 1.0793 3.64872 0
M  V30 7265 H 688.989 2.69221 2.79538 0
M  V30 7266 H 687.09 0.400148 3.70445 0
M  V30 7267 H 687.203 2.20218 4.25489 0
M  V30 7268 H 685.567 1.08395 2.30484 0
M  V30 7269 H 686.35 2.73877 2.06993 0
M  V30 7270 N 688.795 -1.27931 0.920396 0
M  V30 7271 C 689.758 -2.25345 0.41858 0
M  V30 7272 C 690.758 -1.54116 -0.458798 0
M  V30 7273 O 691.948 -1.72235 -0.260912 0
M  V30 7274 C 689.08 -3.38556 -0.399104 0
M  V30 7275 H 690.273 -2.71251 1.27918 0
M  V30 7276 H 687.826 -1.39728 0.700406 0
M  V30 7277 H 688.561 -2.98021 -1.27882 0
M  V30 7278 H 688.346 -3.91426 0.229863 0
M  V30 7279 H 689.836 -4.10976 -0.740817 0
M  V30 7280 N 690.273 -0.685099 -1.4193 0
M  V30 7281 C 691.205 0.0258679 -2.29185 0
M  V30 7282 C 692.218 0.755076 -1.44231 0
M  V30 7283 O 693.407 0.60752 -1.67844 0
M  V30 7284 C 690.507 1.06055 -3.21878 0
M  V30 7285 C 689.68 0.403088 -4.35539 0
M  V30 7286 C 688.739 1.33895 -5.0888 0
M  V30 7287 O 687.765 0.835326 -5.63037 0
M  V30 7288 N 688.967 2.6718 -5.15359 0
M  V30 7289 H 691.732 -0.723201 -2.90843 0
M  V30 7290 H 689.293 -0.53031 -1.52968 0
M  V30 7291 H 691.285 1.68813 -3.6781 0
M  V30 7292 H 689.855 1.71126 -2.616 0
M  V30 7293 H 689.075 -0.404185 -3.92122 0
M  V30 7294 H 690.363 -0.0545098 -5.08771 0
M  V30 7295 H 689.761 3.10626 -4.72788 0
M  V30 7296 H 688.318 3.25159 -5.64903 0
M  V30 7297 N 691.751 1.51645 -0.429126 0
M  V30 7298 C 692.976 2.06917 0.141399 0
M  V30 7299 C 693.401 1.29527 1.36398 0
M  V30 7300 O 692.759 0.33094 1.78254 0
M  V30 7301 C 692.807 3.57776 0.4504 0
M  V30 7302 O 691.911 3.82639 1.53821 0
M  V30 7303 H 691.252 0.663978 0.0054647 0
M  V30 7304 H 693.782 1.95355 -0.608093 0
M  V30 7305 H 693.792 4.01894 0.703249 0
M  V30 7306 H 692.467 4.13532 -0.443213 0
M  V30 7307 H 691.044 3.5039 1.27597 0
M  V30 7308 N 693.229 0.160201 1.56784 0
M  V30 7309 C 694.64 -0.358417 1.83227 0
M  V30 7310 C 694.991 -1.63831 1.07952 0
M  V30 7311 O 694.116 -2.13885 0.328995 0
M  V30 7312 C 694.711 -0.657058 3.32368 0
M  V30 7313 C 693.27 -1.12015 3.59346 0
M  V30 7314 C 692.417 -0.15015 2.76893 0
M  V30 7315 H 695.368 0.384669 1.53967 0
M  V30 7316 H 695.389 -1.51033 3.49241 0
M  V30 7317 H 694.901 0.274647 3.87127 0
M  V30 7318 H 693.002 -2.06734 3.09987 0
M  V30 7319 H 693.115 -1.037 4.67743 0
M  V30 7320 H 691.479 -0.645361 2.46388 0
M  V30 7321 H 692.262 0.775379 3.34429 0
M  V30 7322 N 694.707 -1.5719 -0.113559 0
M  V30 7323 C 695.637 -2.03772 -1.14013 0
M  V30 7324 C 696.618 -0.923176 -1.42869 0
M  V30 7325 O 697.803 -1.19325 -1.53216 0
M  V30 7326 C 694.933 -2.44663 -2.4649 0
M  V30 7327 C 693.887 -3.59612 -2.32085 0
M  V30 7328 C 693.213 -3.8642 -3.69573 0
M  V30 7329 C 694.513 -4.91149 -1.7768 0
M  V30 7330 H 696.207 -2.89785 -0.752665 0
M  V30 7331 H 693.753 -1.39412 -0.360609 0
M  V30 7332 H 695.706 -2.75857 -3.18561 0
M  V30 7333 H 694.43 -1.55628 -2.87137 0
M  V30 7334 H 693.089 -3.28636 -1.62461 0
M  V30 7335 H 692.737 -2.94581 -4.07715 0
M  V30 7336 H 692.437 -4.63797 -3.60786 0
M  V30 7337 H 693.961 -4.2007 -4.4314 0
M  V30 7338 H 695.375 -5.20843 -2.39574 0
M  V30 7339 H 693.772 -5.72562 -1.79701 0
M  V30 7340 H 694.842 -4.79301 -0.734776 0
M  V30 7341 N 696.185 0.383891 -1.52853 0
M  V30 7342 C 697.431 1.12667 -1.69345 0
M  V30 7343 C 697.786 1.87519 -0.430635 0
M  V30 7344 O 697.079 1.82742 0.575846 0
M  V30 7345 C 697.273 2.12881 -2.87082 0
M  V30 7346 C 697.102 1.47873 -4.24692 0
M  V30 7347 C 695.872 1.24064 -4.89833 0
M  V30 7348 C 698.07 0.926118 -5.05893 0
M  V30 7349 N 696.052 0.552138 -6.11412 0
M  V30 7350 C 697.423 0.365966 -6.18919 0
M  V30 7351 C 699.478 0.823023 -4.91051 0
M  V30 7352 C 698.181 -0.287204 -7.18726 0
M  V30 7353 C 700.207 0.183666 -5.91115 0
M  V30 7354 C 699.569 -0.365693 -7.0345 0
M  V30 7355 H 695.668 0.398064 -0.673104 0
M  V30 7356 H 698.252 0.415504 -1.90215 0
M  V30 7357 H 696.423 2.81329 -2.67784 0
M  V30 7358 H 698.155 2.79703 -2.92486 0
M  V30 7359 H 694.91 1.51701 -4.48647 0
M  V30 7360 H 695.334 0.223783 -6.7663 0
M  V30 7361 H 699.976 1.23354 -4.04405 0
M  V30 7362 H 697.694 -0.709719 -8.04977 0
M  V30 7363 H 701.28 0.105074 -5.81705 0
M  V30 7364 H 700.16 -0.85261 -7.79551 0
M  V30 7365 N 697.663 1.43903 0.642637 0
M  V30 7366 C 699.079 1.27536 0.959519 0
M  V30 7367 C 699.279 0.202751 2.00477 0
M  V30 7368 O 698.335 -0.415256 2.49062 0
M  V30 7369 C 699.648 2.6432 1.43372 0
M  V30 7370 C 701.196 2.71937 1.54981 0
M  V30 7371 C 701.671 4.09164 2.05789 0
M  V30 7372 N 703.162 4.11282 2.13076 0
M  V30 7373 C 703.897 5.14303 2.53534 0
M  V30 7374 N 703.393 6.27693 2.93212 0
M  V30 7375 N 705.186 5.01657 2.53567 0
M  V30 7376 H 697.337 2.12344 -0.0488376 0
M  V30 7377 H 699.6 0.947124 0.0407559 0
M  V30 7378 H 699.306 3.43826 0.740048 0
M  V30 7379 H 699.18 2.90432 2.40685 0
M  V30 7380 H 701.567 1.92757 2.23448 0
M  V30 7381 H 701.648 2.49578 0.560739 0
M  V30 7382 H 701.292 4.88815 1.37921 0
M  V30 7383 H 701.222 4.28893 3.05546 0
M  V30 7384 H 703.713 3.2944 1.85143 0
M  V30 7385 H 704.026 7.02125 3.22863 0
M  V30 7386 H 702.371 6.31149 2.90991 0
M  V30 7387 H 705.562 4.12134 2.21952 0
M  V30 7388 H 705.735 5.82072 2.84774 0
M  V30 7389 N 699.141 -0.881989 1.30609 0
M  V30 7390 C 700.389 -1.63082 1.19368 0
M  V30 7391 C 700.71 -1.93376 -0.251147 0
M  V30 7392 O 699.98 -1.5723 -1.16857 0
M  V30 7393 H 698.56 -0.604542 0.438791 0
M  V30 7394 H 701.222 -1.05658 1.63776 0
M  V30 7395 H 700.318 -2.57966 1.7567 0
M  V30 7396 N 700.619 -1.13374 -1.09472 0
M  V30 7397 C 701.865 -0.896516 -1.81908 0
M  V30 7398 C 702.198 0.575933 -1.85463 0
M  V30 7399 O 701.473 1.42618 -1.32251 0
M  V30 7400 C 701.756 -1.48445 -3.28079 0
M  V30 7401 C 701.609 -3.02598 -3.32798 0
M  V30 7402 C 702.928 -1.15226 -4.24748 0
M  V30 7403 H 700.047 -0.327127 -0.660422 0
M  V30 7404 H 702.689 -1.40195 -1.2824 0
M  V30 7405 H 700.839 -1.0546 -3.73912 0
M  V30 7406 H 702.511 -3.54335 -2.95372 0
M  V30 7407 H 700.754 -3.37613 -2.72397 0
M  V30 7408 H 701.425 -3.38835 -4.3577 0
M  V30 7409 H 703.901 -1.52369 -3.87199 0
M  V30 7410 H 702.777 -1.59012 -5.25363 0
M  V30 7411 H 703.038 -0.0658891 -4.42051 0
M  V30 7412 N 702.098 1.27442 -0.927168 0
M  V30 7413 C 703.509 1.76385 -0.611979 0
M  V30 7414 C 703.86 1.75715 0.872853 0
M  V30 7415 O 702.985 1.3603 1.683 0
M  V30 7416 C 703.58 3.20303 -1.10414 0
M  V30 7417 C 702.139 3.66916 -0.839628 0
M  V30 7418 C 701.286 2.46859 -1.26317 0
M  V30 7419 H 704.237 1.13716 -1.107 0
M  V30 7420 H 704.258 3.77811 -0.451578 0
M  V30 7421 H 703.77 3.20759 -2.18484 0
M  V30 7422 H 701.871 3.71906 0.227292 0
M  V30 7423 H 701.984 4.56415 -1.45679 0
M  V30 7424 H 700.348 2.45407 -0.681723 0
M  V30 7425 H 701.131 2.50025 -2.3525 0
M  V30 7426 N 703.576 0.692616 1.41565 0
M  V30 7427 C 704.801 0.229776 2.06123 0
M  V30 7428 C 705.226 -1.11119 1.5177 0
M  V30 7429 O 704.584 -1.69498 0.643444 0
M  V30 7430 C 704.632 0.19469 3.60074 0
M  V30 7431 O 703.736 -0.831366 4.03933 0
M  V30 7432 H 703.077 0.113002 0.654314 0
M  V30 7433 H 705.607 0.946645 1.81383 0
M  V30 7434 H 705.617 0.0245487 4.07993 0
M  V30 7435 H 704.292 1.17339 3.99004 0
M  V30 7436 H 702.869 -0.630819 3.67526 0
M  V30 7437 N 705.054 -1.51416 0.437162 0
M  V30 7438 C 706.282 -2.06503 -0.128045 0
M  V30 7439 C 706.697 -1.30461 -1.36475 0
M  V30 7440 O 706.054 -0.364127 -1.78831 0
M  V30 7441 C 706.105 -3.58683 -0.450437 0
M  V30 7442 O 705.826 -4.31853 0.737186 0
M  V30 7443 C 707.327 -4.30284 -1.06633 0
M  V30 7444 H 704.547 -0.670952 -0.00800269 0
M  V30 7445 H 707.091 -1.94996 0.616193 0
M  V30 7446 H 705.246 -3.70106 -1.14457 0
M  V30 7447 H 705.66 -5.22467 0.461347 0
M  V30 7448 H 707.134 -5.37848 -1.24191 0
M  V30 7449 H 707.611 -3.88564 -2.0473 0
M  V30 7450 H 708.217 -4.23304 -0.411585 0
M  V30 7451 N 706.532 -0.168513 -1.56696 0
M  V30 7452 C 707.462 0.758563 -2.20835 0
M  V30 7453 C 708.443 1.24121 -1.1631 0
M  V30 7454 O 709.628 1.29487 -1.4473 0
M  V30 7455 C 706.758 1.9892 -2.8469 0
M  V30 7456 C 705.712 1.64252 -3.95228 0
M  V30 7457 C 705.038 2.94757 -4.46119 0
M  V30 7458 C 706.338 0.872675 -5.14958 0
M  V30 7459 H 708.032 0.223953 -2.98561 0
M  V30 7460 H 705.578 0.106277 -1.43607 0
M  V30 7461 H 707.531 2.64275 -3.28233 0
M  V30 7462 H 706.255 2.5479 -2.04327 0
M  V30 7463 H 704.914 1.01266 -3.52336 0
M  V30 7464 H 704.562 3.48662 -3.62552 0
M  V30 7465 H 704.262 2.72316 -5.2069 0
M  V30 7466 H 705.786 3.61147 -4.92347 0
M  V30 7467 H 707.2 1.42875 -5.55211 0
M  V30 7468 H 705.597 0.747402 -5.95428 0
M  V30 7469 H 706.667 -0.131535 -4.84722 0
M  V30 7470 N 708.01 1.57248 0.105221 0
M  V30 7471 C 709.287 1.76566 0.841647 0
M  V30 7472 C 709.667 0.747566 1.9742 0
M  V30 7473 O 709.015 -0.225886 2.27381 0
M  V30 7474 C 709.225 3.22016 1.3456 0
M  V30 7475 C 710.573 3.84911 1.79244 0
M  V30 7476 O 711.597 3.25703 1.44207 0
M  V30 7477 O 710.456 4.89008 2.43995 0
M  V30 7478 H 707.55 0.723443 0.400698 0
M  V30 7479 H 710.096 1.69472 0.0878893 0
M  V30 7480 H 708.868 3.87644 0.533685 0
M  V30 7481 H 708.491 3.33703 2.16167 0
M  V30 7482 N 709.488 -0.375779 1.53054 0
M  V30 7483 C 710.765 -1.13453 1.59336 0
M  V30 7484 C 711.145 -2.07379 0.394614 0
M  V30 7485 O 710.493 -2.2004 -0.616 0
M  V30 7486 C 710.703 -1.8826 2.93869 0
M  V30 7487 C 712.051 -2.43155 3.48081 0
M  V30 7488 O 713.075 -1.984 2.95831 0
M  V30 7489 O 711.934 -3.24944 4.39401 0
M  V30 7490 H 709.028 -0.519856 0.643179 0
M  V30 7491 H 711.574 -0.379865 1.65394 0
M  V30 7492 H 710.346 -1.19652 3.72558 0
M  V30 7493 H 709.969 -2.70658 2.91256 0
M  V30 7494 N 710.966 -1.44241 -0.634997 0
M  V30 7495 C 711.929 -1.50457 -1.72903 0
M  V30 7496 C 712.929 -0.387058 -1.56072 0
M  V30 7497 O 714.119 -0.649531 -1.61638 0
M  V30 7498 C 711.251 -1.37477 -3.1195 0
M  V30 7499 H 712.444 -2.47907 -1.68767 0
M  V30 7500 H 709.997 -1.31276 -0.84831 0
M  V30 7501 H 710.732 -0.41106 -3.21684 0
M  V30 7502 H 710.517 -2.18506 -3.25573 0
M  V30 7503 H 712.007 -1.44799 -3.91692 0
M  V30 7504 N 712.444 0.87505 -1.31075 0
M  V30 7505 C 713.377 1.98471 -1.12625 0
M  V30 7506 C 714.355 1.6257 -0.0311379 0
M  V30 7507 O 715.539 1.87574 -0.186594 0
M  V30 7508 C 712.666 3.30963 -0.719799 0
M  V30 7509 C 711.712 3.85849 -1.81722 0
M  V30 7510 S 712.545 4.11926 -3.42165 0
M  V30 7511 C 713.701 5.47423 -3.03445 0
M  V30 7512 H 713.934 2.13817 -2.06566 0
M  V30 7513 H 711.467 1.02463 -1.15502 0
M  V30 7514 H 713.425 4.07541 -0.492035 0
M  V30 7515 H 712.086 3.1346 0.200413 0
M  V30 7516 H 711.279 4.81616 -1.48533 0
M  V30 7517 H 710.881 3.16046 -1.99977 0
M  V30 7518 H 713.173 6.28881 -2.52023 0
M  V30 7519 H 714.116 5.85557 -3.98157 0
M  V30 7520 H 714.524 5.10455 -2.41031 0
M  V30 7521 N 713.922 1.13953 1.08869 0
M  V30 7522 C 715.338 0.878924 1.33218 0
M  V30 7523 C 715.538 -0.482478 1.95638 0
M  V30 7524 O 714.594 -1.22778 2.2064 0
M  V30 7525 C 715.907 2.00798 2.23832 0
M  V30 7526 C 717.455 2.04073 2.37325 0
M  V30 7527 C 717.93 3.16258 3.31278 0
M  V30 7528 N 719.421 3.15805 3.38853 0
M  V30 7529 C 720.156 3.99249 4.11567 0
M  V30 7530 N 719.652 4.92721 4.87029 0
M  V30 7531 N 721.445 3.87327 4.0735 0
M  V30 7532 H 713.596 2.01645 0.66731 0
M  V30 7533 H 715.859 0.878395 0.356547 0
M  V30 7534 H 715.565 2.98986 1.85203 0
M  V30 7535 H 715.439 1.92704 3.24261 0
M  V30 7536 H 717.826 1.06495 2.75214 0
M  V30 7537 H 717.907 2.16239 1.36654 0
M  V30 7538 H 717.551 4.14079 2.9411 0
M  V30 7539 H 717.481 3.0133 4.31866 0
M  V30 7540 H 719.972 2.48102 2.8505 0
M  V30 7541 H 720.285 5.52867 5.39961 0
M  V30 7542 H 718.63 4.96723 4.86098 0
M  V30 7543 H 721.821 3.13627 3.475 0
M  V30 7544 H 721.994 4.52585 4.63757 0
M  V30 7545 N 715.4 -1.26948 0.933913 0
M  V30 7546 C 716.646 -1.94716 0.587985 0
M  V30 7547 C 717.001 -1.71994 -0.862312 0
M  V30 7548 O 716.294 -1.04208 -1.60783 0
M  V30 7549 C 716.488 -3.46963 0.857406 0
M  V30 7550 C 716.317 -3.84489 2.33234 0
M  V30 7551 C 715.087 -4.07621 2.98618 0
M  V30 7552 C 717.285 -3.93602 3.31031 0
M  V30 7553 N 715.267 -4.31976 4.362 0
M  V30 7554 C 716.638 -4.22404 4.53845 0
M  V30 7555 C 718.693 -3.76201 3.26155 0
M  V30 7556 C 717.396 -4.35615 5.72391 0
M  V30 7557 C 719.422 -3.90641 4.4402 0
M  V30 7558 C 718.784 -4.19835 5.65613 0
M  V30 7559 H 714.883 -0.735586 0.2654 0
M  V30 7560 H 717.467 -1.53181 1.20182 0
M  V30 7561 H 715.638 -3.87442 0.27268 0
M  V30 7562 H 717.37 -4.01921 0.47348 0
M  V30 7563 H 714.125 -4.02696 2.49264 0
M  V30 7564 H 714.549 -4.48199 5.07392 0
M  V30 7565 H 719.191 -3.52665 2.3321 0
M  V30 7566 H 716.909 -4.57975 6.65796 0
M  V30 7567 H 720.495 -3.78589 4.41771 0
M  V30 7568 H 719.375 -4.30765 6.55295 0
M  V30 7569 N 716.879 -0.700114 -1.41195 0
M  V30 7570 C 718.104 -0.240704 -2.05998 0
M  V30 7571 C 718.529 1.10313 -1.52357 0
M  V30 7572 O 717.887 1.69154 -0.652424 0
M  V30 7573 C 717.935 -0.213783 -3.59966 0
M  V30 7574 O 717.039 0.809933 -4.04368 0
M  V30 7575 H 716.38 -0.116471 -0.653705 0
M  V30 7576 H 718.91 -0.956251 -1.80878 0
M  V30 7577 H 718.92 -0.0461852 -4.07974 0
M  V30 7578 H 717.595 -1.19454 -3.98376 0
M  V30 7579 H 716.172 0.611319 -3.67855 0
M  V30 7580 N 718.357 1.51182 -0.445186 0
M  V30 7581 C 719.634 1.9478 0.178965 0
M  V30 7582 C 720.014 1.38428 1.59376 0
M  V30 7583 O 719.362 0.574552 2.21159 0
M  V30 7584 C 719.572 3.48683 0.148711 0
M  V30 7585 C 720.92 4.23152 0.35042 0
M  V30 7586 O 721.944 3.55479 0.226474 0
M  V30 7587 O 720.803 5.4322 0.597893 0
M  V30 7588 H 717.897 0.817387 0.12573 0
M  V30 7589 H 720.443 1.62051 -0.503729 0
M  V30 7590 H 719.215 3.82176 -0.84009 0
M  V30 7591 H 718.838 3.87875 0.873979 0
M  V30 7592 N 719.835 0.176821 1.56605 0
M  V30 7593 C 721.083 -0.465793 1.96659 0
M  V30 7594 C 721.404 -1.63406 1.06412 0
M  V30 7595 O 720.674 -1.95457 0.131603 0
M  V30 7596 H 719.254 -0.175072 0.726195 0
M  V30 7597 H 721.916 0.25929 1.93168 0
M  V30 7598 H 721.012 -0.822138 3.01077 0
M  V30 7599 N 721.313 -1.57302 -0.09688 0
M  V30 7600 C 722.276 -2.00976 -1.10188 0
M  V30 7601 C 723.276 -0.903009 -1.3305 0
M  V30 7602 O 724.466 -1.16853 -1.29194 0
M  V30 7603 C 721.598 -2.36893 -2.45142 0
M  V30 7604 H 722.791 -2.9098 -0.726003 0
M  V30 7605 H 720.344 -1.52515 -0.341872 0
M  V30 7606 H 721.079 -1.49837 -2.8761 0
M  V30 7607 H 720.864 -3.17632 -2.29897 0
M  V30 7608 H 722.354 -2.71345 -3.1743 0
M  V30 7609 N 722.791 0.367657 -1.53252 0
M  V30 7610 C 724.016 1.13566 -1.73544 0
M  V30 7611 C 724.441 1.82329 -0.462344 0
M  V30 7612 O 723.799 1.71655 0.583472 0
M  V30 7613 C 723.847 2.14322 -2.89997 0
M  V30 7614 O 722.951 3.21359 -2.58461 0
M  V30 7615 H 722.292 0.329614 -0.576412 0
M  V30 7616 H 724.822 0.425417 -2.00128 0
M  V30 7617 H 724.832 2.57958 -3.16104 0
M  V30 7618 H 723.507 1.63664 -3.82344 0
M  V30 7619 H 722.084 2.8271 -2.43165 0
M  V30 7620 N 724.269 1.44576 0.627338 0
M  V30 7621 C 725.499 1.50829 1.41189 0
M  V30 7622 C 725.907 0.133083 1.88731 0
M  V30 7623 O 725.25 -0.87199 1.61685 0
M  V30 7624 C 725.312 2.41449 2.66351 0
M  V30 7625 C 724.976 3.88549 2.40579 0
M  V30 7626 C 725.973 4.78981 2.0217 0
M  V30 7627 C 723.658 4.33287 2.54102 0
M  V30 7628 C 725.652 6.12153 1.77618 0
M  V30 7629 C 723.339 5.66505 2.29163 0
M  V30 7630 C 724.337 6.55756 1.9098 0
M  V30 7631 O 724.025 7.86506 1.66321 0
M  V30 7632 H 723.757 0.513797 0.439304 0
M  V30 7633 H 726.311 1.90256 0.774059 0
M  V30 7634 H 724.541 1.96955 3.32784 0
M  V30 7635 H 726.23 2.38608 3.28361 0
M  V30 7636 H 726.996 4.45689 1.91277 0
M  V30 7637 H 722.875 3.64074 2.82792 0
M  V30 7638 H 726.419 6.81776 1.47739 0
M  V30 7639 H 722.316 5.99358 2.39668 0
M  V30 7640 H 723.084 7.98341 1.80536 0
M  V30 7641 N 725.747 -0.868086 1.31537 0
M  V30 7642 C 726.994 -1.62127 1.2133 0
M  V30 7643 C 727.322 -1.93158 -0.2281 0
M  V30 7644 O 726.577 -1.5632 -1.1774 0
M  V30 7645 C 726.876 -2.95889 2.0046 0
M  V30 7646 C 726.542 -2.84343 3.49943 0
M  V30 7647 C 725.204 -2.80901 3.90702 0
M  V30 7648 C 727.556 -2.71243 4.45058 0
M  V30 7649 C 724.884 -2.6222 5.24841 0
M  V30 7650 C 727.236 -2.54098 5.79325 0
M  V30 7651 C 725.9 -2.4904 6.19302 0
M  V30 7652 H 725.17 -0.593265 0.443979 0
M  V30 7653 H 727.817 -1.00803 1.62822 0
M  V30 7654 H 726.122 -3.61259 1.51655 0
M  V30 7655 H 727.819 -3.53161 1.89942 0
M  V30 7656 H 724.409 -2.8784 3.17563 0
M  V30 7657 H 728.593 -2.72956 4.14498 0
M  V30 7658 H 723.849 -2.56731 5.54887 0
M  V30 7659 H 728.023 -2.42938 6.52652 0
M  V30 7660 H 725.65 -2.34324 7.23185 0
M  V30 7661 N 727.225 -1.14528 -1.08264 0
M  V30 7662 C 728.472 -0.914405 -1.80679 0
M  V30 7663 C 728.8 0.558952 -1.86295 0
M  V30 7664 O 728.055 1.43017 -1.33584 0
M  V30 7665 C 728.354 -1.46226 -3.26117 0
M  V30 7666 C 728.02 -2.95451 -3.40616 0
M  V30 7667 C 726.682 -3.36191 -3.4428 0
M  V30 7668 C 729.034 -3.91399 -3.44175 0
M  V30 7669 C 726.362 -4.71539 -3.49096 0
M  V30 7670 C 728.714 -5.26606 -3.50526 0
M  V30 7671 C 727.378 -5.66856 -3.52464 0
M  V30 7672 H 726.648 -0.334604 -0.661151 0
M  V30 7673 H 729.295 -1.4292 -1.27461 0
M  V30 7674 H 727.6 -0.868442 -3.82054 0
M  V30 7675 H 729.297 -1.25955 -3.80705 0
M  V30 7676 H 725.887 -2.62955 -3.38456 0
M  V30 7677 H 730.071 -3.61004 -3.40573 0
M  V30 7678 H 725.327 -5.02082 -3.4889 0
M  V30 7679 H 729.501 -6.00758 -3.52225 0
M  V30 7680 H 727.128 -6.71718 -3.55948 0
M  V30 7681 N 728.703 1.26451 -0.940633 0
M  V30 7682 C 730.119 1.4608 -0.642859 0
M  V30 7683 C 730.319 1.84765 0.803998 0
M  V30 7684 O 729.375 1.96902 1.58069 0
M  V30 7685 C 730.688 2.54359 -1.60381 0
M  V30 7686 C 732.236 2.6821 -1.61345 0
M  V30 7687 C 732.711 3.79659 -2.56169 0
M  V30 7688 N 734.202 3.87051 -2.54452 0
M  V30 7689 C 734.937 4.72739 -3.24507 0
M  V30 7690 N 734.433 5.6282 -4.03987 0
M  V30 7691 N 736.226 4.66581 -3.13462 0
M  V30 7692 H 728.377 0.996289 -1.87584 0
M  V30 7693 H 730.64 0.498921 -0.80609 0
M  V30 7694 H 730.346 2.32758 -2.6366 0
M  V30 7695 H 730.22 3.52005 -1.35545 0
M  V30 7696 H 732.607 2.89184 -0.587913 0
M  V30 7697 H 732.688 1.7101 -1.90235 0
M  V30 7698 H 732.332 3.59438 -3.58841 0
M  V30 7699 H 732.262 4.76315 -2.2457 0
M  V30 7700 H 734.753 3.22649 -1.96739 0
M  V30 7701 H 735.066 6.25095 -4.54396 0
M  V30 7702 H 733.411 5.62574 -4.08088 0
M  V30 7703 H 736.602 3.9521 -2.50852 0
M  V30 7704 H 736.775 5.33141 -3.68327 0
M  V30 7705 N 730.181 0.707592 1.40822 0
M  V30 7706 C 731.429 0.243189 2.00632 0
M  V30 7707 C 731.75 -1.16512 1.56365 0
M  V30 7708 O 731.02 -1.78841 0.799553 0
M  V30 7709 H 729.6 0.0869203 0.741926 0
M  V30 7710 H 732.262 0.911438 1.72275 0
M  V30 7711 H 731.358 0.270014 3.1093 0
M  V30 7712 N 731.66 -1.50943 0.453197 0
M  V30 7713 C 732.592 -2.25922 -0.38623 0
M  V30 7714 C 733.605 -1.3055 -0.972652 0
M  V30 7715 O 734.794 -1.56191 -0.864097 0
M  V30 7716 C 731.894 -3.01176 -1.5539 0
M  V30 7717 C 731.067 -4.23768 -1.0835 0
M  V30 7718 C 730.126 -4.81466 -2.12313 0
M  V30 7719 O 729.152 -5.42875 -1.71101 0
M  V30 7720 N 730.354 -4.66889 -3.44956 0
M  V30 7721 H 733.119 -2.98601 0.256468 0
M  V30 7722 H 730.68 -1.59408 0.282965 0
M  V30 7723 H 732.672 -3.36659 -2.24594 0
M  V30 7724 H 731.242 -2.31409 -2.10163 0
M  V30 7725 H 730.462 -3.93597 -0.217961 0
M  V30 7726 H 731.75 -5.03289 -0.746857 0
M  V30 7727 H 731.148 -4.18011 -3.81161 0
M  V30 7728 H 729.705 -5.06691 -4.1001 0
M  V30 7729 N 733.138 -0.185124 -1.56509 0
M  V30 7730 C 734.048 0.751908 -2.22224 0
M  V30 7731 C 735.064 1.24244 -1.21817 0
M  V30 7732 O 736.24 1.29169 -1.54523 0
M  V30 7733 C 733.305 1.95837 -2.86092 0
M  V30 7734 C 732.366 1.51337 -4.01741 0
M  V30 7735 C 731.599 2.66233 -4.62554 0
M  V30 7736 O 731.822 3.8346 -4.22273 0
M  V30 7737 O 730.756 2.39517 -5.52191 0
M  V30 7738 H 734.582 0.222304 -3.02885 0
M  V30 7739 H 732.167 0.0437141 -1.49336 0
M  V30 7740 H 734.049 2.66368 -3.26536 0
M  V30 7741 H 732.724 2.47677 -2.08417 0
M  V30 7742 H 731.631 0.777155 -3.65939 0
M  V30 7743 H 732.964 1.04175 -4.81049 0
M  V30 7744 N 734.616 1.57351 0.0885366 0
M  V30 7745 C 735.846 1.90355 0.80303 0
M  V30 7746 C 736.254 0.777678 1.72478 0
M  V30 7747 O 735.597 -0.258908 1.81866 0
M  V30 7748 C 735.659 3.18674 1.66395 0
M  V30 7749 C 735.323 4.4778 0.913327 0
M  V30 7750 C 736.32 5.19345 0.240148 0
M  V30 7751 C 734.005 4.94434 0.885462 0
M  V30 7752 C 735.999 6.35803 -0.450854 0
M  V30 7753 C 733.686 6.10802 0.190679 0
M  V30 7754 C 734.684 6.81337 -0.476295 0
M  V30 7755 O 734.372 7.95488 -1.15992 0
M  V30 7756 H 734.104 0.634035 0.234469 0
M  V30 7757 H 736.658 2.05287 0.0681959 0
M  V30 7758 H 734.888 2.99906 2.44117 0
M  V30 7759 H 736.577 3.37458 2.2556 0
M  V30 7760 H 737.343 4.84339 0.253092 0
M  V30 7761 H 733.222 4.39417 1.39406 0
M  V30 7762 H 736.766 6.90795 -0.972019 0
M  V30 7763 H 732.663 6.45261 0.175603 0
M  V30 7764 H 733.431 8.11509 -1.06749 0
M  V30 7765 N 736.094 -0.359525 1.53444 0
M  V30 7766 C 737.34 -1.09958 1.71116 0
M  V30 7767 C 737.695 -1.8681 0.460414 0
M  V30 7768 O 736.988 -1.83635 -0.5467 0
M  V30 7769 C 737.182 -2.08287 2.90433 0
M  V30 7770 C 737.011 -1.41098 4.26991 0
M  V30 7771 C 735.781 -1.16255 4.91745 0
M  V30 7772 C 737.979 -0.845517 5.07302 0
M  V30 7773 N 735.961 -0.454798 6.12213 0
M  V30 7774 C 737.332 -0.267455 6.19423 0
M  V30 7775 C 739.387 -0.744797 4.92298 0
M  V30 7776 C 738.09 0.401511 7.18179 0
M  V30 7777 C 740.116 -0.0896013 5.91332 0
M  V30 7778 C 739.478 0.47756 7.02779 0
M  V30 7779 H 735.577 -0.387305 0.679352 0
M  V30 7780 H 738.161 -0.38519 1.90852 0
M  V30 7781 H 736.332 -2.77034 2.72226 0
M  V30 7782 H 738.064 -2.75015 2.96899 0
M  V30 7783 H 734.819 -1.44544 4.51003 0
M  V30 7784 H 735.243 -0.116108 6.769 0
M  V30 7785 H 739.885 -1.16905 4.06317 0
M  V30 7786 H 737.603 0.837694 8.03746 0
M  V30 7787 H 741.189 -0.0125162 5.81799 0
M  V30 7788 H 740.069 0.976522 7.78096 0
M  V30 7789 N 737.572 -1.44907 -0.619662 0
M  V30 7790 C 738.519 -1.52654 -1.73105 0
M  V30 7791 C 739.489 -0.373334 -1.6185 0
M  V30 7792 O 740.674 -0.585143 -1.81606 0
M  V30 7793 C 737.814 -1.48769 -3.11387 0
M  V30 7794 C 736.927 -2.74551 -3.33535 0
M  V30 7795 C 736.062 -2.62421 -4.61854 0
M  V30 7796 C 735.101 -3.83312 -4.77219 0
M  V30 7797 N 734.238 -3.69789 -5.96826 0
M  V30 7798 H 739.078 -2.47605 -1.65819 0
M  V30 7799 H 736.615 -1.22875 -0.808719 0
M  V30 7800 H 738.573 -1.44507 -3.91374 0
M  V30 7801 H 737.203 -0.573783 -3.1766 0
M  V30 7802 H 736.255 -2.88953 -2.47408 0
M  V30 7803 H 737.567 -3.64253 -3.40765 0
M  V30 7804 H 736.721 -2.56056 -5.50019 0
M  V30 7805 H 735.46 -1.70298 -4.57001 0
M  V30 7806 H 734.465 -3.90049 -3.87481 0
M  V30 7807 H 735.69 -4.76486 -4.83878 0
M  V30 7808 H 733.636 -2.80426 -5.93041 0
M  V30 7809 H 733.553 -4.53116 -6.05163 0
M  V30 7810 H 734.821 -3.67335 -6.87521 0
M  V30 7811 N 739.05 0.861098 -1.31996 0
M  V30 7812 C 740.296 1.61721 -1.22369 0
M  V30 7813 C 740.629 1.93 0.215587 0
M  V30 7814 O 739.904 1.56789 1.15098 0
M  V30 7815 C 740.187 2.9417 -2.07691 0
M  V30 7816 C 740.04 2.69714 -3.59965 0
M  V30 7817 C 741.359 3.95372 -1.93312 0
M  V30 7818 H 738.478 0.586822 -0.44588 0
M  V30 7819 H 741.12 0.994788 -1.61876 0
M  V30 7820 H 739.27 3.47292 -1.74128 0
M  V30 7821 H 740.942 2.23196 -4.03709 0
M  V30 7822 H 739.185 2.03789 -3.82952 0
M  V30 7823 H 739.856 3.63996 -4.14983 0
M  V30 7824 H 742.332 3.51487 -2.22701 0
M  V30 7825 H 741.208 4.85916 -2.55298 0
M  V30 7826 H 741.469 4.32865 -0.898922 0
M  V30 7827 N 740.528 1.15101 1.07655 0
M  V30 7828 C 741.458 0.867864 2.16773 0
M  V30 7829 C 742.439 -0.180283 1.69142 0
M  V30 7830 O 743.624 -0.0353152 1.94168 0
M  V30 7831 C 740.754 0.35299 3.45501 0
M  V30 7832 C 739.708 1.33746 4.06566 0
M  V30 7833 C 739.034 0.681562 5.30338 0
M  V30 7834 C 740.334 2.7024 4.46954 0
M  V30 7835 H 742.028 1.78034 2.40716 0
M  V30 7836 H 739.574 0.857435 1.15689 0
M  V30 7837 H 741.527 0.142465 4.21159 0
M  V30 7838 H 740.251 -0.594945 3.21135 0
M  V30 7839 H 738.91 1.53429 3.32949 0
M  V30 7840 H 738.558 -0.272422 5.02262 0
M  V30 7841 H 738.258 1.33853 5.72151 0
M  V30 7842 H 739.782 0.48074 6.08705 0
M  V30 7843 H 741.196 2.5442 5.13754 0
M  V30 7844 H 739.593 3.32282 4.99709 0
M  V30 7845 H 740.663 3.26537 3.58471 0
M  V30 7846 N 742.006 -1.2595 0.947325 0
M  V30 7847 C 743.283 -1.88676 0.515824 0
M  V30 7848 C 743.663 -1.85547 -1.00675 0
M  V30 7849 O 743.011 -1.31399 -1.8694 0
M  V30 7850 C 743.221 -3.31734 1.08415 0
M  V30 7851 C 744.569 -4.08545 1.15654 0
M  V30 7852 O 745.593 -3.40826 1.03517 0
M  V30 7853 O 744.452 -5.29663 1.34608 0
M  V30 7854 H 741.546 -0.809537 0.169055 0
M  V30 7855 H 744.092 -1.34075 1.04029 0
M  V30 7856 H 742.864 -3.28404 2.1276 0
M  V30 7857 H 742.487 -3.93882 0.542499 0
M  V30 7858 N 743.484 -0.715051 -1.40445 0
M  V30 7859 C 744.732 -0.253826 -2.005 0
M  V30 7860 C 745.053 1.15681 -1.5698 0
M  V30 7861 O 744.323 1.78414 -0.809027 0
M  V30 7862 H 742.903 -0.0908537 -0.741454 0
M  V30 7863 H 745.565 -0.920561 -1.7179 0
M  V30 7864 H 744.661 -0.286499 -3.10782 0
M  V30 7865 N 744.962 1.50701 -0.461195 0
M  V30 7866 C 745.872 2.32069 0.343661 0
M  V30 7867 C 746.888 1.42016 1.00535 0
M  V30 7868 O 748.064 1.75077 0.995498 0
M  V30 7869 C 745.129 3.16424 1.41692 0
M  V30 7870 C 744.19 4.22286 0.772869 0
M  V30 7871 C 743.423 5.02609 1.79499 0
M  V30 7872 O 743.646 4.83874 3.0203 0
M  V30 7873 O 742.58 5.86047 1.3723 0
M  V30 7874 H 746.406 3.01996 -0.321268 0
M  V30 7875 H 743.991 1.47723 -0.223235 0
M  V30 7876 H 745.873 3.68795 2.03883 0
M  V30 7877 H 744.548 2.49236 2.0655 0
M  V30 7878 H 743.455 3.73931 0.112277 0
M  V30 7879 H 744.788 4.91915 0.167399 0
M  V30 7880 N 746.441 0.193421 1.56409 0
M  V30 7881 C 747.371 -0.723334 2.22014 0
M  V30 7882 C 748.352 -1.22254 1.1827 0
M  V30 7883 O 749.537 -1.27168 1.46771 0
M  V30 7884 C 746.667 -1.94366 2.87818 0
M  V30 7885 C 745.621 -1.57943 3.97791 0
M  V30 7886 C 744.947 -2.87623 4.50752 0
M  V30 7887 C 746.247 -0.790639 5.16281 0
M  V30 7888 H 747.941 -0.176426 2.9888 0
M  V30 7889 H 745.487 -0.0834166 1.43758 0
M  V30 7890 H 747.44 -2.5902 3.32396 0
M  V30 7891 H 746.164 -2.51507 2.08355 0
M  V30 7892 H 744.823 -0.956482 3.53903 0
M  V30 7893 H 744.471 -3.4285 3.68053 0
M  V30 7894 H 744.171 -2.63998 5.24956 0
M  V30 7895 H 745.695 -3.53268 4.9803 0
M  V30 7896 H 747.109 -1.34024 5.57414 0
M  V30 7897 H 745.506 -0.65258 5.96541 0
M  V30 7898 H 746.576 0.208633 4.84451 0
M  V30 7899 N 747.919 -1.57396 -0.0801906 0
M  V30 7900 C 748.829 -2.06451 -1.11423 0
M  V30 7901 C 749.845 -0.992352 -1.42928 0
M  V30 7902 O 751.021 -1.30651 -1.53272 0
M  V30 7903 C 748.086 -2.49164 -2.41077 0
M  V30 7904 C 747.147 -3.70641 -2.16619 0
M  V30 7905 C 746.38 -4.11307 -3.40092 0
M  V30 7906 O 746.603 -3.51922 -4.48895 0
M  V30 7907 O 745.537 -5.04157 -3.288 0
M  V30 7908 H 749.363 -2.94857 -0.727519 0
M  V30 7909 H 746.948 -1.46484 -0.293743 0
M  V30 7910 H 748.83 -2.77196 -3.17396 0
M  V30 7911 H 747.505 -1.6389 -2.79145 0
M  V30 7912 H 746.412 -3.47703 -1.38033 0
M  V30 7913 H 747.745 -4.5674 -1.83437 0
M  V30 7914 N 749.397 0.351382 -1.53633 0
M  V30 7915 C 750.643 1.09411 -1.70754 0
M  V30 7916 C 750.976 1.88544 -0.465293 0
M  V30 7917 O 750.251 1.86923 0.537608 0
M  V30 7918 C 750.534 2.04173 -2.96623 0
M  V30 7919 C 750.387 1.28556 -4.31038 0
M  V30 7920 C 751.706 3.04102 -3.18136 0
M  V30 7921 H 748.825 0.396373 -0.621335 0
M  V30 7922 H 751.467 0.373464 -1.86293 0
M  V30 7923 H 749.617 2.65625 -2.83506 0
M  V30 7924 H 751.289 0.697786 -4.55992 0
M  V30 7925 H 749.532 0.587498 -4.29803 0
M  V30 7926 H 750.203 1.97989 -5.15271 0
M  V30 7927 H 752.679 2.5276 -3.30532 0
M  V30 7928 H 751.555 3.67616 -4.07615 0
M  V30 7929 H 751.816 3.75053 -2.34068 0
M  V30 7930 N 750.875 1.45233 0.611969 0
M  V30 7931 C 751.838 1.53189 1.70487 0
M  V30 7932 C 752.838 0.411839 1.55437 0
M  V30 7933 O 754.028 0.675164 1.60584 0
M  V30 7934 C 751.16 1.42422 3.09723 0
M  V30 7935 H 752.353 2.5056 1.64802 0
M  V30 7936 H 749.906 1.32609 0.827318 0
M  V30 7937 H 750.641 0.462185 3.2099 0
M  V30 7938 H 750.426 2.23658 3.22055 0
M  V30 7939 H 751.916 1.51012 3.89339 0
M  V30 7940 N 752.353 -0.854086 1.3245 0
M  V30 7941 C 753.764 -1.42427 1.20712 0
M  V30 7942 C 754.115 -1.95371 -0.18013 0
M  V30 7943 O 753.24 -1.87587 -1.07889 0
M  V30 7944 C 753.835 -2.58897 2.18536 0
M  V30 7945 C 752.394 -3.11913 2.10683 0
M  V30 7946 C 751.541 -1.84661 2.06871 0
M  V30 7947 H 754.492 -0.661192 1.4427 0
M  V30 7948 H 754.513 -3.36074 1.78422 0
M  V30 7949 H 754.025 -2.20333 3.19492 0
M  V30 7950 H 752.126 -3.55059 1.12977 0
M  V30 7951 H 752.239 -3.73119 3.00532 0
M  V30 7952 H 750.603 -2.04285 1.52118 0
M  V30 7953 H 751.386 -1.48314 3.09609 0
M  V30 7954 N 753.831 -1.1567 -1.07043 0
M  V30 7955 C 755.079 -0.931673 -1.79344 0
M  V30 7956 C 755.4 0.542421 -1.87304 0
M  V30 7957 O 754.67 1.39418 -1.37621 0
M  V30 7958 H 753.25 -0.34171 -0.664262 0
M  V30 7959 H 755.912 -1.45795 -1.29344 0
M  V30 7960 H 755.008 -1.34379 -2.81689 0
M  V30 7961 N 755.309 1.25446 -0.953992 0
M  V30 7962 C 756.539 1.96929 -0.624688 0
M  V30 7963 C 756.947 1.71112 0.807292 0
M  V30 7964 O 756.29 0.983512 1.55154 0
M  V30 7965 C 756.352 3.50425 -0.802676 0
M  V30 7966 C 756.016 3.99916 -2.21169 0
M  V30 7967 C 757.013 4.10662 -3.18831 0
M  V30 7968 C 754.698 4.33598 -2.53571 0
M  V30 7969 C 756.692 4.54401 -4.46988 0
M  V30 7970 C 754.379 4.77024 -3.81958 0
M  V30 7971 C 755.377 4.87388 -4.78478 0
M  V30 7972 O 755.065 5.29851 -6.04577 0
M  V30 7973 H 754.797 0.634511 -0.233179 0
M  V30 7974 H 757.351 1.60591 -1.28061 0
M  V30 7975 H 755.581 3.86596 -0.0896044 0
M  V30 7976 H 757.27 4.03117 -0.47452 0
M  V30 7977 H 758.036 3.84872 -2.95124 0
M  V30 7978 H 753.915 4.24757 -1.79171 0
M  V30 7979 H 757.459 4.62406 -5.22328 0
M  V30 7980 H 753.356 5.02258 -4.05471 0
M  V30 7981 H 754.124 5.48039 -6.07944 0
M  V30 7982 N 756.787 0.722489 1.40064 0
M  V30 7983 C 758.198 0.336507 1.83642 0
M  V30 7984 C 758.549 -1.13002 1.6039 0
M  V30 7985 O 757.674 -1.87036 1.08842 0
M  V30 7986 C 758.269 0.603985 3.33373 0
M  V30 7987 C 756.828 0.271637 3.75419 0
M  V30 7988 C 755.975 0.872898 2.63203 0
M  V30 7989 H 758.926 0.921108 1.29233 0
M  V30 7990 H 758.947 -0.128471 3.80283 0
M  V30 7991 H 758.459 1.67141 3.50265 0
M  V30 7992 H 756.56 -0.790455 3.64119 0
M  V30 7993 H 756.673 0.745457 4.73265 0
M  V30 7994 H 755.037 0.300431 2.52922 0
M  V30 7995 H 755.82 1.94473 2.82905 0
M  V30 7996 N 758.265 -1.50454 0.469181 0
M  V30 7997 C 759.197 -2.26319 -0.362247 0
M  V30 7998 C 760.21 -1.31574 -0.958751 0
M  V30 7999 O 761.399 -1.57099 -0.847482 0
M  V30 8000 C 758.499 -3.02808 -1.52187 0
M  V30 8001 C 757.672 -4.24893 -1.03849 0
M  V30 8002 C 756.731 -4.83691 -2.07194 0
M  V30 8003 O 755.757 -5.44659 -1.65333 0
M  V30 8004 N 756.959 -4.70522 -3.39985 0
M  V30 8005 H 759.724 -2.98312 0.288124 0
M  V30 8006 H 757.285 -1.59099 0.299856 0
M  V30 8007 H 759.277 -3.39023 -2.21011 0
M  V30 8008 H 757.847 -2.33625 -2.07697 0
M  V30 8009 H 757.067 -3.93806 -0.176203 0
M  V30 8010 H 758.355 -5.04053 -0.693435 0
M  V30 8011 H 757.753 -4.2203 -3.76706 0
M  V30 8012 H 756.31 -5.11011 -4.04612 0
M  V30 8013 N 759.743 -0.201713 -1.56304 0
M  V30 8014 C 760.968 0.443815 -2.02596 0
M  V30 8015 C 761.393 1.53945 -1.08086 0
M  V30 8016 O 760.751 1.81182 -0.0655056 0
M  V30 8017 C 760.799 0.971066 -3.47279 0
M  V30 8018 O 759.903 2.0836 -3.55893 0
M  V30 8019 H 759.244 0.10294 -0.655972 0
M  V30 8020 H 761.774 -0.314533 -2.02168 0
M  V30 8021 H 761.784 1.28598 -3.87204 0
M  V30 8022 H 760.459 0.169048 -4.15556 0
M  V30 8023 H 759.036 1.77683 -3.27846 0
M  V30 8024 N 761.222 1.57436 0.0718424 0
M  V30 8025 C 762.45 1.91474 0.783932 0
M  V30 8026 C 762.865 0.797669 1.71122 0
M  V30 8027 O 762.222 -0.228989 1.81058 0
M  V30 8028 C 762.273 3.25259 1.57761 0
M  V30 8029 O 761.994 4.3267 0.687596 0
M  V30 8030 C 763.495 3.7331 2.3907 0
M  V30 8031 H 760.715 0.632901 0.222885 0
M  V30 8032 H 763.259 2.04457 0.0421262 0
M  V30 8033 H 761.414 3.13804 2.27169 0
M  V30 8034 H 761.828 5.09641 1.23962 0
M  V30 8035 H 763.302 4.69551 2.90216 0
M  V30 8036 H 763.779 3.02318 3.18591 0
M  V30 8037 H 764.385 3.8771 1.74818 0
M  V30 8038 N 762.7 -0.34323 1.53817 0
M  V30 8039 C 763.663 -1.40444 1.8113 0
M  V30 8040 C 764.663 -1.45604 0.682366 0
M  V30 8041 O 765.853 -1.45974 0.950649 0
M  V30 8042 C 762.985 -2.79369 1.95361 0
M  V30 8043 H 764.178 -1.17489 2.75928 0
M  V30 8044 H 761.731 -0.577636 1.45234 0
M  V30 8045 H 762.466 -3.07607 1.02707 0
M  V30 8046 H 762.251 -2.7702 2.77493 0
M  V30 8047 H 763.741 -3.56178 2.18008 0
M  V30 8048 N 764.178 -1.45556 -0.604258 0
M  V30 8049 C 765.594 -1.30035 -0.925368 0
M  V30 8050 C 765.794 -0.255833 -1.99869 0
M  V30 8051 O 764.85 0.349076 -2.50075 0
M  V30 8052 C 766.163 -2.68028 -1.36314 0
M  V30 8053 C 767.711 -2.75951 -1.47717 0
M  V30 8054 C 768.186 -4.14476 -1.94868 0
M  V30 8055 N 769.677 -4.16787 -2.02097 0
M  V30 8056 C 770.412 -5.20845 -2.39809 0
M  V30 8057 N 769.908 -6.35246 -2.76467 0
M  V30 8058 N 771.701 -5.08204 -2.40177 0
M  V30 8059 H 763.852 -2.1214 0.10512 0
M  V30 8060 H 766.115 -0.947871 -0.0156303 0
M  V30 8061 H 765.821 -3.45667 -0.648628 0
M  V30 8062 H 765.695 -2.96711 -2.329 0
M  V30 8063 H 768.082 -1.98613 -2.18258 0
M  V30 8064 H 768.163 -2.50977 -0.494371 0
M  V30 8065 H 767.807 -4.923 -1.24912 0
M  V30 8066 H 767.737 -4.36843 -2.94068 0
M  V30 8067 H 770.228 -3.34233 -1.76343 0
M  V30 8068 H 770.541 -7.10438 -3.04134 0
M  V30 8069 H 768.886 -6.38642 -2.74155 0
M  V30 8070 H 772.077 -4.17874 -2.10947 0
M  V30 8071 H 772.25 -5.89417 -2.69242 0
M  V30 8072 N 765.656 0.84705 -1.32902 0
M  V30 8073 C 766.933 1.58583 -1.14503 0
M  V30 8074 C 767.313 2.09075 0.291724 0
M  V30 8075 O 766.661 1.88636 1.28952 0
M  V30 8076 C 766.871 2.72605 -2.17916 0
M  V30 8077 C 768.219 3.41993 -2.51646 0
M  V30 8078 O 769.243 2.82838 -2.1652 0
M  V30 8079 O 768.102 4.48761 -3.1189 0
M  V30 8080 H 765.196 0.698756 -0.442345 0
M  V30 8081 H 767.742 0.890516 -1.44457 0
M  V30 8082 H 766.514 2.32876 -3.14459 0
M  V30 8083 H 766.137 3.49807 -1.89 0
M  V30 8084 N 767.134 1.16236 1.06428 0
M  V30 8085 C 768.38 0.954417 1.79617 0
M  V30 8086 C 768.735 -0.512411 1.85451 0
M  V30 8087 O 768.028 -1.37523 1.33409 0
M  V30 8088 C 768.222 1.51396 3.2375 0
M  V30 8089 C 768.051 3.03367 3.31962 0
M  V30 8090 C 766.821 3.71996 3.41975 0
M  V30 8091 C 769.019 4.01075 3.21937 0
M  V30 8092 N 767.001 5.11688 3.39187 0
M  V30 8093 C 768.372 5.27142 3.26376 0
M  V30 8094 C 770.427 3.92917 3.05812 0
M  V30 8095 C 769.13 6.46 3.16348 0
M  V30 8096 C 771.156 5.11344 2.97121 0
M  V30 8097 C 770.518 6.36291 3.02181 0
M  V30 8098 H 766.617 0.403007 0.670156 0
M  V30 8099 H 769.201 1.47605 1.26968 0
M  V30 8100 H 767.372 1.01883 3.74799 0
M  V30 8101 H 769.104 1.2439 3.85109 0
M  V30 8102 H 765.859 3.22623 3.46715 0
M  V30 8103 H 766.283 5.84676 3.41297 0
M  V30 8104 H 770.925 2.97172 3.00746 0
M  V30 8105 H 768.643 7.41968 3.2017 0
M  V30 8106 H 772.229 5.06801 2.85734 0
M  V30 8107 H 771.109 7.26389 2.95513 0
M  V30 8108 N 768.612 -1.24939 0.960631 0
M  V30 8109 C 769.542 -2.28 0.503815 0
M  V30 8110 C 770.523 -1.63959 -0.452928 0
M  V30 8111 O 771.708 -1.91009 -0.350585 0
M  V30 8112 C 768.838 -3.46643 -0.213535 0
M  V30 8113 C 767.792 -4.22903 0.658535 0
M  V30 8114 C 767.118 -5.34363 -0.189902 0
M  V30 8115 C 768.418 -4.84949 1.93963 0
M  V30 8116 H 770.112 -2.66462 1.36521 0
M  V30 8117 H 767.658 -1.28093 0.657897 0
M  V30 8118 H 769.611 -4.1787 -0.544286 0
M  V30 8119 H 768.335 -3.07187 -1.10923 0
M  V30 8120 H 766.994 -3.53467 0.972455 0
M  V30 8121 H 766.642 -4.91147 -1.08553 0
M  V30 8122 H 766.342 -5.86302 0.390331 0
M  V30 8123 H 767.866 -6.0842 -0.515484 0
M  V30 8124 H 769.28 -5.48288 1.67491 0
M  V30 8125 H 767.677 -5.47091 2.46601 0
M  V30 8126 H 768.747 -4.06799 2.639 0
M  V30 8127 N 770.09 -0.729906 -1.39679 0
M  V30 8128 C 771.336 -0.27603 -2.00913 0
M  V30 8129 C 771.669 1.13227 -1.57776 0
M  V30 8130 O 770.944 1.7709 -0.804319 0
M  V30 8131 C 771.227 -0.372157 -3.58172 0
M  V30 8132 C 771.08 -1.81986 -4.11341 0
M  V30 8133 C 772.399 0.248378 -4.39399 0
M  V30 8134 H 769.518 -0.101773 -0.729939 0
M  V30 8135 H 772.16 -0.925104 -1.65957 0
M  V30 8136 H 770.31 0.180459 -3.88081 0
M  V30 8137 H 771.982 -2.42896 -3.92172 0
M  V30 8138 H 770.225 -2.34287 -3.65092 0
M  V30 8139 H 770.896 -1.83842 -5.20486 0
M  V30 8140 H 773.372 -0.222645 -4.15504 0
M  V30 8141 H 772.248 0.150746 -5.48693 0
M  V30 8142 H 772.509 1.33378 -4.21501 0
M  V30 8143 N 771.568 1.50203 -0.477153 0
M  V30 8144 C 772.808 2.04265 0.0744065 0
M  V30 8145 C 773.172 1.35082 1.36443 0
M  V30 8146 O 774.373 1.79732 1.99875 0
M  V30 8147 C 772.644 3.56539 0.247874 0
M  V30 8148 S 774.203 4.32219 0.757117 0
M  V30 8149 H 771.021 0.71088 0.0130891 0
M  V30 8150 H 773.623 1.8453 -0.645678 0
M  V30 8151 H 772.327 4.04443 -0.696709 0
M  V30 8152 H 771.858 3.80638 0.993896 0
M  V30 8153 H 773.873 4.52789 2.0297 0
M  V30 8154 N 773.046 0.209999 1.56195 0
M  V30 8155 C 774.294 -0.423974 1.97603 0
M  V30 8156 C 774.615 -1.61112 1.09854 0
M  V30 8157 O 773.885 -1.95134 0.173032 0
M  V30 8158 H 772.465 -0.159629 0.729745 0
M  V30 8159 H 775.127 0.300205 1.92574 0
M  V30 8160 H 774.223 -0.75809 3.02753 0
M  V30 8161 N 774.524 -1.57472 -0.0634922 0
M  V30 8162 C 775.801 -1.78736 -0.794538 0
M  V30 8163 C 776.181 -0.799645 -1.95369 0
M  V30 8164 O 775.529 0.165521 -2.279 0
M  V30 8165 C 775.739 -3.25471 -1.25975 0
M  V30 8166 C 777.087 -3.89528 -1.68976 0
M  V30 8167 O 778.111 -3.29412 -1.35521 0
M  V30 8168 O 776.97 -4.95305 -2.30944 0
M  V30 8169 H 774.064 -0.733813 -0.381376 0
M  V30 8170 H 776.61 -1.69646 -0.0429258 0
M  V30 8171 H 775.382 -3.88922 -0.430721 0
M  V30 8172 H 775.005 -3.39317 -2.07243 0
M  V30 8173 N 776.003 0.335068 -1.53997 0
M  V30 8174 C 777.228 1.09859 -1.75914 0
M  V30 8175 C 777.653 1.81308 -0.500915 0
M  V30 8176 O 777.011 1.72854 0.54693 0
M  V30 8177 C 777.059 2.08122 -2.94478 0
M  V30 8178 O 776.163 3.15805 -2.65219 0
M  V30 8179 H 775.504 0.317313 -0.583274 0
M  V30 8180 H 778.034 0.382872 -2.00986 0
M  V30 8181 H 778.044 2.51195 -3.21504 0
M  V30 8182 H 776.719 1.55517 -3.8573 0
M  V30 8183 H 775.296 2.77489 -2.49107 0
M  V30 8184 N 777.481 1.45874 0.596531 0
M  V30 8185 C 778.413 1.51408 1.7207 0
M  V30 8186 C 779.426 0.403738 1.57714 0
M  V30 8187 O 780.615 0.671384 1.65393 0
M  V30 8188 C 777.715 1.3652 3.10186 0
M  V30 8189 C 776.888 2.61428 3.50677 0
M  V30 8190 C 775.947 2.40937 4.67799 0
M  V30 8191 O 774.973 3.14602 4.74357 0
M  V30 8192 N 776.175 1.4621 5.61785 0
M  V30 8193 H 778.94 2.48333 1.67782 0
M  V30 8194 H 776.501 1.41755 0.782129 0
M  V30 8195 H 778.493 1.20606 3.86311 0
M  V30 8196 H 777.063 0.478302 3.08919 0
M  V30 8197 H 776.283 2.92381 2.644 0
M  V30 8198 H 777.571 3.44432 3.74491 0
M  V30 8199 H 776.969 0.854382 5.59211 0
M  V30 8200 H 775.526 1.36264 6.37397 0
M  V30 8201 N 778.959 -0.83999 1.33349 0
M  V30 8202 C 779.922 -1.93128 1.23426 0
M  V30 8203 C 780.922 -1.60065 0.153599 0
M  V30 8204 O 782.112 -1.69425 0.405049 0
M  V30 8205 C 779.244 -3.28761 0.901622 0
M  V30 8206 H 780.437 -2.03352 2.20427 0
M  V30 8207 H 777.99 -1.03194 1.17391 0
M  V30 8208 H 778.725 -3.24233 -0.0659337 0
M  V30 8209 H 778.51 -3.54138 1.68311 0
M  V30 8210 H 780 -4.08714 0.856913 0
M  V30 8211 N 780.437 -1.16799 -1.0581 0
M  V30 8212 C 781.714 -0.862616 -1.75551 0
M  V30 8213 C 782.094 0.6385 -2.01212 0
M  V30 8214 O 781.442 1.58784 -1.64317 0
M  V30 8215 C 781.652 -1.6907 -3.05314 0
M  V30 8216 C 783 -1.90675 -3.79379 0
M  V30 8217 O 784.024 -1.65976 -3.15167 0
M  V30 8218 O 782.883 -2.32145 -4.94743 0
M  V30 8219 H 779.977 -0.318789 -0.763088 0
M  V30 8220 H 782.523 -1.27461 -1.12034 0
M  V30 8221 H 781.295 -2.70912 -2.82352 0
M  V30 8222 H 780.918 -1.27606 -3.76567 0
M  V30 8223 N 781.915 1.24427 -0.967243 0
M  V30 8224 C 783.163 1.92107 -0.627638 0
M  V30 8225 C 783.484 1.75991 0.83978 0
M  V30 8226 O 782.754 1.13118 1.59941 0
M  V30 8227 H 781.334 0.710986 -0.229145 0
M  V30 8228 H 783.996 1.51331 -1.22821 0
M  V30 8229 H 783.092 2.99791 -0.867844 0
M  V30 8230 N 783.393 0.737304 1.3929 0
M  V30 8231 C 784.618 0.295237 2.05288 0
M  V30 8232 C 785.043 -1.06235 1.55228 0
M  V30 8233 O 784.401 -1.67365 0.697043 0
M  V30 8234 C 784.449 0.309146 3.59272 0
M  V30 8235 O 783.553 -0.702437 4.06374 0
M  V30 8236 H 782.894 0.133762 0.650387 0
M  V30 8237 H 785.424 1.00387 1.78279 0
M  V30 8238 H 785.434 0.154336 4.07708 0
M  V30 8239 H 784.109 1.29974 3.95069 0
M  V30 8240 H 782.686 -0.513574 3.69346 0
M  V30 8241 N 784.871 -1.49948 0.485112 0
M  V30 8242 C 786.117 -2.02695 -0.0651022 0
M  V30 8243 C 786.45 -1.36534 -1.38102 0
M  V30 8244 O 785.725 -0.495677 -1.88078 0
M  V30 8245 C 786.008 -3.59337 -0.234285 0
M  V30 8246 C 785.861 -4.3605 1.10364 0
M  V30 8247 C 787.18 -4.28996 -0.982351 0
M  V30 8248 H 784.299 -0.736666 -0.0221856 0
M  V30 8249 H 786.941 -1.7913 0.633433 0
M  V30 8250 H 785.091 -3.79546 -0.829262 0
M  V30 8251 H 786.763 -4.27377 1.73627 0
M  V30 8252 H 785.006 -3.99236 1.69686 0
M  V30 8253 H 785.677 -5.43959 0.938743 0
M  V30 8254 H 788.153 -4.13346 -0.477904 0
M  V30 8255 H 787.029 -5.38379 -1.06955 0
M  V30 8256 H 787.29 -3.93135 -2.02231 0
M  V30 8257 N 786.349 -0.21828 -1.56081 0
M  V30 8258 C 787.312 0.679633 -2.18892 0
M  V30 8259 C 788.312 1.12405 -1.14986 0
M  V30 8260 O 789.502 1.03339 -1.40238 0
M  V30 8261 C 786.634 1.93063 -2.80962 0
M  V30 8262 H 787.827 0.132066 -2.99609 0
M  V30 8263 H 785.38 0.0313374 -1.56269 0
M  V30 8264 H 786.115 2.52015 -2.04106 0
M  V30 8265 H 785.9 1.62046 -3.57048 0
M  V30 8266 H 787.39 2.57043 -3.29118 0
M  V30 8267 N 787.827 1.57504 0.0551401 0
M  V30 8268 C 788.79 2.03826 1.04821 0
M  V30 8269 C 789.79 0.937968 1.30609 0
M  V30 8270 O 790.98 1.20237 1.2605 0
M  V30 8271 C 788.112 2.43309 2.38775 0
M  V30 8272 H 789.305 2.92802 0.6486 0
M  V30 8273 H 786.858 1.53368 0.301315 0
M  V30 8274 H 787.593 1.5741 2.83536 0
M  V30 8275 H 787.378 3.23615 2.21395 0
M  V30 8276 H 788.868 2.79666 3.10124 0
M  V30 8277 N 789.305 -0.326896 1.54172 0
M  V30 8278 C 790.553 -1.06313 1.71878 0
M  V30 8279 C 790.874 -1.88652 0.493498 0
M  V30 8280 O 790.144 -1.89608 -0.492522 0
M  V30 8281 H 788.724 -0.39549 0.633716 0
M  V30 8282 H 791.386 -0.364139 1.91468 0
M  V30 8283 H 790.482 -1.73105 2.59694 0
M  V30 8284 N 790.784 -1.46188 -0.588786 0
M  V30 8285 C 792.03 -1.51407 -1.34921 0
M  V30 8286 C 792.363 -0.162771 -1.93517 0
M  V30 8287 O 791.638 0.825082 -1.76132 0
M  V30 8288 C 791.921 -2.60795 -2.48311 0
M  V30 8289 C 791.774 -4.05435 -1.94789 0
M  V30 8290 C 793.093 -2.66313 -3.50379 0
M  V30 8291 H 790.212 -0.551213 -0.489217 0
M  V30 8292 H 792.854 -1.78095 -0.661993 0
M  V30 8293 H 791.004 -2.3817 -3.06932 0
M  V30 8294 H 792.676 -4.39328 -1.40672 0
M  V30 8295 H 790.919 -4.15202 -1.25659 0
M  V30 8296 H 791.59 -4.77691 -2.76613 0
M  V30 8297 H 794.066 -2.86634 -3.01629 0
M  V30 8298 H 792.942 -3.44681 -4.27184 0
M  V30 8299 H 793.203 -1.72127 -4.07216 0
M  V30 8300 N 792.262 0.832906 -1.33792 0
M  V30 8301 C 793.539 1.57359 -1.16178 0
M  V30 8302 C 793.919 2.09372 0.269532 0
M  V30 8303 O 793.267 1.89993 1.26944 0
M  V30 8304 C 793.477 2.70279 -2.20795 0
M  V30 8305 C 794.825 3.39305 -2.55259 0
M  V30 8306 O 795.849 2.80526 -2.19508 0
M  V30 8307 O 794.708 4.45428 -3.16632 0
M  V30 8308 H 791.802 0.694025 -0.449731 0
M  V30 8309 H 794.348 0.875144 -1.45394 0
M  V30 8310 H 793.12 2.29527 -3.16911 0
M  V30 8311 H 792.743 3.47782 -1.927 0
M  V30 8312 N 793.74 1.17359 1.05189 0
M  V30 8313 C 794.703 0.892604 2.11105 0
M  V30 8314 C 795.703 -0.117236 1.60372 0
M  V30 8315 O 796.893 0.114936 1.7382 0
M  V30 8316 C 794.025 0.337032 3.3923 0
M  V30 8317 H 795.218 1.83169 2.37464 0
M  V30 8318 H 792.771 0.984051 1.21434 0
M  V30 8319 H 793.506 -0.609198 3.18527 0
M  V30 8320 H 793.291 1.06484 3.77364 0
M  V30 8321 H 794.781 0.158763 4.17298 0
M  V30 8322 N 795.218 -1.23913 0.973828 0
M  V30 8323 C 796.181 -2.23367 0.51378 0
M  V30 8324 C 797.181 -1.55923 -0.39302 0
M  V30 8325 O 798.371 -1.73187 -0.187626 0
M  V30 8326 C 795.503 -3.39944 -0.255152 0
M  V30 8327 H 796.696 -2.65581 1.39307 0
M  V30 8328 H 794.249 -1.36632 0.759039 0
M  V30 8329 H 794.984 -3.03177 -1.15127 0
M  V30 8330 H 794.769 -3.90098 0.395673 0
M  V30 8331 H 796.259 -4.13749 -0.565842 0
M  V30 8332 N 796.696 -0.74468 -1.38897 0
M  V30 8333 C 797.606 -0.112892 -2.34328 0
M  V30 8334 C 798.622 0.71087 -1.58816 0
M  V30 8335 O 799.798 0.637092 -1.91058 0
M  V30 8336 C 796.863 0.776417 -3.37894 0
M  V30 8337 C 795.924 -0.0606999 -4.29257 0
M  V30 8338 C 795.157 0.786258 -5.27877 0
M  V30 8339 O 795.38 2.02463 -5.33259 0
M  V30 8340 O 794.314 0.209781 -6.01534 0
M  V30 8341 H 798.14 -0.900801 -2.90033 0
M  V30 8342 H 795.725 -0.505462 -1.4059 0
M  V30 8343 H 797.607 1.28496 -4.01331 0
M  V30 8344 H 796.282 1.54297 -2.84559 0
M  V30 8345 H 795.189 -0.614984 -3.69011 0
M  V30 8346 H 796.522 -0.789702 -4.85824 0
M  V30 8347 N 798.174 1.49689 -0.493057 0
M  V30 8348 C 799.422 2.02027 0.0541642 0
M  V30 8349 C 799.743 1.37554 1.38217 0
M  V30 8350 O 799.013 0.528174 1.88646 0
M  V30 8351 H 797.593 0.746646 0.0230069 0
M  V30 8352 H 800.255 1.83795 -0.648489 0
M  V30 8353 H 799.351 3.11523 0.189652 0
M  V30 8354 N 799.652 0.226554 1.55963 0
M  V30 8355 C 801.063 -0.280381 1.84583 0
M  V30 8356 C 801.414 -1.59105 1.14804 0
M  V30 8357 O 800.539 -2.12297 0.419414 0
M  V30 8358 C 801.134 -0.515499 3.34855 0
M  V30 8359 C 799.693 -0.966733 3.63774 0
M  V30 8360 C 798.84 -0.0325753 2.77281 0
M  V30 8361 H 801.791 0.449626 1.52197 0
M  V30 8362 H 801.812 -1.36085 3.55332 0
M  V30 8363 H 801.324 0.438594 3.85614 0
M  V30 8364 H 799.425 -1.93401 3.18476 0
M  V30 8365 H 799.538 -0.837679 4.7172 0
M  V30 8366 H 797.902 -0.540279 2.48904 0
M  V30 8367 H 798.685 0.916524 3.30839 0
M  V30 8368 N 801.13 -1.57531 -0.0467866 0
M  V30 8369 C 802.546 -1.54451 -0.402107 0
M  V30 8370 C 802.746 -0.950275 -1.77685 0
M  V30 8371 O 801.802 -0.563602 -2.4613 0
M  V30 8372 C 803.115 -2.9899 -0.320212 0
M  V30 8373 C 804.663 -3.10452 -0.398588 0
M  V30 8374 C 805.138 -4.56689 -0.346335 0
M  V30 8375 N 806.629 -4.6142 -0.405666 0
M  V30 8376 C 807.364 -5.72087 -0.387845 0
M  V30 8377 N 806.86 -6.92045 -0.32336 0
M  V30 8378 N 808.653 -5.60404 -0.436263 0
M  V30 8379 H 800.804 -1.94515 0.853087 0
M  V30 8380 H 803.067 -0.891397 0.322669 0
M  V30 8381 H 802.773 -3.46124 0.623794 0
M  V30 8382 H 802.647 -3.60164 -1.1208 0
M  V30 8383 H 805.034 -2.63276 -1.33302 0
M  V30 8384 H 805.115 -2.52142 0.431026 0
M  V30 8385 H 804.759 -5.04527 0.584356 0
M  V30 8386 H 804.689 -5.12889 -1.19382 0
M  V30 8387 H 807.18 -3.75105 -0.458737 0
M  V30 8388 H 807.493 -7.7216 -0.314375 0
M  V30 8389 H 805.838 -6.94396 -0.28967 0
M  V30 8390 H 809.029 -4.65586 -0.48451 0
M  V30 8391 H 809.202 -6.46645 -0.418907 0
M  V30 8392 N 802.608 0.318715 -1.54344 0
M  V30 8393 C 803.571 1.37545 -1.83342 0
M  V30 8394 C 804.571 1.445 -0.705444 0
M  V30 8395 O 805.761 1.44443 -0.973752 0
M  V30 8396 C 802.893 2.76225 -1.99781 0
M  V30 8397 H 804.086 1.13084 -2.77762 0
M  V30 8398 H 801.639 0.554457 -1.46135 0
M  V30 8399 H 802.374 3.05934 -1.07588 0
M  V30 8400 H 802.159 2.7257 -2.81865 0
M  V30 8401 H 803.649 3.52664 -2.23647 0
M  V30 8402 N 804.086 1.46499 0.581025 0
M  V30 8403 C 805.497 1.4604 1.16315 0
M  V30 8404 C 805.848 0.202154 1.95156 0
M  V30 8405 O 804.973 -0.694638 2.04948 0
M  V30 8406 C 805.568 2.64593 2.11604 0
M  V30 8407 C 804.127 2.6717 2.65136 0
M  V30 8408 C 803.274 2.38753 1.4104 0
M  V30 8409 H 806.225 1.54354 0.368871 0
M  V30 8410 H 806.246 2.40207 2.95095 0
M  V30 8411 H 805.758 3.56154 1.54194 0
M  V30 8412 H 803.859 1.79685 3.26411 0
M  V30 8413 H 803.972 3.67182 3.07757 0
M  V30 8414 H 802.336 1.88845 1.70908 0
M  V30 8415 H 803.119 3.32493 0.854588 0
M  V30 8416 N 805.565 -0.825799 1.34232 0
M  V30 8417 C 806.976 -1.39835 1.23706 0
M  V30 8418 C 807.327 -1.95709 -0.138649 0
M  V30 8419 O 806.452 -1.89833 -1.03886 0
M  V30 8420 C 807.047 -2.54203 2.23978 0
M  V30 8421 C 805.606 -3.07374 2.17251 0
M  V30 8422 C 804.753 -1.80232 2.10741 0
M  V30 8423 H 807.704 -0.630442 1.4564 0
M  V30 8424 H 807.725 -3.32214 1.8551 0
M  V30 8425 H 807.237 -2.13506 3.24094 0
M  V30 8426 H 805.338 -3.52583 1.20483 0
M  V30 8427 H 805.451 -3.6666 3.08379 0
M  V30 8428 H 803.815 -2.01012 1.56417 0
M  V30 8429 H 804.598 -1.41713 3.12686 0
M  V30 8430 N 807.043 -1.17915 -1.04565 0
M  V30 8431 C 808.291 -0.969505 -1.77327 0
M  V30 8432 C 808.612 0.502569 -1.88412 0
M  V30 8433 O 807.882 1.36467 -1.40547 0
M  V30 8434 H 806.462 -0.355723 -0.656864 0
M  V30 8435 H 809.124 -1.48506 -1.26223 0
M  V30 8436 H 808.22 -1.40324 -2.78775 0
M  V30 8437 N 808.521 1.23394 -0.980386 0
M  V30 8438 C 809.453 2.24146 -0.478657 0
M  V30 8439 C 810.466 1.57303 0.419492 0
M  V30 8440 O 811.655 1.77094 0.223631 0
M  V30 8441 C 808.755 3.3732 0.326913 0
M  V30 8442 C 807.928 4.33744 -0.56436 0
M  V30 8443 C 806.987 5.25866 0.187358 0
M  V30 8444 O 806.013 5.67626 -0.423019 0
M  V30 8445 N 807.215 5.61492 1.47335 0
M  V30 8446 H 809.98 2.67826 -1.34496 0
M  V30 8447 H 807.541 1.37566 -0.853653 0
M  V30 8448 H 809.533 3.95926 0.838148 0
M  V30 8449 H 808.103 2.92823 1.09422 0
M  V30 8450 H 807.323 3.73641 -1.25642 0
M  V30 8451 H 808.611 4.95123 -1.17177 0
M  V30 8452 H 808.009 5.29514 1.99077 0
M  V30 8453 H 806.566 6.2257 1.93002 0
M  V30 8454 N 809.999 0.752036 1.385 0
M  V30 8455 C 810.949 0.0990189 2.27785 0
M  V30 8456 C 811.933 -0.694867 1.45122 0
M  V30 8457 O 813.125 -0.561077 1.67872 0
M  V30 8458 C 810.254 -0.794531 3.33979 0
M  V30 8459 C 809.34 0.00611984 4.241 0
M  V30 8460 N 809.731 1.04174 4.94956 0
M  V30 8461 C 808.029 -0.220934 4.45452 0
M  V30 8462 C 808.73 1.52601 5.61327 0
M  V30 8463 N 807.706 0.84159 5.37046 0
M  V30 8464 H 811.508 0.892208 2.8003 0
M  V30 8465 H 809.022 0.587934 1.51384 0
M  V30 8466 H 811.019 -1.27797 3.96829 0
M  V30 8467 H 809.679 -1.58669 2.83292 0
M  V30 8468 H 810.69 1.42349 4.97953 0
M  V30 8469 H 807.367 -0.986556 4.05676 0
M  V30 8470 H 808.757 2.38857 6.2801 0
M  V30 8471 N 811.477 -1.49425 0.500989 0
M  V30 8472 C 812.754 -1.9531 -0.106551 0
M  V30 8473 C 813.134 -1.44248 -1.54129 0
M  V30 8474 O 812.482 -0.656237 -2.18874 0
M  V30 8475 C 812.692 -3.48995 -0.0191972 0
M  V30 8476 C 814.04 -4.24161 -0.193129 0
M  V30 8477 O 815.064 -3.56075 -0.0943843 0
M  V30 8478 O 813.923 -5.45064 -0.395869 0
M  V30 8479 H 811.017 -0.82149 -0.0953068 0
M  V30 8480 H 813.563 -1.6007 0.563526 0
M  V30 8481 H 812.335 -3.78794 0.981353 0
M  V30 8482 H 811.958 -3.90852 -0.72942 0
M  V30 8483 N 812.955 -0.234822 -1.55841 0
M  V30 8484 C 813.887 0.702346 -2.18174 0
M  V30 8485 C 814.9 1.14776 -1.15457 0
M  V30 8486 O 816.089 1.07662 -1.42377 0
M  V30 8487 C 813.189 1.96483 -2.76129 0
M  V30 8488 C 812.362 1.67283 -4.04148 0
M  V30 8489 C 811.421 2.7837 -4.46539 0
M  V30 8490 O 810.447 2.46272 -5.13166 0
M  V30 8491 N 811.649 4.07611 -4.1332 0
M  V30 8492 H 814.414 0.169074 -2.99223 0
M  V30 8493 H 811.975 -0.0543164 -1.61809 0
M  V30 8494 H 813.967 2.70016 -3.01452 0
M  V30 8495 H 812.537 2.40822 -1.99307 0
M  V30 8496 H 811.757 0.773278 -3.86541 0
M  V30 8497 H 813.045 1.45222 -4.87635 0
M  V30 8498 H 812.443 4.36527 -3.59806 0
M  V30 8499 H 811 4.77646 -4.43506 0
M  V30 8500 N 814.433 1.57553 0.0384317 0
M  V30 8501 C 815.658 1.93485 0.746872 0
M  V30 8502 C 816.083 0.834069 1.68597 0
M  V30 8503 O 815.441 -0.210902 1.80069 0
M  V30 8504 C 815.489 3.28463 1.4881 0
M  V30 8505 O 814.593 3.20051 2.60079 0
M  V30 8506 H 813.934 0.632675 0.201539 0
M  V30 8507 H 816.464 2.046 -0.00329815 0
M  V30 8508 H 816.474 3.63132 1.86009 0
M  V30 8509 H 815.149 4.08147 0.799297 0
M  V30 8510 H 813.726 2.96998 2.25492 0
M  V30 8511 N 815.911 -0.310526 1.54511 0
M  V30 8512 C 817.327 -0.655637 1.45511 0
M  V30 8513 C 817.527 -1.91114 0.638564 0
M  V30 8514 O 816.583 -2.52098 0.142497 0
M  V30 8515 C 817.896 -0.817501 2.89374 0
M  V30 8516 C 819.444 -0.914003 2.99358 0
M  V30 8517 C 819.919 -1.10794 4.44397 0
M  V30 8518 N 821.41 -1.17437 4.48066 0
M  V30 8519 C 822.145 -1.34255 5.57461 0
M  V30 8520 N 821.641 -1.48032 6.768 0
M  V30 8521 N 823.434 -1.37067 5.45132 0
M  V30 8522 H 815.585 0.514506 2.06074 0
M  V30 8523 H 817.848 0.168478 0.932909 0
M  V30 8524 H 817.554 0.034003 3.51684 0
M  V30 8525 H 817.428 -1.7094 3.36243 0
M  V30 8526 H 819.815 -1.756 2.37168 0
M  V30 8527 H 819.896 0.00170958 2.558 0
M  V30 8528 H 819.54 -0.270743 5.07178 0
M  V30 8529 H 819.47 -2.03773 4.85576 0
M  V30 8530 H 821.961 -1.08181 3.62084 0
M  V30 8531 H 822.274 -1.60593 7.5593 0
M  V30 8532 H 820.619 -1.45105 6.79683 0
M  V30 8533 H 823.81 -1.25909 4.50849 0
M  V30 8534 H 823.983 -1.49831 6.3044 0
M  V30 8535 N 817.389 -1.46805 -0.573248 0
M  V30 8536 C 818.614 -1.56433 -1.36175 0
M  V30 8537 C 819.039 -0.209336 -1.86932 0
M  V30 8538 O 818.397 0.812146 -1.62092 0
M  V30 8539 C 818.445 -2.58055 -2.51873 0
M  V30 8540 O 817.549 -2.12214 -3.53609 0
M  V30 8541 H 816.89 -0.526068 -0.405153 0
M  V30 8542 H 819.42 -1.92456 -0.694405 0
M  V30 8543 H 819.43 -2.77966 -2.98662 0
M  V30 8544 H 818.105 -3.56448 -2.14284 0
M  V30 8545 H 816.682 -2.02333 -3.13234 0
M  V30 8546 N 818.867 0.818669 -1.34668 0
M  V30 8547 C 819.777 1.9616 -1.2868 0
M  V30 8548 C 820.793 1.72918 -0.193742 0
M  V30 8549 O 821.969 1.96951 -0.420975 0
M  V30 8550 C 819.034 3.30534 -1.04633 0
M  V30 8551 C 818.095 3.66755 -2.23136 0
M  V30 8552 C 817.328 4.94717 -2.00227 0
M  V30 8553 O 817.551 5.62218 -0.96264 0
M  V30 8554 O 816.485 5.28915 -2.87286 0
M  V30 8555 H 820.311 2.04157 -2.24842 0
M  V30 8556 H 817.896 0.954691 -1.14917 0
M  V30 8557 H 819.778 4.11005 -0.930216 0
M  V30 8558 H 818.453 3.23495 -0.115139 0
M  V30 8559 H 817.36 2.8671 -2.40308 0
M  V30 8560 H 818.693 3.78484 -3.1466 0
M  V30 8561 N 820.346 1.18468 1.03938 0
M  V30 8562 C 821.623 0.890435 1.74157 0
M  V30 8563 C 822.003 -0.606409 2.02203 0
M  V30 8564 O 821.351 -1.5615 1.66822 0
M  V30 8565 C 821.561 1.73906 3.02585 0
M  V30 8566 C 822.909 1.96686 3.76297 0
M  V30 8567 O 823.933 1.70969 3.12487 0
M  V30 8568 O 822.792 2.39986 4.90988 0
M  V30 8569 H 819.886 0.330889 0.757919 0
M  V30 8570 H 822.432 1.29228 1.09992 0
M  V30 8571 H 821.204 2.75369 2.78006 0
M  V30 8572 H 820.827 1.33581 3.74489 0
M  V30 8573 N 821.824 -1.22873 0.986916 0
M  V30 8574 C 823.072 -1.91084 0.658121 0
M  V30 8575 C 823.393 -1.77304 -0.811675 0
M  V30 8576 O 822.663 -1.15649 -1.58121 0
M  V30 8577 H 821.243 -0.707251 0.240427 0
M  V30 8578 H 823.905 -1.49357 1.25213 0
M  V30 8579 H 823.001 -2.98373 0.915428 0
M  V30 8580 N 823.302 -0.75937 -1.38099 0
M  V30 8581 C 824.532 -0.328634 -2.0397 0
M  V30 8582 C 824.94 1.04989 -1.57398 0
M  V30 8583 O 824.283 1.67918 -0.744932 0
M  V30 8584 C 824.345 -0.279216 -3.58414 0
M  V30 8585 C 824.009 -1.60025 -4.28067 0
M  V30 8586 C 825.006 -2.55048 -4.53041 0
M  V30 8587 C 822.691 -1.87128 -4.66142 0
M  V30 8588 C 824.685 -3.7539 -5.15132 0
M  V30 8589 C 822.372 -3.07742 -5.27956 0
M  V30 8590 C 823.37 -4.01694 -5.52387 0
M  V30 8591 O 823.058 -5.20186 -6.12912 0
M  V30 8592 H 822.79 -0.137443 -0.66188 0
M  V30 8593 H 825.344 -1.03082 -1.77661 0
M  V30 8594 H 823.574 0.479254 -3.83719 0
M  V30 8595 H 825.263 0.122781 -4.05714 0
M  V30 8596 H 826.029 -2.35387 -4.24049 0
M  V30 8597 H 821.908 -1.14833 -4.46469 0
M  V30 8598 H 825.452 -4.48737 -5.34117 0
M  V30 8599 H 821.349 -3.27294 -5.56371 0
M  V30 8600 H 822.117 -5.20846 -6.31397 0
M  V30 8601 N 824.78 1.49157 -0.508906 0
M  V30 8602 C 825.69 2.33045 0.269656 0
M  V30 8603 C 826.706 1.45143 0.959662 0
M  V30 8604 O 827.882 1.78155 0.939295 0
M  V30 8605 C 824.947 3.20772 1.31554 0
M  V30 8606 C 824.008 4.24531 0.638131 0
M  V30 8607 C 823.241 5.08065 1.63418 0
M  V30 8608 O 823.464 4.93238 2.86483 0
M  V30 8609 O 822.398 5.90117 1.18516 0
M  V30 8610 H 826.224 3.00821 -0.417183 0
M  V30 8611 H 823.809 1.46938 -0.270119 0
M  V30 8612 H 825.691 3.75095 1.92047 0
M  V30 8613 H 824.366 2.55681 1.98516 0
M  V30 8614 H 823.273 3.74099 -0.00674357 0
M  V30 8615 H 824.606 4.92199 0.0108155 0
M  V30 8616 N 826.258 0.243083 1.55714 0
M  V30 8617 C 827.504 -0.383287 1.99145 0
M  V30 8618 C 827.837 -1.57868 1.13098 0
M  V30 8619 O 827.112 -1.93535 0.193509 0
M  V30 8620 C 827.395 -0.796879 3.51172 0
M  V30 8621 C 827.248 0.403642 4.47985 0
M  V30 8622 C 828.567 -1.64525 4.08191 0
M  V30 8623 H 825.686 -0.137843 0.723995 0
M  V30 8624 H 828.328 0.343631 1.86867 0
M  V30 8625 H 826.478 -1.41625 3.61766 0
M  V30 8626 H 828.15 1.04204 4.49376 0
M  V30 8627 H 826.393 1.04741 4.20965 0
M  V30 8628 H 827.064 0.0709794 5.51954 0
M  V30 8629 H 829.54 -1.12246 4.00674 0
M  V30 8630 H 828.416 -1.9035 5.14838 0
M  V30 8631 H 828.677 -2.61582 3.56409 0
M  V30 8632 N 827.736 -1.57571 -0.0300757 0
M  V30 8633 C 828.976 -1.91074 -0.725946 0
M  V30 8634 C 829.34 -0.841545 -1.72575 0
M  V30 8635 O 830.541 -1.06088 -2.46979 0
M  V30 8636 C 828.812 -3.2973 -1.37888 0
M  V30 8637 S 830.371 -3.85065 -2.10405 0
M  V30 8638 H 827.189 -0.669084 -0.240515 0
M  V30 8639 H 829.791 -1.9549 0.019384 0
M  V30 8640 H 828.495 -4.05411 -0.637974 0
M  V30 8641 H 828.026 -3.28614 -2.16278 0
M  V30 8642 H 830.041 -3.63711 -3.37533 0
M  V30 8643 N 829.214 0.302327 -1.54673 0
M  V30 8644 C 830.439 1.06103 -1.78205 0
M  V30 8645 C 830.864 1.80204 -0.53926 0
M  V30 8646 O 830.222 1.73975 0.510142 0
M  V30 8647 C 830.27 2.01829 -2.98827 0
M  V30 8648 O 829.374 3.10108 -2.71858 0
M  V30 8649 H 828.715 0.30487 -0.589873 0
M  V30 8650 H 831.245 0.340153 -2.01753 0
M  V30 8651 H 831.255 2.44319 -3.2676 0
M  V30 8652 H 829.93 1.473 -3.88942 0
M  V30 8653 H 828.507 2.72142 -2.54937 0
M  V30 8654 N 830.692 1.47107 0.565454 0
M  V30 8655 C 831.932 1.5488 1.33385 0
M  V30 8656 C 832.296 0.202804 1.90926 0
M  V30 8657 O 833.497 0.155345 2.68351 0
M  V30 8658 C 831.768 2.62969 2.42037 0
M  V30 8659 S 833.327 2.90269 3.29074 0
M  V30 8660 H 830.145 0.547008 0.454206 0
M  V30 8661 H 832.747 1.8444 0.648228 0
M  V30 8662 H 831.451 3.59376 1.98185 0
M  V30 8663 H 830.982 2.35197 3.15351 0
M  V30 8664 H 832.997 2.26854 4.41307 0
M  V30 8665 N 832.17 -0.811516 1.35101 0
M  V30 8666 C 833.398 -1.59981 1.31201 0
M  V30 8667 C 833.813 -1.8847 -0.111552 0
M  V30 8668 O 833.17 -1.48414 -1.06205 0
M  V30 8669 C 833.221 -2.934 2.11184 0
M  V30 8670 O 832.942 -2.66148 3.4799 0
M  V30 8671 C 834.443 -3.87776 2.14813 0
M  V30 8672 H 831.663 -0.496921 0.450899 0
M  V30 8673 H 834.207 -1.00886 1.77883 0
M  V30 8674 H 832.362 -3.49022 1.68115 0
M  V30 8675 H 832.776 -3.51301 3.89471 0
M  V30 8676 H 834.25 -4.7852 2.75178 0
M  V30 8677 H 834.727 -4.23997 1.14556 0
M  V30 8678 H 835.333 -3.3809 2.58022 0
M  V30 8679 N 833.648 -1.19017 -1.03309 0
M  V30 8680 C 834.873 -1.01598 -1.80811 0
M  V30 8681 C 835.298 0.430773 -1.83101 0
M  V30 8682 O 834.656 1.30946 -1.25391 0
M  V30 8683 C 834.704 -1.5845 -3.23923 0
M  V30 8684 O 833.808 -0.810972 -4.04348 0
M  V30 8685 H 833.149 -0.359398 -0.558327 0
M  V30 8686 H 835.679 -1.57945 -1.30055 0
M  V30 8687 H 835.689 -1.61486 -3.74682 0
M  V30 8688 H 834.364 -2.63752 -3.21571 0
M  V30 8689 H 832.941 -0.85353 -3.63 0
M  V30 8690 N 835.127 1.22348 -0.993418 0
M  V30 8691 C 836.375 1.90733 -0.668246 0
M  V30 8692 C 836.696 1.77732 0.802261 0
M  V30 8693 O 835.966 1.16486 1.57505 0
M  V30 8694 H 834.546 0.705966 -0.244174 0
M  V30 8695 H 837.208 1.48691 -1.26004 0
M  V30 8696 H 836.304 2.97883 -0.931239 0
M  V30 8697 N 836.605 0.766683 1.37694 0
M  V30 8698 C 837.568 0.155849 2.2867 0
M  V30 8699 C 838.568 -0.633509 1.47795 0
M  V30 8700 O 839.758 -0.457844 1.68076 0
M  V30 8701 C 836.89 -0.786965 3.31692 0
M  V30 8702 H 838.083 0.957748 2.84196 0
M  V30 8703 H 835.636 0.534554 1.46875 0
M  V30 8704 H 836.371 -1.61406 2.8128 0
M  V30 8705 H 836.156 -0.223182 3.91464 0
M  V30 8706 H 837.646 -1.20994 3.99688 0
M  V30 8707 N 838.083 -1.48885 0.516809 0
M  V30 8708 C 839.308 -2.0739 -0.0205201 0
M  V30 8709 C 839.733 -1.37259 -1.28614 0
M  V30 8710 O 839.091 -0.434304 -1.76021 0
M  V30 8711 C 839.139 -3.59793 -0.24104 0
M  V30 8712 O 838.243 -3.90957 -1.31251 0
M  V30 8713 H 837.584 -0.663167 0.0332564 0
M  V30 8714 H 840.114 -1.91477 0.720956 0
M  V30 8715 H 840.124 -4.0531 -0.467737 0
M  V30 8716 H 838.799 -4.10244 0.68356 0
M  V30 8717 H 837.376 -3.57234 -1.06951 0
M  V30 8718 N 839.561 -0.251338 -1.55583 0
M  V30 8719 C 840.786 0.379136 -2.03905 0
M  V30 8720 C 841.211 1.50428 -1.12929 0
M  V30 8721 O 840.569 1.80882 -0.123114 0
M  V30 8722 C 840.617 0.86009 -3.50193 0
M  V30 8723 O 839.721 1.96932 -3.62342 0
M  V30 8724 H 839.062 0.0820183 -0.658915 0
M  V30 8725 H 841.592 -0.378692 -2.01065 0
M  V30 8726 H 841.602 1.16214 -3.91099 0
M  V30 8727 H 840.277 0.0367559 -4.15884 0
M  V30 8728 H 838.854 1.67163 -3.33333 0
M  V30 8729 N 841.039 1.57585 0.0217189 0
M  V30 8730 C 842.45 1.7787 0.567377 0
M  V30 8731 C 842.801 0.883337 1.7519 0
M  V30 8732 O 841.926 0.0800819 2.16252 0
M  V30 8733 C 842.521 3.2257 1.03606 0
M  V30 8734 C 841.08 3.44026 1.52718 0
M  V30 8735 C 840.227 2.73313 0.468545 0
M  V30 8736 H 843.178 1.57377 -0.2045 0
M  V30 8737 H 843.199 3.29488 1.9031 0
M  V30 8738 H 842.711 3.87711 0.173739 0
M  V30 8739 H 840.812 2.8407 2.41111 0
M  V30 8740 H 840.925 4.52659 1.56962 0
M  V30 8741 H 839.289 2.37299 0.925263 0
M  V30 8742 H 840.072 3.41141 -0.384438 0
M  V30 8743 N 842.517 -0.29412 1.54831 0
M  V30 8744 C 843.928 -0.866651 1.65366 0
M  V30 8745 C 844.279 -1.87834 0.56681 0
M  V30 8746 O 843.404 -2.14374 -0.295389 0
M  V30 8747 C 843.999 -1.57869 2.99771 0
M  V30 8748 C 842.558 -2.09954 3.12404 0
M  V30 8749 C 841.705 -0.934492 2.6108 0
M  V30 8750 H 844.656 -0.0709551 1.58541 0
M  V30 8751 H 844.677 -2.44462 2.91579 0
M  V30 8752 H 844.189 -0.84212 3.78853 0
M  V30 8753 H 842.29 -2.86637 2.38055 0
M  V30 8754 H 842.403 -2.32934 4.18663 0
M  V30 8755 H 840.767 -1.32199 2.17705 0
M  V30 8756 H 841.55 -0.211768 3.42646 0
M  V30 8757 N 843.995 -1.47404 -0.557645 0
M  V30 8758 C 845.243 -1.53703 -1.31224 0
M  V30 8759 C 845.564 -0.200742 -1.93964 0
M  V30 8760 O 844.834 0.775253 -1.79907 0
M  V30 8761 H 843.414 -0.566171 -0.487299 0
M  V30 8762 H 846.076 -1.83699 -0.651195 0
M  V30 8763 H 845.172 -2.30335 -2.10599 0
M  V30 8764 N 845.473 0.80434 -1.35529 0
M  V30 8765 C 846.436 1.89788 -1.28503 0
M  V30 8766 C 847.436 1.59601 -0.195983 0
M  V30 8767 O 848.626 1.68292 -0.449827 0
M  V30 8768 C 845.758 3.26255 -0.98847 0
M  V30 8769 H 846.951 1.97436 -2.25741 0
M  V30 8770 H 844.504 1.00046 -1.20086 0
M  V30 8771 H 845.239 3.24294 -0.0200541 0
M  V30 8772 H 845.024 3.49551 -1.77641 0
M  V30 8773 H 846.514 4.06298 -0.964975 0
M  V30 8774 N 846.951 1.19563 1.02676 0
M  V30 8775 C 848.362 1.00158 1.57561 0
M  V30 8776 C 848.713 -0.444922 1.91089 0
M  V30 8777 O 847.838 -1.32466 1.71119 0
M  V30 8778 C 848.433 1.81181 2.86284 0
M  V30 8779 C 846.992 1.66171 3.37734 0
M  V30 8780 C 846.139 1.7975 2.11152 0
M  V30 8781 H 849.09 1.33904 0.85179 0
M  V30 8782 H 849.111 1.30916 3.57269 0
M  V30 8783 H 848.623 2.86454 2.6185 0
M  V30 8784 H 846.724 0.634927 3.6715 0
M  V30 8785 H 846.837 2.46832 4.10622 0
M  V30 8786 H 845.201 1.22833 2.23123 0
M  V30 8787 H 845.984 2.86487 1.89157 0
M  V30 8788 N 848.429 -1.21819 0.999893 0
M  V30 8789 C 849.677 -1.90375 0.678351 0
M  V30 8790 C 849.998 -1.78155 -0.792824 0
M  V30 8791 O 849.268 -1.17319 -1.56885 0
M  V30 8792 H 847.848 -0.704661 0.247915 0
M  V30 8793 H 850.51 -1.48021 1.2679 0
M  V30 8794 H 849.606 -2.97385 0.947023 0
M  V30 8795 N 849.908 -0.773975 -1.37286 0
M  V30 8796 C 851.319 -0.404433 -1.82267 0
M  V30 8797 C 851.67 1.06971 -1.64474 0
M  V30 8798 O 850.795 1.82867 -1.15708 0
M  V30 8799 C 851.39 -0.727298 -3.30902 0
M  V30 8800 C 849.949 -0.410784 -3.74152 0
M  V30 8801 C 849.096 -0.969983 -2.59782 0
M  V30 8802 H 852.047 -0.968437 -1.25726 0
M  V30 8803 H 852.068 -0.0127575 -3.80498 0
M  V30 8804 H 851.58 -1.80026 -3.4382 0
M  V30 8805 H 849.681 0.65477 -3.66802 0
M  V30 8806 H 849.794 -0.920592 -4.70172 0
M  V30 8807 H 848.158 -0.394094 -2.51633 0
M  V30 8808 H 848.941 -2.04839 -2.75492 0
M  V30 8809 N 851.386 1.48609 -0.524698 0
M  V30 8810 C 852.316 2.32366 0.229837 0
M  V30 8811 C 853.297 1.41759 0.940129 0
M  V30 8812 O 854.482 1.7065 0.926936 0
M  V30 8813 C 851.612 3.22835 1.28043 0
M  V30 8814 C 850.566 4.22424 0.688603 0
M  V30 8815 C 849.892 5.0199 1.84146 0
M  V30 8816 C 851.192 5.21217 -0.336176 0
M  V30 8817 H 852.886 2.95698 -0.469339 0
M  V30 8818 H 850.432 1.42197 -0.227156 0
M  V30 8819 H 852.385 3.80253 1.8162 0
M  V30 8820 H 851.109 2.57492 2.00912 0
M  V30 8821 H 849.768 3.66185 0.174402 0
M  V30 8822 H 849.416 4.33076 2.5584 0
M  V30 8823 H 849.116 5.69392 1.45142 0
M  V30 8824 H 850.64 5.62259 2.38111 0
M  V30 8825 H 852.054 5.7319 0.112307 0
M  V30 8826 H 850.451 5.96642 -0.643324 0
M  V30 8827 H 851.521 4.68676 -1.24381 0
M  V30 8828 N 852.864 0.259585 1.55447 0
M  V30 8829 C 854.11 -0.362143 1.9954 0
M  V30 8830 C 854.443 -1.5666 1.14767 0
M  V30 8831 O 853.718 -1.93319 0.214025 0
M  V30 8832 C 854.001 -0.759588 3.51998 0
M  V30 8833 C 853.854 0.451134 4.47532 0
M  V30 8834 C 855.173 -1.60186 4.09913 0
M  V30 8835 H 852.292 -0.130157 0.725416 0
M  V30 8836 H 854.934 0.363431 1.86492 0
M  V30 8837 H 853.084 -1.3778 3.63248 0
M  V30 8838 H 854.756 1.08965 4.48246 0
M  V30 8839 H 852.999 1.092 4.19831 0
M  V30 8840 H 853.67 0.129518 5.51848 0
M  V30 8841 H 856.146 -1.0799 4.01842 0
M  V30 8842 H 855.022 -1.84879 5.16828 0
M  V30 8843 H 855.283 -2.57787 3.59163 0
M  V30 8844 N 854.342 -1.57594 -0.0133615 0
M  V30 8845 C 855.305 -2.06534 -0.993799 0
M  V30 8846 C 856.305 -0.972267 -1.28077 0
M  V30 8847 O 857.495 -1.23537 -1.22818 0
M  V30 8848 C 854.627 -2.49554 -2.3224 0
M  V30 8849 H 855.82 -2.94419 -0.570741 0
M  V30 8850 H 853.373 -1.54113 -0.260546 0
M  V30 8851 H 854.108 -1.64872 -2.79263 0
M  V30 8852 H 853.893 -3.29371 -2.12737 0
M  V30 8853 H 855.383 -2.8779 -3.026 0
M  V30 8854 N 855.82 0.285905 -1.54985 0
M  V30 8855 C 856.783 1.33625 -1.86218 0
M  V30 8856 C 857.783 1.42971 -0.735936 0
M  V30 8857 O 858.973 1.42345 -1.00417 0
M  V30 8858 C 856.105 2.71926 -2.05595 0
M  V30 8859 H 857.298 1.07167 -2.80099 0
M  V30 8860 H 854.851 0.523335 -1.47278 0
M  V30 8861 H 855.586 3.03583 -1.14053 0
M  V30 8862 H 855.371 2.6653 -2.87583 0
M  V30 8863 H 856.861 3.47841 -2.31077 0
M  V30 8864 N 857.298 1.47698 0.54982 0
M  V30 8865 C 858.526 1.5833 1.33188 0
M  V30 8866 C 858.941 0.236193 1.87317 0
M  V30 8867 O 858.298 -0.77167 1.65383 0
M  V30 8868 C 858.349 2.61438 2.49664 0
M  V30 8869 O 858.07 3.9092 1.97771 0
M  V30 8870 C 859.571 2.82324 3.41772 0
M  V30 8871 H 856.791 0.53443 0.405741 0
M  V30 8872 H 859.335 1.93375 0.665309 0
M  V30 8873 H 857.49 2.29307 3.12245 0
M  V30 8874 H 857.904 4.47323 2.73866 0
M  V30 8875 H 859.378 3.58316 4.19897 0
M  V30 8876 H 859.855 1.90416 3.95776 0
M  V30 8877 H 860.461 3.15682 2.85 0
M  V30 8878 N 858.776 -0.797141 1.35954 0
M  V30 8879 C 859.709 -1.91567 1.24005 0
M  V30 8880 C 860.687 -1.62112 0.125868 0
M  V30 8881 O 861.871 -1.86167 0.295638 0
M  V30 8882 C 858.998 -3.26204 0.911535 0
M  V30 8883 C 858.044 -3.74598 2.03909 0
M  V30 8884 S 858.877 -3.91276 3.656 0
M  V30 8885 C 860.033 -5.288 3.34846 0
M  V30 8886 H 860.266 -2.0141 2.18681 0
M  V30 8887 H 857.799 -0.955542 1.2128 0
M  V30 8888 H 859.757 -4.03979 0.728805 0
M  V30 8889 H 858.418 -3.14095 -0.0173159 0
M  V30 8890 H 857.611 -4.72137 1.7636 0
M  V30 8891 H 857.213 -3.03849 2.18064 0
M  V30 8892 H 859.505 -6.13117 2.8826 0
M  V30 8893 H 860.448 -5.61347 4.31619 0
M  V30 8894 H 860.856 -4.95534 2.70382 0
M  V30 8895 N 860.254 -1.20106 -1.0204 0
M  V30 8896 C 861.184 -0.970301 -2.12385 0
M  V30 8897 C 862.165 0.099378 -1.69809 0
M  V30 8898 O 863.35 -0.057365 -1.94115 0
M  V30 8899 C 860.48 -0.517431 -3.43424 0
M  V30 8900 C 859.434 -1.52992 -3.99722 0
M  V30 8901 C 858.76 -0.933817 -5.26483 0
M  V30 8902 C 860.06 -2.91257 -4.33551 0
M  V30 8903 H 861.754 -1.89316 -2.31948 0
M  V30 8904 H 859.3 -0.911655 -1.11467 0
M  V30 8905 H 861.253 -0.343243 -4.2 0
M  V30 8906 H 859.977 0.441049 -3.23608 0
M  V30 8907 H 858.636 -1.6914 -3.2525 0
M  V30 8908 H 858.284 0.0324763 -5.0299 0
M  V30 8909 H 857.984 -1.60999 -5.65113 0
M  V30 8910 H 859.508 -0.770614 -6.05718 0
M  V30 8911 H 860.922 -2.78642 -5.0103 0
M  V30 8912 H 859.319 -3.55745 -4.83286 0
M  V30 8913 H 860.389 -3.43269 -3.42483 0
M  V30 8914 N 861.732 1.21287 -1.00634 0
M  V30 8915 C 862.662 2.25973 -0.588089 0
M  V30 8916 C 863.643 1.65527 0.391764 0
M  V30 8917 O 864.828 1.92179 0.279452 0
M  V30 8918 C 861.958 3.47197 0.0847336 0
M  V30 8919 C 860.912 4.20168 -0.815039 0
M  V30 8920 C 860.238 5.34699 -0.00855393 0
M  V30 8921 C 861.538 4.77416 -2.11828 0
M  V30 8922 H 863.232 2.61212 -1.46317 0
M  V30 8923 H 860.778 1.25563 -0.704985 0
M  V30 8924 H 862.731 4.19602 0.388821 0
M  V30 8925 H 861.455 3.11092 0.994456 0
M  V30 8926 H 860.114 3.49614 -1.10297 0
M  V30 8927 H 859.762 4.94837 0.902499 0
M  V30 8928 H 859.462 5.84449 -0.607664 0
M  V30 8929 H 860.986 6.09914 0.289317 0
M  V30 8930 H 862.4 5.41694 -1.87725 0
M  V30 8931 H 860.797 5.37561 -2.66736 0
M  V30 8932 H 861.867 3.96724 -2.78816 0
M  V30 8933 N 863.21 0.781244 1.36873 0
M  V30 8934 C 864.14 0.188128 2.32741 0
M  V30 8935 C 865.121 -0.672326 1.56249 0
M  V30 8936 O 866.306 -0.607835 1.84442 0
M  V30 8937 C 863.436 -0.684341 3.40491 0
M  V30 8938 C 862.39 0.0755641 4.27933 0
M  V30 8939 C 861.716 -0.916968 5.26779 0
M  V30 8940 C 863.016 1.26006 5.06873 0
M  V30 8941 H 864.71 0.989016 2.82593 0
M  V30 8942 H 862.256 0.477038 1.35869 0
M  V30 8943 H 864.209 -1.10915 4.06541 0
M  V30 8944 H 862.933 -1.51785 2.89187 0
M  V30 8945 H 861.592 0.481258 3.63427 0
M  V30 8946 H 861.24 -1.74528 4.71751 0
M  V30 8947 H 860.94 -0.413 5.86147 0
M  V30 8948 H 862.464 -1.34052 5.95703 0
M  V30 8949 H 863.878 0.911425 5.66009 0
M  V30 8950 H 862.275 1.69676 5.75613 0
M  V30 8951 H 863.345 2.05948 4.38991 0
M  V30 8952 N 864.689 -1.48329 0.532571 0
M  V30 8953 C 865.619 -2.32485 -0.217511 0
M  V30 8954 C 866.6 -1.42255 -0.932598 0
M  V30 8955 O 867.785 -1.7114 -0.917873 0
M  V30 8956 C 864.915 -3.23509 -1.26329 0
M  V30 8957 C 863.869 -4.22784 -0.666191 0
M  V30 8958 C 863.195 -5.0296 -1.81482 0
M  V30 8959 C 864.495 -5.21031 0.363813 0
M  V30 8960 H 866.189 -2.95445 0.485014 0
M  V30 8961 H 863.735 -1.42075 0.234694 0
M  V30 8962 H 865.688 -3.81211 -1.79601 0
M  V30 8963 H 864.412 -2.58554 -1.99543 0
M  V30 8964 H 863.071 -3.66272 -0.15498 0
M  V30 8965 H 862.719 -4.34427 -2.5354 0
M  V30 8966 H 862.419 -5.70154 -1.4212 0
M  V30 8967 H 863.943 -5.63514 -2.35126 0
M  V30 8968 H 865.357 -5.73241 -0.0819079 0
M  V30 8969 H 863.754 -5.96292 0.674956 0
M  V30 8970 H 864.824 -4.6801 1.26865 0
M  V30 8971 N 866.167 -0.267825 -1.55308 0
M  V30 8972 C 867.578 0.231344 -1.85261 0
M  V30 8973 C 867.929 1.56006 -1.18982 0
M  V30 8974 O 867.054 2.1111 -0.475554 0
M  V30 8975 C 867.649 0.426537 -3.36104 0
M  V30 8976 C 866.208 0.869945 -3.66209 0
M  V30 8977 C 865.355 -0.0409522 -2.7727 0
M  V30 8978 H 868.306 -0.489821 -1.50952 0
M  V30 8979 H 868.327 1.26616 -3.58816 0
M  V30 8980 H 867.839 -0.540678 -3.84315 0
M  V30 8981 H 865.94 1.84889 -3.23492 0
M  V30 8982 H 866.053 0.712316 -4.73775 0
M  V30 8983 H 864.417 0.474097 -2.50249 0
M  V30 8984 H 865.2 -1.00392 -3.28293 0
M  V30 8985 N 867.645 1.57599 0.00500368 0
M  V30 8986 C 869.056 1.78462 0.54848 0
M  V30 8987 C 869.407 0.901869 1.74243 0
M  V30 8988 O 868.532 0.103014 2.16155 0
M  V30 8989 C 869.127 3.2365 1.00179 0
M  V30 8990 C 867.686 3.45627 1.49061 0
M  V30 8991 C 866.833 2.73794 0.439531 0
M  V30 8992 H 869.784 1.57151 -0.22118 0
M  V30 8993 H 869.805 3.31488 1.86805 0
M  V30 8994 H 869.317 3.87873 0.132607 0
M  V30 8995 H 867.418 2.86612 2.38085 0
M  V30 8996 H 867.531 4.54298 1.52152 0
M  V30 8997 H 865.895 2.38267 0.900043 0
M  V30 8998 H 866.678 3.40714 -0.420599 0
M  V30 8999 N 869.123 -0.277682 1.55134 0
M  V30 9000 C 870.053 -1.34742 1.90701 0
M  V30 9001 C 871.034 -1.51757 0.768354 0
M  V30 9002 O 872.219 -1.64879 1.02609 0
M  V30 9003 C 869.349 -2.70775 2.17481 0
M  V30 9004 C 868.303 -2.68497 3.33307 0
M  V30 9005 C 867.629 -4.08037 3.45557 0
M  V30 9006 C 868.929 -2.28178 4.69821 0
M  V30 9007 H 870.623 -1.05224 2.803 0
M  V30 9008 H 868.169 -0.504738 1.34864 0
M  V30 9009 H 870.122 -3.45719 2.40949 0
M  V30 9010 H 868.846 -3.01867 1.24676 0
M  V30 9011 H 867.505 -1.9601 3.09799 0
M  V30 9012 H 867.153 -4.36344 2.50226 0
M  V30 9013 H 866.853 -4.07409 4.23429 0
M  V30 9014 H 868.377 -4.84726 3.71312 0
M  V30 9015 H 869.791 -2.92843 4.92865 0
M  V30 9016 H 868.188 -2.3872 5.50575 0
M  V30 9017 H 869.258 -1.23308 4.6896 0
M  V30 9018 N 870.601 -1.47988 -0.541979 0
M  V30 9019 C 871.826 -1.59286 -1.32826 0
M  V30 9020 C 872.251 -0.24894 -1.86445 0
M  V30 9021 O 871.609 0.777581 -1.63778 0
M  V30 9022 C 871.657 -2.6334 -2.46343 0
M  V30 9023 O 870.761 -2.19667 -3.49028 0
M  V30 9024 H 870.102 -0.534543 -0.393903 0
M  V30 9025 H 872.632 -1.93885 -0.653427 0
M  V30 9026 H 872.642 -2.84238 -2.92699 0
M  V30 9027 H 871.317 -3.60913 -2.06675 0
M  V30 9028 H 869.894 -2.08932 -3.08872 0
M  V30 9029 N 872.079 0.78992 -1.36375 0
M  V30 9030 C 873.49 1.36506 -1.2737 0
M  V30 9031 C 873.841 1.96008 0.086711 0
M  V30 9032 O 872.966 1.92521 0.988159 0
M  V30 9033 C 873.561 2.48175 -2.30639 0
M  V30 9034 C 872.12 3.01506 -2.25325 0
M  V30 9035 C 871.267 1.74581 -2.15445 0
M  V30 9036 H 874.218 0.591606 -1.47261 0
M  V30 9037 H 874.239 3.27179 -1.94253 0
M  V30 9038 H 873.751 2.04838 -3.2964 0
M  V30 9039 H 871.852 3.49265 -1.29788 0
M  V30 9040 H 871.965 3.58355 -3.17992 0
M  V30 9041 H 870.329 1.96794 -1.61692 0
M  V30 9042 H 871.112 1.33373 -3.16333 0
M  V30 9043 N 873.557 1.20646 1.01402 0
M  V30 9044 C 874.805 1.01618 1.74695 0
M  V30 9045 C 875.126 -0.452438 1.89679 0
M  V30 9046 O 874.396 -1.32693 1.44116 0
M  V30 9047 H 872.976 0.373013 0.647202 0
M  V30 9048 H 875.638 1.518 1.22241 0
M  V30 9049 H 874.734 1.47666 2.74957 0
M  V30 9050 N 875.035 -1.20752 1.01276 0
M  V30 9051 C 875.998 -2.2162 0.584583 0
M  V30 9052 C 876.998 -1.57094 -0.343215 0
M  V30 9053 O 878.188 -1.73696 -0.132433 0
M  V30 9054 C 875.32 -3.40583 -0.146872 0
M  V30 9055 H 876.513 -2.61015 1.47686 0
M  V30 9056 H 874.066 -1.34148 0.802123 0
M  V30 9057 H 874.801 -3.06686 -1.05424 0
M  V30 9058 H 874.586 -3.88642 0.51958 0
M  V30 9059 H 876.076 -4.15339 -0.433924 0
M  V30 9060 N 876.513 -0.788492 -1.36457 0
M  V30 9061 C 877.443 -0.200468 -2.32638 0
M  V30 9062 C 878.424 0.664031 -1.56603 0
M  V30 9063 O 879.609 0.598045 -1.84762 0
M  V30 9064 C 876.739 0.666274 -3.40849 0
M  V30 9065 C 875.693 -0.0982574 -4.27887 0
M  V30 9066 C 875.019 0.889018 -5.27258 0
M  V30 9067 C 876.319 -1.28692 -5.06197 0
M  V30 9068 H 878.013 -1.00399 -2.82065 0
M  V30 9069 H 875.559 -0.484237 -1.35614 0
M  V30 9070 H 877.512 1.08757 -4.07124 0
M  V30 9071 H 876.236 1.50249 -2.89987 0
M  V30 9072 H 874.895 -0.500525 -3.63167 0
M  V30 9073 H 874.543 1.72024 -4.7267 0
M  V30 9074 H 874.243 0.381909 -5.86358 0
M  V30 9075 H 875.767 1.30891 -5.96406 0
M  V30 9076 H 877.181 -0.941429 -5.65517 0
M  V30 9077 H 875.578 -1.72726 -5.74705 0
M  V30 9078 H 876.648 -2.08273 -4.37893 0
M  V30 9079 N 877.991 1.48044 -0.54043 0
M  V30 9080 C 879.237 2.03392 -0.0183377 0
M  V30 9081 C 879.592 1.4091 1.31004 0
M  V30 9082 O 878.885 0.549375 1.83555 0
M  V30 9083 C 879.079 3.57085 0.150008 0
M  V30 9084 C 878.908 4.34468 -1.1605 0
M  V30 9085 C 877.678 4.75008 -1.72324 0
M  V30 9086 C 879.876 4.70641 -2.07368 0
M  V30 9087 N 877.858 5.36968 -2.97555 0
M  V30 9088 C 879.229 5.32728 -3.17176 0
M  V30 9089 C 881.284 4.52571 -2.07567 0
M  V30 9090 C 879.987 5.78654 -4.27261 0
M  V30 9091 C 882.013 4.99485 -3.16653 0
M  V30 9092 C 881.375 5.61606 -4.2518 0
M  V30 9093 H 877.474 0.780497 -0.0484652 0
M  V30 9094 H 880.058 1.80738 -0.724018 0
M  V30 9095 H 878.229 3.79542 0.824787 0
M  V30 9096 H 879.961 3.99071 0.672649 0
M  V30 9097 H 876.716 4.5644 -1.26331 0
M  V30 9098 H 877.14 5.72505 -3.61341 0
M  V30 9099 H 881.782 4.03914 -1.24952 0
M  V30 9100 H 879.5 6.26311 -5.10647 0
M  V30 9101 H 883.086 4.87286 -3.17874 0
M  V30 9102 H 881.966 5.97248 -5.08197 0
M  V30 9103 N 879.47 0.276058 1.55163 0
M  V30 9104 C 880.698 -0.343772 2.04024 0
M  V30 9105 C 881.113 -1.49397 1.15438 0
M  V30 9106 O 880.47 -1.81662 0.174692 0
M  V30 9107 C 880.521 -0.823885 3.51986 0
M  V30 9108 O 880.242 0.280507 4.37201 0
M  V30 9109 C 881.743 -1.51143 4.16738 0
M  V30 9110 H 878.963 -0.07828 0.666418 0
M  V30 9111 H 881.507 0.408427 2.0038 0
M  V30 9112 H 879.662 -1.52617 3.56071 0
M  V30 9113 H 880.076 -0.0887831 5.24425 0
M  V30 9114 H 881.55 -1.79878 5.2187 0
M  V30 9115 H 882.027 -2.44327 3.64967 0
M  V30 9116 H 882.633 -0.852975 4.16659 0
M  V30 9117 N 880.948 -1.576 0.00335426 0
M  V30 9118 C 881.911 -2.07576 -0.971838 0
M  V30 9119 C 882.911 -0.985796 -1.27038 0
M  V30 9120 O 884.101 -1.24833 -1.21501 0
M  V30 9121 C 881.233 -2.52003 -2.29581 0
M  V30 9122 H 882.426 -2.95008 -0.539481 0
M  V30 9123 H 879.979 -1.54381 -0.244186 0
M  V30 9124 H 880.714 -1.67825 -2.77498 0
M  V30 9125 H 880.499 -3.31609 -2.09231 0
M  V30 9126 H 881.989 -2.90983 -2.99531 0
M  V30 9127 N 882.426 0.269451 -1.5528 0
M  V30 9128 C 883.389 1.31642 -1.87625 0
M  V30 9129 C 884.389 1.42182 -0.751058 0
M  V30 9130 O 885.579 1.41272 -1.01921 0
M  V30 9131 C 882.711 2.6973 -2.08467 0
M  V30 9132 H 883.904 1.0419 -2.81219 0
M  V30 9133 H 881.457 0.507685 -1.47825 0
M  V30 9134 H 882.192 3.02356 -1.17266 0
M  V30 9135 H 881.977 2.63465 -2.90394 0
M  V30 9136 H 883.467 3.4537 -2.34753 0
M  V30 9137 N 883.904 1.48273 0.534124 0
M  V30 9138 C 884.836 1.5857 1.65494 0
M  V30 9139 C 885.849 0.470266 1.5586 0
M  V30 9140 O 887.038 0.740928 1.62396 0
M  V30 9141 C 884.138 1.49554 3.04117 0
M  V30 9142 C 883.311 2.76066 3.39273 0
M  V30 9143 C 882.37 2.60562 4.57159 0
M  V30 9144 O 881.396 3.34438 4.60587 0
M  V30 9145 N 882.598 1.69906 5.55079 0
M  V30 9146 H 885.363 2.55226 1.57099 0
M  V30 9147 H 882.924 1.44944 0.721303 0
M  V30 9148 H 884.916 1.36882 3.80848 0
M  V30 9149 H 883.486 0.608895 3.06613 0
M  V30 9150 H 882.706 3.03332 2.51761 0
M  V30 9151 H 883.994 3.60006 3.59546 0
M  V30 9152 H 883.392 1.09079 5.55084 0
M  V30 9153 H 881.949 1.63175 6.31044 0
M  V30 9154 N 885.382 -0.782676 1.36792 0
M  V30 9155 C 886.345 -1.8772 1.31507 0
M  V30 9156 C 887.345 -1.59269 0.221349 0
M  V30 9157 O 888.535 -1.67555 0.476544 0
M  V30 9158 C 885.667 -3.24641 1.04025 0
M  V30 9159 H 886.86 -1.9382 2.28853 0
M  V30 9160 H 884.413 -0.981226 1.21662 0
M  V30 9161 H 885.148 -3.24221 0.0716439 0
M  V30 9162 H 884.933 -3.46681 1.8318 0
M  V30 9163 H 886.423 -4.04711 1.02949 0
M  V30 9164 N 886.86 -1.21182 -1.00761 0
M  V30 9165 C 887.79 -0.992773 -2.11344 0
M  V30 9166 C 888.771 0.0813618 -1.69905 0
M  V30 9167 O 889.956 -0.0779503 -1.94043 0
M  V30 9168 C 887.086 -0.553826 -3.42856 0
M  V30 9169 C 886.04 -1.57223 -3.98077 0
M  V30 9170 C 885.366 -0.989605 -5.25463 0
M  V30 9171 C 886.666 -2.95839 -4.30438 0
M  V30 9172 H 888.36 -1.91766 -2.29927 0
M  V30 9173 H 885.906 -0.923426 -1.10494 0
M  V30 9174 H 887.859 -0.387771 -4.19612 0
M  V30 9175 H 886.583 0.406702 -3.24058 0
M  V30 9176 H 885.242 -1.7258 -3.23437 0
M  V30 9177 H 884.89 -0.0208743 -5.02996 0
M  V30 9178 H 884.59 -1.66984 -5.63374 0
M  V30 9179 H 886.114 -0.834815 -6.04866 0
M  V30 9180 H 887.528 -2.8394 -4.98047 0
M  V30 9181 H 885.925 -3.60851 -4.79486 0
M  V30 9182 H 886.995 -3.46882 -3.38823 0
M  V30 9183 N 888.338 1.20213 -1.01915 0
M  V30 9184 C 889.566 1.93622 -0.729255 0
M  V30 9185 C 889.981 1.74923 0.710444 0
M  V30 9186 O 889.338 1.06484 1.48214 0
M  V30 9187 C 889.389 3.45651 -1.05865 0
M  V30 9188 O 889.11 3.63741 -2.44181 0
M  V30 9189 C 890.611 4.36201 -0.790176 0
M  V30 9190 H 887.831 0.615333 -0.267594 0
M  V30 9191 H 890.375 1.52633 -1.36101 0
M  V30 9192 H 888.53 3.84511 -0.47225 0
M  V30 9193 H 888.944 4.57702 -2.56143 0
M  V30 9194 H 890.418 5.41516 -1.07071 0
M  V30 9195 H 890.895 4.38334 0.275609 0
M  V30 9196 H 891.501 4.03008 -1.35885 0
M  V30 9197 N 889.816 0.795718 1.36037 0
M  V30 9198 C 890.746 0.212803 2.32528 0
M  V30 9199 C 891.727 -0.655716 1.56953 0
M  V30 9200 O 892.912 -0.588238 1.85077 0
M  V30 9201 C 890.042 -0.648189 3.41198 0
M  V30 9202 C 888.996 0.120948 4.27829 0
M  V30 9203 C 888.322 -0.861044 5.27722 0
M  V30 9204 C 889.622 1.31375 5.05508 0
M  V30 9205 H 891.316 1.01893 2.81528 0
M  V30 9206 H 888.862 0.491422 1.35355 0
M  V30 9207 H 890.815 -1.06597 4.07695 0
M  V30 9208 H 889.539 -1.48709 2.9078 0
M  V30 9209 H 888.198 0.519777 3.62897 0
M  V30 9210 H 887.846 -1.69515 4.73575 0
M  V30 9211 H 887.546 -0.350808 5.86552 0
M  V30 9212 H 889.07 -1.27726 5.97092 0
M  V30 9213 H 890.484 0.971406 5.6501 0
M  V30 9214 H 888.881 1.75772 5.73781 0
M  V30 9215 H 889.951 2.10593 4.36782 0
M  V30 9216 O 891.333 -1.46044 0.689439 0
M  V30 9217 H 892.024 -1.92374 0.226226 0
M  V30 END ATOM
M  V30 BEGIN BOND
M  V30 END BOND
M  V30 END CTAB
M  END
$$$$
