drugbank_target|Q8IBI3 Proteasome subunit alpha type (DB11638)
 OpenBabel12092121113D

  0  0  0     0  0            999 V3000
M  V30 BEGIN CTAB
M  V30 COUNTS 3980 4009 0 0 0
M  V30 BEGIN ATOM
M  V30 1 H -0.908 1.98254 -0.117106 0
M  V30 2 N 0 1.576 0 0
M  V30 3 C 0.933 2.03868 1.02534 0
M  V30 4 C 1.911 0.928543 1.3348 0
M  V30 5 O 3.095 1.19667 1.45644 0
M  V30 6 C 0.222 2.43627 2.35294 0
M  V30 7 C -0.732 3.65373 2.2001 0
M  V30 8 S 0.101 5.13292 1.52614 0
M  V30 9 C 1.257 5.56322 2.86805 0
M  V30 10 H 1.49 2.90518 0.631377 0
M  V30 11 H -0.977 1.52953 0.210867 0
M  V30 12 H 0.981 2.67203 3.11629 0
M  V30 13 H -0.358 1.57376 2.7183 0
M  V30 14 H -1.165 3.90944 3.18086 0
M  V30 15 H -1.563 3.418 1.51819 0
M  V30 16 H 0.729 5.58782 3.83104 0
M  V30 17 H 1.672 6.56266 2.65933 0
M  V30 18 H 2.08 4.83886 2.90714 0
M  V30 19 N 1.4781 -0.272755 1.55222 0
M  V30 20 C 2.7251 -1.00433 1.7584 0
M  V30 21 C 3.0531 -1.86275 0.559629 0
M  V30 22 O 2.3081 -1.90269 -0.457857 0
M  V30 23 C 2.6071 -1.91642 3.01675 0
M  V30 24 C 2.2731 -1.21548 4.34208 0
M  V30 25 C 0.9351 -1.02166 4.70229 0
M  V30 26 C 3.2871 -0.716684 5.16249 0
M  V30 27 C 0.6151 -0.316334 5.85847 0
M  V30 28 C 2.9671 -0.0249476 6.32595 0
M  V30 29 C 1.6311 0.180579 6.67256 0
M  V30 30 H 0.9011 -0.367509 0.643443 0
M  V30 31 H 3.5481 -0.276596 1.89492 0
M  V30 32 H 1.8531 -2.71037 2.82924 0
M  V30 33 H 3.5501 -2.48369 3.14824 0
M  V30 34 H 0.1401 -1.37645 4.05896 0
M  V30 35 H 4.3241 -0.854047 4.88896 0
M  V30 36 H -0.4199 -0.146378 6.11225 0
M  V30 37 H 3.7541 0.369311 6.9542 0
M  V30 38 H 1.3811 0.729098 7.56696 0
M  V30 39 N 2.9562 -1.48159 -0.537278 0
M  V30 40 C 4.1812 -1.59707 -1.32319 0
M  V30 41 C 4.6062 -0.254859 -1.86365 0
M  V30 42 O 3.9642 0.772378 -1.64024 0
M  V30 43 C 4.0122 -2.6412 -2.45505 0
M  V30 44 O 3.1162 -2.20774 -3.48328 0
M  V30 45 H 2.4572 -0.535791 -0.392204 0
M  V30 46 H 4.9872 -1.94092 -0.647268 0
M  V30 47 H 4.9972 -2.85166 -2.91795 0
M  V30 48 H 3.6722 -3.61567 -2.05528 0
M  V30 49 H 2.2492 -2.09911 -3.08207 0
M  V30 50 N 4.4343 0.785586 -1.36625 0
M  V30 51 C 5.6623 1.57448 -1.3423 0
M  V30 52 C 6.0773 1.88649 0.0755653 0
M  V30 53 O 5.4343 1.50414 1.03354 0
M  V30 54 C 5.4853 2.89316 -2.16745 0
M  V30 55 O 5.2063 2.59459 -3.53005 0
M  V30 56 C 6.7073 3.83606 -2.22174 0
M  V30 57 H 3.9273 0.488226 -0.4603 0
M  V30 58 H 6.4713 0.974733 -1.79775 0
M  V30 59 H 4.6263 3.4575 -1.74745 0
M  V30 60 H 5.0403 3.43804 -3.96105 0
M  V30 61 H 6.5143 4.73181 -2.8426 0
M  V30 62 H 6.9913 4.21734 -1.22627 0
M  V30 63 H 7.5973 3.33104 -2.64427 0
M  V30 64 N 5.9124 1.20967 1.01018 0
M  V30 65 C 7.3284 0.965905 1.27053 0
M  V30 66 C 7.5284 -0.350785 1.98423 0
M  V30 67 O 6.5844 -1.07773 2.28344 0
M  V30 68 C 7.8974 2.15294 2.09926 0
M  V30 69 C 9.4454 2.19463 2.23171 0
M  V30 70 C 9.9204 3.3767 3.09424 0
M  V30 71 N 11.4114 3.37724 3.17012 0
M  V30 72 C 12.1464 4.25837 3.83993 0
M  V30 73 N 11.6424 5.24138 4.53047 0
M  V30 74 N 13.4354 4.1366 3.80581 0
M  V30 75 H 5.5864 2.0565 0.531194 0
M  V30 76 H 7.8494 0.90024 0.297106 0
M  V30 77 H 7.5554 3.10684 1.64828 0
M  V30 78 H 7.4294 2.13923 3.10672 0
M  V30 79 H 9.8164 1.24632 2.6749 0
M  V30 80 H 9.8974 2.2488 1.21912 0
M  V30 81 H 9.5414 4.32791 2.65808 0
M  V30 82 H 9.4714 3.29491 4.10784 0
M  V30 83 H 11.9624 2.6658 2.6785 0
M  V30 84 H 12.2754 5.87684 5.01844 0
M  V30 85 H 10.6204 5.28068 4.5185 0
M  V30 86 H 13.8114 3.36127 3.25785 0
M  V30 87 H 13.9844 4.82538 4.32505 0
M  V30 88 N 7.3905 -1.2043 1.01659 0
M  V30 89 C 8.6155 -1.94318 0.724942 0
M  V30 90 C 9.0405 -1.74266 -0.708034 0
M  V30 91 O 8.3985 -1.03694 -1.48719 0
M  V30 92 C 8.4465 -3.44486 1.06591 0
M  V30 93 O 7.5505 -4.12017 0.177599 0
M  V30 94 H 6.8915 -0.60708 0.26898 0
M  V30 95 H 9.4215 -1.52861 1.35995 0
M  V30 96 H 9.4315 -3.95106 1.01762 0
M  V30 97 H 8.1065 -3.58404 2.10997 0
M  V30 98 H 6.6835 -3.71821 0.283421 0
M  V30 99 N 8.8686 -0.792821 -1.36206 0
M  V30 100 C 9.7786 -0.194808 -2.3379 0
M  V30 101 C 10.7946 0.654869 -1.61206 0
M  V30 102 O 11.9706 0.569856 -1.9317 0
M  V30 103 C 9.0356 0.657721 -3.40404 0
M  V30 104 C 8.0966 -0.210849 -4.28782 0
M  V30 105 C 7.3296 0.601086 -5.30304 0
M  V30 106 O 7.5526 1.83682 -5.40016 0
M  V30 107 O 6.4866 -0.000808277 -6.019 0
M  V30 108 H 10.3126 -1.00172 -2.86704 0
M  V30 109 H 7.8976 -0.554341 -1.38735 0
M  V30 110 H 9.7796 1.14375 -4.05581 0
M  V30 111 H 8.4546 1.44247 -2.89784 0
M  V30 112 H 7.3616 -0.743714 -3.66633 0
M  V30 113 H 8.6946 -0.959195 -4.82763 0
M  V30 114 N 10.3467 1.47872 -0.545128 0
M  V30 115 C 11.5767 2.06589 -0.0210534 0
M  V30 116 C 11.9847 1.39997 1.27269 0
M  V30 117 O 11.3277 0.486421 1.77143 0
M  V30 118 C 11.3897 3.58574 0.257933 0
M  V30 119 C 11.0537 4.47132 -0.944573 0
M  V30 120 C 12.0507 4.85986 -1.84699 0
M  V30 121 C 9.7357 4.88821 -1.15584 0
M  V30 122 C 11.7297 5.65314 -2.94446 0
M  V30 123 C 9.4167 5.67916 -2.25642 0
M  V30 124 C 10.4147 6.06073 -3.14905 0
M  V30 125 O 10.1027 6.83578 -4.23057 0
M  V30 126 H 9.8347 0.674971 -0.0372899 0
M  V30 127 H 12.3887 1.91037 -0.754599 0
M  V30 128 H 10.6187 3.72295 1.04564 0
M  V30 129 H 12.3077 3.99356 0.72592 0
M  V30 130 H 13.0737 4.54388 -1.69577 0
M  V30 131 H 8.9527 4.58595 -0.470279 0
M  V30 132 H 12.4967 5.95016 -3.64145 0
M  V30 133 H 8.3937 5.98927 -2.40742 0
M  V30 134 H 9.1617 7.01954 -4.20954 0
M  V30 135 N 11.8248 0.280983 1.55075 0
M  V30 136 C 13.1018 -0.386207 1.91749 0
M  V30 137 C 13.4818 -1.73264 1.20594 0
M  V30 138 O 12.8298 -2.26034 0.334784 0
M  V30 139 C 13.0398 -0.520687 3.45094 0
M  V30 140 C 14.3878 -0.800865 4.16979 0
M  V30 141 O 15.4118 -0.605271 3.5102 0
M  V30 142 O 14.2708 -1.1753 5.33712 0
M  V30 143 H 11.3648 -0.212408 0.799257 0
M  V30 144 H 13.9108 0.327568 1.66509 0
M  V30 145 H 12.6828 0.426633 3.88967 0
M  V30 146 H 12.3058 -1.2837 3.76307 0
M  V30 147 N 13.3029 -1.57598 0.00835791 0
M  V30 148 C 14.7189 -1.55764 -0.347822 0
M  V30 149 C 14.9189 -1.01186 -1.74252 0
M  V30 150 O 13.9749 -0.649371 -2.44007 0
M  V30 151 C 15.2879 -2.99927 -0.215407 0
M  V30 152 C 16.8359 -3.11656 -0.289725 0
M  V30 153 C 17.3109 -4.57621 -0.18634 0
M  V30 154 N 18.8019 -4.62557 -0.243978 0
M  V30 155 C 19.5369 -5.73094 -0.18745 0
M  V30 156 N 19.0329 -6.92753 -0.0810331 0
M  V30 157 N 20.8259 -5.61588 -0.239925 0
M  V30 158 H 12.9769 -1.91411 0.92062 0
M  V30 159 H 15.2399 -0.879562 0.353659 0
M  V30 160 H 14.9459 -3.43729 0.744512 0
M  V30 161 H 14.8199 -3.63865 -0.994097 0
M  V30 162 H 17.2069 -2.67779 -1.24009 0
M  V30 163 H 17.2879 -2.5048 0.51898 0
M  V30 164 H 16.9319 -5.02174 0.760519 0
M  V30 165 H 16.8619 -5.16752 -1.01364 0
M  V30 166 H 19.3529 -3.76481 -0.327217 0
M  V30 167 H 19.6659 -7.72787 -0.0440241 0
M  V30 168 H 18.0109 -6.94984 -0.0465419 0
M  V30 169 H 21.2019 -4.66996 -0.321317 0
M  V30 170 H 21.3749 -6.47714 -0.192407 0
M  V30 171 N 14.781 0.264519 -1.55364 0
M  V30 172 C 16.029 0.993021 -1.76021 0
M  V30 173 C 16.35 1.86511 -0.569099 0
M  V30 174 O 15.62 1.91438 0.415735 0
M  V30 175 H 14.2 0.369639 -0.649135 0
M  V30 176 H 16.862 0.286707 -1.9278 0
M  V30 177 H 15.958 1.62502 -2.66457 0
M  V30 178 N 16.2591 1.48442 0.529413 0
M  V30 179 C 17.5051 1.5672 1.28711 0
M  V30 180 C 17.8381 0.2406 1.92704 0
M  V30 181 O 17.1131 -0.753454 1.79313 0
M  V30 182 C 17.3961 2.70587 2.37603 0
M  V30 183 C 17.2491 4.12953 1.78297 0
M  V30 184 C 18.5681 2.80212 3.39366 0
M  V30 185 H 15.6871 0.570474 0.466613 0
M  V30 186 H 18.3291 1.80617 0.589706 0
M  V30 187 H 16.4791 2.50342 2.97088 0
M  V30 188 H 18.1511 4.44639 1.22858 0
M  V30 189 H 16.3941 4.19927 1.0883 0
M  V30 190 H 17.0651 4.88448 2.57144 0
M  V30 191 H 19.5411 2.98553 2.89836 0
M  V30 192 H 18.4171 3.61611 4.12951 0
M  V30 193 H 18.6781 1.88393 3.99951 0
M  V30 194 N 17.7372 -0.778329 1.37039 0
M  V30 195 C 18.6852 -1.91278 1.32345 0
M  V30 196 C 19.6792 -1.68051 0.213331 0
M  V30 197 O 20.8852 -1.75922 0.38098 0
M  V30 198 H 17.2602 -0.628909 0.412283 0
M  V30 199 H 19.2312 -1.92355 2.28127 0
M  V30 200 C 17.9802 -3.28455 1.14073 0
M  V30 201 H 17.3032 -3.46901 1.98746 0
M  V30 202 H 18.7432 -4.08152 1.14837 0
M  V30 203 C 17.2022 -3.36548 -0.154015 0
M  V30 204 O 17.7322 -3.85186 -1.13993 0
M  V30 205 N 15.9382 -2.89894 -0.202475 0
M  V30 206 H 15.4852 -2.50504 0.600476 0
M  V30 207 H 15.4432 -2.9569 -1.06841 0
M  V30 208 N 19.2153 -1.21501 -1.00376 0
M  V30 209 C 20.4433 -1.059 -1.77744 0
M  V30 210 C 20.8583 0.391125 -1.84704 0
M  V30 211 O 20.2153 1.27133 -1.30933 0
M  V30 212 C 20.2663 -1.65111 -3.21591 0
M  V30 213 O 19.9873 -3.0445 -3.15027 0
M  V30 214 C 21.4883 -1.54637 -4.15454 0
M  V30 215 H 18.7083 -0.371825 -0.558558 0
M  V30 216 H 21.2523 -1.60865 -1.26264 0
M  V30 217 H 19.4073 -1.14235 -3.70175 0
M  V30 218 H 19.8213 -3.3278 -4.0541 0
M  V30 219 H 21.2953 -2.00808 -5.14179 0
M  V30 220 H 21.7723 -0.501022 -4.36333 0
M  V30 221 H 22.3783 -2.04767 -3.72761 0
M  V30 222 N 20.6934 1.19889 -1.02296 0
M  V30 223 C 21.9404 1.8942 -0.715972 0
M  V30 224 C 22.2684 1.79251 0.754944 0
M  V30 225 O 21.5234 1.17526 1.56481 0
M  V30 226 C 21.8224 3.39883 -1.10518 0
M  V30 227 C 21.4884 3.70254 -2.57337 0
M  V30 228 C 20.1504 3.78254 -2.97452 0
M  V30 229 C 22.5024 3.84052 -3.52354 0
M  V30 230 C 19.8304 3.97514 -4.31509 0
M  V30 231 C 22.1824 4.04824 -4.86108 0
M  V30 232 C 20.8464 4.11054 -5.25919 0
M  V30 233 H 20.1164 0.693138 -0.261993 0
M  V30 234 H 22.7634 1.42012 -1.28472 0
M  V30 235 H 21.0684 3.8915 -0.454953 0
M  V30 236 H 22.7654 3.9199 -0.845261 0
M  V30 237 H 19.3554 3.64632 -2.25258 0
M  V30 238 H 23.5394 3.77221 -3.22518 0
M  V30 239 H 18.7954 4.00574 -4.61898 0
M  V30 240 H 22.9694 4.14442 -5.59653 0
M  V30 241 H 20.5964 4.2573 -6.29808 0
M  V30 242 N 22.1715 0.800033 1.35784 0
M  V30 243 C 23.3965 0.388511 2.03729 0
M  V30 244 C 23.8215 -0.990481 1.5991 0
M  V30 245 O 23.1795 -1.64013 0.772612 0
M  V30 246 C 23.2275 0.4726 3.5749 0
M  V30 247 O 22.3315 -0.51646 4.09153 0
M  V30 248 H 21.6725 0.163271 0.643614 0
M  V30 249 H 24.2025 1.0841 1.73518 0
M  V30 250 H 24.2125 0.34003 4.06581 0
M  V30 251 H 22.8875 1.47848 3.88734 0
M  V30 252 H 21.4645 -0.344673 3.71304 0
M  V30 253 N 23.6496 -1.47581 0.552962 0
M  V30 254 C 25.0606 -1.86324 0.118463 0
M  V30 255 C 25.4116 -1.46006 -1.3106 0
M  V30 256 O 24.5366 -0.861182 -1.98526 0
M  V30 257 C 25.1316 -3.3816 0.20821 0
M  V30 258 C 23.6906 -3.7601 -0.171226 0
M  V30 259 C 22.8376 -2.71634 0.557686 0
M  V30 260 H 25.7886 -1.39159 0.762928 0
M  V30 261 H 25.8096 -3.76141 -0.574278 0
M  V30 262 H 25.3216 -3.67473 1.24841 0
M  V30 263 H 23.4226 -3.52313 -1.21269 0
M  V30 264 H 23.5356 -4.78745 0.184379 0
M  V30 265 H 21.8996 -2.547 0.00125792 0
M  V30 266 H 22.6826 -3.0379 1.59896 0
M  V30 267 N 25.1277 -0.289203 -1.54924 0
M  V30 268 C 26.0377 0.601863 -2.26748 0
M  V30 269 C 27.0537 1.15834 -1.2984 0
M  V30 270 O 28.2297 1.18564 -1.62802 0
M  V30 271 C 25.2947 1.76299 -2.98529 0
M  V30 272 C 24.3557 1.24178 -4.10948 0
M  V30 273 C 23.5887 2.34757 -4.79296 0
M  V30 274 O 23.8117 3.54411 -4.46933 0
M  V30 275 O 22.7457 2.02115 -5.66951 0
M  V30 276 H 26.5717 0.0195879 -3.03694 0
M  V30 277 H 24.1567 -0.0560868 -1.49295 0
M  V30 278 H 26.0387 2.43973 -3.43592 0
M  V30 279 H 24.7137 2.33209 -2.24488 0
M  V30 280 H 23.6207 0.531104 -3.70311 0
M  V30 281 H 24.9537 0.718252 -4.86931 0
M  V30 282 N 26.6058 1.57591 -0.0167156 0
M  V30 283 C 27.8538 1.90906 0.663285 0
M  V30 284 C 28.1748 0.892509 1.73376 0
M  V30 285 O 27.4448 -0.0677623 1.95783 0
M  V30 286 H 26.0248 0.704637 0.247983 0
M  V30 287 H 28.6868 1.94803 -0.0615909 0
M  V30 288 H 27.7828 2.9116 1.12393 0
M  V30 289 N 28.0839 -0.256276 1.55502 0
M  V30 290 C 29.4999 -0.604325 1.47716 0
M  V30 291 C 29.6999 -1.88763 0.705039 0
M  V30 292 O 28.7559 -2.51445 0.230613 0
M  V30 293 C 30.0689 -0.715756 2.92057 0
M  V30 294 C 31.6169 -0.808706 3.02372 0
M  V30 295 C 32.0919 -0.951777 4.48001 0
M  V30 296 N 33.5829 -1.01688 4.519 0
M  V30 297 C 34.3179 -1.14668 5.61817 0
M  V30 298 N 33.8139 -1.24261 6.81565 0
M  V30 299 N 35.6069 -1.1791 5.49594 0
M  V30 300 H 27.7579 0.586291 2.04148 0
M  V30 301 H 30.0209 0.201015 0.926443 0
M  V30 302 H 29.7269 0.157027 3.51349 0
M  V30 303 H 29.6009 -1.59071 3.42018 0
M  V30 304 H 31.9879 -1.67195 2.43166 0
M  V30 305 H 32.0689 0.0912063 2.55637 0
M  V30 306 H 31.7129 -0.0931291 5.07815 0
M  V30 307 H 31.6429 -1.86659 4.92408 0
M  V30 308 H 34.1339 -0.954468 3.65648 0
M  V30 309 H 34.4469 -1.34046 7.61086 0
M  V30 310 H 32.7919 -1.21236 6.84344 0
M  V30 311 H 35.9829 -1.10057 4.54978 0
M  V30 312 H 36.1559 -1.27681 6.35296 0
M  V30 313 N 29.562 -1.4872 -0.521534 0
M  V30 314 C 30.492 -1.66771 -1.63431 0
M  V30 315 C 31.473 -0.516499 -1.62069 0
M  V30 316 O 32.658 -0.750013 -1.79132 0
M  V30 317 C 29.788 -1.71515 -3.01993 0
M  V30 318 C 28.742 -2.86222 -3.18216 0
M  V30 319 C 28.068 -2.76061 -4.57924 0
M  V30 320 C 29.368 -4.27419 -3.00184 0
M  V30 321 H 31.062 -2.59932 -1.48579 0
M  V30 322 H 28.608 -1.25089 -0.713358 0
M  V30 323 H 30.561 -1.82731 -3.7972 0
M  V30 324 H 29.285 -0.749393 -3.17886 0
M  V30 325 H 27.944 -2.74575 -2.42908 0
M  V30 326 H 27.592 -1.77437 -4.70665 0
M  V30 327 H 27.292 -3.53037 -4.69722 0
M  V30 328 H 28.816 -2.89256 -5.37739 0
M  V30 329 H 30.23 -4.39855 -3.67697 0
M  V30 330 H 28.627 -5.05458 -3.2347 0
M  V30 331 H 29.697 -4.43293 -1.96518 0
M  V30 332 N 31.0401 0.771051 -1.3745 0
M  V30 333 C 32.2871 1.52963 -1.32697 0
M  V30 334 C 32.6151 1.94299 0.0883274 0
M  V30 335 O 31.8701 1.64397 1.0617 0
M  V30 336 C 32.1691 2.80676 -2.2126 0
M  V30 337 C 31.8351 2.58389 -3.69521 0
M  V30 338 C 30.4971 2.52019 -4.09927 0
M  V30 339 C 32.8491 2.38469 -4.63446 0
M  V30 340 C 30.1771 2.23721 -5.42371 0
M  V30 341 C 32.5291 2.11694 -5.96128 0
M  V30 342 C 31.1931 2.03769 -6.35637 0
M  V30 343 H 30.4631 0.559732 -0.485573 0
M  V30 344 H 33.1101 0.888083 -1.69662 0
M  V30 345 H 31.4151 3.49392 -1.77291 0
M  V30 346 H 33.1121 3.38557 -2.14895 0
M  V30 347 H 29.7021 2.6421 -3.37478 0
M  V30 348 H 33.8861 2.4238 -4.33089 0
M  V30 349 H 29.1421 2.16081 -5.71943 0
M  V30 350 H 33.3161 1.9528 -6.6846 0
M  V30 351 H 30.9431 1.81606 -7.38189 0
M  V30 352 N 32.5182 1.22032 0.997298 0
M  V30 353 C 33.4502 0.944263 2.08845 0
M  V30 354 C 34.4632 -0.0754663 1.62625 0
M  V30 355 O 35.6522 0.157994 1.77799 0
M  V30 356 C 32.7522 0.397723 3.36558 0
M  V30 357 C 31.9252 1.47362 4.11829 0
M  V30 358 C 30.9842 0.934951 5.17827 0
M  V30 359 O 30.0102 1.62016 5.45655 0
M  V30 360 N 31.2122 -0.245895 5.79979 0
M  V30 361 H 33.9772 1.88363 2.33109 0
M  V30 362 H 31.5382 1.12661 1.16272 0
M  V30 363 H 33.5302 0.0227771 4.04694 0
M  V30 364 H 32.1002 -0.446646 3.09393 0
M  V30 365 H 31.3202 2.02208 3.38386 0
M  V30 366 H 32.6082 2.19764 4.58891 0
M  V30 367 H 32.0062 -0.819475 5.59733 0
M  V30 368 H 30.5632 -0.562272 6.4937 0
M  V30 369 N 33.9963 -1.19345 1.0293 0
M  V30 370 C 35.2423 -1.89318 0.727083 0
M  V30 371 C 35.5753 -1.79446 -0.742483 0
M  V30 372 O 34.8503 -1.1871 -1.54072 0
M  V30 373 C 35.1333 -3.40238 1.17942 0
M  V30 374 C 34.9863 -3.58979 2.71024 0
M  V30 375 C 36.3053 -4.33479 0.760548 0
M  V30 376 H 33.4243 -0.687475 0.265606 0
M  V30 377 H 36.0663 -1.40477 1.2793 0
M  V30 378 H 34.2163 -3.81964 0.709608 0
M  V30 379 H 35.8883 -3.26421 3.25955 0
M  V30 380 H 34.1313 -3.02018 3.11396 0
M  V30 381 H 34.8023 -4.64823 2.9773 0
M  V30 382 H 37.2783 -3.99469 1.16464 0
M  V30 383 H 36.1543 -5.37664 1.10493 0
M  V30 384 H 36.4153 -4.40813 -0.337063 0
M  V30 385 N 35.4744 -0.807222 -1.35358 0
M  V30 386 C 36.3844 -0.219594 -2.3357 0
M  V30 387 C 37.4004 0.637734 -1.61892 0
M  V30 388 O 38.5764 0.549336 -1.93763 0
M  V30 389 C 35.6414 0.62158 -3.41083 0
M  V30 390 C 34.7024 -0.256315 -4.28534 0
M  V30 391 C 33.9354 0.544807 -5.30912 0
M  V30 392 O 34.1584 1.77944 -5.41934 0
M  V30 393 O 33.0924 -0.0646478 -6.01865 0
M  V30 394 H 36.9184 -1.03208 -2.85625 0
M  V30 395 H 34.5034 -0.569025 -1.38139 0
M  V30 396 H 36.3854 1.10067 -4.06772 0
M  V30 397 H 35.0604 1.41165 -2.91297 0
M  V30 398 H 33.9674 -0.782559 -3.65823 0
M  V30 399 H 35.3004 -1.01034 -4.81719 0
M  V30 400 N 36.9525 1.47285 -0.560781 0
M  V30 401 C 38.1825 2.06555 -0.0429638 0
M  V30 402 C 38.5905 1.41339 1.25777 0
M  V30 403 O 37.9335 0.505182 1.76617 0
M  V30 404 C 37.9955 3.58827 0.219887 0
M  V30 405 C 37.6595 4.46105 -0.991944 0
M  V30 406 C 38.6565 4.84 -1.89843 0
M  V30 407 C 36.3415 4.87567 -1.20762 0
M  V30 408 C 38.3355 5.6216 -3.00425 0
M  V30 409 C 36.0225 5.65491 -2.31653 0
M  V30 410 C 37.0205 6.02699 -3.21315 0
M  V30 411 O 36.7085 6.79052 -4.30283 0
M  V30 412 H 36.4405 0.674537 -0.0444468 0
M  V30 413 H 38.9945 1.90225 -0.774818 0
M  V30 414 H 37.2245 3.73383 1.00609 0
M  V30 415 H 38.9135 4.00103 0.683522 0
M  V30 416 H 39.6795 4.52564 -1.74387 0
M  V30 417 H 35.5585 4.5807 -0.518893 0
M  V30 418 H 39.1025 5.9112 -3.70436 0
M  V30 419 H 34.9995 5.9634 -2.47081 0
M  V30 420 H 35.7675 6.9745 -4.28376 0
M  V30 421 N 38.4306 0.297415 1.54768 0
M  V30 422 C 39.3936 -0.567375 2.22066 0
M  V30 423 C 40.3936 -1.06409 1.20556 0
M  V30 424 O 41.5836 -0.960691 1.45315 0
M  V30 425 C 38.7156 -1.78517 2.90421 0
M  V30 426 H 39.9086 0.0205534 2.99893 0
M  V30 427 H 37.4616 0.0482163 1.56226 0
M  V30 428 H 38.1966 -2.41303 2.16664 0
M  V30 429 H 37.9816 -1.43669 3.64831 0
M  V30 430 H 39.4716 -2.39964 3.41771 0
M  V30 431 N 39.9087 -1.5758 0.0250728 0
M  V30 432 C 40.8387 -2.13007 -0.956575 0
M  V30 433 C 41.8197 -1.0452 -1.342 0
M  V30 434 O 43.0047 -1.32332 -1.42133 0
M  V30 435 C 40.1347 -2.65386 -2.24026 0
M  V30 436 C 39.0887 -3.78623 -1.99571 0
M  V30 437 C 38.4147 -4.17414 -3.3417 0
M  V30 438 C 39.7147 -5.04867 -1.33814 0
M  V30 439 H 41.4087 -2.9528 -0.494991 0
M  V30 440 H 38.9547 -1.42042 -0.236651 0
M  V30 441 H 40.9077 -3.02794 -2.93076 0
M  V30 442 H 39.6317 -1.80268 -2.72343 0
M  V30 443 H 38.2907 -3.41646 -1.32941 0
M  V30 444 H 37.9387 -3.29284 -3.80238 0
M  V30 445 H 37.6387 -4.93719 -3.18615 0
M  V30 446 H 39.1627 -4.57402 -4.04495 0
M  V30 447 H 40.5767 -5.39888 -1.92857 0
M  V30 448 H 38.9737 -5.86144 -1.28669 0
M  V30 449 H 40.0437 -4.83904 -0.310561 0
M  V30 450 N 41.3868 0.248026 -1.55636 0
M  V30 451 C 42.6348 0.974295 -1.77065 0
M  V30 452 C 42.9558 1.85897 -0.588849 0
M  V30 453 O 42.2258 1.91868 0.395407 0
M  V30 454 H 40.8058 0.362733 -0.653019 0
M  V30 455 H 43.4678 0.266244 -1.93073 0
M  V30 456 H 42.5638 1.59667 -2.68166 0
M  V30 457 N 42.8649 1.48995 0.513639 0
M  V30 458 C 43.8279 1.64229 1.59879 0
M  V30 459 C 44.8279 0.514696 1.5234 0
M  V30 460 O 46.0179 0.78087 1.55718 0
M  V30 461 C 43.1499 1.62783 2.99524 0
M  V30 462 H 44.3429 2.61004 1.47705 0
M  V30 463 H 41.8959 1.37837 0.736936 0
M  V30 464 H 42.6309 0.675461 3.17188 0
M  V30 465 H 42.4159 2.4466 3.06404 0
M  V30 466 H 43.9059 1.76669 3.78388 0
M  V30 467 N 44.343 -0.763751 1.37857 0
M  V30 468 C 45.592 -1.51789 1.32827 0
M  V30 469 C 45.905 -1.95426 -0.0823719 0
M  V30 470 O 47.111 -2.70298 -0.255172 0
M  V30 471 C 45.567 -2.74133 2.33193 0
M  V30 472 C 45.175 -2.37562 3.79827 0
M  V30 473 C 46.919 -3.52054 2.37188 0
M  V30 474 C 44.826 -3.56456 4.71904 0
M  V30 475 H 43.756 -0.569896 0.493695 0
M  V30 476 H 46.407 -0.835822 1.63359 0
M  V30 477 H 44.789 -3.4427 1.9569 0
M  V30 478 H 45.963 -1.75157 4.26212 0
M  V30 479 H 44.278 -1.72798 3.78853 0
M  V30 480 H 46.875 -4.40437 3.03182 0
M  V30 481 H 47.218 -3.92486 1.38782 0
M  V30 482 H 47.751 -2.88921 2.7344 0
M  V30 483 H 44.49 -3.21099 5.71468 0
M  V30 484 H 44.01 -4.17938 4.30218 0
M  V30 485 H 45.689 -4.23168 4.89426 0
M  V30 486 N 45.8211 -1.22559 -0.990812 0
M  V30 487 C 46.7681 -0.997519 -2.0813 0
M  V30 488 C 47.7381 0.0814702 -1.659 0
M  V30 489 O 48.9231 -0.0685424 -1.90677 0
M  V30 490 C 46.0631 -0.583615 -3.40129 0
M  V30 491 C 45.1761 -1.7336 -3.9569 0
M  V30 492 C 44.3111 -1.26748 -5.15857 0
M  V30 493 C 43.3501 -2.38888 -5.63559 0
M  V30 494 N 42.4871 -1.93308 -6.74964 0
M  V30 495 H 47.3271 -1.93099 -2.26973 0
M  V30 496 H 44.8641 -0.962114 -1.11273 0
M  V30 497 H 46.8221 -0.324801 -4.15934 0
M  V30 498 H 45.4521 0.312845 -3.2128 0
M  V30 499 H 44.5041 -2.10669 -3.16738 0
M  V30 500 H 45.8161 -2.57704 -4.27071 0
M  V30 501 H 44.9701 -0.966173 -5.98957 0
M  V30 502 H 43.7091 -0.394272 -4.86104 0
M  V30 503 H 42.7141 -2.69805 -4.79046 0
M  V30 504 H 43.9391 -3.26728 -5.95336 0
M  V30 505 H 41.8851 -1.08352 -6.4699 0
M  V30 506 H 41.8021 -2.71217 -7.05675 0
M  V30 507 H 43.0701 -1.66252 -7.61564 0
M  V30 508 N 47.2992 1.18797 -1.03562 0
M  V30 509 C 48.2292 2.24472 -0.643019 0
M  V30 510 C 49.2102 1.66433 0.351283 0
M  V30 511 O 50.3952 1.92803 0.232505 0
M  V30 512 C 47.5252 3.473 4.24935e-05 0
M  V30 513 C 46.4792 4.18055 -0.917257 0
M  V30 514 C 45.8052 5.34519 -0.138941 0
M  V30 515 C 47.1052 4.72109 -2.23407 0
M  V30 516 H 48.7992 2.57566 -1.52643 0
M  V30 517 H 46.3452 1.23806 -0.735394 0
M  V30 518 H 48.2982 4.20426 0.286383 0
M  V30 519 H 47.0222 3.13424 0.918299 0
M  V30 520 H 45.6812 3.46821 -1.1879 0
M  V30 521 H 45.3292 4.96891 0.781562 0
M  V30 522 H 45.0292 5.82794 -0.750005 0
M  V30 523 H 46.5532 6.10438 0.1405 0
M  V30 524 H 47.9672 5.36955 -2.00879 0
M  V30 525 H 46.3642 5.30897 -2.79765 0
M  V30 526 H 47.4342 3.89807 -2.88407 0
M  V30 527 N 48.7773 0.814389 1.34928 0
M  V30 528 C 50.0253 0.397636 1.9815 0
M  V30 529 C 50.3463 -1.04069 1.64908 0
M  V30 530 O 49.6163 -1.72121 0.93548 0
M  V30 531 H 48.1963 0.144043 0.732981 0
M  V30 532 H 50.8583 1.04195 1.6471 0
M  V30 533 H 49.9543 0.509688 3.0791 0
M  V30 534 N 50.2554 -1.46986 0.568584 0
M  V30 535 C 51.4804 -2.07335 0.0520528 0
M  V30 536 C 51.9054 -1.41675 -1.23733 0
M  V30 537 O 51.2634 -0.495623 -1.74394 0
M  V30 538 C 51.3114 -3.60417 -0.11501 0
M  V30 539 O 50.4154 -3.95309 -1.17492 0
M  V30 540 H 49.7564 -0.661597 0.0564385 0
M  V30 541 H 52.2864 -1.88837 0.787507 0
M  V30 542 H 52.2964 -4.06698 -0.325644 0
M  V30 543 H 50.9714 -4.07601 0.826675 0
M  V30 544 H 49.5484 -3.60757 -0.943869 0
M  V30 545 N 51.7335 -0.305618 -1.54608 0
M  V30 546 C 52.9615 0.304775 -2.04643 0
M  V30 547 C 53.3765 1.47167 -1.18268 0
M  V30 548 O 52.7335 1.81296 -0.209328 0
M  V30 549 C 52.7845 0.756564 -3.53495 0
M  V30 550 O 52.5055 -0.36389 -4.36586 0
M  V30 551 C 54.0065 1.43163 -4.19546 0
M  V30 552 H 51.2265 0.0655481 -0.667791 0
M  V30 553 H 53.7705 -0.446592 -1.99564 0
M  V30 554 H 51.9255 1.45794 -3.58919 0
M  V30 555 H 52.3395 -0.0113121 -5.24499 0
M  V30 556 H 53.8135 1.69886 -5.25207 0
M  V30 557 H 54.2905 2.37318 -3.69563 0
M  V30 558 H 54.8965 0.773307 -4.18211 0
M  V30 559 N 53.2116 1.57565 -0.0334293 0
M  V30 560 C 54.1746 2.09393 0.932048 0
M  V30 561 C 55.1746 1.00986 1.25134 0
M  V30 562 O 56.3646 1.27129 1.19096 0
M  V30 563 C 53.4966 2.56338 2.2473 0
M  V30 564 H 54.6896 2.95984 0.483085 0
M  V30 565 H 52.2426 1.54819 0.21468 0
M  V30 566 H 52.9776 1.7309 2.74245 0
M  V30 567 H 52.7626 3.35542 2.02865 0
M  V30 568 H 54.2526 2.96646 2.93923 0
M  V30 569 N 54.6897 -0.239769 1.55765 0
M  V30 570 C 55.9357 -0.968234 1.78194 0
M  V30 571 C 56.2687 -1.84701 0.599938 0
M  V30 572 O 55.5437 -1.9031 -0.401524 0
M  V30 573 C 55.8267 -1.8227 3.10564 0
M  V30 574 C 55.6797 -0.971633 4.3918 0
M  V30 575 C 56.9987 -2.80388 3.39221 0
M  V30 576 H 54.1177 -0.350572 0.648281 0
M  V30 577 H 56.7597 -0.238259 1.885 0
M  V30 578 H 54.9097 -2.44507 3.01908 0
M  V30 579 H 56.5817 -0.367408 4.59835 0
M  V30 580 H 54.8247 -0.276276 4.32919 0
M  V30 581 H 55.4957 -1.60346 5.28198 0
M  V30 582 H 57.9717 -2.28287 3.47885 0
M  V30 583 H 56.8477 -3.3729 4.33044 0
M  V30 584 H 57.1087 -3.57212 2.60484 0
M  V30 585 N 56.1678 -1.49265 -0.50573 0
M  V30 586 C 57.4158 -1.582 -1.25766 0
M  V30 587 C 57.7368 -0.268482 -1.93143 0
M  V30 588 O 57.0068 0.711833 -1.8251 0
M  V30 589 H 55.5868 -0.582873 -0.467191 0
M  V30 590 H 58.2488 -1.85865 -0.586525 0
M  V30 591 H 57.3448 -2.37563 -2.02412 0
M  V30 592 N 57.6459 0.756429 -1.3826 0
M  V30 593 C 58.8949 1.51082 -1.3363 0
M  V30 594 C 59.2079 1.95467 0.0720068 0
M  V30 595 O 60.4139 2.7043 0.240834 0
M  V30 596 C 58.8699 2.72893 -2.34644 0
M  V30 597 C 58.4779 2.35544 -3.81081 0
M  V30 598 C 60.2219 3.50791 -2.39052 0
M  V30 599 C 58.1289 3.53948 -4.73787 0
M  V30 600 H 57.0589 0.56727 -0.49671 0
M  V30 601 H 59.7099 0.827147 -1.638 0
M  V30 602 H 58.0919 3.43227 -1.97513 0
M  V30 603 H 59.2659 1.72894 -4.27135 0
M  V30 604 H 57.5809 1.70786 -3.79764 0
M  V30 605 H 60.1779 4.38823 -3.05513 0
M  V30 606 H 60.5209 3.91745 -1.40861 0
M  V30 607 H 61.0539 2.87467 -2.74968 0
M  V30 608 H 57.7929 3.18064 -5.73163 0
M  V30 609 H 57.3129 4.15651 -4.32428 0
M  V30 610 H 58.9919 4.20566 -4.91663 0
M  V30 611 N 59.124 1.23083 0.984299 0
M  V30 612 C 60.364 1.07226 1.74017 0
M  V30 613 C 60.728 -0.384766 1.88105 0
M  V30 614 O 61.929 -0.664411 2.60459 0
M  V30 615 C 60.2 1.77348 3.10294 0
M  V30 616 S 61.759 1.77014 4.01512 0
M  V30 617 H 58.577 0.383819 0.598502 0
M  V30 618 H 61.179 1.56158 1.17622 0
M  V30 619 H 59.883 2.82506 2.97689 0
M  V30 620 H 59.414 1.28682 3.71759 0
M  V30 621 H 61.429 0.825956 4.89277 0
M  V30 622 N 60.6021 -1.18246 1.0419 0
M  V30 623 C 61.8481 -1.88536 0.747122 0
M  V30 624 C 62.1811 -1.80223 -0.723409 0
M  V30 625 O 61.4561 -1.20337 -1.52804 0
M  V30 626 C 61.7391 -3.38968 1.21544 0
M  V30 627 C 61.5921 -3.56084 2.74816 0
M  V30 628 C 62.9111 -4.32648 0.806482 0
M  V30 629 H 60.0301 -0.684619 0.272883 0
M  V30 630 H 62.6721 -1.39113 1.29413 0
M  V30 631 H 60.8221 -3.8119 0.750081 0
M  V30 632 H 62.4941 -3.22946 3.29399 0
M  V30 633 H 60.7371 -2.98699 3.14582 0
M  V30 634 H 61.4081 -4.61639 3.02644 0
M  V30 635 H 63.8841 -3.98211 1.20695 0
M  V30 636 H 62.7601 -5.36462 1.1619 0
M  V30 637 H 63.0211 -4.41146 -0.29029 0
M  V30 638 N 62.0802 -0.821533 -1.34494 0
M  V30 639 C 63.0282 -0.230702 -2.31453 0
M  V30 640 C 64.0222 0.627793 -1.57338 0
M  V30 641 O 65.2282 0.519288 -1.72347 0
M  V30 642 H 61.6032 -0.0558577 -0.749923 0
M  V30 643 H 63.5742 -1.06332 -2.78812 0
M  V30 644 C 62.3232 0.59391 -3.4259 0
M  V30 645 H 61.6462 -0.0573588 -3.99759 0
M  V30 646 H 63.0862 0.973446 -4.12674 0
M  V30 647 C 61.5452 1.76568 -2.86924 0
M  V30 648 O 62.0752 2.8638 -2.81691 0
M  V30 649 N 60.2812 1.58198 -2.43766 0
M  V30 650 H 59.8282 0.68872 -2.48222 0
M  V30 651 H 59.7862 2.36752 -2.06871 0
M  V30 652 N 63.5583 1.46682 -0.576371 0
M  V30 653 C 64.8353 1.95599 0.00703437 0
M  V30 654 C 65.2153 1.51904 1.46589 0
M  V30 655 O 64.5633 0.766755 2.15251 0
M  V30 656 C 64.7733 3.4864 -0.158404 0
M  V30 657 C 66.1213 4.24594 -0.0229439 0
M  V30 658 O 67.1453 3.56094 -0.0869173 0
M  V30 659 O 66.0043 5.46373 0.118015 0
M  V30 660 H 63.0983 0.825275 0.053384 0
M  V30 661 H 65.6443 1.56996 -0.644244 0
M  V30 662 H 64.4163 3.7331 -1.17282 0
M  V30 663 H 64.0393 3.94057 0.5296 0
M  V30 664 N 65.0364 0.313813 1.54444 0
M  V30 665 C 66.2844 -0.291099 1.99993 0
M  V30 666 C 66.6054 -1.53418 1.20366 0
M  V30 667 O 65.8754 -1.93544 0.302927 0
M  V30 668 H 64.4554 -0.110552 0.738774 0
M  V30 669 H 67.1174 0.428106 1.9014 0
M  V30 670 H 66.2134 -0.554268 3.07139 0
M  V30 671 N 66.5145 -1.57545 0.0417849 0
M  V30 672 C 67.7605 -1.92601 -0.635021 0
M  V30 673 C 68.0935 -0.919627 -1.71045 0
M  V30 674 O 67.3685 0.0557892 -1.9442 0
M  V30 675 C 67.6515 -3.38085 -1.23979 0
M  V30 676 C 67.5045 -4.49467 -0.173057 0
M  V30 677 C 68.8235 -3.83776 -2.15416 0
M  V30 678 H 65.9425 -0.700397 -0.229374 0
M  V30 679 H 68.5845 -1.89728 0.101633 0
M  V30 680 H 66.7345 -3.40664 -1.86762 0
M  V30 681 H 68.4065 -4.59018 0.458312 0
M  V30 682 H 66.6495 -4.30909 0.499996 0
M  V30 683 H 67.3205 -5.48323 -0.636054 0
M  V30 684 H 69.7965 -3.83013 -1.62605 0
M  V30 685 H 68.6725 -4.8624 -2.54679 0
M  V30 686 H 68.9335 -3.19998 -3.05047 0
M  V30 687 N 67.9926 0.231505 -1.5589 0
M  V30 688 C 69.2416 0.955346 -1.7764 0
M  V30 689 C 69.5546 1.85893 -0.608546 0
M  V30 690 O 70.7606 2.62067 -0.70943 0
M  V30 691 C 69.2166 1.74886 -3.14552 0
M  V30 692 C 68.8246 0.891915 -4.39032 0
M  V30 693 C 70.5686 2.46452 -3.45633 0
M  V30 694 C 68.4756 1.68221 -5.66971 0
M  V30 695 H 67.4056 0.360446 -0.662265 0
M  V30 696 H 70.0566 0.209516 -1.823 0
M  V30 697 H 68.4386 2.53723 -3.04041 0
M  V30 698 H 69.6126 0.144793 -4.60572 0
M  V30 699 H 67.9276 0.288863 -4.15397 0
M  V30 700 H 70.5246 3.06061 -4.38441 0
M  V30 701 H 70.8676 3.18841 -2.67668 0
M  V30 702 H 71.4006 1.74613 -3.57428 0
M  V30 703 H 68.1396 1.00178 -6.478 0
M  V30 704 H 67.6596 2.4042 -5.49507 0
M  V30 705 H 69.3386 2.24544 -6.06786 0
M  V30 706 N 69.4707 1.49531 0.497807 0
M  V30 707 C 70.4007 1.6935 1.60757 0
M  V30 708 C 71.3817 0.542218 1.61227 0
M  V30 709 O 72.5667 0.778417 1.77917 0
M  V30 710 C 69.6967 1.76298 2.99226 0
M  V30 711 C 68.6507 2.91248 3.13622 0
M  V30 712 C 67.9767 2.83312 4.53474 0
M  V30 713 C 69.2767 4.3214 2.93346 0
M  V30 714 H 70.9707 2.62263 1.44425 0
M  V30 715 H 68.5167 1.26208 0.693367 0
M  V30 716 H 70.4697 1.88749 3.76765 0
M  V30 717 H 69.1937 0.799871 3.16654 0
M  V30 718 H 67.8527 2.78404 2.38509 0
M  V30 719 H 67.5007 1.84902 4.67782 0
M  V30 720 H 67.2007 3.60465 4.64046 0
M  V30 721 H 68.7247 2.97775 5.33069 0
M  V30 722 H 70.1387 4.45649 3.60652 0
M  V30 723 H 68.5357 5.1054 3.15387 0
M  V30 724 H 69.6057 4.46363 1.89441 0
M  V30 725 N 70.9488 -0.749086 1.3866 0
M  V30 726 C 71.9118 -1.84457 1.36045 0
M  V30 727 C 72.9118 -1.58682 0.260122 0
M  V30 728 O 74.1018 -1.66343 0.517261 0
M  V30 729 C 71.2338 -3.22008 1.11911 0
M  V30 730 H 72.4268 -1.88182 2.33512 0
M  V30 731 H 69.9798 -0.951266 1.24019 0
M  V30 732 H 70.7148 -3.2395 0.150686 0
M  V30 733 H 70.4998 -3.42111 1.91579 0
M  V30 734 H 71.9898 -4.0208 1.12788 0
M  V30 735 N 72.4269 -1.23603 -0.977757 0
M  V30 736 C 73.6519 -1.09735 -1.75991 0
M  V30 737 C 74.0769 0.346858 -1.84874 0
M  V30 738 O 73.4349 1.25093 -1.3123 0
M  V30 739 C 73.4829 -1.73051 -3.16363 0
M  V30 740 O 72.5869 -0.994452 -4.0023 0
M  V30 741 H 71.9279 -0.384476 -0.541364 0
M  V30 742 H 74.4579 -1.6371 -1.2272 0
M  V30 743 H 74.4679 -1.78398 -3.66931 0
M  V30 744 H 73.1429 -2.78137 -3.09213 0
M  V30 745 H 71.7199 -1.01812 -3.58732 0
M  V30 746 N 73.905 1.17692 -1.04816 0
M  V30 747 C 74.815 2.25229 -0.65643 0
M  V30 748 C 75.831 1.71018 0.320761 0
M  V30 749 O 77.007 2.00649 0.173805 0
M  V30 750 C 74.072 3.46684 -0.0332629 0
M  V30 751 C 73.133 4.15997 -1.06042 0
M  V30 752 C 72.366 5.31654 -0.466893 0
M  V30 753 O 72.589 5.65777 0.724758 0
M  V30 754 O 71.523 5.89831 -1.1993 0
M  V30 755 H 75.349 2.61016 -1.55255 0
M  V30 756 H 72.934 1.24919 -0.81949 0
M  V30 757 H 74.816 4.20234 0.313256 0
M  V30 758 H 73.491 3.12703 0.836566 0
M  V30 759 H 72.398 3.44482 -1.45886 0
M  V30 760 H 73.731 4.53996 -1.90127 0
M  V30 761 N 75.3831 0.828654 1.34056 0
M  V30 762 C 76.7991 0.515135 1.51058 0
M  V30 763 C 76.9991 -0.959581 1.77184 0
M  V30 764 O 76.0551 -1.74382 1.82612 0
M  V30 765 C 77.3681 1.37963 2.67183 0
M  V30 766 C 78.9161 1.37735 2.81066 0
M  V30 767 C 79.3911 2.22645 4.00241 0
M  V30 768 N 80.8821 2.203 4.07458 0
M  V30 769 C 81.6171 2.82744 4.98842 0
M  V30 770 N 81.1131 3.54201 5.9541 0
M  V30 771 N 82.9061 2.72268 4.91759 0
M  V30 772 H 75.0571 1.78343 1.15358 0
M  V30 773 H 77.3201 0.760304 0.566252 0
M  V30 774 H 77.0261 2.42714 2.54525 0
M  V30 775 H 76.9001 1.0484 3.62338 0
M  V30 776 H 79.2871 0.337593 2.93163 0
M  V30 777 H 79.3681 1.74859 1.86703 0
M  V30 778 H 79.0121 3.26674 3.88905 0
M  V30 779 H 78.9421 1.82869 4.93829 0
M  V30 780 H 81.4331 1.68327 3.38341 0
M  V30 781 H 81.7461 3.9908 6.61782 0
M  V30 782 H 80.0911 3.58308 5.95517 0
M  V30 783 H 83.2821 2.16014 4.15278 0
M  V30 784 H 83.4551 3.21219 5.62781 0
M  V30 785 N 76.8612 -1.46375 0.584142 0
M  V30 786 C 78.2772 -1.57694 0.245929 0
M  V30 787 C 78.4772 -1.57903 -1.25175 0
M  V30 788 O 77.5332 -1.49676 -2.03355 0
M  V30 789 C 78.8462 -2.87028 0.896402 0
M  V30 790 C 80.3942 -3.00662 0.870127 0
M  V30 791 C 80.8692 -4.32734 1.50017 0
M  V30 792 N 82.3602 -4.39436 1.46458 0
M  V30 793 C 83.0952 -5.40248 1.92144 0
M  V30 794 N 82.5912 -6.47726 2.4581 0
M  V30 795 N 84.3842 -5.31459 1.83052 0
M  V30 796 H 76.5352 -1.44483 1.55687 0
M  V30 797 H 78.7982 -0.689291 0.650831 0
M  V30 798 H 78.5042 -2.9269 1.95002 0
M  V30 799 H 78.3782 -3.75014 0.405486 0
M  V30 800 H 80.7652 -2.94581 -0.174871 0
M  V30 801 H 80.8462 -2.14148 1.39908 0
M  V30 802 H 80.4902 -4.39573 2.54437 0
M  V30 803 H 80.4202 -5.18025 0.946432 0
M  V30 804 H 82.9112 -3.62367 1.07231 0
M  V30 805 H 83.2242 -7.20863 2.78525 0
M  V30 806 H 81.5692 -6.48542 2.49836 0
M  V30 807 H 84.7602 -4.46396 1.40883 0
M  V30 808 H 84.9332 -6.09881 2.18973 0
M  V30 809 N 78.3393 -0.321999 -1.54275 0
M  V30 810 C 79.5883 0.281931 -1.9972 0
M  V30 811 C 79.9013 1.53369 -1.21397 0
M  V30 812 O 81.1073 2.21352 -1.57211 0
M  V30 813 C 79.5633 0.5529 -3.55628 0
M  V30 814 C 79.1713 -0.681721 -4.42783 0
M  V30 815 C 80.9153 1.11687 -4.09544 0
M  V30 816 C 78.8223 -0.382742 -5.9016 0
M  V30 817 H 77.7523 0.109124 -0.746062 0
M  V30 818 H 80.4033 -0.43398 -1.78294 0
M  V30 819 H 78.7853 1.32896 -3.73035 0
M  V30 820 H 79.9593 -1.45723 -4.37151 0
M  V30 821 H 78.2743 -1.1658 -3.99748 0
M  V30 822 H 80.8713 1.35515 -5.17242 0
M  V30 823 H 81.2143 2.06575 -3.61431 0
M  V30 824 H 81.7473 0.402032 -3.95763 0
M  V30 825 H 78.4863 -1.30076 -6.42464 0
M  V30 826 H 78.0063 0.355094 -5.98748 0
M  V30 827 H 79.6853 0.00800157 -6.47 0
M  V30 828 N 79.8174 1.5752 -0.0501392 0
M  V30 829 C 81.0424 1.97376 0.636997 0
M  V30 830 C 81.4674 0.927466 1.63645 0
M  V30 831 O 80.8254 -0.10941 1.8097 0
M  V30 832 C 80.8734 3.36304 1.30123 0
M  V30 833 O 79.9774 3.34156 2.41689 0
M  V30 834 H 79.3184 0.642998 0.165679 0
M  V30 835 H 81.8484 2.04258 -0.118233 0
M  V30 836 H 81.8584 3.73008 1.65315 0
M  V30 837 H 80.5334 4.11993 0.568746 0
M  V30 838 H 79.1104 3.09196 2.08451 0
M  V30 839 N 81.2955 -0.223234 1.56011 0
M  V30 840 C 82.5205 -0.968978 1.83373 0
M  V30 841 C 82.9455 -1.77227 0.630254 0
M  V30 842 O 82.3035 -1.76345 -0.420959 0
M  V30 843 C 82.3515 -1.86363 3.08709 0
M  V30 844 O 81.4555 -2.95873 2.87285 0
M  V30 845 H 80.7965 -0.274461 0.604622 0
M  V30 846 H 83.3265 -0.237056 2.03222 0
M  V30 847 H 83.3365 -2.27376 3.38768 0
M  V30 848 H 82.0115 -1.27319 3.95933 0
M  V30 849 H 80.5885 -2.58818 2.68454 0
M  V30 850 N 82.7736 -1.49793 -0.48987 0
M  V30 851 C 84.0016 -1.63568 -1.26701 0
M  V30 852 C 84.4166 -0.311465 -1.86213 0
M  V30 853 O 83.7736 0.704416 -1.68357 0
M  V30 854 C 83.8246 -2.71284 -2.38929 0
M  V30 855 O 83.5456 -3.9857 -1.81861 0
M  V30 856 C 85.0466 -2.95864 -3.3012 0
M  V30 857 H 82.2666 -0.550342 -0.383881 0
M  V30 858 H 84.8106 -1.95898 -0.586864 0
M  V30 859 H 82.9656 -2.417 -3.02753 0
M  V30 860 H 83.3796 -4.57993 -2.55622 0
M  V30 861 H 84.8536 -3.74941 -4.05121 0
M  V30 862 H 85.3306 -2.06206 -3.87783 0
M  V30 863 H 85.9366 -3.26907 -2.72051 0
M  V30 864 N 84.2517 0.741722 -1.39055 0
M  V30 865 C 85.1817 1.869 -1.39966 0
M  V30 866 C 86.1627 1.6804 -0.26392 0
M  V30 867 O 87.3477 1.88458 -0.468755 0
M  V30 868 C 84.4777 3.24572 -1.23574 0
M  V30 869 C 83.4317 3.58056 -2.34477 0
M  V30 870 C 82.7577 4.94593 -2.0318 0
M  V30 871 C 84.0577 3.61716 -3.76774 0
M  V30 872 H 85.7517 1.86395 -2.34302 0
M  V30 873 H 83.2977 0.895361 -1.1278 0
M  V30 874 H 85.2507 4.031 -1.22834 0
M  V30 875 H 83.9747 3.25587 -0.257045 0
M  V30 876 H 82.6337 2.81854 -2.34423 0
M  V30 877 H 82.2817 4.92181 -1.03765 0
M  V30 878 H 81.9817 5.17964 -2.77465 0
M  V30 879 H 83.5057 5.75486 -2.04079 0
M  V30 880 H 84.9197 4.30335 -3.78794 0
M  V30 881 H 83.3167 3.96603 -4.50362 0
M  V30 882 H 84.3867 2.61672 -4.08235 0
M  V30 883 N 85.7298 1.2412 0.971189 0
M  V30 884 C 86.9788 1.07284 1.70801 0
M  V30 885 C 87.2918 -0.388902 1.91695 0
M  V30 886 O 88.4978 -0.677379 2.62914 0
M  V30 887 C 86.9538 1.87145 3.07416 0
M  V30 888 C 86.5618 3.37707 2.94377 0
M  V30 889 C 88.3058 1.78828 3.84995 0
M  V30 890 C 86.2128 4.09925 4.26281 0
M  V30 891 H 85.1428 0.397854 0.64049 0
M  V30 892 H 87.7938 1.4817 1.0825 0
M  V30 893 H 86.1758 1.39071 3.70777 0
M  V30 894 H 87.3498 3.93335 2.4005 0
M  V30 895 H 85.6648 3.46938 2.30267 0
M  V30 896 H 88.2618 2.30089 4.82662 0
M  V30 897 H 88.6048 0.75284 4.09436 0
M  V30 898 H 89.1378 2.24563 3.28354 0
M  V30 899 H 85.8768 5.13813 4.07033 0
M  V30 900 H 85.3968 3.59083 4.80437 0
M  V30 901 H 87.0758 4.1673 4.94919 0
M  V30 902 N 87.2079 -1.17134 1.05439 0
M  V30 903 C 88.1179 -2.24878 0.668365 0
M  V30 904 C 89.1339 -1.71186 -0.311687 0
M  V30 905 O 90.3099 -2.00738 -0.163161 0
M  V30 906 C 87.3749 -3.46662 0.051648 0
M  V30 907 C 86.4359 -4.15429 1.08246 0
M  V30 908 C 85.6689 -5.31399 0.495082 0
M  V30 909 O 85.8919 -5.66153 -0.694743 0
M  V30 910 O 84.8259 -5.89187 1.23056 0
M  V30 911 H 88.6519 -2.60189 1.56637 0
M  V30 912 H 86.2369 -1.24482 0.826104 0
M  V30 913 H 88.1189 -4.20394 -0.290966 0
M  V30 914 H 86.7939 -3.13142 -0.819971 0
M  V30 915 H 85.7009 -3.43704 1.47711 0
M  V30 916 H 87.0339 -4.52982 1.92532 0
M  V30 917 N 88.686 -0.835752 -1.33615 0
M  V30 918 C 89.633 -0.26473 -2.29277 0
M  V30 919 C 90.603 0.617712 -1.54187 0
M  V30 920 O 91.788 0.556641 -1.825 0
M  V30 921 C 88.928 0.556777 -3.40579 0
M  V30 922 C 88.041 -0.349339 -4.30585 0
M  V30 923 C 87.176 0.482969 -5.29 0
M  V30 924 C 86.215 -0.421732 -6.10645 0
M  V30 925 N 85.352 0.372262 -7.01112 0
M  V30 926 H 90.192 -1.08582 -2.77514 0
M  V30 927 H 87.729 -0.546927 -1.36554 0
M  V30 928 H 89.687 1.04852 -4.03809 0
M  V30 929 H 88.317 1.34286 -2.93542 0
M  V30 930 H 87.369 -0.959372 -3.68104 0
M  V30 931 H 88.681 -1.04445 -4.87742 0
M  V30 932 H 87.835 1.03866 -5.97743 0
M  V30 933 H 86.574 1.21153 -4.72412 0
M  V30 934 H 85.579 -0.989464 -5.40823 0
M  V30 935 H 86.804 -1.14861 -6.69316 0
M  V30 936 H 84.75 1.08426 -6.46977 0
M  V30 937 H 84.667 -0.264198 -7.55538 0
M  V30 938 H 85.935 0.910293 -7.74167 0
M  V30 939 N 90.1641 1.46063 -0.591896 0
M  V30 940 C 91.4411 1.95595 -0.0137119 0
M  V30 941 C 91.8211 1.5345 1.4497 0
M  V30 942 O 91.1691 0.789543 2.14426 0
M  V30 943 C 91.3791 3.48453 -0.195373 0
M  V30 944 C 92.7271 4.24546 -0.0679765 0
M  V30 945 O 93.7511 3.55982 -0.124681 0
M  V30 946 O 92.6101 5.46467 0.0600579 0
M  V30 947 H 89.7041 0.825795 0.0446279 0
M  V30 948 H 92.2501 1.56303 -0.660859 0
M  V30 949 H 91.0221 3.72045 -1.21235 0
M  V30 950 H 90.6451 3.94597 0.487775 0
M  V30 951 N 91.6422 0.330177 1.54103 0
M  V30 952 C 92.8672 -0.274893 2.0557 0
M  V30 953 C 93.2922 -1.44487 1.20437 0
M  V30 954 O 92.6502 -1.80021 0.214991 0
M  V30 955 C 92.6982 -0.68079 3.54115 0
M  V30 956 O 91.8022 -1.7824 3.71893 0
M  V30 957 H 91.1432 -0.0483849 0.662235 0
M  V30 958 H 93.6732 0.480508 1.98878 0
M  V30 959 H 93.6832 -0.961635 3.96505 0
M  V30 960 H 92.3582 0.174903 4.15532 0
M  V30 961 H 90.9352 -1.49985 3.41407 0
M  V30 962 N 93.1203 -1.57491 0.0584922 0
M  V30 963 C 94.3663 -1.93264 -0.614558 0
M  V30 964 C 94.6993 -0.937717 -1.7006 0
M  V30 965 O 93.9743 0.0351652 -1.94468 0
M  V30 966 C 94.2573 -3.3938 -1.20386 0
M  V30 967 C 94.1103 -4.49625 -0.125375 0
M  V30 968 C 95.4293 -3.86039 -2.11334 0
M  V30 969 H 92.5483 -0.702791 -0.221933 0
M  V30 970 H 95.1903 -1.8961 0.12175 0
M  V30 971 H 93.3403 -3.42626 -1.83139 0
M  V30 972 H 95.0123 -4.58506 0.506971 0
M  V30 973 H 93.2553 -4.30354 0.545672 0
M  V30 974 H 93.9263 -5.48967 -0.577861 0
M  V30 975 H 96.4023 -3.84716 -1.58534 0
M  V30 976 H 95.2783 -4.88914 -2.49507 0
M  V30 977 H 95.5393 -3.23215 -3.01636 0
M  V30 978 N 94.5984 0.214957 -1.56127 0
M  V30 979 C 95.5084 1.28727 -1.96129 0
M  V30 980 C 96.5244 1.50916 -0.866044 0
M  V30 981 O 97.7004 1.63918 -1.17016 0
M  V30 982 C 94.7654 2.61569 -2.27558 0
M  V30 983 C 93.8264 2.47625 -3.50685 0
M  V30 984 C 93.0594 3.74132 -3.80606 0
M  V30 985 O 93.2824 4.77438 -3.12104 0
M  V30 986 O 92.2164 3.70849 -4.74083 0
M  V30 987 H 96.0424 0.977855 -2.87527 0
M  V30 988 H 93.6274 0.418358 -1.43423 0
M  V30 989 H 95.5094 3.40012 -2.48938 0
M  V30 990 H 94.1844 2.92178 -1.39332 0
M  V30 991 H 93.0914 1.67361 -3.34576 0
M  V30 992 H 94.4244 2.21954 -4.39315 0
M  V30 993 N 96.0765 1.50051 0.48192 0
M  V30 994 C 97.0235 1.68122 1.58125 0
M  V30 995 C 97.9935 0.522545 1.57666 0
M  V30 996 O 99.1785 0.751844 1.75362 0
M  V30 997 C 96.3185 1.77142 2.96167 0
M  V30 998 C 95.4315 3.0444 3.06497 0
M  V30 999 C 94.5665 3.04321 4.35387 0
M  V30 1000 C 93.6055 4.26118 4.3942 0
M  V30 1001 N 92.7425 4.238 5.59766 0
M  V30 1002 H 97.5825 2.6198 1.42022 0
M  V30 1003 H 95.1195 1.29877 0.690687 0
M  V30 1004 H 97.0775 1.80352 3.76203 0
M  V30 1005 H 95.7075 0.867329 3.1093 0
M  V30 1006 H 94.7595 3.10752 2.19402 0
M  V30 1007 H 96.0715 3.94426 3.05336 0
M  V30 1008 H 95.2255 3.062 5.23762 0
M  V30 1009 H 93.9645 2.12147 4.39141 0
M  V30 1010 H 92.9695 4.24463 3.49444 0
M  V30 1011 H 94.1945 5.19507 4.37366 0
M  V30 1012 H 92.1405 3.34474 5.64326 0
M  V30 1013 H 92.0575 5.07542 5.60301 0
M  V30 1014 H 93.3255 4.2981 6.50295 0
M  V30 1015 N 97.5546 -0.734337 1.39446 0
M  V30 1016 C 98.4846 -1.86155 1.40955 0
M  V30 1017 C 99.4656 -1.67898 0.272827 0
M  V30 1018 O 100.651 -1.88207 0.478743 0
M  V30 1019 C 97.7806 -3.23912 1.25294 0
M  V30 1020 C 96.7346 -3.56808 2.36373 0
M  V30 1021 C 96.0606 -4.93508 2.058 0
M  V30 1022 C 97.3606 -3.59713 3.78687 0
M  V30 1023 H 99.0546 -1.8515 2.35287 0
M  V30 1024 H 96.6006 -0.889367 1.13253 0
M  V30 1025 H 98.5536 -4.02443 1.2497 0
M  V30 1026 H 97.2776 -3.25446 0.274308 0
M  V30 1027 H 95.9366 -2.80606 2.35914 0
M  V30 1028 H 95.5846 -4.91623 1.06374 0
M  V30 1029 H 95.2846 -5.16486 2.80208 0
M  V30 1030 H 96.8086 -5.74396 2.07128 0
M  V30 1031 H 98.2226 -4.2832 3.81071 0
M  V30 1032 H 96.6196 -3.94209 4.52459 0
M  V30 1033 H 97.6896 -2.59504 4.09617 0
M  V30 1034 N 99.0327 -1.24633 -0.964593 0
M  V30 1035 C 99.9627 -1.06611 -2.07741 0
M  V30 1036 C 100.944 0.0218666 -1.70086 0
M  V30 1037 O 102.129 -0.145793 -1.93652 0
M  V30 1038 C 99.2587 -0.673444 -3.40708 0
M  V30 1039 C 98.2127 -1.71054 -3.92332 0
M  V30 1040 C 97.5387 -1.17285 -5.21678 0
M  V30 1041 C 98.8387 -3.10718 -4.19824 0
M  V30 1042 H 100.533 -1.99693 -2.23076 0
M  V30 1043 H 98.0787 -0.96152 -1.07195 0
M  V30 1044 H 100.032 -0.534345 -4.17998 0
M  V30 1045 H 98.7557 0.293073 -3.25282 0
M  V30 1046 H 97.4147 -1.83791 -3.17201 0
M  V30 1047 H 97.0627 -0.196847 -5.02615 0
M  V30 1048 H 96.7627 -1.86592 -5.57187 0
M  V30 1049 H 98.2867 -1.04593 -6.01575 0
M  V30 1050 H 99.7007 -3.01192 -4.87808 0
M  V30 1051 H 98.0977 -3.77406 -4.66567 0
M  V30 1052 H 99.1677 -3.58524 -3.26479 0
M  V30 1053 N 100.511 1.16574 -1.06058 0
M  V30 1054 C 101.736 1.91493 -0.796562 0
M  V30 1055 C 102.161 1.76773 0.642868 0
M  V30 1056 O 101.519 1.09142 1.44768 0
M  V30 1057 C 101.567 3.40293 -1.19303 0
M  V30 1058 O 100.671 4.11074 -0.330394 0
M  V30 1059 H 100.012 0.596678 -0.291326 0
M  V30 1060 H 102.542 1.47708 -1.41575 0
M  V30 1061 H 102.552 3.91057 -1.16356 0
M  V30 1062 H 101.227 3.50326 -2.24153 0
M  V30 1063 H 99.8038 3.70513 -0.421225 0
M  V30 1064 N 101.989 0.842826 1.3317 0
M  V30 1065 C 103.238 0.436738 1.96915 0
M  V30 1066 C 103.551 -1.01025 1.67491 0
M  V30 1067 O 104.757 -1.5212 2.24881 0
M  V30 1068 C 103.213 0.730021 3.52418 0
M  V30 1069 C 102.821 2.19195 3.90714 0
M  V30 1070 C 104.565 0.391076 4.22695 0
M  V30 1071 C 102.472 2.42907 5.39212 0
M  V30 1072 H 101.402 0.15958 0.736919 0
M  V30 1073 H 104.053 1.03196 1.51733 0
M  V30 1074 H 102.435 0.0643755 3.95948 0
M  V30 1075 H 103.609 2.8984 3.58231 0
M  V30 1076 H 101.924 2.49425 3.33431 0
M  V30 1077 H 104.521 0.545817 5.31907 0
M  V30 1078 H 104.864 -0.666294 4.10933 0
M  V30 1079 H 105.397 1.01212 3.84709 0
M  V30 1080 H 102.136 3.47224 5.55982 0
M  V30 1081 H 101.656 1.76827 5.73142 0
M  V30 1082 H 103.335 2.2626 6.06148 0
M  V30 1083 N 103.467 -1.45747 0.599634 0
M  V30 1084 C 104.744 -1.95585 0.0240846 0
M  V30 1085 C 105.124 -1.54217 -1.44154 0
M  V30 1086 O 104.472 -0.800903 -2.14004 0
M  V30 1087 C 104.682 -3.48344 0.21385 0
M  V30 1088 C 106.03 -4.24504 0.0904902 0
M  V30 1089 O 107.054 -3.55911 0.143558 0
M  V30 1090 O 105.913 -5.46491 -0.0310766 0
M  V30 1091 H 103.007 -0.82602 -0.0402478 0
M  V30 1092 H 105.553 -1.55951 0.669139 0
M  V30 1093 H 104.325 -3.71397 1.23206 0
M  V30 1094 H 103.948 -3.9485 -0.466842 0
M  V30 1095 N 104.945 -0.338344 -1.53925 0
M  V30 1096 C 106.222 0.314774 -1.93051 0
M  V30 1097 C 106.602 1.68669 -1.26941 0
M  V30 1098 O 105.95 2.24636 -0.418445 0
M  V30 1099 C 106.16 0.392249 -3.46789 0
M  V30 1100 C 107.508 0.645554 -4.19664 0
M  V30 1101 O 108.532 0.474575 -3.53024 0
M  V30 1102 O 107.391 0.976408 -5.37707 0
M  V30 1103 H 104.485 0.182598 -0.80659 0
M  V30 1104 H 107.031 -0.389141 -1.65178 0
M  V30 1105 H 105.803 -0.570702 -3.87116 0
M  V30 1106 H 105.426 1.14316 -3.80812 0
M  V30 1107 N 106.423 1.57458 -0.0668435 0
M  V30 1108 C 107.373 2.0896 0.912119 0
M  V30 1109 C 108.357 0.998186 1.26195 0
M  V30 1110 O 109.549 1.26133 1.24175 0
M  V30 1111 C 106.678 2.6508 2.18145 0
M  V30 1112 C 105.764 3.81218 1.85832 0
M  V30 1113 N 106.155 4.90378 1.23948 0
M  V30 1114 C 104.453 3.9042 2.15612 0
M  V30 1115 C 105.154 5.71279 1.09616 0
M  V30 1116 N 104.13 5.19389 1.60423 0
M  V30 1117 H 107.932 2.90749 0.42924 0
M  V30 1118 H 105.446 1.6182 0.137184 0
M  V30 1119 H 107.443 3.0029 2.89192 0
M  V30 1120 H 106.103 1.84736 2.67025 0
M  V30 1121 H 107.114 5.09847 0.909731 0
M  V30 1122 H 103.791 3.21043 2.66903 0
M  V30 1123 H 105.181 6.69085 0.614425 0
M  V30 1124 N 107.901 -0.206675 1.56239 0
M  V30 1125 C 109.15 -0.926964 1.79138 0
M  V30 1126 C 109.463 -1.84901 0.638043 0
M  V30 1127 O 110.669 -2.60906 0.751033 0
M  V30 1128 C 109.125 -1.6986 3.17294 0
M  V30 1129 C 108.733 -0.821956 4.40395 0
M  V30 1130 C 110.477 -2.40922 3.4951 0
M  V30 1131 C 108.384 -1.59179 5.69575 0
M  V30 1132 H 107.314 -0.349864 0.667915 0
M  V30 1133 H 109.965 -0.180487 1.8261 0
M  V30 1134 H 108.347 -2.48853 3.08039 0
M  V30 1135 H 109.521 -0.0715019 4.60745 0
M  V30 1136 H 107.836 -0.222741 4.15804 0
M  V30 1137 H 110.433 -2.99047 4.43255 0
M  V30 1138 H 110.776 -3.14542 2.72707 0
M  V30 1139 H 111.309 -1.68905 3.60161 0
M  V30 1140 H 108.048 -0.898589 6.49312 0
M  V30 1141 H 107.568 -2.31648 5.53262 0
M  V30 1142 H 109.247 -2.14862 6.10281 0
M  V30 1143 N 109.379 -1.50304 -0.473955 0
M  V30 1144 C 110.627 -1.60832 -1.22382 0
M  V30 1145 C 110.948 -0.30939 -1.9253 0
M  V30 1146 O 110.218 0.67296 -1.83978 0
M  V30 1147 H 108.798 -0.592652 -0.454723 0
M  V30 1148 H 111.46 -1.87068 -0.546968 0
M  V30 1149 H 110.556 -2.41803 -1.97327 0
M  V30 1150 N 110.857 0.726932 -1.39834 0
M  V30 1151 C 112.097 1.4992 -1.38936 0
M  V30 1152 C 112.461 1.91996 0.0126883 0
M  V30 1153 O 113.662 2.68399 0.146715 0
M  V30 1154 C 111.933 2.70013 -2.34153 0
M  V30 1155 S 113.492 3.59563 -2.51515 0
M  V30 1156 H 110.31 0.51271 -0.492595 0
M  V30 1157 H 112.912 0.85107 -1.76003 0
M  V30 1158 H 111.616 2.37254 -3.34871 0
M  V30 1159 H 111.147 3.39748 -1.98331 0
M  V30 1160 H 113.162 4.63973 -1.75909 0
M  V30 1161 N 112.336 1.25143 0.95797 0
M  V30 1162 C 113.299 1.05321 2.03569 0
M  V30 1163 C 114.299 0.007152 1.60798 0
M  V30 1164 O 115.489 0.24903 1.72411 0
M  V30 1165 C 112.621 0.598394 3.35607 0
M  V30 1166 H 113.814 2.00986 2.22586 0
M  V30 1167 H 111.367 1.07502 1.13459 0
M  V30 1168 H 112.102 -0.361014 3.22284 0
M  V30 1169 H 111.887 1.35351 3.67998 0
M  V30 1170 H 113.377 0.48104 4.1482 0
M  V30 1171 N 113.814 -1.1601 1.06675 0
M  V30 1172 C 114.747 -2.1947 0.625168 0
M  V30 1173 C 115.725 -1.58699 -0.354041 0
M  V30 1174 O 116.909 -1.86669 -0.262098 0
M  V30 1175 C 114.036 -3.38598 -0.0829593 0
M  V30 1176 C 113.082 -4.1787 0.853611 0
M  V30 1177 S 113.915 -4.81135 2.35094 0
M  V30 1178 C 115.071 -6.03639 1.65441 0
M  V30 1179 H 115.304 -2.56587 1.50168 0
M  V30 1180 H 112.837 -1.26862 0.880078 0
M  V30 1181 H 114.795 -4.07621 -0.485288 0
M  V30 1182 H 113.456 -2.99839 -0.935716 0
M  V30 1183 H 112.649 -5.03078 0.304755 0
M  V30 1184 H 112.251 -3.54361 1.196 0
M  V30 1185 H 114.543 -6.70632 0.962201 0
M  V30 1186 H 115.486 -6.63081 2.48454 0
M  V30 1187 H 115.894 -5.52965 1.13534 0
M  V30 1188 N 115.292 -0.849877 -1.32721 0
M  V30 1189 C 116.517 -0.463856 -2.02146 0
M  V30 1190 C 116.942 0.930449 -1.63476 0
M  V30 1191 O 116.3 1.61033 -0.832952 0
M  V30 1192 C 116.348 -0.604955 -3.55489 0
M  V30 1193 O 115.452 0.36425 -4.10788 0
M  V30 1194 H 114.793 -0.187046 -0.637111 0
M  V30 1195 H 117.323 -1.14775 -1.69375 0
M  V30 1196 H 117.333 -0.490696 -4.05038 0
M  V30 1197 H 116.008 -1.62174 -3.82978 0
M  V30 1198 H 114.585 0.206628 -3.72327 0
M  V30 1199 N 116.77 1.45427 -0.607355 0
M  V30 1200 C 118.018 2.01841 -0.102253 0
M  V30 1201 C 118.339 1.47832 1.27164 0
M  V30 1202 O 117.609 0.672497 1.83995 0
M  V30 1203 H 116.189 0.746188 -0.0348101 0
M  V30 1204 H 118.851 1.78229 -0.7887 0
M  V30 1205 H 117.947 3.12057 -0.0518585 0
M  V30 1206 N 118.248 0.346503 1.53744 0
M  V30 1207 C 119.178 -0.501193 2.28058 0
M  V30 1208 C 120.159 -1.10014 1.29734 0
M  V30 1209 O 121.344 -1.12097 1.58581 0
M  V30 1210 C 118.474 -1.65078 3.05559 0
M  V30 1211 C 117.428 -1.18003 4.11411 0
M  V30 1212 C 116.754 -2.41837 4.76884 0
M  V30 1213 C 118.054 -0.278394 5.21558 0
M  V30 1214 H 119.748 0.11875 2.99164 0
M  V30 1215 H 117.294 0.0585531 1.43881 0
M  V30 1216 H 119.247 -2.25028 3.56287 0
M  V30 1217 H 117.971 -2.29767 2.32109 0
M  V30 1218 H 116.63 -0.603331 3.61601 0
M  V30 1219 H 116.278 -3.0494 4.00026 0
M  V30 1220 H 115.978 -2.1102 5.48402 0
M  V30 1221 H 117.502 -3.02508 5.30397 0
M  V30 1222 H 118.916 -0.784823 5.67903 0
M  V30 1223 H 117.313 -0.0619707 6.00068 0
M  V30 1224 H 118.383 0.684677 4.80042 0
M  V30 1225 N 119.726 -1.57421 0.075193 0
M  V30 1226 C 120.659 -2.08528 -0.926904 0
M  V30 1227 C 121.637 -0.991171 -1.28898 0
M  V30 1228 O 122.821 -1.26479 -1.39769 0
M  V30 1229 C 119.948 -2.54576 -2.23402 0
M  V30 1230 C 118.994 -3.75454 -2.02327 0
M  V30 1231 S 119.827 -5.19989 -1.27951 0
M  V30 1232 C 120.983 -5.69372 -2.59935 0
M  V30 1233 H 121.216 -2.932 -0.492048 0
M  V30 1234 H 118.749 -1.53785 -0.137651 0
M  V30 1235 H 120.707 -2.81767 -2.98526 0
M  V30 1236 H 119.368 -1.70166 -2.64012 0
M  V30 1237 H 118.561 -4.05675 -2.99071 0
M  V30 1238 H 118.163 -3.48654 -1.35339 0
M  V30 1239 H 120.455 -5.76424 -3.56008 0
M  V30 1240 H 121.398 -6.68207 -2.34319 0
M  V30 1241 H 121.806 -4.97205 -2.67296 0
M  V30 1242 N 121.204 0.198386 -1.56346 0
M  V30 1243 C 122.167 1.22952 -1.93431 0
M  V30 1244 C 123.167 1.38611 -0.815092 0
M  V30 1245 O 124.357 1.36479 -1.08255 0
M  V30 1246 C 121.489 2.59946 -2.20546 0
M  V30 1247 H 122.682 0.912626 -2.85677 0
M  V30 1248 H 120.235 0.43977 -1.49986 0
M  V30 1249 H 120.97 2.96696 -1.30927 0
M  V30 1250 H 120.755 2.49953 -3.02102 0
M  V30 1251 H 122.245 3.3431 -2.50253 0
M  V30 1252 N 122.682 1.50554 0.465978 0
M  V30 1253 C 123.959 1.5232 1.22712 0
M  V30 1254 C 124.339 0.270807 2.09356 0
M  V30 1255 O 123.687 -0.745541 2.15995 0
M  V30 1256 C 123.897 2.82175 2.05374 0
M  V30 1257 C 125.245 3.33033 2.6339 0
M  V30 1258 O 126.269 2.83531 2.15612 0
M  V30 1259 O 125.128 4.19336 3.50456 0
M  V30 1260 H 122.222 0.611183 0.557122 0
M  V30 1261 H 124.768 1.62847 0.477381 0
M  V30 1262 H 123.54 3.64797 1.41558 0
M  V30 1263 H 123.163 2.74675 2.87471 0
M  V30 1264 N 124.16 -0.719506 1.40217 0
M  V30 1265 C 125.123 -1.8153 1.39927 0
M  V30 1266 C 126.123 -1.58095 0.293723 0
M  V30 1267 O 127.313 -1.65209 0.552429 0
M  V30 1268 C 124.445 -3.19561 1.18716 0
M  V30 1269 H 125.638 -1.83186 2.37451 0
M  V30 1270 H 123.191 -0.924746 1.26008 0
M  V30 1271 H 123.926 -3.23557 0.219366 0
M  V30 1272 H 123.711 -3.3797 1.98793 0
M  V30 1273 H 125.201 -3.99598 1.21291 0
M  V30 1274 N 125.638 -1.25649 -0.95132 0
M  V30 1275 C 127.054 -1.02542 -1.223 0
M  V30 1276 C 127.254 0.255715 -1.99871 0
M  V30 1277 O 126.31 0.967558 -2.33226 0
M  V30 1278 C 127.623 -2.25065 -1.99415 0
M  V30 1279 C 129.171 -2.29861 -2.12446 0
M  V30 1280 C 129.646 -3.52048 -2.92961 0
M  V30 1281 N 131.137 -3.52465 -3.00538 0
M  V30 1282 C 131.872 -4.43672 -3.63239 0
M  V30 1283 N 131.368 -5.45157 -4.27523 0
M  V30 1284 N 133.161 -4.31346 -3.60412 0
M  V30 1285 H 125.312 -2.07951 -0.432471 0
M  V30 1286 H 127.575 -0.91339 -0.253816 0
M  V30 1287 H 127.281 -3.18194 -1.49817 0
M  V30 1288 H 127.155 -2.28502 -3.00111 0
M  V30 1289 H 129.542 -1.37252 -2.61239 0
M  V30 1290 H 129.623 -2.3044 -1.11044 0
M  V30 1291 H 129.267 -4.44981 -2.44856 0
M  V30 1292 H 129.197 -3.48715 -3.94596 0
M  V30 1293 H 131.688 -2.79056 -2.54826 0
M  V30 1294 H 132.001 -6.10958 -4.73234 0
M  V30 1295 H 130.346 -5.49025 -4.26141 0
M  V30 1296 H 133.537 -3.51288 -3.09377 0
M  V30 1297 H 133.71 -5.02624 -4.0899 0
M  V30 1298 N 127.117 1.15442 -1.07289 0
M  V30 1299 C 128.345 1.90096 -0.81676 0
M  V30 1300 C 128.76 1.7798 0.629966 0
M  V30 1301 O 128.117 1.1313 1.43206 0
M  V30 1302 C 128.168 3.40466 -1.21512 0
M  V30 1303 O 127.889 3.52232 -2.60508 0
M  V30 1304 C 129.39 4.32145 -0.988198 0
M  V30 1305 H 126.61 0.602495 -0.295366 0
M  V30 1306 H 129.154 1.4627 -1.42918 0
M  V30 1307 H 127.309 3.81958 -0.647039 0
M  V30 1308 H 127.723 4.45549 -2.76742 0
M  V30 1309 H 129.197 5.36072 -1.31645 0
M  V30 1310 H 129.674 4.39135 0.0755063 0
M  V30 1311 H 130.28 3.96395 -1.54115 0
M  V30 1312 N 128.595 0.856903 1.32268 0
M  V30 1313 C 129.525 0.31858 2.31316 0
M  V30 1314 C 130.506 -0.583487 1.59779 0
M  V30 1315 O 131.691 -0.503259 1.87566 0
M  V30 1316 C 128.821 -0.491979 3.43798 0
M  V30 1317 C 127.775 0.315849 4.26833 0
M  V30 1318 C 127.101 -0.619586 5.31098 0
M  V30 1319 C 128.401 1.54282 4.98993 0
M  V30 1320 H 130.095 1.14621 2.76591 0
M  V30 1321 H 127.641 0.552613 1.32974 0
M  V30 1322 H 129.594 -0.879012 4.1213 0
M  V30 1323 H 128.318 -1.35299 2.97257 0
M  V30 1324 H 126.977 0.684664 3.6015 0
M  V30 1325 H 126.625 -1.47751 4.8081 0
M  V30 1326 H 126.325 -0.0830621 5.87541 0
M  V30 1327 H 127.849 -1.00375 6.02293 0
M  V30 1328 H 129.263 1.22796 5.59995 0
M  V30 1329 H 127.66 2.01745 5.65172 0
M  V30 1330 H 128.73 2.30285 4.26728 0
M  V30 1331 N 130.073 -1.45103 0.615059 0
M  V30 1332 C 131.322 -2.01396 0.110718 0
M  V30 1333 C 131.635 -1.48834 -1.26916 0
M  V30 1334 O 132.841 -1.97152 -1.86664 0
M  V30 1335 C 131.297 -3.59599 0.14723 0
M  V30 1336 C 130.905 -4.21158 1.52743 0
M  V30 1337 C 132.649 -4.23428 -0.30148 0
M  V30 1338 C 130.556 -5.71535 1.51992 0
M  V30 1339 H 129.486 -0.753061 0.0376241 0
M  V30 1340 H 132.137 -1.66494 0.77149 0
M  V30 1341 H 130.519 -3.91724 -0.580339 0
M  V30 1342 H 131.693 -4.00594 2.2773 0
M  V30 1343 H 130.008 -3.69552 1.91886 0
M  V30 1344 H 132.605 -5.33703 -0.326392 0
M  V30 1345 H 132.948 -3.94629 -1.32565 0
M  V30 1346 H 133.481 -3.96047 0.373065 0
M  V30 1347 H 130.22 -6.05044 2.52193 0
M  V30 1348 H 129.74 -5.94268 0.81274 0
M  V30 1349 H 131.419 -6.34873 1.24681 0
M  V30 1350 N 131.551 -0.354651 -1.53558 0
M  V30 1351 C 132.828 0.294281 -1.93374 0
M  V30 1352 C 133.208 1.67313 -1.28723 0
M  V30 1353 O 132.556 2.24179 -0.442247 0
M  V30 1354 C 132.766 0.355445 -3.47185 0
M  V30 1355 C 134.114 0.601007 -4.20325 0
M  V30 1356 O 135.138 0.437106 -3.53508 0
M  V30 1357 O 133.997 0.919322 -5.38712 0
M  V30 1358 H 131.091 0.174033 -0.808481 0
M  V30 1359 H 133.637 -0.406638 -1.64756 0
M  V30 1360 H 132.409 -0.611729 -3.86489 0
M  V30 1361 H 132.032 1.1027 -3.82003 0
M  V30 1362 N 133.029 1.57378 -0.0835403 0
M  V30 1363 C 134.259 1.97975 0.590713 0
M  V30 1364 C 134.667 0.961083 1.62972 0
M  V30 1365 O 134.01 -0.0590879 1.83605 0
M  V30 1366 C 134.072 3.34915 1.3066 0
M  V30 1367 C 133.736 4.55069 0.419698 0
M  V30 1368 C 134.733 5.18868 -0.32749 0
M  V30 1369 C 132.418 5.0114 0.341137 0
M  V30 1370 C 134.412 6.27098 -1.14134 0
M  V30 1371 C 132.099 6.0924 -0.476374 0
M  V30 1372 C 133.097 6.72083 -1.21627 0
M  V30 1373 O 132.785 7.781 -2.02028 0
M  V30 1374 H 132.517 0.655818 0.163947 0
M  V30 1375 H 135.071 2.04807 -0.156021 0
M  V30 1376 H 133.301 3.24733 2.09966 0
M  V30 1377 H 134.99 3.60037 1.87424 0
M  V30 1378 H 135.756 4.84211 -0.276459 0
M  V30 1379 H 131.635 4.51996 0.90668 0
M  V30 1380 H 135.179 6.7608 -1.71935 0
M  V30 1381 H 131.076 6.43329 -0.528927 0
M  V30 1382 H 131.844 7.95034 -1.94586 0
M  V30 1383 N 134.507 -0.190092 1.56449 0
M  V30 1384 C 135.47 -1.21925 1.9408 0
M  V30 1385 C 136.47 -1.38176 0.822431 0
M  V30 1386 O 137.66 -1.35903 1.08977 0
M  V30 1387 C 134.792 -2.58773 2.21922 0
M  V30 1388 H 135.985 -0.897464 2.86157 0
M  V30 1389 H 133.538 -0.43181 1.50217 0
M  V30 1390 H 134.273 -2.95998 1.32499 0
M  V30 1391 H 134.058 -2.48348 3.03424 0
M  V30 1392 H 135.548 -3.32978 2.52022 0
M  V30 1393 N 135.985 -1.50799 -0.457987 0
M  V30 1394 C 137.401 -1.38515 -0.792819 0
M  V30 1395 C 137.601 -0.451409 -1.96379 0
M  V30 1396 O 136.657 0.10112 -2.52297 0
M  V30 1397 C 137.97 -2.80149 -1.09258 0
M  V30 1398 C 139.518 -2.89156 -1.19825 0
M  V30 1399 C 139.993 -4.31651 -1.53106 0
M  V30 1400 N 141.484 -4.34662 -1.60072 0
M  V30 1401 C 142.219 -5.41928 -1.87354 0
M  V30 1402 N 141.715 -6.59384 -2.12568 0
M  V30 1403 N 143.508 -5.29385 -1.88965 0
M  V30 1404 H 135.659 -2.10073 0.313511 0
M  V30 1405 H 137.922 -0.944803 0.0777862 0
M  V30 1406 H 137.628 -3.50374 -0.305084 0
M  V30 1407 H 137.502 -3.18204 -2.02549 0
M  V30 1408 H 139.889 -2.19141 -1.97639 0
M  V30 1409 H 139.97 -2.54626 -0.244821 0
M  V30 1410 H 139.614 -5.02208 -0.758266 0
M  V30 1411 H 139.544 -4.63678 -2.49621 0
M  V30 1412 H 142.035 -3.49973 -1.42573 0
M  V30 1413 H 142.348 -7.36934 -2.32696 0
M  V30 1414 H 140.693 -6.62535 -2.09933 0
M  V30 1415 H 143.884 -4.36616 -1.68772 0
M  V30 1416 H 144.057 -6.13066 -2.09891 0
M  V30 1417 N 137.463 0.71206 -1.40597 0
M  V30 1418 C 138.709 1.47416 -1.39271 0
M  V30 1419 C 139.042 1.942 0.00388791 0
M  V30 1420 O 138.317 1.68403 0.973179 0
M  V30 1421 C 138.6 2.69774 -2.38525 0
M  V30 1422 C 138.453 2.28861 -3.87224 0
M  V30 1423 C 139.772 3.71939 -2.35264 0
M  V30 1424 H 136.891 0.534713 -0.5072 0
M  V30 1425 H 139.533 0.812375 -1.71757 0
M  V30 1426 H 137.683 3.26238 -2.10953 0
M  V30 1427 H 139.355 1.77852 -4.25636 0
M  V30 1428 H 137.598 1.60824 -4.02887 0
M  V30 1429 H 138.269 3.16584 -4.52193 0
M  V30 1430 H 140.745 3.25113 -2.59694 0
M  V30 1431 H 139.621 4.55186 -3.06753 0
M  V30 1432 H 139.882 4.20484 -1.36549 0
M  V30 1433 N 138.941 1.26152 0.944643 0
M  V30 1434 C 139.851 1.09176 2.07648 0
M  V30 1435 C 140.867 0.0261935 1.7398 0
M  V30 1436 O 142.043 0.229208 2.00091 0
M  V30 1437 C 139.108 0.722915 3.39079 0
M  V30 1438 C 138.169 1.86752 3.86552 0
M  V30 1439 C 137.402 1.51617 5.11711 0
M  V30 1440 O 137.625 0.416331 5.68879 0
M  V30 1441 O 136.559 2.34975 5.54139 0
M  V30 1442 H 140.385 2.0412 2.24875 0
M  V30 1443 H 137.97 1.05182 1.061 0
M  V30 1444 H 139.852 0.529787 4.18056 0
M  V30 1445 H 138.527 -0.197159 3.23099 0
M  V30 1446 H 137.434 2.11558 3.08535 0
M  V30 1447 H 138.767 2.76719 4.07047 0
M  V30 1448 N 140.419 -1.14872 1.07899 0
M  V30 1449 C 141.659 -1.8745 0.814965 0
M  V30 1450 C 142.023 -1.80758 -0.64733 0
M  V30 1451 O 143.224 -2.48422 -1.02664 0
M  V30 1452 C 141.495 -3.32286 1.31607 0
M  V30 1453 S 143.054 -4.22537 1.18357 0
M  V30 1454 H 139.872 -0.646833 0.295174 0
M  V30 1455 H 142.474 -1.38555 1.37923 0
M  V30 1456 H 141.178 -3.34703 2.37491 0
M  V30 1457 H 140.709 -3.86238 0.747261 0
M  V30 1458 H 142.724 -4.96044 0.124586 0
M  V30 1459 N 141.898 -0.863906 -1.31812 0
M  V30 1460 C 142.846 -0.30422 -2.30602 0
M  V30 1461 C 143.84 0.577419 -1.59255 0
M  V30 1462 O 145.046 0.464194 -1.73912 0
M  V30 1463 H 141.421 -0.0796877 -0.747766 0
M  V30 1464 H 143.392 -1.15148 -2.75288 0
M  V30 1465 C 142.141 0.484617 -3.44306 0
M  V30 1466 H 141.464 -0.18451 -3.99374 0
M  V30 1467 H 142.904 0.841664 -4.15562 0
M  V30 1468 C 141.363 1.6735 -2.92396 0
M  V30 1469 O 141.893 2.77273 -2.90659 0
M  V30 1470 N 140.099 1.50362 -2.48676 0
M  V30 1471 H 139.646 0.609402 -2.50288 0
M  V30 1472 H 139.604 2.30051 -2.14299 0
M  V30 1473 N 143.376 1.44774 -0.622745 0
M  V30 1474 C 144.326 2.2774 0.108889 0
M  V30 1475 C 145.31 1.38189 0.824175 0
M  V30 1476 O 146.502 1.62063 0.711664 0
M  V30 1477 C 143.631 3.25353 1.09546 0
M  V30 1478 C 142.717 4.22392 0.380232 0
M  V30 1479 N 143.108 5.02388 -0.586535 0
M  V30 1480 C 141.406 4.41588 0.625792 0
M  V30 1481 C 142.107 5.72894 -1.00834 0
M  V30 1482 N 141.083 5.42479 -0.348878 0
M  V30 1483 H 144.885 2.86993 -0.63341 0
M  V30 1484 H 142.399 1.5611 -0.447589 0
M  V30 1485 H 144.396 3.83538 1.63414 0
M  V30 1486 H 143.056 2.6766 1.83815 0
M  V30 1487 H 144.067 5.0885 -0.963975 0
M  V30 1488 H 140.744 3.95003 1.352 0
M  V30 1489 H 142.134 6.47158 -1.80656 0
M  V30 1490 N 144.854 0.36279 1.53368 0
M  V30 1491 C 146.084 -0.228281 2.05335 0
M  V30 1492 C 146.492 -1.43226 1.23625 0
M  V30 1493 O 145.835 -1.81717 0.269206 0
M  V30 1494 C 145.897 -0.688549 3.52845 0
M  V30 1495 C 145.561 0.398362 4.5526 0
M  V30 1496 C 146.558 1.24732 5.04716 0
M  V30 1497 C 144.243 0.557805 4.99193 0
M  V30 1498 C 146.237 2.2411 5.96702 0
M  V30 1499 C 143.924 1.55495 5.90986 0
M  V30 1500 C 144.922 2.39503 6.39631 0
M  V30 1501 O 144.61 3.37517 7.29615 0
M  V30 1502 H 144.342 -0.044395 0.674541 0
M  V30 1503 H 146.896 0.518668 1.98744 0
M  V30 1504 H 145.126 -1.48706 3.56964 0
M  V30 1505 H 146.815 -1.20231 3.87685 0
M  V30 1506 H 147.581 1.13532 4.71525 0
M  V30 1507 H 143.46 -0.0862959 4.60919 0
M  V30 1508 H 147.004 2.89718 6.34594 0
M  V30 1509 H 142.901 1.66744 6.23592 0
M  V30 1510 H 143.669 3.33213 7.47604 0
M  V30 1511 N 146.332 -1.57332 0.0918853 0
M  V30 1512 C 147.279 -2.13847 -0.868211 0
M  V30 1513 C 148.249 -1.05618 -1.28196 0
M  V30 1514 O 149.434 -1.33387 -1.36427 0
M  V30 1515 C 146.574 -2.72062 -2.12312 0
M  V30 1516 C 145.687 -3.94514 -1.7602 0
M  V30 1517 C 144.822 -4.40903 -2.96273 0
M  V30 1518 C 143.861 -5.55953 -2.56092 0
M  V30 1519 N 142.998 -5.97209 -3.69169 0
M  V30 1520 H 147.838 -2.95575 -0.379406 0
M  V30 1521 H 145.375 -1.46048 -0.175606 0
M  V30 1522 H 147.333 -3.03931 -2.858 0
M  V30 1523 H 145.963 -1.93068 -2.58698 0
M  V30 1524 H 145.015 -3.68979 -0.925135 0
M  V30 1525 H 146.327 -4.7802 -1.42472 0
M  V30 1526 H 145.481 -4.74539 -3.78018 0
M  V30 1527 H 144.22 -3.56291 -3.33029 0
M  V30 1528 H 143.225 -5.21948 -1.72773 0
M  V30 1529 H 144.45 -6.42311 -2.20484 0
M  V30 1530 H 142.396 -5.15543 -4.05649 0
M  V30 1531 H 142.313 -6.75504 -3.39456 0
M  V30 1532 H 143.581 -6.35475 -4.51434 0
M  V30 1533 N 147.81 0.181792 -1.56548 0
M  V30 1534 C 149.057 0.900097 -1.81396 0
M  V30 1535 C 149.385 1.82695 -0.667281 0
M  V30 1536 O 148.64 1.92614 0.346146 0
M  V30 1537 C 148.939 1.73728 -3.12335 0
M  V30 1538 C 148.605 0.960255 -4.40556 0
M  V30 1539 C 147.267 0.745766 -4.75386 0
M  V30 1540 C 149.619 0.414477 -5.19549 0
M  V30 1541 C 146.947 -0.0257694 -5.86694 0
M  V30 1542 C 149.299 -0.343916 -6.31664 0
M  V30 1543 C 147.963 -0.569301 -6.65068 0
M  V30 1544 H 147.233 0.329369 -0.663775 0
M  V30 1545 H 149.88 0.165647 -1.90782 0
M  V30 1546 H 148.185 2.54081 -2.98245 0
M  V30 1547 H 149.882 2.29591 -3.28769 0
M  V30 1548 H 146.472 1.13746 -4.13231 0
M  V30 1549 H 150.656 0.567554 -4.93044 0
M  V30 1550 H 145.912 -0.210233 -6.11038 0
M  V30 1551 H 150.086 -0.774133 -6.92084 0
M  V30 1552 H 147.713 -1.16903 -7.51158 0
M  V30 1553 N 149.288 1.51039 0.449983 0
M  V30 1554 C 150.537 1.62317 1.19733 0
M  V30 1555 C 150.85 0.339101 1.92638 0
M  V30 1556 O 152.056 0.331069 2.69474 0
M  V30 1557 C 150.512 2.86608 2.17678 0
M  V30 1558 C 150.12 4.21972 1.50479 0
M  V30 1559 C 151.864 3.07239 2.92924 0
M  V30 1560 C 149.771 5.37426 2.46834 0
M  V30 1561 H 148.701 0.604532 0.450619 0
M  V30 1562 H 151.352 1.77494 0.465625 0
M  V30 1563 H 149.734 2.65037 2.94231 0
M  V30 1564 H 150.908 4.53878 0.795716 0
M  V30 1565 H 149.223 4.07117 0.874344 0
M  V30 1566 H 151.82 3.90668 3.65079 0
M  V30 1567 H 152.163 2.19807 3.5354 0
M  V30 1568 H 152.696 3.29091 2.23481 0
M  V30 1569 H 149.435 6.27079 1.90926 0
M  V30 1570 H 148.955 5.09912 3.15832 0
M  V30 1571 H 150.634 5.68862 3.08228 0
M  V30 1572 N 150.766 -0.704594 1.40972 0
M  V30 1573 C 151.996 -1.49138 1.42974 0
M  V30 1574 C 152.404 -1.89175 0.0308406 0
M  V30 1575 O 151.747 -1.56734 -0.958138 0
M  V30 1576 C 151.809 -2.79016 2.26694 0
M  V30 1577 C 151.473 -2.61236 3.74973 0
M  V30 1578 C 152.47 -2.27773 4.67349 0
M  V30 1579 C 150.155 -2.77158 4.18914 0
M  V30 1580 C 152.149 -2.10457 6.01653 0
M  V30 1581 C 149.836 -2.59459 5.53285 0
M  V30 1582 C 150.834 -2.26158 6.4447 0
M  V30 1583 O 150.522 -2.08605 7.76363 0
M  V30 1584 H 150.254 -0.466443 0.489292 0
M  V30 1585 H 152.808 -0.8758 1.85793 0
M  V30 1586 H 151.038 -3.42947 1.78673 0
M  V30 1587 H 152.727 -3.40782 2.20504 0
M  V30 1588 H 153.493 -2.15095 4.34694 0
M  V30 1589 H 149.372 -3.02064 3.48251 0
M  V30 1590 H 152.916 -1.84387 6.72791 0
M  V30 1591 H 148.813 -2.71725 5.85522 0
M  V30 1592 H 149.581 -2.23439 7.87412 0
M  V30 1593 N 152.244 -1.26651 -0.937939 0
M  V30 1594 C 153.192 -1.08308 -2.05845 0
M  V30 1595 C 154.186 -0.0090757 -1.69398 0
M  V30 1596 O 155.392 -0.166007 -1.79233 0
M  V30 1597 H 151.767 -0.333416 -0.674046 0
M  V30 1598 H 153.738 -2.03261 -2.18467 0
M  V30 1599 C 152.487 -0.736229 -3.39816 0
M  V30 1600 H 151.81 -1.55453 -3.6834 0
M  V30 1601 H 153.25 -0.64769 -4.19024 0
M  V30 1602 C 151.709 0.558824 -3.32233 0
M  V30 1603 O 152.239 1.59621 -3.68624 0
M  V30 1604 N 150.445 0.550657 -2.85335 0
M  V30 1605 H 149.992 -0.293943 -2.55917 0
M  V30 1606 H 149.95 1.41726 -2.80644 0
M  V30 1607 N 153.722 1.14298 -1.08507 0
M  V30 1608 C 154.632 2.23027 -0.727753 0
M  V30 1609 C 155.648 1.71952 0.26619 0
M  V30 1610 O 156.824 2.011 0.109882 0
M  V30 1611 C 153.889 3.46403 -0.143541 0
M  V30 1612 C 152.95 4.12413 -1.19223 0
M  V30 1613 C 152.183 5.29899 -0.635798 0
M  V30 1614 O 152.406 5.67796 0.544393 0
M  V30 1615 O 151.34 5.85717 -1.38634 0
M  V30 1616 H 155.166 2.55945 -1.63481 0
M  V30 1617 H 152.751 1.22248 -0.858817 0
M  V30 1618 H 154.633 4.21018 0.179404 0
M  V30 1619 H 153.308 3.15206 0.736659 0
M  V30 1620 H 152.215 3.39667 -1.56772 0
M  V30 1621 H 153.548 4.47718 -2.04474 0
M  V30 1622 N 155.201 0.870884 1.31352 0
M  V30 1623 C 156.149 0.316445 2.30437 0
M  V30 1624 C 157.143 -0.568965 1.59559 0
M  V30 1625 O 158.349 -0.454964 1.74155 0
M  V30 1626 H 154.724 0.0836521 0.747333 0
M  V30 1627 H 156.695 1.16606 2.74673 0
M  V30 1628 C 155.444 -0.46635 3.44558 0
M  V30 1629 H 154.767 0.205687 3.99271 0
M  V30 1630 H 156.207 -0.819614 4.16003 0
M  V30 1631 C 154.666 -1.65797 2.9328 0
M  V30 1632 O 155.196 -2.75728 2.92125 0
M  V30 1633 N 153.402 -1.49041 2.4947 0
M  V30 1634 H 152.949 -0.59612 2.50608 0
M  V30 1635 H 152.907 -2.28911 2.15516 0
M  V30 1636 N 156.679 -1.44442 0.630414 0
M  V30 1637 C 157.928 -2.01267 0.132073 0
M  V30 1638 C 158.241 -1.50172 -1.25331 0
M  V30 1639 O 159.447 -1.9912 -1.84562 0
M  V30 1640 C 157.903 -3.59422 0.185362 0
M  V30 1641 C 157.511 -4.19514 1.57201 0
M  V30 1642 C 159.255 -4.23724 -0.256553 0
M  V30 1643 C 157.162 -5.69891 1.58045 0
M  V30 1644 H 156.092 -0.752619 0.0456092 0
M  V30 1645 H 158.743 -1.65666 0.789106 0
M  V30 1646 H 157.125 -3.92318 -0.538759 0
M  V30 1647 H 158.299 -3.98156 2.31966 0
M  V30 1648 H 156.614 -3.67496 1.95795 0
M  V30 1649 H 159.211 -5.34019 -0.269767 0
M  V30 1650 H 159.554 -3.96013 -1.28372 0
M  V30 1651 H 160.087 -3.95629 0.41505 0
M  V30 1652 H 156.826 -6.02336 2.58597 0
M  V30 1653 H 156.346 -5.93373 0.875725 0
M  V30 1654 H 158.025 -6.33515 1.31408 0
M  V30 1655 N 158.157 -0.370918 -1.53173 0
M  V30 1656 C 159.105 0.488101 -2.27421 0
M  V30 1657 C 160.099 1.07884 -1.30604 0
M  V30 1658 O 161.305 1.02143 -1.48212 0
M  V30 1659 H 157.68 0.176134 -0.731082 0
M  V30 1660 H 159.651 -0.159815 -2.97972 0
M  V30 1661 C 158.4 1.61306 -3.08019 0
M  V30 1662 H 157.723 1.1678 -3.82364 0
M  V30 1663 H 159.163 2.18872 -3.63141 0
M  V30 1664 C 157.622 2.55848 -2.19188 0
M  V30 1665 O 158.152 3.58799 -1.80626 0
M  V30 1666 N 156.358 2.2516 -1.83715 0
M  V30 1667 H 155.905 1.41476 -2.15273 0
M  V30 1668 H 155.863 2.8867 -1.24567 0
M  V30 1669 N 159.635 1.57281 -0.100228 0
M  V30 1670 C 160.884 1.93713 0.561984 0
M  V30 1671 C 161.197 0.984492 1.69018 0
M  V30 1672 O 162.403 1.24273 2.41389 0
M  V30 1673 C 160.859 3.4421 1.05106 0
M  V30 1674 C 160.467 4.47975 -0.0476628 0
M  V30 1675 C 162.211 3.89595 1.68571 0
M  V30 1676 C 160.118 5.89631 0.457055 0
M  V30 1677 H 159.048 0.723082 0.2137 0
M  V30 1678 H 161.699 1.82644 -0.177057 0
M  V30 1679 H 160.081 3.50449 1.84395 0
M  V30 1680 H 161.255 4.53385 -0.823333 0
M  V30 1681 H 159.57 4.1223 -0.587816 0
M  V30 1682 H 162.167 4.92832 2.07414 0
M  V30 1683 H 162.51 3.28526 2.55688 0
M  V30 1684 H 163.043 3.86078 0.958562 0
M  V30 1685 H 159.782 6.54411 -0.377616 0
M  V30 1686 H 159.302 5.87681 1.19962 0
M  V30 1687 H 160.981 6.40363 0.92437 0
M  V30 1688 N 161.113 -0.173488 1.56642 0
M  V30 1689 C 162.06 -1.21482 1.96242 0
M  V30 1690 C 163.03 -1.44104 0.826027 0
M  V30 1691 O 164.215 -1.5688 1.08597 0
M  V30 1692 C 161.355 -2.54964 2.32567 0
M  V30 1693 C 160.468 -2.39739 3.59373 0
M  V30 1694 C 159.603 -3.66072 3.84921 0
M  V30 1695 C 158.642 -3.45771 5.05083 0
M  V30 1696 N 157.779 -4.64169 5.26775 0
M  V30 1697 H 162.619 -0.870123 2.85014 0
M  V30 1698 H 160.156 -0.418245 1.41029 0
M  V30 1699 H 162.114 -3.32758 2.5165 0
M  V30 1700 H 160.744 -2.87433 1.46908 0
M  V30 1701 H 159.796 -1.53131 3.48217 0
M  V30 1702 H 161.108 -2.20683 4.47326 0
M  V30 1703 H 160.262 -4.52303 4.0436 0
M  V30 1704 H 159.001 -3.88105 2.9534 0
M  V30 1705 H 158.006 -2.57927 4.85545 0
M  V30 1706 H 159.231 -3.25163 5.96193 0
M  V30 1707 H 157.177 -4.86425 4.40144 0
M  V30 1708 H 157.094 -4.48019 6.08946 0
M  V30 1709 H 158.362 -5.51689 5.5069 0
M  V30 1710 N 162.591 -1.51276 -0.441967 0
M  V30 1711 C 163.816 -1.67799 -1.21895 0
M  V30 1712 C 164.241 -0.372864 -1.84367 0
M  V30 1713 O 163.599 0.666501 -1.68604 0
M  V30 1714 C 163.647 -2.79199 -2.28211 0
M  V30 1715 O 162.751 -2.42479 -3.33583 0
M  V30 1716 H 162.092 -0.559649 -0.357336 0
M  V30 1717 H 164.622 -1.97815 -0.522522 0
M  V30 1718 H 164.632 -3.03146 -2.73069 0
M  V30 1719 H 163.307 -3.73906 -1.82118 0
M  V30 1720 H 161.884 -2.29087 -2.94234 0
M  V30 1721 N 164.069 0.697108 -1.41344 0
M  V30 1722 C 165.309 1.46939 -1.42085 0
M  V30 1723 C 165.673 1.9198 -0.0280397 0
M  V30 1724 O 166.874 2.6865 0.0897504 0
M  V30 1725 C 165.145 2.64985 -2.39828 0
M  V30 1726 S 166.704 3.54147 -2.59085 0
M  V30 1727 H 163.522 0.502146 -0.503359 0
M  V30 1728 H 166.124 0.813546 -1.77769 0
M  V30 1729 H 164.828 2.30098 -3.39828 0
M  V30 1730 H 164.359 3.35464 -2.05493 0
M  V30 1731 H 166.374 4.60137 -1.85711 0
M  V30 1732 N 165.547 1.27147 0.931209 0
M  V30 1733 C 166.793 1.13446 1.68101 0
M  V30 1734 C 167.126 -0.319628 1.91552 0
M  V30 1735 O 166.401 -1.23407 1.50336 0
M  V30 1736 C 166.684 1.91482 3.0497 0
M  V30 1737 C 166.537 3.44855 2.88782 0
M  V30 1738 C 167.856 1.71651 4.05246 0
M  V30 1739 H 164.975 0.413498 0.610072 0
M  V30 1740 H 167.617 1.56261 1.08086 0
M  V30 1741 H 165.767 1.55095 3.56199 0
M  V30 1742 H 167.439 3.9105 2.44698 0
M  V30 1743 H 165.682 3.71373 2.24198 0
M  V30 1744 H 166.353 3.94694 3.85902 0
M  V30 1745 H 168.829 2.0337 3.63015 0
M  V30 1746 H 167.705 2.28651 4.99009 0
M  V30 1747 H 167.966 0.663555 4.37092 0
M  V30 1748 N 167.025 -1.13721 1.09112 0
M  V30 1749 C 167.935 -2.22638 0.73957 0
M  V30 1750 C 168.951 -1.72091 -0.257068 0
M  V30 1751 O 170.127 -2.01155 -0.0992154 0
M  V30 1752 C 167.192 -3.46322 0.16191 0
M  V30 1753 C 166.253 -4.11775 1.21408 0
M  V30 1754 C 165.486 -5.29555 0.663891 0
M  V30 1755 O 165.709 -5.68077 -0.514274 0
M  V30 1756 O 164.643 -5.84973 1.41738 0
M  V30 1757 H 168.469 -2.55074 1.64836 0
M  V30 1758 H 166.054 -1.21791 0.865289 0
M  V30 1759 H 167.936 -4.21107 -0.157073 0
M  V30 1760 H 166.611 -3.15593 -0.719932 0
M  V30 1761 H 165.518 -3.3883 1.58571 0
M  V30 1762 H 166.851 -4.46627 2.06845 0
M  V30 1763 N 168.503 -0.877838 -1.30888 0
M  V30 1764 C 169.433 -0.35534 -2.3078 0
M  V30 1765 C 170.414 0.557994 -1.60687 0
M  V30 1766 O 171.599 0.473355 -1.88343 0
M  V30 1767 C 168.729 0.437221 -3.44537 0
M  V30 1768 C 167.683 -0.383715 -4.26276 0
M  V30 1769 C 167.009 0.535014 -5.32017 0
M  V30 1770 C 168.309 -1.62201 -4.96476 0
M  V30 1771 H 170.003 -1.19007 -2.74732 0
M  V30 1772 H 167.549 -0.573698 -1.32078 0
M  V30 1773 H 169.502 0.813334 -4.13477 0
M  V30 1774 H 168.226 1.30553 -2.99372 0
M  V30 1775 H 166.885 -0.741874 -3.59015 0
M  V30 1776 H 166.533 1.40083 -4.831 0
M  V30 1777 H 166.233 -0.0104211 -5.87599 0
M  V30 1778 H 167.757 0.907799 -6.03814 0
M  V30 1779 H 169.171 -1.31689 -5.5797 0
M  V30 1780 H 167.568 -2.10711 -5.61891 0
M  V30 1781 H 168.638 -2.37044 -4.23011 0
M  V30 1782 N 169.982 1.44106 -0.638065 0
M  V30 1783 C 171.231 2.01194 -0.142744 0
M  V30 1784 C 171.544 1.50835 1.24532 0
M  V30 1785 O 172.75 2.00096 1.83504 0
M  V30 1786 C 171.206 3.59319 -0.20442 0
M  V30 1787 C 170.814 4.18674 -1.59423 0
M  V30 1788 C 172.558 4.23854 0.234079 0
M  V30 1789 C 170.465 5.69045 -1.61065 0
M  V30 1790 H 169.395 0.752367 -0.0495998 0
M  V30 1791 H 172.046 1.65246 -0.797881 0
M  V30 1792 H 170.428 3.92598 0.517946 0
M  V30 1793 H 171.602 3.96921 -2.34074 0
M  V30 1794 H 169.917 3.66453 -1.97741 0
M  V30 1795 H 172.514 5.34155 0.241443 0
M  V30 1796 H 172.857 3.96688 1.2627 0
M  V30 1797 H 173.39 3.95403 -0.436025 0
M  V30 1798 H 170.129 6.00956 -2.61787 0
M  V30 1799 H 169.649 5.929 -0.90718 0
M  V30 1800 H 171.328 6.32809 -1.34766 0
M  V30 1801 N 171.46 0.379036 1.52974 0
M  V30 1802 C 172.685 -0.209353 2.06341 0
M  V30 1803 C 173.11 -1.40583 1.24972 0
M  V30 1804 O 172.468 -1.79246 0.272155 0
M  V30 1805 C 172.516 -0.567786 3.56102 0
M  V30 1806 O 171.62 -1.66318 3.77375 0
M  V30 1807 H 170.961 -0.0272919 0.663439 0
M  V30 1808 H 173.491 0.543536 1.97248 0
M  V30 1809 H 173.501 -0.835003 3.99364 0
M  V30 1810 H 172.176 0.307013 4.14765 0
M  V30 1811 H 170.753 -1.39048 3.46006 0
M  V30 1812 N 172.938 -1.57226 0.108567 0
M  V30 1813 C 173.848 -2.18292 -0.859401 0
M  V30 1814 C 174.864 -1.15612 -1.30038 0
M  V30 1815 O 176.04 -1.48039 -1.36552 0
M  V30 1816 C 173.105 -2.762 -2.09558 0
M  V30 1817 C 172.166 -3.93881 -1.70752 0
M  V30 1818 C 171.399 -4.49018 -2.88477 0
M  V30 1819 O 171.622 -4.03068 -4.036 0
M  V30 1820 O 170.556 -5.39852 -2.66164 0
M  V30 1821 H 174.382 -3.01441 -0.369769 0
M  V30 1822 H 171.967 -1.48945 -0.1165 0
M  V30 1823 H 173.849 -3.13156 -2.81978 0
M  V30 1824 H 172.524 -1.96089 -2.57548 0
M  V30 1825 H 171.431 -3.61713 -0.954714 0
M  V30 1826 H 172.764 -4.75396 -1.27513 0
M  V30 1827 N 174.416 0.165178 -1.56732 0
M  V30 1828 C 175.346 1.20651 -1.99914 0
M  V30 1829 C 176.327 1.45827 -0.875705 0
M  V30 1830 O 177.512 1.57057 -1.14223 0
M  V30 1831 C 174.642 2.54401 -2.36427 0
M  V30 1832 C 173.596 2.43782 -3.51787 0
M  V30 1833 C 172.922 3.82078 -3.7406 0
M  V30 1834 C 174.222 1.93732 -4.85041 0
M  V30 1835 H 175.916 0.847534 -2.87154 0
M  V30 1836 H 173.462 0.40625 -1.38151 0
M  V30 1837 H 175.415 3.27458 -2.65234 0
M  V30 1838 H 174.139 2.92098 -1.46103 0
M  V30 1839 H 172.798 1.73178 -3.23117 0
M  V30 1840 H 172.446 4.17179 -2.81017 0
M  V30 1841 H 172.146 3.7584 -4.51684 0
M  V30 1842 H 173.67 4.56712 -4.05274 0
M  V30 1843 H 175.084 2.56569 -5.12684 0
M  V30 1844 H 173.481 1.98428 -5.66345 0
M  V30 1845 H 174.551 0.891962 -4.76626 0
M  V30 1846 N 175.894 1.51508 0.433938 0
M  V30 1847 C 176.857 1.72473 1.50949 0
M  V30 1848 C 177.857 0.594725 1.49398 0
M  V30 1849 O 179.047 0.862315 1.5136 0
M  V30 1850 C 176.179 1.78431 2.90474 0
M  V30 1851 H 177.372 2.68467 1.33662 0
M  V30 1852 H 174.925 1.41549 0.662836 0
M  V30 1853 H 175.66 0.842645 3.13161 0
M  V30 1854 H 175.445 2.60558 2.93005 0
M  V30 1855 H 176.935 1.96479 3.68491 0
M  V30 1856 N 177.372 -0.689602 1.41712 0
M  V30 1857 C 178.302 -1.81577 1.46806 0
M  V30 1858 C 179.283 -1.66945 0.326105 0
M  V30 1859 O 180.468 -1.86588 0.538377 0
M  V30 1860 C 177.598 -3.19762 1.35535 0
M  V30 1861 C 176.552 -3.49107 2.47605 0
M  V30 1862 C 175.878 -4.86711 2.21397 0
M  V30 1863 C 177.178 -3.47483 3.89939 0
M  V30 1864 H 178.872 -1.7757 2.41058 0
M  V30 1865 H 176.418 -0.852887 1.16025 0
M  V30 1866 H 178.371 -3.98263 1.3771 0
M  V30 1867 H 177.095 -3.24409 0.377708 0
M  V30 1868 H 175.754 -2.72959 2.44722 0
M  V30 1869 H 175.402 -4.8799 1.21961 0
M  V30 1870 H 175.102 -5.0731 2.96497 0
M  V30 1871 H 176.626 -5.67515 2.25297 0
M  V30 1872 H 178.04 -4.1598 3.94505 0
M  V30 1873 H 176.437 -3.79615 4.64771 0
M  V30 1874 H 177.507 -2.46341 4.17665 0
M  V30 1875 N 178.85 -1.27639 -0.924453 0
M  V30 1876 C 180.127 -1.04887 -1.651 0
M  V30 1877 C 180.507 0.415327 -2.06974 0
M  V30 1878 O 179.855 1.39923 -1.80648 0
M  V30 1879 C 180.065 -2.01348 -2.85061 0
M  V30 1880 C 181.413 -2.30899 -3.56329 0
M  V30 1881 O 182.437 -1.99348 -2.95193 0
M  V30 1882 O 181.296 -2.84699 -4.66485 0
M  V30 1883 H 178.39 -0.400083 -0.723784 0
M  V30 1884 H 180.936 -1.38916 -0.974703 0
M  V30 1885 H 179.708 -3.0008 -2.51133 0
M  V30 1886 H 179.331 -1.679 -3.6041 0
M  V30 1887 N 180.328 1.1314 -1.09713 0
M  V30 1888 C 181.575 1.84484 -0.834987 0
M  V30 1889 C 181.903 1.83689 0.639418 0
M  V30 1890 O 181.158 1.2724 1.4869 0
M  V30 1891 C 181.457 3.32167 -1.3191 0
M  V30 1892 C 181.123 3.53139 -2.80363 0
M  V30 1893 C 179.785 3.58571 -3.20905 0
M  V30 1894 C 182.137 3.60866 -3.76065 0
M  V30 1895 C 179.465 3.69267 -4.55916 0
M  V30 1896 C 181.817 3.73089 -5.10869 0
M  V30 1897 C 180.481 3.76775 -5.50996 0
M  V30 1898 H 179.751 0.675073 -0.305544 0
M  V30 1899 H 182.398 1.33554 -1.37243 0
M  V30 1900 H 180.703 3.85469 -0.701517 0
M  V30 1901 H 182.4 3.85821 -1.09284 0
M  V30 1902 H 178.99 3.49569 -2.47991 0
M  V30 1903 H 183.174 3.55946 -3.45855 0
M  V30 1904 H 178.43 3.70388 -4.86438 0
M  V30 1905 H 182.604 3.78011 -5.84877 0
M  V30 1906 H 180.231 3.84815 -6.55608 0
M  V30 1907 N 181.806 0.884767 1.30421 0
M  V30 1908 C 183.031 0.517288 2.00845 0
M  V30 1909 C 183.456 -0.886779 1.65885 0
M  V30 1910 O 182.814 -1.58768 0.875354 0
M  V30 1911 C 182.862 0.698994 3.5376 0
M  V30 1912 O 181.966 -0.255208 4.1161 0
M  V30 1913 H 181.307 0.203872 0.631927 0
M  V30 1914 H 183.837 1.19225 1.66272 0
M  V30 1915 H 183.847 0.597912 4.03595 0
M  V30 1916 H 182.522 1.72271 3.78544 0
M  V30 1917 H 181.099 -0.10784 3.72744 0
M  V30 1918 N 183.284 -1.43765 0.645699 0
M  V30 1919 C 184.232 -2.32516 -0.0624849 0
M  V30 1920 C 185.226 -1.48183 -0.820855 0
M  V30 1921 O 186.432 -1.64439 -0.732106 0
M  V30 1922 H 182.807 -0.750989 -0.0389864 0
M  V30 1923 H 184.778 -2.89979 0.703892 0
M  V30 1924 C 183.527 -3.32389 -1.02044 0
M  V30 1925 H 182.85 -3.97301 -0.446312 0
M  V30 1926 H 184.29 -3.97138 -1.48517 0
M  V30 1927 C 182.749 -2.62416 -2.11281 0
M  V30 1928 O 183.279 -2.434 -3.19561 0
M  V30 1929 N 181.485 -2.21913 -1.87624 0
M  V30 1930 H 181.032 -2.37578 -0.995703 0
M  V30 1931 H 180.99 -1.75424 -2.6091 0
M  V30 1932 N 184.763 -0.387143 -1.52771 0
M  V30 1933 C 185.693 0.440551 -2.29306 0
M  V30 1934 C 186.674 1.06535 -1.32606 0
M  V30 1935 O 187.859 1.07853 -1.61497 0
M  V30 1936 C 184.989 1.56919 -3.09829 0
M  V30 1937 C 183.943 1.07054 -4.14395 0
M  V30 1938 C 183.269 2.29109 -4.83129 0
M  V30 1939 C 184.569 0.140015 -5.22112 0
M  V30 1940 H 186.263 -0.198026 -2.98744 0
M  V30 1941 H 183.809 -0.09668 -1.43675 0
M  V30 1942 H 185.762 2.15503 -3.62128 0
M  V30 1943 H 184.486 2.23532 -2.3812 0
M  V30 1944 H 183.145 0.507247 -3.63074 0
M  V30 1945 H 182.793 2.94227 -4.0797 0
M  V30 1946 H 182.493 1.96406 -5.53804 0
M  V30 1947 H 184.017 2.88339 -5.38231 0
M  V30 1948 H 185.431 0.633978 -5.69784 0
M  V30 1949 H 183.828 -0.0971485 -6.00021 0
M  V30 1950 H 184.898 -0.811711 -4.78058 0
M  V30 1951 N 186.241 1.57166 -0.116904 0
M  V30 1952 C 187.466 1.999 0.55271 0
M  V30 1953 C 187.891 0.996039 1.59564 0
M  V30 1954 O 187.249 -0.032556 1.81271 0
M  V30 1955 C 187.297 3.4152 1.15742 0
M  V30 1956 O 186.401 3.44106 2.27299 0
M  V30 1957 H 185.742 0.649447 0.138258 0
M  V30 1958 H 188.272 2.03573 -0.204759 0
M  V30 1959 H 188.282 3.79684 1.49346 0
M  V30 1960 H 186.957 4.14034 0.393493 0
M  V30 1961 H 185.534 3.17759 1.9515 0
M  V30 1962 N 187.719 -0.156864 1.56817 0
M  V30 1963 C 188.996 -0.899244 1.73704 0
M  V30 1964 C 189.376 -1.99771 0.682254 0
M  V30 1965 O 188.724 -2.26515 -0.300522 0
M  V30 1966 C 188.934 -1.45075 3.17418 0
M  V30 1967 C 190.282 -1.91802 3.7881 0
M  V30 1968 O 191.306 -1.54838 3.20786 0
M  V30 1969 O 190.165 -2.5994 4.80722 0
M  V30 1970 H 187.259 -0.424267 0.709878 0
M  V30 1971 H 189.805 -0.143561 1.69092 0
M  V30 1972 H 188.577 -0.660846 3.85679 0
M  V30 1973 H 188.2 -2.27021 3.26416 0
M  V30 1974 N 189.197 -1.51736 -0.425897 0
M  V30 1975 C 190.422 -1.69082 -1.20108 0
M  V30 1976 C 190.847 -0.392398 -1.83962 0
M  V30 1977 O 190.205 0.64858 -1.69302 0
M  V30 1978 C 190.253 -2.81604 -2.25237 0
M  V30 1979 O 189.357 -2.46004 -3.30992 0
M  V30 1980 H 188.698 -0.563408 -0.35138 0
M  V30 1981 H 191.228 -1.98358 -0.501512 0
M  V30 1982 H 191.238 -3.06025 -2.69838 0
M  V30 1983 H 189.913 -3.75817 -1.78142 0
M  V30 1984 H 188.49 -2.32195 -2.91787 0
M  V30 1985 N 190.675 0.682077 -1.42076 0
M  V30 1986 C 191.622 1.79578 -1.44984 0
M  V30 1987 C 192.592 1.6332 -0.302614 0
M  V30 1988 O 193.777 1.83978 -0.505633 0
M  V30 1989 C 190.917 3.1756 -1.35091 0
M  V30 1990 C 190.03 3.45156 -2.59791 0
M  V30 1991 C 189.165 4.72826 -2.42093 0
M  V30 1992 C 188.204 4.93433 -3.62202 0
M  V30 1993 N 187.341 6.12338 -3.43491 0
M  V30 1994 H 192.181 1.76427 -2.40161 0
M  V30 1995 H 189.718 0.861376 -1.19242 0
M  V30 1996 H 191.676 3.97287 -1.27354 0
M  V30 1997 H 190.306 3.19854 -0.435133 0
M  V30 1998 H 189.358 2.59736 -2.77923 0
M  V30 1999 H 190.67 3.5628 -3.49094 0
M  V30 2000 H 189.824 5.60631 -2.319 0
M  V30 2001 H 188.563 4.63973 -1.50268 0
M  V30 2002 H 187.568 4.04073 -3.72834 0
M  V30 2003 H 188.793 5.04136 -4.54998 0
M  V30 2004 H 186.739 6.04672 -2.54377 0
M  V30 2005 H 186.656 6.2429 -4.26377 0
M  V30 2006 H 187.924 7.02841 -3.37097 0
M  V30 2007 N 192.153 1.28127 0.917671 0
M  V30 2008 C 193.569 1.05749 1.19538 0
M  V30 2009 C 193.769 -0.202633 2.00479 0
M  V30 2010 O 192.825 -0.905382 2.3571 0
M  V30 2011 C 194.138 2.30273 1.93378 0
M  V30 2012 C 195.686 2.35412 2.06277 0
M  V30 2013 C 196.161 3.59692 2.83524 0
M  V30 2014 N 197.652 3.60309 2.91087 0
M  V30 2015 C 198.387 4.53147 3.51348 0
M  V30 2016 N 197.883 5.563 4.12919 0
M  V30 2017 N 199.676 4.40751 3.48849 0
M  V30 2018 H 191.827 2.09024 0.377184 0
M  V30 2019 H 194.09 0.919798 0.22951 0
M  V30 2020 H 193.796 3.22055 1.41328 0
M  V30 2021 H 193.67 2.36378 2.93947 0
M  V30 2022 H 196.057 1.4413 2.57508 0
M  V30 2023 H 196.138 2.33304 1.04895 0
M  V30 2024 H 195.782 4.51316 2.32973 0
M  V30 2025 H 195.712 3.59054 3.85211 0
M  V30 2026 H 198.203 2.85714 2.47338 0
M  V30 2027 H 198.516 6.2329 4.56869 0
M  V30 2028 H 196.861 5.60131 4.11435 0
M  V30 2029 H 200.052 3.59367 2.99955 0
M  V30 2030 H 200.225 5.13291 3.9552 0
M  V30 2031 N 193.631 -1.12557 1.10312 0
M  V30 2032 C 194.578 -2.18247 0.750781 0
M  V30 2033 C 195.548 -1.63853 -0.272293 0
M  V30 2034 O 196.733 -1.90195 -0.151862 0
M  V30 2035 C 193.873 -3.44591 0.187379 0
M  V30 2036 C 192.986 -4.13046 1.2656 0
M  V30 2037 C 192.121 -5.27034 0.663978 0
M  V30 2038 C 191.16 -5.87353 1.72287 0
M  V30 2039 N 190.297 -6.92757 1.1416 0
M  V30 2040 H 195.137 -2.47732 1.65628 0
M  V30 2041 H 192.674 -1.21629 0.827337 0
M  V30 2042 H 194.632 -4.16904 -0.157148 0
M  V30 2043 H 193.262 -3.15527 -0.681355 0
M  V30 2044 H 192.314 -3.38924 1.72727 0
M  V30 2045 H 193.626 -4.53947 2.06721 0
M  V30 2046 H 192.78 -6.06104 0.268824 0
M  V30 2047 H 191.519 -4.87407 -0.169082 0
M  V30 2048 H 190.524 -5.06971 2.12746 0
M  V30 2049 H 191.749 -6.29051 2.55875 0
M  V30 2050 H 189.695 -6.5517 0.329984 0
M  V30 2051 H 189.612 -7.3225 1.88007 0
M  V30 2052 H 190.88 -7.75658 0.772956 0
M  V30 2053 N 195.109 -0.891671 -1.2995 0
M  V30 2054 C 196.056 -0.361736 -2.27948 0
M  V30 2055 C 197.026 0.551761 -1.56668 0
M  V30 2056 O 198.211 0.478736 -1.84696 0
M  V30 2057 C 195.351 0.411825 -3.42634 0
M  V30 2058 C 194.464 -0.531651 -4.28716 0
M  V30 2059 C 193.599 0.258167 -5.30572 0
M  V30 2060 C 192.638 -0.680349 -6.08307 0
M  V30 2061 N 191.775 0.0745613 -7.0206 0
M  V30 2062 H 196.615 -1.20254 -2.72659 0
M  V30 2063 H 194.152 -0.604352 -1.34112 0
M  V30 2064 H 196.11 0.876304 -4.07893 0
M  V30 2065 H 194.74 1.21715 -2.98974 0
M  V30 2066 H 193.792 -1.11463 -3.63703 0
M  V30 2067 H 195.104 -1.25038 -4.82874 0
M  V30 2068 H 194.258 0.784204 -6.0161 0
M  V30 2069 H 192.997 1.01008 -4.77126 0
M  V30 2070 H 192.002 -1.21796 -5.3614 0
M  V30 2071 H 193.227 -1.43145 -6.63842 0
M  V30 2072 H 191.173 0.808883 -6.50994 0
M  V30 2073 H 191.09 -0.584409 -7.53738 0
M  V30 2074 H 192.358 0.581123 -7.77331 0
M  V30 2075 N 196.587 1.43421 -0.653314 0
M  V30 2076 C 197.836 2.01032 -0.164076 0
M  V30 2077 C 198.149 1.52147 1.22926 0
M  V30 2078 O 199.355 2.02031 1.81371 0
M  V30 2079 C 197.811 3.59082 -0.24252 0
M  V30 2080 C 197.419 4.1696 -1.63855 0
M  V30 2081 C 199.163 4.24079 0.18911 0
M  V30 2082 C 197.07 5.67304 -1.67092 0
M  V30 2083 H 196 0.751798 -0.0575769 0
M  V30 2084 H 198.651 1.6439 -0.815362 0
M  V30 2085 H 197.033 3.93125 0.476276 0
M  V30 2086 H 198.207 3.94416 -2.38271 0
M  V30 2087 H 196.522 3.64335 -2.01616 0
M  V30 2088 H 199.119 5.34381 0.184775 0
M  V30 2089 H 199.462 3.98005 1.22056 0
M  V30 2090 H 199.995 3.94918 -0.477938 0
M  V30 2091 H 196.734 5.98145 -2.68146 0
M  V30 2092 H 196.254 5.91904 -0.970014 0
M  V30 2093 H 197.933 6.31344 -1.4147 0
M  V30 2094 N 198.065 0.39524 1.52563 0
M  V30 2095 C 198.998 -0.4813 2.23067 0
M  V30 2096 C 199.976 -1.05927 1.23362 0
M  V30 2097 O 201.16 -1.10979 1.52368 0
M  V30 2098 C 198.287 -1.66676 2.9485 0
M  V30 2099 C 197.333 -1.21348 4.08873 0
M  V30 2100 S 198.166 -0.190102 5.35162 0
M  V30 2101 C 199.322 -1.38121 6.1047 0
M  V30 2102 H 199.555 0.117381 2.97068 0
M  V30 2103 H 197.088 0.179458 1.53354 0
M  V30 2104 H 199.046 -2.3466 3.36816 0
M  V30 2105 H 197.707 -2.23676 2.20518 0
M  V30 2106 H 196.9 -2.09877 4.58222 0
M  V30 2107 H 196.502 -0.612486 3.68951 0
M  V30 2108 H 198.794 -2.30726 6.37002 0
M  V30 2109 H 199.737 -0.928521 7.01986 0
M  V30 2110 H 200.145 -1.60071 5.41329 0
M  V30 2111 N 199.544 -1.57102 0.125237 0
M  V30 2112 C 200.769 -2.0019 -0.542101 0
M  V30 2113 C 201.194 -1.00449 -1.59034 0
M  V30 2114 O 200.552 0.0229423 -1.81285 0
M  V30 2115 C 200.6 -3.42129 -1.13929 0
M  V30 2116 O 199.704 -3.45307 -2.2547 0
M  V30 2117 H 199.045 -0.650171 -0.134812 0
M  V30 2118 H 201.575 -2.03461 0.215553 0
M  V30 2119 H 201.585 -3.80471 -1.4733 0
M  V30 2120 H 200.26 -4.14237 -0.371531 0
M  V30 2121 H 198.837 -3.1879 -1.93462 0
M  V30 2122 N 201.022 0.148545 -1.56898 0
M  V30 2123 C 202.438 0.501131 -1.51528 0
M  V30 2124 C 202.638 1.83458 -0.833399 0
M  V30 2125 O 201.694 2.49259 -0.40328 0
M  V30 2126 C 203.007 0.512864 -2.96294 0
M  V30 2127 C 204.555 0.598487 -3.07225 0
M  V30 2128 C 205.03 0.640897 -4.53494 0
M  V30 2129 N 206.521 0.703163 -4.57832 0
M  V30 2130 C 207.256 0.756935 -5.68382 0
M  V30 2131 N 206.752 0.770147 -6.88506 0
M  V30 2132 N 208.545 0.797698 -5.56411 0
M  V30 2133 H 200.696 -0.725532 -1.99624 0
M  V30 2134 H 202.959 -0.264358 -0.910395 0
M  V30 2135 H 202.665 -0.398691 -3.49433 0
M  V30 2136 H 202.539 1.35133 -3.52163 0
M  V30 2137 H 204.926 1.50046 -2.54106 0
M  V30 2138 H 205.007 -0.267093 -2.54402 0
M  V30 2139 H 204.651 -0.256915 -5.0725 0
M  V30 2140 H 204.581 1.52295 -5.04097 0
M  V30 2141 H 207.072 0.700314 -3.71354 0
M  V30 2142 H 207.385 0.812983 -7.68512 0
M  V30 2143 H 205.73 0.738049 -6.9107 0
M  V30 2144 H 208.921 0.784535 -4.61479 0
M  V30 2145 H 209.094 0.83614 -6.42583 0
M  V30 2146 N 202.5 1.5196 0.417844 0
M  V30 2147 C 203.911 1.57851 0.997 0
M  V30 2148 C 204.262 0.413714 1.91789 0
M  V30 2149 O 203.387 -0.467057 2.113 0
M  V30 2150 C 203.982 2.86085 1.81496 0
M  V30 2151 C 202.541 2.94483 2.34428 0
M  V30 2152 C 201.688 2.52707 1.14169 0
M  V30 2153 H 204.639 1.57455 0.198392 0
M  V30 2154 H 204.66 2.70947 2.67148 0
M  V30 2155 H 204.172 3.70842 1.14446 0
M  V30 2156 H 202.273 2.142 3.04875 0
M  V30 2157 H 202.386 3.98546 2.65891 0
M  V30 2158 H 200.75 2.06353 1.49301 0
M  V30 2159 H 201.533 3.39828 0.486999 0
M  V30 2160 N 203.978 -0.674533 1.42435 0
M  V30 2161 C 205.225 -1.43459 1.42919 0
M  V30 2162 C 205.553 -1.94446 0.0457312 0
M  V30 2163 O 204.808 -1.7132 -0.94593 0
M  V30 2164 C 205.107 -2.64767 2.40069 0
M  V30 2165 C 204.773 -2.3232 3.86443 0
M  V30 2166 C 203.435 -2.23182 4.26314 0
M  V30 2167 C 205.787 -2.05977 4.78773 0
M  V30 2168 C 203.115 -1.85827 5.56494 0
M  V30 2169 C 205.467 -1.70125 6.09295 0
M  V30 2170 C 204.131 -1.59498 6.48164 0
M  V30 2171 H 203.401 -0.524952 0.522978 0
M  V30 2172 H 206.048 -0.769097 1.75377 0
M  V30 2173 H 204.353 -3.36349 2.00939 0
M  V30 2174 H 206.05 -3.22949 2.37707 0
M  V30 2175 H 202.64 -2.40334 3.54877 0
M  V30 2176 H 206.824 -2.11969 4.48757 0
M  V30 2177 H 202.08 -1.76168 5.8547 0
M  V30 2178 H 206.254 -1.48767 6.80324 0
M  V30 2179 H 203.881 -1.30322 7.48946 0
M  V30 2180 N 205.456 -1.28612 -0.910864 0
M  V30 2181 C 206.704 -1.15705 -1.65701 0
M  V30 2182 C 207.025 0.29416 -1.92769 0
M  V30 2183 O 206.295 1.20331 -1.54588 0
M  V30 2184 H 204.875 -0.425216 -0.614167 0
M  V30 2185 H 207.537 -1.61381 -1.0928 0
M  V30 2186 H 206.633 -1.6988 -2.61815 0
M  V30 2187 N 206.934 1.1197 -1.10907 0
M  V30 2188 C 208.18 1.8386 -0.855773 0
M  V30 2189 C 208.513 1.84134 0.617103 0
M  V30 2190 O 207.788 1.29041 1.45529 0
M  V30 2191 C 208.071 3.31305 -1.411 0
M  V30 2192 C 207.924 3.39456 -2.9511 0
M  V30 2193 C 209.243 4.2721 -1.05736 0
M  V30 2194 H 206.362 0.667545 -0.312334 0
M  V30 2195 H 209.004 1.31331 -1.37303 0
M  V30 2196 H 207.154 3.76169 -0.97105 0
M  V30 2197 H 208.826 3.03191 -3.47668 0
M  V30 2198 H 207.069 2.79849 -3.31462 0
M  V30 2199 H 207.74 4.43209 -3.29044 0
M  V30 2200 H 210.216 3.90497 -1.43706 0
M  V30 2201 H 209.092 5.28775 -1.47269 0
M  V30 2202 H 209.353 4.42088 0.0325958 0
M  V30 2203 N 208.412 0.89855 1.29475 0
M  V30 2204 C 209.375 0.380272 2.26023 0
M  V30 2205 C 210.375 -0.484891 1.53315 0
M  V30 2206 O 211.565 -0.290108 1.71767 0
M  V30 2207 C 208.697 -0.45651 3.3783 0
M  V30 2208 H 209.89 1.23295 2.73383 0
M  V30 2209 H 207.443 0.676589 1.40897 0
M  V30 2210 H 208.178 -1.32922 2.95808 0
M  V30 2211 H 207.963 0.163393 3.91759 0
M  V30 2212 H 209.453 -0.810466 4.0966 0
M  V30 2213 N 209.89 -1.43072 0.660911 0
M  V30 2214 C 210.82 -2.33497 -0.0122829 0
M  V30 2215 C 211.801 -1.49903 -0.803925 0
M  V30 2216 O 212.986 -1.78546 -0.763864 0
M  V30 2217 C 210.116 -3.33363 -0.973994 0
M  V30 2218 C 209.07 -4.27003 -0.291928 0
M  V30 2219 C 208.396 -5.16967 -1.36562 0
M  V30 2220 C 209.696 -5.15816 0.820462 0
M  V30 2221 H 211.39 -2.90038 0.742873 0
M  V30 2222 H 208.936 -1.39461 0.358688 0
M  V30 2223 H 210.889 -3.95524 -1.45392 0
M  V30 2224 H 209.613 -2.75095 -1.7604 0
M  V30 2225 H 208.272 -3.66217 0.167623 0
M  V30 2226 H 207.92 -4.55034 -2.14366 0
M  V30 2227 H 207.62 -5.80441 -0.914454 0
M  V30 2228 H 209.144 -5.82003 -1.84675 0
M  V30 2229 H 210.558 -5.71742 0.422366 0
M  V30 2230 H 208.955 -5.8805 1.19656 0
M  V30 2231 H 210.025 -4.55045 1.67518 0
M  V30 2232 N 211.368 -0.403325 -1.52352 0
M  V30 2233 C 212.298 0.416205 -2.29761 0
M  V30 2234 C 213.279 1.05123 -1.33728 0
M  V30 2235 O 214.464 1.06134 -1.62632 0
M  V30 2236 C 211.594 1.53624 -3.11475 0
M  V30 2237 C 210.548 1.02653 -4.15507 0
M  V30 2238 C 209.874 2.23971 -4.85532 0
M  V30 2239 C 211.174 0.08463 -5.22231 0
M  V30 2240 H 212.868 -0.229701 -2.98518 0
M  V30 2241 H 210.414 -0.111913 -1.43564 0
M  V30 2242 H 212.367 2.1165 -3.64393 0
M  V30 2243 H 211.091 2.20994 -2.40477 0
M  V30 2244 H 209.75 0.46871 -3.63591 0
M  V30 2245 H 209.398 2.89883 -4.11068 0
M  V30 2246 H 209.098 1.90521 -5.55856 0
M  V30 2247 H 210.622 2.82614 -5.41259 0
M  V30 2248 H 212.036 0.573509 -5.70424 0
M  V30 2249 H 210.433 -0.160783 -5.99885 0
M  V30 2250 H 211.503 -0.86237 -4.7717 0
M  V30 2251 N 212.846 1.57033 -0.133567 0
M  V30 2252 C 214.095 1.94861 0.520768 0
M  V30 2253 C 214.408 1.02012 1.66892 0
M  V30 2254 O 215.614 1.29365 2.38699 0
M  V30 2255 C 214.07 3.46362 0.977809 0
M  V30 2256 C 213.678 4.47773 -0.142674 0
M  V30 2257 C 215.422 3.93083 1.60269 0
M  V30 2258 C 213.329 5.90468 0.331883 0
M  V30 2259 H 212.259 0.727453 0.198315 0
M  V30 2260 H 214.91 1.82227 -0.215759 0
M  V30 2261 H 213.292 3.54282 1.7692 0
M  V30 2262 H 214.466 4.51536 -0.919317 0
M  V30 2263 H 212.781 4.10891 -0.675124 0
M  V30 2264 H 215.378 4.97121 1.96914 0
M  V30 2265 H 215.721 3.33876 2.48662 0
M  V30 2266 H 216.254 3.88025 0.876453 0
M  V30 2267 H 212.993 6.53463 -0.516341 0
M  V30 2268 H 212.513 5.90094 1.07469 0
M  V30 2269 H 214.192 6.42179 0.788332 0
M  V30 2270 N 214.325 -0.140222 1.56975 0
M  V30 2271 C 215.573 -0.850005 1.83356 0
M  V30 2272 C 215.894 -1.81399 0.71551 0
M  V30 2273 O 215.164 -1.94136 -0.262294 0
M  V30 2274 H 213.744 -0.316886 0.676456 0
M  V30 2275 H 216.406 -0.132608 1.94448 0
M  V30 2276 H 215.502 -1.40814 2.78528 0
M  V30 2277 N 215.803 -1.52179 -0.40978 0
M  V30 2278 C 217.051 -1.65878 -1.15451 0
M  V30 2279 C 217.372 -0.390771 -1.91044 0
M  V30 2280 O 216.642 0.594323 -1.86667 0
M  V30 2281 H 215.222 -0.611405 -0.429177 0
M  V30 2282 H 217.884 -1.89219 -0.467134 0
M  V30 2283 H 216.98 -2.49954 -1.86894 0
M  V30 2284 N 217.281 0.66697 -1.42791 0
M  V30 2285 C 218.527 1.4291 -1.43891 0
M  V30 2286 C 218.86 1.94114 -0.0578972 0
M  V30 2287 O 218.135 1.71414 0.91911 0
M  V30 2288 C 218.418 2.62049 -2.46987 0
M  V30 2289 C 218.271 2.16426 -3.94309 0
M  V30 2290 C 219.59 3.64266 -2.46978 0
M  V30 2291 H 216.709 0.518306 -0.523954 0
M  V30 2292 H 219.351 0.757321 -1.74255 0
M  V30 2293 H 217.501 3.19361 -2.21225 0
M  V30 2294 H 219.173 1.64221 -4.31079 0
M  V30 2295 H 217.416 1.47925 -4.078 0
M  V30 2296 H 218.087 3.02038 -4.62036 0
M  V30 2297 H 220.563 3.16686 -2.69906 0
M  V30 2298 H 219.439 4.45196 -3.21079 0
M  V30 2299 H 219.7 4.15927 -1.49857 0
M  V30 2300 N 218.759 1.29093 0.90403 0
M  V30 2301 C 220.036 1.075 1.63411 0
M  V30 2302 C 220.416 -0.382346 2.07609 0
M  V30 2303 O 219.764 -1.37031 1.82851 0
M  V30 2304 C 219.974 2.05858 2.81822 0
M  V30 2305 C 221.322 2.36539 3.52611 0
M  V30 2306 O 222.346 2.04019 2.91984 0
M  V30 2307 O 221.205 2.92085 4.61897 0
M  V30 2308 H 218.299 0.411547 0.717327 0
M  V30 2309 H 220.845 1.40449 0.952479 0
M  V30 2310 H 219.617 3.04037 2.46327 0
M  V30 2311 H 219.24 1.73613 3.57693 0
M  V30 2312 N 220.237 -1.11381 1.11499 0
M  V30 2313 C 221.184 -2.17439 0.773887 0
M  V30 2314 C 222.154 -1.64132 -0.254899 0
M  V30 2315 O 223.339 -1.90345 -0.13168 0
M  V30 2316 C 220.479 -3.44373 0.223917 0
M  V30 2317 C 219.592 -4.1168 1.30934 0
M  V30 2318 C 218.727 -5.263 0.71984 0
M  V30 2319 C 217.766 -5.85493 1.78507 0
M  V30 2320 N 216.903 -6.91507 1.21502 0
M  V30 2321 H 221.743 -2.45962 1.68246 0
M  V30 2322 H 219.28 -1.20744 0.840191 0
M  V30 2323 H 221.238 -4.17047 -0.112921 0
M  V30 2324 H 219.868 -3.16232 -0.647851 0
M  V30 2325 H 218.92 -3.37073 1.76312 0
M  V30 2326 H 220.232 -4.51729 2.11524 0
M  V30 2327 H 219.386 -6.05785 0.333094 0
M  V30 2328 H 218.125 -4.87559 -0.117377 0
M  V30 2329 H 217.13 -5.04686 2.18111 0
M  V30 2330 H 218.355 -6.26301 2.62533 0
M  V30 2331 H 216.301 -6.54783 0.399455 0
M  V30 2332 H 216.218 -7.30214 1.95763 0
M  V30 2333 H 217.486 -7.74795 0.855181 0
M  V30 2334 N 221.715 -0.905404 -1.28997 0
M  V30 2335 C 222.663 -0.377431 -2.29517 0
M  V30 2336 C 223.657 0.526461 -1.61012 0
M  V30 2337 O 224.863 0.40863 -1.753 0
M  V30 2338 H 221.238 -0.103437 -0.744852 0
M  V30 2339 H 223.209 -1.23848 -2.71485 0
M  V30 2340 C 221.958 0.374833 -3.45674 0
M  V30 2341 H 221.281 -0.311474 -3.98585 0
M  V30 2342 H 222.721 0.70903 -4.1803 0
M  V30 2343 C 221.18 1.57963 -2.97572 0
M  V30 2344 O 221.71 2.67886 -2.99333 0
M  V30 2345 N 219.916 1.42375 -2.53333 0
M  V30 2346 H 219.463 0.529466 -2.521 0
M  V30 2347 H 219.421 2.23117 -2.21509 0
M  V30 2348 N 223.193 1.4272 -0.668489 0
M  V30 2349 C 224.441 2.01226 -0.187769 0
M  V30 2350 C 224.762 1.53092 1.2078 0
M  V30 2351 O 224.032 0.74993 1.80977 0
M  V30 2352 H 222.612 0.744041 -0.0664272 0
M  V30 2353 H 225.274 1.74723 -0.863583 0
M  V30 2354 H 224.37 3.11556 -0.184166 0
M  V30 2355 N 224.671 0.411399 1.52136 0
M  V30 2356 C 226.082 -0.0576826 1.86611 0
M  V30 2357 C 226.433 -1.44238 1.33003 0
M  V30 2358 O 225.558 -2.05759 0.670228 0
M  V30 2359 C 226.153 -0.111448 3.38617 0
M  V30 2360 C 224.712 -0.52487 3.72723 0
M  V30 2361 C 223.859 0.299176 2.75681 0
M  V30 2362 H 226.81 0.628368 1.4573 0
M  V30 2363 H 226.831 -0.926252 3.69054 0
M  V30 2364 H 226.343 0.896488 3.77604 0
M  V30 2365 H 224.444 -1.53936 3.39315 0
M  V30 2366 H 224.557 -0.267681 4.78352 0
M  V30 2367 H 222.921 -0.238814 2.53578 0
M  V30 2368 H 223.704 1.3055 3.17508 0
M  V30 2369 N 226.149 -1.5696 0.141893 0
M  V30 2370 C 227.389 -1.9785 -0.513304 0
M  V30 2371 C 227.753 -1.02467 -1.62371 0
M  V30 2372 O 228.954 -1.32382 -2.33941 0
M  V30 2373 C 227.225 -3.42797 -1.01118 0
M  V30 2374 S 228.784 -4.05709 -1.67169 0
M  V30 2375 H 225.602 -0.691318 -0.166135 0
M  V30 2376 H 228.204 -1.94114 0.232398 0
M  V30 2377 H 226.908 -4.0995 -0.192179 0
M  V30 2378 H 226.439 -3.50235 -1.79162 0
M  V30 2379 H 228.454 -3.98342 -2.95868 0
M  V30 2380 N 227.627 0.131896 -1.57047 0
M  V30 2381 C 228.557 1.16384 -2.02428 0
M  V30 2382 C 229.538 1.43936 -0.90644 0
M  V30 2383 O 230.723 1.54599 -1.17528 0
M  V30 2384 C 227.853 2.49328 -2.4177 0
M  V30 2385 C 226.807 2.36266 -3.56879 0
M  V30 2386 C 226.133 3.74057 -3.8208 0
M  V30 2387 C 227.433 1.834 -4.89042 0
M  V30 2388 H 229.127 0.786433 -2.88887 0
M  V30 2389 H 226.673 0.376855 -1.38981 0
M  V30 2390 H 228.626 3.21759 -2.7212 0
M  V30 2391 H 227.35 2.88934 -1.52266 0
M  V30 2392 H 226.009 1.66286 -3.26718 0
M  V30 2393 H 225.657 4.11125 -2.89803 0
M  V30 2394 H 225.357 3.66174 -4.59554 0
M  V30 2395 H 226.881 4.48012 -4.1487 0
M  V30 2396 H 228.295 2.45636 -5.18011 0
M  V30 2397 H 226.692 1.8637 -5.70426 0
M  V30 2398 H 227.762 0.790662 -4.7841 0
M  V30 2399 N 229.106 1.52395 0.401703 0
M  V30 2400 C 230.352 1.68019 1.14635 0
M  V30 2401 C 230.707 0.408722 1.88009 0
M  V30 2402 O 230 -0.597133 1.82057 0
M  V30 2403 C 230.194 2.84578 2.16217 0
M  V30 2404 C 230.023 4.22938 1.5282 0
M  V30 2405 C 228.793 4.88352 1.29772 0
M  V30 2406 C 230.991 5.04778 0.985094 0
M  V30 2407 N 228.973 6.10726 0.623455 0
M  V30 2408 C 230.344 6.1845 0.438172 0
M  V30 2409 C 232.399 4.90057 0.880275 0
M  V30 2410 C 231.102 7.19013 -0.203306 0
M  V30 2411 C 233.128 5.9086 0.252639 0
M  V30 2412 C 232.49 7.03829 -0.283573 0
M  V30 2413 H 228.589 0.668413 0.405892 0
M  V30 2414 H 231.173 1.89717 0.437674 0
M  V30 2415 H 229.344 2.64483 2.84435 0
M  V30 2416 H 231.076 2.89202 2.83098 0
M  V30 2417 H 227.831 4.46846 1.56926 0
M  V30 2418 H 228.255 6.76323 0.302733 0
M  V30 2419 H 232.897 4.02938 1.28065 0
M  V30 2420 H 230.615 8.05751 -0.615726 0
M  V30 2421 H 234.201 5.81543 0.172954 0
M  V30 2422 H 233.081 7.80493 -0.761575 0
M  V30 2423 N 230.584 -0.659388 1.43143 0
M  V30 2424 C 231.814 -1.44513 1.47646 0
M  V30 2425 C 232.222 -1.88981 0.0910095 0
M  V30 2426 O 231.565 -1.59702 -0.907789 0
M  V30 2427 C 231.627 -2.71663 2.35456 0
M  V30 2428 C 231.291 -2.49175 3.83094 0
M  V30 2429 C 232.288 -2.1279 4.74359 0
M  V30 2430 C 229.973 -2.63691 4.27519 0
M  V30 2431 C 231.967 -1.9121 6.08044 0
M  V30 2432 C 229.654 -2.41726 5.61259 0
M  V30 2433 C 230.652 -2.0554 6.51339 0
M  V30 2434 O 230.34 -1.838 7.82606 0
M  V30 2435 H 230.072 -0.45064 0.503884 0
M  V30 2436 H 232.626 -0.816248 1.88485 0
M  V30 2437 H 230.856 -3.37089 1.89493 0
M  V30 2438 H 232.545 -3.33595 2.31235 0
M  V30 2439 H 233.311 -2.01157 4.41317 0
M  V30 2440 H 229.19 -2.90832 3.57684 0
M  V30 2441 H 232.734 -1.62889 6.78316 0
M  V30 2442 H 228.631 -2.52959 5.9387 0
M  V30 2443 H 229.399 -1.98275 7.94122 0
M  V30 2444 N 232.062 -1.29571 -0.897171 0
M  V30 2445 C 233.29 -1.20583 -1.68129 0
M  V30 2446 C 233.705 0.233181 -1.87354 0
M  V30 2447 O 233.062 1.15579 -1.41236 0
M  V30 2448 C 233.113 -1.91772 -3.06441 0
M  V30 2449 O 232.834 -3.30053 -2.88091 0
M  V30 2450 C 234.335 -1.89291 -4.00854 0
M  V30 2451 H 231.555 -0.417826 -0.525036 0
M  V30 2452 H 234.099 -1.70987 -1.12177 0
M  V30 2453 H 232.254 -1.45196 -3.59161 0
M  V30 2454 H 232.668 -3.65942 -3.75748 0
M  V30 2455 H 234.142 -2.43662 -4.95311 0
M  V30 2456 H 234.619 -0.869014 -4.30517 0
M  V30 2457 H 235.225 -2.35622 -3.54066 0
M  V30 2458 N 233.54 1.10788 -1.12088 0
M  V30 2459 C 234.45 2.20599 -0.798338 0
M  V30 2460 C 235.466 1.72712 0.21135 0
M  V30 2461 O 236.642 2.01348 0.0458477 0
M  V30 2462 C 233.707 3.45771 -0.253674 0
M  V30 2463 C 232.768 4.08411 -1.32283 0
M  V30 2464 C 232.001 5.27608 -0.80406 0
M  V30 2465 O 232.224 5.69241 0.363478 0
M  V30 2466 O 231.158 5.8101 -1.57198 0
M  V30 2467 H 234.984 2.50614 -1.7154 0
M  V30 2468 H 232.569 1.19454 -0.897275 0
M  V30 2469 H 234.451 4.21376 0.0453691 0
M  V30 2470 H 233.126 3.1739 0.636005 0
M  V30 2471 H 232.033 3.34507 -1.67499 0
M  V30 2472 H 233.366 4.40986 -2.18614 0
M  V30 2473 N 235.018 0.912232 1.28515 0
M  V30 2474 C 236.429 0.591352 1.77087 0
M  V30 2475 C 236.78 -0.8933 1.74684 0
M  V30 2476 O 235.905 -1.69876 1.34056 0
M  V30 2477 C 236.5 1.06668 3.2157 0
M  V30 2478 C 235.059 0.79675 3.67871 0
M  V30 2479 C 234.206 1.23427 2.48316 0
M  V30 2480 H 237.157 1.09365 1.15 0
M  V30 2481 H 237.178 0.407455 3.78312 0
M  V30 2482 H 236.69 2.14726 3.23287 0
M  V30 2483 H 234.791 -0.270679 3.71616 0
M  V30 2484 H 234.904 1.40343 4.58084 0
M  V30 2485 H 233.268 0.653036 2.46186 0
M  V30 2486 H 234.051 2.32316 2.52753 0
M  V30 2487 N 236.496 -1.42363 0.676048 0
M  V30 2488 C 237.721 -2.06377 0.205705 0
M  V30 2489 C 238.146 -1.50463 -1.12883 0
M  V30 2490 O 237.504 -0.623619 -1.70237 0
M  V30 2491 C 237.552 -3.60277 0.152655 0
M  V30 2492 O 236.656 -4.02935 -0.87845 0
M  V30 2493 H 235.997 -0.655588 0.105359 0
M  V30 2494 H 238.527 -1.82475 0.925412 0
M  V30 2495 H 238.537 -4.07993 -0.0230675 0
M  V30 2496 H 237.212 -4.00346 1.12675 0
M  V30 2497 H 235.789 -3.66764 -0.673668 0
M  V30 2498 N 237.974 -0.419461 -1.51915 0
M  V30 2499 C 239.222 0.152637 -2.01523 0
M  V30 2500 C 239.543 1.44762 -1.30649 0
M  V30 2501 O 238.813 1.90997 -0.435535 0
M  V30 2502 H 237.393 0.0593966 -0.744635 0
M  V30 2503 H 240.055 -0.558073 -1.86739 0
M  V30 2504 H 239.151 0.341369 -3.10227 0
M  V30 2505 N 239.452 1.56882 -0.150215 0
M  V30 2506 C 240.68 2.00593 0.506948 0
M  V30 2507 C 241.095 1.03033 1.58208 0
M  V30 2508 O 240.452 0.0278396 1.82479 0
M  V30 2509 C 240.503 3.44209 1.10465 0
M  V30 2510 O 240.224 4.3804 0.0724636 0
M  V30 2511 C 241.725 4.03214 1.84211 0
M  V30 2512 H 238.945 0.65795 0.13169 0
M  V30 2513 H 241.489 2.03018 -0.245743 0
M  V30 2514 H 239.644 3.42625 1.80795 0
M  V30 2515 H 240.058 5.22007 0.510793 0
M  V30 2516 H 241.532 5.0569 2.21318 0
M  V30 2517 H 242.009 3.44107 2.72923 0
M  V30 2518 H 242.615 4.08437 1.18572 0
M  V30 2519 N 240.93 -0.123565 1.57115 0
M  V30 2520 C 241.878 -1.17082 2.00984 0
M  V30 2521 C 242.872 -1.43136 0.906009 0
M  V30 2522 O 244.078 -1.43152 1.09121 0
M  V30 2523 H 240.453 -0.394653 0.64012 0
M  V30 2524 H 242.424 -0.774292 2.88179 0
M  V30 2525 C 241.173 -2.49057 2.42623 0
M  V30 2526 H 240.496 -2.29846 3.27125 0
M  V30 2527 H 241.936 -3.20906 2.7712 0
M  V30 2528 C 240.395 -3.11305 1.28805 0
M  V30 2529 O 240.925 -3.97171 0.60153 0
M  V30 2530 N 239.131 -2.71111 1.04628 0
M  V30 2531 H 238.678 -2.01382 1.60634 0
M  V30 2532 H 238.636 -3.1309 0.286685 0
M  V30 2533 N 242.408 -1.52605 -0.393616 0
M  V30 2534 C 243.636 -1.71294 -1.16043 0
M  V30 2535 C 244.051 -0.429259 -1.83855 0
M  V30 2536 O 243.408 0.595921 -1.72496 0
M  V30 2537 C 243.459 -2.8593 -2.21193 0
M  V30 2538 O 243.18 -4.09329 -1.56146 0
M  V30 2539 C 244.681 -3.16259 -3.10636 0
M  V30 2540 H 241.901 -0.573641 -0.348104 0
M  V30 2541 H 244.445 -1.99234 -0.461092 0
M  V30 2542 H 242.6 -2.60465 -2.86769 0
M  V30 2543 H 243.014 -4.73323 -2.25978 0
M  V30 2544 H 244.488 -3.99946 -3.80456 0
M  V30 2545 H 244.965 -2.3045 -3.73884 0
M  V30 2546 H 245.571 -3.43547 -2.50711 0
M  V30 2547 N 243.887 0.651787 -1.4349 0
M  V30 2548 C 245.303 0.96762 -1.26922 0
M  V30 2549 C 245.503 2.00602 -0.189982 0
M  V30 2550 O 244.559 2.48793 0.431107 0
M  V30 2551 C 245.872 1.45052 -2.63401 0
M  V30 2552 C 247.42 1.5671 -2.70945 0
M  V30 2553 C 247.895 2.0839 -4.07845 0
M  V30 2554 N 249.386 2.1569 -4.09917 0
M  V30 2555 C 250.121 2.56804 -5.12679 0
M  V30 2556 N 249.617 2.97203 -6.25813 0
M  V30 2557 N 251.41 2.56756 -5.00033 0
M  V30 2558 H 243.561 -0.0353158 -2.12371 0
M  V30 2559 H 245.824 0.0467858 -0.946845 0
M  V30 2560 H 245.53 0.761926 -3.43348 0
M  V30 2561 H 245.404 2.42529 -2.88894 0
M  V30 2562 H 247.791 2.2467 -1.9133 0
M  V30 2563 H 247.872 0.57662 -2.49216 0
M  V30 2564 H 247.516 1.41031 -4.87927 0
M  V30 2565 H 247.446 3.08271 -4.26938 0
M  V30 2566 H 249.937 1.87237 -3.28254 0
M  V30 2567 H 250.25 3.27328 -7.00055 0
M  V30 2568 H 248.595 2.95004 -6.29283 0
M  V30 2569 H 251.786 2.24572 -4.10713 0
M  V30 2570 H 251.959 2.88475 -5.80247 0
M  V30 2571 N 245.365 1.30045 0.890287 0
M  V30 2572 C 246.612 1.18561 1.64163 0
M  V30 2573 C 246.94 -0.260852 1.92743 0
M  V30 2574 O 246.195 -1.20376 1.54299 0
M  V30 2575 C 246.494 1.95409 2.99249 0
M  V30 2576 C 246.16 3.45066 2.90242 0
M  V30 2577 C 244.822 3.85878 2.87492 0
M  V30 2578 C 247.174 4.4039 2.78758 0
M  V30 2579 C 244.502 5.20314 2.7109 0
M  V30 2580 C 246.854 5.74928 2.63894 0
M  V30 2581 C 245.518 6.14986 2.59516 0
M  V30 2582 H 244.788 0.433846 0.600715 0
M  V30 2583 H 247.435 1.61088 1.03552 0
M  V30 2584 H 245.74 1.45501 3.63781 0
M  V30 2585 H 247.437 1.8392 3.56334 0
M  V30 2586 H 244.027 3.12631 2.93189 0
M  V30 2587 H 248.211 4.09806 2.79952 0
M  V30 2588 H 243.467 5.50449 2.66112 0
M  V30 2589 H 247.641 6.48434 2.53981 0
M  V30 2590 H 245.268 7.19104 2.46565 0
M  V30 2591 N 246.843 -1.10192 1.12674 0
M  V30 2592 C 248.068 -1.86523 0.906853 0
M  V30 2593 C 248.493 -1.80221 -0.538711 0
M  V30 2594 O 247.851 -1.17396 -1.38158 0
M  V30 2595 C 247.899 -3.32758 1.3894 0
M  V30 2596 O 247.003 -4.08449 0.5695 0
M  V30 2597 H 246.344 -0.578678 0.325619 0
M  V30 2598 H 248.874 -1.39203 1.49946 0
M  V30 2599 H 248.884 -3.83608 1.38958 0
M  V30 2600 H 247.559 -3.36661 2.44197 0
M  V30 2601 H 246.136 -3.67427 0.636528 0
M  V30 2602 N 248.321 -0.919034 -1.28029 0
M  V30 2603 C 249.284 -0.416182 -2.2539 0
M  V30 2604 C 250.284 0.460438 -1.54067 0
M  V30 2605 O 251.474 0.262744 -1.72207 0
M  V30 2606 C 248.606 0.402707 -3.38513 0
M  V30 2607 H 249.799 -1.27629 -2.71387 0
M  V30 2608 H 247.352 -0.698919 -1.39803 0
M  V30 2609 H 248.087 1.282 -2.97885 0
M  V30 2610 H 247.872 -0.225698 -3.9145 0
M  V30 2611 H 249.362 0.745191 -4.10897 0
M  V30 2612 N 249.799 1.42003 -0.683588 0
M  V30 2613 C 250.762 2.29191 -0.0198243 0
M  V30 2614 C 251.762 1.43773 0.72013 0
M  V30 2615 O 252.952 1.65061 0.556815 0
M  V30 2616 C 250.084 3.26435 0.982487 0
M  V30 2617 H 251.277 2.8938 -0.787345 0
M  V30 2618 H 248.83 1.49789 -0.446418 0
M  V30 2619 H 249.565 2.71203 1.77819 0
M  V30 2620 H 249.35 3.89449 0.455182 0
M  V30 2621 H 250.84 3.918 1.44508 0
M  V30 2622 N 251.277 0.427512 1.51691 0
M  V30 2623 C 252.502 -0.143601 2.06902 0
M  V30 2624 C 252.927 -1.36536 1.29382 0
M  V30 2625 O 252.285 -1.78289 0.329043 0
M  V30 2626 C 252.333 -0.454207 3.57728 0
M  V30 2627 O 251.437 -1.54228 3.82475 0
M  V30 2628 H 250.778 -0.00617128 0.663971 0
M  V30 2629 H 253.308 0.606014 1.95419 0
M  V30 2630 H 253.318 -0.707525 4.01818 0
M  V30 2631 H 251.993 0.438812 4.13579 0
M  V30 2632 H 250.57 -1.2797 3.50254 0
M  V30 2633 N 252.755 -1.56801 0.158532 0
M  V30 2634 C 254.004 -1.95665 -0.489702 0
M  V30 2635 C 254.317 -1.04654 -1.65248 0
M  V30 2636 O 255.523 -1.33146 -2.3661 0
M  V30 2637 C 253.979 -3.47874 -0.922582 0
M  V30 2638 C 253.587 -4.47489 0.213893 0
M  V30 2639 C 255.331 -3.95583 -1.53996 0
M  V30 2640 C 253.238 -5.90921 -0.237903 0
M  V30 2641 H 252.168 -0.730516 -0.186716 0
M  V30 2642 H 254.819 -1.81861 0.244722 0
M  V30 2643 H 253.201 -3.57051 -1.71261 0
M  V30 2644 H 254.375 -4.50017 0.991036 0
M  V30 2645 H 252.69 -4.09764 0.740407 0
M  V30 2646 H 255.287 -5.0019 -1.8898 0
M  V30 2647 H 255.63 -3.37789 -2.43319 0
M  V30 2648 H 256.163 -3.8937 -0.814611 0
M  V30 2649 H 252.902 -6.52559 0.620236 0
M  V30 2650 H 252.422 -5.91729 -0.980676 0
M  V30 2651 H 254.101 -6.43352 -0.686067 0
M  V30 2652 N 254.233 0.115231 -1.57178 0
M  V30 2653 C 255.481 0.820727 -1.84685 0
M  V30 2654 C 255.802 1.80237 -0.744279 0
M  V30 2655 O 255.072 1.94529 0.231375 0
M  V30 2656 H 253.652 0.306084 -0.681411 0
M  V30 2657 H 256.314 0.101656 -1.94635 0
M  V30 2658 H 255.41 1.36366 -2.80733 0
M  V30 2659 N 255.711 1.52812 0.385517 0
M  V30 2660 C 256.936 1.72207 1.15583 0
M  V30 2661 C 257.361 0.441034 1.82857 0
M  V30 2662 O 256.719 -0.603465 1.70962 0
M  V30 2663 C 256.767 2.87476 2.17692 0
M  V30 2664 O 255.871 2.54693 3.24354 0
M  V30 2665 H 255.212 0.572526 0.336319 0
M  V30 2666 H 257.742 1.99618 0.448744 0
M  V30 2667 H 257.752 3.13072 2.6163 0
M  V30 2668 H 256.427 3.80408 1.68115 0
M  V30 2669 H 255.004 2.3985 2.85529 0
M  V30 2670 N 257.189 -0.644168 1.43834 0
M  V30 2671 C 258.152 -1.73857 1.49353 0
M  V30 2672 C 259.152 -1.56315 0.377112 0
M  V30 2673 O 260.342 -1.62048 0.639226 0
M  V30 2674 C 257.474 -3.12819 1.35488 0
M  V30 2675 H 258.667 -1.70342 2.46827 0
M  V30 2676 H 256.22 -0.856652 1.30733 0
M  V30 2677 H 256.955 -3.2194 0.390569 0
M  V30 2678 H 256.74 -3.26958 2.16428 0
M  V30 2679 H 258.23 -3.92606 1.42302 0
M  V30 2680 N 258.668 -1.30515 -0.883378 0
M  V30 2681 C 259.6 -1.12846 -1.99496 0
M  V30 2682 C 260.613 -0.0712571 -1.62644 0
M  V30 2683 O 261.802 -0.317432 -1.75655 0
M  V30 2684 C 258.902 -0.699123 -3.3161 0
M  V30 2685 C 258.075 -1.83842 -3.96889 0
M  V30 2686 C 257.134 -1.39737 -5.07307 0
M  V30 2687 O 256.16 -2.10485 -5.28852 0
M  V30 2688 N 257.362 -0.277279 -5.79837 0
M  V30 2689 H 260.127 -2.08585 -2.15203 0
M  V30 2690 H 257.688 -1.22672 -1.05656 0
M  V30 2691 H 259.68 -0.387044 -4.02845 0
M  V30 2692 H 258.25 0.166276 -3.12157 0
M  V30 2693 H 257.47 -2.31853 -3.18807 0
M  V30 2694 H 258.758 -2.60187 -4.37241 0
M  V30 2695 H 258.156 0.3122 -5.64838 0
M  V30 2696 H 256.713 -0.0246623 -6.51795 0
M  V30 2697 N 260.146 1.09593 -1.13257 0
M  V30 2698 C 261.056 2.19739 -0.821691 0
M  V30 2699 C 262.072 1.72926 0.19302 0
M  V30 2700 O 263.248 2.01385 0.0244895 0
M  V30 2701 C 260.313 3.45482 -0.290333 0
M  V30 2702 C 259.374 4.06985 -1.36607 0
M  V30 2703 C 258.607 5.26726 -0.859975 0
M  V30 2704 O 258.83 5.69594 0.303082 0
M  V30 2705 O 257.764 5.7931 -1.63351 0
M  V30 2706 H 261.59 2.48781 -1.74189 0
M  V30 2707 H 259.175 1.18496 -0.909894 0
M  V30 2708 H 261.057 4.214 0.000674022 0
M  V30 2709 H 259.732 3.18047 0.602306 0
M  V30 2710 H 258.639 3.32712 -1.71037 0
M  V30 2711 H 259.972 4.38643 -2.23279 0
M  V30 2712 N 261.624 0.925811 1.2754 0
M  V30 2713 C 262.872 0.564138 1.94067 0
M  V30 2714 C 263.193 -0.897188 1.73134 0
M  V30 2715 O 262.463 -1.63573 1.07799 0
M  V30 2716 H 261.043 0.205645 0.718136 0
M  V30 2717 H 263.705 1.1778 1.55287 0
M  V30 2718 H 262.801 0.76881 3.02483 0
M  V30 2719 N 263.102 -1.41638 0.69111 0
M  V30 2720 C 264.065 -2.29178 0.0319786 0
M  V30 2721 C 265.065 -1.44153 -0.712496 0
M  V30 2722 O 266.255 -1.65354 -0.548053 0
M  V30 2723 C 263.387 -3.26952 -0.965161 0
M  V30 2724 H 264.58 -2.88959 0.802681 0
M  V30 2725 H 262.133 -1.4955 0.454356 0
M  V30 2726 H 262.868 -2.72142 -1.76378 0
M  V30 2727 H 262.653 -3.89685 -0.434522 0
M  V30 2728 H 264.143 -3.92561 -1.42428 0
M  V30 2729 N 264.58 -0.43555 -1.51462 0
M  V30 2730 C 265.49 0.383001 -2.31453 0
M  V30 2731 C 266.506 1.02931 -1.4029 0
M  V30 2732 O 267.682 1.02507 -1.73362 0
M  V30 2733 C 264.747 1.47043 -3.13973 0
M  V30 2734 C 263.808 0.844433 -4.20913 0
M  V30 2735 C 263.041 1.88004 -4.9949 0
M  V30 2736 O 263.264 3.10199 -4.78678 0
M  V30 2737 O 262.198 1.47157 -5.83634 0
M  V30 2738 H 266.024 -0.269964 -3.02498 0
M  V30 2739 H 263.609 -0.19813 -1.4808 0
M  V30 2740 H 265.491 2.10113 -3.65281 0
M  V30 2741 H 264.166 2.10751 -2.45695 0
M  V30 2742 H 263.073 0.175729 -3.73687 0
M  V30 2743 H 264.406 0.250869 -4.9156 0
M  V30 2744 N 266.058 1.56714 -0.166846 0
M  V30 2745 C 266.988 2.20754 0.760913 0
M  V30 2746 C 267.969 1.16178 1.24244 0
M  V30 2747 O 269.154 1.44592 1.29641 0
M  V30 2748 C 266.284 2.84478 1.99223 0
M  V30 2749 C 265.238 3.95053 1.64672 0
M  V30 2750 C 264.564 4.45805 2.95232 0
M  V30 2751 C 265.864 5.14865 0.878155 0
M  V30 2752 H 267.558 2.98537 0.22713 0
M  V30 2753 H 265.104 1.43596 0.107805 0
M  V30 2754 H 267.057 3.27951 2.64624 0
M  V30 2755 H 265.781 2.04056 2.55007 0
M  V30 2756 H 264.44 3.52228 1.01641 0
M  V30 2757 H 264.088 3.62181 3.49047 0
M  V30 2758 H 263.788 5.204 2.7287 0
M  V30 2759 H 265.312 4.91962 3.6167 0
M  V30 2760 H 266.726 5.55059 1.43466 0
M  V30 2761 H 265.123 5.95348 0.753738 0
M  V30 2762 H 266.193 4.84735 -0.126377 0
M  V30 2763 N 267.536 -0.106894 1.57237 0
M  V30 2764 C 268.466 -1.13148 2.04254 0
M  V30 2765 C 269.447 -1.42476 0.929224 0
M  V30 2766 O 270.632 -1.52709 1.19973 0
M  V30 2767 C 267.762 -2.4545 2.45706 0
M  V30 2768 C 266.716 -2.30558 3.60592 0
M  V30 2769 C 266.042 -3.67931 3.87983 0
M  V30 2770 C 267.342 -1.75597 4.91897 0
M  V30 2771 H 269.036 -0.740374 2.90101 0
M  V30 2772 H 266.582 -0.354696 1.39563 0
M  V30 2773 H 268.535 -3.17389 2.77205 0
M  V30 2774 H 267.259 -2.86475 1.56843 0
M  V30 2775 H 265.918 -1.61067 3.29322 0
M  V30 2776 H 265.566 -4.06462 2.96306 0
M  V30 2777 H 265.266 -3.58817 4.65322 0
M  V30 2778 H 266.79 -4.41356 4.21945 0
M  V30 2779 H 268.204 -2.37364 5.21854 0
M  V30 2780 H 266.601 -1.77272 5.73319 0
M  V30 2781 H 267.671 -0.714451 4.79608 0
M  V30 2782 N 269.014 -1.53014 -0.377408 0
M  V30 2783 C 269.944 -1.81589 -1.46791 0
M  V30 2784 C 270.925 -0.668622 -1.56408 0
M  V30 2785 O 272.11 -0.917337 -1.71168 0
M  V30 2786 C 269.24 -1.99519 -2.8427 0
M  V30 2787 C 268.194 -3.15249 -2.89486 0
M  V30 2788 C 267.52 -3.18451 -4.29527 0
M  V30 2789 C 268.82 -4.54084 -2.58079 0
M  V30 2790 H 270.514 -2.7291 -1.23127 0
M  V30 2791 H 268.06 -1.31319 -0.590883 0
M  V30 2792 H 270.013 -2.18092 -3.60575 0
M  V30 2793 H 268.737 -1.04897 -3.09296 0
M  V30 2794 H 267.396 -2.96477 -2.15631 0
M  V30 2795 H 267.044 -2.2149 -4.5161 0
M  V30 2796 H 266.744 -3.962 -4.33934 0
M  V30 2797 H 268.268 -3.39193 -5.07721 0
M  V30 2798 H 269.682 -4.72899 -3.24098 0
M  V30 2799 H 268.079 -5.33987 -2.7382 0
M  V30 2800 H 269.149 -4.60006 -1.53372 0
M  V30 2801 N 270.492 0.636531 -1.44174 0
M  V30 2802 C 271.424 1.7618 -1.46606 0
M  V30 2803 C 272.437 1.58768 -0.360091 0
M  V30 2804 O 273.626 1.67181 -0.625518 0
M  V30 2805 C 270.726 3.13833 -1.27915 0
M  V30 2806 C 269.899 3.57753 -2.51658 0
M  V30 2807 C 268.958 4.74265 -2.27945 0
M  V30 2808 O 267.984 4.82852 -3.01401 0
M  V30 2809 N 269.186 5.65604 -1.30662 0
M  V30 2810 H 271.951 1.74567 -2.43612 0
M  V30 2811 H 269.512 0.820924 -1.39544 0
M  V30 2812 H 271.504 3.8949 -1.09907 0
M  V30 2813 H 270.074 3.10121 -0.39293 0
M  V30 2814 H 269.294 2.72362 -2.84978 0
M  V30 2815 H 270.582 3.83847 -3.33974 0
M  V30 2816 H 269.98 5.61354 -0.699844 0
M  V30 2817 H 268.537 6.40913 -1.18634 0
M  V30 2818 N 271.97 1.30982 0.876444 0
M  V30 2819 C 272.88 1.2003 2.01569 0
M  V30 2820 C 273.896 0.11838 1.73597 0
M  V30 2821 O 275.072 0.33495 1.98595 0
M  V30 2822 C 272.137 0.901637 3.34771 0
M  V30 2823 C 271.198 2.06979 3.76109 0
M  V30 2824 C 270.431 1.78529 5.02954 0
M  V30 2825 O 270.654 0.717296 5.65872 0
M  V30 2826 O 269.588 2.64019 5.40905 0
M  V30 2827 H 273.414 2.15753 2.13739 0
M  V30 2828 H 270.999 1.10658 1.00375 0
M  V30 2829 H 272.881 0.750645 4.1466 0
M  V30 2830 H 271.556 -0.0256141 3.2369 0
M  V30 2831 H 270.463 2.27616 2.96887 0
M  V30 2832 H 271.796 2.97907 3.91807 0
M  V30 2833 N 273.449 -1.08991 1.13837 0
M  V30 2834 C 274.397 -2.17841 0.815347 0
M  V30 2835 C 275.391 -1.68164 -0.204233 0
M  V30 2836 O 276.597 -1.79897 -0.0609304 0
M  V30 2837 H 272.972 -0.710654 0.245915 0
M  V30 2838 H 274.943 -2.42315 1.74143 0
M  V30 2839 C 273.692 -3.46381 0.302614 0
M  V30 2840 H 273.015 -3.84979 1.0785 0
M  V30 2841 H 274.455 -4.23844 0.115074 0
M  V30 2842 C 272.914 -3.22556 -0.972591 0
M  V30 2843 O 273.444 -3.45599 -2.04754 0
M  V30 2844 N 271.65 -2.76134 -0.905455 0
M  V30 2845 H 271.197 -2.57582 -0.0305421 0
M  V30 2846 H 271.155 -2.60571 -1.75926 0
M  V30 2847 N 274.927 -0.932562 -1.27047 0
M  V30 2848 C 276.157 -0.591173 -1.97961 0
M  V30 2849 C 276.565 0.836219 -1.69717 0
M  V30 2850 O 275.908 1.56801 -0.957036 0
M  V30 2851 C 275.97 -0.743082 -3.51736 0
M  V30 2852 C 275.634 -2.1435 -4.03613 0
M  V30 2853 C 276.631 -3.11815 -4.16014 0
M  V30 2854 C 274.316 -2.46175 -4.37839 0
M  V30 2855 C 276.31 -4.39211 -4.61923 0
M  V30 2856 C 273.997 -3.73806 -4.83438 0
M  V30 2857 C 274.995 -4.70137 -4.95439 0
M  V30 2858 O 274.683 -5.95496 -5.40037 0
M  V30 2859 H 274.415 -0.222375 -0.638377 0
M  V30 2860 H 276.969 -1.25317 -1.62742 0
M  V30 2861 H 275.199 -0.0239739 -3.86693 0
M  V30 2862 H 276.888 -0.40603 -4.03864 0
M  V30 2863 H 277.654 -2.88549 -3.89826 0
M  V30 2864 H 273.533 -1.71936 -4.27737 0
M  V30 2865 H 277.077 -5.14404 -4.71205 0
M  V30 2866 H 272.974 -3.96888 -5.09068 0
M  V30 2867 H 273.742 -5.98554 -5.58279 0
M  V30 2868 N 276.405 1.4127 -0.698611 0
M  V30 2869 C 277.352 2.30773 -0.0352094 0
M  V30 2870 C 278.322 1.47273 0.768111 0
M  V30 2871 O 279.507 1.76053 0.735524 0
M  V30 2872 C 276.647 3.33346 0.893 0
M  V30 2873 C 275.76 4.31924 0.0809695 0
M  V30 2874 C 274.895 5.21566 1.0071 0
M  V30 2875 C 273.934 6.11811 0.188155 0
M  V30 2876 N 273.071 6.93926 1.06825 0
M  V30 2877 H 277.911 2.86943 -0.804207 0
M  V30 2878 H 275.448 1.4132 -0.408294 0
M  V30 2879 H 277.406 3.91368 1.44523 0
M  V30 2880 H 276.036 2.78719 1.62836 0
M  V30 2881 H 275.088 3.75825 -0.588224 0
M  V30 2882 H 276.4 4.95716 -0.553801 0
M  V30 2883 H 275.554 5.84437 1.62845 0
M  V30 2884 H 274.293 4.58008 1.67572 0
M  V30 2885 H 273.298 5.47986 -0.446254 0
M  V30 2886 H 274.523 6.77425 -0.476716 0
M  V30 2887 H 272.469 6.32973 1.72283 0
M  V30 2888 H 272.386 7.54416 0.489123 0
M  V30 2889 H 273.654 7.61262 1.67632 0
M  V30 2890 N 277.883 0.443576 1.51229 0
M  V30 2891 C 278.83 -0.364716 2.279 0
M  V30 2892 C 279.8 -1.0114 1.31757 0
M  V30 2893 O 280.985 -1.02912 1.60667 0
M  V30 2894 C 278.125 -1.45644 3.12861 0
M  V30 2895 C 277.238 -0.827269 4.24005 0
M  V30 2896 C 276.373 -1.89456 4.96266 0
M  V30 2897 C 275.412 -1.24416 5.99322 0
M  V30 2898 N 274.549 -2.25309 6.64966 0
M  V30 2899 H 279.389 0.295464 2.96532 0
M  V30 2900 H 276.926 0.157554 1.46254 0
M  V30 2901 H 278.884 -2.10076 3.6045 0
M  V30 2902 H 277.514 -2.08616 2.46331 0
M  V30 2903 H 276.566 -0.0710839 3.80334 0
M  V30 2904 H 277.878 -0.312481 4.9782 0
M  V30 2905 H 277.032 -2.61535 5.47434 0
M  V30 2906 H 275.771 -2.4431 4.22095 0
M  V30 2907 H 274.776 -0.508868 5.4744 0
M  V30 2908 H 276.001 -0.702882 6.75453 0
M  V30 2909 H 273.947 -2.79231 5.93604 0
M  V30 2910 H 273.864 -1.78739 7.34567 0
M  V30 2911 H 275.132 -2.96853 7.20763 0
M  V30 2912 N 279.361 -1.56624 0.175154 0
M  V30 2913 C 280.638 -1.88688 -0.515373 0
M  V30 2914 C 281.018 -1.08564 -1.81044 0
M  V30 2915 O 280.366 -0.180703 -2.27784 0
M  V30 2916 C 280.576 -3.40768 -0.753552 0
M  V30 2917 C 281.924 -4.10587 -1.08184 0
M  V30 2918 O 282.948 -3.46106 -0.841961 0
M  V30 2919 O 281.807 -5.24512 -1.53459 0
M  V30 2920 H 278.901 -0.78301 -0.26613 0
M  V30 2921 H 281.447 -1.68347 0.213877 0
M  V30 2922 H 280.219 -3.90965 0.161829 0
M  V30 2923 H 279.842 -3.66733 -1.53598 0
M  V30 2924 N 280.839 0.0985539 -1.57292 0
M  V30 2925 C 281.772 1.15082 -1.97057 0
M  V30 2926 C 282.75 1.39025 -0.843255 0
M  V30 2927 O 283.934 1.52842 -1.10325 0
M  V30 2928 C 281.061 2.50069 -2.28437 0
M  V30 2929 C 280.107 2.42428 -3.509 0
M  V30 2930 S 280.94 1.84414 -5.02744 0
M  V30 2931 C 282.096 3.21032 -5.37298 0
M  V30 2932 H 282.329 0.811815 -2.86002 0
M  V30 2933 H 279.862 0.306102 -1.51335 0
M  V30 2934 H 281.82 3.27729 -2.47192 0
M  V30 2935 H 280.481 2.8114 -1.40069 0
M  V30 2936 H 279.674 3.41911 -3.70288 0
M  V30 2937 H 279.276 1.72896 -3.31637 0
M  V30 2938 H 281.568 4.17297 -5.33731 0
M  V30 2939 H 282.511 3.06452 -6.38352 0
M  V30 2940 H 282.919 3.20404 -4.64759 0
M  V30 2941 N 282.317 1.53212 0.369288 0
M  V30 2942 C 283.545 1.73119 1.13303 0
M  V30 2943 C 283.96 0.458455 1.83149 0
M  V30 2944 O 283.317 -0.568403 1.73423 0
M  V30 2945 C 283.368 2.89413 2.16616 0
M  V30 2946 O 283.089 4.11761 1.49614 0
M  V30 2947 C 284.59 3.21161 3.05566 0
M  V30 2948 H 281.81 0.579107 0.338934 0
M  V30 2949 H 284.354 1.99942 0.429338 0
M  V30 2950 H 282.509 2.64994 2.82589 0
M  V30 2951 H 282.923 4.76858 2.18419 0
M  V30 2952 H 284.397 4.05949 3.74045 0
M  V30 2953 H 284.874 2.36369 3.70171 0
M  V30 2954 H 285.48 3.47492 2.45213 0
M  V30 2955 N 283.795 -0.628877 1.44509 0
M  V30 2956 C 285.042 -1.38839 1.47411 0
M  V30 2957 C 285.37 -1.94202 0.10757 0
M  V30 2958 O 284.625 -1.74243 -0.890947 0
M  V30 2959 C 284.924 -2.56995 2.48371 0
M  V30 2960 C 284.59 -2.19908 3.93639 0
M  V30 2961 C 283.252 -2.09506 4.33198 0
M  V30 2962 C 285.604 -1.9064 4.85083 0
M  V30 2963 C 282.932 -1.68028 5.62124 0
M  V30 2964 C 285.284 -1.50655 6.14399 0
M  V30 2965 C 283.948 -1.38796 6.5291 0
M  V30 2966 H 283.218 -0.508048 0.539414 0
M  V30 2967 H 285.865 -0.712913 1.77735 0
M  V30 2968 H 284.17 -3.29786 2.11538 0
M  V30 2969 H 285.867 -3.15223 2.47861 0
M  V30 2970 H 282.457 -2.28922 3.62343 0
M  V30 2971 H 286.641 -1.97585 4.55273 0
M  V30 2972 H 281.897 -1.57452 5.90778 0
M  V30 2973 H 286.071 -1.27048 6.84713 0
M  V30 2974 H 283.698 -1.06429 7.52713 0
M  V30 2975 N 285.273 -1.31445 -0.869486 0
M  V30 2976 C 286.183 -1.21097 -2.0093 0
M  V30 2977 C 287.199 -0.127584 -1.73532 0
M  V30 2978 O 288.375 -0.345477 -1.98415 0
M  V30 2979 C 285.44 -0.919378 -3.34288 0
M  V30 2980 C 284.501 -2.08971 -3.75006 0
M  V30 2981 C 283.734 -1.81194 -5.02001 0
M  V30 2982 O 283.957 -0.747296 -5.65484 0
M  V30 2983 O 282.891 -2.66883 -5.39497 0
M  V30 2984 H 286.717 -2.16883 -2.12592 0
M  V30 2985 H 284.302 -1.11189 -0.997868 0
M  V30 2986 H 286.184 -0.772625 -4.14257 0
M  V30 2987 H 284.859 0.00844772 -3.23699 0
M  V30 2988 H 283.766 -2.29187 -2.95676 0
M  V30 2989 H 285.099 -2.9998 -3.90221 0
M  V30 2990 N 286.751 1.08385 -1.14413 0
M  V30 2991 C 287.683 2.1519 -0.789036 0
M  V30 2992 C 288.696 1.61638 0.19417 0
M  V30 2993 O 289.885 1.78479 -0.0275711 0
M  V30 2994 C 286.985 3.38565 -0.15058 0
M  V30 2995 C 286.158 4.21501 -1.16857 0
M  V30 2996 C 285.217 5.23277 -0.553832 0
M  V30 2997 O 284.243 5.56041 -1.21686 0
M  V30 2998 N 285.445 5.76629 0.669296 0
M  V30 2999 H 288.21 2.46257 -1.70814 0
M  V30 3000 H 285.771 1.24198 -1.03858 0
M  V30 3001 H 287.763 4.03777 0.273181 0
M  V30 3002 H 286.333 3.05299 0.671667 0
M  V30 3003 H 285.553 3.52265 -1.76926 0
M  V30 3004 H 286.841 4.73731 -1.85624 0
M  V30 3005 H 286.239 5.52243 1.22654 0
M  V30 3006 H 284.796 6.43521 1.03556 0
M  V30 3007 N 288.23 0.939286 1.26551 0
M  V30 3008 C 289.193 0.451987 2.24699 0
M  V30 3009 C 290.193 -0.435869 1.5478 0
M  V30 3010 O 291.383 -0.235314 1.72603 0
M  V30 3011 C 288.515 -0.348801 3.39111 0
M  V30 3012 H 289.708 1.3193 2.69322 0
M  V30 3013 H 287.261 0.721072 1.38673 0
M  V30 3014 H 287.996 -1.23444 2.99887 0
M  V30 3015 H 287.781 0.287945 3.91041 0
M  V30 3016 H 289.271 -0.679726 4.12031 0
M  V30 3017 N 289.708 -1.40897 0.706093 0
M  V30 3018 C 290.618 -2.3455 0.0482286 0
M  V30 3019 C 291.634 -1.56796 -0.754396 0
M  V30 3020 O 292.81 -1.89228 -0.689538 0
M  V30 3021 C 289.875 -3.35625 -0.869303 0
M  V30 3022 C 288.936 -4.29261 -0.0576994 0
M  V30 3023 C 288.169 -5.25508 -0.931531 0
M  V30 3024 O 288.392 -5.27472 -2.17092 0
M  V30 3025 O 287.326 -6.00727 -0.375587 0
M  V30 3026 H 291.152 -2.92407 0.820476 0
M  V30 3027 H 288.737 -1.4193 0.4665 0
M  V30 3028 H 290.619 -3.97635 -1.39514 0
M  V30 3029 H 289.294 -2.80196 -1.62086 0
M  V30 3030 H 288.201 -3.70566 0.512988 0
M  V30 3031 H 289.534 -4.87817 0.655426 0
M  V30 3032 N 291.186 -0.45159 -1.50991 0
M  V30 3033 C 292.435 0.111653 -2.01391 0
M  V30 3034 C 292.748 1.42529 -1.33959 0
M  V30 3035 O 293.954 2.07232 -1.75405 0
M  V30 3036 C 292.41 0.249514 -3.59034 0
M  V30 3037 C 292.018 -1.05453 -4.35412 0
M  V30 3038 C 293.762 0.765762 -4.17536 0
M  V30 3039 C 291.669 -0.881529 -5.84793 0
M  V30 3040 H 290.599 0.0455022 -0.752626 0
M  V30 3041 H 293.25 -0.583524 -1.73975 0
M  V30 3042 H 291.632 1.00803 -3.82955 0
M  V30 3043 H 292.806 -1.82248 -4.23229 0
M  V30 3044 H 291.121 -1.50039 -3.88429 0
M  V30 3045 H 293.718 0.911913 -5.26866 0
M  V30 3046 H 294.061 1.75201 -3.77638 0
M  V30 3047 H 294.594 0.0651744 -3.97747 0
M  V30 3048 H 291.333 -1.84057 -6.29129 0
M  V30 3049 H 290.853 -0.153625 -5.99603 0
M  V30 3050 H 292.532 -0.540363 -6.4474 0
M  V30 3051 N 292.664 1.56529 -0.183458 0
M  V30 3052 C 293.594 2.21549 0.737456 0
M  V30 3053 C 294.575 1.17489 1.23005 0
M  V30 3054 O 295.76 1.45959 1.281 0
M  V30 3055 C 292.89 2.86575 1.96194 0
M  V30 3056 C 291.844 3.96778 1.60473 0
M  V30 3057 C 291.17 4.48911 2.90487 0
M  V30 3058 C 292.47 5.15767 0.823497 0
M  V30 3059 H 294.164 2.98761 0.195453 0
M  V30 3060 H 291.71 1.43702 0.0925686 0
M  V30 3061 H 293.663 3.30739 2.61131 0
M  V30 3062 H 292.387 2.06749 2.52828 0
M  V30 3063 H 291.046 3.53286 0.978997 0
M  V30 3064 H 290.694 3.65862 3.45186 0
M  V30 3065 H 290.394 5.23265 2.67335 0
M  V30 3066 H 291.918 4.95771 3.56432 0
M  V30 3067 H 293.332 5.56549 1.37571 0
M  V30 3068 H 291.729 5.96114 0.690551 0
M  V30 3069 H 292.799 4.84574 -0.177782 0
M  V30 3070 N 294.142 -0.090211 1.57342 0
M  V30 3071 C 295.105 -1.09335 2.01441 0
M  V30 3072 C 296.105 -1.32666 0.908641 0
M  V30 3073 O 297.295 -1.28697 1.174 0
M  V30 3074 C 294.427 -2.44136 2.3793 0
M  V30 3075 H 295.62 -0.713662 2.91285 0
M  V30 3076 H 293.173 -0.335404 1.52659 0
M  V30 3077 H 293.908 -2.86972 1.51055 0
M  V30 3078 H 293.693 -2.28548 3.18603 0
M  V30 3079 H 295.183 -3.16277 2.72688 0
M  V30 3080 N 295.62 -1.53406 -0.361157 0
M  V30 3081 C 296.55 -1.83136 -1.44857 0
M  V30 3082 C 297.531 -0.685174 -1.5569 0
M  V30 3083 O 298.716 -0.93544 -1.70186 0
M  V30 3084 C 295.846 -2.02522 -2.82138 0
M  V30 3085 C 294.8 -3.18302 -2.86126 0
M  V30 3086 C 294.126 -3.22989 -4.26125 0
M  V30 3087 C 295.426 -4.56796 -2.53248 0
M  V30 3088 H 297.12 -2.74201 -1.20226 0
M  V30 3089 H 294.666 -1.31938 -0.576922 0
M  V30 3090 H 296.619 -2.21904 -3.58241 0
M  V30 3091 H 295.343 -1.08172 -3.08166 0
M  V30 3092 H 294.002 -2.98747 -2.12475 0
M  V30 3093 H 293.65 -2.26267 -4.49235 0
M  V30 3094 H 293.35 -4.00781 -4.29708 0
M  V30 3095 H 294.874 -3.44559 -5.04094 0
M  V30 3096 H 296.288 -4.7631 -3.19064 0
M  V30 3097 H 294.685 -5.36862 -2.68141 0
M  V30 3098 H 295.755 -4.61606 -1.48484 0
M  V30 3099 N 297.098 0.621204 -1.44841 0
M  V30 3100 C 298.326 1.40752 -1.51646 0
M  V30 3101 C 298.741 1.88246 -0.144549 0
M  V30 3102 O 298.098 1.61422 0.851416 0
M  V30 3103 C 298.149 2.62119 -2.4895 0
M  V30 3104 O 297.87 2.16602 -3.80808 0
M  V30 3105 C 299.371 3.55135 -2.65319 0
M  V30 3106 H 296.591 0.431325 -0.514004 0
M  V30 3107 H 299.135 0.758835 -1.899 0
M  V30 3108 H 297.29 3.23058 -2.13805 0
M  V30 3109 H 297.704 2.95358 -4.33433 0
M  V30 3110 H 299.178 4.36874 -3.37409 0
M  V30 3111 H 299.655 4.04592 -1.70886 0
M  V30 3112 H 300.261 3.00058 -3.01405 0
M  V30 3113 N 298.576 1.31904 0.862503 0
M  V30 3114 C 299.822 1.22197 1.61851 0
M  V30 3115 C 300.155 -0.217641 1.92977 0
M  V30 3116 O 299.43 -1.15264 1.56666 0
M  V30 3117 C 299.713 2.07378 2.94391 0
M  V30 3118 C 299.566 3.59678 2.70096 0
M  V30 3119 C 300.885 1.92891 3.95577 0
M  V30 3120 H 298.004 0.445255 0.587296 0
M  V30 3121 H 300.646 1.6177 0.99651 0
M  V30 3122 H 298.796 1.73758 3.47477 0
M  V30 3123 H 300.468 4.03472 2.23625 0
M  V30 3124 H 298.711 3.82735 2.04197 0
M  V30 3125 H 299.382 4.14595 3.64438 0
M  V30 3126 H 301.858 2.22327 3.51724 0
M  V30 3127 H 300.734 2.54781 4.86187 0
M  V30 3128 H 300.995 0.894315 4.3296 0
M  V30 3129 N 300.054 -1.07777 1.14986 0
M  V30 3130 C 300.984 -2.16865 0.865557 0
M  V30 3131 C 301.965 -1.69123 -0.182083 0
M  V30 3132 O 303.15 -1.94164 -0.0373815 0
M  V30 3133 C 300.28 -3.45539 0.349313 0
M  V30 3134 C 299.234 -4.06708 1.33313 0
M  V30 3135 C 298.56 -5.30411 0.675918 0
M  V30 3136 C 299.86 -4.47241 2.69764 0
M  V30 3137 H 301.554 -2.40905 1.77778 0
M  V30 3138 H 299.1 -1.15781 0.856203 0
M  V30 3139 H 301.053 -4.21174 0.137983 0
M  V30 3140 H 299.777 -3.21072 -0.598362 0
M  V30 3141 H 298.436 -3.33112 1.53075 0
M  V30 3142 H 298.084 -5.02232 -0.277767 0
M  V30 3143 H 297.784 -5.72293 1.33244 0
M  V30 3144 H 299.308 -6.08755 0.474262 0
M  V30 3145 H 300.722 -5.14025 2.53873 0
M  V30 3146 H 299.119 -5.00062 3.3175 0
M  V30 3147 H 300.189 -3.58818 3.26156 0
M  V30 3148 N 301.532 -0.945985 -1.26051 0
M  V30 3149 C 302.948 -0.649045 -1.45807 0
M  V30 3150 C 303.148 0.796158 -1.85104 0
M  V30 3151 O 302.204 1.57233 -1.97571 0
M  V30 3152 C 303.517 -1.61458 -2.53677 0
M  V30 3153 C 305.065 -1.62481 -2.67524 0
M  V30 3154 C 305.54 -2.57776 -3.7857 0
M  V30 3155 N 307.031 -2.5609 -3.85969 0
M  V30 3156 C 307.766 -3.26508 -4.7136 0
M  V30 3157 N 307.262 -4.0637 -5.61102 0
M  V30 3158 N 309.055 -3.15437 -4.65248 0
M  V30 3159 H 301.206 -1.88005 -0.988328 0
M  V30 3160 H 303.469 -0.808198 -0.4955 0
M  V30 3161 H 303.175 -2.64644 -2.31638 0
M  V30 3162 H 303.049 -1.37036 -3.51427 0
M  V30 3163 H 305.436 -0.600167 -2.88933 0
M  V30 3164 H 305.517 -1.90958 -1.70202 0
M  V30 3165 H 305.161 -3.60361 -3.57913 0
M  V30 3166 H 305.091 -2.26587 -4.75359 0
M  V30 3167 H 307.582 -1.98105 -3.21812 0
M  V30 3168 H 307.895 -4.57042 -6.23164 0
M  V30 3169 H 306.24 -4.10469 -5.60839 0
M  V30 3170 H 309.431 -2.52525 -3.94143 0
M  V30 3171 H 309.604 -3.70584 -5.31575 0
M  V30 3172 N 303.011 1.40521 -0.713556 0
M  V30 3173 C 303.943 2.29191 -0.0203126 0
M  V30 3174 C 304.956 1.45723 0.725864 0
M  V30 3175 O 306.145 1.69033 0.573581 0
M  V30 3176 C 303.245 3.2395 0.995486 0
M  V30 3177 C 302.418 4.36262 0.315256 0
M  V30 3178 C 301.477 5.11474 1.23616 0
M  V30 3179 O 300.503 5.64606 0.721719 0
M  V30 3180 N 301.705 5.20638 2.56743 0
M  V30 3181 H 304.47 2.89327 -0.781652 0
M  V30 3182 H 302.031 1.51869 -0.561022 0
M  V30 3183 H 304.023 3.71137 1.61368 0
M  V30 3184 H 302.593 2.64995 1.6582 0
M  V30 3185 H 301.813 3.91228 -0.483106 0
M  V30 3186 H 303.101 5.08558 -0.157004 0
M  V30 3187 H 302.499 4.7895 3.01037 0
M  V30 3188 H 301.056 5.71339 3.13712 0
M  V30 3189 N 304.489 0.459591 1.5075 0
M  V30 3190 C 305.735 -0.0994966 2.02556 0
M  V30 3191 C 306.068 -1.40399 1.3417 0
M  V30 3192 O 305.343 -1.88892 0.463683 0
M  V30 3193 C 305.626 -0.295242 3.58888 0
M  V30 3194 C 305.479 1.02947 4.37861 0
M  V30 3195 C 306.798 -1.05502 4.27267 0
M  V30 3196 H 303.917 -0.034686 0.736183 0
M  V30 3197 H 306.559 0.602938 1.8018 0
M  V30 3198 H 304.709 -0.893563 3.78084 0
M  V30 3199 H 306.381 1.66348 4.30263 0
M  V30 3200 H 304.624 1.62885 4.02058 0
M  V30 3201 H 305.295 0.846281 5.45474 0
M  V30 3202 H 307.771 -0.547993 4.12476 0
M  V30 3203 H 306.647 -1.16077 5.36486 0
M  V30 3204 H 306.908 -2.08875 3.89645 0
M  V30 3205 N 305.967 -1.56429 0.191757 0
M  V30 3206 C 306.9 -2.14829 -0.76967 0
M  V30 3207 C 307.878 -1.08405 -1.2119 0
M  V30 3208 O 309.062 -1.36498 -1.30002 0
M  V30 3209 C 306.189 -2.70446 -2.03903 0
M  V30 3210 C 305.235 -3.89428 -1.7392 0
M  V30 3211 S 306.068 -5.28048 -0.890265 0
M  V30 3212 C 307.224 -5.87085 -2.16984 0
M  V30 3213 H 307.457 -2.96042 -0.273204 0
M  V30 3214 H 304.99 -1.54383 -0.0231975 0
M  V30 3215 H 306.948 -3.03134 -2.76803 0
M  V30 3216 H 305.609 -1.89281 -2.50662 0
M  V30 3217 H 304.802 -4.26742 -2.68155 0
M  V30 3218 H 304.404 -3.57732 -1.09103 0
M  V30 3219 H 306.696 -6.01244 -3.12269 0
M  V30 3220 H 307.639 -6.83747 -1.84108 0
M  V30 3221 H 308.047 -5.15663 -2.29678 0
M  V30 3222 N 307.445 0.0818655 -1.57387 0
M  V30 3223 C 308.355 1.11642 -2.06333 0
M  V30 3224 C 309.371 1.43033 -0.99083 0
M  V30 3225 O 310.547 1.53411 -1.30488 0
M  V30 3226 C 307.612 2.41342 -2.48907 0
M  V30 3227 C 306.673 2.17014 -3.7041 0
M  V30 3228 C 305.906 3.4053 -4.10944 0
M  V30 3229 O 306.129 4.4927 -3.51444 0
M  V30 3230 O 305.063 3.29336 -5.03807 0
M  V30 3231 H 308.889 0.730657 -2.9478 0
M  V30 3232 H 306.474 0.295301 -1.46452 0
M  V30 3233 H 308.356 3.17691 -2.76858 0
M  V30 3234 H 307.031 2.79319 -1.63593 0
M  V30 3235 H 305.938 1.38403 -3.47556 0
M  V30 3236 H 307.271 1.83923 -4.56545 0
M  V30 3237 N 308.923 1.53595 0.353017 0
M  V30 3238 C 310.2 1.61002 1.11075 0
M  V30 3239 C 310.58 0.425356 2.0677 0
M  V30 3240 O 309.928 -0.583267 2.2093 0
M  V30 3241 C 310.138 2.96631 1.83877 0
M  V30 3242 C 311.486 3.51653 2.37961 0
M  V30 3243 O 312.51 2.98743 1.93987 0
M  V30 3244 O 311.369 4.44177 3.18386 0
M  V30 3245 H 308.463 0.650825 0.510251 0
M  V30 3246 H 311.009 1.6594 0.35527 0
M  V30 3247 H 309.781 3.74293 1.14108 0
M  V30 3248 H 309.404 2.95242 2.66304 0
M  V30 3249 N 310.401 -0.613514 1.45168 0
M  V30 3250 C 311.348 -1.72456 1.53387 0
M  V30 3251 C 312.318 -1.6169 0.380191 0
M  V30 3252 O 313.503 -1.81356 0.592836 0
M  V30 3253 C 310.643 -3.10753 1.50088 0
M  V30 3254 C 309.756 -3.32368 2.75963 0
M  V30 3255 C 308.891 -4.60737 2.64376 0
M  V30 3256 C 307.93 -4.7559 3.85332 0
M  V30 3257 N 307.067 -5.95253 3.72315 0
M  V30 3258 H 311.907 -1.64768 2.48305 0
M  V30 3259 H 309.444 -0.803503 1.23216 0
M  V30 3260 H 311.402 -3.90758 1.46164 0
M  V30 3261 H 310.032 -3.17413 0.587243 0
M  V30 3262 H 309.084 -2.4618 2.89999 0
M  V30 3263 H 310.396 -3.39218 3.65695 0
M  V30 3264 H 309.55 -5.48928 2.58385 0
M  V30 3265 H 308.289 -4.56275 1.72233 0
M  V30 3266 H 307.294 -3.85824 3.91688 0
M  V30 3267 H 308.519 -4.81854 4.78533 0
M  V30 3268 H 306.465 -5.91847 2.82937 0
M  V30 3269 H 306.382 -6.03236 4.55677 0
M  V30 3270 H 307.65 -6.85958 3.70246 0
M  V30 3271 N 311.879 -1.3236 -0.855495 0
M  V30 3272 C 312.809 -1.23833 -1.97958 0
M  V30 3273 C 313.79 -0.122361 -1.69659 0
M  V30 3274 O 314.975 -0.30939 -1.9172 0
M  V30 3275 C 312.105 -0.959772 -3.33775 0
M  V30 3276 C 311.059 -2.03689 -3.76424 0
M  V30 3277 C 310.385 -1.61075 -5.09862 0
M  V30 3278 C 311.685 -3.4518 -3.9198 0
M  V30 3279 H 313.379 -2.1788 -2.0535 0
M  V30 3280 H 310.925 -1.04891 -0.986605 0
M  V30 3281 H 312.878 -0.886678 -4.11966 0
M  V30 3282 H 311.602 0.0163404 -3.26596 0
M  V30 3283 H 310.261 -2.10012 -3.00484 0
M  V30 3284 H 309.909 -0.622107 -4.99138 0
M  V30 3285 H 309.609 -2.33143 -5.39368 0
M  V30 3286 H 311.133 -1.55201 -5.90546 0
M  V30 3287 H 312.547 -3.4145 -4.60526 0
M  V30 3288 H 310.944 -4.1559 -4.32903 0
M  V30 3289 H 312.014 -3.84903 -2.94919 0
M  V30 3290 N 313.357 1.07166 -1.15556 0
M  V30 3291 C 314.582 1.84053 -0.955988 0
M  V30 3292 C 315.007 1.81586 0.490739 0
M  V30 3293 O 314.365 1.21018 1.34997 0
M  V30 3294 C 314.413 3.28957 -1.47714 0
M  V30 3295 O 313.517 4.06795 -0.677593 0
M  V30 3296 H 312.858 0.569842 -0.340847 0
M  V30 3297 H 315.388 1.35178 -1.53584 0
M  V30 3298 H 315.398 3.79788 -1.4908 0
M  V30 3299 H 314.073 3.30068 -2.53037 0
M  V30 3300 H 312.65 3.6561 -0.733721 0
M  V30 3301 N 314.835 0.952656 1.25548 0
M  V30 3302 C 316.063 0.623496 1.97282 0
M  V30 3303 C 316.478 -0.803987 1.70826 0
M  V30 3304 O 315.835 -1.53755 0.983147 0
M  V30 3305 C 315.886 0.870209 3.5087 0
M  V30 3306 O 315.607 2.24156 3.76412 0
M  V30 3307 C 317.108 0.553164 4.39835 0
M  V30 3308 H 314.328 0.233931 0.628902 0
M  V30 3309 H 316.872 1.27649 1.59768 0
M  V30 3310 H 315.027 0.263652 3.86502 0
M  V30 3311 H 315.441 2.31021 4.70882 0
M  V30 3312 H 316.915 0.776342 5.46513 0
M  V30 3313 H 317.392 -0.512215 4.36203 0
M  V30 3314 H 317.998 1.13896 4.09766 0
M  V30 3315 N 316.313 -1.40141 0.720998 0
M  V30 3316 C 317.538 -2.05618 0.271258 0
M  V30 3317 C 317.963 -1.53978 -1.08039 0
M  V30 3318 O 317.321 -0.677463 -1.68167 0
M  V30 3319 C 317.369 -3.59609 0.267197 0
M  V30 3320 O 316.473 -4.05526 -0.749814 0
M  V30 3321 H 315.814 -0.651904 0.126162 0
M  V30 3322 H 318.344 -1.79439 0.982997 0
M  V30 3323 H 318.354 -4.0786 0.106744 0
M  V30 3324 H 317.029 -3.96559 1.25354 0
M  V30 3325 H 315.606 -3.68722 -0.556644 0
M  V30 3326 N 317.792 -0.46758 -1.50504 0
M  V30 3327 C 318.74 0.342482 -2.30065 0
M  V30 3328 C 319.734 0.993596 -1.37201 0
M  V30 3329 O 320.94 0.925102 -1.54408 0
M  V30 3330 H 317.315 0.129283 -0.740803 0
M  V30 3331 H 319.286 -0.34899 -2.96352 0
M  V30 3332 C 318.035 1.4139 -3.17654 0
M  V30 3333 H 317.358 0.922264 -3.89017 0
M  V30 3334 H 318.798 1.95335 -3.76325 0
M  V30 3335 C 317.257 2.4139 -2.35016 0
M  V30 3336 O 317.787 3.46586 -2.03079 0
M  V30 3337 N 315.993 2.13021 -1.97662 0
M  V30 3338 H 315.54 1.27499 -2.23834 0
M  V30 3339 H 315.498 2.80164 -1.42673 0
M  V30 3340 N 319.27 1.56325 -0.20005 0
M  V30 3341 C 320.516 1.98012 0.438059 0
M  V30 3342 C 320.849 1.08702 1.60927 0
M  V30 3343 O 320.124 0.140064 1.93995 0
M  V30 3344 C 320.407 3.48841 0.893419 0
M  V30 3345 C 320.26 4.48928 -0.279947 0
M  V30 3346 C 321.579 4.03498 1.75719 0
M  V30 3347 H 318.698 0.719918 0.157757 0
M  V30 3348 H 321.34 1.87743 -0.291968 0
M  V30 3349 H 319.49 3.57723 1.51547 0
M  V30 3350 H 321.162 4.52079 -0.91772 0
M  V30 3351 H 319.405 4.23694 -0.930919 0
M  V30 3352 H 320.076 5.5194 0.0812601 0
M  V30 3353 H 322.552 3.97427 1.23253 0
M  V30 3354 H 321.428 5.09393 2.04476 0
M  V30 3355 H 321.689 3.4906 2.71311 0
M  V30 3356 N 320.748 -0.0735177 1.57428 0
M  V30 3357 C 321.658 -1.10547 2.06922 0
M  V30 3358 C 322.674 -1.42506 0.998402 0
M  V30 3359 O 323.85 -1.52717 1.31299 0
M  V30 3360 C 320.915 -2.40019 2.50184 0
M  V30 3361 C 319.976 -2.15046 3.71556 0
M  V30 3362 C 319.209 -3.38345 4.12745 0
M  V30 3363 O 319.432 -4.47399 3.53822 0
M  V30 3364 O 318.366 -3.2666 5.05546 0
M  V30 3365 H 322.192 -0.715013 2.95163 0
M  V30 3366 H 319.777 -0.287531 1.46607 0
M  V30 3367 H 321.659 -3.16218 2.78539 0
M  V30 3368 H 320.334 -2.78447 1.65072 0
M  V30 3369 H 319.241 -1.36558 3.48285 0
M  V30 3370 H 320.574 -1.81499 4.57514 0
M  V30 3371 N 322.226 -1.5378 -0.344866 0
M  V30 3372 C 323.475 -1.7018 -1.08267 0
M  V30 3373 C 323.788 -0.471 -1.89845 0
M  V30 3374 O 324.994 -0.515917 -2.66553 0
M  V30 3375 C 323.45 -3.00923 -1.97417 0
M  V30 3376 C 323.058 -4.31335 -1.21053 0
M  V30 3377 C 324.802 -3.26688 -2.71063 0
M  V30 3378 C 322.709 -5.53153 -2.09225 0
M  V30 3379 H 321.639 -0.634138 -0.407903 0
M  V30 3380 H 324.29 -1.8028 -0.342246 0
M  V30 3381 H 322.672 -2.84676 -2.75274 0
M  V30 3382 H 323.846 -4.58281 -0.481159 0
M  V30 3383 H 322.161 -4.12173 -0.591813 0
M  V30 3384 H 324.758 -4.1489 -3.37299 0
M  V30 3385 H 325.101 -2.43639 -3.37558 0
M  V30 3386 H 325.634 -3.43705 -2.0028 0
M  V30 3387 H 322.373 -6.38741 -1.47274 0
M  V30 3388 H 321.893 -5.30458 -2.79955 0
M  V30 3389 H 323.572 -5.88744 -2.68308 0
M  V30 3390 N 323.704 0.605807 -1.45491 0
M  V30 3391 C 324.944 1.37606 -1.51142 0
M  V30 3392 C 325.308 1.91413 -0.150075 0
M  V30 3393 O 326.509 2.68677 -0.0812828 0
M  V30 3394 C 324.78 2.49197 -2.56195 0
M  V30 3395 S 326.339 3.36953 -2.81083 0
M  V30 3396 H 323.157 0.469118 -0.534275 0
M  V30 3397 H 325.759 0.698845 -1.82583 0
M  V30 3398 H 324.463 2.0802 -3.53773 0
M  V30 3399 H 323.994 3.21717 -2.26411 0
M  V30 3400 H 326.009 4.47395 -2.14598 0
M  V30 3401 N 325.182 1.32811 0.848464 0
M  V30 3402 C 326.145 1.22194 1.9391 0
M  V30 3403 C 327.145 0.143404 1.60159 0
M  V30 3404 O 328.335 0.394253 1.6968 0
M  V30 3405 C 325.467 0.88067 3.29328 0
M  V30 3406 H 326.66 2.19127 2.04752 0
M  V30 3407 H 324.213 1.16731 1.0394 0
M  V30 3408 H 324.948 -0.0865776 3.24184 0
M  V30 3409 H 324.733 1.66052 3.55203 0
M  V30 3410 H 326.223 0.830871 4.09251 0
M  V30 3411 N 326.66 -1.06551 1.16123 0
M  V30 3412 C 327.909 -1.78687 0.935622 0
M  V30 3413 C 328.222 -1.88056 -0.538001 0
M  V30 3414 O 329.428 -2.56794 -0.88143 0
M  V30 3415 C 327.884 -3.21143 1.62466 0
M  V30 3416 C 327.492 -3.19949 3.13587 0
M  V30 3417 C 329.236 -3.9783 1.48092 0
M  V30 3418 C 327.143 -4.57108 3.75241 0
M  V30 3419 H 326.073 -0.669712 0.346412 0
M  V30 3420 H 328.724 -1.19534 1.39226 0
M  V30 3421 H 327.106 -3.80539 1.09572 0
M  V30 3422 H 328.28 -2.70151 3.73303 0
M  V30 3423 H 326.595 -2.5676 3.27816 0
M  V30 3424 H 329.192 -4.99217 1.91538 0
M  V30 3425 H 329.535 -4.14078 0.429507 0
M  V30 3426 H 330.068 -3.4495 1.98127 0
M  V30 3427 H 326.807 -4.46065 4.80319 0
M  V30 3428 H 326.327 -5.07111 3.20309 0
M  V30 3429 H 328.006 -5.26069 3.76644 0
M  V30 3430 N 328.138 -0.959301 -1.25041 0
M  V30 3431 C 329.085 -0.482057 -2.2571 0
M  V30 3432 C 330.055 0.467939 -1.59372 0
M  V30 3433 O 331.24 0.380159 -1.86974 0
M  V30 3434 C 328.38 0.229623 -3.44335 0
M  V30 3435 C 327.493 -0.758156 -4.25295 0
M  V30 3436 C 326.628 -0.0234403 -5.31195 0
M  V30 3437 C 325.667 -1.00184 -6.03846 0
M  V30 3438 N 324.804 -0.29769 -7.01469 0
M  V30 3439 H 329.644 -1.34538 -2.65901 0
M  V30 3440 H 327.181 -0.674592 -1.3072 0
M  V30 3441 H 329.139 0.658856 -4.11965 0
M  V30 3442 H 327.769 1.05696 -3.05005 0
M  V30 3443 H 326.821 -1.30586 -3.57284 0
M  V30 3444 H 328.133 -1.50458 -4.75567 0
M  V30 3445 H 327.287 0.464201 -6.04922 0
M  V30 3446 H 326.026 0.755741 -4.81809 0
M  V30 3447 H 325.031 -1.50044 -5.2893 0
M  V30 3448 H 326.256 -1.78133 -6.55321 0
M  V30 3449 H 324.202 0.462668 -6.54366 0
M  V30 3450 H 324.119 -0.983128 -7.4958 0
M  V30 3451 H 325.387 0.16826 -7.79318 0
M  V30 3452 N 329.616 1.39756 -0.72842 0
M  V30 3453 C 330.563 2.30647 -0.0841519 0
M  V30 3454 C 331.533 1.48869 0.7367 0
M  V30 3455 O 332.718 1.77574 0.698015 0
M  V30 3456 C 329.858 3.35165 0.822091 0
M  V30 3457 C 328.971 4.31999 -0.0106663 0
M  V30 3458 C 328.106 5.23585 0.896241 0
M  V30 3459 C 327.145 6.12072 0.0583381 0
M  V30 3460 N 326.282 6.96035 0.920818 0
M  V30 3461 H 331.122 2.85173 -0.864891 0
M  V30 3462 H 328.659 1.40422 -0.438179 0
M  V30 3463 H 330.617 3.94345 1.36189 0
M  V30 3464 H 329.247 2.8211 1.56888 0
M  V30 3465 H 328.299 3.74492 -0.66781 0
M  V30 3466 H 329.611 4.9443 -0.658825 0
M  V30 3467 H 328.765 5.87759 1.50412 0
M  V30 3468 H 327.504 4.61459 1.57819 0
M  V30 3469 H 326.509 5.46916 -0.562389 0
M  V30 3470 H 327.734 6.76261 -0.6203 0
M  V30 3471 H 325.68 6.36485 1.58818 0
M  V30 3472 H 325.597 7.55284 0.32899 0
M  V30 3473 H 326.865 7.64646 1.51447 0
M  V30 3474 N 331.094 0.475555 1.50254 0
M  V30 3475 C 332.319 -0.0777042 2.07254 0
M  V30 3476 C 332.744 -1.3235 1.3366 0
M  V30 3477 O 332.102 -1.77152 0.385597 0
M  V30 3478 C 332.15 -0.340169 3.58992 0
M  V30 3479 O 331.254 -1.41982 3.87188 0
M  V30 3480 H 330.595 0.0149556 0.663832 0
M  V30 3481 H 333.125 0.667878 1.93392 0
M  V30 3482 H 333.135 -0.579332 4.03866 0
M  V30 3483 H 331.81 0.570167 4.11973 0
M  V30 3484 H 330.387 -1.16762 3.54148 0
M  V30 3485 N 332.573 -1.56217 0.208337 0
M  V30 3486 C 333.85 -1.89739 -0.475234 0
M  V30 3487 C 334.23 -1.1238 -1.78701 0
M  V30 3488 O 333.578 -0.228979 -2.2735 0
M  V30 3489 C 333.788 -3.42289 -0.681101 0
M  V30 3490 C 335.136 -4.12789 -0.994507 0
M  V30 3491 O 336.16 -3.47814 -0.768357 0
M  V30 3492 O 335.019 -5.27649 -1.42299 0
M  V30 3493 H 332.113 -0.788478 -0.249461 0
M  V30 3494 H 334.659 -1.67855 0.249538 0
M  V30 3495 H 333.431 -3.90534 0.244722 0
M  V30 3496 H 333.054 -3.69909 -1.45785 0
M  V30 3497 N 334.051 0.0651679 -1.57465 0
M  V30 3498 C 334.983 1.10359 -2.00882 0
M  V30 3499 C 335.996 1.346 -0.915788 0
M  V30 3500 O 337.185 1.32723 -1.1936 0
M  V30 3501 C 334.285 2.45312 -2.33828 0
M  V30 3502 C 333.458 2.40934 -3.65061 0
M  V30 3503 C 332.517 3.58047 -3.85602 0
M  V30 3504 O 331.543 3.39175 -4.57109 0
M  V30 3505 N 332.745 4.78637 -3.28462 0
M  V30 3506 H 335.51 0.733807 -2.90578 0
M  V30 3507 H 333.071 0.253719 -1.599 0
M  V30 3508 H 335.063 3.22314 -2.44737 0
M  V30 3509 H 333.633 2.74267 -1.49988 0
M  V30 3510 H 332.853 1.49273 -3.64844 0
M  V30 3511 H 334.141 2.35117 -4.51218 0
M  V30 3512 H 333.539 4.96872 -2.70433 0
M  V30 3513 H 332.096 5.53127 -3.44809 0
M  V30 3514 N 335.529 1.53961 0.336706 0
M  V30 3515 C 336.757 1.75483 1.09605 0
M  V30 3516 C 337.172 0.4972 1.82136 0
M  V30 3517 O 336.529 -0.53149 1.74589 0
M  V30 3518 C 336.58 2.93943 2.10428 0
M  V30 3519 O 336.301 4.14842 1.40846 0
M  V30 3520 C 337.802 3.27571 2.98684 0
M  V30 3521 H 335.022 0.586166 0.326574 0
M  V30 3522 H 337.566 2.00808 0.38683 0
M  V30 3523 H 335.721 2.70929 2.76905 0
M  V30 3524 H 336.135 4.81383 2.08255 0
M  V30 3525 H 337.609 4.13791 3.6535 0
M  V30 3526 H 338.086 2.44168 3.65074 0
M  V30 3527 H 338.692 3.52615 2.37787 0
M  V30 3528 N 337.007 -0.598083 1.45811 0
M  V30 3529 C 338.254 -1.35681 1.50323 0
M  V30 3530 C 338.582 -1.9393 0.148739 0
M  V30 3531 O 337.837 -1.76094 -0.853787 0
M  V30 3532 C 338.136 -2.51669 2.53766 0
M  V30 3533 C 337.802 -2.11508 3.98215 0
M  V30 3534 C 336.464 -2.0027 4.37545 0
M  V30 3535 C 338.816 -1.80308 4.89018 0
M  V30 3536 C 336.144 -1.56067 5.65562 0
M  V30 3537 C 338.496 -1.37589 6.17456 0
M  V30 3538 C 337.16 -1.24916 6.55708 0
M  V30 3539 H 336.43 -0.496492 0.550069 0
M  V30 3540 H 339.077 -0.675052 1.79207 0
M  V30 3541 H 337.382 -3.25225 2.18486 0
M  V30 3542 H 339.079 -3.09895 2.54492 0
M  V30 3543 H 335.669 -2.21185 3.67117 0
M  V30 3544 H 339.853 -1.87884 4.59362 0
M  V30 3545 H 335.109 -1.44886 5.93985 0
M  V30 3546 H 339.283 -1.12495 6.87254 0
M  V30 3547 H 336.91 -0.904386 7.54801 0
M  V30 3548 N 338.485 -1.33259 -0.841409 0
M  V30 3549 C 339.715 -1.2742 -1.62628 0
M  V30 3550 C 340.123 0.157604 -1.88542 0
M  V30 3551 O 339.466 1.10938 -1.46419 0
M  V30 3552 C 339.528 -1.97797 -3.00194 0
M  V30 3553 C 339.192 -3.47109 -2.97261 0
M  V30 3554 C 340.189 -4.42358 -2.73159 0
M  V30 3555 C 337.874 -3.89247 -3.17478 0
M  V30 3556 C 339.868 -5.77718 -2.69296 0
M  V30 3557 C 337.555 -5.24713 -3.13241 0
M  V30 3558 C 338.553 -6.1876 -2.89181 0
M  V30 3559 O 338.241 -7.51745 -2.84843 0
M  V30 3560 H 337.973 -0.440436 -0.512827 0
M  V30 3561 H 340.527 -1.76153 -1.05638 0
M  V30 3562 H 338.757 -1.43652 -3.59028 0
M  V30 3563 H 340.446 -1.8549 -3.61038 0
M  V30 3564 H 341.212 -4.11127 -2.57294 0
M  V30 3565 H 337.091 -3.16456 -3.35226 0
M  V30 3566 H 340.635 -6.51097 -2.50436 0
M  V30 3567 H 336.532 -5.55569 -3.28654 0
M  V30 3568 H 337.3 -7.61262 -3.00702 0
M  V30 3569 N 339.963 1.05934 -1.16686 0
M  V30 3570 C 340.91 2.13499 -0.876748 0
M  V30 3571 C 341.88 1.65162 0.176299 0
M  V30 3572 O 343.065 1.90757 0.0407143 0
M  V30 3573 C 340.205 3.42912 -0.387967 0
M  V30 3574 C 339.318 4.04964 -1.50426 0
M  V30 3575 C 338.453 5.22266 -0.970125 0
M  V30 3576 C 337.492 5.76309 -2.06238 0
M  V30 3577 N 336.629 6.84922 -1.54356 0
M  V30 3578 H 341.469 2.37654 -1.7979 0
M  V30 3579 H 339.006 1.16598 -0.896843 0
M  V30 3580 H 340.964 4.17111 -0.086186 0
M  V30 3581 H 339.594 3.18963 0.496235 0
M  V30 3582 H 338.646 3.28277 -1.92193 0
M  V30 3583 H 339.958 4.41122 -2.32836 0
M  V30 3584 H 339.112 6.03506 -0.621743 0
M  V30 3585 H 337.851 4.87564 -0.115377 0
M  V30 3586 H 336.856 4.93704 -2.41942 0
M  V30 3587 H 338.081 6.13062 -2.92115 0
M  V30 3588 H 336.027 6.52131 -0.711406 0
M  V30 3589 H 335.944 7.20043 -2.30379 0
M  V30 3590 H 337.212 7.69832 -1.22387 0
M  V30 3591 N 341.441 0.965919 1.2453 0
M  V30 3592 C 342.671 0.643451 1.96324 0
M  V30 3593 C 343.079 -0.790927 1.71875 0
M  V30 3594 O 342.422 -1.54208 0.998273 0
M  V30 3595 C 342.484 0.836078 3.49643 0
M  V30 3596 C 342.148 2.24975 3.97788 0
M  V30 3597 C 343.145 3.22735 4.07601 0
M  V30 3598 C 340.83 2.57697 4.31158 0
M  V30 3599 C 342.824 4.51303 4.50116 0
M  V30 3600 C 340.511 3.86492 4.73357 0
M  V30 3601 C 341.509 4.83107 4.828 0
M  V30 3602 O 341.197 6.09605 5.24058 0
M  V30 3603 H 340.929 0.239223 0.632257 0
M  V30 3604 H 343.483 1.29587 1.59362 0
M  V30 3605 H 341.713 0.12649 3.86493 0
M  V30 3606 H 343.402 0.512965 4.02646 0
M  V30 3607 H 344.168 2.98783 3.82039 0
M  V30 3608 H 340.047 1.83216 4.23028 0
M  V30 3609 H 343.591 5.26716 4.57401 0
M  V30 3610 H 339.488 4.10245 4.98366 0
M  V30 3611 H 340.256 6.13146 5.42213 0
M  V30 3612 N 342.919 -1.39368 0.735821 0
M  V30 3613 C 343.867 -2.32443 0.0855131 0
M  V30 3614 C 344.861 -1.53104 -0.724954 0
M  V30 3615 O 346.067 -1.68762 -0.626047 0
M  V30 3616 H 342.442 -0.751948 0.00885257 0
M  V30 3617 H 344.413 -2.84916 0.886883 0
M  V30 3618 C 343.162 -3.38206 -0.806983 0
M  V30 3619 H 342.485 -3.99335 -0.19274 0
M  V30 3620 H 343.925 -4.05779 -1.2296 0
M  V30 3621 C 342.384 -2.75321 -1.94165 0
M  V30 3622 O 342.914 -2.63231 -3.03435 0
M  V30 3623 N 341.12 -2.33396 -1.73132 0
M  V30 3624 H 340.667 -2.4343 -0.842596 0
M  V30 3625 H 340.625 -1.91661 -2.49225 0
M  V30 3626 N 344.397 -0.483516 -1.5 0
M  V30 3627 C 345.625 0.0644831 -2.06799 0
M  V30 3628 C 346.04 1.32399 -1.34596 0
M  V30 3629 O 345.397 1.77626 -0.418946 0
M  V30 3630 C 345.448 0.339927 -3.59898 0
M  V30 3631 O 345.169 -0.869635 -4.29382 0
M  V30 3632 C 346.67 0.933515 -4.33359 0
M  V30 3633 H 343.89 -0.0126333 -0.670881 0
M  V30 3634 H 346.434 -0.675864 -1.93009 0
M  V30 3635 H 344.589 1.03022 -3.7345 0
M  V30 3636 H 345.003 -0.62179 -5.20801 0
M  V30 3637 H 346.477 1.07593 -5.41413 0
M  V30 3638 H 346.954 1.92685 -3.94676 0
M  V30 3639 H 347.56 0.281221 -4.24369 0
M  V30 3640 N 345.875 1.56104 -0.216619 0
M  V30 3641 C 347.152 1.89988 0.465165 0
M  V30 3642 C 347.532 1.13326 1.78102 0
M  V30 3643 O 346.88 0.241033 2.27225 0
M  V30 3644 C 347.09 3.42646 0.662939 0
M  V30 3645 C 348.438 4.13311 0.972602 0
M  V30 3646 O 349.462 3.48217 0.749901 0
M  V30 3647 O 348.321 5.28396 1.39499 0
M  V30 3648 H 345.415 0.78979 0.245276 0
M  V30 3649 H 347.961 1.67721 -0.258436 0
M  V30 3650 H 346.733 3.90399 -0.26543 0
M  V30 3651 H 346.356 3.70677 1.43821 0
M  V30 3652 N 347.353 -0.0568162 1.57498 0
M  V30 3653 C 348.63 -0.786954 1.79071 0
M  V30 3654 C 349.01 -1.95028 0.80792 0
M  V30 3655 O 348.358 -2.27968 -0.155858 0
M  V30 3656 C 348.568 -1.24594 3.26002 0
M  V30 3657 C 349.916 -1.67323 3.90241 0
M  V30 3658 O 350.94 -1.34124 3.29984 0
M  V30 3659 O 349.799 -2.28842 4.9628 0
M  V30 3660 H 346.893 -0.378262 0.735423 0
M  V30 3661 H 349.439 -0.035734 1.69662 0
M  V30 3662 H 348.211 -0.41423 3.89101 0
M  V30 3663 H 347.834 -2.05803 3.40192 0
M  V30 3664 N 348.832 -1.54138 -0.328536 0
M  V30 3665 C 350.081 -1.71318 -1.06456 0
M  V30 3666 C 350.394 -0.491109 -1.89334 0
M  V30 3667 O 351.6 -0.54416 -2.65991 0
M  V30 3668 C 350.056 -3.03 -1.94214 0
M  V30 3669 C 349.664 -4.32595 -1.16471 0
M  V30 3670 C 351.408 -3.29544 -2.67583 0
M  V30 3671 C 349.315 -5.55341 -2.03347 0
M  V30 3672 H 348.245 -0.638429 -0.401155 0
M  V30 3673 H 350.896 -1.80633 -0.323106 0
M  V30 3674 H 349.278 -2.87579 -2.72239 0
M  V30 3675 H 350.452 -4.58766 -0.432525 0
M  V30 3676 H 348.767 -4.12777 -0.548063 0
M  V30 3677 H 351.364 -4.18444 -3.3288 0
M  V30 3678 H 351.707 -2.47206 -3.34955 0
M  V30 3679 H 352.24 -3.45809 -1.96623 0
M  V30 3680 H 348.979 -6.40268 -1.40491 0
M  V30 3681 H 348.499 -5.33397 -2.74313 0
M  V30 3682 H 350.178 -5.91557 -2.62049 0
M  V30 3683 N 350.31 0.590341 -1.46126 0
M  V30 3684 C 351.535 1.37991 -1.54833 0
M  V30 3685 C 351.96 1.87163 -0.187506 0
M  V30 3686 O 351.318 1.61133 0.831008 0
M  V30 3687 C 351.366 2.54867 -2.55098 0
M  V30 3688 O 350.47 3.56061 -2.08073 0
M  V30 3689 H 349.811 0.411265 -0.521303 0
M  V30 3690 H 352.341 0.716819 -1.91632 0
M  V30 3691 H 352.351 3.01886 -2.74461 0
M  V30 3692 H 351.026 2.18429 -3.53923 0
M  V30 3693 H 349.603 3.15574 -1.98664 0
M  V30 3694 N 351.788 1.33704 0.83433 0
M  V30 3695 C 353.204 1.13137 1.12571 0
M  V30 3696 C 353.404 -0.0747261 2.01361 0
M  V30 3697 O 352.46 -0.753647 2.4099 0
M  V30 3698 C 353.773 2.42105 1.78342 0
M  V30 3699 C 355.321 2.48054 1.90888 0
M  V30 3700 C 355.796 3.76995 2.60075 0
M  V30 3701 N 357.287 3.78092 2.67584 0
M  V30 3702 C 358.022 4.74574 3.21818 0
M  V30 3703 N 357.518 5.81434 3.76705 0
M  V30 3704 N 359.311 4.62044 3.20112 0
M  V30 3705 H 351.462 2.11 0.243489 0
M  V30 3706 H 353.725 0.932532 0.17055 0
M  V30 3707 H 353.431 3.30391 1.20561 0
M  V30 3708 H 353.305 2.54594 2.7832 0
M  V30 3709 H 355.692 1.60215 2.47821 0
M  V30 3710 H 355.773 2.39502 0.898459 0
M  V30 3711 H 355.417 4.65219 2.03799 0
M  V30 3712 H 355.347 3.82825 3.61597 0
M  V30 3713 H 357.838 3.00865 2.28667 0
M  V30 3714 H 358.151 6.51084 4.16305 0
M  V30 3715 H 356.496 5.85163 3.7498 0
M  V30 3716 H 359.687 3.77716 2.76493 0
M  V30 3717 H 359.86 5.37406 3.62076 0
M  V30 3718 N 353.266 -1.05314 1.17247 0
M  V30 3719 C 354.515 -1.77685 0.954521 0
M  V30 3720 C 354.828 -1.88616 -0.518025 0
M  V30 3721 O 356.034 -2.57714 -0.854144 0
M  V30 3722 C 354.49 -3.19402 1.65863 0
M  V30 3723 C 354.098 -3.16605 3.16963 0
M  V30 3724 C 355.842 -3.96237 1.52303 0
M  V30 3725 C 353.749 -4.53103 3.80068 0
M  V30 3726 H 352.679 -0.666 0.353496 0
M  V30 3727 H 355.33 -1.1805 1.40486 0
M  V30 3728 H 353.712 -3.79355 1.13602 0
M  V30 3729 H 354.886 -2.66176 3.76148 0
M  V30 3730 H 353.201 -2.53268 3.30521 0
M  V30 3731 H 355.798 -4.97157 1.96822 0
M  V30 3732 H 356.141 -4.136 0.473401 0
M  V30 3733 H 356.674 -3.42829 2.01775 0
M  V30 3734 H 353.413 -4.40946 4.85023 0
M  V30 3735 H 352.933 -5.03686 3.2567 0
M  V30 3736 H 354.612 -5.22045 3.82202 0
M  V30 3737 N 354.744 -0.972509 -1.24016 0
M  V30 3738 C 355.993 -0.632603 -1.91523 0
M  V30 3739 C 356.306 0.836641 -1.76804 0
M  V30 3740 O 357.512 1.28728 -2.39043 0
M  V30 3741 C 355.968 -1.08082 -3.43287 0
M  V30 3742 C 355.576 -2.57386 -3.66683 0
M  V30 3743 C 357.32 -0.814288 -4.16617 0
M  V30 3744 C 355.227 -2.95915 -5.12043 0
M  V30 3745 H 354.157 -0.232898 -0.717129 0
M  V30 3746 H 356.808 -1.17936 -1.40582 0
M  V30 3747 H 355.19 -0.462339 -3.93292 0
M  V30 3748 H 356.364 -3.24405 -3.27258 0
M  V30 3749 H 354.679 -2.81701 -3.06649 0
M  V30 3750 H 357.276 -1.0781 -5.23718 0
M  V30 3751 H 357.619 0.24955 -4.15551 0
M  V30 3752 H 358.152 -1.39397 -3.72577 0
M  V30 3753 H 354.891 -4.0139 -5.18234 0
M  V30 3754 H 354.411 -2.33584 -5.52448 0
M  V30 3755 H 356.09 -2.86086 -5.80314 0
M  V30 3756 N 356.222 1.38976 -0.743202 0
M  V30 3757 C 357.499 1.94351 -0.220705 0
M  V30 3758 C 357.879 1.67935 1.2791 0
M  V30 3759 O 357.227 1.01211 2.04862 0
M  V30 3760 C 357.437 3.44426 -0.563171 0
M  V30 3761 C 358.785 4.2144 -0.517046 0
M  V30 3762 O 359.809 3.52661 -0.500846 0
M  V30 3763 O 358.668 5.44032 -0.518806 0
M  V30 3764 H 355.762 0.825879 -0.043047 0
M  V30 3765 H 358.308 1.48429 -0.822618 0
M  V30 3766 H 357.08 3.5712 -1.59941 0
M  V30 3767 H 356.703 3.97543 0.0672883 0
M  V30 3768 N 357.7 0.491464 1.49741 0
M  V30 3769 C 358.946 -0.0565092 2.02721 0
M  V30 3770 C 359.279 -1.37522 1.37118 0
M  V30 3771 O 358.554 -1.87866 0.503645 0
M  V30 3772 C 358.837 -0.219051 3.59433 0
M  V30 3773 C 358.69 1.12211 4.35579 0
M  V30 3774 C 360.009 -0.964157 4.29409 0
M  V30 3775 H 357.128 -0.0190627 0.736753 0
M  V30 3776 H 359.77 0.641021 1.7886 0
M  V30 3777 H 357.92 -0.813165 3.79895 0
M  V30 3778 H 359.592 1.75437 4.26637 0
M  V30 3779 H 357.835 1.71377 3.98513 0
M  V30 3780 H 358.506 0.961794 5.43556 0
M  V30 3781 H 360.982 -0.460378 4.13545 0
M  V30 3782 H 359.858 -1.04671 5.38828 0
M  V30 3783 H 360.119 -2.00563 3.93988 0
M  V30 3784 N 359.178 -1.55987 0.224894 0
M  V30 3785 C 360.108 -2.23426 -0.678457 0
M  V30 3786 C 361.089 -1.20709 -1.19847 0
M  V30 3787 O 362.274 -1.49304 -1.24186 0
M  V30 3788 C 359.404 -2.91676 -1.88527 0
M  V30 3789 C 358.358 -4.00893 -1.49896 0
M  V30 3790 C 357.684 -4.56455 -2.78483 0
M  V30 3791 C 358.984 -5.17769 -0.686461 0
M  V30 3792 H 360.678 -2.99175 -0.116173 0
M  V30 3793 H 358.224 -1.43897 -0.054436 0
M  V30 3794 H 360.177 -3.37547 -2.5227 0
M  V30 3795 H 358.901 -2.1338 -2.47258 0
M  V30 3796 H 357.56 -3.55758 -0.884985 0
M  V30 3797 H 357.208 -3.74886 -3.35365 0
M  V30 3798 H 356.908 -5.30169 -2.53368 0
M  V30 3799 H 358.432 -5.05047 -3.43162 0
M  V30 3800 H 359.846 -5.60001 -1.22767 0
M  V30 3801 H 358.243 -5.97735 -0.532259 0
M  V30 3802 H 359.313 -4.83932 0.306196 0
M  V30 3803 N 360.656 0.0484629 -1.57525 0
M  V30 3804 C 362.067 0.597486 -1.76881 0
M  V30 3805 C 362.418 1.76664 -0.853475 0
M  V30 3806 O 361.543 2.16357 -0.0433656 0
M  V30 3807 C 362.138 1.09066 -3.20765 0
M  V30 3808 C 360.697 1.58535 -3.41385 0
M  V30 3809 C 359.844 0.514868 -2.72478 0
M  V30 3810 H 362.795 -0.177758 -1.57701 0
M  V30 3811 H 362.816 1.95875 -3.2621 0
M  V30 3812 H 362.328 0.239521 -3.8736 0
M  V30 3813 H 360.429 2.45898 -2.79937 0
M  V30 3814 H 360.542 1.64622 -4.49929 0
M  V30 3815 H 358.906 0.965407 -2.35695 0
M  V30 3816 H 359.689 -0.32648 -3.41744 0
M  V30 3817 N 362.134 1.5431 0.320358 0
M  V30 3818 C 363.359 1.76954 1.08175 0
M  V30 3819 C 363.784 0.518193 1.80821 0
M  V30 3820 O 363.142 -0.530411 1.73368 0
M  V30 3821 C 363.19 2.96451 2.05303 0
M  V30 3822 O 362.294 2.68221 3.13259 0
M  V30 3823 H 361.635 0.586275 0.311733 0
M  V30 3824 H 364.165 2.01342 0.363676 0
M  V30 3825 H 364.175 3.23887 2.48116 0
M  V30 3826 H 362.85 3.87196 1.51829 0
M  V30 3827 H 361.427 2.51744 2.75099 0
M  V30 3828 N 363.613 -0.582584 1.46437 0
M  V30 3829 C 365.024 -1.1647 1.45916 0
M  V30 3830 C 365.375 -1.95177 0.200077 0
M  V30 3831 O 364.5 -2.04874 -0.696819 0
M  V30 3832 C 365.095 -2.11885 2.64367 0
M  V30 3833 C 363.654 -2.65421 2.66887 0
M  V30 3834 C 362.801 -1.41294 2.38603 0
M  V30 3835 H 365.752 -0.370514 1.54314 0
M  V30 3836 H 365.773 -2.9535 2.39892 0
M  V30 3837 H 365.285 -1.54573 3.5599 0
M  V30 3838 H 363.386 -3.26602 1.79338 0
M  V30 3839 H 363.499 -3.08147 3.66854 0
M  V30 3840 H 361.863 -1.71109 1.88663 0
M  V30 3841 H 362.646 -0.858125 3.32402 0
M  V30 3842 N 365.091 -1.34144 -0.827227 0
M  V30 3843 C 366.337 -1.26446 -1.58554 0
M  V30 3844 C 366.67 0.1664 -1.93486 0
M  V30 3845 O 365.945 1.1107 -1.59667 0
M  V30 3846 C 366.228 -2.15111 -2.8879 0
M  V30 3847 C 366.081 -3.66712 -2.60465 0
M  V30 3848 C 367.4 -2.03311 -3.90324 0
M  V30 3849 H 364.519 -0.46067 -0.575284 0
M  V30 3850 H 367.161 -1.64356 -0.953269 0
M  V30 3851 H 365.311 -1.8291 -3.42748 0
M  V30 3852 H 366.983 -4.09259 -2.1285 0
M  V30 3853 H 365.226 -3.88014 -1.93978 0
M  V30 3854 H 365.897 -4.24112 -3.53317 0
M  V30 3855 H 368.373 -2.31574 -3.45706 0
M  V30 3856 H 367.249 -2.67582 -4.79261 0
M  V30 3857 H 367.51 -1.00879 -4.30437 0
M  V30 3858 N 366.569 1.04691 -1.17803 0
M  V30 3859 C 367.799 1.81183 -0.992788 0
M  V30 3860 C 368.207 1.8347 0.462098 0
M  V30 3861 O 367.55 1.2643 1.33271 0
M  V30 3862 C 367.612 3.28363 -1.46349 0
M  V30 3863 C 367.276 3.49749 -2.94151 0
M  V30 3864 C 368.273 3.41456 -3.92051 0
M  V30 3865 C 365.958 3.76548 -3.32441 0
M  V30 3866 C 367.952 3.59656 -5.26238 0
M  V30 3867 C 365.639 3.94396 -4.66792 0
M  V30 3868 C 366.637 3.8595 -5.635 0
M  V30 3869 O 366.325 4.03294 -6.9542 0
M  V30 3870 H 366.057 0.577622 -0.351182 0
M  V30 3871 H 368.611 1.32876 -1.5663 0
M  V30 3872 H 366.841 3.77609 -0.833574 0
M  V30 3873 H 368.53 3.86395 -1.24313 0
M  V30 3874 H 369.296 3.20723 -3.63815 0
M  V30 3875 H 365.175 3.82224 -2.57732 0
M  V30 3876 H 368.719 3.52979 -6.01707 0
M  V30 3877 H 364.616 4.14622 -4.94731 0
M  V30 3878 H 365.384 4.2049 -7.02232 0
M  V30 3879 N 368.047 0.979072 1.23499 0
M  V30 3880 C 369.458 0.684391 1.73704 0
M  V30 3881 C 369.809 -0.799448 1.79174 0
M  V30 3882 O 368.934 -1.62531 1.42873 0
M  V30 3883 C 369.529 1.23564 3.15464 0
M  V30 3884 C 368.088 0.99063 3.6313 0
M  V30 3885 C 367.235 1.36416 2.41425 0
M  V30 3886 H 370.186 1.15307 1.09041 0
M  V30 3887 H 370.207 0.607417 3.7562 0
M  V30 3888 H 369.719 2.31561 3.1145 0
M  V30 3889 H 367.82 -0.0733136 3.72528 0
M  V30 3890 H 367.933 1.64427 4.5 0
M  V30 3891 H 366.297 0.782616 2.42378 0
M  V30 3892 H 367.08 2.45387 2.40083 0
M  V30 3893 N 369.525 -1.3858 0.750561 0
M  V30 3894 C 370.753 -2.04471 0.316098 0
M  V30 3895 C 371.168 -1.56606 -1.05452 0
M  V30 3896 O 370.525 -0.737784 -1.66922 0
M  V30 3897 C 370.576 -3.60025 0.326275 0
M  V30 3898 O 370.297 -4.06133 1.6428 0
M  V30 3899 C 371.798 -4.43131 -0.122429 0
M  V30 3900 H 369.018 -0.65717 0.135528 0
M  V30 3901 H 371.562 -1.77329 1.01857 0
M  V30 3902 H 369.717 -3.86014 -0.327431 0
M  V30 3903 H 370.131 -5.00547 1.56693 0
M  V30 3904 H 371.605 -5.51963 -0.0641473 0
M  V30 3905 H 372.082 -4.23333 -1.16988 0
M  V30 3906 H 372.688 -4.22323 0.50229 0
M  V30 3907 N 371.003 -0.499398 -1.49478 0
M  V30 3908 C 372.252 0.0475259 -2.01644 0
M  V30 3909 C 372.565 1.38195 -1.38425 0
M  V30 3910 O 373.771 2.01547 -1.8191 0
M  V30 3911 C 372.227 0.135164 -3.59646 0
M  V30 3912 C 371.835 -1.19252 -4.31837 0
M  V30 3913 C 373.579 0.632538 -4.19761 0
M  V30 3914 C 371.486 -1.06713 -5.81693 0
M  V30 3915 H 370.416 0.0215349 -0.753692 0
M  V30 3916 H 373.067 -0.638577 -1.7203 0
M  V30 3917 H 371.449 0.885681 -3.85969 0
M  V30 3918 H 372.623 -1.9562 -4.17216 0
M  V30 3919 H 370.938 -1.62321 -3.83459 0
M  V30 3920 H 373.535 0.743833 -5.29501 0
M  V30 3921 H 373.878 1.63098 -3.83021 0
M  V30 3922 H 374.411 -0.0613987 -3.97753 0
M  V30 3923 H 371.15 -2.03979 -6.22955 0
M  V30 3924 H 370.67 -0.344307 -5.98811 0
M  V30 3925 H 372.349 -0.745208 -6.42694 0
M  V30 3926 N 372.481 1.55866 -0.233164 0
M  V30 3927 C 373.758 1.90471 0.444988 0
M  V30 3928 C 374.138 1.15209 1.7689 0
M  V30 3929 O 373.486 0.265119 2.26957 0
M  V30 3930 C 373.696 3.4333 0.626559 0
M  V30 3931 C 375.044 4.14319 0.92871 0
M  V30 3932 O 376.068 3.48993 0.712926 0
M  V30 3933 O 374.927 5.29846 1.33887 0
M  V30 3934 H 372.021 0.792347 0.236885 0
M  V30 3935 H 374.567 1.67437 -0.276211 0
M  V30 3936 H 373.339 3.90095 -0.306822 0
M  V30 3937 H 372.962 3.72181 1.39881 0
M  V30 3938 N 373.959 -0.0401083 1.57549 0
M  V30 3939 C 374.892 -1.07689 2.01192 0
M  V30 3940 C 375.87 -1.358 0.894273 0
M  V30 3941 O 377.054 -1.48642 1.15921 0
M  V30 3942 C 374.181 -2.41418 2.3756 0
M  V30 3943 C 373.227 -2.29237 3.59656 0
M  V30 3944 S 374.06 -1.65628 5.09242 0
M  V30 3945 C 375.216 -3.0087 5.48843 0
M  V30 3946 H 375.449 -0.705108 2.88817 0
M  V30 3947 H 372.982 -0.249724 1.52367 0
M  V30 3948 H 374.94 -3.18329 2.59186 0
M  V30 3949 H 373.601 -2.75747 1.50407 0
M  V30 3950 H 372.794 -3.27932 3.82722 0
M  V30 3951 H 372.396 -1.60469 3.37825 0
M  V30 3952 H 374.688 -3.97201 5.48851 0
M  V30 3953 H 375.631 -2.82549 6.49286 0
M  V30 3954 H 376.039 -3.02934 4.76331 0
M  V30 3955 N 375.437 -1.54477 -0.31217 0
M  V30 3956 C 376.665 -1.77205 -1.068 0
M  V30 3957 C 377.08 -0.526114 -1.81321 0
M  V30 3958 O 376.437 0.503647 -1.75413 0
M  V30 3959 C 376.488 -2.97253 -2.05725 0
M  V30 3960 O 376.209 -4.1703 -1.34228 0
M  V30 3961 C 377.71 -3.32281 -2.93435 0
M  V30 3962 H 374.93 -0.591287 -0.317208 0
M  V30 3963 H 377.474 -2.01398 -0.354834 0
M  V30 3964 H 375.629 -2.753 -2.72559 0
M  V30 3965 H 376.043 -4.84636 -2.00571 0
M  V30 3966 H 377.517 -4.19551 -3.58721 0
M  V30 3967 H 377.994 -2.49945 -3.61143 0
M  V30 3968 H 378.6 -3.56353 -2.32147 0
M  V30 3969 N 376.915 0.57481 -1.46744 0
M  V30 3970 C 377.878 1.66533 -1.57478 0
M  V30 3971 C 378.878 1.54338 -0.451263 0
M  V30 3972 O 380.068 1.58814 -0.715813 0
M  V30 3973 C 377.2 3.05999 -1.50259 0
M  V30 3974 H 378.393 1.58372 -2.54673 0
M  V30 3975 H 375.946 0.793301 -1.34672 0
M  V30 3976 H 376.681 3.19709 -0.543725 0
M  V30 3977 H 376.466 3.16259 -2.31781 0
M  V30 3978 H 377.956 3.8537 -1.60872 0
M  V30 3979 O 378.432 1.44602 0.719209 0
M  V30 3980 H 379.123 1.36947 1.36986 0
M  V30 END ATOM
M  V30 BEGIN BOND
M  V30 END BOND
M  V30 END CTAB
M  END
$$$$
