drugbank_target|Q06278 Aldehyde oxidase (DB00924; DB03516)
 OpenBabel12092120343D

  0  0  0     0  0            999 V3000
M  V30 BEGIN CTAB
M  V30 COUNTS 20773 20994 0 0 0
M  V30 BEGIN ATOM
M  V30 1 H -0.908 1.98254 -0.117106 0
M  V30 2 N 0 1.576 0 0
M  V30 3 C 0.933 2.03868 1.02534 0
M  V30 4 C 1.911 0.928543 1.3348 0
M  V30 5 O 3.095 1.19667 1.45644 0
M  V30 6 C 0.222 2.43627 2.35294 0
M  V30 7 C -0.732 3.65373 2.2001 0
M  V30 8 S 0.101 5.13292 1.52614 0
M  V30 9 C 1.257 5.56322 2.86805 0
M  V30 10 H 1.49 2.90518 0.631377 0
M  V30 11 H -0.977 1.52953 0.210867 0
M  V30 12 H 0.981 2.67203 3.11629 0
M  V30 13 H -0.358 1.57376 2.7183 0
M  V30 14 H -1.165 3.90944 3.18086 0
M  V30 15 H -1.563 3.418 1.51819 0
M  V30 16 H 0.729 5.58782 3.83104 0
M  V30 17 H 1.672 6.56266 2.65933 0
M  V30 18 H 2.08 4.83886 2.90714 0
M  V30 19 N 1.4781 -0.272755 1.55222 0
M  V30 20 C 2.7551 -1.02562 1.66555 0
M  V30 21 C 3.1351 -2.04282 0.532189 0
M  V30 22 O 2.4831 -2.23662 -0.467717 0
M  V30 23 C 2.6931 -1.6822 3.05782 0
M  V30 24 C 4.0411 -2.19373 3.63539 0
M  V30 25 O 5.0651 -1.78206 3.08417 0
M  V30 26 O 3.9241 -2.94883 4.60115 0
M  V30 27 H 1.0181 -0.475755 0.676451 0
M  V30 28 H 3.5641 -0.268593 1.67561 0
M  V30 29 H 2.3361 -0.945112 3.79715 0
M  V30 30 H 1.9591 -2.50609 3.08676 0
M  V30 31 N 2.9562 -1.48159 -0.537278 0
M  V30 32 C 4.3722 -1.34118 -0.865129 0
M  V30 33 C 4.5722 -0.346678 -1.98495 0
M  V30 34 O 3.6282 0.234715 -2.51407 0
M  V30 35 C 4.9412 -2.73963 -1.23954 0
M  V30 36 C 6.4892 -2.82397 -1.34984 0
M  V30 37 C 6.9642 -4.22928 -1.75772 0
M  V30 38 N 8.4552 -4.25566 -1.82887 0
M  V30 39 C 9.1902 -5.31235 -2.15817 0
M  V30 40 N 8.6862 -6.47189 -2.47222 0
M  V30 41 N 10.4792 -5.18624 -2.16761 0
M  V30 42 H 2.6302 -2.1144 0.201715 0
M  V30 43 H 4.8932 -0.947598 0.0275949 0
M  V30 44 H 4.5992 -3.48264 -0.490381 0
M  V30 45 H 4.4732 -3.0702 -2.19132 0
M  V30 46 H 6.8602 -2.08356 -2.08978 0
M  V30 47 H 6.9412 -2.5297 -0.379448 0
M  V30 48 H 6.5852 -4.97482 -1.02341 0
M  V30 49 H 6.5152 -4.49794 -2.73848 0
M  V30 50 H 9.0062 -3.41924 -1.60924 0
M  V30 51 H 9.3192 -7.23564 -2.71433 0
M  V30 52 H 7.6642 -6.50476 -2.44757 0
M  V30 53 H 10.8552 -4.27056 -1.91679 0
M  V30 54 H 11.0282 -6.01078 -2.42093 0
M  V30 55 N 4.4343 0.785586 -1.36625 0
M  V30 56 C 5.3973 1.87999 -1.31107 0
M  V30 57 C 6.3973 1.59316 -0.217959 0
M  V30 58 O 7.5873 1.67656 -0.472977 0
M  V30 59 C 4.7193 3.24861 -1.03334 0
M  V30 60 H 5.9123 1.94307 -2.2844 0
M  V30 61 H 3.4653 0.983813 -1.21453 0
M  V30 62 H 4.2003 3.24235 -0.0647432 0
M  V30 63 H 3.9853 3.4707 -1.82441 0
M  V30 64 H 5.4753 4.04929 -1.02088 0
M  V30 65 N 5.9124 1.20967 1.01018 0
M  V30 66 C 7.1374 1.0503 1.78839 0
M  V30 67 C 7.5624 -0.395752 1.8389 0
M  V30 68 O 6.9204 -1.28529 1.27867 0
M  V30 69 C 6.9684 1.64602 3.2084 0
M  V30 70 O 6.0724 0.887988 4.02726 0
M  V30 71 H 5.4134 0.369987 0.551367 0
M  V30 72 H 7.9434 1.60399 1.27018 0
M  V30 73 H 7.9534 1.68607 3.71532 0
M  V30 74 H 6.6284 2.69841 3.16479 0
M  V30 75 H 5.2054 0.922648 3.61305 0
M  V30 76 N 7.3905 -1.2043 1.01659 0
M  V30 77 C 8.3005 -2.2689 0.596484 0
M  V30 78 C 9.3165 -1.70107 -0.36599 0
M  V30 79 O 10.4925 -2.00117 -0.226942 0
M  V30 80 C 7.5575 -3.4665 -0.0586659 0
M  V30 81 C 6.6185 -4.18662 0.949751 0
M  V30 82 C 5.8515 -5.32705 0.32577 0
M  V30 83 O 6.0745 -5.63656 -0.874509 0
M  V30 84 O 5.0085 -5.92803 1.04249 0
M  V30 85 H 8.8345 -2.65041 1.4828 0
M  V30 86 H 6.4195 -1.27048 0.786082 0
M  V30 87 H 8.3015 -4.19256 -0.424564 0
M  V30 88 H 6.9765 -3.10375 -0.91918 0
M  V30 89 H 5.8835 -3.48229 1.36702 0
M  V30 90 H 7.2165 -4.58878 1.78023 0
M  V30 91 N 8.8686 -0.792821 -1.36206 0
M  V30 92 C 9.7986 -0.207853 -2.32573 0
M  V30 93 C 10.7796 0.659055 -1.56813 0
M  V30 94 O 11.9646 0.592176 -1.84951 0
M  V30 95 C 9.0946 0.655449 -3.41059 0
M  V30 96 C 8.0486 -0.111842 -4.27854 0
M  V30 97 C 7.3746 0.872274 -5.27537 0
M  V30 98 C 8.6746 -1.30299 -5.05786 0
M  V30 99 H 10.3686 -1.01294 -2.81744 0
M  V30 100 H 7.9146 -0.48854 -1.3546 0
M  V30 101 H 9.8676 1.07464 -4.07467 0
M  V30 102 H 8.5916 1.49328 -2.90463 0
M  V30 103 H 7.2506 -0.512053 -3.63006 0
M  V30 104 H 6.8986 1.70523 -4.73214 0
M  V30 105 H 6.5986 0.363291 -5.86476 0
M  V30 106 H 8.1226 1.28996 -5.96818 0
M  V30 107 H 9.5366 -0.959379 -5.65216 0
M  V30 108 H 7.9336 -1.7455 -5.74154 0
M  V30 109 H 9.0036 -2.09663 -4.37229 0
M  V30 110 N 10.3467 1.47872 -0.545128 0
M  V30 111 C 11.2767 2.32661 0.197793 0
M  V30 112 C 12.2577 1.43041 0.920504 0
M  V30 113 O 13.4427 1.71912 0.90333 0
M  V30 114 C 10.5727 3.24569 1.23582 0
M  V30 115 C 9.5267 4.23333 0.630323 0
M  V30 116 C 8.8527 5.0448 1.77211 0
M  V30 117 C 10.1527 5.20704 -0.407974 0
M  V30 118 H 11.8467 2.95024 -0.510045 0
M  V30 119 H 9.3927 1.4187 -0.246731 0
M  V30 120 H 11.3457 3.8272 1.76362 0
M  V30 121 H 10.0697 2.60236 1.97344 0
M  V30 122 H 8.7287 3.6639 0.123922 0
M  V30 123 H 8.3767 4.36561 2.49847 0
M  V30 124 H 8.0767 5.71339 1.37281 0
M  V30 125 H 9.6007 5.65487 2.3034 0
M  V30 126 H 11.0147 5.7329 0.033305 0
M  V30 127 H 9.4117 5.95699 -0.725486 0
M  V30 128 H 10.4817 4.66917 -1.30828 0
M  V30 129 N 11.8248 0.280983 1.55075 0
M  V30 130 C 13.0718 -0.334115 1.99725 0
M  V30 131 C 13.3998 -1.5542 1.1694 0
M  V30 132 O 12.6548 -1.94361 0.228531 0
M  V30 133 C 12.9538 -0.754656 3.49342 0
M  V30 134 C 12.6198 0.361445 4.49449 0
M  V30 135 C 11.2818 0.667893 4.76542 0
M  V30 136 C 13.6338 1.11322 5.09173 0
M  V30 137 C 10.9618 1.7296 5.60626 0
M  V30 138 C 13.3138 2.1647 5.9441 0
M  V30 139 C 11.9778 2.47742 6.19822 0
M  V30 140 H 11.2478 -0.122261 0.730844 0
M  V30 141 H 13.8948 0.395917 1.87363 0
M  V30 142 H 12.1998 -1.56446 3.5921 0
M  V30 143 H 13.8968 -1.24142 3.813 0
M  V30 144 H 10.4868 0.112481 4.28452 0
M  V30 145 H 14.6708 0.88973 4.8826 0
M  V30 146 H 9.9268 1.97684 5.78559 0
M  V30 147 H 14.1008 2.75193 6.3972 0
M  V30 148 H 11.7278 3.30145 6.84769 0
M  V30 149 N 13.3029 -1.57598 0.00835791 0
M  V30 150 C 14.5329 -1.94931 -0.684496 0
M  V30 151 C 14.9409 -0.882233 -1.67372 0
M  V30 152 O 14.2839 0.146621 -1.83114 0
M  V30 153 C 14.3459 -3.283 -1.4649 0
M  V30 154 C 14.0099 -4.52548 -0.63634 0
M  V30 155 C 15.0069 -5.19839 0.0795586 0
M  V30 156 C 12.6919 -4.98942 -0.579849 0
M  V30 157 C 14.6859 -6.3183 0.840843 0
M  V30 158 C 12.3729 -6.10819 0.185155 0
M  V30 159 C 13.3709 -6.77121 0.894227 0
M  V30 160 O 13.0589 -7.86853 1.64673 0
M  V30 161 H 12.7909 -0.647249 -0.19505 0
M  V30 162 H 15.3449 -2.05318 0.0581272 0
M  V30 163 H 13.5749 -3.14345 -2.2522 0
M  V30 164 H 15.2639 -3.50685 -2.04389 0
M  V30 165 H 16.0299 -4.84979 0.0451202 0
M  V30 166 H 11.9089 -4.47155 -1.1213 0
M  V30 167 H 15.4529 -6.83513 1.39483 0
M  V30 168 H 11.3499 -6.4512 0.221384 0
M  V30 169 H 12.1179 -8.03412 1.56432 0
M  V30 170 N 14.781 0.264519 -1.55364 0
M  V30 171 C 16.027 0.99646 -1.76631 0
M  V30 172 C 16.36 1.85632 -0.570478 0
M  V30 173 O 15.635 1.89647 0.43175 0
M  V30 174 C 15.918 1.87187 -3.07625 0
M  V30 175 C 15.771 1.04138 -4.37579 0
M  V30 176 C 17.09 2.85749 -3.34717 0
M  V30 177 H 14.209 0.360841 -0.642622 0
M  V30 178 H 16.851 0.268218 -1.88097 0
M  V30 179 H 15.001 2.49279 -2.9798 0
M  V30 180 H 16.673 0.440517 -4.59192 0
M  V30 181 H 14.916 0.345115 -4.32425 0
M  V30 182 H 15.587 1.68729 -5.2558 0
M  V30 183 H 18.063 2.33793 -3.4421 0
M  V30 184 H 16.939 3.44136 -4.27623 0
M  V30 185 H 17.2 3.61311 -2.54768 0
M  V30 186 N 16.2591 1.48442 0.529413 0
M  V30 187 C 17.2071 1.63452 1.65487 0
M  V30 188 C 18.2011 0.500955 1.61823 0
M  V30 189 O 19.4071 0.679695 1.66674 0
M  V30 190 H 15.7821 0.514905 0.548066 0
M  V30 191 H 17.7531 2.57975 1.49971 0
M  V30 192 C 16.5021 1.69196 3.03756 0
M  V30 193 H 15.8251 2.55784 3.07269 0
M  V30 194 H 17.2651 1.83743 3.82119 0
M  V30 195 C 15.7241 0.430765 3.34135 0
M  V30 196 O 16.2541 -0.4561 3.99102 0
M  V30 197 N 14.4601 0.302293 2.89023 0
M  V30 198 H 14.0071 1.02496 2.36331 0
M  V30 199 H 13.9651 -0.540546 3.09718 0
M  V30 200 N 17.7372 -0.778329 1.37039 0
M  V30 201 C 18.9852 -1.53361 1.31623 0
M  V30 202 C 19.3062 -1.94739 -0.100831 0
M  V30 203 O 18.5762 -1.65797 -1.04347 0
M  V30 204 H 17.1562 -0.568794 0.484234 0
M  V30 205 H 19.8182 -0.926742 1.71457 0
M  V30 206 H 18.9142 -2.43606 1.95096 0
M  V30 207 N 19.2153 -1.21501 -1.00376 0
M  V30 208 C 20.6313 -0.972629 -1.26539 0
M  V30 209 C 20.8313 0.340257 -1.98606 0
M  V30 210 O 19.8873 1.06561 -2.28913 0
M  V30 211 C 21.2003 -2.16404 -2.08781 0
M  V30 212 C 22.7483 -2.20643 -2.22004 0
M  V30 213 C 23.2233 -3.39306 -3.07629 0
M  V30 214 N 24.7143 -3.39401 -3.15217 0
M  V30 215 C 25.4493 -4.27867 -3.81729 0
M  V30 216 N 24.9453 -5.26533 -4.5026 0
M  V30 217 N 26.7383 -4.15672 -3.78382 0
M  V30 218 H 18.8893 -2.05929 -0.520281 0
M  V30 219 H 21.1523 -0.901803 -0.292328 0
M  V30 220 H 20.8583 -3.11554 -1.63178 0
M  V30 221 H 20.7323 -2.15567 -3.09533 0
M  V30 222 H 23.1193 -1.26048 -2.66825 0
M  V30 223 H 23.2003 -2.25523 -1.20718 0
M  V30 224 H 22.8443 -4.34195 -2.63509 0
M  V30 225 H 22.7743 -3.31665 -4.09031 0
M  V30 226 H 25.2653 -2.67997 -2.66432 0
M  V30 227 H 25.5783 -5.90337 -4.98721 0
M  V30 228 H 23.9233 -5.30457 -4.49044 0
M  V30 229 H 27.1143 -3.3785 -3.23998 0
M  V30 230 H 27.2873 -4.84825 -4.2994 0
M  V30 231 N 20.6934 1.19889 -1.02296 0
M  V30 232 C 21.6404 2.22901 -0.598651 0
M  V30 233 C 22.6104 1.61588 0.384521 0
M  V30 234 O 23.7954 1.88697 0.282522 0
M  V30 235 C 20.9354 3.45063 0.0504476 0
M  V30 236 C 20.0484 4.20783 -0.978053 0
M  V30 237 C 19.1834 5.30356 -0.299338 0
M  V30 238 C 18.2224 5.97826 -1.31416 0
M  V30 239 N 17.3594 6.98975 -0.661667 0
M  V30 240 H 22.1994 2.58554 -1.48169 0
M  V30 241 H 19.7364 1.27039 -0.741584 0
M  V30 242 H 21.6944 4.14831 0.443971 0
M  V30 243 H 20.3244 3.10084 0.897097 0
M  V30 244 H 19.3764 3.50018 -1.48969 0
M  V30 245 H 20.6884 4.67109 -1.74958 0
M  V30 246 H 19.8424 6.06516 0.149347 0
M  V30 247 H 18.5814 4.85084 0.504445 0
M  V30 248 H 17.5864 5.20422 -1.77317 0
M  V30 249 H 18.8114 6.45183 -2.11933 0
M  V30 250 H 16.7574 6.55886 0.122132 0
M  V30 251 H 16.6744 7.43461 -1.37117 0
M  V30 252 H 17.9424 7.7914 -0.236785 0
M  V30 253 N 22.1715 0.800033 1.35784 0
M  V30 254 C 23.4175 0.377901 1.99248 0
M  V30 255 C 23.7505 -1.05052 1.63333 0
M  V30 256 O 23.0255 -1.72768 0.893385 0
M  V30 257 C 23.3085 0.553922 3.55814 0
M  V30 258 C 23.1615 2.0268 4.01548 0
M  V30 259 C 24.4805 -0.0244802 4.40093 0
M  V30 260 H 21.5995 0.138782 0.723815 0
M  V30 261 H 24.2415 1.00835 1.61035 0
M  V30 262 H 22.3915 0.0172398 3.88496 0
M  V30 263 H 24.0635 2.62536 3.79305 0
M  V30 264 H 22.3065 2.5256 3.52698 0
M  V30 265 H 22.9775 2.10087 5.10458 0
M  V30 266 H 25.4535 0.433775 4.13833 0
M  V30 267 H 24.3295 0.128637 5.48749 0
M  V30 268 H 24.5905 -1.11758 4.27741 0
M  V30 269 N 23.6496 -1.47581 0.552962 0
M  V30 270 C 24.8986 -2.01684 0.0251995 0
M  V30 271 C 25.2116 -1.43317 -1.33115 0
M  V30 272 O 26.4176 -1.89057 -1.94858 0
M  V30 273 C 24.8736 -3.599 -0.00542052 0
M  V30 274 C 24.4816 -4.27257 1.34742 0
M  V30 275 C 26.2256 -4.21768 -0.4808 0
M  V30 276 C 24.1326 -5.77467 1.27614 0
M  V30 277 H 23.0626 -0.753979 0.00565033 0
M  V30 278 H 25.7136 -1.69616 0.70018 0
M  V30 279 H 24.0956 -3.88911 -0.745961 0
M  V30 280 H 25.2696 -4.09893 2.10534 0
M  V30 281 H 23.5846 -3.77358 1.76039 0
M  V30 282 H 26.1816 -5.31838 -0.55246 0
M  V30 283 H 26.5246 -3.88651 -1.49184 0
M  V30 284 H 27.0576 -3.97273 0.204752 0
M  V30 285 H 23.7966 -6.15196 2.26304 0
M  V30 286 H 23.3166 -5.9718 0.55996 0
M  V30 287 H 24.9956 -6.3959 0.976421 0
M  V30 288 N 25.1277 -0.289203 -1.54924 0
M  V30 289 C 26.0377 0.601863 -2.26748 0
M  V30 290 C 27.0537 1.15834 -1.2984 0
M  V30 291 O 28.2297 1.18564 -1.62802 0
M  V30 292 C 25.2947 1.76299 -2.98529 0
M  V30 293 C 24.3557 1.24178 -4.10948 0
M  V30 294 C 23.5887 2.34757 -4.79296 0
M  V30 295 O 23.8117 3.54411 -4.46933 0
M  V30 296 O 22.7457 2.02115 -5.66951 0
M  V30 297 H 26.5717 0.0195879 -3.03694 0
M  V30 298 H 24.1567 -0.0560868 -1.49295 0
M  V30 299 H 26.0387 2.43973 -3.43592 0
M  V30 300 H 24.7137 2.33209 -2.24488 0
M  V30 301 H 23.6207 0.531104 -3.70311 0
M  V30 302 H 24.9537 0.718252 -4.86931 0
M  V30 303 N 26.6058 1.57591 -0.0167156 0
M  V30 304 C 27.5528 2.09462 0.969251 0
M  V30 305 C 28.5228 0.99381 1.33089 0
M  V30 306 O 29.7078 1.26726 1.42636 0
M  V30 307 C 26.8478 2.61622 2.25051 0
M  V30 308 C 25.9608 3.85666 1.94642 0
M  V30 309 C 25.0958 4.26266 3.16972 0
M  V30 310 C 24.1348 5.43101 2.82326 0
M  V30 311 N 23.2718 5.78915 3.97243 0
M  V30 312 H 28.1118 2.93428 0.519997 0
M  V30 313 H 25.6488 1.45044 0.245087 0
M  V30 314 H 27.6068 2.89949 2.99976 0
M  V30 315 H 26.2368 1.80505 2.67615 0
M  V30 316 H 25.2888 3.64145 1.10013 0
M  V30 317 H 26.6008 4.70678 1.65117 0
M  V30 318 H 25.7548 4.55963 4.00228 0
M  V30 319 H 24.4938 3.39996 3.49648 0
M  V30 320 H 23.4988 5.1311 1.97479 0
M  V30 321 H 24.7238 6.3106 2.50879 0
M  V30 322 H 22.6698 4.95602 4.29785 0
M  V30 323 H 22.5868 6.58539 3.71299 0
M  V30 324 H 23.8548 6.13212 4.81239 0
M  V30 325 N 28.0839 -0.256276 1.55502 0
M  V30 326 C 29.0319 -1.33694 1.90338 0
M  V30 327 C 30.0259 -1.50299 0.781441 0
M  V30 328 O 31.2319 -1.51885 0.965966 0
M  V30 329 H 27.6069 -0.447483 0.60437 0
M  V30 330 H 29.5779 -1.01574 2.8058 0
M  V30 331 C 28.3269 -2.68724 2.20642 0
M  V30 332 H 27.6499 -2.56743 3.06469 0
M  V30 333 H 29.0899 -3.43237 2.48926 0
M  V30 334 C 27.5489 -3.21101 1.01959 0
M  V30 335 O 28.0789 -4.0084 0.262762 0
M  V30 336 N 26.2849 -2.79003 0.812746 0
M  V30 337 H 25.8319 -2.14271 1.42989 0
M  V30 338 H 25.7899 -3.14393 0.0203076 0
M  V30 339 N 29.562 -1.4872 -0.521534 0
M  V30 340 C 30.808 -1.574 -1.27879 0
M  V30 341 C 31.141 -0.250817 -1.92573 0
M  V30 342 O 30.416 0.743934 -1.79711 0
M  V30 343 C 30.699 -2.71843 -2.36164 0
M  V30 344 C 30.552 -4.13893 -1.76105 0
M  V30 345 C 31.871 -2.82008 -3.37875 0
M  V30 346 H 28.99 -0.572941 -0.463581 0
M  V30 347 H 31.632 -1.80927 -0.580119 0
M  V30 348 H 29.782 -2.51914 -2.95756 0
M  V30 349 H 31.454 -4.45284 -1.20499 0
M  V30 350 H 29.697 -4.20498 -1.06601 0
M  V30 351 H 30.368 -4.89804 -2.5455 0
M  V30 352 H 32.844 -3.00086 -2.88249 0
M  V30 353 H 31.72 -3.63796 -4.11028 0
M  V30 354 H 31.981 -1.90511 -3.98946 0
M  V30 355 N 31.0401 0.771051 -1.3745 0
M  V30 356 C 32.3171 1.519 -1.23231 0
M  V30 357 C 32.6971 2.10383 0.173809 0
M  V30 358 O 32.0451 1.95583 1.18151 0
M  V30 359 C 32.2551 2.59933 -2.32886 0
M  V30 360 C 33.6031 3.27316 -2.70461 0
M  V30 361 O 34.6271 2.70228 -2.32068 0
M  V30 362 O 33.4861 4.30531 -3.36608 0
M  V30 363 H 30.5801 0.672803 -0.480901 0
M  V30 364 H 33.1261 0.807957 -1.49232 0
M  V30 365 H 31.8981 2.14842 -3.27045 0
M  V30 366 H 31.5211 3.38637 -2.08353 0
M  V30 367 N 32.5182 1.22032 0.997298 0
M  V30 368 C 33.9292 1.0397 1.55071 0
M  V30 369 C 34.2802 -0.398192 1.92117 0
M  V30 370 O 33.4052 -1.28254 1.74298 0
M  V30 371 C 34.0002 1.88109 2.81781 0
M  V30 372 C 32.5592 1.74357 3.33581 0
M  V30 373 C 31.7062 1.84846 2.06706 0
M  V30 374 H 34.6572 1.35941 0.818883 0
M  V30 375 H 34.6782 1.39589 3.53971 0
M  V30 376 H 34.1902 2.92754 2.54787 0
M  V30 377 H 32.2912 0.72427 3.65493 0
M  V30 378 H 32.4042 2.56772 4.04481 0
M  V30 379 H 30.7682 1.28238 2.20062 0
M  V30 380 H 31.5512 2.91014 1.82114 0
M  V30 381 N 33.9963 -1.19345 1.0293 0
M  V30 382 C 34.9063 -2.26245 0.620515 0
M  V30 383 C 35.9223 -1.70486 -0.347928 0
M  V30 384 O 37.0983 -2.00347 -0.205704 0
M  V30 385 C 34.1633 -3.46693 -0.0218957 0
M  V30 386 C 33.2243 -4.17632 0.994102 0
M  V30 387 C 32.4573 -5.32329 0.382253 0
M  V30 388 O 32.6803 -5.64552 -0.814676 0
M  V30 389 O 31.6143 -5.91664 1.10531 0
M  V30 390 H 35.4403 -2.63453 1.51083 0
M  V30 391 H 33.0253 -1.26207 0.799513 0
M  V30 392 H 34.9073 -4.19683 -0.380072 0
M  V30 393 H 33.5823 -3.11333 -0.886209 0
M  V30 394 H 32.4893 -3.4676 1.40387 0
M  V30 395 H 33.8223 -4.56964 1.8288 0
M  V30 396 N 35.4744 -0.807222 -1.35358 0
M  V30 397 C 36.7024 -0.400377 -2.02989 0
M  V30 398 C 37.1174 0.988859 -1.60832 0
M  V30 399 O 36.4744 1.63729 -0.806175 0
M  V30 400 C 36.5254 -0.474867 -3.58368 0
M  V30 401 O 36.2464 -1.80933 -3.98992 0
M  V30 402 C 37.7474 -0.0609112 -4.43258 0
M  V30 403 H 34.9674 -0.162587 -0.651004 0
M  V30 404 H 37.5114 -1.09102 -1.72965 0
M  V30 405 H 35.6664 0.167534 -3.87038 0
M  V30 406 H 36.0804 -1.77256 -4.9364 0
M  V30 407 H 37.5544 -0.164145 -5.51756 0
M  V30 408 H 38.0314 0.993831 -4.27808 0
M  V30 409 H 38.6374 -0.676492 -4.19885 0
M  V30 410 N 36.9525 1.47285 -0.560781 0
M  V30 411 C 37.8855 2.27009 0.232821 0
M  V30 412 C 38.8635 1.34273 0.917039 0
M  V30 413 O 40.0475 1.63659 0.935315 0
M  V30 414 C 37.1745 3.11406 1.33206 0
M  V30 415 C 36.2205 4.19746 0.756019 0
M  V30 416 S 37.0535 5.34003 -0.400165 0
M  V30 417 C 38.2095 6.21964 0.700805 0
M  V30 418 H 38.4425 2.93971 -0.443683 0
M  V30 419 H 35.9755 1.50446 -0.347181 0
M  V30 420 H 37.9335 3.60601 1.96156 0
M  V30 421 H 36.5945 2.438 1.98041 0
M  V30 422 H 35.7875 4.78541 1.5816 0
M  V30 423 H 35.3895 3.73451 0.202619 0
M  V30 424 H 37.6815 6.58529 1.59202 0
M  V30 425 H 38.6245 7.07941 0.150126 0
M  V30 426 H 39.0325 5.5566 0.995083 0
M  V30 427 N 38.4306 0.297415 1.54768 0
M  V30 428 C 39.3606 -0.573494 2.26348 0
M  V30 429 C 40.3416 -1.14085 1.26169 0
M  V30 430 O 41.5266 -1.17086 1.54934 0
M  V30 431 C 38.6566 -1.74716 3.00153 0
M  V30 432 C 37.6106 -1.31032 4.07449 0
M  V30 433 C 36.9366 -2.56887 4.68949 0
M  V30 434 C 38.2366 -0.444183 5.20408 0
M  V30 435 H 39.9306 0.0235131 2.99391 0
M  V30 436 H 37.4766 0.0127488 1.43994 0
M  V30 437 H 39.4296 -2.3625 3.48947 0
M  V30 438 H 38.1536 -2.37035 2.24682 0
M  V30 439 H 36.8126 -0.718066 3.59499 0
M  V30 440 H 36.4606 -3.17512 3.90122 0
M  V30 441 H 36.1606 -2.2836 5.41411 0
M  V30 442 H 37.6846 -3.19229 5.20505 0
M  V30 443 H 39.0986 -0.9651 5.65118 0
M  V30 444 H 37.4956 -0.252846 5.99567 0
M  V30 445 H 38.5656 0.531609 4.81977 0
M  V30 446 N 39.9087 -1.5758 0.0250728 0
M  V30 447 C 40.8387 -2.13007 -0.956575 0
M  V30 448 C 41.8197 -1.0452 -1.342 0
M  V30 449 O 43.0047 -1.32332 -1.42133 0
M  V30 450 C 40.1347 -2.65386 -2.24026 0
M  V30 451 C 39.0887 -3.78623 -1.99571 0
M  V30 452 C 38.4147 -4.17414 -3.3417 0
M  V30 453 C 39.7147 -5.04867 -1.33814 0
M  V30 454 H 41.4087 -2.9528 -0.494991 0
M  V30 455 H 38.9547 -1.42042 -0.236651 0
M  V30 456 H 40.9077 -3.02794 -2.93076 0
M  V30 457 H 39.6317 -1.80268 -2.72343 0
M  V30 458 H 38.2907 -3.41646 -1.32941 0
M  V30 459 H 37.9387 -3.29284 -3.80238 0
M  V30 460 H 37.6387 -4.93719 -3.18615 0
M  V30 461 H 39.1627 -4.57402 -4.04495 0
M  V30 462 H 40.5767 -5.39888 -1.92857 0
M  V30 463 H 38.9737 -5.86144 -1.28669 0
M  V30 464 H 40.0437 -4.83904 -0.310561 0
M  V30 465 N 41.3868 0.248026 -1.55636 0
M  V30 466 C 42.7978 0.817177 -1.67866 0
M  V30 467 C 43.1488 1.86069 -0.622322 0
M  V30 468 O 42.2738 2.15157 0.231618 0
M  V30 469 C 42.8688 1.489 -3.04326 0
M  V30 470 C 41.4278 2.00587 -3.185 0
M  V30 471 C 40.5748 0.856573 -2.63739 0
M  V30 472 H 43.5258 0.0238579 -1.58682 0
M  V30 473 H 43.5468 2.35698 -2.98708 0
M  V30 474 H 43.0588 0.729279 -3.81186 0
M  V30 475 H 41.1598 2.79443 -2.4646 0
M  V30 476 H 41.2728 2.20402 -4.25393 0
M  V30 477 H 39.6368 1.25678 -2.21534 0
M  V30 478 H 40.4198 0.109953 -3.43124 0
M  V30 479 N 42.8649 1.48995 0.513639 0
M  V30 480 C 44.0949 1.61297 1.291 0
M  V30 481 C 44.5029 0.278656 1.87137 0
M  V30 482 O 43.8459 -0.744325 1.67945 0
M  V30 483 C 43.9079 2.61326 2.46879 0
M  V30 484 C 43.5719 4.05993 2.09807 0
M  V30 485 C 44.5689 4.93183 1.64519 0
M  V30 486 C 42.2539 4.51642 2.19829 0
M  V30 487 C 44.2479 6.24056 1.2974 0
M  V30 488 C 41.9349 5.82532 1.84662 0
M  V30 489 C 42.9329 6.68562 1.3969 0
M  V30 490 O 42.6209 7.97014 1.04992 0
M  V30 491 H 42.3529 0.546236 0.39825 0
M  V30 492 H 44.9069 1.95673 0.62459 0
M  V30 493 H 43.1369 2.22104 3.16554 0
M  V30 494 H 44.8259 2.6329 3.08923 0
M  V30 495 H 45.5919 4.59147 1.56233 0
M  V30 496 H 41.4709 3.84855 2.53786 0
M  V30 497 H 45.0149 6.91161 0.945659 0
M  V30 498 H 40.9119 6.16099 1.92594 0
M  V30 499 H 41.6799 8.09913 1.18249 0
M  V30 500 N 44.343 -0.763751 1.37857 0
M  V30 501 C 45.273 -1.89103 1.36975 0
M  V30 502 C 46.254 -1.68439 0.237152 0
M  V30 503 O 47.439 -1.8918 0.438713 0
M  V30 504 C 44.569 -3.26496 1.18395 0
M  V30 505 C 43.523 -3.61741 2.28751 0
M  V30 506 C 42.849 -4.97762 1.95286 0
M  V30 507 C 44.149 -3.67665 3.70972 0
M  V30 508 H 45.843 -1.90099 2.31307 0
M  V30 509 H 43.389 -0.91319 1.11341 0
M  V30 510 H 45.342 -4.05003 1.16406 0
M  V30 511 H 44.066 -3.25955 0.205215 0
M  V30 512 H 42.725 -2.85547 2.29909 0
M  V30 513 H 42.373 -4.93769 0.959221 0
M  V30 514 H 42.073 -5.22313 2.69189 0
M  V30 515 H 43.597 -5.7866 1.94898 0
M  V30 516 H 45.011 -4.36307 3.719 0
M  V30 517 H 43.408 -4.03718 4.43995 0
M  V30 518 H 44.478 -2.68134 4.0402 0
M  V30 519 N 45.8211 -1.22559 -0.990812 0
M  V30 520 C 47.2371 -0.985996 -1.255 0
M  V30 521 C 47.4371 0.319173 -1.98956 0
M  V30 522 O 46.4931 1.04127 -2.3003 0
M  V30 523 C 47.8061 -2.18607 -2.06474 0
M  V30 524 C 49.3541 -2.22985 -2.19651 0
M  V30 525 C 49.8291 -3.4255 -3.04012 0
M  V30 526 N 51.3201 -3.42725 -3.11599 0
M  V30 527 C 52.0551 -4.31892 -3.7717 0
M  V30 528 N 51.5511 -5.31279 -4.44651 0
M  V30 529 N 53.3441 -4.19662 -3.73952 0
M  V30 530 H 45.4951 -2.06469 -0.49841 0
M  V30 531 H 47.7581 -0.904853 -0.282747 0
M  V30 532 H 47.4641 -3.13267 -1.59865 0
M  V30 533 H 47.3381 -2.18838 -3.07229 0
M  V30 534 H 49.7251 -1.28871 -2.65474 0
M  V30 535 H 49.8061 -2.26791 -1.18319 0
M  V30 536 H 49.4501 -4.36965 -2.58889 0
M  V30 537 H 49.3801 -3.35984 -4.0549 0
M  V30 538 H 51.8711 -2.70807 -2.63575 0
M  V30 539 H 52.1841 -5.95593 -4.92431 0
M  V30 540 H 50.5291 -5.3519 -4.43392 0
M  V30 541 H 53.7201 -3.41268 -3.20396 0
M  V30 542 H 53.8931 -4.89358 -4.24774 0
M  V30 543 N 47.2992 1.18797 -1.03562 0
M  V30 544 C 48.2462 2.22253 -0.622259 0
M  V30 545 C 49.2162 1.61987 0.36736 0
M  V30 546 O 50.4012 1.88986 0.262492 0
M  V30 547 C 47.5412 3.45097 0.0138462 0
M  V30 548 C 46.6542 4.19722 -1.02263 0
M  V30 549 C 45.7892 5.30009 -0.355573 0
M  V30 550 C 44.8282 5.96399 -1.37749 0
M  V30 551 N 43.9652 6.98234 -0.735766 0
M  V30 552 H 48.8052 2.56968 -1.50903 0
M  V30 553 H 46.3422 1.26245 -0.755017 0
M  V30 554 H 48.3002 4.15279 0.399948 0
M  V30 555 H 46.9302 3.11018 0.864158 0
M  V30 556 H 45.9822 3.48418 -1.52673 0
M  V30 557 H 47.2942 4.65227 -1.79903 0
M  V30 558 H 46.4482 6.0664 0.0850095 0
M  V30 559 H 45.1872 4.85592 0.452967 0
M  V30 560 H 44.1922 5.18512 -1.82826 0
M  V30 561 H 45.4172 6.42899 -2.18764 0
M  V30 562 H 43.3632 6.55979 0.0525597 0
M  V30 563 H 43.2802 7.41965 -1.44995 0
M  V30 564 H 44.5482 7.78845 -0.31941 0
M  V30 565 N 48.7773 0.814389 1.34928 0
M  V30 566 C 49.7243 0.22822 2.29669 0
M  V30 567 C 50.6943 -0.642164 1.53184 0
M  V30 568 O 51.8793 -0.585605 1.81591 0
M  V30 569 C 49.0193 -0.61089 3.3965 0
M  V30 570 C 48.1323 0.280792 4.31086 0
M  V30 571 C 47.2673 -0.567067 5.28165 0
M  V30 572 C 46.3063 0.324531 6.11239 0
M  V30 573 N 45.4433 -0.483756 7.00431 0
M  V30 574 H 50.2833 1.04153 2.79206 0
M  V30 575 H 47.8203 0.525133 1.37407 0
M  V30 576 H 49.7783 -1.11263 4.0209 0
M  V30 577 H 48.4083 -1.38939 2.91369 0
M  V30 578 H 47.4603 0.900688 3.69583 0
M  V30 579 H 48.7723 0.966723 4.89342 0
M  V30 580 H 47.9263 -1.13363 5.96015 0
M  V30 581 H 46.6653 -1.28654 4.70425 0
M  V30 582 H 45.6703 0.903298 5.42329 0
M  V30 583 H 46.8953 1.04198 6.71059 0
M  V30 584 H 44.8413 -1.18706 6.45171 0
M  V30 585 H 44.7583 0.143965 7.55863 0
M  V30 586 H 46.0263 -1.03334 7.7262 0
M  V30 587 N 50.2554 -1.46986 0.568584 0
M  V30 588 C 51.1854 -2.32946 -0.160753 0
M  V30 589 C 52.1664 -1.44487 -0.897631 0
M  V30 590 O 53.3514 -1.73327 -0.875867 0
M  V30 591 C 50.4814 -3.26494 -1.18403 0
M  V30 592 C 49.4354 -4.24282 -0.562895 0
M  V30 593 C 48.7614 -5.07236 -1.69163 0
M  V30 594 C 50.0614 -5.19989 0.490761 0
M  V30 595 H 51.7554 -2.94175 0.556916 0
M  V30 596 H 49.3014 -1.4146 0.26927 0
M  V30 597 H 51.2544 -3.85477 -1.70251 0
M  V30 598 H 49.9784 -2.63343 -1.93179 0
M  V30 599 H 48.6374 -3.66541 -0.0656164 0
M  V30 600 H 48.2854 -4.4048 -2.42871 0
M  V30 601 H 47.9854 -5.7345 -1.28174 0
M  V30 602 H 49.5094 -5.6908 -2.21314 0
M  V30 603 H 50.9234 -5.73271 0.0579047 0
M  V30 604 H 49.3204 -5.94469 0.820165 0
M  V30 605 H 50.3904 -4.64777 1.3824 0
M  V30 606 N 51.7335 -0.305618 -1.54608 0
M  V30 607 C 53.1495 0.0476228 -1.59529 0
M  V30 608 C 53.3495 1.52025 -1.32252 0
M  V30 609 O 52.4055 2.27368 -1.09818 0
M  V30 610 C 53.7185 -0.354471 -2.98603 0
M  V30 611 C 55.2665 -0.303622 -3.11524 0
M  V30 612 C 55.7415 -0.680608 -4.52915 0
M  V30 613 N 57.2325 -0.63332 -4.5885 0
M  V30 614 C 57.9675 -0.897432 -5.66334 0
M  V30 615 N 57.4635 -1.22775 -6.81834 0
M  V30 616 N 59.2565 -0.824186 -5.56025 0
M  V30 617 H 51.4075 -1.2653 -1.70599 0
M  V30 618 H 53.6705 -0.513291 -0.797017 0
M  V30 619 H 53.3765 -1.3798 -3.23503 0
M  V30 620 H 53.2505 0.289568 -3.76087 0
M  V30 621 H 55.6375 0.712472 -2.8637 0
M  V30 622 H 55.7185 -0.982348 -2.36185 0
M  V30 623 H 55.3625 -1.69453 -4.78799 0
M  V30 624 H 55.2925 0.0202385 -5.26596 0
M  V30 625 H 57.7835 -0.389138 -3.75891 0
M  V30 626 H 58.0965 -1.41513 -7.59733 0
M  V30 627 H 56.4415 -1.26583 -6.83375 0
M  V30 628 H 59.6325 -0.565748 -4.64669 0
M  V30 629 H 59.8055 -1.03338 -6.39707 0
M  V30 630 N 53.2116 1.57565 -0.0334293 0
M  V30 631 C 54.1416 2.13511 0.945265 0
M  V30 632 C 55.1226 1.05231 1.33643 0
M  V30 633 O 56.3076 1.33084 1.41429 0
M  V30 634 C 53.4376 2.6657 2.22616 0
M  V30 635 C 52.3916 3.79676 1.97561 0
M  V30 636 C 51.7176 4.1918 3.31952 0
M  V30 637 C 53.0176 5.0557 1.31135 0
M  V30 638 H 54.7116 2.95538 0.479325 0
M  V30 639 H 52.2576 1.42166 0.229115 0
M  V30 640 H 54.2106 3.04344 2.91466 0
M  V30 641 H 52.9346 1.8171 2.71384 0
M  V30 642 H 51.5936 3.42347 1.31127 0
M  V30 643 H 51.2416 3.31296 3.78487 0
M  V30 644 H 50.9416 4.95402 3.15992 0
M  V30 645 H 52.4656 4.59541 4.02063 0
M  V30 646 H 53.8796 5.40903 1.89992 0
M  V30 647 H 52.2766 5.86818 1.25559 0
M  V30 648 H 53.3466 4.84062 0.284894 0
M  V30 649 N 54.6897 -0.239769 1.55765 0
M  V30 650 C 55.9177 -0.98417 1.81994 0
M  V30 651 C 56.3327 -1.7867 0.610124 0
M  V30 652 O 55.6897 -1.77571 -0.421271 0
M  V30 653 C 55.7407 -1.91635 3.06526 0
M  V30 654 O 55.4617 -1.14629 4.22838 0
M  V30 655 C 56.9627 -2.77616 3.45607 0
M  V30 656 H 54.1827 -0.28928 0.605441 0
M  V30 657 H 56.7267 -0.260499 2.02834 0
M  V30 658 H 54.8817 -2.5942 2.87715 0
M  V30 659 H 55.2957 -1.77745 4.93464 0
M  V30 660 H 56.7697 -3.38759 4.35828 0
M  V30 661 H 57.2467 -3.4909 2.6652 0
M  V30 662 H 57.8527 -2.15271 3.66795 0
M  V30 663 N 56.1678 -1.49265 -0.50573 0
M  V30 664 C 57.4158 -1.582 -1.25766 0
M  V30 665 C 57.7368 -0.268482 -1.93143 0
M  V30 666 O 57.0068 0.711833 -1.8251 0
M  V30 667 H 55.5868 -0.582873 -0.467191 0
M  V30 668 H 58.2488 -1.85865 -0.586525 0
M  V30 669 H 57.3448 -2.37563 -2.02412 0
M  V30 670 N 57.6459 0.756429 -1.3826 0
M  V30 671 C 58.8739 1.54565 -1.3754 0
M  V30 672 C 59.2889 1.88767 0.0355331 0
M  V30 673 O 58.6459 1.52572 1.0014 0
M  V30 674 C 58.6969 2.84654 -2.22833 0
M  V30 675 O 58.4179 2.51912 -3.5843 0
M  V30 676 C 59.9189 3.78807 -2.30261 0
M  V30 677 H 57.1389 0.478353 -0.470553 0
M  V30 678 H 59.6829 0.936381 -1.81803 0
M  V30 679 H 57.8379 3.41965 -1.8204 0
M  V30 680 H 58.2519 3.35325 -4.03308 0
M  V30 681 H 59.7259 4.67045 -2.94233 0
M  V30 682 H 60.2029 4.19038 -1.31545 0
M  V30 683 H 60.8089 3.2742 -2.71433 0
M  V30 684 N 59.124 1.23083 0.984299 0
M  V30 685 C 60.071 1.00854 2.07598 0
M  V30 686 C 61.041 -0.0726709 1.65941 0
M  V30 687 O 62.226 0.0786535 1.90638 0
M  V30 688 C 59.366 0.601645 3.39815 0
M  V30 689 C 58.479 1.75456 3.94765 0
M  V30 690 C 57.614 1.29482 5.15177 0
M  V30 691 C 56.653 2.41873 5.62284 0
M  V30 692 N 55.79 1.96885 6.73929 0
M  V30 693 H 60.63 1.943 2.25946 0
M  V30 694 H 58.167 0.968001 1.10762 0
M  V30 695 H 60.125 0.346854 4.15756 0
M  V30 696 H 58.755 -0.295803 3.21442 0
M  V30 697 H 57.807 2.12346 3.15616 0
M  V30 698 H 59.119 2.59965 4.25699 0
M  V30 699 H 58.273 0.997923 5.98437 0
M  V30 700 H 57.012 0.420046 4.85888 0
M  V30 701 H 56.017 2.72342 4.77608 0
M  V30 702 H 57.242 3.29881 5.93595 0
M  V30 703 H 55.188 1.11782 6.46406 0
M  V30 704 H 55.105 2.74956 7.04227 0
M  V30 705 H 56.373 1.70289 7.60672 0
M  V30 706 N 60.6021 -1.18246 1.0419 0
M  V30 707 C 61.8321 -1.91916 0.764961 0
M  V30 708 C 62.2401 -1.76485 -0.681898 0
M  V30 709 O 61.5831 -1.09275 -1.47664 0
M  V30 710 C 61.6451 -3.4373 1.05309 0
M  V30 711 C 61.3091 -3.8294 2.4941 0
M  V30 712 C 62.3061 -3.86621 3.47592 0
M  V30 713 C 59.9911 -4.142 2.84155 0
M  V30 714 C 61.9851 -4.21013 4.78568 0
M  V30 715 C 59.6721 -4.48262 4.15337 0
M  V30 716 C 60.6701 -4.51645 5.12353 0
M  V30 717 O 60.3581 -4.84911 6.41183 0
M  V30 718 H 60.0901 -0.61606 0.278292 0
M  V30 719 H 62.6441 -1.50947 1.39299 0
M  V30 720 H 60.8741 -3.84946 0.367933 0
M  V30 721 H 62.5631 -3.9865 0.763752 0
M  V30 722 H 63.3291 -3.62607 3.22089 0
M  V30 723 H 59.2081 -4.10743 2.09311 0
M  V30 724 H 62.7521 -4.23568 5.54289 0
M  V30 725 H 58.6491 -4.71737 4.40607 0
M  V30 726 H 59.4171 -5.02809 6.45852 0
M  V30 727 N 62.0802 -0.821533 -1.34494 0
M  V30 728 C 63.3282 -0.408139 -1.97936 0
M  V30 729 C 63.6492 1.03193 -1.65457 0
M  V30 730 O 62.9192 1.71622 -0.944595 0
M  V30 731 H 61.4992 -0.147928 -0.732206 0
M  V30 732 H 64.1612 -1.05067 -1.64155 0
M  V30 733 H 63.2572 -0.52601 -3.07635 0
M  V30 734 N 63.5583 1.46682 -0.576371 0
M  V30 735 C 64.7983 2.04306 -0.0621356 0
M  V30 736 C 65.1623 1.4389 1.2712 0
M  V30 737 O 66.3633 1.92675 1.87429 0
M  V30 738 C 64.6343 3.57399 0.00927922 0
M  V30 739 S 66.1933 4.36309 0.466859 0
M  V30 740 H 63.0113 0.710167 -0.0344016 0
M  V30 741 H 65.6133 1.79807 -0.767437 0
M  V30 742 H 64.3173 3.98889 -0.965178 0
M  V30 743 H 63.8483 3.86424 0.737547 0
M  V30 744 H 65.8633 4.6533 1.72287 0
M  V30 745 N 65.0364 0.313813 1.54444 0
M  V30 746 C 66.2844 -0.291099 1.99993 0
M  V30 747 C 66.6054 -1.53418 1.20366 0
M  V30 748 O 65.8754 -1.93544 0.302927 0
M  V30 749 H 64.4554 -0.110552 0.738774 0
M  V30 750 H 67.1174 0.428106 1.9014 0
M  V30 751 H 66.2134 -0.554268 3.07139 0
M  V30 752 N 66.5145 -1.57545 0.0417849 0
M  V30 753 C 67.7625 -1.91937 -0.632829 0
M  V30 754 C 68.0835 -0.919978 -1.71934 0
M  V30 755 O 67.3535 0.0366064 -1.95866 0
M  V30 756 H 65.9335 -0.708493 -0.236742 0
M  V30 757 H 68.5955 -1.9468 0.0925745 0
M  V30 758 H 67.6915 -2.92912 -1.07746 0
M  V30 759 N 67.9926 0.231505 -1.5589 0
M  V30 760 C 69.2406 0.955461 -1.78088 0
M  V30 761 C 69.5616 1.85262 -0.608533 0
M  V30 762 O 68.8316 1.92277 0.375035 0
M  V30 763 H 67.4116 0.355787 -0.656829 0
M  V30 764 H 70.0736 0.245751 -1.93344 0
M  V30 765 H 69.1696 1.56814 -2.69844 0
M  V30 766 N 69.4707 1.49531 0.497807 0
M  V30 767 C 70.7187 1.58865 1.24926 0
M  V30 768 C 71.0397 0.278721 1.92998 0
M  V30 769 O 70.3097 -0.702144 1.82885 0
M  V30 770 H 68.8897 0.585343 0.464094 0
M  V30 771 H 71.5517 1.86174 0.57666 0
M  V30 772 H 70.6477 2.38633 2.01149 0
M  V30 773 N 70.9488 -0.749086 1.3866 0
M  V30 774 C 72.1888 -1.52112 1.36534 0
M  V30 775 C 72.5528 -1.91951 -0.0432316 0
M  V30 776 O 73.7538 -2.68132 -0.189396 0
M  V30 777 C 72.0248 -2.73704 2.29828 0
M  V30 778 S 73.5838 -3.63519 2.45763 0
M  V30 779 H 70.4018 -0.520482 0.484375 0
M  V30 780 H 73.0038 -0.878963 1.74627 0
M  V30 781 H 71.7078 -2.42552 3.31054 0
M  V30 782 H 71.2388 -3.4286 1.929 0
M  V30 783 H 73.2538 -4.66712 1.68505 0
M  V30 784 N 72.4269 -1.23603 -0.977757 0
M  V30 785 C 73.6749 -1.06759 -1.71601 0
M  V30 786 C 73.9959 0.395929 -1.90938 0
M  V30 787 O 73.2659 1.28356 -1.47992 0
M  V30 788 H 71.8459 -0.392062 -0.635843 0
M  V30 789 H 74.5079 -1.55362 -1.1768 0
M  V30 790 H 73.6039 -1.55763 -2.70452 0
M  V30 791 N 73.905 1.17692 -1.04816 0
M  V30 792 C 74.868 2.19787 -0.650117 0
M  V30 793 C 75.868 1.58044 0.296427 0
M  V30 794 O 77.058 1.74012 0.0808097 0
M  V30 795 C 74.19 3.40869 0.0456987 0
M  V30 796 H 75.383 2.56516 -1.5537 0
M  V30 797 H 72.936 1.31708 -0.841594 0
M  V30 798 H 73.671 3.09681 0.962726 0
M  V30 799 H 73.456 3.86928 -0.634727 0
M  V30 800 H 74.946 4.16445 0.310432 0
M  V30 801 N 75.3831 0.828654 1.34056 0
M  V30 802 C 76.6231 0.425394 1.99924 0
M  V30 803 C 76.9871 -0.994294 1.64249 0
M  V30 804 O 78.1881 -1.50074 2.23005 0
M  V30 805 C 76.4591 0.628071 3.51838 0
M  V30 806 S 78.0181 0.318511 4.37642 0
M  V30 807 H 74.8361 0.160465 0.692656 0
M  V30 808 H 77.4381 1.07572 1.63244 0
M  V30 809 H 76.1421 1.66089 3.7529 0
M  V30 810 H 75.6731 -0.0367799 3.93383 0
M  V30 811 H 77.6881 -0.865632 4.88591 0
M  V30 812 N 76.8612 -1.46375 0.584142 0
M  V30 813 C 78.0892 -2.06761 0.0759296 0
M  V30 814 C 78.5042 -1.43266 -1.22965 0
M  V30 815 O 77.8612 -0.538458 -1.74376 0
M  V30 816 C 77.9122 -3.61375 -0.0950384 0
M  V30 817 O 77.6332 -4.22495 1.15887 0
M  V30 818 C 79.1342 -4.38693 -0.637434 0
M  V30 819 H 76.3542 -0.668479 0.0581075 0
M  V30 820 H 78.8982 -1.8798 0.805218 0
M  V30 821 H 77.0532 -3.79578 -0.774554 0
M  V30 822 H 77.4672 -5.15385 0.973598 0
M  V30 823 H 78.9412 -5.47464 -0.706237 0
M  V30 824 H 79.4182 -4.06836 -1.65472 0
M  V30 825 H 80.0242 -4.25299 0.00725967 0
M  V30 826 N 78.3393 -0.321999 -1.54275 0
M  V30 827 C 79.5853 0.281461 -2.00837 0
M  V30 828 C 79.9183 1.51909 -1.20985 0
M  V30 829 O 79.1933 1.923 -0.291733 0
M  V30 830 C 79.4763 0.617162 -3.54772 0
M  V30 831 C 79.3293 -0.631064 -4.45351 0
M  V30 832 C 80.6483 1.43542 -4.16033 0
M  V30 833 H 77.7673 0.100826 -0.730071 0
M  V30 834 H 80.4093 -0.438268 -1.84876 0
M  V30 835 H 78.5593 1.23034 -3.68504 0
M  V30 836 H 80.2313 -1.26934 -4.43492 0
M  V30 837 H 78.4743 -1.26025 -4.15091 0
M  V30 838 H 79.1453 -0.351735 -5.50878 0
M  V30 839 H 81.6213 0.917134 -4.05867 0
M  V30 840 H 80.4973 1.63907 -5.23856 0
M  V30 841 H 80.7583 2.43108 -3.69257 0
M  V30 842 N 79.8174 1.5752 -0.0501392 0
M  V30 843 C 80.7504 2.07026 0.959962 0
M  V30 844 C 81.7284 0.970539 1.30458 0
M  V30 845 O 82.9124 1.2424 1.41763 0
M  V30 846 C 80.0394 2.5099 2.27424 0
M  V30 847 C 79.0854 3.72188 2.08275 0
M  V30 848 S 79.9184 5.17888 1.36207 0
M  V30 849 C 81.0744 5.65165 2.6896 0
M  V30 850 H 81.3074 2.9238 0.538631 0
M  V30 851 H 78.8404 1.53547 0.162099 0
M  V30 852 H 80.7984 2.76982 3.02971 0
M  V30 853 H 79.4594 1.65944 2.66686 0
M  V30 854 H 78.6524 4.00866 3.05487 0
M  V30 855 H 78.2544 3.46457 1.40868 0
M  V30 856 H 80.5464 5.70687 3.65133 0
M  V30 857 H 81.4894 6.64394 2.4492 0
M  V30 858 H 81.8974 4.9289 2.75172 0
M  V30 859 N 81.2955 -0.223234 1.56011 0
M  V30 860 C 82.5445 -0.945912 1.78144 0
M  V30 861 C 82.8575 -1.85567 0.618396 0
M  V30 862 O 84.0635 -2.61688 0.723318 0
M  V30 863 C 82.5195 -1.73216 3.15475 0
M  V30 864 C 82.1275 -0.868619 4.39499 0
M  V30 865 C 83.8715 -2.44615 3.46935 0
M  V30 866 C 81.7785 -1.65212 5.67855 0
M  V30 867 H 80.7085 -0.356929 0.664167 0
M  V30 868 H 83.3595 -0.199845 1.82409 0
M  V30 869 H 81.7415 -2.52107 3.05382 0
M  V30 870 H 82.9155 -0.120366 4.60643 0
M  V30 871 H 81.2305 -0.26683 4.15544 0
M  V30 872 H 83.8275 -3.03732 4.40058 0
M  V30 873 H 84.1705 -3.17417 2.69355 0
M  V30 874 H 84.7035 -1.72715 3.58349 0
M  V30 875 H 81.4425 -0.967407 6.48322 0
M  V30 876 H 80.9625 -2.37503 5.50774 0
M  V30 877 H 82.6415 -2.21322 6.07968 0
M  V30 878 N 82.7736 -1.49793 -0.48987 0
M  V30 879 C 83.9986 -1.63836 -1.27172 0
M  V30 880 C 84.4236 -0.31402 -1.8546 0
M  V30 881 O 83.7816 0.719803 -1.66399 0
M  V30 882 C 83.8296 -2.71797 -2.36978 0
M  V30 883 O 82.9336 -2.31744 -3.41128 0
M  V30 884 H 82.2746 -0.547997 -0.37496 0
M  V30 885 H 84.8046 -1.96053 -0.585191 0
M  V30 886 H 84.8146 -2.94305 -2.82575 0
M  V30 887 H 83.4896 -3.67923 -1.93921 0
M  V30 888 H 82.0666 -2.1961 -3.01373 0
M  V30 889 N 84.2517 0.741722 -1.39055 0
M  V30 890 C 85.6677 1.04638 -1.20512 0
M  V30 891 C 85.8677 2.01405 -0.0620218 0
M  V30 892 O 84.9237 2.45547 0.588457 0
M  V30 893 C 86.2367 1.6151 -2.53643 0
M  V30 894 C 87.7847 1.73623 -2.6043 0
M  V30 895 C 88.2597 2.33906 -3.93767 0
M  V30 896 N 89.7507 2.41323 -3.9537 0
M  V30 897 C 90.4857 2.88888 -4.95309 0
M  V30 898 N 89.9817 3.36401 -6.05645 0
M  V30 899 N 91.7747 2.88037 -4.82692 0
M  V30 900 H 83.9257 0.0998155 -2.12165 0
M  V30 901 H 86.1887 0.106907 -0.941953 0
M  V30 902 H 85.8947 0.978739 -3.37807 0
M  V30 903 H 85.7687 2.60411 -2.72885 0
M  V30 904 H 88.1557 2.36384 -1.76655 0
M  V30 905 H 88.2367 0.733945 -2.45045 0
M  V30 906 H 87.8807 1.71776 -4.7797 0
M  V30 907 H 87.8107 3.34799 -4.06469 0
M  V30 908 H 90.3017 2.07734 -3.15682 0
M  V30 909 H 90.6147 3.71186 -6.77821 0
M  V30 910 H 88.9597 3.34427 -6.09248 0
M  V30 911 H 92.1507 2.50237 -3.95599 0
M  V30 912 H 92.3237 3.24792 -5.60726 0
M  V30 913 N 85.7298 1.2412 0.971189 0
M  V30 914 C 86.9598 1.10415 1.7462 0
M  V30 915 C 87.3678 -0.346462 1.86001 0
M  V30 916 O 86.7108 -1.25104 1.34517 0
M  V30 917 C 86.7728 1.66596 3.18568 0
M  V30 918 C 86.4368 3.15446 3.3067 0
M  V30 919 C 87.4338 4.12636 3.16271 0
M  V30 920 C 85.1188 3.55337 3.55022 0
M  V30 921 C 87.1128 5.47699 3.26044 0
M  V30 922 C 84.7998 4.90542 3.64434 0
M  V30 923 C 85.7978 5.86532 3.49956 0
M  V30 924 O 85.4858 7.19279 3.59017 0
M  V30 925 H 85.2178 0.386616 0.55453 0
M  V30 926 H 87.7718 1.64633 1.22821 0
M  V30 927 H 86.0018 1.06808 3.71657 0
M  V30 928 H 87.6908 1.48232 3.77865 0
M  V30 929 H 88.4568 3.8316 2.97344 0
M  V30 930 H 84.3358 2.8113 3.65359 0
M  V30 931 H 87.8798 6.22603 3.14661 0
M  V30 932 H 83.7768 5.19691 3.82873 0
M  V30 933 H 84.5448 7.27153 3.75754 0
M  V30 934 N 87.2079 -1.17134 1.05439 0
M  V30 935 C 88.1559 -2.23289 0.651511 0
M  V30 936 C 89.1499 -1.66186 -0.328411 0
M  V30 937 O 90.3559 -1.78949 -0.194206 0
M  V30 938 H 86.7309 -0.726938 0.192523 0
M  V30 939 H 88.7019 -2.54565 1.55689 0
M  V30 940 C 87.4509 -3.47671 0.0448436 0
M  V30 941 H 86.7739 -3.91918 0.78996 0
M  V30 942 H 88.2139 -4.2353 -0.19964 0
M  V30 943 C 86.6729 -3.14453 -1.20918 0
M  V30 944 O 87.2029 -3.29459 -2.29825 0
M  V30 945 N 85.4089 -2.68657 -1.10779 0
M  V30 946 H 84.9559 -2.56646 -0.221526 0
M  V30 947 H 84.9139 -2.46804 -1.9477 0
M  V30 948 N 88.686 -0.835752 -1.33615 0
M  V30 949 C 90.097 -0.487099 -1.80234 0
M  V30 950 C 90.448 0.993627 -1.69179 0
M  V30 951 O 89.573 1.77403 -1.23924 0
M  V30 952 C 90.168 -0.877385 -3.27242 0
M  V30 953 C 88.727 -0.580915 -3.7189 0
M  V30 954 C 87.874 -1.0874 -2.5509 0
M  V30 955 H 90.825 -1.02474 -1.2118 0
M  V30 956 H 90.846 -0.186195 -3.80044 0
M  V30 957 H 90.358 -1.95512 -3.35256 0
M  V30 958 H 88.459 0.486881 -3.69405 0
M  V30 959 H 88.572 -1.13396 -4.65487 0
M  V30 960 H 86.936 -0.508392 -2.49575 0
M  V30 961 H 87.719 -2.17184 -2.65868 0
M  V30 962 N 90.1641 1.46063 -0.591896 0
M  V30 963 C 91.4131 2.01547 -0.0786637 0
M  V30 964 C 91.7261 1.46796 1.29268 0
M  V30 965 O 92.9321 1.94157 1.89777 0
M  V30 966 C 91.3881 3.59787 -0.0900024 0
M  V30 967 C 90.9961 4.23534 -1.46023 0
M  V30 968 C 92.7401 4.22895 0.368806 0
M  V30 969 C 90.6471 5.73881 -1.4288 0
M  V30 970 H 89.5771 0.753564 -0.0256388 0
M  V30 971 H 92.2281 1.677 -0.744905 0
M  V30 972 H 90.6101 3.90752 0.642586 0
M  V30 973 H 91.7841 4.04167 -2.21328 0
M  V30 974 H 90.0991 3.72558 -1.85982 0
M  V30 975 H 92.6961 5.33116 0.411258 0
M  V30 976 H 93.0391 3.9247 1.38827 0
M  V30 977 H 93.5721 3.9659 -0.31001 0
M  V30 978 H 90.3111 6.0898 -2.42536 0
M  V30 979 H 89.8311 5.95486 -0.718095 0
M  V30 980 H 91.5101 6.36776 -1.14565 0
M  V30 981 N 91.6422 0.330177 1.54103 0
M  V30 982 C 92.8702 -0.272179 2.05102 0
M  V30 983 C 93.2852 -1.45267 1.20595 0
M  V30 984 O 92.6422 -1.8094 0.238144 0
M  V30 985 C 92.6932 -0.70023 3.54653 0
M  V30 986 O 92.4142 0.433301 4.35952 0
M  V30 987 C 93.9152 -1.3647 4.21771 0
M  V30 988 H 91.1352 -0.0549159 0.668749 0
M  V30 989 H 93.6792 0.478285 1.98828 0
M  V30 990 H 91.8342 -1.40066 3.61193 0
M  V30 991 H 92.2482 0.0947539 5.24414 0
M  V30 992 H 93.7222 -1.61509 5.27843 0
M  V30 993 H 94.1992 -2.31409 3.73292 0
M  V30 994 H 94.8052 -0.706675 4.19388 0
M  V30 995 N 93.1203 -1.57491 0.0584922 0
M  V30 996 C 94.0673 -2.11958 -0.913376 0
M  V30 997 C 95.0373 -1.02875 -1.30407 0
M  V30 998 O 96.2223 -1.30464 -1.39226 0
M  V30 999 C 93.3623 -2.67497 -2.18035 0
M  V30 1000 C 92.4753 -3.90691 -1.84349 0
M  V30 1001 C 91.6103 -4.3452 -3.05559 0
M  V30 1002 C 90.6493 -5.50395 -2.67827 0
M  V30 1003 N 89.7863 -5.89244 -3.81754 0
M  V30 1004 H 94.6263 -2.94704 -0.442017 0
M  V30 1005 H 92.1633 -1.45643 -0.206545 0
M  V30 1006 H 94.1213 -2.978 -2.92183 0
M  V30 1007 H 92.7513 -1.87537 -2.62735 0
M  V30 1008 H 91.8033 -3.66934 -1.00319 0
M  V30 1009 H 93.1153 -4.7489 -1.5258 0
M  V30 1010 H 92.2693 -4.66414 -3.87998 0
M  V30 1011 H 91.0083 -3.49147 -3.40511 0
M  V30 1012 H 90.0133 -5.18165 -1.83806 0
M  V30 1013 H 91.2383 -6.3749 -2.34059 0
M  V30 1014 H 89.1843 -5.06823 -4.16493 0
M  V30 1015 H 89.1013 -6.68151 -3.53708 0
M  V30 1016 H 90.3693 -6.25756 -4.64811 0
M  V30 1017 N 94.5984 0.214957 -1.56127 0
M  V30 1018 C 96.0144 0.564948 -1.49267 0
M  V30 1019 C 96.2144 1.86827 -0.754838 0
M  V30 1020 O 95.2704 2.50745 -0.297198 0
M  V30 1021 C 96.5834 0.638071 -2.93852 0
M  V30 1022 C 98.1314 0.728253 -3.0441 0
M  V30 1023 C 98.6064 0.832663 -4.50367 0
M  V30 1024 N 100.097 0.896712 -4.54437 0
M  V30 1025 C 100.832 0.997324 -5.6466 0
M  V30 1026 N 100.328 1.06147 -6.8462 0
M  V30 1027 N 102.121 1.03297 -5.52527 0
M  V30 1028 H 94.2724 -0.640211 -2.02522 0
M  V30 1029 H 96.5354 -0.225507 -0.920788 0
M  V30 1030 H 96.2414 -0.250126 -3.50809 0
M  V30 1031 H 96.1154 1.49947 -3.46115 0
M  V30 1032 H 98.5024 1.60689 -2.47514 0
M  V30 1033 H 98.5834 -0.158952 -2.55306 0
M  V30 1034 H 98.2274 -0.0415417 -5.07883 0
M  V30 1035 H 98.1574 1.73538 -4.97184 0
M  V30 1036 H 100.648 0.857188 -3.6805 0
M  V30 1037 H 100.961 1.1382 -7.64372 0
M  V30 1038 H 99.3064 1.03049 -6.87318 0
M  V30 1039 H 102.497 0.979558 -4.57736 0
M  V30 1040 H 102.67 1.10793 -6.38458 0
M  V30 1041 N 96.0765 1.50051 0.48192 0
M  V30 1042 C 97.3255 1.59741 1.23149 0
M  V30 1043 C 97.6385 0.298163 1.93314 0
M  V30 1044 O 98.8445 0.273835 2.70116 0
M  V30 1045 C 97.3005 2.81926 2.23708 0
M  V30 1046 C 96.9085 4.18685 1.59396 0
M  V30 1047 C 98.6525 3.00956 2.99375 0
M  V30 1048 C 96.5595 5.3207 2.58178 0
M  V30 1049 H 95.4895 0.594838 0.46334 0
M  V30 1050 H 98.1405 1.76467 0.503169 0
M  V30 1051 H 96.5225 2.58736 2.99786 0
M  V30 1052 H 97.6965 4.52088 0.891811 0
M  V30 1053 H 96.0115 4.05171 0.960503 0
M  V30 1054 H 98.6085 3.82836 3.73283 0
M  V30 1055 H 98.9515 2.12258 3.58123 0
M  V30 1056 H 99.4845 3.24277 2.30411 0
M  V30 1057 H 96.2235 6.22888 2.04184 0
M  V30 1058 H 95.7435 5.03098 3.26577 0
M  V30 1059 H 97.4225 5.62196 3.20225 0
M  V30 1060 N 97.5546 -0.734337 1.39446 0
M  V30 1061 C 98.9706 -1.03997 1.21065 0
M  V30 1062 C 99.1706 -2.01369 0.0727019 0
M  V30 1063 O 98.2266 -2.45856 -0.575426 0
M  V30 1064 C 99.5396 -1.60163 2.54496 0
M  V30 1065 C 101.088 -1.7224 2.61347 0
M  V30 1066 C 101.563 -2.31814 3.95002 0
M  V30 1067 N 103.054 -2.39223 3.96644 0
M  V30 1068 C 103.789 -2.86258 4.96834 0
M  V30 1069 N 103.285 -3.33184 6.07421 0
M  V30 1070 N 105.078 -2.85473 4.84213 0
M  V30 1071 H 97.2286 -0.0885624 2.12215 0
M  V30 1072 H 99.4916 -0.10191 0.942506 0
M  V30 1073 H 99.1976 -0.960811 3.38321 0
M  V30 1074 H 99.0716 -2.5896 2.74262 0
M  V30 1075 H 101.459 -2.35443 1.77906 0
M  V30 1076 H 101.54 -0.720939 2.4543 0
M  V30 1077 H 101.184 -1.69238 4.78875 0
M  V30 1078 H 101.114 -3.32638 4.08239 0
M  V30 1079 H 103.605 -2.06057 3.16779 0
M  V30 1080 H 103.918 -3.67586 6.7978 0
M  V30 1081 H 102.263 -3.31191 6.11013 0
M  V30 1082 H 105.454 -2.48136 3.96921 0
M  V30 1083 H 105.627 -3.21814 5.62441 0
M  V30 1084 N 99.0327 -1.24633 -0.964593 0
M  V30 1085 C 99.9827 -1.00841 -2.04487 0
M  V30 1086 C 100.967 0.0512468 -1.60818 0
M  V30 1087 O 102.159 -0.162865 -1.76249 0
M  V30 1088 C 99.2877 -0.618474 -3.37683 0
M  V30 1089 C 98.3737 -1.71437 -3.87905 0
M  V30 1090 N 98.7647 -2.9477 -4.11029 0
M  V30 1091 C 97.0627 -1.5926 -4.16596 0
M  V30 1092 C 97.7637 -3.65834 -4.52261 0
M  V30 1093 N 96.7397 -2.9341 -4.57615 0
M  V30 1094 H 100.542 -1.94487 -2.20345 0
M  V30 1095 H 98.0557 -1.14805 -1.14863 0
M  V30 1096 H 100.053 -0.429247 -4.14684 0
M  V30 1097 H 98.7127 0.310766 -3.23209 0
M  V30 1098 H 99.7237 -3.30917 -3.9839 0
M  V30 1099 H 96.4007 -0.731606 -4.1104 0
M  V30 1100 H 97.7907 -4.71646 -4.78539 0
M  V30 1101 N 100.511 1.16574 -1.06058 0
M  V30 1102 C 101.461 2.18854 -0.63929 0
M  V30 1103 C 102.445 1.57505 0.328798 0
M  V30 1104 O 103.637 1.76408 0.144623 0
M  V30 1105 C 100.766 3.43291 -0.0247203 0
M  V30 1106 C 99.8518 4.11722 -1.01716 0
M  V30 1107 N 100.243 4.55841 -2.19186 0
M  V30 1108 C 98.5408 4.37872 -0.847569 0
M  V30 1109 C 99.2418 5.08751 -2.82042 0
M  V30 1110 N 98.2178 5.01489 -2.09784 0
M  V30 1111 H 102.02 2.5068 -1.53417 0
M  V30 1112 H 99.5338 1.32999 -0.931935 0
M  V30 1113 H 101.531 4.15856 0.294915 0
M  V30 1114 H 100.191 3.12954 0.865448 0
M  V30 1115 H 101.202 4.49649 -2.56975 0
M  V30 1116 H 97.8788 4.17499 -0.00918848 0
M  V30 1117 H 99.2688 5.52944 -3.81709 0
M  V30 1118 N 101.989 0.842826 1.3317 0
M  V30 1119 C 103.4 0.496651 1.79973 0
M  V30 1120 C 103.751 -0.984641 1.69703 0
M  V30 1121 O 102.876 -1.76743 1.24863 0
M  V30 1122 C 103.471 0.894727 3.26772 0
M  V30 1123 C 102.03 0.600629 3.71577 0
M  V30 1124 C 101.177 1.10091 2.5451 0
M  V30 1125 H 104.128 1.03116 1.20635 0
M  V30 1126 H 104.149 0.206347 3.7994 0
M  V30 1127 H 103.661 1.97287 3.34215 0
M  V30 1128 H 101.762 -0.467284 3.69658 0
M  V30 1129 H 101.875 1.15863 4.64879 0
M  V30 1130 H 100.239 0.52162 2.49301 0
M  V30 1131 H 101.022 2.18591 2.64713 0
M  V30 1132 N 103.467 -1.45747 0.599634 0
M  V30 1133 C 104.43 -2.28917 -0.113835 0
M  V30 1134 C 105.43 -1.3933 -0.802729 0
M  V30 1135 O 106.62 -1.61534 -0.652103 0
M  V30 1136 C 103.752 -3.20152 -1.17114 0
M  V30 1137 H 104.945 -2.93478 0.617289 0
M  V30 1138 H 102.498 -1.52137 0.358327 0
M  V30 1139 H 103.233 -2.60374 -1.93329 0
M  V30 1140 H 103.018 -3.86133 -0.681468 0
M  V30 1141 H 104.508 -3.82708 -1.67105 0
M  V30 1142 N 104.945 -0.338344 -1.53925 0
M  V30 1143 C 105.893 0.536231 -2.26335 0
M  V30 1144 C 106.887 1.1063 -1.28286 0
M  V30 1145 O 108.093 1.05264 -1.46012 0
M  V30 1146 H 104.468 0.191602 -0.727181 0
M  V30 1147 H 106.439 -0.0965747 -2.98244 0
M  V30 1148 C 105.188 1.67803 -3.04528 0
M  V30 1149 H 104.511 1.24864 -3.79801 0
M  V30 1150 H 105.951 2.26526 -3.58416 0
M  V30 1151 C 104.41 2.60439 -2.13712 0
M  V30 1152 O 104.94 3.6255 -1.72975 0
M  V30 1153 N 103.146 2.29006 -1.78898 0
M  V30 1154 H 102.693 1.46011 -2.12223 0
M  V30 1155 H 102.651 2.91248 -1.18416 0
M  V30 1156 N 106.423 1.57458 -0.0668435 0
M  V30 1157 C 107.386 2.11323 0.887422 0
M  V30 1158 C 108.386 1.03618 1.22964 0
M  V30 1159 O 109.576 1.29626 1.16373 0
M  V30 1160 C 106.708 2.61048 2.19242 0
M  V30 1161 H 107.901 2.96942 0.420194 0
M  V30 1162 H 105.454 1.55239 0.181793 0
M  V30 1163 H 106.189 1.78868 2.70512 0
M  V30 1164 H 105.974 3.39769 1.95702 0
M  V30 1165 H 107.464 3.02814 2.87565 0
M  V30 1166 N 107.901 -0.206675 1.56239 0
M  V30 1167 C 109.141 -0.93574 1.81723 0
M  V30 1168 C 109.505 -1.80927 0.642609 0
M  V30 1169 O 110.706 -2.57323 0.777081 0
M  V30 1170 C 108.977 -1.74012 3.12177 0
M  V30 1171 S 110.536 -2.52279 3.59028 0
M  V30 1172 H 107.354 -0.314065 0.637875 0
M  V30 1173 H 109.956 -0.200071 1.94474 0
M  V30 1174 H 108.66 -1.0888 3.95693 0
M  V30 1175 H 108.191 -2.51782 3.02274 0
M  V30 1176 H 110.206 -3.76209 3.23545 0
M  V30 1177 N 109.379 -1.50304 -0.473955 0
M  V30 1178 C 110.309 -1.71886 -1.58042 0
M  V30 1179 C 111.29 -0.567799 -1.60344 0
M  V30 1180 O 112.475 -0.806623 -1.76656 0
M  V30 1181 C 109.605 -1.81036 -2.96384 0
M  V30 1182 C 108.559 -2.962 -3.08949 0
M  V30 1183 C 107.885 -2.9049 -4.48909 0
M  V30 1184 C 109.185 -4.36752 -2.86434 0
M  V30 1185 H 110.879 -2.64527 -1.40234 0
M  V30 1186 H 108.425 -1.27295 -0.673201 0
M  V30 1187 H 110.378 -1.94719 -3.73714 0
M  V30 1188 H 109.102 -0.850147 -3.15341 0
M  V30 1189 H 107.761 -2.82164 -2.3405 0
M  V30 1190 H 107.409 -1.92321 -4.64781 0
M  V30 1191 H 107.109 -3.67802 -4.58253 0
M  V30 1192 H 108.633 -3.06218 -5.28264 0
M  V30 1193 H 110.047 -4.5133 -3.53517 0
M  V30 1194 H 108.444 -5.15493 -3.07225 0
M  V30 1195 H 109.514 -4.49321 -1.82316 0
M  V30 1196 N 110.857 0.726932 -1.39834 0
M  V30 1197 C 112.106 1.48214 -1.36805 0
M  V30 1198 C 112.419 1.95576 0.0305291 0
M  V30 1199 O 113.625 2.7088 0.183417 0
M  V30 1200 C 112.081 2.67854 -2.40379 0
M  V30 1201 C 111.689 2.27408 -3.85992 0
M  V30 1202 C 113.433 3.45641 -2.46439 0
M  V30 1203 C 111.34 3.43819 -4.81189 0
M  V30 1204 H 110.27 0.556606 -0.508631 0
M  V30 1205 H 112.921 0.792216 -1.65518 0
M  V30 1206 H 111.303 3.3896 -2.04749 0
M  V30 1207 H 112.477 1.63795 -4.30706 0
M  V30 1208 H 110.792 1.62692 -3.83302 0
M  V30 1209 H 113.389 4.32244 -3.14753 0
M  V30 1210 H 113.732 3.88669 -1.49139 0
M  V30 1211 H 114.265 2.8157 -2.81004 0
M  V30 1212 H 111.004 3.05834 -5.79781 0
M  V30 1213 H 110.524 4.06385 -4.41148 0
M  V30 1214 H 112.203 4.10043 -5.00474 0
M  V30 1215 N 112.336 1.25143 0.95797 0
M  V30 1216 C 113.747 1.08851 1.51685 0
M  V30 1217 C 114.098 -0.33687 1.93286 0
M  V30 1218 O 113.223 -1.22644 1.7829 0
M  V30 1219 C 113.818 1.96978 2.75654 0
M  V30 1220 C 112.377 1.84881 3.27866 0
M  V30 1221 C 111.524 1.91329 2.0072 0
M  V30 1222 H 114.475 1.38478 0.77522 0
M  V30 1223 H 114.496 1.5078 3.4935 0
M  V30 1224 H 114.008 3.00712 2.45345 0
M  V30 1225 H 112.109 0.840182 3.63004 0
M  V30 1226 H 112.222 2.6951 3.96107 0
M  V30 1227 H 110.586 1.35174 2.15871 0
M  V30 1228 H 111.369 2.96661 1.72764 0
M  V30 1229 N 113.814 -1.1601 1.06675 0
M  V30 1230 C 115.063 -1.85973 0.780818 0
M  V30 1231 C 115.376 -1.82819 -0.695444 0
M  V30 1232 O 116.582 -2.484 -1.09589 0
M  V30 1233 C 115.038 -3.33757 1.34665 0
M  V30 1234 C 114.646 -3.45374 2.85343 0
M  V30 1235 C 116.39 -4.0895 1.13843 0
M  V30 1236 C 114.297 -4.87266 3.35151 0
M  V30 1237 H 113.227 -0.696661 0.288407 0
M  V30 1238 H 115.878 -1.30903 1.28595 0
M  V30 1239 H 114.26 -3.88456 0.769274 0
M  V30 1240 H 115.434 -3.00816 3.49065 0
M  V30 1241 H 113.749 -2.83619 3.04876 0
M  V30 1242 H 116.346 -5.13654 1.4854 0
M  V30 1243 H 116.689 -4.16229 0.0770282 0
M  V30 1244 H 117.222 -3.605 1.68179 0
M  V30 1245 H 113.961 -4.85168 4.40786 0
M  V30 1246 H 113.481 -5.32433 2.76179 0
M  V30 1247 H 115.16 -5.56097 3.30704 0
M  V30 1248 N 115.292 -0.849877 -1.32721 0
M  V30 1249 C 116.532 -0.457146 -1.99222 0
M  V30 1250 C 116.896 0.968038 -1.6581 0
M  V30 1251 O 118.097 1.46507 -2.25364 0
M  V30 1252 C 116.368 -0.683966 -3.50794 0
M  V30 1253 S 117.927 -0.388095 -4.3708 0
M  V30 1254 H 114.745 -0.171464 -0.690015 0
M  V30 1255 H 117.347 -1.10155 -1.61512 0
M  V30 1256 H 116.051 -1.72038 -3.726 0
M  V30 1257 H 115.582 -0.0258086 -3.93392 0
M  V30 1258 H 117.597 0.787791 -4.89906 0
M  V30 1259 N 116.77 1.45427 -0.607355 0
M  V30 1260 C 117.995 2.07124 -0.107006 0
M  V30 1261 C 118.42 1.44906 1.19933 0
M  V30 1262 O 117.778 0.541687 1.73019 0
M  V30 1263 C 117.826 3.60595 0.0194119 0
M  V30 1264 O 116.93 3.98285 1.0697 0
M  V30 1265 H 116.271 0.659868 -0.0739597 0
M  V30 1266 H 118.801 1.86683 -0.837297 0
M  V30 1267 H 118.811 4.07419 0.2177 0
M  V30 1268 H 117.486 4.05266 -0.934453 0
M  V30 1269 H 116.063 3.63133 0.847889 0
M  V30 1270 N 118.248 0.346503 1.53744 0
M  V30 1271 C 119.178 -0.501193 2.28058 0
M  V30 1272 C 120.159 -1.10014 1.29734 0
M  V30 1273 O 121.344 -1.12097 1.58581 0
M  V30 1274 C 118.474 -1.65078 3.05559 0
M  V30 1275 C 117.428 -1.18003 4.11411 0
M  V30 1276 C 116.754 -2.41837 4.76884 0
M  V30 1277 C 118.054 -0.278394 5.21558 0
M  V30 1278 H 119.748 0.11875 2.99164 0
M  V30 1279 H 117.294 0.0585531 1.43881 0
M  V30 1280 H 119.247 -2.25028 3.56287 0
M  V30 1281 H 117.971 -2.29767 2.32109 0
M  V30 1282 H 116.63 -0.603331 3.61601 0
M  V30 1283 H 116.278 -3.0494 4.00026 0
M  V30 1284 H 115.978 -2.1102 5.48402 0
M  V30 1285 H 117.502 -3.02508 5.30397 0
M  V30 1286 H 118.916 -0.784823 5.67903 0
M  V30 1287 H 117.313 -0.0619707 6.00068 0
M  V30 1288 H 118.383 0.684677 4.80042 0
M  V30 1289 N 119.726 -1.57421 0.075193 0
M  V30 1290 C 120.956 -1.97659 -0.601203 0
M  V30 1291 C 121.364 -0.952427 -1.63479 0
M  V30 1292 O 120.707 0.0688241 -1.83571 0
M  V30 1293 C 120.769 -3.34218 -1.32434 0
M  V30 1294 C 120.433 -4.5484 -0.443826 0
M  V30 1295 C 121.43 -5.19034 0.299969 0
M  V30 1296 C 119.115 -5.00952 -0.367709 0
M  V30 1297 C 121.109 -6.27695 1.10807 0
M  V30 1298 C 118.796 -6.09484 0.444058 0
M  V30 1299 C 119.794 -6.72719 1.18061 0
M  V30 1300 O 119.482 -7.79161 1.97898 0
M  V30 1301 H 119.214 -0.65494 -0.167422 0
M  V30 1302 H 121.768 -2.04886 0.145157 0
M  V30 1303 H 119.998 -3.23615 -2.11685 0
M  V30 1304 H 121.687 -3.59038 -1.89331 0
M  V30 1305 H 122.453 -4.84351 0.250776 0
M  V30 1306 H 118.332 -4.51509 -0.930638 0
M  V30 1307 H 121.876 -6.76982 1.68347 0
M  V30 1308 H 117.773 -6.43601 0.494803 0
M  V30 1309 H 118.541 -7.96055 1.90367 0
M  V30 1310 N 121.204 0.198386 -1.56346 0
M  V30 1311 C 122.452 0.91747 -1.80075 0
M  V30 1312 C 122.773 1.83929 -0.647692 0
M  V30 1313 O 122.043 1.93029 0.334166 0
M  V30 1314 H 120.623 0.341774 -0.664228 0
M  V30 1315 H 123.285 0.204684 -1.93822 0
M  V30 1316 H 122.381 1.51055 -2.7311 0
M  V30 1317 N 122.682 1.50554 0.465978 0
M  V30 1318 C 123.645 1.69233 1.54574 0
M  V30 1319 C 124.645 0.562901 1.50626 0
M  V30 1320 O 125.835 0.830016 1.53155 0
M  V30 1321 C 122.967 1.7223 2.94193 0
M  V30 1322 H 124.16 2.65571 1.39327 0
M  V30 1323 H 121.713 1.40111 0.692711 0
M  V30 1324 H 122.448 0.77603 3.14878 0
M  V30 1325 H 122.233 2.54285 2.98466 0
M  V30 1326 H 123.723 1.88618 3.72576 0
M  V30 1327 N 124.16 -0.719506 1.40217 0
M  V30 1328 C 125.123 -1.8153 1.39927 0
M  V30 1329 C 126.123 -1.58095 0.293723 0
M  V30 1330 O 127.313 -1.65209 0.552429 0
M  V30 1331 C 124.445 -3.19561 1.18716 0
M  V30 1332 H 125.638 -1.83186 2.37451 0
M  V30 1333 H 123.191 -0.924746 1.26008 0
M  V30 1334 H 123.926 -3.23557 0.219366 0
M  V30 1335 H 123.711 -3.3797 1.98793 0
M  V30 1336 H 125.201 -3.99598 1.21291 0
M  V30 1337 N 125.638 -1.25649 -0.95132 0
M  V30 1338 C 126.884 -1.10757 -1.69884 0
M  V30 1339 C 127.217 0.350061 -1.91019 0
M  V30 1340 O 126.492 1.25783 -1.48354 0
M  V30 1341 C 126.775 -1.86606 -3.07978 0
M  V30 1342 C 126.628 -3.40217 -2.94232 0
M  V30 1343 C 127.947 -1.65182 -4.07925 0
M  V30 1344 H 125.066 -0.40374 -0.616574 0
M  V30 1345 H 127.708 -1.54521 -1.10558 0
M  V30 1346 H 125.858 -1.49409 -3.58621 0
M  V30 1347 H 127.53 -3.87108 -2.50889 0
M  V30 1348 H 125.773 -3.67759 -2.30078 0
M  V30 1349 H 126.444 -3.88505 -3.92133 0
M  V30 1350 H 128.92 -1.9757 -3.66204 0
M  V30 1351 H 127.796 -2.20683 -5.02583 0
M  V30 1352 H 128.057 -0.593933 -4.38092 0
M  V30 1353 N 127.117 1.15442 -1.07289 0
M  V30 1354 C 128.345 1.90096 -0.81676 0
M  V30 1355 C 128.76 1.7798 0.629966 0
M  V30 1356 O 128.117 1.1313 1.43206 0
M  V30 1357 C 128.168 3.40466 -1.21512 0
M  V30 1358 O 127.889 3.52232 -2.60508 0
M  V30 1359 C 129.39 4.32145 -0.988198 0
M  V30 1360 H 126.61 0.602495 -0.295366 0
M  V30 1361 H 129.154 1.4627 -1.42918 0
M  V30 1362 H 127.309 3.81958 -0.647039 0
M  V30 1363 H 127.723 4.45549 -2.76742 0
M  V30 1364 H 129.197 5.36072 -1.31645 0
M  V30 1365 H 129.674 4.39135 0.0755063 0
M  V30 1366 H 130.28 3.96395 -1.54115 0
M  V30 1367 N 128.595 0.856903 1.32268 0
M  V30 1368 C 129.823 0.475439 2.01363 0
M  V30 1369 C 130.238 -0.928486 1.64392 0
M  V30 1370 O 129.595 -1.60624 0.866387 0
M  V30 1371 C 129.646 0.607545 3.56358 0
M  V30 1372 O 129.367 1.95617 3.92002 0
M  V30 1373 C 130.868 0.225382 4.42727 0
M  V30 1374 H 128.088 0.186636 0.644521 0
M  V30 1375 H 130.632 1.15446 1.68797 0
M  V30 1376 H 128.787 -0.0237719 3.87393 0
M  V30 1377 H 129.201 1.95455 4.86721 0
M  V30 1378 H 130.675 0.368813 5.50767 0
M  V30 1379 H 131.152 -0.834369 4.31202 0
M  V30 1380 H 131.758 0.831864 4.17085 0
M  V30 1381 N 130.073 -1.45103 0.615059 0
M  V30 1382 C 131.319 -2.02483 0.113347 0
M  V30 1383 C 131.652 -1.48146 -1.25564 0
M  V30 1384 O 130.927 -0.659104 -1.82992 0
M  V30 1385 C 131.21 -3.60005 0.0825278 0
M  V30 1386 C 131.063 -4.2466 1.48271 0
M  V30 1387 C 132.382 -4.35972 -0.601401 0
M  V30 1388 H 129.501 -0.735764 0.0426632 0
M  V30 1389 H 132.143 -1.72868 0.788461 0
M  V30 1390 H 130.293 -3.85367 -0.492378 0
M  V30 1391 H 131.965 -4.10458 2.10527 0
M  V30 1392 H 130.208 -3.82772 2.04127 0
M  V30 1393 H 130.879 -5.336 1.41332 0
M  V30 1394 H 133.355 -4.15947 -0.112666 0
M  V30 1395 H 132.231 -5.45697 -0.592097 0
M  V30 1396 H 132.492 -4.09391 -1.66887 0
M  V30 1397 N 131.551 -0.354651 -1.53558 0
M  V30 1398 C 132.461 0.50515 -2.29097 0
M  V30 1399 C 133.477 1.10223 -1.34636 0
M  V30 1400 O 134.653 1.11553 -1.67684 0
M  V30 1401 C 131.718 1.63479 -3.05738 0
M  V30 1402 C 130.779 1.06636 -4.15845 0
M  V30 1403 C 130.012 2.14217 -4.88822 0
M  V30 1404 O 130.235 3.35137 -4.61562 0
M  V30 1405 O 129.169 1.77887 -5.75013 0
M  V30 1406 H 132.995 -0.109237 -3.03503 0
M  V30 1407 H 130.58 -0.119357 -1.48922 0
M  V30 1408 H 132.462 2.2918 -3.5363 0
M  V30 1409 H 131.137 2.23478 -2.34178 0
M  V30 1410 H 130.044 0.373565 -3.7223 0
M  V30 1411 H 131.377 0.511081 -4.89539 0
M  V30 1412 N 133.029 1.57378 -0.0835403 0
M  V30 1413 C 134.277 1.93547 0.581718 0
M  V30 1414 C 134.598 0.96524 1.69435 0
M  V30 1415 O 133.868 0.0153369 1.95894 0
M  V30 1416 H 132.448 0.714521 0.217874 0
M  V30 1417 H 135.11 1.94366 -0.144158 0
M  V30 1418 H 134.206 2.95665 0.999423 0
M  V30 1419 N 134.507 -0.190092 1.56449 0
M  V30 1420 C 135.756 -0.907912 1.80111 0
M  V30 1421 C 136.069 -1.84214 0.657619 0
M  V30 1422 O 137.275 -2.60094 0.778663 0
M  V30 1423 C 135.731 -1.66485 3.19078 0
M  V30 1424 C 135.339 -0.7752 4.41242 0
M  V30 1425 C 137.083 -2.37201 3.52045 0
M  V30 1426 C 134.99 -1.53129 5.71231 0
M  V30 1427 H 133.92 -0.34276 0.671589 0
M  V30 1428 H 136.571 -0.161109 1.82791 0
M  V30 1429 H 134.953 -2.45572 3.10661 0
M  V30 1430 H 136.127 -0.0226298 4.60794 0
M  V30 1431 H 134.442 -0.178627 4.16017 0
M  V30 1432 H 137.039 -2.94329 4.46402 0
M  V30 1433 H 137.382 -3.11632 2.76028 0
M  V30 1434 H 137.915 -1.65075 3.61932 0
M  V30 1435 H 134.654 -0.82967 6.50228 0
M  V30 1436 H 134.174 -2.25767 5.55688 0
M  V30 1437 H 135.853 -2.08377 6.12526 0
M  V30 1438 N 135.985 -1.50799 -0.457987 0
M  V30 1439 C 137.233 -1.62121 -1.2067 0
M  V30 1440 C 137.554 -0.329793 -1.92191 0
M  V30 1441 O 136.824 0.653409 -1.84682 0
M  V30 1442 H 135.404 -0.597441 -0.448411 0
M  V30 1443 H 138.066 -1.87637 -0.527096 0
M  V30 1444 H 137.162 -2.43882 -1.94751 0
M  V30 1445 N 137.463 0.71206 -1.40597 0
M  V30 1446 C 138.688 1.50617 -1.42581 0
M  V30 1447 C 139.113 1.88079 -0.0282102 0
M  V30 1448 O 138.471 1.53511 0.964579 0
M  V30 1449 C 138.519 2.7557 -2.3258 0
M  V30 1450 O 137.623 3.72414 -1.77148 0
M  V30 1451 H 136.964 0.453966 -0.484573 0
M  V30 1452 H 139.494 0.876649 -1.84868 0
M  V30 1453 H 139.504 3.2406 -2.47889 0
M  V30 1454 H 138.179 2.47639 -3.34138 0
M  V30 1455 H 136.756 3.31276 -1.71204 0
M  V30 1456 N 138.941 1.26152 0.944643 0
M  V30 1457 C 140.169 1.14259 1.72489 0
M  V30 1458 C 140.584 -0.302555 1.8636 0
M  V30 1459 O 139.941 -1.20741 1.36849 0
M  V30 1460 C 139.992 1.80266 3.13347 0
M  V30 1461 O 139.713 3.19133 3.00143 0
M  V30 1462 C 141.214 1.74283 4.07603 0
M  V30 1463 H 138.434 0.398051 0.540181 0
M  V30 1464 H 140.978 1.66706 1.18446 0
M  V30 1465 H 139.133 1.31766 3.64303 0
M  V30 1466 H 139.547 3.51744 3.89071 0
M  V30 1467 H 141.021 2.25111 5.04013 0
M  V30 1468 H 141.498 0.708631 4.33446 0
M  V30 1469 H 142.104 2.22319 3.62567 0
M  V30 1470 N 140.419 -1.14872 1.07899 0
M  V30 1471 C 141.369 -2.17809 0.674027 0
M  V30 1472 C 142.353 -1.58008 -0.303699 0
M  V30 1473 O 143.545 -1.76616 -0.11654 0
M  V30 1474 C 140.674 -3.43208 0.0793318 0
M  V30 1475 C 139.76 -4.10051 1.08253 0
M  V30 1476 N 140.151 -4.52296 2.2641 0
M  V30 1477 C 138.449 -4.36469 0.917124 0
M  V30 1478 C 139.15 -5.04199 2.901 0
M  V30 1479 N 138.126 -4.98088 2.17736 0
M  V30 1480 H 141.928 -2.48207 1.57386 0
M  V30 1481 H 139.442 -1.315 0.952976 0
M  V30 1482 H 141.439 -4.16272 -0.228719 0
M  V30 1483 H 140.099 -3.14291 -0.815551 0
M  V30 1484 H 141.11 -4.45504 2.64096 0
M  V30 1485 H 137.787 -4.17432 0.0756078 0
M  V30 1486 H 139.177 -5.46802 3.90458 0
M  V30 1487 N 141.898 -0.863906 -1.31812 0
M  V30 1488 C 143.126 -0.486111 -2.01108 0
M  V30 1489 C 143.541 0.919755 -1.64882 0
M  V30 1490 O 142.898 1.60162 -0.874893 0
M  V30 1491 C 142.949 -0.626435 -3.56031 0
M  V30 1492 O 142.67 -1.97693 -3.90959 0
M  V30 1493 C 144.171 -0.248857 -4.42601 0
M  V30 1494 H 141.391 -0.190052 -0.643523 0
M  V30 1495 H 143.935 -1.1634 -1.68182 0
M  V30 1496 H 142.09 0.00322717 -3.874 0
M  V30 1497 H 142.504 -1.98034 -4.85678 0
M  V30 1498 H 143.978 -0.398016 -5.50563 0
M  V30 1499 H 144.455 0.811489 -4.31638 0
M  V30 1500 H 145.061 -0.853971 -4.16638 0
M  V30 1501 N 143.376 1.44774 -0.622745 0
M  V30 1502 C 144.792 1.56986 -0.287652 0
M  V30 1503 C 144.992 1.61167 1.20944 0
M  V30 1504 O 144.048 1.55015 1.99315 0
M  V30 1505 C 145.361 2.84551 -0.972188 0
M  V30 1506 C 146.909 2.9825 -0.949536 0
M  V30 1507 C 147.384 4.28605 -1.61437 0
M  V30 1508 N 148.875 4.35399 -1.58057 0
M  V30 1509 C 149.61 5.34964 -2.064 0
M  V30 1510 N 149.106 6.40981 -2.62897 0
M  V30 1511 N 150.899 5.26419 -1.97078 0
M  V30 1512 H 143.05 1.40304 -1.59463 0
M  V30 1513 H 145.313 0.671794 -0.668878 0
M  V30 1514 H 145.019 2.87417 -2.02693 0
M  V30 1515 H 144.893 3.73807 -0.504771 0
M  V30 1516 H 147.28 2.94941 0.0967067 0
M  V30 1517 H 147.361 2.10364 -1.45536 0
M  V30 1518 H 147.005 4.32672 -2.66002 0
M  V30 1519 H 146.935 5.15334 -1.08344 0
M  V30 1520 H 149.426 3.59397 -1.16801 0
M  V30 1521 H 149.739 7.13225 -2.97539 0
M  V30 1522 H 148.084 6.4169 -2.66943 0
M  V30 1523 H 151.275 4.42504 -1.52669 0
M  V30 1524 H 151.448 6.03861 -2.35066 0
M  V30 1525 N 144.854 0.36279 1.53368 0
M  V30 1526 C 146.103 -0.22888 2.00397 0
M  V30 1527 C 146.416 -1.50096 1.25421 0
M  V30 1528 O 147.622 -2.17106 1.63025 0
M  V30 1529 C 146.078 -0.458417 3.56969 0
M  V30 1530 C 145.686 0.798877 4.4082 0
M  V30 1531 C 147.43 -1.00789 4.12361 0
M  V30 1532 C 145.337 0.539078 5.88938 0
M  V30 1533 H 144.267 -0.089305 0.748693 0
M  V30 1534 H 146.918 0.481099 1.77081 0
M  V30 1535 H 145.3 -1.22959 3.76427 0
M  V30 1536 H 146.474 1.57262 4.33134 0
M  V30 1537 H 144.789 1.27137 3.96516 0
M  V30 1538 H 147.386 -1.21754 5.20653 0
M  V30 1539 H 147.729 -1.9692 3.66781 0
M  V30 1540 H 148.262 -0.296961 3.9669 0
M  V30 1541 H 145.001 1.47064 6.3879 0
M  V30 1542 H 144.521 -0.196222 5.99479 0
M  V30 1543 H 146.2 0.163542 6.46793 0
M  V30 1544 N 146.332 -1.57332 0.0918853 0
M  V30 1545 C 147.282 -2.10385 -0.87876 0
M  V30 1546 C 148.266 -1.01814 -1.24591 0
M  V30 1547 O 149.458 -1.28093 -1.22152 0
M  V30 1548 C 146.587 -2.68517 -2.13901 0
M  V30 1549 C 145.673 -3.84126 -1.79744 0
M  V30 1550 N 146.064 -4.92288 -1.1613 0
M  V30 1551 C 144.362 -3.93801 -2.09373 0
M  V30 1552 C 145.063 -5.7295 -1.00513 0
M  V30 1553 N 144.039 -5.21876 -1.5214 0
M  V30 1554 H 147.841 -2.91395 -0.38293 0
M  V30 1555 H 145.355 -1.62017 -0.111423 0
M  V30 1556 H 147.352 -3.04852 -2.84378 0
M  V30 1557 H 146.012 -1.88961 -2.64053 0
M  V30 1558 H 147.023 -5.1123 -0.828504 0
M  V30 1559 H 143.7 -3.25249 -2.61762 0
M  V30 1560 H 145.09 -6.69978 -0.507902 0
M  V30 1561 N 147.81 0.181792 -1.56548 0
M  V30 1562 C 149.221 0.745244 -1.71181 0
M  V30 1563 C 149.572 1.83262 -0.70068 0
M  V30 1564 O 148.697 2.15946 0.140154 0
M  V30 1565 C 149.292 1.35859 -3.10367 0
M  V30 1566 C 147.851 1.86898 -3.2672 0
M  V30 1567 C 146.998 0.743942 -2.67134 0
M  V30 1568 H 149.949 -0.0434661 -1.5864 0
M  V30 1569 H 149.97 2.22817 -3.08436 0
M  V30 1570 H 149.482 0.566948 -3.83937 0
M  V30 1571 H 147.583 2.68738 -2.5809 0
M  V30 1572 H 147.696 2.02162 -4.34359 0
M  V30 1573 H 146.06 1.16169 -2.26665 0
M  V30 1574 H 146.843 -0.035676 -3.43281 0
M  V30 1575 N 149.288 1.51039 0.449983 0
M  V30 1576 C 150.534 1.63322 1.20223 0
M  V30 1577 C 150.867 0.34241 1.91158 0
M  V30 1578 O 150.142 -0.657344 1.83055 0
M  V30 1579 C 150.425 2.82801 2.22925 0
M  V30 1580 C 150.278 4.21823 1.56157 0
M  V30 1581 C 151.597 2.97807 3.24035 0
M  V30 1582 H 148.716 0.594407 0.435718 0
M  V30 1583 H 151.358 1.83489 0.493136 0
M  V30 1584 H 149.508 2.65738 2.834 0
M  V30 1585 H 151.18 4.50526 0.991162 0
M  V30 1586 H 149.423 4.25105 0.864172 0
M  V30 1587 H 150.094 5.01391 2.30891 0
M  V30 1588 H 152.57 3.13497 2.73603 0
M  V30 1589 H 151.446 3.82992 3.93202 0
M  V30 1590 H 151.707 2.09328 3.89402 0
M  V30 1591 N 150.766 -0.704594 1.40972 0
M  V30 1592 C 151.698 -1.82974 1.38033 0
M  V30 1593 C 152.711 -1.60305 0.283931 0
M  V30 1594 O 153.9 -1.69975 0.545042 0
M  V30 1595 C 151 -3.19578 1.12795 0
M  V30 1596 C 150.173 -3.69352 2.34302 0
M  V30 1597 C 149.232 -4.84601 2.05058 0
M  V30 1598 O 148.258 -4.96682 2.7802 0
M  V30 1599 N 149.46 -5.71194 1.03528 0
M  V30 1600 H 152.225 -1.85991 2.35005 0
M  V30 1601 H 149.786 -0.886567 1.35468 0
M  V30 1602 H 151.778 -3.9429 0.911987 0
M  V30 1603 H 150.348 -3.11642 0.24452 0
M  V30 1604 H 149.568 -2.85649 2.71659 0
M  V30 1605 H 150.856 -3.99345 3.1528 0
M  V30 1606 H 150.254 -5.64054 0.431217 0
M  V30 1607 H 148.811 -6.45843 0.879205 0
M  V30 1608 N 152.244 -1.26651 -0.937939 0
M  V30 1609 C 153.154 -1.10276 -2.07066 0
M  V30 1610 C 154.17 -0.0354197 -1.73964 0
M  V30 1611 O 155.346 -0.239816 -1.99967 0
M  V30 1612 C 152.411 -0.740887 -3.38691 0
M  V30 1613 C 151.472 -1.88799 -3.85556 0
M  V30 1614 C 150.705 -1.54329 -5.10899 0
M  V30 1615 O 150.928 -0.446494 -5.6865 0
M  V30 1616 O 149.862 -2.37911 -5.52885 0
M  V30 1617 H 153.688 -2.05309 -2.23789 0
M  V30 1618 H 151.273 -1.05743 -1.0554 0
M  V30 1619 H 153.155 -0.55195 -4.1777 0
M  V30 1620 H 151.83 0.180022 -3.23199 0
M  V30 1621 H 150.737 -2.13191 -3.07409 0
M  V30 1622 H 152.07 -2.78874 -4.05574 0
M  V30 1623 N 153.722 1.14298 -1.08507 0
M  V30 1624 C 155.138 1.37347 -0.812901 0
M  V30 1625 C 155.338 1.93052 0.577325 0
M  V30 1626 O 154.394 2.14389 1.33393 0
M  V30 1627 C 155.707 2.33359 -1.89642 0
M  V30 1628 C 157.255 2.46996 -1.92255 0
M  V30 1629 C 157.73 3.46309 -2.99724 0
M  V30 1630 N 159.221 3.53853 -2.98902 0
M  V30 1631 C 159.956 4.3055 -3.787 0
M  V30 1632 N 159.452 5.10482 -4.6838 0
M  V30 1633 N 161.245 4.25757 -3.66998 0
M  V30 1634 H 153.396 0.764867 -1.9815 0
M  V30 1635 H 155.659 0.398966 -0.859959 0
M  V30 1636 H 155.365 1.99565 -2.89597 0
M  V30 1637 H 155.239 3.33274 -1.76659 0
M  V30 1638 H 157.626 2.80081 -0.929445 0
M  V30 1639 H 157.707 1.47039 -2.09316 0
M  V30 1640 H 157.351 3.13957 -3.99241 0
M  V30 1641 H 157.281 4.46049 -2.79907 0
M  V30 1642 H 159.772 2.96812 -2.33904 0
M  V30 1643 H 160.085 5.66284 -5.25873 0
M  V30 1644 H 158.43 5.09747 -4.72422 0
M  V30 1645 H 161.621 3.62383 -2.96304 0
M  V30 1646 H 161.794 4.85279 -4.29427 0
M  V30 1647 N 155.201 0.870884 1.31352 0
M  V30 1648 C 156.45 0.478408 1.95944 0
M  V30 1649 C 156.763 -0.974493 1.69597 0
M  V30 1650 O 157.969 -1.47316 2.28058 0
M  V30 1651 C 156.425 0.804609 3.50791 0
M  V30 1652 C 156.033 2.27433 3.85977 0
M  V30 1653 C 157.777 0.480648 4.2177 0
M  V30 1654 C 155.684 2.5429 5.33939 0
M  V30 1655 H 154.614 0.175175 0.733369 0
M  V30 1656 H 157.265 1.06391 1.4951 0
M  V30 1657 H 155.647 0.148347 3.95722 0
M  V30 1658 H 156.821 2.97373 3.52002 0
M  V30 1659 H 155.136 2.56442 3.28065 0
M  V30 1660 H 157.733 0.658519 5.30629 0
M  V30 1661 H 158.076 -0.578979 4.12254 0
M  V30 1662 H 158.609 1.09349 3.82476 0
M  V30 1663 H 155.348 3.58939 5.48491 0
M  V30 1664 H 154.868 1.88945 5.69263 0
M  V30 1665 H 156.547 2.39066 6.01212 0
M  V30 1666 N 156.679 -1.44442 0.630414 0
M  V30 1667 C 157.642 -2.29107 -0.0652523 0
M  V30 1668 C 158.642 -1.41002 -0.772995 0
M  V30 1669 O 159.832 -1.62881 -0.617692 0
M  V30 1670 C 156.964 -3.22564 -1.10296 0
M  V30 1671 H 158.157 -2.92103 0.679401 0
M  V30 1672 H 155.71 -1.51343 0.390517 0
M  V30 1673 H 156.445 -2.64416 -1.87762 0
M  V30 1674 H 156.23 -3.87491 -0.59941 0
M  V30 1675 H 157.72 -3.86167 -1.5895 0
M  V30 1676 N 158.157 -0.370918 -1.53173 0
M  V30 1677 C 159.104 0.473035 -2.259 0
M  V30 1678 C 160.074 1.07311 -1.26781 0
M  V30 1679 O 161.259 1.1046 -1.55574 0
M  V30 1680 C 158.399 1.60405 -3.05556 0
M  V30 1681 C 157.512 1.02863 -4.19575 0
M  V30 1682 C 156.647 2.12918 -4.86661 0
M  V30 1683 C 155.686 1.52869 -5.92704 0
M  V30 1684 N 154.823 2.56779 -6.53459 0
M  V30 1685 H 159.663 -0.153649 -2.97604 0
M  V30 1686 H 157.2 -0.0875946 -1.46839 0
M  V30 1687 H 159.158 2.27034 -3.50016 0
M  V30 1688 H 157.788 2.20131 -2.36097 0
M  V30 1689 H 156.84 0.252465 -3.79561 0
M  V30 1690 H 158.152 0.549642 -4.95762 0
M  V30 1691 H 157.306 2.87356 -5.34333 0
M  V30 1692 H 156.045 2.6417 -4.09958 0
M  V30 1693 H 155.05 0.769479 -5.44389 0
M  V30 1694 H 156.275 1.02435 -6.7133 0
M  V30 1695 H 154.221 3.07235 -5.79606 0
M  V30 1696 H 154.138 2.13583 -7.25202 0
M  V30 1697 H 155.406 3.30903 -7.05779 0
M  V30 1698 N 159.635 1.57281 -0.100228 0
M  V30 1699 C 160.875 1.96419 0.56558 0
M  V30 1700 C 161.239 0.981265 1.65031 0
M  V30 1701 O 162.44 1.26133 2.37369 0
M  V30 1702 C 160.711 3.39996 1.10171 0
M  V30 1703 S 162.27 4.01134 1.77867 0
M  V30 1704 H 159.088 0.68667 0.184406 0
M  V30 1705 H 161.69 1.94662 -0.180851 0
M  V30 1706 H 160.394 4.09296 0.300803 0
M  V30 1707 H 159.925 3.45361 1.88385 0
M  V30 1708 H 161.94 3.90358 3.06326 0
M  V30 1709 N 161.113 -0.173488 1.56642 0
M  V30 1710 C 162.063 -1.21941 1.92651 0
M  V30 1711 C 163.047 -1.39912 0.794577 0
M  V30 1712 O 164.239 -1.41919 1.05773 0
M  V30 1713 C 161.368 -2.55935 2.28806 0
M  V30 1714 C 160.454 -2.41667 3.48508 0
M  V30 1715 N 160.845 -1.9711 4.65813 0
M  V30 1716 C 159.143 -2.72499 3.53072 0
M  V30 1717 C 159.844 -1.95253 5.47952 0
M  V30 1718 N 158.82 -2.37575 4.88937 0
M  V30 1719 H 162.622 -0.866581 2.80834 0
M  V30 1720 H 160.136 -0.381776 1.57849 0
M  V30 1721 H 162.133 -3.31511 2.52797 0
M  V30 1722 H 160.793 -2.92022 1.41961 0
M  V30 1723 H 161.804 -1.67481 4.90072 0
M  V30 1724 H 158.481 -3.12639 2.767 0
M  V30 1725 H 159.871 -1.6252 6.51948 0
M  V30 1726 N 162.591 -1.51276 -0.441967 0
M  V30 1727 C 163.839 -1.63392 -1.18943 0
M  V30 1728 C 164.16 -0.350159 -1.9183 0
M  V30 1729 O 163.43 0.633784 -1.85364 0
M  V30 1730 H 162.01 -0.602164 -0.442049 0
M  V30 1731 H 164.672 -1.88186 -0.507165 0
M  V30 1732 H 163.768 -2.45934 -1.92154 0
M  V30 1733 N 164.069 0.697108 -1.41344 0
M  V30 1734 C 165.297 1.48593 -1.43972 0
M  V30 1735 C 165.712 1.88747 -0.0445612 0
M  V30 1736 O 165.069 1.56682 0.935785 0
M  V30 1737 C 165.12 2.74946 -2.34706 0
M  V30 1738 O 164.841 2.36484 -3.68791 0
M  V30 1739 C 166.342 3.687 -2.46121 0
M  V30 1740 H 163.562 0.457964 -0.490418 0
M  V30 1741 H 166.106 0.858429 -1.8561 0
M  V30 1742 H 164.261 3.33937 -1.9638 0
M  V30 1743 H 164.675 3.17918 -4.17167 0
M  V30 1744 H 166.149 4.54145 -3.13777 0
M  V30 1745 H 166.626 4.13081 -1.49199 0
M  V30 1746 H 167.232 3.15613 -2.85076 0
M  V30 1747 N 165.547 1.27147 0.931209 0
M  V30 1748 C 166.479 1.05364 2.03546 0
M  V30 1749 C 167.492 0.0108438 1.62796 0
M  V30 1750 O 168.681 0.25202 1.76712 0
M  V30 1751 C 165.781 0.575566 3.33977 0
M  V30 1752 C 164.954 1.68985 4.03439 0
M  V30 1753 C 164.013 1.20813 5.12143 0
M  V30 1754 O 163.039 1.90712 5.363 0
M  V30 1755 N 164.241 0.0618851 5.80467 0
M  V30 1756 H 167.006 2.00454 2.22796 0
M  V30 1757 H 164.567 1.18666 1.10136 0
M  V30 1758 H 166.559 0.237264 4.04004 0
M  V30 1759 H 165.129 -0.282016 3.11325 0
M  V30 1760 H 164.349 2.19861 3.27192 0
M  V30 1761 H 165.637 2.4378 4.46597 0
M  V30 1762 H 165.035 -0.521621 5.6329 0
M  V30 1763 H 163.592 -0.217264 6.51438 0
M  V30 1764 N 167.025 -1.13721 1.09112 0
M  V30 1765 C 168.265 -1.86576 0.834801 0
M  V30 1766 C 168.629 -1.81435 -0.628122 0
M  V30 1767 O 169.83 -2.49497 -1.00024 0
M  V30 1768 C 168.101 -3.30872 1.35124 0
M  V30 1769 S 169.66 -4.21257 1.22832 0
M  V30 1770 H 166.478 -0.643666 0.302017 0
M  V30 1771 H 169.08 -1.37085 1.39385 0
M  V30 1772 H 167.784 -3.32166 2.41027 0
M  V30 1773 H 167.315 -3.85423 0.788185 0
M  V30 1774 H 169.33 -4.95884 0.177191 0
M  V30 1775 N 168.503 -0.877838 -1.30888 0
M  V30 1776 C 169.751 -0.491723 -1.96027 0
M  V30 1777 C 170.072 0.960827 -1.69685 0
M  V30 1778 O 169.342 1.67462 -1.01654 0
M  V30 1779 H 167.922 -0.17885 -0.725273 0
M  V30 1780 H 170.584 -1.11935 -1.59551 0
M  V30 1781 H 169.68 -0.656016 -3.05128 0
M  V30 1782 N 169.982 1.44106 -0.638065 0
M  V30 1783 C 171.229 2.01978 -0.14533 0
M  V30 1784 C 171.557 1.50234 1.23532 0
M  V30 1785 O 170.812 0.679548 1.83523 0
M  V30 1786 C 171.111 3.5729 -0.0887327 0
M  V30 1787 C 170.777 4.28317 -1.40909 0
M  V30 1788 C 169.439 4.47437 -1.77069 0
M  V30 1789 C 171.791 4.6867 -2.28031 0
M  V30 1790 C 169.119 5.04171 -3.00047 0
M  V30 1791 C 171.471 5.26766 -3.50286 0
M  V30 1792 C 170.135 5.44104 -3.86661 0
M  V30 1793 H 169.405 0.739089 -0.0531801 0
M  V30 1794 H 172.052 1.72781 -0.825761 0
M  V30 1795 H 170.357 3.8594 0.675095 0
M  V30 1796 H 172.054 3.99807 0.309145 0
M  V30 1797 H 168.644 4.1377 -1.1177 0
M  V30 1798 H 172.828 4.53604 -2.01388 0
M  V30 1799 H 168.084 5.15782 -3.28298 0
M  V30 1800 H 172.258 5.56983 -4.18023 0
M  V30 1801 H 169.885 5.87832 -4.82034 0
M  V30 1802 N 171.46 0.379036 1.52974 0
M  V30 1803 C 172.7 -0.206325 2.03356 0
M  V30 1804 C 173.064 -1.44892 1.25977 0
M  V30 1805 O 174.265 -2.11078 1.66432 0
M  V30 1806 C 172.536 -0.477887 3.54191 0
M  V30 1807 S 174.095 -1.035 4.26419 0
M  V30 1808 H 170.913 -0.0590259 0.708546 0
M  V30 1809 H 173.515 0.525013 1.88319 0
M  V30 1810 H 172.219 0.433745 4.08101 0
M  V30 1811 H 171.75 -1.23793 3.73415 0
M  V30 1812 H 173.765 -2.31821 4.38718 0
M  V30 1813 N 172.938 -1.57226 0.108567 0
M  V30 1814 C 174.166 -1.99179 -0.559954 0
M  V30 1815 C 174.581 -0.988022 -1.60884 0
M  V30 1816 O 173.938 0.0205512 -1.82488 0
M  V30 1817 C 173.989 -3.41159 -1.19552 0
M  V30 1818 O 173.71 -4.37694 -0.188577 0
M  V30 1819 C 175.211 -3.98188 -1.94837 0
M  V30 1820 H 172.431 -0.654228 -0.149088 0
M  V30 1821 H 174.975 -2.03598 0.19183 0
M  V30 1822 H 173.13 -3.37711 -1.89815 0
M  V30 1823 H 173.544 -5.20469 -0.649014 0
M  V30 1824 H 175.018 -4.99644 -2.34648 0
M  V30 1825 H 175.495 -3.3675 -2.81951 0
M  V30 1826 H 176.101 -4.0515 -1.2936 0
M  V30 1827 N 174.416 0.165178 -1.56732 0
M  V30 1828 C 175.827 0.727046 -1.71962 0
M  V30 1829 C 176.178 1.82508 -0.720078 0
M  V30 1830 O 175.303 2.16082 0.117242 0
M  V30 1831 C 175.898 1.32559 -3.11791 0
M  V30 1832 C 174.457 1.83422 -3.28684 0
M  V30 1833 C 173.604 0.715567 -2.67908 0
M  V30 1834 H 176.555 -0.0602896 -1.58585 0
M  V30 1835 H 176.576 2.19533 -3.10782 0
M  V30 1836 H 176.088 0.526195 -3.84516 0
M  V30 1837 H 174.189 2.65986 -2.60926 0
M  V30 1838 H 174.302 1.97543 -4.36478 0
M  V30 1839 H 172.666 1.13758 -2.27884 0
M  V30 1840 H 173.449 -0.0720836 -3.43224 0
M  V30 1841 N 175.894 1.51508 0.433938 0
M  V30 1842 C 177.142 1.6402 1.18075 0
M  V30 1843 C 177.463 0.360328 1.91642 0
M  V30 1844 O 176.733 -0.623945 1.85698 0
M  V30 1845 H 175.313 0.6045 0.43885 0
M  V30 1846 H 177.975 1.88452 0.497178 0
M  V30 1847 H 177.071 2.46949 1.90847 0
M  V30 1848 N 177.372 -0.689602 1.41712 0
M  V30 1849 C 178.305 -1.81403 1.3845 0
M  V30 1850 C 179.283 -1.60653 0.250874 0
M  V30 1851 O 180.467 -1.83323 0.43874 0
M  V30 1852 C 177.594 -3.18176 1.1611 0
M  V30 1853 C 176.64 -3.57705 2.3227 0
M  V30 1854 S 177.473 -3.61827 3.94767 0
M  V30 1855 C 178.629 -5.01318 3.74742 0
M  V30 1856 H 178.862 -1.83893 2.33603 0
M  V30 1857 H 176.395 -0.858878 1.28307 0
M  V30 1858 H 178.353 -3.97132 1.03907 0
M  V30 1859 H 177.014 -3.13288 0.225668 0
M  V30 1860 H 176.207 -4.57082 2.12349 0
M  V30 1861 H 175.809 -2.86073 2.40911 0
M  V30 1862 H 178.101 -5.88986 3.34817 0
M  V30 1863 H 179.044 -5.26283 4.73743 0
M  V30 1864 H 179.452 -4.73138 3.07898 0
M  V30 1865 N 178.85 -1.27639 -0.924453 0
M  V30 1866 C 180.096 -1.14336 -1.67497 0
M  V30 1867 C 180.429 0.309465 -1.91718 0
M  V30 1868 O 179.704 1.22608 -1.50989 0
M  V30 1869 C 179.987 -1.93096 -3.0395 0
M  V30 1870 C 179.84 -3.46381 -2.8695 0
M  V30 1871 C 181.159 -1.73798 -4.0433 0
M  V30 1872 H 178.278 -0.416728 -0.607871 0
M  V30 1873 H 180.92 -1.56832 -1.07256 0
M  V30 1874 H 179.07 -1.56982 -3.55372 0
M  V30 1875 H 180.742 -3.92343 -2.42621 0
M  V30 1876 H 178.985 -3.72557 -2.22225 0
M  V30 1877 H 179.656 -3.96735 -3.83804 0
M  V30 1878 H 182.132 -2.05293 -3.61931 0
M  V30 1879 H 181.008 -2.31294 -4.97789 0
M  V30 1880 H 181.269 -0.686725 -4.36734 0
M  V30 1881 N 180.328 1.1314 -1.09713 0
M  V30 1882 C 181.261 2.17735 -0.683137 0
M  V30 1883 C 182.239 1.59582 0.311841 0
M  V30 1884 O 183.423 1.87298 0.212514 0
M  V30 1885 C 180.55 3.38699 -0.00684324 0
M  V30 1886 C 179.596 4.1546 -0.964102 0
M  V30 1887 S 180.429 4.74733 -2.47767 0
M  V30 1888 C 181.585 5.9904 -1.81387 0
M  V30 1889 H 181.818 2.52515 -1.56918 0
M  V30 1890 H 179.351 1.24484 -0.913404 0
M  V30 1891 H 181.309 4.08765 0.377044 0
M  V30 1892 H 179.97 3.02214 0.85589 0
M  V30 1893 H 179.163 5.02093 -0.43803 0
M  V30 1894 H 178.765 3.51066 -1.28953 0
M  V30 1895 H 181.057 6.67846 -1.13967 0
M  V30 1896 H 182 6.56261 -2.65947 0
M  V30 1897 H 182.408 5.4976 -1.28155 0
M  V30 1898 N 181.806 0.884767 1.30421 0
M  V30 1899 C 183.031 0.517288 2.00845 0
M  V30 1900 C 183.456 -0.886779 1.65885 0
M  V30 1901 O 182.814 -1.58768 0.875354 0
M  V30 1902 C 182.862 0.698994 3.5376 0
M  V30 1903 O 181.966 -0.255208 4.1161 0
M  V30 1904 H 181.307 0.203872 0.631927 0
M  V30 1905 H 183.837 1.19225 1.66272 0
M  V30 1906 H 183.847 0.597912 4.03595 0
M  V30 1907 H 182.522 1.72271 3.78544 0
M  V30 1908 H 181.099 -0.10784 3.72744 0
M  V30 1909 N 183.284 -1.43765 0.645699 0
M  V30 1910 C 184.533 -2.01116 0.153412 0
M  V30 1911 C 184.846 -1.51493 -1.23731 0
M  V30 1912 O 186.052 -2.01067 -1.8244 0
M  V30 1913 C 184.508 -3.59206 0.223473 0
M  V30 1914 C 184.116 -4.17823 1.61642 0
M  V30 1915 C 185.86 -4.23972 -0.211597 0
M  V30 1916 C 183.767 -5.68183 1.64081 0
M  V30 1917 H 182.697 -0.752093 0.0535891 0
M  V30 1918 H 185.348 -1.6482 0.806633 0
M  V30 1919 H 183.73 -3.92867 -0.497118 0
M  V30 1920 H 184.904 -3.95674 2.36176 0
M  V30 1921 H 183.219 -3.65399 1.99681 0
M  V30 1922 H 185.816 -5.34275 -0.213112 0
M  V30 1923 H 186.159 -3.97352 -1.24165 0
M  V30 1924 H 186.692 -3.95166 0.456988 0
M  V30 1925 H 183.431 -5.99559 2.64971 0
M  V30 1926 H 182.951 -5.9241 0.938611 0
M  V30 1927 H 184.63 -6.32085 1.3812 0
M  V30 1928 N 184.763 -0.387143 -1.52771 0
M  V30 1929 C 185.993 0.195585 -2.05672 0
M  V30 1930 C 186.401 1.41241 -1.25887 0
M  V30 1931 O 185.744 1.81265 -0.298081 0
M  V30 1932 C 185.806 0.632327 -3.53895 0
M  V30 1933 C 185.47 -0.470739 -4.54569 0
M  V30 1934 C 186.467 -1.32746 -5.02667 0
M  V30 1935 C 184.152 -0.637151 -4.98243 0
M  V30 1936 C 186.146 -2.33574 -5.93061 0
M  V30 1937 C 183.833 -1.64877 -5.88438 0
M  V30 1938 C 184.831 -2.49649 -6.35739 0
M  V30 1939 O 184.519 -3.49082 -7.24153 0
M  V30 1940 H 184.251 0.033658 -0.675162 0
M  V30 1941 H 186.805 -0.550221 -1.97893 0
M  V30 1942 H 185.035 1.43008 -3.59285 0
M  V30 1943 H 186.724 1.14048 -3.89548 0
M  V30 1944 H 187.49 -1.21019 -4.69659 0
M  V30 1945 H 183.369 0.0129567 -4.60998 0
M  V30 1946 H 186.913 -2.99777 -6.29904 0
M  V30 1947 H 182.81 -1.76643 -6.2086 0
M  V30 1948 H 183.578 -3.45065 -7.42208 0
M  V30 1949 N 186.241 1.57166 -0.116904 0
M  V30 1950 C 187.469 1.99473 0.549383 0
M  V30 1951 C 187.884 0.996541 1.60357 0
M  V30 1952 O 187.241 -0.0108731 1.82497 0
M  V30 1953 C 187.292 3.41788 1.17741 0
M  V30 1954 O 187.013 4.37788 0.165362 0
M  V30 1955 C 188.514 3.99216 1.92722 0
M  V30 1956 H 185.734 0.655009 0.145616 0
M  V30 1957 H 188.278 2.03494 -0.202625 0
M  V30 1958 H 186.433 3.38713 1.88021 0
M  V30 1959 H 186.847 5.20806 0.621403 0
M  V30 1960 H 188.321 5.00882 2.31995 0
M  V30 1961 H 188.798 3.3824 2.80161 0
M  V30 1962 H 189.404 4.0583 1.27209 0
M  V30 1963 N 187.719 -0.156864 1.56817 0
M  V30 1964 C 188.649 -1.19589 2.00551 0
M  V30 1965 C 189.63 -1.4536 0.883426 0
M  V30 1966 O 190.815 -1.56449 1.15054 0
M  V30 1967 C 187.945 -2.53143 2.37773 0
M  V30 1968 C 186.899 -2.41913 3.53075 0
M  V30 1969 C 186.225 -3.80088 3.76081 0
M  V30 1970 C 187.525 -1.91157 4.86062 0
M  V30 1971 H 189.219 -0.832293 2.87599 0
M  V30 1972 H 186.765 -0.398918 1.38364 0
M  V30 1973 H 188.718 -3.26047 2.66967 0
M  V30 1974 H 187.442 -2.91319 1.4765 0
M  V30 1975 H 186.101 -1.71462 3.24031 0
M  V30 1976 H 185.749 -4.15683 2.83225 0
M  V30 1977 H 185.449 -3.73439 4.53671 0
M  V30 1978 H 186.973 -4.54556 4.0769 0
M  V30 1979 H 188.387 -2.53846 5.14038 0
M  V30 1980 H 186.784 -1.95422 5.67389 0
M  V30 1981 H 187.854 -0.866673 4.77092 0
M  V30 1982 N 189.197 -1.51736 -0.425897 0
M  V30 1983 C 190.127 -1.76827 -1.52494 0
M  V30 1984 C 191.108 -0.618524 -1.58456 0
M  V30 1985 O 192.293 -0.862416 -1.74 0
M  V30 1986 C 189.423 -1.90374 -2.90474 0
M  V30 1987 C 188.377 -3.0588 -2.99369 0
M  V30 1988 C 187.703 -3.04625 -4.3944 0
M  V30 1989 C 189.003 -4.45644 -2.72394 0
M  V30 1990 H 190.697 -2.68855 -1.31748 0
M  V30 1991 H 188.243 -1.29372 -0.632362 0
M  V30 1992 H 190.196 -2.0651 -3.6733 0
M  V30 1993 H 188.92 -0.95004 -3.12477 0
M  V30 1994 H 187.579 -2.89467 -2.24954 0
M  V30 1995 H 187.227 -2.0701 -4.58428 0
M  V30 1996 H 186.927 -3.82195 -4.46319 0
M  V30 1997 H 188.451 -3.22869 -5.18255 0
M  V30 1998 H 189.865 -4.62348 -3.38979 0
M  V30 1999 H 188.262 -5.25006 -2.9067 0
M  V30 2000 H 189.332 -4.54893 -1.67929 0
M  V30 2001 N 190.675 0.682077 -1.42076 0
M  V30 2002 C 192.091 0.994324 -1.24841 0
M  V30 2003 C 192.291 2.0096 -0.147389 0
M  V30 2004 O 191.347 2.47822 0.483782 0
M  V30 2005 C 192.66 1.50607 -2.60265 0
M  V30 2006 C 194.208 1.62421 -2.6756 0
M  V30 2007 C 194.683 2.16994 -4.03333 0
M  V30 2008 N 196.174 2.24337 -4.0525 0
M  V30 2009 C 196.909 2.67621 -5.07116 0
M  V30 2010 N 196.405 3.1041 -6.19368 0
M  V30 2011 N 198.198 2.67305 -4.94474 0
M  V30 2012 H 190.349 0.00973908 -2.12398 0
M  V30 2013 H 192.612 0.0668593 -0.945639 0
M  V30 2014 H 192.318 0.834583 -3.41654 0
M  V30 2015 H 192.192 2.48602 -2.83684 0
M  V30 2016 H 194.579 2.28678 -1.86521 0
M  V30 2017 H 194.66 0.629352 -2.47937 0
M  V30 2018 H 194.304 1.51349 -4.84826 0
M  V30 2019 H 194.234 3.17258 -4.20304 0
M  V30 2020 H 196.725 1.94158 -3.24209 0
M  V30 2021 H 197.038 3.42103 -6.92954 0
M  V30 2022 H 195.383 3.08286 -6.22884 0
M  V30 2023 H 198.574 2.33233 -4.05857 0
M  V30 2024 H 198.747 3.00718 -5.73997 0
M  V30 2025 N 192.153 1.28127 0.917671 0
M  V30 2026 C 193.101 1.11569 2.04096 0
M  V30 2027 C 194.095 0.0360242 1.69362 0
M  V30 2028 O 195.301 0.194501 1.78946 0
M  V30 2029 H 191.676 0.344097 0.668656 0
M  V30 2030 H 193.647 2.06711 2.15205 0
M  V30 2031 C 192.396 0.790197 3.38602 0
M  V30 2032 H 191.719 1.61293 3.6582 0
M  V30 2033 H 193.159 0.714271 4.1794 0
M  V30 2034 C 191.618 -0.505897 3.3308 0
M  V30 2035 O 192.148 -1.53736 3.71117 0
M  V30 2036 N 190.354 -0.505193 2.86175 0
M  V30 2037 H 189.901 0.334621 2.55417 0
M  V30 2038 H 189.859 -1.37243 2.82863 0
M  V30 2039 N 193.631 -1.12557 1.10312 0
M  V30 2040 C 194.581 -2.16331 0.720076 0
M  V30 2041 C 195.565 -1.58616 -0.270115 0
M  V30 2042 O 196.757 -1.76823 -0.0790507 0
M  V30 2043 C 193.886 -3.42963 0.152113 0
M  V30 2044 C 192.972 -4.07663 1.16927 0
M  V30 2045 N 193.363 -4.47392 2.35953 0
M  V30 2046 C 191.661 -4.34425 1.0095 0
M  V30 2047 C 192.362 -4.97932 3.0073 0
M  V30 2048 N 191.338 -4.93358 2.28252 0
M  V30 2049 H 195.14 -2.44813 1.62616 0
M  V30 2050 H 192.654 -1.29449 0.980654 0
M  V30 2051 H 194.651 -4.16664 -0.14037 0
M  V30 2052 H 193.311 -3.1595 -0.748701 0
M  V30 2053 H 194.322 -4.39802 2.73486 0
M  V30 2054 H 190.999 -4.17177 0.164134 0
M  V30 2055 H 192.389 -5.38397 4.01969 0
M  V30 2056 N 195.109 -0.891671 -1.2995 0
M  V30 2057 C 196.52 -0.563104 -1.78006 0
M  V30 2058 C 196.871 0.920978 -1.73241 0
M  V30 2059 O 195.996 1.71987 -1.31337 0
M  V30 2060 C 196.591 -1.01539 -3.23226 0
M  V30 2061 C 195.15 -0.738124 -3.69092 0
M  V30 2062 C 194.297 -1.19461 -2.50249 0
M  V30 2063 H 197.248 -1.07522 -1.16725 0
M  V30 2064 H 197.269 -0.347217 -3.78912 0
M  V30 2065 H 196.781 -2.09555 -3.26662 0
M  V30 2066 H 194.882 0.329766 -3.71138 0
M  V30 2067 H 194.995 -1.33037 -4.60259 0
M  V30 2068 H 193.359 -0.613787 -2.47194 0
M  V30 2069 H 194.142 -2.28265 -2.56417 0
M  V30 2070 N 196.587 1.43421 -0.653314 0
M  V30 2071 C 197.497 2.34568 0.0388565 0
M  V30 2072 C 198.513 1.53888 0.81207 0
M  V30 2073 O 199.689 1.86539 0.759294 0
M  V30 2074 C 196.754 3.32167 0.993269 0
M  V30 2075 C 195.815 4.28751 0.216977 0
M  V30 2076 C 195.048 5.21688 1.12593 0
M  V30 2077 O 195.271 5.19052 2.36519 0
M  V30 2078 O 194.205 5.98919 0.598284 0
M  V30 2079 H 198.031 2.95251 -0.711386 0
M  V30 2080 H 195.616 1.43564 -0.413502 0
M  V30 2081 H 197.498 3.92183 1.54176 0
M  V30 2082 H 196.173 2.73987 1.72374 0
M  V30 2083 H 195.08 3.72215 -0.375101 0
M  V30 2084 H 196.413 4.89913 -0.473924 0
M  V30 2085 N 198.065 0.39524 1.52563 0
M  V30 2086 C 199.476 -0.0774719 1.86539 0
M  V30 2087 C 199.827 -1.45641 1.31466 0
M  V30 2088 O 198.952 -2.06459 0.648367 0
M  V30 2089 C 199.547 -0.147356 3.38479 0
M  V30 2090 C 198.106 -0.564373 3.72145 0
M  V30 2091 C 197.253 0.269919 2.75983 0
M  V30 2092 H 200.204 0.612876 1.46388 0
M  V30 2093 H 200.225 -0.965343 3.68051 0
M  V30 2094 H 199.737 0.856387 3.78534 0
M  V30 2095 H 197.838 -1.57527 3.37663 0
M  V30 2096 H 197.951 -0.318402 4.78041 0
M  V30 2097 H 196.315 -0.265696 2.5331 0
M  V30 2098 H 197.098 1.27175 3.18875 0
M  V30 2099 N 199.544 -1.57102 0.125237 0
M  V30 2100 C 200.772 -1.99761 -0.538797 0
M  V30 2101 C 201.187 -1.00503 -1.59827 0
M  V30 2102 O 200.544 0.00119474 -1.825 0
M  V30 2103 C 200.595 -3.42408 -1.15927 0
M  V30 2104 O 200.316 -4.37869 -0.142143 0
M  V30 2105 C 201.817 -4.00232 -1.90602 0
M  V30 2106 H 199.037 -0.655772 -0.14214 0
M  V30 2107 H 201.581 -2.03383 0.213413 0
M  V30 2108 H 199.736 -3.39706 -1.86223 0
M  V30 2109 H 200.15 -5.21128 -0.593775 0
M  V30 2110 H 201.624 -5.02105 -2.29335 0
M  V30 2111 H 202.101 -3.39721 -2.78363 0
M  V30 2112 H 202.707 -4.06499 -1.25055 0
M  V30 2113 N 201.022 0.148545 -1.56898 0
M  V30 2114 C 201.952 1.18524 -2.01182 0
M  V30 2115 C 202.933 1.4489 -0.891123 0
M  V30 2116 O 204.118 1.55836 -1.15882 0
M  V30 2117 C 201.248 2.51879 -2.39112 0
M  V30 2118 C 200.202 2.40038 -3.54353 0
M  V30 2119 C 199.528 3.78089 -3.78091 0
M  V30 2120 C 200.828 1.88577 -4.87069 0
M  V30 2121 H 202.522 0.817029 -2.88036 0
M  V30 2122 H 200.068 0.391575 -1.38574 0
M  V30 2123 H 202.021 3.24627 -2.68692 0
M  V30 2124 H 200.745 2.90532 -1.49193 0
M  V30 2125 H 199.404 1.69742 -3.24936 0
M  V30 2126 H 199.052 4.14175 -2.85426 0
M  V30 2127 H 198.752 3.71028 -4.55645 0
M  V30 2128 H 200.276 4.52387 -4.10095 0
M  V30 2129 H 201.69 2.51117 -5.15377 0
M  V30 2130 H 200.087 1.9241 -5.68417 0
M  V30 2131 H 201.157 0.84136 -4.77545 0
M  V30 2132 N 202.5 1.5196 0.417844 0
M  V30 2133 C 203.777 1.56146 1.17803 0
M  V30 2134 C 204.157 0.337275 2.08388 0
M  V30 2135 O 203.505 -0.676447 2.18258 0
M  V30 2136 C 203.715 2.88566 1.96293 0
M  V30 2137 C 205.063 3.41244 2.52662 0
M  V30 2138 O 206.087 2.90247 2.06483 0
M  V30 2139 O 204.946 4.30273 3.36938 0
M  V30 2140 H 202.04 0.628598 0.537395 0
M  V30 2141 H 204.586 1.64283 0.425331 0
M  V30 2142 H 203.358 3.69116 1.2988 0
M  V30 2143 H 202.981 2.83681 2.78587 0
M  V30 2144 N 203.978 -0.674533 1.42435 0
M  V30 2145 C 204.91 -1.80005 1.41883 0
M  V30 2146 C 205.923 -1.59667 0.31787 0
M  V30 2147 O 207.112 -1.68781 0.580973 0
M  V30 2148 C 204.212 -3.17114 1.19549 0
M  V30 2149 C 203.385 -3.64299 2.42084 0
M  V30 2150 C 202.444 -4.80142 2.15291 0
M  V30 2151 O 201.47 -4.90673 2.88493 0
M  V30 2152 N 202.672 -5.68869 1.1562 0
M  V30 2153 H 205.437 -1.80964 2.38898 0
M  V30 2154 H 202.998 -0.857633 1.37318 0
M  V30 2155 H 204.99 -3.92267 0.995417 0
M  V30 2156 H 203.56 -3.11053 0.310569 0
M  V30 2157 H 202.78 -2.79822 2.77657 0
M  V30 2158 H 204.068 -3.92567 3.23679 0
M  V30 2159 H 203.466 -5.63012 0.550765 0
M  V30 2160 H 202.023 -6.43833 1.016 0
M  V30 2161 N 205.456 -1.28612 -0.910864 0
M  V30 2162 C 206.386 -1.15326 -2.03032 0
M  V30 2163 C 207.367 -0.0502924 -1.70026 0
M  V30 2164 O 208.552 -0.227797 -1.92859 0
M  V30 2165 C 205.682 -0.817343 -3.37545 0
M  V30 2166 C 204.636 -1.8754 -3.84724 0
M  V30 2167 C 203.962 -1.39305 -5.16235 0
M  V30 2168 C 205.262 -3.28244 -4.06267 0
M  V30 2169 H 206.956 -2.08975 -2.14406 0
M  V30 2170 H 204.502 -1.00612 -1.03021 0
M  V30 2171 H 206.455 -0.711151 -4.15356 0
M  V30 2172 H 205.179 0.154846 -3.26233 0
M  V30 2173 H 203.838 -1.97079 -3.09121 0
M  V30 2174 H 203.486 -0.409846 -5.01328 0
M  V30 2175 H 203.186 -2.10057 -5.48771 0
M  V30 2176 H 204.71 -1.30014 -5.96598 0
M  V30 2177 H 206.124 -3.21611 -4.74594 0
M  V30 2178 H 204.521 -3.96855 -4.5014 0
M  V30 2179 H 205.591 -3.72048 -3.10979 0
M  V30 2180 N 206.934 1.1197 -1.10907 0
M  V30 2181 C 208.162 1.87402 -0.876824 0
M  V30 2182 C 208.577 1.79894 0.573025 0
M  V30 2183 O 207.934 1.17629 1.39534 0
M  V30 2184 C 207.985 3.36428 -1.32282 0
M  V30 2185 O 207.706 3.43765 -2.71582 0
M  V30 2186 C 209.207 4.28783 -1.12518 0
M  V30 2187 H 206.427 0.592793 -0.314384 0
M  V30 2188 H 208.971 1.41649 -1.47499 0
M  V30 2189 H 207.126 3.79706 -0.768229 0
M  V30 2190 H 207.54 4.3652 -2.90776 0
M  V30 2191 H 209.014 5.31613 -1.48633 0
M  V30 2192 H 209.491 4.39153 -0.0642394 0
M  V30 2193 H 210.097 3.91291 -1.66648 0
M  V30 2194 N 208.412 0.89855 1.29475 0
M  V30 2195 C 209.689 0.443416 1.90508 0
M  V30 2196 C 210.069 -1.07685 1.81569 0
M  V30 2197 O 209.417 -1.9182 1.24166 0
M  V30 2198 C 209.627 0.956708 3.35631 0
M  V30 2199 C 210.975 0.999728 4.12663 0
M  V30 2200 O 211.999 0.904299 3.4453 0
M  V30 2201 O 210.858 1.14289 5.34416 0
M  V30 2202 H 207.952 0.138025 0.815401 0
M  V30 2203 H 210.498 0.98834 1.37949 0
M  V30 2204 H 209.27 2.00067 3.36287 0
M  V30 2205 H 208.893 0.391728 3.95666 0
M  V30 2206 N 209.89 -1.43072 0.660911 0
M  V30 2207 C 210.853 -2.29194 -0.0166406 0
M  V30 2208 C 211.853 -1.42609 -0.742912 0
M  V30 2209 O 213.043 -1.64155 -0.583004 0
M  V30 2210 C 210.175 -3.24831 -1.0343 0
M  V30 2211 H 211.368 -2.90596 0.741208 0
M  V30 2212 H 208.921 -1.5048 0.422532 0
M  V30 2213 H 209.656 -2.68339 -1.82111 0
M  V30 2214 H 209.441 -3.88676 -0.517082 0
M  V30 2215 H 210.931 -3.89451 -1.50723 0
M  V30 2216 N 211.368 -0.403325 -1.52352 0
M  V30 2217 C 212.298 0.416205 -2.29761 0
M  V30 2218 C 213.279 1.05123 -1.33728 0
M  V30 2219 O 214.464 1.06134 -1.62632 0
M  V30 2220 C 211.594 1.53624 -3.11475 0
M  V30 2221 C 210.548 1.02653 -4.15507 0
M  V30 2222 C 209.874 2.23971 -4.85532 0
M  V30 2223 C 211.174 0.08463 -5.22231 0
M  V30 2224 H 212.868 -0.229701 -2.98518 0
M  V30 2225 H 210.414 -0.111913 -1.43564 0
M  V30 2226 H 212.367 2.1165 -3.64393 0
M  V30 2227 H 211.091 2.20994 -2.40477 0
M  V30 2228 H 209.75 0.46871 -3.63591 0
M  V30 2229 H 209.398 2.89883 -4.11068 0
M  V30 2230 H 209.098 1.90521 -5.55856 0
M  V30 2231 H 210.622 2.82614 -5.41259 0
M  V30 2232 H 212.036 0.573509 -5.70424 0
M  V30 2233 H 210.433 -0.160783 -5.99885 0
M  V30 2234 H 211.503 -0.86237 -4.7717 0
M  V30 2235 N 212.846 1.57033 -0.133567 0
M  V30 2236 C 214.094 1.953 0.519848 0
M  V30 2237 C 214.415 1.01866 1.66278 0
M  V30 2238 O 213.685 0.0776513 1.95746 0
M  V30 2239 H 212.265 0.721091 0.195032 0
M  V30 2240 H 214.927 1.93809 -0.205921 0
M  V30 2241 H 214.023 2.98695 0.904854 0
M  V30 2242 N 214.325 -0.140222 1.56975 0
M  V30 2243 C 215.573 -0.850005 1.83356 0
M  V30 2244 C 215.894 -1.81399 0.71551 0
M  V30 2245 O 215.164 -1.94136 -0.262294 0
M  V30 2246 H 213.744 -0.316886 0.676456 0
M  V30 2247 H 216.406 -0.132608 1.94448 0
M  V30 2248 H 215.502 -1.40814 2.78528 0
M  V30 2249 N 215.803 -1.52179 -0.40978 0
M  V30 2250 C 216.751 -1.76086 -1.51975 0
M  V30 2251 C 217.745 -0.627964 -1.57331 0
M  V30 2252 O 218.951 -0.809993 -1.60745 0
M  V30 2253 H 215.326 -0.556829 -0.505416 0
M  V30 2254 H 217.297 -2.69077 -1.28996 0
M  V30 2255 C 216.046 -1.92799 -2.8935 0
M  V30 2256 H 215.369 -2.79392 -2.85972 0
M  V30 2257 H 216.809 -2.13527 -3.66309 0
M  V30 2258 C 215.268 -0.694923 -3.29655 0
M  V30 2259 O 215.798 0.13751 -4.01465 0
M  V30 2260 N 214.004 -0.53101 -2.85707 0
M  V30 2261 H 213.551 -1.20952 -2.27439 0
M  V30 2262 H 213.509 0.292718 -3.13034 0
M  V30 2263 N 217.281 0.66697 -1.42791 0
M  V30 2264 C 218.211 1.79218 -1.49677 0
M  V30 2265 C 219.192 1.66405 -0.352623 0
M  V30 2266 O 220.377 1.85708 -0.567993 0
M  V30 2267 C 217.507 3.17565 -1.40605 0
M  V30 2268 C 216.461 3.45124 -2.53127 0
M  V30 2269 C 215.787 4.83127 -2.29112 0
M  V30 2270 C 217.087 3.41236 -3.95418 0
M  V30 2271 H 218.781 1.73713 -2.43853 0
M  V30 2272 H 216.327 0.83432 -1.17367 0
M  V30 2273 H 218.28 3.96022 -1.44029 0
M  V30 2274 H 217.004 3.23767 -0.429271 0
M  V30 2275 H 215.663 2.69031 -2.49034 0
M  V30 2276 H 215.311 4.85988 -1.29709 0
M  V30 2277 H 215.011 5.02528 -3.04531 0
M  V30 2278 H 216.535 5.63859 -2.34297 0
M  V30 2279 H 217.949 4.09651 -4.01073 0
M  V30 2280 H 216.346 3.72173 -4.70752 0
M  V30 2281 H 217.416 2.39665 -4.21532 0
M  V30 2282 N 218.759 1.29093 0.90403 0
M  V30 2283 C 219.999 1.18076 1.66845 0
M  V30 2284 C 220.363 -0.26436 1.90171 0
M  V30 2285 O 221.564 -0.497423 2.64157 0
M  V30 2286 C 219.835 1.96722 2.98388 0
M  V30 2287 S 221.394 2.0219 3.89441 0
M  V30 2288 H 218.212 0.421104 0.572881 0
M  V30 2289 H 220.814 1.63322 1.07453 0
M  V30 2290 H 219.518 3.00866 2.7912 0
M  V30 2291 H 219.049 1.52064 3.62823 0
M  V30 2292 H 221.064 1.13545 4.83034 0
M  V30 2293 N 220.237 -1.11381 1.11499 0
M  V30 2294 C 221.653 -1.35143 0.849031 0
M  V30 2295 C 221.853 -1.94515 -0.525938 0
M  V30 2296 O 220.909 -2.1785 -1.27662 0
M  V30 2297 C 222.222 -2.28249 1.95762 0
M  V30 2298 C 223.77 -2.41812 1.98736 0
M  V30 2299 C 224.245 -3.3824 3.088 0
M  V30 2300 N 225.736 -3.45803 3.08179 0
M  V30 2301 C 226.471 -4.20358 3.89982 0
M  V30 2302 N 225.967 -4.97884 4.8175 0
M  V30 2303 N 227.76 -4.15877 3.78157 0
M  V30 2304 H 219.911 -0.712062 2.00109 0
M  V30 2305 H 222.174 -0.376025 0.870235 0
M  V30 2306 H 221.88 -1.91817 2.94787 0
M  V30 2307 H 221.754 -3.28473 1.85433 0
M  V30 2308 H 224.141 -2.77518 1.00338 0
M  V30 2309 H 224.222 -1.41437 2.13141 0
M  V30 2310 H 223.866 -3.03261 4.07425 0
M  V30 2311 H 223.796 -4.38471 2.91635 0
M  V30 2312 H 226.287 -2.90506 2.41691 0
M  V30 2313 H 226.6 -5.52142 5.40702 0
M  V30 2314 H 224.945 -4.97043 4.85771 0
M  V30 2315 H 228.136 -3.544 3.05808 0
M  V30 2316 H 228.309 -4.73723 4.42143 0
M  V30 2317 N 221.715 -0.905404 -1.28997 0
M  V30 2318 C 222.955 -0.541232 -1.97104 0
M  V30 2319 C 223.319 0.896841 -1.69767 0
M  V30 2320 O 224.52 1.36817 -2.31375 0
M  V30 2321 C 222.791 -0.832134 -3.47578 0
M  V30 2322 S 224.35 -0.573127 -4.35041 0
M  V30 2323 H 221.168 -0.200576 -0.682122 0
M  V30 2324 H 223.77 -1.16906 -1.56694 0
M  V30 2325 H 222.474 -1.87687 -3.64968 0
M  V30 2326 H 222.005 -0.192636 -3.92928 0
M  V30 2327 H 224.02 0.579297 -4.92807 0
M  V30 2328 N 223.193 1.4272 -0.668489 0
M  V30 2329 C 224.421 2.05966 -0.196348 0
M  V30 2330 C 224.836 1.50191 1.14403 0
M  V30 2331 O 224.193 0.639208 1.7094 0
M  V30 2332 C 224.244 3.61314 -0.115815 0
M  V30 2333 O 223.965 4.1502 -1.40322 0
M  V30 2334 C 225.466 4.41663 0.380579 0
M  V30 2335 H 222.686 0.663954 -0.0969829 0
M  V30 2336 H 225.23 1.82966 -0.913446 0
M  V30 2337 H 223.385 3.83448 0.551931 0
M  V30 2338 H 223.799 5.08832 -1.27243 0
M  V30 2339 H 225.273 5.5065 0.385848 0
M  V30 2340 H 225.75 4.15792 1.41471 0
M  V30 2341 H 226.356 4.24534 -0.255209 0
M  V30 2342 N 224.671 0.411399 1.52136 0
M  V30 2343 C 225.919 -0.163322 2.01439 0
M  V30 2344 C 226.24 -1.45453 1.29879 0
M  V30 2345 O 225.51 -1.91225 0.4254 0
M  V30 2346 H 224.09 -0.0633447 0.744309 0
M  V30 2347 H 226.752 0.548161 1.87033 0
M  V30 2348 H 225.848 -0.357817 3.10042 0
M  V30 2349 N 226.149 -1.5696 0.141893 0
M  V30 2350 C 227.379 -2.00031 -0.516828 0
M  V30 2351 C 227.787 -1.02091 -1.59293 0
M  V30 2352 O 227.13 -0.00909657 -1.83698 0
M  V30 2353 C 227.192 -3.39534 -1.1814 0
M  V30 2354 C 226.856 -4.56313 -0.250513 0
M  V30 2355 C 227.853 -5.17295 0.519839 0
M  V30 2356 C 225.538 -5.02061 -0.154907 0
M  V30 2357 C 227.532 -6.2243 1.3733 0
M  V30 2358 C 225.219 -6.07053 0.702161 0
M  V30 2359 C 226.217 -6.67106 1.46487 0
M  V30 2360 O 225.905 -7.70066 2.30767 0
M  V30 2361 H 225.637 -0.661451 -0.139493 0
M  V30 2362 H 228.191 -2.04086 0.231926 0
M  V30 2363 H 226.421 -3.32302 -1.97769 0
M  V30 2364 H 228.11 -3.66745 -1.73933 0
M  V30 2365 H 228.876 -4.82852 0.45598 0
M  V30 2366 H 224.755 -4.5505 -0.7383 0
M  V30 2367 H 228.299 -6.69233 1.96909 0
M  V30 2368 H 224.196 -6.40923 0.76733 0
M  V30 2369 H 224.964 -7.87264 2.23959 0
M  V30 2370 N 227.627 0.131896 -1.57047 0
M  V30 2371 C 229.043 0.485031 -1.52051 0
M  V30 2372 C 229.243 1.82563 -0.85281 0
M  V30 2373 O 228.299 2.48817 -0.429694 0
M  V30 2374 C 229.612 0.481409 -2.96821 0
M  V30 2375 C 231.16 0.565868 -3.07842 0
M  V30 2376 C 231.635 0.592762 -4.54148 0
M  V30 2377 N 233.126 0.654564 -4.58552 0
M  V30 2378 C 233.861 0.696608 -5.69153 0
M  V30 2379 N 233.357 0.697078 -6.89284 0
M  V30 2380 N 235.15 0.738639 -5.57226 0
M  V30 2381 H 227.301 -0.746664 -1.98843 0
M  V30 2382 H 229.564 -0.273999 -0.90754 0
M  V30 2383 H 229.27 -0.435731 -3.4899 0
M  V30 2384 H 229.144 1.3139 -3.53577 0
M  V30 2385 H 231.531 1.47343 -2.55684 0
M  V30 2386 H 231.612 -0.29406 -2.54104 0
M  V30 2387 H 231.256 -0.310701 -5.06949 0
M  V30 2388 H 231.186 1.46939 -5.05684 0
M  V30 2389 H 233.677 0.660887 -3.72076 0
M  V30 2390 H 233.99 0.731426 -7.69331 0
M  V30 2391 H 232.335 0.66471 -6.91814 0
M  V30 2392 H 235.526 0.735545 -4.62285 0
M  V30 2393 H 235.699 0.767938 -6.43434 0
M  V30 2394 N 229.106 1.52395 0.401703 0
M  V30 2395 C 230.517 1.58899 0.980202 0
M  V30 2396 C 230.868 0.434032 1.91339 0
M  V30 2397 O 229.993 -0.444619 2.11783 0
M  V30 2398 C 230.588 2.87994 1.78451 0
M  V30 2399 C 229.147 2.96953 2.31292 0
M  V30 2400 C 228.294 2.53903 1.11483 0
M  V30 2401 H 231.245 1.57657 0.18168 0
M  V30 2402 H 231.266 2.73765 2.64259 0
M  V30 2403 H 230.778 3.72035 1.10506 0
M  V30 2404 H 228.879 2.17422 3.02586 0
M  V30 2405 H 228.992 4.01344 2.61649 0
M  V30 2406 H 227.356 2.07925 1.47104 0
M  V30 2407 H 228.139 3.40326 0.450928 0
M  V30 2408 N 230.584 -0.659388 1.43143 0
M  V30 2409 C 231.833 -1.41518 1.43721 0
M  V30 2410 C 232.146 -1.95499 0.0628176 0
M  V30 2411 O 233.352 -2.71446 -0.0539683 0
M  V30 2412 C 231.808 -2.5608 2.52885 0
M  V30 2413 C 231.416 -2.08733 3.96402 0
M  V30 2414 C 233.16 -3.3349 2.62649 0
M  V30 2415 C 231.067 -3.20469 4.97045 0
M  V30 2416 H 229.997 -0.531705 0.534608 0
M  V30 2417 H 232.648 -0.712343 1.69109 0
M  V30 2418 H 231.03 -3.28805 2.20688 0
M  V30 2419 H 232.204 -1.43059 4.3803 0
M  V30 2420 H 230.519 -1.44219 3.90627 0
M  V30 2421 H 233.116 -4.16734 3.35017 0
M  V30 2422 H 233.459 -3.8111 1.67513 0
M  V30 2423 H 233.992 -2.67842 2.94118 0
M  V30 2424 H 230.731 -2.77824 5.93712 0
M  V30 2425 H 230.251 -3.84874 4.60034 0
M  V30 2426 H 231.93 -3.85698 5.19467 0
M  V30 2427 N 232.062 -1.29571 -0.897171 0
M  V30 2428 C 233.311 -1.1706 -1.64256 0
M  V30 2429 C 233.624 0.276476 -1.93636 0
M  V30 2430 O 234.83 0.52294 -2.66416 0
M  V30 2431 C 233.286 -2.0475 -2.95982 0
M  V30 2432 C 232.894 -3.54295 -2.74187 0
M  V30 2433 C 234.638 -2.0097 -3.73914 0
M  V30 2434 C 232.545 -4.34081 -4.01656 0
M  V30 2435 H 231.475 -0.43452 -0.616205 0
M  V30 2436 H 234.126 -1.54229 -0.994268 0
M  V30 2437 H 232.508 -1.60452 -3.62038 0
M  V30 2438 H 233.682 -4.06662 -2.1671 0
M  V30 2439 H 231.997 -3.59773 -2.09648 0
M  V30 2440 H 234.594 -2.57838 -4.68427 0
M  V30 2441 H 234.937 -0.990273 -4.0435 0
M  V30 2442 H 235.47 -2.43325 -3.14703 0
M  V30 2443 H 232.209 -5.36671 -3.76384 0
M  V30 2444 H 231.729 -3.86483 -4.58684 0
M  V30 2445 H 233.408 -4.44877 -4.69781 0
M  V30 2446 N 233.54 1.10788 -1.12088 0
M  V30 2447 C 234.817 1.79136 -0.785476 0
M  V30 2448 C 235.197 1.98246 0.725377 0
M  V30 2449 O 234.545 1.57258 1.65778 0
M  V30 2450 C 234.755 3.12375 -1.55636 0
M  V30 2451 C 236.103 3.8731 -1.74001 0
M  V30 2452 O 237.127 3.22085 -1.52117 0
M  V30 2453 O 235.986 5.04369 -2.10415 0
M  V30 2454 H 233.08 0.776226 -0.285311 0
M  V30 2455 H 235.626 1.1747 -1.2247 0
M  V30 2456 H 234.398 2.93863 -2.5838 0
M  V30 2457 H 234.021 3.81758 -1.11114 0
M  V30 2458 N 235.018 0.912232 1.28515 0
M  V30 2459 C 235.981 0.404223 2.25607 0
M  V30 2460 C 236.981 -0.468602 1.53821 0
M  V30 2461 O 238.171 -0.271873 1.72065 0
M  V30 2462 C 235.303 -0.420653 3.38295 0
M  V30 2463 H 236.496 1.26188 2.7206 0
M  V30 2464 H 234.049 0.691495 1.40171 0
M  V30 2465 H 234.784 -1.29777 2.97201 0
M  V30 2466 H 234.569 0.204935 3.91564 0
M  V30 2467 H 236.059 -0.766971 4.10496 0
M  V30 2468 N 236.496 -1.42363 0.676048 0
M  V30 2469 C 237.736 -2.03392 0.20273 0
M  V30 2470 C 238.1 -1.52306 -1.16906 0
M  V30 2471 O 239.301 -2.05129 -1.73711 0
M  V30 2472 C 237.572 -3.56614 0.236947 0
M  V30 2473 S 239.131 -4.38489 -0.165186 0
M  V30 2474 H 235.949 -0.70611 0.0832418 0
M  V30 2475 H 238.551 -1.74093 0.88948 0
M  V30 2476 H 237.255 -3.91293 1.23767 0
M  V30 2477 H 236.786 -3.90587 -0.469596 0
M  V30 2478 H 238.801 -4.76093 -1.39822 0
M  V30 2479 N 237.974 -0.419461 -1.51915 0
M  V30 2480 C 238.921 0.400927 -2.27291 0
M  V30 2481 C 239.891 1.03224 -1.30131 0
M  V30 2482 O 241.076 1.05455 -1.59009 0
M  V30 2483 C 238.216 1.50603 -3.10504 0
M  V30 2484 C 237.329 0.89462 -4.22635 0
M  V30 2485 C 236.464 1.97328 -4.93189 0
M  V30 2486 C 235.503 1.33935 -5.97267 0
M  V30 2487 N 234.64 2.3586 -6.61298 0
M  V30 2488 H 239.48 -0.248251 -2.96964 0
M  V30 2489 H 237.017 -0.134266 -1.46486 0
M  V30 2490 H 238.975 2.15783 -3.57062 0
M  V30 2491 H 237.605 2.12509 -2.42981 0
M  V30 2492 H 236.657 0.131583 -3.80172 0
M  V30 2493 H 237.969 0.391641 -4.9726 0
M  V30 2494 H 237.123 2.70211 -5.43204 0
M  V30 2495 H 235.862 2.50994 -4.18155 0
M  V30 2496 H 234.867 0.595896 -5.46561 0
M  V30 2497 H 236.092 0.810252 -6.74249 0
M  V30 2498 H 234.038 2.88639 -5.89087 0
M  V30 2499 H 233.955 1.90403 -7.3163 0
M  V30 2500 H 235.223 3.08282 -7.15949 0
M  V30 2501 N 239.452 1.56882 -0.150215 0
M  V30 2502 C 240.68 2.00593 0.506948 0
M  V30 2503 C 241.095 1.03033 1.58208 0
M  V30 2504 O 240.452 0.0278396 1.82479 0
M  V30 2505 C 240.503 3.44209 1.10465 0
M  V30 2506 O 240.224 4.3804 0.0724636 0
M  V30 2507 C 241.725 4.03214 1.84211 0
M  V30 2508 H 238.945 0.65795 0.13169 0
M  V30 2509 H 241.489 2.03018 -0.245743 0
M  V30 2510 H 239.644 3.42625 1.80795 0
M  V30 2511 H 240.058 5.22007 0.510793 0
M  V30 2512 H 241.532 5.0569 2.21318 0
M  V30 2513 H 242.009 3.44107 2.72923 0
M  V30 2514 H 242.615 4.08437 1.18572 0
M  V30 2515 N 240.93 -0.123565 1.57115 0
M  V30 2516 C 242.177 -0.832153 1.84612 0
M  V30 2517 C 242.505 -1.80093 0.734627 0
M  V30 2518 O 241.76 -1.93766 -0.27442 0
M  V30 2519 C 242.059 -1.62016 3.18568 0
M  V30 2520 C 241.725 -0.796084 4.43817 0
M  V30 2521 C 240.387 -0.568816 4.77826 0
M  V30 2522 C 242.739 -0.221364 5.2073 0
M  V30 2523 C 240.067 0.243499 5.86194 0
M  V30 2524 C 242.419 0.578117 6.29953 0
M  V30 2525 C 241.083 0.815744 6.62497 0
M  V30 2526 H 240.353 -0.304507 0.675542 0
M  V30 2527 H 243 -0.0947248 1.91266 0
M  V30 2528 H 241.305 -2.42837 3.0747 0
M  V30 2529 H 243.002 -2.17231 3.37064 0
M  V30 2530 H 239.592 -0.983307 4.17168 0
M  V30 2531 H 243.776 -0.384173 4.94811 0
M  V30 2532 H 239.032 0.436871 6.09837 0
M  V30 2533 H 243.206 1.03046 6.88734 0
M  V30 2534 H 240.833 1.44701 7.46301 0
M  V30 2535 N 242.408 -1.52605 -0.393616 0
M  V30 2536 C 243.648 -1.6911 -1.1481 0
M  V30 2537 C 244.012 -0.41969 -1.87357 0
M  V30 2538 O 245.213 -0.461034 -2.64817 0
M  V30 2539 C 243.484 -2.88909 -2.10395 0
M  V30 2540 S 245.043 -3.25977 -2.93742 0
M  V30 2541 H 241.861 -0.595337 -0.38871 0
M  V30 2542 H 244.463 -1.90641 -0.433178 0
M  V30 2543 H 243.167 -3.79672 -1.55812 0
M  V30 2544 H 242.698 -2.69698 -2.86403 0
M  V30 2545 H 244.713 -2.75806 -4.12487 0
M  V30 2546 N 243.887 0.651787 -1.4349 0
M  V30 2547 C 244.834 1.76462 -1.4876 0
M  V30 2548 C 245.804 1.62641 -0.337189 0
M  V30 2549 O 246.989 1.82864 -0.544544 0
M  V30 2550 C 244.129 3.14623 -1.41796 0
M  V30 2551 C 243.242 3.39568 -2.67053 0
M  V30 2552 C 242.377 4.67585 -2.52068 0
M  V30 2553 C 241.416 4.85639 -3.72587 0
M  V30 2554 N 240.553 6.04915 -3.56402 0
M  V30 2555 H 245.393 1.71293 -2.43849 0
M  V30 2556 H 242.93 0.835889 -1.21043 0
M  V30 2557 H 244.888 3.94496 -1.35753 0
M  V30 2558 H 243.518 3.18859 -0.50288 0
M  V30 2559 H 242.57 2.53783 -2.8337 0
M  V30 2560 H 243.882 3.48795 -3.56572 0
M  V30 2561 H 243.036 5.55586 -2.4374 0
M  V30 2562 H 241.775 4.60681 -1.60075 0
M  V30 2563 H 240.78 3.96073 -3.81321 0
M  V30 2564 H 242.005 4.94372 -4.65589 0
M  V30 2565 H 239.951 5.9914 -2.67146 0
M  V30 2566 H 239.868 6.15106 -4.39524 0
M  V30 2567 H 241.136 6.95533 -3.51929 0
M  V30 2568 N 245.365 1.30045 0.890287 0
M  V30 2569 C 246.593 1.21472 1.67487 0
M  V30 2570 C 247.008 -0.223241 1.87476 0
M  V30 2571 O 246.365 -1.14828 1.41847 0
M  V30 2572 C 246.416 1.93394 3.05419 0
M  V30 2573 O 246.137 3.31576 2.86337 0
M  V30 2574 C 247.638 1.91414 3.99844 0
M  V30 2575 H 244.858 0.420604 0.522813 0
M  V30 2576 H 247.402 1.7158 1.11268 0
M  V30 2577 H 245.557 1.47099 3.58386 0
M  V30 2578 H 245.971 3.67929 3.73802 0
M  V30 2579 H 247.445 2.46285 4.94012 0
M  V30 2580 H 247.922 0.891833 4.3005 0
M  V30 2581 H 248.528 2.37496 3.52811 0
M  V30 2582 N 246.843 -1.10192 1.12674 0
M  V30 2583 C 248.068 -1.86523 0.906853 0
M  V30 2584 C 248.493 -1.80221 -0.538711 0
M  V30 2585 O 247.851 -1.17396 -1.38158 0
M  V30 2586 C 247.899 -3.32758 1.3894 0
M  V30 2587 O 247.003 -4.08449 0.5695 0
M  V30 2588 H 246.344 -0.578678 0.325619 0
M  V30 2589 H 248.874 -1.39203 1.49946 0
M  V30 2590 H 248.884 -3.83608 1.38958 0
M  V30 2591 H 247.559 -3.36661 2.44197 0
M  V30 2592 H 246.136 -3.67427 0.636528 0
M  V30 2593 N 248.321 -0.919034 -1.28029 0
M  V30 2594 C 249.569 -0.553838 -1.94363 0
M  V30 2595 C 249.89 0.906357 -1.72656 0
M  V30 2596 O 249.16 1.64143 -1.0693 0
M  V30 2597 H 247.74 -0.201834 -0.719216 0
M  V30 2598 H 250.402 -1.16954 -1.55909 0
M  V30 2599 H 249.498 -0.752758 -3.02886 0
M  V30 2600 N 249.799 1.42003 -0.683588 0
M  V30 2601 C 251.039 2.03282 -0.213513 0
M  V30 2602 C 251.403 1.52924 1.16097 0
M  V30 2603 O 252.604 2.06048 1.7262 0
M  V30 2604 C 250.875 3.56483 -0.255856 0
M  V30 2605 S 252.434 4.3857 0.14193 0
M  V30 2606 H 249.252 0.705659 -0.0869853 0
M  V30 2607 H 251.854 1.73619 -0.8987 0
M  V30 2608 H 250.558 3.90631 -1.25841 0
M  V30 2609 H 250.089 3.90831 0.448875 0
M  V30 2610 H 252.104 4.76828 1.37295 0
M  V30 2611 N 251.277 0.427512 1.51691 0
M  V30 2612 C 252.517 -0.141524 2.03909 0
M  V30 2613 C 252.881 -1.40811 1.30523 0
M  V30 2614 O 254.082 -2.05676 1.73063 0
M  V30 2615 C 252.353 -0.364962 3.55532 0
M  V30 2616 S 253.912 -0.898812 4.29496 0
M  V30 2617 H 250.73 -0.0364542 0.710065 0
M  V30 2618 H 253.332 0.584659 1.86553 0
M  V30 2619 H 252.036 0.56336 4.06515 0
M  V30 2620 H 251.567 -1.1185 3.77164 0
M  V30 2621 H 253.582 -2.17747 4.45871 0
M  V30 2622 N 252.755 -1.56801 0.158532 0
M  V30 2623 C 253.687 -2.14488 -0.807923 0
M  V30 2624 C 254.7 -1.09721 -1.20271 0
M  V30 2625 O 255.889 -1.36956 -1.14478 0
M  V30 2626 C 252.989 -2.66217 -2.09718 0
M  V30 2627 C 252.162 -3.95507 -1.86796 0
M  V30 2628 C 251.221 -4.3243 -2.99818 0
M  V30 2629 O 250.247 -5.00543 -2.71008 0
M  V30 2630 N 251.449 -3.92947 -4.27285 0
M  V30 2631 H 254.214 -2.98042 -0.314816 0
M  V30 2632 H 251.775 -1.61881 -0.0246692 0
M  V30 2633 H 253.767 -2.87924 -2.84398 0
M  V30 2634 H 252.337 -1.87324 -2.50257 0
M  V30 2635 H 251.557 -3.82309 -0.96089 0
M  V30 2636 H 252.845 -4.79972 -1.68833 0
M  V30 2637 H 252.243 -3.38087 -4.53557 0
M  V30 2638 H 250.8 -4.19681 -4.9871 0
M  V30 2639 N 254.233 0.115231 -1.57178 0
M  V30 2640 C 255.458 0.840354 -1.89612 0
M  V30 2641 C 255.883 1.72464 -0.750845 0
M  V30 2642 O 255.241 1.78826 0.298478 0
M  V30 2643 C 255.289 1.64654 -3.20814 0
M  V30 2644 O 254.393 2.7538 -3.06985 0
M  V30 2645 H 253.734 0.232158 -0.622092 0
M  V30 2646 H 256.264 0.0964977 -2.04372 0
M  V30 2647 H 256.274 2.03499 -3.53627 0
M  V30 2648 H 254.949 0.997416 -4.03763 0
M  V30 2649 H 253.526 2.3971 -2.85646 0
M  V30 2650 N 255.711 1.52812 0.385517 0
M  V30 2651 C 256.658 1.77838 1.47113 0
M  V30 2652 C 257.628 0.621757 1.54024 0
M  V30 2653 O 258.813 0.861846 1.70226 0
M  V30 2654 C 255.953 1.95618 2.84302 0
M  V30 2655 C 255.066 3.23316 2.86515 0
M  V30 2656 C 254.201 3.31394 4.15152 0
M  V30 2657 C 253.24 4.53201 4.1143 0
M  V30 2658 N 252.377 4.58542 5.3168 0
M  V30 2659 H 257.217 2.70482 1.25073 0
M  V30 2660 H 254.754 1.34006 0.606692 0
M  V30 2661 H 256.712 2.03912 3.63972 0
M  V30 2662 H 255.342 1.06331 3.04784 0
M  V30 2663 H 254.394 3.24076 1.99195 0
M  V30 2664 H 255.706 4.13045 2.79634 0
M  V30 2665 H 254.86 3.3889 5.03228 0
M  V30 2666 H 253.599 2.39645 4.24761 0
M  V30 2667 H 252.604 4.45827 3.21742 0
M  V30 2668 H 253.829 5.46271 4.03442 0
M  V30 2669 H 251.775 3.69686 5.41912 0
M  V30 2670 H 251.692 5.42148 5.26889 0
M  V30 2671 H 252.96 4.70296 6.21644 0
M  V30 2672 N 257.189 -0.644168 1.43834 0
M  V30 2673 C 258.099 -1.78563 1.52159 0
M  V30 2674 C 259.115 -1.69147 0.408069 0
M  V30 2675 O 260.291 -1.90156 0.663524 0
M  V30 2676 C 257.356 -3.14888 1.45073 0
M  V30 2677 C 256.417 -3.36034 2.6717 0
M  V30 2678 C 255.65 -4.65855 2.60413 0
M  V30 2679 O 255.873 -5.45805 1.65689 0
M  V30 2680 O 254.807 -4.88918 3.5106 0
M  V30 2681 H 258.633 -1.74494 2.48567 0
M  V30 2682 H 256.218 -0.80378 1.25935 0
M  V30 2683 H 258.1 -3.96179 1.43597 0
M  V30 2684 H 256.775 -3.19528 0.518037 0
M  V30 2685 H 255.682 -2.54472 2.74217 0
M  V30 2686 H 257.015 -3.36247 3.59442 0
M  V30 2687 N 258.668 -1.30515 -0.883378 0
M  V30 2688 C 259.616 -1.16941 -2.01066 0
M  V30 2689 C 260.61 -0.0809148 -1.69207 0
M  V30 2690 O 261.816 -0.241877 -1.78367 0
M  V30 2691 H 258.191 -0.361705 -0.659298 0
M  V30 2692 H 260.162 -2.12344 -2.09649 0
M  V30 2693 C 258.911 -0.879694 -3.36388 0
M  V30 2694 H 258.234 -1.70936 -3.61415 0
M  V30 2695 H 259.674 -0.82483 -4.159 0
M  V30 2696 C 258.133 0.417409 -3.34304 0
M  V30 2697 O 258.663 1.43843 -3.75063 0
M  V30 2698 N 256.869 0.429141 -2.87414 0
M  V30 2699 H 256.416 -0.402222 -2.5444 0
M  V30 2700 H 256.374 1.29696 -2.86403 0
M  V30 2701 N 260.146 1.09593 -1.13257 0
M  V30 2702 C 261.394 1.81375 -0.891492 0
M  V30 2703 C 261.715 1.86049 0.584009 0
M  V30 2704 O 260.985 1.34481 1.42449 0
M  V30 2705 H 259.565 0.671708 -0.326828 0
M  V30 2706 H 262.227 1.3256 -1.42877 0
M  V30 2707 H 261.323 2.84612 -1.28071 0
M  V30 2708 N 261.624 0.925811 1.2754 0
M  V30 2709 C 262.87 0.566092 1.94739 0
M  V30 2710 C 263.203 -0.890057 1.72603 0
M  V30 2711 O 262.478 -1.63467 1.05399 0
M  V30 2712 C 262.761 0.89054 3.48915 0
M  V30 2713 C 262.614 2.4003 3.80402 0
M  V30 2714 C 263.933 0.395101 4.38323 0
M  V30 2715 H 261.052 0.20714 0.707292 0
M  V30 2716 H 263.694 1.15725 1.50691 0
M  V30 2717 H 261.844 0.387452 3.86563 0
M  V30 2718 H 263.516 2.97494 3.52555 0
M  V30 2719 H 261.759 2.85028 3.2702 0
M  V30 2720 H 262.43 2.57785 4.8811 0
M  V30 2721 H 264.906 0.826241 4.07814 0
M  V30 2722 H 263.782 0.651086 5.45025 0
M  V30 2723 H 264.043 -0.704798 4.36446 0
M  V30 2724 N 263.102 -1.41638 0.69111 0
M  V30 2725 C 264.342 -2.03166 0.224291 0
M  V30 2726 C 264.706 -1.53537 -1.15284 0
M  V30 2727 O 265.907 -2.0696 -1.71525 0
M  V30 2728 C 264.178 -3.56342 0.274758 0
M  V30 2729 S 265.737 -4.3864 -0.118669 0
M  V30 2730 H 262.555 -0.705188 0.0907263 0
M  V30 2731 H 265.157 -1.7314 0.907895 0
M  V30 2732 H 263.861 -3.89958 1.2791 0
M  V30 2733 H 263.392 -3.91063 -0.428142 0
M  V30 2734 H 265.407 -4.77549 -1.34764 0
M  V30 2735 N 264.58 -0.43555 -1.51462 0
M  V30 2736 C 265.82 0.130708 -2.03982 0
M  V30 2737 C 266.184 1.40117 -1.31268 0
M  V30 2738 O 267.385 2.04755 -1.74152 0
M  V30 2739 C 265.656 0.346102 -3.5572 0
M  V30 2740 S 267.215 0.876022 -4.29967 0
M  V30 2741 H 264.033 0.0326881 -0.710248 0
M  V30 2742 H 266.635 -0.594544 -1.8624 0
M  V30 2743 H 265.339 -0.584911 -4.0621 0
M  V30 2744 H 264.87 1.09849 -3.77752 0
M  V30 2745 H 266.885 2.15379 -4.47019 0
M  V30 2746 N 266.058 1.56714 -0.166846 0
M  V30 2747 C 266.988 2.20754 0.760913 0
M  V30 2748 C 267.969 1.16178 1.24244 0
M  V30 2749 O 269.154 1.44592 1.29641 0
M  V30 2750 C 266.284 2.84478 1.99223 0
M  V30 2751 C 265.238 3.95053 1.64672 0
M  V30 2752 C 264.564 4.45805 2.95232 0
M  V30 2753 C 265.864 5.14865 0.878155 0
M  V30 2754 H 267.558 2.98537 0.22713 0
M  V30 2755 H 265.104 1.43596 0.107805 0
M  V30 2756 H 267.057 3.27951 2.64624 0
M  V30 2757 H 265.781 2.04056 2.55007 0
M  V30 2758 H 264.44 3.52228 1.01641 0
M  V30 2759 H 264.088 3.62181 3.49047 0
M  V30 2760 H 263.788 5.204 2.7287 0
M  V30 2761 H 265.312 4.91962 3.6167 0
M  V30 2762 H 266.726 5.55059 1.43466 0
M  V30 2763 H 265.123 5.95348 0.753738 0
M  V30 2764 H 266.193 4.84735 -0.126377 0
M  V30 2765 N 267.536 -0.106894 1.57237 0
M  V30 2766 C 268.813 -0.843526 1.76477 0
M  V30 2767 C 269.193 -1.97499 0.745464 0
M  V30 2768 O 268.541 -2.27357 -0.228306 0
M  V30 2769 C 268.751 -1.34903 3.21873 0
M  V30 2770 C 270.099 -1.79654 3.8472 0
M  V30 2771 O 271.123 -1.44554 3.2555 0
M  V30 2772 O 269.982 -2.44515 4.88748 0
M  V30 2773 H 267.076 -0.401468 0.723016 0
M  V30 2774 H 269.622 -0.0896927 1.69463 0
M  V30 2775 H 268.394 -0.53781 3.87586 0
M  V30 2776 H 268.017 -2.16522 3.33473 0
M  V30 2777 N 269.014 -1.53014 -0.377408 0
M  V30 2778 C 269.946 -1.74884 -1.48149 0
M  V30 2779 C 270.959 -0.629433 -1.5014 0
M  V30 2780 O 272.148 -0.905416 -1.53833 0
M  V30 2781 C 269.248 -1.80299 -2.86959 0
M  V30 2782 C 268.421 -3.09776 -3.08801 0
M  V30 2783 C 267.48 -3.06586 -4.27658 0
M  V30 2784 O 266.506 -3.80419 -4.23403 0
M  V30 2785 N 267.708 -2.26578 -5.34455 0
M  V30 2786 H 270.473 -2.70147 -1.29771 0
M  V30 2787 H 268.034 -1.51646 -0.56703 0
M  V30 2788 H 270.026 -1.75657 -3.64591 0
M  V30 2789 H 268.596 -0.92372 -2.98641 0
M  V30 2790 H 267.816 -3.27815 -2.18931 0
M  V30 2791 H 269.104 -3.95366 -3.20255 0
M  V30 2792 H 268.502 -1.66081 -5.40771 0
M  V30 2793 H 267.059 -2.27766 -6.10709 0
M  V30 2794 N 270.492 0.636531 -1.44174 0
M  V30 2795 C 271.74 1.39343 -1.46383 0
M  V30 2796 C 272.061 1.94766 -0.0955715 0
M  V30 2797 O 271.331 1.75452 0.871395 0
M  V30 2798 H 269.911 0.517199 -0.538994 0
M  V30 2799 H 272.573 0.74957 -1.7991 0
M  V30 2800 H 271.669 2.22746 -2.18611 0
M  V30 2801 N 271.97 1.30982 0.876444 0
M  V30 2802 C 273.219 1.19658 1.62373 0
M  V30 2803 C 273.532 -0.245636 1.94052 0
M  V30 2804 O 274.738 -0.48049 2.67214 0
M  V30 2805 C 273.194 2.09433 2.92687 0
M  V30 2806 C 272.802 3.58613 2.68516 0
M  V30 2807 C 274.546 2.06893 3.70669 0
M  V30 2808 C 272.453 4.40416 3.94699 0
M  V30 2809 H 271.383 0.444268 0.609214 0
M  V30 2810 H 274.034 1.55791 0.969605 0
M  V30 2811 H 272.416 1.66191 3.59439 0
M  V30 2812 H 273.59 4.10058 2.10212 0
M  V30 2813 H 271.905 3.63063 2.03898 0
M  V30 2814 H 274.502 2.65258 4.64265 0
M  V30 2815 H 274.845 1.05448 4.02724 0
M  V30 2816 H 275.378 2.48301 3.10792 0
M  V30 2817 H 272.117 5.42591 3.67798 0
M  V30 2818 H 271.637 3.93731 4.52477 0
M  V30 2819 H 273.316 4.52294 4.62644 0
M  V30 2820 N 273.449 -1.08991 1.13837 0
M  V30 2821 C 274.397 -2.17841 0.815347 0
M  V30 2822 C 275.391 -1.68164 -0.204233 0
M  V30 2823 O 276.597 -1.79897 -0.0609304 0
M  V30 2824 H 272.972 -0.710654 0.245915 0
M  V30 2825 H 274.943 -2.42315 1.74143 0
M  V30 2826 C 273.692 -3.46381 0.302614 0
M  V30 2827 H 273.015 -3.84979 1.0785 0
M  V30 2828 H 274.455 -4.23844 0.115074 0
M  V30 2829 C 272.914 -3.22556 -0.972591 0
M  V30 2830 O 273.444 -3.45599 -2.04754 0
M  V30 2831 N 271.65 -2.76134 -0.905455 0
M  V30 2832 H 271.197 -2.57582 -0.0305421 0
M  V30 2833 H 271.155 -2.60571 -1.75926 0
M  V30 2834 N 274.927 -0.932562 -1.27047 0
M  V30 2835 C 276.175 -0.574422 -1.93765 0
M  V30 2836 C 276.496 0.887993 -1.73608 0
M  V30 2837 O 275.766 1.62999 -1.08665 0
M  V30 2838 H 274.346 -0.209451 -0.717035 0
M  V30 2839 H 277.008 -1.18601 -1.5466 0
M  V30 2840 H 276.104 -0.784841 -3.02071 0
M  V30 2841 N 276.405 1.4127 -0.698611 0
M  V30 2842 C 277.335 2.33447 -0.049629 0
M  V30 2843 C 278.316 1.51982 0.763898 0
M  V30 2844 O 279.501 1.80509 0.716257 0
M  V30 2845 C 276.631 3.35828 0.885267 0
M  V30 2846 C 275.585 4.27627 0.178613 0
M  V30 2847 C 274.911 5.20406 1.22807 0
M  V30 2848 C 276.211 5.13459 -0.956933 0
M  V30 2849 H 277.905 2.87966 -0.81951 0
M  V30 2850 H 275.451 1.38461 -0.395538 0
M  V30 2851 H 277.404 3.9924 1.34854 0
M  V30 2852 H 276.128 2.79666 1.68685 0
M  V30 2853 H 274.787 3.65643 -0.26466 0
M  V30 2854 H 274.435 4.60558 2.02226 0
M  V30 2855 H 274.135 5.82661 0.760239 0
M  V30 2856 H 275.659 5.86695 1.69179 0
M  V30 2857 H 277.073 5.70421 -0.573805 0
M  V30 2858 H 275.47 5.8467 -1.35205 0
M  V30 2859 H 276.54 4.50443 -1.79524 0
M  V30 2860 N 277.883 0.443576 1.51229 0
M  V30 2861 C 279.294 -0.0180867 1.86691 0
M  V30 2862 C 279.645 -1.41384 1.36033 0
M  V30 2863 O 278.77 -2.04291 0.713722 0
M  V30 2864 C 279.365 -0.039597 3.38777 0
M  V30 2865 C 277.924 -0.445692 3.73752 0
M  V30 2866 C 277.071 0.357584 2.74985 0
M  V30 2867 H 280.022 0.659138 1.44364 0
M  V30 2868 H 280.043 -0.847761 3.70936 0
M  V30 2869 H 279.555 0.976382 3.75617 0
M  V30 2870 H 277.656 -1.46704 3.42503 0
M  V30 2871 H 277.769 -0.166155 4.78812 0
M  V30 2872 H 276.133 -0.184973 2.54027 0
M  V30 2873 H 276.916 1.37256 3.14668 0
M  V30 2874 N 279.361 -1.56624 0.175154 0
M  V30 2875 C 280.271 -2.21741 -0.766042 0
M  V30 2876 C 281.287 -1.21023 -1.25018 0
M  V30 2877 O 282.463 -1.53697 -1.3015 0
M  V30 2878 C 279.528 -2.84839 -1.97655 0
M  V30 2879 C 278.589 -4.00769 -1.53892 0
M  V30 2880 C 277.822 -4.60849 -2.69173 0
M  V30 2881 O 278.045 -4.19823 -3.86141 0
M  V30 2882 O 276.979 -5.50655 -2.43028 0
M  V30 2883 H 280.805 -3.02738 -0.241585 0
M  V30 2884 H 278.39 -1.49305 -0.053222 0
M  V30 2885 H 280.272 -3.24834 -2.68442 0
M  V30 2886 H 278.947 -2.06836 -2.48999 0
M  V30 2887 H 277.854 -3.65436 -0.80044 0
M  V30 2888 H 279.187 -4.80376 -1.07236 0
M  V30 2889 N 280.839 0.0985539 -1.57292 0
M  V30 2890 C 282.086 0.802678 -1.85912 0
M  V30 2891 C 282.414 1.78901 -0.763186 0
M  V30 2892 O 281.669 1.94178 0.243559 0
M  V30 2893 C 281.968 1.56927 -3.21105 0
M  V30 2894 C 281.634 0.725376 -4.45027 0
M  V30 2895 C 280.296 0.492726 -4.78671 0
M  V30 2896 C 282.648 0.138493 -5.21016 0
M  V30 2897 C 279.976 -0.336727 -5.85733 0
M  V30 2898 C 282.328 -0.678264 -6.28953 0
M  V30 2899 C 280.992 -0.921039 -6.61115 0
M  V30 2900 H 280.262 0.293721 -0.680301 0
M  V30 2901 H 282.909 0.0642841 -1.91392 0
M  V30 2902 H 281.214 2.37914 -3.11294 0
M  V30 2903 H 282.911 2.11841 -3.40477 0
M  V30 2904 H 279.501 0.916815 -4.18679 0
M  V30 2905 H 283.685 0.305404 -4.95359 0
M  V30 2906 H 278.941 -0.533836 -6.09065 0
M  V30 2907 H 283.115 -1.1399 -6.87007 0
M  V30 2908 H 280.742 -1.56556 -7.43905 0
M  V30 2909 N 282.317 1.53212 0.369288 0
M  V30 2910 C 283.227 1.82342 1.47609 0
M  V30 2911 C 284.243 0.711532 1.58787 0
M  V30 2912 O 285.419 1.0012 1.74751 0
M  V30 2913 C 282.484 2.00393 2.8292 0
M  V30 2914 C 281.545 3.24297 2.81301 0
M  V30 2915 C 280.778 3.41478 4.10157 0
M  V30 2916 O 281.001 2.63033 5.06132 0
M  V30 2917 O 279.935 4.34817 4.16194 0
M  V30 2918 H 283.761 2.76366 1.25918 0
M  V30 2919 H 281.346 1.38547 0.559034 0
M  V30 2920 H 283.228 2.13859 3.63101 0
M  V30 2921 H 281.903 1.09559 3.04596 0
M  V30 2922 H 280.81 3.16257 1.99831 0
M  V30 2923 H 282.143 4.15041 2.64578 0
M  V30 2924 N 283.795 -0.628877 1.44509 0
M  V30 2925 C 284.705 -1.7694 1.54044 0
M  V30 2926 C 285.721 -1.68705 0.425987 0
M  V30 2927 O 286.897 -1.89442 0.683656 0
M  V30 2928 C 283.962 -3.13332 1.48405 0
M  V30 2929 C 283.023 -3.33181 2.70719 0
M  V30 2930 C 282.256 -4.63067 2.6534 0
M  V30 2931 O 282.479 -5.44017 1.71469 0
M  V30 2932 O 281.413 -4.85167 3.56226 0
M  V30 2933 H 285.239 -1.71848 2.50403 0
M  V30 2934 H 282.824 -0.790378 1.26781 0
M  V30 2935 H 284.706 -3.94634 1.47791 0
M  V30 2936 H 283.381 -3.1896 0.551898 0
M  V30 2937 H 282.288 -2.51549 2.769 0
M  V30 2938 H 283.621 -3.32416 3.62988 0
M  V30 2939 N 285.273 -1.31445 -0.869486 0
M  V30 2940 C 286.521 -1.20918 -1.61936 0
M  V30 2941 C 286.842 0.232683 -1.93607 0
M  V30 2942 O 286.112 1.15352 -1.58338 0
M  V30 2943 H 284.692 -0.44454 -0.600328 0
M  V30 2944 H 287.354 -1.64776 -1.0409 0
M  V30 2945 H 286.45 -1.78124 -2.56278 0
M  V30 2946 N 286.751 1.08385 -1.14413 0
M  V30 2947 C 287.976 1.85057 -0.936413 0
M  V30 2948 C 288.401 1.81055 0.509971 0
M  V30 2949 O 287.759 1.1958 1.36273 0
M  V30 2950 C 287.807 3.30505 -1.44217 0
M  V30 2951 O 286.911 4.07491 -0.634409 0
M  V30 2952 H 286.252 0.573425 -0.334784 0
M  V30 2953 H 288.782 1.36799 -1.52142 0
M  V30 2954 H 288.792 3.81348 -1.45043 0
M  V30 2955 H 287.467 3.32734 -2.49522 0
M  V30 2956 H 286.044 3.66368 -0.694902 0
M  V30 2957 N 288.23 0.939286 1.26551 0
M  V30 2958 C 289.177 0.446088 2.26448 0
M  V30 2959 C 290.147 -0.493234 1.58608 0
M  V30 2960 O 291.332 -0.409857 1.86346 0
M  V30 2961 C 288.472 -0.284375 3.43926 0
M  V30 2962 C 287.585 0.690399 4.26448 0
M  V30 2963 C 286.72 -0.0610712 5.31165 0
M  V30 2964 C 285.759 0.905649 6.05363 0
M  V30 2965 N 284.896 0.186055 7.01853 0
M  V30 2966 H 289.736 1.30291 2.68008 0
M  V30 2967 H 287.273 0.65371 1.31776 0
M  V30 2968 H 289.231 -0.724313 4.10864 0
M  V30 2969 H 287.861 -1.10535 3.03285 0
M  V30 2970 H 286.913 1.24885 3.59316 0
M  V30 2971 H 288.225 1.42873 4.779 0
M  V30 2972 H 287.379 -0.56038 6.04106 0
M  V30 2973 H 286.118 -0.832297 4.80546 0
M  V30 2974 H 285.123 1.4161 5.3125 0
M  V30 2975 H 286.348 1.67685 6.58072 0
M  V30 2976 H 284.294 -0.566714 6.53548 0
M  V30 2977 H 284.211 0.863752 7.51049 0
M  V30 2978 H 285.479 -0.292221 7.78952 0
M  V30 2979 N 289.708 -1.40897 0.706093 0
M  V30 2980 C 290.936 -2.05373 0.250887 0
M  V30 2981 C 291.351 -1.53172 -1.10381 0
M  V30 2982 O 290.708 -0.684305 -1.69185 0
M  V30 2983 C 290.759 -3.6088 0.211571 0
M  V30 2984 O 290.48 -4.11153 1.51276 0
M  V30 2985 C 291.981 -4.42517 -0.263346 0
M  V30 2986 H 289.201 -0.66115 0.114552 0
M  V30 2987 H 291.745 -1.80479 0.961635 0
M  V30 2988 H 289.9 -3.84777 -0.450073 0
M  V30 2989 H 290.314 -5.05279 1.40689 0
M  V30 2990 H 291.788 -5.51479 -0.239718 0
M  V30 2991 H 292.265 -4.19396 -1.30397 0
M  V30 2992 H 292.871 -4.23708 0.367677 0
M  V30 2993 N 291.186 -0.45159 -1.50991 0
M  V30 2994 C 292.411 0.110667 -2.07105 0
M  V30 2995 C 292.836 1.3446 -1.31538 0
M  V30 2996 O 292.194 1.77743 -0.357365 0
M  V30 2997 C 292.242 0.397238 -3.58405 0
M  V30 2998 O 291.346 1.48124 -3.84881 0
M  V30 2999 H 290.687 -0.00439271 -0.663985 0
M  V30 3000 H 293.217 -0.637026 -1.9443 0
M  V30 3001 H 293.227 0.64351 -4.02893 0
M  V30 3002 H 291.902 -0.504553 -4.12828 0
M  V30 3003 H 290.479 1.22381 -3.52246 0
M  V30 3004 N 292.664 1.56529 -0.183458 0
M  V30 3005 C 294.075 1.83739 0.331177 0
M  V30 3006 C 294.426 1.10373 1.62211 0
M  V30 3007 O 293.551 0.36071 2.13373 0
M  V30 3008 C 294.146 3.33306 0.607646 0
M  V30 3009 C 292.705 3.60969 1.06668 0
M  V30 3010 C 291.852 2.77086 0.109029 0
M  V30 3011 H 294.803 1.53379 -0.407484 0
M  V30 3012 H 294.824 3.51444 1.45832 0
M  V30 3013 H 294.336 3.86677 -0.332086 0
M  V30 3014 H 292.437 3.13021 2.0211 0
M  V30 3015 H 292.55 4.69231 0.967447 0
M  V30 3016 H 290.914 2.47319 0.608714 0
M  V30 3017 H 291.697 3.33241 -0.82494 0
M  V30 3018 N 294.142 -0.090211 1.57342 0
M  V30 3019 C 295.089 -1.10909 2.02405 0
M  V30 3020 C 296.059 -1.39523 0.901252 0
M  V30 3021 O 297.244 -1.50903 1.1676 0
M  V30 3022 C 294.384 -2.42277 2.45755 0
M  V30 3023 C 293.497 -2.20352 3.71576 0
M  V30 3024 C 292.632 -3.45154 4.03785 0
M  V30 3025 C 291.671 -3.18512 5.22701 0
M  V30 3026 N 290.808 -4.35593 5.50639 0
M  V30 3027 H 295.648 -0.71782 2.89225 0
M  V30 3028 H 293.185 -0.342901 1.43048 0
M  V30 3029 H 295.143 -3.18951 2.68935 0
M  V30 3030 H 293.773 -2.79242 1.61938 0
M  V30 3031 H 292.825 -1.34458 3.55844 0
M  V30 3032 H 294.137 -1.96661 4.58395 0
M  V30 3033 H 293.291 -4.30233 4.27767 0
M  V30 3034 H 292.03 -3.71904 3.15498 0
M  V30 3035 H 291.035 -2.31827 4.98534 0
M  V30 3036 H 292.26 -2.93103 6.12591 0
M  V30 3037 H 290.206 -4.6241 4.6531 0
M  V30 3038 H 290.123 -4.1511 6.31838 0
M  V30 3039 H 291.391 -5.21723 5.7916 0
M  V30 3040 N 295.62 -1.53406 -0.361157 0
M  V30 3041 C 296.55 -1.83136 -1.44857 0
M  V30 3042 C 297.531 -0.685174 -1.5569 0
M  V30 3043 O 298.716 -0.93544 -1.70186 0
M  V30 3044 C 295.846 -2.02522 -2.82138 0
M  V30 3045 C 294.8 -3.18302 -2.86126 0
M  V30 3046 C 294.126 -3.22989 -4.26125 0
M  V30 3047 C 295.426 -4.56796 -2.53248 0
M  V30 3048 H 297.12 -2.74201 -1.20226 0
M  V30 3049 H 294.666 -1.31938 -0.576922 0
M  V30 3050 H 296.619 -2.21904 -3.58241 0
M  V30 3051 H 295.343 -1.08172 -3.08166 0
M  V30 3052 H 294.002 -2.98747 -2.12475 0
M  V30 3053 H 293.65 -2.26267 -4.49235 0
M  V30 3054 H 293.35 -4.00781 -4.29708 0
M  V30 3055 H 294.874 -3.44559 -5.04094 0
M  V30 3056 H 296.288 -4.7631 -3.19064 0
M  V30 3057 H 294.685 -5.36862 -2.68141 0
M  V30 3058 H 295.755 -4.61606 -1.48484 0
M  V30 3059 N 297.098 0.621204 -1.44841 0
M  V30 3060 C 298.345 1.38055 -1.48145 0
M  V30 3061 C 298.673 1.94143 -0.117867 0
M  V30 3062 O 297.928 1.74713 0.881694 0
M  V30 3063 C 298.227 2.55675 -2.4973 0
M  V30 3064 C 297.893 2.17817 -3.94799 0
M  V30 3065 C 296.555 2.07205 -4.34303 0
M  V30 3066 C 298.907 1.88065 -4.86087 0
M  V30 3067 C 296.235 1.65045 -5.63007 0
M  V30 3068 C 298.587 1.47394 -6.15189 0
M  V30 3069 C 297.251 1.35331 -6.53637 0
M  V30 3070 H 296.521 0.505181 -0.542101 0
M  V30 3071 H 299.168 0.703477 -1.78111 0
M  V30 3072 H 297.473 3.2866 -2.13284 0
M  V30 3073 H 299.17 3.13904 -2.4953 0
M  V30 3074 H 295.76 2.26998 -3.63552 0
M  V30 3075 H 299.944 1.95168 -4.56315 0
M  V30 3076 H 295.2 1.54317 -5.91605 0
M  V30 3077 H 299.374 1.23415 -6.85377 0
M  V30 3078 H 297.001 1.02435 -7.53267 0
M  V30 3079 N 298.576 1.31904 0.862503 0
M  V30 3080 C 299.539 1.20131 1.95195 0
M  V30 3081 C 300.539 0.126409 1.60302 0
M  V30 3082 O 301.729 0.376234 1.70089 0
M  V30 3083 C 298.861 0.845691 3.30244 0
M  V30 3084 H 300.054 2.16943 2.07064 0
M  V30 3085 H 297.607 1.15622 1.05172 0
M  V30 3086 H 298.342 -0.120957 3.24074 0
M  V30 3087 H 298.127 1.62276 3.56944 0
M  V30 3088 H 299.617 0.787418 4.10109 0
M  V30 3089 N 300.054 -1.07777 1.14986 0
M  V30 3090 C 300.964 -2.18404 0.856546 0
M  V30 3091 C 301.98 -1.73211 -0.165485 0
M  V30 3092 O 303.156 -2.01399 0.00755219 0
M  V30 3093 C 300.221 -3.44977 0.34526 0
M  V30 3094 C 299.282 -4.0476 1.43065 0
M  V30 3095 C 298.515 -5.25291 0.943663 0
M  V30 3096 O 298.738 -5.70004 -0.212426 0
M  V30 3097 O 297.672 -5.76638 1.72547 0
M  V30 3098 H 301.498 -2.45978 1.78125 0
M  V30 3099 H 299.083 -1.17033 0.928631 0
M  V30 3100 H 300.965 -4.21348 0.0663671 0
M  V30 3101 H 299.64 -3.18965 -0.551631 0
M  V30 3102 H 298.547 -3.29949 1.76309 0
M  V30 3103 H 299.88 -4.35035 2.30229 0
M  V30 3104 N 301.532 -0.945985 -1.26051 0
M  V30 3105 C 302.442 -0.465633 -2.29933 0
M  V30 3106 C 303.458 0.462761 -1.67733 0
M  V30 3107 O 304.634 0.341118 -1.9849 0
M  V30 3108 C 301.699 0.256994 -3.45746 0
M  V30 3109 C 300.76 -0.708549 -4.23412 0
M  V30 3110 C 299.993 -0.0203135 -5.33696 0
M  V30 3111 O 300.216 1.19571 -5.57726 0
M  V30 3112 O 299.15 -0.701459 -5.97799 0
M  V30 3113 H 302.976 -1.32866 -2.73094 0
M  V30 3114 H 300.561 -0.712071 -1.31339 0
M  V30 3115 H 302.443 0.663852 -4.16138 0
M  V30 3116 H 301.118 1.09533 -3.04605 0
M  V30 3117 H 300.025 -1.16545 -3.55483 0
M  V30 3118 H 301.358 -1.51465 -4.68315 0
M  V30 3119 N 303.011 1.40521 -0.713556 0
M  V30 3120 C 303.921 2.34522 -0.0606667 0
M  V30 3121 C 304.937 1.57193 0.74607 0
M  V30 3122 O 306.113 1.89591 0.679493 0
M  V30 3123 C 303.178 3.36081 0.851491 0
M  V30 3124 C 302.239 4.29286 0.0349339 0
M  V30 3125 C 301.472 5.25994 0.903649 0
M  V30 3126 O 301.695 5.28616 2.14292 0
M  V30 3127 O 300.629 6.00918 0.343723 0
M  V30 3128 H 304.455 2.91968 -0.835972 0
M  V30 3129 H 302.04 1.41681 -0.47402 0
M  V30 3130 H 303.922 3.98369 1.37404 0
M  V30 3131 H 302.597 2.81052 1.60598 0
M  V30 3132 H 301.504 3.70289 -0.532633 0
M  V30 3133 H 302.837 4.87462 -0.681287 0
M  V30 3134 N 304.489 0.459591 1.5075 0
M  V30 3135 C 305.736 -0.0993495 2.02256 0
M  V30 3136 C 306.064 -1.40751 1.34237 0
M  V30 3137 O 305.319 -1.90379 0.453228 0
M  V30 3138 C 305.618 -0.342866 3.55752 0
M  V30 3139 C 305.284 0.88218 4.42186 0
M  V30 3140 C 303.946 1.21808 4.65528 0
M  V30 3141 C 306.298 1.69837 4.92752 0
M  V30 3142 C 303.626 2.37045 5.36681 0
M  V30 3143 C 305.978 2.84192 5.65171 0
M  V30 3144 C 304.642 3.1821 5.8677 0
M  V30 3145 H 303.912 -0.0363545 0.740108 0
M  V30 3146 H 306.559 0.611329 1.8148 0
M  V30 3147 H 304.864 -1.13567 3.7498 0
M  V30 3148 H 306.561 -0.789121 3.93159 0
M  V30 3149 H 303.151 0.610467 4.2423 0
M  V30 3150 H 307.335 1.45205 4.74583 0
M  V30 3151 H 302.591 2.63689 5.51614 0
M  V30 3152 H 306.765 3.4779 6.03337 0
M  V30 3153 H 304.392 4.07613 6.41682 0
M  V30 3154 N 305.967 -1.56429 0.191757 0
M  V30 3155 C 306.897 -2.21937 -0.725696 0
M  V30 3156 C 307.878 -1.1814 -1.2238 0
M  V30 3157 O 309.063 -1.46636 -1.27325 0
M  V30 3158 C 306.193 -2.87611 -1.94672 0
M  V30 3159 C 305.147 -3.97623 -1.58366 0
M  V30 3160 C 304.473 -4.50446 -2.88102 0
M  V30 3161 C 305.773 -5.16197 -0.796133 0
M  V30 3162 H 307.467 -2.98861 -0.179606 0
M  V30 3163 H 305.013 -1.43749 -0.0849464 0
M  V30 3164 H 306.966 -3.3212 -2.59373 0
M  V30 3165 H 305.69 -2.08087 -2.51728 0
M  V30 3166 H 304.349 -3.53801 -0.960247 0
M  V30 3167 H 303.997 -3.67688 -3.43241 0
M  V30 3168 H 303.697 -5.24675 -2.64556 0
M  V30 3169 H 305.221 -4.97654 -3.53798 0
M  V30 3170 H 306.635 -5.57271 -1.34618 0
M  V30 3171 H 305.032 -5.96471 -0.658928 0
M  V30 3172 H 306.102 -4.84473 0.203478 0
M  V30 3173 N 307.445 0.0818655 -1.57387 0
M  V30 3174 C 308.856 0.634871 -1.75574 0
M  V30 3175 C 309.207 1.78435 -0.815809 0
M  V30 3176 O 308.332 2.164 0.0025366 0
M  V30 3177 C 308.927 1.15845 -3.18379 0
M  V30 3178 C 307.486 1.65741 -3.37945 0
M  V30 3179 C 306.633 0.572549 -2.71325 0
M  V30 3180 H 309.584 -0.144268 -1.58043 0
M  V30 3181 H 309.605 2.02751 -3.21982 0
M  V30 3182 H 309.117 0.321631 -3.86765 0
M  V30 3183 H 307.218 2.51781 -2.74658 0
M  V30 3184 H 307.331 1.74129 -4.46336 0
M  V30 3185 H 305.695 1.01518 -2.33594 0
M  V30 3186 H 306.478 -0.253918 -3.4236 0
M  V30 3187 N 308.923 1.53595 0.353017 0
M  V30 3188 C 309.853 1.83902 1.43883 0
M  V30 3189 C 310.834 0.693421 1.55324 0
M  V30 3190 O 312.019 0.944452 1.69687 0
M  V30 3191 C 309.149 2.04016 2.8106 0
M  V30 3192 C 308.103 3.19814 2.84434 0
M  V30 3193 C 307.429 3.25244 4.24406 0
M  V30 3194 C 308.729 4.58133 2.50822 0
M  V30 3195 H 310.423 2.74835 1.1877 0
M  V30 3196 H 307.969 1.32242 0.569917 0
M  V30 3197 H 309.922 2.238 3.57059 0
M  V30 3198 H 308.646 1.09804 3.07588 0
M  V30 3199 H 307.305 2.9987 2.10887 0
M  V30 3200 H 306.953 2.28646 4.48029 0
M  V30 3201 H 306.653 4.03054 4.27576 0
M  V30 3202 H 308.177 3.47228 5.0226 0
M  V30 3203 H 309.591 4.77995 3.16534 0
M  V30 3204 H 307.988 5.38276 2.6529 0
M  V30 3205 H 309.058 4.62387 1.46034 0
M  V30 3206 N 310.401 -0.613514 1.45168 0
M  V30 3207 C 311.678 -1.37263 1.39349 0
M  V30 3208 C 312.058 -2.11012 0.0610848 0
M  V30 3209 O 311.406 -2.07502 -0.956825 0
M  V30 3210 C 311.616 -2.3244 2.60332 0
M  V30 3211 C 312.964 -2.9523 3.05163 0
M  V30 3212 O 313.988 -2.42762 2.60663 0
M  V30 3213 O 312.847 -3.90454 3.82372 0
M  V30 3214 H 309.941 -0.615188 0.552696 0
M  V30 3215 H 312.487 -0.637097 1.57287 0
M  V30 3216 H 311.259 -1.77164 3.48896 0
M  V30 3217 H 310.882 -3.13383 2.44698 0
M  V30 3218 N 311.879 -1.3236 -0.855495 0
M  V30 3219 C 313.29 -1.2056 -1.42556 0
M  V30 3220 C 313.641 0.182209 -1.95352 0
M  V30 3221 O 312.766 1.08088 -1.87472 0
M  V30 3222 C 313.361 -2.1826 -2.59129 0
M  V30 3223 C 311.92 -2.10351 -3.12137 0
M  V30 3224 C 311.067 -2.06674 -1.84882 0
M  V30 3225 H 314.018 -1.442 -0.662727 0
M  V30 3226 H 314.039 -1.78064 -3.36264 0
M  V30 3227 H 313.551 -3.19257 -2.20673 0
M  V30 3228 H 311.652 -1.12599 -3.55179 0
M  V30 3229 H 311.765 -3.00135 -3.73438 0
M  V30 3230 H 310.129 -1.51901 -2.04446 0
M  V30 3231 H 310.912 -3.09451 -1.48643 0
M  V30 3232 N 313.357 1.07166 -1.15556 0
M  V30 3233 C 314.585 1.83514 -0.955519 0
M  V30 3234 C 315 1.82163 0.49621 0
M  V30 3235 O 314.357 1.23441 1.34419 0
M  V30 3236 C 314.408 3.30515 -1.46432 0
M  V30 3237 O 314.129 3.31937 -2.85918 0
M  V30 3238 C 315.63 4.23625 -1.30603 0
M  V30 3239 H 312.85 0.578926 -0.339244 0
M  V30 3240 H 315.394 1.35265 -1.53374 0
M  V30 3241 H 313.549 3.76106 -0.928584 0
M  V30 3242 H 313.963 4.23794 -3.09029 0
M  V30 3243 H 315.437 5.24831 -1.71047 0
M  V30 3244 H 315.914 4.38485 -0.250441 0
M  V30 3245 H 316.52 3.83871 -1.83094 0
M  V30 3246 N 314.835 0.952656 1.25548 0
M  V30 3247 C 315.767 0.428609 2.25157 0
M  V30 3248 C 316.78 -0.454428 1.56329 0
M  V30 3249 O 317.969 -0.263023 1.76552 0
M  V30 3250 C 315.069 -0.401972 3.36508 0
M  V30 3251 C 314.242 0.467601 4.34893 0
M  V30 3252 C 313.301 -0.30445 5.25319 0
M  V30 3253 O 312.327 0.296473 5.68427 0
M  V30 3254 N 313.529 -1.59805 5.5807 0
M  V30 3255 H 316.294 1.28497 2.70756 0
M  V30 3256 H 313.855 0.822798 1.39433 0
M  V30 3257 H 315.847 -0.926134 3.9396 0
M  V30 3258 H 314.417 -1.15918 2.90313 0
M  V30 3259 H 313.637 1.17288 3.76347 0
M  V30 3260 H 314.925 1.06119 4.97611 0
M  V30 3261 H 314.323 -2.10823 5.24948 0
M  V30 3262 H 312.88 -2.06822 6.18116 0
M  V30 3263 N 316.313 -1.40141 0.720998 0
M  V30 3264 C 317.223 -2.34486 0.0731031 0
M  V30 3265 C 318.239 -1.57587 -0.737723 0
M  V30 3266 O 319.415 -1.89949 -0.669429 0
M  V30 3267 C 316.48 -3.36528 -0.833656 0
M  V30 3268 C 315.541 -4.29298 -0.0121673 0
M  V30 3269 C 314.774 -5.26466 -0.875742 0
M  V30 3270 O 314.997 -5.29745 -2.11485 0
M  V30 3271 O 313.931 -6.01092 -0.31185 0
M  V30 3272 H 317.757 -2.9152 0.851444 0
M  V30 3273 H 315.342 -1.41427 0.481527 0
M  V30 3274 H 317.224 -3.99093 -1.35289 0
M  V30 3275 H 315.899 -2.81899 -1.59105 0
M  V30 3276 H 314.806 -3.70001 0.552262 0
M  V30 3277 H 316.139 -4.87094 0.707129 0
M  V30 3278 N 317.792 -0.46758 -1.50504 0
M  V30 3279 C 318.722 0.318381 -2.31319 0
M  V30 3280 C 319.703 0.993564 -1.38066 0
M  V30 3281 O 320.888 0.991411 -1.66987 0
M  V30 3282 C 318.018 1.40275 -3.17711 0
M  V30 3283 C 316.972 0.849373 -4.19487 0
M  V30 3284 C 316.298 2.03177 -4.94594 0
M  V30 3285 C 317.598 -0.136942 -5.2212 0
M  V30 3286 H 319.292 -0.356106 -2.97275 0
M  V30 3287 H 316.838 -0.172703 -1.42961 0
M  V30 3288 H 318.791 1.96004 -3.73042 0
M  V30 3289 H 317.515 2.10596 -2.49634 0
M  V30 3290 H 316.174 0.314076 -3.65252 0
M  V30 3291 H 315.822 2.72187 -4.22993 0
M  V30 3292 H 315.522 1.66774 -5.63436 0
M  V30 3293 H 317.046 2.59403 -5.52759 0
M  V30 3294 H 318.46 0.331056 -5.72343 0
M  V30 3295 H 316.857 -0.41507 -5.98663 0
M  V30 3296 H 317.927 -1.06398 -4.73083 0
M  V30 3297 N 319.27 1.56325 -0.20005 0
M  V30 3298 C 320.519 1.96895 0.437652 0
M  V30 3299 C 320.832 1.08999 1.62415 0
M  V30 3300 O 322.038 1.39372 2.32997 0
M  V30 3301 C 320.494 3.50198 0.830025 0
M  V30 3302 C 320.102 4.46765 -0.332461 0
M  V30 3303 C 321.846 3.99526 1.43453 0
M  V30 3304 C 319.753 5.91344 0.0811468 0
M  V30 3305 H 318.683 0.735209 0.167282 0
M  V30 3306 H 321.334 1.81148 -0.292853 0
M  V30 3307 H 319.716 3.61467 1.61734 0
M  V30 3308 H 320.89 4.47231 -1.11 0
M  V30 3309 H 319.205 4.07657 -0.848789 0
M  V30 3310 H 321.802 5.05025 1.75652 0
M  V30 3311 H 322.145 3.44122 2.34277 0
M  V30 3312 H 322.678 3.91393 0.71109 0
M  V30 3313 H 319.417 6.50685 -0.793033 0
M  V30 3314 H 318.937 5.94121 0.823445 0
M  V30 3315 H 320.616 6.44945 0.515252 0
M  V30 3316 N 320.748 -0.0735177 1.57428 0
M  V30 3317 C 321.995 -0.772999 1.87166 0
M  V30 3318 C 322.323 -1.77665 0.791551 0
M  V30 3319 O 321.578 -1.94541 -0.212636 0
M  V30 3320 C 321.877 -1.51799 3.23561 0
M  V30 3321 C 321.543 -0.654484 4.46125 0
M  V30 3322 C 320.205 -0.416511 4.79394 0
M  V30 3323 C 322.557 -0.0555862 5.2117 0
M  V30 3324 C 319.885 0.429869 5.85123 0
M  V30 3325 C 322.237 0.778239 6.27795 0
M  V30 3326 C 320.901 1.0261 6.59566 0
M  V30 3327 H 320.171 -0.282861 0.684888 0
M  V30 3328 H 322.818 -0.0338272 1.9147 0
M  V30 3329 H 321.123 -2.32932 3.1504 0
M  V30 3330 H 322.82 -2.06397 3.43804 0
M  V30 3331 H 319.41 -0.850091 4.20085 0
M  V30 3332 H 323.594 -0.226558 4.95783 0
M  V30 3333 H 318.85 0.630665 6.08139 0
M  V30 3334 H 323.024 1.24906 6.85107 0
M  V30 3335 H 320.651 1.68371 7.4132 0
M  V30 3336 N 322.226 -1.5378 -0.344866 0
M  V30 3337 C 323.637 -1.62428 -0.920552 0
M  V30 3338 C 323.988 -0.504747 -1.89596 0
M  V30 3339 O 323.113 0.365711 -2.13287 0
M  V30 3340 C 323.708 -2.94419 -1.67639 0
M  V30 3341 C 322.267 -3.05333 -2.20111 0
M  V30 3342 C 321.414 -2.57866 -1.01982 0
M  V30 3343 H 324.365 -1.58222 -0.123042 0
M  V30 3344 H 324.386 -2.83384 -2.53917 0
M  V30 3345 H 323.898 -3.7588 -0.966224 0
M  V30 3346 H 321.999 -2.28502 -2.94308 0
M  V30 3347 H 322.112 -4.10778 -2.46573 0
M  V30 3348 H 320.476 -2.13241 -1.39285 0
M  V30 3349 H 321.259 -3.41765 -0.324308 0
M  V30 3350 N 323.704 0.605807 -1.45491 0
M  V30 3351 C 325.115 1.18777 -1.44045 0
M  V30 3352 C 325.466 1.95471 -0.169001 0
M  V30 3353 O 324.591 2.0374 0.729324 0
M  V30 3354 C 325.186 2.16064 -2.60963 0
M  V30 3355 C 323.745 2.69633 -2.62631 0
M  V30 3356 C 322.892 1.45072 -2.36325 0
M  V30 3357 H 325.843 0.395017 -1.53705 0
M  V30 3358 H 325.864 2.9913 -2.35163 0
M  V30 3359 H 325.376 1.60217 -3.53486 0
M  V30 3360 H 323.477 3.29414 -1.74119 0
M  V30 3361 H 323.59 3.13944 -3.61906 0
M  V30 3362 H 321.954 1.74089 -1.85917 0
M  V30 3363 H 322.737 0.910899 -3.30995 0
M  V30 3364 N 325.182 1.32811 0.848464 0
M  V30 3365 C 326.092 1.24278 1.98978 0
M  V30 3366 C 327.108 0.155176 1.73307 0
M  V30 3367 O 328.284 0.376999 1.9784 0
M  V30 3368 C 325.349 0.972444 3.32783 0
M  V30 3369 C 324.41 2.14911 3.71634 0
M  V30 3370 C 323.643 1.89157 4.99054 0
M  V30 3371 O 323.866 0.837165 5.64223 0
M  V30 3372 O 322.8 2.75433 5.35183 0
M  V30 3373 H 326.626 2.20238 2.09115 0
M  V30 3374 H 324.211 1.12762 0.980052 0
M  V30 3375 H 326.093 0.838432 4.12975 0
M  V30 3376 H 324.768 0.043051 3.23671 0
M  V30 3377 H 323.675 2.33862 2.91992 0
M  V30 3378 H 325.008 3.06151 3.85399 0
M  V30 3379 N 326.66 -1.06551 1.16123 0
M  V30 3380 C 327.59 -2.15935 0.88851 0
M  V30 3381 C 328.571 -1.69306 -0.164135 0
M  V30 3382 O 329.756 -1.94193 -0.0167857 0
M  V30 3383 C 326.886 -3.45149 0.385942 0
M  V30 3384 C 325.84 -4.05271 1.3762 0
M  V30 3385 C 325.166 -5.29664 0.732137 0
M  V30 3386 C 326.466 -4.44355 2.74493 0
M  V30 3387 H 328.16 -2.39006 1.80323 0
M  V30 3388 H 325.706 -1.14866 0.868435 0
M  V30 3389 H 327.659 -4.21004 0.182647 0
M  V30 3390 H 326.383 -3.21689 -0.564274 0
M  V30 3391 H 325.042 -3.3147 1.56599 0
M  V30 3392 H 324.69 -5.02499 -0.224483 0
M  V30 3393 H 324.39 -5.70848 1.39307 0
M  V30 3394 H 325.914 -6.08218 0.538802 0
M  V30 3395 H 327.328 -5.11303 2.59311 0
M  V30 3396 H 325.725 -4.96515 3.37035 0
M  V30 3397 H 326.795 -3.55339 3.29943 0
M  V30 3398 N 328.138 -0.959301 -1.25041 0
M  V30 3399 C 329.071 -0.427418 -2.24161 0
M  V30 3400 C 330.049 0.493837 -1.54919 0
M  V30 3401 O 331.233 0.427144 -1.83597 0
M  V30 3402 C 328.36 0.383893 -3.36517 0
M  V30 3403 C 327.406 -0.478431 -4.23808 0
M  V30 3404 S 328.239 -1.91353 -5.00144 0
M  V30 3405 C 329.395 -1.11077 -6.15965 0
M  V30 3406 H 329.628 -1.26743 -2.6893 0
M  V30 3407 H 327.161 -0.763714 -1.34189 0
M  V30 3408 H 329.119 0.846039 -4.01687 0
M  V30 3409 H 327.78 1.19878 -2.90324 0
M  V30 3410 H 326.973 0.14406 -5.03794 0
M  V30 3411 H 326.575 -0.87597 -3.63597 0
M  V30 3412 H 328.867 -0.361699 -6.76534 0
M  V30 3413 H 329.81 -1.88472 -6.82557 0
M  V30 3414 H 330.218 -0.638843 -5.60873 0
M  V30 3415 N 329.616 1.39756 -0.72842 0
M  V30 3416 C 330.865 1.99879 -0.270407 0
M  V30 3417 C 331.178 1.58449 1.14688 0
M  V30 3418 O 332.384 2.11362 1.70407 0
M  V30 3419 C 330.84 3.57292 -0.43252 0
M  V30 3420 C 330.448 4.07688 -1.85727 0
M  V30 3421 C 332.192 4.24485 -0.0359507 0
M  V30 3422 C 330.099 5.5765 -1.96928 0
M  V30 3423 H 329.029 0.747689 -0.0973472 0
M  V30 3424 H 331.68 1.59837 -0.901355 0
M  V30 3425 H 330.062 3.95097 0.267219 0
M  V30 3426 H 331.236 3.81231 -2.58843 0
M  V30 3427 H 329.551 3.53135 -2.20646 0
M  V30 3428 H 332.148 5.34609 -0.0987484 0
M  V30 3429 H 332.491 4.03915 1.00787 0
M  V30 3430 H 333.024 3.9183 -0.686604 0
M  V30 3431 H 329.763 5.8309 -2.99476 0
M  V30 3432 H 329.283 5.8593 -1.28241 0
M  V30 3433 H 330.962 6.22957 -1.74737 0
M  V30 3434 N 331.094 0.475555 1.50254 0
M  V30 3435 C 332.027 -0.362381 2.25304 0
M  V30 3436 C 333.005 -0.992393 1.28803 0
M  V30 3437 O 334.189 -1.02746 1.58036 0
M  V30 3438 C 331.316 -1.50813 3.03271 0
M  V30 3439 C 330.362 -0.995044 4.1473 0
M  V30 3440 S 331.195 0.0938436 5.35418 0
M  V30 3441 C 332.351 -1.05567 6.16933 0
M  V30 3442 H 332.584 0.274686 2.96028 0
M  V30 3443 H 330.117 0.260495 1.52187 0
M  V30 3444 H 332.075 -2.16476 3.48781 0
M  V30 3445 H 330.736 -2.11672 2.32064 0
M  V30 3446 H 329.929 -1.85293 4.68703 0
M  V30 3447 H 329.531 -0.416052 3.71679 0
M  V30 3448 H 331.823 -1.96636 6.48337 0
M  V30 3449 H 332.766 -0.555109 7.05921 0
M  V30 3450 H 333.174 -1.31151 5.49053 0
M  V30 3451 N 332.573 -1.56217 0.208337 0
M  V30 3452 C 333.536 -2.18455 -0.693557 0
M  V30 3453 C 334.536 -1.14268 -1.13135 0
M  V30 3454 O 335.726 -1.39577 -1.0423 0
M  V30 3455 C 332.858 -2.79727 -1.94848 0
M  V30 3456 H 334.051 -2.99519 -0.15114 0
M  V30 3457 H 331.604 -1.56245 -0.041287 0
M  V30 3458 H 332.339 -2.02497 -2.53309 0
M  V30 3459 H 332.124 -3.56009 -1.64316 0
M  V30 3460 H 333.614 -3.27475 -2.59133 0
M  V30 3461 N 334.051 0.0651679 -1.57465 0
M  V30 3462 C 334.961 1.09448 -2.07505 0
M  V30 3463 C 335.977 1.41974 -1.00595 0
M  V30 3464 O 337.153 1.52018 -1.32107 0
M  V30 3465 C 334.218 2.38689 -2.51453 0
M  V30 3466 C 333.279 2.13073 -3.72691 0
M  V30 3467 C 332.512 3.36152 -4.14533 0
M  V30 3468 O 332.735 4.45517 -3.56189 0
M  V30 3469 O 331.669 3.23974 -5.07272 0
M  V30 3470 H 335.495 0.69935 -2.95538 0
M  V30 3471 H 333.08 0.279752 -1.46757 0
M  V30 3472 H 334.962 3.14736 -2.80212 0
M  V30 3473 H 333.637 2.77568 -1.66546 0
M  V30 3474 H 332.544 1.34709 -3.49005 0
M  V30 3475 H 333.877 1.79071 -4.5847 0
M  V30 3476 N 335.529 1.53961 0.336706 0
M  V30 3477 C 336.476 1.82428 1.41381 0
M  V30 3478 C 337.446 0.670444 1.51968 0
M  V30 3479 O 338.631 0.915565 1.67398 0
M  V30 3480 C 335.771 2.04564 2.77934 0
M  V30 3481 C 334.884 3.32267 2.76084 0
M  V30 3482 C 334.019 3.44434 4.04399 0
M  V30 3483 C 333.058 4.66061 3.96804 0
M  V30 3484 N 332.195 4.75224 5.16823 0
M  V30 3485 H 337.035 2.74324 1.16405 0
M  V30 3486 H 334.572 1.35869 0.563752 0
M  V30 3487 H 336.53 2.15388 3.57301 0
M  V30 3488 H 335.16 1.15974 3.01247 0
M  V30 3489 H 334.212 3.3025 1.88784 0
M  V30 3490 H 335.524 4.21733 2.66351 0
M  V30 3491 H 334.678 3.54728 4.92192 0
M  V30 3492 H 333.417 2.53037 4.16921 0
M  V30 3493 H 332.422 4.55838 3.07396 0
M  V30 3494 H 333.647 5.58829 3.85858 0
M  V30 3495 H 331.593 3.86739 5.29876 0
M  V30 3496 H 331.51 5.58636 5.09374 0
M  V30 3497 H 332.778 4.89835 6.06367 0
M  V30 3498 N 337.007 -0.598083 1.45811 0
M  V30 3499 C 337.939 -1.72231 1.51225 0
M  V30 3500 C 338.952 -1.57757 0.402059 0
M  V30 3501 O 340.141 -1.65464 0.669624 0
M  V30 3502 C 337.241 -3.10331 1.3619 0
M  V30 3503 C 336.414 -3.50955 2.61054 0
M  V30 3504 C 335.473 -4.68055 2.40439 0
M  V30 3505 O 334.499 -4.74691 3.14097 0
M  V30 3506 N 335.701 -5.61941 1.45612 0
M  V30 3507 H 338.466 -1.68046 2.48154 0
M  V30 3508 H 336.027 -0.783637 1.41671 0
M  V30 3509 H 338.019 -3.86439 1.20195 0
M  V30 3510 H 336.589 -3.0897 0.475015 0
M  V30 3511 H 335.809 -2.64711 2.92099 0
M  V30 3512 H 337.097 -3.74858 3.44034 0
M  V30 3513 H 336.495 -5.59301 0.848431 0
M  V30 3514 H 335.052 -6.37542 1.35585 0
M  V30 3515 N 338.485 -1.33259 -0.841409 0
M  V30 3516 C 339.71 -1.2775 -1.63385 0
M  V30 3517 C 340.135 0.149188 -1.87507 0
M  V30 3518 O 339.493 1.10498 -1.43736 0
M  V30 3519 C 339.541 -2.05571 -2.96265 0
M  V30 3520 O 338.645 -1.41257 -3.87453 0
M  V30 3521 H 337.986 -0.439627 -0.497618 0
M  V30 3522 H 340.516 -1.75782 -1.04699 0
M  V30 3523 H 340.526 -2.16241 -3.45982 0
M  V30 3524 H 339.201 -3.09309 -2.7803 0
M  V30 3525 H 337.778 -1.39217 -3.45938 0
M  V30 3526 N 339.963 1.05934 -1.16686 0
M  V30 3527 C 340.895 2.13468 -0.834503 0
M  V30 3528 C 341.908 1.62013 0.15984 0
M  V30 3529 O 343.097 1.7838 -0.0654228 0
M  V30 3530 C 340.197 3.3817 -0.222361 0
M  V30 3531 C 339.37 4.18928 -1.25771 0
M  V30 3532 C 338.429 5.21985 -0.664703 0
M  V30 3533 O 337.455 5.53334 -1.33453 0
M  V30 3534 N 338.657 5.77919 0.546834 0
M  V30 3535 H 341.422 2.42578 -1.75999 0
M  V30 3536 H 338.983 1.21967 -1.06469 0
M  V30 3537 H 340.975 4.04266 0.187472 0
M  V30 3538 H 339.545 3.06655 0.606758 0
M  V30 3539 H 338.765 3.48433 -1.84358 0
M  V30 3540 H 340.053 4.69687 -1.95631 0
M  V30 3541 H 339.451 5.54721 1.10912 0
M  V30 3542 H 338.008 6.45573 0.898829 0
M  V30 3543 N 341.441 0.965919 1.2453 0
M  V30 3544 C 342.857 0.67216 1.44756 0
M  V30 3545 C 343.057 -0.766609 1.86347 0
M  V30 3546 O 342.113 -1.5407 2.00047 0
M  V30 3547 C 343.426 1.65473 2.51076 0
M  V30 3548 C 344.974 1.66716 2.64905 0
M  V30 3549 C 345.449 2.63766 3.74421 0
M  V30 3550 N 346.94 2.62198 3.81846 0
M  V30 3551 C 347.675 3.33966 4.66106 0
M  V30 3552 N 347.171 4.15245 5.54566 0
M  V30 3553 N 348.964 3.22799 4.60171 0
M  V30 3554 H 341.115 1.89553 0.958293 0
M  V30 3555 H 343.378 0.815979 0.482579 0
M  V30 3556 H 343.084 2.68296 2.27399 0
M  V30 3557 H 342.958 1.4261 3.49202 0
M  V30 3558 H 345.345 0.646057 2.87941 0
M  V30 3559 H 345.426 1.93642 1.67142 0
M  V30 3560 H 345.07 3.6601 3.52135 0
M  V30 3561 H 345 2.34121 4.71694 0
M  V30 3562 H 347.491 2.032 3.18619 0
M  V30 3563 H 347.804 4.66898 6.15814 0
M  V30 3564 H 346.149 4.1934 5.54237 0
M  V30 3565 H 349.34 2.58764 3.90075 0
M  V30 3566 H 349.513 3.78994 5.25612 0
M  V30 3567 N 342.919 -1.39368 0.735821 0
M  V30 3568 C 344.147 -2.04795 0.294393 0
M  V30 3569 C 344.562 -1.55478 -1.07107 0
M  V30 3570 O 343.919 -0.720038 -1.67695 0
M  V30 3571 C 343.97 -3.6035 0.288071 0
M  V30 3572 O 343.691 -4.07852 1.59963 0
M  V30 3573 C 345.192 -4.42976 -0.169422 0
M  V30 3574 H 342.412 -0.658571 0.128551 0
M  V30 3575 H 344.956 -1.78399 0.999701 0
M  V30 3576 H 343.111 -3.85645 -0.368355 0
M  V30 3577 H 343.525 -5.02181 1.51375 0
M  V30 3578 H 344.999 -5.51864 -0.122687 0
M  V30 3579 H 345.476 -4.22068 -1.21472 0
M  V30 3580 H 346.082 -4.22832 0.457469 0
M  V30 3581 N 344.397 -0.483516 -1.5 0
M  V30 3582 C 345.813 -0.138404 -1.58999 0
M  V30 3583 C 346.013 1.35597 -1.4905 0
M  V30 3584 O 345.069 2.13039 -1.35539 0
M  V30 3585 C 346.382 -0.699658 -2.92447 0
M  V30 3586 C 347.93 -0.664195 -3.05872 0
M  V30 3587 C 348.405 -1.20321 -4.41913 0
M  V30 3588 N 349.896 -1.16315 -4.48358 0
M  V30 3589 C 350.631 -1.55058 -5.52037 0
M  V30 3590 N 350.127 -2.01311 -6.62907 0
M  V30 3591 N 351.92 -1.46584 -5.42651 0
M  V30 3592 H 344.071 -1.45529 -1.5471 0
M  V30 3593 H 346.334 -0.60258 -0.731848 0
M  V30 3594 H 346.04 -1.747 -3.05242 0
M  V30 3595 H 345.914 -0.150194 -3.76901 0
M  V30 3596 H 348.301 0.374272 -2.92717 0
M  V30 3597 H 348.382 -1.25061 -2.23144 0
M  V30 3598 H 348.026 -2.24037 -4.55818 0
M  V30 3599 H 347.956 -0.592896 -5.23252 0
M  V30 3600 H 350.447 -0.824058 -3.68806 0
M  V30 3601 H 350.76 -2.2899 -7.38095 0
M  V30 3602 H 349.105 -2.05273 -6.63994 0
M  V30 3603 H 352.296 -1.10281 -4.54924 0
M  V30 3604 H 352.469 -1.77103 -6.23329 0
M  V30 3605 N 345.875 1.56104 -0.216619 0
M  V30 3606 C 347.121 1.98466 0.417033 0
M  V30 3607 C 347.454 1.10403 1.59765 0
M  V30 3608 O 346.729 0.160632 1.93836 0
M  V30 3609 C 347.012 3.49769 0.85637 0
M  V30 3610 C 346.865 4.48606 -0.327546 0
M  V30 3611 C 348.184 4.05339 1.7143 0
M  V30 3612 H 345.303 0.721551 0.150112 0
M  V30 3613 H 347.945 1.87423 -0.311864 0
M  V30 3614 H 346.095 3.5931 1.47745 0
M  V30 3615 H 347.767 4.5108 -0.965618 0
M  V30 3616 H 346.01 4.22682 -0.975805 0
M  V30 3617 H 346.681 5.51995 0.0227149 0
M  V30 3618 H 349.157 3.98712 1.19031 0
M  V30 3619 H 348.033 5.11533 1.99061 0
M  V30 3620 H 348.294 3.51918 2.67593 0
M  V30 3621 N 347.353 -0.0568162 1.57498 0
M  V30 3622 C 348.6 -0.753104 1.87975 0
M  V30 3623 C 348.928 -1.76815 0.81035 0
M  V30 3624 O 348.183 -1.94756 -0.19199 0
M  V30 3625 C 348.482 -1.48359 3.25153 0
M  V30 3626 C 348.148 -0.60713 4.46794 0
M  V30 3627 C 346.81 -0.365642 4.79809 0
M  V30 3628 C 349.162 -0.000305978 5.212 0
M  V30 3629 C 346.49 0.491905 5.84634 0
M  V30 3630 C 348.842 0.844781 6.26934 0
M  V30 3631 C 347.506 1.096 6.58441 0
M  V30 3632 H 346.776 -0.27558 0.687849 0
M  V30 3633 H 349.423 -0.0135173 1.91495 0
M  V30 3634 H 347.728 -2.29577 3.17492 0
M  V30 3635 H 349.425 -2.02739 3.45974 0
M  V30 3636 H 346.015 -0.805487 4.20963 0
M  V30 3637 H 350.199 -0.173961 4.95995 0
M  V30 3638 H 345.455 0.695131 6.07436 0
M  V30 3639 H 349.629 1.32165 6.83744 0
M  V30 3640 H 347.256 1.76224 7.39492 0
M  V30 3641 N 348.832 -1.54138 -0.328536 0
M  V30 3642 C 350.08 -1.71765 -1.06496 0
M  V30 3643 C 350.401 -0.49149 -1.88704 0
M  V30 3644 O 349.671 0.494539 -1.89555 0
M  V30 3645 H 348.251 -0.633295 -0.396164 0
M  V30 3646 H 350.913 -1.91429 -0.366176 0
M  V30 3647 H 350.009 -2.5951 -1.73381 0
M  V30 3648 N 350.31 0.590341 -1.46126 0
M  V30 3649 C 351.535 1.37991 -1.54833 0
M  V30 3650 C 351.96 1.87163 -0.187506 0
M  V30 3651 O 351.318 1.61133 0.831008 0
M  V30 3652 C 351.366 2.54867 -2.55098 0
M  V30 3653 O 350.47 3.56061 -2.08073 0
M  V30 3654 H 349.811 0.411265 -0.521303 0
M  V30 3655 H 352.341 0.716819 -1.91632 0
M  V30 3656 H 352.351 3.01886 -2.74461 0
M  V30 3657 H 351.026 2.18429 -3.53923 0
M  V30 3658 H 349.603 3.15574 -1.98664 0
M  V30 3659 N 351.788 1.33704 0.83433 0
M  V30 3660 C 352.698 1.26382 1.97648 0
M  V30 3661 C 353.714 0.173548 1.73132 0
M  V30 3662 O 354.89 0.397962 1.97429 0
M  V30 3663 C 351.955 1.00769 3.31733 0
M  V30 3664 C 351.016 2.1884 3.69334 0
M  V30 3665 C 350.249 1.9444 4.9702 0
M  V30 3666 O 350.472 0.896961 5.63303 0
M  V30 3667 O 349.406 2.81093 5.32231 0
M  V30 3668 H 353.232 2.22444 2.06767 0
M  V30 3669 H 350.817 1.13795 0.968037 0
M  V30 3670 H 352.699 0.882186 4.12062 0
M  V30 3671 H 351.374 0.0773783 3.23608 0
M  V30 3672 H 350.281 2.36946 2.89495 0
M  V30 3673 H 351.614 3.10221 3.82131 0
M  V30 3674 N 353.266 -1.05314 1.17247 0
M  V30 3675 C 354.682 -1.30452 0.919473 0
M  V30 3676 C 354.882 -1.9703 -0.42209 0
M  V30 3677 O 353.938 -2.24311 -1.15935 0
M  V30 3678 C 355.251 -2.17551 2.07586 0
M  V30 3679 C 356.799 -2.30937 2.11275 0
M  V30 3680 C 357.274 -3.21396 3.26296 0
M  V30 3681 N 358.765 -3.28981 3.26076 0
M  V30 3682 C 359.5 -3.99095 4.11716 0
M  V30 3683 N 358.996 -4.71648 5.07465 0
M  V30 3684 N 360.789 -3.95247 3.9967 0
M  V30 3685 H 352.94 -0.604988 2.03602 0
M  V30 3686 H 355.203 -0.329368 0.888944 0
M  V30 3687 H 354.909 -1.75921 3.0454 0
M  V30 3688 H 354.783 -3.18182 2.02584 0
M  V30 3689 H 357.17 -2.71809 1.14907 0
M  V30 3690 H 357.251 -1.2994 2.20339 0
M  V30 3691 H 356.895 -2.81238 4.22927 0
M  V30 3692 H 356.825 -4.22395 3.14467 0
M  V30 3693 H 359.316 -2.77286 2.5675 0
M  V30 3694 H 359.629 -5.22705 5.6921 0
M  V30 3695 H 357.974 -4.70594 5.11435 0
M  V30 3696 H 361.165 -3.37691 3.24164 0
M  V30 3697 H 361.338 -4.4962 4.66632 0
M  V30 3698 N 354.744 -0.972509 -1.24016 0
M  V30 3699 C 355.677 -0.45117 -2.23696 0
M  V30 3700 C 356.655 0.477378 -1.55434 0
M  V30 3701 O 357.839 0.407647 -1.84039 0
M  V30 3702 C 354.966 0.34818 -3.36906 0
M  V30 3703 C 354.012 -0.523355 -4.23277 0
M  V30 3704 S 354.845 -1.96647 -4.98087 0
M  V30 3705 C 356.001 -1.17604 -6.14752 0
M  V30 3706 H 356.234 -1.29588 -2.67571 0
M  V30 3707 H 353.767 -0.777903 -1.33372 0
M  V30 3708 H 355.725 0.803387 -4.02562 0
M  V30 3709 H 354.386 1.16792 -2.91579 0
M  V30 3710 H 353.579 0.0906181 -5.03919 0
M  V30 3711 H 353.181 -0.914485 -3.62647 0
M  V30 3712 H 355.473 -0.433434 -6.76112 0
M  V30 3713 H 356.416 -1.95701 -6.8052 0
M  V30 3714 H 356.824 -0.698295 -5.60164 0
M  V30 3715 N 356.222 1.38976 -0.743202 0
M  V30 3716 C 357.155 2.28128 -0.0572165 0
M  V30 3717 C 358.133 1.44827 0.739182 0
M  V30 3718 O 359.317 1.74207 0.720009 0
M  V30 3719 C 356.444 3.25796 0.926001 0
M  V30 3720 C 355.49 4.25947 0.217099 0
M  V30 3721 S 356.323 5.24604 -1.07477 0
M  V30 3722 C 357.479 6.25829 -0.0943545 0
M  V30 3723 H 357.712 2.85961 -0.813246 0
M  V30 3724 H 355.245 1.44822 -0.535341 0
M  V30 3725 H 357.203 3.82583 1.48797 0
M  V30 3726 H 355.864 2.66966 1.65493 0
M  V30 3727 H 355.057 4.94746 0.961372 0
M  V30 3728 H 354.659 3.73002 -0.273059 0
M  V30 3729 H 356.951 6.73411 0.743239 0
M  V30 3730 H 357.894 7.0412 -0.749713 0
M  V30 3731 H 358.302 5.63797 0.281706 0
M  V30 3732 N 357.7 0.491464 1.49741 0
M  V30 3733 C 358.946 -0.0485431 2.03342 0
M  V30 3734 C 359.301 -1.35566 1.36527 0
M  V30 3735 O 358.594 -1.85262 0.488729 0
M  V30 3736 C 358.788 -0.267329 3.56399 0
M  V30 3737 C 358.617 1.01703 4.38049 0
M  V30 3738 C 357.387 1.56614 4.80417 0
M  V30 3739 C 359.585 1.91782 4.77204 0
M  V30 3740 N 357.567 2.7974 5.4646 0
M  V30 3741 C 358.938 2.99489 5.42868 0
M  V30 3742 C 360.993 1.92575 4.5915 0
M  V30 3743 C 359.696 4.08005 5.92389 0
M  V30 3744 C 361.722 3.0006 5.09626 0
M  V30 3745 C 361.084 4.06485 5.75282 0
M  V30 3746 H 357.183 0.0227779 0.781668 0
M  V30 3747 H 359.767 0.664204 1.8302 0
M  V30 3748 H 357.938 -0.949126 3.76625 0
M  V30 3749 H 359.67 -0.803492 3.96644 0
M  V30 3750 H 356.425 1.11256 4.60347 0
M  V30 3751 H 356.849 3.42323 5.84075 0
M  V30 3752 H 361.491 1.11605 4.07804 0
M  V30 3753 H 359.209 4.89779 6.42761 0
M  V30 3754 H 362.795 3.01681 4.97473 0
M  V30 3755 H 361.675 4.88287 6.13633 0
M  V30 3756 N 359.178 -1.55987 0.224894 0
M  V30 3757 C 360.425 -1.9839 -0.4059 0
M  V30 3758 C 360.753 -1.11261 -1.59535 0
M  V30 3759 O 360.008 -0.158314 -1.95059 0
M  V30 3760 C 360.307 -3.46394 -0.880106 0
M  V30 3761 C 359.973 -4.5046 0.19918 0
M  V30 3762 C 358.635 -4.7864 0.495661 0
M  V30 3763 C 360.987 -5.12855 0.928939 0
M  V30 3764 C 358.315 -5.66497 1.52636 0
M  V30 3765 C 360.667 -6.01828 1.949 0
M  V30 3766 C 359.331 -6.28351 2.25236 0
M  V30 3767 H 358.601 -0.725961 -0.148529 0
M  V30 3768 H 361.248 -1.88668 0.328113 0
M  V30 3769 H 359.553 -3.53337 -1.69294 0
M  V30 3770 H 361.25 -3.76577 -1.37808 0
M  V30 3771 H 357.84 -4.28579 -0.0420526 0
M  V30 3772 H 362.024 -4.9115 0.713129 0
M  V30 3773 H 357.28 -5.8531 1.76698 0
M  V30 3774 H 361.454 -6.49225 2.51951 0
M  V30 3775 H 359.081 -6.96226 3.05244 0
M  V30 3776 N 360.656 0.0484629 -1.57525 0
M  V30 3777 C 361.881 0.759177 -1.93006 0
M  V30 3778 C 362.306 1.69125 -0.823317 0
M  V30 3779 O 361.664 1.79931 0.222364 0
M  V30 3780 C 361.712 1.50899 -3.27509 0
M  V30 3781 O 360.816 2.62112 -3.18388 0
M  V30 3782 H 360.157 0.205564 -0.631379 0
M  V30 3783 H 362.687 0.00972959 -2.04598 0
M  V30 3784 H 362.697 1.88317 -3.6194 0
M  V30 3785 H 361.372 0.825269 -4.0763 0
M  V30 3786 H 359.949 2.27379 -2.95556 0
M  V30 3787 N 362.134 1.5431 0.320358 0
M  V30 3788 C 363.545 1.63872 0.894594 0
M  V30 3789 C 363.896 0.534847 1.88769 0
M  V30 3790 O 363.021 -0.331732 2.13842 0
M  V30 3791 C 363.616 2.97049 1.62934 0
M  V30 3792 C 362.175 3.08796 2.15226 0
M  V30 3793 C 361.322 2.59456 0.978671 0
M  V30 3794 H 364.273 1.58398 0.0978544 0
M  V30 3795 H 364.294 2.87388 2.49376 0
M  V30 3796 H 363.806 3.7737 0.906302 0
M  V30 3797 H 361.907 2.33156 2.90636 0
M  V30 3798 H 362.02 4.14649 2.40006 0
M  V30 3799 H 360.384 2.1543 1.35875 0
M  V30 3800 H 361.167 3.42237 0.269895 0
M  V30 3801 N 363.613 -0.582584 1.46437 0
M  V30 3802 C 364.859 -1.34278 1.51978 0
M  V30 3803 C 365.192 -1.93446 0.170973 0
M  V30 3804 O 364.467 -1.76481 -0.817608 0
M  V30 3805 C 364.75 -2.47203 2.61845 0
M  V30 3806 C 364.603 -1.93069 4.06257 0
M  V30 3807 C 365.922 -3.49247 2.67795 0
M  V30 3808 H 363.041 -0.486876 0.553282 0
M  V30 3809 H 365.683 -0.654437 1.78374 0
M  V30 3810 H 363.833 -3.0592 2.39469 0
M  V30 3811 H 365.505 -1.38808 4.3992 0
M  V30 3812 H 363.748 -1.23898 4.1573 0
M  V30 3813 H 364.419 -2.74586 4.7886 0
M  V30 3814 H 366.895 -3.00411 2.8791 0
M  V30 3815 H 365.771 -4.25719 3.46489 0
M  V30 3816 H 366.032 -4.06482 1.73852 0
M  V30 3817 N 365.091 -1.34144 -0.827227 0
M  V30 3818 C 366.319 -1.29325 -1.61501 0
M  V30 3819 C 366.734 0.13354 -1.88327 0
M  V30 3820 O 366.091 1.0793 -1.47164 0
M  V30 3821 C 366.142 -2.07746 -2.95844 0
M  V30 3822 O 365.863 -3.4486 -2.70191 0
M  V30 3823 C 367.364 -2.10273 -3.90256 0
M  V30 3824 H 364.584 -0.445069 -0.50215 0
M  V30 3825 H 367.128 -1.76693 -1.02955 0
M  V30 3826 H 365.283 -1.6403 -3.5096 0
M  V30 3827 H 365.697 -3.85345 -3.55822 0
M  V30 3828 H 367.171 -2.69575 -4.81698 0
M  V30 3829 H 367.648 -1.096 -4.25305 0
M  V30 3830 H 368.254 -2.54059 -3.41078 0
M  V30 3831 N 366.569 1.04691 -1.17803 0
M  V30 3832 C 367.499 2.14494 -0.92275 0
M  V30 3833 C 368.48 1.69546 0.137179 0
M  V30 3834 O 369.665 1.94195 -0.0141108 0
M  V30 3835 C 366.795 3.44491 -0.440803 0
M  V30 3836 C 365.749 4.03031 -1.4405 0
M  V30 3837 C 365.075 5.28432 -0.81631 0
M  V30 3838 C 366.375 4.39932 -2.81527 0
M  V30 3839 H 368.069 2.36107 -1.84103 0
M  V30 3840 H 365.615 1.1347 -0.886599 0
M  V30 3841 H 367.568 4.2066 -0.249602 0
M  V30 3842 H 366.292 3.22546 0.513025 0
M  V30 3843 H 364.951 3.28937 -1.61853 0
M  V30 3844 H 364.599 5.02792 0.144511 0
M  V30 3845 H 364.299 5.68559 -1.48371 0
M  V30 3846 H 365.823 6.07284 -0.635496 0
M  V30 3847 H 367.237 5.07113 -2.67412 0
M  V30 3848 H 365.634 4.9109 -3.44892 0
M  V30 3849 H 366.704 3.50045 -3.35554 0
M  V30 3850 N 368.047 0.979072 1.23499 0
M  V30 3851 C 368.994 0.517904 2.24914 0
M  V30 3852 C 369.964 -0.442525 1.60097 0
M  V30 3853 O 371.149 -0.350365 1.87556 0
M  V30 3854 C 368.289 -0.174813 3.44657 0
M  V30 3855 C 367.402 0.825721 4.24035 0
M  V30 3856 C 366.537 0.107946 5.3109 0
M  V30 3857 C 365.576 1.09778 6.02175 0
M  V30 3858 N 364.713 0.40925 7.00906 0
M  V30 3859 H 369.553 1.38751 2.63727 0
M  V30 3860 H 367.09 0.695303 1.2963 0
M  V30 3861 H 369.048 -0.593233 4.12961 0
M  V30 3862 H 367.678 -1.0083 3.06648 0
M  V30 3863 H 366.73 1.36253 3.55161 0
M  V30 3864 H 368.042 1.58005 4.73113 0
M  V30 3865 H 367.196 -0.367904 6.05583 0
M  V30 3866 H 365.935 -0.678994 4.8295 0
M  V30 3867 H 364.94 1.5844 5.26476 0
M  V30 3868 H 366.165 1.88536 6.52404 0
M  V30 3869 H 364.111 -0.358506 6.5502 0
M  V30 3870 H 364.028 1.10226 7.47921 0
M  V30 3871 H 365.296 -0.0442557 7.79487 0
M  V30 3872 N 369.525 -1.3858 0.750561 0
M  V30 3873 C 370.435 -2.34278 0.122825 0
M  V30 3874 C 371.451 -1.59116 -0.704131 0
M  V30 3875 O 372.627 -1.91326 -0.628987 0
M  V30 3876 C 369.692 -3.38221 -0.762086 0
M  V30 3877 C 368.753 -4.29227 0.078896 0
M  V30 3878 C 367.986 -5.28205 -0.763874 0
M  V30 3879 O 368.209 -5.34112 -2.00201 0
M  V30 3880 O 367.143 -6.01618 -0.18428 0
M  V30 3881 H 370.969 -2.89649 0.913088 0
M  V30 3882 H 368.554 -1.40374 0.511417 0
M  V30 3883 H 370.436 -4.01872 -1.26793 0
M  V30 3884 H 369.111 -2.85211 -1.5309 0
M  V30 3885 H 368.018 -3.68747 0.630621 0
M  V30 3886 H 369.351 -4.85484 0.810289 0
M  V30 3887 N 371.003 -0.499398 -1.49478 0
M  V30 3888 C 371.933 0.269244 -2.31943 0
M  V30 3889 C 372.914 0.964054 -1.40143 0
M  V30 3890 O 374.099 0.955767 -1.69052 0
M  V30 3891 C 371.229 1.33504 -3.20615 0
M  V30 3892 C 370.183 0.760202 -4.21195 0
M  V30 3893 C 369.509 1.9264 -4.98792 0
M  V30 3894 C 370.809 -0.247661 -5.21712 0
M  V30 3895 H 372.503 -0.419082 -2.96452 0
M  V30 3896 H 370.049 -0.202988 -1.42562 0
M  V30 3897 H 372.002 1.88048 -3.77115 0
M  V30 3898 H 370.726 2.05253 -2.54045 0
M  V30 3899 H 369.385 0.23653 -3.65836 0
M  V30 3900 H 369.033 2.63154 -4.28671 0
M  V30 3901 H 368.733 1.54785 -5.66847 0
M  V30 3902 H 370.257 2.4762 -5.58137 0
M  V30 3903 H 371.671 0.209579 -5.72917 0
M  V30 3904 H 370.068 -0.541962 -5.97648 0
M  V30 3905 H 371.138 -1.16409 -4.7072 0
M  V30 3906 N 372.481 1.55866 -0.233164 0
M  V30 3907 C 373.411 2.23783 0.666599 0
M  V30 3908 C 374.392 1.21343 1.19205 0
M  V30 3909 O 375.577 1.4996 1.23392 0
M  V30 3910 C 372.707 2.92671 1.86978 0
M  V30 3911 C 371.661 4.01682 1.47768 0
M  V30 3912 C 370.987 4.57926 2.76058 0
M  V30 3913 C 372.287 5.18126 0.658993 0
M  V30 3914 H 373.981 2.99232 0.100306 0
M  V30 3915 H 371.527 1.43924 0.046804 0
M  V30 3916 H 373.48 3.3888 2.50476 0
M  V30 3917 H 372.204 2.14688 2.46123 0
M  V30 3918 H 370.863 3.56222 0.866106 0
M  V30 3919 H 370.511 3.76659 3.33372 0
M  V30 3920 H 370.211 5.31505 2.50552 0
M  V30 3921 H 371.735 5.06859 3.40479 0
M  V30 3922 H 373.149 5.60644 1.19795 0
M  V30 3923 H 371.546 5.98009 0.500552 0
M  V30 3924 H 372.616 4.83763 -0.331856 0
M  V30 3925 N 373.959 -0.0401083 1.57549 0
M  V30 3926 C 374.869 -1.06133 2.0922 0
M  V30 3927 C 375.885 -1.40356 1.0284 0
M  V30 3928 O 377.061 -1.49897 1.34509 0
M  V30 3929 C 374.126 -2.34658 2.55218 0
M  V30 3930 C 373.187 -2.07117 3.76033 0
M  V30 3931 C 372.42 -3.29514 4.19829 0
M  V30 3932 O 372.643 -4.39794 3.63232 0
M  V30 3933 O 371.577 -3.15863 5.12362 0
M  V30 3934 H 375.403 -0.652244 2.96613 0
M  V30 3935 H 372.988 -0.256368 1.47184 0
M  V30 3936 H 374.87 -3.10239 2.85184 0
M  V30 3937 H 373.545 -2.74883 1.70941 0
M  V30 3938 H 372.452 -1.29139 3.51104 0
M  V30 3939 H 373.785 -1.71754 4.61261 0
M  V30 3940 N 375.437 -1.54477 -0.31217 0
M  V30 3941 C 376.684 -1.73227 -1.04875 0
M  V30 3942 C 377.012 -0.512042 -1.87639 0
M  V30 3943 O 376.267 0.506131 -1.89042 0
M  V30 3944 C 376.566 -2.967 -1.99258 0
M  V30 3945 C 376.232 -4.30974 -1.32559 0
M  V30 3946 C 374.894 -4.67477 -1.141 0
M  V30 3947 C 377.246 -5.14258 -0.847835 0
M  V30 3948 C 374.574 -5.84852 -0.465326 0
M  V30 3949 C 376.926 -6.32327 -0.185931 0
M  V30 3950 C 375.59 -6.67499 0.0107077 0
M  V30 3951 H 374.86 -0.633881 -0.383765 0
M  V30 3952 H 377.507 -1.88727 -0.324731 0
M  V30 3953 H 375.812 -2.75935 -2.7815 0
M  V30 3954 H 377.509 -3.08401 -2.563 0
M  V30 3955 H 374.099 -4.02262 -1.4793 0
M  V30 3956 H 378.283 -4.86565 -0.978192 0
M  V30 3957 H 373.539 -6.10654 -0.301883 0
M  V30 3958 H 377.713 -6.96135 0.192211 0
M  V30 3959 H 375.34 -7.58306 0.536287 0
M  V30 3960 N 376.915 0.57481 -1.46744 0
M  V30 3961 C 377.862 1.68329 -1.57905 0
M  V30 3962 C 378.832 1.60625 -0.422927 0
M  V30 3963 O 380.017 1.79721 -0.640711 0
M  V30 3964 C 377.157 3.06665 -1.58274 0
M  V30 3965 C 376.27 3.24935 -2.84678 0
M  V30 3966 C 375.405 4.53566 -2.76499 0
M  V30 3967 C 374.444 4.65207 -3.97806 0
M  V30 3968 N 373.581 5.85172 -3.87967 0
M  V30 3969 H 378.421 1.58127 -2.52587 0
M  V30 3970 H 375.958 0.770552 -1.25303 0
M  V30 3971 H 377.916 3.86745 -1.56473 0
M  V30 3972 H 376.546 3.15745 -0.671194 0
M  V30 3973 H 375.598 2.38405 -2.96424 0
M  V30 3974 H 376.91 3.29403 -3.7456 0
M  V30 3975 H 376.064 5.41885 -2.72848 0
M  V30 3976 H 374.803 4.51548 -1.8427 0
M  V30 3977 H 373.808 3.75304 -4.0178 0
M  V30 3978 H 375.033 4.68997 -4.9114 0
M  V30 3979 H 372.979 5.84137 -2.98529 0
M  V30 3980 H 372.896 5.90943 -4.71511 0
M  V30 3981 H 374.164 6.759 -3.88303 0
M  V30 3982 N 378.394 1.34581 0.820102 0
M  V30 3983 C 379.641 1.27096 1.57648 0
M  V30 3984 C 379.969 -0.158317 1.93855 0
M  V30 3985 O 379.224 -1.12028 1.60463 0
M  V30 3986 C 379.523 2.10997 2.8847 0
M  V30 3987 C 379.189 3.59966 2.71543 0
M  V30 3988 C 377.851 4.00575 2.66634 0
M  V30 3989 C 380.203 4.54548 2.55021 0
M  V30 3990 C 377.531 5.33953 2.43128 0
M  V30 3991 C 379.883 5.88109 2.33047 0
M  V30 3992 C 378.547 6.27878 2.26552 0
M  V30 3993 H 377.817 0.465078 0.576874 0
M  V30 3994 H 380.464 1.6635 0.948671 0
M  V30 3995 H 378.769 1.6458 3.55557 0
M  V30 3996 H 380.466 2.0255 3.46084 0
M  V30 3997 H 377.056 3.27733 2.76205 0
M  V30 3998 H 381.24 4.24069 2.57835 0
M  V30 3999 H 376.496 5.63781 2.3656 0
M  V30 4000 H 380.67 6.60985 2.19251 0
M  V30 4001 H 378.297 7.31162 2.081 0
M  V30 4002 N 379.872 -1.04064 1.18357 0
M  V30 4003 C 380.819 -2.12077 0.910603 0
M  V30 4004 C 381.789 -1.65421 -0.15 0
M  V30 4005 O 382.974 -1.90797 -0.0103614 0
M  V30 4006 C 380.114 -3.42252 0.442472 0
M  V30 4007 C 379.227 -4.0252 1.5685 0
M  V30 4008 C 378.362 -5.20657 1.05309 0
M  V30 4009 C 377.401 -5.72955 2.1538 0
M  V30 4010 N 376.538 -6.8238 1.65233 0
M  V30 4011 H 381.378 -2.34764 1.83548 0
M  V30 4012 H 378.915 -1.15157 0.915279 0
M  V30 4013 H 380.873 -4.16921 0.152534 0
M  V30 4014 H 379.503 -3.19712 -0.445428 0
M  V30 4015 H 378.555 -3.25178 1.97391 0
M  V30 4016 H 379.867 -4.37362 2.39824 0
M  V30 4017 H 379.021 -6.0244 0.717677 0
M  V30 4018 H 377.76 -4.87318 0.19293 0
M  V30 4019 H 376.765 -4.89793 2.49766 0
M  V30 4020 H 377.99 -6.08337 3.01832 0
M  V30 4021 H 375.936 -6.50917 0.815064 0
M  V30 4022 H 375.853 -7.16286 2.41805 0
M  V30 4023 H 377.121 -7.67788 1.34619 0
M  V30 4024 N 381.35 -0.985608 -1.22978 0
M  V30 4025 C 382.58 -0.674603 -1.95276 0
M  V30 4026 C 382.988 0.763483 -1.73111 0
M  V30 4027 O 382.331 1.52601 -1.02268 0
M  V30 4028 C 382.393 -0.891597 -3.48268 0
M  V30 4029 C 382.057 -2.31275 -3.94158 0
M  V30 4030 C 383.054 -3.29179 -4.02415 0
M  V30 4031 C 380.739 -2.64524 -4.27004 0
M  V30 4032 C 382.733 -4.58407 -4.42879 0
M  V30 4033 C 380.42 -3.93974 -4.67149 0
M  V30 4034 C 381.418 -4.90727 -4.75053 0
M  V30 4035 O 381.106 -6.17865 -5.14294 0
M  V30 4036 H 380.838 -0.249251 -0.628371 0
M  V30 4037 H 383.392 -1.32106 -1.5728 0
M  V30 4038 H 381.622 -0.187962 -3.86243 0
M  V30 4039 H 383.311 -0.576957 -4.01779 0
M  V30 4040 H 384.077 -3.04823 -3.77237 0
M  V30 4041 H 379.956 -1.89923 -4.2006 0
M  V30 4042 H 383.5 -5.33926 -4.48964 0
M  V30 4043 H 379.397 -4.18122 -4.91777 0
M  V30 4044 H 380.165 -6.21694 -5.32389 0
M  V30 4045 N 382.828 1.3818 -0.7579 0
M  V30 4046 C 384.239 1.82726 -0.383134 0
M  V30 4047 C 384.59 1.63214 1.08884 0
M  V30 4048 O 383.715 1.13566 1.84205 0
M  V30 4049 C 384.31 3.31728 -0.688631 0
M  V30 4050 C 382.869 3.74606 -0.367091 0
M  V30 4051 C 382.016 2.60896 -0.939599 0
M  V30 4052 H 384.967 1.26847 -0.953699 0
M  V30 4053 H 384.988 3.80487 0.0316492 0
M  V30 4054 H 384.5 3.45898 -1.76001 0
M  V30 4055 H 382.601 3.66013 0.697532 0
M  V30 4056 H 382.714 4.71215 -0.865658 0
M  V30 4057 H 381.078 2.52075 -0.3647 0
M  V30 4058 H 381.861 2.77864 -2.0161 0
M  V30 4059 N 384.306 0.507319 1.49211 0
M  V30 4060 C 385.238 -0.304532 2.27168 0
M  V30 4061 C 386.251 -0.924956 1.33972 0
M  V30 4062 O 387.44 -0.807227 1.59205 0
M  V30 4063 C 384.54 -1.44431 3.06583 0
M  V30 4064 C 383.713 -0.930026 4.27398 0
M  V30 4065 C 382.772 -1.94817 4.88807 0
M  V30 4066 O 381.798 -1.51418 5.4869 0
M  V30 4067 N 383 -3.279 4.79022 0
M  V30 4068 H 385.765 0.36395 2.97482 0
M  V30 4069 H 383.326 0.340249 1.58284 0
M  V30 4070 H 385.318 -2.12311 3.44537 0
M  V30 4071 H 383.888 -2.01684 2.38835 0
M  V30 4072 H 383.108 -0.0759244 3.94127 0
M  V30 4073 H 384.396 -0.564932 5.05654 0
M  V30 4074 H 383.794 -3.65843 4.3148 0
M  V30 4075 H 382.351 -3.91476 5.21142 0
M  V30 4076 N 385.784 -1.5574 0.241426 0
M  V30 4077 C 386.747 -2.19877 -0.647063 0
M  V30 4078 C 387.747 -1.16642 -1.10686 0
M  V30 4079 O 388.937 -1.41757 -1.01245 0
M  V30 4080 C 386.069 -2.83797 -1.88871 0
M  V30 4081 H 387.262 -2.99772 -0.087574 0
M  V30 4082 H 384.815 -1.56298 -0.00813574 0
M  V30 4083 H 385.55 -2.07824 -2.48957 0
M  V30 4084 H 385.335 -3.59414 -1.56728 0
M  V30 4085 H 386.825 -3.32898 -2.52129 0
M  V30 4086 N 387.262 0.0317525 -1.57568 0
M  V30 4087 C 388.673 0.578692 -1.77505 0
M  V30 4088 C 389.024 1.75749 -0.872164 0
M  V30 4089 O 388.149 2.16298 -0.0663106 0
M  V30 4090 C 388.744 1.05658 -3.21904 0
M  V30 4091 C 387.303 1.54906 -3.43047 0
M  V30 4092 C 386.45 0.485939 -2.73009 0
M  V30 4093 H 389.401 -0.194475 -1.57504 0
M  V30 4094 H 389.422 1.92404 -3.28269 0
M  V30 4095 H 388.934 0.198422 -3.87592 0
M  V30 4096 H 387.035 2.42915 -2.82529 0
M  V30 4097 H 387.148 1.59841 -4.5165 0
M  V30 4098 H 385.512 0.940354 -2.36705 0
M  V30 4099 H 386.295 -0.362709 -3.41379 0
M  V30 4100 N 388.74 1.54641 0.303973 0
M  V30 4101 C 389.986 1.74038 1.04109 0
M  V30 4102 C 390.319 0.523051 1.87024 0
M  V30 4103 O 389.594 -0.479874 1.88487 0
M  V30 4104 C 389.877 3.02761 1.94955 0
M  V30 4105 C 389.73 4.34787 1.1524 0
M  V30 4106 C 391.049 3.27336 2.94175 0
M  V30 4107 H 388.168 0.63323 0.377079 0
M  V30 4108 H 390.81 1.87354 0.316001 0
M  V30 4109 H 388.96 2.9154 2.56782 0
M  V30 4110 H 390.632 4.57922 0.557236 0
M  V30 4111 H 388.875 4.31407 0.455053 0
M  V30 4112 H 389.546 5.21116 1.8205 0
M  V30 4113 H 392.022 3.38148 2.42477 0
M  V30 4114 H 390.898 4.18726 3.54908 0
M  V30 4115 H 391.159 2.45491 3.67677 0
M  V30 4116 N 390.218 -0.567019 1.47046 0
M  V30 4117 C 391.467 -1.32091 1.5243 0
M  V30 4118 C 391.78 -1.94704 0.187021 0
M  V30 4119 O 392.986 -2.7124 0.118771 0
M  V30 4120 C 391.442 -2.39479 2.68659 0
M  V30 4121 C 391.05 -1.831 4.08874 0
M  V30 4122 C 392.794 -3.16111 2.83327 0
M  V30 4123 C 390.701 -2.8821 5.16419 0
M  V30 4124 H 389.631 -0.496629 0.56734 0
M  V30 4125 H 392.282 -0.603354 1.73297 0
M  V30 4126 H 390.664 -3.14105 2.41152 0
M  V30 4127 H 391.838 -1.14913 4.46242 0
M  V30 4128 H 390.153 -1.19085 3.99008 0
M  V30 4129 H 392.75 -3.94585 3.60842 0
M  V30 4130 H 393.093 -3.69686 1.91411 0
M  V30 4131 H 393.626 -2.48595 3.10556 0
M  V30 4132 H 390.365 -2.39504 6.10179 0
M  V30 4133 H 389.885 -3.54839 4.8358 0
M  V30 4134 H 391.564 -3.51881 5.42945 0
M  V30 4135 N 391.696 -1.35014 -0.812953 0
M  V30 4136 C 392.629 -1.21761 -1.93001 0
M  V30 4137 C 393.607 -0.10694 -1.62248 0
M  V30 4138 O 394.791 -0.273891 -1.865 0
M  V30 4139 C 391.918 -0.873404 -3.27245 0
M  V30 4140 C 390.964 -1.99523 -3.76952 0
M  V30 4141 S 391.797 -3.61009 -3.95516 0
M  V30 4142 C 392.953 -3.28651 -5.32672 0
M  V30 4143 H 393.186 -2.16315 -2.03948 0
M  V30 4144 H 390.719 -1.20156 -0.969631 0
M  V30 4145 H 392.677 -0.68161 -4.04802 0
M  V30 4146 H 391.338 0.053971 -3.14054 0
M  V30 4147 H 390.531 -1.70838 -4.74163 0
M  V30 4148 H 390.133 -2.14503 -3.06373 0
M  V30 4149 H 392.425 -2.81085 -6.1644 0
M  V30 4150 H 393.368 -4.25039 -5.66346 0
M  V30 4151 H 393.776 -2.6458 -4.98656 0
M  V30 4152 N 393.175 1.03435 -1.18907 0
M  V30 4153 C 394.423 1.76394 -0.986382 0
M  V30 4154 C 394.744 1.88883 0.484567 0
M  V30 4155 O 394.014 1.41843 1.3512 0
M  V30 4156 H 392.594 0.65344 -0.361975 0
M  V30 4157 H 395.256 1.248 -1.49703 0
M  V30 4158 H 394.352 2.77424 -1.42978 0
M  V30 4159 N 394.653 0.992116 1.22453 0
M  V30 4160 C 395.601 0.534644 2.26372 0
M  V30 4161 C 396.595 -0.414293 1.64256 0
M  V30 4162 O 397.801 -0.286899 1.77699 0
M  V30 4163 H 394.176 0.154502 0.735957 0
M  V30 4164 H 396.147 1.42256 2.62309 0
M  V30 4165 C 394.896 -0.135815 3.47435 0
M  V30 4166 H 394.219 0.585311 3.95492 0
M  V30 4167 H 395.659 -0.419374 4.21921 0
M  V30 4168 C 394.118 -1.37089 3.07747 0
M  V30 4169 O 394.648 -2.46629 3.17076 0
M  V30 4170 N 392.854 -1.24585 2.62539 0
M  V30 4171 H 392.401 -0.354542 2.55149 0
M  V30 4172 H 392.359 -2.07327 2.36353 0
M  V30 4173 N 396.131 -1.37776 0.765217 0
M  V30 4174 C 397.359 -2.04124 0.337767 0
M  V30 4175 C 397.774 -1.57715 -1.03785 0
M  V30 4176 O 397.131 -0.755447 -1.6613 0
M  V30 4177 C 397.182 -3.59658 0.364442 0
M  V30 4178 O 396.903 -4.04367 1.68579 0
M  V30 4179 C 398.404 -4.43236 -0.0754221 0
M  V30 4180 H 395.624 -0.655696 0.142491 0
M  V30 4181 H 398.168 -1.76238 1.03732 0
M  V30 4182 H 396.323 -3.86339 -0.286471 0
M  V30 4183 H 396.737 -4.98857 1.61993 0
M  V30 4184 H 398.211 -5.52 -0.00560067 0
M  V30 4185 H 398.688 -4.2455 -1.12491 0
M  V30 4186 H 399.294 -4.21767 0.547055 0
M  V30 4187 N 397.609 -0.515225 -1.4894 0
M  V30 4188 C 398.834 0.022727 -2.07388 0
M  V30 4189 C 399.259 1.2876 -1.37122 0
M  V30 4190 O 398.617 1.76067 -0.432431 0
M  V30 4191 C 398.665 0.244869 -3.59768 0
M  V30 4192 O 397.769 1.31667 -3.90817 0
M  V30 4193 H 397.11 -0.0325506 -0.663202 0
M  V30 4194 H 399.64 -0.718918 -1.91553 0
M  V30 4195 H 399.65 0.47205 -4.0526 0
M  V30 4196 H 398.325 -0.679194 -4.10317 0
M  V30 4197 H 396.902 1.07331 -3.5712 0
M  V30 4198 N 399.087 1.5561 -0.249682 0
M  V30 4199 C 400.333 1.99306 0.374841 0
M  V30 4200 C 400.666 1.13767 1.57387 0
M  V30 4201 O 399.941 0.201711 1.93451 0
M  V30 4202 C 400.224 3.51507 0.781986 0
M  V30 4203 C 400.077 4.4781 -0.422629 0
M  V30 4204 C 401.396 4.08884 1.62793 0
M  V30 4205 H 398.515 0.724572 0.134773 0
M  V30 4206 H 401.157 1.86719 -0.351549 0
M  V30 4207 H 399.307 3.62363 1.4009 0
M  V30 4208 H 400.979 4.48931 -1.06108 0
M  V30 4209 H 399.222 4.20518 -1.06524 0
M  V30 4210 H 399.893 5.51919 -0.0943766 0
M  V30 4211 H 402.369 4.01147 1.10547 0
M  V30 4212 H 401.245 5.1564 1.88166 0
M  V30 4213 H 401.506 3.57515 2.60068 0
M  V30 4214 N 400.565 -0.0233959 1.57583 0
M  V30 4215 C 401.813 -0.711654 1.89156 0
M  V30 4216 C 402.134 -1.75591 0.848096 0
M  V30 4217 O 401.404 -1.95547 -0.117566 0
M  V30 4218 H 399.984 -0.265835 0.698098 0
M  V30 4219 H 402.646 0.0119948 1.94896 0
M  V30 4220 H 401.742 -1.19766 2.88206 0
M  V30 4221 N 402.043 -1.548 -0.295768 0
M  V30 4222 C 403.454 -1.65274 -0.868411 0
M  V30 4223 C 403.805 -0.56481 -1.87894 0
M  V30 4224 O 402.93 0.29767 -2.14343 0
M  V30 4225 C 403.525 -2.99603 -1.58188 0
M  V30 4226 C 402.084 -3.12181 -2.10286 0
M  V30 4227 C 401.231 -2.6098 -0.93727 0
M  V30 4228 H 404.182 -1.58534 -0.0726422 0
M  V30 4229 H 404.203 -2.91319 -2.44772 0
M  V30 4230 H 403.715 -3.78764 -0.846151 0
M  V30 4231 H 401.816 -2.3775 -2.8689 0
M  V30 4232 H 401.929 -4.18415 -2.33379 0
M  V30 4233 H 400.293 -2.17564 -1.32431 0
M  V30 4234 H 401.076 -3.42623 -0.215414 0
M  V30 4235 N 403.521 0.559213 -1.47345 0
M  V30 4236 C 404.431 1.69388 -1.62311 0
M  V30 4237 C 405.447 1.6648 -0.505993 0
M  V30 4238 O 406.623 1.85964 -0.773262 0
M  V30 4239 C 403.688 3.05894 -1.63185 0
M  V30 4240 C 402.749 3.19885 -2.86307 0
M  V30 4241 C 401.982 4.49879 -2.87131 0
M  V30 4242 O 402.205 5.35217 -1.97229 0
M  V30 4243 O 401.139 4.67618 -3.78968 0
M  V30 4244 H 404.965 1.59706 -2.58317 0
M  V30 4245 H 402.55 0.728989 -1.30407 0
M  V30 4246 H 404.432 3.87133 -1.66451 0
M  V30 4247 H 403.107 3.15964 -0.70345 0
M  V30 4248 H 402.014 2.38052 -2.88587 0
M  V30 4249 H 403.347 3.14718 -3.78435 0
M  V30 4250 N 404.999 1.35443 0.805782 0
M  V30 4251 C 406.245 1.28952 1.56522 0
M  V30 4252 C 406.578 -0.135597 1.93726 0
M  V30 4253 O 405.853 -1.08516 1.61414 0
M  V30 4254 C 406.136 2.19678 2.85331 0
M  V30 4255 C 405.989 3.7081 2.54598 0
M  V30 4256 C 407.308 2.09495 3.8704 0
M  V30 4257 H 404.427 0.469764 0.567883 0
M  V30 4258 H 407.069 1.65851 0.927001 0
M  V30 4259 H 405.219 1.8834 3.39795 0
M  V30 4260 H 406.891 4.12593 2.06312 0
M  V30 4261 H 405.134 3.91051 1.8778 0
M  V30 4262 H 405.805 4.29679 3.46525 0
M  V30 4263 H 408.281 2.37045 3.41978 0
M  V30 4264 H 407.157 2.75173 4.74943 0
M  V30 4265 H 407.418 1.07714 4.28777 0
M  V30 4266 N 406.477 -1.02803 1.19454 0
M  V30 4267 C 407.424 -2.11099 0.933046 0
M  V30 4268 C 408.394 -1.65571 -0.132447 0
M  V30 4269 O 409.579 -1.90797 0.00987576 0
M  V30 4270 C 406.719 -3.41763 0.478747 0
M  V30 4271 C 405.832 -4.00833 1.6111 0
M  V30 4272 C 404.967 -5.19511 1.10825 0
M  V30 4273 C 404.006 -5.70639 2.21445 0
M  V30 4274 N 403.143 -6.80589 1.72461 0
M  V30 4275 H 407.983 -2.32804 1.86028 0
M  V30 4276 H 405.52 -1.14179 0.927441 0
M  V30 4277 H 407.478 -4.16736 0.196745 0
M  V30 4278 H 406.108 -3.20166 -0.411493 0
M  V30 4279 H 405.16 -3.23066 2.00829 0
M  V30 4280 H 406.472 -4.34794 2.4445 0
M  V30 4281 H 405.626 -6.01645 0.781533 0
M  V30 4282 H 404.365 -4.87086 0.244606 0
M  V30 4283 H 403.37 -4.87116 2.54947 0
M  V30 4284 H 404.595 -6.05102 3.08267 0
M  V30 4285 H 402.541 -6.50016 0.884056 0
M  V30 4286 H 402.458 -7.13681 2.49389 0
M  V30 4287 H 403.726 -7.66317 1.42755 0
M  V30 4288 N 407.956 -0.998596 -1.21925 0
M  V30 4289 C 409.203 -0.677663 -1.90824 0
M  V30 4290 C 409.531 0.790905 -1.77693 0
M  V30 4291 O 408.786 1.58817 -1.14349 0
M  V30 4292 C 409.085 -1.03648 -3.42041 0
M  V30 4293 C 408.751 -2.49825 -3.75364 0
M  V30 4294 C 407.413 -2.8977 -3.8417 0
M  V30 4295 C 409.765 -3.44545 -3.91073 0
M  V30 4296 C 407.093 -4.23412 -4.06127 0
M  V30 4297 C 409.445 -4.77853 -4.14535 0
M  V30 4298 C 408.109 -5.17531 -4.21566 0
M  V30 4299 H 407.379 -0.247975 -0.698276 0
M  V30 4300 H 410.026 -1.25584 -1.44571 0
M  V30 4301 H 408.331 -0.376457 -3.89987 0
M  V30 4302 H 410.028 -0.766113 -3.93614 0
M  V30 4303 H 406.618 -2.17866 -3.69097 0
M  V30 4304 H 410.802 -3.14853 -3.83642 0
M  V30 4305 H 406.058 -4.53734 -4.09799 0
M  V30 4306 H 410.232 -5.51189 -4.25633 0
M  V30 4307 H 407.859 -6.21102 -4.38333 0
M  V30 4308 N 409.434 1.37368 -0.772513 0
M  V30 4309 C 410.381 2.30262 -0.157488 0
M  V30 4310 C 411.351 1.51137 0.688965 0
M  V30 4311 O 412.536 1.79704 0.641168 0
M  V30 4312 C 409.676 3.37611 0.715045 0
M  V30 4313 C 408.789 4.31746 -0.148098 0
M  V30 4314 C 407.924 5.26171 0.729213 0
M  V30 4315 C 406.963 6.11948 -0.136418 0
M  V30 4316 N 406.1 6.98613 0.698914 0
M  V30 4317 H 410.94 2.82277 -0.955179 0
M  V30 4318 H 408.477 1.38957 -0.482631 0
M  V30 4319 H 410.435 3.98479 1.23575 0
M  V30 4320 H 409.065 2.86959 1.47833 0
M  V30 4321 H 408.117 3.72178 -0.786613 0
M  V30 4322 H 409.429 4.92084 -0.81579 0
M  V30 4323 H 408.583 5.92247 1.31637 0
M  V30 4324 H 407.322 4.66246 1.43059 0
M  V30 4325 H 406.327 5.4485 -0.736102 0
M  V30 4326 H 407.552 6.73945 -0.835134 0
M  V30 4327 H 405.498 6.41215 1.38489 0
M  V30 4328 H 405.415 7.55948 0.0885358 0
M  V30 4329 H 406.683 7.69077 1.27044 0
M  V30 4330 N 410.912 0.523116 1.48665 0
M  V30 4331 C 412.16 -0.0134497 2.02096 0
M  V30 4332 C 412.481 -1.35418 1.40311 0
M  V30 4333 O 411.751 -1.87543 0.566074 0
M  V30 4334 H 410.331 -0.00795915 0.746958 0
M  V30 4335 H 412.993 0.685388 1.82451 0
M  V30 4336 H 412.089 -0.126849 3.11842 0
M  V30 4337 N 412.39 -1.55475 0.257931 0
M  V30 4338 C 413.636 -1.99502 -0.364266 0
M  V30 4339 C 413.969 -1.146 -1.56782 0
M  V30 4340 O 413.244 -0.211968 -1.93342 0
M  V30 4341 C 413.527 -3.51917 -0.763333 0
M  V30 4342 C 413.38 -4.4758 0.446371 0
M  V30 4343 C 414.699 -4.09742 -1.60623 0
M  V30 4344 H 411.818 -0.725277 -0.130929 0
M  V30 4345 H 414.46 -1.8653 0.361446 0
M  V30 4346 H 412.61 -3.63101 -1.38166 0
M  V30 4347 H 414.282 -4.48362 1.08487 0
M  V30 4348 H 412.525 -4.19947 1.08753 0
M  V30 4349 H 413.196 -5.51862 0.123645 0
M  V30 4350 H 415.672 -4.01727 -1.08418 0
M  V30 4351 H 414.548 -5.16631 -1.85429 0
M  V30 4352 H 414.809 -3.58889 -2.58169 0
M  V30 4353 N 413.868 0.0150385 -1.57593 0
M  V30 4354 C 415.115 0.703001 -1.89906 0
M  V30 4355 C 415.443 1.74604 -0.856944 0
M  V30 4356 O 414.698 1.95197 0.140287 0
M  V30 4357 C 414.997 1.39686 -3.28972 0
M  V30 4358 C 414.663 0.488457 -4.48246 0
M  V30 4359 C 413.325 0.2383 -4.8061 0
M  V30 4360 C 415.677 -0.137881 -5.21018 0
M  V30 4361 C 413.005 -0.646738 -5.83125 0
M  V30 4362 C 415.357 -1.0107 -6.24474 0
M  V30 4363 C 414.021 -1.27019 -6.55303 0
M  V30 4364 H 413.291 0.257246 -0.694914 0
M  V30 4365 H 415.938 -0.037259 -1.91464 0
M  V30 4366 H 414.243 2.21079 -3.23468 0
M  V30 4367 H 415.94 1.93495 -3.51227 0
M  V30 4368 H 412.53 0.693593 -4.22951 0
M  V30 4369 H 416.714 0.0423953 -4.96282 0
M  V30 4370 H 411.97 -0.855937 -6.05379 0
M  V30 4371 H 416.144 -1.50247 -6.79999 0
M  V30 4372 H 413.771 -1.95769 -7.3456 0
M  V30 4373 N 415.346 1.54954 0.287554 0
M  V30 4374 C 416.296 1.8322 1.357 0
M  V30 4375 C 417.28 0.690152 1.45347 0
M  V30 4376 O 418.472 0.951137 1.49273 0
M  V30 4377 C 415.601 2.09481 2.71979 0
M  V30 4378 C 414.687 3.29906 2.66502 0
M  V30 4379 N 415.078 4.50154 2.30641 0
M  V30 4380 C 413.376 3.32203 2.97585 0
M  V30 4381 C 414.077 5.32209 2.34794 0
M  V30 4382 N 413.053 4.70258 2.72688 0
M  V30 4383 H 416.855 2.73746 1.0696 0
M  V30 4384 H 414.369 1.54635 0.496167 0
M  V30 4385 H 416.366 2.27882 3.49107 0
M  V30 4386 H 415.026 1.2023 3.0162 0
M  V30 4387 H 416.037 4.76515 2.02865 0
M  V30 4388 H 412.714 2.53101 3.32034 0
M  V30 4389 H 414.104 6.38321 2.09753 0
M  V30 4390 N 416.824 -0.551391 1.4764 0
M  V30 4391 C 418.235 -1.13349 1.48354 0
M  V30 4392 C 418.586 -1.94709 0.241432 0
M  V30 4393 O 417.711 -2.06306 -0.653205 0
M  V30 4394 C 418.306 -2.0623 2.68802 0
M  V30 4395 C 416.865 -2.597 2.72457 0
M  V30 4396 C 416.012 -1.36201 2.41546 0
M  V30 4397 H 418.963 -0.337698 1.55065 0
M  V30 4398 H 418.984 -2.90196 2.46103 0
M  V30 4399 H 418.496 -1.46987 3.59188 0
M  V30 4400 H 416.597 -3.22724 1.86225 0
M  V30 4401 H 416.71 -3.00296 3.73308 0
M  V30 4402 H 415.074 -1.67068 1.9225 0
M  V30 4403 H 415.857 -0.787425 3.34147 0
M  V30 4404 N 418.302 -1.35869 -0.798587 0
M  V30 4405 C 419.548 -1.2978 -1.55836 0
M  V30 4406 C 419.881 0.125322 -1.93795 0
M  V30 4407 O 419.156 1.07658 -1.61987 0
M  V30 4408 C 419.439 -2.21188 -2.84162 0
M  V30 4409 C 419.292 -3.72155 -2.52628 0
M  V30 4410 C 420.611 -2.11545 -3.85923 0
M  V30 4411 H 417.73 -0.472769 -0.565383 0
M  V30 4412 H 420.372 -1.66341 -0.918192 0
M  V30 4413 H 418.522 -1.90139 -3.38791 0
M  V30 4414 H 420.194 -4.13682 -2.04121 0
M  V30 4415 H 418.437 -3.92042 -1.85704 0
M  V30 4416 H 419.108 -4.31511 -3.44242 0
M  V30 4417 H 421.584 -2.38855 -3.40716 0
M  V30 4418 H 420.46 -2.77688 -4.73477 0
M  V30 4419 H 420.721 -1.09987 -4.282 0
M  V30 4420 N 419.78 1.02168 -1.19998 0
M  V30 4421 C 421.029 1.75091 -1.0013 0
M  V30 4422 C 421.342 1.89923 0.467835 0
M  V30 4423 O 422.548 2.59888 0.785515 0
M  V30 4424 C 421.004 3.14892 -1.74273 0
M  V30 4425 C 420.612 3.0809 -3.25245 0
M  V30 4426 C 422.356 3.9206 -1.62755 0
M  V30 4427 C 420.263 4.42867 -3.91948 0
M  V30 4428 H 419.193 0.656394 -0.37103 0
M  V30 4429 H 421.844 1.14284 -1.43567 0
M  V30 4430 H 420.226 3.7621 -1.2362 0
M  V30 4431 H 421.4 2.5611 -3.83072 0
M  V30 4432 H 419.715 2.44416 -3.3712 0
M  V30 4433 H 422.312 4.91764 -2.09934 0
M  V30 4434 H 422.655 4.12199 -0.582894 0
M  V30 4435 H 423.188 3.37359 -2.10793 0
M  V30 4436 H 419.927 4.27931 -4.96543 0
M  V30 4437 H 419.447 4.94874 -3.3891 0
M  V30 4438 H 421.126 5.11728 -3.95909 0
M  V30 4439 N 421.258 1.00505 1.21394 0
M  V30 4440 C 422.507 0.683159 1.89778 0
M  V30 4441 C 422.82 -0.789471 1.7896 0
M  V30 4442 O 424.026 -1.22344 2.42372 0
M  V30 4443 C 422.482 1.17146 3.40301 0
M  V30 4444 C 422.09 2.67017 3.5973 0
M  V30 4445 C 423.834 0.924461 4.14311 0
M  V30 4446 C 421.741 3.09387 5.04017 0
M  V30 4447 H 420.671 0.25183 0.710702 0
M  V30 4448 H 423.322 1.21622 1.37406 0
M  V30 4449 H 421.704 0.566451 3.91928 0
M  V30 4450 H 422.878 3.32968 3.18542 0
M  V30 4451 H 421.193 2.89732 2.99073 0
M  V30 4452 H 423.79 1.21658 5.20676 0
M  V30 4453 H 424.133 -0.139286 4.16067 0
M  V30 4454 H 424.666 1.49226 3.6875 0
M  V30 4455 H 421.405 4.14989 5.07409 0
M  V30 4456 H 420.925 2.48149 5.46061 0
M  V30 4457 H 422.604 3.01371 5.72525 0
M  V30 4458 N 422.737 -1.36956 0.779787 0
M  V30 4459 C 423.962 -2.04283 0.358224 0
M  V30 4460 C 424.387 -1.58422 -1.01411 0
M  V30 4461 O 423.745 -0.748179 -1.65142 0
M  V30 4462 C 423.793 -3.58152 0.419479 0
M  V30 4463 O 422.897 -4.08342 -0.577142 0
M  V30 4464 H 422.238 -0.645967 0.153698 0
M  V30 4465 H 424.768 -1.75108 1.05822 0
M  V30 4466 H 424.778 -4.07041 0.279636 0
M  V30 4467 H 423.453 -3.90886 1.42061 0
M  V30 4468 H 422.03 -3.70751 -0.399755 0
M  V30 4469 N 424.215 -0.530993 -1.48385 0
M  V30 4470 C 425.626 -0.0907905 -1.86479 0
M  V30 4471 C 425.977 1.33213 -1.44044 0
M  V30 4472 O 425.102 1.99783 -0.831615 0
M  V30 4473 C 425.697 -0.157987 -3.38431 0
M  V30 4474 C 424.256 0.227026 -3.75715 0
M  V30 4475 C 423.403 -0.5173 -2.72432 0
M  V30 4476 H 426.354 -0.742186 -1.40276 0
M  V30 4477 H 426.375 0.630053 -3.75247 0
M  V30 4478 H 425.887 -1.19372 -3.69286 0
M  V30 4479 H 423.988 1.26486 -3.50474 0
M  V30 4480 H 424.101 -0.113288 -4.78966 0
M  V30 4481 H 422.465 0.0365527 -2.54674 0
M  V30 4482 H 423.248 -1.55368 -3.0613 0
M  V30 4483 N 425.693 1.55336 -0.266172 0
M  V30 4484 C 426.97 1.91372 0.404486 0
M  V30 4485 C 427.35 1.18935 1.74407 0
M  V30 4486 O 426.698 0.3132 2.26343 0
M  V30 4487 C 426.908 3.44581 0.553593 0
M  V30 4488 C 428.256 4.16196 0.840618 0
M  V30 4489 O 429.28 3.50426 0.638739 0
M  V30 4490 O 428.139 5.32567 1.22618 0
M  V30 4491 H 425.233 0.797194 0.220025 0
M  V30 4492 H 427.779 1.66813 -0.311664 0
M  V30 4493 H 426.551 3.89357 -0.389498 0
M  V30 4494 H 426.174 3.75065 1.31955 0
M  V30 4495 N 427.171 -0.0066808 1.57599 0
M  V30 4496 C 428.587 -0.36267 1.55425 0
M  V30 4497 C 428.787 -1.75209 0.995187 0
M  V30 4498 O 427.843 -2.44616 0.626058 0
M  V30 4499 C 429.156 -0.244017 2.99708 0
M  V30 4500 C 430.704 -0.319451 3.11366 0
M  V30 4501 C 431.179 -0.229998 4.57422 0
M  V30 4502 N 432.67 -0.288105 4.62303 0
M  V30 4503 C 433.405 -0.242127 5.72889 0
M  V30 4504 N 432.901 -0.147133 6.92644 0
M  V30 4505 N 434.694 -0.293502 5.61333 0
M  V30 4506 H 426.845 0.902314 1.92281 0
M  V30 4507 H 429.108 0.34525 0.882896 0
M  V30 4508 H 428.814 0.711678 3.44424 0
M  V30 4509 H 428.688 -1.02877 3.629 0
M  V30 4510 H 431.075 -1.26559 2.66584 0
M  V30 4511 H 431.156 0.495055 2.50964 0
M  V30 4512 H 430.8 0.712566 5.02877 0
M  V30 4513 H 430.73 -1.0629 5.15761 0
M  V30 4514 H 433.221 -0.363126 3.76151 0
M  V30 4515 H 433.534 -0.117763 7.7271 0
M  V30 4516 H 431.879 -0.112857 6.94908 0
M  V30 4517 H 435.07 -0.365864 4.66668 0
M  V30 4518 H 435.243 -0.254204 6.47501 0
M  V30 4519 N 428.649 -1.55105 -0.279332 0
M  V30 4520 C 429.898 -1.74618 -1.00952 0
M  V30 4521 C 430.211 -0.551096 -1.87676 0
M  V30 4522 O 431.417 -0.628507 -2.64125 0
M  V30 4523 C 429.873 -3.09025 -1.84476 0
M  V30 4524 C 429.481 -4.36081 -1.0265 0
M  V30 4525 C 431.225 -3.37891 -2.56963 0
M  V30 4526 C 429.132 -5.6153 -1.85576 0
M  V30 4527 H 428.062 -0.650868 -0.38064 0
M  V30 4528 H 430.713 -1.81569 -0.265475 0
M  V30 4529 H 429.095 -2.96095 -2.62952 0
M  V30 4530 H 430.269 -4.59909 -0.286354 0
M  V30 4531 H 428.584 -4.14312 -0.416464 0
M  V30 4532 H 431.181 -4.28822 -3.19399 0
M  V30 4533 H 431.524 -2.57737 -3.26921 0
M  V30 4534 H 432.057 -3.5189 -1.85522 0
M  V30 4535 H 428.796 -6.44413 -1.2005 0
M  V30 4536 H 428.316 -5.41854 -2.57204 0
M  V30 4537 H 429.995 -5.99594 -2.43096 0
M  V30 4538 N 430.127 0.543554 -1.4793 0
M  V30 4539 C 431.037 1.67657 -1.64098 0
M  V30 4540 C 432.053 1.65934 -0.523622 0
M  V30 4541 O 433.229 1.85133 -0.792943 0
M  V30 4542 C 430.294 3.04146 -1.66421 0
M  V30 4543 C 429.355 3.16831 -2.89684 0
M  V30 4544 C 428.588 4.46809 -2.91886 0
M  V30 4545 O 428.811 5.33095 -2.02895 0
M  V30 4546 O 427.745 4.63573 -3.83906 0
M  V30 4547 H 431.571 1.56957 -2.59997 0
M  V30 4548 H 429.156 0.715116 -1.31173 0
M  V30 4549 H 431.038 3.85346 -1.70548 0
M  V30 4550 H 429.713 3.152 -0.736923 0
M  V30 4551 H 428.62 2.34977 -2.91095 0
M  V30 4552 H 429.953 3.10687 -3.81752 0
M  V30 4553 N 431.605 1.3629 0.791371 0
M  V30 4554 C 432.515 1.32606 1.93527 0
M  V30 4555 C 433.531 0.228541 1.72493 0
M  V30 4556 O 434.707 0.460571 1.96063 0
M  V30 4557 C 431.772 1.11271 3.28359 0
M  V30 4558 C 430.833 2.3048 3.62185 0
M  V30 4559 C 430.066 2.10154 4.90583 0
M  V30 4560 O 430.289 1.07572 5.60165 0
M  V30 4561 O 429.223 2.97884 5.23019 0
M  V30 4562 H 433.049 2.28909 1.99585 0
M  V30 4563 H 430.634 1.16818 0.931344 0
M  V30 4564 H 432.516 1.01283 4.09047 0
M  V30 4565 H 431.191 0.180292 3.23198 0
M  V30 4566 H 430.098 2.46036 2.81811 0
M  V30 4567 H 431.431 3.22221 3.72068 0
M  V30 4568 N 433.083 -1.0153 1.20538 0
M  V30 4569 C 434.013 -2.11972 0.979295 0
M  V30 4570 C 434.994 -1.6985 -0.0921787 0
M  V30 4571 O 436.179 -1.94089 0.0655932 0
M  V30 4572 C 433.309 -3.43201 0.531984 0
M  V30 4573 C 432.263 -3.9907 1.54685 0
M  V30 4574 C 431.589 -5.26082 0.956127 0
M  V30 4575 C 432.889 -4.32313 2.93092 0
M  V30 4576 H 434.583 -2.31143 1.90298 0
M  V30 4577 H 432.129 -1.11079 0.916372 0
M  V30 4578 H 434.082 -4.1985 0.361044 0
M  V30 4579 H 432.806 -3.23792 -0.427327 0
M  V30 4580 H 431.465 -3.2453 1.70517 0
M  V30 4581 H 431.113 -5.02999 -0.0111538 0
M  V30 4582 H 430.813 -5.64426 1.63393 0
M  V30 4583 H 432.337 -6.05386 0.796284 0
M  V30 4584 H 433.751 -4.99845 2.80763 0
M  V30 4585 H 432.148 -4.81774 3.57791 0
M  V30 4586 H 433.218 -3.41025 3.44717 0
M  V30 4587 N 434.561 -1.01147 -1.20859 0
M  V30 4588 C 435.786 -0.716698 -1.94623 0
M  V30 4589 C 436.211 0.715415 -1.73964 0
M  V30 4590 O 435.569 1.49157 -1.03062 0
M  V30 4591 C 435.617 -1.0513 -3.44935 0
M  V30 4592 O 434.721 -0.160131 -4.12089 0
M  V30 4593 H 434.062 -0.266404 -0.608214 0
M  V30 4594 H 436.592 -1.35346 -1.53436 0
M  V30 4595 H 436.602 -1.00086 -3.95533 0
M  V30 4596 H 435.277 -2.09475 -3.59295 0
M  V30 4597 H 433.854 -0.267657 -3.71938 0
M  V30 4598 N 436.039 1.36541 -0.78704 0
M  V30 4599 C 437.285 1.99599 -0.358872 0
M  V30 4600 C 437.618 1.62323 1.06606 0
M  V30 4601 O 436.893 0.876858 1.73613 0
M  V30 4602 C 437.176 3.56327 -0.519944 0
M  V30 4603 C 437.029 4.03464 -1.98839 0
M  V30 4604 C 438.348 4.4005 0.0664737 0
M  V30 4605 H 435.467 0.725107 -0.131869 0
M  V30 4606 H 438.109 1.6199 -0.992936 0
M  V30 4607 H 436.259 3.88495 0.0198321 0
M  V30 4608 H 437.931 3.81793 -2.58905 0
M  V30 4609 H 436.174 3.55092 -2.49183 0
M  V30 4610 H 436.845 5.12439 -2.05207 0
M  V30 4611 H 439.321 4.14228 -0.394267 0
M  V30 4612 H 438.197 5.48847 -0.0762682 0
M  V30 4613 H 438.458 4.26655 1.15835 0
M  V30 4614 N 437.518 0.538854 1.48102 0
M  V30 4615 C 438.764 0.00801365 2.02798 0
M  V30 4616 C 439.097 -1.3309 1.41424 0
M  V30 4617 O 438.372 -1.86169 0.563158 0
M  V30 4618 C 438.655 -0.104589 3.59948 0
M  V30 4619 C 438.508 1.26012 4.31788 0
M  V30 4620 C 439.827 -0.827055 4.32259 0
M  V30 4621 H 436.946 0.00438624 0.736987 0
M  V30 4622 H 439.588 0.6976 1.7673 0
M  V30 4623 H 437.738 -0.691893 3.82289 0
M  V30 4624 H 439.41 1.88922 4.2084 0
M  V30 4625 H 437.653 1.83968 3.92859 0
M  V30 4626 H 438.324 1.13424 5.40221 0
M  V30 4627 H 440.8 -0.328578 4.14801 0
M  V30 4628 H 439.676 -0.87476 5.41885 0
M  V30 4629 H 439.937 -1.87927 4.0017 0
M  V30 4630 N 438.996 -1.55193 0.274407 0
M  V30 4631 C 439.944 -2.23924 -0.629362 0
M  V30 4632 C 440.938 -1.23602 -1.1584 0
M  V30 4633 O 442.144 -1.41535 -1.11211 0
M  V30 4634 H 438.519 -0.718637 -0.221507 0
M  V30 4635 H 440.49 -2.98388 -0.0268322 0
M  V30 4636 C 439.239 -2.97329 -1.80252 0
M  V30 4637 H 438.562 -3.74313 -1.40462 0
M  V30 4638 H 440.002 -3.48743 -2.41152 0
M  V30 4639 C 438.461 -2.0276 -2.69054 0
M  V30 4640 O 438.991 -1.57836 -3.69392 0
M  V30 4641 N 437.197 -1.69275 -2.36208 0
M  V30 4642 H 436.744 -2.06004 -1.54661 0
M  V30 4643 H 436.702 -1.06271 -2.95895 0
M  V30 4644 N 440.474 -0.00167713 -1.576 0
M  V30 4645 C 441.424 0.997744 -2.0501 0
M  V30 4646 C 442.408 1.30214 -0.94515 0
M  V30 4647 O 443.6 1.29284 -1.20891 0
M  V30 4648 C 440.729 2.2892 -2.55833 0
M  V30 4649 C 439.815 2.01437 -3.73208 0
M  V30 4650 N 440.206 1.44119 -4.84833 0
M  V30 4651 C 438.504 2.31571 -3.8117 0
M  V30 4652 C 439.205 1.33145 -5.66257 0
M  V30 4653 N 438.181 1.81763 -5.12312 0
M  V30 4654 H 441.983 0.549098 -2.88725 0
M  V30 4655 H 439.497 0.20398 -1.61114 0
M  V30 4656 H 441.494 3.01361 -2.88075 0
M  V30 4657 H 440.154 2.74436 -1.73537 0
M  V30 4658 H 441.165 1.11978 -5.0565 0
M  V30 4659 H 437.842 2.7995 -3.09732 0
M  V30 4660 H 439.232 0.890567 -6.65972 0
M  V30 4661 N 441.952 1.55251 0.271103 0
M  V30 4662 C 442.915 1.87484 1.31842 0
M  V30 4663 C 443.915 0.749545 1.42262 0
M  V30 4664 O 445.105 1.01771 1.4138 0
M  V30 4665 C 442.237 2.0818 2.69951 0
M  V30 4666 H 443.43 2.81108 1.0449 0
M  V30 4667 H 440.983 1.47771 0.509258 0
M  V30 4668 H 441.718 1.16944 3.02481 0
M  V30 4669 H 441.503 2.90114 2.63774 0
M  V30 4670 H 442.993 2.34385 3.4562 0
M  V30 4671 N 443.43 -0.535701 1.48216 0
M  V30 4672 C 444.66 -1.3148 1.59363 0
M  V30 4673 C 445.068 -1.8753 0.250844 0
M  V30 4674 O 444.411 -1.66821 -0.769174 0
M  V30 4675 C 444.473 -2.50731 2.57632 0
M  V30 4676 C 444.137 -2.15811 4.02833 0
M  V30 4677 C 445.134 -1.71822 4.90686 0
M  V30 4678 C 442.819 -2.26509 4.48329 0
M  V30 4679 C 444.813 -1.3899 6.22062 0
M  V30 4680 C 442.5 -1.93289 5.79726 0
M  V30 4681 C 443.498 -1.49599 6.66415 0
M  V30 4682 O 443.186 -1.16812 7.95368 0
M  V30 4683 H 442.918 -0.406315 0.540263 0
M  V30 4684 H 445.472 -0.653569 1.94725 0
M  V30 4685 H 443.702 -3.19817 2.1738 0
M  V30 4686 H 445.391 -3.12797 2.58675 0
M  V30 4687 H 446.157 -1.63031 4.56778 0
M  V30 4688 H 442.036 -2.59471 3.81045 0
M  V30 4689 H 445.58 -1.04816 6.89681 0
M  V30 4690 H 441.477 -2.01718 6.13172 0
M  V30 4691 H 442.245 -1.30259 8.08069 0
M  V30 4692 N 444.908 -1.36708 -0.784132 0
M  V30 4693 C 445.856 -1.31533 -1.91838 0
M  V30 4694 C 446.85 -0.206205 -1.6814 0
M  V30 4695 O 448.056 -0.373519 -1.76082 0
M  V30 4696 H 444.431 -0.409613 -0.630651 0
M  V30 4697 H 446.402 -2.2731 -1.9332 0
M  V30 4698 C 445.151 -1.12679 -3.28936 0
M  V30 4699 H 444.474 -1.97274 -3.4774 0
M  V30 4700 H 445.914 -1.13106 -4.08636 0
M  V30 4701 C 444.373 0.168281 -3.36479 0
M  V30 4702 O 444.903 1.15625 -3.84699 0
M  V30 4703 N 443.109 0.214762 -2.89805 0
M  V30 4704 H 442.656 -0.589852 -2.50756 0
M  V30 4705 H 442.614 1.08094 -2.95234 0
M  V30 4706 N 446.386 1.0089 -1.21074 0
M  V30 4707 C 447.634 1.74262 -1.02358 0
M  V30 4708 C 447.955 1.89869 0.444393 0
M  V30 4709 O 447.225 1.44677 1.32081 0
M  V30 4710 H 445.805 0.645615 -0.375754 0
M  V30 4711 H 448.467 1.21596 -1.52317 0
M  V30 4712 H 447.563 2.74328 -1.4883 0
M  V30 4713 N 447.864 1.01787 1.20321 0
M  V30 4714 C 448.794 0.609625 2.25401 0
M  V30 4715 C 449.775 -0.375951 1.65893 0
M  V30 4716 O 450.96 -0.261101 1.92437 0
M  V30 4717 C 448.09 -0.0515995 3.47262 0
M  V30 4718 C 447.044 0.855095 4.19371 0
M  V30 4719 C 446.37 0.0595757 5.34667 0
M  V30 4720 C 447.67 2.16374 4.75373 0
M  V30 4721 H 449.364 1.48803 2.59804 0
M  V30 4722 H 446.91 0.716934 1.24884 0
M  V30 4723 H 448.863 -0.348764 4.19954 0
M  V30 4724 H 447.587 -0.964726 3.12027 0
M  V30 4725 H 446.246 1.13628 3.48546 0
M  V30 4726 H 445.894 -0.85524 4.95676 0
M  V30 4727 H 445.594 0.663406 5.83843 0
M  V30 4728 H 447.118 -0.231105 6.10162 0
M  V30 4729 H 448.532 1.92885 5.39878 0
M  V30 4730 H 446.929 2.71853 5.34991 0
M  V30 4731 H 447.999 2.82589 3.94045 0
M  V30 4732 N 449.342 -1.36122 0.79427 0
M  V30 4733 C 450.57 -2.03362 0.380989 0
M  V30 4734 C 450.985 -1.59881 -1.00416 0
M  V30 4735 O 450.342 -0.790515 -1.6449 0
M  V30 4736 C 450.393 -3.58804 0.440649 0
M  V30 4737 O 450.114 -4.007 1.77118 0
M  V30 4738 C 451.615 -4.43296 0.0186117 0
M  V30 4739 H 448.835 -0.652526 0.156367 0
M  V30 4740 H 451.379 -1.73998 1.07447 0
M  V30 4741 H 449.534 -3.8686 -0.204458 0
M  V30 4742 H 449.948 -4.95309 1.72538 0
M  V30 4743 H 451.422 -5.51887 0.111488 0
M  V30 4744 H 451.899 -4.2684 -1.03461 0
M  V30 4745 H 452.505 -4.20512 0.636395 0
M  V30 4746 N 450.82 -0.546701 -1.47814 0
M  V30 4747 C 451.75 0.195317 -2.32682 0
M  V30 4748 C 452.731 0.918981 -1.43139 0
M  V30 4749 O 453.916 0.901501 -1.72008 0
M  V30 4750 C 451.046 1.23237 -3.247 0
M  V30 4751 C 450 0.625818 -4.234 0
M  V30 4752 C 449.326 1.76674 -5.04669 0
M  V30 4753 C 450.626 -0.413515 -5.2066 0
M  V30 4754 H 452.32 -0.513184 -2.94969 0
M  V30 4755 H 449.866 -0.248241 -1.41844 0
M  V30 4756 H 451.819 1.75955 -3.82907 0
M  V30 4757 H 450.543 1.97067 -2.60446 0
M  V30 4758 H 449.202 0.120023 -3.66403 0
M  V30 4759 H 448.85 2.49383 -4.36826 0
M  V30 4760 H 448.55 1.36673 -5.71484 0
M  V30 4761 H 450.074 2.29738 -5.65732 0
M  V30 4762 H 451.488 0.0272042 -5.73294 0
M  V30 4763 H 449.885 -0.731825 -5.95621 0
M  V30 4764 H 450.955 -1.31325 -4.66778 0
M  V30 4765 N 452.299 1.55045 -0.282633 0
M  V30 4766 C 453.547 1.99365 0.331334 0
M  V30 4767 C 453.868 1.1725 1.55812 0
M  V30 4768 O 453.138 0.263871 1.94115 0
M  V30 4769 H 451.718 0.736397 0.125414 0
M  V30 4770 H 454.38 1.90964 -0.389711 0
M  V30 4771 H 453.476 3.0596 0.616036 0
M  V30 4772 N 453.777 0.010035 1.57597 0
M  V30 4773 C 454.74 -0.963029 2.07986 0
M  V30 4774 C 455.74 -1.26619 0.991173 0
M  V30 4775 O 456.93 -1.2097 1.25347 0
M  V30 4776 C 454.062 -2.2851 2.52974 0
M  V30 4777 H 455.255 -0.526971 2.95234 0
M  V30 4778 H 452.808 -0.237639 1.54483 0
M  V30 4779 H 453.543 -2.76784 1.69 0
M  V30 4780 H 453.328 -2.07824 3.32493 0
M  V30 4781 H 454.818 -2.98294 2.9225 0
M  V30 4782 N 455.255 -1.55392 -0.262866 0
M  V30 4783 C 456.503 -1.76127 -0.991147 0
M  V30 4784 C 456.824 -0.571083 -1.8645 0
M  V30 4785 O 456.094 0.413698 -1.91482 0
M  V30 4786 H 454.674 -0.649528 -0.368948 0
M  V30 4787 H 457.336 -1.9281 -0.284655 0
M  V30 4788 H 456.432 -2.6663 -1.62219 0
M  V30 4789 N 456.733 0.527833 -1.48498 0
M  V30 4790 C 457.663 1.64136 -1.66077 0
M  V30 4791 C 458.644 1.62286 -0.509625 0
M  V30 4792 O 459.829 1.79449 -0.742413 0
M  V30 4793 C 456.959 3.02717 -1.70234 0
M  V30 4794 C 455.913 3.19426 -2.8487 0
M  V30 4795 C 455.239 4.5909 -2.74118 0
M  V30 4796 C 456.539 3.01993 -4.26142 0
M  V30 4797 H 458.233 1.4968 -2.593 0
M  V30 4798 H 455.779 0.718654 -1.24785 0
M  V30 4799 H 457.732 3.80491 -1.8112 0
M  V30 4800 H 456.456 3.18201 -0.735911 0
M  V30 4801 H 455.115 2.4407 -2.73542 0
M  V30 4802 H 454.763 4.71413 -1.7544 0
M  V30 4803 H 454.463 4.71214 -3.51042 0
M  V30 4804 H 455.987 5.3896 -2.86974 0
M  V30 4805 H 457.401 3.69558 -4.38292 0
M  V30 4806 H 455.798 3.2561 -5.04082 0
M  V30 4807 H 456.868 1.98396 -4.42456 0
M  V30 4808 N 458.211 1.37122 0.776871 0
M  V30 4809 C 459.436 1.354 1.57104 0
M  V30 4810 C 459.861 -0.0595562 1.88006 0
M  V30 4811 O 459.219 -1.03514 1.48844 0
M  V30 4812 C 459.267 2.19472 2.8612 0
M  V30 4813 O 458.371 1.59582 3.80273 0
M  V30 4814 H 457.712 0.462869 0.476076 0
M  V30 4815 H 460.242 1.80577 0.961932 0
M  V30 4816 H 460.252 2.32502 3.35271 0
M  V30 4817 H 458.927 3.22222 2.62956 0
M  V30 4818 H 457.504 1.55564 3.38902 0
M  V30 4819 N 459.689 -1.00246 1.21608 0
M  V30 4820 C 460.619 -2.10921 1.00172 0
M  V30 4821 C 461.6 -1.69938 -0.0741587 0
M  V30 4822 O 462.785 -1.94009 0.0861753 0
M  V30 4823 C 459.915 -3.42618 0.568355 0
M  V30 4824 C 458.869 -3.97407 1.58909 0
M  V30 4825 C 458.195 -5.25038 1.01187 0
M  V30 4826 C 459.495 -4.2918 2.97661 0
M  V30 4827 H 461.189 -2.29112 1.92739 0
M  V30 4828 H 458.735 -1.10101 0.928102 0
M  V30 4829 H 460.688 -4.19444 0.405555 0
M  V30 4830 H 459.412 -3.24227 -0.392961 0
M  V30 4831 H 458.071 -3.22703 1.73949 0
M  V30 4832 H 457.719 -5.02982 0.0421965 0
M  V30 4833 H 457.419 -5.62661 1.6937 0
M  V30 4834 H 458.943 -6.04507 0.860448 0
M  V30 4835 H 460.357 -4.96839 2.86049 0
M  V30 4836 H 458.754 -4.77952 3.6288 0
M  V30 4837 H 459.824 -3.3735 3.48315 0
M  V30 4838 N 461.167 -1.02423 -1.1978 0
M  V30 4839 C 462.13 -0.605703 -2.21052 0
M  V30 4840 C 463.13 0.328209 -1.57415 0
M  V30 4841 O 464.32 0.115853 -1.73814 0
M  V30 4842 C 461.452 0.114366 -3.40708 0
M  V30 4843 H 462.645 -1.5017 -2.59594 0
M  V30 4844 H 460.198 -0.814888 -1.33376 0
M  V30 4845 H 460.933 1.02492 -3.07678 0
M  V30 4846 H 460.718 -0.556641 -3.88129 0
M  V30 4847 H 462.208 0.394272 -4.15735 0
M  V30 4848 N 462.645 1.35699 -0.801477 0
M  V30 4849 C 463.577 2.28598 -0.166028 0
M  V30 4850 C 464.59 1.50044 0.631721 0
M  V30 4851 O 465.779 1.72339 0.464921 0
M  V30 4852 C 462.879 3.29625 0.787451 0
M  V30 4853 C 462.052 4.37384 0.037171 0
M  V30 4854 C 461.111 5.183 0.908375 0
M  V30 4855 O 460.137 5.68053 0.361189 0
M  V30 4856 N 461.339 5.35912 2.23112 0
M  V30 4857 H 464.104 2.83771 -0.964071 0
M  V30 4858 H 461.665 1.47994 -0.656469 0
M  V30 4859 H 463.657 3.80648 1.37439 0
M  V30 4860 H 462.227 2.75004 1.48632 0
M  V30 4861 H 461.447 3.87364 -0.730935 0
M  V30 4862 H 462.735 5.0653 -0.480109 0
M  V30 4863 H 462.133 4.97125 2.69968 0
M  V30 4864 H 460.69 5.90133 2.76741 0
M  V30 4865 N 464.123 0.554532 1.47522 0
M  V30 4866 C 465.369 0.0295227 2.02779 0
M  V30 4867 C 465.702 -1.31582 1.42828 0
M  V30 4868 O 464.977 -1.85561 0.582872 0
M  V30 4869 C 465.26 -0.0664057 3.60039 0
M  V30 4870 C 465.113 1.30585 4.30427 0
M  V30 4871 C 466.432 -0.781162 4.33112 0
M  V30 4872 H 463.551 0.0122027 0.736899 0
M  V30 4873 H 466.193 0.716305 1.7598 0
M  V30 4874 H 464.343 -0.651307 3.83002 0
M  V30 4875 H 466.015 1.93374 4.18813 0
M  V30 4876 H 464.258 1.88125 3.90886 0
M  V30 4877 H 464.929 1.19147 5.38988 0
M  V30 4878 H 467.405 -0.284565 4.15126 0
M  V30 4879 H 466.281 -0.817237 5.42782 0
M  V30 4880 H 466.542 -1.83672 4.0214 0
M  V30 4881 N 465.601 -1.54893 0.290851 0
M  V30 4882 C 466.548 -2.23138 -0.58974 0
M  V30 4883 C 467.518 -1.21036 -1.13752 0
M  V30 4884 O 468.703 -1.49626 -1.18392 0
M  V30 4885 C 465.843 -2.96811 -1.76061 0
M  V30 4886 C 464.956 -4.13665 -1.24519 0
M  V30 4887 C 464.091 -4.74944 -2.3791 0
M  V30 4888 C 463.13 -5.83963 -1.83451 0
M  V30 4889 N 462.267 -6.39239 -2.90376 0
M  V30 4890 H 467.107 -2.98 -0.00114915 0
M  V30 4891 H 464.644 -1.47096 0.0112006 0
M  V30 4892 H 466.602 -3.37751 -2.44909 0
M  V30 4893 H 465.232 -2.24344 -2.32098 0
M  V30 4894 H 464.284 -3.77737 -0.449288 0
M  V30 4895 H 465.596 -4.92238 -0.806424 0
M  V30 4896 H 464.75 -5.18684 -3.14724 0
M  V30 4897 H 463.489 -3.95682 -2.85109 0
M  V30 4898 H 462.494 -5.39657 -1.05122 0
M  V30 4899 H 463.719 -6.65103 -1.37169 0
M  V30 4900 H 461.665 -5.62864 -3.36927 0
M  V30 4901 H 461.582 -7.13129 -2.50965 0
M  V30 4902 H 462.85 -6.87637 -3.67118 0
M  V30 4903 N 467.08 -0.0183926 -1.57589 0
M  V30 4904 C 468.357 0.700621 -1.82622 0
M  V30 4905 C 468.737 1.90951 -0.90005 0
M  V30 4906 O 468.085 2.28452 0.0469145 0
M  V30 4907 C 468.295 1.08899 -3.31575 0
M  V30 4908 C 469.643 1.48514 -3.9778 0
M  V30 4909 O 470.667 1.18227 -3.36007 0
M  V30 4910 O 469.526 2.04903 -5.06633 0
M  V30 4911 H 466.62 0.342743 -0.752633 0
M  V30 4912 H 469.166 -0.0452548 -1.6964 0
M  V30 4913 H 467.938 0.228113 -3.90635 0
M  V30 4914 H 467.561 1.89338 -3.49624 0
M  V30 4915 N 468.558 1.5553 0.254621 0
M  V30 4916 C 469.807 1.76202 0.981612 0
M  V30 4917 C 470.12 0.580883 1.86776 0
M  V30 4918 O 471.326 0.670448 2.63092 0
M  V30 4919 C 469.782 3.11921 1.79537 0
M  V30 4920 C 469.39 4.37659 0.956991 0
M  V30 4921 C 471.134 3.41936 2.51555 0
M  V30 4922 C 469.041 5.64411 1.76619 0
M  V30 4923 H 467.971 0.656841 0.370237 0
M  V30 4924 H 470.622 1.81969 0.236556 0
M  V30 4925 H 469.004 3.00241 2.58208 0
M  V30 4926 H 470.178 4.60307 0.21315 0
M  V30 4927 H 468.493 4.14922 0.350497 0
M  V30 4928 H 471.09 4.33849 3.12536 0
M  V30 4929 H 471.433 2.62905 3.22779 0
M  V30 4930 H 471.966 3.54797 1.799 0
M  V30 4931 H 468.705 6.46241 1.09783 0
M  V30 4932 H 468.225 5.45877 2.48551 0
M  V30 4933 H 469.904 6.03386 2.33527 0
M  V30 4934 N 470.036 -0.519951 1.48776 0
M  V30 4935 C 470.966 -1.63253 1.66945 0
M  V30 4936 C 471.947 -1.62014 0.518224 0
M  V30 4937 O 473.132 -1.79053 0.751919 0
M  V30 4938 C 470.262 -3.0181 1.71836 0
M  V30 4939 C 469.216 -3.17911 2.8656 0
M  V30 4940 C 468.542 -4.5763 2.76548 0
M  V30 4941 C 469.842 -2.99729 4.27738 0
M  V30 4942 H 471.536 -1.48302 2.6009 0
M  V30 4943 H 469.082 -0.712026 1.25165 0
M  V30 4944 H 471.035 -3.79525 1.83135 0
M  V30 4945 H 469.759 -3.17806 0.752775 0
M  V30 4946 H 468.418 -2.42616 2.74833 0
M  V30 4947 H 468.066 -4.70476 1.77937 0
M  V30 4948 H 467.766 -4.69346 3.53536 0
M  V30 4949 H 469.29 -5.37431 2.89828 0
M  V30 4950 H 470.704 -3.67228 4.40246 0
M  V30 4951 H 469.101 -3.22932 5.05801 0
M  V30 4952 H 470.171 -1.96047 4.43502 0
M  V30 4953 N 471.514 -1.37532 -0.769588 0
M  V30 4954 C 472.477 -1.33292 -1.86456 0
M  V30 4955 C 473.477 -0.236537 -1.59051 0
M  V30 4956 O 474.667 -0.492511 -1.67093 0
M  V30 4957 C 471.799 -1.07118 -3.23633 0
M  V30 4958 H 472.992 -2.30692 -1.91628 0
M  V30 4959 H 470.545 -1.22593 -0.969572 0
M  V30 4960 H 471.28 -0.102578 -3.24138 0
M  V30 4961 H 471.065 -1.86479 -3.44917 0
M  V30 4962 H 472.555 -1.06806 -4.03711 0
M  V30 4963 N 472.992 0.995999 -1.22138 0
M  V30 4964 C 474.269 1.70834 -0.952642 0
M  V30 4965 C 474.649 2.04257 0.533119 0
M  V30 4966 O 473.997 1.72343 1.50034 0
M  V30 4967 C 474.207 2.96119 -1.84701 0
M  V30 4968 C 475.555 3.68962 -2.10124 0
M  V30 4969 O 476.579 3.0612 -1.82124 0
M  V30 4970 O 475.438 4.82017 -2.57531 0
M  V30 4971 H 472.532 0.745498 -0.357997 0
M  V30 4972 H 475.078 1.05262 -1.33109 0
M  V30 4973 H 473.85 2.67898 -2.85213 0
M  V30 4974 H 473.473 3.6943 -1.46995 0
M  V30 4975 N 474.47 1.03057 1.19235 0
M  V30 4976 C 475.716 0.729098 1.89241 0
M  V30 4977 C 476.049 -0.740573 1.79525 0
M  V30 4978 O 475.324 -1.53946 1.18874 0
M  V30 4979 C 475.607 1.18304 3.40112 0
M  V30 4980 C 475.46 2.71406 3.5869 0
M  V30 4981 C 476.779 0.765161 4.33397 0
M  V30 4982 H 473.898 0.266338 0.687192 0
M  V30 4983 H 476.54 1.28079 1.40341 0
M  V30 4984 H 474.69 0.713672 3.81889 0
M  V30 4985 H 476.362 3.26303 3.26074 0
M  V30 4986 H 474.605 3.11717 3.01687 0
M  V30 4987 H 475.276 2.98225 4.64506 0
M  V30 4988 H 477.752 1.16889 3.99345 0
M  V30 4989 H 476.628 1.11065 5.37546 0
M  V30 4990 H 476.889 -0.332372 4.40849 0
M  V30 4991 N 475.948 -1.35272 0.808662 0
M  V30 4992 C 477.194 -1.99003 0.390581 0
M  V30 4993 C 477.527 -1.63999 -1.0401 0
M  V30 4994 O 476.802 -0.904368 -1.72196 0
M  V30 4995 C 477.085 -3.55454 0.576566 0
M  V30 4996 C 476.938 -4.00249 2.05233 0
M  V30 4997 C 478.257 -4.401 0.00354277 0
M  V30 4998 H 475.376 -0.722917 0.143388 0
M  V30 4999 H 478.018 -1.6039 1.01858 0
M  V30 5000 H 476.168 -3.88477 0.0419766 0
M  V30 5001 H 477.84 -3.77626 2.64946 0
M  V30 5002 H 476.083 -3.51082 2.54801 0
M  V30 5003 H 476.754 -5.0911 2.13333 0
M  V30 5004 H 479.23 -4.13548 0.460117 0
M  V30 5005 H 478.106 -5.48656 0.163575 0
M  V30 5006 H 478.367 -4.28444 -1.09032 0
M  V30 5007 N 477.426 -0.562348 -1.47226 0
M  V30 5008 C 478.358 0.220011 -2.28142 0
M  V30 5009 C 479.371 0.874596 -1.37312 0
M  V30 5010 O 480.56 0.747583 -1.62091 0
M  V30 5011 C 477.66 1.32953 -3.11732 0
M  V30 5012 C 476.833 0.770759 -4.30556 0
M  V30 5013 C 475.892 1.76541 -4.95701 0
M  V30 5014 O 474.918 1.3095 -5.53932 0
M  V30 5015 N 476.12 3.09896 -4.90861 0
M  V30 5016 H 478.885 -0.474107 -2.95926 0
M  V30 5017 H 476.446 -0.398761 -1.56912 0
M  V30 5018 H 478.438 1.99378 -3.5218 0
M  V30 5019 H 477.008 1.92681 -2.46156 0
M  V30 5020 H 476.228 -0.0704056 -3.94137 0
M  V30 5021 H 477.516 0.376872 -5.07402 0
M  V30 5022 H 476.914 3.49577 -4.44761 0
M  V30 5023 H 475.471 3.71865 -5.35313 0
M  V30 5024 N 478.904 1.54736 -0.299062 0
M  V30 5025 C 479.851 2.23448 0.577899 0
M  V30 5026 C 480.821 1.21637 1.13109 0
M  V30 5027 O 482.006 1.50252 1.17597 0
M  V30 5028 C 479.146 2.9774 1.74484 0
M  V30 5029 C 478.259 4.1432 1.22323 0
M  V30 5030 C 477.394 4.76199 2.35388 0
M  V30 5031 C 476.433 5.84927 1.80351 0
M  V30 5032 N 475.57 6.4077 2.86982 0
M  V30 5033 H 480.41 2.97996 -0.0146545 0
M  V30 5034 H 477.947 1.47088 -0.0190013 0
M  V30 5035 H 479.905 3.39045 2.43114 0
M  V30 5036 H 478.535 2.25572 2.30905 0
M  V30 5037 H 477.587 3.7797 0.429249 0
M  V30 5038 H 478.899 4.92659 0.780309 0
M  V30 5039 H 478.053 5.20346 3.11969 0
M  V30 5040 H 476.792 3.97188 2.83006 0
M  V30 5041 H 475.797 5.40207 1.02259 0
M  V30 5042 H 477.022 6.65821 1.3364 0
M  V30 5043 H 474.968 5.64643 3.33938 0
M  V30 5044 H 474.885 7.1445 2.4718 0
M  V30 5045 H 476.153 6.89574 3.63466 0
M  V30 5046 N 480.382 0.0267497 1.57577 0
M  V30 5047 C 481.312 -0.954308 2.13108 0
M  V30 5048 C 482.293 -1.34088 1.04663 0
M  V30 5049 O 483.478 -1.41992 1.32484 0
M  V30 5050 C 480.608 -2.23744 2.65624 0
M  V30 5051 C 479.562 -1.99168 3.78835 0
M  V30 5052 C 478.888 -3.33726 4.17769 0
M  V30 5053 C 480.188 -1.33277 5.0501 0
M  V30 5054 H 481.882 -0.491848 2.95332 0
M  V30 5055 H 479.428 -0.23514 1.42067 0
M  V30 5056 H 481.381 -2.92754 3.03106 0
M  V30 5057 H 480.105 -2.72151 1.80558 0
M  V30 5058 H 478.764 -1.32577 3.41788 0
M  V30 5059 H 478.412 -3.79888 3.29688 0
M  V30 5060 H 478.112 -3.18089 4.94058 0
M  V30 5061 H 479.636 -4.04008 4.57832 0
M  V30 5062 H 481.05 -1.92283 5.40093 0
M  V30 5063 H 479.447 -1.28045 5.8628 0
M  V30 5064 H 480.517 -0.305411 4.83937 0
M  V30 5065 N 481.861 -1.55662 -0.24637 0
M  V30 5066 C 483.272 -1.67953 -0.81539 0
M  V30 5067 C 483.623 -0.624302 -1.86002 0
M  V30 5068 O 482.748 0.229328 -2.15181 0
M  V30 5069 C 483.343 -3.04484 -1.48576 0
M  V30 5070 C 481.902 -3.18713 -2.00248 0
M  V30 5071 C 481.049 -2.6383 -0.853766 0
M  V30 5072 H 484 -1.58685 -0.0221692 0
M  V30 5073 H 484.021 -2.98959 -2.3538 0
M  V30 5074 H 483.533 -3.81264 -0.725222 0
M  V30 5075 H 481.634 -2.46757 -2.79181 0
M  V30 5076 H 481.747 -4.25628 -2.1995 0
M  V30 5077 H 480.111 -2.21667 -1.25442 0
M  V30 5078 H 480.894 -3.43135 -0.106302 0
M  V30 5079 N 483.339 0.512053 -1.4905 0
M  V30 5080 C 484.249 1.64139 -1.67617 0
M  V30 5081 C 485.265 1.64786 -0.558701 0
M  V30 5082 O 486.441 1.8341 -0.832034 0
M  V30 5083 C 483.506 3.00548 -1.72835 0
M  V30 5084 C 482.567 3.10615 -2.96339 0
M  V30 5085 C 481.8 4.40517 -3.01298 0
M  V30 5086 O 482.023 5.28671 -2.14157 0
M  V30 5087 O 480.957 4.55325 -3.93653 0
M  V30 5088 H 484.783 1.51407 -2.63267 0
M  V30 5089 H 482.368 0.687131 -1.32661 0
M  V30 5090 H 484.25 3.81641 -1.78683 0
M  V30 5091 H 482.925 3.13566 -0.803616 0
M  V30 5092 H 481.832 2.2875 -2.96014 0
M  V30 5093 H 483.165 3.0252 -3.88256 0
M  V30 5094 N 484.817 1.37938 0.762283 0
M  V30 5095 C 485.727 1.36681 1.90671 0
M  V30 5096 C 486.743 0.265078 1.71969 0
M  V30 5097 O 487.919 0.502055 1.95042 0
M  V30 5098 C 484.984 1.18211 3.25925 0
M  V30 5099 C 484.045 2.3811 3.57214 0
M  V30 5100 C 483.278 2.20512 4.86014 0
M  V30 5101 O 483.501 1.19429 5.57757 0
M  V30 5102 O 482.435 3.08911 5.16583 0
M  V30 5103 H 486.261 2.33091 1.94685 0
M  V30 5104 H 483.846 1.18767 0.906356 0
M  V30 5105 H 485.728 1.09937 4.06807 0
M  V30 5106 H 484.403 0.248807 3.22742 0
M  V30 5107 H 483.31 2.51958 2.76529 0
M  V30 5108 H 484.643 3.30041 3.65149 0
M  V30 5109 N 486.295 -0.989507 1.22664 0
M  V30 5110 C 487.242 -2.08024 0.999733 0
M  V30 5111 C 488.212 -1.65909 -0.0797047 0
M  V30 5112 O 489.397 -1.90669 0.0705715 0
M  V30 5113 C 486.537 -3.40067 0.587234 0
M  V30 5114 C 485.65 -3.95505 1.73781 0
M  V30 5115 C 484.785 -5.15722 1.27297 0
M  V30 5116 C 483.824 -5.63305 2.39488 0
M  V30 5117 N 482.961 -6.74758 1.94026 0
M  V30 5118 H 487.801 -2.26768 1.9334 0
M  V30 5119 H 485.338 -1.11171 0.963297 0
M  V30 5120 H 487.296 -4.15899 0.329227 0
M  V30 5121 H 485.926 -3.21314 -0.309426 0
M  V30 5122 H 484.978 -3.16513 2.11006 0
M  V30 5123 H 486.29 -4.26797 2.58158 0
M  V30 5124 H 485.444 -5.98854 0.972546 0
M  V30 5125 H 484.183 -4.86061 0.399445 0
M  V30 5126 H 483.188 -4.78759 2.70315 0
M  V30 5127 H 484.413 -5.94988 3.27362 0
M  V30 5128 H 482.359 -6.46874 1.09041 0
M  V30 5129 H 482.276 -7.05386 2.71968 0
M  V30 5130 H 483.544 -7.61387 1.67062 0
M  V30 5131 N 487.773 -1.03688 -1.18687 0
M  V30 5132 C 489.001 -0.757918 -1.92518 0
M  V30 5133 C 489.416 0.684398 -1.75959 0
M  V30 5134 O 488.773 1.46617 -1.08673 0
M  V30 5135 C 488.824 -1.10985 -3.44042 0
M  V30 5136 O 488.545 -2.49554 -3.60076 0
M  V30 5137 C 490.046 -0.854844 -4.3498 0
M  V30 5138 H 487.266 -0.276699 -0.611293 0
M  V30 5139 H 489.81 -1.38352 -1.50595 0
M  V30 5140 H 487.965 -0.529279 -3.83767 0
M  V30 5141 H 488.379 -2.6291 -4.53849 0
M  V30 5142 H 489.853 -1.15098 -5.39867 0
M  V30 5143 H 490.33 0.210507 -4.38695 0
M  V30 5144 H 490.936 -1.41853 -4.00946 0
M  V30 5145 N 489.251 1.34841 -0.815825 0
M  V30 5146 C 490.183 2.28409 -0.190265 0
M  V30 5147 C 491.196 1.50705 0.615771 0
M  V30 5148 O 492.385 1.72822 0.446616 0
M  V30 5149 C 489.485 3.30441 0.752446 0
M  V30 5150 C 488.658 4.37399 -0.00922152 0
M  V30 5151 C 487.717 5.19234 0.853351 0
M  V30 5152 O 486.743 5.68404 0.300919 0
M  V30 5153 N 487.945 5.38248 2.17416 0
M  V30 5154 H 490.71 2.82732 -0.994114 0
M  V30 5155 H 488.271 1.47289 -0.672129 0
M  V30 5156 H 490.263 3.82084 1.33394 0
M  V30 5157 H 488.833 2.76565 1.45707 0
M  V30 5158 H 488.053 3.86567 -0.771979 0
M  V30 5159 H 489.341 5.05992 -0.533807 0
M  V30 5160 H 488.739 4.99961 2.6468 0
M  V30 5161 H 487.296 5.93035 2.70467 0
M  V30 5162 N 490.729 0.570148 1.46925 0
M  V30 5163 C 491.662 -0.218362 2.27153 0
M  V30 5164 C 492.64 -0.90847 1.34854 0
M  V30 5165 O 493.824 -0.924875 1.64251 0
M  V30 5166 C 490.951 -1.3122 3.12248 0
M  V30 5167 C 489.997 -0.729277 4.20219 0
M  V30 5168 S 490.83 0.434159 5.33737 0
M  V30 5169 C 491.986 -0.661188 6.22398 0
M  V30 5170 H 492.219 0.462393 2.93682 0
M  V30 5171 H 489.752 0.356753 1.50222 0
M  V30 5172 H 491.71 -1.93856 3.61842 0
M  V30 5173 H 490.371 -1.96485 2.45056 0
M  V30 5174 H 489.564 -1.5511 4.79538 0
M  V30 5175 H 489.166 -0.178836 3.73572 0
M  V30 5176 H 491.458 -1.55006 6.5953 0
M  V30 5177 H 492.401 -0.105046 7.08022 0
M  V30 5178 H 492.809 -0.959682 5.56283 0
M  V30 5179 N 492.207 -1.54576 0.307264 0
M  V30 5180 C 493.437 -2.04378 -0.302158 0
M  V30 5181 C 493.845 -1.18381 -1.47589 0
M  V30 5182 O 493.188 -0.20352 -1.82569 0
M  V30 5183 C 493.25 -3.50133 -0.815305 0
M  V30 5184 C 492.914 -4.56401 0.233977 0
M  V30 5185 C 493.911 -5.08884 1.06456 0
M  V30 5186 C 491.596 -5.0088 0.377478 0
M  V30 5187 C 493.59 -6.04394 2.02452 0
M  V30 5188 C 491.277 -5.96208 1.34088 0
M  V30 5189 C 492.275 -6.47849 2.16288 0
M  V30 5190 O 491.963 -7.41308 3.10994 0
M  V30 5191 H 491.695 -0.672502 -0.0686839 0
M  V30 5192 H 494.249 -2.00484 0.446682 0
M  V30 5193 H 492.479 -3.51371 -1.61478 0
M  V30 5194 H 494.168 -3.83098 -1.34129 0
M  V30 5195 H 494.934 -4.75311 0.964596 0
M  V30 5196 H 490.813 -4.60309 -0.252405 0
M  V30 5197 H 494.357 -6.44626 2.66652 0
M  V30 5198 H 490.254 -6.29198 1.44154 0
M  V30 5199 H 491.022 -7.5913 3.06045 0
M  V30 5200 N 493.685 -0.035106 -1.57561 0
M  V30 5201 C 494.635 0.954034 -2.0708 0
M  V30 5202 C 495.619 1.2818 -0.972558 0
M  V30 5203 O 496.811 1.26691 -1.23606 0
M  V30 5204 C 493.94 2.23442 -2.60631 0
M  V30 5205 C 493.026 1.93475 -3.77396 0
M  V30 5206 N 493.417 1.33802 -4.87781 0
M  V30 5207 C 491.715 2.23434 -3.85996 0
M  V30 5208 C 492.416 1.21103 -5.68954 0
M  V30 5209 N 491.392 1.70855 -5.16052 0
M  V30 5210 H 495.194 0.487731 -2.89825 0
M  V30 5211 H 492.708 0.169759 -1.6151 0
M  V30 5212 H 494.705 2.95183 -2.94402 0
M  V30 5213 H 493.365 2.70693 -1.79319 0
M  V30 5214 H 494.376 1.01227 -5.07911 0
M  V30 5215 H 491.053 2.73317 -3.15601 0
M  V30 5216 H 492.443 0.749105 -6.67711 0
M  V30 5217 N 495.163 1.55791 0.238111 0
M  V30 5218 C 496.126 1.90239 1.27835 0
M  V30 5219 C 497.126 0.779552 1.4064 0
M  V30 5220 O 498.316 1.04747 1.3919 0
M  V30 5221 C 495.448 2.13859 2.65475 0
M  V30 5222 H 496.641 2.83262 0.985034 0
M  V30 5223 H 494.194 1.48818 0.477799 0
M  V30 5224 H 494.929 1.23334 2.99932 0
M  V30 5225 H 494.714 2.95643 2.57561 0
M  V30 5226 H 496.204 2.41664 3.40571 0
M  V30 5227 N 496.642 -0.504142 1.49319 0
M  V30 5228 C 497.572 -1.61473 1.68667 0
M  V30 5229 C 498.553 -1.61455 0.535378 0
M  V30 5230 O 499.738 -1.78245 0.770868 0
M  V30 5231 C 496.868 -2.99971 1.75028 0
M  V30 5232 C 495.822 -3.14854 2.89916 0
M  V30 5233 C 495.148 -4.54671 2.81387 0
M  V30 5234 C 496.448 -2.95176 4.30893 0
M  V30 5235 H 498.142 -1.45535 2.61648 0
M  V30 5236 H 495.688 -0.698711 1.25913 0
M  V30 5237 H 497.641 -3.77562 1.8715 0
M  V30 5238 H 496.365 -3.1699 0.786441 0
M  V30 5239 H 495.024 -2.39687 2.77391 0
M  V30 5240 H 494.672 -4.68562 1.82917 0
M  V30 5241 H 494.372 -4.6557 3.58494 0
M  V30 5242 H 495.896 -5.34327 2.95512 0
M  V30 5243 H 497.31 -3.62538 4.44116 0
M  V30 5244 H 495.707 -3.17549 5.09198 0
M  V30 5245 H 496.777 -1.91332 4.45556 0
M  V30 5246 N 498.12 -1.38341 -0.754957 0
M  V30 5247 C 499.05 -1.38176 -1.88227 0
M  V30 5248 C 500.031 -0.247873 -1.68284 0
M  V30 5249 O 501.216 -0.45075 -1.88896 0
M  V30 5250 C 498.346 -1.20471 -3.25736 0
M  V30 5251 C 497.3 -2.3105 -3.60278 0
M  V30 5252 C 496.626 -1.98452 -4.96509 0
M  V30 5253 C 497.926 -3.73305 -3.65295 0
M  V30 5254 H 499.62 -2.32512 -1.88622 0
M  V30 5255 H 497.166 -1.1192 -0.906082 0
M  V30 5256 H 499.119 -1.18982 -4.04254 0
M  V30 5257 H 497.843 -0.225965 -3.25817 0
M  V30 5258 H 496.502 -2.31723 -2.84078 0
M  V30 5259 H 496.15 -0.990641 -4.93148 0
M  V30 5260 H 495.85 -2.7251 -5.20588 0
M  V30 5261 H 497.374 -1.98578 -5.77407 0
M  V30 5262 H 498.788 -3.7467 -4.3393 0
M  V30 5263 H 497.185 -4.46557 -4.00883 0
M  V30 5264 H 498.255 -4.05719 -2.65556 0
M  V30 5265 N 499.598 0.982988 -1.23187 0
M  V30 5266 C 500.545 2.07491 -1.01075 0
M  V30 5267 C 501.515 1.65949 0.070905 0
M  V30 5268 O 502.7 1.90629 -0.0806822 0
M  V30 5269 C 499.84 3.39751 -0.605261 0
M  V30 5270 C 498.953 3.94578 -1.75876 0
M  V30 5271 C 498.088 5.15039 -1.3003 0
M  V30 5272 C 497.127 5.62027 -2.42472 0
M  V30 5273 N 496.264 6.73719 -1.97602 0
M  V30 5274 H 501.104 2.25739 -1.9454 0
M  V30 5275 H 498.641 1.10659 -0.969179 0
M  V30 5276 H 500.599 4.15719 -0.351279 0
M  V30 5277 H 499.229 3.21473 0.292382 0
M  V30 5278 H 498.281 3.1539 -2.12681 0
M  V30 5279 H 499.593 4.25422 -2.60418 0
M  V30 5280 H 498.747 5.9833 -1.00429 0
M  V30 5281 H 497.486 4.85843 -0.425216 0
M  V30 5282 H 496.491 4.77318 -2.7285 0
M  V30 5283 H 497.716 5.93244 -3.30512 0
M  V30 5284 H 495.662 6.46287 -1.1247 0
M  V30 5285 H 495.579 7.03934 -2.75705 0
M  V30 5286 H 496.847 7.6049 -1.71098 0
M  V30 5287 N 501.076 1.04316 1.18135 0
M  V30 5288 C 502.026 0.606731 2.19779 0
M  V30 5289 C 503.01 -0.352144 1.56999 0
M  V30 5290 O 504.202 -0.170795 1.76174 0
M  V30 5291 C 501.331 -0.0262443 3.4329 0
M  V30 5292 C 500.417 0.955928 4.13186 0
M  V30 5293 N 500.808 2.12395 4.59045 0
M  V30 5294 C 499.106 0.782473 4.39082 0
M  V30 5295 C 499.807 2.74458 5.12882 0
M  V30 5296 N 498.783 2.02316 5.04548 0
M  V30 5297 H 502.585 1.49679 2.5293 0
M  V30 5298 H 500.099 0.912088 1.34368 0
M  V30 5299 H 502.096 -0.356617 4.15372 0
M  V30 5300 H 500.756 -0.911811 3.11635 0
M  V30 5301 H 501.767 2.50272 4.53414 0
M  V30 5302 H 498.444 -0.0527906 4.17467 0
M  V30 5303 H 499.834 3.73459 5.5855 0
M  V30 5304 N 502.554 -1.34406 0.822964 0
M  V30 5305 C 503.484 -2.32052 0.259608 0
M  V30 5306 C 504.465 -1.58243 -0.623961 0
M  V30 5307 O 505.65 -1.86224 -0.55083 0
M  V30 5308 C 502.78 -3.42434 -0.579314 0
M  V30 5309 C 501.734 -4.27499 0.20712 0
M  V30 5310 C 501.06 -5.29349 -0.754547 0
M  V30 5311 C 502.36 -5.02758 1.41533 0
M  V30 5312 H 504.054 -2.79418 1.07545 0
M  V30 5313 H 501.6 -1.34338 0.518593 0
M  V30 5314 H 503.553 -4.0976 -0.983612 0
M  V30 5315 H 502.277 -2.93717 -1.4282 0
M  V30 5316 H 500.936 -3.61776 0.592787 0
M  V30 5317 H 500.584 -4.76895 -1.59939 0
M  V30 5318 H 500.284 -5.8714 -0.232561 0
M  V30 5319 H 501.808 -5.99544 -1.1567 0
M  V30 5320 H 503.222 -5.62938 1.08504 0
M  V30 5321 H 501.619 -5.70123 1.87296 0
M  V30 5322 H 502.689 -4.32451 2.1935 0
M  V30 5323 N 504.032 -0.577932 -1.46621 0
M  V30 5324 C 505.28 -0.061566 -2.02006 0
M  V30 5325 C 505.601 1.30117 -1.4524 0
M  V30 5326 O 504.871 1.85313 -0.63529 0
M  V30 5327 H 503.451 -0.0197692 -0.746738 0
M  V30 5328 H 506.113 -0.752631 -1.79782 0
M  V30 5329 H 505.209 0.0110238 -3.12098 0
M  V30 5330 N 505.51 1.54411 -0.315457 0
M  V30 5331 C 506.738 2.04833 0.291738 0
M  V30 5332 C 507.153 1.19203 1.46411 0
M  V30 5333 O 506.51 0.220867 1.81159 0
M  V30 5334 C 506.561 3.53969 0.73404 0
M  V30 5335 O 506.282 4.36346 -0.391682 0
M  V30 5336 C 507.783 4.2045 1.40489 0
M  V30 5337 H 505.003 0.668195 0.0612947 0
M  V30 5338 H 507.547 1.99276 -0.45929 0
M  V30 5339 H 505.702 3.5984 1.43506 0
M  V30 5340 H 506.116 5.24481 -0.0447088 0
M  V30 5341 H 507.59 5.26278 1.66539 0
M  V30 5342 H 508.067 3.71067 2.3496 0
M  V30 5343 H 508.673 4.18694 0.746662 0
M  V30 5344 N 506.988 0.0434614 1.5754 0
M  V30 5345 C 507.918 -0.931651 2.14109 0
M  V30 5346 C 508.899 -1.32971 1.06079 0
M  V30 5347 O 510.084 -1.40579 1.33982 0
M  V30 5348 C 507.214 -2.20914 2.67982 0
M  V30 5349 C 506.168 -1.95139 3.80926 0
M  V30 5350 C 505.494 -3.29276 4.21285 0
M  V30 5351 C 506.794 -1.27913 5.06395 0
M  V30 5352 H 508.488 -0.460497 2.95837 0
M  V30 5353 H 506.034 -0.220058 1.42309 0
M  V30 5354 H 507.987 -2.89522 3.06194 0
M  V30 5355 H 506.711 -2.70221 1.83434 0
M  V30 5356 H 505.37 -1.28945 3.43175 0
M  V30 5357 H 505.018 -3.76369 3.33699 0
M  V30 5358 H 504.718 -3.12831 4.97404 0
M  V30 5359 H 506.242 -3.99129 4.62091 0
M  V30 5360 H 507.656 -1.86544 5.42102 0
M  V30 5361 H 506.053 -1.2182 5.87605 0
M  V30 5362 H 507.123 -0.254066 4.84234 0
M  V30 5363 N 508.466 -1.55915 -0.229846 0
M  V30 5364 C 509.429 -1.90914 -1.26824 0
M  V30 5365 C 510.429 -0.786999 -1.40225 0
M  V30 5366 O 511.619 -1.05484 -1.38632 0
M  V30 5367 C 508.751 -2.15264 -2.64337 0
M  V30 5368 H 509.944 -2.8378 -0.969998 0
M  V30 5369 H 507.497 -1.49069 -0.4699 0
M  V30 5370 H 508.232 -1.24923 -2.99274 0
M  V30 5371 H 508.017 -2.97005 -2.55989 0
M  V30 5372 H 509.507 -2.43467 -3.39284 0
M  V30 5373 N 509.944 0.496216 -1.49584 0
M  V30 5374 C 511.192 1.24756 -1.58998 0
M  V30 5375 C 511.513 1.92968 -0.280775 0
M  V30 5376 O 510.783 1.82959 0.700198 0
M  V30 5377 H 509.363 0.463471 -0.585836 0
M  V30 5378 H 512.025 0.574678 -1.86235 0
M  V30 5379 H 511.121 2.00895 -2.38847 0
M  V30 5380 N 511.423 1.38739 0.74761 0
M  V30 5381 C 512.648 1.38702 1.54197 0
M  V30 5382 C 513.073 -0.019664 1.8809 0
M  V30 5383 O 512.431 -1.00333 1.51006 0
M  V30 5384 C 512.479 2.25492 2.814 0
M  V30 5385 O 511.583 1.67613 3.76802 0
M  V30 5386 H 510.924 0.472863 0.466151 0
M  V30 5387 H 513.454 1.82577 0.923413 0
M  V30 5388 H 513.464 2.39561 3.30264 0
M  V30 5389 H 512.139 3.27727 2.56062 0
M  V30 5390 H 510.716 1.62718 3.35526 0
M  V30 5391 N 512.901 -0.976442 1.23707 0
M  V30 5392 C 513.833 -2.07212 0.979574 0
M  V30 5393 C 514.846 -1.6273 -0.0478528 0
M  V30 5394 O 516.035 -1.77506 0.18815 0
M  V30 5395 C 513.135 -3.35835 0.45479 0
M  V30 5396 C 512.308 -4.09268 1.54331 0
M  V30 5397 C 511.367 -5.16166 1.02271 0
M  V30 5398 O 510.393 -5.42827 1.71254 0
M  V30 5399 N 511.595 -5.80313 -0.147419 0
M  V30 5400 H 514.36 -2.29878 1.92292 0
M  V30 5401 H 511.921 -1.14343 1.14618 0
M  V30 5402 H 513.913 -4.04597 0.0914631 0
M  V30 5403 H 512.483 -3.10106 -0.394068 0
M  V30 5404 H 511.703 -3.34906 2.07923 0
M  V30 5405 H 512.991 -4.55095 2.27522 0
M  V30 5406 H 512.389 -5.61043 -0.724353 0
M  V30 5407 H 510.946 -6.50231 -0.451972 0
M  V30 5408 N 514.379 -1.04941 -1.1758 0
M  V30 5409 C 515.628 -0.753124 -1.87112 0
M  V30 5410 C 515.941 0.722507 -1.81767 0
M  V30 5411 O 517.147 1.13265 -2.46746 0
M  V30 5412 C 515.603 -1.29695 -3.35719 0
M  V30 5413 C 515.211 -2.80184 -3.49572 0
M  V30 5414 C 516.955 -1.07759 -4.10595 0
M  V30 5415 C 514.862 -3.2788 -4.92187 0
M  V30 5416 H 513.792 -0.278034 -0.700866 0
M  V30 5417 H 516.443 -1.26637 -1.32798 0
M  V30 5418 H 514.825 -0.711522 -3.89555 0
M  V30 5419 H 515.999 -3.44561 -3.05965 0
M  V30 5420 H 514.314 -3.00632 -2.88113 0
M  V30 5421 H 516.911 -1.40899 -5.15802 0
M  V30 5422 H 517.254 -0.0152302 -4.16297 0
M  V30 5423 H 517.787 -1.62809 -3.62957 0
M  V30 5424 H 514.526 -4.33535 -4.91658 0
M  V30 5425 H 514.046 -2.68245 -5.36475 0
M  V30 5426 H 515.725 -3.22412 -5.60945 0
M  V30 5427 N 515.857 1.33968 -0.830081 0
M  V30 5428 C 517.273 1.51003 -0.516742 0
M  V30 5429 C 517.473 1.77286 0.957694 0
M  V30 5430 O 516.529 1.82797 1.74188 0
M  V30 5431 C 517.842 2.67036 -1.38247 0
M  V30 5432 C 519.39 2.80919 -1.38034 0
M  V30 5433 C 519.865 4.00004 -2.23071 0
M  V30 5434 N 521.356 4.07224 -2.20733 0
M  V30 5435 C 522.091 4.98541 -2.83275 0
M  V30 5436 N 521.587 5.95033 -3.54835 0
M  V30 5437 N 523.38 4.91469 -2.72791 0
M  V30 5438 H 515.531 1.15168 -1.78466 0
M  V30 5439 H 517.794 0.565443 -0.760906 0
M  V30 5440 H 517.5 2.54266 -2.42985 0
M  V30 5441 H 517.374 3.62226 -1.05225 0
M  V30 5442 H 519.761 2.93127 -0.340713 0
M  V30 5443 H 519.842 1.86517 -1.75057 0
M  V30 5444 H 519.486 3.88557 -3.27087 0
M  V30 5445 H 519.416 4.93634 -1.83394 0
M  V30 5446 H 521.907 3.38162 -1.68687 0
M  V30 5447 H 522.22 6.61357 -3.99784 0
M  V30 5448 H 520.565 5.95135 -3.58942 0
M  V30 5449 H 523.756 4.15048 -2.16456 0
M  V30 5450 H 523.929 5.62439 -3.21818 0
M  V30 5451 N 517.335 0.585699 1.46312 0
M  V30 5452 C 518.283 -0.158577 2.32059 0
M  V30 5453 C 519.277 -0.881427 1.44662 0
M  V30 5454 O 520.483 -0.799476 1.61271 0
M  V30 5455 H 516.858 -0.0700066 0.748734 0
M  V30 5456 H 518.829 0.583383 2.92642 0
M  V30 5457 C 517.578 -1.15701 3.27885 0
M  V30 5458 H 516.901 -0.610215 3.95116 0
M  V30 5459 H 518.341 -1.64812 3.90657 0
M  V30 5460 C 516.8 -2.21951 2.53455 0
M  V30 5461 O 517.33 -3.29352 2.29978 0
M  V30 5462 N 515.536 -1.9664 2.13965 0
M  V30 5463 H 515.083 -1.09309 2.33258 0
M  V30 5464 H 515.041 -2.6794 1.64485 0
M  V30 5465 N 518.813 -1.54241 0.323641 0
M  V30 5466 C 519.746 -2.20579 -0.584833 0
M  V30 5467 C 520.724 -1.18286 -1.11567 0
M  V30 5468 O 521.908 -1.47025 -1.17966 0
M  V30 5469 C 519.035 -2.86754 -1.80249 0
M  V30 5470 C 518.081 -4.02767 -1.4029 0
M  V30 5471 S 518.914 -5.33693 -0.439539 0
M  V30 5472 C 520.07 -6.03362 -1.66448 0
M  V30 5473 H 520.303 -2.97292 -0.0213238 0
M  V30 5474 H 517.836 -1.54024 0.107726 0
M  V30 5475 H 519.794 -3.25503 -2.50116 0
M  V30 5476 H 518.455 -2.09844 -2.33719 0
M  V30 5477 H 517.648 -4.47933 -2.31024 0
M  V30 5478 H 517.25 -3.65692 -0.783928 0
M  V30 5479 H 519.542 -6.25546 -2.6019 0
M  V30 5480 H 520.485 -6.9689 -1.25498 0
M  V30 5481 H 520.893 -5.33273 -1.85149 0
M  V30 5482 N 520.291 -0.0518155 -1.57515 0
M  V30 5483 C 521.254 0.907547 -2.10467 0
M  V30 5484 C 522.254 1.23947 -1.02439 0
M  V30 5485 O 523.444 1.17604 -1.2851 0
M  V30 5486 C 520.576 2.21723 -2.58944 0
M  V30 5487 H 521.769 0.44851 -2.96527 0
M  V30 5488 H 519.322 0.196598 -1.55059 0
M  V30 5489 H 520.057 2.72206 -1.76279 0
M  V30 5490 H 519.842 1.98935 -3.37886 0
M  V30 5491 H 521.332 2.90441 -3.00056 0
M  V30 5492 N 521.769 1.56035 0.221574 0
M  V30 5493 C 522.994 1.83476 0.967026 0
M  V30 5494 C 523.419 0.632139 1.7716 0
M  V30 5495 O 522.777 -0.419082 1.7639 0
M  V30 5496 C 522.825 3.08907 1.86034 0
M  V30 5497 O 521.929 2.876 2.95567 0
M  V30 5498 H 521.27 0.604913 0.273817 0
M  V30 5499 H 523.8 2.03247 0.234893 0
M  V30 5500 H 523.81 3.3901 2.27016 0
M  V30 5501 H 522.485 3.96068 1.26898 0
M  V30 5502 H 521.062 2.6873 2.58532 0
M  V30 5503 N 523.247 -0.488276 1.49845 0
M  V30 5504 C 524.177 -1.59675 1.70371 0
M  V30 5505 C 525.158 -1.60878 0.552473 0
M  V30 5506 O 526.343 -1.77417 0.78973 0
M  V30 5507 C 523.473 -2.98098 1.782 0
M  V30 5508 C 522.427 -3.11761 2.93239 0
M  V30 5509 C 521.753 -4.51661 2.86193 0
M  V30 5510 C 523.053 -2.90589 4.33999 0
M  V30 5511 H 524.747 -1.42752 2.63177 0
M  V30 5512 H 522.293 -0.685317 1.26647 0
M  V30 5513 H 524.246 -3.75555 1.91144 0
M  V30 5514 H 522.97 -3.16138 0.820018 0
M  V30 5515 H 521.629 -2.36732 2.79917 0
M  V30 5516 H 521.277 -4.66595 1.87877 0
M  V30 5517 H 520.977 -4.61742 3.63412 0
M  V30 5518 H 522.501 -5.31162 3.01163 0
M  V30 5519 H 523.915 -3.57807 4.47936 0
M  V30 5520 H 522.312 -3.1213 5.12538 0
M  V30 5521 H 523.382 -1.86595 4.4756 0
M  V30 5522 N 524.725 -1.39134 -0.740242 0
M  V30 5523 C 525.973 -1.35803 -1.49673 0
M  V30 5524 C 526.294 0.0470897 -1.94943 0
M  V30 5525 O 525.564 0.997347 -1.68611 0
M  V30 5526 H 524.144 -0.499736 -0.555224 0
M  V30 5527 H 526.806 -1.73947 -0.879107 0
M  V30 5528 H 525.902 -2.0174 -2.38133 0
M  V30 5529 N 526.204 0.969867 -1.24223 0
M  V30 5530 C 527.452 1.70918 -1.0785 0
M  V30 5531 C 527.773 1.91186 0.383763 0
M  V30 5532 O 527.043 1.48806 1.27411 0
M  V30 5533 H 525.623 0.633334 -0.396103 0
M  V30 5534 H 528.285 1.16689 -1.56108 0
M  V30 5535 H 527.381 2.69455 -1.57482 0
M  V30 5536 N 527.682 1.05563 1.17022 0
M  V30 5537 C 528.632 0.630007 2.19123 0
M  V30 5538 C 529.616 -0.335472 1.57364 0
M  V30 5539 O 530.808 -0.1521 1.76345 0
M  V30 5540 C 527.937 0.0101676 3.43298 0
M  V30 5541 C 527.023 0.999698 4.12149 0
M  V30 5542 N 527.414 2.17251 4.56766 0
M  V30 5543 C 525.712 0.829 4.38228 0
M  V30 5544 C 526.413 2.79883 5.09942 0
M  V30 5545 N 525.389 2.07656 5.02374 0
M  V30 5546 H 529.191 1.52353 2.51328 0
M  V30 5547 H 526.705 0.926288 1.33393 0
M  V30 5548 H 528.702 -0.312541 4.15727 0
M  V30 5549 H 527.362 -0.878707 3.12584 0
M  V30 5550 H 528.373 2.55067 4.50734 0
M  V30 5551 H 525.05 -0.00850974 4.17499 0
M  V30 5552 H 526.44 3.79362 5.54558 0
M  V30 5553 N 529.16 -1.33526 0.837174 0
M  V30 5554 C 530.409 -1.97098 0.428387 0
M  V30 5555 C 530.722 -1.67062 -1.01734 0
M  V30 5556 O 531.928 -2.24235 -1.53072 0
M  V30 5557 C 530.384 -3.52725 0.715075 0
M  V30 5558 C 529.992 -3.9164 2.17537 0
M  V30 5559 C 531.736 -4.22857 0.373154 0
M  V30 5560 C 529.643 -5.40237 2.40619 0
M  V30 5561 H 528.573 -0.737589 0.156455 0
M  V30 5562 H 531.224 -1.52169 1.02552 0
M  V30 5563 H 529.606 -3.95971 0.0475904 0
M  V30 5564 H 530.78 -3.59456 2.88319 0
M  V30 5565 H 529.095 -3.34485 2.4801 0
M  V30 5566 H 531.692 -5.32133 0.523264 0
M  V30 5567 H 532.035 -4.10647 -0.683708 0
M  V30 5568 H 532.568 -3.85135 0.995801 0
M  V30 5569 H 529.307 -5.57449 3.44864 0
M  V30 5570 H 528.827 -5.73887 1.74396 0
M  V30 5571 H 530.506 -6.07102 2.23688 0
M  V30 5572 N 530.638 -0.59345 -1.46 0
M  V30 5573 C 531.887 -0.0808084 -2.01538 0
M  V30 5574 C 532.2 1.29112 -1.46934 0
M  V30 5575 O 533.406 1.8957 -1.94359 0
M  V30 5576 C 531.862 -0.0938311 -3.59778 0
M  V30 5577 C 531.47 -1.46474 -4.23379 0
M  V30 5578 C 533.214 0.364306 -4.22934 0
M  V30 5579 C 531.121 -1.4349 -5.73729 0
M  V30 5580 H 530.051 -0.0264407 -0.753536 0
M  V30 5581 H 532.702 -0.746689 -1.67621 0
M  V30 5582 H 531.084 0.638427 -3.9082 0
M  V30 5583 H 532.258 -2.21758 -4.03931 0
M  V30 5584 H 530.573 -1.86379 -3.7236 0
M  V30 5585 H 533.17 0.405584 -5.3316 0
M  V30 5586 H 533.513 1.38409 -3.92618 0
M  V30 5587 H 534.046 -0.31423 -3.96557 0
M  V30 5588 H 530.785 -2.43184 -6.08722 0
M  V30 5589 H 530.305 -0.724431 -5.95409 0
M  V30 5590 H 531.984 -1.15243 -6.36654 0
M  V30 5591 N 532.116 1.54067 -0.331816 0
M  V30 5592 C 533.341 2.05599 0.272705 0
M  V30 5593 C 533.766 1.2059 1.44359 0
M  V30 5594 O 533.124 0.216907 1.79998 0
M  V30 5595 C 533.172 3.54188 0.677021 0
M  V30 5596 O 532.276 3.72082 1.77844 0
M  V30 5597 H 531.617 0.662286 0.0476801 0
M  V30 5598 H 534.147 1.98826 -0.482624 0
M  V30 5599 H 534.157 3.96608 0.957415 0
M  V30 5600 H 532.832 4.15513 -0.179325 0
M  V30 5601 H 531.409 3.41566 1.49622 0
M  V30 5602 N 533.594 0.0601682 1.57485 0
M  V30 5603 C 535.01 -0.296422 1.56823 0
M  V30 5604 C 535.21 -1.70831 1.0686 0
M  V30 5605 O 534.266 -2.4174 0.729245 0
M  V30 5606 C 535.579 -0.116681 3.00474 0
M  V30 5607 C 537.127 -0.187103 3.1244 0
M  V30 5608 C 537.602 -0.035783 4.57986 0
M  V30 5609 N 539.093 -0.0917676 4.63109 0
M  V30 5610 C 539.828 0.00107251 5.734 0
M  V30 5611 N 539.324 0.146773 6.92645 0
M  V30 5612 N 541.117 -0.0551577 5.62073 0
M  V30 5613 H 533.268 0.983055 1.88281 0
M  V30 5614 H 535.531 0.382386 0.867459 0
M  V30 5615 H 535.237 0.85712 3.41096 0
M  V30 5616 H 535.111 -0.873929 3.66936 0
M  V30 5617 H 537.498 -1.15138 2.71712 0
M  V30 5618 H 537.579 0.601052 2.48638 0
M  V30 5619 H 537.223 0.925212 4.99402 0
M  V30 5620 H 537.153 -0.843196 5.19806 0
M  V30 5621 H 539.644 -0.203261 3.77353 0
M  V30 5622 H 539.957 0.210076 7.72514 0
M  V30 5623 H 538.302 0.181979 6.94762 0
M  V30 5624 H 541.493 -0.167605 4.678 0
M  V30 5625 H 541.666 0.020652 6.47997 0
M  V30 5626 N 535.072 -1.5615 -0.213296 0
M  V30 5627 C 536.022 -1.89485 -1.26804 0
M  V30 5628 C 537.006 -0.758713 -1.41889 0
M  V30 5629 O 538.198 -1.02127 -1.44565 0
M  V30 5630 C 535.327 -2.22219 -2.61675 0
M  V30 5631 C 534.413 -3.42245 -2.50458 0
M  V30 5632 N 534.804 -4.60645 -2.089 0
M  V30 5633 C 533.102 -3.46023 -2.81397 0
M  V30 5634 C 533.803 -5.42805 -2.09135 0
M  V30 5635 N 532.779 -4.82732 -2.49941 0
M  V30 5636 H 536.581 -2.78537 -0.937771 0
M  V30 5637 H 534.095 -1.56826 -0.421824 0
M  V30 5638 H 536.092 -2.44278 -3.37837 0
M  V30 5639 H 534.752 -1.34484 -2.95541 0
M  V30 5640 H 535.763 -4.85651 -1.79899 0
M  V30 5641 H 532.44 -2.68654 -3.1958 0
M  V30 5642 H 533.83 -6.47601 -1.79059 0
M  V30 5643 N 536.55 0.480323 -1.50102 0
M  V30 5644 C 537.961 1.06142 -1.53593 0
M  V30 5645 C 538.312 1.93335 -0.334055 0
M  V30 5646 O 537.437 2.09188 0.55403 0
M  V30 5647 C 538.032 1.9317 -2.78336 0
M  V30 5648 C 536.591 2.46405 -2.84538 0
M  V30 5649 C 535.738 1.24521 -2.4777 0
M  V30 5650 H 538.689 0.26333 -1.565 0
M  V30 5651 H 538.71 2.78123 -2.59669 0
M  V30 5652 H 538.222 1.29683 -3.65792 0
M  V30 5653 H 536.323 3.13472 -2.01411 0
M  V30 5654 H 536.436 2.82143 -3.87211 0
M  V30 5655 H 534.8 1.57706 -2.00003 0
M  V30 5656 H 535.583 0.627102 -3.37524 0
M  V30 5657 N 538.028 1.39524 0.732853 0
M  V30 5658 C 539.305 1.27373 1.48444 0
M  V30 5659 C 539.685 -0.115725 2.10783 0
M  V30 5660 O 539.033 -1.12713 1.98766 0
M  V30 5661 C 539.243 2.39966 2.53412 0
M  V30 5662 C 540.591 2.79384 3.19733 0
M  V30 5663 O 541.615 2.39431 2.63725 0
M  V30 5664 O 540.474 3.48353 4.21085 0
M  V30 5665 H 537.568 0.499272 0.659285 0
M  V30 5666 H 540.114 1.51403 0.766496 0
M  V30 5667 H 538.886 3.32845 2.05742 0
M  V30 5668 H 538.509 2.17612 3.32762 0
M  V30 5669 N 539.506 -0.963266 1.24736 0
M  V30 5670 C 540.731 -1.74699 1.11781 0
M  V30 5671 C 541.156 -1.85267 -0.325258 0
M  V30 5672 O 540.514 -1.32681 -1.23553 0
M  V30 5673 C 540.562 -3.14322 1.76731 0
M  V30 5674 O 539.666 -3.99043 1.04109 0
M  V30 5675 H 539.007 -0.53684 0.390767 0
M  V30 5676 H 541.537 -1.20801 1.65131 0
M  V30 5677 H 541.547 -3.64824 1.82668 0
M  V30 5678 H 540.222 -3.05946 2.81726 0
M  V30 5679 H 538.799 -3.5752 1.05991 0
M  V30 5680 N 540.985 -1.06182 -1.16461 0
M  V30 5681 C 542.262 -0.691364 -1.82974 0
M  V30 5682 C 542.642 0.827377 -1.9421 0
M  V30 5683 O 541.99 1.73723 -1.48434 0
M  V30 5684 C 542.2 -1.39199 -3.20038 0
M  V30 5685 C 543.548 -1.53647 -3.95825 0
M  V30 5686 O 544.572 -1.35181 -3.29552 0
M  V30 5687 O 543.431 -1.83932 -5.14618 0
M  V30 5688 H 540.525 -0.244605 -0.789998 0
M  V30 5689 H 543.071 -1.16203 -1.23673 0
M  V30 5690 H 541.843 -2.42766 -3.06888 0
M  V30 5691 H 541.466 -0.911335 -3.87015 0
M  V30 5692 N 542.463 1.3308 -0.844243 0
M  V30 5693 C 543.393 2.3161 -0.296493 0
M  V30 5694 C 544.374 1.59215 0.598707 0
M  V30 5695 O 545.559 1.87077 0.521134 0
M  V30 5696 C 542.689 3.43313 0.524762 0
M  V30 5697 C 541.643 4.27115 -0.275106 0
M  V30 5698 C 540.969 5.30483 0.670236 0
M  V30 5699 C 542.269 5.00443 -1.49514 0
M  V30 5700 H 543.963 2.77672 -1.11976 0
M  V30 5701 H 541.509 1.33496 -0.539899 0
M  V30 5702 H 543.462 4.11273 0.918298 0
M  V30 5703 H 542.186 2.95952 1.3813 0
M  V30 5704 H 540.845 3.60787 -0.650267 0
M  V30 5705 H 540.493 4.79379 1.52332 0
M  V30 5706 H 540.193 5.87435 0.139123 0
M  V30 5707 H 541.717 6.01308 1.06117 0
M  V30 5708 H 543.131 5.61141 -1.17447 0
M  V30 5709 H 541.528 5.67071 -1.96343 0
M  V30 5710 H 542.598 4.28906 -2.26202 0
M  V30 5711 N 543.941 0.601185 1.45683 0
M  V30 5712 C 544.889 -0.133955 2.32214 0
M  V30 5713 C 545.883 -0.866034 1.45589 0
M  V30 5714 O 547.089 -0.782326 1.6211 0
M  V30 5715 H 543.464 -0.0620613 0.749435 0
M  V30 5716 H 545.435 0.614389 2.92007 0
M  V30 5717 C 544.184 -1.12216 3.29094 0
M  V30 5718 H 543.507 -0.568273 3.95741 0
M  V30 5719 H 544.947 -1.60659 3.92383 0
M  V30 5720 C 543.406 -2.19251 2.55794 0
M  V30 5721 O 543.936 -3.26894 2.33459 0
M  V30 5722 N 542.142 -1.9436 2.16039 0
M  V30 5723 H 541.689 -1.06829 2.34404 0
M  V30 5724 H 541.647 -2.66181 1.67318 0
M  V30 5725 N 545.419 -1.53889 0.339982 0
M  V30 5726 C 546.83 -1.86139 -0.144671 0
M  V30 5727 C 547.181 -1.2613 -1.50285 0
M  V30 5728 O 546.306 -0.573515 -2.08662 0
M  V30 5729 C 546.901 -3.37728 -0.269285 0
M  V30 5730 C 545.46 -3.69868 -0.698168 0
M  V30 5731 C 544.607 -2.76777 0.170249 0
M  V30 5732 H 547.558 -1.48503 0.559704 0
M  V30 5733 H 547.579 -3.64331 -1.0974 0
M  V30 5734 H 547.091 -3.81375 0.719366 0
M  V30 5735 H 545.192 -3.31764 -1.69597 0
M  V30 5736 H 545.305 -4.76582 -0.490533 0
M  V30 5737 H 543.669 -2.52188 -0.356844 0
M  V30 5738 H 544.452 -3.23253 1.15597 0
M  V30 5739 N 546.897 -0.0685191 -1.57451 0
M  V30 5740 C 548.146 0.600898 -1.92541 0
M  V30 5741 C 548.459 1.70967 -0.950239 0
M  V30 5742 O 549.665 2.43844 -1.19384 0
M  V30 5743 C 548.121 1.12019 -3.42023 0
M  V30 5744 C 547.729 0.0426028 -4.4798 0
M  V30 5745 C 549.473 1.76386 -3.86119 0
M  V30 5746 C 547.38 0.575759 -5.88591 0
M  V30 5747 H 546.31 0.228225 -0.71863 0
M  V30 5748 H 548.961 -0.140223 -1.82963 0
M  V30 5749 H 547.343 1.91418 -3.46663 0
M  V30 5750 H 548.517 -0.73182 -4.54952 0
M  V30 5751 H 546.832 -0.504642 -4.13331 0
M  V30 5752 H 549.429 2.17302 -4.88553 0
M  V30 5753 H 549.772 2.62255 -3.23308 0
M  V30 5754 H 550.305 1.03615 -3.84069 0
M  V30 5755 H 547.044 -0.245691 -6.55039 0
M  V30 5756 H 546.564 1.31778 -5.85145 0
M  V30 5757 H 548.243 1.0532 -6.3837 0
M  V30 5758 N 548.375 1.56261 0.205012 0
M  V30 5759 C 549.305 1.96779 1.257 0
M  V30 5760 C 550.286 0.838309 1.48008 0
M  V30 5761 O 551.471 1.10189 1.59913 0
M  V30 5762 C 548.601 2.29876 2.60335 0
M  V30 5763 C 547.555 3.45469 2.52656 0
M  V30 5764 C 546.881 3.64215 3.91473 0
M  V30 5765 C 548.181 4.79954 2.06014 0
M  V30 5766 H 549.875 2.84904 0.920338 0
M  V30 5767 H 547.421 1.37072 0.441277 0
M  V30 5768 H 549.374 2.56814 3.34102 0
M  V30 5769 H 548.098 1.38622 2.95722 0
M  V30 5770 H 546.757 3.18605 1.81345 0
M  V30 5771 H 546.405 2.70309 4.24196 0
M  V30 5772 H 546.105 4.41973 3.87213 0
M  V30 5773 H 547.629 3.93519 4.66878 0
M  V30 5774 H 549.043 5.05989 2.69533 0
M  V30 5775 H 547.44 5.61111 2.12777 0
M  V30 5776 H 548.51 4.74201 1.01297 0
M  V30 5777 N 549.853 -0.472356 1.50355 0
M  V30 5778 C 550.816 -1.5529 1.68576 0
M  V30 5779 C 551.816 -1.50863 0.556511 0
M  V30 5780 O 553.006 -1.53505 0.823516 0
M  V30 5781 C 550.138 -2.94921 1.70981 0
M  V30 5782 H 551.331 -1.40451 2.64978 0
M  V30 5783 H 548.884 -0.698645 1.39816 0
M  V30 5784 H 549.619 -3.15204 0.762675 0
M  V30 5785 H 549.404 -2.99541 2.53017 0
M  V30 5786 H 550.894 -3.73372 1.87037 0
M  V30 5787 N 551.331 -1.39911 -0.725443 0
M  V30 5788 C 552.577 -1.37858 -1.48738 0
M  V30 5789 C 552.91 0.0224187 -1.94187 0
M  V30 5790 O 552.185 0.989204 -1.67466 0
M  V30 5791 C 552.468 -2.3594 -2.72038 0
M  V30 5792 C 552.321 -3.85023 -2.32546 0
M  V30 5793 C 553.64 -2.31704 -3.74167 0
M  V30 5794 H 550.759 -0.502074 -0.539528 0
M  V30 5795 H 553.401 -1.70974 -0.828728 0
M  V30 5796 H 551.551 -2.0783 -3.28236 0
M  V30 5797 H 553.223 -4.2392 -1.81905 0
M  V30 5798 H 551.466 -4.01334 -1.64661 0
M  V30 5799 H 552.137 -4.49152 -3.20884 0
M  V30 5800 H 554.613 -2.5658 -3.27576 0
M  V30 5801 H 553.489 -3.02395 -4.58092 0
M  V30 5802 H 553.75 -1.3253 -4.21768 0
M  V30 5803 N 552.809 0.956637 -1.25245 0
M  V30 5804 C 554.057 1.69764 -1.09657 0
M  V30 5805 C 554.378 1.91583 0.363464 0
M  V30 5806 O 553.648 1.50149 1.25825 0
M  V30 5807 H 552.228 0.629097 -0.402798 0
M  V30 5808 H 554.89 1.15026 -1.57337 0
M  V30 5809 H 553.986 2.67769 -1.60331 0
M  V30 5810 N 554.287 1.06798 1.15896 0
M  V30 5811 C 555.235 0.677525 2.22514 0
M  V30 5812 C 556.229 -0.308994 1.66558 0
M  V30 5813 O 557.435 -0.173308 1.79164 0
M  V30 5814 H 553.81 0.200994 0.724642 0
M  V30 5815 H 555.781 1.5865 2.52731 0
M  V30 5816 C 554.53 0.0854153 3.47595 0
M  V30 5817 H 553.853 0.835645 3.90969 0
M  V30 5818 H 555.293 -0.150199 4.23734 0
M  V30 5819 C 553.752 -1.1724 3.15843 0
M  V30 5820 O 554.282 -2.25965 3.32119 0
M  V30 5821 N 552.488 -1.07636 2.69931 0
M  V30 5822 H 552.035 -0.191559 2.56887 0
M  V30 5823 H 551.993 -1.91876 2.4906 0
M  V30 5824 N 555.766 -1.3263 0.851289 0
M  V30 5825 C 557.006 -1.99174 0.459266 0
M  V30 5826 C 557.37 -1.65913 -0.966273 0
M  V30 5827 O 558.571 -2.2552 -1.46267 0
M  V30 5828 C 556.842 -3.50721 0.687698 0
M  V30 5829 S 558.401 -4.37039 0.392746 0
M  V30 5830 H 555.219 -0.689832 0.172199 0
M  V30 5831 H 557.821 -1.61395 1.10327 0
M  V30 5832 H 556.525 -3.72417 1.72435 0
M  V30 5833 H 556.056 -3.93389 0.0299949 0
M  V30 5834 H 558.071 -4.8999 -0.782578 0
M  V30 5835 N 557.244 -0.608902 -1.45362 0
M  V30 5836 C 558.472 -0.111013 -2.06602 0
M  V30 5837 C 558.887 1.20516 -1.45332 0
M  V30 5838 O 558.244 1.73437 -0.567978 0
M  V30 5839 C 558.295 0.033688 -3.61484 0
M  V30 5840 O 558.016 -1.23041 -4.20467 0
M  V30 5841 C 559.517 0.562882 -4.39712 0
M  V30 5842 H 556.737 -0.0694453 -0.667397 0
M  V30 5843 H 559.281 -0.837008 -1.86586 0
M  V30 5844 H 557.436 0.710016 -3.80838 0
M  V30 5845 H 557.85 -1.06094 -5.13658 0
M  V30 5846 H 559.324 0.613213 -5.48583 0
M  V30 5847 H 559.801 1.58543 -4.09586 0
M  V30 5848 H 560.407 -0.0794454 -4.25226 0
M  V30 5849 N 558.722 1.53707 -0.348139 0
M  V30 5850 C 559.652 2.28111 0.498766 0
M  V30 5851 C 560.633 1.29851 1.09876 0
M  V30 5852 O 561.818 1.587 1.11928 0
M  V30 5853 C 558.948 3.05735 1.64753 0
M  V30 5854 C 557.902 4.11537 1.17565 0
M  V30 5855 C 557.228 4.77142 2.4133 0
M  V30 5856 C 558.528 5.21587 0.272844 0
M  V30 5857 H 560.222 2.99152 -0.121934 0
M  V30 5858 H 557.768 1.43875 -0.0600842 0
M  V30 5859 H 559.721 3.56526 2.24649 0
M  V30 5860 H 558.445 2.32354 2.2952 0
M  V30 5861 H 557.104 3.61665 0.599483 0
M  V30 5862 H 556.752 4.0035 3.04514 0
M  V30 5863 H 556.452 5.48626 2.10436 0
M  V30 5864 H 557.976 5.30719 3.01943 0
M  V30 5865 H 559.39 5.67986 0.778779 0
M  V30 5866 H 557.787 6.00074 0.0555849 0
M  V30 5867 H 558.857 4.79969 -0.689785 0
M  V30 5868 N 560.2 0.0768682 1.57412 0
M  V30 5869 C 561.148 -0.906229 2.1422 0
M  V30 5870 C 562.142 -1.30477 1.08037 0
M  V30 5871 O 563.348 -1.28143 1.2641 0
M  V30 5872 H 559.723 -0.310207 0.685037 0
M  V30 5873 H 561.694 -0.402228 2.95677 0
M  V30 5874 C 560.443 -2.16245 2.72274 0
M  V30 5875 H 559.766 -1.86463 3.53655 0
M  V30 5876 H 561.206 -2.83134 3.15613 0
M  V30 5877 C 559.665 -2.92437 1.67279 0
M  V30 5878 O 560.195 -3.86322 1.10081 0
M  V30 5879 N 558.401 -2.55637 1.38195 0
M  V30 5880 H 557.948 -1.79363 1.84897 0
M  V30 5881 H 557.906 -3.06919 0.681787 0
M  V30 5882 N 561.678 -1.56367 -0.196722 0
M  V30 5883 C 562.608 -1.97442 -1.24655 0
M  V30 5884 C 563.589 -0.846147 -1.47561 0
M  V30 5885 O 564.774 -1.11035 -1.59326 0
M  V30 5886 C 561.904 -2.31253 -2.59112 0
M  V30 5887 C 560.858 -3.46804 -2.50821 0
M  V30 5888 C 560.184 -3.66286 -3.89536 0
M  V30 5889 C 561.484 -4.8104 -2.03465 0
M  V30 5890 H 563.178 -2.85388 -0.905216 0
M  V30 5891 H 560.724 -1.37304 -0.434002 0
M  V30 5892 H 562.677 -2.58583 -3.32736 0
M  V30 5893 H 561.401 -1.40188 -2.94983 0
M  V30 5894 H 560.06 -3.19563 -1.79653 0
M  V30 5895 H 559.708 -2.72555 -4.22756 0
M  V30 5896 H 559.408 -4.4402 -3.84864 0
M  V30 5897 H 560.932 -3.9599 -4.64784 0
M  V30 5898 H 562.346 -5.07411 -2.66846 0
M  V30 5899 H 560.743 -5.62232 -2.09798 0
M  V30 5900 H 561.813 -4.74732 -0.98781 0
M  V30 5901 N 563.156 0.464375 -1.50603 0
M  V30 5902 C 564.086 1.56944 -1.72889 0
M  V30 5903 C 565.067 1.59979 -0.577997 0
M  V30 5904 O 566.252 1.76138 -0.817855 0
M  V30 5905 C 563.382 2.95225 -1.8292 0
M  V30 5906 C 562.336 3.07056 -2.98162 0
M  V30 5907 C 561.662 4.47051 -2.93343 0
M  V30 5908 C 562.962 2.83648 -4.38567 0
M  V30 5909 H 564.656 1.38547 -2.65415 0
M  V30 5910 H 562.202 0.665082 -1.27721 0
M  V30 5911 H 564.155 3.72467 -1.97095 0
M  V30 5912 H 562.879 3.14793 -0.870209 0
M  V30 5913 H 561.538 2.32248 -2.83648 0
M  V30 5914 H 561.186 4.63547 -1.95276 0
M  V30 5915 H 560.886 4.55902 -3.70712 0
M  V30 5916 H 562.41 5.26304 -3.09575 0
M  V30 5917 H 563.824 3.50636 -4.53572 0
M  V30 5918 H 562.221 3.03937 -5.17438 0
M  V30 5919 H 563.291 1.79451 -4.50472 0
M  V30 5920 N 564.634 1.40294 0.718013 0
M  V30 5921 C 565.859 1.41941 1.5122 0
M  V30 5922 C 566.284 0.0202371 1.88089 0
M  V30 5923 O 565.642 -0.971078 1.53101 0
M  V30 5924 C 565.69 2.3141 2.76554 0
M  V30 5925 O 564.794 1.75567 3.73162 0
M  V30 5926 H 564.135 0.482644 0.456016 0
M  V30 5927 H 566.665 1.84494 0.884478 0
M  V30 5928 H 566.675 2.46513 3.25108 0
M  V30 5929 H 565.35 3.33085 2.49053 0
M  V30 5930 H 563.927 1.69798 3.31999 0
M  V30 5931 N 566.112 -0.949982 1.2575 0
M  V30 5932 C 567.059 -2.04738 1.06541 0
M  V30 5933 C 568.029 -1.66078 -0.0268818 0
M  V30 5934 O 569.214 -1.90348 0.131196 0
M  V30 5935 C 566.354 -3.38027 0.695127 0
M  V30 5936 C 565.467 -3.89776 1.86276 0
M  V30 5937 C 564.602 -5.11411 1.4364 0
M  V30 5938 C 563.641 -5.554 2.57287 0
M  V30 5939 N 562.778 -6.68244 2.15395 0
M  V30 5940 H 567.618 -2.20502 2.00457 0
M  V30 5941 H 565.155 -1.0805 0.998178 0
M  V30 5942 H 567.113 -4.14641 0.461375 0
M  V30 5943 H 565.743 -3.22135 -0.207046 0
M  V30 5944 H 564.795 -3.0964 2.20969 0
M  V30 5945 H 566.107 -4.18368 2.71606 0
M  V30 5946 H 565.261 -5.95457 1.16257 0
M  V30 5947 H 564 -4.84545 0.553879 0
M  V30 5948 H 563.005 -4.69916 2.85409 0
M  V30 5949 H 564.23 -5.84272 3.46125 0
M  V30 5950 H 562.176 -6.43078 1.29565 0
M  V30 5951 H 562.093 -6.96377 2.94272 0
M  V30 5952 H 563.361 -7.55687 1.91201 0
M  V30 5953 N 567.59 -1.07411 -1.15328 0
M  V30 5954 C 568.5 -0.706438 -2.23711 0
M  V30 5955 C 569.516 0.282586 -1.7169 0
M  V30 5956 O 570.692 0.129066 -2.00986 0
M  V30 5957 C 567.757 -0.11048 -3.46524 0
M  V30 5958 C 566.818 -1.15282 -4.13532 0
M  V30 5959 C 566.051 -0.585205 -5.30482 0
M  V30 5960 O 566.274 0.598549 -5.67251 0
M  V30 5961 O 565.208 -1.33039 -5.87013 0
M  V30 5962 H 569.034 -1.61031 -2.57493 0
M  V30 5963 H 566.619 -0.847113 -1.23062 0
M  V30 5964 H 568.501 0.21957 -4.20828 0
M  V30 5965 H 567.176 0.766703 -3.14489 0
M  V30 5966 H 566.083 -1.53523 -3.41147 0
M  V30 5967 H 567.416 -2.00192 -4.49649 0
M  V30 5968 N 569.068 1.32177 -0.85831 0
M  V30 5969 C 570.316 1.96735 -0.462568 0
M  V30 5970 C 570.637 1.6824 0.985911 0
M  V30 5971 O 569.907 0.991564 1.68952 0
M  V30 5972 H 568.487 0.727849 -0.168064 0
M  V30 5973 H 571.149 1.61195 -1.09554 0
M  V30 5974 H 570.245 3.06068 -0.610647 0
M  V30 5975 N 570.547 0.616602 1.45037 0
M  V30 5976 C 571.494 -0.0969439 2.30596 0
M  V30 5977 C 572.464 -0.851151 1.42635 0
M  V30 5978 O 573.649 -0.835092 1.71554 0
M  V30 5979 C 570.789 -1.08234 3.27688 0
M  V30 5980 C 569.902 -0.328072 4.30752 0
M  V30 5981 C 569.037 -1.30399 5.14946 0
M  V30 5982 C 568.076 -0.538049 6.09731 0
M  V30 5983 N 567.213 -1.46371 6.86673 0
M  V30 5984 H 572.053 0.63864 2.91076 0
M  V30 5985 H 569.59 0.326733 1.43425 0
M  V30 5986 H 571.548 -1.66688 3.82454 0
M  V30 5987 H 570.178 -1.78523 2.68941 0
M  V30 5988 H 569.23 0.372136 3.78575 0
M  V30 5989 H 570.542 0.269142 4.98073 0
M  V30 5990 H 569.696 -1.96032 5.74157 0
M  V30 5991 H 568.435 -1.93514 4.47665 0
M  V30 5992 H 567.44 0.131852 5.49642 0
M  V30 5993 H 568.665 0.0881732 6.79043 0
M  V30 5994 H 566.611 -2.08233 6.22073 0
M  V30 5995 H 566.528 -0.920152 7.50379 0
M  V30 5996 H 567.796 -2.10932 7.50418 0
M  V30 5997 N 572.025 -1.5352 0.356285 0
M  V30 5998 C 573.441 -1.59599 0.00485267 0
M  V30 5999 C 573.641 -1.37179 -1.47595 0
M  V30 6000 O 572.697 -1.17234 -2.23635 0
M  V30 6001 C 574.01 -2.97277 0.452454 0
M  V30 6002 C 575.558 -3.10357 0.405881 0
M  V30 6003 C 576.033 -4.50432 0.829148 0
M  V30 6004 N 577.524 -4.5652 0.783838 0
M  V30 6005 C 578.259 -5.63077 1.08315 0
M  V30 6006 N 577.755 -6.77429 1.45126 0
M  V30 6007 N 579.548 -5.53014 1.00655 0
M  V30 6008 H 571.699 -1.66346 1.32071 0
M  V30 6009 H 573.962 -0.77971 0.539218 0
M  V30 6010 H 573.668 -3.18792 1.48542 0
M  V30 6011 H 573.542 -3.76836 -0.165762 0
M  V30 6012 H 575.929 -2.88558 -0.617934 0
M  V30 6013 H 576.01 -2.32828 1.05947 0
M  V30 6014 H 575.654 -4.72968 1.85103 0
M  V30 6015 H 575.584 -5.26378 0.152906 0
M  V30 6016 H 578.075 -3.74408 0.512513 0
M  V30 6017 H 578.388 -7.54669 1.66415 0
M  V30 6018 H 576.733 -6.78844 1.48983 0
M  V30 6019 H 579.924 -4.62557 0.718215 0
M  V30 6020 H 580.097 -6.35964 1.24315 0
M  V30 6021 N 573.503 -0.0852151 -1.57369 0
M  V30 6022 C 574.435 0.907099 -2.10486 0
M  V30 6023 C 575.448 1.25259 -1.03991 0
M  V30 6024 O 576.637 1.20743 -1.31467 0
M  V30 6025 C 573.737 2.21908 -2.56145 0
M  V30 6026 C 572.91 2.05042 -3.86363 0
M  V30 6027 C 571.969 3.19664 -4.17973 0
M  V30 6028 O 570.995 2.94062 -4.87356 0
M  V30 6029 N 572.197 4.45151 -3.72587 0
M  V30 6030 H 574.962 0.453505 -2.96249 0
M  V30 6031 H 572.523 0.100157 -1.6159 0
M  V30 6032 H 574.515 2.97519 -2.74343 0
M  V30 6033 H 573.085 2.58723 -1.75446 0
M  V30 6034 H 572.305 1.13819 -3.77411 0
M  V30 6035 H 573.593 1.91039 -4.71574 0
M  V30 6036 H 572.991 4.68834 -3.16561 0
M  V30 6037 H 571.548 5.17744 -3.9596 0
M  V30 6038 N 574.981 1.5647 0.188427 0
M  V30 6039 C 576.23 1.80207 0.905995 0
M  V30 6040 C 576.543 0.659579 1.84144 0
M  V30 6041 O 577.749 0.781431 2.60011 0
M  V30 6042 C 576.205 3.19255 1.66145 0
M  V30 6043 C 575.813 4.41324 0.770504 0
M  V30 6044 C 577.557 3.52298 2.36826 0
M  V30 6045 C 575.464 5.71394 1.52521 0
M  V30 6046 H 574.394 0.671953 0.342045 0
M  V30 6047 H 577.045 1.82808 0.159164 0
M  V30 6048 H 575.427 3.10922 2.45242 0
M  V30 6049 H 576.601 4.60797 0.0177261 0
M  V30 6050 H 574.916 4.16035 0.174199 0
M  V30 6051 H 577.513 4.46715 2.93854 0
M  V30 6052 H 577.856 2.76359 3.11338 0
M  V30 6053 H 578.389 3.62108 1.6469 0
M  V30 6054 H 575.128 6.50316 0.82275 0
M  V30 6055 H 574.648 5.55928 2.25175 0
M  V30 6056 H 576.327 6.12747 2.07725 0
M  V30 6057 N 576.459 -0.456382 1.50847 0
M  V30 6058 C 577.87 -1.03685 1.55262 0
M  V30 6059 C 578.221 -1.92779 0.364771 0
M  V30 6060 O 577.346 -2.10043 -0.52068 0
M  V30 6061 C 577.941 -1.88718 2.81374 0
M  V30 6062 C 576.5 -2.41847 2.88422 0
M  V30 6063 C 575.647 -1.20564 2.49719 0
M  V30 6064 H 578.598 -0.238399 1.56899 0
M  V30 6065 H 578.619 -2.73957 2.6406 0
M  V30 6066 H 578.131 -1.23847 3.67809 0
M  V30 6067 H 576.232 -3.10228 2.06372 0
M  V30 6068 H 576.345 -2.75947 3.9165 0
M  V30 6069 H 574.709 -1.54504 2.02486 0
M  V30 6070 H 575.492 -0.573326 3.38479 0
M  V30 6071 N 577.937 -1.40673 -0.710563 0
M  V30 6072 C 578.867 -1.44095 -1.83736 0
M  V30 6073 C 579.848 -0.301286 -1.67411 0
M  V30 6074 O 581.033 -0.510618 -1.87367 0
M  V30 6075 C 578.163 -1.30773 -3.21738 0
M  V30 6076 C 577.117 -2.42395 -3.52745 0
M  V30 6077 C 576.443 -2.14147 -4.89944 0
M  V30 6078 C 577.743 -3.84738 -3.53234 0
M  V30 6079 H 579.437 -2.38396 -1.81129 0
M  V30 6080 H 576.983 -1.14746 -0.870017 0
M  V30 6081 H 578.936 -1.31783 -4.00264 0
M  V30 6082 H 577.66 -0.329507 -3.24934 0
M  V30 6083 H 576.319 -2.40643 -2.76562 0
M  V30 6084 H 575.967 -1.14703 -4.89747 0
M  V30 6085 H 575.667 -2.88934 -5.11655 0
M  V30 6086 H 577.191 -2.16848 -5.70797 0
M  V30 6087 H 578.605 -3.88286 -4.2179 0
M  V30 6088 H 577.002 -4.59085 -3.86473 0
M  V30 6089 H 578.072 -4.13962 -2.52514 0
M  V30 6090 N 579.415 0.9433 -1.26252 0
M  V30 6091 C 580.363 2.06302 -1.07434 0
M  V30 6092 C 581.357 1.694 -0.00189471 0
M  V30 6093 O 582.563 1.79302 -0.158408 0
M  V30 6094 H 578.938 0.675453 -0.330556 0
M  V30 6095 H 580.909 2.19326 -2.02333 0
M  V30 6096 C 579.658 3.40125 -0.721817 0
M  V30 6097 H 578.981 3.68996 -1.5389 0
M  V30 6098 H 580.421 4.19295 -0.629922 0
M  V30 6099 C 578.88 3.31993 0.572902 0
M  V30 6100 O 579.41 3.67945 1.61182 0
M  V30 6101 N 577.616 2.85099 0.562748 0
M  V30 6102 H 577.163 2.5604 -0.283092 0
M  V30 6103 H 577.121 2.80041 1.42915 0
M  V30 6104 N 580.893 1.08022 1.14757 0
M  V30 6105 C 581.803 0.718292 2.23333 0
M  V30 6106 C 582.819 -0.273477 1.71837 0
M  V30 6107 O 583.995 -0.118406 2.01052 0
M  V30 6108 C 581.06 0.128855 3.4646 0
M  V30 6109 C 580.121 1.17473 4.12915 0
M  V30 6110 C 579.354 0.61333 5.30164 0
M  V30 6111 O 579.577 -0.568458 5.6756 0
M  V30 6112 O 578.511 1.3615 5.86299 0
M  V30 6113 H 582.337 1.62394 2.56636 0
M  V30 6114 H 579.922 0.853628 1.22611 0
M  V30 6115 H 581.804 -0.197249 4.20938 0
M  V30 6116 H 580.479 -0.750014 3.14891 0
M  V30 6117 H 579.386 1.5533 3.40328 0
M  V30 6118 H 580.719 2.02574 4.48581 0
M  V30 6119 N 582.371 -1.3172 0.865308 0
M  V30 6120 C 583.303 -2.27545 0.274906 0
M  V30 6121 C 584.316 -1.52887 -0.559413 0
M  V30 6122 O 585.505 -1.74361 -0.382166 0
M  V30 6123 C 582.605 -3.33006 -0.629286 0
M  V30 6124 C 581.778 -4.37063 0.171553 0
M  V30 6125 C 580.837 -5.22044 -0.660052 0
M  V30 6126 O 579.863 -5.69129 -0.0897527 0
M  V30 6127 N 581.065 -5.45946 -1.97289 0
M  V30 6128 H 583.83 -2.78848 1.09836 0
M  V30 6129 H 581.391 -1.44693 0.726331 0
M  V30 6130 H 583.383 -3.86772 -1.19121 0
M  V30 6131 H 581.953 -2.81782 -1.35342 0
M  V30 6132 H 581.173 -3.83436 0.914919 0
M  V30 6133 H 582.461 -5.03662 0.721235 0
M  V30 6134 H 581.859 -5.0944 -2.45942 0
M  V30 6135 H 580.416 -6.02665 -2.4827 0
M  V30 6136 N 583.85 -0.624285 -1.44708 0
M  V30 6137 C 585.096 -0.126051 -2.02107 0
M  V30 6138 C 585.425 1.2496 -1.49048 0
M  V30 6139 O 584.68 1.84163 -0.662005 0
M  V30 6140 C 584.979 -0.0546353 -3.57358 0
M  V30 6141 C 584.644 -1.36815 -4.29642 0
M  V30 6142 C 583.307 -1.72792 -4.49106 0
M  V30 6143 C 585.659 -2.23549 -4.70824 0
M  V30 6144 C 582.986 -2.95222 -5.07012 0
M  V30 6145 C 585.339 -3.45243 -5.30085 0
M  V30 6146 C 584.003 -3.81452 -5.47769 0
M  V30 6147 H 583.273 -0.0461252 -0.739563 0
M  V30 6148 H 585.92 -0.809236 -1.73562 0
M  V30 6149 H 584.225 0.711891 -3.85278 0
M  V30 6150 H 585.922 0.347282 -3.99493 0
M  V30 6151 H 582.512 -1.07817 -4.14817 0
M  V30 6152 H 586.696 -1.9705 -4.55505 0
M  V30 6153 H 581.952 -3.23361 -5.18891 0
M  V30 6154 H 586.125 -4.12689 -5.60946 0
M  V30 6155 H 583.753 -4.76403 -5.92405 0
M  V30 6156 N 585.328 1.53329 -0.364422 0
M  V30 6157 C 586.258 2.28627 0.474543 0
M  V30 6158 C 587.239 1.31009 1.08492 0
M  V30 6159 O 588.424 1.59878 1.10239 0
M  V30 6160 C 585.554 3.07465 1.61501 0
M  V30 6161 C 584.508 4.1276 1.13194 0
M  V30 6162 C 583.834 4.79674 2.36255 0
M  V30 6163 C 585.134 5.21847 0.217507 0
M  V30 6164 H 586.828 2.99005 -0.153656 0
M  V30 6165 H 584.374 1.43803 -0.0753406 0
M  V30 6166 H 586.327 3.58889 2.20855 0
M  V30 6167 H 585.051 2.34775 2.27042 0
M  V30 6168 H 583.71 3.62281 0.56109 0
M  V30 6169 H 583.358 4.03557 3.00251 0
M  V30 6170 H 583.058 5.50827 2.04606 0
M  V30 6171 H 584.582 5.33892 2.96297 0
M  V30 6172 H 585.996 5.6878 0.718493 0
M  V30 6173 H 584.393 6.00099 -0.00806408 0
M  V30 6174 H 585.463 4.7921 -0.740653 0
M  V30 6175 N 586.806 0.0935595 1.57322 0
M  V30 6176 C 588.031 -0.582324 1.99057 0
M  V30 6177 C 588.456 -1.61025 0.972242 0
M  V30 6178 O 587.814 -1.81202 -0.0594622 0
M  V30 6179 C 587.862 -1.20799 3.39765 0
M  V30 6180 O 586.966 -2.32382 3.40694 0
M  V30 6181 H 586.307 -0.147884 0.647323 0
M  V30 6182 H 588.837 0.174516 2.03854 0
M  V30 6183 H 588.847 -1.54966 3.77425 0
M  V30 6184 H 587.522 -0.454914 4.13405 0
M  V30 6185 H 586.099 -1.99845 3.14827 0
M  V30 6186 N 588.284 -1.56567 -0.180126 0
M  V30 6187 C 589.231 -1.95725 -1.22313 0
M  V30 6188 C 590.201 -0.819911 -1.44453 0
M  V30 6189 O 591.386 -1.07931 -1.57339 0
M  V30 6190 C 588.526 -2.31484 -2.55947 0
M  V30 6191 C 587.639 -3.58354 -2.4126 0
M  V30 6192 C 586.774 -3.83366 -3.67701 0
M  V30 6193 C 585.813 -5.03612 -3.47909 0
M  V30 6194 N 584.95 -5.24802 -4.66398 0
M  V30 6195 H 589.79 -2.84642 -0.882198 0
M  V30 6196 H 587.327 -1.4085 -0.42422 0
M  V30 6197 H 589.285 -2.50237 -3.33822 0
M  V30 6198 H 587.915 -1.45689 -2.88053 0
M  V30 6199 H 586.967 -3.47565 -1.54606 0
M  V30 6200 H 588.279 -4.46386 -2.22577 0
M  V30 6201 H 587.433 -4.02439 -4.54013 0
M  V30 6202 H 586.172 -2.93692 -3.89353 0
M  V30 6203 H 585.177 -4.84447 -2.59983 0
M  V30 6204 H 586.402 -5.94809 -3.27688 0
M  V30 6205 H 584.348 -4.38079 -4.88286 0
M  V30 6206 H 584.265 -6.07041 -4.50596 0
M  V30 6207 H 585.533 -5.48346 -5.54019 0
M  V30 6208 N 589.762 0.448376 -1.51087 0
M  V30 6209 C 591.002 1.20832 -1.64861 0
M  V30 6210 C 591.366 1.88748 -0.351873 0
M  V30 6211 O 592.567 2.66307 -0.365265 0
M  V30 6212 C 590.838 2.20674 -2.81137 0
M  V30 6213 S 592.397 3.05303 -3.15176 0
M  V30 6214 H 589.215 0.40992 -0.580936 0
M  V30 6215 H 591.817 0.501624 -1.88955 0
M  V30 6216 H 590.521 1.69399 -3.73808 0
M  V30 6217 H 590.052 2.9594 -2.59198 0
M  V30 6218 H 592.067 4.22162 -2.60756 0
M  V30 6219 N 591.24 1.41047 0.703093 0
M  V30 6220 C 592.651 1.35657 1.28274 0
M  V30 6221 C 593.002 0.0360309 1.96167 0
M  V30 6222 O 592.127 -0.865833 1.98324 0
M  V30 6223 C 592.722 2.45707 2.33267 0
M  V30 6224 C 591.281 2.43738 2.86825 0
M  V30 6225 C 590.428 2.25941 1.60767 0
M  V30 6226 H 593.379 1.50672 0.49836 0
M  V30 6227 H 593.4 2.14333 3.14391 0
M  V30 6228 H 592.912 3.41805 1.83824 0
M  V30 6229 H 591.013 1.51375 3.40465 0
M  V30 6230 H 591.126 3.39779 3.37768 0
M  V30 6231 H 589.49 1.73681 1.86298 0
M  V30 6232 H 590.273 3.24054 1.1333 0
M  V30 6233 N 592.718 -0.936591 1.26751 0
M  V30 6234 C 593.666 -2.0573 1.08527 0
M  V30 6235 C 594.66 -1.69397 0.0108784 0
M  V30 6236 O 595.866 -1.79215 0.167915 0
M  V30 6237 H 592.241 -0.673691 0.334133 0
M  V30 6238 H 594.212 -2.1825 2.03493 0
M  V30 6239 C 592.961 -3.39738 0.739845 0
M  V30 6240 H 592.284 -3.68174 1.55845 0
M  V30 6241 H 593.724 -4.18955 0.652149 0
M  V30 6242 C 592.183 -3.32292 -0.555288 0
M  V30 6243 O 592.713 -3.68794 -1.59229 0
M  V30 6244 N 590.919 -2.85394 -0.54762 0
M  V30 6245 H 590.466 -2.55886 0.296667 0
M  V30 6246 H 590.424 -2.80795 -1.41427 0
M  V30 6247 N 594.196 -1.08629 -1.14182 0
M  V30 6248 C 595.159 -0.722027 -2.1753 0
M  V30 6249 C 596.159 0.244305 -1.58933 0
M  V30 6250 O 597.349 0.0235545 -1.74184 0
M  V30 6251 C 594.481 -0.0663966 -3.40835 0
M  V30 6252 H 595.674 -1.63719 -2.51269 0
M  V30 6253 H 593.227 -0.884442 -1.28869 0
M  V30 6254 H 593.962 0.860389 -3.12678 0
M  V30 6255 H 593.747 -0.761598 -3.84632 0
M  V30 6256 H 595.237 0.173346 -4.1724 0
M  V30 6257 N 595.674 1.31259 -0.872281 0
M  V30 6258 C 596.951 1.91362 -0.404943 0
M  V30 6259 C 597.331 1.79362 1.11321 0
M  V30 6260 O 596.679 1.20277 1.94283 0
M  V30 6261 C 596.889 3.3749 -0.888893 0
M  V30 6262 C 598.237 4.14593 -0.916384 0
M  V30 6263 O 599.261 3.46282 -0.834701 0
M  V30 6264 O 598.12 5.3661 -1.03498 0
M  V30 6265 H 595.214 0.818016 -0.121569 0
M  V30 6266 H 597.76 1.39912 -0.960346 0
M  V30 6267 H 596.532 3.40249 -1.93251 0
M  V30 6268 H 596.155 3.96375 -0.311932 0
M  V30 6269 N 597.152 0.631951 1.44375 0
M  V30 6270 C 598.082 -0.0593243 2.33425 0
M  V30 6271 C 599.063 -0.833964 1.48253 0
M  V30 6272 O 600.248 -0.799682 1.76971 0
M  V30 6273 C 597.378 -1.04096 3.31333 0
M  V30 6274 C 596.332 -0.377899 4.26328 0
M  V30 6275 C 595.658 -1.4695 5.14111 0
M  V30 6276 C 596.958 0.716371 5.17364 0
M  V30 6277 H 598.652 0.684287 2.91475 0
M  V30 6278 H 596.198 0.330518 1.40156 0
M  V30 6279 H 598.151 -1.53331 3.92514 0
M  V30 6280 H 596.875 -1.81547 2.71493 0
M  V30 6281 H 595.534 0.0938054 3.6648 0
M  V30 6282 H 595.182 -2.2349 4.50623 0
M  V30 6283 H 594.882 -1.03121 5.78481 0
M  V30 6284 H 596.406 -1.96363 5.78164 0
M  V30 6285 H 597.82 0.307089 5.72477 0
M  V30 6286 H 596.217 1.07784 5.90341 0
M  V30 6287 H 597.287 1.58316 4.58327 0
M  V30 6288 N 598.631 -1.53133 0.372548 0
M  V30 6289 C 599.578 -2.25951 -0.470631 0
M  V30 6290 C 600.548 -1.26895 -1.07176 0
M  V30 6291 O 601.733 -1.55691 -1.10294 0
M  V30 6292 C 598.873 -3.05726 -1.6008 0
M  V30 6293 C 597.986 -4.19684 -1.02416 0
M  V30 6294 C 597.121 -4.86888 -2.124 0
M  V30 6295 C 596.16 -5.92866 -1.52238 0
M  V30 6296 N 595.297 -6.53732 -2.56084 0
M  V30 6297 H 600.137 -2.97587 0.156816 0
M  V30 6298 H 597.674 -1.4683 0.0891571 0
M  V30 6299 H 599.632 -3.50258 -2.26661 0
M  V30 6300 H 598.262 -2.36331 -2.1988 0
M  V30 6301 H 597.314 -3.79588 -0.248426 0
M  V30 6302 H 598.626 -4.95821 -0.544366 0
M  V30 6303 H 597.78 -5.34638 -2.86787 0
M  V30 6304 H 596.519 -4.10239 -2.63734 0
M  V30 6305 H 595.524 -5.4447 -0.763685 0
M  V30 6306 H 596.749 -6.71439 -1.0172 0
M  V30 6307 H 594.695 -5.79932 -3.06618 0
M  V30 6308 H 594.612 -7.25429 -2.12811 0
M  V30 6309 H 595.88 -7.0613 -3.30152 0
M  V30 6310 N 600.109 -0.101901 -1.5727 0
M  V30 6311 C 601.52 0.426173 -1.81771 0
M  V30 6312 C 601.871 1.67725 -1.01797 0
M  V30 6313 O 600.996 2.14958 -0.249386 0
M  V30 6314 C 601.591 0.779962 -3.297 0
M  V30 6315 C 600.15 1.25275 -3.54941 0
M  V30 6316 C 599.297 0.252814 -2.76145 0
M  V30 6317 H 602.248 -0.32726 -1.55289 0
M  V30 6318 H 602.269 1.63891 -3.43395 0
M  V30 6319 H 601.781 -0.130778 -3.8788 0
M  V30 6320 H 599.882 2.18097 -3.021 0
M  V30 6321 H 599.995 1.20988 -4.63572 0
M  V30 6322 H 598.359 0.736362 -2.43823 0
M  V30 6323 H 599.142 -0.650724 -3.37076 0
M  V30 6324 N 601.587 1.56661 0.17182 0
M  V30 6325 C 602.519 1.92934 1.2373 0
M  V30 6326 C 603.532 0.822385 1.40502 0
M  V30 6327 O 604.721 1.10083 1.40514 0
M  V30 6328 C 601.821 2.16651 2.60607 0
M  V30 6329 C 600.994 3.47878 2.6514 0
M  V30 6330 C 600.053 3.60429 3.83377 0
M  V30 6331 O 599.079 4.33051 3.69398 0
M  V30 6332 N 600.281 2.95241 4.99813 0
M  V30 6333 H 603.046 2.84931 0.929205 0
M  V30 6334 H 600.607 1.5781 0.361588 0
M  V30 6335 H 602.599 2.22312 3.38171 0
M  V30 6336 H 601.169 1.3104 2.83809 0
M  V30 6337 H 600.389 3.53879 1.73675 0
M  V30 6338 H 601.677 4.34232 2.6518 0
M  V30 6339 H 601.075 2.3611 5.14071 0
M  V30 6340 H 599.632 3.06499 5.75241 0
M  V30 6341 N 603.065 -0.440357 1.51323 0
M  V30 6342 C 603.975 -1.55955 1.75258 0
M  V30 6343 C 604.991 -1.61933 0.636687 0
M  V30 6344 O 606.167 -1.79231 0.918593 0
M  V30 6345 C 603.232 -2.9196 1.86977 0
M  V30 6346 C 602.293 -2.96122 3.10822 0
M  V30 6347 C 601.526 -4.2564 3.21973 0
M  V30 6348 O 601.749 -5.17851 2.39137 0
M  V30 6349 O 600.683 -4.36025 4.14929 0
M  V30 6350 H 604.509 -1.38673 2.70191 0
M  V30 6351 H 602.094 -0.623055 1.35788 0
M  V30 6352 H 603.976 -3.72682 1.96688 0
M  V30 6353 H 602.651 -3.09375 0.952307 0
M  V30 6354 H 601.558 -2.14366 3.06591 0
M  V30 6355 H 602.891 -2.83651 4.02247 0
M  V30 6356 N 604.543 -1.41418 -0.695603 0
M  V30 6357 C 605.792 -1.40073 -1.4513 0
M  V30 6358 C 606.105 -0.0130439 -1.95596 0
M  V30 6359 O 607.311 0.123032 -2.71221 0
M  V30 6360 C 605.767 -2.46286 -2.62433 0
M  V30 6361 C 605.375 -3.90962 -2.18753 0
M  V30 6362 C 607.119 -2.54077 -3.40066 0
M  V30 6363 C 605.026 -4.88728 -3.33015 0
M  V30 6364 H 603.956 -0.520903 -0.545138 0
M  V30 6365 H 606.607 -1.67242 -0.75515 0
M  V30 6366 H 604.989 -2.12248 -3.34315 0
M  V30 6367 H 606.163 -4.34248 -1.54161 0
M  V30 6368 H 604.478 -3.86831 -1.54114 0
M  V30 6369 H 607.075 -3.24303 -4.25125 0
M  V30 6370 H 607.418 -1.5776 -3.8525 0
M  V30 6371 H 607.951 -2.87206 -2.75241 0
M  V30 6372 H 604.69 -5.86449 -2.92844 0
M  V30 6373 H 604.21 -4.50091 -3.96457 0
M  V30 6374 H 605.889 -5.09483 -3.98793 0
M  V30 6375 N 606.021 0.929856 -1.27246 0
M  V30 6376 C 606.951 2.04722 -1.12299 0
M  V30 6377 C 607.932 1.70082 -0.0250464 0
M  V30 6378 O 609.117 1.93176 -0.199141 0
M  V30 6379 C 606.247 3.38721 -0.767145 0
M  V30 6380 C 605.201 3.87466 -1.81808 0
M  V30 6381 C 604.527 5.18246 -1.31626 0
M  V30 6382 C 605.827 4.11095 -3.22177 0
M  V30 6383 H 607.521 2.17485 -2.05769 0
M  V30 6384 H 605.067 1.04503 -0.990715 0
M  V30 6385 H 607.02 4.16366 -0.649413 0
M  V30 6386 H 605.744 3.25967 0.203259 0
M  V30 6387 H 604.403 3.12012 -1.92468 0
M  V30 6388 H 604.051 5.01881 -0.335378 0
M  V30 6389 H 603.751 5.51829 -2.01887 0
M  V30 6390 H 605.275 5.98462 -1.21143 0
M  V30 6391 H 606.689 4.79316 -3.1453 0
M  V30 6392 H 605.086 4.55982 -3.90129 0
M  V30 6393 H 606.156 3.16468 -3.67391 0
M  V30 6394 N 607.499 1.09233 1.13605 0
M  V30 6395 C 608.745 0.828385 1.8511 0
M  V30 6396 C 609.078 -0.64437 1.83198 0
M  V30 6397 O 608.353 -1.47428 1.26867 0
M  V30 6398 C 608.636 1.36167 3.33363 0
M  V30 6399 C 608.489 2.90038 3.438 0
M  V30 6400 C 609.808 0.993819 4.28732 0
M  V30 6401 H 606.927 0.30239 0.672108 0
M  V30 6402 H 609.569 1.35339 1.33355 0
M  V30 6403 H 607.719 0.9151 3.77569 0
M  V30 6404 H 609.391 3.43128 3.08319 0
M  V30 6405 H 607.634 3.27271 2.84739 0
M  V30 6406 H 608.305 3.22428 4.48045 0
M  V30 6407 H 610.781 1.37893 3.92587 0
M  V30 6408 H 609.657 1.39403 5.30903 0
M  V30 6409 H 609.918 -0.0982206 4.41991 0
M  V30 6410 N 608.977 -1.30795 0.87923 0
M  V30 6411 C 610.202 -2.01063 0.508769 0
M  V30 6412 C 610.627 -1.65508 -0.893803 0
M  V30 6413 O 609.985 -0.868616 -1.59138 0
M  V30 6414 C 610.033 -3.54054 0.683991 0
M  V30 6415 O 609.137 -4.11498 -0.272654 0
M  V30 6416 H 608.478 -0.632786 0.201191 0
M  V30 6417 H 611.008 -1.66776 1.18519 0
M  V30 6418 H 611.018 -4.03845 0.580798 0
M  V30 6419 H 609.693 -3.79271 1.70665 0
M  V30 6420 H 608.27 -3.72695 -0.12364 0
M  V30 6421 N 610.455 -0.639598 -1.44038 0
M  V30 6422 C 611.701 -0.147698 -2.02261 0
M  V30 6423 C 612.034 1.23031 -1.50256 0
M  V30 6424 O 611.309 1.81847 -0.690068 0
M  V30 6425 C 611.592 -0.14362 -3.59813 0
M  V30 6426 C 611.445 -1.55458 -4.22082 0
M  V30 6427 C 612.764 0.527317 -4.36929 0
M  V30 6428 H 609.883 -0.0551453 -0.734934 0
M  V30 6429 H 612.525 -0.817688 -1.71505 0
M  V30 6430 H 610.675 0.426898 -3.86147 0
M  V30 6431 H 612.347 -2.17464 -4.06826 0
M  V30 6432 H 610.59 -2.10594 -3.79253 0
M  V30 6433 H 611.261 -1.50369 -5.31124 0
M  V30 6434 H 613.737 0.0420504 -4.16079 0
M  V30 6435 H 612.613 0.499389 -5.46624 0
M  V30 6436 H 612.874 1.59914 -4.12165 0
M  V30 6437 N 611.933 1.52934 -0.380664 0
M  V30 6438 C 612.881 2.27727 0.47361 0
M  V30 6439 C 613.875 1.31288 1.0705 0
M  V30 6440 O 615.081 1.4886 1.01197 0
M  V30 6441 H 611.456 0.732189 0.171475 0
M  V30 6442 H 613.427 2.97864 -0.178785 0
M  V30 6443 C 612.176 3.0904 1.59341 0
M  V30 6444 H 611.499 3.831 1.14343 0
M  V30 6445 H 612.939 3.64527 2.16555 0
M  V30 6446 C 611.398 2.20813 2.54447 0
M  V30 6447 O 611.928 1.82907 3.57642 0
M  V30 6448 N 610.134 1.85145 2.23986 0
M  V30 6449 H 609.681 2.16169 1.40103 0
M  V30 6450 H 609.639 1.26402 2.87871 0
M  V30 6451 N 613.412 0.11024 1.57214 0
M  V30 6452 C 614.661 -0.549638 1.94067 0
M  V30 6453 C 614.974 -1.68388 0.995234 0
M  V30 6454 O 616.18 -2.40593 1.25807 0
M  V30 6455 C 614.636 -1.02912 3.44873 0
M  V30 6456 C 614.244 0.0761861 4.47935 0
M  V30 6457 C 615.988 -1.66087 3.9066 0
M  V30 6458 C 613.895 -0.419502 5.8991 0
M  V30 6459 H 612.825 -0.209092 0.724428 0
M  V30 6460 H 615.476 0.188683 1.82527 0
M  V30 6461 H 613.858 -1.82159 3.51616 0
M  V30 6462 H 615.032 0.852185 4.52851 0
M  V30 6463 H 613.347 0.614052 4.11847 0
M  V30 6464 H 615.944 -2.04272 4.94143 0
M  V30 6465 H 616.287 -2.53591 3.30148 0
M  V30 6466 H 616.82 -0.933959 3.86681 0
M  V30 6467 H 613.559 0.419277 6.54158 0
M  V30 6468 H 613.079 -1.16217 5.88433 0
M  V30 6469 H 614.758 -0.883577 6.40938 0
M  V30 6470 N 614.89 -1.56749 -0.16351 0
M  V30 6471 C 616.301 -1.72039 -0.725216 0
M  V30 6472 C 616.652 -0.72202 -1.82432 0
M  V30 6473 O 615.777 0.114942 -2.16095 0
M  V30 6474 C 616.372 -3.11932 -1.32227 0
M  V30 6475 C 614.931 -3.28879 -1.83072 0
M  V30 6476 C 614.078 -2.67984 -0.712716 0
M  V30 6477 H 617.029 -1.58579 0.0619772 0
M  V30 6478 H 617.05 -3.11015 -2.19202 0
M  V30 6479 H 616.562 -3.84572 -0.522103 0
M  V30 6480 H 614.663 -2.61209 -2.65708 0
M  V30 6481 H 614.776 -4.36688 -1.97079 0
M  V30 6482 H 613.14 -2.28005 -1.13515 0
M  V30 6483 H 613.923 -3.43216 0.0757361 0
M  V30 6484 N 616.368 0.432326 -1.51554 0
M  V30 6485 C 617.598 1.2019 -1.68042 0
M  V30 6486 C 618.006 1.85356 -0.379434 0
M  V30 6487 O 617.349 1.71724 0.652427 0
M  V30 6488 C 617.411 2.32387 -2.74292 0
M  V30 6489 C 617.075 1.87548 -4.16743 0
M  V30 6490 C 618.072 1.37611 -5.01357 0
M  V30 6491 C 615.757 1.95087 -4.62868 0
M  V30 6492 C 617.751 0.958069 -6.30159 0
M  V30 6493 C 615.438 1.52894 -5.91664 0
M  V30 6494 C 616.436 1.03336 -6.75137 0
M  V30 6495 O 616.124 0.617435 -8.01525 0
M  V30 6496 H 615.856 0.368132 -0.56697 0
M  V30 6497 H 618.41 0.517875 -1.98764 0
M  V30 6498 H 616.64 3.04082 -2.38895 0
M  V30 6499 H 618.329 2.94235 -2.79608 0
M  V30 6500 H 619.095 1.31178 -4.66923 0
M  V30 6501 H 614.974 2.32606 -3.98015 0
M  V30 6502 H 618.518 0.570562 -6.95263 0
M  V30 6503 H 614.415 1.58999 -6.25611 0
M  V30 6504 H 615.183 0.742835 -8.15122 0
M  V30 6505 N 617.846 1.41785 0.688094 0
M  V30 6506 C 619.071 1.45117 1.48175 0
M  V30 6507 C 619.496 0.060129 1.88004 0
M  V30 6508 O 618.854 -0.938385 1.55126 0
M  V30 6509 C 618.902 2.37224 2.71583 0
M  V30 6510 O 618.006 1.83443 3.69354 0
M  V30 6511 H 617.347 0.492208 0.445676 0
M  V30 6512 H 619.877 1.86329 0.845145 0
M  V30 6513 H 619.887 2.53353 3.19806 0
M  V30 6514 H 618.562 3.38293 2.41931 0
M  V30 6515 H 617.139 1.76802 3.28322 0
M  V30 6516 N 619.324 -0.923095 1.27737 0
M  V30 6517 C 620.74 -1.19985 1.05241 0
M  V30 6518 C 620.94 -2.00391 -0.21113 0
M  V30 6519 O 619.996 -2.35324 -0.915366 0
M  V30 6520 C 621.309 -1.94352 2.29451 0
M  V30 6521 C 622.857 -2.07273 2.34536 0
M  V30 6522 C 623.332 -2.85046 3.58487 0
M  V30 6523 N 624.823 -2.92612 3.59072 0
M  V30 6524 C 625.558 -3.53266 4.51654 0
M  V30 6525 N 625.054 -4.15274 5.54545 0
M  V30 6526 N 626.847 -3.50714 4.39268 0
M  V30 6527 H 618.998 -0.386042 2.08862 0
M  V30 6528 H 621.261 -0.233407 0.918817 0
M  V30 6529 H 620.967 -1.42692 3.21453 0
M  V30 6530 H 620.841 -2.94947 2.3513 0
M  V30 6531 H 623.228 -2.58117 1.43037 0
M  V30 6532 H 623.309 -1.05884 2.32857 0
M  V30 6533 H 622.953 -2.34884 4.50324 0
M  V30 6534 H 622.883 -3.8673 3.57418 0
M  V30 6535 H 625.374 -2.48547 2.84663 0
M  V30 6536 H 625.687 -4.59507 6.21348 0
M  V30 6537 H 624.032 -4.13806 5.58382 0
M  V30 6538 H 627.223 -3.01475 3.58093 0
M  V30 6539 H 627.396 -3.97693 5.1161 0
M  V30 6540 N 620.802 -1.09834 -1.13024 0
M  V30 6541 C 621.749 -0.741522 -2.18564 0
M  V30 6542 C 622.719 0.279236 -1.63736 0
M  V30 6543 O 623.904 0.159923 -1.90129 0
M  V30 6544 C 621.044 -0.17277 -3.44667 0
M  V30 6545 C 620.157 -1.24808 -4.13578 0
M  V30 6546 C 619.292 -0.641631 -5.27311 0
M  V30 6547 C 618.331 -1.69795 -5.88078 0
M  V30 6548 N 617.468 -1.11223 -6.93234 0
M  V30 6549 H 622.308 -1.64576 -2.48432 0
M  V30 6550 H 619.845 -0.822174 -1.21978 0
M  V30 6551 H 621.803 0.17482 -4.16834 0
M  V30 6552 H 620.433 0.694725 -3.15235 0
M  V30 6553 H 619.485 -1.71288 -3.39653 0
M  V30 6554 H 620.797 -2.04795 -4.54819 0
M  V30 6555 H 619.951 -0.243128 -6.06213 0
M  V30 6556 H 618.69 0.189742 -4.87331 0
M  V30 6557 H 617.695 -2.10595 -5.07868 0
M  V30 6558 H 618.92 -2.53206 -6.3013 0
M  V30 6559 H 616.866 -0.302208 -6.55304 0
M  V30 6560 H 616.783 -1.84901 -7.3304 0
M  V30 6561 H 618.051 -0.740068 -7.75979 0
M  V30 6562 N 622.28 1.30327 -0.886154 0
M  V30 6563 C 623.526 1.96764 -0.515312 0
M  V30 6564 C 623.881 1.68675 0.925552 0
M  V30 6565 O 623.174 0.981693 1.6454 0
M  V30 6566 C 623.368 3.49906 -0.728042 0
M  V30 6567 C 623.197 3.92881 -2.18803 0
M  V30 6568 C 621.967 4.18424 -2.83284 0
M  V30 6569 C 624.165 4.05617 -3.16195 0
M  V30 6570 N 622.147 4.47867 -4.19867 0
M  V30 6571 C 623.518 4.38957 -4.37855 0
M  V30 6572 C 625.573 3.88047 -3.11968 0
M  V30 6573 C 624.276 4.56559 -5.55829 0
M  V30 6574 C 626.302 4.06851 -4.29215 0
M  V30 6575 C 625.664 4.40538 -5.49641 0
M  V30 6576 H 621.763 0.74493 -0.237916 0
M  V30 6577 H 624.347 1.57536 -1.14414 0
M  V30 6578 H 622.518 3.88187 -0.128696 0
M  V30 6579 H 624.25 4.03401 -0.323983 0
M  V30 6580 H 621.005 4.1167 -2.34146 0
M  V30 6581 H 621.429 4.66721 -4.90408 0
M  V30 6582 H 626.071 3.61078 -2.19961 0
M  V30 6583 H 623.789 4.8237 -6.4834 0
M  V30 6584 H 627.375 3.94724 -4.27416 0
M  V30 6585 H 626.255 4.54789 -6.38856 0
M  V30 6586 N 623.758 0.647228 1.43697 0
M  V30 6587 C 624.668 -0.0487997 2.34549 0
M  V30 6588 C 625.684 -0.818586 1.53542 0
M  V30 6589 O 626.86 -0.767195 1.86215 0
M  V30 6590 C 623.925 -1.00734 3.31743 0
M  V30 6591 C 622.986 -0.23515 4.28655 0
M  V30 6592 C 622.219 -1.14803 5.21206 0
M  V30 6593 O 622.442 -2.38717 5.18045 0
M  V30 6594 O 621.376 -0.623667 5.9866 0
M  V30 6595 H 625.202 0.698863 2.9555 0
M  V30 6596 H 622.787 0.407412 1.43738 0
M  V30 6597 H 624.669 -1.55837 3.91526 0
M  V30 6598 H 623.344 -1.73534 2.73254 0
M  V30 6599 H 622.251 0.359319 3.7237 0
M  V30 6600 H 623.584 0.453152 4.9011 0
M  V30 6601 N 625.236 -1.5273 0.388769 0
M  V30 6602 C 626.483 -2.01573 -0.19359 0
M  V30 6603 C 626.811 -1.27525 -1.46859 0
M  V30 6604 O 626.066 -0.363926 -1.92286 0
M  V30 6605 C 626.365 -3.53765 -0.508445 0
M  V30 6606 C 626.031 -4.4582 0.674947 0
M  V30 6607 C 624.693 -4.70703 0.999596 0
M  V30 6608 C 627.045 -5.00138 1.46666 0
M  V30 6609 C 624.373 -5.47155 2.11751 0
M  V30 6610 C 626.725 -5.77812 2.57518 0
M  V30 6611 C 625.389 -6.00975 2.90492 0
M  V30 6612 H 624.659 -0.737606 -0.0708397 0
M  V30 6613 H 627.306 -1.84134 0.526006 0
M  V30 6614 H 625.611 -3.69274 -1.30936 0
M  V30 6615 H 627.308 -3.8905 -0.971664 0
M  V30 6616 H 623.898 -4.26616 0.411906 0
M  V30 6617 H 628.082 -4.8084 1.22909 0
M  V30 6618 H 623.338 -5.63314 2.3767 0
M  V30 6619 H 627.512 -6.18904 3.19267 0
M  V30 6620 H 625.139 -6.59998 3.77236 0
M  V30 6621 N 626.714 -0.118576 -1.57153 0
M  V30 6622 C 627.96 0.540326 -1.95469 0
M  V30 6623 C 628.293 1.66356 -1.00196 0
M  V30 6624 O 627.568 1.94461 -0.039104 0
M  V30 6625 C 627.851 1.07342 -3.43729 0
M  V30 6626 C 627.704 -0.0463732 -4.49776 0
M  V30 6627 C 629.023 1.96442 -3.93826 0
M  V30 6628 H 626.142 0.19494 -0.710751 0
M  V30 6629 H 628.784 -0.19405 -1.89006 0
M  V30 6630 H 626.934 1.69925 -3.49368 0
M  V30 6631 H 628.606 -0.681648 -4.56236 0
M  V30 6632 H 626.849 -0.709574 -4.27957 0
M  V30 6633 H 627.52 0.367856 -5.50773 0
M  V30 6634 H 629.996 1.43731 -3.90488 0
M  V30 6635 H 628.872 2.3066 -4.98084 0
M  V30 6636 H 629.133 2.89077 -3.34495 0
M  V30 6637 N 628.193 1.56834 0.155195 0
M  V30 6638 C 629.418 1.87412 0.888337 0
M  V30 6639 C 629.843 0.70671 1.74319 0
M  V30 6640 O 629.201 -0.343892 1.78009 0
M  V30 6641 C 629.249 3.1652 1.72765 0
M  V30 6642 O 628.353 2.99877 2.83103 0
M  V30 6643 H 627.694 0.615983 0.247914 0
M  V30 6644 H 630.224 2.04061 0.148478 0
M  V30 6645 H 630.234 3.48334 2.12433 0
M  V30 6646 H 628.909 4.01094 1.09985 0
M  V30 6647 H 627.486 2.79453 2.46902 0
M  V30 6648 N 629.671 -0.424282 1.51781 0
M  V30 6649 C 630.634 -1.49848 1.73431 0
M  V30 6650 C 631.634 -1.49016 0.604225 0
M  V30 6651 O 632.824 -1.50808 0.871935 0
M  V30 6652 C 629.956 -2.89332 1.80277 0
M  V30 6653 H 631.149 -1.3195 2.69312 0
M  V30 6654 H 628.702 -0.653809 1.41968 0
M  V30 6655 H 629.437 -3.12618 0.862568 0
M  V30 6656 H 629.222 -2.9134 2.62419 0
M  V30 6657 H 630.712 -3.67233 1.98821 0
M  V30 6658 N 631.149 -1.42148 -0.680565 0
M  V30 6659 C 632.396 -1.4231 -1.44063 0
M  V30 6660 C 632.724 -0.037488 -1.94464 0
M  V30 6661 O 631.979 0.953184 -1.70918 0
M  V30 6662 C 632.278 -2.38945 -2.65782 0
M  V30 6663 C 631.944 -3.85455 -2.33956 0
M  V30 6664 C 630.606 -4.25364 -2.24987 0
M  V30 6665 C 632.958 -4.77895 -2.08004 0
M  V30 6666 C 630.286 -5.55701 -1.88184 0
M  V30 6667 C 632.638 -6.08568 -1.72706 0
M  V30 6668 C 631.302 -6.47482 -1.62244 0
M  V30 6669 H 630.572 -0.520748 -0.527164 0
M  V30 6670 H 633.219 -1.7505 -0.776524 0
M  V30 6671 H 631.524 -1.99511 -3.37198 0
M  V30 6672 H 633.221 -2.36336 -3.23954 0
M  V30 6673 H 629.811 -3.53855 -2.41836 0
M  V30 6674 H 633.995 -4.47854 -2.1387 0
M  V30 6675 H 629.251 -5.84718 -1.78648 0
M  V30 6676 H 633.425 -6.79688 -1.5165 0
M  V30 6677 H 631.052 -7.48387 -1.33496 0
M  V30 6678 N 632.627 0.916307 -1.28225 0
M  V30 6679 C 634.043 1.19425 -1.05876 0
M  V30 6680 C 634.243 2.005 0.2005 0
M  V30 6681 O 633.299 2.35806 0.902873 0
M  V30 6682 C 634.612 1.93133 -2.30478 0
M  V30 6683 C 636.16 2.06026 -2.35632 0
M  V30 6684 C 636.635 2.83141 -3.59994 0
M  V30 6685 N 638.126 2.90704 -3.60618 0
M  V30 6686 C 638.861 3.50865 -4.53521 0
M  V30 6687 N 638.357 4.12327 -5.56739 0
M  V30 6688 N 640.15 3.48379 -4.41122 0
M  V30 6689 H 632.301 0.37496 -2.09064 0
M  V30 6690 H 634.564 0.228531 -0.920042 0
M  V30 6691 H 634.27 1.40985 -3.22205 0
M  V30 6692 H 634.144 2.93696 -2.36691 0
M  V30 6693 H 636.531 2.57355 -1.44404 0
M  V30 6694 H 636.612 1.04647 -2.33415 0
M  V30 6695 H 636.256 2.32492 -4.51564 0
M  V30 6696 H 636.186 3.84829 -3.59464 0
M  V30 6697 H 638.677 2.47034 -2.85977 0
M  V30 6698 H 638.99 4.56205 -6.23776 0
M  V30 6699 H 637.335 4.10839 -5.60568 0
M  V30 6700 H 640.526 2.99572 -3.59686 0
M  V30 6701 H 640.699 3.94974 -5.13712 0
M  V30 6702 N 634.105 1.10431 1.1244 0
M  V30 6703 C 635.037 0.710945 2.17895 0
M  V30 6704 C 636.05 -0.252315 1.60833 0
M  V30 6705 O 637.239 -0.03679 1.78462 0
M  V30 6706 C 634.339 0.0284262 3.38888 0
M  V30 6707 C 633.512 1.01585 4.2544 0
M  V30 6708 C 632.571 0.364826 5.24934 0
M  V30 6709 O 631.597 1.01561 5.60066 0
M  V30 6710 N 632.799 -0.87674 5.73841 0
M  V30 6711 H 635.564 1.61826 2.52255 0
M  V30 6712 H 633.125 0.993132 1.27861 0
M  V30 6713 H 635.117 -0.418568 4.0253 0
M  V30 6714 H 633.687 -0.781294 3.02679 0
M  V30 6715 H 632.907 1.64111 3.58415 0
M  V30 6716 H 634.195 1.68425 4.80115 0
M  V30 6717 H 633.593 -1.42483 5.47462 0
M  V30 6718 H 632.15 -1.26688 6.39369 0
M  V30 6719 N 635.583 -1.29855 0.893053 0
M  V30 6720 C 636.546 -2.26183 0.370687 0
M  V30 6721 C 637.546 -1.53108 -0.491385 0
M  V30 6722 O 638.736 -1.71643 -0.297386 0
M  V30 6723 C 635.868 -3.37633 -0.470827 0
M  V30 6724 H 637.061 -2.73903 1.22135 0
M  V30 6725 H 634.614 -1.41183 0.67061 0
M  V30 6726 H 635.349 -2.95241 -1.34175 0
M  V30 6727 H 635.134 -3.91825 0.146784 0
M  V30 6728 H 636.624 -4.09313 -0.827825 0
M  V30 6729 N 637.061 -0.65484 -1.43351 0
M  V30 6730 C 637.993 0.0744757 -2.29079 0
M  V30 6731 C 639.006 0.7855 -1.42596 0
M  V30 6732 O 640.195 0.642986 -1.66517 0
M  V30 6733 C 637.295 1.12859 -3.19556 0
M  V30 6734 C 636.468 0.495381 -4.34586 0
M  V30 6735 C 635.527 1.44659 -5.05925 0
M  V30 6736 O 634.553 0.954567 -5.61139 0
M  V30 6737 N 635.755 2.78051 -5.09576 0
M  V30 6738 H 638.52 -0.661346 -2.92312 0
M  V30 6739 H 636.081 -0.497744 -1.54059 0
M  V30 6740 H 638.073 1.76577 -3.64147 0
M  V30 6741 H 636.643 1.76636 -2.57912 0
M  V30 6742 H 635.863 -0.32092 -3.92892 0
M  V30 6743 H 637.151 0.0534203 -5.08772 0
M  V30 6744 H 636.549 3.20584 -4.66093 0
M  V30 6745 H 635.106 3.37068 -5.57878 0
M  V30 6746 N 638.539 1.52521 -0.396863 0
M  V30 6747 C 639.955 1.5953 -0.0471659 0
M  V30 6748 C 640.155 1.41044 1.43906 0
M  V30 6749 O 639.211 1.23122 2.20448 0
M  V30 6750 C 640.524 2.95972 -0.531113 0
M  V30 6751 C 642.072 3.09172 -0.488024 0
M  V30 6752 C 642.547 4.48075 -0.948281 0
M  V30 6753 N 644.038 4.54281 -0.9046 0
M  V30 6754 C 644.773 5.60007 -1.23205 0
M  V30 6755 N 644.269 6.73343 -1.63036 0
M  V30 6756 N 646.062 5.50151 -1.15282 0
M  V30 6757 H 638.213 1.62786 -1.36435 0
M  V30 6758 H 640.476 0.76514 -0.559701 0
M  V30 6759 H 640.182 3.14741 -1.56942 0
M  V30 6760 H 640.056 3.77143 0.0657922 0
M  V30 6761 H 642.443 2.90095 0.541211 0
M  V30 6762 H 642.524 2.29937 -1.12083 0
M  V30 6763 H 642.168 4.67894 -1.97578 0
M  V30 6764 H 642.098 5.25788 -0.292412 0
M  V30 6765 H 644.589 3.72918 -0.6116 0
M  V30 6766 H 644.902 7.49992 -1.86365 0
M  V30 6767 H 643.247 6.74655 -1.66929 0
M  V30 6768 H 646.438 4.6049 -0.840602 0
M  V30 6769 H 646.611 6.32444 -1.41133 0
M  V30 6770 N 640.017 0.126909 1.57088 0
M  V30 6771 C 640.949 -0.850973 2.12817 0
M  V30 6772 C 641.962 -1.22457 1.07276 0
M  V30 6773 O 643.151 -1.17215 1.34622 0
M  V30 6774 C 640.251 -2.15039 2.61938 0
M  V30 6775 C 639.424 -1.94726 3.91664 0
M  V30 6776 C 638.483 -3.0847 4.26301 0
M  V30 6777 O 637.509 -2.81038 4.94981 0
M  V30 6778 N 638.711 -4.35116 3.84259 0
M  V30 6779 H 641.476 -0.3748 2.97347 0
M  V30 6780 H 639.037 -0.0572793 1.61799 0
M  V30 6781 H 641.029 -2.90141 2.82135 0
M  V30 6782 H 639.599 -2.5398 1.82244 0
M  V30 6783 H 638.819 -1.03772 3.80296 0
M  V30 6784 H 640.107 -1.78469 4.76473 0
M  V30 6785 H 639.505 -4.60276 3.2888 0
M  V30 6786 H 638.062 -5.07064 4.09548 0
M  V30 6787 N 641.495 -1.56914 -0.146875 0
M  V30 6788 C 642.405 -2.0154 -1.20079 0
M  V30 6789 C 643.421 -0.930838 -1.47008 0
M  V30 6790 O 644.597 -1.24032 -1.58676 0
M  V30 6791 C 641.662 -2.38715 -2.51428 0
M  V30 6792 C 640.723 -3.6112 -2.32145 0
M  V30 6793 C 639.956 -3.96512 -3.57231 0
M  V30 6794 O 640.179 -3.32566 -4.63418 0
M  V30 6795 O 639.113 -4.89758 -3.49887 0
M  V30 6796 H 642.939 -2.91506 -0.851924 0
M  V30 6797 H 640.524 -1.45106 -0.355607 0
M  V30 6798 H 642.406 -2.63485 -3.28867 0
M  V30 6799 H 641.081 -1.51903 -2.85845 0
M  V30 6800 H 639.988 -3.41536 -1.52656 0
M  V30 6801 H 641.321 -4.48549 -2.02644 0
M  V30 6802 N 642.974 0.416227 -1.52004 0
M  V30 6803 C 643.922 1.5272 -1.7544 0
M  V30 6804 C 644.916 1.57596 -0.621289 0
M  V30 6805 O 646.122 1.61087 -0.803172 0
M  V30 6806 H 642.497 0.507772 -0.554682 0
M  V30 6807 H 644.468 1.30136 -2.68528 0
M  V30 6808 C 643.217 2.90165 -1.91571 0
M  V30 6809 H 642.54 2.87154 -2.78178 0
M  V30 6810 H 643.98 3.67211 -2.11972 0
M  V30 6811 C 642.439 3.29947 -0.680942 0
M  V30 6812 O 642.969 4.01403 0.154527 0
M  V30 6813 N 641.175 2.8593 -0.518894 0
M  V30 6814 H 640.722 2.2795 -1.19986 0
M  V30 6815 H 640.68 3.12907 0.305985 0
M  V30 6816 N 644.452 1.42507 0.673017 0
M  V30 6817 C 645.415 1.4582 1.76831 0
M  V30 6818 C 646.415 0.345542 1.57043 0
M  V30 6819 O 647.605 0.606447 1.63303 0
M  V30 6820 C 644.737 1.29158 3.15485 0
M  V30 6821 H 645.93 2.43345 1.7528 0
M  V30 6822 H 643.483 1.28981 0.882817 0
M  V30 6823 H 644.218 0.325626 3.22661 0
M  V30 6824 H 644.003 2.09797 3.31252 0
M  V30 6825 H 645.493 1.34363 3.95394 0
M  V30 6826 N 645.93 -0.909495 1.28709 0
M  V30 6827 C 646.86 -2.0291 1.15542 0
M  V30 6828 C 647.841 -1.7002 0.0521017 0
M  V30 6829 O 649.026 -1.92835 0.229849 0
M  V30 6830 C 646.156 -3.37458 0.820935 0
M  V30 6831 C 645.11 -3.84524 1.87949 0
M  V30 6832 C 644.436 -5.16086 1.39854 0
M  V30 6833 C 645.736 -4.05918 3.28676 0
M  V30 6834 H 647.43 -2.14183 2.09203 0
M  V30 6835 H 644.976 -1.02913 1.00722 0
M  V30 6836 H 646.929 -4.1528 0.715571 0
M  V30 6837 H 645.653 -3.26249 -0.151374 0
M  V30 6838 H 644.312 -3.08911 1.97408 0
M  V30 6839 H 643.96 -5.01284 0.41518 0
M  V30 6840 H 643.66 -5.48547 2.1064 0
M  V30 6841 H 645.184 -5.96459 1.30649 0
M  V30 6842 H 646.598 -4.74252 3.22115 0
M  V30 6843 H 644.995 -4.49717 3.97334 0
M  V30 6844 H 646.065 -3.10583 3.72379 0
M  V30 6845 N 647.408 -1.11026 -1.11852 0
M  V30 6846 C 648.371 -0.768006 -2.1595 0
M  V30 6847 C 649.371 0.210538 -1.59416 0
M  V30 6848 O 650.561 -0.0133978 -1.74195 0
M  V30 6849 C 647.693 -0.138678 -3.40618 0
M  V30 6850 H 648.886 -1.69012 -2.4774 0
M  V30 6851 H 646.439 -0.911578 -1.26964 0
M  V30 6852 H 647.174 0.793872 -3.14433 0
M  V30 6853 H 646.959 -0.843012 -3.8293 0
M  V30 6854 H 648.449 0.0848039 -4.17514 0
M  V30 6855 N 648.886 1.2938 -0.899927 0
M  V30 6856 C 650.135 1.9483 -0.521937 0
M  V30 6857 C 650.448 1.71725 0.936473 0
M  V30 6858 O 651.654 2.31282 1.42199 0
M  V30 6859 C 650.11 3.48911 -0.88255 0
M  V30 6860 C 649.718 3.80815 -2.35974 0
M  V30 6861 C 651.462 4.20595 -0.57448 0
M  V30 6862 C 649.369 5.28142 -2.66121 0
M  V30 6863 H 648.299 0.729285 -0.191468 0
M  V30 6864 H 650.95 1.47103 -1.09695 0
M  V30 6865 H 649.332 3.95293 -0.236459 0
M  V30 6866 H 650.506 3.45291 -3.05141 0
M  V30 6867 H 648.821 3.22271 -2.63686 0
M  V30 6868 H 651.418 5.29031 -0.776556 0
M  V30 6869 H 651.761 4.13442 0.487005 0
M  V30 6870 H 652.294 3.79945 -1.17842 0
M  V30 6871 H 649.033 5.4036 -3.71068 0
M  V30 6872 H 648.553 5.64913 -2.01578 0
M  V30 6873 H 650.232 5.95738 -2.52399 0
M  V30 6874 N 650.364 0.662433 1.43002 0
M  V30 6875 C 651.61 0.179857 2.02001 0
M  V30 6876 C 651.943 -1.20625 1.52195 0
M  V30 6877 O 651.218 -1.80726 0.718911 0
M  V30 6878 C 651.501 0.200845 3.59539 0
M  V30 6879 C 651.354 1.62153 4.19555 0
M  V30 6880 C 652.673 -0.457738 4.37713 0
M  V30 6881 H 649.792 0.0668305 0.733964 0
M  V30 6882 H 652.434 0.84487 1.70182 0
M  V30 6883 H 650.584 -0.365411 3.86778 0
M  V30 6884 H 652.256 2.23908 4.03315 0
M  V30 6885 H 650.499 2.16601 3.75854 0
M  V30 6886 H 651.17 1.58799 5.28665 0
M  V30 6887 H 653.646 0.0241495 4.16093 0
M  V30 6888 H 652.522 -0.412363 5.47349 0
M  V30 6889 H 652.783 -1.53336 4.14657 0
M  V30 6890 N 651.842 -1.52309 0.404946 0
M  V30 6891 C 652.79 -2.28452 -0.437321 0
M  V30 6892 C 653.784 -1.32975 -1.04948 0
M  V30 6893 O 654.99 -1.50451 -0.988159 0
M  V30 6894 H 651.365 -0.734824 -0.159805 0
M  V30 6895 H 653.336 -2.97542 0.22615 0
M  V30 6896 C 652.085 -3.11536 -1.54404 0
M  V30 6897 H 651.408 -3.84871 -1.08233 0
M  V30 6898 H 652.848 -3.67926 -2.10729 0
M  V30 6899 C 651.307 -2.24833 -2.50902 0
M  V30 6900 O 651.837 -1.88574 -3.54687 0
M  V30 6901 N 650.043 -1.88685 -2.21012 0
M  V30 6902 H 649.59 -2.18371 -1.36646 0
M  V30 6903 H 649.548 -1.30966 -2.85824 0
M  V30 6904 N 653.32 -0.135238 -1.57019 0
M  V30 6905 C 654.545 0.529343 -2.00531 0
M  V30 6906 C 654.97 1.58391 -1.01459 0
M  V30 6907 O 654.328 1.81296 0.0113986 0
M  V30 6908 C 654.376 1.11748 -3.42848 0
M  V30 6909 O 653.48 2.23267 -3.46736 0
M  V30 6910 H 652.821 0.130669 -0.651016 0
M  V30 6911 H 655.351 -0.228503 -2.0332 0
M  V30 6912 H 655.361 1.44905 -3.81401 0
M  V30 6913 H 654.036 0.345147 -4.14465 0
M  V30 6914 H 652.613 1.91428 -3.20015 0
M  V30 6915 N 654.798 1.5699 0.138552 0
M  V30 6916 C 656.046 1.83446 0.848053 0
M  V30 6917 C 656.367 0.71744 1.81322 0
M  V30 6918 O 655.637 -0.260228 1.94164 0
M  V30 6919 H 654.217 0.676792 0.316166 0
M  V30 6920 H 656.879 1.94462 0.130538 0
M  V30 6921 H 655.975 2.78677 1.40518 0
M  V30 6922 N 656.276 -0.40816 1.52223 0
M  V30 6923 C 657.209 -1.51834 1.70357 0
M  V30 6924 C 658.187 -1.52973 0.551171 0
M  V30 6925 O 659.371 -1.71667 0.778642 0
M  V30 6926 C 656.498 -2.90362 1.74378 0
M  V30 6927 C 655.544 -3.0713 2.95928 0
M  V30 6928 S 656.377 -2.80342 4.56255 0
M  V30 6929 C 657.533 -4.21098 4.63063 0
M  V30 6930 H 657.766 -1.36223 2.64255 0
M  V30 6931 H 655.299 -0.599798 1.42274 0
M  V30 6932 H 657.257 -3.70199 1.77379 0
M  V30 6933 H 655.918 -3.03314 0.816063 0
M  V30 6934 H 655.111 -4.08482 2.95226 0
M  V30 6935 H 654.713 -2.3516 2.90819 0
M  V30 6936 H 657.005 -5.14749 4.40499 0
M  V30 6937 H 657.948 -4.26823 5.65002 0
M  V30 6938 H 658.356 -4.06114 3.92086 0
M  V30 6939 N 657.755 -1.42862 -0.66545 0
M  V30 6940 C 659.171 -1.25993 -0.979687 0
M  V30 6941 C 659.371 -0.170831 -2.00775 0
M  V30 6942 O 658.427 0.454827 -2.4837 0
M  V30 6943 C 659.74 -2.62005 -1.47559 0
M  V30 6944 C 661.288 -2.69437 -1.59288 0
M  V30 6945 C 661.763 -4.05838 -2.12272 0
M  V30 6946 N 663.254 -4.0784 -2.19592 0
M  V30 6947 C 663.989 -5.10205 -2.61684 0
M  V30 6948 N 663.485 -6.22949 -3.03161 0
M  V30 6949 N 665.278 -4.9756 -2.61516 0
M  V30 6950 H 657.429 -2.12395 0.0150493 0
M  V30 6951 H 659.692 -0.946355 -0.0558187 0
M  V30 6952 H 659.398 -3.42605 -0.794654 0
M  V30 6953 H 659.272 -2.86566 -2.45275 0
M  V30 6954 H 661.659 -1.89178 -2.26486 0
M  V30 6955 H 661.74 -2.48655 -0.600374 0
M  V30 6956 H 661.384 -4.86559 -1.4568 0
M  V30 6957 H 661.314 -4.23977 -3.12331 0
M  V30 6958 H 663.805 -3.26452 -1.90361 0
M  V30 6959 H 664.118 -6.96899 -3.33993 0
M  V30 6960 H 662.463 -6.2644 -3.00995 0
M  V30 6961 H 665.654 -4.08551 -2.28481 0
M  V30 6962 H 665.827 -5.77468 -2.93999 0
M  V30 6963 N 659.233 0.902656 -1.29189 0
M  V30 6964 C 660.479 1.65532 -1.17163 0
M  V30 6965 C 660.812 1.92216 0.276879 0
M  V30 6966 O 660.087 1.53048 1.20027 0
M  V30 6967 C 660.37 3.00629 -1.98228 0
M  V30 6968 C 660.223 2.81029 -3.51202 0
M  V30 6969 C 661.542 4.01321 -1.80635 0
M  V30 6970 H 658.661 0.60071 -0.426985 0
M  V30 6971 H 661.303 1.04578 -1.5863 0
M  V30 6972 H 659.453 3.52656 -1.62991 0
M  V30 6973 H 661.125 2.35927 -3.96404 0
M  V30 6974 H 659.368 2.1587 -3.76275 0
M  V30 6975 H 660.039 3.77014 -4.03192 0
M  V30 6976 H 662.515 3.58394 -2.11406 0
M  V30 6977 H 661.391 4.93792 -2.3971 0
M  V30 6978 H 661.652 4.35505 -0.760754 0
M  V30 6979 N 660.711 1.11618 1.11262 0
M  V30 6980 C 661.958 0.86618 1.8304 0
M  V30 6981 C 662.286 -0.608149 1.84748 0
M  V30 6982 O 661.541 -1.46508 1.29745 0
M  V30 6983 C 661.84 1.37529 3.2988 0
M  V30 6984 C 661.506 2.86317 3.4833 0
M  V30 6985 C 660.168 3.26945 3.53073 0
M  V30 6986 C 662.52 3.82136 3.54431 0
M  V30 6987 C 659.848 4.62117 3.61475 0
M  V30 6988 C 662.2 5.17128 3.64365 0
M  V30 6989 C 660.864 5.57312 3.67369 0
M  V30 6990 H 660.134 0.316958 0.66979 0
M  V30 6991 H 662.781 1.3949 1.31205 0
M  V30 6992 H 661.086 0.766842 3.84222 0
M  V30 6993 H 662.783 1.15817 3.83911 0
M  V30 6994 H 659.373 2.53889 3.45309 0
M  V30 6995 H 663.557 3.51847 3.50025 0
M  V30 6996 H 658.813 4.92655 3.62079 0
M  V30 6997 H 662.987 5.91208 3.68029 0
M  V30 6998 H 660.614 6.62045 3.73632 0
M  V30 6999 N 662.189 -1.289 0.906776 0
M  V30 7000 C 663.436 -1.95269 0.536326 0
M  V30 7001 C 663.764 -1.71435 -0.918711 0
M  V30 7002 O 663.019 -1.02431 -1.66752 0
M  V30 7003 C 663.318 -3.48704 0.783617 0
M  V30 7004 C 662.984 -3.92626 2.21711 0
M  V30 7005 C 661.646 -4.04329 2.60906 0
M  V30 7006 C 663.998 -4.15218 3.15029 0
M  V30 7007 C 661.326 -4.35998 3.92584 0
M  V30 7008 C 663.678 -4.48365 4.46264 0
M  V30 7009 C 662.342 -4.58278 4.85322 0
M  V30 7010 H 661.612 -0.714538 0.196256 0
M  V30 7011 H 664.259 -1.53366 1.14678 0
M  V30 7012 H 662.564 -3.91696 0.0903048 0
M  V30 7013 H 664.261 -3.98162 0.476267 0
M  V30 7014 H 660.851 -3.84038 1.90296 0
M  V30 7015 H 665.035 -4.05636 2.8596 0
M  V30 7016 H 660.291 -4.41878 4.22557 0
M  V30 7017 H 664.465 -4.64795 5.18593 0
M  V30 7018 H 662.092 -4.82573 5.87391 0
M  V30 7019 N 663.667 -0.670007 -1.42649 0
M  V30 7020 C 664.915 -0.18991 -2.01206 0
M  V30 7021 C 665.236 1.20617 -1.53221 0
M  V30 7022 O 664.506 1.80898 -0.751856 0
M  V30 7023 H 663.086 -0.0672189 -0.743969 0
M  V30 7024 H 665.748 -0.865442 -1.74631 0
M  V30 7025 H 664.844 -0.187481 -3.11536 0
M  V30 7026 N 665.145 1.52092 -0.413018 0
M  V30 7027 C 666.055 2.30858 0.417318 0
M  V30 7028 C 667.071 1.38746 1.05003 0
M  V30 7029 O 668.247 1.71821 1.05069 0
M  V30 7030 C 665.312 3.11756 1.51687 0
M  V30 7031 C 664.373 4.19613 0.906825 0
M  V30 7032 C 663.606 4.96644 1.95399 0
M  V30 7033 O 663.829 4.7402 3.17271 0
M  V30 7034 O 662.763 5.81385 1.55805 0
M  V30 7035 H 666.589 3.02865 -0.225028 0
M  V30 7036 H 664.174 1.48358 -0.176126 0
M  V30 7037 H 666.056 3.62122 2.15512 0
M  V30 7038 H 664.731 2.42539 2.14375 0
M  V30 7039 H 663.638 3.73385 0.231183 0
M  V30 7040 H 664.971 4.91134 0.323814 0
M  V30 7041 N 666.623 0.143563 1.56945 0
M  V30 7042 C 667.871 -0.507402 1.95627 0
M  V30 7043 C 668.192 -1.65626 1.02922 0
M  V30 7044 O 667.462 -1.95693 0.0901136 0
M  V30 7045 H 666.042 -0.190436 0.722318 0
M  V30 7046 H 668.704 0.218257 1.93674 0
M  V30 7047 H 667.8 -0.885816 2.99265 0
M  V30 7048 N 668.101 -1.57061 -0.130224 0
M  V30 7049 C 669.378 -1.75205 -0.869631 0
M  V30 7050 C 669.758 -0.716063 -1.98584 0
M  V30 7051 O 669.106 0.262032 -2.26993 0
M  V30 7052 C 669.316 -3.19835 -1.39666 0
M  V30 7053 C 670.664 -3.82011 -1.85345 0
M  V30 7054 O 671.688 -3.23368 -1.49371 0
M  V30 7055 O 670.547 -4.85064 -2.51744 0
M  V30 7056 H 667.641 -0.716977 -0.412157 0
M  V30 7057 H 670.187 -1.69311 -0.11484 0
M  V30 7058 H 668.959 -3.86745 -0.595288 0
M  V30 7059 H 668.582 -3.30222 -2.21448 0
M  V30 7060 N 669.579 0.400081 -1.52437 0
M  V30 7061 C 670.827 1.14392 -1.6661 0
M  V30 7062 C 671.148 1.90792 -0.402927 0
M  V30 7063 O 670.418 1.87042 0.582425 0
M  V30 7064 H 668.998 0.425275 -0.614125 0
M  V30 7065 H 671.66 0.455076 -1.89513 0
M  V30 7066 H 670.756 1.85298 -2.51139 0
M  V30 7067 N 671.057 1.43213 0.657864 0
M  V30 7068 C 672.306 1.43871 1.41365 0
M  V30 7069 C 672.619 0.064898 1.95492 0
M  V30 7070 O 673.825 -0.0510796 2.71452 0
M  V30 7071 C 672.281 2.53158 2.55811 0
M  V30 7072 C 671.889 3.96624 2.08311 0
M  V30 7073 C 673.633 2.63004 3.3321 0
M  V30 7074 C 671.54 4.97385 3.1994 0
M  V30 7075 H 670.47 0.535174 0.531136 0
M  V30 7076 H 673.121 1.69185 0.710543 0
M  V30 7077 H 671.503 2.21037 3.2857 0
M  V30 7078 H 672.677 4.38182 1.42593 0
M  V30 7079 H 670.992 3.90781 1.43804 0
M  V30 7080 H 673.589 3.3546 4.16378 0
M  V30 7081 H 673.932 1.67918 3.80932 0
M  V30 7082 H 674.465 2.94403 2.67529 0
M  V30 7083 H 671.204 5.94007 2.77192 0
M  V30 7084 H 670.724 4.60444 3.84385 0
M  V30 7085 H 672.403 5.19877 3.85145 0
M  V30 7086 N 672.536 -0.895792 1.29666 0
M  V30 7087 C 673.785 -1.64131 1.17234 0
M  V30 7088 C 674.098 -1.93665 -0.274416 0
M  V30 7089 O 675.304 -2.66472 -0.520105 0
M  V30 7090 C 673.76 -2.95764 2.05065 0
M  V30 7091 C 673.368 -2.7381 3.54587 0
M  V30 7092 C 675.112 -3.737 2.01367 0
M  V30 7093 C 673.019 -4.01194 4.34508 0
M  V30 7094 H 671.949 -0.615742 0.435175 0
M  V30 7095 H 674.6 -0.992626 1.54335 0
M  V30 7096 H 672.982 -3.61867 1.60837 0
M  V30 7097 H 674.156 -2.16277 4.06892 0
M  V30 7098 H 672.471 -2.09265 3.59996 0
M  V30 7099 H 675.068 -4.68152 2.58337 0
M  V30 7100 H 675.411 -4.04245 0.994575 0
M  V30 7101 H 675.944 -3.14444 2.43659 0
M  V30 7102 H 672.683 -3.75813 5.37071 0
M  V30 7103 H 672.203 -4.58272 3.86971 0
M  V30 7104 H 673.882 -4.69307 4.45376 0
M  V30 7105 N 674.014 -1.12206 -1.10668 0
M  V30 7106 C 675.43 -0.857619 -1.346 0
M  V30 7107 C 675.63 0.513542 -1.94846 0
M  V30 7108 O 674.686 1.26273 -2.18658 0
M  V30 7109 C 675.999 -1.97212 -2.26998 0
M  V30 7110 C 677.547 -2.00272 -2.40542 0
M  V30 7111 C 678.022 -3.10948 -3.36267 0
M  V30 7112 N 679.513 -3.10375 -3.43834 0
M  V30 7113 C 680.248 -3.92651 -4.17867 0
M  V30 7114 N 679.744 -4.84911 -4.94807 0
M  V30 7115 N 681.537 -3.80798 -4.1346 0
M  V30 7116 H 673.688 -2.00558 -0.699306 0
M  V30 7117 H 675.951 -0.872612 -0.370477 0
M  V30 7118 H 675.657 -2.96002 -1.89936 0
M  V30 7119 H 675.531 -1.87521 -3.27286 0
M  V30 7120 H 677.918 -1.02103 -2.76874 0
M  V30 7121 H 677.999 -2.14037 -1.40077 0
M  V30 7122 H 677.643 -4.09348 -3.00661 0
M  V30 7123 H 677.573 -2.94421 -4.36605 0
M  V30 7124 H 680.064 -2.43536 -2.88961 0
M  V30 7125 H 680.377 -5.44207 -5.48688 0
M  V30 7126 H 678.722 -4.88926 -4.93939 0
M  V30 7127 H 681.913 -3.08058 -3.52445 0
M  V30 7128 H 682.086 -4.4515 -4.70898 0
M  V30 7129 N 675.492 1.28418 -0.913599 0
M  V30 7130 C 676.402 2.31043 -0.406965 0
M  V30 7131 C 677.418 1.66501 0.505298 0
M  V30 7132 O 678.594 1.97558 0.391522 0
M  V30 7133 C 675.659 3.4498 0.344901 0
M  V30 7134 C 674.72 4.25078 -0.600563 0
M  V30 7135 C 673.953 5.33575 0.115516 0
M  V30 7136 O 674.176 5.54503 1.33727 0
M  V30 7137 O 673.11 5.9939 -0.549095 0
M  V30 7138 H 676.936 2.76387 -1.25873 0
M  V30 7139 H 674.521 1.33109 -0.678415 0
M  V30 7140 H 676.403 4.14314 0.769542 0
M  V30 7141 H 675.078 3.01719 1.1725 0
M  V30 7142 H 673.985 3.58334 -1.0746 0
M  V30 7143 H 675.318 4.72018 -1.39497 0
M  V30 7144 N 676.97 0.677563 1.42291 0
M  V30 7145 C 677.9 0.014968 2.33495 0
M  V30 7146 C 678.881 -0.786376 1.50831 0
M  V30 7147 O 680.066 -0.742975 1.79426 0
M  V30 7148 C 677.196 -0.935023 3.34477 0
M  V30 7149 C 676.15 -0.242074 4.27315 0
M  V30 7150 C 675.476 -1.30519 5.18526 0
M  V30 7151 C 676.776 0.880604 5.14823 0
M  V30 7152 H 678.47 0.776671 2.89151 0
M  V30 7153 H 676.016 0.37494 1.39033 0
M  V30 7154 H 677.969 -1.40766 3.97194 0
M  V30 7155 H 676.693 -1.72818 2.77131 0
M  V30 7156 H 675.352 0.210351 3.65996 0
M  V30 7157 H 675 -2.09041 4.57505 0
M  V30 7158 H 674.7 -0.846652 5.81468 0
M  V30 7159 H 676.224 -1.7787 5.84119 0
M  V30 7160 H 677.638 0.489062 5.7121 0
M  V30 7161 H 676.035 1.26511 5.86613 0
M  V30 7162 H 677.105 1.72818 4.53059 0
M  V30 7163 N 678.448 -1.51871 0.421078 0
M  V30 7164 C 679.688 -2.03848 -0.150167 0
M  V30 7165 C 680.052 -1.29925 -1.41363 0
M  V30 7166 O 681.253 -1.7219 -2.06408 0
M  V30 7167 C 679.524 -3.55374 -0.38003 0
M  V30 7168 S 681.083 -4.29111 -0.917011 0
M  V30 7169 H 677.901 -0.709904 -0.0394639 0
M  V30 7170 H 680.503 -1.86799 0.576746 0
M  V30 7171 H 679.207 -4.0675 0.546122 0
M  V30 7172 H 678.738 -3.76687 -1.13448 0
M  V30 7173 H 680.753 -4.44944 -2.19635 0
M  V30 7174 N 679.926 -0.151884 -1.56866 0
M  V30 7175 C 681.175 0.497992 -1.95456 0
M  V30 7176 C 681.488 1.6569 -1.03953 0
M  V30 7177 O 682.694 2.37173 -1.32142 0
M  V30 7178 C 681.15 0.93732 -3.4748 0
M  V30 7179 C 680.758 -0.194921 -4.47576 0
M  V30 7180 C 682.502 1.55671 -3.94926 0
M  V30 7181 C 680.409 0.26295 -5.90815 0
M  V30 7182 H 679.339 0.189811 -0.729717 0
M  V30 7183 H 681.99 -0.237011 -1.81963 0
M  V30 7184 H 680.372 1.72773 -3.56322 0
M  V30 7185 H 681.546 -0.971951 -4.50433 0
M  V30 7186 H 679.861 -0.72303 -4.10075 0
M  V30 7187 H 682.458 1.91099 -4.99385 0
M  V30 7188 H 682.801 2.44748 -3.36755 0
M  V30 7189 H 683.334 0.831109 -3.89021 0
M  V30 7190 H 680.073 -0.592568 -6.52816 0
M  V30 7191 H 679.593 1.00575 -5.91308 0
M  V30 7192 H 681.272 0.713333 -6.43056 0
M  V30 7193 N 681.404 1.57128 0.121893 0
M  V30 7194 C 682.629 1.89254 0.848385 0
M  V30 7195 C 683.054 0.743527 1.72781 0
M  V30 7196 O 682.412 -0.306056 1.78698 0
M  V30 7197 C 682.46 3.20113 1.66012 0
M  V30 7198 O 681.564 3.05815 2.76679 0
M  V30 7199 H 680.905 0.621103 0.234793 0
M  V30 7200 H 683.435 2.0433 0.10516 0
M  V30 7201 H 683.445 3.52761 2.04996 0
M  V30 7202 H 682.12 4.03336 1.01452 0
M  V30 7203 H 680.697 2.84627 2.40918 0
M  V30 7204 N 682.882 -0.391992 1.52647 0
M  V30 7205 C 684.112 -1.15692 1.71169 0
M  V30 7206 C 684.52 -1.84285 0.428444 0
M  V30 7207 O 683.863 -1.73393 -0.606669 0
M  V30 7208 C 683.925 -2.25033 2.80357 0
M  V30 7209 C 683.589 -1.76433 4.21569 0
M  V30 7210 C 684.586 -1.2427 5.0483 0
M  V30 7211 C 682.271 -1.82746 4.67877 0
M  V30 7212 C 684.265 -0.790657 6.32477 0
M  V30 7213 C 681.952 -1.37153 5.9551 0
M  V30 7214 C 682.95 -0.853997 6.7764 0
M  V30 7215 O 682.638 -0.404708 8.02881 0
M  V30 7216 H 682.37 -0.35297 0.576531 0
M  V30 7217 H 684.924 -0.464994 2.00067 0
M  V30 7218 H 683.154 -2.97641 2.46874 0
M  V30 7219 H 684.843 -2.86718 2.87311 0
M  V30 7220 H 685.609 -1.18752 4.70237 0
M  V30 7221 H 681.488 -2.21971 4.04042 0
M  V30 7222 H 685.032 -0.386024 6.96531 0
M  V30 7223 H 680.929 -1.42356 6.29607 0
M  V30 7224 H 681.697 -0.526459 8.16805 0
M  V30 7225 N 684.36 -1.4356 -0.65026 0
M  V30 7226 C 685.608 -1.45046 -1.40734 0
M  V30 7227 C 685.929 -0.0769822 -1.94848 0
M  V30 7228 O 685.199 0.888098 -1.74613 0
M  V30 7229 H 683.779 -0.534034 -0.522318 0
M  V30 7230 H 686.441 -1.79186 -0.766703 0
M  V30 7231 H 685.537 -2.16476 -2.24822 0
M  V30 7232 N 685.838 0.888903 -1.30139 0
M  V30 7233 C 687.086 1.63713 -1.18501 0
M  V30 7234 C 687.407 1.9324 0.261399 0
M  V30 7235 O 686.677 1.56608 1.17689 0
M  V30 7236 H 685.257 0.606861 -0.435579 0
M  V30 7237 H 687.919 1.06525 -1.63213 0
M  V30 7238 H 687.015 2.58894 -1.743 0
M  V30 7239 N 687.317 1.12792 1.10072 0
M  V30 7240 C 688.563 0.886857 1.82381 0
M  V30 7241 C 688.896 -0.58576 1.85155 0
M  V30 7242 O 688.171 -1.43317 1.31493 0
M  V30 7243 C 688.454 1.46703 3.28862 0
M  V30 7244 C 688.307 3.00829 3.34398 0
M  V30 7245 C 689.626 1.12971 4.25353 0
M  V30 7246 H 686.745 0.32362 0.662148 0
M  V30 7247 H 689.387 1.39513 1.28982 0
M  V30 7248 H 687.537 1.03476 3.74466 0
M  V30 7249 H 689.209 3.52764 2.97247 0
M  V30 7250 H 687.452 3.36164 2.74183 0
M  V30 7251 H 688.123 3.36519 4.3756 0
M  V30 7252 H 690.599 1.50313 3.88001 0
M  V30 7253 H 689.475 1.56223 5.26199 0
M  V30 7254 H 689.736 0.0424452 4.4208 0
M  V30 7255 N 688.795 -1.27931 0.920396 0
M  V30 7256 C 690.043 -1.94304 0.555906 0
M  V30 7257 C 690.364 -1.72753 -0.904519 0
M  V30 7258 O 689.634 -1.07104 -1.64029 0
M  V30 7259 H 688.214 -0.719001 0.202599 0
M  V30 7260 H 690.876 -1.55785 1.1712 0
M  V30 7261 H 689.972 -3.02806 0.755981 0
M  V30 7262 N 690.273 -0.685099 -1.4193 0
M  V30 7263 C 691.684 -0.287699 -1.8447 0
M  V30 7264 C 692.035 1.17215 -1.57338 0
M  V30 7265 O 691.16 1.89856 -1.03845 0
M  V30 7266 C 691.755 -0.515385 -3.34857 0
M  V30 7267 C 690.314 -0.172006 -3.76007 0
M  V30 7268 C 689.461 -0.802808 -2.65425 0
M  V30 7269 H 692.412 -0.88652 -1.3163 0
M  V30 7270 H 692.433 0.229251 -3.79809 0
M  V30 7271 H 691.945 -1.57796 -3.54573 0
M  V30 7272 H 690.046 0.886716 -3.61895 0
M  V30 7273 H 690.159 -0.619717 -4.75075 0
M  V30 7274 H 688.523 -0.233267 -2.5363 0
M  V30 7275 H 689.306 -1.86904 -2.87961 0
M  V30 7276 N 691.751 1.51645 -0.429126 0
M  V30 7277 C 692.714 2.26116 0.374726 0
M  V30 7278 C 693.714 1.29242 0.956714 0
M  V30 7279 O 694.904 1.53022 0.832452 0
M  V30 7280 C 692.036 3.04669 1.52937 0
M  V30 7281 H 693.229 2.9861 -0.277818 0
M  V30 7282 H 690.782 1.55236 -0.182097 0
M  V30 7283 H 691.517 2.36571 2.21821 0
M  V30 7284 H 691.302 3.75814 1.11833 0
M  V30 7285 H 692.792 3.61102 2.09751 0
M  V30 7286 N 693.229 0.160201 1.56784 0
M  V30 7287 C 694.457 -0.494165 2.00912 0
M  V30 7288 C 694.872 -1.57548 1.04038 0
M  V30 7289 O 694.229 -1.82457 0.0394581 0
M  V30 7290 C 694.28 -1.08271 3.44905 0
M  V30 7291 O 694.001 -0.0445704 4.38077 0
M  V30 7292 C 695.502 -1.8164 4.04378 0
M  V30 7293 H 692.722 -0.127498 0.658776 0
M  V30 7294 H 695.266 0.258665 2.02858 0
M  V30 7295 H 693.421 -1.78609 3.4377 0
M  V30 7296 H 693.835 -0.477544 5.22322 0
M  V30 7297 H 695.309 -2.18094 5.07089 0
M  V30 7298 H 695.786 -2.70727 3.45838 0
M  V30 7299 H 696.392 -1.15969 4.09184 0
M  V30 7300 N 694.707 -1.5719 -0.113559 0
M  V30 7301 C 695.956 -1.84325 -0.818984 0
M  V30 7302 C 696.269 -0.746685 -1.80787 0
M  V30 7303 O 697.475 -0.904596 -2.55987 0
M  V30 7304 C 695.931 -3.26818 -1.50724 0
M  V30 7305 C 695.539 -4.44498 -0.559065 0
M  V30 7306 C 697.283 -3.63196 -2.19748 0
M  V30 7307 C 695.19 -5.7802 -1.25086 0
M  V30 7308 H 694.12 -0.687507 -0.309596 0
M  V30 7309 H 696.771 -1.8336 -0.0717621 0
M  V30 7310 H 695.153 -3.22269 -2.30128 0
M  V30 7311 H 696.327 -4.60356 0.202146 0
M  V30 7312 H 694.642 -4.16393 0.024495 0
M  V30 7313 H 697.239 -4.60226 -2.72206 0
M  V30 7314 H 697.582 -2.90899 -2.97798 0
M  V30 7315 H 698.115 -3.69553 -1.47226 0
M  V30 7316 H 694.854 -6.53501 -0.511539 0
M  V30 7317 H 694.374 -5.66038 -1.98395 0
M  V30 7318 H 696.053 -6.2196 -1.78253 0
M  V30 7319 N 696.185 0.383891 -1.52853 0
M  V30 7320 C 697.425 1.13731 -1.69837 0
M  V30 7321 C 697.789 1.87086 -0.431611 0
M  V30 7322 O 698.99 2.64518 -0.477886 0
M  V30 7323 C 697.261 2.08551 -2.90243 0
M  V30 7324 S 698.82 2.9166 -3.27841 0
M  V30 7325 H 695.638 0.384911 -0.5978 0
M  V30 7326 H 698.24 0.42103 -1.90913 0
M  V30 7327 H 696.944 1.53392 -3.80656 0
M  V30 7328 H 696.475 2.8468 -2.71516 0
M  V30 7329 H 698.49 4.10723 -2.78426 0
M  V30 7330 N 697.663 1.43903 0.642637 0
M  V30 7331 C 698.626 1.49538 1.73698 0
M  V30 7332 C 699.626 0.378776 1.56275 0
M  V30 7333 O 700.816 0.64095 1.6198 0
M  V30 7334 C 697.948 1.35821 3.12675 0
M  V30 7335 H 699.141 2.47008 1.70079 0
M  V30 7336 H 696.694 1.30824 0.85526 0
M  V30 7337 H 697.429 0.393994 3.21898 0
M  V30 7338 H 697.214 2.16776 3.26727 0
M  V30 7339 H 698.704 1.4272 3.92455 0
M  V30 7340 N 699.141 -0.881989 1.30609 0
M  V30 7341 C 700.088 -1.98803 1.17244 0
M  V30 7342 C 701.058 -1.65987 0.0611905 0
M  V30 7343 O 702.243 -1.89385 0.231911 0
M  V30 7344 C 699.383 -3.33867 0.87333 0
M  V30 7345 C 698.496 -3.79354 2.06675 0
M  V30 7346 C 697.631 -5.03078 1.70547 0
M  V30 7347 C 696.67 -5.40981 2.86366 0
M  V30 7348 N 695.807 -6.55886 2.50514 0
M  V30 7349 H 700.647 -2.09566 2.11863 0
M  V30 7350 H 698.184 -1.02607 1.05405 0
M  V30 7351 H 700.142 -4.11612 0.680519 0
M  V30 7352 H 698.772 -3.2278 -0.0359983 0
M  V30 7353 H 697.824 -2.97492 2.37071 0
M  V30 7354 H 699.136 -4.03382 2.93401 0
M  V30 7355 H 698.29 -5.88457 1.47658 0
M  V30 7356 H 697.029 -4.80927 0.809947 0
M  V30 7357 H 696.034 -4.54127 3.09917 0
M  V30 7358 H 697.259 -5.65104 3.76609 0
M  V30 7359 H 695.205 -6.35306 1.63471 0
M  V30 7360 H 695.122 -6.79799 3.30771 0
M  V30 7361 H 696.39 -7.44489 2.30989 0
M  V30 7362 N 700.619 -1.13374 -1.09472 0
M  V30 7363 C 701.567 -0.806105 -2.18185 0
M  V30 7364 C 702.561 0.21136 -1.68076 0
M  V30 7365 O 703.767 0.0685558 -1.79869 0
M  V30 7366 H 700.142 -0.242901 -0.71169 0
M  V30 7367 H 702.113 -1.73115 -2.43051 0
M  V30 7368 C 700.862 -0.287928 -3.46506 0
M  V30 7369 H 700.185 -1.06217 -3.85432 0
M  V30 7370 H 701.625 -0.0971054 -4.23889 0
M  V30 7371 C 700.084 0.986256 -3.22141 0
M  V30 7372 O 700.614 2.06217 -3.44728 0
M  V30 7373 N 698.82 0.917153 -2.75747 0
M  V30 7374 H 698.367 0.0414609 -2.57567 0
M  V30 7375 H 698.325 1.77029 -2.59823 0
M  V30 7376 N 702.098 1.27442 -0.927168 0
M  V30 7377 C 703.323 1.99036 -0.583042 0
M  V30 7378 C 703.748 1.68711 0.83176 0
M  V30 7379 O 703.106 0.927081 1.55804 0
M  V30 7380 C 703.154 3.51271 -0.814925 0
M  V30 7381 O 702.258 4.12226 0.119742 0
M  V30 7382 H 701.599 0.624883 -0.224538 0
M  V30 7383 H 704.129 1.62263 -1.24628 0
M  V30 7384 H 704.139 4.01411 -0.730282 0
M  V30 7385 H 702.814 3.72676 -1.84623 0
M  V30 7386 H 701.391 3.72897 -0.0147688 0
M  V30 7387 N 703.576 0.692616 1.41565 0
M  V30 7388 C 704.816 0.226453 2.03142 0
M  V30 7389 C 705.18 -1.1512 1.5366 0
M  V30 7390 O 706.381 -1.71305 2.07143 0
M  V30 7391 C 704.652 0.27855 3.56313 0
M  V30 7392 S 706.211 -0.114001 4.38652 0
M  V30 7393 H 703.029 0.0914767 0.705091 0
M  V30 7394 H 705.631 0.909737 1.73043 0
M  V30 7395 H 704.335 1.28325 3.89821 0
M  V30 7396 H 703.866 -0.423981 3.91109 0
M  V30 7397 H 705.881 -1.34256 4.77692 0
M  V30 7398 N 705.054 -1.51416 0.437162 0
M  V30 7399 C 705.986 -2.255 -0.410171 0
M  V30 7400 C 706.999 -1.29511 -0.986444 0
M  V30 7401 O 708.188 -1.55266 -0.880614 0
M  V30 7402 C 705.288 -2.99511 -1.58575 0
M  V30 7403 C 704.461 -4.22595 -1.12839 0
M  V30 7404 C 703.52 -4.79187 -2.17407 0
M  V30 7405 O 702.546 -5.4103 -1.76849 0
M  V30 7406 N 703.748 -4.63204 -3.49889 0
M  V30 7407 H 706.513 -2.98856 0.224783 0
M  V30 7408 H 704.074 -1.59699 0.266041 0
M  V30 7409 H 706.066 -3.34258 -2.28152 0
M  V30 7410 H 704.636 -2.29167 -2.12606 0
M  V30 7411 H 703.856 -3.93344 -0.259695 0
M  V30 7412 H 705.144 -5.02468 -0.800196 0
M  V30 7413 H 704.542 -4.13945 -3.85573 0
M  V30 7414 H 703.099 -5.02313 -4.15361 0
M  V30 7415 N 706.532 -0.168513 -1.56696 0
M  V30 7416 C 707.479 0.762875 -2.17828 0
M  V30 7417 C 708.449 1.22892 -1.11745 0
M  V30 7418 O 709.634 1.29759 -1.39883 0
M  V30 7419 C 706.774 1.9879 -2.82093 0
M  V30 7420 C 705.887 1.56568 -4.02629 0
M  V30 7421 C 705.022 2.74416 -4.54829 0
M  V30 7422 C 704.061 2.28671 -5.67782 0
M  V30 7423 N 703.198 3.39602 -6.14504 0
M  V30 7424 H 708.038 0.23479 -2.97074 0
M  V30 7425 H 705.575 0.104163 -1.46731 0
M  V30 7426 H 707.533 2.70636 -3.17509 0
M  V30 7427 H 706.163 2.48973 -2.05456 0
M  V30 7428 H 705.215 0.744067 -3.73052 0
M  V30 7429 H 706.527 1.18988 -4.844 0
M  V30 7430 H 705.681 3.54423 -4.92412 0
M  V30 7431 H 704.42 3.15254 -3.7211 0
M  V30 7432 H 703.425 1.4711 -5.29753 0
M  V30 7433 H 704.65 1.88894 -6.52301 0
M  V30 7434 H 702.596 3.80021 -5.34715 0
M  V30 7435 H 702.513 3.06105 -6.91257 0
M  V30 7436 H 703.781 4.19902 -6.56737 0
M  V30 7437 N 708.01 1.57248 0.105221 0
M  V30 7438 C 708.94 2.04374 1.12931 0
M  V30 7439 C 709.921 0.93074 1.42377 0
M  V30 7440 O 711.106 1.20136 1.52581 0
M  V30 7441 C 708.236 2.45967 2.45189 0
M  V30 7442 C 707.19 3.60838 2.30174 0
M  V30 7443 C 706.516 3.88374 3.67518 0
M  V30 7444 C 707.816 4.92084 1.75073 0
M  V30 7445 H 709.51 2.9018 0.737287 0
M  V30 7446 H 707.056 1.39601 0.353211 0
M  V30 7447 H 709.009 2.77542 3.17094 0
M  V30 7448 H 707.733 1.57148 2.86308 0
M  V30 7449 H 706.392 3.29493 1.60716 0
M  V30 7450 H 706.04 2.96739 4.06147 0
M  V30 7451 H 705.74 4.65703 3.58321 0
M  V30 7452 H 707.264 4.22415 4.40906 0
M  V30 7453 H 708.678 5.22106 2.36809 0
M  V30 7454 H 707.075 5.73507 1.76662 0
M  V30 7455 H 708.145 4.79684 0.709347 0
M  V30 7456 N 709.488 -0.375779 1.53054 0
M  V30 7457 C 710.737 -1.11674 1.67964 0
M  V30 7458 C 711.05 -1.90755 0.432655 0
M  V30 7459 O 712.256 -2.67538 0.462109 0
M  V30 7460 C 710.712 -2.0344 2.96884 0
M  V30 7461 C 710.32 -1.29719 4.28809 0
M  V30 7462 C 712.064 -2.7759 3.2116 0
M  V30 7463 C 709.971 -2.20327 5.48826 0
M  V30 7464 H 708.901 -0.420597 0.625791 0
M  V30 7465 H 711.552 -0.378499 1.79554 0
M  V30 7466 H 709.934 -2.80953 2.79072 0
M  V30 7467 H 711.108 -0.573394 4.57219 0
M  V30 7468 H 709.423 -0.674735 4.10897 0
M  V30 7469 H 712.02 -3.4559 4.0801 0
M  V30 7470 H 712.363 -3.42399 2.36789 0
M  V30 7471 H 712.896 -2.07164 3.396 0
M  V30 7472 H 709.635 -1.60113 6.35645 0
M  V30 7473 H 709.155 -2.90585 5.2471 0
M  V30 7474 H 710.834 -2.80116 5.83219 0
M  V30 7475 N 710.966 -1.44241 -0.634997 0
M  V30 7476 C 712.214 -1.46531 -1.39187 0
M  V30 7477 C 712.535 -0.0976441 -1.94755 0
M  V30 7478 O 711.805 0.869528 -1.75545 0
M  V30 7479 H 710.385 -0.539544 -0.516625 0
M  V30 7480 H 713.047 -1.79989 -0.747655 0
M  V30 7481 H 712.143 -2.18848 -2.22513 0
M  V30 7482 N 712.444 0.87505 -1.31075 0
M  V30 7483 C 713.86 1.15997 -1.09622 0
M  V30 7484 C 714.06 2.01036 0.136611 0
M  V30 7485 O 713.116 2.38559 0.827397 0
M  V30 7486 C 714.429 1.85702 -2.36506 0
M  V30 7487 C 715.977 1.98425 -2.42067 0
M  V30 7488 C 716.452 2.71544 -3.68819 0
M  V30 7489 N 717.943 2.79084 -3.69684 0
M  V30 7490 C 718.678 3.36259 -4.64454 0
M  V30 7491 N 718.174 3.94406 -5.69575 0
M  V30 7492 N 719.967 3.34169 -4.51982 0
M  V30 7493 H 712.118 0.308258 -2.10151 0
M  V30 7494 H 714.381 0.199145 -0.926847 0
M  V30 7495 H 714.087 1.30663 -3.26527 0
M  V30 7496 H 713.961 2.86017 -2.45915 0
M  V30 7497 H 716.348 2.5263 -1.52518 0
M  V30 7498 H 716.429 0.971682 -2.36626 0
M  V30 7499 H 716.073 2.18008 -4.58732 0
M  V30 7500 H 716.003 3.73198 -3.71525 0
M  V30 7501 H 718.494 2.3781 -2.93691 0
M  V30 7502 H 718.807 4.36129 -6.37974 0
M  V30 7503 H 717.152 3.92797 -5.73355 0
M  V30 7504 H 720.343 2.87977 -3.69035 0
M  V30 7505 H 720.516 3.78431 -5.26017 0
M  V30 7506 N 713.922 1.13953 1.08869 0
M  V30 7507 C 714.872 0.790812 2.13846 0
M  V30 7508 C 715.856 -0.217819 1.59419 0
M  V30 7509 O 717.048 -0.0208723 1.76988 0
M  V30 7510 C 714.177 0.26479 3.42277 0
M  V30 7511 C 713.263 1.30267 4.03598 0
M  V30 7512 N 713.654 2.50535 4.39393 0
M  V30 7513 C 711.952 1.15178 4.30871 0
M  V30 7514 C 712.653 3.16938 4.87776 0
M  V30 7515 N 711.629 2.44349 4.85587 0
M  V30 7516 H 715.431 1.70577 2.39334 0
M  V30 7517 H 712.945 1.02268 1.26154 0
M  V30 7518 H 714.942 -0.00330398 4.169 0
M  V30 7519 H 713.602 -0.644419 3.18241 0
M  V30 7520 H 714.613 2.87798 4.30572 0
M  V30 7521 H 711.29 0.301204 4.16412 0
M  V30 7522 H 712.68 4.19453 5.2489 0
M  V30 7523 N 715.4 -1.26948 0.933913 0
M  V30 7524 C 716.646 -1.94716 0.587985 0
M  V30 7525 C 717.001 -1.71994 -0.862312 0
M  V30 7526 O 716.294 -1.04208 -1.60783 0
M  V30 7527 C 716.488 -3.46963 0.857406 0
M  V30 7528 C 716.317 -3.84489 2.33234 0
M  V30 7529 C 715.087 -4.07621 2.98618 0
M  V30 7530 C 717.285 -3.93602 3.31031 0
M  V30 7531 N 715.267 -4.31976 4.362 0
M  V30 7532 C 716.638 -4.22404 4.53845 0
M  V30 7533 C 718.693 -3.76201 3.26155 0
M  V30 7534 C 717.396 -4.35615 5.72391 0
M  V30 7535 C 719.422 -3.90641 4.4402 0
M  V30 7536 C 718.784 -4.19835 5.65613 0
M  V30 7537 H 714.883 -0.735586 0.2654 0
M  V30 7538 H 717.467 -1.53181 1.20182 0
M  V30 7539 H 715.638 -3.87442 0.27268 0
M  V30 7540 H 717.37 -4.01921 0.47348 0
M  V30 7541 H 714.125 -4.02696 2.49264 0
M  V30 7542 H 714.549 -4.48199 5.07392 0
M  V30 7543 H 719.191 -3.52665 2.3321 0
M  V30 7544 H 716.909 -4.57975 6.65796 0
M  V30 7545 H 720.495 -3.78589 4.41771 0
M  V30 7546 H 719.375 -4.30765 6.55295 0
M  V30 7547 N 716.879 -0.700114 -1.41195 0
M  V30 7548 C 717.827 -0.0263301 -2.32585 0
M  V30 7549 C 718.821 0.763683 -1.51209 0
M  V30 7550 O 720.027 0.668793 -1.67114 0
M  V30 7551 H 716.402 0.0102869 -0.75193 0
M  V30 7552 H 718.373 -0.814087 -2.8708 0
M  V30 7553 C 717.122 0.892793 -3.36042 0
M  V30 7554 H 716.445 0.294306 -3.98715 0
M  V30 7555 H 717.885 1.33247 -4.02518 0
M  V30 7556 C 716.344 2.01109 -2.7029 0
M  V30 7557 O 716.874 3.10035 -2.55423 0
M  V30 7558 N 715.08 1.79015 -2.28915 0
M  V30 7559 H 714.627 0.904275 -2.41207 0
M  V30 7560 H 714.585 2.54022 -1.85257 0
M  V30 7561 N 718.357 1.51182 -0.445186 0
M  V30 7562 C 719.267 2.31692 0.368255 0
M  V30 7563 C 720.283 1.40942 1.02036 0
M  V30 7564 O 721.459 1.74011 1.01401 0
M  V30 7565 C 718.524 3.14903 1.45041 0
M  V30 7566 C 717.585 4.21442 0.817615 0
M  V30 7567 C 716.818 5.00677 1.8482 0
M  V30 7568 O 717.041 4.80644 3.07145 0
M  V30 7569 O 715.975 5.84559 1.43438 0
M  V30 7570 H 719.801 3.0232 -0.289219 0
M  V30 7571 H 717.386 1.47951 -0.207555 0
M  V30 7572 H 719.268 3.66612 2.07783 0
M  V30 7573 H 717.943 2.47031 2.09182 0
M  V30 7574 H 716.85 3.73791 0.151931 0
M  V30 7575 H 718.183 4.9171 0.219564 0
M  V30 7576 N 719.835 0.176821 1.56605 0
M  V30 7577 C 720.767 -0.782836 2.15417 0
M  V30 7578 C 721.78 -1.18982 1.11117 0
M  V30 7579 O 722.969 -1.12872 1.38283 0
M  V30 7580 C 720.069 -2.06596 2.68647 0
M  V30 7581 C 719.242 -1.82167 3.9766 0
M  V30 7582 C 718.301 -2.94751 4.35899 0
M  V30 7583 O 717.327 -2.65148 5.03672 0
M  V30 7584 N 718.529 -4.2267 3.97907 0
M  V30 7585 H 721.294 -0.280012 2.98389 0
M  V30 7586 H 718.855 -0.00577529 1.61899 0
M  V30 7587 H 720.847 -2.81018 2.91223 0
M  V30 7588 H 719.417 -2.48054 1.90232 0
M  V30 7589 H 718.637 -0.916208 3.83405 0
M  V30 7590 H 719.925 -1.6322 4.81909 0
M  V30 7591 H 719.323 -4.4958 3.43357 0
M  V30 7592 H 717.88 -4.93778 4.25472 0
M  V30 7593 N 721.313 -1.57302 -0.09688 0
M  V30 7594 C 722.246 -1.97179 -1.14872 0
M  V30 7595 C 723.224 -0.844734 -1.38935 0
M  V30 7596 O 724.408 -1.10487 -1.52725 0
M  V30 7597 C 721.535 -2.28703 -2.49826 0
M  V30 7598 C 720.581 -3.51158 -2.42054 0
M  V30 7599 S 721.414 -5.0294 -1.83879 0
M  V30 7600 C 722.57 -5.37639 -3.2046 0
M  V30 7601 H 722.803 -2.86088 -0.808771 0
M  V30 7602 H 720.336 -1.51368 -0.304492 0
M  V30 7603 H 722.294 -2.47541 -3.27466 0
M  V30 7604 H 720.955 -1.40368 -2.8099 0
M  V30 7605 H 720.148 -3.70651 -3.41517 0
M  V30 7606 H 719.75 -3.31821 -1.72543 0
M  V30 7607 H 722.042 -5.34175 -4.16729 0
M  V30 7608 H 722.985 -6.38677 -3.05773 0
M  V30 7609 H 723.393 -4.651 -3.19909 0
M  V30 7610 N 722.791 0.367657 -1.53252 0
M  V30 7611 C 723.721 1.45632 -1.8252 0
M  V30 7612 C 724.702 1.55979 -0.678568 0
M  V30 7613 O 725.887 1.70581 -0.928217 0
M  V30 7614 C 723.017 2.82994 -2.01325 0
M  V30 7615 C 721.971 2.87473 -3.17086 0
M  V30 7616 C 721.297 4.2749 -3.21179 0
M  V30 7617 C 722.597 2.55182 -4.55719 0
M  V30 7618 H 724.291 1.21387 -2.73689 0
M  V30 7619 H 721.837 0.58251 -1.31692 0
M  V30 7620 H 723.79 3.59179 -2.20383 0
M  V30 7621 H 722.514 3.08622 -1.06864 0
M  V30 7622 H 721.173 2.13739 -2.97844 0
M  V30 7623 H 720.821 4.5019 -2.24361 0
M  V30 7624 H 720.521 4.31403 -3.98955 0
M  V30 7625 H 722.045 5.0555 -3.42419 0
M  V30 7626 H 723.459 3.21081 -4.74953 0
M  V30 7627 H 721.856 2.70414 -5.3572 0
M  V30 7628 H 722.926 1.5044 -4.60973 0
M  V30 7629 N 724.269 1.44576 0.627338 0
M  V30 7630 C 725.546 1.38033 1.38586 0
M  V30 7631 C 725.926 0.0409468 2.1106 0
M  V30 7632 O 725.274 -0.976582 2.0658 0
M  V30 7633 C 725.484 2.58102 2.34913 0
M  V30 7634 C 726.832 3.02332 2.98129 0
M  V30 7635 O 727.856 2.58334 2.45238 0
M  V30 7636 O 726.715 3.78628 3.94085 0
M  V30 7637 H 723.809 0.546801 0.620434 0
M  V30 7638 H 726.355 1.56672 0.652077 0
M  V30 7639 H 725.127 3.4719 1.80485 0
M  V30 7640 H 724.75 2.41696 3.15703 0
M  V30 7641 N 725.747 -0.868086 1.31537 0
M  V30 7642 C 726.996 -1.61607 1.20689 0
M  V30 7643 C 727.309 -1.94204 -0.233275 0
M  V30 7644 O 728.515 -2.67515 -0.463465 0
M  V30 7645 C 726.971 -2.91348 2.11292 0
M  V30 7646 C 726.579 -2.66227 3.60315 0
M  V30 7647 C 728.323 -3.69344 2.09249 0
M  V30 7648 C 726.23 -3.91887 4.42921 0
M  V30 7649 H 725.16 -0.606373 0.448138 0
M  V30 7650 H 727.811 -0.959666 1.56405 0
M  V30 7651 H 726.193 -3.58374 1.68477 0
M  V30 7652 H 727.367 -2.07597 4.11388 0
M  V30 7653 H 725.682 -2.01582 3.64354 0
M  V30 7654 H 728.279 -4.62567 2.68209 0
M  V30 7655 H 728.622 -4.02044 1.0801 0
M  V30 7656 H 729.155 -3.09205 2.50274 0
M  V30 7657 H 725.894 -3.64336 5.44922 0
M  V30 7658 H 725.414 -4.49961 3.96605 0
M  V30 7659 H 727.093 -4.59754 4.55231 0
M  V30 7660 N 727.225 -1.14528 -1.08264 0
M  V30 7661 C 728.188 -0.83632 -2.13397 0
M  V30 7662 C 729.188 0.159715 -1.60005 0
M  V30 7663 O 730.378 -0.0688098 -1.74064 0
M  V30 7664 C 727.51 -0.246973 -3.40004 0
M  V30 7665 H 728.703 -1.76808 -2.42237 0
M  V30 7666 H 726.256 -0.951509 -1.24 0
M  V30 7667 H 726.991 0.693436 -3.168 0
M  V30 7668 H 726.776 -0.964412 -3.80055 0
M  V30 7669 H 728.266 -0.0480679 -4.17572 0
M  V30 7670 N 728.703 1.26451 -0.940633 0
M  V30 7671 C 729.943 1.95537 -0.595381 0
M  V30 7672 C 730.307 1.72175 0.849683 0
M  V30 7673 O 731.508 2.3506 1.30384 0
M  V30 7674 C 729.779 3.45151 -0.927669 0
M  V30 7675 S 731.338 4.33295 -0.69288 0
M  V30 7676 H 728.156 0.676331 -0.219311 0
M  V30 7677 H 730.758 1.53411 -1.21183 0
M  V30 7678 H 729.462 3.59654 -1.9768 0
M  V30 7679 H 728.993 3.92247 -0.300921 0
M  V30 7680 H 731.008 4.94217 0.443175 0
M  V30 7681 N 730.181 0.707592 1.40822 0
M  V30 7682 C 731.597 0.38034 1.55002 0
M  V30 7683 C 731.797 -1.11163 1.68062 0
M  V30 7684 O 730.853 -1.89761 1.66574 0
M  V30 7685 C 732.166 1.1394 2.78277 0
M  V30 7686 C 733.714 1.12492 2.92087 0
M  V30 7687 C 734.189 1.86597 4.18265 0
M  V30 7688 N 735.68 1.83626 4.25248 0
M  V30 7689 C 736.415 2.37794 5.21768 0
M  V30 7690 N 735.911 3.00485 6.24244 0
M  V30 7691 N 737.704 2.27982 5.13791 0
M  V30 7692 H 729.855 1.67511 1.3059 0
M  V30 7693 H 732.118 0.707579 0.630901 0
M  V30 7694 H 731.824 2.19398 2.74877 0
M  V30 7695 H 731.698 0.725793 3.70151 0
M  V30 7696 H 734.085 0.0785564 2.94995 0
M  V30 7697 H 734.166 1.57768 2.01353 0
M  V30 7698 H 733.81 2.91219 4.16118 0
M  V30 7699 H 733.74 1.38746 5.07993 0
M  V30 7700 H 736.231 1.3793 3.51829 0
M  V30 7701 H 736.544 3.39355 6.94304 0
M  V30 7702 H 734.889 3.04567 6.24711 0
M  V30 7703 H 738.08 1.78669 4.3266 0
M  V30 7704 H 738.253 2.70499 5.88841 0
M  V30 7705 N 731.66 -1.50943 0.453197 0
M  V30 7706 C 732.59 -2.31005 -0.34044 0
M  V30 7707 C 733.571 -1.37112 -1.00669 0
M  V30 7708 O 734.756 -1.66033 -1.0073 0
M  V30 7709 C 731.886 -3.16358 -1.433 0
M  V30 7710 C 730.84 -4.18658 -0.889363 0
M  V30 7711 C 730.166 -4.92633 -2.07887 0
M  V30 7712 C 731.466 -5.22227 0.0871142 0
M  V30 7713 H 733.16 -2.97601 0.327723 0
M  V30 7714 H 730.706 -1.43119 0.159054 0
M  V30 7715 H 732.659 -3.71155 -1.99555 0
M  V30 7716 H 731.383 -2.47613 -2.12968 0
M  V30 7717 H 730.042 -3.64936 -0.348915 0
M  V30 7718 H 729.69 -4.20376 -2.76211 0
M  V30 7719 H 729.39 -5.61819 -1.72143 0
M  V30 7720 H 730.914 -5.50258 -2.64666 0
M  V30 7721 H 732.328 -5.72001 -0.385656 0
M  V30 7722 H 730.725 -5.99032 0.357926 0
M  V30 7723 H 731.795 -4.74077 1.01879 0
M  V30 7724 N 733.138 -0.185124 -1.56509 0
M  V30 7725 C 734.387 0.456421 -1.96468 0
M  V30 7726 C 734.7 1.63448 -1.07444 0
M  V30 7727 O 735.906 2.34316 -1.37143 0
M  V30 7728 C 734.362 0.863404 -3.4939 0
M  V30 7729 C 733.97 -0.289815 -4.47062 0
M  V30 7730 C 735.714 1.47259 -3.98139 0
M  V30 7731 C 733.621 0.137571 -5.9124 0
M  V30 7732 H 732.551 0.17429 -0.733579 0
M  V30 7733 H 735.202 -0.275554 -1.81419 0
M  V30 7734 H 733.584 1.65176 -3.59907 0
M  V30 7735 H 734.758 -1.06728 -4.4827 0
M  V30 7736 H 733.073 -0.809851 -4.08449 0
M  V30 7737 H 735.67 1.80463 -5.03326 0
M  V30 7738 H 736.013 2.3755 -3.41871 0
M  V30 7739 H 736.546 0.748405 -3.90696 0
M  V30 7740 H 733.285 -0.730907 -6.51412 0
M  V30 7741 H 732.805 0.8801 -5.93308 0
M  V30 7742 H 734.484 0.576771 -6.44424 0
M  V30 7743 N 734.616 1.57351 0.0885366 0
M  V30 7744 C 735.546 2.05561 1.10757 0
M  V30 7745 C 736.527 0.945789 1.41382 0
M  V30 7746 O 737.712 1.21747 1.51299 0
M  V30 7747 C 734.842 2.48554 2.42566 0
M  V30 7748 C 733.796 3.63259 2.26334 0
M  V30 7749 C 733.122 3.9225 3.63378 0
M  V30 7750 C 734.422 4.93913 1.69844 0
M  V30 7751 H 736.116 2.90946 0.706468 0
M  V30 7752 H 733.662 1.39968 0.338385 0
M  V30 7753 H 735.615 2.8089 3.14132 0
M  V30 7754 H 734.339 1.60176 2.84625 0
M  V30 7755 H 732.998 3.31179 1.57213 0
M  V30 7756 H 732.646 3.0103 4.02976 0
M  V30 7757 H 732.346 4.69478 3.53362 0
M  V30 7758 H 733.87 4.27067 4.36401 0
M  V30 7759 H 735.284 5.24588 2.31258 0
M  V30 7760 H 733.681 5.75349 1.70569 0
M  V30 7761 H 734.751 4.80409 0.65843 0
M  V30 7762 N 736.094 -0.359525 1.53444 0
M  V30 7763 C 737.042 -1.46104 1.80987 0
M  V30 7764 C 738.036 -1.55181 0.679351 0
M  V30 7765 O 739.242 -1.57995 0.862405 0
M  V30 7766 H 735.617 -0.486835 0.573145 0
M  V30 7767 H 737.588 -1.2008 2.73173 0
M  V30 7768 C 736.337 -2.82855 2.02208 0
M  V30 7769 H 735.66 -2.76631 2.88644 0
M  V30 7770 H 737.1 -3.59091 2.25455 0
M  V30 7771 C 735.559 -3.27192 0.802931 0
M  V30 7772 O 736.089 -4.017 -0.00544286 0
M  V30 7773 N 734.295 -2.83807 0.624657 0
M  V30 7774 H 733.842 -2.23339 1.28364 0
M  V30 7775 H 733.8 -3.13828 -0.189641 0
M  V30 7776 N 737.572 -1.44907 -0.619662 0
M  V30 7777 C 738.482 -1.55168 -1.75955 0
M  V30 7778 C 739.498 -0.43672 -1.6843 0
M  V30 7779 O 740.674 -0.695704 -1.89002 0
M  V30 7780 C 737.739 -1.50397 -3.12381 0
M  V30 7781 C 736.8 -2.72835 -3.31451 0
M  V30 7782 C 736.033 -2.68283 -4.61368 0
M  V30 7783 O 736.256 -1.74929 -5.42914 0
M  V30 7784 O 735.19 -3.59308 -4.82889 0
M  V30 7785 H 739.016 -2.51493 -1.7025 0
M  V30 7786 H 736.601 -1.27282 -0.782289 0
M  V30 7787 H 738.483 -1.50301 -3.93685 0
M  V30 7788 H 737.158 -0.572197 -3.18603 0
M  V30 7789 H 736.065 -2.78496 -2.49781 0
M  V30 7790 H 737.398 -3.65098 -3.30098 0
M  V30 7791 N 739.05 0.861098 -1.31996 0
M  V30 7792 C 740.296 1.61721 -1.22369 0
M  V30 7793 C 740.629 1.93 0.215587 0
M  V30 7794 O 739.904 1.56789 1.15098 0
M  V30 7795 C 740.187 2.9417 -2.07691 0
M  V30 7796 C 740.04 2.69714 -3.59965 0
M  V30 7797 C 741.359 3.95372 -1.93312 0
M  V30 7798 H 738.478 0.586822 -0.44588 0
M  V30 7799 H 741.12 0.994788 -1.61876 0
M  V30 7800 H 739.27 3.47292 -1.74128 0
M  V30 7801 H 740.942 2.23196 -4.03709 0
M  V30 7802 H 739.185 2.03789 -3.82952 0
M  V30 7803 H 739.856 3.63996 -4.14983 0
M  V30 7804 H 742.332 3.51487 -2.22701 0
M  V30 7805 H 741.208 4.85916 -2.55298 0
M  V30 7806 H 741.469 4.32865 -0.898922 0
M  V30 7807 N 740.528 1.15101 1.07655 0
M  V30 7808 C 741.753 0.948177 1.84457 0
M  V30 7809 C 742.178 -0.498432 1.81376 0
M  V30 7810 O 741.536 -1.35509 1.20445 0
M  V30 7811 C 741.584 1.46318 3.29581 0
M  V30 7812 O 740.688 0.660342 4.07079 0
M  V30 7813 H 740.029 0.338428 0.571281 0
M  V30 7814 H 742.559 1.5301 1.35828 0
M  V30 7815 H 742.569 1.47468 3.80417 0
M  V30 7816 H 741.244 2.51635 3.31138 0
M  V30 7817 H 739.821 0.718216 3.65918 0
M  V30 7818 N 742.006 -1.2595 0.947325 0
M  V30 7819 C 742.936 -2.28521 0.479604 0
M  V30 7820 C 743.917 -1.63469 -0.470293 0
M  V30 7821 O 745.102 -1.90627 -0.370824 0
M  V30 7822 C 742.232 -3.46397 -0.250289 0
M  V30 7823 C 741.186 -4.23578 0.613643 0
M  V30 7824 C 740.512 -5.34131 -0.246568 0
M  V30 7825 C 741.812 -4.86979 1.88809 0
M  V30 7826 H 743.506 -2.67895 1.33688 0
M  V30 7827 H 741.052 -1.28783 0.644274 0
M  V30 7828 H 743.005 -4.17269 -0.588576 0
M  V30 7829 H 741.729 -3.05993 -1.14175 0
M  V30 7830 H 740.388 -3.54478 0.93491 0
M  V30 7831 H 740.036 -4.89968 -1.13756 0
M  V30 7832 H 739.736 -5.86683 0.328123 0
M  V30 7833 H 741.26 -6.07839 -0.579986 0
M  V30 7834 H 742.674 -5.50034 1.61666 0
M  V30 7835 H 741.071 -5.49675 2.40784 0
M  V30 7836 H 742.141 -4.09575 2.5957 0
M  V30 7837 N 743.484 -0.715051 -1.40445 0
M  V30 7838 C 744.414 -0.0768699 -2.33373 0
M  V30 7839 C 745.395 0.746109 -1.52863 0
M  V30 7840 O 746.58 0.695142 -1.81332 0
M  V30 7841 C 743.71 0.846014 -3.36838 0
M  V30 7842 C 742.664 0.128694 -4.27806 0
M  V30 7843 C 741.99 1.16726 -5.21804 0
M  V30 7844 C 743.29 -1.01679 -5.12307 0
M  V30 7845 H 744.984 -0.853061 -2.8699 0
M  V30 7846 H 742.53 -0.41167 -1.3799 0
M  V30 7847 H 744.483 1.30185 -4.00786 0
M  V30 7848 H 743.207 1.6541 -2.81615 0
M  V30 7849 H 741.866 -0.307314 -3.6531 0
M  V30 7850 H 741.514 1.96838 -4.62887 0
M  V30 7851 H 741.214 0.692188 -5.83509 0
M  V30 7852 H 742.738 1.62321 -5.88629 0
M  V30 7853 H 744.152 -0.640337 -5.69713 0
M  V30 7854 H 742.549 -1.4202 -5.83053 0
M  V30 7855 H 743.619 -1.84769 -4.48317 0
M  V30 7856 N 744.962 1.50701 -0.461195 0
M  V30 7857 C 746.21 2.01867 0.0970051 0
M  V30 7858 C 746.531 1.34591 1.41104 0
M  V30 7859 O 745.801 0.488041 1.89723 0
M  V30 7860 H 744.381 0.74599 0.0388392 0
M  V30 7861 H 747.043 1.85129 -0.609357 0
M  V30 7862 H 746.139 3.11051 0.255688 0
M  V30 7863 N 746.441 0.193421 1.56409 0
M  V30 7864 C 747.666 -0.454552 2.02358 0
M  V30 7865 C 748.091 -1.54516 1.07268 0
M  V30 7866 O 747.449 -1.81214 0.0558962 0
M  V30 7867 C 747.497 -0.989469 3.46759 0
M  V30 7868 O 746.601 -2.10244 3.54783 0
M  V30 7869 H 745.942 -0.106417 0.655417 0
M  V30 7870 H 748.472 0.303807 2.02332 0
M  V30 7871 H 748.482 -1.30649 3.86516 0
M  V30 7872 H 747.157 -0.191083 4.15461 0
M  V30 7873 H 745.734 -1.79419 3.26899 0
M  V30 7874 N 747.919 -1.57396 -0.0801906 0
M  V30 7875 C 748.882 -2.02133 -1.0805 0
M  V30 7876 C 749.882 -0.91707 -1.32085 0
M  V30 7877 O 751.072 -1.18217 -1.27947 0
M  V30 7878 C 748.204 -2.39479 -2.42616 0
M  V30 7879 H 749.397 -2.91733 -0.6951 0
M  V30 7880 H 746.95 -1.52869 -0.325677 0
M  V30 7881 H 747.685 -1.52879 -2.86004 0
M  V30 7882 H 747.47 -3.20052 -2.26515 0
M  V30 7883 H 748.96 -2.74697 -3.14534 0
M  V30 7884 N 749.397 0.351382 -1.53633 0
M  V30 7885 C 750.808 0.927429 -1.62036 0
M  V30 7886 C 751.159 1.89809 -0.496706 0
M  V30 7887 O 750.284 2.1313 0.374749 0
M  V30 7888 C 750.879 1.68886 -2.93706 0
M  V30 7889 C 749.438 2.21404 -3.04397 0
M  V30 7890 C 748.585 1.03075 -2.57431 0
M  V30 7891 H 751.536 0.129748 -1.58169 0
M  V30 7892 H 751.557 2.55116 -2.82305 0
M  V30 7893 H 751.069 0.982149 -3.75467 0
M  V30 7894 H 749.17 2.95274 -2.27253 0
M  V30 7895 H 749.283 2.48312 -4.09729 0
M  V30 7896 H 747.647 1.40188 -2.12649 0
M  V30 7897 H 748.43 0.338793 -3.41624 0
M  V30 7898 N 750.875 1.45233 0.611969 0
M  V30 7899 C 752.123 1.48727 1.36838 0
M  V30 7900 C 752.444 0.128616 1.94575 0
M  V30 7901 O 751.714 -0.84149 1.76906 0
M  V30 7902 H 750.294 0.547695 0.507976 0
M  V30 7903 H 752.956 1.81156 0.718925 0
M  V30 7904 H 752.052 2.2236 2.19003 0
M  V30 7905 N 752.353 -0.854086 1.3245 0
M  V30 7906 C 753.601 -1.60513 1.228 0
M  V30 7907 C 753.922 -1.93865 -0.210073 0
M  V30 7908 O 753.192 -1.59673 -1.13496 0
M  V30 7909 H 751.772 -0.595099 0.451516 0
M  V30 7910 H 754.434 -1.0216 1.6598 0
M  V30 7911 H 753.53 -2.54182 1.81102 0
M  V30 7912 N 753.831 -1.1567 -1.07043 0
M  V30 7913 C 754.778 -0.856336 -2.14326 0
M  V30 7914 C 755.748 0.192051 -1.64986 0
M  V30 7915 O 756.933 0.0589148 -1.90709 0
M  V30 7916 C 754.073 -0.355227 -3.43267 0
M  V30 7917 C 753.186 -1.46555 -4.06381 0
M  V30 7918 C 752.321 -0.920245 -5.23168 0
M  V30 7919 C 751.36 -2.00729 -5.78251 0
M  V30 7920 N 750.497 -1.47813 -6.86364 0
M  V30 7921 H 755.337 -1.77514 -2.39359 0
M  V30 7922 H 752.874 -0.885676 -1.17449 0
M  V30 7923 H 754.832 -0.0463804 -4.17174 0
M  V30 7924 H 753.462 0.526649 -3.18475 0
M  V30 7925 H 752.514 -1.89052 -3.30096 0
M  V30 7926 H 753.826 -2.28616 -4.43324 0
M  V30 7927 H 752.98 -0.564127 -6.04072 0
M  V30 7928 H 751.719 -0.0688477 -4.87651 0
M  V30 7929 H 750.724 -2.3722 -4.95991 0
M  V30 7930 H 751.949 -2.86252 -6.15822 0
M  V30 7931 H 749.895 -0.649145 -6.5278 0
M  V30 7932 H 749.812 -2.23498 -7.22208 0
M  V30 7933 H 751.08 -1.15036 -7.70965 0
M  V30 7934 N 755.309 1.25446 -0.953992 0
M  V30 7935 C 756.555 1.9343 -0.60933 0
M  V30 7936 C 756.888 1.74542 0.851388 0
M  V30 7937 O 756.163 1.09014 1.61078 0
M  V30 7938 C 756.446 3.46844 -0.968041 0
M  V30 7939 C 756.299 3.74961 -2.48444 0
M  V30 7940 C 757.618 4.37334 -0.492641 0
M  V30 7941 H 754.737 0.702502 -0.222844 0
M  V30 7942 H 757.379 1.48076 -1.19053 0
M  V30 7943 H 755.529 3.85604 -0.473465 0
M  V30 7944 H 757.201 3.45841 -3.05273 0
M  V30 7945 H 755.444 3.20589 -2.92241 0
M  V30 7946 H 756.115 4.82246 -2.68594 0
M  V30 7947 H 758.591 4.05873 -0.916878 0
M  V30 7948 H 757.467 5.43439 -0.772331 0
M  V30 7949 H 757.728 4.37908 0.607403 0
M  V30 7950 N 756.787 0.722489 1.40064 0
M  V30 7951 C 757.697 0.0755984 2.34478 0
M  V30 7952 C 758.713 -0.736046 1.57665 0
M  V30 7953 O 759.889 -0.667407 1.9002 0
M  V30 7954 C 756.954 -0.830075 3.36616 0
M  V30 7955 C 756.015 -0.00759884 4.29299 0
M  V30 7956 C 755.248 -0.870139 5.26559 0
M  V30 7957 O 755.471 -2.10921 5.2997 0
M  V30 7958 O 754.405 -0.305454 6.01124 0
M  V30 7959 H 758.231 0.854545 2.9143 0
M  V30 7960 H 755.816 0.483032 1.41376 0
M  V30 7961 H 757.698 -1.34864 3.99236 0
M  V30 7962 H 756.373 -1.58805 2.82069 0
M  V30 7963 H 755.28 0.556199 3.69942 0
M  V30 7964 H 756.613 0.712312 4.87018 0
M  V30 7965 N 758.265 -1.50454 0.469181 0
M  V30 7966 C 759.512 -2.02315 -0.086469 0
M  V30 7967 C 759.84 -1.3513 -1.39893 0
M  V30 7968 O 759.095 -0.465341 -1.90087 0
M  V30 7969 C 759.394 -3.55963 -0.320207 0
M  V30 7970 C 759.06 -4.41615 0.910318 0
M  V30 7971 C 757.722 -4.64743 1.2477 0
M  V30 7972 C 760.074 -4.91661 1.72971 0
M  V30 7973 C 757.402 -5.35161 2.40457 0
M  V30 7974 C 759.754 -5.6335 2.87785 0
M  V30 7975 C 758.418 -5.84732 3.2194 0
M  V30 7976 H 757.688 -0.740324 -0.0316412 0
M  V30 7977 H 760.335 -1.81087 0.622872 0
M  V30 7978 H 758.64 -3.75695 -1.11177 0
M  V30 7979 H 760.337 -3.93653 -0.764071 0
M  V30 7980 H 756.927 -4.23833 0.637467 0
M  V30 7981 H 761.111 -4.73649 1.48224 0
M  V30 7982 H 756.367 -5.49924 2.67196 0
M  V30 7983 H 760.541 -6.0111 3.51624 0
M  V30 7984 H 758.168 -6.39074 4.1169 0
M  V30 7985 N 759.743 -0.201713 -1.56304 0
M  V30 7986 C 760.69 0.716499 -2.19397 0
M  V30 7987 C 761.66 1.20494 -1.14326 0
M  V30 7988 O 762.845 1.26763 -1.42604 0
M  V30 7989 C 759.985 1.92762 -2.86246 0
M  V30 7990 C 759.098 1.47993 -4.0586 0
M  V30 7991 C 758.233 2.64706 -4.60547 0
M  V30 7992 C 757.272 2.16576 -5.72504 0
M  V30 7993 N 756.409 3.26491 -6.21569 0
M  V30 7994 H 761.249 0.171724 -2.97505 0
M  V30 7995 H 758.786 0.073016 -1.46919 0
M  V30 7996 H 760.744 2.6384 -3.23178 0
M  V30 7997 H 759.374 2.44559 -2.10691 0
M  V30 7998 H 758.426 0.66477 -3.74546 0
M  V30 7999 H 759.738 1.08686 -4.86815 0
M  V30 8000 H 758.892 3.43898 -4.99819 0
M  V30 8001 H 757.631 3.0729 -3.78713 0
M  V30 8002 H 756.636 1.3584 -5.32755 0
M  V30 8003 H 757.861 1.75015 -6.56161 0
M  V30 8004 H 755.807 3.68594 -5.42655 0
M  V30 8005 H 755.724 2.91374 -6.97594 0
M  V30 8006 H 756.992 4.05877 -6.65495 0
M  V30 8007 N 761.222 1.57436 0.0718424 0
M  V30 8008 C 762.638 1.53792 0.426628 0
M  V30 8009 C 762.838 0.921887 1.79174 0
M  V30 8010 O 761.894 0.524374 2.46995 0
M  V30 8011 C 763.207 2.98443 0.367739 0
M  V30 8012 C 764.755 3.09778 0.447928 0
M  V30 8013 C 765.23 4.5608 0.418946 0
M  V30 8014 N 766.721 4.60716 0.479022 0
M  V30 8015 C 767.456 5.71397 0.47881 0
M  V30 8016 N 766.952 6.91443 0.433417 0
M  V30 8017 N 768.745 5.59639 0.525364 0
M  V30 8018 H 760.896 1.95848 -0.822033 0
M  V30 8019 H 763.159 0.896418 -0.308447 0
M  V30 8020 H 762.865 3.47072 -0.56865 0
M  V30 8021 H 762.739 3.58335 1.17795 0
M  V30 8022 H 765.126 2.61122 1.37474 0
M  V30 8023 H 765.207 2.52796 -0.390857 0
M  V30 8024 H 764.851 5.05393 -0.504016 0
M  V30 8025 H 764.781 5.10925 1.27526 0
M  V30 8026 H 767.272 3.74328 0.518355 0
M  V30 8027 H 767.585 7.71562 0.43718 0
M  V30 8028 H 765.93 6.93847 0.400106 0
M  V30 8029 H 769.121 4.64756 0.558519 0
M  V30 8030 H 769.294 6.45896 0.52173 0
M  V30 8031 N 762.7 -0.34323 1.53817 0
M  V30 8032 C 763.928 -1.10348 1.75017 0
M  V30 8033 C 764.343 -1.82345 0.489475 0
M  V30 8034 O 763.7 -1.74362 -0.538886 0
M  V30 8035 C 763.751 -2.11672 2.93048 0
M  V30 8036 O 763.472 -1.42603 4.14241 0
M  V30 8037 C 764.973 -3.0007 3.26301 0
M  V30 8038 H 762.193 -0.329056 0.584776 0
M  V30 8039 H 764.737 -0.395339 2.00642 0
M  V30 8040 H 762.892 -2.78051 2.69753 0
M  V30 8041 H 763.306 -2.10294 4.80496 0
M  V30 8042 H 764.78 -3.67101 4.12239 0
M  V30 8043 H 765.257 -3.66105 2.42618 0
M  V30 8044 H 765.863 -2.3928 3.51604 0
M  V30 8045 N 764.178 -1.45556 -0.604258 0
M  V30 8046 C 765.108 -1.57327 -1.72541 0
M  V30 8047 C 766.089 -0.424637 -1.64714 0
M  V30 8048 O 767.274 -0.648196 -1.83063 0
M  V30 8049 C 764.404 -1.54279 -3.11152 0
M  V30 8050 C 763.358 -2.67893 -3.33792 0
M  V30 8051 C 762.684 -2.499 -4.72709 0
M  V30 8052 C 763.984 -4.0988 -3.23722 0
M  V30 8053 H 765.678 -2.51175 -1.62947 0
M  V30 8054 H 763.224 -1.20884 -0.782504 0
M  V30 8055 H 765.177 -1.6111 -3.89386 0
M  V30 8056 H 763.901 -0.569627 -3.21594 0
M  V30 8057 H 762.56 -2.60495 -2.57949 0
M  V30 8058 H 762.208 -1.50715 -4.79889 0
M  V30 8059 H 761.908 -3.26091 -4.88813 0
M  V30 8060 H 763.432 -2.5859 -5.5314 0
M  V30 8061 H 764.846 -4.18503 -3.91826 0
M  V30 8062 H 763.243 -4.86487 -3.51355 0
M  V30 8063 H 764.313 -4.31553 -2.21111 0
M  V30 8064 N 765.656 0.84705 -1.32902 0
M  V30 8065 C 766.905 1.59667 -1.23245 0
M  V30 8066 C 767.218 1.94551 0.202349 0
M  V30 8067 O 768.424 2.68218 0.420847 0
M  V30 8068 C 766.88 2.8795 -2.15901 0
M  V30 8069 C 766.488 2.60461 -3.64505 0
M  V30 8070 C 768.232 3.65968 -2.15098 0
M  V30 8071 C 766.139 3.84791 -4.49099 0
M  V30 8072 H 765.069 0.599167 -0.457728 0
M  V30 8073 H 767.72 0.934662 -1.57912 0
M  V30 8074 H 766.102 3.55648 -1.74157 0
M  V30 8075 H 767.276 2.01026 -4.14639 0
M  V30 8076 H 765.591 1.9576 -3.67515 0
M  V30 8077 H 768.188 4.58241 -2.75534 0
M  V30 8078 H 768.531 4.00275 -1.14392 0
M  V30 8079 H 769.064 3.05184 -2.55162 0
M  V30 8080 H 765.803 3.55621 -5.50649 0
M  V30 8081 H 765.323 4.43594 -4.03713 0
M  V30 8082 H 767.002 4.52454 -4.62487 0
M  V30 8083 N 767.134 1.16236 1.06428 0
M  V30 8084 C 768.383 0.937523 1.78587 0
M  V30 8085 C 768.696 -0.536 1.88113 0
M  V30 8086 O 769.902 -0.878697 2.56887 0
M  V30 8087 C 768.358 1.62808 3.2097 0
M  V30 8088 C 767.966 3.13927 3.19615 0
M  V30 8089 C 769.71 1.48515 3.97673 0
M  V30 8090 C 767.617 3.75727 4.56709 0
M  V30 8091 H 766.547 0.347125 0.669343 0
M  V30 8092 H 769.198 1.39353 1.19385 0
M  V30 8093 H 767.58 1.09977 3.80422 0
M  V30 8094 H 768.754 3.7359 2.69753 0
M  V30 8095 H 767.069 3.28089 2.56411 0
M  V30 8096 H 769.666 1.92069 4.99013 0
M  V30 8097 H 770.009 0.433913 4.14032 0
M  V30 8098 H 770.542 1.98494 3.44739 0
M  V30 8099 H 767.281 4.80793 4.45554 0
M  V30 8100 H 766.801 3.20849 5.0677 0
M  V30 8101 H 768.48 3.77203 5.25668 0
M  V30 8102 N 768.612 -1.24939 0.960631 0
M  V30 8103 C 769.837 -1.9742 0.635608 0
M  V30 8104 C 770.262 -1.70857 -0.786737 0
M  V30 8105 O 769.62 -0.968063 -1.53291 0
M  V30 8106 C 769.668 -3.48987 0.907771 0
M  V30 8107 O 768.772 -4.12399 -0.0104053 0
M  V30 8108 H 768.113 -0.61871 0.241027 0
M  V30 8109 H 770.643 -1.58901 1.28886 0
M  V30 8110 H 770.653 -3.99334 0.836453 0
M  V30 8111 H 769.328 -3.6765 1.94439 0
M  V30 8112 H 767.905 -3.72727 0.113631 0
M  V30 8113 N 770.09 -0.729906 -1.39679 0
M  V30 8114 C 771.337 -0.275622 -2.00615 0
M  V30 8115 C 771.665 1.13559 -1.57907 0
M  V30 8116 O 770.92 1.78745 -0.796789 0
M  V30 8117 C 771.219 -0.319564 -3.55968 0
M  V30 8118 C 770.885 -1.68308 -4.1831 0
M  V30 8119 C 769.547 -2.05629 -4.35052 0
M  V30 8120 C 771.899 -2.57857 -4.52945 0
M  V30 8121 C 769.227 -3.32018 -4.83716 0
M  V30 8122 C 771.579 -3.83613 -5.03015 0
M  V30 8123 C 770.243 -4.21033 -5.17965 0
M  V30 8124 H 769.513 -0.100857 -0.734104 0
M  V30 8125 H 772.16 -0.93575 -1.67081 0
M  V30 8126 H 770.465 0.42414 -3.89497 0
M  V30 8127 H 772.162 0.0499905 -4.00969 0
M  V30 8128 H 768.752 -1.3829 -4.05677 0
M  V30 8129 H 772.936 -2.30295 -4.39634 0
M  V30 8130 H 768.192 -3.6096 -4.93475 0
M  V30 8131 H 772.366 -4.53162 -5.28788 0
M  V30 8132 H 769.993 -5.19034 -5.55435 0
M  V30 8133 N 771.568 1.50203 -0.477153 0
M  V30 8134 C 772.498 2.31517 0.303646 0
M  V30 8135 C 773.479 1.38696 0.984753 0
M  V30 8136 O 774.664 1.67615 0.980758 0
M  V30 8137 C 771.794 3.18598 1.38249 0
M  V30 8138 C 770.748 4.2002 0.822645 0
M  V30 8139 C 770.074 4.95878 2.00024 0
M  V30 8140 C 771.374 5.22023 -0.170185 0
M  V30 8141 H 773.068 2.97042 -0.375027 0
M  V30 8142 H 770.614 1.42848 -0.181802 0
M  V30 8143 H 772.567 3.74282 1.93625 0
M  V30 8144 H 771.291 2.5097 2.09002 0
M  V30 8145 H 769.95 3.65445 0.290813 0
M  V30 8146 H 769.598 4.24717 2.69489 0
M  V30 8147 H 769.298 5.64487 1.63183 0
M  V30 8148 H 770.822 5.54399 2.55878 0
M  V30 8149 H 772.236 5.72543 0.294606 0
M  V30 8150 H 770.633 5.98386 -0.453181 0
M  V30 8151 H 771.703 4.72396 -1.09408 0
M  V30 8152 N 773.046 0.209999 1.56195 0
M  V30 8153 C 774.293 -0.424813 1.97994 0
M  V30 8154 C 774.621 -1.60589 1.09733 0
M  V30 8155 O 773.876 -1.95201 0.139693 0
M  V30 8156 C 774.175 -0.91312 3.45539 0
M  V30 8157 C 773.841 0.156187 4.50629 0
M  V30 8158 C 772.503 0.449966 4.79092 0
M  V30 8159 C 774.855 0.879959 5.13718 0
M  V30 8160 C 772.183 1.47223 5.67928 0
M  V30 8161 C 774.535 1.89148 6.0366 0
M  V30 8162 C 773.199 2.1923 6.30472 0
M  V30 8163 H 772.469 -0.15545 0.724511 0
M  V30 8164 H 775.116 0.310095 1.88973 0
M  V30 8165 H 773.421 -1.72658 3.51705 0
M  V30 8166 H 775.118 -1.41395 3.75245 0
M  V30 8167 H 771.708 -0.0829466 4.2852 0
M  V30 8168 H 775.892 0.66623 4.91808 0
M  V30 8169 H 771.148 1.71105 5.86969 0
M  V30 8170 H 775.322 2.45745 6.516 0
M  V30 8171 H 772.949 2.98587 6.99107 0
M  V30 8172 N 774.524 -1.57472 -0.0634922 0
M  V30 8173 C 775.471 -2.04258 -1.07457 0
M  V30 8174 C 776.441 -0.924804 -1.37973 0
M  V30 8175 O 777.626 -1.19305 -1.48899 0
M  V30 8176 C 774.766 -2.49832 -2.38071 0
M  V30 8177 C 773.879 -3.75263 -2.14014 0
M  V30 8178 C 773.014 -4.09585 -3.38251 0
M  V30 8179 C 772.053 -5.28032 -3.09594 0
M  V30 8180 N 771.19 -5.57953 -4.26185 0
M  V30 8181 H 776.03 -2.90402 -0.668626 0
M  V30 8182 H 773.567 -1.43609 -0.318572 0
M  V30 8183 H 775.525 -2.7431 -3.14341 0
M  V30 8184 H 774.155 -1.66654 -2.76453 0
M  V30 8185 H 773.207 -3.58075 -1.28399 0
M  V30 8186 H 774.519 -4.61667 -1.88852 0
M  V30 8187 H 773.673 -4.35008 -4.2291 0
M  V30 8188 H 772.412 -3.21765 -3.66495 0
M  V30 8189 H 771.417 -5.02397 -2.23332 0
M  V30 8190 H 772.642 -6.17477 -2.82663 0
M  V30 8191 H 770.588 -4.73092 -4.54445 0
M  V30 8192 H 770.505 -6.38793 -4.04326 0
M  V30 8193 H 771.773 -5.87931 -5.11817 0
M  V30 8194 N 776.003 0.335068 -1.53997 0
M  V30 8195 C 777.25 1.07435 -1.71651 0
M  V30 8196 C 777.578 1.88378 -0.48413 0
M  V30 8197 O 776.833 1.8827 0.534139 0
M  V30 8198 C 777.132 2.0364 -2.9371 0
M  V30 8199 C 776.798 1.38942 -4.28959 0
M  V30 8200 C 775.46 1.21027 -4.65732 0
M  V30 8201 C 777.812 0.924083 -5.12943 0
M  V30 8202 C 775.14 0.552097 -5.84097 0
M  V30 8203 C 777.492 0.27978 -6.31981 0
M  V30 8204 C 776.156 0.0883843 -6.67441 0
M  V30 8205 H 775.426 0.393133 -0.628114 0
M  V30 8206 H 778.073 0.352712 -1.88224 0
M  V30 8207 H 776.378 2.82215 -2.71775 0
M  V30 8208 H 778.075 2.6085 -3.04562 0
M  V30 8209 H 774.665 1.53885 -4.00022 0
M  V30 8210 H 778.849 1.05032 -4.85059 0
M  V30 8211 H 774.105 0.392502 -6.10139 0
M  V30 8212 H 778.279 -0.0888479 -6.96343 0
M  V30 8213 H 775.906 -0.423657 -7.59019 0
M  V30 8214 N 777.481 1.45874 0.596531 0
M  V30 8215 C 778.711 1.5379 1.37958 0
M  V30 8216 C 779.119 0.173086 1.88407 0
M  V30 8217 O 778.462 -0.837498 1.63498 0
M  V30 8218 C 778.524 2.47044 2.61169 0
M  V30 8219 C 778.188 3.93565 2.32283 0
M  V30 8220 C 779.185 4.83162 1.91965 0
M  V30 8221 C 776.87 4.38579 2.44854 0
M  V30 8222 C 778.864 6.15782 1.64593 0
M  V30 8223 C 776.551 5.71238 2.17095 0
M  V30 8224 C 777.549 6.59659 1.77028 0
M  V30 8225 O 777.237 7.89857 1.49601 0
M  V30 8226 H 776.969 0.523 0.428307 0
M  V30 8227 H 779.523 1.91855 0.733529 0
M  V30 8228 H 777.753 2.0397 3.28532 0
M  V30 8229 H 779.442 2.4552 3.23226 0
M  V30 8230 H 780.208 4.49646 1.8178 0
M  V30 8231 H 776.087 3.6999 2.75006 0
M  V30 8232 H 779.631 6.84757 1.33245 0
M  V30 8233 H 775.528 6.04306 2.26901 0
M  V30 8234 H 776.296 8.01991 1.63561 0
M  V30 8235 N 778.959 -0.83999 1.33349 0
M  V30 8236 C 779.889 -1.965 1.26135 0
M  V30 8237 C 780.87 -1.69505 0.142152 0
M  V30 8238 O 782.055 -1.91346 0.331743 0
M  V30 8239 C 779.185 -3.32632 0.99866 0
M  V30 8240 C 778.139 -3.74021 2.08068 0
M  V30 8241 C 777.465 -5.07947 1.67014 0
M  V30 8242 C 778.765 -3.87925 3.49731 0
M  V30 8243 H 780.459 -2.02793 2.20262 0
M  V30 8244 H 778.005 -0.974297 1.06035 0
M  V30 8245 H 779.958 -4.10903 0.934696 0
M  V30 8246 H 778.682 -3.26593 0.0217759 0
M  V30 8247 H 777.341 -2.98012 2.13505 0
M  V30 8248 H 776.989 -4.98378 0.680316 0
M  V30 8249 H 776.689 -5.36611 2.39422 0
M  V30 8250 H 778.213 -5.88695 1.62082 0
M  V30 8251 H 779.627 -4.5651 3.46802 0
M  V30 8252 H 778.024 -4.28023 4.20614 0
M  V30 8253 H 779.094 -2.90407 3.88319 0
M  V30 8254 N 780.437 -1.16799 -1.0581 0
M  V30 8255 C 781.347 -0.893492 -2.16919 0
M  V30 8256 C 782.363 0.136061 -1.73467 0
M  V30 8257 O 783.539 -0.0417348 -2.01357 0
M  V30 8258 C 780.604 -0.403763 -3.44341 0
M  V30 8259 C 779.665 -1.49914 -4.02274 0
M  V30 8260 C 778.898 -1.03269 -5.23614 0
M  V30 8261 O 779.121 0.115647 -5.70283 0
M  V30 8262 O 778.055 -1.8231 -5.73626 0
M  V30 8263 H 781.881 -1.82274 -2.42919 0
M  V30 8264 H 779.466 -0.948361 -1.1544 0
M  V30 8265 H 781.348 -0.137874 -4.21174 0
M  V30 8266 H 780.023 0.497413 -3.19855 0
M  V30 8267 H 778.93 -1.81883 -3.26909 0
M  V30 8268 H 780.263 -2.3758 -4.31064 0
M  V30 8269 N 781.915 1.24427 -0.967243 0
M  V30 8270 C 783.161 1.92772 -0.629812 0
M  V30 8271 C 783.494 1.75436 0.832827 0
M  V30 8272 O 782.769 1.10716 1.59913 0
M  V30 8273 C 783.052 3.45798 -1.00477 0
M  V30 8274 C 782.905 3.72304 -2.52407 0
M  V30 8275 C 784.224 4.36787 -0.538999 0
M  V30 8276 H 781.343 0.700099 -0.230282 0
M  V30 8277 H 783.985 1.46805 -1.20616 0
M  V30 8278 H 782.135 3.8508 -0.514336 0
M  V30 8279 H 783.807 3.42584 -3.08924 0
M  V30 8280 H 782.05 3.17472 -2.95625 0
M  V30 8281 H 782.721 4.7937 -2.73693 0
M  V30 8282 H 785.197 4.04877 -0.959874 0
M  V30 8283 H 784.073 5.4259 -0.829926 0
M  V30 8284 H 784.334 4.38527 0.560923 0
M  V30 8285 N 783.393 0.737304 1.3929 0
M  V30 8286 C 784.618 0.295237 2.05288 0
M  V30 8287 C 785.043 -1.06235 1.55228 0
M  V30 8288 O 784.401 -1.67365 0.697043 0
M  V30 8289 C 784.449 0.309146 3.59272 0
M  V30 8290 O 783.553 -0.702437 4.06374 0
M  V30 8291 H 782.894 0.133762 0.650387 0
M  V30 8292 H 785.424 1.00387 1.78279 0
M  V30 8293 H 785.434 0.154336 4.07708 0
M  V30 8294 H 784.109 1.29974 3.95069 0
M  V30 8295 H 782.686 -0.513574 3.69346 0
M  V30 8296 N 784.871 -1.49948 0.485112 0
M  V30 8297 C 785.803 -2.26691 -0.338222 0
M  V30 8298 C 786.816 -1.32584 -0.944742 0
M  V30 8299 O 788.005 -1.57989 -0.830772 0
M  V30 8300 C 785.105 -3.04405 -1.48966 0
M  V30 8301 C 784.278 -4.25971 -0.993371 0
M  V30 8302 C 783.337 -4.85861 -2.02052 0
M  V30 8303 O 782.363 -5.46382 -1.59547 0
M  V30 8304 N 783.565 -4.74101 -3.34975 0
M  V30 8305 H 786.33 -2.97989 0.319748 0
M  V30 8306 H 783.891 -1.58772 0.316714 0
M  V30 8307 H 785.883 -3.41348 -2.17403 0
M  V30 8308 H 784.453 -2.35815 -2.05207 0
M  V30 8309 H 783.673 -3.93971 -0.134424 0
M  V30 8310 H 784.961 -5.0476 -0.639934 0
M  V30 8311 H 784.359 -4.26002 -3.72208 0
M  V30 8312 H 782.916 -5.15274 -3.9917 0
M  V30 8313 N 786.349 -0.21828 -1.56081 0
M  V30 8314 C 787.598 0.414644 -1.97392 0
M  V30 8315 C 787.911 1.61132 -1.10887 0
M  V30 8316 O 789.117 2.31355 -1.42082 0
M  V30 8317 C 787.573 0.789099 -3.51143 0
M  V30 8318 C 787.181 -0.384578 -4.46346 0
M  V30 8319 C 788.925 1.38781 -4.01173 0
M  V30 8320 C 786.832 0.0121288 -5.91399 0
M  V30 8321 H 785.762 0.158691 -0.737111 0
M  V30 8322 H 788.413 -0.313974 -1.80794 0
M  V30 8323 H 786.795 1.57505 -3.6333 0
M  V30 8324 H 787.969 -1.16212 -4.45905 0
M  V30 8325 H 786.284 -0.896306 -4.06639 0
M  V30 8326 H 788.881 1.69746 -5.07041 0
M  V30 8327 H 789.224 2.30245 -3.46833 0
M  V30 8328 H 789.757 0.665364 -3.92196 0
M  V30 8329 H 786.496 -0.868917 -6.49715 0
M  V30 8330 H 786.016 0.754053 -5.95041 0
M  V30 8331 H 787.695 0.439949 -6.45502 0
M  V30 8332 N 787.827 1.57504 0.0551401 0
M  V30 8333 C 788.757 2.07864 1.06372 0
M  V30 8334 C 789.738 0.975565 1.39344 0
M  V30 8335 O 790.923 1.24929 1.48682 0
M  V30 8336 C 788.053 2.53643 2.3724 0
M  V30 8337 C 787.007 3.67978 2.18578 0
M  V30 8338 C 786.333 3.9987 3.54976 0
M  V30 8339 C 787.633 4.97405 1.59329 0
M  V30 8340 H 789.327 2.92379 0.644595 0
M  V30 8341 H 786.873 1.40654 0.308619 0
M  V30 8342 H 788.826 2.8749 3.08103 0
M  V30 8343 H 787.55 1.66177 2.81163 0
M  V30 8344 H 786.209 3.3444 1.50152 0
M  V30 8345 H 785.857 3.0951 3.965 0
M  V30 8346 H 785.557 4.76867 3.43324 0
M  V30 8347 H 787.081 4.36228 4.27244 0
M  V30 8348 H 788.495 5.29375 2.20078 0
M  V30 8349 H 786.892 5.78837 1.58327 0
M  V30 8350 H 787.962 4.81697 0.55638 0
M  V30 8351 N 789.305 -0.326896 1.54172 0
M  V30 8352 C 790.252 -1.40216 1.83325 0
M  V30 8353 C 791.222 -1.51538 0.680107 0
M  V30 8354 O 792.407 -1.66811 0.926206 0
M  V30 8355 C 789.547 -2.76626 2.0633 0
M  V30 8356 C 788.66 -2.73963 3.34019 0
M  V30 8357 C 787.795 -4.02198 3.47002 0
M  V30 8358 C 786.834 -3.93828 4.68578 0
M  V30 8359 N 785.971 -5.13787 4.78506 0
M  V30 8360 H 790.811 -1.14656 2.7506 0
M  V30 8361 H 788.348 -0.555089 1.36225 0
M  V30 8362 H 790.306 -3.55922 2.17659 0
M  V30 8363 H 788.936 -3.00503 1.1789 0
M  V30 8364 H 787.988 -1.86677 3.31445 0
M  V30 8365 H 789.3 -2.6366 4.2342 0
M  V30 8366 H 788.454 -4.89923 3.57855 0
M  V30 8367 H 787.193 -4.15302 2.55687 0
M  V30 8368 H 786.198 -3.04487 4.57786 0
M  V30 8369 H 787.423 -3.82292 5.61275 0
M  V30 8370 H 785.369 -5.27403 3.90105 0
M  V30 8371 H 785.286 -5.05807 5.61868 0
M  V30 8372 H 786.554 -6.03236 4.93686 0
M  V30 8373 N 790.784 -1.46188 -0.588786 0
M  V30 8374 C 791.731 -1.56292 -1.69828 0
M  V30 8375 C 792.701 -0.407581 -1.61022 0
M  V30 8376 O 793.886 -0.623532 -1.80324 0
M  V30 8377 C 791.026 -1.55341 -3.08161 0
M  V30 8378 C 790.139 -2.81564 -3.27636 0
M  V30 8379 C 789.274 -2.72158 -4.56183 0
M  V30 8380 C 788.313 -3.93348 -4.68981 0
M  V30 8381 N 787.45 -3.82365 -5.88848 0
M  V30 8382 H 792.29 -2.51066 -1.6053 0
M  V30 8383 H 789.827 -1.24562 -0.782474 0
M  V30 8384 H 791.785 -1.52776 -3.88221 0
M  V30 8385 H 790.415 -0.641034 -3.16371 0
M  V30 8386 H 789.467 -2.94136 -2.41223 0
M  V30 8387 H 790.779 -3.714 -3.32962 0
M  V30 8388 H 789.933 -2.67665 -5.44464 0
M  V30 8389 H 788.672 -1.79953 -4.53286 0
M  V30 8390 H 787.677 -3.98181 -3.7912 0
M  V30 8391 H 788.902 -4.86643 -4.73662 0
M  V30 8392 H 786.848 -2.92942 -5.86959 0
M  V30 8393 H 786.765 -4.65851 -5.95415 0
M  V30 8394 H 788.033 -3.81836 -6.79575 0
M  V30 8395 N 792.262 0.832906 -1.33792 0
M  V30 8396 C 793.195 1.94788 -1.18882 0
M  V30 8397 C 794.173 1.62389 -0.0828426 0
M  V30 8398 O 795.357 1.86886 -0.246175 0
M  V30 8399 C 792.484 3.28506 -0.824728 0
M  V30 8400 C 791.53 3.79872 -1.93905 0
M  V30 8401 S 792.363 4.00832 -3.55097 0
M  V30 8402 C 793.519 5.37492 -3.20708 0
M  V30 8403 H 793.752 2.07137 -2.13264 0
M  V30 8404 H 791.285 0.987362 -1.18704 0
M  V30 8405 H 793.243 4.05769 -0.621442 0
M  V30 8406 H 791.904 3.13939 0.100587 0
M  V30 8407 H 791.097 4.76647 -1.6378 0
M  V30 8408 H 790.699 3.09524 -2.09931 0
M  V30 8409 H 792.991 6.20544 -2.71903 0
M  V30 8410 H 793.934 5.72593 -4.16584 0
M  V30 8411 H 794.342 5.02529 -2.57148 0
M  V30 8412 N 793.74 1.17359 1.05189 0
M  V30 8413 C 795.017 0.871914 1.75091 0
M  V30 8414 C 795.397 -0.627821 2.01548 0
M  V30 8415 O 794.745 -1.5791 1.65156 0
M  V30 8416 C 794.955 1.70687 3.04413 0
M  V30 8417 C 796.303 1.92684 3.78362 0
M  V30 8418 O 797.327 1.67645 3.14282 0
M  V30 8419 O 796.186 2.34765 4.93505 0
M  V30 8420 H 793.28 0.322831 0.761386 0
M  V30 8421 H 795.826 1.28054 1.11357 0
M  V30 8422 H 794.598 2.72405 2.80911 0
M  V30 8423 H 794.221 1.29602 3.75884 0
M  V30 8424 N 795.218 -1.23913 0.973828 0
M  V30 8425 C 796.629 -1.73992 0.677021 0
M  V30 8426 C 796.98 -1.78833 -0.807036 0
M  V30 8427 O 796.105 -1.42183 -1.63135 0
M  V30 8428 C 796.7 -3.15985 1.22226 0
M  V30 8429 C 795.259 -3.63547 0.975228 0
M  V30 8430 C 794.406 -2.42001 1.35392 0
M  V30 8431 H 797.357 -1.09529 1.14844 0
M  V30 8432 H 797.378 -3.75875 0.591489 0
M  V30 8433 H 796.89 -3.12429 2.30238 0
M  V30 8434 H 794.991 -3.72493 -0.0891047 0
M  V30 8435 H 795.104 -4.50693 1.62518 0
M  V30 8436 H 793.468 -2.42708 0.772334 0
M  V30 8437 H 794.251 -2.41122 2.44367 0
M  V30 8438 N 796.696 -0.74468 -1.38897 0
M  V30 8439 C 797.942 -0.297324 -2.00609 0
M  V30 8440 C 798.275 1.11547 -1.58968 0
M  V30 8441 O 797.55 1.76227 -0.823057 0
M  V30 8442 C 797.833 -0.410125 -3.57757 0
M  V30 8443 C 797.686 -1.86338 -4.09387 0
M  V30 8444 C 799.005 0.20176 -4.39637 0
M  V30 8445 H 796.124 -0.109509 -0.728819 0
M  V30 8446 H 798.766 -0.942653 -1.64967 0
M  V30 8447 H 796.916 0.139287 -3.8825 0
M  V30 8448 H 798.588 -2.47042 -3.89574 0
M  V30 8449 H 796.831 -2.38146 -3.62586 0
M  V30 8450 H 797.502 -1.89352 -5.18507 0
M  V30 8451 H 799.978 -0.266703 -4.15244 0
M  V30 8452 H 798.854 0.0925415 -5.48822 0
M  V30 8453 H 799.115 1.289 -4.22891 0
M  V30 8454 N 798.174 1.49689 -0.493057 0
M  V30 8455 C 799.124 2.25901 0.308682 0
M  V30 8456 C 800.108 1.30408 0.94247 0
M  V30 8457 O 801.3 1.55179 0.851384 0
M  V30 8458 C 798.429 3.14463 1.37725 0
M  V30 8459 C 797.515 4.17414 0.7501 0
M  V30 8460 N 797.906 5.05599 -0.142597 0
M  V30 8461 C 796.204 4.34377 1.01159 0
M  V30 8462 C 796.905 5.7954 -0.500782 0
M  V30 8463 N 795.881 5.43446 0.129386 0
M  V30 8464 H 799.683 2.91451 -0.378652 0
M  V30 8465 H 797.197 1.59441 -0.308614 0
M  V30 8466 H 799.194 3.67687 1.965 0
M  V30 8467 H 797.854 2.50464 2.06635 0
M  V30 8468 H 798.865 5.15354 -0.512894 0
M  V30 8469 H 795.542 3.81588 1.69402 0
M  V30 8470 H 796.932 6.60534 -1.23063 0
M  V30 8471 N 799.652 0.226554 1.55963 0
M  V30 8472 C 800.882 -0.407915 2.02533 0
M  V30 8473 C 801.29 -1.53539 1.10554 0
M  V30 8474 O 800.633 -1.8338 0.108409 0
M  V30 8475 C 800.695 -0.996081 3.45425 0
M  V30 8476 C 800.359 -0.00341651 4.57 0
M  V30 8477 C 801.356 0.798782 5.13727 0
M  V30 8478 C 799.041 0.116786 5.02164 0
M  V30 8479 C 801.035 1.70784 6.14094 0
M  V30 8480 C 798.722 1.02937 6.02368 0
M  V30 8481 C 799.72 1.82344 6.5821 0
M  V30 8482 O 799.408 2.72067 7.56462 0
M  V30 8483 H 799.14 -0.103524 0.668026 0
M  V30 8484 H 801.694 0.341937 2.02534 0
M  V30 8485 H 799.924 -1.79512 3.42509 0
M  V30 8486 H 801.613 -1.53848 3.75614 0
M  V30 8487 H 802.379 0.716393 4.7968 0
M  V30 8488 H 798.258 -0.491172 4.58376 0
M  V30 8489 H 801.802 2.32807 6.57607 0
M  V30 8490 H 797.699 1.11276 6.35836 0
M  V30 8491 H 798.467 2.66199 7.74003 0
M  V30 8492 N 801.13 -1.57531 -0.0467866 0
M  V30 8493 C 802.541 -1.76945 -0.595603 0
M  V30 8494 C 802.892 -0.855354 -1.76573 0
M  V30 8495 O 802.017 -0.045668 -2.16352 0
M  V30 8496 C 802.612 -3.20881 -1.08725 0
M  V30 8497 C 801.171 -3.41553 -1.58172 0
M  V30 8498 C 800.318 -2.72533 -0.511968 0
M  V30 8499 H 803.269 -1.57682 0.179436 0
M  V30 8500 H 803.29 -3.26419 -1.95528 0
M  V30 8501 H 802.802 -3.87385 -0.235398 0
M  V30 8502 H 800.903 -2.80199 -2.456 0
M  V30 8503 H 801.016 -4.50104 -1.64143 0
M  V30 8504 H 799.38 -2.35797 -0.962899 0
M  V30 8505 H 800.163 -3.41709 0.330117 0
M  V30 8506 N 802.608 0.318715 -1.54344 0
M  V30 8507 C 803.833 1.07987 -1.77069 0
M  V30 8508 C 804.258 1.80766 -0.520117 0
M  V30 8509 O 803.616 1.73424 0.528566 0
M  V30 8510 C 803.664 2.04987 -2.96669 0
M  V30 8511 O 802.768 3.12974 -2.68554 0
M  V30 8512 H 802.109 0.311109 -0.586606 0
M  V30 8513 H 804.639 0.361533 -2.0138 0
M  V30 8514 H 804.649 2.47771 -3.2415 0
M  V30 8515 H 803.324 1.51417 -3.87357 0
M  V30 8516 H 801.901 2.74831 -2.52037 0
M  V30 8517 N 804.086 1.46499 0.581025 0
M  V30 8518 C 805.016 1.60052 1.70017 0
M  V30 8519 C 805.997 0.450788 1.64018 0
M  V30 8520 O 807.182 0.677237 1.82009 0
M  V30 8521 C 804.312 1.5921 3.08658 0
M  V30 8522 C 803.266 2.73169 3.29488 0
M  V30 8523 C 802.592 2.57389 4.68674 0
M  V30 8524 C 803.892 4.14978 3.1716 0
M  V30 8525 H 805.586 2.53735 1.5893 0
M  V30 8526 H 803.132 1.22113 0.763173 0
M  V30 8527 H 805.085 1.67285 3.86773 0
M  V30 8528 H 803.809 0.620718 3.20647 0
M  V30 8529 H 802.468 2.64566 2.53773 0
M  V30 8530 H 802.116 1.58331 4.77431 0
M  V30 8531 H 801.816 3.33826 4.83564 0
M  V30 8532 H 803.34 2.67358 5.48956 0
M  V30 8533 H 804.754 4.24684 3.85119 0
M  V30 8534 H 803.151 4.92016 3.4357 0
M  V30 8535 H 804.221 4.35016 2.14218 0
M  V30 8536 N 805.565 -0.825799 1.34232 0
M  V30 8537 C 806.528 -1.91808 1.25468 0
M  V30 8538 C 807.528 -1.59893 0.170567 0
M  V30 8539 O 808.718 -1.68986 0.422996 0
M  V30 8540 C 805.85 -3.27786 0.93644 0
M  V30 8541 H 807.043 -2.01003 2.22571 0
M  V30 8542 H 804.596 -1.01944 1.18479 0
M  V30 8543 H 805.331 -3.24285 -0.0315408 0
M  V30 8544 H 805.116 -3.52333 1.72057 0
M  V30 8545 H 806.606 -4.07782 0.900214 0
M  V30 8546 N 807.043 -1.17915 -1.04565 0
M  V30 8547 C 808.32 -0.881187 -1.74627 0
M  V30 8548 C 808.7 0.617123 -2.01878 0
M  V30 8549 O 808.048 1.57032 -1.65991 0
M  V30 8550 C 808.258 -1.72299 -3.03503 0
M  V30 8551 C 809.606 -1.94688 -3.77335 0
M  V30 8552 O 810.63 -1.6931 -3.13389 0
M  V30 8553 O 809.489 -2.37379 -4.92253 0
M  V30 8554 H 806.583 -0.326864 -0.759664 0
M  V30 8555 H 809.129 -1.28642 -1.10676 0
M  V30 8556 H 807.901 -2.73891 -2.79462 0
M  V30 8557 H 807.524 -1.31593 -3.75192 0
M  V30 8558 N 808.521 1.23394 -0.980386 0
M  V30 8559 C 809.468 2.24859 -0.520298 0
M  V30 8560 C 810.438 1.60144 0.440821 0
M  V30 8561 O 811.623 1.87593 0.348369 0
M  V30 8562 C 808.763 3.44675 0.171145 0
M  V30 8563 C 807.876 4.23947 -0.830233 0
M  V30 8564 C 807.011 5.31079 -0.113597 0
M  V30 8565 C 806.05 6.02058 -1.10419 0
M  V30 8566 N 805.187 7.00862 -0.416709 0
M  V30 8567 H 810.027 2.63579 -1.39032 0
M  V30 8568 H 807.564 1.29556 -0.696682 0
M  V30 8569 H 809.522 4.13024 0.588838 0
M  V30 8570 H 808.152 3.06755 1.00504 0
M  V30 8571 H 807.204 3.55016 -1.36631 0
M  V30 8572 H 808.516 4.72945 -1.58508 0
M  V30 8573 H 807.67 6.05622 0.36146 0
M  V30 8574 H 806.409 4.83022 0.673854 0
M  V30 8575 H 805.414 5.26307 -1.59 0
M  V30 8576 H 806.639 6.52203 -1.8923 0
M  V30 8577 H 804.585 6.55057 0.351535 0
M  V30 8578 H 804.502 7.47804 -1.11021 0
M  V30 8579 H 805.77 7.79492 0.0359606 0
M  V30 8580 N 809.999 0.752036 1.385 0
M  V30 8581 C 811.229 0.317812 2.04141 0
M  V30 8582 C 811.637 -1.05822 1.56839 0
M  V30 8583 O 810.98 -1.68311 0.736016 0
M  V30 8584 C 811.042 0.260205 3.58557 0
M  V30 8585 C 810.706 1.57753 4.28909 0
M  V30 8586 C 811.703 2.52642 4.54387 0
M  V30 8587 C 809.388 1.84653 4.67128 0
M  V30 8588 C 811.382 3.72653 5.17116 0
M  V30 8589 C 809.069 3.04938 5.29581 0
M  V30 8590 C 810.067 3.98759 5.54509 0
M  V30 8591 O 809.755 5.16929 6.15662 0
M  V30 8592 H 809.487 0.133931 0.6626 0
M  V30 8593 H 812.041 1.02138 1.78205 0
M  V30 8594 H 810.271 -0.499596 3.83459 0
M  V30 8595 H 811.96 -0.144295 4.05643 0
M  V30 8596 H 812.726 2.33135 4.25292 0
M  V30 8597 H 808.605 1.12464 4.47071 0
M  V30 8598 H 812.149 4.45898 5.36489 0
M  V30 8599 H 808.046 3.24339 5.58099 0
M  V30 8600 H 808.814 5.1749 6.3415 0
M  V30 8601 N 811.477 -1.49425 0.500989 0
M  V30 8602 C 812.387 -2.32899 -0.282011 0
M  V30 8603 C 813.403 -1.44632 -0.967346 0
M  V30 8604 O 814.579 -1.77654 -0.94873 0
M  V30 8605 C 811.644 -3.20069 -1.33253 0
M  V30 8606 C 810.705 -4.24186 -0.660636 0
M  V30 8607 C 809.938 -5.07191 -1.6611 0
M  V30 8608 O 810.161 -4.91712 -2.89094 0
M  V30 8609 O 809.095 -5.8948 -1.21643 0
M  V30 8610 H 812.921 -3.01038 0.401224 0
M  V30 8611 H 810.506 -1.47079 0.262323 0
M  V30 8612 H 812.388 -3.74071 -1.94033 0
M  V30 8613 H 811.063 -2.54625 -1.9987 0
M  V30 8614 H 809.97 -3.74098 -0.0130959 0
M  V30 8615 H 811.303 -4.92186 -0.0369179 0
M  V30 8616 N 812.955 -0.234822 -1.55841 0
M  V30 8617 C 814.18 0.400741 -2.03492 0
M  V30 8618 C 814.605 1.51618 -1.11327 0
M  V30 8619 O 813.963 1.81002 -0.103922 0
M  V30 8620 C 814.011 0.897184 -3.49261 0
M  V30 8621 O 813.115 2.00764 -3.60233 0
M  V30 8622 H 812.456 0.0890023 -0.658008 0
M  V30 8623 H 814.986 -0.357345 -2.01455 0
M  V30 8624 H 814.996 1.20356 -3.89844 0
M  V30 8625 H 813.671 0.0808639 -4.15821 0
M  V30 8626 H 812.248 1.70689 -3.31541 0
M  V30 8627 N 814.433 1.57553 0.0384317 0
M  V30 8628 C 815.396 2.04927 1.02653 0
M  V30 8629 C 816.396 0.951768 1.29607 0
M  V30 8630 O 817.586 1.21568 1.24768 0
M  V30 8631 C 814.718 2.45828 2.36181 0
M  V30 8632 H 815.911 2.93474 0.617508 0
M  V30 8633 H 813.464 1.53679 0.285031 0
M  V30 8634 H 814.199 1.60408 2.8185 0
M  V30 8635 H 813.984 3.25945 2.1795 0
M  V30 8636 H 815.474 2.82939 3.0714 0
M  V30 8637 N 815.911 -0.310526 1.54511 0
M  V30 8638 C 816.841 -1.38757 1.878 0
M  V30 8639 C 817.822 -1.53353 0.735991 0
M  V30 8640 O 819.007 -1.67018 0.990887 0
M  V30 8641 C 816.137 -2.75327 2.11689 0
M  V30 8642 C 815.091 -2.75506 3.27537 0
M  V30 8643 C 814.417 -4.15275 3.36824 0
M  V30 8644 C 815.717 -2.38093 4.64875 0
M  V30 8645 H 817.411 -1.11146 2.78005 0
M  V30 8646 H 814.957 -0.533232 1.33763 0
M  V30 8647 H 816.91 -3.50752 2.33562 0
M  V30 8648 H 815.634 -3.04443 1.18245 0
M  V30 8649 H 814.293 -2.02538 3.05572 0
M  V30 8650 H 813.941 -4.41553 2.40915 0
M  V30 8651 H 813.641 -4.16299 4.14692 0
M  V30 8652 H 815.165 -4.92493 3.60947 0
M  V30 8653 H 816.579 -3.03232 4.86542 0
M  V30 8654 H 814.976 -2.50345 5.45387 0
M  V30 8655 H 816.046 -1.33227 4.66239 0
M  V30 8656 N 817.389 -1.46805 -0.573248 0
M  V30 8657 C 818.299 -1.60687 -1.70929 0
M  V30 8658 C 819.315 -0.490084 -1.66956 0
M  V30 8659 O 820.491 -0.755482 -1.86693 0
M  V30 8660 C 817.556 -1.60259 -3.07438 0
M  V30 8661 C 816.617 -2.83242 -3.22603 0
M  V30 8662 C 815.85 -2.82825 -4.52599 0
M  V30 8663 O 816.073 -1.92113 -5.37074 0
M  V30 8664 O 815.007 -3.74489 -4.71213 0
M  V30 8665 H 818.833 -2.56782 -1.62163 0
M  V30 8666 H 816.418 -1.29706 -0.741399 0
M  V30 8667 H 818.3 -1.6275 -3.88704 0
M  V30 8668 H 816.975 -0.673268 -3.16621 0
M  V30 8669 H 815.882 -2.86302 -2.40794 0
M  V30 8670 H 817.215 -3.75415 -3.18315 0
M  V30 8671 N 818.867 0.818669 -1.34668 0
M  V30 8672 C 820.144 1.56118 -1.17841 0
M  V30 8673 C 820.524 2.09646 0.24731 0
M  V30 8674 O 819.872 1.91329 1.24922 0
M  V30 8675 C 820.082 2.67922 -2.23649 0
M  V30 8676 C 821.43 3.36579 -2.58843 0
M  V30 8677 O 822.454 2.78182 -2.22471 0
M  V30 8678 O 821.313 4.42045 -3.21339 0
M  V30 8679 H 818.407 0.689216 -0.457067 0
M  V30 8680 H 820.953 0.859674 -1.46314 0
M  V30 8681 H 819.725 2.26153 -3.19328 0
M  V30 8682 H 819.348 3.45719 -1.96377 0
M  V30 8683 N 820.346 1.18468 1.03938 0
M  V30 8684 C 821.276 0.936389 2.13902 0
M  V30 8685 C 822.257 -0.126381 1.6963 0
M  V30 8686 O 823.442 0.0264757 1.94182 0
M  V30 8687 C 820.572 0.462729 3.44204 0
M  V30 8688 C 819.526 1.46613 4.02105 0
M  V30 8689 C 818.852 0.84994 5.27902 0
M  V30 8690 C 820.152 2.84323 4.3813 0
M  V30 8691 H 821.846 1.85602 2.3493 0
M  V30 8692 H 819.392 0.893806 1.12903 0
M  V30 8693 H 821.345 0.276382 4.20493 0
M  V30 8694 H 820.069 -0.492477 3.22866 0
M  V30 8695 H 818.728 1.63944 3.27899 0
M  V30 8696 H 818.376 -0.112493 5.02874 0
M  V30 8697 H 818.076 1.51988 5.67603 0
M  V30 8698 H 819.6 0.674152 6.06867 0
M  V30 8699 H 821.014 2.70636 5.054 0
M  V30 8700 H 819.411 3.48012 4.88884 0
M  V30 8701 H 820.481 3.37776 3.47901 0
M  V30 8702 N 821.824 -1.22873 0.986916 0
M  V30 8703 C 822.774 -2.2237 0.503547 0
M  V30 8704 C 823.758 -1.55186 -0.424998 0
M  V30 8705 O 824.95 -1.75186 -0.252791 0
M  V30 8706 C 822.079 -3.42794 -0.186355 0
M  V30 8707 C 821.165 -4.17196 0.762143 0
M  V30 8708 N 821.556 -4.68453 1.9075 0
M  V30 8709 C 819.854 -4.42255 0.576797 0
M  V30 8710 C 820.555 -5.25126 2.50235 0
M  V30 8711 N 819.531 -5.13437 1.7856 0
M  V30 8712 H 823.333 -2.59636 1.37718 0
M  V30 8713 H 820.847 -1.38476 0.848415 0
M  V30 8714 H 822.844 -4.13256 -0.549993 0
M  V30 8715 H 821.504 -3.07042 -1.05619 0
M  V30 8716 H 822.515 -4.64595 2.28848 0
M  V30 8717 H 819.192 -4.16766 -0.247474 0
M  V30 8718 H 820.582 -5.75363 3.46997 0
M  V30 8719 N 823.302 -0.75937 -1.38099 0
M  V30 8720 C 824.527 -0.327859 -2.04792 0
M  V30 8721 C 824.952 1.03752 -1.56899 0
M  V30 8722 O 824.31 1.66235 -0.723581 0
M  V30 8723 C 824.358 -0.366264 -3.58735 0
M  V30 8724 O 823.462 0.637697 -4.0744 0
M  V30 8725 H 822.803 -0.144092 -0.648177 0
M  V30 8726 H 825.333 -1.03211 -1.7666 0
M  V30 8727 H 825.343 -0.219179 -4.07411 0
M  V30 8728 H 824.018 -1.36243 -3.92951 0
M  V30 8729 H 822.595 0.454749 -3.70117 0
M  V30 8730 N 824.78 1.49157 -0.508906 0
M  V30 8731 C 825.727 2.2927 0.265288 0
M  V30 8732 C 826.697 1.3603 0.953162 0
M  V30 8733 O 827.882 1.64989 0.958291 0
M  V30 8734 C 825.022 3.18897 1.31904 0
M  V30 8735 C 824.135 4.27201 0.642144 0
M  V30 8736 C 823.27 5.04033 1.67701 0
M  V30 8737 C 822.309 6.04165 0.982422 0
M  V30 8738 N 821.446 6.74133 1.96186 0
M  V30 8739 H 826.286 2.94967 -0.424107 0
M  V30 8740 H 823.823 1.45431 -0.220991 0
M  V30 8741 H 825.781 3.69242 1.94206 0
M  V30 8742 H 824.411 2.55168 1.97709 0
M  V30 8743 H 823.463 3.80283 -0.0943395 0
M  V30 8744 H 824.775 4.98708 0.0957507 0
M  V30 8745 H 823.929 5.58287 2.37487 0
M  V30 8746 H 822.668 4.32317 2.25728 0
M  V30 8747 H 821.673 5.49135 0.270378 0
M  V30 8748 H 822.898 6.7787 0.408554 0
M  V30 8749 H 820.844 6.05183 2.53159 0
M  V30 8750 H 820.761 7.41643 1.46634 0
M  V30 8751 H 822.029 7.32987 2.65236 0
M  V30 8752 N 826.258 0.243083 1.55714 0
M  V30 8753 C 827.208 -0.671915 2.17875 0
M  V30 8754 C 828.192 -1.14199 1.13347 0
M  V30 8755 O 829.384 -1.09239 1.39269 0
M  V30 8756 C 826.513 -1.87027 2.87881 0
M  V30 8757 C 825.599 -1.41888 3.99661 0
M  V30 8758 N 825.99 -0.681465 5.01188 0
M  V30 8759 C 824.288 -1.70447 4.12145 0
M  V30 8760 C 824.989 -0.448285 5.7997 0
M  V30 8761 N 823.965 -1.01137 5.34109 0
M  V30 8762 H 827.767 -0.100321 2.93729 0
M  V30 8763 H 825.281 0.0452371 1.62337 0
M  V30 8764 H 827.278 -2.53674 3.3084 0
M  V30 8765 H 825.938 -2.44613 2.13529 0
M  V30 8766 H 826.949 -0.331959 5.16835 0
M  V30 8767 H 823.626 -2.29198 3.48962 0
M  V30 8768 H 825.016 0.140141 6.71754 0
M  V30 8769 N 827.736 -1.57571 -0.0300757 0
M  V30 8770 C 828.686 -2.02958 -1.03885 0
M  V30 8771 C 829.67 -0.918723 -1.32092 0
M  V30 8772 O 830.862 -1.18262 -1.31694 0
M  V30 8773 C 827.991 -2.51169 -2.34028 0
M  V30 8774 C 827.077 -3.69073 -2.08915 0
M  V30 8775 N 827.468 -4.81831 -1.53858 0
M  V30 8776 C 825.766 -3.76427 -2.39204 0
M  V30 8777 C 826.467 -5.6346 -1.44526 0
M  V30 8778 N 825.443 -5.08545 -1.92048 0
M  V30 8779 H 829.245 -2.8756 -0.607157 0
M  V30 8780 H 826.759 -1.6067 -0.236399 0
M  V30 8781 H 828.756 -2.81944 -3.07104 0
M  V30 8782 H 827.416 -1.67972 -2.77876 0
M  V30 8783 H 828.427 -5.03291 -1.22142 0
M  V30 8784 H 825.104 -3.04029 -2.86134 0
M  V30 8785 H 826.494 -6.64042 -1.02456 0
M  V30 8786 N 829.214 0.302327 -1.54673 0
M  V30 8787 C 830.454 1.04568 -1.75627 0
M  V30 8788 C 830.818 1.84535 -0.530175 0
M  V30 8789 O 832.019 2.61613 -0.61743 0
M  V30 8790 C 830.29 1.92873 -3.0089 0
M  V30 8791 S 831.849 2.73872 -3.4284 0
M  V30 8792 H 828.667 0.352682 -0.617362 0
M  V30 8793 H 831.269 0.319239 -1.92876 0
M  V30 8794 H 829.973 1.32998 -3.88252 0
M  V30 8795 H 829.504 2.69887 -2.86225 0
M  V30 8796 H 831.519 3.95386 -2.99807 0
M  V30 8797 N 830.692 1.47107 0.565454 0
M  V30 8798 C 831.917 1.57153 1.35343 0
M  V30 8799 C 832.342 0.219247 1.86818 0
M  V30 8800 O 831.7 -0.803539 1.62521 0
M  V30 8801 C 831.748 2.59387 2.50501 0
M  V30 8802 O 830.852 2.14086 3.52478 0
M  V30 8803 H 830.193 0.528209 0.402357 0
M  V30 8804 H 832.723 1.92821 0.684189 0
M  V30 8805 H 832.733 2.79546 2.97184 0
M  V30 8806 H 831.408 3.57579 2.12391 0
M  V30 8807 H 829.985 2.03991 3.12157 0
M  V30 8808 N 832.17 -0.811516 1.35101 0
M  V30 8809 C 833.398 -1.59981 1.31201 0
M  V30 8810 C 833.813 -1.8847 -0.111552 0
M  V30 8811 O 833.17 -1.48414 -1.06205 0
M  V30 8812 C 833.221 -2.934 2.11184 0
M  V30 8813 O 832.942 -2.66148 3.4799 0
M  V30 8814 C 834.443 -3.87776 2.14813 0
M  V30 8815 H 831.663 -0.496921 0.450899 0
M  V30 8816 H 834.207 -1.00886 1.77883 0
M  V30 8817 H 832.362 -3.49022 1.68115 0
M  V30 8818 H 832.776 -3.51301 3.89471 0
M  V30 8819 H 834.25 -4.7852 2.75178 0
M  V30 8820 H 834.727 -4.23997 1.14556 0
M  V30 8821 H 835.333 -3.3809 2.58022 0
M  V30 8822 N 833.648 -1.19017 -1.03309 0
M  V30 8823 C 834.578 -0.94772 -2.13402 0
M  V30 8824 C 835.559 0.117383 -1.69694 0
M  V30 8825 O 836.744 -0.0367733 -1.94165 0
M  V30 8826 C 833.874 -0.480977 -3.43953 0
M  V30 8827 C 832.828 -1.48743 -4.01322 0
M  V30 8828 C 832.154 -0.877924 -5.27443 0
M  V30 8829 C 833.454 -2.86642 -4.36616 0
M  V30 8830 H 835.148 -1.86846 -2.33942 0
M  V30 8831 H 832.694 -0.899781 -1.12427 0
M  V30 8832 H 834.647 -0.298677 -4.2034 0
M  V30 8833 H 833.371 0.475348 -3.23122 0
M  V30 8834 H 832.03 -1.65681 -3.27025 0
M  V30 8835 H 831.678 0.0858232 -5.02927 0
M  V30 8836 H 831.378 -1.54996 -5.66789 0
M  V30 8837 H 832.902 -0.706326 -6.06501 0
M  V30 8838 H 834.316 -2.73312 -5.03958 0
M  V30 8839 H 832.713 -3.50599 -4.87032 0
M  V30 8840 H 833.783 -3.39617 -3.46105 0
M  V30 8841 N 835.127 1.22348 -0.993418 0
M  V30 8842 C 836.074 2.24294 -0.544118 0
M  V30 8843 C 837.044 1.60602 0.42381 0
M  V30 8844 O 838.229 1.87952 0.328453 0
M  V30 8845 C 835.369 3.44837 0.134578 0
M  V30 8846 C 834.482 4.23043 -0.875151 0
M  V30 8847 C 833.617 5.30928 -0.169919 0
M  V30 8848 C 832.656 6.00853 -1.16798 0
M  V30 8849 N 831.793 7.00381 -0.491021 0
M  V30 8850 H 836.633 2.6209 -1.4182 0
M  V30 8851 H 834.17 1.2881 -0.710384 0
M  V30 8852 H 836.128 4.13625 0.544998 0
M  V30 8853 H 834.758 3.07804 0.972446 0
M  V30 8854 H 833.81 3.53546 -1.40389 0
M  V30 8855 H 835.122 4.71237 -1.63516 0
M  V30 8856 H 834.276 6.05972 0.297205 0
M  V30 8857 H 833.015 4.8371 0.622586 0
M  V30 8858 H 832.02 5.24591 -1.64573 0
M  V30 8859 H 833.245 6.50159 -1.96137 0
M  V30 8860 H 831.191 6.55393 0.282037 0
M  V30 8861 H 831.108 7.46584 -1.18947 0
M  V30 8862 H 832.376 7.79486 -0.0467169 0
M  V30 8863 N 836.605 0.766683 1.37694 0
M  V30 8864 C 837.835 0.339446 2.03792 0
M  V30 8865 C 838.243 -1.04153 1.57952 0
M  V30 8866 O 837.586 -1.67521 0.753826 0
M  V30 8867 C 837.648 0.29822 3.58261 0
M  V30 8868 C 837.312 1.62293 4.27212 0
M  V30 8869 C 838.309 2.57447 4.51682 0
M  V30 8870 C 835.994 1.89597 4.65143 0
M  V30 8871 C 837.988 3.78117 5.13134 0
M  V30 8872 C 835.675 3.10538 5.26317 0
M  V30 8873 C 836.673 4.04617 5.50249 0
M  V30 8874 O 836.361 5.23429 6.10145 0
M  V30 8875 H 836.093 0.140952 0.661142 0
M  V30 8876 H 838.647 1.04022 1.77111 0
M  V30 8877 H 836.877 -0.458897 3.83967 0
M  V30 8878 H 838.566 -0.101263 4.05774 0
M  V30 8879 H 839.332 2.37633 4.22795 0
M  V30 8880 H 835.211 1.17199 4.45854 0
M  V30 8881 H 838.755 4.51563 5.3173 0
M  V30 8882 H 834.652 3.3024 5.54628 0
M  V30 8883 H 835.42 5.24187 6.28626 0
M  V30 8884 N 838.083 -1.48885 0.516809 0
M  V30 8885 C 839.015 -2.27357 -0.290061 0
M  V30 8886 C 840.028 -1.34558 -0.916406 0
M  V30 8887 O 841.217 -1.59715 -0.797073 0
M  V30 8888 C 838.317 -3.07496 -1.42476 0
M  V30 8889 C 837.49 -4.27982 -0.902793 0
M  V30 8890 C 836.549 -4.90038 -1.91701 0
M  V30 8891 O 835.575 -5.49643 -1.47922 0
M  V30 8892 N 836.777 -4.811 -3.24843 0
M  V30 8893 H 839.542 -2.97244 0.382884 0
M  V30 8894 H 837.103 -1.58064 0.35032 0
M  V30 8895 H 839.095 -3.45882 -2.10113 0
M  V30 8896 H 837.665 -2.40115 -2.00159 0
M  V30 8897 H 836.885 -3.94167 -0.0508272 0
M  V30 8898 H 838.173 -5.06003 -0.532723 0
M  V30 8899 H 837.571 -4.33801 -3.63088 0
M  V30 8900 H 836.128 -5.23625 -3.8815 0
M  V30 8901 N 839.561 -0.251338 -1.55583 0
M  V30 8902 C 840.509 0.662534 -2.22965 0
M  V30 8903 C 841.503 1.17662 -1.21869 0
M  V30 8904 O 842.709 1.133 -1.39868 0
M  V30 8905 H 839.084 0.232151 -0.715269 0
M  V30 8906 H 841.055 0.0711252 -2.98315 0
M  V30 8907 C 839.804 1.84646 -2.94621 0
M  V30 8908 H 839.127 1.46003 -3.72187 0
M  V30 8909 H 840.567 2.46303 -3.45124 0
M  V30 8910 C 839.026 2.72034 -1.98744 0
M  V30 8911 O 839.556 3.71695 -1.52335 0
M  V30 8912 N 837.762 2.38695 -1.6575 0
M  V30 8913 H 837.309 1.57702 -2.03685 0
M  V30 8914 H 837.267 2.9744 -1.01867 0
M  V30 8915 N 841.039 1.57585 0.0217189 0
M  V30 8916 C 842.288 1.88786 0.710125 0
M  V30 8917 C 842.601 0.850819 1.76126 0
M  V30 8918 O 843.807 1.0523 2.50277 0
M  V30 8919 C 842.263 3.3505 1.31413 0
M  V30 8920 C 841.871 4.47001 0.298959 0
M  V30 8921 C 843.615 3.7539 1.98199 0
M  V30 8922 C 841.522 5.8433 0.911727 0
M  V30 8923 H 840.452 0.704388 0.268986 0
M  V30 8924 H 843.103 1.83466 -0.0352638 0
M  V30 8925 H 841.485 3.35138 2.10947 0
M  V30 8926 H 842.659 4.58395 -0.470203 0
M  V30 8927 H 840.974 4.15542 -0.267222 0
M  V30 8928 H 843.571 4.75314 2.4491 0
M  V30 8929 H 843.914 3.07766 2.80331 0
M  V30 8930 H 844.447 3.77508 1.2543 0
M  V30 8931 H 841.186 6.55372 0.129659 0
M  V30 8932 H 840.706 5.76643 1.65056 0
M  V30 8933 H 842.385 6.31295 1.41688 0
M  V30 8934 N 842.517 -0.29412 1.54831 0
M  V30 8935 C 843.765 -1.02643 1.74094 0
M  V30 8936 C 844.086 -1.87563 0.533402 0
M  V30 8937 O 843.356 -1.9061 -0.452192 0
M  V30 8938 H 841.936 -0.381959 0.641963 0
M  V30 8939 H 844.598 -0.323444 1.92197 0
M  V30 8940 H 843.694 -1.67558 2.63307 0
M  V30 8941 N 843.995 -1.47404 -0.557645 0
M  V30 8942 C 845.406 -1.47872 -1.13977 0
M  V30 8943 C 845.757 -0.233176 -1.94809 0
M  V30 8944 O 844.882 0.661945 -2.06027 0
M  V30 8945 C 845.477 -2.67926 -2.07368 0
M  V30 8946 C 844.036 -2.71354 -2.60852 0
M  V30 8947 C 843.183 -2.40967 -1.37223 0
M  V30 8948 H 846.134 -1.54921 -0.344268 0
M  V30 8949 H 846.155 -2.44871 -2.91236 0
M  V30 8950 H 845.667 -3.58562 -1.48509 0
M  V30 8951 H 843.768 -1.84855 -3.23511 0
M  V30 8952 H 843.881 -3.72032 -3.01876 0
M  V30 8953 H 842.245 -1.91541 -1.67882 0
M  V30 8954 H 843.028 -3.33811 -0.801583 0
M  V30 8955 N 845.473 0.80434 -1.35529 0
M  V30 8956 C 846.42 1.91629 -1.28635 0
M  V30 8957 C 847.39 1.65348 -0.157862 0
M  V30 8958 O 848.575 1.87711 -0.341934 0
M  V30 8959 C 845.715 3.28207 -1.0665 0
M  V30 8960 C 844.828 3.66659 -2.28441 0
M  V30 8961 C 843.963 4.92279 -1.99588 0
M  V30 8962 C 843.002 5.23365 -3.1742 0
M  V30 8963 N 842.139 6.40165 -2.88328 0
M  V30 8964 H 846.979 1.96858 -2.23721 0
M  V30 8965 H 844.516 0.962871 -1.11208 0
M  V30 8966 H 846.474 4.06945 -0.919343 0
M  V30 8967 H 845.104 3.22441 -0.152253 0
M  V30 8968 H 844.156 2.83164 -2.54013 0
M  V30 8969 H 845.468 3.8559 -3.1642 0
M  V30 8970 H 844.622 5.78847 -1.81715 0
M  V30 8971 H 843.361 4.75387 -1.08896 0
M  V30 8972 H 842.366 4.35285 -3.35867 0
M  V30 8973 H 843.591 5.42185 -4.08916 0
M  V30 8974 H 841.537 6.24694 -2.00233 0
M  V30 8975 H 841.454 6.59357 -3.69843 0
M  V30 8976 H 842.722 7.29755 -2.74002 0
M  V30 8977 N 846.951 1.19563 1.02676 0
M  V30 8978 C 847.883 0.893054 2.11086 0
M  V30 8979 C 848.896 -0.115101 1.62393 0
M  V30 8980 O 850.085 0.11459 1.78132 0
M  V30 8981 C 847.185 0.315533 3.37428 0
M  V30 8982 C 846.358 1.37276 4.153 0
M  V30 8983 C 845.417 0.808398 5.19953 0
M  V30 8984 O 844.443 1.48661 5.49444 0
M  V30 8985 N 845.645 -0.387253 5.79207 0
M  V30 8986 H 848.41 1.82622 2.37633 0
M  V30 8987 H 845.971 1.09792 1.18984 0
M  V30 8988 H 847.963 -0.0759166 4.04629 0
M  V30 8989 H 846.533 -0.521961 3.08211 0
M  V30 8990 H 845.753 1.93897 3.43217 0
M  V30 8991 H 847.041 2.08509 4.64114 0
M  V30 8992 H 846.439 -0.955725 5.57568 0
M  V30 8993 H 844.996 -0.720457 6.47806 0
M  V30 8994 N 848.429 -1.21819 0.999893 0
M  V30 8995 C 849.379 -2.21823 0.527104 0
M  V30 8996 C 850.363 -1.55628 -0.408515 0
M  V30 8997 O 851.555 -1.75444 -0.234196 0
M  V30 8998 C 848.684 -3.42972 -0.149986 0
M  V30 8999 C 847.77 -4.16364 0.806349 0
M  V30 9000 N 848.161 -4.66403 1.95708 0
M  V30 9001 C 846.459 -4.41618 0.623672 0
M  V30 9002 C 847.16 -5.22443 2.5579 0
M  V30 9003 N 846.136 -5.11514 1.83995 0
M  V30 9004 H 849.938 -2.58161 1.40464 0
M  V30 9005 H 847.452 -1.37569 0.863054 0
M  V30 9006 H 849.449 -4.13816 -0.50613 0
M  V30 9007 H 848.109 -3.08145 -1.02357 0
M  V30 9008 H 849.12 -4.62142 2.33763 0
M  V30 9009 H 845.797 -4.17005 -0.203257 0
M  V30 9010 H 847.187 -5.7165 3.5308 0
M  V30 9011 N 849.908 -0.773975 -1.37286 0
M  V30 9012 C 851.319 -0.404433 -1.82267 0
M  V30 9013 C 851.67 1.06971 -1.64474 0
M  V30 9014 O 850.795 1.82867 -1.15708 0
M  V30 9015 C 851.39 -0.727298 -3.30902 0
M  V30 9016 C 849.949 -0.410784 -3.74152 0
M  V30 9017 C 849.096 -0.969983 -2.59782 0
M  V30 9018 H 852.047 -0.968437 -1.25726 0
M  V30 9019 H 852.068 -0.0127575 -3.80498 0
M  V30 9020 H 851.58 -1.80026 -3.4382 0
M  V30 9021 H 849.681 0.65477 -3.66802 0
M  V30 9022 H 849.794 -0.920592 -4.70172 0
M  V30 9023 H 848.158 -0.394094 -2.51633 0
M  V30 9024 H 848.941 -2.04839 -2.75492 0
M  V30 9025 N 851.386 1.48609 -0.524698 0
M  V30 9026 C 852.296 2.33318 0.244923 0
M  V30 9027 C 853.312 1.46153 0.944214 0
M  V30 9028 O 854.488 1.79141 0.920347 0
M  V30 9029 C 851.553 3.22149 1.28144 0
M  V30 9030 C 850.614 4.25184 0.593068 0
M  V30 9031 C 849.847 5.0977 1.5802 0
M  V30 9032 O 850.07 4.96249 2.81235 0
M  V30 9033 O 849.004 5.9134 1.1225 0
M  V30 9034 H 852.83 3.00362 -0.449066 0
M  V30 9035 H 850.415 1.46643 -0.285689 0
M  V30 9036 H 852.297 3.77111 1.88057 0
M  V30 9037 H 850.972 2.57772 1.95793 0
M  V30 9038 H 849.879 3.74071 -0.0464214 0
M  V30 9039 H 851.212 4.92183 -0.0413893 0
M  V30 9040 N 852.864 0.259585 1.55447 0
M  V30 9041 C 854.141 -0.412595 1.91199 0
M  V30 9042 C 854.521 -1.74909 1.18194 0
M  V30 9043 O 853.869 -2.26474 0.303603 0
M  V30 9044 C 854.079 -0.568195 3.44344 0
M  V30 9045 C 855.427 -0.858253 4.15836 0
M  V30 9046 O 856.451 -0.653588 3.50152 0
M  V30 9047 O 855.31 -1.24874 5.32042 0
M  V30 9048 H 852.404 -0.223403 0.796254 0
M  V30 9049 H 854.95 0.30459 1.66944 0
M  V30 9050 H 853.722 0.372989 3.89518 0
M  V30 9051 H 853.345 -1.33544 3.74502 0
M  V30 9052 N 854.342 -1.57594 -0.0133615 0
M  V30 9053 C 855.753 -1.78168 -0.557937 0
M  V30 9054 C 856.104 -0.892616 -1.74719 0
M  V30 9055 O 855.229 -0.0915491 -2.16206 0
M  V30 9056 C 855.824 -3.23115 -1.01894 0
M  V30 9057 C 854.383 -3.44831 -1.50892 0
M  V30 9058 C 853.53 -2.73558 -0.454044 0
M  V30 9059 H 856.481 -1.57266 0.212843 0
M  V30 9060 H 856.502 -3.30493 -1.8856 0
M  V30 9061 H 856.014 -3.87798 -0.153175 0
M  V30 9062 H 854.115 -2.85345 -2.39602 0
M  V30 9063 H 854.228 -4.53485 -1.54559 0
M  V30 9064 H 852.592 -2.37787 -0.912666 0
M  V30 9065 H 853.375 -3.40932 0.402524 0
M  V30 9066 N 855.82 0.285905 -1.54985 0
M  V30 9067 C 857.069 1.01691 -1.74189 0
M  V30 9068 C 857.382 1.87908 -0.543135 0
M  V30 9069 O 858.588 2.64389 -0.617305 0
M  V30 9070 C 857.044 1.85785 -3.0824 0
M  V30 9071 C 856.652 1.04497 -4.35642 0
M  V30 9072 C 858.396 2.58393 -3.36798 0
M  V30 9073 C 856.303 1.87955 -5.60738 0
M  V30 9074 H 855.233 0.383396 -0.649248 0
M  V30 9075 H 857.884 0.27317 -1.81455 0
M  V30 9076 H 856.266 2.64205 -2.94978 0
M  V30 9077 H 857.44 0.305847 -4.59784 0
M  V30 9078 H 855.755 0.434023 -4.14132 0
M  V30 9079 H 858.352 3.21214 -4.27464 0
M  V30 9080 H 858.695 3.28011 -2.56349 0
M  V30 9081 H 859.228 1.87012 -3.511 0
M  V30 9082 H 855.967 1.22781 -6.43898 0
M  V30 9083 H 855.487 2.59499 -5.40759 0
M  V30 9084 H 857.166 2.45636 -5.98558 0
M  V30 9085 N 857.298 1.47698 0.54982 0
M  V30 9086 C 858.546 1.54397 1.30407 0
M  V30 9087 C 858.867 0.211026 1.93855 0
M  V30 9088 O 858.137 -0.765701 1.80316 0
M  V30 9089 H 856.717 0.568747 0.484289 0
M  V30 9090 H 859.379 1.84042 0.641444 0
M  V30 9091 H 858.475 2.31449 2.09375 0
M  V30 9092 N 858.776 -0.797141 1.35954 0
M  V30 9093 C 859.726 -1.89899 1.26184 0
M  V30 9094 C 860.71 -1.60152 0.155007 0
M  V30 9095 O 861.902 -1.72715 0.387108 0
M  V30 9096 C 859.031 -3.2699 1.04559 0
M  V30 9097 C 858.117 -3.62772 2.19675 0
M  V30 9098 N 858.508 -3.6992 3.44953 0
M  V30 9099 C 856.806 -3.92786 2.1127 0
M  V30 9100 C 857.507 -4.01718 4.20711 0
M  V30 9101 N 856.483 -4.16298 3.49567 0
M  V30 9102 H 860.285 -1.9364 2.2109 0
M  V30 9103 H 857.799 -0.992246 1.28562 0
M  V30 9104 H 859.796 -4.0578 0.956474 0
M  V30 9105 H 858.456 -3.24529 0.105467 0
M  V30 9106 H 859.467 -3.52759 3.79185 0
M  V30 9107 H 856.144 -3.98295 1.25168 0
M  V30 9108 H 857.534 -4.14237 5.29016 0
M  V30 9109 N 860.254 -1.20106 -1.0204 0
M  V30 9110 C 861.665 -1.00992 -1.57027 0
M  V30 9111 C 862.016 0.434782 -1.91322 0
M  V30 9112 O 861.141 1.31557 -1.71819 0
M  V30 9113 C 861.736 -1.82697 -2.85319 0
M  V30 9114 C 860.295 -1.67959 -3.36848 0
M  V30 9115 C 859.442 -1.80868 -2.10195 0
M  V30 9116 H 862.393 -1.34354 -0.844676 0
M  V30 9117 H 862.414 -1.32809 -3.5657 0
M  V30 9118 H 861.926 -2.87839 -2.60328 0
M  V30 9119 H 860.027 -0.654389 -3.66809 0
M  V30 9120 H 860.14 -2.49006 -4.09308 0
M  V30 9121 H 858.504 -1.24015 -2.22469 0
M  V30 9122 H 859.287 -2.87486 -1.87635 0
M  V30 9123 N 861.732 1.21287 -1.00634 0
M  V30 9124 C 862.981 1.89706 -0.685178 0
M  V30 9125 C 863.294 1.79044 0.787566 0
M  V30 9126 O 864.5 2.42502 1.22086 0
M  V30 9127 C 862.956 3.40176 -1.17508 0
M  V30 9128 C 862.564 3.59446 -2.674 0
M  V30 9129 C 864.308 4.14213 -0.928869 0
M  V30 9130 C 862.215 5.03688 -3.09923 0
M  V30 9131 H 861.145 0.710434 -0.252586 0
M  V30 9132 H 863.796 1.37277 -1.21768 0
M  V30 9133 H 862.178 3.91867 -0.570622 0
M  V30 9134 H 863.352 3.18188 -3.33306 0
M  V30 9135 H 861.667 2.98764 -2.9005 0
M  V30 9136 H 864.264 5.20546 -1.22212 0
M  V30 9137 H 864.607 4.16082 0.134859 0
M  V30 9138 H 865.14 3.68591 -1.49619 0
M  V30 9139 H 861.879 5.06968 -4.15529 0
M  V30 9140 H 861.399 5.45796 -2.4873 0
M  V30 9141 H 863.078 5.72204 -3.0198 0
M  V30 9142 N 863.21 0.781244 1.36873 0
M  V30 9143 C 864.143 0.120106 2.27884 0
M  V30 9144 C 865.121 -0.698961 1.4681 0
M  V30 9145 O 866.305 -0.671694 1.76126 0
M  V30 9146 C 863.432 -0.835804 3.28226 0
M  V30 9147 C 862.478 -0.0995527 4.26384 0
M  V30 9148 S 863.311 1.21903 5.2144 0
M  V30 9149 C 864.467 0.266904 6.25331 0
M  V30 9150 H 864.7 0.891796 2.83609 0
M  V30 9151 H 862.233 0.575075 1.43291 0
M  V30 9152 H 864.191 -1.3819 3.86541 0
M  V30 9153 H 862.852 -1.58068 2.71428 0
M  V30 9154 H 862.045 -0.82457 4.97209 0
M  V30 9155 H 861.647 0.375818 3.72107 0
M  V30 9156 H 863.939 -0.55725 6.75204 0
M  V30 9157 H 864.882 0.943603 7.01785 0
M  V30 9158 H 865.29 -0.126121 5.64359 0
M  V30 9159 N 864.689 -1.48329 0.532571 0
M  V30 9160 C 865.639 -2.2664 -0.24868 0
M  V30 9161 C 866.623 -1.32861 -0.907563 0
M  V30 9162 O 867.815 -1.57382 -0.809942 0
M  V30 9163 C 864.944 -3.18004 -1.29339 0
M  V30 9164 C 864.03 -4.19256 -0.639166 0
M  V30 9165 N 864.421 -5.05043 0.276597 0
M  V30 9166 C 862.719 -4.36906 -0.896062 0
M  V30 9167 C 863.42 -5.78009 0.654261 0
M  V30 9168 N 862.396 -5.43598 0.0147447 0
M  V30 9169 H 866.198 -2.90344 0.455792 0
M  V30 9170 H 863.712 -1.58566 0.350778 0
M  V30 9171 H 865.709 -3.72767 -1.86682 0
M  V30 9172 H 864.369 -2.55855 -1.99921 0
M  V30 9173 H 865.38 -5.13813 0.649351 0
M  V30 9174 H 862.057 -3.85945 -1.59226 0
M  V30 9175 H 863.447 -6.57039 1.40532 0
M  V30 9176 N 866.167 -0.267825 -1.55308 0
M  V30 9177 C 867.097 0.616585 -2.25212 0
M  V30 9178 C 868.078 1.16472 -1.23969 0
M  V30 9179 O 869.263 1.20021 -1.52672 0
M  V30 9180 C 866.393 1.80412 -2.96764 0
M  V30 9181 C 865.347 1.38784 -4.04874 0
M  V30 9182 C 864.673 2.65789 -4.63961 0
M  V30 9183 C 865.973 0.543415 -5.19465 0
M  V30 9184 H 867.667 0.0336257 -2.99381 0
M  V30 9185 H 865.213 0.0147328 -1.43992 0
M  V30 9186 H 867.166 2.42866 -3.44375 0
M  V30 9187 H 865.89 2.4128 -2.20118 0
M  V30 9188 H 864.549 0.786541 -3.58063 0
M  V30 9189 H 864.197 3.24899 -3.83992 0
M  V30 9190 H 863.897 2.38651 -5.36954 0
M  V30 9191 H 865.421 3.29104 -5.14318 0
M  V30 9192 H 866.835 1.07277 -5.63174 0
M  V30 9193 H 865.232 0.367219 -5.98975 0
M  V30 9194 H 866.302 -0.439534 -4.82904 0
M  V30 9195 N 867.645 1.57599 0.00500368 0
M  V30 9196 C 868.87 1.95026 0.705663 0
M  V30 9197 C 869.295 0.869643 1.6679 0
M  V30 9198 O 868.653 -0.172659 1.80476 0
M  V30 9199 C 868.701 3.31545 1.4181 0
M  V30 9200 O 867.805 3.25495 2.53232 0
M  V30 9201 H 867.146 0.636808 0.188074 0
M  V30 9202 H 869.676 2.04547 -0.046696 0
M  V30 9203 H 869.686 3.66996 1.78265 0
M  V30 9204 H 868.361 4.09751 0.712543 0
M  V30 9205 H 866.938 3.01714 2.19142 0
M  V30 9206 N 869.123 -0.277682 1.55134 0
M  V30 9207 C 870.371 -1.00791 1.75173 0
M  V30 9208 C 870.692 -1.86987 0.553266 0
M  V30 9209 O 869.962 -1.91079 -0.43195 0
M  V30 9210 H 868.542 -0.375129 0.645978 0
M  V30 9211 H 871.204 -0.303041 1.9253 0
M  V30 9212 H 870.3 -1.64756 2.6507 0
M  V30 9213 N 870.601 -1.47988 -0.541979 0
M  V30 9214 C 871.847 -1.55623 -1.30036 0
M  V30 9215 C 872.18 -0.224254 -1.92901 0
M  V30 9216 O 871.455 0.768629 -1.78668 0
M  V30 9217 C 871.738 -2.68562 -2.39888 0
M  V30 9218 C 871.591 -4.11426 -1.81792 0
M  V30 9219 C 872.91 -2.77325 -3.41729 0
M  V30 9220 H 870.029 -0.566498 -0.471433 0
M  V30 9221 H 872.671 -1.8011 -0.604998 0
M  V30 9222 H 870.821 -2.47814 -2.992 0
M  V30 9223 H 872.493 -4.43581 -1.26624 0
M  V30 9224 H 870.736 -4.18989 -1.12386 0
M  V30 9225 H 871.407 -4.8625 -2.61276 0
M  V30 9226 H 873.883 -2.96085 -2.92357 0
M  V30 9227 H 872.759 -3.58097 -4.16002 0
M  V30 9228 H 873.02 -1.84995 -4.01534 0
M  V30 9229 N 872.079 0.78992 -1.36375 0
M  V30 9230 C 873.026 1.90254 -1.3066 0
M  V30 9231 C 873.996 1.65171 -0.17539 0
M  V30 9232 O 875.181 1.87338 -0.361824 0
M  V30 9233 C 872.321 3.27057 -1.10125 0
M  V30 9234 C 871.434 3.64215 -2.32317 0
M  V30 9235 C 870.569 4.90134 -2.04798 0
M  V30 9236 C 869.608 5.19969 -3.22953 0
M  V30 9237 N 868.745 6.37071 -2.95102 0
M  V30 9238 H 873.585 1.94474 -2.25796 0
M  V30 9239 H 871.122 0.951022 -1.12223 0
M  V30 9240 H 873.08 4.05947 -0.962453 0
M  V30 9241 H 871.71 3.22261 -0.186444 0
M  V30 9242 H 870.762 2.80454 -2.57002 0
M  V30 9243 H 872.074 3.82212 -3.20492 0
M  V30 9244 H 871.228 5.76888 -1.87845 0
M  V30 9245 H 869.967 4.74205 -1.13932 0
M  V30 9246 H 868.972 4.31699 -3.40465 0
M  V30 9247 H 870.197 5.37817 -4.14644 0
M  V30 9248 H 868.143 6.22535 -2.06848 0
M  V30 9249 H 868.06 6.55398 -3.76815 0
M  V30 9250 H 869.328 7.26808 -2.81727 0
M  V30 9251 N 873.557 1.20646 1.01402 0
M  V30 9252 C 874.507 0.925209 2.08384 0
M  V30 9253 C 875.491 -0.115994 1.60481 0
M  V30 9254 O 876.683 0.0917276 1.76762 0
M  V30 9255 C 873.812 0.48193 3.399 0
M  V30 9256 C 872.898 1.5567 3.94497 0
M  V30 9257 N 873.289 2.77971 4.2257 0
M  V30 9258 C 871.587 1.42347 4.22674 0
M  V30 9259 C 872.288 3.47317 4.66632 0
M  V30 9260 N 871.264 2.74736 4.69064 0
M  V30 9261 H 875.066 1.85452 2.28002 0
M  V30 9262 H 872.58 1.10084 1.19395 0
M  V30 9263 H 874.577 0.261835 4.16077 0
M  V30 9264 H 873.237 -0.440725 3.21695 0
M  V30 9265 H 874.248 3.14598 4.11398 0
M  V30 9266 H 870.925 0.565417 4.13654 0
M  V30 9267 H 872.315 4.51985 4.97151 0
M  V30 9268 N 875.035 -1.20752 1.01276 0
M  V30 9269 C 875.998 -2.2162 0.584583 0
M  V30 9270 C 876.998 -1.57094 -0.343215 0
M  V30 9271 O 878.188 -1.73696 -0.132433 0
M  V30 9272 C 875.32 -3.40583 -0.146872 0
M  V30 9273 H 876.513 -2.61015 1.47686 0
M  V30 9274 H 874.066 -1.34148 0.802123 0
M  V30 9275 H 874.801 -3.06686 -1.05424 0
M  V30 9276 H 874.586 -3.88642 0.51958 0
M  V30 9277 H 876.076 -4.15339 -0.433924 0
M  V30 9278 N 876.513 -0.788492 -1.36457 0
M  V30 9279 C 877.741 -0.372365 -2.03522 0
M  V30 9280 C 878.156 1.01093 -1.59454 0
M  V30 9281 O 877.513 1.64824 -0.783535 0
M  V30 9282 C 877.564 -0.425435 -3.58988 0
M  V30 9283 O 877.285 -1.75418 -4.01448 0
M  V30 9284 C 878.786 0.000180167 -4.433 0
M  V30 9285 H 876.006 -0.1536 -0.653183 0
M  V30 9286 H 878.55 -1.06708 -1.74452 0
M  V30 9287 H 876.705 0.220856 -3.8677 0
M  V30 9288 H 877.119 -1.70437 -4.96036 0
M  V30 9289 H 878.593 -0.0880919 -5.5193 0
M  V30 9290 H 879.07 1.05269 -4.26398 0
M  V30 9291 H 879.676 -0.618563 -4.20778 0
M  V30 9292 N 877.991 1.48044 -0.54043 0
M  V30 9293 C 879.239 2.02097 -0.0101367 0
M  V30 9294 C 879.56 1.41881 1.33771 0
M  V30 9295 O 878.83 0.587923 1.8687 0
M  V30 9296 H 877.41 0.747 -0.000758716 0
M  V30 9297 H 880.072 1.81639 -0.706634 0
M  V30 9298 H 879.168 3.11969 0.0904474 0
M  V30 9299 N 879.47 0.276058 1.55163 0
M  V30 9300 C 880.38 -0.621066 2.2623 0
M  V30 9301 C 881.396 -1.16931 1.28853 0
M  V30 9302 O 882.572 -1.1994 1.61791 0
M  V30 9303 C 879.637 -1.78824 2.97023 0
M  V30 9304 C 878.698 -1.27657 4.09881 0
M  V30 9305 C 877.931 -2.38812 4.77289 0
M  V30 9306 O 878.154 -3.58188 4.43912 0
M  V30 9307 O 877.088 -2.06915 5.65217 0
M  V30 9308 H 880.914 -0.0453346 3.03666 0
M  V30 9309 H 878.499 0.0434275 1.49337 0
M  V30 9310 H 880.381 -2.46877 3.41511 0
M  V30 9311 H 879.056 -2.35104 2.22503 0
M  V30 9312 H 877.963 -0.56248 3.69847 0
M  V30 9313 H 879.296 -0.759509 4.86305 0
M  V30 9314 N 880.948 -1.576 0.00335426 0
M  V30 9315 C 881.911 -2.07576 -0.971838 0
M  V30 9316 C 882.911 -0.985796 -1.27038 0
M  V30 9317 O 884.101 -1.24833 -1.21501 0
M  V30 9318 C 881.233 -2.52003 -2.29581 0
M  V30 9319 H 882.426 -2.95008 -0.539481 0
M  V30 9320 H 879.979 -1.54381 -0.244186 0
M  V30 9321 H 880.714 -1.67825 -2.77498 0
M  V30 9322 H 880.499 -3.31609 -2.09231 0
M  V30 9323 H 881.989 -2.90983 -2.99531 0
M  V30 9324 N 882.426 0.269451 -1.5528 0
M  V30 9325 C 883.675 0.998381 -1.75258 0
M  V30 9326 C 883.988 1.87321 -0.563034 0
M  V30 9327 O 885.194 2.63719 -0.645313 0
M  V30 9328 C 883.65 1.82505 -3.10193 0
M  V30 9329 C 883.258 0.99871 -4.36726 0
M  V30 9330 C 885.002 2.54807 -3.3952 0
M  V30 9331 C 882.909 1.81997 -5.627 0
M  V30 9332 H 881.839 0.376488 -0.653278 0
M  V30 9333 H 884.49 0.253909 -1.81735 0
M  V30 9334 H 882.872 2.61061 -2.97763 0
M  V30 9335 H 884.046 0.257064 -4.60082 0
M  V30 9336 H 882.361 0.390074 -4.14569 0
M  V30 9337 H 884.958 3.16662 -4.30847 0
M  V30 9338 H 885.301 3.25273 -2.59813 0
M  V30 9339 H 885.834 1.83278 -3.53064 0
M  V30 9340 H 882.573 1.15945 -6.45164 0
M  V30 9341 H 882.093 2.53749 -5.43481 0
M  V30 9342 H 883.772 2.39274 -6.0113 0
M  V30 9343 N 883.904 1.48273 0.534124 0
M  V30 9344 C 885.134 1.59503 1.31311 0
M  V30 9345 C 885.542 0.25284 1.87503 0
M  V30 9346 O 884.885 -0.767399 1.66903 0
M  V30 9347 C 884.947 2.57899 2.50456 0
M  V30 9348 C 884.611 4.03063 2.15382 0
M  V30 9349 C 885.608 4.90869 1.713 0
M  V30 9350 C 883.293 4.4857 2.26032 0
M  V30 9351 C 885.287 6.22209 1.38328 0
M  V30 9352 C 882.974 5.79932 1.92672 0
M  V30 9353 C 883.972 6.66574 1.4889 0
M  V30 9354 O 883.66 7.95492 1.15966 0
M  V30 9355 H 883.392 0.540695 0.405739 0
M  V30 9356 H 885.946 1.94794 0.651497 0
M  V30 9357 H 884.176 2.1772 3.19585 0
M  V30 9358 H 885.865 2.59008 3.12522 0
M  V30 9359 H 886.631 4.56951 1.62545 0
M  V30 9360 H 882.51 3.81321 2.59066 0
M  V30 9361 H 886.054 6.89792 1.04082 0
M  V30 9362 H 881.951 6.13386 2.01066 0
M  V30 9363 H 882.719 8.08207 1.29399 0
M  V30 9364 N 885.382 -0.782676 1.36792 0
M  V30 9365 C 886.622 -1.55396 1.32784 0
M  V30 9366 C 886.986 -1.91789 -0.0900272 0
M  V30 9367 O 888.187 -2.6759 -0.254725 0
M  V30 9368 C 886.458 -2.79227 2.23085 0
M  V30 9369 S 888.017 -3.69404 2.36825 0
M  V30 9370 H 884.835 -0.532139 0.471539 0
M  V30 9371 H 887.437 -0.921285 1.72431 0
M  V30 9372 H 886.141 -2.50553 3.25041 0
M  V30 9373 H 885.672 -3.47462 1.84482 0
M  V30 9374 H 887.687 -4.70683 1.57074 0
M  V30 9375 N 886.86 -1.21182 -1.00761 0
M  V30 9376 C 888.137 -0.936297 -1.71735 0
M  V30 9377 C 888.517 0.552585 -2.03739 0
M  V30 9378 O 887.865 1.51672 -1.70903 0
M  V30 9379 C 888.075 -1.81867 -2.97868 0
M  V30 9380 C 889.423 -2.06594 -3.7095 0
M  V30 9381 O 890.447 -1.79194 -3.07844 0
M  V30 9382 O 889.306 -2.5292 -4.84452 0
M  V30 9383 H 886.4 -0.350867 -0.74888 0
M  V30 9384 H 888.946 -1.32098 -1.06527 0
M  V30 9385 H 887.718 -2.82643 -2.70607 0
M  V30 9386 H 887.341 -1.43463 -3.70815 0
M  V30 9387 N 888.338 1.20213 -1.01915 0
M  V30 9388 C 889.615 1.85348 -0.62495 0
M  V30 9389 C 889.995 1.91101 0.896854 0
M  V30 9390 O 889.343 1.42075 1.78961 0
M  V30 9391 C 889.553 3.24849 -1.27571 0
M  V30 9392 C 890.901 4.01107 -1.39277 0
M  V30 9393 O 891.925 3.34211 -1.23212 0
M  V30 9394 O 890.784 5.20914 -1.6526 0
M  V30 9395 H 887.878 0.798303 -0.215965 0
M  V30 9396 H 890.424 1.27782 -1.11669 0
M  V30 9397 H 889.196 3.1544 -2.31545 0
M  V30 9398 H 888.819 3.90049 -0.77122 0
M  V30 9399 N 889.816 0.795718 1.36037 0
M  V30 9400 C 890.749 0.144269 2.27744 0
M  V30 9401 C 891.727 -0.683351 1.47543 0
M  V30 9402 O 892.911 -0.652976 1.76829 0
M  V30 9403 C 890.038 -0.800944 3.29094 0
M  V30 9404 C 889.084 -0.0543234 4.26465 0
M  V30 9405 S 889.917 1.27426 5.20118 0
M  V30 9406 C 891.073 0.333213 6.25012 0
M  V30 9407 H 891.306 0.921827 2.82648 0
M  V30 9408 H 888.839 0.590241 1.42673 0
M  V30 9409 H 890.797 -1.34082 3.87985 0
M  V30 9410 H 889.458 -1.5518 2.7309 0
M  V30 9411 H 888.651 -0.771788 4.98056 0
M  V30 9412 H 888.253 0.415264 3.71687 0
M  V30 9413 H 890.545 -0.485604 6.75757 0
M  V30 9414 H 891.488 1.01798 7.00744 0
M  V30 9415 H 891.896 -0.066256 5.64461 0
M  V30 9416 N 891.294 -1.47756 0.548274 0
M  V30 9417 C 892.705 -1.8636 0.112547 0
M  V30 9418 C 893.056 -1.45589 -1.31523 0
M  V30 9419 O 892.181 -0.854874 -1.98799 0
M  V30 9420 C 892.776 -3.38224 0.197473 0
M  V30 9421 C 891.335 -3.75954 -0.183163 0
M  V30 9422 C 890.482 -2.7181 0.549059 0
M  V30 9423 H 893.433 -1.394 0.758506 0
M  V30 9424 H 893.454 -3.75957 -0.586217 0
M  V30 9425 H 892.966 -3.67868 1.23673 0
M  V30 9426 H 891.067 -3.51926 -1.22387 0
M  V30 9427 H 891.18 -4.78801 0.169178 0
M  V30 9428 H 889.544 -2.54699 -0.00682862 0
M  V30 9429 H 890.327 -3.04296 1.5893 0
M  V30 9430 N 892.772 -0.284283 -1.55015 0
M  V30 9431 C 893.702 0.592663 -2.25853 0
M  V30 9432 C 894.683 1.15151 -1.25197 0
M  V30 9433 O 895.868 1.18395 -1.53936 0
M  V30 9434 C 892.998 1.77254 -2.98661 0
M  V30 9435 C 891.952 1.34482 -4.06323 0
M  V30 9436 C 891.278 2.60853 -4.66754 0
M  V30 9437 C 892.578 0.488288 -5.20013 0
M  V30 9438 H 894.272 0.00187041 -2.994 0
M  V30 9439 H 891.818 -0.000540402 -1.44 0
M  V30 9440 H 893.771 2.39199 -3.46932 0
M  V30 9441 H 892.495 2.38931 -2.22664 0
M  V30 9442 H 891.154 0.748519 -3.58877 0
M  V30 9443 H 890.802 3.20808 -3.87416 0
M  V30 9444 H 890.502 2.32942 -5.39455 0
M  V30 9445 H 892.026 3.23631 -5.1778 0
M  V30 9446 H 893.44 1.01298 -5.6428 0
M  V30 9447 H 891.837 0.303669 -5.99331 0
M  V30 9448 H 892.907 -0.490727 -4.8241 0
M  V30 9449 N 894.251 1.57596 -0.0117121 0
M  V30 9450 C 895.497 1.91355 0.671661 0
M  V30 9451 C 895.83 0.886818 1.72769 0
M  V30 9452 O 895.105 -0.0928813 1.94278 0
M  V30 9453 C 895.388 3.35657 1.30409 0
M  V30 9454 C 895.241 4.49055 0.2588 0
M  V30 9455 C 896.56 3.79595 2.22701 0
M  V30 9456 H 893.679 0.695893 0.242698 0
M  V30 9457 H 896.321 1.89887 -0.0654071 0
M  V30 9458 H 894.471 3.37038 1.9323 0
M  V30 9459 H 896.143 4.59809 -0.370631 0
M  V30 9460 H 894.386 4.31785 -0.417672 0
M  V30 9461 H 895.057 5.4701 0.740578 0
M  V30 9462 H 897.533 3.7984 1.69885 0
M  V30 9463 H 896.409 4.81292 2.63912 0
M  V30 9464 H 896.67 3.14118 3.11098 0
M  V30 9465 N 895.729 -0.261212 1.5542 0
M  V30 9466 C 897.006 -1.01321 1.67312 0
M  V30 9467 C 897.386 -2.0388 0.547356 0
M  V30 9468 O 896.734 -2.24003 -0.451083 0
M  V30 9469 C 896.944 -1.65943 3.07024 0
M  V30 9470 C 898.292 -2.16666 3.65159 0
M  V30 9471 O 899.316 -1.75909 3.09733 0
M  V30 9472 O 898.175 -2.91455 4.62294 0
M  V30 9473 H 895.269 -0.470714 0.679968 0
M  V30 9474 H 897.815 -0.256133 1.67756 0
M  V30 9475 H 896.587 -0.916868 3.80407 0
M  V30 9476 H 896.21 -2.48308 3.1053 0
M  V30 9477 N 897.207 -1.48554 -0.526253 0
M  V30 9478 C 898.139 -1.59446 -1.6465 0
M  V30 9479 C 899.152 -0.478525 -1.55608 0
M  V30 9480 O 900.341 -0.74953 -1.62001 0
M  V30 9481 C 897.441 -1.51164 -3.03319 0
M  V30 9482 C 896.614 -2.77861 -3.37805 0
M  V30 9483 C 895.673 -2.62982 -4.5577 0
M  V30 9484 O 894.699 -3.36876 -4.58806 0
M  V30 9485 N 895.901 -1.72847 -5.5417 0
M  V30 9486 H 898.666 -2.56055 -1.55743 0
M  V30 9487 H 896.227 -1.45325 -0.713606 0
M  V30 9488 H 898.219 -1.389 -3.80117 0
M  V30 9489 H 896.789 -0.625147 -3.06285 0
M  V30 9490 H 896.009 -3.04663 -2.50149 0
M  V30 9491 H 897.297 -3.61908 -3.57632 0
M  V30 9492 H 896.695 -1.12022 -5.54498 0
M  V30 9493 H 895.252 -1.6652 -6.3017 0
M  V30 9494 N 898.685 0.775411 -1.37205 0
M  V30 9495 C 899.595 1.91967 -1.34855 0
M  V30 9496 C 900.611 1.72214 -0.248656 0
M  V30 9497 O 901.787 1.95512 -0.483421 0
M  V30 9498 C 898.852 3.27038 -1.15096 0
M  V30 9499 C 897.913 3.5947 -2.34691 0
M  V30 9500 C 897.146 4.88097 -2.15865 0
M  V30 9501 O 897.369 5.58871 -1.14102 0
M  V30 9502 O 896.303 5.19507 -3.03967 0
M  V30 9503 H 900.129 1.969 -2.31223 0
M  V30 9504 H 897.714 0.917647 -1.17897 0
M  V30 9505 H 899.596 4.07837 -1.0605 0
M  V30 9506 H 898.271 3.22965 -0.217999 0
M  V30 9507 H 897.178 2.7892 -2.49308 0
M  V30 9508 H 898.511 3.68282 -3.26541 0
M  V30 9509 N 900.163 1.21714 1.00117 0
M  V30 9510 C 901.093 1.00397 2.10815 0
M  V30 9511 C 902.074 -0.0723502 1.69946 0
M  V30 9512 O 903.259 0.0882398 1.93999 0
M  V30 9513 C 900.389 0.572001 3.42557 0
M  V30 9514 C 899.343 1.59331 3.97237 0
M  V30 9515 C 898.669 1.01746 5.2493 0
M  V30 9516 C 899.969 2.98117 4.28863 0
M  V30 9517 H 901.663 1.92983 2.28906 0
M  V30 9518 H 899.209 0.929273 1.10002 0
M  V30 9519 H 901.162 0.410018 4.19401 0
M  V30 9520 H 899.886 -0.38951 3.24269 0
M  V30 9521 H 898.545 1.74293 3.22518 0
M  V30 9522 H 898.193 0.0475491 5.02978 0
M  V30 9523 H 897.893 1.69969 5.62481 0
M  V30 9524 H 899.417 0.866881 6.04415 0
M  V30 9525 H 900.831 2.86578 4.96534 0
M  V30 9526 H 899.228 3.63389 4.77565 0
M  V30 9527 H 900.298 3.48674 3.36979 0
M  V30 9528 N 901.641 -1.19671 1.02551 0
M  V30 9529 C 902.888 -1.89268 0.720002 0
M  V30 9530 C 903.216 -1.79411 -0.751127 0
M  V30 9531 O 902.471 -1.17859 -1.5623 0
M  V30 9532 C 902.77 -3.39647 1.11241 0
M  V30 9533 C 902.436 -3.69706 2.58125 0
M  V30 9534 C 901.098 -3.7762 2.98256 0
M  V30 9535 C 903.45 -3.83301 3.53171 0
M  V30 9536 C 900.778 -3.96594 4.32354 0
M  V30 9537 C 903.13 -4.03788 4.86968 0
M  V30 9538 C 901.794 -4.09934 5.26793 0
M  V30 9539 H 901.064 -0.692579 0.263467 0
M  V30 9540 H 903.711 -1.41738 1.28774 0
M  V30 9541 H 902.016 -3.89052 0.463234 0
M  V30 9542 H 903.713 -3.91809 0.853602 0
M  V30 9543 H 900.303 -3.64152 2.26033 0
M  V30 9544 H 904.487 -3.76534 3.2332 0
M  V30 9545 H 899.743 -3.9959 4.6275 0
M  V30 9546 H 903.917 -4.1325 5.60533 0
M  V30 9547 H 901.544 -4.24389 6.30712 0
M  V30 9548 N 903.119 -0.802921 -1.35613 0
M  V30 9549 C 904.049 -0.225131 -2.32412 0
M  V30 9550 C 905.03 0.647383 -1.57299 0
M  V30 9551 O 906.215 0.578414 -1.85386 0
M  V30 9552 C 903.345 0.630085 -3.41537 0
M  V30 9553 C 902.299 -0.143635 -4.27759 0
M  V30 9554 C 901.625 0.833046 -5.28171 0
M  V30 9555 C 902.925 -1.34054 -5.04804 0
M  V30 9556 H 904.619 -1.03385 -2.80984 0
M  V30 9557 H 902.165 -0.498593 -1.35093 0
M  V30 9558 H 904.118 1.04433 -4.08254 0
M  V30 9559 H 902.842 1.47165 -2.91565 0
M  V30 9560 H 901.501 -0.539015 -3.62616 0
M  V30 9561 H 901.149 1.67001 -4.74468 0
M  V30 9562 H 900.849 0.319697 -5.8673 0
M  V30 9563 H 902.373 1.24558 -5.97761 0
M  V30 9564 H 903.787 -1.00136 -5.64487 0
M  V30 9565 H 902.184 -1.78812 -5.72841 0
M  V30 9566 H 903.254 -2.12906 -4.35659 0
M  V30 9567 N 904.597 1.47463 -0.556102 0
M  V30 9568 C 905.825 2.06868 -0.0364585 0
M  V30 9569 C 906.24 1.40893 1.25677 0
M  V30 9570 O 905.597 0.505083 1.75371 0
M  V30 9571 C 905.648 3.61128 0.163984 0
M  V30 9572 O 905.369 4.24629 -1.07803 0
M  V30 9573 C 906.87 4.37397 0.721036 0
M  V30 9574 H 904.09 0.669466 -0.0453399 0
M  V30 9575 H 906.634 1.89482 -0.769198 0
M  V30 9576 H 904.789 3.78031 0.84685 0
M  V30 9577 H 905.203 5.17149 -0.875067 0
M  V30 9578 H 906.677 5.46016 0.810584 0
M  V30 9579 H 907.154 4.03604 1.73206 0
M  V30 9580 H 907.76 4.25236 0.073904 0
M  V30 9581 N 906.075 0.2925 1.54862 0
M  V30 9582 C 907.322 -0.319263 1.99967 0
M  V30 9583 C 907.65 -1.54547 1.18092 0
M  V30 9584 O 906.905 -1.94186 0.242969 0
M  V30 9585 C 907.204 -0.728674 3.49893 0
M  V30 9586 C 906.87 0.394836 4.49168 0
M  V30 9587 C 905.532 0.703289 4.76033 0
M  V30 9588 C 907.884 1.15103 5.08331 0
M  V30 9589 C 905.212 1.77121 5.59325 0
M  V30 9590 C 907.564 2.20881 5.92785 0
M  V30 9591 C 906.228 2.52342 6.17964 0
M  V30 9592 H 905.498 -0.116827 0.731733 0
M  V30 9593 H 908.145 0.40983 1.87063 0
M  V30 9594 H 906.45 -1.53772 3.60363 0
M  V30 9595 H 908.147 -1.21305 3.82212 0
M  V30 9596 H 904.737 0.144319 4.28357 0
M  V30 9597 H 908.921 0.92599 4.87585 0
M  V30 9598 H 904.177 2.01978 5.77074 0
M  V30 9599 H 908.351 2.79939 6.37657 0
M  V30 9600 H 905.978 3.35225 6.82296 0
M  V30 9601 N 907.553 -1.57587 0.0200696 0
M  V30 9602 C 908.799 -1.91708 -0.661503 0
M  V30 9603 C 909.132 -0.895968 -1.72296 0
M  V30 9604 O 908.407 0.082577 -1.94325 0
M  V30 9605 C 908.69 -3.36344 -1.28627 0
M  V30 9606 C 908.543 -4.49186 -0.234982 0
M  V30 9607 C 909.862 -3.80771 -2.20685 0
M  V30 9608 H 906.981 -0.69717 -0.239005 0
M  V30 9609 H 909.623 -1.8985 0.0754764 0
M  V30 9610 H 907.773 -3.38058 -1.91439 0
M  V30 9611 H 909.445 -4.59606 0.395011 0
M  V30 9612 H 907.688 -4.31557 0.440565 0
M  V30 9613 H 908.359 -5.47395 -0.711558 0
M  V30 9614 H 910.835 -3.80735 -1.67868 0
M  V30 9615 H 909.711 -4.82685 -2.61356 0
M  V30 9616 H 909.972 -3.15764 -3.09428 0
M  V30 9617 N 909.032 0.252966 -1.55557 0
M  V30 9618 C 910.26 0.999565 -1.81153 0
M  V30 9619 C 910.675 1.79181 -0.594955 0
M  V30 9620 O 910.032 1.77208 0.436311 0
M  V30 9621 C 910.083 1.94227 -3.04891 0
M  V30 9622 O 909.804 1.18209 -4.21851 0
M  V30 9623 C 911.305 2.80536 -3.43241 0
M  V30 9624 H 908.525 0.294402 -0.602966 0
M  V30 9625 H 911.069 0.277686 -2.02606 0
M  V30 9626 H 909.224 2.6185 -2.85505 0
M  V30 9627 H 909.638 1.81922 -4.9194 0
M  V30 9628 H 911.112 3.42442 -4.32941 0
M  V30 9629 H 911.589 3.51337 -2.6355 0
M  V30 9630 H 912.195 2.18373 -3.64956 0
M  V30 9631 N 910.51 1.48831 0.518367 0
M  V30 9632 C 911.735 1.61379 1.30275 0
M  V30 9633 C 912.16 0.278571 1.86026 0
M  V30 9634 O 911.518 -0.751427 1.64995 0
M  V30 9635 C 911.566 2.67225 2.42122 0
M  V30 9636 O 910.67 2.25192 3.45489 0
M  V30 9637 H 910.011 0.540742 0.385349 0
M  V30 9638 H 912.541 1.949 0.622498 0
M  V30 9639 H 912.551 2.88859 2.8814 0
M  V30 9640 H 911.226 3.64155 2.00907 0
M  V30 9641 H 909.803 2.13819 3.05509 0
M  V30 9642 N 911.988 -0.768124 1.37614 0
M  V30 9643 C 913.213 -1.56239 1.36397 0
M  V30 9644 C 913.638 -1.8804 -0.0475839 0
M  V30 9645 O 912.996 -1.495 -1.02564 0
M  V30 9646 C 913.044 -2.84716 2.21289 0
M  V30 9647 O 912.148 -3.79249 1.62001 0
M  V30 9648 H 911.489 -0.473119 0.465891 0
M  V30 9649 H 914.019 -0.950415 1.81186 0
M  V30 9650 H 914.029 -3.33784 2.34632 0
M  V30 9651 H 912.704 -2.60899 3.2389 0
M  V30 9652 H 911.281 -3.37904 1.57719 0
M  V30 9653 N 913.466 -1.22244 -0.994698 0
M  V30 9654 C 914.882 -0.982006 -1.25813 0
M  V30 9655 C 915.082 0.325488 -1.98854 0
M  V30 9656 O 914.138 1.04857 -2.29698 0
M  V30 9657 C 915.451 -2.1795 -2.07167 0
M  V30 9658 C 916.999 -2.22287 -2.20358 0
M  V30 9659 C 917.474 -3.41583 -3.05098 0
M  V30 9660 N 918.965 -3.41734 -3.12686 0
M  V30 9661 C 919.7 -4.30692 -3.78539 0
M  V30 9662 N 919.196 -5.29865 -4.46335 0
M  V30 9663 N 920.989 -4.18473 -3.75283 0
M  V30 9664 H 913.14 -2.0631 -0.504963 0
M  V30 9665 H 915.403 -0.90395 -0.285618 0
M  V30 9666 H 915.109 -3.12758 -1.60858 0
M  V30 9667 H 914.983 -2.17862 -3.07922 0
M  V30 9668 H 917.37 -1.28028 -2.65881 0
M  V30 9669 H 917.451 -2.26414 -1.19039 0
M  V30 9670 H 917.095 -4.36141 -2.60275 0
M  V30 9671 H 917.025 -3.34695 -4.06555 0
M  V30 9672 H 919.516 -2.69969 -2.64433 0
M  V30 9673 H 919.829 -5.94027 -4.9432 0
M  V30 9674 H 918.174 -5.3378 -4.45089 0
M  V30 9675 H 921.365 -3.40249 -3.21478 0
M  V30 9676 H 921.538 -4.88007 -4.26326 0
M  V30 9677 N 914.944 1.19125 -1.03184 0
M  V30 9678 C 915.907 2.20662 -0.619766 0
M  V30 9679 C 916.907 1.57621 0.318179 0
M  V30 9680 O 918.097 1.73885 0.104783 0
M  V30 9681 C 915.229 3.40774 0.0926696 0
M  V30 9682 H 916.422 2.58633 -1.5182 0
M  V30 9683 H 913.975 1.32855 -0.823364 0
M  V30 9684 H 914.71 3.08324 1.00531 0
M  V30 9685 H 914.495 3.87766 -0.581344 0
M  V30 9686 H 915.985 4.15977 0.367792 0
M  V30 9687 N 916.422 0.810101 1.35185 0
M  V30 9688 C 917.372 0.195541 2.2716 0
M  V30 9689 C 918.356 -0.632691 1.47939 0
M  V30 9690 O 919.548 -0.489372 1.701 0
M  V30 9691 C 916.677 -0.652164 3.37049 0
M  V30 9692 C 915.763 0.185989 4.23692 0
M  V30 9693 N 916.154 1.25073 4.90092 0
M  V30 9694 C 914.452 -0.0318033 4.45989 0
M  V30 9695 C 915.153 1.76272 5.54349 0
M  V30 9696 N 914.129 1.06861 5.32993 0
M  V30 9697 H 917.931 1.01018 2.75994 0
M  V30 9698 H 915.445 0.651612 1.48754 0
M  V30 9699 H 917.442 -1.10851 4.01893 0
M  V30 9700 H 916.102 -1.46511 2.89767 0
M  V30 9701 H 917.113 1.63341 4.91467 0
M  V30 9702 H 913.79 -0.813607 4.09496 0
M  V30 9703 H 915.18 2.65278 6.17315 0
M  V30 9704 N 917.9 -1.47166 0.563914 0
M  V30 9705 C 918.863 -2.28571 -0.169624 0
M  V30 9706 C 919.863 -1.37331 -0.836467 0
M  V30 9707 O 921.053 -1.59896 -0.6913 0
M  V30 9708 C 918.185 -3.17201 -1.24886 0
M  V30 9709 H 919.378 -2.94896 0.545539 0
M  V30 9710 H 916.931 -1.52966 0.321121 0
M  V30 9711 H 917.666 -2.55582 -1.99621 0
M  V30 9712 H 917.451 -3.84356 -0.775426 0
M  V30 9713 H 918.941 -3.7852 -1.76388 0
M  V30 9714 N 919.378 -0.300708 -1.54705 0
M  V30 9715 C 920.325 0.57552 -2.23509 0
M  V30 9716 C 921.295 1.12979 -1.21758 0
M  V30 9717 O 922.48 1.17437 -1.50377 0
M  V30 9718 C 919.62 1.74167 -2.97926 0
M  V30 9719 C 918.733 1.21882 -4.1445 0
M  V30 9720 C 917.868 2.34881 -4.7645 0
M  V30 9721 C 916.907 1.79729 -5.85119 0
M  V30 9722 N 916.044 2.863 -6.41075 0
M  V30 9723 H 920.884 -0.0178257 -2.97995 0
M  V30 9724 H 918.421 -0.0205666 -1.47086 0
M  V30 9725 H 920.379 2.42753 -3.39303 0
M  V30 9726 H 919.009 2.30665 -2.25817 0
M  V30 9727 H 918.061 0.425227 -3.78016 0
M  V30 9728 H 919.373 0.775065 -4.92741 0
M  V30 9729 H 918.527 3.11415 -5.20678 0
M  V30 9730 H 917.266 2.82584 -3.97489 0
M  V30 9731 H 916.271 1.01684 -5.40315 0
M  V30 9732 H 917.496 1.32931 -6.65963 0
M  V30 9733 H 915.442 3.33337 -5.64998 0
M  V30 9734 H 915.359 2.46419 -7.14712 0
M  V30 9735 H 916.627 3.62732 -6.89961 0
M  V30 9736 N 920.856 1.57574 -0.0284266 0
M  V30 9737 C 922.105 1.9095 0.649704 0
M  V30 9738 C 922.418 0.906421 1.7333 0
M  V30 9739 O 923.624 1.1314 2.46803 0
M  V30 9740 C 922.08 3.39061 1.20687 0
M  V30 9741 C 921.688 4.47726 0.156597 0
M  V30 9742 C 923.432 3.81505 1.86156 0
M  V30 9743 C 921.339 5.86935 0.725365 0
M  V30 9744 H 920.269 0.712589 0.24644 0
M  V30 9745 H 922.92 1.83261 -0.0936143 0
M  V30 9746 H 921.302 3.41679 2.00178 0
M  V30 9747 H 922.476 4.56667 -0.6158 0
M  V30 9748 H 920.791 4.14481 -0.399288 0
M  V30 9749 H 923.388 4.82865 2.29665 0
M  V30 9750 H 923.731 3.16529 2.70398 0
M  V30 9751 H 924.264 3.81307 1.13356 0
M  V30 9752 H 921.003 6.55453 -0.0789081 0
M  V30 9753 H 920.523 5.81602 1.46627 0
M  V30 9754 H 922.202 6.35483 1.21532 0
M  V30 9755 N 922.334 -0.244713 1.55689 0
M  V30 9756 C 923.58 -0.973886 1.77886 0
M  V30 9757 C 923.913 -1.8489 0.594071 0
M  V30 9758 O 923.188 -1.90182 -0.407564 0
M  V30 9759 C 923.471 -1.83255 3.09983 0
M  V30 9760 C 923.324 -0.985571 4.3887 0
M  V30 9761 C 924.643 -2.81464 3.38329 0
M  V30 9762 H 921.762 -0.352629 0.647165 0
M  V30 9763 H 924.404 -0.244243 1.88424 0
M  V30 9764 H 922.554 -2.45464 3.01131 0
M  V30 9765 H 924.226 -0.382005 4.59716 0
M  V30 9766 H 922.469 -0.29002 4.32829 0
M  V30 9767 H 923.14 -1.62022 5.27686 0
M  V30 9768 H 925.616 -2.2939 3.47159 0
M  V30 9769 H 924.492 -3.38663 4.31971 0
M  V30 9770 H 924.753 -3.58037 2.59349 0
M  V30 9771 N 923.813 -1.49104 -0.510467 0
M  V30 9772 C 925.038 -1.62068 -1.29417 0
M  V30 9773 C 925.463 -0.288432 -1.85875 0
M  V30 9774 O 924.821 0.742667 -1.65391 0
M  V30 9775 C 924.869 -2.68506 -2.40701 0
M  V30 9776 O 923.973 -2.27021 -3.4429 0
M  V30 9777 H 923.314 -0.542778 -0.382476 0
M  V30 9778 H 925.844 -1.95228 -0.612154 0
M  V30 9779 H 925.854 -2.90383 -2.86604 0
M  V30 9780 H 924.529 -3.65216 -1.98973 0
M  V30 9781 H 923.106 -2.15436 -3.04371 0
M  V30 9782 N 925.291 0.760815 -1.38019 0
M  V30 9783 C 926.54 1.51506 -1.3315 0
M  V30 9784 C 926.853 1.95444 0.0782124 0
M  V30 9785 O 928.059 2.70352 0.249418 0
M  V30 9786 C 926.515 2.73636 -2.33776 0
M  V30 9787 C 926.123 2.36753 -3.80332 0
M  V30 9788 C 927.867 3.51548 -2.37937 0
M  V30 9789 C 925.774 3.55451 -4.72661 0
M  V30 9790 H 924.704 0.568844 -0.494907 0
M  V30 9791 H 927.355 0.832343 -1.63537 0
M  V30 9792 H 925.737 3.43852 -1.96422 0
M  V30 9793 H 926.911 1.7425 -4.26584 0
M  V30 9794 H 925.226 1.71991 -3.7922 0
M  V30 9795 H 927.823 4.39791 -3.04119 0
M  V30 9796 H 928.166 3.9219 -1.39617 0
M  V30 9797 H 928.699 2.88339 -2.74054 0
M  V30 9798 H 925.438 3.19882 -5.7215 0
M  V30 9799 H 924.958 4.17022 -4.31107 0
M  V30 9800 H 926.637 4.22125 -4.90326 0
M  V30 9801 N 926.769 1.22769 0.988202 0
M  V30 9802 C 928.046 0.9635 1.70223 0
M  V30 9803 C 928.426 -0.520102 2.04593 0
M  V30 9804 O 927.774 -1.48934 1.73295 0
M  V30 9805 C 927.984 1.86583 2.94937 0
M  V30 9806 C 929.332 2.12469 3.67616 0
M  V30 9807 O 930.356 1.84069 3.04954 0
M  V30 9808 O 929.215 2.60595 4.80367 0
M  V30 9809 H 926.309 0.362737 0.743203 0
M  V30 9810 H 928.855 1.33776 1.04412 0
M  V30 9811 H 927.627 2.86913 2.66077 0
M  V30 9812 H 927.25 1.49344 3.68486 0
M  V30 9813 N 928.247 -1.18576 1.03814 0
M  V30 9814 C 929.177 -2.24334 0.647795 0
M  V30 9815 C 930.158 -1.66508 -0.34774 0
M  V30 9816 O 931.343 -1.92852 -0.228401 0
M  V30 9817 C 928.473 -3.47299 0.00734922 0
M  V30 9818 C 927.427 -4.17859 0.926152 0
M  V30 9819 C 926.753 -5.34489 0.150317 0
M  V30 9820 C 928.053 -4.71632 2.24411 0
M  V30 9821 H 929.747 -2.57241 1.53191 0
M  V30 9822 H 927.293 -1.23649 0.738028 0
M  V30 9823 H 929.246 -4.20486 -0.277434 0
M  V30 9824 H 927.97 -3.13619 -0.911626 0
M  V30 9825 H 926.629 -3.46567 1.19528 0
M  V30 9826 H 926.277 -4.97056 -0.770985 0
M  V30 9827 H 925.977 -5.82633 0.762407 0
M  V30 9828 H 927.501 -6.10467 -0.127508 0
M  V30 9829 H 928.915 -5.36526 2.02021 0
M  V30 9830 H 927.312 -5.303 2.80894 0
M  V30 9831 H 928.382 -3.89192 2.89236 0
M  V30 9832 N 929.725 -0.817259 -1.34754 0
M  V30 9833 C 930.95 -0.414423 -2.03217 0
M  V30 9834 C 931.375 0.970037 -1.61158 0
M  V30 9835 O 930.733 1.63016 -0.793436 0
M  V30 9836 C 930.781 -0.518087 -3.56859 0
M  V30 9837 O 929.885 0.464314 -4.09778 0
M  V30 9838 H 929.226 -0.171454 -0.641482 0
M  V30 9839 H 931.756 -1.10611 -1.72123 0
M  V30 9840 H 931.766 -0.391779 -4.06115 0
M  V30 9841 H 930.441 -1.52786 -3.86819 0
M  V30 9842 H 929.018 0.297361 -3.71712 0
M  V30 9843 N 931.203 1.46865 -0.571711 0
M  V30 9844 C 932.113 2.33979 0.170571 0
M  V30 9845 C 933.129 1.49083 0.897239 0
M  V30 9846 O 934.305 1.81979 0.862888 0
M  V30 9847 C 931.37 3.26063 1.17831 0
M  V30 9848 C 930.431 4.26855 0.457499 0
M  V30 9849 C 929.664 5.14539 1.41722 0
M  V30 9850 O 929.887 5.04945 2.65305 0
M  V30 9851 O 928.821 5.94612 0.9338 0
M  V30 9852 H 932.647 2.98781 -0.544396 0
M  V30 9853 H 930.232 1.4566 -0.332198 0
M  V30 9854 H 932.114 3.82903 1.75965 0
M  V30 9855 H 930.789 2.63871 1.87493 0
M  V30 9856 H 929.696 3.73734 -0.165406 0
M  V30 9857 H 931.029 4.91802 -0.197953 0
M  V30 9858 N 932.681 0.308908 1.54543 0
M  V30 9859 C 933.644 -0.550857 2.22482 0
M  V30 9860 C 934.644 -1.0551 1.21344 0
M  V30 9861 O 935.834 -0.949866 1.46025 0
M  V30 9862 C 932.966 -1.76354 2.9174 0
M  V30 9863 H 934.159 0.0428395 2.99869 0
M  V30 9864 H 931.712 0.059825 1.56185 0
M  V30 9865 H 932.447 -2.39686 2.18451 0
M  V30 9866 H 932.232 -1.40954 3.65889 0
M  V30 9867 H 933.722 -2.37417 3.43545 0
M  V30 9868 N 934.159 -1.57557 0.0367827 0
M  V30 9869 C 935.089 -2.13712 -0.940719 0
M  V30 9870 C 936.07 -1.05515 -1.33419 0
M  V30 9871 O 937.255 -1.33385 -1.41146 0
M  V30 9872 C 934.385 -2.67043 -2.22048 0
M  V30 9873 C 933.339 -3.80096 -1.96752 0
M  V30 9874 C 932.665 -4.19886 -3.31059 0
M  V30 9875 C 933.965 -5.05848 -1.30058 0
M  V30 9876 H 935.659 -2.9564 -0.473033 0
M  V30 9877 H 933.205 -1.42214 -0.226089 0
M  V30 9878 H 935.158 -3.04964 -2.90818 0
M  V30 9879 H 933.882 -1.82287 -2.70996 0
M  V30 9880 H 932.541 -3.42625 -1.30398 0
M  V30 9881 H 932.189 -3.32101 -3.77781 0
M  V30 9882 H 931.889 -4.96073 -3.14937 0
M  V30 9883 H 933.413 -4.60395 -4.01084 0
M  V30 9884 H 934.827 -5.41306 -1.8884 0
M  V30 9885 H 933.224 -5.87084 -1.24309 0
M  V30 9886 H 934.294 -4.84122 -0.274591 0
M  V30 9887 N 935.637 0.236453 -1.55816 0
M  V30 9888 C 936.862 0.98449 -1.82545 0
M  V30 9889 C 937.287 1.77755 -0.615206 0
M  V30 9890 O 936.645 1.75982 0.435895 0
M  V30 9891 C 936.693 1.88973 -3.07118 0
M  V30 9892 O 935.797 2.98298 -2.84766 0
M  V30 9893 H 935.138 0.279577 -0.602273 0
M  V30 9894 H 937.668 0.254277 -2.03014 0
M  V30 9895 H 937.678 2.3024 -3.36829 0
M  V30 9896 H 936.353 1.30671 -3.94839 0
M  V30 9897 H 934.93 2.61085 -2.6625 0
M  V30 9898 N 937.115 1.49373 0.502552 0
M  V30 9899 C 938.048 1.60529 1.6219 0
M  V30 9900 C 939.026 0.454431 1.56121 0
M  V30 9901 O 940.21 0.669768 1.762 0
M  V30 9902 C 937.337 1.55879 3.00698 0
M  V30 9903 C 936.383 2.76143 3.25034 0
M  V30 9904 S 937.216 4.37831 3.08325 0
M  V30 9905 C 938.372 4.35824 4.49231 0
M  V30 9906 H 938.605 2.55219 1.52482 0
M  V30 9907 H 936.138 1.38244 0.687594 0
M  V30 9908 H 938.096 1.53882 3.80566 0
M  V30 9909 H 936.757 0.624791 3.07823 0
M  V30 9910 H 935.95 2.69104 4.26144 0
M  V30 9911 H 935.552 2.75544 2.52886 0
M  V30 9912 H 937.844 4.07447 5.41288 0
M  V30 9913 H 938.787 5.37206 4.6132 0
M  V30 9914 H 939.195 3.65923 4.29838 0
M  V30 9915 N 938.594 -0.753485 1.38421 0
M  V30 9916 C 940.005 -1.33081 1.30944 0
M  V30 9917 C 940.356 -1.96169 -0.0347124 0
M  V30 9918 O 939.481 -1.95073 -0.936768 0
M  V30 9919 C 940.076 -2.41973 2.37138 0
M  V30 9920 C 938.635 -2.95426 2.33239 0
M  V30 9921 C 937.782 -1.68808 2.19998 0
M  V30 9922 H 940.733 -0.552354 1.48777 0
M  V30 9923 H 940.754 -3.21913 2.02859 0
M  V30 9924 H 940.266 -1.96027 3.34956 0
M  V30 9925 H 938.367 -3.45701 1.39003 0
M  V30 9926 H 938.48 -3.49798 3.27381 0
M  V30 9927 H 936.844 -1.92438 1.66852 0
M  V30 9928 H 937.627 -1.24939 3.19758 0
M  V30 9929 N 940.072 -1.23292 -0.981677 0
M  V30 9930 C 941.32 -1.06214 -1.71939 0
M  V30 9931 C 941.641 0.401989 -1.90812 0
M  V30 9932 O 940.911 1.28825 -1.47584 0
M  V30 9933 H 939.491 -0.390042 -0.637084 0
M  V30 9934 H 942.153 -1.54988 -1.18173 0
M  V30 9935 H 941.249 -1.54904 -2.70945 0
M  V30 9936 N 941.55 1.18024 -1.04442 0
M  V30 9937 C 942.796 1.88377 -0.751133 0
M  V30 9938 C 943.129 1.80377 0.719571 0
M  V30 9939 O 942.404 1.20662 1.52548 0
M  V30 9940 C 942.687 3.38708 -1.22265 0
M  V30 9941 C 942.54 3.55499 -2.75574 0
M  V30 9942 C 943.859 4.32475 -0.815688 0
M  V30 9943 H 940.978 0.684037 -0.27434 0
M  V30 9944 H 943.62 1.38837 -1.29709 0
M  V30 9945 H 941.77 3.8103 -0.758192 0
M  V30 9946 H 943.442 3.22244 -3.30086 0
M  V30 9947 H 941.685 2.98028 -3.15217 0
M  V30 9948 H 942.356 4.60994 -3.03625 0
M  V30 9949 H 944.832 3.97953 -1.21542 0
M  V30 9950 H 943.708 5.36213 -1.17331 0
M  V30 9951 H 943.969 4.41207 0.280901 0
M  V30 9952 N 943.028 0.824394 1.34319 0
M  V30 9953 C 944.274 0.413779 1.98534 0
M  V30 9954 C 944.607 -1.02089 1.65201 0
M  V30 9955 O 943.882 -1.71129 0.924402 0
M  V30 9956 C 944.165 0.61801 3.54757 0
M  V30 9957 C 944.018 2.0989 3.97827 0
M  V30 9958 C 945.337 0.0549041 4.40066 0
M  V30 9959 H 942.456 0.151815 0.721194 0
M  V30 9960 H 945.098 1.03723 1.5919 0
M  V30 9961 H 943.248 0.0873107 3.88402 0
M  V30 9962 H 944.92 2.69335 3.74508 0
M  V30 9963 H 943.163 2.58881 3.48085 0
M  V30 9964 H 943.834 2.1926 5.06586 0
M  V30 9965 H 946.31 0.508348 4.12983 0
M  V30 9966 H 945.186 0.227595 5.48428 0
M  V30 9967 H 945.447 -1.04025 4.29687 0
M  V30 9968 N 944.506 -1.46559 0.579492 0
M  V30 9969 C 945.783 -1.956 -0.00287136 0
M  V30 9970 C 946.163 -1.52215 -1.46266 0
M  V30 9971 O 945.511 -0.771335 -2.15088 0
M  V30 9972 C 945.721 -3.48606 0.165824 0
M  V30 9973 C 947.069 -4.24588 0.0319807 0
M  V30 9974 O 948.093 -3.56075 0.094496 0
M  V30 9975 O 946.952 -5.46396 -0.106386 0
M  V30 9976 H 944.046 -0.825387 -0.0516274 0
M  V30 9977 H 946.592 -1.56858 0.647584 0
M  V30 9978 H 945.364 -3.7306 1.18076 0
M  V30 9979 H 944.987 -3.94169 -0.521212 0
M  V30 9980 N 945.984 -0.3171 -1.54377 0
M  V30 9981 C 947.233 0.288271 -1.99629 0
M  V30 9982 C 947.546 1.53754 -1.2091 0
M  V30 9983 O 948.752 2.2185 -1.56508 0
M  V30 9984 C 947.208 0.564188 -3.5545 0
M  V30 9985 C 946.816 -0.667659 -4.42997 0
M  V30 9986 C 948.56 1.12987 -4.09187 0
M  V30 9987 C 946.467 -0.364003 -5.90279 0
M  V30 9988 H 945.397 0.111492 -0.745711 0
M  V30 9989 H 948.048 -0.428317 -1.78431 0
M  V30 9990 H 946.43 1.34079 -3.72611 0
M  V30 9991 H 947.604 -1.44335 -4.37612 0
M  V30 9992 H 945.919 -1.1531 -4.00116 0
M  V30 9993 H 948.516 1.37157 -5.1681 0
M  V30 9994 H 948.859 2.07722 -3.60773 0
M  V30 9995 H 949.392 0.414595 -3.95634 0
M  V30 9996 H 946.131 -1.28035 -6.42874 0
M  V30 9997 H 945.651 0.374102 -5.98632 0
M  V30 9998 H 947.33 0.0285433 -6.46994 0
M  V30 9999 N 947.462 1.57535 -0.0451378 0
M  V30 10000 C 948.395 2.06721 0.96653 0
M  V30 10001 C 949.373 0.966392 1.30766 0
M  V30 10002 O 950.557 1.23789 1.42157 0
M  V30 10003 C 947.684 2.50266 2.2822 0
M  V30 10004 C 946.73 3.71525 2.09455 0
M  V30 10005 S 947.563 5.17453 1.37851 0
M  V30 10006 C 948.719 5.64308 2.70753 0
M  V30 10007 H 948.952 2.92207 0.547911 0
M  V30 10008 H 946.485 1.53494 0.166973 0
M  V30 10009 H 948.443 2.76019 3.03849 0
M  V30 10010 H 947.104 1.65097 2.67211 0
M  V30 10011 H 946.297 3.99894 3.06759 0
M  V30 10012 H 945.899 3.46008 1.41967 0
M  V30 10013 H 948.191 5.69525 3.66943 0
M  V30 10014 H 949.134 6.63613 2.47028 0
M  V30 10015 H 949.542 4.92014 2.76736 0
M  V30 10016 N 948.94 -0.228186 1.55939 0
M  V30 10017 C 950.168 -0.970618 1.8272 0
M  V30 10018 C 950.583 -1.78212 0.623385 0
M  V30 10019 O 949.94 -1.77879 -0.408063 0
M  V30 10020 C 949.991 -1.89352 3.07942 0
M  V30 10021 O 949.712 -1.11483 4.23678 0
M  V30 10022 C 951.213 -2.75039 3.47661 0
M  V30 10023 H 948.433 -0.284772 0.607574 0
M  V30 10024 H 950.977 -0.245419 2.03022 0
M  V30 10025 H 949.132 -2.57275 2.89635 0
M  V30 10026 H 949.546 -1.74073 4.94772 0
M  V30 10027 H 951.02 -3.35511 4.38334 0
M  V30 10028 H 951.497 -3.471 2.69106 0
M  V30 10029 H 952.103 -2.1254 3.68384 0
M  V30 10030 N 950.418 -1.49637 -0.494624 0
M  V30 10031 C 951.381 -1.66252 -1.57775 0
M  V30 10032 C 952.381 -0.534054 -1.51672 0
M  V30 10033 O 953.571 -0.800637 -1.54711 0
M  V30 10034 C 950.703 -1.66584 -2.97426 0
M  V30 10035 H 951.896 -2.62864 -1.4437 0
M  V30 10036 H 949.449 -1.38764 -0.719323 0
M  V30 10037 H 950.184 -0.715798 -3.16302 0
M  V30 10038 H 949.969 -2.48543 -3.03264 0
M  V30 10039 H 951.459 -1.81474 -3.76108 0
M  V30 10040 N 951.896 0.746133 -1.38819 0
M  V30 10041 C 952.806 1.89063 -1.38897 0
M  V30 10042 C 953.822 1.71648 -0.28513 0
M  V30 10043 O 954.998 1.94443 -0.524783 0
M  V30 10044 C 952.063 3.24523 -1.22007 0
M  V30 10045 C 951.124 3.54411 -2.42263 0
M  V30 10046 C 950.357 4.83408 -2.26169 0
M  V30 10047 O 950.58 5.56325 -1.25931 0
M  V30 10048 O 949.514 5.12943 -3.14918 0
M  V30 10049 H 953.34 1.91951 -2.35347 0
M  V30 10050 H 950.925 0.892433 -1.19816 0
M  V30 10051 H 952.807 4.05496 -1.14677 0
M  V30 10052 H 951.482 3.2243 -0.286455 0
M  V30 10053 H 950.389 2.73569 -2.55168 0
M  V30 10054 H 951.722 3.61273 -3.3428 0
M  V30 10055 N 953.375 1.23811 0.975125 0
M  V30 10056 C 954.325 0.991036 2.05335 0
M  V30 10057 C 955.309 -0.0648793 1.60769 0
M  V30 10058 O 956.501 0.147917 1.76381 0
M  V30 10059 C 953.63 0.589822 3.38195 0
M  V30 10060 C 952.716 1.68142 3.89344 0
M  V30 10061 N 953.107 2.91274 4.13513 0
M  V30 10062 C 951.405 1.55722 4.17931 0
M  V30 10063 C 952.106 3.61987 4.55347 0
M  V30 10064 N 951.082 2.8952 4.60086 0
M  V30 10065 H 954.884 1.92612 2.21986 0
M  V30 10066 H 952.398 1.13827 1.15832 0
M  V30 10067 H 954.395 0.394075 4.15033 0
M  V30 10068 H 953.055 -0.338157 3.22934 0
M  V30 10069 H 954.066 3.27528 4.01181 0
M  V30 10070 H 950.743 0.696732 4.11645 0
M  V30 10071 H 952.133 4.67572 4.8252 0
M  V30 10072 N 954.853 -1.17469 1.05066 0
M  V30 10073 C 955.783 -2.23635 0.671552 0
M  V30 10074 C 956.764 -1.66867 -0.33006 0
M  V30 10075 O 957.949 -1.93084 -0.207933 0
M  V30 10076 C 955.079 -3.47272 0.0441845 0
M  V30 10077 C 954.033 -4.16854 0.97042 0
M  V30 10078 C 953.359 -5.34299 0.206998 0
M  V30 10079 C 954.659 -4.69225 2.29401 0
M  V30 10080 H 956.353 -2.55602 1.55911 0
M  V30 10081 H 953.899 -1.2286 0.751101 0
M  V30 10082 H 955.852 -4.20756 -0.23282 0
M  V30 10083 H 954.576 -3.14568 -0.878311 0
M  V30 10084 H 953.235 -3.4528 1.23197 0
M  V30 10085 H 952.883 -4.97846 -0.718222 0
M  V30 10086 H 952.583 -5.81792 0.82416 0
M  V30 10087 H 954.107 -6.10568 -0.0627525 0
M  V30 10088 H 955.521 -5.34353 2.077 0
M  V30 10089 H 953.918 -5.27291 2.86503 0
M  V30 10090 H 954.988 -3.86102 2.93348 0
M  V30 10091 N 956.331 -0.831506 -1.3388 0
M  V30 10092 C 957.556 -0.435954 -2.02766 0
M  V30 10093 C 957.981 0.952889 -1.62178 0
M  V30 10094 O 957.339 1.62166 -0.810681 0
M  V30 10095 C 957.387 -0.555907 -3.56289 0
M  V30 10096 O 956.491 0.420826 -4.10247 0
M  V30 10097 H 955.832 -0.178248 -0.639628 0
M  V30 10098 H 958.362 -1.1243 -1.70941 0
M  V30 10099 H 958.372 -0.434831 -4.05676 0
M  V30 10100 H 957.047 -1.56881 -3.85177 0
M  V30 10101 H 955.624 0.257919 -3.72007 0
M  V30 10102 N 957.809 1.4625 -0.587256 0
M  V30 10103 C 959.086 1.95599 -0.00750181 0
M  V30 10104 C 959.466 1.52989 1.45457 0
M  V30 10105 O 958.814 0.782731 2.14676 0
M  V30 10106 C 959.024 3.48513 -0.184309 0
M  V30 10107 C 960.372 4.24565 -0.0544972 0
M  V30 10108 O 961.396 3.5602 -0.113378 0
M  V30 10109 O 960.255 5.46445 0.0774075 0
M  V30 10110 H 957.349 0.825649 0.0472495 0
M  V30 10111 H 959.895 1.56512 -0.655893 0
M  V30 10112 H 958.667 3.72428 -1.20053 0
M  V30 10113 H 958.29 3.9444 0.500301 0
M  V30 10114 N 959.287 0.325282 1.54207 0
M  V30 10115 C 960.533 -0.277185 2.00897 0
M  V30 10116 C 960.866 -1.51651 1.21308 0
M  V30 10117 O 960.141 -1.92237 0.295825 0
M  V30 10118 C 960.424 -0.60961 3.54902 0
M  V30 10119 C 960.277 0.640542 4.45216 0
M  V30 10120 C 961.596 -1.42656 4.16338 0
M  V30 10121 H 958.715 -0.0992722 0.730284 0
M  V30 10122 H 961.357 0.442201 1.84783 0
M  V30 10123 H 959.507 -1.22249 3.68765 0
M  V30 10124 H 961.179 1.27878 4.43221 0
M  V30 10125 H 959.422 1.26908 4.14821 0
M  V30 10126 H 960.093 0.363459 5.50802 0
M  V30 10127 H 962.569 -0.908494 4.06061 0
M  V30 10128 H 961.445 -1.62792 5.24204 0
M  V30 10129 H 961.706 -2.42321 3.69774 0
M  V30 10130 N 960.765 -1.57509 0.0534917 0
M  V30 10131 C 961.713 -2.12851 -0.937931 0
M  V30 10132 C 962.707 -1.06088 -1.32067 0
M  V30 10133 O 963.913 -1.24494 -1.30005 0
M  V30 10134 H 960.288 -0.680357 -0.320342 0
M  V30 10135 H 962.259 -2.95047 -0.446077 0
M  V30 10136 C 961.008 -2.69034 -2.20264 0
M  V30 10137 H 960.331 -3.50848 -1.91693 0
M  V30 10138 H 961.771 -3.11375 -2.87788 0
M  V30 10139 C 960.23 -1.62919 -2.94888 0
M  V30 10140 O 960.76 -1.04334 -3.87914 0
M  V30 10141 N 958.966 -1.34385 -2.57661 0
M  V30 10142 H 958.513 -1.82214 -1.82088 0
M  V30 10143 H 958.471 -0.636149 -3.07897 0
M  V30 10144 N 962.243 0.219913 -1.56058 0
M  V30 10145 C 963.468 0.965073 -1.83579 0
M  V30 10146 C 963.893 1.77092 -0.634024 0
M  V30 10147 O 963.251 1.76434 0.417205 0
M  V30 10148 C 963.299 1.85705 -3.09105 0
M  V30 10149 O 962.403 2.95261 -2.87914 0
M  V30 10150 H 961.744 0.273173 -0.605204 0
M  V30 10151 H 964.274 0.23273 -2.03272 0
M  V30 10152 H 964.284 2.26655 -3.39252 0
M  V30 10153 H 962.959 1.26476 -3.96203 0
M  V30 10154 H 961.536 2.58246 -2.69005 0
M  V30 10155 N 963.721 1.49897 0.486681 0
M  V30 10156 C 964.968 1.60105 1.23986 0
M  V30 10157 C 965.296 0.294228 1.92262 0
M  V30 10158 O 964.551 -0.718876 1.82018 0
M  V30 10159 C 964.85 2.71982 2.31863 0
M  V30 10160 C 964.516 4.13 1.80948 0
M  V30 10161 C 963.178 4.51373 1.66782 0
M  V30 10162 C 965.53 5.01198 1.43004 0
M  V30 10163 C 962.858 5.75701 1.13072 0
M  V30 10164 C 965.21 6.26058 0.90742 0
M  V30 10165 C 963.874 6.63247 0.752269 0
M  V30 10166 H 963.144 0.585866 0.453698 0
M  V30 10167 H 965.791 1.83778 0.538305 0
M  V30 10168 H 964.096 2.42336 3.07865 0
M  V30 10169 H 965.793 2.77087 2.89869 0
M  V30 10170 H 962.383 3.82718 1.92937 0
M  V30 10171 H 966.567 4.72196 1.52789 0
M  V30 10172 H 961.823 6.03202 0.997842 0
M  V30 10173 H 965.997 6.9377 0.604684 0
M  V30 10174 H 963.624 7.59466 0.33392 0
M  V30 10175 N 965.199 -0.738761 1.39212 0
M  V30 10176 C 966.439 -1.51093 1.3766 0
M  V30 10177 C 966.803 -1.91978 -0.0289655 0
M  V30 10178 O 968.004 -2.68265 -0.169465 0
M  V30 10179 C 966.275 -2.71988 2.31856 0
M  V30 10180 S 967.834 -3.61683 2.48458 0
M  V30 10181 H 964.652 -0.516868 0.48823 0
M  V30 10182 H 967.254 -0.865961 1.75275 0
M  V30 10183 H 965.958 -2.40085 3.32847 0
M  V30 10184 H 965.489 -3.41417 1.95443 0
M  V30 10185 H 967.504 -4.65447 1.71969 0
M  V30 10186 N 966.677 -1.24326 -0.968545 0
M  V30 10187 C 967.924 -1.08245 -1.71141 0
M  V30 10188 C 968.252 0.378842 -1.90775 0
M  V30 10189 O 967.507 1.29634 -1.46607 0
M  V30 10190 C 967.806 -1.76644 -3.10695 0
M  V30 10191 C 967.472 -3.26572 -3.10905 0
M  V30 10192 C 966.134 -3.67475 -3.10669 0
M  V30 10193 C 968.486 -4.22422 -3.05302 0
M  V30 10194 C 965.814 -5.02666 -3.02562 0
M  V30 10195 C 968.166 -5.57619 -2.98737 0
M  V30 10196 C 966.83 -5.9787 -2.9683 0
M  V30 10197 H 966.1 -0.396098 -0.626249 0
M  V30 10198 H 968.747 -1.54418 -1.13258 0
M  V30 10199 H 967.052 -1.22864 -3.72037 0
M  V30 10200 H 968.749 -1.61668 -3.66967 0
M  V30 10201 H 965.339 -2.94017 -3.11852 0
M  V30 10202 H 969.523 -3.91821 -3.04614 0
M  V30 10203 H 964.779 -5.3305 -2.99446 0
M  V30 10204 H 968.953 -6.31595 -2.93361 0
M  V30 10205 H 966.58 -7.02587 -2.90303 0
M  V30 10206 N 968.156 1.1691 -1.05688 0
M  V30 10207 C 969.403 1.87292 -0.76993 0
M  V30 10208 C 969.731 1.81339 0.703295 0
M  V30 10209 O 968.986 1.21959 1.5305 0
M  V30 10210 C 969.285 3.36578 -1.20207 0
M  V30 10211 C 968.951 3.62732 -2.67836 0
M  V30 10212 C 967.613 3.69579 -3.08163 0
M  V30 10213 C 969.965 3.73803 -3.63209 0
M  V30 10214 C 967.293 3.84992 -4.42717 0
M  V30 10215 C 969.645 3.90735 -4.97503 0
M  V30 10216 C 968.309 3.95823 -5.37476 0
M  V30 10217 H 967.579 0.68535 -0.281737 0
M  V30 10218 H 970.226 1.38274 -1.32486 0
M  V30 10219 H 968.531 3.87687 -0.566222 0
M  V30 10220 H 970.228 3.89409 -0.957183 0
M  V30 10221 H 966.818 3.58031 -2.35609 0
M  V30 10222 H 971.002 3.67829 -3.3319 0
M  V30 10223 H 966.258 3.87181 -4.73182 0
M  V30 10224 H 970.432 3.98243 -5.71293 0
M  V30 10225 H 968.059 4.07518 -6.41742 0
M  V30 10226 N 969.634 0.838594 1.33437 0
M  V30 10227 C 970.862 0.447644 2.01999 0
M  V30 10228 C 971.277 -0.951053 1.63096 0
M  V30 10229 O 970.634 -1.61802 0.844169 0
M  V30 10230 C 970.685 0.558378 3.57162 0
M  V30 10231 O 970.406 1.90196 3.94661 0
M  V30 10232 C 971.907 0.164348 4.42995 0
M  V30 10233 H 969.127 0.177736 0.647032 0
M  V30 10234 H 971.671 1.13109 1.70372 0
M  V30 10235 H 969.826 -0.0771563 3.87323 0
M  V30 10236 H 970.24 1.88729 4.89369 0
M  V30 10237 H 971.714 0.292876 5.51222 0
M  V30 10238 H 972.191 -0.893713 4.30011 0
M  V30 10239 H 972.797 0.774306 4.18192 0
M  V30 10240 N 971.112 -1.45937 0.595003 0
M  V30 10241 C 972.022 -2.34221 -0.133325 0
M  V30 10242 C 973.038 -1.50491 -0.873407 0
M  V30 10243 O 974.214 -1.83328 -0.833828 0
M  V30 10244 C 971.279 -3.27896 -1.12628 0
M  V30 10245 C 970.34 -4.27529 -0.389532 0
M  V30 10246 C 969.573 -5.16729 -1.33519 0
M  V30 10247 O 969.796 -5.09102 -2.57238 0
M  V30 10248 O 968.73 -5.96023 -0.839084 0
M  V30 10249 H 972.556 -2.97877 0.591861 0
M  V30 10250 H 970.141 -1.45113 0.355329 0
M  V30 10251 H 972.023 -3.85654 -1.69851 0
M  V30 10252 H 970.698 -2.6682 -1.83272 0
M  V30 10253 H 969.605 -3.73424 0.224843 0
M  V30 10254 H 970.938 -4.91425 0.276169 0
M  V30 10255 N 972.59 -0.333456 -1.54032 0
M  V30 10256 C 973.553 0.515392 -2.2333 0
M  V30 10257 C 974.553 1.03566 -1.23007 0
M  V30 10258 O 975.743 0.926514 -1.47517 0
M  V30 10259 C 972.875 1.7169 -2.94508 0
M  V30 10260 H 974.068 -0.0905407 -2.99763 0
M  V30 10261 H 971.621 -0.0846651 -1.56071 0
M  V30 10262 H 972.356 2.3618 -2.22237 0
M  V30 10263 H 972.141 1.35115 -3.68085 0
M  V30 10264 H 973.631 2.31922 -3.47278 0
M  V30 10265 N 974.068 1.57479 -0.061844 0
M  V30 10266 C 974.978 2.15645 0.923826 0
M  V30 10267 C 975.994 1.117 1.33413 0
M  V30 10268 O 977.17 1.4392 1.40887 0
M  V30 10269 C 974.235 2.69857 2.17665 0
M  V30 10270 C 973.296 3.88638 1.8237 0
M  V30 10271 C 972.529 4.40256 3.01679 0
M  V30 10272 O 972.752 3.90908 4.15388 0
M  V30 10273 O 971.686 5.31713 2.82073 0
M  V30 10274 H 975.512 3.0021 0.459094 0
M  V30 10275 H 973.097 1.48534 0.160665 0
M  V30 10276 H 974.979 3.04647 2.9115 0
M  V30 10277 H 973.654 1.88357 2.63255 0
M  V30 10278 H 972.561 3.58719 1.06167 0
M  V30 10279 H 973.894 4.71401 1.4157 0
M  V30 10280 N 975.546 -0.211634 1.56173 0
M  V30 10281 C 976.493 -1.26231 1.93221 0
M  V30 10282 C 977.463 -1.46076 0.790641 0
M  V30 10283 O 978.648 -1.59482 1.04739 0
M  V30 10284 C 975.788 -2.60559 2.26281 0
M  V30 10285 C 974.901 -2.48431 3.5342 0
M  V30 10286 C 974.036 -3.7535 3.7588 0
M  V30 10287 C 973.075 -3.57985 4.96501 0
M  V30 10288 N 972.212 -4.76877 5.15299 0
M  V30 10289 H 977.052 -0.939367 2.82807 0
M  V30 10290 H 974.589 -0.452511 1.39967 0
M  V30 10291 H 976.547 -3.38796 2.43461 0
M  V30 10292 H 975.177 -2.9093 1.39855 0
M  V30 10293 H 974.229 -1.61577 3.44379 0
M  V30 10294 H 975.541 -2.31526 4.41811 0
M  V30 10295 H 974.695 -4.62029 3.9321 0
M  V30 10296 H 973.434 -3.95191 2.85788 0
M  V30 10297 H 972.439 -2.69691 4.79111 0
M  V30 10298 H 973.664 -3.39605 5.88086 0
M  V30 10299 H 971.61 -4.97013 4.28152 0
M  V30 10300 H 971.527 -4.62735 5.9784 0
M  V30 10301 H 972.795 -5.64954 5.37073 0
M  V30 10302 N 977.024 -1.50153 -0.478725 0
M  V30 10303 C 978.271 -1.6076 -1.23136 0
M  V30 10304 C 978.599 -0.30442 -1.92103 0
M  V30 10305 O 977.854 0.709213 -1.82397 0
M  V30 10306 C 978.153 -2.73208 -2.30417 0
M  V30 10307 C 977.819 -4.13953 -1.78755 0
M  V30 10308 C 976.481 -4.52251 -1.64386 0
M  V30 10309 C 978.833 -5.01949 -1.40344 0
M  V30 10310 C 976.161 -5.76292 -1.10018 0
M  V30 10311 C 978.513 -6.2653 -0.874206 0
M  V30 10312 C 977.177 -6.63637 -0.717085 0
M  V30 10313 H 976.447 -0.588264 -0.450585 0
M  V30 10314 H 979.094 -1.84061 -0.528551 0
M  V30 10315 H 977.399 -2.43965 -3.06575 0
M  V30 10316 H 979.096 -2.7862 -2.88395 0
M  V30 10317 H 975.686 -3.83736 -1.90904 0
M  V30 10318 H 979.87 -4.73 -1.50283 0
M  V30 10319 H 975.126 -6.03723 -0.965838 0
M  V30 10320 H 979.3 -6.94081 -0.567883 0
M  V30 10321 H 976.927 -7.59633 -0.293639 0
M  V30 10322 N 978.502 0.731368 -1.39602 0
M  V30 10323 C 979.432 1.85855 -1.41351 0
M  V30 10324 C 980.413 1.67839 -0.2764 0
M  V30 10325 O 981.598 1.88104 -0.482747 0
M  V30 10326 C 978.728 3.23644 -1.25983 0
M  V30 10327 C 977.682 3.56304 -2.37132 0
M  V30 10328 C 977.008 4.93069 -2.0685 0
M  V30 10329 C 978.308 3.58906 -3.79452 0
M  V30 10330 H 980.002 1.84648 -2.3568 0
M  V30 10331 H 977.548 0.886955 -1.13442 0
M  V30 10332 H 979.501 4.02176 -1.25826 0
M  V30 10333 H 978.225 3.25387 -0.281234 0
M  V30 10334 H 976.884 2.80104 -2.36511 0
M  V30 10335 H 976.532 4.91396 -1.0742 0
M  V30 10336 H 976.232 5.15888 -2.81306 0
M  V30 10337 H 977.756 5.73953 -2.0835 0
M  V30 10338 H 979.17 4.27508 -3.81982 0
M  V30 10339 H 977.567 3.93246 -4.53297 0
M  V30 10340 H 978.637 2.58631 -4.10168 0
M  V30 10341 N 979.98 1.24838 0.961938 0
M  V30 10342 C 980.943 1.04674 2.03902 0
M  V30 10343 C 981.943 0.00204674 1.608 0
M  V30 10344 O 983.133 0.243555 1.72489 0
M  V30 10345 C 980.265 0.587736 3.35795 0
M  V30 10346 H 981.458 2.00278 2.23223 0
M  V30 10347 H 979.011 1.07142 1.138 0
M  V30 10348 H 979.746 -0.371244 3.22168 0
M  V30 10349 H 979.531 1.34182 3.68426 0
M  V30 10350 H 981.021 0.467867 4.14971 0
M  V30 10351 N 981.458 -1.16348 1.06306 0
M  V30 10352 C 982.686 -1.90782 0.800614 0
M  V30 10353 C 983.101 -1.77439 -0.645033 0
M  V30 10354 O 982.458 -1.11912 -1.4416 0
M  V30 10355 C 982.509 -3.41484 1.18621 0
M  V30 10356 O 982.23 -3.54428 2.57512 0
M  V30 10357 C 983.731 -4.32968 0.951525 0
M  V30 10358 H 980.951 -0.604977 0.290247 0
M  V30 10359 H 983.495 -1.47476 1.41672 0
M  V30 10360 H 981.65 -3.82493 0.614633 0
M  V30 10361 H 982.064 -4.4788 2.72954 0
M  V30 10362 H 983.538 -5.37169 1.27095 0
M  V30 10363 H 984.015 -4.39055 -0.112734 0
M  V30 10364 H 984.621 -3.97687 1.50749 0
M  V30 10365 N 982.937 -0.845659 -1.3299 0
M  V30 10366 C 984.214 -0.366306 -1.92139 0
M  V30 10367 C 984.594 1.14912 -1.77083 0
M  V30 10368 O 983.942 1.96667 -1.16338 0
M  V30 10369 C 984.152 -0.820716 -3.39213 0
M  V30 10370 C 985.5 -0.832667 -4.16355 0
M  V30 10371 O 986.524 -0.764764 -3.47893 0
M  V30 10372 O 985.383 -0.926658 -5.38586 0
M  V30 10373 H 982.477 -0.105063 -0.820299 0
M  V30 10374 H 985.023 -0.931962 -1.41819 0
M  V30 10375 H 983.795 -1.86357 -3.44074 0
M  V30 10376 H 983.418 -0.232009 -3.96923 0
M  V30 10377 N 984.415 1.45619 -0.602734 0
M  V30 10378 C 985.362 2.30493 0.118944 0
M  V30 10379 C 986.332 1.41816 0.864723 0
M  V30 10380 O 987.517 1.7075 0.851424 0
M  V30 10381 C 984.657 3.2664 1.11356 0
M  V30 10382 C 983.77 4.3042 0.369161 0
M  V30 10383 C 982.905 5.13678 1.35307 0
M  V30 10384 C 981.944 6.09189 0.596207 0
M  V30 10385 N 981.081 6.85245 1.52916 0
M  V30 10386 H 985.921 2.91672 -0.610836 0
M  V30 10387 H 983.458 1.43731 -0.313032 0
M  V30 10388 H 985.416 3.80846 1.7033 0
M  V30 10389 H 984.046 2.67225 1.81081 0
M  V30 10390 H 983.098 3.78913 -0.335994 0
M  V30 10391 H 984.41 4.98307 -0.221603 0
M  V30 10392 H 983.564 5.7226 2.01502 0
M  V30 10393 H 982.303 4.45798 1.97777 0
M  V30 10394 H 981.308 5.49743 -0.0793984 0
M  V30 10395 H 982.533 6.79096 -0.0233734 0
M  V30 10396 H 980.479 6.20058 2.14159 0
M  V30 10397 H 980.396 7.49467 0.991713 0
M  V30 10398 H 981.664 7.48371 2.18083 0
M  V30 10399 N 985.893 0.34162 1.53853 0
M  V30 10400 C 987.139 -0.255862 2.01179 0
M  V30 10401 C 987.472 -1.50356 1.22909 0
M  V30 10402 O 986.747 -1.91913 0.316198 0
M  V30 10403 C 987.03 -0.571934 3.55529 0
M  V30 10404 C 986.883 0.687727 4.44511 0
M  V30 10405 C 988.202 -1.38233 4.17827 0
M  V30 10406 H 985.321 -0.091521 0.731295 0
M  V30 10407 H 987.963 0.461775 1.84303 0
M  V30 10408 H 986.113 -1.18331 3.70041 0
M  V30 10409 H 987.785 1.32572 4.4184 0
M  V30 10410 H 986.028 1.313 4.13452 0
M  V30 10411 H 986.699 0.421858 5.50386 0
M  V30 10412 H 989.175 -0.865374 4.07002 0
M  V30 10413 H 988.051 -1.57223 5.25901 0
M  V30 10414 H 988.312 -2.38386 3.72323 0
M  V30 10415 N 987.371 -1.57444 0.0701946 0
M  V30 10416 C 988.618 -1.93429 -0.59929 0
M  V30 10417 C 988.946 -0.9501 -1.69715 0
M  V30 10418 O 988.201 0.0345377 -1.9567 0
M  V30 10419 C 988.5 -3.36044 -1.21694 0
M  V30 10420 C 988.166 -4.50232 -0.245374 0
M  V30 10421 C 986.828 -4.81195 0.0219161 0
M  V30 10422 C 989.18 -5.1951 0.419396 0
M  V30 10423 C 986.508 -5.78775 0.96109 0
M  V30 10424 C 988.86 -6.18095 1.34688 0
M  V30 10425 C 987.524 -6.47477 1.62265 0
M  V30 10426 H 986.794 -0.707807 -0.219296 0
M  V30 10427 H 989.441 -1.90982 0.14073 0
M  V30 10428 H 987.746 -3.34948 -2.03265 0
M  V30 10429 H 989.443 -3.61176 -1.74221 0
M  V30 10430 H 986.033 -4.26082 -0.463887 0
M  V30 10431 H 990.217 -4.95785 0.226009 0
M  V30 10432 H 985.473 -5.99865 1.18202 0
M  V30 10433 H 989.647 -6.7088 1.86795 0
M  V30 10434 H 987.274 -7.229 2.352 0
M  V30 10435 N 988.849 0.203349 -1.56283 0
M  V30 10436 C 990.089 0.931871 -1.81922 0
M  V30 10437 C 990.453 1.8079 -0.646459 0
M  V30 10438 O 991.654 2.57157 -0.782556 0
M  V30 10439 C 989.925 1.73347 -3.12547 0
M  V30 10440 S 991.484 2.51514 -3.59564 0
M  V30 10441 H 988.302 0.312706 -0.638542 0
M  V30 10442 H 990.904 0.195931 -1.94516 0
M  V30 10443 H 989.608 1.08038 -3.95924 0
M  V30 10444 H 989.139 2.51138 -3.02809 0
M  V30 10445 H 991.154 3.7552 -3.24345 0
M  V30 10446 N 990.327 1.50405 0.470755 0
M  V30 10447 C 991.573 1.6165 1.22462 0
M  V30 10448 C 991.906 0.316034 1.91611 0
M  V30 10449 O 991.181 -0.682509 1.82132 0
M  V30 10450 C 991.464 2.79702 2.26801 0
M  V30 10451 C 991.317 4.19631 1.61955 0
M  V30 10452 C 992.636 2.93313 3.28109 0
M  V30 10453 H 989.755 0.588345 0.443868 0
M  V30 10454 H 992.397 1.82792 0.518376 0
M  V30 10455 H 990.547 2.61807 2.87036 0
M  V30 10456 H 992.219 4.49117 1.05316 0
M  V30 10457 H 990.462 4.23874 0.922674 0
M  V30 10458 H 991.133 4.98162 2.37779 0
M  V30 10459 H 993.609 3.09697 2.77897 0
M  V30 10460 H 992.485 3.77537 3.98443 0
M  V30 10461 H 992.746 2.03942 3.9225 0
M  V30 10462 N 991.805 -0.723954 1.39988 0
M  V30 10463 C 993.053 -1.48078 1.3754 0
M  V30 10464 C 993.374 -1.94985 -0.0243358 0
M  V30 10465 O 992.644 -1.69764 -0.977602 0
M  V30 10466 H 991.224 -0.549354 0.506181 0
M  V30 10467 H 993.886 -0.858746 1.74962 0
M  V30 10468 H 992.982 -2.35763 2.04505 0
M  V30 10469 N 993.283 -1.25346 -0.955304 0
M  V30 10470 C 994.215 -1.0146 -2.0552 0
M  V30 10471 C 995.228 0.0202256 -1.62787 0
M  V30 10472 O 996.417 -0.218251 -1.77161 0
M  V30 10473 C 993.517 -0.511727 -3.35014 0
M  V30 10474 C 992.69 -1.61256 -4.0659 0
M  V30 10475 C 991.749 -1.11017 -5.14356 0
M  V30 10476 O 990.775 -1.80443 -5.39842 0
M  V30 10477 N 991.977 0.0489001 -5.80479 0
M  V30 10478 H 994.742 -1.96166 -2.26581 0
M  V30 10479 H 992.303 -1.16543 -1.12381 0
M  V30 10480 H 994.295 -0.160123 -4.04383 0
M  V30 10481 H 992.865 0.341377 -3.1073 0
M  V30 10482 H 992.085 -2.13577 -3.31328 0
M  V30 10483 H 993.373 -2.35213 -4.51168 0
M  V30 10484 H 992.771 0.629021 -5.62192 0
M  V30 10485 H 991.328 0.341542 -6.50905 0
M  V30 10486 N 994.761 1.15782 -1.06922 0
M  V30 10487 C 995.691 2.22538 -0.707045 0
M  V30 10488 C 996.672 1.67371 0.303471 0
M  V30 10489 O 997.857 1.9339 0.177189 0
M  V30 10490 C 994.987 3.47158 -0.0994269 0
M  V30 10491 C 993.941 4.15257 -1.03661 0
M  V30 10492 C 993.267 5.33902 -0.291974 0
M  V30 10493 C 994.567 4.65516 -2.36837 0
M  V30 10494 H 996.261 2.53089 -1.59958 0
M  V30 10495 H 993.807 1.21649 -0.770552 0
M  V30 10496 H 995.76 4.21073 0.165852 0
M  V30 10497 H 994.484 3.15926 0.828155 0
M  V30 10498 H 993.143 3.43276 -1.28674 0
M  V30 10499 H 992.791 4.98926 0.638928 0
M  V30 10500 H 992.491 5.80407 -0.916613 0
M  V30 10501 H 994.015 6.1059 -0.0343915 0
M  V30 10502 H 995.429 5.30981 -2.16175 0
M  V30 10503 H 993.826 5.22666 -2.94856 0
M  V30 10504 H 994.896 3.81387 -2.99453 0
M  V30 10505 N 996.239 0.8527 1.3254 0
M  V30 10506 C 997.485 0.455798 1.97612 0
M  V30 10507 C 997.818 -0.985616 1.6733 0
M  V30 10508 O 997.093 -1.69129 0.960493 0
M  V30 10509 C 997.376 0.69312 3.53366 0
M  V30 10510 C 997.229 2.18281 3.93285 0
M  V30 10511 C 998.548 0.148236 4.3985 0
M  V30 10512 H 995.667 0.167078 0.717812 0
M  V30 10513 H 998.309 1.07076 1.56954 0
M  V30 10514 H 996.459 0.169677 3.88129 0
M  V30 10515 H 998.131 2.77218 3.68711 0
M  V30 10516 H 996.374 2.66206 3.42515 0
M  V30 10517 H 997.045 2.29957 5.01821 0
M  V30 10518 H 999.521 0.595834 4.11812 0
M  V30 10519 H 998.397 0.343873 5.47822 0
M  V30 10520 H 998.658 -0.948872 4.31797 0
M  V30 10521 N 997.718 -1.45297 0.610449 0
M  V30 10522 C 998.958 -2.04105 0.109802 0
M  V30 10523 C 999.322 -1.46818 -1.23727 0
M  V30 10524 O 1000.52 -1.96997 -1.82881 0
M  V30 10525 C 998.794 -3.57323 0.0741377 0
M  V30 10526 S 1000.35 -4.3728 -0.364901 0
M  V30 10527 H 997.171 -0.709171 0.050967 0
M  V30 10528 H 999.773 -1.77967 0.809194 0
M  V30 10529 H 998.477 -3.96528 1.05801 0
M  V30 10530 H 998.008 -3.8804 -0.647158 0
M  V30 10531 H 1000.02 -4.69224 -1.61379 0
M  V30 10532 N 999.196 -0.349774 -1.5367 0
M  V30 10533 C 1000.16 0.491676 -2.23864 0
M  V30 10534 C 1001.16 1.02256 -1.24098 0
M  V30 10535 O 1002.35 0.910816 -1.48492 0
M  V30 10536 C 999.481 1.68557 -2.96313 0
M  V30 10537 H 1000.67 -0.12233 -2.9965 0
M  V30 10538 H 998.227 -0.101214 -1.55972 0
M  V30 10539 H 998.962 2.3381 -2.2473 0
M  V30 10540 H 998.747 1.31203 -3.69497 0
M  V30 10541 H 1000.24 2.28225 -3.49718 0
M  V30 10542 N 1000.67 1.57404 -0.0785433 0
M  V30 10543 C 1001.92 1.94031 0.589896 0
M  V30 10544 C 1002.25 0.959297 1.68852 0
M  V30 10545 O 1001.53 -0.0103978 1.94497 0
M  V30 10546 C 1001.81 3.40886 1.16055 0
M  V30 10547 C 1001.66 4.49748 0.0681072 0
M  V30 10548 C 1002.98 3.88699 2.06401 0
M  V30 10549 H 1000.1 0.70556 0.212965 0
M  V30 10550 H 1002.74 1.89439 -0.145886 0
M  V30 10551 H 1000.89 3.4493 1.78761 0
M  V30 10552 H 1002.57 4.57823 -0.565318 0
M  V30 10553 H 1000.81 4.29625 -0.600431 0
M  V30 10554 H 1001.48 5.49658 0.507906 0
M  V30 10555 H 1003.96 3.86703 1.53622 0
M  V30 10556 H 1002.83 4.92052 2.43261 0
M  V30 10557 H 1003.09 3.2703 2.97496 0
M  V30 10558 N 1002.15 -0.195058 1.56388 0
M  V30 10559 C 1003.08 -1.24444 1.97575 0
M  V30 10560 C 1004.06 -1.47471 0.847717 0
M  V30 10561 O 1005.25 -1.59208 1.11205 0
M  V30 10562 C 1002.38 -2.58866 2.31529 0
M  V30 10563 C 1001.33 -2.50451 3.47071 0
M  V30 10564 C 1000.66 -3.89146 3.667 0
M  V30 10565 C 1001.96 -2.02953 4.81256 0
M  V30 10566 H 1003.65 -0.902178 2.85484 0
M  V30 10567 H 1001.2 -0.43254 1.3735 0
M  V30 10568 H 1003.15 -3.3246 2.58936 0
M  V30 10569 H 1001.87 -2.94833 1.40502 0
M  V30 10570 H 1000.53 -1.79313 3.19754 0
M  V30 10571 H 1000.18 -4.22466 2.73004 0
M  V30 10572 H 999.882 -3.84391 4.44429 0
M  V30 10573 H 1001.41 -4.64363 3.96484 0
M  V30 10574 H 1002.82 -2.66306 5.07695 0
M  V30 10575 H 1001.22 -2.092 5.62455 0
M  V30 10576 H 1002.29 -0.982757 4.74837 0
M  V30 10577 N 1003.63 -1.50653 -0.462772 0
M  V30 10578 C 1004.59 -1.69561 -1.54213 0
M  V30 10579 C 1005.59 -0.566106 -1.50505 0
M  V30 10580 O 1006.78 -0.833273 -1.52978 0
M  V30 10581 C 1003.91 -1.72856 -2.93826 0
M  V30 10582 H 1005.11 -2.65867 -1.38761 0
M  V30 10583 H 1002.66 -1.40259 -0.689728 0
M  V30 10584 H 1003.4 -0.78273 -3.14712 0
M  V30 10585 H 1003.18 -2.54919 -2.97924 0
M  V30 10586 H 1004.67 -1.89411 -3.72174 0
M  V30 10587 N 1005.11 0.71652 -1.4037 0
M  V30 10588 C 1006.39 1.46947 -1.29097 0
M  V30 10589 C 1006.77 2.10903 0.0911182 0
M  V30 10590 O 1006.11 2.00068 1.10385 0
M  V30 10591 C 1006.32 2.50594 -2.42907 0
M  V30 10592 C 1007.67 3.16451 -2.83097 0
M  V30 10593 O 1008.7 2.60913 -2.42493 0
M  V30 10594 O 1007.55 4.16991 -3.53244 0
M  V30 10595 H 1004.65 0.653413 -0.506932 0
M  V30 10596 H 1007.19 0.748774 -1.52287 0
M  V30 10597 H 1005.97 2.01843 -3.35224 0
M  V30 10598 H 1005.59 3.302 -2.21481 0
M  V30 10599 N 1006.59 1.25851 0.948643 0
M  V30 10600 C 1007.81 1.13813 1.73382 0
M  V30 10601 C 1008.24 -0.303615 1.85633 0
M  V30 10602 O 1007.59 -1.21997 1.34114 0
M  V30 10603 C 1007.64 1.80388 3.12238 0
M  V30 10604 O 1006.75 1.08759 3.978 0
M  V30 10605 H 1006.09 0.397006 0.532243 0
M  V30 10606 H 1008.62 1.66529 1.18866 0
M  V30 10607 H 1008.63 1.86913 3.62667 0
M  V30 10608 H 1007.3 2.85278 3.02637 0
M  V30 10609 H 1005.88 1.10157 3.56258 0
M  V30 10610 N 1008.06 -1.15214 1.07534 0
M  V30 10611 C 1008.97 -2.23636 0.708818 0
M  V30 10612 C 1009.99 -1.7172 -0.280759 0
M  V30 10613 O 1011.17 -2.01 -0.126927 0
M  V30 10614 C 1008.23 -3.46512 0.114167 0
M  V30 10615 C 1007.29 -4.13409 1.15722 0
M  V30 10616 C 1006.53 -5.30419 0.59085 0
M  V30 10617 O 1006.75 -5.67314 -0.592512 0
M  V30 10618 O 1005.68 -5.86871 1.33663 0
M  V30 10619 H 1009.51 -2.57322 1.61305 0
M  V30 10620 H 1007.09 -1.22972 0.848422 0
M  V30 10621 H 1008.98 -4.20851 -0.215091 0
M  V30 10622 H 1007.65 -3.1457 -0.763356 0
M  V30 10623 H 1006.56 -3.40984 1.53886 0
M  V30 10624 H 1007.89 -4.49435 2.00671 0
M  V30 10625 N 1009.54 -0.859717 -1.32086 0
M  V30 10626 C 1010.79 -0.466271 -1.97367 0
M  V30 10627 C 1011.12 0.976728 -1.6785 0
M  V30 10628 O 1010.4 1.68618 -0.969449 0
M  V30 10629 C 1010.68 -0.711851 -3.52994 0
M  V30 10630 C 1010.53 -2.20364 -3.92122 0
M  V30 10631 C 1011.85 -0.17156 -4.39765 0
M  V30 10632 H 1008.97 -0.170883 -0.716916 0
M  V30 10633 H 1011.61 -1.07907 -1.56384 0
M  V30 10634 H 1009.76 -0.190258 -3.88034 0
M  V30 10635 H 1011.43 -2.7917 -3.67236 0
M  V30 10636 H 1009.68 -2.68019 -3.41099 0
M  V30 10637 H 1010.35 -2.32615 -5.00594 0
M  V30 10638 H 1012.82 -0.617665 -4.1149 0
M  V30 10639 H 1011.7 -0.372921 -5.47632 0
M  V30 10640 H 1011.96 0.925959 -4.32294 0
M  V30 10641 N 1011.02 1.44971 -0.618145 0
M  V30 10642 C 1011.95 2.28815 0.132751 0
M  V30 10643 C 1012.97 1.40551 0.821535 0
M  V30 10644 O 1014.15 1.64827 0.685155 0
M  V30 10645 C 1011.25 3.1658 1.20955 0
M  V30 10646 C 1010.43 4.33184 0.605821 0
M  V30 10647 C 1009.49 5.0208 1.57488 0
M  V30 10648 O 1008.51 5.58528 1.09706 0
M  V30 10649 N 1009.71 5.02335 2.9093 0
M  V30 10650 H 1012.48 2.939 -0.58674 0
M  V30 10651 H 1010.04 1.55276 -0.458375 0
M  V30 10652 H 1012.03 3.59535 1.85787 0
M  V30 10653 H 1010.6 2.53333 1.83143 0
M  V30 10654 H 1009.82 3.93581 -0.220827 0
M  V30 10655 H 1011.11 5.08471 0.182883 0
M  V30 10656 H 1010.51 4.57783 3.32342 0
M  V30 10657 H 1009.07 5.49119 3.51157 0
M  V30 10658 N 1012.5 0.357919 1.53482 0
M  V30 10659 C 1013.46 -0.479797 2.24122 0
M  V30 10660 C 1014.46 -1.01596 1.24639 0
M  V30 10661 O 1015.65 -0.902928 1.48973 0
M  V30 10662 C 1012.78 -1.66983 2.97203 0
M  V30 10663 H 1013.98 0.138219 2.99581 0
M  V30 10664 H 1011.53 0.109484 1.55916 0
M  V30 10665 H 1012.26 -2.32615 2.25966 0
M  V30 10666 H 1012.05 -1.29242 3.70188 0
M  V30 10667 H 1013.54 -2.26367 3.50924 0
M  V30 10668 N 1013.98 -1.5736 0.0868897 0
M  V30 10669 C 1014.92 -2.13571 -0.874996 0
M  V30 10670 C 1015.89 -1.0521 -1.2853 0
M  V30 10671 O 1017.08 -1.32954 -1.3685 0
M  V30 10672 C 1014.22 -2.71386 -2.13175 0
M  V30 10673 C 1013.33 -3.93953 -1.77272 0
M  V30 10674 C 1012.47 -4.3996 -2.97671 0
M  V30 10675 C 1011.51 -5.55137 -2.57856 0
M  V30 10676 N 1010.64 -5.96034 -3.71064 0
M  V30 10677 H 1015.48 -2.95453 -0.388789 0
M  V30 10678 H 1013.02 -1.45992 -0.180242 0
M  V30 10679 H 1014.98 -3.03022 -2.86764 0
M  V30 10680 H 1013.61 -1.92245 -2.5931 0
M  V30 10681 H 1012.66 -3.68683 -0.936845 0
M  V30 10682 H 1013.97 -4.77565 -1.43989 0
M  V30 10683 H 1013.13 -4.73337 -3.79522 0
M  V30 10684 H 1011.86 -3.55232 -3.34158 0
M  V30 10685 H 1010.87 -5.21397 -1.7443 0
M  V30 10686 H 1012.09 -6.41608 -2.22522 0
M  V30 10687 H 1010.04 -5.14253 -4.07284 0
M  V30 10688 H 1009.96 -6.74423 -3.41599 0
M  V30 10689 H 1011.23 -6.34038 -4.53449 0
M  V30 10690 N 1015.45 0.186762 -1.56489 0
M  V30 10691 C 1016.87 0.537933 -1.50261 0
M  V30 10692 C 1017.07 1.85435 -0.788414 0
M  V30 10693 O 1016.13 2.50168 -0.342377 0
M  V30 10694 C 1017.44 0.584965 -2.94955 0
M  V30 10695 C 1018.99 0.673228 -3.05674 0
M  V30 10696 C 1019.46 0.751294 -4.51796 0
M  V30 10697 N 1020.95 0.814599 -4.55981 0
M  V30 10698 C 1021.69 0.895313 -5.66367 0
M  V30 10699 N 1021.18 0.937814 -6.86423 0
M  V30 10700 N 1022.98 0.933145 -5.543 0
M  V30 10701 H 1015.13 -0.676636 -2.01334 0
M  V30 10702 H 1017.39 -0.242079 -0.916571 0
M  V30 10703 H 1017.1 -0.313361 -3.50301 0
M  V30 10704 H 1016.97 1.4368 -3.48763 0
M  V30 10705 H 1019.36 1.56198 -2.50372 0
M  V30 10706 H 1019.44 -0.204976 -2.54977 0
M  V30 10707 H 1019.08 -0.133143 -5.07725 0
M  V30 10708 H 1019.01 1.64542 -5.00233 0
M  V30 10709 H 1021.5 0.790662 -3.69536 0
M  V30 10710 H 1021.82 1.00015 -7.66301 0
M  V30 10711 H 1020.16 0.906351 -6.89065 0
M  V30 10712 H 1023.35 0.896836 -4.59428 0
M  V30 10713 H 1023.53 0.992588 -6.40353 0
M  V30 10714 N 1016.93 1.50896 0.454776 0
M  V30 10715 C 1017.9 1.70377 1.53312 0
M  V30 10716 C 1018.9 0.57408 1.50203 0
M  V30 10717 O 1020.09 0.841374 1.52534 0
M  V30 10718 C 1017.22 1.74411 2.92905 0
M  V30 10719 H 1018.41 2.66599 1.37349 0
M  V30 10720 H 1015.96 1.40622 0.68228 0
M  V30 10721 H 1016.7 0.799408 3.14293 0
M  V30 10722 H 1016.48 2.56496 2.96568 0
M  V30 10723 H 1017.97 1.91382 3.71164 0
M  V30 10724 N 1018.41 -0.709066 1.40748 0
M  V30 10725 C 1019.37 -1.80485 1.41272 0
M  V30 10726 C 1020.37 -1.57872 0.305463 0
M  V30 10727 O 1021.56 -1.64793 0.564691 0
M  V30 10728 C 1018.7 -3.1867 1.21087 0
M  V30 10729 H 1019.89 -1.81417 2.38805 0
M  V30 10730 H 1017.44 -0.915356 1.26692 0
M  V30 10731 H 1018.18 -3.23385 0.243406 0
M  V30 10732 H 1017.96 -3.36484 2.01299 0
M  V30 10733 H 1019.45 -3.98685 1.24257 0
M  V30 10734 N 1019.89 -1.26353 -0.941956 0
M  V30 10735 C 1020.84 -1.07842 -2.04056 0
M  V30 10736 C 1021.81 0.0163064 -1.66092 0
M  V30 10737 O 1022.99 -0.143313 -1.90261 0
M  V30 10738 C 1020.13 -0.716636 -3.37577 0
M  V30 10739 C 1019.24 -1.88754 -3.88582 0
M  V30 10740 C 1018.38 -1.46893 -5.10486 0
M  V30 10741 C 1017.42 -2.60819 -5.53751 0
M  V30 10742 N 1016.56 -2.19646 -6.66858 0
M  V30 10743 H 1021.4 -2.01856 -2.19221 0
M  V30 10744 H 1018.93 -1.00504 -1.07412 0
M  V30 10745 H 1020.89 -0.487768 -4.14339 0
M  V30 10746 H 1019.52 0.18653 -3.22261 0
M  V30 10747 H 1018.57 -2.22936 -3.08227 0
M  V30 10748 H 1019.88 -2.74264 -4.1663 0
M  V30 10749 H 1019.04 -1.20047 -5.94705 0
M  V30 10750 H 1017.78 -0.584721 -4.84182 0
M  V30 10751 H 1016.78 -2.88396 -4.6809 0
M  V30 10752 H 1018.01 -3.49838 -5.82057 0
M  V30 10753 H 1015.95 -1.33657 -6.4224 0
M  V30 10754 H 1015.87 -2.987 -6.94489 0
M  V30 10755 H 1017.14 -1.96009 -7.54454 0
M  V30 10756 N 1021.37 1.14642 -1.08144 0
M  V30 10757 C 1022.78 1.37604 -0.808537 0
M  V30 10758 C 1022.98 1.92868 0.583452 0
M  V30 10759 O 1022.04 2.13964 1.34073 0
M  V30 10760 C 1023.35 2.3396 -1.889 0
M  V30 10761 C 1024.9 2.47605 -1.9147 0
M  V30 10762 C 1025.38 3.47258 -2.98623 0
M  V30 10763 N 1026.87 3.548 -2.97777 0
M  V30 10764 C 1027.6 4.31751 -3.77331 0
M  V30 10765 N 1027.1 5.11966 -4.66757 0
M  V30 10766 N 1028.89 4.2692 -3.65645 0
M  V30 10767 H 1021.04 0.771154 -1.97906 0
M  V30 10768 H 1023.3 0.401694 -0.858688 0
M  V30 10769 H 1023.01 2.00484 -2.88962 0
M  V30 10770 H 1022.88 3.33833 -1.756 0
M  V30 10771 H 1025.27 2.80375 -0.920548 0
M  V30 10772 H 1025.35 1.47702 -2.08848 0
M  V30 10773 H 1025 3.15223 -3.98243 0
M  V30 10774 H 1024.93 4.46935 -2.7849 0
M  V30 10775 H 1027.42 2.97553 -2.3296 0
M  V30 10776 H 1027.73 5.67951 -5.24072 0
M  V30 10777 H 1026.08 5.11245 -4.70801 0
M  V30 10778 H 1029.27 3.63322 -2.95152 0
M  V30 10779 H 1029.44 4.8664 -4.27885 0
M  V30 10780 N 1022.85 0.866709 1.31628 0
M  V30 10781 C 1024.09 0.476731 1.97117 0
M  V30 10782 C 1024.42 -0.967813 1.68366 0
M  V30 10783 O 1023.7 -1.68101 0.978377 0
M  V30 10784 C 1023.98 0.730561 3.52611 0
M  V30 10785 C 1023.84 2.2244 3.90948 0
M  V30 10786 C 1025.15 0.19488 4.39668 0
M  V30 10787 H 1022.27 0.174682 0.715999 0
M  V30 10788 H 1024.92 1.08735 1.5581 0
M  V30 10789 H 1023.07 0.210834 3.87927 0
M  V30 10790 H 1024.74 2.81113 3.6575 0
M  V30 10791 H 1022.98 2.69824 3.39673 0
M  V30 10792 H 1023.65 2.35266 4.99353 0
M  V30 10793 H 1026.13 0.639478 4.11157 0
M  V30 10794 H 1025 0.401958 5.47426 0
M  V30 10795 H 1025.26 -0.90302 4.32779 0
M  V30 10796 N 1024.32 -1.44642 0.625825 0
M  V30 10797 C 1025.27 -2.30653 -0.082259 0
M  V30 10798 C 1026.24 -1.43174 -0.842052 0
M  V30 10799 O 1027.43 -1.72082 -0.824151 0
M  V30 10800 C 1024.57 -3.2837 -1.06146 0
M  V30 10801 C 1023.68 -4.30953 -0.300638 0
M  V30 10802 C 1022.81 -5.15766 -1.27118 0
M  V30 10803 C 1021.85 -6.10061 -0.499215 0
M  V30 10804 N 1020.99 -6.87591 -1.41995 0
M  V30 10805 H 1025.83 -2.90664 0.657161 0
M  V30 10806 H 1023.37 -1.43215 0.335859 0
M  V30 10807 H 1025.32 -3.83507 -1.6425 0
M  V30 10808 H 1023.95 -2.70072 -1.76807 0
M  V30 10809 H 1023.01 -3.78331 0.396234 0
M  V30 10810 H 1024.32 -4.97892 0.300851 0
M  V30 10811 H 1023.47 -5.75394 -1.92372 0
M  V30 10812 H 1022.21 -4.48888 -1.9066 0
M  V30 10813 H 1021.22 -5.49547 0.166848 0
M  V30 10814 H 1022.44 -6.78973 0.131409 0
M  V30 10815 H 1020.39 -6.23387 -2.04267 0
M  V30 10816 H 1020.3 -7.5095 -0.872354 0
M  V30 10817 H 1021.57 -7.51746 -2.0615 0
M  V30 10818 N 1025.8 -0.366053 -1.5329 0
M  V30 10819 C 1027.05 0.224614 -2.00445 0
M  V30 10820 C 1027.36 1.49829 -1.2574 0
M  V30 10821 O 1028.57 2.16759 -1.63487 0
M  V30 10822 C 1027.03 0.450818 -3.57065 0
M  V30 10823 C 1026.63 -0.808257 -4.40649 0
M  V30 10824 C 1028.38 0.999116 -4.12575 0
M  V30 10825 C 1026.28 -0.551612 -5.88822 0
M  V30 10826 H 1025.21 0.0877114 -0.748881 0
M  V30 10827 H 1027.87 -0.484866 -1.76978 0
M  V30 10828 H 1026.25 1.22157 -3.76688 0
M  V30 10829 H 1027.42 -1.58184 -4.32798 0
M  V30 10830 H 1025.74 -1.27981 -3.96245 0
M  V30 10831 H 1028.33 1.20646 -5.20911 0
M  V30 10832 H 1028.68 1.96139 -3.67199 0
M  V30 10833 H 1029.21 0.288518 -3.96752 0
M  V30 10834 H 1025.95 -1.48423 -6.38475 0
M  V30 10835 H 1025.47 0.183462 -5.99519 0
M  V30 10836 H 1027.15 -0.177307 -6.46757 0
M  V30 10837 N 1027.28 1.57312 -0.0952337 0
M  V30 10838 C 1028.53 1.94646 0.569284 0
M  V30 10839 C 1028.86 0.977152 1.67825 0
M  V30 10840 O 1028.13 0.0102318 1.94497 0
M  V30 10841 C 1028.42 3.42098 1.12433 0
M  V30 10842 C 1028.27 4.49795 0.0204016 0
M  V30 10843 C 1029.59 3.90866 2.02266 0
M  V30 10844 H 1026.71 0.707779 0.205469 0
M  V30 10845 H 1029.35 1.89274 -0.16597 0
M  V30 10846 H 1027.5 3.46807 1.75092 0
M  V30 10847 H 1029.17 4.57198 -0.613845 0
M  V30 10848 H 1027.41 4.28964 -0.645965 0
M  V30 10849 H 1028.09 5.50166 0.449579 0
M  V30 10850 H 1030.56 3.88311 1.49512 0
M  V30 10851 H 1029.44 4.94604 2.38029 0
M  V30 10852 H 1029.7 3.30167 2.9401 0
M  V30 10853 N 1028.76 -0.17846 1.56586 0
M  V30 10854 C 1029.99 -0.910674 1.85446 0
M  V30 10855 C 1030.4 -1.76647 0.677675 0
M  V30 10856 O 1029.74 -1.80086 -0.362584 0
M  V30 10857 C 1029.8 -1.84363 3.08627 0
M  V30 10858 C 1029.46 -1.16814 4.41818 0
M  V30 10859 C 1030.46 -0.53703 5.17119 0
M  V30 10860 C 1028.15 -1.16703 4.88555 0
M  V30 10861 C 1030.14 0.0861778 6.37342 0
M  V30 10862 C 1027.83 -0.539992 6.0871 0
M  V30 10863 C 1028.83 0.0855135 6.82946 0
M  V30 10864 O 1028.51 0.70268 8.00823 0
M  V30 10865 H 1028.25 -0.270377 0.619574 0
M  V30 10866 H 1030.8 -0.185591 2.0456 0
M  V30 10867 H 1029.03 -2.60884 2.85441 0
M  V30 10868 H 1030.72 -2.44506 3.23993 0
M  V30 10869 H 1031.48 -0.529915 4.82096 0
M  V30 10870 H 1027.36 -1.64329 4.30717 0
M  V30 10871 H 1030.91 0.575011 6.95226 0
M  V30 10872 H 1026.8 -0.544666 6.43198 0
M  V30 10873 H 1027.57 0.601224 8.16289 0
M  V30 10874 N 1030.24 -1.51135 -0.446768 0
M  V30 10875 C 1031.17 -1.67949 -1.55967 0
M  V30 10876 C 1032.18 -0.560337 -1.52853 0
M  V30 10877 O 1033.37 -0.83435 -1.578 0
M  V30 10878 C 1030.47 -1.6703 -2.9488 0
M  V30 10879 C 1029.64 -2.95377 -3.22601 0
M  V30 10880 C 1028.7 -2.86772 -4.4119 0
M  V30 10881 O 1027.73 -3.60722 -4.40304 0
M  V30 10882 N 1028.93 -2.01979 -5.44228 0
M  V30 10883 H 1031.69 -2.63951 -1.41951 0
M  V30 10884 H 1029.26 -1.48903 -0.635569 0
M  V30 10885 H 1031.25 -1.58854 -3.7222 0
M  V30 10886 H 1029.82 -0.786623 -3.02541 0
M  V30 10887 H 1029.04 -3.17494 -2.33647 0
M  V30 10888 H 1030.33 -3.80356 -3.37945 0
M  V30 10889 H 1029.72 -1.41257 -5.4778 0
M  V30 10890 H 1028.28 -1.99689 -6.20457 0
M  V30 10891 N 1031.71 0.701592 -1.41122 0
M  V30 10892 C 1032.99 1.45569 -1.30648 0
M  V30 10893 C 1033.37 2.10988 0.068744 0
M  V30 10894 O 1032.72 2.01228 1.08257 0
M  V30 10895 C 1032.93 2.48003 -2.45551 0
M  V30 10896 C 1034.28 3.13431 -2.86437 0
M  V30 10897 O 1035.3 2.58327 -2.45247 0
M  V30 10898 O 1034.16 4.13221 -3.57646 0
M  V30 10899 H 1031.25 0.648 -0.513834 0
M  V30 10900 H 1033.8 0.73258 -1.53073 0
M  V30 10901 H 1032.57 1.98276 -3.37346 0
M  V30 10902 H 1032.19 3.27832 -2.24971 0
M  V30 10903 N 1033.19 1.2685 0.935242 0
M  V30 10904 C 1034.12 1.1143 2.05196 0
M  V30 10905 C 1035.1 0.0178362 1.70091 0
M  V30 10906 O 1036.29 0.190951 1.93259 0
M  V30 10907 C 1033.42 0.752779 3.39044 0
M  V30 10908 C 1032.37 1.80164 3.88233 0
M  V30 10909 C 1031.7 1.29428 5.18799 0
M  V30 10910 C 1033 3.20431 4.12457 0
M  V30 10911 H 1034.69 2.04845 2.18355 0
M  V30 10912 H 1032.24 0.986276 1.04922 0
M  V30 10913 H 1034.19 0.631757 4.16637 0
M  V30 10914 H 1032.91 -0.217075 3.25878 0
M  V30 10915 H 1031.57 1.91144 3.12825 0
M  V30 10916 H 1031.22 0.3141 5.02018 0
M  V30 10917 H 1030.92 1.99546 5.5268 0
M  V30 10918 H 1032.45 1.18605 5.9897 0
M  V30 10919 H 1033.86 3.12495 4.80645 0
M  V30 10920 H 1032.26 3.88193 4.57631 0
M  V30 10921 H 1033.33 3.66046 3.18023 0
M  V30 10922 N 1034.67 -1.14067 1.0875 0
M  V30 10923 C 1035.58 -2.22871 0.732498 0
M  V30 10924 C 1036.6 -1.72008 -0.26253 0
M  V30 10925 O 1037.77 -2.01123 -0.105601 0
M  V30 10926 C 1034.84 -3.46371 0.150913 0
M  V30 10927 C 1033.9 -4.12158 1.201 0
M  V30 10928 C 1033.13 -5.29763 0.647075 0
M  V30 10929 O 1033.35 -5.67911 -0.532307 0
M  V30 10930 O 1032.29 -5.8542 1.3988 0
M  V30 10931 H 1036.11 -2.55596 1.64025 0
M  V30 10932 H 1033.7 -1.22065 0.861417 0
M  V30 10933 H 1035.58 -4.21055 -0.170442 0
M  V30 10934 H 1034.26 -3.15362 -0.729948 0
M  V30 10935 H 1033.16 -3.39332 1.57494 0
M  V30 10936 H 1034.5 -4.47282 2.05426 0
M  V30 10937 N 1036.15 -0.873678 -1.31166 0
M  V30 10938 C 1037.56 -0.53852 -1.78765 0
M  V30 10939 C 1037.91 0.944765 -1.71955 0
M  V30 10940 O 1037.04 1.73781 -1.28954 0
M  V30 10941 C 1037.63 -0.970749 -3.24595 0
M  V30 10942 C 1036.19 -0.687189 -3.70074 0
M  V30 10943 C 1035.34 -1.16001 -2.51871 0
M  V30 10944 H 1038.29 -1.05903 -1.18196 0
M  V30 10945 H 1038.31 -0.294966 -3.79355 0
M  V30 10946 H 1037.82 -2.05034 -3.29519 0
M  V30 10947 H 1035.92 0.380881 -3.70648 0
M  V30 10948 H 1036.03 -1.26682 -4.62048 0
M  V30 10949 H 1034.4 -0.579663 -2.48016 0
M  V30 10950 H 1035.18 -2.2471 -2.59539 0
M  V30 10951 N 1037.63 1.44308 -0.633487 0
M  V30 10952 C 1038.56 2.33431 0.0568402 0
M  V30 10953 C 1039.54 1.48342 0.832386 0
M  V30 10954 O 1040.72 1.77056 0.797798 0
M  V30 10955 C 1037.85 3.31443 1.03743 0
M  V30 10956 C 1036.81 4.26368 0.373362 0
M  V30 10957 C 1036.13 5.14267 1.46403 0
M  V30 10958 C 1037.43 5.17287 -0.721876 0
M  V30 10959 H 1039.13 2.91402 -0.687388 0
M  V30 10960 H 1036.67 1.4012 -0.332009 0
M  V30 10961 H 1038.63 3.92677 1.52913 0
M  V30 10962 H 1037.35 2.71686 1.81258 0
M  V30 10963 H 1036.01 3.6647 -0.0977053 0
M  V30 10964 H 1035.66 4.50861 2.23011 0
M  V30 10965 H 1035.36 5.7859 1.02506 0
M  V30 10966 H 1036.88 5.78373 1.95748 0
M  V30 10967 H 1038.29 5.72444 -0.313181 0
M  V30 10968 H 1036.69 5.90226 -1.08413 0
M  V30 10969 H 1037.76 4.58159 -1.58804 0
M  V30 10970 N 1039.1 0.374177 1.53094 0
M  V30 10971 C 1040.35 -0.213981 2.00562 0
M  V30 10972 C 1040.67 -1.4916 1.26533 0
M  V30 10973 O 1041.87 -2.15889 1.64634 0
M  V30 10974 C 1040.33 -0.431876 3.57299 0
M  V30 10975 C 1039.94 0.831615 4.40214 0
M  V30 10976 C 1041.68 -0.977222 4.13099 0
M  V30 10977 C 1039.59 0.582831 5.88521 0
M  V30 10978 H 1038.52 -0.0837386 0.749336 0
M  V30 10979 H 1041.17 0.494245 1.76719 0
M  V30 10980 H 1039.55 -1.20158 3.7733 0
M  V30 10981 H 1040.72 1.60477 4.31953 0
M  V30 10982 H 1039.04 1.30081 3.9556 0
M  V30 10983 H 1041.64 -1.17881 5.21544 0
M  V30 10984 H 1041.98 -1.94189 3.68234 0
M  V30 10985 H 1042.51 -0.267473 3.969 0
M  V30 10986 H 1039.25 1.51807 6.37679 0
M  V30 10987 H 1038.77 -0.151666 5.99608 0
M  V30 10988 H 1040.45 0.211604 6.46654 0
M  V30 10989 N 1040.58 -1.57259 0.103575 0
M  V30 10990 C 1041.51 -2.17509 -0.84923 0
M  V30 10991 C 1042.49 -1.11079 -1.28824 0
M  V30 10992 O 1043.68 -1.39252 -1.35361 0
M  V30 10993 C 1040.81 -2.76221 -2.10522 0
M  V30 10994 C 1039.76 -3.88098 -1.80454 0
M  V30 10995 C 1039.09 -4.33549 -3.12952 0
M  V30 10996 C 1040.39 -5.10909 -1.08486 0
M  V30 10997 H 1042.08 -2.9738 -0.347217 0
M  V30 10998 H 1039.63 -1.43045 -0.165568 0
M  V30 10999 H 1041.58 -3.17024 -2.77621 0
M  V30 11000 H 1040.31 -1.93617 -2.63021 0
M  V30 11001 H 1038.96 -3.47847 -1.15749 0
M  V30 11002 H 1038.61 -3.47825 -3.63355 0
M  V30 11003 H 1038.31 -5.08984 -2.93614 0
M  V30 11004 H 1039.84 -4.76992 -3.81196 0
M  V30 11005 H 1041.25 -5.48828 -1.65711 0
M  V30 11006 H 1039.65 -5.91828 -0.992973 0
M  V30 11007 H 1040.72 -4.84851 -0.0690108 0
M  V30 11008 N 1042.06 0.170153 -1.56679 0
M  V30 11009 C 1043.29 0.902134 -1.86197 0
M  V30 11010 C 1043.7 1.75775 -0.689098 0
M  V30 11011 O 1043.06 1.79271 0.341763 0
M  V30 11012 C 1043.11 1.77792 -3.14757 0
M  V30 11013 O 1042.83 0.956817 -4.27524 0
M  V30 11014 C 1044.33 2.61947 -3.57629 0
M  V30 11015 H 1041.55 0.262026 -0.617724 0
M  V30 11016 H 1044.1 0.169899 -2.03793 0
M  V30 11017 H 1042.25 2.46348 -2.98984 0
M  V30 11018 H 1042.67 1.5559 -5.00891 0
M  V30 11019 H 1044.14 3.19011 -4.50484 0
M  V30 11020 H 1044.62 3.36873 -2.81803 0
M  V30 11021 H 1045.22 1.98721 -3.76019 0
M  V30 11022 N 1043.54 1.5137 0.438746 0
M  V30 11023 C 1044.79 1.63202 1.18524 0
M  V30 11024 C 1045.1 0.353408 1.92381 0
M  V30 11025 O 1046.31 0.351086 2.6922 0
M  V30 11026 C 1044.76 2.88218 2.15542 0
M  V30 11027 C 1044.37 4.23078 1.47339 0
M  V30 11028 C 1046.11 3.09407 2.90633 0
M  V30 11029 C 1044.02 5.39246 2.42833 0
M  V30 11030 H 1042.95 0.607864 0.446114 0
M  V30 11031 H 1045.6 1.77835 0.452421 0
M  V30 11032 H 1043.98 2.67216 2.92253 0
M  V30 11033 H 1045.16 4.54457 0.761964 0
M  V30 11034 H 1043.47 4.07755 0.844065 0
M  V30 11035 H 1046.07 3.9337 3.62165 0
M  V30 11036 H 1046.41 2.22428 3.51897 0
M  V30 11037 H 1046.95 3.30743 2.21029 0
M  V30 11038 H 1043.69 6.2848 1.8626 0
M  V30 11039 H 1043.21 5.12245 3.12034 0
M  V30 11040 H 1044.88 5.71137 3.03992 0
M  V30 11041 N 1045.02 -0.694098 1.41492 0
M  V30 11042 C 1045.93 -1.83778 1.45818 0
M  V30 11043 C 1046.94 -1.70471 0.348639 0
M  V30 11044 O 1048.12 -1.92361 0.596588 0
M  V30 11045 C 1045.18 -3.19771 1.33967 0
M  V30 11046 C 1044.24 -3.45175 2.5525 0
M  V30 11047 C 1043.48 -4.74681 2.43955 0
M  V30 11048 O 1043.7 -5.51268 1.46491 0
M  V30 11049 O 1042.63 -5.00901 3.33739 0
M  V30 11050 H 1046.46 -1.83084 2.42309 0
M  V30 11051 H 1044.05 -0.847349 1.23046 0
M  V30 11052 H 1045.93 -4.00961 1.29648 0
M  V30 11053 H 1044.6 -3.21145 0.405926 0
M  V30 11054 H 1043.51 -2.6391 2.65146 0
M  V30 11055 H 1044.84 -3.48617 3.47458 0
M  V30 11056 N 1046.49 -1.27344 -0.928501 0
M  V30 11057 C 1047.4 -1.11812 -2.06241 0
M  V30 11058 C 1048.42 -0.048347 -1.73933 0
M  V30 11059 O 1049.6 -0.25467 -1.99783 0
M  V30 11060 C 1046.66 -0.766036 -3.38131 0
M  V30 11061 C 1045.72 -1.91659 -3.84142 0
M  V30 11062 C 1044.96 -1.58121 -5.09738 0
M  V30 11063 O 1045.18 -0.488742 -5.68302 0
M  V30 11064 O 1044.11 -2.42013 -5.51102 0
M  V30 11065 H 1047.94 -2.06967 -2.22258 0
M  V30 11066 H 1045.52 -1.06524 -1.04752 0
M  V30 11067 H 1047.41 -0.582982 -4.17348 0
M  V30 11068 H 1046.08 0.155998 -3.23324 0
M  V30 11069 H 1044.99 -2.1547 -3.05816 0
M  V30 11070 H 1046.32 -2.8188 -4.0349 0
M  V30 11071 N 1047.97 1.13488 -1.09353 0
M  V30 11072 C 1049.2 1.89133 -0.85108 0
M  V30 11073 C 1049.62 1.78542 0.591976 0
M  V30 11074 O 1048.98 1.13243 1.41583 0
M  V30 11075 C 1049.03 3.36736 -1.29001 0
M  V30 11076 O 1048.13 4.09959 -0.447993 0
M  V30 11077 H 1047.47 0.58809 -0.308296 0
M  V30 11078 H 1050 1.43593 -1.45747 0
M  V30 11079 H 1050.01 3.87564 -1.27508 0
M  V30 11080 H 1048.69 3.43762 -2.34095 0
M  V30 11081 H 1047.27 3.69155 -0.52717 0
M  V30 11082 N 1049.45 0.880621 1.30701 0
M  V30 11083 C 1050.7 0.492957 1.95583 0
M  V30 11084 C 1051.01 -0.961863 1.70316 0
M  V30 11085 O 1052.22 -1.45617 2.29146 0
M  V30 11086 C 1050.68 0.830656 3.50183 0
M  V30 11087 C 1050.28 2.30295 3.84276 0
M  V30 11088 C 1052.03 0.511979 4.21401 0
M  V30 11089 C 1049.93 2.58251 5.32034 0
M  V30 11090 H 1048.86 0.18062 0.732047 0
M  V30 11091 H 1051.52 1.075 1.48715 0
M  V30 11092 H 1049.9 0.177752 3.95601 0
M  V30 11093 H 1051.07 2.99981 3.49783 0
M  V30 11094 H 1049.39 2.58873 3.2615 0
M  V30 11095 H 1051.98 0.697935 5.30125 0
M  V30 11096 H 1052.33 -0.548327 4.12673 0
M  V30 11097 H 1052.86 1.12189 3.81652 0
M  V30 11098 H 1049.6 3.63005 5.45809 0
M  V30 11099 H 1049.12 1.9317 5.67843 0
M  V30 11100 H 1050.8 2.43527 5.99419 0
M  V30 11101 N 1050.93 -1.4397 0.641131 0
M  V30 11102 C 1051.86 -2.28997 -0.0963315 0
M  V30 11103 C 1052.87 -1.4184 -0.799071 0
M  V30 11104 O 1054.06 -1.65896 -0.658846 0
M  V30 11105 C 1051.16 -3.18465 -1.15903 0
M  V30 11106 C 1050.34 -4.34093 -0.536828 0
M  V30 11107 C 1049.4 -5.04522 -1.4948 0
M  V30 11108 O 1048.42 -5.60202 -1.00807 0
M  V30 11109 N 1049.62 -5.06899 -2.82901 0
M  V30 11110 H 1052.39 -2.9293 0.633422 0
M  V30 11111 H 1049.95 -1.54527 0.48302 0
M  V30 11112 H 1051.94 -3.62445 -1.80044 0
M  V30 11113 H 1050.51 -2.56214 -1.79089 0
M  V30 11114 H 1049.73 -3.9318 0.283414 0
M  V30 11115 H 1051.02 -5.08698 -0.101966 0
M  V30 11116 H 1050.42 -4.63012 -3.25017 0
M  V30 11117 H 1048.97 -5.54637 -3.42376 0
M  V30 11118 N 1052.41 -0.382291 -1.52893 0
M  V30 11119 C 1053.36 0.473026 -2.23039 0
M  V30 11120 C 1054.34 1.0353 -1.23168 0
M  V30 11121 O 1055.53 0.962566 -1.48538 0
M  V30 11122 C 1052.66 1.60349 -3.03551 0
M  V30 11123 C 1051.75 1.05329 -4.10812 0
M  V30 11124 N 1052.14 0.22746 -5.05288 0
M  V30 11125 C 1050.44 1.32648 -4.25818 0
M  V30 11126 C 1051.14 -0.0757032 -5.81651 0
M  V30 11127 N 1050.11 0.526387 -5.41045 0
M  V30 11128 H 1053.92 -0.164541 -2.93439 0
M  V30 11129 H 1051.43 -0.191211 -1.6127 0
M  V30 11130 H 1053.43 2.22858 -3.52335 0
M  V30 11131 H 1052.09 2.24394 -2.34685 0
M  V30 11132 H 1053.1 -0.134714 -5.17725 0
M  V30 11133 H 1049.78 1.96849 -3.6818 0
M  V30 11134 H 1051.17 -0.744375 -6.67764 0
M  V30 11135 N 1053.89 1.57202 -0.111913 0
M  V30 11136 C 1054.83 2.16186 0.858286 0
M  V30 11137 C 1055.83 1.10917 1.28039 0
M  V30 11138 O 1057.03 1.29233 1.25295 0
M  V30 11139 H 1053.41 0.691777 0.29487 0
M  V30 11140 H 1055.38 2.96499 0.336265 0
M  V30 11141 C 1054.13 2.77024 2.10127 0
M  V30 11142 H 1053.45 3.5772 1.78539 0
M  V30 11143 H 1054.89 3.21841 2.76033 0
M  V30 11144 C 1053.35 1.73752 2.88638 0
M  V30 11145 O 1053.88 1.18659 3.83774 0
M  V30 11146 N 1052.09 1.43855 2.52496 0
M  V30 11147 H 1051.63 1.88846 1.75199 0
M  V30 11148 H 1051.59 0.749985 3.05324 0
M  V30 11149 N 1055.36 -0.161842 1.56767 0
M  V30 11150 C 1056.59 -0.896274 1.87034 0
M  V30 11151 C 1057.01 -1.74617 0.699314 0
M  V30 11152 O 1056.37 -1.77861 -0.351435 0
M  V30 11153 C 1056.42 -1.74105 3.15784 0
M  V30 11154 O 1055.52 -2.84372 2.98674 0
M  V30 11155 H 1054.86 -0.250523 0.614926 0
M  V30 11156 H 1057.39 -0.157127 2.03996 0
M  V30 11157 H 1057.4 -2.13907 3.4743 0
M  V30 11158 H 1056.08 -1.11684 4.00624 0
M  V30 11159 H 1054.66 -2.48084 2.78404 0
M  V30 11160 N 1056.84 -1.516 -0.430713 0
M  V30 11161 C 1058.07 -1.687 -1.20644 0
M  V30 11162 C 1058.49 -0.386555 -1.84085 0
M  V30 11163 O 1057.85 0.653952 -1.69095 0
M  V30 11164 C 1057.9 -2.80887 -2.2613 0
M  V30 11165 O 1057 -2.44952 -3.31772 0
M  V30 11166 H 1056.34 -0.562289 -0.353167 0
M  V30 11167 H 1058.87 -1.98198 -0.507807 0
M  V30 11168 H 1058.88 -3.05167 -2.70809 0
M  V30 11169 H 1057.56 -3.75249 -1.79334 0
M  V30 11170 H 1056.13 -2.31267 -2.92523 0
M  V30 11171 N 1058.32 0.686584 -1.41858 0
M  V30 11172 C 1059.57 1.44665 -1.41698 0
M  V30 11173 C 1059.89 1.94478 -0.0292442 0
M  V30 11174 O 1059.15 1.70512 0.960421 0
M  V30 11175 C 1059.45 2.66793 -2.37816 0
M  V30 11176 C 1059.11 2.35587 -3.8446 0
M  V30 11177 C 1057.78 2.26788 -4.24406 0
M  V30 11178 C 1060.13 2.10028 -4.77009 0
M  V30 11179 C 1057.46 1.90538 -5.54898 0
M  V30 11180 C 1059.81 1.75285 -6.07831 0
M  V30 11181 C 1058.47 1.64987 -6.46789 0
M  V30 11182 H 1057.74 0.529367 -0.518509 0
M  V30 11183 H 1060.39 0.783938 -1.74719 0
M  V30 11184 H 1058.69 3.38041 -1.9808 0
M  V30 11185 H 1060.39 3.24953 -2.34961 0
M  V30 11186 H 1056.98 2.43334 -3.52826 0
M  V30 11187 H 1061.17 2.15766 -4.46944 0
M  V30 11188 H 1056.42 1.81125 -5.83955 0
M  V30 11189 H 1060.6 1.5453 -6.79039 0
M  V30 11190 H 1058.22 1.36667 -7.47814 0
M  V30 11191 N 1059.8 1.27835 0.921735 0
M  V30 11192 C 1060.74 1.11075 2.02314 0
M  V30 11193 C 1061.71 0.0101195 1.66097 0
M  V30 11194 O 1062.9 0.173564 1.90009 0
M  V30 11195 C 1060.04 0.770251 3.36394 0
M  V30 11196 C 1059.15 1.94912 3.8553 0
M  V30 11197 C 1058.29 1.54996 5.08084 0
M  V30 11198 C 1057.33 2.69595 5.49531 0
M  V30 11199 N 1056.46 2.30227 6.6328 0
M  V30 11200 H 1061.3 2.05319 2.15982 0
M  V30 11201 H 1058.84 1.022 1.058 0
M  V30 11202 H 1060.8 0.553624 4.1351 0
M  V30 11203 H 1059.43 -0.135238 3.22517 0
M  V30 11204 H 1058.48 2.27811 3.04641 0
M  V30 11205 H 1059.79 2.80858 4.12214 0
M  V30 11206 H 1058.95 1.29493 5.9272 0
M  V30 11207 H 1057.69 0.661676 4.83191 0
M  V30 11208 H 1056.69 2.95806 4.63442 0
M  V30 11209 H 1057.92 3.59054 5.76417 0
M  V30 11210 H 1055.86 1.43858 6.40032 0
M  V30 11211 H 1055.78 3.09711 6.89649 0
M  V30 11212 H 1057.05 2.07987 7.5124 0
M  V30 11213 N 1061.28 -1.12907 1.09954 0
M  V30 11214 C 1062.69 -1.65847 0.857417 0
M  V30 11215 C 1063.04 -1.86372 -0.613176 0
M  V30 11216 O 1062.16 -1.58654 -1.47166 0
M  V30 11217 C 1062.76 -3.01269 1.54991 0
M  V30 11218 C 1061.32 -3.51179 1.35462 0
M  V30 11219 C 1060.46 -2.26307 1.60251 0
M  V30 11220 H 1063.41 -0.96755 1.25794 0
M  V30 11221 H 1063.44 -3.675 0.986091 0
M  V30 11222 H 1062.95 -2.86299 2.6202 0
M  V30 11223 H 1061.05 -3.71343 0.305742 0
M  V30 11224 H 1061.16 -4.30955 2.09318 0
M  V30 11225 H 1059.53 -2.33167 1.02494 0
M  V30 11226 H 1060.31 -2.13896 2.68521 0
M  V30 11227 N 1062.75 -0.88754 -1.30232 0
M  V30 11228 C 1063.66 -0.360333 -2.31816 0
M  V30 11229 C 1064.68 0.538741 -1.6545 0
M  V30 11230 O 1065.86 0.431246 -1.96729 0
M  V30 11231 C 1062.92 0.414336 -3.44215 0
M  V30 11232 C 1061.98 -0.514799 -4.26202 0
M  V30 11233 C 1061.21 0.222994 -5.33234 0
M  V30 11234 O 1061.44 1.44871 -5.51696 0
M  V30 11235 O 1060.37 -0.428221 -6.00375 0
M  V30 11236 H 1064.2 -1.20279 -2.78867 0
M  V30 11237 H 1061.78 -0.651459 -1.34448 0
M  V30 11238 H 1063.66 0.852859 -4.12679 0
M  V30 11239 H 1062.34 1.23305 -2.99295 0
M  V30 11240 H 1061.25 -1.00219 -3.60426 0
M  V30 11241 H 1062.58 -1.29959 -4.74733 0
M  V30 11242 N 1064.23 1.43628 -0.648757 0
M  V30 11243 C 1065.65 1.56442 -0.315921 0
M  V30 11244 C 1065.85 1.63322 1.18018 0
M  V30 11245 O 1064.9 1.58585 1.96487 0
M  V30 11246 C 1066.22 2.82751 -1.02335 0
M  V30 11247 C 1067.77 2.96488 -1.00318 0
M  V30 11248 C 1068.24 4.25623 -1.69142 0
M  V30 11249 N 1069.73 4.32477 -1.65885 0
M  V30 11250 C 1070.47 5.31154 -2.16016 0
M  V30 11251 N 1069.96 6.36135 -2.74415 0
M  V30 11252 N 1071.76 5.22778 -2.06541 0
M  V30 11253 H 1063.91 1.37405 -1.61968 0
M  V30 11254 H 1066.17 0.65962 -0.680886 0
M  V30 11255 H 1065.88 2.83714 -2.07844 0
M  V30 11256 H 1065.75 3.72836 -0.572114 0
M  V30 11257 H 1068.14 2.95068 0.0434919 0
M  V30 11258 H 1068.22 2.07704 -1.49307 0
M  V30 11259 H 1067.86 4.27804 -2.73763 0
M  V30 11260 H 1067.79 5.13296 -1.17622 0
M  V30 11261 H 1070.28 3.57232 -1.23264 0
M  V30 11262 H 1070.6 7.07743 -3.10355 0
M  V30 11263 H 1068.94 6.36771 -2.78474 0
M  V30 11264 H 1072.13 4.39678 -1.60625 0
M  V30 11265 H 1072.3 5.99523 -2.45919 0
M  V30 11266 N 1065.71 0.390394 1.52688 0
M  V30 11267 C 1066.66 -0.444229 2.26485 0
M  V30 11268 C 1067.63 -1.05688 1.28138 0
M  V30 11269 O 1068.81 -1.0847 1.56968 0
M  V30 11270 C 1065.95 -1.56501 3.07574 0
M  V30 11271 C 1065.07 -0.975111 4.20851 0
M  V30 11272 C 1064.2 -2.06704 4.89333 0
M  V30 11273 C 1063.24 -1.45309 5.94602 0
M  V30 11274 N 1062.38 -2.48437 6.56676 0
M  V30 11275 H 1067.22 0.191535 2.97384 0
M  V30 11276 H 1064.75 0.106287 1.46716 0
M  V30 11277 H 1066.71 -2.22558 3.52879 0
M  V30 11278 H 1065.34 -2.17107 2.38881 0
M  V30 11279 H 1064.39 -0.204109 3.79852 0
M  V30 11280 H 1065.71 -0.486465 4.96422 0
M  V30 11281 H 1064.86 -2.80528 5.37949 0
M  V30 11282 H 1063.6 -2.58928 4.13289 0
M  V30 11283 H 1062.6 -0.700091 5.45324 0
M  V30 11284 H 1063.83 -0.938775 6.7258 0
M  V30 11285 H 1061.77 -2.99829 5.83471 0
M  V30 11286 H 1061.69 -2.04331 7.27863 0
M  V30 11287 H 1062.96 -3.21888 7.09935 0
M  V30 11288 N 1067.19 -1.57141 0.120249 0
M  V30 11289 C 1068.12 -2.18398 -0.826112 0
M  V30 11290 C 1069.1 -1.12439 -1.27638 0
M  V30 11291 O 1070.28 -1.40679 -1.33877 0
M  V30 11292 C 1067.41 -2.78438 -2.0758 0
M  V30 11293 C 1066.37 -3.89991 -1.76327 0
M  V30 11294 C 1065.69 -4.36844 -3.08336 0
M  V30 11295 C 1066.99 -5.12031 -1.03062 0
M  V30 11296 H 1068.69 -2.97731 -0.315656 0
M  V30 11297 H 1066.23 -1.43213 -0.150387 0
M  V30 11298 H 1068.19 -3.19951 -2.74243 0
M  V30 11299 H 1066.91 -1.96396 -2.60953 0
M  V30 11300 H 1065.57 -3.49055 -1.12053 0
M  V30 11301 H 1065.22 -3.51659 -3.59646 0
M  V30 11302 H 1064.92 -5.1207 -2.88199 0
M  V30 11303 H 1066.44 -4.81009 -3.76116 0
M  V30 11304 H 1067.86 -5.50555 -1.59881 0
M  V30 11305 H 1066.25 -5.92848 -0.930146 0
M  V30 11306 H 1067.32 -4.84897 -0.017582 0
M  V30 11307 N 1068.67 0.153526 -1.5685 0
M  V30 11308 C 1069.58 1.20932 -2.01029 0
M  V30 11309 C 1070.59 1.47401 -0.924598 0
M  V30 11310 O 1071.77 1.592 -1.23359 0
M  V30 11311 C 1068.83 2.52438 -2.37647 0
M  V30 11312 C 1067.89 2.33673 -3.60132 0
M  V30 11313 C 1067.13 3.58909 -3.94994 0
M  V30 11314 O 1067.35 4.64823 -3.30599 0
M  V30 11315 O 1066.28 3.5196 -4.8827 0
M  V30 11316 H 1070.11 0.864273 -2.91143 0
M  V30 11317 H 1067.7 0.361755 -1.44954 0
M  V30 11318 H 1069.58 3.29981 -2.62088 0
M  V30 11319 H 1068.25 2.86486 -1.5069 0
M  V30 11320 H 1067.16 1.54102 -3.40886 0
M  V30 11321 H 1068.49 2.04544 -4.47686 0
M  V30 11322 N 1070.14 1.51827 0.422667 0
M  V30 11323 C 1071.37 1.68803 1.19117 0
M  V30 11324 C 1071.78 0.391228 1.85111 0
M  V30 11325 O 1071.13 -0.64148 1.72136 0
M  V30 11326 C 1071.19 2.75767 2.30636 0
M  V30 11327 C 1070.85 4.17929 1.8489 0
M  V30 11328 C 1071.85 5.02223 1.34416 0
M  V30 11329 C 1069.53 4.641 1.92136 0
M  V30 11330 C 1071.53 6.30756 0.917925 0
M  V30 11331 C 1069.21 5.92626 1.49123 0
M  V30 11332 C 1070.21 6.75782 0.990352 0
M  V30 11333 O 1069.9 8.01902 0.566386 0
M  V30 11334 H 1069.63 0.569303 0.364514 0
M  V30 11335 H 1072.19 1.9909 0.505208 0
M  V30 11336 H 1070.42 2.40827 3.02555 0
M  V30 11337 H 1072.11 2.81476 2.92448 0
M  V30 11338 H 1072.87 4.67749 1.28202 0
M  V30 11339 H 1068.75 3.99488 2.30066 0
M  V30 11340 H 1072.29 6.95612 0.52628 0
M  V30 11341 H 1068.19 6.26611 1.55012 0
M  V30 11342 H 1068.96 8.15579 0.690918 0
M  V30 11343 N 1071.62 -0.679052 1.4222 0
M  V30 11344 C 1072.87 -1.43627 1.42182 0
M  V30 11345 C 1073.19 -1.94964 0.0377095 0
M  V30 11346 O 1072.46 -1.72788 -0.923098 0
M  V30 11347 H 1071.04 -0.532972 0.523402 0
M  V30 11348 H 1073.7 -0.802649 1.77605 0
M  V30 11349 H 1072.8 -2.29137 2.11902 0
M  V30 11350 N 1073.1 -1.28322 -0.914942 0
M  V30 11351 C 1074.05 -1.12003 -2.03858 0
M  V30 11352 C 1075.04 -0.0396287 -1.69354 0
M  V30 11353 O 1076.25 -0.198309 -1.78904 0
M  V30 11354 H 1072.62 -0.34552 -0.667922 0
M  V30 11355 H 1074.59 -2.07168 -2.14765 0
M  V30 11356 C 1073.34 -0.797402 -3.38433 0
M  V30 11357 H 1072.67 -1.62071 -3.65476 0
M  V30 11358 H 1074.11 -0.723165 -4.17787 0
M  V30 11359 C 1072.57 0.498807 -3.33187 0
M  V30 11360 O 1073.1 1.52946 -3.71444 0
M  V30 11361 N 1071.3 0.499101 -2.86282 0
M  V30 11362 H 1070.85 -0.340056 -2.55346 0
M  V30 11363 H 1070.81 1.36641 -2.83155 0
M  V30 11364 N 1074.58 1.12322 -1.10551 0
M  V30 11365 C 1075.82 1.8413 -0.849932 0
M  V30 11366 C 1076.16 1.83938 0.622946 0
M  V30 11367 O 1075.43 1.28579 1.45937 0
M  V30 11368 C 1075.72 3.31751 -1.40048 0
M  V30 11369 C 1075.57 3.40391 -2.9403 0
M  V30 11370 C 1076.89 4.27543 -1.04379 0
M  V30 11371 H 1074.01 0.668533 -0.310213 0
M  V30 11372 H 1076.65 1.31766 -1.36886 0
M  V30 11373 H 1074.8 3.76475 -0.959102 0
M  V30 11374 H 1076.47 3.04294 -3.46703 0
M  V30 11375 H 1074.71 2.809 -3.30571 0
M  V30 11376 H 1075.38 4.44252 -3.27635 0
M  V30 11377 H 1077.86 3.90951 -1.42466 0
M  V30 11378 H 1076.74 5.2924 -1.4559 0
M  V30 11379 H 1077 4.42075 0.0466316 0
M  V30 11380 N 1076.06 0.894434 1.2976 0
M  V30 11381 C 1077.33 0.437365 1.90648 0
M  V30 11382 C 1077.71 -1.08261 1.81226 0
M  V30 11383 O 1077.06 -1.92213 1.23557 0
M  V30 11384 C 1077.27 0.946047 3.35933 0
M  V30 11385 C 1078.62 0.986621 4.12978 0
M  V30 11386 O 1079.64 0.893356 3.44815 0
M  V30 11387 O 1078.5 1.12591 5.34776 0
M  V30 11388 H 1075.6 0.135436 0.815835 0
M  V30 11389 H 1078.14 0.983955 1.38262 0
M  V30 11390 H 1076.91 1.98998 3.3692 0
M  V30 11391 H 1076.54 0.379164 3.95788 0
M  V30 11392 N 1077.53 -1.43282 0.656365 0
M  V30 11393 C 1078.44 -2.34576 -0.033864 0
M  V30 11394 C 1079.46 -1.5406 -0.808793 0
M  V30 11395 O 1080.64 -1.867 -0.755322 0
M  V30 11396 C 1077.7 -3.32378 -0.986197 0
M  V30 11397 C 1076.76 -4.28797 -0.207851 0
M  V30 11398 C 1076 -5.21927 -1.11482 0
M  V30 11399 O 1076.22 -5.19554 -2.35414 0
M  V30 11400 O 1075.15 -5.99045 -0.585536 0
M  V30 11401 H 1078.98 -2.95099 0.717668 0
M  V30 11402 H 1076.56 -1.43475 0.416556 0
M  V30 11403 H 1078.45 -3.9251 -1.53341 0
M  V30 11404 H 1077.12 -2.74354 -1.7179 0
M  V30 11405 H 1076.03 -3.72134 0.383022 0
M  V30 11406 H 1077.36 -4.89811 0.48435 0
M  V30 11407 N 1079.01 -0.398486 -1.52479 0
M  V30 11408 C 1079.98 0.420206 -2.25315 0
M  V30 11409 C 1080.98 0.982559 -1.27289 0
M  V30 11410 O 1082.17 0.863113 -1.51314 0
M  V30 11411 C 1079.3 1.59045 -3.01525 0
M  V30 11412 H 1080.49 -0.217599 -2.9911 0
M  V30 11413 H 1078.04 -0.150784 -1.55571 0
M  V30 11414 H 1078.78 2.26542 -2.32054 0
M  V30 11415 H 1078.56 1.19382 -3.73484 0
M  V30 11416 H 1080.05 2.16984 -3.56802 0
M  V30 11417 N 1080.49 1.57075 -0.12858 0
M  V30 11418 C 1081.74 1.9552 0.527087 0
M  V30 11419 C 1082.07 1.01243 1.66072 0
M  V30 11420 O 1081.32 0.0381076 1.95663 0
M  V30 11421 C 1081.62 3.40329 1.09138 0
M  V30 11422 C 1081.29 4.50832 0.0781039 0
M  V30 11423 C 1079.95 4.80782 -0.200493 0
M  V30 11424 C 1082.3 5.17595 -0.61192 0
M  V30 11425 C 1079.63 5.74809 -1.17524 0
M  V30 11426 C 1081.98 6.12671 -1.57536 0
M  V30 11427 C 1080.64 6.41008 -1.86184 0
M  V30 11428 H 1079.91 0.715458 0.192875 0
M  V30 11429 H 1082.56 1.90328 -0.211515 0
M  V30 11430 H 1080.87 3.42262 1.90694 0
M  V30 11431 H 1082.56 3.67393 1.60696 0
M  V30 11432 H 1079.15 4.2751 0.30543 0
M  V30 11433 H 1083.34 4.94605 -0.40986 0
M  V30 11434 H 1078.59 5.95065 -1.40384 0
M  V30 11435 H 1082.77 6.63486 -2.11565 0
M  V30 11436 H 1080.39 7.13673 -2.61868 0
M  V30 11437 N 1081.97 -0.145205 1.5693 0
M  V30 11438 C 1082.92 -1.17923 1.98401 0
M  V30 11439 C 1083.89 -1.42591 0.851885 0
M  V30 11440 O 1085.07 -1.54896 1.11409 0
M  V30 11441 C 1082.21 -2.50727 2.37128 0
M  V30 11442 C 1081.32 -2.33218 3.63639 0
M  V30 11443 C 1080.46 -3.5907 3.91462 0
M  V30 11444 C 1079.5 -3.36605 5.11237 0
M  V30 11445 N 1078.64 -4.54592 5.35061 0
M  V30 11446 H 1083.48 -0.818573 2.86537 0
M  V30 11447 H 1081.01 -0.392739 1.4176 0
M  V30 11448 H 1082.97 -3.28165 2.57611 0
M  V30 11449 H 1081.6 -2.84736 1.52069 0
M  V30 11450 H 1080.65 -1.46826 3.50922 0
M  V30 11451 H 1081.96 -2.12579 4.51234 0
M  V30 11452 H 1081.12 -4.44936 4.12453 0
M  V30 11453 H 1079.86 -3.82715 3.02293 0
M  V30 11454 H 1078.86 -2.49127 4.90118 0
M  V30 11455 H 1080.09 -3.14357 6.01961 0
M  V30 11456 H 1078.03 -4.78406 4.48847 0
M  V30 11457 H 1077.95 -4.36962 6.16928 0
M  V30 11458 H 1079.22 -5.41666 5.60551 0
M  V30 11459 N 1083.45 -1.52049 -0.414609 0
M  V30 11460 C 1084.69 -1.66084 -1.16379 0
M  V30 11461 C 1085.03 -0.386932 -1.90306 0
M  V30 11462 O 1084.3 0.614441 -1.8454 0
M  V30 11463 C 1084.58 -2.87927 -2.16264 0
M  V30 11464 C 1084.44 -4.25353 -1.46269 0
M  V30 11465 C 1085.76 -3.05289 -3.16996 0
M  V30 11466 H 1082.88 -0.604414 -0.421726 0
M  V30 11467 H 1085.52 -1.8459 -0.450177 0
M  V30 11468 H 1083.67 -2.7228 -2.77121 0
M  V30 11469 H 1085.34 -4.52717 -0.885743 0
M  V30 11470 H 1083.58 -4.27006 -0.76472 0
M  V30 11471 H 1084.25 -5.06644 -2.19126 0
M  V30 11472 H 1086.73 -3.19798 -2.66212 0
M  V30 11473 H 1085.61 -3.92065 -3.84156 0
M  V30 11474 H 1085.87 -2.1836 -3.84411 0
M  V30 11475 N 1084.93 0.6715 -1.42579 0
M  V30 11476 C 1086.17 1.43366 -1.43436 0
M  V30 11477 C 1086.5 1.94131 -0.0517339 0
M  V30 11478 O 1085.78 1.71121 0.924548 0
M  V30 11479 C 1086.06 2.62832 -2.46154 0
M  V30 11480 C 1085.92 2.17677 -3.9362 0
M  V30 11481 C 1087.23 3.65049 -2.4582 0
M  V30 11482 H 1084.35 0.519967 -0.522306 0
M  V30 11483 H 1087 0.762849 -1.74013 0
M  V30 11484 H 1085.15 3.20062 -2.2021 0
M  V30 11485 H 1086.82 1.65588 -4.30556 0
M  V30 11486 H 1085.06 1.49219 -4.07328 0
M  V30 11487 H 1085.73 3.03503 -4.61075 0
M  V30 11488 H 1088.21 3.17541 -2.68899 0
M  V30 11489 H 1087.08 4.46213 -3.19664 0
M  V30 11490 H 1087.34 4.16401 -1.48536 0
M  V30 11491 N 1086.4 1.28806 0.908124 0
M  V30 11492 C 1087.68 1.06981 1.63751 0
M  V30 11493 C 1088.06 -0.388936 2.07486 0
M  V30 11494 O 1087.41 -1.37611 1.82415 0
M  V30 11495 C 1087.62 2.04962 2.82474 0
M  V30 11496 C 1088.97 2.35418 3.5336 0
M  V30 11497 O 1089.99 2.03091 2.92631 0
M  V30 11498 O 1088.85 2.90617 4.62822 0
M  V30 11499 H 1085.94 0.409267 0.71863 0
M  V30 11500 H 1088.49 1.40146 0.956934 0
M  V30 11501 H 1087.26 3.03254 2.47291 0
M  V30 11502 H 1086.88 1.72476 3.58242 0
M  V30 11503 N 1087.88 -1.11734 1.11145 0
M  V30 11504 C 1088.81 -2.17438 0.724804 0
M  V30 11505 C 1089.83 -1.6099 -0.242069 0
M  V30 11506 O 1091.02 -1.78482 -0.0254259 0
M  V30 11507 C 1088.12 -3.38863 0.050004 0
M  V30 11508 C 1087.29 -4.24785 1.04292 0
M  V30 11509 C 1086.35 -5.24691 0.398243 0
M  V30 11510 O 1085.37 -5.59408 1.05125 0
M  V30 11511 N 1086.58 -5.74388 -0.840184 0
M  V30 11512 H 1089.34 -2.51219 1.63429 0
M  V30 11513 H 1086.9 -1.27226 1.00125 0
M  V30 11514 H 1088.89 -4.02788 -0.392929 0
M  V30 11515 H 1087.46 -3.0317 -0.762005 0
M  V30 11516 H 1086.68 -3.57363 1.6639 0
M  V30 11517 H 1087.97 -4.79033 1.71478 0
M  V30 11518 H 1087.37 -5.48359 -1.38994 0
M  V30 11519 H 1085.93 -6.40163 -1.22615 0
M  V30 11520 N 1089.36 -0.901303 -1.29284 0
M  V30 11521 C 1090.61 -0.52401 -1.94774 0
M  V30 11522 C 1090.92 0.934645 -1.71825 0
M  V30 11523 O 1092.13 1.41953 -2.31434 0
M  V30 11524 C 1090.58 -0.886262 -3.48817 0
M  V30 11525 C 1090.19 -2.3638 -3.80564 0
M  V30 11526 C 1091.94 -0.578955 -4.20533 0
M  V30 11527 C 1089.84 -2.66682 -5.27858 0
M  V30 11528 H 1088.77 -0.192244 -0.72908 0
M  V30 11529 H 1091.42 -1.09852 -1.46986 0
M  V30 11530 H 1089.81 -0.240666 -3.95268 0
M  V30 11531 H 1090.98 -3.05508 -3.44966 0
M  V30 11532 H 1089.29 -2.64029 -3.2199 0
M  V30 11533 H 1091.89 -0.782185 -5.28948 0
M  V30 11534 H 1092.23 0.482605 -4.13493 0
M  V30 11535 H 1092.77 -1.18246 -3.79819 0
M  V30 11536 H 1089.51 -3.71643 -5.39965 0
M  V30 11537 H 1089.03 -2.02179 -5.64698 0
M  V30 11538 H 1090.71 -2.53033 -5.95469 0
M  V30 11539 N 1090.84 1.42931 -0.663954 0
M  V30 11540 C 1091.77 2.33499 0.00731327 0
M  V30 11541 C 1092.75 1.50074 0.800733 0
M  V30 11542 O 1093.93 1.78708 0.760062 0
M  V30 11543 C 1091.06 3.33569 0.966897 0
M  V30 11544 C 1090.02 4.27064 0.282839 0
M  V30 11545 C 1089.34 5.17257 1.35461 0
M  V30 11546 C 1090.64 5.1564 -0.831438 0
M  V30 11547 H 1092.34 2.89879 -0.749044 0
M  V30 11548 H 1089.88 1.39385 -0.361656 0
M  V30 11549 H 1091.84 3.95833 1.44549 0
M  V30 11550 H 1090.56 2.75469 1.75455 0
M  V30 11551 H 1089.22 3.6618 -0.175417 0
M  V30 11552 H 1088.87 4.5549 2.13397 0
M  V30 11553 H 1088.57 5.80634 0.902098 0
M  V30 11554 H 1090.09 5.82395 1.83436 0
M  V30 11555 H 1091.51 5.71651 -0.434534 0
M  V30 11556 H 1089.9 5.87794 -1.20908 0
M  V30 11557 H 1090.97 4.54687 -1.68487 0
M  V30 11558 N 1092.32 0.406567 1.52266 0
M  V30 11559 C 1093.23 -0.4271 2.30679 0
M  V30 11560 C 1094.24 -1.0559 1.383 0
M  V30 11561 O 1095.42 -1.05797 1.71374 0
M  V30 11562 C 1092.48 -1.53008 3.1111 0
M  V30 11563 C 1091.54 -0.924604 4.19225 0
M  V30 11564 C 1090.78 -1.97502 4.95811 0
M  V30 11565 O 1091 -3.19277 4.72671 0
M  V30 11566 O 1089.93 -1.58268 5.80719 0
M  V30 11567 H 1093.76 0.212187 3.02958 0
M  V30 11568 H 1091.34 0.169835 1.48432 0
M  V30 11569 H 1093.23 -2.17046 3.61205 0
M  V30 11570 H 1091.9 -2.15401 2.41628 0
M  V30 11571 H 1090.81 -0.247009 3.73284 0
M  V30 11572 H 1092.14 -0.34463 4.90992 0
M  V30 11573 N 1093.79 -1.57004 0.136909 0
M  V30 11574 C 1095.04 -1.9541 -0.51569 0
M  V30 11575 C 1095.36 -1.02219 -1.66061 0
M  V30 11576 O 1094.63 -0.0818172 -1.95729 0
M  V30 11577 H 1093.21 -0.721504 -0.193497 0
M  V30 11578 H 1095.88 -1.93765 0.210046 0
M  V30 11579 H 1094.97 -2.98887 -0.898494 0
M  V30 11580 N 1095.27 0.136881 -1.57004 0
M  V30 11581 C 1096.18 1.18793 -2.023 0
M  V30 11582 C 1097.2 1.46412 -0.94018 0
M  V30 11583 O 1098.37 1.57883 -1.2504 0
M  V30 11584 C 1095.44 2.49903 -2.40311 0
M  V30 11585 C 1094.5 2.29841 -3.6259 0
M  V30 11586 C 1093.73 3.54699 -3.98779 0
M  V30 11587 O 1093.96 4.61291 -3.3551 0
M  V30 11588 O 1092.89 3.46761 -4.91976 0
M  V30 11589 H 1096.72 0.833345 -2.92043 0
M  V30 11590 H 1094.3 0.346361 -1.4533 0
M  V30 11591 H 1096.18 3.27183 -2.65574 0
M  V30 11592 H 1094.86 2.84872 -1.5372 0
M  V30 11593 H 1093.77 1.50478 -3.42501 0
M  V30 11594 H 1095.1 1.99784 -4.4983 0
M  V30 11595 N 1096.75 1.52266 0.40654 0
M  V30 11596 C 1098 1.6568 1.15035 0
M  V30 11597 C 1098.31 0.394135 1.91588 0
M  V30 11598 O 1099.52 0.408113 2.68415 0
M  V30 11599 C 1097.97 2.92725 2.0938 0
M  V30 11600 C 1097.58 4.26108 1.38332 0
M  V30 11601 C 1099.33 3.15502 2.84004 0
M  V30 11602 C 1097.23 5.44275 2.3134 0
M  V30 11603 H 1096.16 0.61719 0.43312 0
M  V30 11604 H 1098.81 1.78755 0.414598 0
M  V30 11605 H 1097.2 2.73355 2.86519 0
M  V30 11606 H 1098.37 4.55971 0.665396 0
M  V30 11607 H 1096.69 4.09454 0.757384 0
M  V30 11608 H 1099.28 4.00964 3.5374 0
M  V30 11609 H 1099.63 2.29842 3.471 0
M  V30 11610 H 1100.16 3.35357 2.13964 0
M  V30 11611 H 1096.9 6.3229 1.72887 0
M  V30 11612 H 1096.42 5.18749 3.01098 0
M  V30 11613 H 1098.1 5.77457 2.91809 0
M  V30 11614 N 1098.23 -0.663929 1.42933 0
M  V30 11615 C 1099.18 -1.77007 1.4371 0
M  V30 11616 C 1100.16 -1.57945 0.306948 0
M  V30 11617 O 1101.35 -1.68239 0.549967 0
M  V30 11618 C 1098.48 -3.15535 1.3525 0
M  V30 11619 C 1097.57 -3.40183 2.53252 0
M  V30 11620 N 1097.96 -3.35357 3.78641 0
M  V30 11621 C 1096.26 -3.70861 2.47746 0
M  V30 11622 C 1096.96 -3.5979 4.57085 0
M  V30 11623 N 1095.94 -3.81084 3.87655 0
M  V30 11624 H 1099.74 -1.71686 2.3854 0
M  V30 11625 H 1097.25 -0.865191 1.37434 0
M  V30 11626 H 1099.25 -3.94816 1.33888 0
M  V30 11627 H 1097.91 -3.22046 0.414308 0
M  V30 11628 H 1098.92 -3.15011 4.11082 0
M  V30 11629 H 1095.6 -3.84552 1.62561 0
M  V30 11630 H 1096.99 -3.61928 5.6609 0
M  V30 11631 N 1099.71 -1.29285 -0.901281 0
M  V30 11632 C 1100.64 -1.08603 -2.007 0
M  V30 11633 C 1101.62 0.00162233 -1.626 0
M  V30 11634 O 1102.8 -0.148764 -1.87912 0
M  V30 11635 C 1099.93 -0.652972 -3.32346 0
M  V30 11636 C 1098.97 -1.73911 -3.89432 0
M  V30 11637 S 1099.81 -3.33797 -4.18736 0
M  V30 11638 C 1100.96 -2.92355 -5.53425 0
M  V30 11639 H 1101.2 -2.02216 -2.17936 0
M  V30 11640 H 1098.73 -1.13414 -1.04769 0
M  V30 11641 H 1100.69 -0.409825 -4.08449 0
M  V30 11642 H 1099.35 0.263527 -3.12993 0
M  V30 11643 H 1098.54 -1.388 -4.84511 0
M  V30 11644 H 1098.14 -1.93569 -3.20011 0
M  V30 11645 H 1100.44 -2.39301 -6.33831 0
M  V30 11646 H 1101.38 -3.86278 -5.9346 0
M  V30 11647 H 1101.79 -2.30697 -5.15208 0
M  V30 11648 N 1101.18 1.11143 -1.11736 0
M  V30 11649 C 1102.43 1.82586 -0.866412 0
M  V30 11650 C 1102.75 1.85227 0.609593 0
M  V30 11651 O 1102.02 1.32505 1.44288 0
M  V30 11652 H 1100.6 0.676149 -0.31754 0
M  V30 11653 H 1103.27 1.34516 -1.41037 0
M  V30 11654 H 1102.36 2.8635 -1.24136 0
M  V30 11655 N 1102.66 0.908147 1.28804 0
M  V30 11656 C 1103.91 0.53734 1.94826 0
M  V30 11657 C 1104.23 -0.920962 1.71882 0
M  V30 11658 O 1103.5 -1.65043 1.05534 0
M  V30 11659 H 1102.08 0.195729 0.720902 0
M  V30 11660 H 1104.74 1.15628 1.56895 0
M  V30 11661 H 1103.84 0.727052 3.03513 0
M  V30 11662 N 1104.14 -1.42577 0.671525 0
M  V30 11663 C 1105.07 -2.2915 -0.0477361 0
M  V30 11664 C 1106.09 -1.43503 -0.768805 0
M  V30 11665 O 1107.27 -1.67256 -0.623509 0
M  V30 11666 C 1104.37 -3.20851 -1.09122 0
M  V30 11667 C 1103.55 -4.35134 -0.44463 0
M  V30 11668 C 1102.61 -5.07579 -1.38745 0
M  V30 11669 O 1101.63 -5.62215 -0.889015 0
M  V30 11670 N 1102.83 -5.12786 -2.72086 0
M  V30 11671 H 1105.6 -2.9152 0.695415 0
M  V30 11672 H 1103.16 -1.53467 0.515689 0
M  V30 11673 H 1105.15 -3.66183 -1.72315 0
M  V30 11674 H 1103.72 -2.59956 -1.73614 0
M  V30 11675 H 1102.94 -3.9249 0.36675 0
M  V30 11676 H 1104.23 -5.088 0.00595927 0
M  V30 11677 H 1103.63 -4.69802 -3.15123 0
M  V30 11678 H 1102.19 -5.61774 -3.30535 0
M  V30 11679 N 1105.62 -0.414636 -1.52048 0
M  V30 11680 C 1106.53 0.414861 -2.30903 0
M  V30 11681 C 1107.54 1.04855 -1.38858 0
M  V30 11682 O 1108.72 1.04886 -1.71933 0
M  V30 11683 C 1105.79 1.51356 -3.11917 0
M  V30 11684 C 1104.85 0.902359 -4.19709 0
M  V30 11685 C 1104.08 1.9487 -4.96852 0
M  V30 11686 O 1104.3 3.16766 -4.74358 0
M  V30 11687 O 1103.24 1.55186 -5.8155 0
M  V30 11688 H 1107.06 -0.228251 -3.02841 0
M  V30 11689 H 1104.65 -0.177704 -1.48339 0
M  V30 11690 H 1106.53 2.15127 -3.62351 0
M  V30 11691 H 1105.2 2.14117 -2.42767 0
M  V30 11692 H 1104.11 0.22721 -3.73409 0
M  V30 11693 H 1105.44 0.318587 -4.91168 0
M  V30 11694 N 1107.1 1.56929 -0.145233 0
M  V30 11695 C 1108.05 2.13246 0.806846 0
M  V30 11696 C 1109.03 1.05984 1.21063 0
M  V30 11697 O 1110.22 1.32165 1.17734 0
M  V30 11698 C 1107.35 2.75622 2.04663 0
M  V30 11699 C 1106.44 3.90006 1.66603 0
M  V30 11700 N 1106.83 4.95946 0.993545 0
M  V30 11701 C 1105.13 4.0068 1.95886 0
M  V30 11702 C 1105.83 5.76032 0.810087 0
M  V30 11703 N 1104.8 5.26739 1.34339 0
M  V30 11704 H 1108.61 2.92527 0.283806 0
M  V30 11705 H 1106.12 1.62302 0.0563676 0
M  V30 11706 H 1108.12 3.14329 2.73867 0
M  V30 11707 H 1106.78 1.97815 2.57487 0
M  V30 11708 H 1107.79 5.13748 0.654508 0
M  V30 11709 H 1104.46 3.33946 2.50572 0
M  V30 11710 H 1105.85 6.71315 0.280209 0
M  V30 11711 N 1108.58 -0.128553 1.57075 0
M  V30 11712 C 1109.82 -0.83801 1.84347 0
M  V30 11713 C 1110.15 -1.80325 0.728906 0
M  V30 11714 O 1109.41 -1.93678 -0.280571 0
M  V30 11715 C 1109.7 -1.63027 3.18052 0
M  V30 11716 C 1109.37 -0.810171 4.43562 0
M  V30 11717 C 1108.03 -0.583984 4.77643 0
M  V30 11718 C 1110.38 -0.237896 5.20657 0
M  V30 11719 C 1107.71 0.224887 5.86269 0
M  V30 11720 C 1110.06 0.558114 6.30133 0
M  V30 11721 C 1108.73 0.794706 6.62752 0
M  V30 11722 H 1108 -0.30665 0.674572 0
M  V30 11723 H 1110.65 -0.100797 1.91235 0
M  V30 11724 H 1108.95 -2.43812 3.06697 0
M  V30 11725 H 1110.65 -2.183 3.36372 0
M  V30 11726 H 1107.24 -0.996547 4.16854 0
M  V30 11727 H 1111.42 -0.399881 4.94686 0
M  V30 11728 H 1106.68 0.417507 6.09973 0
M  V30 11729 H 1110.85 1.00859 6.89058 0
M  V30 11730 H 1108.48 1.42331 7.46757 0
M  V30 11731 N 1110.05 -1.5248 -0.398459 0
M  V30 11732 C 1111.28 -1.70677 -1.16417 0
M  V30 11733 C 1111.69 -0.420629 -1.84465 0
M  V30 11734 O 1111.03 0.614013 -1.73135 0
M  V30 11735 C 1111.1 -2.79401 -2.2622 0
M  V30 11736 C 1110.76 -4.20817 -1.78218 0
M  V30 11737 C 1111.76 -5.04298 -1.26409 0
M  V30 11738 C 1109.44 -4.67098 -1.84728 0
M  V30 11739 C 1111.44 -6.32136 -0.817461 0
M  V30 11740 C 1109.12 -5.94923 -1.39676 0
M  V30 11741 C 1110.12 -6.77272 -0.882716 0
M  V30 11742 O 1109.81 -8.02702 -0.438739 0
M  V30 11743 H 1109.54 -0.57503 -0.355411 0
M  V30 11744 H 1112.1 -1.99868 -0.473471 0
M  V30 11745 H 1110.33 -2.4561 -2.98685 0
M  V30 11746 H 1112.01 -2.86093 -2.87933 0
M  V30 11747 H 1112.78 -4.6973 -1.20744 0
M  V30 11748 H 1108.66 -4.03097 -2.23682 0
M  V30 11749 H 1112.2 -6.96361 -0.415548 0
M  V30 11750 H 1108.1 -6.28998 -1.45024 0
M  V30 11751 H 1108.87 -8.16575 -0.561079 0
M  V30 11752 N 1111.53 0.65634 -1.43283 0
M  V30 11753 C 1112.46 1.78122 -1.42646 0
M  V30 11754 C 1113.44 1.60024 -0.288301 0
M  V30 11755 O 1114.63 1.82249 -0.481407 0
M  V30 11756 C 1111.75 3.1538 -1.23505 0
M  V30 11757 C 1110.8 3.52186 -2.40556 0
M  V30 11758 S 1111.63 3.52515 -4.03105 0
M  V30 11759 C 1112.79 4.92435 -3.8634 0
M  V30 11760 H 1113.02 1.78391 -2.37832 0
M  V30 11761 H 1110.55 0.828699 -1.30276 0
M  V30 11762 H 1112.51 3.94598 -1.13148 0
M  V30 11763 H 1111.17 3.12676 -0.298726 0
M  V30 11764 H 1110.37 4.52002 -2.22959 0
M  V30 11765 H 1109.97 2.80373 -2.47522 0
M  V30 11766 H 1112.26 5.81011 -3.48472 0
M  V30 11767 H 1113.2 5.15082 -4.85897 0
M  V30 11768 H 1113.61 4.65823 -3.18857 0
M  V30 11769 N 1113.01 1.29761 0.894412 0
M  V30 11770 C 1113.92 1.1724 2.03204 0
M  V30 11771 C 1114.94 0.0944452 1.73743 0
M  V30 11772 O 1116.11 0.307549 1.99038 0
M  V30 11773 C 1113.18 0.855416 3.35981 0
M  V30 11774 C 1112.24 2.01777 3.78926 0
M  V30 11775 C 1111.47 1.71581 5.05367 0
M  V30 11776 O 1111.69 0.639245 5.66807 0
M  V30 11777 O 1110.63 2.56539 5.44492 0
M  V30 11778 H 1114.45 2.12787 2.16692 0
M  V30 11779 H 1112.04 1.09264 1.0189 0
M  V30 11780 H 1113.92 0.693429 4.15656 0
M  V30 11781 H 1112.6 -0.0702195 3.23624 0
M  V30 11782 H 1111.5 2.23502 2.99996 0
M  V30 11783 H 1112.84 2.92479 3.95875 0
M  V30 11784 N 1114.49 -1.10549 1.12324 0
M  V30 11785 C 1115.72 -1.8627 0.900618 0
M  V30 11786 C 1116.13 -1.80609 -0.550069 0
M  V30 11787 O 1115.49 -1.19396 -1.38025 0
M  V30 11788 C 1115.54 -3.34716 1.36556 0
M  V30 11789 O 1115.26 -3.40279 2.75938 0
M  V30 11790 C 1116.76 -4.27315 1.17969 0
M  V30 11791 H 1113.98 -0.588741 0.321908 0
M  V30 11792 H 1116.52 -1.39759 1.49291 0
M  V30 11793 H 1114.68 -3.78697 0.81652 0
M  V30 11794 H 1115.09 -4.32781 2.96312 0
M  V30 11795 H 1116.57 -5.29677 1.55391 0
M  V30 11796 H 1117.04 -4.39036 0.120158 0
M  V30 11797 H 1117.65 -3.89137 1.71617 0
M  V30 11798 N 1115.97 -0.914965 -1.28321 0
M  V30 11799 C 1116.9 -0.361578 -2.2633 0
M  V30 11800 C 1117.91 0.500637 -1.54911 0
M  V30 11801 O 1119.1 0.31532 -1.75693 0
M  V30 11802 C 1116.2 0.501693 -3.35166 0
M  V30 11803 C 1115.37 -0.338289 -4.3609 0
M  V30 11804 C 1114.43 0.460267 -5.24183 0
M  V30 11805 O 1113.46 -0.127594 -5.69057 0
M  V30 11806 N 1114.66 1.76302 -5.5308 0
M  V30 11807 H 1117.42 -1.20402 -2.74451 0
M  V30 11808 H 1114.99 -0.781042 -1.41814 0
M  V30 11809 H 1116.98 1.04268 -3.91037 0
M  V30 11810 H 1115.55 1.24485 -2.86744 0
M  V30 11811 H 1114.77 -1.06064 -3.79663 0
M  V30 11812 H 1116.06 -0.912996 -5.00542 0
M  V30 11813 H 1115.45 2.26314 -5.18458 0
M  V30 11814 H 1114.01 2.25081 -6.11704 0
M  V30 11815 N 1117.44 1.42219 -0.679077 0
M  V30 11816 C 1118.67 2.06333 -0.210097 0
M  V30 11817 C 1119.09 1.50703 1.12562 0
M  V30 11818 O 1118.45 0.627241 1.70104 0
M  V30 11819 C 1118.5 3.60243 -0.160322 0
M  V30 11820 O 1117.6 4.03122 0.869872 0
M  V30 11821 H 1116.94 0.655362 -0.106754 0
M  V30 11822 H 1119.47 1.82278 -0.929294 0
M  V30 11823 H 1119.48 4.07997 0.014384 0
M  V30 11824 H 1118.16 4.00106 -1.13526 0
M  V30 11825 H 1116.74 3.66907 0.66586 0
M  V30 11826 N 1118.92 0.422693 1.51826 0
M  V30 11827 C 1119.85 -0.440987 2.23899 0
M  V30 11828 C 1120.83 -1.03685 1.25252 0
M  V30 11829 O 1122.02 -1.08212 1.54345 0
M  V30 11830 C 1119.14 -1.61331 2.97809 0
M  V30 11831 C 1118.19 -1.13954 4.10995 0
M  V30 11832 S 1119.02 -0.0935426 5.35418 0
M  V30 11833 C 1120.18 -1.27087 6.12862 0
M  V30 11834 H 1120.41 0.170945 2.96808 0
M  V30 11835 H 1117.94 0.20709 1.53005 0
M  V30 11836 H 1119.9 -2.28546 3.40994 0
M  V30 11837 H 1118.56 -2.19662 2.24516 0
M  V30 11838 H 1117.76 -2.01578 4.61933 0
M  V30 11839 H 1117.36 -0.545838 3.69995 0
M  V30 11840 H 1119.65 -2.19199 6.4106 0
M  V30 11841 H 1120.59 -0.801752 7.03546 0
M  V30 11842 H 1121 -1.50281 5.44129 0
M  V30 11843 N 1120.4 -1.5685 0.153553 0
M  V30 11844 C 1121.33 -2.20101 -0.779601 0
M  V30 11845 C 1122.31 -1.15121 -1.25225 0
M  V30 11846 O 1123.5 -1.43487 -1.30862 0
M  V30 11847 C 1120.63 -2.82778 -2.01628 0
M  V30 11848 C 1119.58 -3.93643 -1.68015 0
M  V30 11849 C 1118.91 -4.43286 -2.99001 0
M  V30 11850 C 1120.21 -5.14102 -0.921774 0
M  V30 11851 H 1121.9 -2.98334 -0.252432 0
M  V30 11852 H 1119.45 -1.43499 -0.119975 0
M  V30 11853 H 1121.4 -3.25696 -2.67395 0
M  V30 11854 H 1120.12 -2.01887 -2.56728 0
M  V30 11855 H 1118.78 -3.51354 -1.04624 0
M  V30 11856 H 1118.43 -3.59208 -3.52106 0
M  V30 11857 H 1118.13 -5.18068 -2.77272 0
M  V30 11858 H 1119.65 -4.88878 -3.65828 0
M  V30 11859 H 1121.07 -5.53823 -1.48167 0
M  V30 11860 H 1119.46 -5.94687 -0.804185 0
M  V30 11861 H 1120.53 -4.84825 0.0852757 0
M  V30 11862 N 1121.88 0.120221 -1.57141 0
M  V30 11863 C 1123.12 0.829449 -1.85062 0
M  V30 11864 C 1123.46 1.79585 -0.739116 0
M  V30 11865 O 1122.73 1.92819 0.255147 0
M  V30 11866 C 1123.01 1.58042 -3.23566 0
M  V30 11867 C 1122.87 0.633706 -4.45314 0
M  V30 11868 C 1124.19 2.53688 -3.59625 0
M  V30 11869 H 1121.31 0.300086 -0.67314 0
M  V30 11870 H 1123.95 0.0937393 -1.89769 0
M  V30 11871 H 1122.1 2.20758 -3.19684 0
M  V30 11872 H 1123.77 0.0154836 -4.61297 0
M  V30 11873 H 1122.01 -0.054846 -4.33765 0
M  V30 11874 H 1122.68 1.19577 -5.38893 0
M  V30 11875 H 1125.16 2.01078 -3.6429 0
M  V30 11876 H 1124.04 3.03265 -4.57516 0
M  V30 11877 H 1124.3 3.36296 -2.8698 0
M  V30 11878 N 1123.36 1.52689 0.390367 0
M  V30 11879 C 1124.6 1.67914 1.13722 0
M  V30 11880 C 1124.94 0.417159 1.89667 0
M  V30 11881 O 1124.21 -0.585005 1.85494 0
M  V30 11882 C 1124.49 2.91331 2.11656 0
M  V30 11883 C 1124.35 4.27626 1.39484 0
M  V30 11884 C 1125.67 3.10293 3.12099 0
M  V30 11885 H 1122.78 0.611047 0.412057 0
M  V30 11886 H 1125.43 1.85283 0.420753 0
M  V30 11887 H 1123.58 2.76654 2.72754 0
M  V30 11888 H 1125.25 4.54068 0.813607 0
M  V30 11889 H 1123.49 4.28169 0.69669 0
M  V30 11890 H 1124.16 5.10066 2.11038 0
M  V30 11891 H 1126.64 3.23992 2.6109 0
M  V30 11892 H 1125.51 3.98127 3.7787 0
M  V30 11893 H 1125.78 2.24448 3.80888 0
M  V30 11894 N 1124.83 -0.648732 1.43629 0
M  V30 11895 C 1126.25 -1.23001 1.40455 0
M  V30 11896 C 1126.6 -1.95886 0.110897 0
M  V30 11897 O 1125.72 -2.01485 -0.789487 0
M  V30 11898 C 1126.32 -2.23716 2.54434 0
M  V30 11899 C 1124.88 -2.77311 2.54511 0
M  V30 11900 C 1124.02 -1.52024 2.31914 0
M  V30 11901 H 1126.97 -0.440473 1.52465 0
M  V30 11902 H 1126.99 -3.05979 2.26179 0
M  V30 11903 H 1126.51 -1.7064 3.48574 0
M  V30 11904 H 1124.61 -3.34437 1.64263 0
M  V30 11905 H 1124.72 -3.2455 3.52426 0
M  V30 11906 H 1123.08 -1.79531 1.80667 0
M  V30 11907 H 1123.87 -1.00876 3.28145 0
M  V30 11908 N 1126.31 -1.30234 -0.887518 0
M  V30 11909 C 1127.26 -1.164 -1.99298 0
M  V30 11910 C 1128.23 -0.0541536 -1.66012 0
M  V30 11911 O 1129.41 -0.223881 -1.89482 0
M  V30 11912 C 1126.55 -0.859169 -3.34234 0
M  V30 11913 C 1125.67 -2.05065 -3.80227 0
M  V30 11914 C 1124.8 -1.68413 -5.03796 0
M  V30 11915 C 1123.84 -2.8407 -5.4219 0
M  V30 11916 N 1122.98 -2.47732 -6.56942 0
M  V30 11917 H 1127.82 -2.10973 -2.10463 0
M  V30 11918 H 1125.36 -1.04969 -1.03053 0
M  V30 11919 H 1127.31 -0.663064 -4.11897 0
M  V30 11920 H 1125.94 0.0496808 -3.22762 0
M  V30 11921 H 1125 -2.35808 -2.98494 0
M  V30 11922 H 1126.31 -2.91688 -4.04623 0
M  V30 11923 H 1125.46 -1.45162 -5.89078 0
M  V30 11924 H 1124.2 -0.789553 -4.81266 0
M  V30 11925 H 1123.21 -3.0799 -4.55437 0
M  V30 11926 H 1124.43 -3.74211 -5.66695 0
M  V30 11927 H 1122.38 -1.60777 -6.35993 0
M  V30 11928 H 1122.29 -3.27887 -6.81195 0
M  V30 11929 H 1123.56 -2.27831 -7.45462 0
M  V30 11930 N 1127.79 1.09952 -1.12909 0
M  V30 11931 C 1129.04 1.81657 -0.885729 0
M  V30 11932 C 1129.36 1.85863 0.589913 0
M  V30 11933 O 1128.63 1.34028 1.42875 0
M  V30 11934 H 1127.21 0.672743 -0.324694 0
M  V30 11935 H 1129.87 1.33013 -1.42456 0
M  V30 11936 H 1128.97 2.85018 -1.27167 0
M  V30 11937 N 1129.27 0.921757 1.27833 0
M  V30 11938 C 1130.18 0.421668 2.30779 0
M  V30 11939 C 1131.19 -0.494686 1.6682 0
M  V30 11940 O 1132.37 -0.378935 1.97803 0
M  V30 11941 C 1129.44 -0.322928 3.45193 0
M  V30 11942 C 1128.5 0.627618 4.24687 0
M  V30 11943 C 1127.73 -0.0815385 5.33638 0
M  V30 11944 O 1127.95 -1.30193 5.55343 0
M  V30 11945 O 1126.89 0.58725 5.99028 0
M  V30 11946 H 1130.71 1.2763 2.7558 0
M  V30 11947 H 1128.3 0.686877 1.32674 0
M  V30 11948 H 1130.18 -0.743145 4.14796 0
M  V30 11949 H 1128.85 -1.15326 3.02459 0
M  V30 11950 H 1127.76 1.09739 3.57642 0
M  V30 11951 H 1129.09 1.425 4.71121 0
M  V30 11952 N 1130.75 -1.41857 0.686609 0
M  V30 11953 C 1132.02 -1.95082 0.142228 0
M  V30 11954 C 1132.4 -1.62646 -1.34572 0
M  V30 11955 O 1131.75 -0.928757 -2.08773 0
M  V30 11956 C 1131.96 -3.46415 0.423955 0
M  V30 11957 C 1133.31 -4.23181 0.346842 0
M  V30 11958 O 1134.33 -3.54393 0.358363 0
M  V30 11959 O 1133.19 -5.4568 0.299211 0
M  V30 11960 H 1130.29 -0.826943 0.00974 0
M  V30 11961 H 1132.83 -1.51622 0.762153 0
M  V30 11962 H 1131.6 -3.63273 1.45424 0
M  V30 11963 H 1131.23 -3.96949 -0.227391 0
M  V30 11964 N 1132.22 -0.430739 -1.51599 0
M  V30 11965 C 1133.16 0.419726 -2.25324 0
M  V30 11966 C 1134.17 0.991925 -1.29092 0
M  V30 11967 O 1135.36 0.887188 -1.54891 0
M  V30 11968 C 1132.46 1.59844 -2.98836 0
M  V30 11969 C 1131.63 1.14629 -4.22112 0
M  V30 11970 C 1130.69 2.19437 -4.78261 0
M  V30 11971 O 1129.72 1.79141 -5.40275 0
M  V30 11972 N 1130.92 3.51849 -4.61717 0
M  V30 11973 H 1133.68 -0.212112 -2.98948 0
M  V30 11974 H 1131.24 -0.259269 -1.59811 0
M  V30 11975 H 1133.24 2.29567 -3.33288 0
M  V30 11976 H 1131.81 2.13575 -2.28264 0
M  V30 11977 H 1131.03 0.276367 -3.9323 0
M  V30 11978 H 1132.31 0.821488 -5.02124 0
M  V30 11979 H 1131.71 3.87324 -4.12306 0
M  V30 11980 H 1130.27 4.17486 -5.00548 0
M  V30 11981 N 1133.7 1.56767 -0.161869 0
M  V30 11982 C 1134.61 2.21083 0.784814 0
M  V30 11983 C 1135.63 1.19959 1.26039 0
M  V30 11984 O 1136.8 1.52588 1.31449 0
M  V30 11985 C 1133.87 2.83153 2.00063 0
M  V30 11986 C 1132.93 3.9945 1.57285 0
M  V30 11987 C 1132.16 4.5855 2.7307 0
M  V30 11988 O 1132.39 4.16534 3.89686 0
M  V30 11989 O 1131.32 5.48575 2.47688 0
M  V30 11990 H 1135.15 3.02522 0.267243 0
M  V30 11991 H 1132.73 1.49255 0.0658783 0
M  V30 11992 H 1134.61 3.22546 2.71186 0
M  V30 11993 H 1133.29 2.04718 2.50744 0
M  V30 11994 H 1132.2 3.64745 0.831393 0
M  V30 11995 H 1133.53 4.7945 1.11304 0
M  V30 11996 N 1135.18 -0.111886 1.57202 0
M  V30 11997 C 1136.11 -1.16749 1.96074 0
M  V30 11998 C 1137.09 -1.39735 0.831438 0
M  V30 11999 O 1138.28 -1.53772 1.09025 0
M  V30 12000 C 1135.4 -2.51996 2.26308 0
M  V30 12001 C 1134.45 -2.45394 3.48832 0
M  V30 12002 S 1135.28 -1.8867 5.01163 0
M  V30 12003 C 1136.44 -3.25576 5.34557 0
M  V30 12004 H 1136.67 -0.836033 2.85303 0
M  V30 12005 H 1134.2 -0.318922 1.5107 0
M  V30 12006 H 1136.16 -3.29813 2.44405 0
M  V30 12007 H 1134.82 -2.82317 1.3768 0
M  V30 12008 H 1134.02 -3.45038 3.67376 0
M  V30 12009 H 1133.62 -1.75702 3.30159 0
M  V30 12010 H 1135.91 -4.21807 5.30174 0
M  V30 12011 H 1136.85 -3.11853 6.35731 0
M  V30 12012 H 1137.26 -3.24333 4.62026 0
M  V30 12013 N 1136.66 -1.52894 -0.382264 0
M  V30 12014 C 1137.94 -1.58853 -1.14127 0
M  V30 12015 C 1138.32 -0.38582 -2.07544 0
M  V30 12016 O 1137.66 0.625323 -2.19777 0
M  V30 12017 C 1137.87 -2.93068 -1.89504 0
M  V30 12018 C 1139.22 -3.47048 -2.44629 0
M  V30 12019 O 1140.25 -2.94987 -1.99652 0
M  V30 12020 O 1139.1 -4.3802 -3.26804 0
M  V30 12021 H 1136.2 -0.640969 -0.522578 0
M  V30 12022 H 1138.74 -1.65231 -0.386873 0
M  V30 12023 H 1137.52 -3.72047 -1.2123 0
M  V30 12024 H 1137.14 -2.90106 -2.7189 0
M  V30 12025 N 1138.14 0.641106 -1.43971 0
M  V30 12026 C 1139.38 1.40291 -1.46445 0
M  V30 12027 C 1139.72 1.93978 -0.0929004 0
M  V30 12028 O 1138.99 1.73043 0.888043 0
M  V30 12029 C 1139.27 2.57551 -2.51673 0
M  V30 12030 C 1139.13 2.09279 -3.98149 0
M  V30 12031 C 1140.45 3.59752 -2.53508 0
M  V30 12032 H 1137.57 0.508771 -0.533218 0
M  V30 12033 H 1140.21 0.725767 -1.75592 0
M  V30 12034 H 1138.36 3.15319 -2.2695 0
M  V30 12035 H 1140.03 1.56418 -4.33971 0
M  V30 12036 H 1138.27 1.40545 -4.10402 0
M  V30 12037 H 1138.94 2.93655 -4.67409 0
M  V30 12038 H 1141.42 3.11766 -2.75574 0
M  V30 12039 H 1140.3 4.39332 -3.29057 0
M  V30 12040 H 1140.56 4.13156 -1.57335 0
M  V30 12041 N 1139.62 1.30703 0.880598 0
M  V30 12042 C 1140.85 1.22536 1.66339 0
M  V30 12043 C 1141.25 -0.213507 1.87991 0
M  V30 12044 O 1140.6 -1.15236 1.43061 0
M  V30 12045 C 1140.66 1.88798 3.05934 0
M  V30 12046 C 1140.32 3.38131 3.07435 0
M  V30 12047 C 1141.32 4.34053 2.86171 0
M  V30 12048 C 1139 3.79651 3.28893 0
M  V30 12049 C 1141 5.69469 2.86328 0
M  V30 12050 C 1138.69 5.15182 3.2868 0
M  V30 12051 C 1139.68 6.09902 3.07423 0
M  V30 12052 O 1139.37 7.42957 3.07034 0
M  V30 12053 H 1139.1 0.425018 0.525677 0
M  V30 12054 H 1141.66 1.72939 1.1082 0
M  V30 12055 H 1139.89 1.3293 3.63134 0
M  V30 12056 H 1141.58 1.74691 3.66385 0
M  V30 12057 H 1142.34 4.03307 2.69385 0
M  V30 12058 H 1138.22 3.06365 3.44473 0
M  V30 12059 H 1141.77 6.43375 2.69655 0
M  V30 12060 H 1137.66 5.45567 3.45002 0
M  V30 12061 H 1138.43 7.52 3.23169 0
M  V30 12062 N 1141.09 -1.09351 1.1349 0
M  V30 12063 C 1142.34 -1.81812 0.898452 0
M  V30 12064 C 1142.67 -1.85525 -0.573959 0
M  V30 12065 O 1141.95 -1.32403 -1.42477 0
M  V30 12066 C 1142.23 -3.27921 1.48794 0
M  V30 12067 C 1142.08 -3.32476 3.02952 0
M  V30 12068 C 1143.4 -4.24625 1.15678 0
M  V30 12069 H 1140.52 -0.660074 0.327829 0
M  V30 12070 H 1143.16 -1.28091 1.40331 0
M  V30 12071 H 1141.31 -3.738 1.05858 0
M  V30 12072 H 1142.99 -2.94994 3.54649 0
M  V30 12073 H 1141.23 -2.72037 3.37903 0
M  V30 12074 H 1141.9 -4.35409 3.39298 0
M  V30 12075 H 1144.38 -3.87036 1.52781 0
M  V30 12076 H 1143.25 -5.25194 1.59571 0
M  V30 12077 H 1143.51 -4.42044 0.0705933 0
M  V30 12078 N 1142.57 -0.928524 -1.27343 0
M  V30 12079 C 1143.8 -0.58516 -1.98974 0
M  V30 12080 C 1144.22 0.829964 -1.68799 0
M  V30 12081 O 1143.58 1.55705 -0.928738 0
M  V30 12082 C 1143.63 -0.818662 -3.51184 0
M  V30 12083 O 1142.73 0.115355 -4.12239 0
M  V30 12084 H 1142.07 -0.225203 -0.624644 0
M  V30 12085 H 1144.6 -1.248 -1.6213 0
M  V30 12086 H 1144.61 -0.734554 -4.01333 0
M  V30 12087 H 1143.29 -1.8502 -3.72479 0
M  V30 12088 H 1141.86 -0.0187371 -3.72895 0
M  V30 12089 N 1144.05 1.41491 -0.694123 0
M  V30 12090 C 1145.28 2.05579 -0.233466 0
M  V30 12091 C 1145.69 1.5223 1.11675 0
M  V30 12092 O 1145.05 0.669937 1.69759 0
M  V30 12093 C 1145.1 3.61047 -0.180967 0
M  V30 12094 O 1144.82 4.12421 -1.47785 0
M  V30 12095 C 1146.32 4.42278 0.300853 0
M  V30 12096 H 1143.54 0.662097 -0.108943 0
M  V30 12097 H 1146.09 1.81288 -0.946299 0
M  V30 12098 H 1144.24 3.84381 0.482678 0
M  V30 12099 H 1144.66 5.06454 -1.364 0
M  V30 12100 H 1146.13 5.51256 0.286464 0
M  V30 12101 H 1146.61 4.18276 1.33948 0
M  V30 12102 H 1147.21 4.24004 -0.331741 0
M  V30 12103 N 1145.53 0.438773 1.51369 0
M  V30 12104 C 1146.46 -0.407771 2.25543 0
M  V30 12105 C 1147.47 -0.985065 1.29616 0
M  V30 12106 O 1148.66 -0.878961 1.55359 0
M  V30 12107 C 1145.76 -1.58257 2.9968 0
M  V30 12108 C 1144.93 -1.12389 4.22714 0
M  V30 12109 C 1143.99 -2.16897 4.79418 0
M  V30 12110 O 1143.02 -1.76273 5.41218 0
M  V30 12111 N 1144.22 -3.49396 4.63576 0
M  V30 12112 H 1146.99 0.227963 2.98832 0
M  V30 12113 H 1144.55 0.267741 1.59671 0
M  V30 12114 H 1146.54 -2.27796 3.34501 0
M  V30 12115 H 1145.11 -2.12362 2.29393 0
M  V30 12116 H 1144.33 -0.255509 3.93371 0
M  V30 12117 H 1145.62 -0.794848 5.02553 0
M  V30 12118 H 1145.02 -3.85132 4.14355 0
M  V30 12119 H 1143.57 -4.14826 5.02755 0
M  V30 12120 N 1147.01 -1.56678 0.170181 0
M  V30 12121 C 1148.25 -1.96849 -0.475064 0
M  V30 12122 C 1148.58 -1.05611 -1.6333 0
M  V30 12123 O 1147.84 -0.0899708 -1.95493 0
M  V30 12124 C 1148.13 -3.43103 -1.00076 0
M  V30 12125 C 1147.8 -4.50881 0.0414538 0
M  V30 12126 C 1146.46 -4.80082 0.327894 0
M  V30 12127 C 1148.81 -5.15791 0.748936 0
M  V30 12128 C 1146.14 -5.71491 1.32722 0
M  V30 12129 C 1148.49 -6.08278 1.73724 0
M  V30 12130 C 1147.16 -6.35847 2.03114 0
M  V30 12131 H 1146.43 -0.72032 -0.173838 0
M  V30 12132 H 1149.08 -1.89701 0.261903 0
M  V30 12133 H 1147.38 -3.47197 -1.81553 0
M  V30 12134 H 1149.08 -3.71525 -1.50899 0
M  V30 12135 H 1145.67 -4.2817 -0.191976 0
M  V30 12136 H 1149.85 -4.93344 0.540852 0
M  V30 12137 H 1145.11 -5.91134 1.56112 0
M  V30 12138 H 1149.28 -6.57643 2.29082 0
M  V30 12139 H 1146.91 -7.06479 2.80698 0
M  V30 12140 N 1148.48 0.103547 -1.57259 0
M  V30 12141 C 1149.89 0.659006 -1.74683 0
M  V30 12142 C 1150.25 1.79542 -0.791142 0
M  V30 12143 O 1149.37 2.16376 0.0323585 0
M  V30 12144 C 1149.97 1.20222 -3.16752 0
M  V30 12145 C 1148.52 1.70382 -3.35629 0
M  V30 12146 C 1147.67 0.609886 -2.7051 0
M  V30 12147 H 1150.62 -0.122474 -1.58227 0
M  V30 12148 H 1150.64 2.07169 -3.19157 0
M  V30 12149 H 1150.16 0.374901 -3.86285 0
M  V30 12150 H 1148.26 2.55542 -2.71162 0
M  V30 12151 H 1148.37 1.80263 -4.43894 0
M  V30 12152 H 1146.73 1.04728 -2.32173 0
M  V30 12153 H 1147.52 -0.206713 -3.42677 0
M  V30 12154 N 1149.96 1.53094 0.37415 0
M  V30 12155 C 1150.91 1.78927 1.45787 0
M  V30 12156 C 1151.88 0.633187 1.53558 0
M  V30 12157 O 1153.06 0.874472 1.69581 0
M  V30 12158 C 1150.2 1.97726 2.8284 0
M  V30 12159 C 1149.32 3.25436 2.84104 0
M  V30 12160 C 1148.45 3.3447 4.12678 0
M  V30 12161 C 1147.49 4.56246 4.08051 0
M  V30 12162 N 1146.63 4.6248 5.28258 0
M  V30 12163 H 1151.47 2.71404 1.2306 0
M  V30 12164 H 1149 1.34453 0.596716 0
M  V30 12165 H 1150.96 2.06611 3.62447 0
M  V30 12166 H 1149.59 1.08593 3.03986 0
M  V30 12167 H 1148.64 3.25548 1.96781 0
M  V30 12168 H 1149.96 4.15112 2.76556 0
M  V30 12169 H 1149.11 3.4262 5.00696 0
M  V30 12170 H 1147.85 2.42795 4.22968 0
M  V30 12171 H 1146.85 4.48206 3.1842 0
M  V30 12172 H 1148.08 5.49254 3.99371 0
M  V30 12173 H 1146.03 3.73703 5.3915 0
M  V30 12174 H 1145.94 5.46049 5.22845 0
M  V30 12175 H 1147.21 4.74903 6.18132 0
M  V30 12176 N 1151.44 -0.633461 1.44309 0
M  V30 12177 C 1152.67 -1.41827 1.50229 0
M  V30 12178 C 1153.08 -1.88786 0.125082 0
M  V30 12179 O 1152.42 -1.61314 -0.878836 0
M  V30 12180 C 1152.48 -2.67372 2.40317 0
M  V30 12181 C 1152.15 -2.42224 3.87526 0
M  V30 12182 C 1153.14 -2.04199 4.7812 0
M  V30 12183 C 1150.83 -2.55936 4.32206 0
M  V30 12184 C 1152.82 -1.80211 6.11394 0
M  V30 12185 C 1150.51 -2.31563 5.65528 0
M  V30 12186 C 1151.51 -1.93758 6.5494 0
M  V30 12187 O 1151.2 -1.69654 7.85794 0
M  V30 12188 H 1150.93 -0.441478 0.51193 0
M  V30 12189 H 1153.48 -0.782118 1.89927 0
M  V30 12190 H 1151.71 -3.33616 1.95543 0
M  V30 12191 H 1153.4 -3.2937 2.37214 0
M  V30 12192 H 1154.17 -1.93164 4.44874 0
M  V30 12193 H 1150.05 -2.84333 3.62872 0
M  V30 12194 H 1153.59 -1.50628 6.81144 0
M  V30 12195 H 1149.49 -2.42206 5.98336 0
M  V30 12196 H 1150.25 -1.83919 7.97569 0
M  V30 12197 N 1152.92 -1.31168 -0.873655 0
M  V30 12198 C 1154.17 -1.20003 -1.62118 0
M  V30 12199 C 1154.48 0.241505 -1.94103 0
M  V30 12200 O 1155.69 0.474801 -2.67316 0
M  V30 12201 C 1154.14 -2.10055 -2.92241 0
M  V30 12202 C 1153.75 -3.59183 -2.67752 0
M  V30 12203 C 1155.49 -2.07681 -3.70228 0
M  V30 12204 C 1153.4 -4.41255 -3.93761 0
M  V30 12205 H 1152.33 -0.445564 -0.608267 0
M  V30 12206 H 1154.98 -1.55997 -0.966287 0
M  V30 12207 H 1153.36 -1.66956 -3.59085 0
M  V30 12208 H 1154.54 -4.10504 -2.09339 0
M  V30 12209 H 1152.85 -3.63496 -2.03125 0
M  V30 12210 H 1155.45 -2.66246 -4.637 0
M  V30 12211 H 1155.79 -1.06304 -4.02499 0
M  V30 12212 H 1156.33 -2.48961 -3.10263 0
M  V30 12213 H 1153.07 -5.43372 -3.66643 0
M  V30 12214 H 1152.59 -3.94694 -4.51638 0
M  V30 12215 H 1154.26 -4.53278 -4.6168 0
M  V30 12216 N 1154.4 1.08748 -1.14068 0
M  V30 12217 C 1155.33 2.1544 -0.782199 0
M  V30 12218 C 1156.34 1.61575 0.199301 0
M  V30 12219 O 1157.53 1.78487 -0.0219044 0
M  V30 12220 C 1154.63 3.38611 -0.13983 0
M  V30 12221 C 1153.8 4.2187 -1.15518 0
M  V30 12222 C 1152.86 5.23451 -0.537216 0
M  V30 12223 O 1151.89 5.56424 -1.1992 0
M  V30 12224 N 1153.09 5.76413 0.6876 0
M  V30 12225 H 1155.86 2.46798 -1.70032 0
M  V30 12226 H 1153.42 1.24527 -1.03463 0
M  V30 12227 H 1155.41 4.03688 0.285999 0
M  V30 12228 H 1153.98 3.05084 0.681357 0
M  V30 12229 H 1153.2 3.52825 -1.75806 0
M  V30 12230 H 1154.49 4.74318 -1.84119 0
M  V30 12231 H 1153.88 5.51851 1.24406 0
M  V30 12232 H 1152.44 6.43189 1.05599 0
M  V30 12233 N 1155.87 0.935264 1.26849 0
M  V30 12234 C 1157.15 0.497797 1.8916 0
M  V30 12235 C 1157.53 -1.02441 1.84578 0
M  V30 12236 O 1156.88 -1.88185 1.29609 0
M  V30 12237 C 1157.09 1.05244 3.32753 0
M  V30 12238 C 1158.44 1.11751 4.0963 0
M  V30 12239 O 1159.46 1.0026 3.41799 0
M  V30 12240 O 1158.32 1.29548 5.30923 0
M  V30 12241 H 1155.41 0.161322 0.811113 0
M  V30 12242 H 1157.96 1.02744 1.35062 0
M  V30 12243 H 1156.73 2.09617 3.30419 0
M  V30 12244 H 1156.36 0.504889 3.94381 0
M  V30 12245 N 1157.35 -1.41121 0.701616 0
M  V30 12246 C 1158.6 -2.00359 0.232214 0
M  V30 12247 C 1158.91 -1.56231 -1.17691 0
M  V30 12248 O 1160.12 -2.08071 -1.74409 0
M  V30 12249 C 1158.58 -3.58052 0.364257 0
M  V30 12250 C 1158.18 -4.11158 1.77913 0
M  V30 12251 C 1159.93 -4.24476 -0.0450628 0
M  V30 12252 C 1157.84 -5.61306 1.8625 0
M  V30 12253 H 1156.77 -0.749411 0.0830609 0
M  V30 12254 H 1159.42 -1.61528 0.870689 0
M  V30 12255 H 1157.8 -3.94515 -0.342569 0
M  V30 12256 H 1158.97 -3.86101 2.5152 0
M  V30 12257 H 1157.29 -3.57282 2.13866 0
M  V30 12258 H 1159.88 -5.347 -0.00329209 0
M  V30 12259 H 1160.23 -4.01919 -1.08477 0
M  V30 12260 H 1160.76 -3.93069 0.611704 0
M  V30 12261 H 1157.5 -5.88699 2.88294 0
M  V30 12262 H 1157.02 -5.88271 1.17036 0
M  V30 12263 H 1158.7 -6.26179 1.62817 0
M  V30 12264 N 1158.83 -0.446794 -1.51134 0
M  V30 12265 C 1160.08 0.116666 -2.02464 0
M  V30 12266 C 1160.41 1.41532 -1.32975 0
M  V30 12267 O 1159.68 1.89278 -0.447651 0
M  V30 12268 C 1159.97 0.325659 -3.58624 0
M  V30 12269 C 1159.82 -0.992307 -4.38718 0
M  V30 12270 C 1161.14 1.09121 -4.26357 0
M  V30 12271 H 1158.26 0.0409262 -0.735863 0
M  V30 12272 H 1160.9 -0.587641 -1.80684 0
M  V30 12273 H 1159.05 0.925585 -3.77313 0
M  V30 12274 H 1160.72 -1.62694 -4.31658 0
M  V30 12275 H 1158.97 -1.5947 -4.03425 0
M  V30 12276 H 1159.64 -0.800005 -5.46172 0
M  V30 12277 H 1162.11 0.582944 -4.11996 0
M  V30 12278 H 1160.99 1.20621 -5.35483 0
M  V30 12279 H 1161.25 2.12171 -3.87861 0
M  V30 12280 N 1160.31 1.56586 -0.178487 0
M  V30 12281 C 1161.27 2.17091 0.73512 0
M  V30 12282 C 1162.27 1.12088 1.15295 0
M  V30 12283 O 1163.46 1.37563 1.06874 0
M  V30 12284 C 1160.59 2.75957 2.00151 0
M  V30 12285 H 1161.79 2.99176 0.208272 0
M  V30 12286 H 1159.34 1.56138 0.0710967 0
M  V30 12287 H 1160.07 1.97626 2.57127 0
M  V30 12288 H 1159.86 3.52809 1.7108 0
M  V30 12289 H 1161.35 3.2247 2.65335 0
M  V30 12290 N 1161.79 -0.095206 1.57312 0
M  V30 12291 C 1163.01 -0.81614 1.90667 0
M  V30 12292 C 1163.44 -1.71494 0.772746 0
M  V30 12293 O 1162.79 -1.79192 -0.275682 0
M  V30 12294 C 1162.84 -1.60555 3.22885 0
M  V30 12295 O 1161.95 -2.71448 3.10467 0
M  V30 12296 H 1161.29 -0.224217 0.624998 0
M  V30 12297 H 1163.82 -0.070464 2.04479 0
M  V30 12298 H 1163.83 -1.98979 3.5619 0
M  V30 12299 H 1162.5 -0.945918 4.05 0
M  V30 12300 H 1161.08 -2.36053 2.88675 0
M  V30 12301 N 1163.26 -1.53291 -0.366026 0
M  V30 12302 C 1164.49 -1.73359 -1.12934 0
M  V30 12303 C 1164.91 -0.462352 -1.83051 0
M  V30 12304 O 1164.26 0.564711 -1.73543 0
M  V30 12305 C 1164.32 -2.89873 -2.15999 0
M  V30 12306 O 1164.04 -4.12079 -1.48737 0
M  V30 12307 C 1165.54 -3.21811 -3.04881 0
M  V30 12308 H 1162.76 -0.579827 -0.337701 0
M  V30 12309 H 1165.3 -2.00033 -0.425081 0
M  V30 12310 H 1163.46 -2.65595 -2.82025 0
M  V30 12311 H 1163.87 -4.77322 -2.17404 0
M  V30 12312 H 1165.34 -4.06744 -3.7318 0
M  V30 12313 H 1165.82 -2.37156 -3.69667 0
M  V30 12314 H 1166.43 -3.48013 -2.44473 0
M  V30 12315 N 1164.74 0.6258 -1.44643 0
M  V30 12316 C 1165.67 1.74858 -1.54748 0
M  V30 12317 C 1166.65 1.65327 -0.400138 0
M  V30 12318 O 1167.84 1.84005 -0.620948 0
M  V30 12319 C 1164.97 3.13408 -1.49643 0
M  V30 12320 C 1163.92 3.37733 -2.62908 0
M  V30 12321 C 1163.25 4.76367 -2.42855 0
M  V30 12322 C 1164.55 3.29771 -4.05029 0
M  V30 12323 H 1166.24 1.66658 -2.48728 0
M  V30 12324 H 1163.79 0.800363 -1.19709 0
M  V30 12325 H 1165.74 3.91735 -1.55312 0
M  V30 12326 H 1164.47 3.22404 -0.521824 0
M  V30 12327 H 1163.12 2.61788 -2.56637 0
M  V30 12328 H 1162.77 4.82074 -1.43575 0
M  V30 12329 H 1162.47 4.936 -3.18799 0
M  V30 12330 H 1164 5.56917 -2.50351 0
M  V30 12331 H 1165.41 3.97996 -4.12641 0
M  V30 12332 H 1163.81 3.58538 -4.81218 0
M  V30 12333 H 1164.88 2.27493 -4.28223 0
M  V30 12334 N 1166.22 1.31629 0.866686 0
M  V30 12335 C 1167.17 1.19556 1.97421 0
M  V30 12336 C 1168.14 0.0805578 1.65905 0
M  V30 12337 O 1169.32 0.253997 1.89102 0
M  V30 12338 C 1166.46 0.912234 3.32825 0
M  V30 12339 C 1165.58 2.11088 3.76916 0
M  V30 12340 C 1164.71 1.76406 5.01053 0
M  V30 12341 C 1163.75 2.9266 5.37602 0
M  V30 12342 N 1162.89 2.58152 6.52918 0
M  V30 12343 H 1167.73 2.14294 2.0708 0
M  V30 12344 H 1165.26 1.06595 1.0137 0
M  V30 12345 H 1167.22 0.72851 4.1079 0
M  V30 12346 H 1165.85 0.00167404 3.228 0
M  V30 12347 H 1164.9 2.40527 2.94705 0
M  V30 12348 H 1166.22 2.98089 3.99931 0
M  V30 12349 H 1165.37 1.54515 5.86694 0
M  V30 12350 H 1164.11 0.866018 4.79949 0
M  V30 12351 H 1163.11 3.15196 4.50479 0
M  V30 12352 H 1164.34 3.83179 5.6067 0
M  V30 12353 H 1162.28 1.70874 6.33355 0
M  V30 12354 H 1162.2 3.38682 6.75892 0
M  V30 12355 H 1163.47 2.39662 7.41743 0
M  V30 12356 N 1167.7 -1.08142 1.14644 0
M  V30 12357 C 1168.63 -2.17139 0.858667 0
M  V30 12358 C 1169.61 -1.69064 -0.187452 0
M  V30 12359 O 1170.8 -1.94151 -0.0435458 0
M  V30 12360 C 1167.93 -3.45648 0.33834 0
M  V30 12361 C 1166.88 -4.07129 1.32021 0
M  V30 12362 C 1166.21 -5.30623 0.659075 0
M  V30 12363 C 1167.51 -4.48095 2.68343 0
M  V30 12364 H 1169.2 -2.41468 1.77012 0
M  V30 12365 H 1166.75 -1.16052 0.852523 0
M  V30 12366 H 1168.7 -4.21216 0.124611 0
M  V30 12367 H 1167.42 -3.2088 -0.608553 0
M  V30 12368 H 1166.08 -3.33596 1.52016 0
M  V30 12369 H 1165.73 -5.02142 -0.293711 0
M  V30 12370 H 1165.43 -5.72714 1.31427 0
M  V30 12371 H 1166.95 -6.08903 0.454933 0
M  V30 12372 H 1168.37 -5.14828 2.5224 0
M  V30 12373 H 1166.76 -5.01113 3.30161 0
M  V30 12374 H 1167.83 -3.59852 3.25015 0
M  V30 12375 N 1169.18 -0.941978 -1.26351 0
M  V30 12376 C 1170.59 -0.632522 -1.75659 0
M  V30 12377 C 1170.94 0.852287 -1.76722 0
M  V30 12378 O 1170.06 1.66701 -1.37985 0
M  V30 12379 C 1170.66 -1.14145 -3.18993 0
M  V30 12380 C 1169.22 -0.882391 -3.65911 0
M  V30 12381 C 1168.37 -1.29189 -2.45368 0
M  V30 12382 H 1171.32 -1.12019 -1.12416 0
M  V30 12383 H 1171.34 -0.495639 -3.77258 0
M  V30 12384 H 1170.85 -2.22213 -3.18187 0
M  V30 12385 H 1168.95 0.183873 -3.72146 0
M  V30 12386 H 1169.06 -1.50996 -4.54683 0
M  V30 12387 H 1167.43 -0.710316 -2.44595 0
M  V30 12388 H 1168.21 -2.38152 -2.47262 0
M  V30 12389 N 1170.66 1.40747 -0.709091 0
M  V30 12390 C 1171.62 2.29118 -0.0611607 0
M  V30 12391 C 1172.62 1.45049 0.694081 0
M  V30 12392 O 1173.81 1.66039 0.526952 0
M  V30 12393 C 1170.94 3.28154 0.923447 0
M  V30 12394 H 1172.13 2.87913 -0.839413 0
M  V30 12395 H 1169.69 1.4896 -0.473363 0
M  V30 12396 H 1170.42 2.74366 1.72899 0
M  V30 12397 H 1170.21 3.90207 0.384862 0
M  V30 12398 H 1171.7 3.94343 1.37417 0
M  V30 12399 N 1172.13 0.454803 1.50895 0
M  V30 12400 C 1173.08 -0.361974 2.29766 0
M  V30 12401 C 1174.08 -1.00519 1.36353 0
M  V30 12402 O 1175.28 -0.938159 1.53618 0
M  V30 12403 H 1171.66 -0.135559 0.739681 0
M  V30 12404 H 1173.63 0.323853 2.96637 0
M  V30 12405 C 1172.38 -1.44078 3.16444 0
M  V30 12406 H 1171.7 -0.955212 3.88221 0
M  V30 12407 H 1173.14 -1.98518 3.74655 0
M  V30 12408 C 1171.6 -2.43374 2.32961 0
M  V30 12409 O 1172.13 -3.48295 2.00133 0
M  V30 12410 N 1170.33 -2.14689 1.95849 0
M  V30 12411 H 1169.88 -1.29392 2.22745 0
M  V30 12412 H 1169.84 -2.81363 1.40292 0
M  V30 12413 N 1173.61 -1.56489 0.186789 0
M  V30 12414 C 1174.56 -2.18703 -0.737402 0
M  V30 12415 C 1175.53 -1.13171 -1.21579 0
M  V30 12416 O 1176.71 -1.41388 -1.28118 0
M  V30 12417 C 1173.85 -2.84394 -1.95484 0
M  V30 12418 C 1172.97 -4.04429 -1.51859 0
M  V30 12419 C 1172.1 -4.58001 -2.69089 0
M  V30 12420 C 1171.14 -5.70412 -2.22029 0
M  V30 12421 N 1170.28 -6.18425 -3.32407 0
M  V30 12422 H 1175.12 -2.97327 -0.200105 0
M  V30 12423 H 1172.65 -1.46842 -0.087032 0
M  V30 12424 H 1174.61 -3.20646 -2.66912 0
M  V30 12425 H 1173.24 -2.08347 -2.46559 0
M  V30 12426 H 1172.29 -3.73895 -0.70048 0
M  V30 12427 H 1173.61 -4.85756 -1.13327 0
M  V30 12428 H 1172.76 -4.96515 -3.48652 0
M  V30 12429 H 1171.5 -3.75764 -3.1089 0
M  V30 12430 H 1170.5 -5.31434 -1.40918 0
M  V30 12431 H 1171.73 -6.54461 -1.81268 0
M  V30 12432 H 1169.68 -5.39113 -3.73755 0
M  V30 12433 H 1169.59 -6.94782 -2.98017 0
M  V30 12434 H 1170.86 -6.61592 -4.12209 0
M  V30 12435 N 1175.09 0.086862 -1.5736 0
M  V30 12436 C 1176.34 0.790008 -1.8678 0
M  V30 12437 C 1176.67 1.77977 -0.777042 0
M  V30 12438 O 1175.94 1.93317 0.21419 0
M  V30 12439 C 1176.23 1.51143 -3.26845 0
M  V30 12440 C 1176.08 0.539106 -4.46558 0
M  V30 12441 C 1177.4 2.46003 -3.64926 0
M  V30 12442 H 1174.52 0.285741 -0.679354 0
M  V30 12443 H 1177.16 0.0534655 -1.89925 0
M  V30 12444 H 1175.31 2.13928 -3.24295 0
M  V30 12445 H 1176.98 -0.0823679 -4.61226 0
M  V30 12446 H 1175.22 -0.146842 -4.33551 0
M  V30 12447 H 1175.9 1.0812 -5.41308 0
M  V30 12448 H 1178.37 1.93306 -3.68473 0
M  V30 12449 H 1177.25 2.93493 -4.63846 0
M  V30 12450 H 1177.51 3.30133 -2.94049 0
M  V30 12451 N 1176.57 1.53483 0.357892 0
M  V30 12452 C 1177.5 1.75257 1.46151 0
M  V30 12453 C 1178.48 0.601167 1.51079 0
M  V30 12454 O 1179.66 0.834661 1.69014 0
M  V30 12455 C 1176.79 1.8383 2.84472 0
M  V30 12456 C 1175.84 3.05866 2.97234 0
M  V30 12457 S 1176.67 4.65225 2.6519 0
M  V30 12458 C 1177.82 4.76657 4.05646 0
M  V30 12459 H 1178.06 2.6859 1.27462 0
M  V30 12460 H 1175.59 1.44169 0.552697 0
M  V30 12461 H 1177.55 1.89454 3.64167 0
M  V30 12462 H 1176.21 0.915345 3.00467 0
M  V30 12463 H 1175.4 3.08497 3.98555 0
M  V30 12464 H 1175 2.98393 2.25471 0
M  V30 12465 H 1177.3 4.57185 4.99988 0
M  V30 12466 H 1178.24 5.7873 4.08016 0
M  V30 12467 H 1178.65 4.05226 3.93004 0
M  V30 12468 N 1178.05 -0.61812 1.44973 0
M  V30 12469 C 1179.29 -1.38882 1.4997 0
M  V30 12470 C 1179.65 -1.91533 0.133841 0
M  V30 12471 O 1180.85 -2.68736 0.0585012 0
M  V30 12472 C 1179.12 -2.5136 2.54073 0
M  V30 12473 S 1180.68 -3.39324 2.78216 0
M  V30 12474 H 1177.5 -0.473631 0.530278 0
M  V30 12475 H 1180.1 -0.714299 1.81984 0
M  V30 12476 H 1178.8 -2.11012 3.51997 0
M  V30 12477 H 1178.34 -3.23625 2.23675 0
M  V30 12478 H 1180.35 -4.49198 2.10797 0
M  V30 12479 N 1179.52 -1.32087 -0.859693 0
M  V30 12480 C 1180.47 -1.17188 -1.95578 0
M  V30 12481 C 1181.46 -0.0801302 -1.607 0
M  V30 12482 O 1182.65 -0.306118 -1.74333 0
M  V30 12483 C 1179.78 -0.891916 -3.31511 0
M  V30 12484 C 1178.86 -2.02513 -3.72625 0
M  V30 12485 N 1179.26 -3.27321 -3.85609 0
M  V30 12486 C 1177.55 -1.92717 -4.02214 0
M  V30 12487 C 1178.25 -4.01513 -4.20906 0
M  V30 12488 N 1177.23 -3.29767 -4.32151 0
M  V30 12489 H 1181.03 -2.11816 -2.03743 0
M  V30 12490 H 1178.55 -1.23794 -1.05114 0
M  V30 12491 H 1180.54 -0.766143 -4.098 0
M  V30 12492 H 1179.2 0.0460349 -3.24667 0
M  V30 12493 H 1180.21 -3.62317 -3.70063 0
M  V30 12494 H 1176.89 -1.06452 -4.03701 0
M  V30 12495 H 1178.28 -5.09116 -4.38463 0
M  V30 12496 N 1181 1.07532 -1.15215 0
M  V30 12497 C 1182.25 1.8036 -0.927263 0
M  V30 12498 C 1182.58 1.86414 0.544371 0
M  V30 12499 O 1181.86 1.34653 1.40353 0
M  V30 12500 C 1182.14 3.25512 -1.53992 0
M  V30 12501 C 1181.99 3.27614 -3.08203 0
M  V30 12502 C 1183.31 4.22731 -1.22418 0
M  V30 12503 H 1180.43 0.654775 -0.338289 0
M  V30 12504 H 1183.07 1.25842 -1.42351 0
M  V30 12505 H 1181.22 3.72068 -1.11791 0
M  V30 12506 H 1182.89 2.89315 -3.59297 0
M  V30 12507 H 1181.14 2.66627 -3.42188 0
M  V30 12508 H 1181.81 4.29956 -3.46182 0
M  V30 12509 H 1184.28 3.84557 -1.58919 0
M  V30 12510 H 1183.16 5.22589 -1.67906 0
M  V30 12511 H 1183.42 4.41875 -0.14091 0
M  V30 12512 N 1182.48 0.948665 1.2585 0
M  V30 12513 C 1183.9 0.652147 1.45668 0
M  V30 12514 C 1184.1 -0.792217 1.85273 0
M  V30 12515 O 1183.15 -1.56812 1.97905 0
M  V30 12516 C 1184.47 1.61998 2.53332 0
M  V30 12517 C 1186.01 1.6305 2.67178 0
M  V30 12518 C 1186.49 2.58582 3.78021 0
M  V30 12519 N 1187.98 2.56911 3.85423 0
M  V30 12520 C 1188.71 3.27511 4.70664 0
M  V30 12521 N 1188.21 4.07563 5.60236 0
M  V30 12522 N 1190 3.16427 4.64576 0
M  V30 12523 H 1182.15 1.88215 0.984325 0
M  V30 12524 H 1184.42 0.809251 0.493778 0
M  V30 12525 H 1184.12 2.65137 2.31075 0
M  V30 12526 H 1184 1.37784 3.51134 0
M  V30 12527 H 1186.38 0.606315 2.88804 0
M  V30 12528 H 1186.47 1.9132 1.69795 0
M  V30 12529 H 1186.11 3.61122 3.57146 0
M  V30 12530 H 1186.04 2.27598 4.74875 0
M  V30 12531 H 1188.53 1.9879 3.21389 0
M  V30 12532 H 1188.84 4.58367 6.22189 0
M  V30 12533 H 1187.19 4.11662 5.59964 0
M  V30 12534 H 1190.38 2.53364 3.93604 0
M  V30 12535 H 1190.55 3.71714 5.30785 0
M  V30 12536 N 1183.96 -1.40369 0.716545 0
M  V30 12537 C 1185.37 -1.54757 0.390202 0
M  V30 12538 C 1185.57 -1.68767 -1.10091 0
M  V30 12539 O 1184.63 -1.67779 -1.88697 0
M  V30 12540 C 1185.94 -2.77546 1.15709 0
M  V30 12541 C 1187.49 -2.91364 1.14349 0
M  V30 12542 C 1187.97 -4.17068 1.89256 0
M  V30 12543 N 1189.46 -4.2407 1.8633 0
M  V30 12544 C 1190.19 -5.20243 2.41112 0
M  V30 12545 N 1189.69 -6.22318 3.04454 0
M  V30 12546 N 1191.48 -5.12328 2.31249 0
M  V30 12547 H 1183.63 -1.29521 1.68339 0
M  V30 12548 H 1185.9 -0.626382 0.711582 0
M  V30 12549 H 1185.6 -2.73474 2.21144 0
M  V30 12550 H 1185.48 -3.69682 0.749347 0
M  V30 12551 H 1187.86 -2.94939 0.0973383 0
M  V30 12552 H 1187.94 -2.00344 1.59047 0
M  V30 12553 H 1187.59 -4.14255 2.93863 0
M  V30 12554 H 1187.52 -5.07099 1.41978 0
M  V30 12555 H 1190.01 -3.50944 1.40168 0
M  V30 12556 H 1190.32 -6.92129 3.43769 0
M  V30 12557 H 1188.67 -6.22759 3.08538 0
M  V30 12558 H 1191.86 -4.31514 1.8142 0
M  V30 12559 H 1192.03 -5.87107 2.74243 0
M  V30 12560 N 1185.44 -0.462799 -1.50652 0
M  V30 12561 C 1186.68 0.0951853 -2.02576 0
M  V30 12562 C 1187.02 1.40113 -1.34469 0
M  V30 12563 O 1186.29 1.88793 -0.467702 0
M  V30 12564 C 1186.57 0.287603 -3.5895 0
M  V30 12565 C 1186.43 -1.03878 -4.37641 0
M  V30 12566 C 1187.75 1.04593 -4.27491 0
M  V30 12567 H 1184.86 0.0331191 -0.736255 0
M  V30 12568 H 1187.51 -0.606772 -1.80051 0
M  V30 12569 H 1185.66 0.885514 -3.78274 0
M  V30 12570 H 1187.33 -1.67263 -4.29908 0
M  V30 12571 H 1185.57 -1.6374 -4.01711 0
M  V30 12572 H 1186.24 -0.857889 -5.45293 0
M  V30 12573 H 1188.72 0.539213 -4.12591 0
M  V30 12574 H 1187.59 1.14935 -5.36732 0
M  V30 12575 H 1187.86 2.08045 -3.90089 0
M  V30 12576 N 1186.91 1.56388 -0.195085 0
M  V30 12577 C 1188.16 1.97189 0.44281 0
M  V30 12578 C 1188.48 1.08312 1.62153 0
M  V30 12579 O 1187.75 0.154404 1.95291 0
M  V30 12580 H 1186.33 0.728188 0.166585 0
M  V30 12581 H 1189 1.92852 -0.281815 0
M  V30 12582 H 1188.09 3.02016 0.786945 0
M  V30 12583 N 1188.39 -0.0785156 1.57404 0
M  V30 12584 C 1189.64 -0.777399 1.8655 0
M  V30 12585 C 1189.96 -1.78451 0.786142 0
M  V30 12586 O 1189.23 -1.95016 -0.185911 0
M  V30 12587 H 1187.81 -0.290097 0.688369 0
M  V30 12588 H 1190.47 -0.0562017 1.94819 0
M  V30 12589 H 1189.57 -1.29776 2.83839 0
M  V30 12590 N 1189.87 -1.5367 -0.349747 0
M  V30 12591 C 1190.83 -1.80533 -1.41211 0
M  V30 12592 C 1191.83 -0.676188 -1.45892 0
M  V30 12593 O 1193.02 -0.944453 -1.46375 0
M  V30 12594 C 1190.16 -1.94175 -2.80195 0
M  V30 12595 H 1191.35 -2.75428 -1.18658 0
M  V30 12596 H 1188.9 -1.44988 -0.583787 0
M  V30 12597 H 1189.64 -1.01402 -3.08039 0
M  V30 12598 H 1189.42 -2.76316 -2.78194 0
M  V30 12599 H 1190.91 -2.16496 -3.57098 0
M  V30 12600 N 1191.35 0.610423 -1.45298 0
M  V30 12601 C 1192.6 1.36951 -1.49167 0
M  V30 12602 C 1192.92 1.9405 -0.132292 0
M  V30 12603 O 1192.18 1.75363 0.868686 0
M  V30 12604 C 1192.48 2.53812 -2.51623 0
M  V30 12605 C 1192.14 2.14877 -3.96407 0
M  V30 12606 C 1190.81 2.03972 -4.35831 0
M  V30 12607 C 1193.16 1.84448 -4.87472 0
M  V30 12608 C 1190.49 1.60856 -5.64218 0
M  V30 12609 C 1192.84 1.42818 -6.16268 0
M  V30 12610 C 1191.5 1.3047 -6.54625 0
M  V30 12611 H 1190.77 0.501138 -0.54584 0
M  V30 12612 H 1193.42 0.690221 -1.78629 0
M  V30 12613 H 1191.72 3.27066 -2.1572 0
M  V30 12614 H 1193.42 3.12041 -2.51856 0
M  V30 12615 H 1190.01 2.2429 -3.65229 0
M  V30 12616 H 1194.19 1.91771 -4.57753 0
M  V30 12617 H 1189.45 1.49916 -5.92735 0
M  V30 12618 H 1193.62 1.18318 -6.86275 0
M  V30 12619 H 1191.25 0.968347 -7.54007 0
M  V30 12620 N 1192.83 1.32541 0.852676 0
M  V30 12621 C 1194.07 1.22971 1.60383 0
M  V30 12622 C 1194.4 -0.208009 1.93887 0
M  V30 12623 O 1193.67 -1.13326 1.59794 0
M  V30 12624 H 1192.25 0.452149 0.594618 0
M  V30 12625 H 1194.91 1.66089 1.01983 0
M  V30 12626 H 1194 1.81373 2.53989 0
M  V30 12627 N 1194.3 -1.0692 1.15784 0
M  V30 12628 C 1195.55 -1.79245 0.933581 0
M  V30 12629 C 1195.87 -1.87362 -0.540427 0
M  V30 12630 O 1195.14 -1.37769 -1.39271 0
M  V30 12631 H 1193.72 -0.663898 0.342416 0
M  V30 12632 H 1196.39 -1.29189 1.45932 0
M  V30 12633 H 1195.48 -2.81546 1.34679 0
M  V30 12634 N 1195.78 -0.955326 -1.25345 0
M  V30 12635 C 1196.73 -0.474888 -2.25862 0
M  V30 12636 C 1197.7 0.472996 -1.59223 0
M  V30 12637 O 1198.88 0.386094 -1.86853 0
M  V30 12638 C 1196.02 0.240554 -3.44261 0
M  V30 12639 C 1195.14 -0.74465 -4.25534 0
M  V30 12640 C 1194.27 -0.00657513 -5.312 0
M  V30 12641 C 1193.31 -0.982666 -6.04161 0
M  V30 12642 N 1192.45 -0.275418 -7.0156 0
M  V30 12643 H 1197.29 -1.33693 -2.66327 0
M  V30 12644 H 1194.83 -0.670439 -1.30933 0
M  V30 12645 H 1196.78 0.671933 -4.11753 0
M  V30 12646 H 1195.41 1.06664 -3.04668 0
M  V30 12647 H 1194.47 -1.29451 -3.57696 0
M  V30 12648 H 1195.78 -1.48948 -4.76042 0
M  V30 12649 H 1194.93 0.483404 -6.04771 0
M  V30 12650 H 1193.67 0.771035 -4.81567 0
M  V30 12651 H 1192.68 -1.48364 -5.29404 0
M  V30 12652 H 1193.9 -1.76052 -6.55883 0
M  V30 12653 H 1191.85 0.483441 -6.54216 0
M  V30 12654 H 1191.76 -0.959324 -7.49889 0
M  V30 12655 H 1193.03 0.193002 -7.79261 0
M  V30 12656 N 1197.26 1.39987 -0.723979 0
M  V30 12657 C 1198.51 2.01028 -0.267511 0
M  V30 12658 C 1198.84 1.57295 1.13894 0
M  V30 12659 O 1198.12 0.796805 1.7743 0
M  V30 12660 C 1198.4 3.58326 -0.356971 0
M  V30 12661 C 1198.25 4.12109 -1.8024 0
M  V30 12662 C 1199.57 4.39289 0.267003 0
M  V30 12663 H 1196.69 0.730364 -0.0986775 0
M  V30 12664 H 1199.33 1.66348 -0.91806 0
M  V30 12665 H 1197.48 3.88001 0.196908 0
M  V30 12666 H 1199.15 3.93199 -2.41231 0
M  V30 12667 H 1197.4 3.66082 -2.32737 0
M  V30 12668 H 1198.07 5.21261 -1.81634 0
M  V30 12669 H 1200.54 4.15595 -0.20503 0
M  V30 12670 H 1199.42 5.48624 0.174004 0
M  V30 12671 H 1199.68 4.20931 1.35164 0
M  V30 12672 N 1198.74 0.470782 1.50404 0
M  V30 12673 C 1199.67 -0.313458 2.31386 0
M  V30 12674 C 1200.65 -0.990623 1.38278 0
M  V30 12675 O 1201.84 -0.987854 1.67198 0
M  V30 12676 C 1198.97 -1.39599 3.18009 0
M  V30 12677 C 1197.92 -0.840443 4.19667 0
M  V30 12678 C 1197.25 -2.02124 4.95025 0
M  V30 12679 C 1198.55 0.148055 5.2209 0
M  V30 12680 H 1200.24 0.362432 2.97198 0
M  V30 12681 H 1197.79 0.175745 1.42924 0
M  V30 12682 H 1199.74 -1.9521 3.73458 0
M  V30 12683 H 1198.46 -2.10064 2.50081 0
M  V30 12684 H 1197.12 -0.306302 3.65318 0
M  V30 12685 H 1196.77 -2.71286 4.23571 0
M  V30 12686 H 1196.47 -1.65574 5.6379 0
M  V30 12687 H 1197.99 -2.58226 5.5331 0
M  V30 12688 H 1199.41 -0.318874 5.72413 0
M  V30 12689 H 1197.8 0.427811 5.98573 0
M  V30 12690 H 1198.87 1.07404 4.72855 0
M  V30 12691 N 1200.22 -1.56282 0.203376 0
M  V30 12692 C 1201.16 -2.19473 -0.714164 0
M  V30 12693 C 1202.13 -1.14454 -1.20372 0
M  V30 12694 O 1203.32 -1.42739 -1.26611 0
M  V30 12695 C 1200.46 -2.86451 -1.92457 0
M  V30 12696 C 1199.57 -4.06017 -1.47561 0
M  V30 12697 C 1198.71 -4.60829 -2.64216 0
M  V30 12698 C 1197.75 -5.72734 -2.15967 0
M  V30 12699 N 1196.88 -6.21916 -3.25829 0
M  V30 12700 H 1201.72 -2.97523 -0.168558 0
M  V30 12701 H 1199.26 -1.46926 -0.0714525 0
M  V30 12702 H 1201.22 -3.23459 -2.63496 0
M  V30 12703 H 1199.85 -2.10951 -2.44335 0
M  V30 12704 H 1198.9 -3.74617 -0.660784 0
M  V30 12705 H 1200.21 -4.8693 -1.08168 0
M  V30 12706 H 1199.37 -5.00185 -3.43366 0
M  V30 12707 H 1198.11 -3.7904 -3.06887 0
M  V30 12708 H 1197.11 -5.32899 -1.35273 0
M  V30 12709 H 1198.34 -6.56346 -1.74316 0
M  V30 12710 H 1196.28 -5.43047 -3.68016 0
M  V30 12711 H 1196.2 -6.97904 -2.90631 0
M  V30 12712 H 1197.47 -6.65927 -4.05168 0
M  V30 12713 N 1201.7 0.070167 -1.57444 0
M  V30 12714 C 1202.92 0.781894 -1.91557 0
M  V30 12715 C 1203.34 1.71037 -0.799489 0
M  V30 12716 O 1202.7 1.81082 0.227062 0
M  V30 12717 C 1202.75 1.57415 -3.25427 0
M  V30 12718 O 1202.47 0.682991 -4.32743 0
M  V30 12719 C 1203.97 2.38673 -3.73564 0
M  V30 12720 H 1201.19 0.222211 -0.633138 0
M  V30 12721 H 1203.73 0.0399504 -2.04461 0
M  V30 12722 H 1201.89 2.26835 -3.14045 0
M  V30 12723 H 1202.3 1.2342 -5.09772 0
M  V30 12724 H 1203.78 2.89716 -4.6986 0
M  V30 12725 H 1204.25 3.18269 -3.02657 0
M  V30 12726 H 1204.86 1.74405 -3.87896 0
M  V30 12727 N 1203.17 1.53854 0.341593 0
M  V30 12728 C 1204.42 1.70856 1.07948 0
M  V30 12729 C 1204.74 0.475474 1.89114 0
M  V30 12730 O 1204.01 -0.510592 1.89129 0
M  V30 12731 H 1202.59 0.629914 0.401519 0
M  V30 12732 H 1205.25 1.91112 0.382393 0
M  V30 12733 H 1204.35 2.5803 1.75575 0
M  V30 12734 N 1204.65 -0.602709 1.4562 0
M  V30 12735 C 1205.9 -1.35769 1.49163 0
M  V30 12736 C 1206.21 -1.95102 0.139485 0
M  V30 12737 O 1207.42 -2.71449 0.0525919 0
M  V30 12738 C 1205.88 -2.45959 2.62739 0
M  V30 12739 C 1205.48 -1.93017 4.04288 0
M  V30 12740 C 1207.23 -3.22926 2.75534 0
M  V30 12741 C 1205.13 -3.00718 5.09237 0
M  V30 12742 H 1204.06 -0.510317 0.555061 0
M  V30 12743 H 1206.72 -0.645434 1.71774 0
M  V30 12744 H 1205.1 -3.19892 2.3342 0
M  V30 12745 H 1206.27 -1.2576 4.43307 0
M  V30 12746 H 1204.59 -1.2878 3.95986 0
M  V30 12747 H 1207.18 -4.03267 3.51112 0
M  V30 12748 H 1207.53 -3.74243 1.82339 0
M  V30 12749 H 1208.06 -2.56095 3.04402 0
M  V30 12750 H 1204.8 -2.54312 6.04157 0
M  V30 12751 H 1204.32 -3.66526 4.74783 0
M  V30 12752 H 1206 -3.65016 5.34202 0
M  V30 12753 N 1206.13 -1.32992 -0.845635 0
M  V30 12754 C 1207.38 -1.23415 -1.59536 0
M  V30 12755 C 1207.69 0.200278 -1.94572 0
M  V30 12756 O 1208.9 0.417993 -2.68263 0
M  V30 12757 C 1207.35 -2.16207 -2.8772 0
M  V30 12758 C 1206.96 -3.64782 -2.60073 0
M  V30 12759 C 1208.71 -2.15488 -3.65739 0
M  V30 12760 C 1206.61 -4.49508 -3.84313 0
M  V30 12761 H 1205.54 -0.458366 -0.598679 0
M  V30 12762 H 1208.19 -1.58012 -0.932981 0
M  V30 12763 H 1206.58 -1.74535 -3.55462 0
M  V30 12764 H 1207.75 -4.14852 -2.00585 0
M  V30 12765 H 1206.06 -3.67723 -1.95369 0
M  V30 12766 H 1208.66 -2.76021 -4.57948 0
M  V30 12767 H 1209 -1.14818 -4.00153 0
M  V30 12768 H 1209.54 -2.55487 -3.04912 0
M  V30 12769 H 1206.28 -5.51027 -3.55035 0
M  V30 12770 H 1205.8 -4.04185 -4.43165 0
M  V30 12771 H 1207.48 -4.62969 -4.51961 0
M  V30 12772 N 1207.61 1.06304 -1.1635 0
M  V30 12773 C 1208.57 2.11947 -0.872419 0
M  V30 12774 C 1209.57 1.60253 0.132534 0
M  V30 12775 O 1210.76 1.73922 -0.0983441 0
M  V30 12776 C 1207.89 3.39536 -0.304646 0
M  V30 12777 H 1209.09 2.39201 -1.80894 0
M  V30 12778 H 1206.64 1.22367 -0.972419 0
M  V30 12779 H 1207.37 3.17931 0.639565 0
M  V30 12780 H 1207.16 3.78363 -1.02878 0
M  V30 12781 H 1208.65 4.17431 -0.118936 0
M  V30 12782 N 1209.09 0.96196 1.24836 0
M  V30 12783 C 1210.05 0.492443 2.23847 0
M  V30 12784 C 1211.05 -0.40788 1.55541 0
M  V30 12785 O 1212.24 -0.204143 1.73 0
M  V30 12786 C 1209.37 -0.287578 3.39685 0
M  V30 12787 H 1210.56 1.36767 2.66899 0
M  V30 12788 H 1208.12 0.745967 1.3735 0
M  V30 12789 H 1208.85 -1.18015 3.02064 0
M  V30 12790 H 1208.64 0.358431 3.90458 0
M  V30 12791 H 1210.13 -0.605297 4.1319 0
M  V30 12792 N 1210.56 -1.39601 0.731392 0
M  V30 12793 C 1211.81 -2.00883 0.278168 0
M  V30 12794 C 1212.14 -1.57897 -1.13059 0
M  V30 12795 O 1211.42 -0.806203 -1.77005 0
M  V30 12796 C 1211.7 -3.58132 0.375969 0
M  V30 12797 C 1211.55 -4.11147 1.82423 0
M  V30 12798 C 1212.87 -4.39425 -0.243702 0
M  V30 12799 H 1209.99 -0.729831 0.102549 0
M  V30 12800 H 1212.63 -1.65859 0.926869 0
M  V30 12801 H 1210.78 -3.881 -0.176329 0
M  V30 12802 H 1212.46 -3.91914 2.43313 0
M  V30 12803 H 1210.7 -3.64842 2.34675 0
M  V30 12804 H 1211.37 -5.20291 1.84396 0
M  V30 12805 H 1213.85 -4.1548 0.227067 0
M  V30 12806 H 1212.72 -5.48709 -0.144907 0
M  V30 12807 H 1212.98 -4.21642 -1.32929 0
M  V30 12808 N 1212.04 -0.478751 -1.50152 0
M  V30 12809 C 1213.27 0.0710485 -2.06778 0
M  V30 12810 C 1213.69 1.32826 -1.34174 0
M  V30 12811 O 1213.04 1.77758 -0.413304 0
M  V30 12812 C 1213.09 0.351351 -3.59789 0
M  V30 12813 O 1212.81 -0.855998 -4.29656 0
M  V30 12814 C 1214.32 0.947269 -4.33061 0
M  V30 12815 H 1211.54 -0.0105032 -0.670918 0
M  V30 12816 H 1214.08 -0.669732 -1.93222 0
M  V30 12817 H 1212.23 1.04207 -3.73121 0
M  V30 12818 H 1212.65 -0.605252 -5.20996 0
M  V30 12819 H 1214.12 1.09312 -5.41068 0
M  V30 12820 H 1214.6 1.93937 -3.94062 0
M  V30 12821 H 1215.21 0.294693 -4.24278 0
M  V30 12822 N 1213.52 1.56172 -0.211661 0
M  V30 12823 C 1214.48 2.18602 0.688906 0
M  V30 12824 C 1215.48 1.14508 1.12892 0
M  V30 12825 O 1216.67 1.39799 1.03932 0
M  V30 12826 C 1213.81 2.80141 1.94253 0
M  V30 12827 H 1215 2.9955 0.144765 0
M  V30 12828 H 1212.55 1.56254 0.0379615 0
M  V30 12829 H 1213.29 2.03035 2.52878 0
M  V30 12830 H 1213.07 3.56358 1.63558 0
M  V30 12831 H 1214.56 3.28026 2.58436 0
M  V30 12832 N 1215 -0.0618163 1.57479 0
M  V30 12833 C 1216.25 -0.759069 1.87735 0
M  V30 12834 C 1216.57 -1.77071 0.804732 0
M  V30 12835 O 1215.83 -1.94694 -0.198173 0
M  V30 12836 C 1216.13 -1.4939 3.2468 0
M  V30 12837 C 1215.79 -0.621312 4.46599 0
M  V30 12838 C 1214.46 -0.380873 4.7969 0
M  V30 12839 C 1216.81 -0.0168537 5.21197 0
M  V30 12840 C 1214.14 0.473341 5.84787 0
M  V30 12841 C 1216.49 0.824872 6.27199 0
M  V30 12842 C 1215.15 1.07509 6.58785 0
M  V30 12843 H 1214.42 -0.277763 0.686971 0
M  V30 12844 H 1217.07 -0.0195971 1.9149 0
M  V30 12845 H 1215.37 -2.30584 3.16762 0
M  V30 12846 H 1217.07 -2.03837 3.45328 0
M  V30 12847 H 1213.66 -0.818848 4.20705 0
M  V30 12848 H 1217.84 -0.189707 4.95937 0
M  V30 12849 H 1213.1 0.675842 6.07653 0
M  V30 12850 H 1217.27 1.29993 6.8416 0
M  V30 12851 H 1214.9 1.73876 7.40048 0
M  V30 12852 N 1216.48 -1.54033 -0.333429 0
M  V30 12853 C 1217.44 -1.82021 -1.39288 0
M  V30 12854 C 1218.44 -0.691623 -1.45166 0
M  V30 12855 O 1219.63 -0.959925 -1.45365 0
M  V30 12856 C 1216.76 -1.97136 -2.78119 0
M  V30 12857 H 1217.95 -2.76671 -1.1573 0
M  V30 12858 H 1215.51 -1.45599 -0.568376 0
M  V30 12859 H 1216.24 -1.04663 -3.06946 0
M  V30 12860 H 1216.03 -2.79251 -2.75247 0
M  V30 12861 H 1217.52 -2.20271 -3.54782 0
M  V30 12862 N 1217.95 0.594978 -1.45938 0
M  V30 12863 C 1218.92 1.68688 -1.55168 0
M  V30 12864 C 1219.92 1.54945 -0.429951 0
M  V30 12865 O 1221.11 1.59785 -0.693859 0
M  V30 12866 C 1218.24 3.0804 -1.46027 0
M  V30 12867 H 1219.43 1.61866 -2.52467 0
M  V30 12868 H 1216.99 0.811785 -1.33565 0
M  V30 12869 H 1217.72 3.20428 -0.499614 0
M  V30 12870 H 1217.51 3.19423 -2.27401 0
M  V30 12871 H 1219 3.8755 -1.55546 0
M  V30 12872 N 1219.43 1.33438 0.838571 0
M  V30 12873 C 1220.38 1.23698 1.96981 0
M  V30 12874 C 1221.37 0.138299 1.68835 0
M  V30 12875 O 1222.58 0.302278 1.77444 0
M  V30 12876 H 1218.96 0.383874 0.646641 0
M  V30 12877 H 1220.93 2.19337 2.02321 0
M  V30 12878 C 1219.68 0.993362 3.33208 0
M  V30 12879 H 1219 1.83104 3.55405 0
M  V30 12880 H 1220.44 0.965517 4.1286 0
M  V30 12881 C 1218.9 -0.303701 3.35528 0
M  V30 12882 O 1219.43 -1.3103 3.79729 0
M  V30 12883 N 1217.63 -0.331342 2.88705 0
M  V30 12884 H 1217.18 0.488351 2.52929 0
M  V30 12885 H 1217.14 -1.199 2.9064 0
M  V30 12886 N 1220.91 -1.05686 1.16912 0
M  V30 12887 C 1221.86 -2.13312 0.88129 0
M  V30 12888 C 1222.83 -1.65199 -0.172783 0
M  V30 12889 O 1224.01 -1.90765 -0.0366542 0
M  V30 12890 C 1221.15 -3.42829 0.395264 0
M  V30 12891 C 1220.27 -4.04643 1.51288 0
M  V30 12892 C 1219.4 -5.22059 0.981238 0
M  V30 12893 C 1218.44 -5.75869 2.07464 0
M  V30 12894 N 1217.58 -6.84592 1.55813 0
M  V30 12895 H 1222.42 -2.37271 1.80295 0
M  V30 12896 H 1219.95 -1.16407 0.899322 0
M  V30 12897 H 1221.91 -4.17092 0.0950633 0
M  V30 12898 H 1220.54 -3.19068 -0.489445 0
M  V30 12899 H 1219.59 -3.27867 1.92891 0
M  V30 12900 H 1220.91 -4.40626 2.33774 0
M  V30 12901 H 1220.06 -6.03372 0.634586 0
M  V30 12902 H 1218.8 -4.87538 0.125754 0
M  V30 12903 H 1217.8 -4.93188 2.42992 0
M  V30 12904 H 1219.03 -6.12439 2.93419 0
M  V30 12905 H 1216.97 -6.51978 0.725283 0
M  V30 12906 H 1216.89 -7.19551 2.31911 0
M  V30 12907 H 1218.16 -7.6957 1.24025 0
M  V30 12908 N 1222.39 -0.968567 -1.24324 0
M  V30 12909 C 1223.34 -0.470481 -2.23093 0
M  V30 12910 C 1224.32 0.447989 -1.54538 0
M  V30 12911 O 1225.51 0.27877 -1.74791 0
M  V30 12912 C 1222.64 0.237222 -3.42479 0
M  V30 12913 C 1221.73 -0.700126 -4.18281 0
M  V30 12914 N 1222.12 -1.83775 -4.71233 0
M  V30 12915 C 1220.42 -0.51108 -4.43062 0
M  V30 12916 C 1221.12 -2.42411 -5.28783 0
M  V30 12917 N 1220.1 -1.70918 -5.16031 0
M  V30 12918 H 1223.9 -1.33848 -2.61652 0
M  V30 12919 H 1221.41 -0.827764 -1.39721 0
M  V30 12920 H 1223.41 0.61128 -4.12394 0
M  V30 12921 H 1222.07 1.10166 -3.0544 0
M  V30 12922 H 1223.08 -2.21926 -4.67942 0
M  V30 12923 H 1219.76 0.309316 -4.16353 0
M  V30 12924 H 1221.15 -3.38417 -5.80451 0
M  V30 12925 N 1223.87 1.39211 -0.738786 0
M  V30 12926 C 1225.11 2.0004 -0.28782 0
M  V30 12927 C 1225.44 1.58921 1.13 0
M  V30 12928 O 1224.71 0.839193 1.77015 0
M  V30 12929 H 1223.29 0.739805 -0.103425 0
M  V30 12930 H 1225.95 1.70202 -0.949587 0
M  V30 12931 H 1225.04 3.10251 -0.339208 0
M  V30 12932 N 1225.34 0.486708 1.49896 0
M  V30 12933 C 1226.76 0.141788 1.58969 0
M  V30 12934 C 1226.96 -1.35279 1.49338 0
M  V30 12935 O 1226.02 -2.1275 1.35992 0
M  V30 12936 C 1227.33 0.70588 2.92297 0
M  V30 12937 C 1228.88 0.670704 3.0573 0
M  V30 12938 C 1229.35 1.21261 4.41656 0
M  V30 12939 N 1230.84 1.17269 4.4811 0
M  V30 12940 C 1231.58 1.56233 5.51705 0
M  V30 12941 N 1231.07 2.02721 6.62477 0
M  V30 12942 N 1232.87 1.47738 5.42337 0
M  V30 12943 H 1225.02 1.45858 1.544 0
M  V30 12944 H 1227.28 0.604137 0.730563 0
M  V30 12945 H 1226.99 1.7535 3.04869 0
M  V30 12946 H 1226.86 0.158215 3.76868 0
M  V30 12947 H 1229.25 -0.368041 2.92796 0
M  V30 12948 H 1229.33 1.25535 2.22878 0
M  V30 12949 H 1228.97 2.25006 4.5534 0
M  V30 12950 H 1228.9 0.604031 5.23124 0
M  V30 12951 H 1231.39 0.831905 3.6863 0
M  V30 12952 H 1231.71 2.3056 7.37606 0
M  V30 12953 H 1230.05 2.06686 6.63556 0
M  V30 12954 H 1233.24 1.11249 4.54688 0
M  V30 12955 H 1233.42 1.78429 6.2295 0
M  V30 12956 N 1226.82 -1.56058 0.219941 0
M  V30 12957 C 1227.79 -2.18964 -0.677303 0
M  V30 12958 C 1228.79 -1.15105 -1.12283 0
M  V30 12959 O 1229.98 -1.40348 -1.03189 0
M  V30 12960 C 1227.11 -2.81167 -1.92764 0
M  V30 12961 H 1228.3 -2.99623 -0.128877 0
M  V30 12962 H 1225.85 -1.56272 -0.0296744 0
M  V30 12963 H 1226.59 -2.04374 -2.51797 0
M  V30 12964 H 1226.37 -3.5722 -1.61666 0
M  V30 12965 H 1227.86 -3.29391 -2.56693 0
M  V30 12966 N 1228.3 0.053464 -1.57509 0
M  V30 12967 C 1229.55 0.750212 -1.88414 0
M  V30 12968 C 1229.88 1.76288 -0.814619 0
M  V30 12969 O 1229.16 1.93728 0.173136 0
M  V30 12970 C 1229.44 1.44176 -3.29978 0
M  V30 12971 C 1229.29 0.444263 -4.47601 0
M  V30 12972 C 1230.61 2.38207 -3.70061 0
M  V30 12973 H 1227.73 0.271266 -0.685262 0
M  V30 12974 H 1230.37 0.0131676 -1.89995 0
M  V30 12975 H 1228.52 2.07001 -3.2876 0
M  V30 12976 H 1230.19 -0.180182 -4.60948 0
M  V30 12977 H 1228.44 -0.238771 -4.33142 0
M  V30 12978 H 1229.11 0.966134 -5.43479 0
M  V30 12979 H 1231.58 1.85446 -3.7249 0
M  V30 12980 H 1230.46 2.83588 -4.69967 0
M  V30 12981 H 1230.72 3.23821 -3.00985 0
M  V30 12982 N 1229.78 1.54207 0.325255 0
M  V30 12983 C 1231.2 1.44879 0.669492 0
M  V30 12984 C 1231.4 0.620298 1.91715 0
M  V30 12985 O 1230.45 0.118435 2.52222 0
M  V30 12986 C 1231.76 2.88581 0.845077 0
M  V30 12987 C 1233.31 2.98472 0.942527 0
M  V30 12988 C 1233.79 4.4332 1.15029 0
M  V30 12989 N 1235.28 4.46925 1.21707 0
M  V30 12990 C 1236.01 5.56155 1.39568 0
M  V30 12991 N 1235.51 6.75357 1.54483 0
M  V30 12992 N 1237.3 5.43799 1.42263 0
M  V30 12993 H 1229.45 2.06556 -0.494819 0
M  V30 12994 H 1231.72 0.934474 -0.159568 0
M  V30 12995 H 1231.42 3.517 -0.000442996 0
M  V30 12996 H 1231.3 3.34596 1.74141 0
M  V30 12997 H 1233.68 2.35481 1.77855 0
M  V30 12998 H 1233.76 2.5579 0.0226995 0
M  V30 12999 H 1233.41 5.06896 0.319127 0
M  V30 13000 H 1233.34 4.8361 2.08397 0
M  V30 13001 H 1235.83 3.61036 1.11632 0
M  V30 13002 H 1236.14 7.54363 1.67799 0
M  V30 13003 H 1234.49 6.78268 1.51584 0
M  V30 13004 H 1237.68 4.49627 1.30205 0
M  V30 13005 H 1237.85 6.28982 1.5584 0
M  V30 13006 N 1231.26 -0.58723 1.46251 0
M  V30 13007 C 1232.5 -1.3567 1.52882 0
M  V30 13008 C 1232.86 -1.91206 0.174438 0
M  V30 13009 O 1234.06 -2.68552 0.115491 0
M  V30 13010 C 1232.33 -2.45914 2.59347 0
M  V30 13011 S 1233.89 -3.33347 2.85351 0
M  V30 13012 H 1230.71 -0.462276 0.540205 0
M  V30 13013 H 1233.31 -0.675537 1.83458 0
M  V30 13014 H 1232.02 -2.03498 3.56394 0
M  V30 13015 H 1231.55 -3.18807 2.30489 0
M  V30 13016 H 1233.56 -4.44626 2.20278 0
M  V30 13017 N 1232.74 -1.33881 -0.831482 0
M  V30 13018 C 1233.98 -1.25942 -1.58955 0
M  V30 13019 C 1234.31 0.172542 -1.93432 0
M  V30 13020 O 1233.59 1.11577 -1.59314 0
M  V30 13021 C 1233.87 -2.14193 -2.89471 0
M  V30 13022 C 1233.73 -3.65883 -2.61628 0
M  V30 13023 C 1235.04 -2.02071 -3.90967 0
M  V30 13024 H 1232.16 -0.458841 -0.576744 0
M  V30 13025 H 1234.81 -1.64052 -0.958482 0
M  V30 13026 H 1232.96 -1.81821 -3.43327 0
M  V30 13027 H 1234.63 -4.08581 -2.14148 0
M  V30 13028 H 1232.87 -3.87397 -1.95208 0
M  V30 13029 H 1233.54 -4.22988 -3.54662 0
M  V30 13030 H 1236.02 -2.30476 -3.46439 0
M  V30 13031 H 1234.89 -2.66059 -4.80108 0
M  V30 13032 H 1235.15 -0.995121 -4.30755 0
M  V30 13033 N 1234.21 1.05064 -1.1747 0
M  V30 13034 C 1235.14 2.14786 -0.915936 0
M  V30 13035 C 1236.12 1.69502 0.142561 0
M  V30 13036 O 1237.31 1.94198 -0.00794522 0
M  V30 13037 C 1234.44 3.44629 -0.429864 0
M  V30 13038 C 1233.39 4.03486 -1.42769 0
M  V30 13039 C 1232.72 5.28689 -0.799528 0
M  V30 13040 C 1234.02 4.40823 -2.80129 0
M  V30 13041 H 1235.71 2.3669 -1.83352 0
M  V30 13042 H 1233.26 1.13751 -0.882992 0
M  V30 13043 H 1235.21 4.20737 -0.236245 0
M  V30 13044 H 1233.94 3.22381 0.523263 0
M  V30 13045 H 1232.6 3.29449 -1.60808 0
M  V30 13046 H 1232.24 5.02744 0.160474 0
M  V30 13047 H 1231.94 5.69028 -1.46565 0
M  V30 13048 H 1233.47 6.07483 -0.616212 0
M  V30 13049 H 1234.88 5.07959 -2.65801 0
M  V30 13050 H 1233.28 4.92183 -3.43331 0
M  V30 13051 H 1234.35 3.51108 -3.34441 0
M  V30 13052 N 1235.69 0.975146 1.23809 0
M  V30 13053 C 1236.6 0.51917 2.28783 0
M  V30 13054 C 1237.62 -0.423487 1.68768 0
M  V30 13055 O 1238.79 -0.294699 1.99232 0
M  V30 13056 C 1235.86 -0.176229 3.46252 0
M  V30 13057 C 1234.92 0.807177 4.21643 0
M  V30 13058 C 1234.15 0.144869 5.33503 0
M  V30 13059 O 1234.38 -1.06522 5.60365 0
M  V30 13060 O 1233.31 0.84079 5.95999 0
M  V30 13061 H 1237.14 1.39204 2.69919 0
M  V30 13062 H 1234.72 0.74253 1.29641 0
M  V30 13063 H 1236.6 -0.566547 4.17574 0
M  V30 13064 H 1235.28 -1.02394 3.07078 0
M  V30 13065 H 1234.18 1.2481 3.52666 0
M  V30 13066 H 1235.52 1.62354 4.64653 0
M  V30 13067 N 1237.17 -1.38817 0.746158 0
M  V30 13068 C 1238.59 -1.53894 0.42294 0
M  V30 13069 C 1238.79 -1.71064 -1.06486 0
M  V30 13070 O 1237.84 -1.71744 -1.85095 0
M  V30 13071 C 1239.15 -2.75029 1.2157 0
M  V30 13072 C 1240.7 -2.88873 1.20504 0
M  V30 13073 C 1241.18 -4.1296 1.9806 0
M  V30 13074 N 1242.67 -4.20022 1.95283 0
M  V30 13075 C 1243.4 -5.15011 2.52093 0
M  V30 13076 N 1242.9 -6.1572 3.17586 0
M  V30 13077 N 1244.69 -5.07308 2.42064 0
M  V30 13078 H 1236.84 -1.25921 1.71049 0
M  V30 13079 H 1239.11 -0.611148 0.724708 0
M  V30 13080 H 1238.81 -2.68722 2.26895 0
M  V30 13081 H 1238.69 -3.68009 0.827593 0
M  V30 13082 H 1241.07 -2.94667 0.159877 0
M  V30 13083 H 1241.15 -1.96925 1.63261 0
M  V30 13084 H 1240.8 -4.07929 3.02583 0
M  V30 13085 H 1240.73 -5.03974 1.52702 0
M  V30 13086 H 1243.22 -3.47892 1.4758 0
M  V30 13087 H 1243.53 -6.84682 3.58373 0
M  V30 13088 H 1241.88 -6.16075 3.21678 0
M  V30 13089 H 1245.07 -4.27569 1.90532 0
M  V30 13090 H 1245.24 -5.81158 2.86635 0
M  V30 13091 N 1238.65 -0.49465 -1.49636 0
M  V30 13092 C 1239.9 0.0520143 -2.02033 0
M  V30 13093 C 1240.22 1.38071 -1.37701 0
M  V30 13094 O 1239.49 1.88589 -0.530181 0
M  V30 13095 H 1238.07 0.0222123 -0.74667 0
M  V30 13096 H 1240.73 -0.650445 -1.83726 0
M  V30 13097 H 1239.82 0.186337 -3.11543 0
M  V30 13098 N 1240.13 1.55939 -0.228214 0
M  V30 13099 C 1241.04 2.24213 0.690339 0
M  V30 13100 C 1242.05 1.25197 1.20838 0
M  V30 13101 O 1243.23 1.58026 1.24859 0
M  V30 13102 C 1240.29 2.91384 1.87873 0
M  V30 13103 C 1239.35 4.05761 1.40201 0
M  V30 13104 C 1238.59 4.6972 2.53376 0
M  V30 13105 O 1238.81 4.32687 3.71669 0
M  V30 13106 O 1237.74 5.58587 2.24198 0
M  V30 13107 H 1241.57 3.03383 0.138692 0
M  V30 13108 H 1239.15 1.494 0.00251504 0
M  V30 13109 H 1241.04 3.33758 2.57262 0
M  V30 13110 H 1239.71 2.15168 2.41835 0
M  V30 13111 H 1238.62 3.67943 0.675945 0
M  V30 13112 H 1239.95 4.83739 0.908691 0
M  V30 13113 N 1241.6 -0.0451101 1.57535 0
M  V30 13114 C 1242.88 -0.773625 1.79651 0
M  V30 13115 C 1243.26 -1.94422 0.822391 0
M  V30 13116 O 1242.61 -2.28077 -0.138913 0
M  V30 13117 C 1242.82 -1.22168 3.26919 0
M  V30 13118 C 1244.17 -1.64419 3.91474 0
M  V30 13119 O 1245.19 -1.31668 3.30971 0
M  V30 13120 O 1244.05 -2.25148 4.97967 0
M  V30 13121 H 1241.14 -0.372786 0.738214 0
M  V30 13122 H 1243.69 -0.0231245 1.69684 0
M  V30 13123 H 1242.46 -0.385302 3.89398 0
M  V30 13124 H 1242.09 -2.03269 3.41713 0
M  V30 13125 N 1243.08 -1.54377 -0.317073 0
M  V30 13126 C 1244.02 -1.7907 -1.41453 0
M  V30 13127 C 1244.99 -0.641012 -1.49432 0
M  V30 13128 O 1246.18 -0.879179 -1.66741 0
M  V30 13129 C 1243.3 -1.91307 -2.79498 0
M  V30 13130 C 1242.35 -3.13639 -2.8902 0
M  V30 13131 S 1243.18 -4.72093 -2.52762 0
M  V30 13132 C 1244.34 -4.87245 -3.92866 0
M  V30 13133 H 1244.57 -2.71875 -1.20296 0
M  V30 13134 H 1242.11 -1.45583 -0.514279 0
M  V30 13135 H 1244.06 -1.99043 -3.59015 0
M  V30 13136 H 1242.72 -0.994687 -2.97934 0
M  V30 13137 H 1241.92 -3.18955 -3.90235 0
M  V30 13138 H 1241.52 -3.04266 -2.17481 0
M  V30 13139 H 1243.81 -4.7028 -4.87691 0
M  V30 13140 H 1244.75 -5.89344 -3.92529 0
M  V30 13141 H 1245.16 -4.15504 -3.82122 0
M  V30 13142 N 1244.56 0.579466 -1.4656 0
M  V30 13143 C 1245.49 1.69846 -1.60233 0
M  V30 13144 C 1246.47 1.6397 -0.452533 0
M  V30 13145 O 1247.66 1.81936 -0.679174 0
M  V30 13146 C 1244.79 3.08488 -1.59538 0
M  V30 13147 C 1243.74 3.29197 -2.7352 0
M  V30 13148 C 1243.07 4.684 -2.57887 0
M  V30 13149 C 1244.37 3.16718 -4.15315 0
M  V30 13150 H 1246.06 1.5866 -2.53904 0
M  V30 13151 H 1243.61 0.761873 -1.22194 0
M  V30 13152 H 1245.56 3.86595 -1.67696 0
M  V30 13153 H 1244.28 3.20581 -0.62413 0
M  V30 13154 H 1242.94 2.53491 -2.64836 0
M  V30 13155 H 1242.59 4.77262 -1.58839 0
M  V30 13156 H 1242.29 4.83208 -3.34341 0
M  V30 13157 H 1243.81 5.48671 -2.67942 0
M  V30 13158 H 1245.23 3.84666 -4.25094 0
M  V30 13159 H 1243.63 3.43047 -4.92381 0
M  V30 13160 H 1244.7 2.13755 -4.35244 0
M  V30 13161 N 1246.04 1.3432 0.824371 0
M  V30 13162 C 1247.29 1.25938 1.57552 0
M  V30 13163 C 1247.6 -0.169298 1.94866 0
M  V30 13164 O 1248.81 -0.375262 2.68894 0
M  V30 13165 C 1247.26 2.20757 2.84244 0
M  V30 13166 C 1246.87 3.68873 2.54237 0
M  V30 13167 C 1248.61 2.21279 3.62265 0
M  V30 13168 C 1246.52 4.55566 3.77113 0
M  V30 13169 H 1245.45 0.467832 0.591311 0
M  V30 13170 H 1248.1 1.59476 0.907724 0
M  V30 13171 H 1246.48 1.80168 3.52641 0
M  V30 13172 H 1247.66 4.17991 1.93959 0
M  V30 13173 H 1245.97 3.70784 1.89494 0
M  V30 13174 H 1248.57 2.83272 4.53499 0
M  V30 13175 H 1248.91 1.2117 3.98276 0
M  V30 13176 H 1249.45 2.60305 3.00809 0
M  V30 13177 H 1246.19 5.56605 3.46223 0
M  V30 13178 H 1245.71 4.11184 4.36678 0
M  V30 13179 H 1247.38 4.701 4.44539 0
M  V30 13180 N 1247.52 -1.0444 1.18026 0
M  V30 13181 C 1248.74 -1.81234 0.998089 0
M  V30 13182 C 1249.16 -1.83271 -0.453559 0
M  V30 13183 O 1248.52 -1.26545 -1.31502 0
M  V30 13184 C 1248.57 -3.27007 1.54106 0
M  V30 13185 O 1248.29 -3.25174 2.93587 0
M  V30 13186 C 1249.79 -4.20461 1.40455 0
M  V30 13187 H 1247.01 -0.57085 0.352663 0
M  V30 13188 H 1249.55 -1.31649 1.56489 0
M  V30 13189 H 1247.71 -3.73837 1.01611 0
M  V30 13190 H 1248.12 -4.16466 3.18836 0
M  V30 13191 H 1249.6 -5.20695 1.83249 0
M  V30 13192 H 1250.07 -4.37781 0.352713 0
M  V30 13193 H 1250.68 -3.79493 1.92004 0
M  V30 13194 N 1248.99 -0.981699 -1.2329 0
M  V30 13195 C 1250.24 -0.650015 -1.91361 0
M  V30 13196 C 1250.56 0.819184 -1.76959 0
M  V30 13197 O 1249.83 1.5861 -1.14977 0
M  V30 13198 H 1248.41 -0.237427 -0.708264 0
M  V30 13199 H 1251.08 -1.24579 -1.49887 0
M  V30 13200 H 1250.17 -0.902772 -2.98758 0
M  V30 13201 N 1250.47 1.3842 -0.753509 0
M  V30 13202 C 1251.72 1.99723 -0.309021 0
M  V30 13203 C 1252.04 1.60111 1.11308 0
M  V30 13204 O 1251.31 0.85792 1.76115 0
M  V30 13205 H 1249.89 0.738667 -0.111266 0
M  V30 13206 H 1252.55 1.69186 -0.967586 0
M  V30 13207 H 1251.65 3.09874 -0.372095 0
M  V30 13208 N 1251.95 0.502579 1.49372 0
M  V30 13209 C 1253.37 0.158641 1.5881 0
M  V30 13210 C 1253.57 -1.33688 1.50764 0
M  V30 13211 O 1252.62 -2.11295 1.38241 0
M  V30 13212 C 1253.94 0.736843 2.91532 0
M  V30 13213 C 1255.48 0.703093 3.05001 0
M  V30 13214 C 1255.96 1.25938 4.40345 0
M  V30 13215 N 1257.45 1.22015 4.46841 0
M  V30 13216 C 1258.18 1.62076 5.50017 0
M  V30 13217 N 1257.68 2.09736 6.6029 0
M  V30 13218 N 1259.47 1.53482 5.4074 0
M  V30 13219 H 1251.62 1.47487 1.52844 0
M  V30 13220 H 1253.89 0.611851 0.724115 0
M  V30 13221 H 1253.59 1.78573 3.02992 0
M  V30 13222 H 1253.47 0.198178 3.76679 0
M  V30 13223 H 1255.85 -0.336965 2.9317 0
M  V30 13224 H 1255.94 1.27892 2.21534 0
M  V30 13225 H 1255.58 2.29823 4.52928 0
M  V30 13226 H 1255.51 0.659481 5.22454 0
M  V30 13227 H 1258 0.870957 3.67726 0
M  V30 13228 H 1258.31 2.3837 7.35119 0
M  V30 13229 H 1256.66 2.13712 6.61326 0
M  V30 13230 H 1259.85 1.16065 4.53483 0
M  V30 13231 H 1260.02 1.85026 6.21023 0
M  V30 13232 N 1253.43 -1.55816 0.23648 0
M  V30 13233 C 1254.38 -2.17588 -0.681145 0
M  V30 13234 C 1255.36 -1.12862 -1.14678 0
M  V30 13235 O 1256.55 -1.38805 -1.09829 0
M  V30 13236 C 1253.68 -2.87086 -1.88246 0
M  V30 13237 C 1252.77 -3.99056 -1.43581 0
M  V30 13238 N 1253.16 -5.00895 -0.702704 0
M  V30 13239 C 1251.46 -4.11419 -1.72192 0
M  V30 13240 C 1252.16 -5.79775 -0.472866 0
M  V30 13241 N 1251.14 -5.33675 -1.034 0
M  V30 13242 H 1254.94 -2.93684 -0.112772 0
M  V30 13243 H 1252.45 -1.62355 0.0383551 0
M  V30 13244 H 1254.45 -3.29761 -2.55075 0
M  V30 13245 H 1253.11 -2.1249 -2.45516 0
M  V30 13246 H 1254.12 -5.1669 -0.353865 0
M  V30 13247 H 1250.8 -3.47987 -2.30676 0
M  V30 13248 H 1252.19 -6.71807 0.111664 0
M  V30 13249 N 1254.91 0.036755 -1.57557 0
M  V30 13250 C 1256.32 0.584324 -1.7732 0
M  V30 13251 C 1256.67 1.76025 -0.86658 0
M  V30 13252 O 1255.79 2.16318 -0.059443 0
M  V30 13253 C 1256.39 1.06679 -3.21566 0
M  V30 13254 C 1254.95 1.55994 -3.42553 0
M  V30 13255 C 1254.09 0.494604 -2.72853 0
M  V30 13256 H 1257.05 -0.189473 -1.57565 0
M  V30 13257 H 1257.07 1.93446 -3.27657 0
M  V30 13258 H 1256.58 0.210727 -3.87527 0
M  V30 13259 H 1254.68 2.43811 -2.81757 0
M  V30 13260 H 1254.79 1.61274 -4.5114 0
M  V30 13261 H 1253.16 0.947865 -2.36406 0
M  V30 13262 H 1253.94 -0.351868 -3.41492 0
M  V30 13263 N 1256.39 1.54543 0.308881 0
M  V30 13264 C 1257.62 1.77174 1.06268 0
M  V30 13265 C 1258.02 0.527461 1.81699 0
M  V30 13266 O 1257.37 -0.512027 1.7642 0
M  V30 13267 C 1257.43 2.92115 2.09545 0
M  V30 13268 C 1257.09 4.30492 1.5338 0
M  V30 13269 C 1258.09 5.1081 0.967923 0
M  V30 13270 C 1255.77 4.77074 1.5718 0
M  V30 13271 C 1257.77 6.35827 0.447517 0
M  V30 13272 C 1255.46 6.02055 1.04753 0
M  V30 13273 C 1256.45 6.81266 0.486345 0
M  V30 13274 O 1256.14 8.03894 -0.0300055 0
M  V30 13275 H 1255.87 0.594773 0.321281 0
M  V30 13276 H 1258.43 2.02289 0.356136 0
M  V30 13277 H 1256.66 2.62606 2.83857 0
M  V30 13278 H 1258.35 3.02394 2.70763 0
M  V30 13279 H 1259.11 4.7597 0.931523 0
M  V30 13280 H 1254.99 4.15453 1.998 0
M  V30 13281 H 1258.54 6.97599 0.00884212 0
M  V30 13282 H 1254.43 6.36383 1.08105 0
M  V30 13283 H 1255.2 8.18457 0.0840381 0
M  V30 13284 N 1257.86 -0.571685 1.46866 0
M  V30 13285 C 1258.79 -1.68994 1.61131 0
M  V30 13286 C 1259.77 -1.63728 0.461222 0
M  V30 13287 O 1260.96 -1.81574 0.688813 0
M  V30 13288 C 1258.09 -3.07638 1.61172 0
M  V30 13289 C 1257.04 -3.27742 2.75262 0
M  V30 13290 C 1256.37 -4.67025 2.60368 0
M  V30 13291 C 1257.67 -3.14511 4.16989 0
M  V30 13292 H 1259.36 -1.57311 2.54742 0
M  V30 13293 H 1256.91 -0.755382 1.22597 0
M  V30 13294 H 1258.86 -3.857 1.69744 0
M  V30 13295 H 1257.59 -3.20245 0.641122 0
M  V30 13296 H 1256.25 -2.52083 2.66176 0
M  V30 13297 H 1255.89 -4.76413 1.61368 0
M  V30 13298 H 1255.59 -4.81428 3.36899 0
M  V30 13299 H 1257.12 -5.47242 2.70848 0
M  V30 13300 H 1258.53 -3.82407 4.27128 0
M  V30 13301 H 1256.93 -3.40431 4.94193 0
M  V30 13302 H 1258 -2.11443 4.36371 0
M  V30 13303 N 1259.34 -1.34755 -0.817236 0
M  V30 13304 C 1260.59 -1.2718 -1.57066 0
M  V30 13305 C 1260.91 0.156531 -1.94371 0
M  V30 13306 O 1260.18 1.09049 -1.62742 0
M  V30 13307 H 1258.76 -0.467755 -0.582421 0
M  V30 13308 H 1261.42 -1.68734 -0.975438 0
M  V30 13309 H 1260.52 -1.88043 -2.49091 0
M  V30 13310 N 1260.82 1.03812 -1.18578 0
M  V30 13311 C 1261.77 2.11883 -0.915115 0
M  V30 13312 C 1262.74 1.65453 0.146479 0
M  V30 13313 O 1263.92 1.90799 0.00630058 0
M  V30 13314 C 1261.06 3.42157 -0.449755 0
M  V30 13315 C 1260.17 4.02185 -1.57706 0
M  V30 13316 C 1259.31 5.20431 -1.06417 0
M  V30 13317 C 1258.35 5.72496 -2.16599 0
M  V30 13318 N 1257.49 6.82027 -1.66685 0
M  V30 13319 H 1262.33 2.34373 -1.84047 0
M  V30 13320 H 1259.86 1.14962 -0.917728 0
M  V30 13321 H 1261.82 4.16888 -0.161407 0
M  V30 13322 H 1260.45 3.19806 0.438622 0
M  V30 13323 H 1259.5 3.24757 -1.98083 0
M  V30 13324 H 1260.81 4.36851 -2.40754 0
M  V30 13325 H 1259.97 6.02286 -0.730497 0
M  V30 13326 H 1258.71 4.87276 -0.203301 0
M  V30 13327 H 1257.71 4.8926 -2.50808 0
M  V30 13328 H 1258.94 6.07694 -3.03126 0
M  V30 13329 H 1256.88 6.50742 -0.828916 0
M  V30 13330 H 1256.8 7.1577 -2.43329 0
M  V30 13331 H 1258.07 7.67499 -1.36253 0
M  V30 13332 N 1262.3 0.988223 1.22768 0
M  V30 13333 C 1263.53 0.678757 1.95132 0
M  V30 13334 C 1263.94 -0.759797 1.73274 0
M  V30 13335 O 1263.28 -1.52383 1.02592 0
M  V30 13336 C 1263.34 0.899007 3.48078 0
M  V30 13337 C 1263 2.32114 3.93665 0
M  V30 13338 C 1264 3.30034 4.01713 0
M  V30 13339 C 1261.69 2.65432 4.2644 0
M  V30 13340 C 1263.68 4.59349 4.41902 0
M  V30 13341 C 1261.37 3.94967 4.66309 0
M  V30 13342 C 1262.37 4.91737 4.74008 0
M  V30 13343 O 1262.05 6.18958 5.12977 0
M  V30 13344 H 1261.79 0.250588 0.627839 0
M  V30 13345 H 1264.34 1.32441 1.56999 0
M  V30 13346 H 1262.57 0.196182 3.86202 0
M  V30 13347 H 1264.26 0.585507 4.01655 0
M  V30 13348 H 1265.02 3.05626 3.76587 0
M  V30 13349 H 1260.9 1.90816 4.19655 0
M  V30 13350 H 1264.45 5.34881 4.47826 0
M  V30 13351 H 1260.34 4.19168 4.90886 0
M  V30 13352 H 1261.11 6.22826 5.31065 0
M  V30 13353 N 1263.78 -1.38018 0.760839 0
M  V30 13354 C 1264.72 -2.30387 0.13796 0
M  V30 13355 C 1265.69 -1.50548 -0.701754 0
M  V30 13356 O 1266.88 -1.79154 -0.656381 0
M  V30 13357 C 1264.02 -3.36993 -0.743642 0
M  V30 13358 C 1263.13 -4.31856 0.111489 0
M  V30 13359 C 1262.27 -5.25534 -0.773796 0
M  V30 13360 C 1261.3 -6.12042 0.0845311 0
M  V30 13361 N 1260.44 -6.97995 -0.758118 0
M  V30 13362 H 1265.28 -2.83077 0.931212 0
M  V30 13363 H 1262.82 -1.39361 0.470833 0
M  V30 13364 H 1264.78 -3.97417 -1.26948 0
M  V30 13365 H 1263.41 -2.85695 -1.50261 0
M  V30 13366 H 1262.46 -3.72832 0.755031 0
M  V30 13367 H 1263.77 -4.92758 0.774042 0
M  V30 13368 H 1262.92 -5.9111 -1.36653 0
M  V30 13369 H 1261.66 -4.65017 -1.47006 0
M  V30 13370 H 1260.67 -5.45455 0.689883 0
M  V30 13371 H 1261.89 -6.74629 0.777966 0
M  V30 13372 H 1259.84 -6.40018 -1.4392 0
M  V30 13373 H 1259.76 -7.55846 -0.152623 0
M  V30 13374 H 1261.02 -7.67973 -1.33559 0
M  V30 13375 N 1265.25 -0.510493 -1.49103 0
M  V30 13376 C 1266.22 0.251915 -2.27811 0
M  V30 13377 C 1267.22 0.885432 -1.34226 0
M  V30 13378 O 1268.41 0.748494 -1.573 0
M  V30 13379 C 1265.54 1.3624 -3.12492 0
M  V30 13380 H 1266.73 -0.438872 -2.96671 0
M  V30 13381 H 1264.28 -0.265767 -1.54024 0
M  V30 13382 H 1265.02 2.08705 -2.48219 0
M  V30 13383 H 1264.8 0.913485 -3.81311 0
M  V30 13384 H 1266.29 1.89919 -3.71915 0
M  V30 13385 N 1266.73 1.55688 -0.24474 0
M  V30 13386 C 1267.98 1.98498 0.379852 0
M  V30 13387 C 1268.3 1.13416 1.58625 0
M  V30 13388 O 1267.57 0.216456 1.947 0
M  V30 13389 H 1266.15 0.73312 0.143334 0
M  V30 13390 H 1268.81 1.91858 -0.343027 0
M  V30 13391 H 1267.91 3.04367 0.690463 0
M  V30 13392 N 1268.21 -0.0283989 1.57574 0
M  V30 13393 C 1269.46 -0.719077 1.89303 0
M  V30 13394 C 1269.78 -1.75325 0.84211 0
M  V30 13395 O 1269.04 -1.95071 -0.15683 0
M  V30 13396 C 1269.34 -1.4247 3.27776 0
M  V30 13397 C 1269 -0.526442 4.47816 0
M  V30 13398 C 1267.67 -0.279038 4.8039 0
M  V30 13399 C 1270.02 0.0937038 5.21116 0
M  V30 13400 C 1267.35 0.597277 5.83652 0
M  V30 13401 C 1269.7 0.957725 6.25308 0
M  V30 13402 C 1268.36 1.21458 6.56357 0
M  V30 13403 H 1267.63 -0.263129 0.692708 0
M  V30 13404 H 1270.28 0.0210252 1.91488 0
M  V30 13405 H 1268.58 -2.23813 3.21582 0
M  V30 13406 H 1270.28 -1.96466 3.49574 0
M  V30 13407 H 1266.87 -0.729426 4.22347 0
M  V30 13408 H 1271.06 -0.084469 4.96228 0
M  V30 13409 H 1266.31 0.804582 6.06083 0
M  V30 13410 H 1270.49 1.44476 6.81249 0
M  V30 13411 H 1268.11 1.89534 7.36193 0
M  V30 13412 N 1269.69 -1.54705 -0.300681 0
M  V30 13413 C 1270.62 -1.80561 -1.39546 0
M  V30 13414 C 1271.6 -0.656825 -1.48743 0
M  V30 13415 O 1272.78 -0.896815 -1.658 0
M  V30 13416 C 1269.91 -1.94261 -2.77453 0
M  V30 13417 C 1268.96 -3.16687 -2.85678 0
M  V30 13418 S 1269.79 -4.74747 -2.47741 0
M  V30 13419 C 1270.94 -4.91384 -3.87676 0
M  V30 13420 H 1271.18 -2.73136 -1.17405 0
M  V30 13421 H 1268.71 -1.46121 -0.498809 0
M  V30 13422 H 1270.67 -2.0284 -3.56884 0
M  V30 13423 H 1269.33 -1.02623 -2.96862 0
M  V30 13424 H 1268.52 -3.23076 -3.8683 0
M  V30 13425 H 1268.12 -3.06556 -2.14241 0
M  V30 13426 H 1270.42 -4.75427 -4.82676 0
M  V30 13427 H 1271.36 -5.93475 -3.86256 0
M  V30 13428 H 1271.77 -4.19533 -3.77693 0
M  V30 13429 N 1271.17 0.563888 -1.47167 0
M  V30 13430 C 1272.11 1.69254 -1.59549 0
M  V30 13431 C 1273.11 1.62948 -0.463078 0
M  V30 13432 O 1274.31 1.68214 -0.640639 0
M  V30 13433 H 1270.69 0.559925 -0.501984 0
M  V30 13434 H 1272.66 1.55946 -2.54408 0
M  V30 13435 C 1271.41 3.0762 -1.62066 0
M  V30 13436 H 1270.73 3.13151 -2.48549 0
M  V30 13437 H 1272.17 3.863 -1.74781 0
M  V30 13438 C 1270.63 3.35048 -0.352721 0
M  V30 13439 O 1271.16 3.9793 0.549053 0
M  V30 13440 N 1269.37 2.8965 -0.234805 0
M  V30 13441 H 1268.91 2.38657 -0.969561 0
M  V30 13442 H 1268.87 3.08373 0.61263 0
M  V30 13443 N 1272.64 1.35187 0.810078 0
M  V30 13444 C 1273.92 1.18832 1.55365 0
M  V30 13445 C 1274.3 -0.233956 2.098 0
M  V30 13446 O 1273.65 -1.23701 1.92121 0
M  V30 13447 C 1273.86 2.25351 2.66492 0
M  V30 13448 C 1275.21 2.60981 3.34924 0
M  V30 13449 O 1276.23 2.24238 2.7676 0
M  V30 13450 O 1275.09 3.24147 4.3999 0
M  V30 13451 H 1272.18 0.461446 0.686292 0
M  V30 13452 H 1274.73 1.46858 0.850341 0
M  V30 13453 H 1273.5 3.20762 2.24115 0
M  V30 13454 H 1273.13 1.98575 3.44462 0
M  V30 13455 N 1274.12 -1.03182 1.19127 0
M  V30 13456 C 1275.37 -1.76184 0.990134 0
M  V30 13457 C 1275.69 -1.88986 -0.480546 0
M  V30 13458 O 1274.96 -1.4213 -1.34817 0
M  V30 13459 H 1273.54 -0.652668 0.363364 0
M  V30 13460 H 1276.2 -1.24481 1.49968 0
M  V30 13461 H 1275.3 -2.77119 1.43568 0
M  V30 13462 N 1275.6 -0.99472 -1.22242 0
M  V30 13463 C 1277.02 -0.705762 -1.43147 0
M  V30 13464 C 1277.22 0.722908 -1.88086 0
M  V30 13465 O 1276.27 1.49359 -2.03588 0
M  V30 13466 C 1277.59 -1.71288 -2.47145 0
M  V30 13467 C 1279.13 -1.72853 -2.60942 0
M  V30 13468 C 1279.61 -2.72433 -3.68163 0
M  V30 13469 N 1281.1 -2.71039 -3.75623 0
M  V30 13470 C 1281.83 -3.44753 -4.58184 0
M  V30 13471 N 1281.33 -4.28075 -5.44724 0
M  V30 13472 N 1283.12 -3.33451 -4.52512 0
M  V30 13473 H 1275.27 -1.91738 -0.913792 0
M  V30 13474 H 1277.54 -0.82702 -0.463403 0
M  V30 13475 H 1277.24 -2.7353 -2.21075 0
M  V30 13476 H 1277.12 -1.50721 -3.45779 0
M  V30 13477 H 1279.5 -0.713085 -2.86355 0
M  V30 13478 H 1279.59 -1.9749 -1.62577 0
M  V30 13479 H 1279.23 -3.74129 -3.43497 0
M  V30 13480 H 1279.16 -2.45066 -4.66101 0
M  V30 13481 H 1281.65 -2.10581 -3.1379 0
M  V30 13482 H 1281.96 -4.81143 -6.04749 0
M  V30 13483 H 1280.31 -4.32161 -5.44299 0
M  V30 13484 H 1283.5 -2.67797 -3.8393 0
M  V30 13485 H 1283.67 -3.91158 -5.16623 0
M  V30 13486 N 1277.08 1.37613 -0.768148 0
M  V30 13487 C 1278.33 1.99023 -0.327543 0
M  V30 13488 C 1278.64 1.61669 1.10103 0
M  V30 13489 O 1279.85 2.16155 1.64284 0
M  V30 13490 C 1278.3 3.55906 -0.534674 0
M  V30 13491 C 1277.91 4.02201 -1.97327 0
M  V30 13492 C 1279.65 4.24208 -0.157512 0
M  V30 13493 C 1277.56 5.51781 -2.12819 0
M  V30 13494 H 1276.49 0.744595 -0.118722 0
M  V30 13495 H 1279.14 1.5719 -0.946764 0
M  V30 13496 H 1277.52 3.95701 0.153951 0
M  V30 13497 H 1278.7 3.73661 -2.69655 0
M  V30 13498 H 1277.01 3.46671 -2.30669 0
M  V30 13499 H 1279.61 5.34107 -0.251824 0
M  V30 13500 H 1279.95 4.06636 0.89177 0
M  V30 13501 H 1280.49 3.89703 -0.798546 0
M  V30 13502 H 1277.23 5.74274 -3.16053 0
M  V30 13503 H 1276.75 5.82017 -1.4497 0
M  V30 13504 H 1278.42 6.17697 -1.92508 0
M  V30 13505 N 1278.56 0.518393 1.4883 0
M  V30 13506 C 1279.49 -0.239685 2.32267 0
M  V30 13507 C 1280.47 -0.94613 1.41359 0
M  V30 13508 O 1281.65 -0.934162 1.70256 0
M  V30 13509 C 1278.78 -1.29411 3.22289 0
M  V30 13510 C 1277.74 -0.706504 4.22129 0
M  V30 13511 C 1277.06 -1.86273 5.01205 0
M  V30 13512 C 1278.36 0.314079 5.21355 0
M  V30 13513 H 1280.06 0.4568 2.95895 0
M  V30 13514 H 1277.6 0.221126 1.42292 0
M  V30 13515 H 1279.56 -1.8323 3.7948 0
M  V30 13516 H 1278.28 -2.02001 2.56638 0
M  V30 13517 H 1276.94 -0.189924 3.66108 0
M  V30 13518 H 1276.59 -2.57674 4.31988 0
M  V30 13519 H 1276.29 -1.47554 5.68772 0
M  V30 13520 H 1277.81 -2.40492 5.61245 0
M  V30 13521 H 1279.22 -0.136604 5.73137 0
M  V30 13522 H 1277.62 0.618026 5.96909 0
M  V30 13523 H 1278.69 1.22394 4.69199 0
M  V30 13524 N 1280.03 -1.55556 0.252993 0
M  V30 13525 C 1281 -2.20351 -0.630705 0
M  V30 13526 C 1282 -1.17461 -1.09816 0
M  V30 13527 O 1283.19 -1.42505 -1.00189 0
M  V30 13528 C 1280.32 -2.85192 -1.86757 0
M  V30 13529 H 1281.51 -2.99829 -0.0652939 0
M  V30 13530 H 1279.07 -1.563 0.00347982 0
M  V30 13531 H 1279.8 -2.09669 -2.47406 0
M  V30 13532 H 1279.59 -3.60569 -1.54053 0
M  V30 13533 H 1281.08 -3.34762 -2.49648 0
M  V30 13534 N 1281.51 0.0200419 -1.57587 0
M  V30 13535 C 1282.44 1.01715 -2.10181 0
M  V30 13536 C 1283.42 1.37136 -1.00636 0
M  V30 13537 O 1284.61 1.45862 -1.2821 0
M  V30 13538 C 1281.74 2.31531 -2.58865 0
M  V30 13539 C 1280.69 2.10327 -3.72755 0
M  V30 13540 C 1280.02 3.45981 -4.07678 0
M  V30 13541 C 1281.32 1.4821 -5.0083 0
M  V30 13542 H 1283.01 0.579307 -2.93742 0
M  V30 13543 H 1280.56 0.277211 -1.41307 0
M  V30 13544 H 1282.51 3.01623 -2.94281 0
M  V30 13545 H 1281.24 2.77392 -1.72399 0
M  V30 13546 H 1279.89 1.42665 -3.37701 0
M  V30 13547 H 1279.54 3.89508 -3.18265 0
M  V30 13548 H 1279.24 3.32616 -4.84397 0
M  V30 13549 H 1280.77 4.17421 -4.45637 0
M  V30 13550 H 1282.18 2.08232 -5.34146 0
M  V30 13551 H 1280.58 1.45393 -5.82221 0
M  V30 13552 H 1281.65 0.448942 -4.82817 0
M  V30 13553 N 1282.99 1.54862 0.292472 0
M  V30 13554 C 1284.27 1.65237 1.04671 0
M  V30 13555 C 1284.65 0.506168 2.04942 0
M  V30 13556 O 1284 -0.496123 2.23049 0
M  V30 13557 C 1284.21 3.03618 1.72095 0
M  V30 13558 C 1285.55 3.6072 2.23979 0
M  V30 13559 O 1286.58 3.06126 1.82114 0
M  V30 13560 O 1285.44 4.56328 3.0071 0
M  V30 13561 H 1282.53 0.670347 0.484319 0
M  V30 13562 H 1285.08 1.67206 0.28988 0
M  V30 13563 H 1283.85 3.78482 0.993324 0
M  V30 13564 H 1283.47 3.05464 2.54514 0
M  V30 13565 N 1284.47 -0.556076 1.47464 0
M  V30 13566 C 1285.4 -1.67872 1.54578 0
M  V30 13567 C 1286.38 -1.57658 0.397853 0
M  V30 13568 O 1287.56 -1.785 0.605811 0
M  V30 13569 C 1284.69 -3.06122 1.44937 0
M  V30 13570 C 1283.74 -3.34778 2.64246 0
M  V30 13571 S 1284.57 -3.23909 4.26431 0
M  V30 13572 C 1285.73 -4.64651 4.19345 0
M  V30 13573 H 1285.96 -1.61583 2.49556 0
M  V30 13574 H 1283.49 -0.736985 1.35676 0
M  V30 13575 H 1285.45 -3.85866 1.40062 0
M  V30 13576 H 1284.11 -3.09876 0.513412 0
M  V30 13577 H 1283.3 -4.35569 2.53567 0
M  V30 13578 H 1282.91 -2.62655 2.66248 0
M  V30 13579 H 1285.2 -5.55625 3.87669 0
M  V30 13580 H 1286.14 -4.80386 5.20225 0
M  V30 13581 H 1286.55 -4.42751 3.50189 0
M  V30 13582 N 1285.95 -1.35615 -0.802897 0
M  V30 13583 C 1286.86 -1.3096 -1.94645 0
M  V30 13584 C 1287.87 -0.213909 -1.7268 0
M  V30 13585 O 1289.05 -0.443932 -1.96446 0
M  V30 13586 C 1286.11 -1.08483 -3.2929 0
M  V30 13587 C 1285.18 -2.27401 -3.64126 0
M  V30 13588 C 1284.41 -2.05987 -4.92347 0
M  V30 13589 O 1284.63 -1.02819 -5.61057 0
M  V30 13590 O 1283.57 -2.93439 -5.25526 0
M  V30 13591 H 1287.39 -2.27209 -2.01519 0
M  V30 13592 H 1284.98 -1.16024 -0.941214 0
M  V30 13593 H 1286.86 -0.978118 -4.09891 0
M  V30 13594 H 1285.53 -0.152885 -3.23339 0
M  V30 13595 H 1284.44 -2.43638 -2.83886 0
M  V30 13596 H 1285.77 -3.19055 -3.74786 0
M  V30 13597 N 1287.43 1.02549 -1.19673 0
M  V30 13598 C 1288.38 2.09257 -0.905282 0
M  V30 13599 C 1289.36 1.60363 0.131302 0
M  V30 13600 O 1290.55 1.76842 -0.0748563 0
M  V30 13601 C 1287.68 3.40345 -0.449474 0
M  V30 13602 C 1286.77 3.95964 -1.51899 0
M  V30 13603 N 1287.16 4.25203 -2.73926 0
M  V30 13604 C 1285.46 4.24013 -1.38307 0
M  V30 13605 C 1286.16 4.69925 -3.42849 0
M  V30 13606 N 1285.13 4.71664 -2.70248 0
M  V30 13607 H 1288.93 2.29761 -1.83268 0
M  V30 13608 H 1286.45 1.2044 -1.0894 0
M  V30 13609 H 1288.45 4.16308 -0.222121 0
M  V30 13610 H 1287.11 3.2126 0.471402 0
M  V30 13611 H 1288.12 4.14381 -3.10658 0
M  V30 13612 H 1284.79 4.14174 -0.52592 0
M  V30 13613 H 1286.18 5.01442 -4.4722 0
M  V30 13614 N 1288.9 1.00119 1.21713 0
M  V30 13615 C 1290.13 0.699416 1.94401 0
M  V30 13616 C 1290.54 -0.741376 1.7407 0
M  V30 13617 O 1289.88 -1.51286 1.04203 0
M  V30 13618 C 1289.95 0.935875 3.47105 0
M  V30 13619 C 1289.61 2.36276 3.91181 0
M  V30 13620 C 1290.61 3.34276 3.9819 0
M  V30 13621 C 1288.29 2.6994 4.23601 0
M  V30 13622 C 1290.29 4.6401 4.37005 0
M  V30 13623 C 1287.97 3.99891 4.62094 0
M  V30 13624 C 1288.97 4.96737 4.68766 0
M  V30 13625 O 1288.66 6.24364 5.06384 0
M  V30 13626 H 1288.39 0.257233 0.625146 0
M  V30 13627 H 1290.95 1.34098 1.55585 0
M  V30 13628 H 1289.18 0.237133 3.85972 0
M  V30 13629 H 1290.86 0.628075 4.01011 0
M  V30 13630 H 1291.63 3.09603 3.73324 0
M  V30 13631 H 1287.51 1.95257 4.17607 0
M  V30 13632 H 1291.05 5.39601 4.42128 0
M  V30 13633 H 1286.95 4.2435 4.86412 0
M  V30 13634 H 1287.72 6.28424 5.24429 0
M  V30 13635 N 1290.38 -1.37203 0.775435 0
M  V30 13636 C 1291.61 -2.04396 0.351737 0
M  V30 13637 C 1292.03 -1.58099 -1.01913 0
M  V30 13638 O 1291.39 -0.742932 -1.65379 0
M  V30 13639 C 1291.44 -3.58283 0.408105 0
M  V30 13640 O 1290.54 -4.08156 -0.590104 0
M  V30 13641 H 1289.88 -0.646451 0.151647 0
M  V30 13642 H 1292.41 -1.75443 1.05265 0
M  V30 13643 H 1292.42 -4.07127 0.266711 0
M  V30 13644 H 1291.1 -3.91335 1.40819 0
M  V30 13645 H 1289.67 -3.70622 -0.411524 0
M  V30 13646 N 1291.86 -0.526279 -1.48553 0
M  V30 13647 C 1292.81 0.251938 -2.31232 0
M  V30 13648 C 1293.8 0.938991 -1.40994 0
M  V30 13649 O 1295.01 0.863798 -1.57919 0
M  V30 13650 H 1291.38 0.100114 -0.745306 0
M  V30 13651 H 1293.35 -0.465013 -2.94754 0
M  V30 13652 C 1292.1 1.28816 -3.22958 0
M  V30 13653 H 1291.43 0.768899 -3.92337 0
M  V30 13654 H 1292.87 1.80417 -3.837 0
M  V30 13655 C 1291.32 2.31982 -2.44307 0
M  V30 13656 O 1291.85 3.3835 -2.16523 0
M  V30 13657 N 1290.06 2.051 -2.05869 0
M  V30 13658 H 1289.61 1.18618 -2.28665 0
M  V30 13659 H 1289.57 2.74349 -1.53557 0
M  V30 13660 N 1293.34 1.5542 -0.261239 0
M  V30 13661 C 1294.3 2.20683 0.619011 0
M  V30 13662 C 1295.3 1.18042 1.09192 0
M  V30 13663 O 1296.49 1.43035 0.99432 0
M  V30 13664 C 1293.62 2.86179 1.85242 0
M  V30 13665 H 1294.82 2.99859 0.0493924 0
M  V30 13666 H 1292.37 1.56296 -0.0117687 0
M  V30 13667 H 1293.1 2.10978 2.4629 0
M  V30 13668 H 1292.89 3.61381 1.52138 0
M  V30 13669 H 1294.38 3.36081 2.47869 0
M  V30 13670 N 1294.82 -0.0116844 1.57596 0
M  V30 13671 C 1296.06 -0.697577 1.89679 0
M  V30 13672 C 1296.38 -1.74956 0.861122 0
M  V30 13673 O 1295.65 -1.95629 -0.103031 0
M  V30 13674 H 1294.23 -0.26064 0.700054 0
M  V30 13675 H 1296.9 0.0264782 1.94882 0
M  V30 13676 H 1295.99 -1.17621 2.89088 0
M  V30 13677 N 1296.29 -1.55015 -0.284256 0
M  V30 13678 C 1297.26 -1.8636 -1.33426 0
M  V30 13679 C 1298.26 -0.737457 -1.42892 0
M  V30 13680 O 1299.45 -1.00569 -1.42238 0
M  V30 13681 C 1296.58 -2.05884 -2.71707 0
M  V30 13682 H 1297.77 -2.80212 -1.06869 0
M  V30 13683 H 1295.32 -1.47334 -0.521767 0
M  V30 13684 H 1296.06 -1.14376 -3.03461 0
M  V30 13685 H 1295.84 -2.87867 -2.66224 0
M  V30 13686 H 1297.33 -2.31447 -3.47595 0
M  V30 13687 N 1297.77 0.548248 -1.47757 0
M  V30 13688 C 1299 1.335 -1.58722 0
M  V30 13689 C 1299.42 1.86549 -0.241034 0
M  V30 13690 O 1298.78 1.63447 0.784517 0
M  V30 13691 C 1298.83 2.47457 -2.62293 0
M  V30 13692 O 1297.93 3.49956 -2.18185 0
M  V30 13693 H 1297.27 0.396166 -0.532868 0
M  V30 13694 H 1299.8 0.66164 -1.93607 0
M  V30 13695 H 1299.81 2.93901 -2.82995 0
M  V30 13696 H 1298.49 2.08203 -3.60034 0
M  V30 13697 H 1297.06 3.09755 -2.0762 0
M  V30 13698 N 1299.25 1.36039 0.795694 0
M  V30 13699 C 1300.18 1.32528 1.92246 0
M  V30 13700 C 1301.16 0.197805 1.68946 0
M  V30 13701 O 1302.35 0.394474 1.90151 0
M  V30 13702 C 1299.48 1.10748 3.29169 0
M  V30 13703 C 1298.43 2.20253 3.66978 0
M  V30 13704 C 1297.76 1.83624 5.02181 0
M  V30 13705 C 1299.06 3.62296 3.76216 0
M  V30 13706 H 1300.75 2.2681 1.95442 0
M  V30 13707 H 1298.3 1.09181 0.938908 0
M  V30 13708 H 1300.25 1.06929 4.07608 0
M  V30 13709 H 1298.97 0.129141 3.26345 0
M  V30 13710 H 1297.63 2.23187 2.90832 0
M  V30 13711 H 1297.28 0.843804 4.95872 0
M  V30 13712 H 1296.98 2.56935 5.28449 0
M  V30 13713 H 1298.5 1.81349 5.83048 0
M  V30 13714 H 1299.92 3.61623 4.44861 0
M  V30 13715 H 1298.31 4.34459 4.13963 0
M  V30 13716 H 1299.38 3.97657 2.77483 0
M  V30 13717 N 1300.73 -1.01913 1.20215 0
M  V30 13718 C 1302.01 -1.7262 0.919867 0
M  V30 13719 C 1302.39 -2.03203 -0.572001 0
M  V30 13720 O 1301.73 -1.69448 -1.53296 0
M  V30 13721 C 1301.94 -2.9959 1.79016 0
M  V30 13722 C 1303.29 -3.72905 2.03045 0
M  V30 13723 O 1304.32 -3.0954 1.76249 0
M  V30 13724 O 1303.17 -4.86844 2.48285 0
M  V30 13725 H 1300.27 -0.752194 0.343705 0
M  V30 13726 H 1302.81 -1.07783 1.31076 0
M  V30 13727 H 1301.59 -2.73292 2.80048 0
M  V30 13728 H 1301.21 -3.72168 1.39918 0
M  V30 13729 N 1302.21 -1.00763 -1.2118 0
M  V30 13730 C 1303.12 -0.579646 -2.27326 0
M  V30 13731 C 1304.13 0.378592 -1.69831 0
M  V30 13732 O 1305.31 0.241772 -1.99944 0
M  V30 13733 C 1302.37 0.0843648 -3.46597 0
M  V30 13734 C 1301.43 -0.918685 -4.19355 0
M  V30 13735 C 1300.67 -0.286267 -5.32932 0
M  V30 13736 O 1300.89 0.916274 -5.62993 0
M  V30 13737 O 1299.82 -0.998513 -5.9356 0
M  V30 13738 H 1303.65 -1.46311 -2.66133 0
M  V30 13739 H 1301.24 -0.776641 -1.27627 0
M  V30 13740 H 1303.12 0.455636 -4.18929 0
M  V30 13741 H 1301.79 0.942166 -3.09685 0
M  V30 13742 H 1300.7 -1.34116 -3.49233 0
M  V30 13743 H 1302.03 -1.74616 -4.60185 0
M  V30 13744 N 1303.68 1.3679 -0.7827 0
M  V30 13745 C 1304.91 2.04206 -0.362571 0
M  V30 13746 C 1305.33 1.58637 1.01074 0
M  V30 13747 O 1304.69 0.751692 1.64983 0
M  V30 13748 C 1304.74 3.58062 -0.4271 0
M  V30 13749 O 1303.84 4.08463 0.56845 0
M  V30 13750 H 1303.19 0.645638 -0.155073 0
M  V30 13751 H 1305.72 1.74883 -1.06194 0
M  V30 13752 H 1305.73 4.0698 -0.288298 0
M  V30 13753 H 1304.4 3.90582 -1.42893 0
M  V30 13754 H 1302.98 3.70835 0.391863 0
M  V30 13755 N 1305.16 0.53415 1.48272 0
M  V30 13756 C 1306.09 -0.215037 2.32508 0
M  V30 13757 C 1307.07 -0.931083 1.42355 0
M  V30 13758 O 1308.26 -0.916051 1.71237 0
M  V30 13759 C 1305.39 -1.25985 3.23643 0
M  V30 13760 C 1304.34 -0.661692 4.22854 0
M  V30 13761 C 1303.67 -1.80946 5.03153 0
M  V30 13762 C 1304.97 0.369358 5.20992 0
M  V30 13763 H 1306.66 0.488158 2.95394 0
M  V30 13764 H 1304.21 0.236206 1.4205 0
M  V30 13765 H 1306.16 -1.79195 3.81402 0
M  V30 13766 H 1304.89 -1.99268 2.58766 0
M  V30 13767 H 1303.54 -0.151082 3.66289 0
M  V30 13768 H 1303.19 -2.53077 4.34696 0
M  V30 13769 H 1302.89 -1.41513 5.70305 0
M  V30 13770 H 1304.42 -2.34526 5.63764 0
M  V30 13771 H 1305.83 -0.0758076 5.7325 0
M  V30 13772 H 1304.23 0.681301 5.9622 0
M  V30 13773 H 1305.3 1.27363 4.67875 0
M  V30 13774 N 1306.64 -1.55279 0.269478 0
M  V30 13775 C 1307.89 -1.99471 -0.348913 0
M  V30 13776 C 1308.22 -1.15784 -1.56283 0
M  V30 13777 O 1307.47 -0.214115 -1.94525 0
M  V30 13778 C 1307.77 -3.48773 -0.780535 0
M  V30 13779 C 1307.44 -4.49705 0.328113 0
M  V30 13780 C 1306.1 -4.77024 0.632544 0
M  V30 13781 C 1308.45 -5.09984 1.07544 0
M  V30 13782 C 1305.78 -5.61893 1.68798 0
M  V30 13783 C 1308.13 -5.95999 2.12057 0
M  V30 13784 C 1306.79 -6.21642 2.4314 0
M  V30 13785 H 1306.06 -0.729918 -0.127676 0
M  V30 13786 H 1308.71 -1.87651 0.382015 0
M  V30 13787 H 1307.02 -3.5804 -1.59105 0
M  V30 13788 H 1308.71 -3.80369 -1.26966 0
M  V30 13789 H 1305.3 -4.28524 0.0807131 0
M  V30 13790 H 1309.49 -4.88906 0.853506 0
M  V30 13791 H 1304.74 -5.80009 1.93389 0
M  V30 13792 H 1308.92 -6.41743 2.70442 0
M  V30 13793 H 1306.54 -6.87198 3.25059 0
M  V30 13794 N 1308.12 0.00332656 -1.576 0
M  V30 13795 C 1309.36 0.68989 -1.90705 0
M  V30 13796 C 1309.7 1.73608 -0.870291 0
M  V30 13797 O 1308.97 1.94181 0.111416 0
M  V30 13798 C 1309.26 1.33605 -3.34397 0
M  V30 13799 C 1309.11 0.301638 -4.48787 0
M  V30 13800 C 1310.43 2.26313 -3.77453 0
M  V30 13801 H 1307.55 0.249328 -0.693545 0
M  V30 13802 H 1310.19 -0.0472847 -1.89941 0
M  V30 13803 H 1308.34 1.96437 -3.35179 0
M  V30 13804 H 1310.01 -0.326738 -4.60141 0
M  V30 13805 H 1308.25 -0.376451 -4.32163 0
M  V30 13806 H 1308.92 0.792741 -5.46278 0
M  V30 13807 H 1311.4 1.73502 -3.78201 0
M  V30 13808 H 1310.28 2.68492 -4.78752 0
M  V30 13809 H 1310.54 3.14082 -3.11135 0
M  V30 13810 N 1309.6 1.55164 0.276031 0
M  V30 13811 C 1310.85 1.74833 1.0058 0
M  V30 13812 C 1311.16 0.555089 1.87558 0
M  V30 13813 O 1312.36 0.634127 2.63991 0
M  V30 13814 C 1310.82 3.09417 1.83818 0
M  V30 13815 C 1310.43 4.36299 1.01721 0
M  V30 13816 C 1312.17 3.38437 2.56244 0
M  V30 13817 C 1310.08 5.61923 1.8438 0
M  V30 13818 H 1309.01 0.651676 0.379254 0
M  V30 13819 H 1311.66 1.81626 0.26161 0
M  V30 13820 H 1310.04 2.96654 2.62321 0
M  V30 13821 H 1311.22 4.59969 0.276565 0
M  V30 13822 H 1309.53 4.144 0.407645 0
M  V30 13823 H 1312.13 4.29501 3.18485 0
M  V30 13824 H 1312.47 2.58432 3.26372 0
M  V30 13825 H 1313 3.52284 1.84773 0
M  V30 13826 H 1309.74 6.44667 1.18679 0
M  V30 13827 H 1309.26 5.424 2.56051 0
M  V30 13828 H 1310.94 6.0011 2.4182 0
M  V30 13829 N 1311.07 -0.540404 1.48045 0
M  V30 13830 C 1311.98 -1.67308 1.64455 0
M  V30 13831 C 1313 -1.65823 0.527152 0
M  V30 13832 O 1314.18 -1.84964 0.796881 0
M  V30 13833 C 1311.24 -3.03792 1.67068 0
M  V30 13834 C 1310.3 -3.16213 2.90358 0
M  V30 13835 C 1309.54 -4.46187 2.92837 0
M  V30 13836 O 1309.76 -5.32662 2.04029 0
M  V30 13837 O 1308.69 -4.62754 3.84892 0
M  V30 13838 H 1312.52 -1.56403 2.6033 0
M  V30 13839 H 1310.1 -0.712323 1.31325 0
M  V30 13840 H 1311.99 -3.84982 1.71368 0
M  V30 13841 H 1310.66 -3.15043 0.74363 0
M  V30 13842 H 1309.57 -2.34357 2.91595 0
M  V30 13843 H 1310.9 -3.09874 3.82412 0
M  V30 13844 N 1312.55 -1.36459 -0.788468 0
M  V30 13845 C 1313.49 -1.25222 -1.90774 0
M  V30 13846 C 1314.46 -0.136188 -1.62029 0
M  V30 13847 O 1315.65 -0.307486 -1.85975 0
M  V30 13848 C 1312.77 -0.932287 -3.25616 0
M  V30 13849 C 1311.82 -2.0629 -3.73292 0
M  V30 13850 S 1312.65 -3.68084 -3.8894 0
M  V30 13851 C 1313.81 -3.38206 -5.26657 0
M  V30 13852 H 1314.04 -2.19959 -2.00013 0
M  V30 13853 H 1311.58 -1.21886 -0.947801 0
M  V30 13854 H 1313.53 -0.754514 -4.03506 0
M  V30 13855 H 1312.19 -0.00268413 -3.141 0
M  V30 13856 H 1311.39 -1.79363 -4.71004 0
M  V30 13857 H 1310.99 -2.19994 -3.02454 0
M  V30 13858 H 1313.28 -2.92158 -6.11269 0
M  V30 13859 H 1314.22 -4.35185 -5.58587 0
M  V30 13860 H 1314.63 -2.73531 -4.93802 0
M  V30 13861 N 1314.03 1.01274 -1.20754 0
M  V30 13862 C 1315.28 1.74586 -1.01804 0
M  V30 13863 C 1315.6 1.89727 0.450419 0
M  V30 13864 O 1314.87 1.44257 1.32539 0
M  V30 13865 H 1313.45 0.646804 -0.373702 0
M  V30 13866 H 1316.11 1.22079 -1.5193 0
M  V30 13867 H 1315.21 2.748 -1.47958 0
M  V30 13868 N 1315.51 1.01404 1.20644 0
M  V30 13869 C 1316.44 0.602465 2.25594 0
M  V30 13870 C 1317.42 -0.381216 1.65773 0
M  V30 13871 O 1318.61 -0.267209 1.92353 0
M  V30 13872 C 1315.74 -0.0626245 3.47244 0
M  V30 13873 C 1314.69 0.841776 4.1964 0
M  V30 13874 C 1314.02 0.0426002 5.34683 0
M  V30 13875 C 1315.32 2.14864 4.76058 0
M  V30 13876 H 1317.01 1.47977 2.60275 0
M  V30 13877 H 1314.56 0.712966 1.25111 0
M  V30 13878 H 1316.51 -0.362095 4.19841 0
M  V30 13879 H 1315.23 -0.974627 3.11719 0
M  V30 13880 H 1313.89 1.12521 3.48905 0
M  V30 13881 H 1313.54 -0.870973 4.95402 0
M  V30 13882 H 1313.24 0.644866 5.84051 0
M  V30 13883 H 1314.76 -0.250476 6.10086 0
M  V30 13884 H 1316.18 1.9117 5.40488 0
M  V30 13885 H 1314.57 2.70153 5.35852 0
M  V30 13886 H 1315.64 2.81336 3.9494 0
M  V30 13887 N 1316.99 -1.36373 0.789944 0
M  V30 13888 C 1317.92 -2.32616 0.202944 0
M  V30 13889 C 1318.9 -1.56674 -0.662364 0
M  V30 13890 O 1320.08 -1.84826 -0.596078 0
M  V30 13891 C 1317.21 -3.4092 -0.662646 0
M  V30 13892 C 1316.17 -4.27877 0.102811 0
M  V30 13893 C 1315.49 -5.27352 -0.883407 0
M  V30 13894 C 1316.79 -5.0606 1.29231 0
M  V30 13895 H 1318.49 -2.81958 1.00699 0
M  V30 13896 H 1316.03 -1.35562 0.48568 0
M  V30 13897 H 1317.99 -4.07239 -1.08324 0
M  V30 13898 H 1316.71 -2.90147 -1.4994 0
M  V30 13899 H 1315.37 -3.63114 0.504389 0
M  V30 13900 H 1315.02 -4.72853 -1.71521 0
M  V30 13901 H 1314.72 -5.86398 -0.375669 0
M  V30 13902 H 1316.24 -5.96545 -1.30256 0
M  V30 13903 H 1317.66 -5.65417 0.947446 0
M  V30 13904 H 1316.05 -5.74521 1.73338 0
M  V30 13905 H 1317.12 -4.37671 2.08739 0
M  V30 13906 N 1318.47 -0.542005 -1.47987 0
M  V30 13907 C 1319.41 0.214151 -2.29804 0
M  V30 13908 C 1320.38 0.922625 -1.38119 0
M  V30 13909 O 1321.57 0.921301 -1.67083 0
M  V30 13910 C 1318.71 1.24768 -3.21756 0
M  V30 13911 C 1317.82 0.546824 -4.28525 0
M  V30 13912 C 1316.96 1.56432 -5.07644 0
M  V30 13913 C 1315.99 0.847598 -6.06203 0
M  V30 13914 N 1315.13 1.81121 -6.78336 0
M  V30 13915 H 1319.97 -0.489707 -2.93949 0
M  V30 13916 H 1317.51 -0.253331 -1.44902 0
M  V30 13917 H 1319.47 1.85933 -3.73477 0
M  V30 13918 H 1318.1 1.91976 -2.59509 0
M  V30 13919 H 1317.15 -0.179026 -3.79978 0
M  V30 13920 H 1318.46 -0.0153623 -4.98798 0
M  V30 13921 H 1317.61 2.24992 -5.63439 0
M  V30 13922 H 1316.35 2.16041 -4.37238 0
M  V30 13923 H 1315.36 0.147989 -5.49601 0
M  V30 13924 H 1316.58 0.257454 -6.78612 0
M  V30 13925 H 1314.53 2.39615 -6.10672 0
M  V30 13926 H 1314.45 1.30077 -7.44725 0
M  V30 13927 H 1315.71 2.48842 -7.38714 0
M  V30 13928 N 1319.94 1.55134 -0.277709 0
M  V30 13929 C 1320.88 2.18745 0.650058 0
M  V30 13930 C 1321.85 1.14922 1.15029 0
M  V30 13931 O 1323.04 1.43458 1.22278 0
M  V30 13932 C 1320.17 2.81277 1.88683 0
M  V30 13933 C 1319.21 3.98425 1.52185 0
M  V30 13934 S 1320.04 5.32153 0.597782 0
M  V30 13935 C 1321.2 5.98155 1.84287 0
M  V30 13936 H 1321.43 2.97098 0.109571 0
M  V30 13937 H 1318.97 1.54276 -0.0619536 0
M  V30 13938 H 1320.92 3.17934 2.59669 0
M  V30 13939 H 1319.59 2.02813 2.39845 0
M  V30 13940 H 1318.78 4.40877 2.4422 0
M  V30 13941 H 1318.38 3.63203 0.892146 0
M  V30 13942 H 1320.67 6.17546 2.78646 0
M  V30 13943 H 1321.62 6.92857 1.46131 0
M  V30 13944 H 1322.02 5.27541 2.00899 0
M  V30 13945 N 1321.42 0.00503138 1.57599 0
M  V30 13946 C 1322.7 -0.716079 1.82021 0
M  V30 13947 C 1323.08 -1.91707 0.883829 0
M  V30 13948 O 1322.43 -2.28404 -0.0662812 0
M  V30 13949 C 1322.64 -1.11706 3.3064 0
M  V30 13950 C 1323.98 -1.51881 3.96506 0
M  V30 13951 O 1325.01 -1.21071 3.34993 0
M  V30 13952 O 1323.87 -2.09191 5.04877 0
M  V30 13953 H 1320.96 -0.349112 0.7497 0
M  V30 13954 H 1323.51 0.030871 1.69672 0
M  V30 13955 H 1322.28 -0.261223 3.90427 0
M  V30 13956 H 1321.9 -1.92295 3.48006 0
M  V30 13957 N 1322.9 -1.55308 -0.267798 0
M  V30 13958 C 1323.85 -1.89342 -1.35102 0
M  V30 13959 C 1324.84 -0.770277 -1.50874 0
M  V30 13960 O 1326.05 -0.954679 -1.52597 0
M  V30 13961 H 1322.42 -0.601036 -0.451952 0
M  V30 13962 H 1324.39 -2.7982 -1.03651 0
M  V30 13963 C 1323.14 -2.18644 -2.70352 0
M  V30 13964 H 1322.47 -3.04557 -2.59008 0
M  V30 13965 H 1323.91 -2.46374 -3.45073 0
M  V30 13966 C 1322.36 -0.995753 -3.21848 0
M  V30 13967 O 1322.89 -0.233037 -4.01023 0
M  V30 13968 N 1321.1 -0.792038 -2.79598 0
M  V30 13969 H 1320.65 -1.41396 -2.15325 0
M  V30 13970 H 1320.61 0.00300201 -3.144 0
M  V30 13971 N 1324.38 0.532545 -1.4833 0
M  V30 13972 C 1325.34 1.61955 -1.62183 0
M  V30 13973 C 1326.34 1.52982 -0.495281 0
M  V30 13974 O 1327.53 1.56698 -0.761005 0
M  V30 13975 C 1324.66 3.0157 -1.58961 0
M  V30 13976 H 1325.86 1.51013 -2.59105 0
M  V30 13977 H 1323.41 0.754405 -1.36888 0
M  V30 13978 H 1324.14 3.18021 -0.635069 0
M  V30 13979 H 1323.93 3.09491 -2.40744 0
M  V30 13980 H 1325.42 3.80604 -1.71843 0
M  V30 13981 N 1325.86 1.36875 0.78122 0
M  V30 13982 C 1327.09 1.34537 1.56791 0
M  V30 13983 C 1327.49 -0.0734709 1.89057 0
M  V30 13984 O 1326.84 -1.04307 1.51215 0
M  V30 13985 C 1326.9 2.10971 2.91087 0
M  V30 13986 C 1326.56 3.60005 2.81506 0
M  V30 13987 C 1327.56 4.54085 2.53185 0
M  V30 13988 C 1325.24 4.03001 2.99826 0
M  V30 13989 C 1327.24 5.89139 2.43298 0
M  V30 13990 C 1324.93 5.38144 2.89559 0
M  V30 13991 C 1325.92 6.31026 2.61335 0
M  V30 13992 O 1325.61 7.63685 2.51077 0
M  V30 13993 H 1325.34 0.46284 0.492702 0
M  V30 13994 H 1327.9 1.80683 0.976869 0
M  V30 13995 H 1326.13 1.595 3.52274 0
M  V30 13996 H 1327.82 2.01387 3.52418 0
M  V30 13997 H 1328.58 4.22178 2.38727 0
M  V30 13998 H 1324.46 3.31073 3.20799 0
M  V30 13999 H 1328.01 6.61605 2.21188 0
M  V30 14000 H 1323.9 5.69656 3.03583 0
M  V30 14001 H 1324.67 7.739 2.66498 0
M  V30 14002 N 1327.33 -1.00632 1.21289 0
M  V30 14003 C 1328.28 -2.09382 0.97097 0
M  V30 14004 C 1329.25 -1.65783 -0.102561 0
M  V30 14005 O 1330.44 -1.90749 0.0442886 0
M  V30 14006 C 1327.58 -3.40844 0.540314 0
M  V30 14007 C 1326.69 -3.97862 1.68314 0
M  V30 14008 C 1325.82 -5.17427 1.20178 0
M  V30 14009 C 1324.86 -5.66552 2.31702 0
M  V30 14010 N 1324 -6.77368 1.84709 0
M  V30 14011 H 1328.84 -2.29411 1.90196 0
M  V30 14012 H 1326.38 -1.12488 0.947885 0
M  V30 14013 H 1328.33 -4.16313 0.271881 0
M  V30 14014 H 1326.96 -3.20857 -0.353677 0
M  V30 14015 H 1326.02 -3.19391 2.06624 0
M  V30 14016 H 1327.33 -4.30314 2.52252 0
M  V30 14017 H 1326.48 -6.00138 0.889926 0
M  V30 14018 H 1325.22 -4.86566 0.332422 0
M  V30 14019 H 1324.23 -4.82438 2.63691 0
M  V30 14020 H 1325.45 -5.99443 3.19131 0
M  V30 14021 H 1323.4 -6.48315 1.00116 0
M  V30 14022 H 1323.31 -7.09067 2.62221 0
M  V30 14023 H 1324.58 -7.63617 1.56554 0
M  V30 14024 N 1328.81 -1.02043 -1.20104 0
M  V30 14025 C 1330.06 -0.711973 -1.89571 0
M  V30 14026 C 1330.39 0.758725 -1.79091 0
M  V30 14027 O 1329.64 1.56728 -1.17195 0
M  V30 14028 C 1329.94 -1.098 -3.40116 0
M  V30 14029 C 1329.61 -2.56555 -3.70797 0
M  V30 14030 C 1328.27 -2.96653 -3.78881 0
M  V30 14031 C 1330.62 -3.51543 -3.84795 0
M  V30 14032 C 1327.95 -4.30669 -3.98424 0
M  V30 14033 C 1330.3 -4.85252 -4.05849 0
M  V30 14034 C 1328.96 -5.2505 -4.12163 0
M  V30 14035 H 1328.23 -0.260529 -0.69369 0
M  V30 14036 H 1330.88 -1.28172 -1.42282 0
M  V30 14037 H 1329.19 -0.446738 -3.89245 0
M  V30 14038 H 1330.88 -0.836985 -3.92168 0
M  V30 14039 H 1327.47 -2.24488 -3.65107 0
M  V30 14040 H 1331.66 -3.21721 -3.77901 0
M  V30 14041 H 1326.91 -4.61052 -4.01548 0
M  V30 14042 H 1331.09 -5.58777 -4.15622 0
M  V30 14043 H 1328.71 -6.28908 -4.27059 0
M  V30 14044 N 1330.29 1.35952 -0.797165 0
M  V30 14045 C 1331.7 1.81554 -0.435311 0
M  V30 14046 C 1332.05 1.66266 1.04164 0
M  V30 14047 O 1331.18 1.18796 1.80877 0
M  V30 14048 C 1331.77 3.29619 -0.783358 0
M  V30 14049 C 1330.33 3.73401 -0.47423 0
M  V30 14050 C 1329.48 2.58098 -1.01394 0
M  V30 14051 H 1332.43 1.24064 -0.989638 0
M  V30 14052 H 1332.45 3.80421 -0.0773381 0
M  V30 14053 H 1331.96 3.40715 -1.85836 0
M  V30 14054 H 1330.06 3.6786 0.592418 0
M  V30 14055 H 1330.18 4.68542 -1.00026 0
M  V30 14056 H 1328.54 2.50927 -0.436747 0
M  V30 14057 H 1329.32 2.71976 -2.09485 0
M  V30 14058 N 1331.77 0.549846 1.47697 0
M  V30 14059 C 1332.72 -0.215119 2.31603 0
M  V30 14060 C 1333.71 -0.916441 1.4247 0
M  V30 14061 O 1334.92 -0.838565 1.59274 0
M  V30 14062 H 1331.29 -0.0882441 0.746805 0
M  V30 14063 H 1333.26 0.511847 2.93977 0
M  V30 14064 C 1332.01 -1.23662 3.24966 0
M  V30 14065 H 1331.33 -0.706384 3.9351 0
M  V30 14066 H 1332.77 -1.7429 3.86522 0
M  V30 14067 C 1331.23 -2.28066 2.47967 0
M  V30 14068 O 1331.76 -3.34862 2.21879 0
M  V30 14069 N 1329.97 -2.01799 2.09106 0
M  V30 14070 H 1329.52 -1.14965 2.30523 0
M  V30 14071 H 1329.47 -2.71872 1.57902 0
M  V30 14072 N 1333.25 -1.54984 0.285932 0
M  V30 14073 C 1334.18 -2.25916 -0.590259 0
M  V30 14074 C 1335.16 -1.25319 -1.15018 0
M  V30 14075 O 1336.34 -1.54062 -1.18231 0
M  V30 14076 C 1333.47 -2.98849 -1.76936 0
M  V30 14077 C 1332.43 -4.06466 -1.3405 0
M  V30 14078 C 1331.75 -4.67032 -2.60356 0
M  V30 14079 C 1333.05 -5.20064 -0.482754 0
M  V30 14080 H 1334.75 -2.994 0.00131571 0
M  V30 14081 H 1332.29 -1.44 0.00207281 0
M  V30 14082 H 1334.25 -3.47186 -2.3883 0
M  V30 14083 H 1332.97 -2.22918 -2.38694 0
M  V30 14084 H 1331.63 -3.58957 -0.7447 0
M  V30 14085 H 1331.28 -3.87757 -3.20396 0
M  V30 14086 H 1330.98 -5.39703 -2.32368 0
M  V30 14087 H 1332.5 -5.18124 -3.23079 0
M  V30 14088 H 1333.91 -5.64387 -1.00697 0
M  V30 14089 H 1332.31 -5.99363 -0.297291 0
M  V30 14090 H 1333.38 -4.82358 0.495861 0
M  V30 14091 N 1334.72 -0.0133892 -1.57594 0
M  V30 14092 C 1336.14 0.342848 -1.55874 0
M  V30 14093 C 1336.34 1.73928 -1.01742 0
M  V30 14094 O 1335.4 2.43798 -0.657158 0
M  V30 14095 C 1336.71 0.205831 -2.99995 0
M  V30 14096 C 1338.26 0.279774 -3.11747 0
M  V30 14097 C 1338.73 0.171729 -4.57678 0
M  V30 14098 N 1340.22 0.22921 -4.62633 0
M  V30 14099 C 1340.96 0.169153 -5.7315 0
M  V30 14100 N 1340.45 0.0589166 -6.92775 0
M  V30 14101 N 1342.25 0.221995 -5.61661 0
M  V30 14102 H 1334.4 -0.926727 -1.91117 0
M  V30 14103 H 1336.66 -0.356466 -0.878428 0
M  V30 14104 H 1336.37 -0.755482 -3.4349 0
M  V30 14105 H 1336.24 0.982476 -3.6418 0
M  V30 14106 H 1338.63 1.23154 -2.68174 0
M  V30 14107 H 1338.71 -0.526974 -2.50313 0
M  V30 14108 H 1338.35 -0.776547 -5.01928 0
M  V30 14109 H 1338.28 0.997138 -5.17073 0
M  V30 14110 H 1340.77 0.315196 -3.76583 0
M  V30 14111 H 1341.09 0.0193526 -7.72798 0
M  V30 14112 H 1339.43 0.0243543 -6.94996 0
M  V30 14113 H 1342.62 0.306406 -4.67096 0
M  V30 14114 H 1342.8 0.171727 -6.47772 0
M  V30 14115 N 1336.2 1.55448 0.259558 0
M  V30 14116 C 1337.44 1.78444 0.996849 0
M  V30 14117 C 1337.81 0.580862 1.83003 0
M  V30 14118 O 1339.01 0.68934 2.59811 0
M  V30 14119 C 1337.28 3.06094 1.84502 0
M  V30 14120 S 1338.84 3.50263 2.64313 0
M  V30 14121 H 1335.66 0.626854 0.335523 0
M  V30 14122 H 1338.26 1.93683 0.265929 0
M  V30 14123 H 1336.96 3.91772 1.22241 0
M  V30 14124 H 1336.49 2.93558 2.61891 0
M  V30 14125 H 1338.51 3.10596 3.86968 0
M  V30 14126 N 1337.68 -0.524672 1.4861 0
M  V30 14127 C 1339.1 -0.853703 1.34848 0
M  V30 14128 C 1339.3 -1.98194 0.363529 0
M  V30 14129 O 1338.35 -2.51597 -0.213348 0
M  V30 14130 C 1339.67 -1.21622 2.75006 0
M  V30 14131 C 1341.21 -1.3258 2.83534 0
M  V30 14132 C 1341.69 -1.72172 4.24406 0
M  V30 14133 N 1343.18 -1.79265 4.27105 0
M  V30 14134 C 1343.91 -2.11296 5.33049 0
M  V30 14135 N 1343.41 -2.41714 6.49266 0
M  V30 14136 N 1345.2 -2.12347 5.20447 0
M  V30 14137 H 1337.35 0.219671 2.11261 0
M  V30 14138 H 1339.62 0.0356444 0.94733 0
M  V30 14139 H 1339.32 -0.460776 3.48669 0
M  V30 14140 H 1339.2 -2.16516 3.0887 0
M  V30 14141 H 1341.58 -2.072 2.10124 0
M  V30 14142 H 1341.67 -0.357943 2.53283 0
M  V30 14143 H 1341.31 -0.981108 4.98334 0
M  V30 14144 H 1341.24 -2.70017 4.52104 0
M  V30 14145 H 1343.73 -1.58013 3.43279 0
M  V30 14146 H 1344.04 -2.65276 7.25843 0
M  V30 14147 H 1342.39 -2.39222 6.52532 0
M  V30 14148 H 1345.58 -1.88044 4.28669 0
M  V30 14149 H 1345.75 -2.36978 6.03113 0
M  V30 14150 N 1339.16 -1.37287 -0.77395 0
M  V30 14151 C 1340.41 -1.32112 -1.5294 0
M  V30 14152 C 1340.73 0.0946137 -1.9477 0
M  V30 14153 O 1340 1.03817 -1.66129 0
M  V30 14154 H 1338.58 -0.486047 -0.567245 0
M  V30 14155 H 1341.24 -1.71752 -0.921263 0
M  V30 14156 H 1340.34 -1.95873 -2.42982 0
M  V30 14157 N 1340.64 0.999871 -1.21821 0
M  V30 14158 C 1341.88 1.74194 -1.05014 0
M  V30 14159 C 1342.24 1.8795 0.411388 0
M  V30 14160 O 1341.53 1.4065 1.30108 0
M  V30 14161 C 1341.72 3.1509 -1.6868 0
M  V30 14162 C 1341.55 3.15073 -3.20872 0
M  V30 14163 C 1340.32 3.21361 -3.89942 0
M  V30 14164 C 1342.52 2.9978 -4.17896 0
M  V30 14165 N 1340.5 3.11024 -5.2928 0
M  V30 14166 C 1341.87 2.97396 -5.44018 0
M  V30 14167 C 1343.93 2.84119 -4.08877 0
M  V30 14168 C 1342.63 2.80956 -6.6216 0
M  V30 14169 C 1344.66 2.69038 -5.26662 0
M  V30 14170 C 1344.02 2.67335 -6.51699 0
M  V30 14171 H 1340.12 0.647385 -0.438653 0
M  V30 14172 H 1342.7 1.18801 -1.54255 0
M  V30 14173 H 1340.87 3.68742 -1.22 0
M  V30 14174 H 1342.61 3.7782 -1.45031 0
M  V30 14175 H 1339.36 3.28763 -3.40898 0
M  V30 14176 H 1339.79 3.09184 -6.02274 0
M  V30 14177 H 1344.43 2.84238 -3.12999 0
M  V30 14178 H 1342.15 2.79583 -7.58194 0
M  V30 14179 H 1345.73 2.57913 -5.21509 0
M  V30 14180 H 1344.61 2.55805 -7.41305 0
M  V30 14181 N 1342.11 1.02678 1.19562 0
M  V30 14182 C 1343.08 0.610407 2.20922 0
M  V30 14183 C 1344.08 -0.324858 1.57484 0
M  V30 14184 O 1345.27 -0.112153 1.73839 0
M  V30 14185 C 1342.4 -0.107115 3.40732 0
M  V30 14186 H 1343.59 1.50722 2.59274 0
M  V30 14187 H 1341.15 0.817725 1.33203 0
M  V30 14188 H 1341.88 -1.01837 3.07896 0
M  V30 14189 H 1341.67 0.564901 3.88009 0
M  V30 14190 H 1343.16 -0.385423 4.15818 0
M  V30 14191 N 1343.59 -1.35528 0.804364 0
M  V30 14192 C 1344.83 -2.00658 0.389299 0
M  V30 14193 C 1345.2 -1.62431 -1.02373 0
M  V30 14194 O 1346.4 -2.20264 -1.54068 0
M  V30 14195 C 1344.67 -3.52913 0.564569 0
M  V30 14196 S 1346.23 -4.38145 0.239597 0
M  V30 14197 H 1343.05 -0.695435 0.147958 0
M  V30 14198 H 1345.65 -1.65156 1.04613 0
M  V30 14199 H 1344.35 -3.78222 1.59299 0
M  V30 14200 H 1343.88 -3.93253 -0.10766 0
M  V30 14201 H 1345.9 -4.86952 -0.953533 0
M  V30 14202 N 1345.07 -0.557671 -1.47404 0
M  V30 14203 C 1346.49 -0.217473 -1.58111 0
M  V30 14204 C 1346.69 1.28 -1.55622 0
M  V30 14205 O 1345.74 2.06019 -1.45988 0
M  V30 14206 C 1347.06 -0.844535 -2.88597 0
M  V30 14207 C 1348.6 -0.815807 -3.02181 0
M  V30 14208 C 1349.08 -1.42195 -4.35367 0
M  V30 14209 N 1350.57 -1.38515 -4.42004 0
M  V30 14210 C 1351.31 -1.82378 -5.43623 0
M  V30 14211 N 1350.8 -2.34098 -6.52051 0
M  V30 14212 N 1352.59 -1.73446 -5.34671 0
M  V30 14213 H 1344.75 -1.53058 -1.47265 0
M  V30 14214 H 1347.01 -0.638305 -0.700907 0
M  V30 14215 H 1346.71 -1.89696 -2.96156 0
M  V30 14216 H 1346.59 -0.337844 -3.75684 0
M  V30 14217 H 1348.98 0.227925 -2.94218 0
M  V30 14218 H 1349.06 -1.36026 -2.16635 0
M  V30 14219 H 1348.7 -2.46475 -4.44086 0
M  V30 14220 H 1348.63 -0.852932 -5.19647 0
M  V30 14221 H 1351.12 -1.00684 -3.64241 0
M  V30 14222 H 1351.43 -2.6549 -7.25765 0
M  V30 14223 H 1349.78 -2.38109 -6.52939 0
M  V30 14224 H 1352.97 -1.32816 -4.48862 0
M  V30 14225 H 1353.14 -2.07947 -6.13728 0
M  V30 14226 N 1346.55 1.54831 -0.294147 0
M  V30 14227 C 1347.78 2.04411 0.319938 0
M  V30 14228 C 1348.19 1.17174 1.4804 0
M  V30 14229 O 1347.55 0.195881 1.81446 0
M  V30 14230 C 1347.6 3.52924 0.782751 0
M  V30 14231 O 1347.32 4.36844 -0.331512 0
M  V30 14232 C 1348.82 4.18474 1.4627 0
M  V30 14233 H 1346.04 0.667286 0.0704973 0
M  V30 14234 H 1348.59 1.9989 -0.431785 0
M  V30 14235 H 1346.74 3.57828 1.48451 0
M  V30 14236 H 1347.16 5.24493 0.0275743 0
M  V30 14237 H 1348.63 5.23933 1.73776 0
M  V30 14238 H 1349.11 3.67793 2.40052 0
M  V30 14239 H 1349.71 4.17626 0.804291 0
M  V30 14240 N 1348.03 0.0217466 1.57585 0
M  V30 14241 C 1348.98 -0.980624 2.10918 0
M  V30 14242 C 1349.97 -1.34178 1.03406 0
M  V30 14243 O 1351.18 -1.32487 1.21849 0
M  V30 14244 H 1347.55 -0.333984 0.673764 0
M  V30 14245 H 1349.52 -0.505431 2.94088 0
M  V30 14246 C 1348.27 -2.25639 2.64542 0
M  V30 14247 H 1347.59 -1.98722 3.46914 0
M  V30 14248 H 1349.03 -2.94003 3.05513 0
M  V30 14249 C 1347.49 -2.98111 1.56945 0
M  V30 14250 O 1348.02 -3.89937 0.964975 0
M  V30 14251 N 1346.23 -2.60316 1.29166 0
M  V30 14252 H 1345.78 -1.85722 1.78508 0
M  V30 14253 H 1345.73 -3.09116 0.573987 0
M  V30 14254 N 1349.51 -1.55583 -0.251311 0
M  V30 14255 C 1350.44 -1.9296 -1.31486 0
M  V30 14256 C 1351.42 -0.794001 -1.50431 0
M  V30 14257 O 1352.6 -1.05393 -1.63113 0
M  V30 14258 C 1349.73 -2.22046 -2.67045 0
M  V30 14259 C 1348.69 -3.37816 -2.62801 0
M  V30 14260 C 1348.01 -3.52433 -4.02113 0
M  V30 14261 C 1349.31 -4.73626 -2.20171 0
M  V30 14262 H 1351.01 -2.82046 -1.00451 0
M  V30 14263 H 1348.55 -1.35702 -0.481775 0
M  V30 14264 H 1350.5 -2.46783 -3.41579 0
M  V30 14265 H 1349.23 -1.29782 -2.99707 0
M  V30 14266 H 1347.89 -3.13081 -1.90724 0
M  V30 14267 H 1347.54 -2.57597 -4.32034 0
M  V30 14268 H 1347.24 -4.30283 -4.00163 0
M  V30 14269 H 1348.76 -3.79486 -4.78354 0
M  V30 14270 H 1350.17 -4.97764 -2.84436 0
M  V30 14271 H 1348.57 -5.54547 -2.29341 0
M  V30 14272 H 1349.64 -4.70985 -1.1533 0
M  V30 14273 N 1350.98 0.516783 -1.48886 0
M  V30 14274 C 1352.39 1.09856 -1.50959 0
M  V30 14275 C 1352.75 1.94092 -0.28681 0
M  V30 14276 O 1351.87 2.07774 0.604877 0
M  V30 14277 C 1352.47 1.999 -2.73542 0
M  V30 14278 C 1351.02 2.5327 -2.78444 0
M  V30 14279 C 1350.17 1.30526 -2.44659 0
M  V30 14280 H 1353.12 0.301415 -1.55811 0
M  V30 14281 H 1353.14 2.84373 -2.52809 0
M  V30 14282 H 1352.66 1.38564 -3.62521 0
M  V30 14283 H 1350.76 3.1829 -1.93707 0
M  V30 14284 H 1350.87 2.91502 -3.80215 0
M  V30 14285 H 1349.23 1.62536 -1.96097 0
M  V30 14286 H 1350.02 0.709223 -3.35894 0
M  V30 14287 N 1352.46 1.37696 0.766659 0
M  V30 14288 C 1353.69 1.36564 1.56093 0
M  V30 14289 C 1354.11 -0.0455828 1.88045 0
M  V30 14290 O 1353.47 -1.02405 1.49609 0
M  V30 14291 C 1353.52 2.21592 2.84481 0
M  V30 14292 O 1352.62 1.62404 3.79076 0
M  V30 14293 H 1351.96 0.466394 0.472623 0
M  V30 14294 H 1354.49 1.81287 0.948486 0
M  V30 14295 H 1354.5 2.34987 3.33534 0
M  V30 14296 H 1353.18 3.24167 2.60554 0
M  V30 14297 H 1351.75 1.58078 3.37736 0
M  V30 14298 N 1353.94 -0.993397 1.22349 0
M  V30 14299 C 1354.89 -2.10463 0.990358 0
M  V30 14300 C 1355.88 -1.6927 -0.0663528 0
M  V30 14301 O 1357.09 -1.79794 0.0860444 0
M  V30 14302 H 1353.46 -0.688222 0.303075 0
M  V30 14303 H 1355.43 -2.273 1.93333 0
M  V30 14304 C 1354.18 -3.42757 0.584205 0
M  V30 14305 H 1353.51 -3.74896 1.38899 0
M  V30 14306 H 1354.95 -4.21492 0.46049 0
M  V30 14307 C 1353.4 -3.29416 -0.706187 0
M  V30 14308 O 1353.93 -3.61152 -1.75875 0
M  V30 14309 N 1352.14 -2.82601 -0.677148 0
M  V30 14310 H 1351.69 -2.56972 0.179712 0
M  V30 14311 H 1351.65 -2.74056 -1.54081 0
M  V30 14312 N 1355.42 -1.03311 -1.19015 0
M  V30 14313 C 1356.65 -0.751802 -1.92758 0
M  V30 14314 C 1357.06 0.689982 -1.7574 0
M  V30 14315 O 1356.42 1.46961 -1.08207 0
M  V30 14316 C 1356.47 -1.09892 -3.44392 0
M  V30 14317 O 1356.19 -2.48409 -3.60866 0
M  V30 14318 C 1357.69 -0.841029 -4.35249 0
M  V30 14319 H 1354.91 -0.274757 -0.612168 0
M  V30 14320 H 1357.45 -1.37873 -1.51034 0
M  V30 14321 H 1355.61 -0.517092 -3.83933 0
M  V30 14322 H 1356.02 -2.61468 -4.54681 0
M  V30 14323 H 1357.5 -1.13383 -5.4023 0
M  V30 14324 H 1357.97 0.224434 -4.38626 0
M  V30 14325 H 1358.58 -1.40579 -4.01395 0
M  V30 14326 N 1356.9 1.35099 -0.81154 0
M  V30 14327 C 1357.86 2.28033 -0.230947 0
M  V30 14328 C 1358.86 1.49798 0.584575 0
M  V30 14329 O 1360.05 1.6949 0.402336 0
M  V30 14330 C 1357.18 3.341 0.677486 0
M  V30 14331 H 1358.37 2.80893 -1.05067 0
M  V30 14332 H 1355.93 1.45038 -0.582554 0
M  V30 14333 H 1356.66 2.86435 1.5207 0
M  V30 14334 H 1356.45 3.91986 0.0943563 0
M  V30 14335 H 1357.94 4.0345 1.07787 0
M  V30 14336 N 1358.37 0.56548 1.47106 0
M  V30 14337 C 1359.62 0.0445255 2.02451 0
M  V30 14338 C 1359.95 -1.30863 1.43893 0
M  V30 14339 O 1359.2 -1.8668 0.587274 0
M  V30 14340 C 1359.5 -0.0893776 3.57288 0
M  V30 14341 C 1359.17 1.19395 4.34805 0
M  V30 14342 C 1357.83 1.54558 4.55703 0
M  V30 14343 C 1360.18 2.04399 4.79448 0
M  V30 14344 C 1357.51 2.74557 5.18494 0
M  V30 14345 C 1359.86 3.23608 5.43563 0
M  V30 14346 C 1358.53 3.59074 5.62692 0
M  V30 14347 H 1357.8 0.016293 0.740821 0
M  V30 14348 H 1360.44 0.738657 1.76681 0
M  V30 14349 H 1358.75 -0.86653 3.82097 0
M  V30 14350 H 1360.45 -0.507943 3.9777 0
M  V30 14351 H 1357.04 0.910176 4.18824 0
M  V30 14352 H 1361.22 1.78539 4.63074 0
M  V30 14353 H 1356.48 3.02194 5.31497 0
M  V30 14354 H 1360.65 3.89755 5.77117 0
M  V30 14355 H 1358.28 4.5215 6.11117 0
M  V30 14356 N 1359.85 -1.54672 0.302354 0
M  V30 14357 C 1361.27 -1.59519 -0.0509899 0
M  V30 14358 C 1361.47 -1.31931 -1.52304 0
M  V30 14359 O 1360.52 -1.09338 -2.27599 0
M  V30 14360 C 1361.84 -2.98678 0.348168 0
M  V30 14361 C 1363.39 -3.11587 0.297046 0
M  V30 14362 C 1363.86 -4.53057 0.671046 0
M  V30 14363 N 1365.35 -4.58983 0.623633 0
M  V30 14364 C 1366.09 -5.66522 0.885476 0
M  V30 14365 N 1365.58 -6.82092 1.21336 0
M  V30 14366 N 1367.38 -5.56198 0.812448 0
M  V30 14367 H 1359.53 -1.70865 1.2617 0
M  V30 14368 H 1361.79 -0.798099 0.511608 0
M  V30 14369 H 1361.5 -3.23794 1.37297 0
M  V30 14370 H 1361.37 -3.76025 -0.297505 0
M  V30 14371 H 1363.76 -2.86219 -0.718515 0
M  V30 14372 H 1363.84 -2.36392 0.977361 0
M  V30 14373 H 1363.48 -4.79155 1.68442 0
M  V30 14374 H 1363.41 -5.26591 -0.0313537 0
M  V30 14375 H 1365.9 -3.75972 0.381203 0
M  V30 14376 H 1366.22 -7.6003 1.39909 0
M  V30 14377 H 1364.56 -6.83641 1.25141 0
M  V30 14378 H 1367.75 -4.64787 0.555939 0
M  V30 14379 H 1367.92 -6.39924 1.01988 0
M  V30 14380 N 1361.33 -0.0301034 -1.57571 0
M  V30 14381 C 1362.58 0.647042 -1.91462 0
M  V30 14382 C 1362.9 1.72612 -0.907206 0
M  V30 14383 O 1362.17 1.95833 0.0511268 0
M  V30 14384 H 1360.75 0.241988 -0.706718 0
M  V30 14385 H 1363.41 -0.0781385 -1.94743 0
M  V30 14386 H 1362.51 1.09915 -2.92105 0
M  V30 14387 N 1362.81 1.55714 0.243056 0
M  V30 14388 C 1364.06 1.77726 0.970555 0
M  V30 14389 C 1364.38 0.595108 1.85172 0
M  V30 14390 O 1363.64 -0.42143 1.91108 0
M  V30 14391 C 1363.94 3.05281 1.85845 0
M  V30 14392 C 1363.6 4.36451 1.13232 0
M  V30 14393 C 1362.27 4.72095 0.931656 0
M  V30 14394 C 1364.62 5.17524 0.617944 0
M  V30 14395 C 1361.95 5.86344 0.204373 0
M  V30 14396 C 1364.3 6.32527 -0.0958899 0
M  V30 14397 C 1362.96 6.66789 -0.308 0
M  V30 14398 H 1362.23 0.650345 0.355151 0
M  V30 14399 H 1364.88 1.89986 0.240351 0
M  V30 14400 H 1363.18 2.8805 2.65584 0
M  V30 14401 H 1364.88 3.19511 2.4231 0
M  V30 14402 H 1361.47 4.08451 1.29867 0
M  V30 14403 H 1365.65 4.90439 0.760507 0
M  V30 14404 H 1360.91 6.11393 0.0296 0
M  V30 14405 H 1365.08 6.94588 -0.502077 0
M  V30 14406 H 1362.71 7.55165 -0.873502 0
M  V30 14407 N 1364.29 -0.50888 1.49158 0
M  V30 14408 C 1365.53 -1.261 1.57934 0
M  V30 14409 C 1365.86 -1.93199 0.264405 0
M  V30 14410 O 1365.13 -1.82359 -0.715684 0
M  V30 14411 H 1363.71 -0.468421 0.581886 0
M  V30 14412 H 1366.37 -0.590447 1.85741 0
M  V30 14413 H 1365.46 -2.02913 2.37135 0
M  V30 14414 N 1365.76 -1.381 -0.759346 0
M  V30 14415 C 1367.01 -1.33992 -1.5183 0
M  V30 14416 C 1367.34 0.0718172 -1.94367 0
M  V30 14417 O 1366.59 1.0477 -1.65293 0
M  V30 14418 C 1366.89 -2.23636 -2.78786 0
M  V30 14419 C 1366.56 -3.71703 -2.5524 0
M  V30 14420 C 1365.22 -4.12053 -2.48528 0
M  V30 14421 C 1367.57 -4.65455 -2.34523 0
M  V30 14422 C 1364.9 -5.44252 -2.19105 0
M  V30 14423 C 1367.25 -5.97905 -2.06622 0
M  V30 14424 C 1365.92 -6.37345 -1.98362 0
M  V30 14425 H 1365.19 -0.490311 -0.555587 0
M  V30 14426 H 1367.83 -1.70411 -0.873637 0
M  V30 14427 H 1366.14 -1.80253 -3.47874 0
M  V30 14428 H 1367.84 -2.17764 -3.36719 0
M  V30 14429 H 1364.43 -3.3971 -2.61333 0
M  V30 14430 H 1368.61 -4.35132 -2.38691 0
M  V30 14431 H 1363.87 -5.73758 -2.11214 0
M  V30 14432 H 1368.04 -6.70095 -1.89594 0
M  V30 14433 H 1365.67 -7.39706 -1.75328 0
M  V30 14434 N 1367.24 0.986894 -1.22875 0
M  V30 14435 C 1368.65 1.54182 -1.05284 0
M  V30 14436 C 1369 1.92448 0.381856 0
M  V30 14437 O 1368.13 1.75381 1.26769 0
M  V30 14438 C 1368.72 2.80173 -1.90496 0
M  V30 14439 C 1367.28 3.32088 -1.77185 0
M  V30 14440 C 1366.43 2.05128 -1.86596 0
M  V30 14441 H 1369.38 0.807304 -1.36632 0
M  V30 14442 H 1369.4 3.52772 -1.42591 0
M  V30 14443 H 1368.91 2.52291 -2.94908 0
M  V30 14444 H 1367.02 3.64864 -0.755295 0
M  V30 14445 H 1367.13 4.02285 -2.60199 0
M  V30 14446 H 1365.49 2.18964 -1.30103 0
M  V30 14447 H 1366.28 1.79635 -2.92551 0
M  V30 14448 N 1368.72 1.0394 1.18466 0
M  V30 14449 C 1369.65 0.587413 2.21545 0
M  V30 14450 C 1370.67 -0.34227 1.59161 0
M  V30 14451 O 1371.85 -0.136988 1.77974 0
M  V30 14452 C 1368.95 -0.161999 3.38513 0
M  V30 14453 C 1368.13 0.775243 4.30475 0
M  V30 14454 C 1367.19 0.0693526 5.26154 0
M  V30 14455 O 1366.21 0.69937 5.64887 0
M  V30 14456 N 1367.41 -1.19773 5.68009 0
M  V30 14457 H 1370.18 1.47399 2.60948 0
M  V30 14458 H 1367.74 0.919734 1.33239 0
M  V30 14459 H 1369.73 -0.644041 3.99542 0
M  V30 14460 H 1368.3 -0.950099 2.97812 0
M  V30 14461 H 1367.52 1.43717 3.67068 0
M  V30 14462 H 1368.81 1.41187 4.88819 0
M  V30 14463 H 1368.21 -1.73013 5.38593 0
M  V30 14464 H 1366.77 -1.62407 6.31243 0
M  V30 14465 N 1370.2 -1.34667 0.818693 0
M  V30 14466 C 1371.16 -2.27908 0.243037 0
M  V30 14467 C 1372.16 -1.50106 -0.576622 0
M  V30 14468 O 1373.35 -1.69701 -0.393342 0
M  V30 14469 C 1370.48 -3.34455 -0.659759 0
M  V30 14470 H 1371.68 -2.80332 1.06555 0
M  V30 14471 H 1369.23 -1.44727 0.590237 0
M  V30 14472 H 1369.96 -2.87238 -1.50549 0
M  V30 14473 H 1369.75 -3.92031 -0.073567 0
M  V30 14474 H 1371.24 -4.04016 -1.05646 0
M  V30 14475 N 1371.68 -0.573274 -1.46804 0
M  V30 14476 C 1372.64 0.155066 -2.28675 0
M  V30 14477 C 1373.64 0.827706 -1.37861 0
M  V30 14478 O 1374.83 0.681105 -1.60333 0
M  V30 14479 C 1371.96 1.22864 -3.1799 0
M  V30 14480 H 1373.15 -0.564305 -2.94543 0
M  V30 14481 H 1370.71 -0.330855 -1.52758 0
M  V30 14482 H 1371.44 1.97989 -2.56848 0
M  V30 14483 H 1371.23 0.750936 -3.84842 0
M  V30 14484 H 1372.72 1.73974 -3.79635 0
M  V30 14485 N 1373.15 1.5451 -0.310553 0
M  V30 14486 C 1374.08 2.26827 0.554243 0
M  V30 14487 C 1375.07 1.27133 1.13009 0
M  V30 14488 O 1376.25 1.55923 1.15765 0
M  V30 14489 C 1373.38 3.01626 1.7216 0
M  V30 14490 C 1372.33 4.08547 1.27566 0
M  V30 14491 C 1371.66 4.71115 2.52893 0
M  V30 14492 C 1372.96 5.20766 0.399955 0
M  V30 14493 H 1374.65 2.9936 -0.0489475 0
M  V30 14494 H 1372.2 1.43978 -0.0249817 0
M  V30 14495 H 1374.15 3.50942 2.33276 0
M  V30 14496 H 1372.88 2.26688 2.35118 0
M  V30 14497 H 1371.54 3.60096 0.687499 0
M  V30 14498 H 1371.18 3.92805 3.14186 0
M  V30 14499 H 1370.88 5.43331 2.23752 0
M  V30 14500 H 1372.41 5.23198 3.14796 0
M  V30 14501 H 1373.82 5.65918 0.917054 0
M  V30 14502 H 1372.22 5.9976 0.2019 0
M  V30 14503 H 1373.29 4.81508 -0.572537 0
M  V30 14504 N 1374.63 0.0384594 1.57553 0
M  V30 14505 C 1375.88 -0.637533 1.91359 0
M  V30 14506 C 1376.2 -1.7275 0.91744 0
M  V30 14507 O 1377.4 -2.46078 1.14709 0
M  V30 14508 C 1375.86 -1.18526 3.39823 0
M  V30 14509 C 1375.47 -0.128086 4.47817 0
M  V30 14510 C 1377.21 -1.83723 3.82683 0
M  V30 14511 C 1375.12 -0.687978 5.87385 0
M  V30 14512 H 1374.05 -0.241898 0.714144 0
M  V30 14513 H 1376.7 0.105281 1.83198 0
M  V30 14514 H 1375.08 -1.97999 3.42947 0
M  V30 14515 H 1376.25 0.644865 4.56265 0
M  V30 14516 H 1374.57 0.425672 4.14219 0
M  V30 14517 H 1377.17 -2.26585 4.84317 0
M  V30 14518 H 1377.51 -2.68377 3.18244 0
M  V30 14519 H 1378.04 -1.10926 3.82021 0
M  V30 14520 H 1374.78 0.120642 6.55389 0
M  V30 14521 H 1374.3 -1.4292 5.82524 0
M  V30 14522 H 1375.98 -1.17483 6.36244 0
M  V30 14523 N 1376.11 -1.55841 -0.234795 0
M  V30 14524 C 1377.34 -1.82307 -0.978355 0
M  V30 14525 C 1377.75 -0.615825 -1.78474 0
M  V30 14526 O 1377.11 0.4156 -1.77705 0
M  V30 14527 C 1377.16 -3.07136 -1.90655 0
M  V30 14528 O 1376.88 -4.23202 -1.13278 0
M  V30 14529 C 1378.38 -3.46492 -2.76511 0
M  V30 14530 H 1375.6 -0.606361 -0.287345 0
M  V30 14531 H 1378.15 -2.02916 -0.254023 0
M  V30 14532 H 1376.3 -2.88542 -2.58501 0
M  V30 14533 H 1376.72 -4.94029 -1.76168 0
M  V30 14534 H 1378.19 -4.36908 -3.37366 0
M  V30 14535 H 1378.67 -2.67633 -3.48238 0
M  V30 14536 H 1379.27 -3.6748 -2.14099 0
M  V30 14537 N 1377.59 0.500963 -1.49426 0
M  V30 14538 C 1378.5 1.62889 -1.68833 0
M  V30 14539 C 1379.52 1.64367 -0.570932 0
M  V30 14540 O 1380.69 1.82786 -0.845641 0
M  V30 14541 C 1377.76 2.99255 -1.75063 0
M  V30 14542 C 1376.82 3.08404 -2.9864 0
M  V30 14543 C 1376.05 4.38266 -3.04564 0
M  V30 14544 O 1376.27 5.27065 -2.1808 0
M  V30 14545 O 1375.21 4.52387 -3.97026 0
M  V30 14546 H 1379.03 1.49446 -2.64385 0
M  V30 14547 H 1376.62 0.677254 -1.33168 0
M  V30 14548 H 1378.5 3.80303 -1.81515 0
M  V30 14549 H 1377.18 3.1296 -0.826896 0
M  V30 14550 H 1376.08 2.26544 -2.97706 0
M  V30 14551 H 1377.42 2.99626 -3.90494 0
M  V30 14552 N 1379.07 1.38501 0.752011 0
M  V30 14553 C 1380.29 1.38212 1.54636 0
M  V30 14554 C 1380.72 -0.0256356 1.88083 0
M  V30 14555 O 1380.08 -1.00812 1.50687 0
M  V30 14556 C 1380.12 2.24597 2.82114 0
M  V30 14557 O 1379.23 1.66415 3.77332 0
M  V30 14558 H 1378.57 0.47138 0.46765 0
M  V30 14559 H 1381.1 1.82283 0.929205 0
M  V30 14560 H 1381.11 2.38511 3.31023 0
M  V30 14561 H 1379.78 3.26913 2.57101 0
M  V30 14562 H 1378.36 1.61651 3.36041 0
M  V30 14563 N 1380.55 -0.980364 1.23396 0
M  V30 14564 C 1381.79 -1.73674 1.07781 0
M  V30 14565 C 1382.15 -1.88227 -0.378759 0
M  V30 14566 O 1383.35 -2.6067 -0.656092 0
M  V30 14567 C 1381.62 -3.09727 1.78337 0
M  V30 14568 S 1383.18 -4.00944 1.78295 0
M  V30 14569 H 1380 -0.597273 0.385728 0
M  V30 14570 H 1382.6 -1.17123 1.56533 0
M  V30 14571 H 1381.3 -2.96786 2.83455 0
M  V30 14572 H 1380.84 -3.71346 1.29868 0
M  V30 14573 H 1382.85 -4.89011 0.841572 0
M  V30 14574 N 1382.02 -1.04567 -1.17913 0
M  V30 14575 C 1383.27 -0.747179 -1.8735 0
M  V30 14576 C 1383.59 0.728274 -1.81537 0
M  V30 14577 O 1384.79 1.14048 -2.46385 0
M  V30 14578 C 1383.25 -1.28629 -3.36129 0
M  V30 14579 C 1382.86 -2.79073 -3.5046 0
M  V30 14580 C 1384.6 -1.06455 -4.10935 0
M  V30 14581 C 1382.51 -3.26316 -4.93226 0
M  V30 14582 H 1381.44 -0.275807 -0.701745 0
M  V30 14583 H 1384.09 -1.26215 -1.33199 0
M  V30 14584 H 1382.47 -0.699151 -3.89779 0
M  V30 14585 H 1383.64 -3.43587 -3.07057 0
M  V30 14586 H 1381.96 -2.99716 -2.89066 0
M  V30 14587 H 1384.56 -1.3926 -5.16247 0
M  V30 14588 H 1384.9 -0.00201298 -4.163 0
M  V30 14589 H 1385.43 -1.61656 -3.63472 0
M  V30 14590 H 1382.17 -4.31972 -4.93032 0
M  V30 14591 H 1381.69 -2.6654 -5.37323 0
M  V30 14592 H 1383.37 -3.2063 -5.61966 0
M  V30 14593 N 1383.5 1.34231 -0.825823 0
M  V30 14594 C 1384.73 2.02417 -0.428348 0
M  V30 14595 C 1385.14 1.62181 0.966573 0
M  V30 14596 O 1384.5 0.828691 1.62601 0
M  V30 14597 C 1384.55 3.57678 -0.524271 0
M  V30 14598 O 1384.27 3.96458 -1.86422 0
M  V30 14599 C 1385.77 4.43132 -0.122069 0
M  V30 14600 H 1382.99 0.648699 -0.171554 0
M  V30 14601 H 1385.54 1.71443 -1.11478 0
M  V30 14602 H 1383.69 3.87232 0.114112 0
M  V30 14603 H 1384.11 4.91147 -1.84051 0
M  V30 14604 H 1385.58 5.51477 -0.240264 0
M  V30 14605 H 1386.06 4.29139 0.934705 0
M  V30 14606 H 1386.66 4.18912 -0.734366 0
M  V30 14607 N 1384.98 0.581051 1.46498 0
M  V30 14608 C 1385.89 -0.155669 2.34083 0
M  V30 14609 C 1386.91 -0.887728 1.49651 0
M  V30 14610 O 1388.08 -0.851284 1.82524 0
M  V30 14611 C 1385.15 -1.15752 3.26806 0
M  V30 14612 C 1384.21 -0.43031 4.27138 0
M  V30 14613 C 1383.44 -1.38443 5.15431 0
M  V30 14614 O 1383.66 -2.62084 5.06624 0
M  V30 14615 O 1382.6 -0.89592 5.95195 0
M  V30 14616 H 1386.42 0.56341 2.98428 0
M  V30 14617 H 1384.01 0.341466 1.45445 0
M  V30 14618 H 1385.89 -1.73523 3.84015 0
M  V30 14619 H 1384.57 -1.85809 2.65059 0
M  V30 14620 H 1383.47 0.1892 3.73621 0
M  V30 14621 H 1384.81 0.229263 4.91666 0
M  V30 14622 N 1386.46 -1.54343 0.318742 0
M  V30 14623 C 1387.7 -2.00777 -0.285699 0
M  V30 14624 C 1388.04 -1.20664 -1.52164 0
M  V30 14625 O 1387.31 -0.287674 -1.92361 0
M  V30 14626 C 1387.59 -3.54641 -0.624649 0
M  V30 14627 C 1387.45 -4.45483 0.621663 0
M  V30 14628 C 1388.77 -4.15729 -1.4442 0
M  V30 14629 H 1385.89 -0.729856 -0.102367 0
M  V30 14630 H 1388.53 -1.84968 0.434364 0
M  V30 14631 H 1386.68 -3.68243 -1.23811 0
M  V30 14632 H 1388.35 -4.43759 1.25998 0
M  V30 14633 H 1386.59 -4.15356 1.25148 0
M  V30 14634 H 1387.26 -5.50951 0.340106 0
M  V30 14635 H 1389.74 -4.05672 -0.925699 0
M  V30 14636 H 1388.62 -5.23509 -1.65013 0
M  V30 14637 H 1388.88 -3.68743 -2.43887 0
M  V30 14638 N 1387.94 -0.0468143 -1.5753 0
M  V30 14639 C 1388.9 0.914225 -2.10177 0
M  V30 14640 C 1389.9 1.24271 -1.02045 0
M  V30 14641 O 1391.09 1.18012 -1.28136 0
M  V30 14642 C 1388.22 2.22544 -2.58238 0
M  V30 14643 H 1389.41 0.457922 -2.96383 0
M  V30 14644 H 1386.97 0.20152 -1.54995 0
M  V30 14645 H 1387.7 2.72765 -1.75413 0
M  V30 14646 H 1387.49 2.00007 -3.37253 0
M  V30 14647 H 1388.98 2.91392 -2.99133 0
M  V30 14648 N 1389.41 1.55964 0.226527 0
M  V30 14649 C 1390.38 1.91184 1.26418 0
M  V30 14650 C 1391.38 0.789982 1.40057 0
M  V30 14651 O 1392.57 1.05778 1.38407 0
M  V30 14652 C 1389.7 2.15826 2.63878 0
M  V30 14653 H 1390.89 2.83986 0.963956 0
M  V30 14654 H 1388.45 1.49169 0.466726 0
M  V30 14655 H 1389.18 1.2556 2.99007 0
M  V30 14656 H 1388.97 2.97549 2.55356 0
M  V30 14657 H 1390.46 2.44188 3.38765 0
M  V30 14658 N 1390.89 -0.493031 1.4969 0
M  V30 14659 C 1391.84 -1.59367 1.66945 0
M  V30 14660 C 1392.81 -1.58049 0.510842 0
M  V30 14661 O 1393.99 -1.75915 0.738822 0
M  V30 14662 C 1391.13 -2.97472 1.74941 0
M  V30 14663 C 1390.25 -3.08745 3.02159 0
M  V30 14664 C 1389.38 -4.37632 3.01085 0
M  V30 14665 C 1388.42 -4.42567 4.22849 0
M  V30 14666 N 1387.56 -5.62892 4.19639 0
M  V30 14667 H 1392.4 -1.4396 2.6092 0
M  V30 14668 H 1389.94 -0.700297 1.29361 0
M  V30 14669 H 1391.89 -3.7753 1.77558 0
M  V30 14670 H 1390.52 -3.11564 0.844252 0
M  V30 14671 H 1389.58 -2.217 3.09117 0
M  V30 14672 H 1390.89 -3.08251 3.92151 0
M  V30 14673 H 1390.04 -5.26018 3.02309 0
M  V30 14674 H 1388.78 -4.40702 2.08885 0
M  V30 14675 H 1387.79 -3.52581 4.21861 0
M  V30 14676 H 1389.01 -4.41205 5.1625 0
M  V30 14677 H 1386.96 -5.6679 3.30281 0
M  V30 14678 H 1386.87 -5.64048 5.03374 0
M  V30 14679 H 1388.14 -6.53464 4.24977 0
M  V30 14680 N 1392.37 -1.38898 -0.744656 0
M  V30 14681 C 1393.61 -1.37019 -1.51675 0
M  V30 14682 C 1393.97 0.0371033 -1.91964 0
M  V30 14683 O 1395.18 0.180835 -2.68191 0
M  V30 14684 C 1393.45 -2.30701 -2.72969 0
M  V30 14685 S 1395.01 -2.46922 -3.62733 0
M  V30 14686 H 1391.82 -0.486035 -0.518933 0
M  V30 14687 H 1394.43 -1.74906 -0.873384 0
M  V30 14688 H 1393.13 -3.31827 -2.41494 0
M  V30 14689 H 1392.66 -1.93994 -3.42242 0
M  V30 14690 H 1394.68 -1.69994 -4.66172 0
M  V30 14691 N 1393.85 0.973806 -1.23914 0
M  V30 14692 C 1395.1 1.71259 -1.07307 0
M  V30 14693 C 1395.42 1.91064 0.389831 0
M  V30 14694 O 1394.69 1.48401 1.27883 0
M  V30 14695 H 1393.27 0.634588 -0.39409 0
M  V30 14696 H 1395.93 1.17184 -1.55737 0
M  V30 14697 H 1395.03 2.69953 -1.56626 0
M  V30 14698 N 1395.33 1.05191 1.17357 0
M  V30 14699 C 1396.26 0.673931 2.23563 0
M  V30 14700 C 1397.24 -0.328284 1.66902 0
M  V30 14701 O 1398.42 -0.205878 1.93106 0
M  V30 14702 C 1395.55 0.0478801 3.47267 0
M  V30 14703 C 1394.51 0.974855 4.1675 0
M  V30 14704 C 1393.83 0.212684 5.34277 0
M  V30 14705 C 1395.13 2.299 4.68981 0
M  V30 14706 H 1396.83 1.56183 2.55436 0
M  V30 14707 H 1394.37 0.752408 1.2278 0
M  V30 14708 H 1396.33 -0.228343 4.20781 0
M  V30 14709 H 1395.05 -0.874963 3.14662 0
M  V30 14710 H 1393.71 1.23564 3.45148 0
M  V30 14711 H 1393.36 -0.712924 4.97922 0
M  V30 14712 H 1393.06 0.830351 5.81703 0
M  V30 14713 H 1394.58 -0.056255 6.10574 0
M  V30 14714 H 1395.99 2.08269 5.34132 0
M  V30 14715 H 1394.39 2.87064 5.26986 0
M  V30 14716 H 1395.46 2.93759 3.8579 0
M  V30 14717 N 1396.8 -1.33791 0.83293 0
M  V30 14718 C 1398.03 -2.0272 0.438111 0
M  V30 14719 C 1398.45 -1.62279 -0.951163 0
M  V30 14720 O 1397.81 -0.812406 -1.62079 0
M  V30 14721 C 1397.86 -3.5623 0.559698 0
M  V30 14722 O 1396.96 -4.10292 -0.41646 0
M  V30 14723 H 1396.31 -0.639438 0.178928 0
M  V30 14724 H 1398.84 -1.70821 1.12612 0
M  V30 14725 H 1398.85 -4.0563 0.439148 0
M  V30 14726 H 1397.52 -3.8501 1.5729 0
M  V30 14727 H 1396.1 -3.72034 -0.25396 0
M  V30 14728 N 1398.28 -0.588812 -1.46187 0
M  V30 14729 C 1399.69 -0.163897 -1.85979 0
M  V30 14730 C 1400.04 1.27458 -1.49161 0
M  V30 14731 O 1399.17 1.96365 -0.909372 0
M  V30 14732 C 1399.76 -0.29067 -3.37551 0
M  V30 14733 C 1398.32 0.0794165 -3.76316 0
M  V30 14734 C 1397.47 -0.623807 -2.70192 0
M  V30 14735 H 1400.42 -0.79666 -1.37255 0
M  V30 14736 H 1400.44 0.482316 -3.77431 0
M  V30 14737 H 1399.95 -1.33771 -3.64317 0
M  V30 14738 H 1398.06 1.12636 -3.55168 0
M  V30 14739 H 1398.17 -0.301153 -4.78153 0
M  V30 14740 H 1396.53 -0.0634124 -2.54621 0
M  V30 14741 H 1397.32 -1.67261 -2.99797 0
M  V30 14742 N 1399.76 1.54172 -0.326923 0
M  V30 14743 C 1400.67 2.28149 0.546351 0
M  V30 14744 C 1401.69 1.32628 1.12631 0
M  V30 14745 O 1402.86 1.65647 1.14556 0
M  V30 14746 C 1399.93 3.02742 1.68962 0
M  V30 14747 C 1398.99 4.13856 1.14112 0
M  V30 14748 C 1398.22 4.84882 2.2299 0
M  V30 14749 O 1398.44 4.55448 3.43399 0
M  V30 14750 O 1397.38 5.71714 1.8822 0
M  V30 14751 H 1401.2 3.03651 -0.0545288 0
M  V30 14752 H 1398.79 1.49113 -0.0925027 0
M  V30 14753 H 1400.67 3.49443 2.35515 0
M  V30 14754 H 1399.35 2.30113 2.27662 0
M  V30 14755 H 1398.25 3.71497 0.440579 0
M  V30 14756 H 1399.59 4.88539 0.599211 0
M  V30 14757 N 1401.24 0.0551678 1.57503 0
M  V30 14758 C 1402.19 -0.917847 2.11764 0
M  V30 14759 C 1403.16 -1.30624 1.02599 0
M  V30 14760 O 1404.34 -1.39501 1.30169 0
M  V30 14761 C 1401.48 -2.18599 2.67036 0
M  V30 14762 C 1400.59 -1.85173 3.90301 0
M  V30 14763 C 1399.73 -3.06475 4.33874 0
M  V30 14764 C 1398.77 -2.68988 5.49829 0
M  V30 14765 N 1397.9 -3.82997 5.88437 0
M  V30 14766 H 1402.74 -0.448236 2.9461 0
M  V30 14767 H 1400.28 -0.209619 1.45599 0
M  V30 14768 H 1402.24 -2.92811 2.97183 0
M  V30 14769 H 1400.87 -2.6313 1.86982 0
M  V30 14770 H 1399.92 -1.01094 3.66721 0
M  V30 14771 H 1401.23 -1.53582 4.74567 0
M  V30 14772 H 1400.39 -3.88982 4.65594 0
M  V30 14773 H 1399.13 -3.41247 3.48427 0
M  V30 14774 H 1398.13 -1.84899 5.17776 0
M  V30 14775 H 1399.36 -2.35404 6.36994 0
M  V30 14776 H 1397.3 -4.17562 5.05942 0
M  V30 14777 H 1397.22 -3.55118 6.67403 0
M  V30 14778 H 1398.49 -4.66131 6.24773 0
M  V30 14779 N 1402.72 -1.56081 -0.218252 0
M  V30 14780 C 1403.96 -1.79513 -0.943553 0
M  V30 14781 C 1404.3 -0.625367 -1.83855 0
M  V30 14782 O 1403.57 0.375226 -1.90846 0
M  V30 14783 C 1403.85 -3.13049 -1.77967 0
M  V30 14784 C 1403.71 -4.40479 -0.910939 0
M  V30 14785 C 1405.03 -3.43057 -2.7568 0
M  V30 14786 H 1402.14 -0.653057 -0.341593 0
M  V30 14787 H 1404.79 -1.88811 -0.212226 0
M  V30 14788 H 1402.94 -3.05254 -2.40318 0
M  V30 14789 H 1404.61 -4.60298 -0.303922 0
M  V30 14790 H 1402.85 -4.33259 -0.216513 0
M  V30 14791 H 1403.52 -5.3036 -1.53042 0
M  V30 14792 H 1406 -3.51002 -2.23465 0
M  V30 14793 H 1404.87 -4.37657 -3.31282 0
M  V30 14794 H 1405.14 -2.65389 -3.53584 0
M  V30 14795 N 1404.2 0.485086 -1.49949 0
M  V30 14796 C 1405.61 0.817651 -1.37064 0
M  V30 14797 C 1405.81 1.9716 -0.415949 0
M  V30 14798 O 1404.87 2.52074 0.146567 0
M  V30 14799 C 1406.18 1.14288 -2.78134 0
M  V30 14800 C 1407.73 1.25016 -2.8695 0
M  V30 14801 C 1408.2 1.60859 -4.28822 0
M  V30 14802 N 1409.69 1.67878 -4.31707 0
M  V30 14803 C 1410.43 1.97089 -5.38464 0
M  V30 14804 N 1409.93 2.24415 -6.55446 0
M  V30 14805 N 1411.72 1.98474 -5.25894 0
M  V30 14806 H 1403.87 -0.275606 -2.10604 0
M  V30 14807 H 1406.13 -0.0607486 -0.946052 0
M  V30 14808 H 1405.84 0.36817 -3.49768 0
M  V30 14809 H 1405.71 2.0825 -3.14502 0
M  V30 14810 H 1408.1 2.01556 -2.15544 0
M  V30 14811 H 1408.18 0.290664 -2.54143 0
M  V30 14812 H 1407.82 0.848639 -5.0076 0
M  V30 14813 H 1407.75 2.57936 -4.59104 0
M  V30 14814 H 1410.25 1.48856 -3.47347 0
M  V30 14815 H 1410.56 2.45938 -7.32622 0
M  V30 14816 H 1408.9 2.21837 -6.58645 0
M  V30 14817 H 1412.09 1.76612 -4.33504 0
M  V30 14818 H 1412.27 2.20904 -6.09184 0
M  V30 14819 N 1405.67 1.39291 0.737279 0
M  V30 14820 C 1406.92 1.35702 1.49224 0
M  V30 14821 C 1407.24 -0.0450282 1.95548 0
M  V30 14822 O 1408.44 -0.203495 2.70736 0
M  V30 14823 C 1406.9 2.38387 2.69629 0
M  V30 14824 C 1406.51 3.84295 2.30263 0
M  V30 14825 C 1408.25 2.4387 3.47459 0
M  V30 14826 C 1406.16 4.78626 3.47377 0
M  V30 14827 H 1405.09 0.50449 0.560362 0
M  V30 14828 H 1407.74 1.64926 0.804466 0
M  V30 14829 H 1406.12 2.0223 3.40469 0
M  V30 14830 H 1407.29 4.2948 1.66984 0
M  V30 14831 H 1405.61 3.82085 1.6553 0
M  V30 14832 H 1408.21 3.11539 4.34566 0
M  V30 14833 H 1408.55 1.46253 3.89764 0
M  V30 14834 H 1409.08 2.78908 2.83646 0
M  V30 14835 H 1405.82 5.77497 3.10124 0
M  V30 14836 H 1405.34 4.38123 4.09645 0
M  V30 14837 H 1407.02 4.9742 4.13742 0
M  V30 14838 N 1407.15 -0.967221 1.24429 0
M  V30 14839 C 1408.4 -1.70458 1.07829 0
M  V30 14840 C 1408.71 -1.91818 -0.38278 0
M  V30 14841 O 1409.92 -2.63129 -0.668982 0
M  V30 14842 C 1408.38 -3.06817 1.88125 0
M  V30 14843 C 1407.98 -2.93298 3.38645 0
M  V30 14844 C 1409.73 -3.84422 1.80056 0
M  V30 14845 C 1407.63 -4.2497 4.11284 0
M  V30 14846 H 1406.56 -0.639217 0.399897 0
M  V30 14847 H 1409.22 -1.07776 1.48515 0
M  V30 14848 H 1407.6 -3.70331 1.40254 0
M  V30 14849 H 1408.77 -2.38793 3.94099 0
M  V30 14850 H 1407.09 -2.29159 3.47671 0
M  V30 14851 H 1409.68 -4.81925 2.31629 0
M  V30 14852 H 1410.03 -4.09194 0.765908 0
M  V30 14853 H 1410.56 -3.27636 2.2561 0
M  V30 14854 H 1407.3 -4.05391 5.1511 0
M  V30 14855 H 1406.82 -4.79288 3.60615 0
M  V30 14856 H 1408.5 -4.93586 4.18308 0
M  V30 14857 N 1408.63 -1.05812 -1.16797 0
M  V30 14858 C 1409.58 -0.658636 -2.2308 0
M  V30 14859 C 1410.57 0.323104 -1.6629 0
M  V30 14860 O 1411.78 0.188492 -1.7901 0
M  V30 14861 H 1408.15 -0.194843 -0.72632 0
M  V30 14862 H 1410.12 -1.56501 -2.54067 0
M  V30 14863 C 1408.87 -0.0559428 -3.47655 0
M  V30 14864 H 1408.2 -0.802468 -3.91664 0
M  V30 14865 H 1409.64 0.186118 -4.23591 0
M  V30 14866 C 1408.09 1.19913 -3.14837 0
M  V30 14867 O 1408.62 2.28772 -3.30191 0
M  V30 14868 N 1406.83 1.09921 -2.69009 0
M  V30 14869 H 1406.38 0.213331 -2.56715 0
M  V30 14870 H 1406.34 1.93981 -2.47424 0
M  V30 14871 N 1410.11 1.33347 -0.840014 0
M  V30 14872 C 1411.04 2.27146 -0.219068 0
M  V30 14873 C 1412.02 1.4971 0.634472 0
M  V30 14874 O 1413.2 1.7888 0.594485 0
M  V30 14875 C 1410.33 3.31549 0.692312 0
M  V30 14876 C 1409.38 4.26413 -0.0859186 0
M  V30 14877 S 1410.21 5.15647 -1.44458 0
M  V30 14878 C 1411.36 6.23579 -0.538524 0
M  V30 14879 H 1411.6 2.79464 -1.01426 0
M  V30 14880 H 1409.13 1.40655 -0.636829 0
M  V30 14881 H 1411.09 3.92183 1.21254 0
M  V30 14882 H 1409.75 2.78044 1.46117 0
M  V30 14883 H 1408.94 5.00324 0.60762 0
M  V30 14884 H 1408.54 3.70121 -0.537243 0
M  V30 14885 H 1410.84 6.76989 0.263167 0
M  V30 14886 H 1411.78 6.97019 -1.24782 0
M  V30 14887 H 1412.19 5.64374 -0.119363 0
M  V30 14888 N 1411.59 0.596556 1.45873 0
M  V30 14889 C 1412.82 0.093357 2.06389 0
M  V30 14890 C 1413.22 -1.2229 1.44367 0
M  V30 14891 O 1412.57 -1.75332 0.548131 0
M  V30 14892 C 1412.63 -0.132256 3.59257 0
M  V30 14893 C 1412.29 1.10051 4.43551 0
M  V30 14894 C 1413.29 2.01598 4.79223 0
M  V30 14895 C 1410.97 1.32625 4.84475 0
M  V30 14896 C 1412.97 3.14054 5.54661 0
M  V30 14897 C 1410.66 2.45384 5.5967 0
M  V30 14898 C 1411.65 3.35927 5.94678 0
M  V30 14899 O 1411.34 4.46726 6.6835 0
M  V30 14900 H 1411.07 0.0608944 0.673252 0
M  V30 14901 H 1413.63 0.821009 1.88278 0
M  V30 14902 H 1411.86 -0.914678 3.75727 0
M  V30 14903 H 1413.55 -0.585681 4.01652 0
M  V30 14904 H 1414.31 1.85379 4.48174 0
M  V30 14905 H 1410.19 0.630522 4.56668 0
M  V30 14906 H 1413.74 3.8475 5.81904 0
M  V30 14907 H 1409.63 2.6156 5.90133 0
M  V30 14908 H 1410.4 4.45268 6.86789 0
M  V30 14909 N 1413.06 -1.53996 0.335095 0
M  V30 14910 C 1414.01 -2.24736 -0.52559 0
M  V30 14911 C 1414.98 -1.24244 -1.10239 0
M  V30 14912 O 1416.17 -1.52955 -1.14058 0
M  V30 14913 C 1413.31 -3.01732 -1.67487 0
M  V30 14914 C 1412.42 -4.17062 -1.1262 0
M  V30 14915 C 1411.55 -4.81563 -2.2421 0
M  V30 14916 C 1410.59 -5.88977 -1.6665 0
M  V30 14917 N 1409.73 -6.47293 -2.71949 0
M  V30 14918 H 1414.57 -2.97881 0.0842008 0
M  V30 14919 H 1412.11 -1.47003 0.0533254 0
M  V30 14920 H 1414.06 -3.44626 -2.35135 0
M  V30 14921 H 1412.69 -2.30899 -2.25578 0
M  V30 14922 H 1411.75 -3.78869 -0.340917 0
M  V30 14923 H 1413.06 -4.94346 -0.665113 0
M  V30 14924 H 1412.21 -5.27486 -2.9974 0
M  V30 14925 H 1410.95 -4.03685 -2.73659 0
M  V30 14926 H 1409.96 -5.42446 -0.89623 0
M  V30 14927 H 1411.18 -6.68758 -1.18064 0
M  V30 14928 H 1409.13 -5.72283 -3.20668 0
M  V30 14929 H 1409.04 -7.20024 -2.30438 0
M  V30 14930 H 1410.31 -6.97869 -3.47273 0
M  V30 14931 N 1414.54 -0.0635198 -1.57472 0
M  V30 14932 C 1415.45 0.921531 -2.15743 0
M  V30 14933 C 1416.47 1.33294 -1.11842 0
M  V30 14934 O 1417.64 1.40733 -1.4407 0
M  V30 14935 C 1414.71 2.17378 -2.70088 0
M  V30 14936 C 1413.77 1.81956 -3.88832 0
M  V30 14937 C 1413 3.01211 -4.40577 0
M  V30 14938 O 1413.23 4.14971 -3.9135 0
M  V30 14939 O 1412.16 2.81507 -5.32012 0
M  V30 14940 H 1415.99 0.455899 -3.00259 0
M  V30 14941 H 1413.57 0.159085 -1.48551 0
M  V30 14942 H 1415.45 2.90826 -3.04956 0
M  V30 14943 H 1414.13 2.63055 -1.88637 0
M  V30 14944 H 1413.03 1.05786 -3.58832 0
M  V30 14945 H 1414.37 1.41069 -4.71551 0
M  V30 14946 N 1416.02 1.56195 0.209972 0
M  V30 14947 C 1417.27 1.78941 0.930744 0
M  V30 14948 C 1417.58 0.634139 1.85035 0
M  V30 14949 O 1418.79 0.745524 2.61064 0
M  V30 14950 C 1417.24 3.16935 1.70529 0
M  V30 14951 C 1416.85 4.40221 0.83125 0
M  V30 14952 C 1418.6 3.49 2.41659 0
M  V30 14953 C 1416.5 5.69238 1.60381 0
M  V30 14954 H 1415.43 0.667176 0.351273 0
M  V30 14955 H 1418.08 1.82572 0.184341 0
M  V30 14956 H 1416.47 3.07513 2.49503 0
M  V30 14957 H 1417.64 4.60728 0.081227 0
M  V30 14958 H 1415.95 4.15756 0.231517 0
M  V30 14959 H 1418.55 4.42623 2.99982 0
M  V30 14960 H 1418.89 2.72042 3.15117 0
M  V30 14961 H 1419.43 3.59804 1.69665 0
M  V30 14962 H 1416.17 6.49121 0.912292 0
M  V30 14963 H 1415.69 5.52772 2.32815 0
M  V30 14964 H 1417.37 6.09827 2.16149 0
M  V30 14965 N 1417.5 -0.477127 1.50204 0
M  V30 14966 C 1418.77 -1.23837 1.51406 0
M  V30 14967 C 1419.15 -2.09551 0.255278 0
M  V30 14968 O 1418.5 -2.15437 -0.761535 0
M  V30 14969 C 1418.71 -2.0746 2.80644 0
M  V30 14970 C 1420.06 -2.65852 3.31071 0
M  V30 14971 O 1421.08 -2.17708 2.81925 0
M  V30 14972 O 1419.94 -3.53556 4.16726 0
M  V30 14973 H 1417.04 -0.561638 0.607036 0
M  V30 14974 H 1419.58 -0.489442 1.62489 0
M  V30 14975 H 1418.36 -1.44258 3.63738 0
M  V30 14976 H 1417.98 -2.895 2.72536 0
M  V30 14977 N 1418.98 -1.3968 -0.729882 0
M  V30 14978 C 1419.91 -1.34713 -1.85432 0
M  V30 14979 C 1420.92 -0.254999 -1.60791 0
M  V30 14980 O 1422.11 -0.514324 -1.7093 0
M  V30 14981 C 1419.21 -1.07019 -3.21559 0
M  V30 14982 C 1418.38 -2.27609 -3.73515 0
M  V30 14983 C 1417.44 -1.96292 -4.88217 0
M  V30 14984 O 1416.47 -2.69025 -5.01612 0
M  V30 14985 N 1417.67 -0.932181 -5.72967 0
M  V30 14986 H 1420.44 -2.31616 -1.90195 0
M  V30 14987 H 1418 -1.33849 -0.910834 0
M  V30 14988 H 1419.99 -0.84079 -3.9587 0
M  V30 14989 H 1418.56 -0.188323 -3.12032 0
M  V30 14990 H 1417.78 -2.66468 -2.90497 0
M  V30 14991 H 1419.07 -3.08033 -4.04961 0
M  V30 14992 H 1418.46 -0.329507 -5.6474 0
M  V30 14993 H 1417.02 -0.762684 -6.47322 0
M  V30 14994 N 1420.45 0.960609 -1.2494 0
M  V30 14995 C 1421.68 1.73928 -1.12057 0
M  V30 14996 C 1422.1 1.8596 0.32623 0
M  V30 14997 O 1421.45 1.35303 1.22472 0
M  V30 14998 C 1421.51 3.15614 -1.76267 0
M  V30 14999 O 1421.23 3.04177 -3.15291 0
M  V30 15000 C 1422.73 4.09786 -1.69086 0
M  V30 15001 H 1419.95 0.5452 -0.39115 0
M  V30 15002 H 1422.49 1.20556 -1.65186 0
M  V30 15003 H 1420.65 3.65949 -1.27123 0
M  V30 15004 H 1421.06 3.93513 -3.46768 0
M  V30 15005 H 1422.53 5.06835 -2.18683 0
M  V30 15006 H 1423.01 4.34312 -0.653453 0
M  V30 15007 H 1423.62 3.65365 -2.1769 0
M  V30 15008 N 1421.93 1.0643 1.16234 0
M  V30 15009 C 1423.34 0.806012 1.68405 0
M  V30 15010 C 1423.69 -0.670197 1.84398 0
M  V30 15011 O 1422.82 -1.51975 1.54054 0
M  V30 15012 C 1423.41 1.45654 3.05893 0
M  V30 15013 C 1421.97 1.24599 3.55179 0
M  V30 15014 C 1421.12 1.53216 2.31128 0
M  V30 15015 H 1424.07 1.22759 1.00578 0
M  V30 15016 H 1424.09 0.872616 3.70359 0
M  V30 15017 H 1423.6 2.53092 2.94221 0
M  V30 15018 H 1421.71 0.191407 3.72108 0
M  V30 15019 H 1421.82 1.95967 4.37188 0
M  V30 15020 H 1420.18 0.952755 2.36209 0
M  V30 15021 H 1420.97 2.61816 2.22052 0
M  V30 15022 N 1423.41 -1.329 0.847073 0
M  V30 15023 C 1424.64 -2.01418 0.459829 0
M  V30 15024 C 1425.05 -1.63857 -0.945921 0
M  V30 15025 O 1424.39 -0.851946 -1.6275 0
M  V30 15026 C 1424.45 -3.55859 0.510376 0
M  V30 15027 C 1424.12 -4.16824 1.87368 0
M  V30 15028 C 1425.11 -4.35602 2.83808 0
M  V30 15029 C 1422.8 -4.53067 2.16876 0
M  V30 15030 C 1424.79 -4.89782 4.07912 0
M  V30 15031 C 1422.48 -5.06953 3.41235 0
M  V30 15032 C 1423.48 -5.25258 4.36569 0
M  V30 15033 O 1423.17 -5.77995 5.58728 0
M  V30 15034 H 1422.9 -0.651608 0.179952 0
M  V30 15035 H 1425.45 -1.70624 1.14353 0
M  V30 15036 H 1423.68 -3.86015 -0.230145 0
M  V30 15037 H 1425.37 -4.05659 0.139804 0
M  V30 15038 H 1426.14 -4.07942 2.62313 0
M  V30 15039 H 1422.02 -4.3811 1.43461 0
M  V30 15040 H 1425.56 -5.03985 4.82333 0
M  V30 15041 H 1421.46 -5.34045 3.62583 0
M  V30 15042 H 1422.23 -5.96399 5.60581 0
M  V30 15043 N 1424.89 -0.604284 -1.45555 0
M  V30 15044 C 1425.84 0.116491 -2.30506 0
M  V30 15045 C 1426.81 0.863214 -1.41908 0
M  V30 15046 O 1427.99 0.849606 -1.7084 0
M  V30 15047 C 1425.13 1.11009 -3.26758 0
M  V30 15048 C 1424.24 0.36458 -4.30459 0
M  V30 15049 C 1423.38 1.34761 -5.13822 0
M  V30 15050 C 1422.42 0.589724 -6.09253 0
M  V30 15051 N 1421.55 1.52187 -6.85408 0
M  V30 15052 H 1426.39 -0.61394 -2.91607 0
M  V30 15053 H 1423.93 -0.314561 -1.43697 0
M  V30 15054 H 1425.89 1.69925 -3.81027 0
M  V30 15055 H 1424.52 1.80797 -2.67418 0
M  V30 15056 H 1423.57 -0.340026 -3.78877 0
M  V30 15057 H 1424.88 -0.226906 -4.98284 0
M  V30 15058 H 1424.04 2.00893 -5.72474 0
M  V30 15059 H 1422.78 1.97302 -4.46008 0
M  V30 15060 H 1421.78 -0.0852486 -5.49734 0
M  V30 15061 H 1423.01 -0.0306001 -6.79093 0
M  V30 15062 H 1420.95 2.13499 -6.20286 0
M  V30 15063 H 1420.87 0.983737 -7.49572 0
M  V30 15064 H 1422.14 2.17287 -7.48603 0
M  V30 15065 N 1426.37 1.53816 -0.343257 0
M  V30 15066 C 1427.3 2.22552 0.548015 0
M  V30 15067 C 1428.31 1.23202 1.06419 0
M  V30 15068 O 1429.5 1.49559 0.974394 0
M  V30 15069 C 1426.6 2.89197 1.76687 0
M  V30 15070 C 1425.77 4.14859 1.38603 0
M  V30 15071 C 1424.83 4.64917 2.46453 0
M  V30 15072 O 1423.86 5.29135 2.09773 0
M  V30 15073 N 1425.06 4.4082 3.77701 0
M  V30 15074 H 1427.83 2.99672 -0.040645 0
M  V30 15075 H 1425.39 1.61033 -0.167368 0
M  V30 15076 H 1427.38 3.19601 2.48268 0
M  V30 15077 H 1425.95 2.15664 2.26291 0
M  V30 15078 H 1425.17 3.91003 0.501001 0
M  V30 15079 H 1426.46 4.96599 1.10756 0
M  V30 15080 H 1425.85 3.8946 4.1029 0
M  V30 15081 H 1424.41 4.7583 4.45453 0
M  V30 15082 N 1427.84 0.0718701 1.57436 0
M  V30 15083 C 1428.75 -0.910077 2.16229 0
M  V30 15084 C 1429.77 -1.32699 1.12548 0
M  V30 15085 O 1430.95 -1.39967 1.44814 0
M  V30 15086 C 1428.01 -2.15942 2.71238 0
M  V30 15087 C 1427.07 -1.79891 3.89792 0
M  V30 15088 C 1426.31 -2.9887 4.42168 0
M  V30 15089 O 1426.53 -4.1289 3.93545 0
M  V30 15090 O 1425.46 -2.78682 5.33498 0
M  V30 15091 H 1429.29 -0.439969 3.00496 0
M  V30 15092 H 1426.87 -0.151204 1.48633 0
M  V30 15093 H 1428.76 -2.89204 3.06494 0
M  V30 15094 H 1427.43 -2.62051 1.90029 0
M  V30 15095 H 1426.34 -1.03881 3.59388 0
M  V30 15096 H 1427.67 -1.38566 4.72293 0
M  V30 15097 N 1429.32 -1.56304 -0.201686 0
M  V30 15098 C 1430.57 -1.79433 -0.921241 0
M  V30 15099 C 1430.88 -0.643943 -1.84696 0
M  V30 15100 O 1432.09 -0.759359 -2.60665 0
M  V30 15101 C 1430.55 -3.17835 -1.68846 0
M  V30 15102 C 1430.15 -4.40655 -0.807892 0
M  V30 15103 C 1431.9 -3.50277 -2.39805 0
M  V30 15104 C 1429.81 -5.7008 -1.5736 0
M  V30 15105 H 1428.74 -0.669029 -0.34773 0
M  V30 15106 H 1431.39 -1.82667 -0.174657 0
M  V30 15107 H 1429.77 -3.08832 -2.47869 0
M  V30 15108 H 1430.94 -4.60765 -0.0567923 0
M  V30 15109 H 1429.26 -4.15873 -0.209465 0
M  V30 15110 H 1431.85 -4.44207 -2.97631 0
M  V30 15111 H 1432.2 -2.7371 -3.1367 0
M  V30 15112 H 1432.73 -3.60698 -1.67754 0
M  V30 15113 H 1429.47 -6.49595 -0.877855 0
M  V30 15114 H 1428.99 -5.53999 -2.2988 0
M  V30 15115 H 1430.67 -6.10964 -2.12912 0
M  V30 15116 N 1430.8 0.469154 -1.50455 0
M  V30 15117 C 1431.75 1.58765 -1.6999 0
M  V30 15118 C 1432.74 1.59673 -0.56577 0
M  V30 15119 O 1433.95 1.63799 -0.74632 0
M  V30 15120 H 1430.32 0.526868 -0.536577 0
M  V30 15121 H 1432.29 1.39451 -2.6381 0
M  V30 15122 C 1431.04 2.9669 -1.81302 0
M  V30 15123 H 1430.37 2.96711 -2.67961 0
M  V30 15124 H 1431.81 3.74403 -1.98994 0
M  V30 15125 C 1430.27 3.32127 -0.565086 0
M  V30 15126 O 1430.8 4.00616 0.294873 0
M  V30 15127 N 1429 2.8757 -0.418537 0
M  V30 15128 H 1428.55 2.32008 -1.11938 0
M  V30 15129 H 1428.51 3.11645 0.415276 0
M  V30 15130 N 1432.28 1.40065 0.722464 0
M  V30 15131 C 1433.24 1.39544 1.81825 0
M  V30 15132 C 1434.24 0.290385 1.58156 0
M  V30 15133 O 1435.43 0.54894 1.65325 0
M  V30 15134 C 1432.56 1.18041 3.19811 0
M  V30 15135 H 1433.76 2.37063 1.83687 0
M  V30 15136 H 1431.31 1.25813 0.927404 0
M  V30 15137 H 1432.04 0.212536 3.23603 0
M  V30 15138 H 1431.83 1.98079 3.38389 0
M  V30 15139 H 1433.32 1.20447 3.99853 0
M  V30 15140 N 1433.76 -0.95397 1.25448 0
M  V30 15141 C 1434.7 -2.05075 1.0589 0
M  V30 15142 C 1435.67 -1.66069 -0.0321545 0
M  V30 15143 O 1436.86 -1.90389 0.125152 0
M  V30 15144 C 1434 -3.38246 0.684391 0
M  V30 15145 C 1433.11 -3.90366 1.85037 0
M  V30 15146 C 1432.25 -5.11864 1.42016 0
M  V30 15147 C 1431.29 -5.56214 2.55523 0
M  V30 15148 N 1430.42 -6.68924 2.13272 0
M  V30 15149 H 1435.26 -2.21137 1.99755 0
M  V30 15150 H 1432.8 -1.08366 0.994742 0
M  V30 15151 H 1434.76 -4.14785 0.448209 0
M  V30 15152 H 1433.39 -3.22068 -0.217273 0
M  V30 15153 H 1432.44 -3.1034 2.19984 0
M  V30 15154 H 1433.75 -4.19228 2.70276 0
M  V30 15155 H 1432.91 -5.95823 1.14366 0
M  V30 15156 H 1431.65 -4.84718 0.538492 0
M  V30 15157 H 1430.65 -4.7082 2.83916 0
M  V30 15158 H 1431.88 -5.85368 3.44268 0
M  V30 15159 H 1429.82 -6.43486 1.27523 0
M  V30 15160 H 1429.74 -6.97307 2.92059 0
M  V30 15161 H 1431.01 -7.5629 1.88801 0
M  V30 15162 N 1435.24 -1.07045 -1.15668 0
M  V30 15163 C 1436.18 -0.68226 -2.22369 0
M  V30 15164 C 1437.18 0.305448 -1.66623 0
M  V30 15165 O 1438.38 0.169495 -1.792 0
M  V30 15166 H 1434.76 -0.202536 -0.724212 0
M  V30 15167 H 1436.73 -1.59187 -2.52393 0
M  V30 15168 C 1435.48 -0.0928131 -3.47576 0
M  V30 15169 H 1434.8 -0.843964 -3.90791 0
M  V30 15170 H 1436.24 0.14118 -4.23765 0
M  V30 15171 C 1434.7 1.16567 -3.16091 0
M  V30 15172 O 1435.23 2.25257 -3.32599 0
M  V30 15173 N 1433.44 1.07061 -2.7016 0
M  V30 15174 H 1432.98 0.186091 -2.56927 0
M  V30 15175 H 1432.94 1.91346 -2.49468 0
M  V30 15176 N 1436.71 1.32449 -0.85411 0
M  V30 15177 C 1437.64 2.31383 -0.313697 0
M  V30 15178 C 1438.62 1.59656 0.586858 0
M  V30 15179 O 1439.81 1.87459 0.507216 0
M  V30 15180 C 1436.94 3.43693 0.499235 0
M  V30 15181 C 1435.89 4.26899 -0.306839 0
M  V30 15182 C 1435.22 5.30966 0.630795 0
M  V30 15183 C 1436.52 4.99318 -1.53229 0
M  V30 15184 H 1438.21 2.76832 -1.14037 0
M  V30 15185 H 1435.76 1.33091 -0.549805 0
M  V30 15186 H 1437.71 4.11944 0.887709 0
M  V30 15187 H 1436.44 2.96971 1.35926 0
M  V30 15188 H 1435.1 3.60294 -0.677061 0
M  V30 15189 H 1434.74 4.80498 1.48765 0
M  V30 15190 H 1434.44 5.87522 0.0954635 0
M  V30 15191 H 1435.97 6.0208 1.01646 0
M  V30 15192 H 1437.38 5.60253 -1.21614 0
M  V30 15193 H 1435.78 5.65596 -2.00552 0
M  V30 15194 H 1436.85 4.27213 -2.29383 0
M  V30 15195 N 1438.19 0.611994 1.45232 0
M  V30 15196 C 1439.44 0.106467 2.01419 0
M  V30 15197 C 1439.75 -1.2723 1.48566 0
M  V30 15198 O 1440.96 -1.8708 1.96757 0
M  V30 15199 C 1439.42 0.139639 3.59629 0
M  V30 15200 C 1439.02 1.51853 4.21479 0
M  V30 15201 C 1440.77 -0.310417 4.23364 0
M  V30 15202 C 1438.67 1.50785 5.71855 0
M  V30 15203 H 1437.6 0.0360345 0.753138 0
M  V30 15204 H 1440.26 0.767974 1.66657 0
M  V30 15205 H 1438.64 -0.588606 3.91601 0
M  V30 15206 H 1439.81 2.26884 4.01074 0
M  V30 15207 H 1438.13 1.91105 3.69956 0
M  V30 15208 H 1440.72 -0.337656 5.33633 0
M  V30 15209 H 1441.07 -1.33398 3.94348 0
M  V30 15210 H 1441.6 0.364704 3.96125 0
M  V30 15211 H 1438.34 2.50916 6.05575 0
M  V30 15212 H 1437.86 0.800195 5.94438 0
M  V30 15213 H 1439.54 1.23341 6.35135 0
M  V30 15214 N 1439.67 -1.53632 0.351409 0
M  V30 15215 C 1440.6 -2.2284 -0.536204 0
M  V30 15216 C 1441.61 -1.23765 -1.05764 0
M  V30 15217 O 1442.8 -1.50073 -0.966449 0
M  V30 15218 C 1439.9 -2.9013 -1.75151 0
M  V30 15219 C 1439.08 -4.15588 -1.36401 0
M  V30 15220 C 1438.14 -4.66217 -2.43984 0
M  V30 15221 O 1437.16 -5.3024 -2.06964 0
M  V30 15222 N 1438.36 -4.42817 -3.75358 0
M  V30 15223 H 1441.13 -2.99647 0.0565368 0
M  V30 15224 H 1438.69 -1.60942 0.175905 0
M  V30 15225 H 1440.68 -3.20913 -2.4657 0
M  V30 15226 H 1439.25 -2.16862 -2.25144 0
M  V30 15227 H 1438.47 -3.91264 -0.480258 0
M  V30 15228 H 1439.76 -4.97179 -1.08121 0
M  V30 15229 H 1439.16 -3.9163 -4.08218 0
M  V30 15230 H 1437.71 -4.78186 -4.42924 0
M  V30 15231 N 1441.15 -0.0802183 -1.57396 0
M  V30 15232 C 1442.39 0.590512 -1.95684 0
M  V30 15233 C 1442.75 1.66265 -0.960199 0
M  V30 15234 O 1443.95 2.38954 -1.23104 0
M  V30 15235 C 1442.22 1.14486 -3.38567 0
M  V30 15236 S 1443.78 1.82954 -3.9884 0
M  V30 15237 H 1440.6 0.193123 -0.684269 0
M  V30 15238 H 1443.2 -0.156081 -1.94876 0
M  V30 15239 H 1441.91 0.352828 -4.08881 0
M  V30 15240 H 1441.44 1.92762 -3.42938 0
M  V30 15241 H 1443.45 3.11265 -3.86431 0
M  V30 15242 N 1442.63 1.56409 0.193394 0
M  V30 15243 C 1443.87 1.81892 0.910313 0
M  V30 15244 C 1444.23 0.65752 1.80816 0
M  V30 15245 O 1443.52 -0.347215 1.88428 0
M  V30 15246 C 1443.71 3.11039 1.76039 0
M  V30 15247 C 1443.54 4.3963 0.946334 0
M  V30 15248 C 1442.31 5.01356 0.63009 0
M  V30 15249 C 1444.51 5.13435 0.298238 0
M  V30 15250 N 1442.49 6.13566 -0.202417 0
M  V30 15251 C 1443.86 6.18732 -0.396395 0
M  V30 15252 C 1445.92 4.97439 0.214139 0
M  V30 15253 C 1444.62 7.09768 -1.16712 0
M  V30 15254 C 1446.65 5.889 -0.543193 0
M  V30 15255 C 1446.01 6.93644 -1.22627 0
M  V30 15256 H 1442.11 0.71687 0.312445 0
M  V30 15257 H 1444.69 1.93876 0.178914 0
M  V30 15258 H 1442.86 3.00287 2.46338 0
M  V30 15259 H 1444.6 3.24603 2.41692 0
M  V30 15260 H 1441.35 4.63873 0.954919 0
M  V30 15261 H 1441.77 6.74261 -0.608331 0
M  V30 15262 H 1446.42 4.16487 0.727891 0
M  V30 15263 H 1444.13 7.90182 -1.6923 0
M  V30 15264 H 1447.72 5.78597 -0.609642 0
M  V30 15265 H 1446.6 7.63194 -1.8029 0
M  V30 15266 N 1444.1 -0.461169 1.50702 0
M  V30 15267 C 1445.52 -0.795741 1.38348 0
M  V30 15268 C 1445.72 -1.96473 0.447263 0
M  V30 15269 O 1444.78 -2.52276 -0.106445 0
M  V30 15270 C 1446.09 -1.09849 2.79917 0
M  V30 15271 C 1447.64 -1.20435 2.88902 0
M  V30 15272 C 1448.11 -1.54017 4.31327 0
M  V30 15273 N 1449.6 -1.60989 4.34323 0
M  V30 15274 C 1450.34 -1.88498 5.41531 0
M  V30 15275 N 1449.83 -2.13959 6.58933 0
M  V30 15276 N 1451.63 -1.90082 5.28985 0
M  V30 15277 H 1443.78 0.309076 2.10139 0
M  V30 15278 H 1446.04 0.0757918 0.944965 0
M  V30 15279 H 1445.75 -0.312479 3.50309 0
M  V30 15280 H 1445.62 -2.03221 3.17775 0
M  V30 15281 H 1448.01 -1.98102 2.18723 0
M  V30 15282 H 1448.09 -0.250195 2.54573 0
M  V30 15283 H 1447.73 -0.768865 5.02047 0
M  V30 15284 H 1447.66 -2.50599 4.6315 0
M  V30 15285 H 1450.15 -1.43312 3.49672 0
M  V30 15286 H 1450.47 -2.34251 7.36442 0
M  V30 15287 H 1448.81 -2.11331 6.62091 0
M  V30 15288 H 1452 -1.69693 4.36259 0
M  V30 15289 H 1452.18 -2.11184 6.12622 0
M  V30 15290 N 1445.58 -1.40446 -0.715026 0
M  V30 15291 C 1446.49 -1.43074 -1.85922 0
M  V30 15292 C 1447.51 -0.323294 -1.7097 0
M  V30 15293 O 1448.68 -0.567966 -1.93226 0
M  V30 15294 C 1445.75 -1.29206 -3.21725 0
M  V30 15295 C 1444.81 -2.50097 -3.48927 0
M  V30 15296 C 1444.04 -2.36881 -4.7825 0
M  V30 15297 O 1444.27 -1.38292 -5.53382 0
M  V30 15298 O 1443.2 -3.26266 -5.058 0
M  V30 15299 H 1447.03 -2.39565 -1.86661 0
M  V30 15300 H 1444.61 -1.21775 -0.865522 0
M  V30 15301 H 1446.49 -1.23681 -4.02841 0
M  V30 15302 H 1445.17 -0.358207 -3.21712 0
M  V30 15303 H 1444.07 -2.61199 -2.67817 0
M  V30 15304 H 1445.41 -3.42244 -3.53737 0
M  V30 15305 N 1447.06 0.947303 -1.25952 0
M  V30 15306 C 1448.3 1.70755 -1.12348 0
M  V30 15307 C 1448.66 1.89165 0.328721 0
M  V30 15308 O 1449.86 2.62318 0.586749 0
M  V30 15309 C 1448.14 3.04889 -1.86486 0
M  V30 15310 S 1449.69 3.96076 -1.88863 0
M  V30 15311 H 1446.51 0.586836 -0.401428 0
M  V30 15312 H 1449.11 1.12932 -1.59583 0
M  V30 15313 H 1447.82 2.89166 -2.91224 0
M  V30 15314 H 1447.35 3.67772 -1.39668 0
M  V30 15315 H 1449.36 4.86608 -0.970929 0
M  V30 15316 N 1448.54 1.07657 1.15099 0
M  V30 15317 C 1449.47 0.643791 2.18931 0
M  V30 15318 C 1450.45 -0.340546 1.58994 0
M  V30 15319 O 1451.63 -0.24623 1.86885 0
M  V30 15320 C 1448.76 -0.0541901 3.38657 0
M  V30 15321 C 1447.81 0.889081 4.1713 0
M  V30 15322 S 1448.64 2.39173 4.79121 0
M  V30 15323 C 1449.8 1.70563 6.02212 0
M  V30 15324 H 1450.03 1.52342 2.55302 0
M  V30 15325 H 1447.56 0.890824 1.2611 0
M  V30 15326 H 1449.52 -0.45064 4.08019 0
M  V30 15327 H 1448.18 -0.910208 3.00623 0
M  V30 15328 H 1447.37 0.347484 5.02801 0
M  V30 15329 H 1446.98 1.22606 3.53332 0
M  V30 15330 H 1449.27 1.01914 6.69791 0
M  V30 15331 H 1450.21 2.54078 6.60946 0
M  V30 15332 H 1450.62 1.18228 5.51981 0
M  V30 15333 N 1450.02 -1.31994 0.861122 0
M  V30 15334 C 1450.98 -2.27019 0.315421 0
M  V30 15335 C 1451.98 -1.51864 -0.528575 0
M  V30 15336 O 1453.17 -1.70867 -0.339154 0
M  V30 15337 C 1450.3 -3.36384 -0.553021 0
M  V30 15338 H 1451.49 -2.768 1.1542 0
M  V30 15339 H 1449.05 -1.42776 0.635982 0
M  V30 15340 H 1449.78 -2.91882 -1.41335 0
M  V30 15341 H 1449.57 -3.92067 0.0511919 0
M  V30 15342 H 1451.06 -4.07172 -0.927392 0
M  V30 15343 N 1451.49 -0.619688 -1.44906 0
M  V30 15344 C 1452.43 0.141137 -2.27763 0
M  V30 15345 C 1453.41 0.862176 -1.3786 0
M  V30 15346 O 1454.59 0.868593 -1.67295 0
M  V30 15347 C 1451.72 1.20547 -3.16522 0
M  V30 15348 C 1450.76 0.586228 -4.22452 0
M  V30 15349 S 1451.6 -0.615067 -5.31956 0
M  V30 15350 C 1452.75 0.449556 -6.24283 0
M  V30 15351 H 1452.98 -0.561806 -2.91944 0
M  V30 15352 H 1450.52 -0.407535 -1.48925 0
M  V30 15353 H 1452.48 1.81463 -3.68214 0
M  V30 15354 H 1451.14 1.88054 -2.51584 0
M  V30 15355 H 1450.33 1.38744 -4.84527 0
M  V30 15356 H 1449.93 0.0519375 -3.73964 0
M  V30 15357 H 1452.22 1.32531 -6.64411 0
M  V30 15358 H 1453.17 -0.135328 -7.07971 0
M  V30 15359 H 1453.57 0.770319 -5.59219 0
M  V30 15360 N 1452.97 1.53444 -0.359552 0
M  V30 15361 C 1454.2 2.06058 0.235576 0
M  V30 15362 C 1454.62 1.23175 1.42161 0
M  V30 15363 O 1453.98 0.249338 1.79577 0
M  V30 15364 C 1454.03 3.55351 0.613025 0
M  V30 15365 O 1453.13 3.75229 1.71104 0
M  V30 15366 H 1452.47 0.663038 0.0357266 0
M  V30 15367 H 1455 1.97923 -0.518408 0
M  V30 15368 H 1455.01 3.9827 0.885722 0
M  V30 15369 H 1453.69 4.15122 -0.254243 0
M  V30 15370 H 1452.27 3.4421 1.43437 0
M  V30 15371 N 1454.45 0.0885642 1.57351 0
M  V30 15372 C 1455.68 -0.588641 1.98871 0
M  V30 15373 C 1456.1 -1.61333 0.967125 0
M  V30 15374 O 1455.46 -1.81183 -0.0652149 0
M  V30 15375 C 1455.51 -1.21877 3.39379 0
M  V30 15376 O 1454.61 -2.33462 3.39955 0
M  V30 15377 H 1453.95 -0.149938 0.64685 0
M  V30 15378 H 1456.48 0.168043 2.03909 0
M  V30 15379 H 1456.49 -1.56163 3.76931 0
M  V30 15380 H 1455.17 -0.468037 4.13258 0
M  V30 15381 H 1453.74 -2.00844 3.14191 0
M  V30 15382 N 1455.93 -1.56509 -0.185096 0
M  V30 15383 C 1457.16 -1.85058 -0.918527 0
M  V30 15384 C 1457.57 -0.670181 -1.76933 0
M  V30 15385 O 1456.91 0.370215 -1.79931 0
M  V30 15386 C 1456.97 -3.07843 -1.85669 0
M  V30 15387 C 1456.64 -4.41319 -1.18686 0
M  V30 15388 C 1457.63 -5.16887 -0.558946 0
M  V30 15389 C 1455.32 -4.88056 -1.18773 0
M  V30 15390 C 1457.31 -6.37373 0.0591595 0
M  V30 15391 C 1455 -6.08475 -0.565791 0
M  V30 15392 C 1456 -6.82977 0.0565621 0
M  V30 15393 O 1455.68 -8.01114 0.668726 0
M  V30 15394 H 1455.42 -0.618423 -0.273001 0
M  V30 15395 H 1457.97 -2.04479 -0.194261 0
M  V30 15396 H 1456.2 -2.84332 -2.62092 0
M  V30 15397 H 1457.89 -3.22954 -2.45877 0
M  V30 15398 H 1458.66 -4.81867 -0.550347 0
M  V30 15399 H 1454.53 -4.30016 -1.66154 0
M  V30 15400 H 1458.08 -6.95464 0.545534 0
M  V30 15401 H 1453.98 -6.42961 -0.571927 0
M  V30 15402 H 1454.74 -8.16536 0.566616 0
M  V30 15403 N 1457.41 0.45317 -1.50944 0
M  V30 15404 C 1458.63 1.23136 -1.6689 0
M  V30 15405 C 1459.06 1.84639 -0.359185 0
M  V30 15406 O 1458.41 1.68106 0.678983 0
M  V30 15407 C 1458.46 2.30275 -2.77499 0
M  V30 15408 O 1457.57 3.35371 -2.39999 0
M  V30 15409 H 1456.91 0.361475 -0.556984 0
M  V30 15410 H 1459.44 0.537174 -1.97422 0
M  V30 15411 H 1459.45 2.75309 -3.01113 0
M  V30 15412 H 1458.12 1.84885 -3.72546 0
M  V30 15413 H 1456.7 2.95924 -2.26899 0
M  V30 15414 N 1458.88 1.40823 0.707568 0
M  V30 15415 C 1459.81 1.44485 1.83429 0
M  V30 15416 C 1460.8 0.304848 1.67346 0
M  V30 15417 O 1461.98 0.514605 1.87258 0
M  V30 15418 C 1459.11 1.31458 3.21459 0
M  V30 15419 C 1458.06 2.43145 3.52228 0
M  V30 15420 C 1457.39 2.15189 4.89487 0
M  V30 15421 C 1458.69 3.85489 3.52414 0
M  V30 15422 H 1460.38 2.38781 1.80622 0
M  V30 15423 H 1457.93 1.14931 0.867572 0
M  V30 15424 H 1459.88 1.32635 3.99983 0
M  V30 15425 H 1458.61 0.336422 3.24863 0
M  V30 15426 H 1457.27 2.41231 2.76049 0
M  V30 15427 H 1456.91 1.15745 4.89502 0
M  V30 15428 H 1456.61 2.90022 5.11039 0
M  V30 15429 H 1458.14 2.18062 5.70334 0
M  V30 15430 H 1459.55 3.89183 4.20963 0
M  V30 15431 H 1457.95 4.59906 3.85495 0
M  V30 15432 H 1459.02 4.14499 2.51632 0
M  V30 15433 N 1460.36 -0.94061 1.26453 0
M  V30 15434 C 1461.78 -1.21424 1.03578 0
M  V30 15435 C 1461.98 -2.00081 -0.238726 0
M  V30 15436 O 1461.03 -2.3404 -0.947709 0
M  V30 15437 C 1462.35 -1.97496 2.26751 0
M  V30 15438 C 1463.9 -2.10485 2.31657 0
M  V30 15439 C 1464.37 -2.89959 3.54525 0
M  V30 15440 N 1465.86 -2.97533 3.55005 0
M  V30 15441 C 1466.6 -3.59456 4.46742 0
M  V30 15442 N 1466.09 -4.22876 5.48769 0
M  V30 15443 N 1467.89 -3.56734 4.34393 0
M  V30 15444 H 1460.04 -0.414788 2.08311 0
M  V30 15445 H 1462.3 -0.246047 0.915513 0
M  V30 15446 H 1462.01 -1.47109 3.19456 0
M  V30 15447 H 1461.88 -2.98159 2.31043 0
M  V30 15448 H 1464.27 -2.60064 1.39466 0
M  V30 15449 H 1464.35 -1.09082 2.31376 0
M  V30 15450 H 1463.99 -2.41067 4.47045 0
M  V30 15451 H 1463.92 -3.91619 3.52054 0
M  V30 15452 H 1466.41 -2.52446 2.81211 0
M  V30 15453 H 1466.73 -4.68026 6.14956 0
M  V30 15454 H 1465.07 -4.21461 5.52626 0
M  V30 15455 H 1468.26 -3.06381 3.53904 0
M  V30 15456 H 1468.43 -4.04706 5.0608 0
M  V30 15457 N 1461.84 -1.08266 -1.14527 0
M  V30 15458 C 1462.79 -0.711332 -2.19565 0
M  V30 15459 C 1463.76 0.301774 -1.63336 0
M  V30 15460 O 1464.94 0.186109 -1.8989 0
M  V30 15461 C 1462.08 -0.125255 -3.44873 0
M  V30 15462 C 1461.2 -1.19096 -4.15259 0
M  V30 15463 C 1460.33 -0.568901 -5.28145 0
M  V30 15464 C 1459.37 -1.61675 -5.90362 0
M  V30 15465 N 1458.51 -1.01659 -6.94701 0
M  V30 15466 H 1463.35 -1.61137 -2.50677 0
M  V30 15467 H 1460.88 -0.805286 -1.231 0
M  V30 15468 H 1462.84 0.232247 -4.16553 0
M  V30 15469 H 1461.47 0.738101 -3.14248 0
M  V30 15470 H 1460.52 -1.66591 -3.41982 0
M  V30 15471 H 1461.84 -1.98508 -4.57598 0
M  V30 15472 H 1460.99 -0.159563 -6.0649 0
M  V30 15473 H 1459.73 0.256884 -4.87023 0
M  V30 15474 H 1458.73 -2.03576 -5.10722 0
M  V30 15475 H 1459.96 -2.44498 -6.33559 0
M  V30 15476 H 1457.9 -0.211872 -6.55658 0
M  V30 15477 H 1457.82 -1.74781 -7.35518 0
M  V30 15478 H 1459.09 -0.63306 -7.76925 0
M  V30 15479 N 1463.32 1.31536 -0.86811 0
M  V30 15480 C 1464.57 1.97066 -0.478829 0
M  V30 15481 C 1464.9 1.68469 0.966021 0
M  V30 15482 O 1464.17 0.980166 1.67997 0
M  V30 15483 C 1464.46 3.52533 -0.734313 0
M  V30 15484 C 1464.31 3.90711 -2.22856 0
M  V30 15485 C 1465.63 4.39647 -0.199559 0
M  V30 15486 H 1462.75 0.715813 -0.175444 0
M  V30 15487 H 1465.39 1.55694 -1.08901 0
M  V30 15488 H 1463.54 3.87905 -0.214962 0
M  V30 15489 H 1465.21 3.65451 -2.81502 0
M  V30 15490 H 1463.45 3.39385 -2.70185 0
M  V30 15491 H 1464.13 4.99103 -2.35797 0
M  V30 15492 H 1466.6 4.11088 -0.643853 0
M  V30 15493 H 1465.48 5.47383 -0.407783 0
M  V30 15494 H 1465.74 4.32875 0.898414 0
M  V30 15495 N 1464.8 0.627364 1.44575 0
M  V30 15496 C 1465.76 -0.0700881 2.29093 0
M  V30 15497 C 1466.76 -0.775969 1.40838 0
M  V30 15498 O 1467.95 -0.621129 1.6275 0
M  V30 15499 C 1465.08 -1.10977 3.2233 0
M  V30 15500 H 1466.28 0.673234 2.92246 0
M  V30 15501 H 1463.83 0.387322 1.51425 0
M  V30 15502 H 1464.56 -1.8832 2.64019 0
M  V30 15503 H 1464.35 -0.607587 3.87364 0
M  V30 15504 H 1465.84 -1.59764 3.8583 0
M  V30 15505 N 1466.28 -1.53251 0.367684 0
M  V30 15506 C 1467.52 -2.01585 -0.221679 0
M  V30 15507 C 1467.85 -1.25444 -1.48248 0
M  V30 15508 O 1467.13 -0.348726 -1.91348 0
M  V30 15509 C 1467.41 -3.56449 -0.511507 0
M  V30 15510 C 1467.27 -4.4328 0.763075 0
M  V30 15511 C 1468.58 -4.20113 -1.31121 0
M  V30 15512 H 1465.7 -0.732743 -0.0790954 0
M  V30 15513 H 1468.35 -1.83493 0.492991 0
M  V30 15514 H 1466.5 -3.71996 -1.12033 0
M  V30 15515 H 1468.17 -4.39526 1.40052 0
M  V30 15516 H 1466.41 -4.11164 1.38299 0
M  V30 15517 H 1467.08 -5.4959 0.515215 0
M  V30 15518 H 1469.56 -4.08412 -0.796169 0
M  V30 15519 H 1468.43 -5.28494 -1.48274 0
M  V30 15520 H 1468.69 -3.76316 -2.32032 0
M  V30 15521 N 1467.75 -0.0969077 -1.57302 0
M  V30 15522 C 1468.66 0.875561 -2.17649 0
M  V30 15523 C 1469.68 1.30892 -1.14645 0
M  V30 15524 O 1470.86 1.37646 -1.47022 0
M  V30 15525 C 1467.92 2.116 -2.74639 0
M  V30 15526 C 1466.98 1.73667 -3.92604 0
M  V30 15527 C 1466.21 2.91798 -4.46867 0
M  V30 15528 O 1466.44 4.06577 -4.00064 0
M  V30 15529 O 1465.37 2.70159 -5.37864 0
M  V30 15530 H 1469.2 0.392107 -3.01158 0
M  V30 15531 H 1466.78 0.127539 -1.48855 0
M  V30 15532 H 1468.66 2.84292 -3.11057 0
M  V30 15533 H 1467.34 2.58994 -1.94174 0
M  V30 15534 H 1466.25 0.981505 -3.60995 0
M  V30 15535 H 1467.58 1.31035 -4.74437 0
M  V30 15536 N 1469.23 1.56605 0.176793 0
M  V30 15537 C 1470.18 1.95985 1.21896 0
M  V30 15538 C 1471.15 0.822983 1.44278 0
M  V30 15539 O 1472.33 1.08266 1.57109 0
M  V30 15540 C 1469.47 2.32029 2.55454 0
M  V30 15541 C 1468.59 3.58867 2.40497 0
M  V30 15542 C 1467.72 3.84148 3.66884 0
M  V30 15543 C 1466.76 5.04352 3.46837 0
M  V30 15544 N 1465.9 5.25794 4.6528 0
M  V30 15545 H 1470.74 2.84829 0.876137 0
M  V30 15546 H 1468.27 1.4094 0.421221 0
M  V30 15547 H 1470.23 2.50947 3.33289 0
M  V30 15548 H 1468.86 1.46301 2.87743 0
M  V30 15549 H 1467.91 3.47893 1.53866 0
M  V30 15550 H 1469.23 4.46859 2.21627 0
M  V30 15551 H 1468.38 4.03404 4.53155 0
M  V30 15552 H 1467.12 2.9452 3.88727 0
M  V30 15553 H 1466.12 4.84999 2.58952 0
M  V30 15554 H 1467.35 5.95505 3.26421 0
M  V30 15555 H 1465.3 4.39117 4.87352 0
M  V30 15556 H 1465.21 6.07999 4.49303 0
M  V30 15557 H 1466.48 5.49524 5.5285 0
M  V30 15558 N 1470.71 -0.445159 1.51182 0
M  V30 15559 C 1471.96 -1.19524 1.63463 0
M  V30 15560 C 1472.28 -1.91377 0.347136 0
M  V30 15561 O 1471.54 -1.83932 -0.668408 0
M  V30 15562 C 1471.84 -2.24274 2.78273 0
M  V30 15563 C 1471.5 -1.6949 4.17833 0
M  V30 15564 C 1470.17 -1.54271 4.558 0
M  V30 15565 C 1472.52 -1.29128 5.04951 0
M  V30 15566 C 1469.85 -0.971532 5.786 0
M  V30 15567 C 1472.2 -0.734426 6.28322 0
M  V30 15568 C 1470.86 -0.569079 6.6507 0
M  V30 15569 H 1470.13 -0.437369 0.598155 0
M  V30 15570 H 1472.78 -0.48742 1.85193 0
M  V30 15571 H 1471.08 -3.01065 2.50734 0
M  V30 15572 H 1472.78 -2.82117 2.84975 0
M  V30 15573 H 1469.37 -1.82309 3.87894 0
M  V30 15574 H 1473.56 -1.39709 4.7623 0
M  V30 15575 H 1468.81 -0.831117 6.05725 0
M  V30 15576 H 1472.99 -0.413133 6.95173 0
M  V30 15577 H 1470.61 -0.124355 7.60098 0
M  V30 15578 N 1472.19 -1.41197 -0.700089 0
M  V30 15579 C 1473.14 -1.42885 -1.83539 0
M  V30 15580 C 1474.13 -0.307431 -1.66587 0
M  V30 15581 O 1475.34 -0.479238 -1.73503 0
M  V30 15582 H 1471.71 -0.446973 -0.604747 0
M  V30 15583 H 1473.68 -2.38576 -1.79231 0
M  V30 15584 C 1472.43 -1.3235 -3.21526 0
M  V30 15585 H 1471.75 -2.17926 -3.35184 0
M  V30 15586 H 1473.19 -1.37592 -4.01054 0
M  V30 15587 C 1471.65 -0.0353528 -3.36881 0
M  V30 15588 O 1472.18 0.921676 -3.90983 0
M  V30 15589 N 1470.39 0.0392479 -2.90573 0
M  V30 15590 H 1469.94 -0.740299 -2.46733 0
M  V30 15591 H 1469.89 0.900559 -3.01226 0
M  V30 15592 N 1473.67 0.933891 -1.2695 0
M  V30 15593 C 1474.63 2.0152 -1.0919 0
M  V30 15594 C 1475.63 1.60755 -0.037865 0
M  V30 15595 O 1476.82 1.71904 -0.281917 0
M  V30 15596 C 1473.95 3.34403 -0.66239 0
M  V30 15597 H 1475.14 2.18706 -2.05201 0
M  V30 15598 H 1472.7 1.11385 -1.0965 0
M  V30 15599 H 1473.43 3.22915 0.299388 0
M  V30 15600 H 1473.22 3.65345 -1.42356 0
M  V30 15601 H 1474.71 4.13826 -0.560187 0
M  V30 15602 N 1475.14 1.08871 1.13951 0
M  V30 15603 C 1476.05 0.734869 2.22793 0
M  V30 15604 C 1477.07 -0.260699 1.72036 0
M  V30 15605 O 1478.25 -0.103461 2.01134 0
M  V30 15606 C 1475.31 0.154599 3.46355 0
M  V30 15607 C 1474.37 1.20539 4.1203 0
M  V30 15608 C 1473.6 0.652712 5.29694 0
M  V30 15609 O 1473.83 -0.526264 5.67967 0
M  V30 15610 O 1472.76 1.40503 5.85271 0
M  V30 15611 H 1476.59 1.64297 2.55422 0
M  V30 15612 H 1474.17 0.862716 1.21974 0
M  V30 15613 H 1476.05 -0.165962 4.21073 0
M  V30 15614 H 1474.73 -0.726592 3.1544 0
M  V30 15615 H 1473.64 1.57855 3.39164 0
M  V30 15616 H 1474.97 2.05902 4.47063 0
M  V30 15617 N 1476.62 -1.31073 0.875073 0
M  V30 15618 C 1477.57 -2.30335 0.3238 0
M  V30 15619 C 1478.56 -1.5974 -0.563869 0
M  V30 15620 O 1479.77 -1.743 -0.449402 0
M  V30 15621 H 1476.14 -0.747062 0.0860376 0
M  V30 15622 H 1478.12 -2.743 1.17483 0
M  V30 15623 C 1476.86 -3.44705 -0.455348 0
M  V30 15624 H 1476.19 -3.99203 0.218433 0
M  V30 15625 H 1477.63 -4.16262 -0.806329 0
M  V30 15626 C 1476.09 -2.93807 -1.6486 0
M  V30 15627 O 1476.62 -2.93004 -2.74794 0
M  V30 15628 N 1474.82 -2.49944 -1.48244 0
M  V30 15629 H 1474.37 -2.50797 -0.588116 0
M  V30 15630 H 1474.33 -2.16245 -2.28222 0
M  V30 15631 N 1478.1 -0.635022 -1.4424 0
M  V30 15632 C 1479.33 -0.148045 -2.06069 0
M  V30 15633 C 1479.74 1.1842 -1.47558 0
M  V30 15634 O 1479.08 1.73817 -0.594425 0
M  V30 15635 C 1479.14 0.0369593 -3.59481 0
M  V30 15636 C 1478.81 -1.21773 -4.40478 0
M  V30 15637 C 1479.8 -2.14233 -4.73709 0
M  V30 15638 C 1477.49 -1.45423 -4.80788 0
M  V30 15639 C 1479.48 -3.2865 -5.46139 0
M  V30 15640 C 1477.17 -2.60136 -5.52967 0
M  V30 15641 C 1478.17 -3.51576 -5.85562 0
M  V30 15642 O 1477.86 -4.64289 -6.5627 0
M  V30 15643 H 1477.59 -0.0787231 -0.671401 0
M  V30 15644 H 1480.14 -0.870639 -1.86035 0
M  V30 15645 H 1478.37 0.814739 -3.7802 0
M  V30 15646 H 1480.06 0.478984 -4.03064 0
M  V30 15647 H 1480.83 -1.97196 -4.43101 0
M  V30 15648 H 1476.71 -0.751378 -4.54835 0
M  V30 15649 H 1480.25 -4.00043 -5.71499 0
M  V30 15650 H 1476.15 -2.77114 -5.82991 0
M  V30 15651 H 1476.92 -4.6332 -6.74742 0
M  V30 15652 N 1479.58 1.53054 -0.375806 0
M  V30 15653 C 1480.82 2.02379 0.203516 0
M  V30 15654 C 1481.18 1.25788 1.45586 0
M  V30 15655 O 1480.47 0.345983 1.8845 0
M  V30 15656 C 1480.67 3.53321 0.538419 0
M  V30 15657 C 1480.5 4.4453 -0.679917 0
M  V30 15658 C 1479.27 4.90964 -1.1951 0
M  V30 15659 C 1481.46 4.90444 -1.54821 0
M  V30 15660 N 1479.45 5.66207 -2.37239 0
M  V30 15661 C 1480.82 5.64132 -2.57206 0
M  V30 15662 C 1482.87 4.72503 -1.56989 0
M  V30 15663 C 1481.57 6.21786 -3.61627 0
M  V30 15664 C 1483.6 5.3103 -2.6031 0
M  V30 15665 C 1482.96 6.04613 -3.61417 0
M  V30 15666 H 1479.06 0.781128 0.0369159 0
M  V30 15667 H 1481.65 1.87554 -0.522657 0
M  V30 15668 H 1479.82 3.68287 1.23366 0
M  V30 15669 H 1481.55 3.89359 1.10372 0
M  V30 15670 H 1478.3 4.67492 -0.758156 0
M  V30 15671 H 1478.73 6.08487 -2.96771 0
M  V30 15672 H 1483.37 4.15129 -0.801715 0
M  V30 15673 H 1481.09 6.7825 -4.39321 0
M  V30 15674 H 1484.67 5.19037 -2.62854 0
M  V30 15675 H 1483.55 6.49093 -4.40054 0
M  V30 15676 N 1481.06 0.105248 1.57248 0
M  V30 15677 C 1482 -0.850012 2.14577 0
M  V30 15678 C 1482.97 -1.27294 1.06703 0
M  V30 15679 O 1484.16 -1.35289 1.34542 0
M  V30 15680 C 1481.3 -2.09993 2.73856 0
M  V30 15681 C 1480.41 -1.72662 3.95995 0
M  V30 15682 C 1479.55 -2.92517 4.43404 0
M  V30 15683 C 1478.59 -2.5136 5.58108 0
M  V30 15684 N 1477.72 -3.64082 6.00324 0
M  V30 15685 H 1482.56 -0.354282 2.95887 0
M  V30 15686 H 1480.1 -0.163192 1.46192 0
M  V30 15687 H 1482.06 -2.83208 3.06348 0
M  V30 15688 H 1480.69 -2.57048 1.95259 0
M  V30 15689 H 1479.74 -0.893754 3.69752 0
M  V30 15690 H 1481.05 -1.38406 4.79213 0
M  V30 15691 H 1480.21 -3.73973 4.77734 0
M  V30 15692 H 1478.94 -3.2999 3.59107 0
M  V30 15693 H 1477.95 -1.68333 5.23397 0
M  V30 15694 H 1479.17 -2.15019 6.44161 0
M  V30 15695 H 1477.12 -4.01255 5.18971 0
M  V30 15696 H 1477.04 -3.33705 6.78363 0
M  V30 15697 H 1478.31 -4.46019 6.39287 0
M  V30 15698 N 1482.53 -1.56697 -0.168486 0
M  V30 15699 C 1483.48 -1.96628 -1.20855 0
M  V30 15700 C 1484.45 -0.830623 -1.4384 0
M  V30 15701 O 1485.64 -1.09097 -1.56533 0
M  V30 15702 C 1482.78 -2.3338 -2.5422 0
M  V30 15703 C 1481.89 -3.60137 -2.3859 0
M  V30 15704 C 1481.02 -3.86088 -3.64842 0
M  V30 15705 C 1480.06 -5.06184 -3.44157 0
M  V30 15706 N 1479.2 -5.28254 -4.62485 0
M  V30 15707 H 1484.04 -2.8529 -0.86102 0
M  V30 15708 H 1481.58 -1.41162 -0.413741 0
M  V30 15709 H 1483.54 -2.52711 -3.31953 0
M  V30 15710 H 1482.17 -1.47825 -2.86963 0
M  V30 15711 H 1481.22 -3.48704 -1.52019 0
M  V30 15712 H 1482.53 -4.48028 -2.19254 0
M  V30 15713 H 1481.68 -4.05802 -4.5101 0
M  V30 15714 H 1480.42 -2.96578 -3.8716 0
M  V30 15715 H 1479.43 -4.86366 -2.56376 0
M  V30 15716 H 1480.65 -5.97228 -3.23258 0
M  V30 15717 H 1478.6 -4.41695 -4.85017 0
M  V30 15718 H 1478.52 -6.10373 -4.46072 0
M  V30 15719 H 1479.78 -5.52448 -5.49928 0
M  V30 15720 N 1484.01 0.437135 -1.51416 0
M  V30 15721 C 1484.96 1.53061 -1.72745 0
M  V30 15722 C 1485.93 1.56045 -0.569149 0
M  V30 15723 O 1487.11 1.73052 -0.803602 0
M  V30 15724 C 1484.25 2.90774 -1.85861 0
M  V30 15725 C 1483.37 2.97318 -3.1341 0
M  V30 15726 C 1482.5 4.26156 -3.1712 0
M  V30 15727 C 1481.54 4.26568 -4.38983 0
M  V30 15728 N 1480.68 5.4693 -4.40241 0
M  V30 15729 H 1485.52 1.34177 -2.66084 0
M  V30 15730 H 1483.06 0.651803 -1.31871 0
M  V30 15731 H 1485.01 3.7068 -1.91447 0
M  V30 15732 H 1483.64 3.08216 -0.959306 0
M  V30 15733 H 1482.7 2.10074 -3.17132 0
M  V30 15734 H 1484.01 2.93485 -4.03321 0
M  V30 15735 H 1483.16 5.14435 -3.21623 0
M  V30 15736 H 1481.9 4.32646 -2.25098 0
M  V30 15737 H 1480.91 3.36681 -4.34656 0
M  V30 15738 H 1482.13 4.21741 -5.3227 0
M  V30 15739 H 1480.08 5.54141 -3.51089 0
M  V30 15740 H 1479.99 5.44977 -5.23962 0
M  V30 15741 H 1481.26 6.37241 -4.48937 0
M  V30 15742 N 1485.49 1.41566 0.692592 0
M  V30 15743 C 1486.74 1.40805 1.44978 0
M  V30 15744 C 1487.06 0.0191039 1.94991 0
M  V30 15745 O 1486.33 -0.939544 1.71899 0
M  V30 15746 H 1484.91 0.518293 0.537942 0
M  V30 15747 H 1487.57 1.76831 0.81956 0
M  V30 15748 H 1486.67 2.09706 2.31149 0
M  V30 15749 N 1486.97 -0.927146 1.27443 0
M  V30 15750 C 1487.9 -2.04483 1.12735 0
M  V30 15751 C 1488.88 -1.70076 0.0286662 0
M  V30 15752 O 1490.06 -1.93133 0.203252 0
M  V30 15753 C 1487.19 -3.38557 0.774352 0
M  V30 15754 C 1486.15 -3.87078 1.82632 0
M  V30 15755 C 1485.47 -5.17964 1.32729 0
M  V30 15756 C 1486.77 -4.10409 3.23051 0
M  V30 15757 H 1488.47 -2.17046 2.06231 0
M  V30 15758 H 1486.01 -1.04292 0.992937 0
M  V30 15759 H 1487.97 -4.16227 0.658273 0
M  V30 15760 H 1486.69 -3.26009 -0.196321 0
M  V30 15761 H 1485.35 -3.11602 1.93132 0
M  V30 15762 H 1485 -5.01808 0.346059 0
M  V30 15763 H 1484.7 -5.51398 2.03061 0
M  V30 15764 H 1486.22 -5.98203 1.22416 0
M  V30 15765 H 1487.64 -4.78646 3.15549 0
M  V30 15766 H 1486.03 -4.5515 3.91099 0
M  V30 15767 H 1487.1 -3.15685 3.68064 0
M  V30 15768 N 1488.45 -1.09474 -1.13372 0
M  V30 15769 C 1489.41 -0.738173 -2.16988 0
M  V30 15770 C 1490.41 0.232488 -1.5911 0
M  V30 15771 O 1491.6 0.0106093 -1.74197 0
M  V30 15772 C 1488.73 -0.091724 -3.40777 0
M  V30 15773 H 1489.92 -1.65582 -2.50045 0
M  V30 15774 H 1487.48 -0.893994 -1.28209 0
M  V30 15775 H 1488.21 0.837129 -3.13309 0
M  V30 15776 H 1488 -0.790161 -3.84056 0
M  V30 15777 H 1489.49 0.142334 -4.17357 0
M  V30 15778 N 1489.92 1.30607 -0.882012 0
M  V30 15779 C 1490.86 2.26334 -0.291222 0
M  V30 15780 C 1491.84 1.51653 0.586522 0
M  V30 15781 O 1493.02 1.80681 0.537275 0
M  V30 15782 C 1490.15 3.33584 0.586482 0
M  V30 15783 C 1489.19 4.25924 -0.221535 0
M  V30 15784 S 1490.03 5.10791 -1.6079 0
M  V30 15785 C 1491.18 6.2155 -0.736638 0
M  V30 15786 H 1491.41 2.76096 -1.10265 0
M  V30 15787 H 1488.95 1.38558 -0.681255 0
M  V30 15788 H 1490.91 3.95842 1.08715 0
M  V30 15789 H 1489.57 2.82552 1.37198 0
M  V30 15790 H 1488.76 5.02004 0.448139 0
M  V30 15791 H 1488.36 3.68225 -0.654722 0
M  V30 15792 H 1490.65 6.77483 0.0476549 0
M  V30 15793 H 1491.6 6.92696 -1.46894 0
M  V30 15794 H 1492 5.63708 -0.298853 0
M  V30 15795 N 1491.4 0.642663 1.43901 0
M  V30 15796 C 1492.65 0.152003 2.0223 0
M  V30 15797 C 1492.98 -1.22711 1.50518 0
M  V30 15798 O 1492.26 -1.817 0.693937 0
M  V30 15799 C 1492.54 0.151278 3.59782 0
M  V30 15800 C 1492.39 1.56356 4.2175 0
M  V30 15801 C 1493.71 -0.518016 4.37041 0
M  V30 15802 H 1490.83 0.0567094 0.734815 0
M  V30 15803 H 1493.47 0.821337 1.7133 0
M  V30 15804 H 1491.62 -0.418679 3.86237 0
M  V30 15805 H 1493.29 2.18329 4.06362 0
M  V30 15806 H 1491.54 2.11401 3.78803 0
M  V30 15807 H 1492.21 1.51499 5.30803 0
M  V30 15808 H 1494.68 -0.0331947 4.16087 0
M  V30 15809 H 1493.56 -0.487754 5.46729 0
M  V30 15810 H 1493.82 -1.59036 4.12504 0
M  V30 15811 N 1492.88 -1.52852 0.383918 0
M  V30 15812 C 1494.29 -1.86477 -0.0912997 0
M  V30 15813 C 1494.64 -1.30382 -1.46611 0
M  V30 15814 O 1493.77 -0.633042 -2.06934 0
M  V30 15815 C 1494.36 -3.38361 -0.172447 0
M  V30 15816 C 1492.92 -3.71716 -0.591948 0
M  V30 15817 C 1492.07 -2.76176 0.24945 0
M  V30 15818 H 1495.02 -1.46839 0.602006 0
M  V30 15819 H 1495.04 -3.67325 -0.992603 0
M  V30 15820 H 1494.55 -3.79158 0.8283 0
M  V30 15821 H 1492.65 -3.36486 -1.60026 0
M  V30 15822 H 1492.77 -4.77792 -0.353835 0
M  V30 15823 H 1491.13 -2.53106 -0.284469 0
M  V30 15824 H 1491.91 -3.19809 1.24808 0
M  V30 15825 N 1494.36 -0.113586 -1.5719 0
M  V30 15826 C 1495.29 0.835363 -2.18046 0
M  V30 15827 C 1496.27 1.28114 -1.11897 0
M  V30 15828 O 1497.46 1.34472 -1.40111 0
M  V30 15829 C 1494.59 2.08759 -2.77556 0
M  V30 15830 C 1493.54 1.77979 -3.8924 0
M  V30 15831 C 1492.87 3.10185 -4.35533 0
M  V30 15832 C 1494.17 1.05231 -5.11589 0
M  V30 15833 H 1495.86 0.328275 -2.97595 0
M  V30 15834 H 1493.41 0.156456 -1.43148 0
M  V30 15835 H 1495.36 2.75597 -3.18785 0
M  V30 15836 H 1494.08 2.61783 -1.95288 0
M  V30 15837 H 1492.74 1.13532 -3.48577 0
M  V30 15838 H 1492.39 3.61133 -3.50131 0
M  V30 15839 H 1492.09 2.90367 -5.10843 0
M  V30 15840 H 1493.61 3.78151 -4.7941 0
M  V30 15841 H 1495.03 1.62213 -5.49872 0
M  V30 15842 H 1493.42 0.955269 -5.92448 0
M  V30 15843 H 1494.49 0.038137 -4.84885 0
M  V30 15844 N 1495.84 1.56784 0.160173 0
M  V30 15845 C 1496.78 1.97267 1.1981 0
M  V30 15846 C 1497.75 0.83824 1.43397 0
M  V30 15847 O 1498.94 1.09926 1.55952 0
M  V30 15848 C 1496.08 2.34725 2.52979 0
M  V30 15849 C 1495.19 3.61397 2.36677 0
M  V30 15850 C 1494.33 3.88018 3.62789 0
M  V30 15851 C 1493.37 5.08002 3.41468 0
M  V30 15852 N 1492.5 5.30699 4.59677 0
M  V30 15853 H 1497.34 2.85743 0.845878 0
M  V30 15854 H 1494.88 1.41379 0.406249 0
M  V30 15855 H 1496.84 2.54468 3.30608 0
M  V30 15856 H 1495.47 1.49345 2.86175 0
M  V30 15857 H 1494.52 3.49505 1.50167 0
M  V30 15858 H 1495.83 4.49185 2.16875 0
M  V30 15859 H 1494.99 4.08188 4.48851 0
M  V30 15860 H 1493.73 2.98627 3.85582 0
M  V30 15861 H 1492.73 4.87718 2.53793 0
M  V30 15862 H 1493.96 5.98934 3.20086 0
M  V30 15863 H 1491.9 4.44261 4.82668 0
M  V30 15864 H 1491.82 6.1273 4.42829 0
M  V30 15865 H 1493.09 5.55357 5.46991 0
M  V30 15866 N 1497.32 -0.429099 1.51646 0
M  V30 15867 C 1498.56 -1.17784 1.64722 0
M  V30 15868 C 1498.89 -1.90998 0.367415 0
M  V30 15869 O 1498.15 -1.8463 -0.648862 0
M  V30 15870 C 1498.44 -2.2131 2.80636 0
M  V30 15871 C 1498.11 -1.65048 4.19607 0
M  V30 15872 C 1496.77 -1.49428 4.57411 0
M  V30 15873 C 1499.12 -1.23765 5.06292 0
M  V30 15874 C 1496.45 -0.910109 5.79598 0
M  V30 15875 C 1498.8 -0.667743 6.29066 0
M  V30 15876 C 1497.47 -0.498507 6.65636 0
M  V30 15877 H 1496.74 -0.431001 0.60276 0
M  V30 15878 H 1499.39 -0.46775 1.857 0
M  V30 15879 H 1497.69 -2.98388 2.53913 0
M  V30 15880 H 1499.39 -2.79079 2.87951 0
M  V30 15881 H 1495.98 -1.78185 3.89805 0
M  V30 15882 H 1500.16 -1.3465 4.77685 0
M  V30 15883 H 1495.42 -0.766825 6.06572 0
M  V30 15884 H 1499.59 -0.339377 6.95573 0
M  V30 15885 H 1497.22 -0.0437292 7.60187 0
M  V30 15886 N 1498.79 -1.41931 -0.685074 0
M  V30 15887 C 1500.2 -1.37279 -1.26536 0
M  V30 15888 C 1500.56 -0.0610089 -1.96105 0
M  V30 15889 O 1499.68 0.840508 -1.9941 0
M  V30 15890 C 1500.28 -2.48658 -2.30119 0
M  V30 15891 C 1498.83 -2.47371 -2.83698 0
M  V30 15892 C 1497.98 -2.2797 -1.57876 0
M  V30 15893 H 1500.93 -1.51294 -0.479132 0
M  V30 15894 H 1500.95 -2.18319 -3.11636 0
M  V30 15895 H 1500.47 -3.44118 -1.79456 0
M  V30 15896 H 1498.57 -1.55699 -3.3851 0
M  V30 15897 H 1498.68 -3.44052 -3.33414 0
M  V30 15898 H 1497.04 -1.7604 -1.84071 0
M  V30 15899 H 1497.83 -3.25471 -1.09194 0
M  V30 15900 N 1500.27 0.920374 -1.27933 0
M  V30 15901 C 1501.52 1.67131 -1.1487 0
M  V30 15902 C 1501.85 1.91816 0.303343 0
M  V30 15903 O 1501.13 1.51379 1.22125 0
M  V30 15904 C 1501.41 3.03332 -1.94066 0
M  V30 15905 C 1501.26 2.85842 -3.47296 0
M  V30 15906 C 1502.58 4.03773 -1.75087 0
M  V30 15907 H 1499.7 0.606537 -0.418666 0
M  V30 15908 H 1502.34 1.06755 -1.57173 0
M  V30 15909 H 1500.49 3.54869 -1.58116 0
M  V30 15910 H 1502.16 2.41367 -3.93115 0
M  V30 15911 H 1500.41 2.21035 -3.73264 0
M  V30 15912 H 1501.08 3.82535 -3.97958 0
M  V30 15913 H 1503.55 3.61274 -2.06447 0
M  V30 15914 H 1502.43 4.97048 -2.32882 0
M  V30 15915 H 1502.69 4.36512 -0.700665 0
M  V30 15916 N 1501.75 1.10074 1.1279 0
M  V30 15917 C 1503 0.839212 1.83852 0
M  V30 15918 C 1503.32 -0.637023 1.84301 0
M  V30 15919 O 1502.59 -1.46239 1.30349 0
M  V30 15920 H 1501.17 0.307468 0.680788 0
M  V30 15921 H 1503.83 1.39025 1.36595 0
M  V30 15922 H 1502.93 1.19872 2.88162 0
M  V30 15923 N 1503.23 -1.30138 0.888926 0
M  V30 15924 C 1504.16 -2.3047 0.374934 0
M  V30 15925 C 1505.14 -1.61156 -0.544322 0
M  V30 15926 O 1506.32 -1.88738 -0.457337 0
M  V30 15927 C 1503.45 -3.44896 -0.407935 0
M  V30 15928 C 1502.41 -4.25935 0.419916 0
M  V30 15929 C 1501.73 -5.32452 -0.489797 0
M  V30 15930 C 1503.03 -4.9508 1.66413 0
M  V30 15931 H 1504.73 -2.73711 1.21337 0
M  V30 15932 H 1502.27 -1.31586 0.584899 0
M  V30 15933 H 1504.23 -4.14153 -0.778177 0
M  V30 15934 H 1502.95 -3.0047 -1.28005 0
M  V30 15935 H 1501.61 -3.58372 0.772348 0
M  V30 15936 H 1501.26 -4.84273 -1.35974 0
M  V30 15937 H 1500.96 -5.87569 0.0603412 0
M  V30 15938 H 1502.48 -6.04563 -0.856468 0
M  V30 15939 H 1503.9 -5.56831 1.36425 0
M  V30 15940 H 1502.29 -5.6008 2.15477 0
M  V30 15941 H 1503.36 -4.20981 2.4063 0
M  V30 15942 N 1504.71 -0.650285 -1.43559 0
M  V30 15943 C 1505.95 -0.162164 -2.01448 0
M  V30 15944 C 1506.27 1.22717 -1.51544 0
M  V30 15945 O 1505.54 1.81917 -0.726855 0
M  V30 15946 H 1504.12 -0.0569599 -0.744825 0
M  V30 15947 H 1506.79 -0.841294 -1.75807 0
M  V30 15948 H 1505.88 -0.144531 -3.11765 0
M  V30 15949 N 1506.18 1.52647 -0.392018 0
M  V30 15950 C 1507.41 2.06511 0.191815 0
M  V30 15951 C 1507.83 1.26162 1.39516 0
M  V30 15952 O 1507.19 0.287373 1.79008 0
M  V30 15953 C 1507.24 3.56571 0.537512 0
M  V30 15954 O 1506.34 3.78774 1.63106 0
M  V30 15955 H 1505.68 0.663647 0.0216546 0
M  V30 15956 H 1508.21 1.96779 -0.560274 0
M  V30 15957 H 1508.22 4.00059 0.801044 0
M  V30 15958 H 1506.9 4.14489 -0.342239 0
M  V30 15959 H 1505.48 3.47175 1.36103 0
M  V30 15960 N 1507.66 0.121921 1.57128 0
M  V30 15961 C 1509.08 -0.234655 1.57866 0
M  V30 15962 C 1509.28 -1.66506 1.13482 0
M  V30 15963 O 1508.33 -2.38692 0.823544 0
M  V30 15964 C 1509.65 0.00131784 3.007 0
M  V30 15965 C 1511.2 -0.0643537 3.12934 0
M  V30 15966 C 1511.67 0.143964 4.57774 0
M  V30 15967 N 1513.16 0.0900323 4.63112 0
M  V30 15968 C 1513.9 0.22608 5.72954 0
M  V30 15969 N 1513.39 0.418461 6.91535 0
M  V30 15970 N 1515.19 0.165449 5.61856 0
M  V30 15971 H 1507.34 1.05618 1.84279 0
M  V30 15972 H 1509.6 0.416132 0.851785 0
M  V30 15973 H 1509.31 0.99031 3.3747 0
M  V30 15974 H 1509.18 -0.729266 3.70083 0
M  V30 15975 H 1511.57 -1.04387 2.7602 0
M  V30 15976 H 1511.65 0.698157 2.46088 0
M  V30 15977 H 1511.29 1.12047 4.95387 0
M  V30 15978 H 1511.22 -0.638569 5.22714 0
M  V30 15979 H 1513.71 -0.0550269 3.7786 0
M  V30 15980 H 1514.03 0.513057 7.71095 0
M  V30 15981 H 1512.37 0.454471 6.93512 0
M  V30 15982 H 1515.56 0.0160945 4.68097 0
M  V30 15983 H 1515.73 0.274917 6.47417 0
M  V30 15984 N 1509.14 -1.56867 -0.151857 0
M  V30 15985 C 1510.1 -1.96997 -1.17152 0
M  V30 15986 C 1511.1 -0.855905 -1.36128 0
M  V30 15987 O 1512.29 -1.12261 -1.33203 0
M  V30 15988 C 1509.43 -2.28171 -2.5328 0
M  V30 15989 H 1510.62 -2.88261 -0.827365 0
M  V30 15990 H 1508.17 -1.51226 -0.395024 0
M  V30 15991 H 1508.91 -1.39683 -2.92676 0
M  V30 15992 H 1508.69 -3.09394 -2.40869 0
M  V30 15993 H 1510.18 -2.60073 -3.26729 0
M  V30 15994 N 1510.62 0.421051 -1.51871 0
M  V30 15995 C 1511.58 1.49478 -1.73749 0
M  V30 15996 C 1512.58 1.48887 -0.607395 0
M  V30 15997 O 1513.77 1.50622 -0.875143 0
M  V30 15998 C 1510.9 2.88947 -1.80893 0
M  V30 15999 H 1512.1 1.31377 -2.69593 0
M  V30 16000 H 1509.65 0.650786 -1.42107 0
M  V30 16001 H 1510.38 3.12434 -0.86922 0
M  V30 16002 H 1510.17 2.90781 -2.63038 0
M  V30 16003 H 1511.66 3.66809 -1.99602 0
M  V30 16004 N 1512.1 1.42293 0.677538 0
M  V30 16005 C 1513.34 1.42334 1.43476 0
M  V30 16006 C 1513.67 0.0397842 1.94959 0
M  V30 16007 O 1512.94 -0.921258 1.72886 0
M  V30 16008 H 1511.52 0.523969 0.532415 0
M  V30 16009 H 1514.18 1.7769 0.800758 0
M  V30 16010 H 1513.27 2.12146 2.28912 0
M  V30 16011 N 1513.57 -0.913576 1.28419 0
M  V30 16012 C 1514.51 -2.02073 1.08163 0
M  V30 16013 C 1515.52 -1.62766 0.0333064 0
M  V30 16014 O 1516.71 -1.76347 0.27638 0
M  V30 16015 C 1513.81 -3.33151 0.621596 0
M  V30 16016 C 1512.98 -4.01068 1.74536 0
M  V30 16017 C 1512.04 -5.10428 1.27868 0
M  V30 16018 O 1511.07 -5.33617 1.98094 0
M  V30 16019 N 1512.27 -5.80326 0.141976 0
M  V30 16020 H 1515.03 -2.20009 2.0351 0
M  V30 16021 H 1512.59 -1.08488 1.20174 0
M  V30 16022 H 1514.59 -4.03638 0.292989 0
M  V30 16023 H 1513.16 -3.11685 -0.239031 0
M  V30 16024 H 1512.38 -3.24127 2.24355 0
M  V30 16025 H 1513.66 -4.4319 2.49919 0
M  V30 16026 H 1513.06 -5.63956 -0.443845 0
M  V30 16027 H 1511.62 -6.51676 -0.127354 0
M  V30 16028 N 1515.05 -1.1067 -1.12204 0
M  V30 16029 C 1516.02 -0.761145 -2.16193 0
M  V30 16030 C 1517.02 0.215599 -1.59348 0
M  V30 16031 O 1518.21 -0.00786723 -1.74198 0
M  V30 16032 C 1515.34 -0.127863 -3.4066 0
M  V30 16033 H 1516.53 -1.68225 -2.48275 0
M  V30 16034 H 1514.08 -0.907542 -1.27253 0
M  V30 16035 H 1514.82 0.803851 -3.14179 0
M  V30 16036 H 1514.6 -0.83085 -3.83196 0
M  V30 16037 H 1516.09 0.0980593 -4.17485 0
M  V30 16038 N 1516.53 1.29665 -0.895815 0
M  V30 16039 C 1517.49 2.26103 -0.3755 0
M  V30 16040 C 1518.49 1.53212 0.488126 0
M  V30 16041 O 1519.68 1.71706 0.293733 0
M  V30 16042 C 1516.82 3.37732 0.46364 0
M  V30 16043 H 1518.01 2.73643 -1.22718 0
M  V30 16044 H 1515.56 1.4104 -0.673613 0
M  V30 16045 H 1516.3 2.95526 1.33546 0
M  V30 16046 H 1516.08 3.91793 -0.155123 0
M  V30 16047 H 1517.57 4.09488 0.819112 0
M  V30 16048 N 1518.01 0.657889 1.43212 0
M  V30 16049 C 1518.97 -0.0214783 2.2919 0
M  V30 16050 C 1519.97 -0.745921 1.42452 0
M  V30 16051 O 1521.16 -0.586468 1.64031 0
M  V30 16052 C 1518.29 -1.04115 3.24612 0
M  V30 16053 H 1519.49 0.735072 2.90752 0
M  V30 16054 H 1517.04 0.419354 1.50569 0
M  V30 16055 H 1517.77 -1.82677 2.67954 0
M  V30 16056 H 1517.56 -0.525285 3.88566 0
M  V30 16057 H 1519.05 -1.51544 3.89132 0
M  V30 16058 N 1519.49 -1.52437 0.400108 0
M  V30 16059 C 1520.42 -2.29672 -0.421054 0
M  V30 16060 C 1521.4 -1.33506 -1.05405 0
M  V30 16061 O 1522.58 -1.62408 -1.06477 0
M  V30 16062 C 1519.71 -3.1115 -1.54281 0
M  V30 16063 C 1518.67 -4.1529 -1.0353 0
M  V30 16064 C 1517.99 -4.85058 -2.24996 0
M  V30 16065 C 1519.29 -5.22212 -0.0956529 0
M  V30 16066 H 1520.99 -2.98565 0.2234 0
M  V30 16067 H 1518.53 -1.43588 0.108883 0
M  V30 16068 H 1520.49 -3.63945 -2.12419 0
M  V30 16069 H 1519.21 -2.4001 -2.21501 0
M  V30 16070 H 1517.87 -3.63492 -0.476383 0
M  V30 16071 H 1517.52 -4.10455 -2.9075 0
M  V30 16072 H 1517.22 -5.55452 -1.91694 0
M  V30 16073 H 1518.74 -5.40661 -2.83756 0
M  V30 16074 H 1520.15 -5.70302 -0.585548 0
M  V30 16075 H 1518.55 -5.99917 0.148121 0
M  V30 16076 H 1519.62 -4.77351 0.852296 0
M  V30 16077 N 1520.96 -0.130252 -1.57061 0
M  V30 16078 C 1522.21 0.525784 -1.95866 0
M  V30 16079 C 1522.54 1.65607 -1.01429 0
M  V30 16080 O 1521.82 1.94426 -0.0535544 0
M  V30 16081 C 1522.1 1.04784 -3.44517 0
M  V30 16082 C 1521.95 -0.0797972 -4.49729 0
M  V30 16083 C 1523.27 1.9351 -3.95275 0
M  V30 16084 H 1520.39 0.189652 -0.71218 0
M  V30 16085 H 1523.03 -0.208091 -1.88857 0
M  V30 16086 H 1521.18 1.67324 -3.50621 0
M  V30 16087 H 1522.86 -0.715535 -4.55717 0
M  V30 16088 H 1521.1 -0.741358 -4.27418 0
M  V30 16089 H 1521.77 0.326915 -5.51031 0
M  V30 16090 H 1524.25 1.40825 -3.91545 0
M  V30 16091 H 1523.12 2.26952 -4.99784 0
M  V30 16092 H 1523.38 2.86583 -3.36634 0
M  V30 16093 N 1522.44 1.56945 0.143535 0
M  V30 16094 C 1523.39 1.94945 1.18239 0
M  V30 16095 C 1524.38 0.821157 1.38368 0
M  V30 16096 O 1525.57 1.08465 1.39873 0
M  V30 16097 C 1522.7 2.33653 2.51518 0
M  V30 16098 C 1521.78 3.53061 2.34966 0
M  V30 16099 N 1522.18 4.69493 1.88176 0
M  V30 16100 C 1520.47 3.58213 2.65706 0
M  V30 16101 C 1521.17 5.51581 1.84751 0
M  V30 16102 N 1520.15 4.93386 2.28192 0
M  V30 16103 H 1523.95 2.82438 0.81278 0
M  V30 16104 H 1521.47 1.58549 0.351555 0
M  V30 16105 H 1523.46 2.59083 3.26621 0
M  V30 16106 H 1522.12 1.47513 2.89257 0
M  V30 16107 H 1523.13 4.93182 1.5809 0
M  V30 16108 H 1519.81 2.82622 3.07297 0
M  V30 16109 H 1521.2 6.54934 1.50038 0
M  V30 16110 N 1523.92 -0.412991 1.52093 0
M  V30 16111 C 1525.17 -1.15737 1.65191 0
M  V30 16112 C 1525.48 -1.91753 0.38601 0
M  V30 16113 O 1526.69 -2.68586 0.396731 0
M  V30 16114 C 1525.15 -2.10619 2.91835 0
M  V30 16115 C 1524.75 -1.40137 4.25518 0
M  V30 16116 C 1526.5 -2.85339 3.14296 0
M  V30 16117 C 1524.4 -2.33645 5.4329 0
M  V30 16118 H 1523.33 -0.435732 0.615348 0
M  V30 16119 H 1525.99 -0.422172 1.78578 0
M  V30 16120 H 1524.37 -2.87675 2.72138 0
M  V30 16121 H 1525.54 -0.684719 4.55684 0
M  V30 16122 H 1523.86 -0.774734 4.09129 0
M  V30 16123 H 1526.45 -3.55437 3.99461 0
M  V30 16124 H 1526.8 -3.48071 2.28369 0
M  V30 16125 H 1527.33 -2.15384 3.34447 0
M  V30 16126 H 1524.07 -1.75566 6.31551 0
M  V30 16127 H 1523.59 -3.03294 5.17467 0
M  V30 16128 H 1525.27 -2.94255 5.76215 0
M  V30 16129 N 1525.4 -1.4265 -0.669982 0
M  V30 16130 C 1526.63 -1.46571 -1.45604 0
M  V30 16131 C 1527.04 -0.0769961 -1.89043 0
M  V30 16132 O 1526.38 0.919604 -1.59025 0
M  V30 16133 C 1526.44 -2.33435 -2.73401 0
M  V30 16134 C 1526.11 -3.81236 -2.52008 0
M  V30 16135 C 1527.1 -4.72768 -2.16301 0
M  V30 16136 C 1524.79 -4.25552 -2.66853 0
M  V30 16137 C 1526.78 -6.0661 -1.95712 0
M  V30 16138 C 1524.47 -5.59452 -2.4588 0
M  V30 16139 C 1525.47 -6.49797 -2.10364 0
M  V30 16140 O 1525.16 -7.81222 -1.89597 0
M  V30 16141 H 1524.89 -0.500529 -0.454364 0
M  V30 16142 H 1527.44 -1.87875 -0.830199 0
M  V30 16143 H 1525.67 -1.86989 -3.38485 0
M  V30 16144 H 1527.36 -2.28755 -3.353 0
M  V30 16145 H 1528.13 -4.39814 -2.04423 0
M  V30 16146 H 1524.01 -3.55518 -2.93475 0
M  V30 16147 H 1527.55 -6.7709 -1.67914 0
M  V30 16148 H 1523.45 -5.91978 -2.57355 0
M  V30 16149 H 1524.21 -7.9263 -2.04157 0
M  V30 16150 N 1526.88 0.906753 -1.28902 0
M  V30 16151 C 1527.81 2.02663 -1.15974 0
M  V30 16152 C 1528.79 1.70009 -0.0557202 0
M  V30 16153 O 1529.97 1.92786 -0.233952 0
M  V30 16154 C 1527.1 3.37283 -0.828115 0
M  V30 16155 C 1526.06 3.84123 -1.88767 0
M  V30 16156 C 1525.38 5.15787 -1.40953 0
M  V30 16157 C 1526.68 4.05217 -3.2954 0
M  V30 16158 H 1528.38 2.13738 -2.09658 0
M  V30 16159 H 1525.92 1.02699 -1.0094 0
M  V30 16160 H 1527.88 4.15127 -0.724408 0
M  V30 16161 H 1526.6 3.2628 0.14443 0
M  V30 16162 H 1525.26 3.0849 -1.98065 0
M  V30 16163 H 1524.91 5.01194 -0.425848 0
M  V30 16164 H 1524.61 5.48098 -2.11807 0
M  V30 16165 H 1526.13 5.9618 -1.31918 0
M  V30 16166 H 1527.55 4.73565 -3.23124 0
M  V30 16167 H 1525.94 4.48871 -3.9829 0
M  V30 16168 H 1527.01 3.0979 -3.73039 0
M  V30 16169 N 1528.36 1.11264 1.11616 0
M  V30 16170 C 1529.63 0.772174 1.79713 0
M  V30 16171 C 1530.01 -0.740055 1.97703 0
M  V30 16172 O 1529.36 -1.66939 1.56024 0
M  V30 16173 C 1529.57 1.53316 3.13521 0
M  V30 16174 C 1530.92 1.71124 3.88589 0
M  V30 16175 O 1531.94 1.49725 3.23204 0
M  V30 16176 O 1530.8 2.0667 5.05915 0
M  V30 16177 H 1527.9 0.279548 0.77832 0
M  V30 16178 H 1530.44 1.21596 1.18375 0
M  V30 16179 H 1529.21 2.56194 2.95771 0
M  V30 16180 H 1528.84 1.08281 3.82572 0
M  V30 16181 N 1529.83 -1.29188 0.902679 0
M  V30 16182 C 1531.08 -1.95052 0.529076 0
M  V30 16183 C 1531.4 -1.7149 -0.92824 0
M  V30 16184 O 1530.67 -1.04834 -1.65489 0
M  V30 16185 H 1529.25 -0.721725 0.192671 0
M  V30 16186 H 1531.91 -1.57384 1.14962 0
M  V30 16187 H 1531.01 -3.03819 0.714179 0
M  V30 16188 N 1531.31 -0.665475 -1.42861 0
M  V30 16189 C 1532.54 -0.190399 -2.06524 0
M  V30 16190 C 1532.96 1.13995 -1.49622 0
M  V30 16191 O 1532.32 1.70695 -0.610981 0
M  V30 16192 C 1532.37 -0.12594 -3.6038 0
M  V30 16193 O 1531.47 0.908299 -4.02273 0
M  V30 16194 H 1530.81 -0.100495 -0.656351 0
M  V30 16195 H 1533.34 -0.911858 -1.83156 0
M  V30 16196 H 1533.35 0.0533153 -4.07965 0
M  V30 16197 H 1532.03 -1.09703 -4.01171 0
M  V30 16198 H 1530.6 0.700841 -3.66255 0
M  V30 16199 N 1532.79 1.52222 -0.408187 0
M  V30 16200 C 1534.04 2.02102 0.168154 0
M  V30 16201 C 1534.37 1.2933 1.4487 0
M  V30 16202 O 1533.64 0.399336 1.90356 0
M  V30 16203 C 1533.93 3.57679 0.416821 0
M  V30 16204 C 1533.78 4.41101 -0.880335 0
M  V30 16205 C 1535.1 4.23442 1.19936 0
M  V30 16206 H 1532.22 0.734583 0.0596402 0
M  V30 16207 H 1534.86 1.82121 -0.541467 0
M  V30 16208 H 1533.01 3.74835 1.02131 0
M  V30 16209 H 1534.68 4.35658 -1.51656 0
M  V30 16210 H 1532.92 4.07353 -1.49152 0
M  V30 16211 H 1533.6 5.48031 -0.660748 0
M  V30 16212 H 1536.07 4.10379 0.687605 0
M  V30 16213 H 1534.95 5.32239 1.3421 0
M  V30 16214 H 1535.21 3.82335 2.21973 0
M  V30 16215 N 1534.27 0.138579 1.5699 0
M  V30 16216 C 1535.2 -0.800568 2.19347 0
M  V30 16217 C 1536.18 -1.26318 1.13921 0
M  V30 16218 O 1537.36 -1.32226 1.42232 0
M  V30 16219 C 1534.49 -2.04317 2.80842 0
M  V30 16220 C 1533.45 -1.71764 3.92022 0
M  V30 16221 C 1532.77 -3.03217 4.40413 0
M  V30 16222 C 1534.07 -0.970789 5.13199 0
M  V30 16223 H 1535.77 -0.280888 2.98079 0
M  V30 16224 H 1533.31 -0.133663 1.43378 0
M  V30 16225 H 1535.27 -2.70491 3.2313 0
M  V30 16226 H 1533.99 -2.58643 1.99428 0
M  V30 16227 H 1532.65 -1.07972 3.50339 0
M  V30 16228 H 1532.3 -3.55517 3.55832 0
M  V30 16229 H 1532 -2.82203 5.15398 0
M  V30 16230 H 1533.52 -3.70477 4.85365 0
M  V30 16231 H 1534.94 -1.53445 5.52384 0
M  V30 16232 H 1533.33 -0.860895 5.93893 0
M  V30 16233 H 1534.4 0.0390088 4.84884 0
M  V30 16234 N 1535.75 -1.57019 -0.13521 0
M  V30 16235 C 1536.99 -1.84262 -0.847071 0
M  V30 16236 C 1537.32 -0.721946 -1.80282 0
M  V30 16237 O 1536.6 0.273535 -1.92567 0
M  V30 16238 C 1536.88 -3.22043 -1.61123 0
M  V30 16239 C 1536.74 -4.44689 -0.67617 0
M  V30 16240 C 1538.05 -3.57188 -2.57108 0
M  V30 16241 H 1535.17 -0.670246 -0.306496 0
M  V30 16242 H 1537.82 -1.89671 -0.111843 0
M  V30 16243 H 1535.97 -3.17563 -2.23799 0
M  V30 16244 H 1537.64 -4.61262 -0.0595009 0
M  V30 16245 H 1535.88 -4.33798 0.0134526 0
M  V30 16246 H 1536.55 -5.37727 -1.24714 0
M  V30 16247 H 1539.03 -3.62354 -2.04545 0
M  V30 16248 H 1537.9 -4.54602 -3.07617 0
M  V30 16249 H 1538.16 -2.83758 -3.39019 0
M  V30 16250 N 1537.22 0.404919 -1.52309 0
M  V30 16251 C 1538.45 1.17309 -1.70429 0
M  V30 16252 C 1538.87 1.84169 -0.415617 0
M  V30 16253 O 1538.22 1.7205 0.608693 0
M  V30 16254 C 1538.28 2.23306 -2.84282 0
M  V30 16255 O 1538 1.59176 -4.0816 0
M  V30 16256 C 1539.5 3.12972 -3.13948 0
M  V30 16257 H 1536.72 0.352348 -0.571045 0
M  V30 16258 H 1539.26 0.475851 -1.98887 0
M  V30 16259 H 1537.42 2.88693 -2.58332 0
M  V30 16260 H 1537.83 2.29481 -4.71634 0
M  V30 16261 H 1539.3 3.83411 -3.97115 0
M  V30 16262 H 1539.78 3.75582 -2.27672 0
M  V30 16263 H 1540.39 2.53251 -3.41678 0
M  V30 16264 N 1538.7 1.43003 0.662408 0
M  V30 16265 C 1539.65 1.43898 1.76854 0
M  V30 16266 C 1540.64 0.308629 1.57912 0
M  V30 16267 O 1541.83 0.551757 1.6818 0
M  V30 16268 C 1538.96 1.35585 3.15391 0
M  V30 16269 C 1538.04 2.53614 3.39913 0
M  V30 16270 N 1538.43 3.78998 3.34954 0
M  V30 16271 C 1536.73 2.48141 3.70597 0
M  V30 16272 C 1537.43 4.57467 3.59303 0
M  V30 16273 N 1536.41 3.8806 3.80671 0
M  V30 16274 H 1540.21 2.38722 1.71432 0
M  V30 16275 H 1537.73 1.37526 0.863728 0
M  V30 16276 H 1539.72 1.34308 3.94673 0
M  V30 16277 H 1538.38 0.417735 3.22002 0
M  V30 16278 H 1539.39 4.11417 3.14574 0
M  V30 16279 H 1536.07 1.62971 3.84379 0
M  V30 16280 H 1537.46 5.66475 3.61326 0
M  V30 16281 N 1540.18 -0.899904 1.29381 0
M  V30 16282 C 1541.43 -1.64712 1.17109 0
M  V30 16283 C 1541.75 -1.93011 -0.277772 0
M  V30 16284 O 1541.02 -1.55604 -1.19013 0
M  V30 16285 H 1539.6 -0.610532 0.430418 0
M  V30 16286 H 1542.26 -1.07905 1.62304 0
M  V30 16287 H 1541.36 -2.60362 1.72098 0
M  V30 16288 N 1541.66 -1.11854 -1.11024 0
M  V30 16289 C 1542.91 -0.868355 -1.82494 0
M  V30 16290 C 1543.23 0.607622 -1.85292 0
M  V30 16291 O 1542.5 1.44147 -1.32659 0
M  V30 16292 H 1541.08 -0.31826 -0.67581 0
M  V30 16293 H 1543.74 -1.4118 -1.34366 0
M  V30 16294 H 1542.84 -1.24441 -2.86218 0
M  V30 16295 N 1543.14 1.28707 -0.909517 0
M  V30 16296 C 1544.39 1.94437 -0.536401 0
M  V30 16297 C 1544.7 1.72416 0.923685 0
M  V30 16298 O 1545.9 2.32333 1.40477 0
M  V30 16299 C 1544.36 3.48246 -0.908455 0
M  V30 16300 C 1543.97 3.79051 -2.38798 0
M  V30 16301 C 1545.71 4.20156 -0.605721 0
M  V30 16302 C 1543.62 5.2615 -2.70038 0
M  V30 16303 H 1542.55 0.727842 -0.196882 0
M  V30 16304 H 1545.2 1.46283 -1.10786 0
M  V30 16305 H 1543.58 3.95107 -0.265829 0
M  V30 16306 H 1544.76 3.43014 -3.07698 0
M  V30 16307 H 1543.07 3.20303 -2.66074 0
M  V30 16308 H 1545.67 5.28439 -0.815849 0
M  V30 16309 H 1546.01 4.13792 0.456266 0
M  V30 16310 H 1546.54 3.79059 -1.20662 0
M  V30 16311 H 1543.28 5.37587 -3.75073 0
M  V30 16312 H 1542.8 5.63399 -2.05771 0
M  V30 16313 H 1544.48 5.93846 -2.56819 0
M  V30 16314 N 1544.61 0.673042 1.42506 0
M  V30 16315 C 1545.52 -0.00648572 2.34599 0
M  V30 16316 C 1546.54 -0.790758 1.54994 0
M  V30 16317 O 1547.72 -0.733482 1.87569 0
M  V30 16318 C 1544.78 -0.94734 3.33506 0
M  V30 16319 C 1543.84 -0.157795 4.2901 0
M  V30 16320 C 1543.08 -1.05384 5.23192 0
M  V30 16321 O 1543.3 -2.29334 5.22266 0
M  V30 16322 O 1542.23 -0.515584 5.99688 0
M  V30 16323 H 1546.06 0.752059 2.94241 0
M  V30 16324 H 1543.64 0.433272 1.42979 0
M  V30 16325 H 1545.53 -1.4875 3.94273 0
M  V30 16326 H 1544.2 -1.68577 2.7634 0
M  V30 16327 H 1543.11 0.426426 3.71662 0
M  V30 16328 H 1544.44 0.54148 4.89212 0
M  V30 16329 N 1546.09 -1.52004 0.416254 0
M  V30 16330 C 1547.03 -2.2371 -0.450474 0
M  V30 16331 C 1548 -1.24812 -1.04215 0
M  V30 16332 O 1549.19 -1.53885 -1.08866 0
M  V30 16333 C 1546.31 -2.97122 -1.62592 0
M  V30 16334 C 1545.36 -4.10508 -1.15695 0
M  V30 16335 S 1546.19 -5.35374 -0.116239 0
M  V30 16336 C 1547.35 -6.12318 -1.29684 0
M  V30 16337 H 1547.58 -2.96878 0.158361 0
M  V30 16338 H 1545.12 -1.53091 0.200602 0
M  V30 16339 H 1547.07 -3.40022 -2.2999 0
M  V30 16340 H 1545.73 -2.23583 -2.20611 0
M  V30 16341 H 1544.93 -4.61075 -2.03534 0
M  V30 16342 H 1544.53 -3.69761 -0.561518 0
M  V30 16343 H 1546.82 -6.40125 -2.21914 0
M  V30 16344 H 1547.76 -7.032 -0.831569 0
M  V30 16345 H 1548.17 -5.43487 -1.52586 0
M  V30 16346 N 1547.57 -0.146903 -1.56914 0
M  V30 16347 C 1548.82 0.503237 -1.95734 0
M  V30 16348 C 1549.14 1.65407 -1.03275 0
M  V30 16349 O 1548.41 1.95673 -0.0942784 0
M  V30 16350 H 1546.99 0.188899 -0.722721 0
M  V30 16351 H 1549.65 -0.222379 -1.93627 0
M  V30 16352 H 1548.75 0.879445 -2.99453 0
M  V30 16353 N 1549.05 1.57088 0.126881 0
M  V30 16354 C 1549.98 1.96399 1.18153 0
M  V30 16355 C 1550.99 0.862288 1.38089 0
M  V30 16356 O 1552.18 1.14062 1.37303 0
M  V30 16357 C 1549.28 2.24026 2.54295 0
M  V30 16358 C 1548.46 3.5533 2.55068 0
M  V30 16359 C 1547.51 3.71261 3.72896 0
M  V30 16360 O 1546.54 4.43454 3.56844 0
M  V30 16361 N 1547.74 3.09435 4.91152 0
M  V30 16362 H 1550.51 2.87476 0.847217 0
M  V30 16363 H 1548.07 1.58781 0.316242 0
M  V30 16364 H 1550.06 2.31906 3.31665 0
M  V30 16365 H 1548.63 1.39114 2.79939 0
M  V30 16366 H 1547.85 3.58708 1.63468 0
M  V30 16367 H 1549.14 4.41649 2.52634 0
M  V30 16368 H 1548.54 2.50736 5.07097 0
M  V30 16369 H 1547.09 3.22848 5.66226 0
M  V30 16370 N 1550.53 -0.396836 1.52522 0
M  V30 16371 C 1551.77 -1.14037 1.66853 0
M  V30 16372 C 1552.1 -1.90706 0.406987 0
M  V30 16373 O 1551.37 -1.87165 -0.578443 0
M  V30 16374 H 1549.95 -0.423967 0.615029 0
M  V30 16375 H 1552.61 -0.451042 1.89609 0
M  V30 16376 H 1551.7 -1.84763 2.51533 0
M  V30 16377 N 1552.01 -1.43353 -0.654814 0
M  V30 16378 C 1553.25 -1.451 -1.41682 0
M  V30 16379 C 1553.58 -0.0743864 -1.94057 0
M  V30 16380 O 1552.86 0.904515 -1.72188 0
M  V30 16381 C 1553.14 -2.49204 -2.59941 0
M  V30 16382 C 1553 -3.96134 -2.13069 0
M  V30 16383 C 1554.31 -2.50064 -3.62155 0
M  V30 16384 H 1551.43 -0.528339 -0.513836 0
M  V30 16385 H 1554.08 -1.74892 -0.742489 0
M  V30 16386 H 1552.23 -2.2393 -3.1747 0
M  V30 16387 H 1553.9 -4.32459 -1.60552 0
M  V30 16388 H 1552.14 -4.09042 -1.44455 0
M  V30 16389 H 1552.81 -4.64585 -2.98101 0
M  V30 16390 H 1555.29 -2.72587 -3.14382 0
M  V30 16391 H 1554.16 -3.24849 -4.42452 0
M  V30 16392 H 1554.42 -1.53385 -4.14639 0
M  V30 16393 N 1553.48 0.89303 -1.29857 0
M  V30 16394 C 1554.43 1.98497 -1.12173 0
M  V30 16395 C 1555.42 1.60852 -0.039207 0
M  V30 16396 O 1556.61 1.75055 -0.261652 0
M  V30 16397 C 1553.74 3.33674 -0.807259 0
M  V30 16398 C 1552.82 3.77658 -1.92965 0
M  V30 16399 N 1553.22 3.93814 -3.17402 0
M  V30 16400 C 1551.51 4.06988 -1.82419 0
M  V30 16401 C 1552.21 4.30988 -3.90671 0
M  V30 16402 N 1551.19 4.40403 -3.18662 0
M  V30 16403 H 1554.99 2.09068 -2.06562 0
M  V30 16404 H 1552.51 1.0823 -1.21078 0
M  V30 16405 H 1554.5 4.11617 -0.661603 0
M  V30 16406 H 1553.16 3.24445 0.128646 0
M  V30 16407 H 1554.17 3.79164 -3.52782 0
M  V30 16408 H 1550.85 4.06279 -0.961436 0
M  V30 16409 H 1552.24 4.51278 -4.97793 0
M  V30 16410 N 1554.96 1.12442 1.10429 0
M  V30 16411 C 1556.19 0.902599 1.86174 0
M  V30 16412 C 1556.6 -0.548147 1.80668 0
M  V30 16413 O 1555.96 -1.37898 1.19543 0
M  V30 16414 C 1556.01 1.36912 3.34571 0
M  V30 16415 O 1555.73 2.763 3.39985 0
M  V30 16416 C 1557.23 1.18424 4.27189 0
M  V30 16417 H 1554.45 0.322534 0.588399 0
M  V30 16418 H 1557 1.49439 1.396 0
M  V30 16419 H 1555.15 0.82055 3.7861 0
M  V30 16420 H 1555.57 2.96772 4.32466 0
M  V30 16421 H 1557.04 1.55954 5.29511 0
M  V30 16422 H 1557.52 0.12483 4.39023 0
M  V30 16423 H 1558.12 1.72032 3.88954 0
M  V30 16424 N 1556.44 -1.28223 0.91633 0
M  V30 16425 C 1557.39 -2.27215 0.40521 0
M  V30 16426 C 1558.36 -1.57693 -0.521734 0
M  V30 16427 O 1559.54 -1.85577 -0.443369 0
M  V30 16428 C 1556.68 -3.43358 -0.346303 0
M  V30 16429 C 1555.79 -4.27622 0.613443 0
M  V30 16430 C 1554.93 -5.30969 -0.156775 0
M  V30 16431 C 1553.97 -6.06897 0.796418 0
M  V30 16432 N 1553.11 -7.02075 0.0595539 0
M  V30 16433 H 1557.95 -2.70312 1.2544 0
M  V30 16434 H 1555.48 -1.32933 0.629859 0
M  V30 16435 H 1557.44 -4.09492 -0.798231 0
M  V30 16436 H 1556.07 -3.01244 -1.15982 0
M  V30 16437 H 1555.12 -3.61508 1.1839 0
M  V30 16438 H 1556.43 -4.80397 1.34239 0
M  V30 16439 H 1555.59 -6.02999 -0.669146 0
M  V30 16440 H 1554.33 -4.78968 -0.918755 0
M  V30 16441 H 1553.33 -5.33716 1.32014 0
M  V30 16442 H 1554.56 -6.60987 1.558 0
M  V30 16443 H 1552.5 -6.5242 -0.684388 0
M  V30 16444 H 1552.42 -7.52484 0.728275 0
M  V30 16445 H 1553.69 -7.78299 -0.432538 0
M  V30 16446 N 1557.92 -0.68059 -1.42147 0
M  V30 16447 C 1558.85 0.0444079 -2.28157 0
M  V30 16448 C 1559.83 0.802929 -1.41392 0
M  V30 16449 O 1561.01 0.796856 -1.70829 0
M  V30 16450 C 1558.14 1.07013 -3.2135 0
M  V30 16451 C 1557.19 0.406524 -4.24558 0
M  V30 16452 S 1558.02 -0.840134 -5.28869 0
M  V30 16453 C 1559.17 0.184372 -6.25628 0
M  V30 16454 H 1559.41 -0.685124 -2.89298 0
M  V30 16455 H 1556.94 -0.470332 -1.47062 0
M  V30 16456 H 1558.9 1.65683 -3.75579 0
M  V30 16457 H 1557.56 1.77215 -2.59333 0
M  V30 16458 H 1556.75 1.18069 -4.89975 0
M  V30 16459 H 1556.35 -0.10672 -3.73848 0
M  V30 16460 H 1558.65 1.04232 -6.69434 0
M  V30 16461 H 1559.59 -0.43548 -7.0676 0
M  V30 16462 H 1560 0.532442 -5.61983 0
M  V30 16463 N 1559.4 1.51781 -0.424309 0
M  V30 16464 C 1560.64 2.01157 0.147925 0
M  V30 16465 C 1560.96 1.31369 1.44919 0
M  V30 16466 O 1562.16 1.71643 2.10359 0
M  V30 16467 C 1560.62 3.58526 0.31417 0
M  V30 16468 C 1560.23 4.37242 -0.975898 0
M  V30 16469 C 1561.97 4.16088 0.840876 0
M  V30 16470 C 1559.88 5.86287 -0.776009 0
M  V30 16471 H 1558.81 0.751684 0.0590568 0
M  V30 16472 H 1561.46 1.74998 -0.552079 0
M  V30 16473 H 1559.84 3.81077 1.07687 0
M  V30 16474 H 1561.02 4.26444 -1.74592 0
M  V30 16475 H 1559.33 3.9107 -1.43015 0
M  V30 16476 H 1561.93 5.25138 1.0067 0
M  V30 16477 H 1562.27 3.7442 1.81977 0
M  V30 16478 H 1562.8 3.97565 0.136836 0
M  V30 16479 H 1559.54 6.32343 -1.7269 0
M  V30 16480 H 1559.06 5.99783 -0.0455544 0
M  V30 16481 H 1560.74 6.45609 -0.424095 0
M  V30 16482 N 1560.87 0.155222 1.56834 0
M  V30 16483 C 1561.81 -0.812448 2.14317 0
M  V30 16484 C 1562.82 -1.20502 1.09467 0
M  V30 16485 O 1564.01 -1.14767 1.36714 0
M  V30 16486 C 1561.11 -2.10279 2.65774 0
M  V30 16487 C 1560.28 -1.8763 3.95112 0
M  V30 16488 C 1559.34 -3.0073 4.31796 0
M  V30 16489 O 1558.37 -2.72064 4.9997 0
M  V30 16490 N 1559.57 -4.28114 3.92044 0
M  V30 16491 H 1562.33 -0.321106 2.97975 0
M  V30 16492 H 1559.89 -0.0280861 1.61876 0
M  V30 16493 H 1561.89 -2.85005 2.87323 0
M  V30 16494 H 1560.46 -2.50652 1.86796 0
M  V30 16495 H 1559.68 -0.968958 3.82106 0
M  V30 16496 H 1560.96 -1.69845 4.79614 0
M  V30 16497 H 1560.36 -4.54269 3.37129 0
M  V30 16498 H 1558.92 -4.99594 4.18627 0
M  V30 16499 N 1562.35 -1.57153 -0.118549 0
M  V30 16500 C 1563.6 -1.8515 -0.82748 0
M  V30 16501 C 1563.93 -0.741026 -1.79506 0
M  V30 16502 O 1563.21 0.253095 -1.92846 0
M  V30 16503 C 1563.49 -3.23734 -1.57698 0
M  V30 16504 C 1563.34 -4.45381 -0.628967 0
M  V30 16505 C 1564.66 -3.59895 -2.53305 0
M  V30 16506 H 1561.78 -0.673459 -0.29937 0
M  V30 16507 H 1564.42 -1.89778 -0.0917198 0
M  V30 16508 H 1562.57 -3.19919 -2.20418 0
M  V30 16509 H 1564.24 -4.61299 -0.0105746 0
M  V30 16510 H 1562.49 -4.33759 0.059462 0
M  V30 16511 H 1563.16 -5.3902 -1.19004 0
M  V30 16512 H 1565.63 -3.64503 -2.0069 0
M  V30 16513 H 1564.51 -4.57839 -3.02778 0
M  V30 16514 H 1564.77 -2.87338 -3.3599 0
M  V30 16515 N 1563.83 0.388742 -1.5273 0
M  V30 16516 C 1565.08 1.13543 -1.68035 0
M  V30 16517 C 1565.41 1.89622 -0.419177 0
M  V30 16518 O 1564.68 1.85556 0.583031 0
M  V30 16519 C 1564.97 2.11346 -2.91556 0
M  V30 16520 C 1564.82 1.39029 -4.27775 0
M  V30 16521 C 1566.14 3.11769 -3.10625 0
M  V30 16522 H 1563.26 0.411406 -0.611485 0
M  V30 16523 H 1565.9 0.418781 -1.85327 0
M  V30 16524 H 1564.05 2.7246 -2.76944 0
M  V30 16525 H 1565.72 0.808775 -4.54155 0
M  V30 16526 H 1563.96 0.692133 -4.28243 0
M  V30 16527 H 1564.64 2.10495 -5.1029 0
M  V30 16528 H 1567.11 2.60745 -3.2427 0
M  V30 16529 H 1565.99 3.77447 -3.98529 0
M  V30 16530 H 1566.25 3.80649 -2.24853 0
M  V30 16531 N 1565.31 1.43698 0.647203 0
M  V30 16532 C 1566.53 1.49301 1.43958 0
M  V30 16533 C 1566.96 0.11395 1.87755 0
M  V30 16534 O 1566.32 -0.893571 1.5775 0
M  V30 16535 C 1566.36 2.44905 2.64677 0
M  V30 16536 O 1565.47 1.93947 3.63948 0
M  V30 16537 H 1564.81 0.504771 0.431396 0
M  V30 16538 H 1567.34 1.88673 0.791432 0
M  V30 16539 H 1567.35 2.62409 3.12419 0
M  V30 16540 H 1566.02 3.45083 2.32143 0
M  V30 16541 H 1564.6 1.86133 3.23124 0
M  V30 16542 N 1566.79 -0.886131 1.30328 0
M  V30 16543 C 1568.2 -1.16922 1.08634 0
M  V30 16544 C 1568.4 -2.00913 -0.15365 0
M  V30 16545 O 1567.46 -2.37849 -0.847592 0
M  V30 16546 C 1568.77 -1.87701 2.34923 0
M  V30 16547 C 1570.32 -2.0047 2.40376 0
M  V30 16548 C 1570.79 -2.74662 3.66504 0
M  V30 16549 N 1572.29 -2.82208 3.67305 0
M  V30 16550 C 1573.02 -3.40185 4.61586 0
M  V30 16551 N 1572.52 -3.99221 5.66211 0
M  V30 16552 N 1574.31 -3.37989 4.49132 0
M  V30 16553 H 1566.46 -0.326064 2.09882 0
M  V30 16554 H 1568.72 -0.206996 0.925125 0
M  V30 16555 H 1568.43 -1.33427 3.25408 0
M  V30 16556 H 1568.3 -2.88092 2.43481 0
M  V30 16557 H 1570.69 -2.53914 1.50371 0
M  V30 16558 H 1570.77 -0.991709 2.35794 0
M  V30 16559 H 1570.42 -2.2189 4.56867 0
M  V30 16560 H 1570.35 -3.76335 3.68347 0
M  V30 16561 H 1572.84 -2.40292 2.91665 0
M  V30 16562 H 1573.15 -4.41522 6.34254 0
M  V30 16563 H 1571.49 -3.97643 5.70004 0
M  V30 16564 H 1574.69 -2.91096 3.6658 0
M  V30 16565 H 1574.86 -3.82877 5.2279 0
M  V30 16566 N 1568.26 -1.13026 -1.09832 0
M  V30 16567 C 1569.17 -0.817051 -2.19912 0
M  V30 16568 C 1570.19 0.19667 -1.72885 0
M  V30 16569 O 1571.37 0.0287402 -2.01379 0
M  V30 16570 C 1568.43 -0.28304 -3.45543 0
M  V30 16571 C 1567.49 -1.35748 -4.07273 0
M  V30 16572 C 1566.73 -0.848855 -5.26906 0
M  V30 16573 O 1566.95 0.315104 -5.69529 0
M  V30 16574 O 1565.88 -1.62128 -5.79653 0
M  V30 16575 H 1569.71 -1.73663 -2.49148 0
M  V30 16576 H 1567.29 -0.907391 -1.18688 0
M  V30 16577 H 1569.18 0.00956876 -4.21399 0
M  V30 16578 H 1567.85 0.609018 -3.17919 0
M  V30 16579 H 1566.76 -1.70334 -3.33072 0
M  V30 16580 H 1568.09 -2.22353 -4.39113 0
M  V30 16581 N 1569.74 1.27735 -0.923117 0
M  V30 16582 C 1570.67 2.29395 -0.435907 0
M  V30 16583 C 1571.65 1.62542 0.501403 0
M  V30 16584 O 1572.84 1.89884 0.407135 0
M  V30 16585 C 1569.97 3.45856 0.316348 0
M  V30 16586 C 1568.92 4.24672 -0.532697 0
M  V30 16587 C 1568.25 5.33563 0.348454 0
M  V30 16588 C 1569.55 4.90494 -1.79481 0
M  V30 16589 H 1571.24 2.70398 -1.28551 0
M  V30 16590 H 1568.79 1.29989 -0.619581 0
M  V30 16591 H 1570.74 4.1607 0.668098 0
M  V30 16592 H 1569.47 3.03758 1.19994 0
M  V30 16593 H 1568.12 3.56198 -0.867093 0
M  V30 16594 H 1567.77 4.87708 1.23086 0
M  V30 16595 H 1567.47 5.87202 -0.216104 0
M  V30 16596 H 1569 6.06622 0.695878 0
M  V30 16597 H 1570.41 5.53019 -1.5114 0
M  V30 16598 H 1568.81 5.5417 -2.30251 0
M  V30 16599 H 1569.88 4.14454 -2.51707 0
M  V30 16600 N 1571.22 0.688118 1.41784 0
M  V30 16601 C 1572.64 0.358943 1.55511 0
M  V30 16602 C 1572.84 -1.13469 1.66514 0
M  V30 16603 O 1571.89 -1.92039 1.63943 0
M  V30 16604 C 1573.21 1.10094 2.79821 0
M  V30 16605 C 1574.75 1.08456 2.93609 0
M  V30 16606 C 1575.23 1.80815 4.20797 0
M  V30 16607 N 1576.72 1.77748 4.27738 0
M  V30 16608 C 1577.45 2.30581 5.24995 0
M  V30 16609 N 1576.95 2.91854 6.28326 0
M  V30 16610 N 1578.74 2.2088 5.16884 0
M  V30 16611 H 1570.89 1.65695 1.32886 0
M  V30 16612 H 1573.16 0.698818 0.640592 0
M  V30 16613 H 1572.86 2.15589 2.77874 0
M  V30 16614 H 1572.74 0.674713 3.71117 0
M  V30 16615 H 1575.12 0.0378955 2.95076 0
M  V30 16616 H 1575.21 1.54978 2.03508 0
M  V30 16617 H 1574.85 2.85457 4.20092 0
M  V30 16618 H 1574.78 1.31732 5.09857 0
M  V30 16619 H 1577.27 1.33069 3.53696 0
M  V30 16620 H 1577.58 3.29755 6.98915 0
M  V30 16621 H 1575.93 2.95929 6.28849 0
M  V30 16622 H 1579.12 1.72689 4.35082 0
M  V30 16623 H 1579.29 2.62359 5.92513 0
M  V30 16624 N 1572.7 -1.51554 0.432352 0
M  V30 16625 C 1573.63 -2.24175 -0.426721 0
M  V30 16626 C 1574.61 -1.2591 -1.02885 0
M  V30 16627 O 1575.79 -1.55031 -1.07227 0
M  V30 16628 C 1572.92 -2.9883 -1.59431 0
M  V30 16629 C 1571.97 -4.11712 -1.11335 0
M  V30 16630 S 1572.8 -5.35467 -0.0594485 0
M  V30 16631 C 1573.96 -6.13659 -1.23182 0
M  V30 16632 H 1574.19 -2.96693 0.18984 0
M  V30 16633 H 1571.72 -1.5287 0.216828 0
M  V30 16634 H 1573.68 -3.42442 -2.2637 0
M  V30 16635 H 1572.34 -2.2591 -2.18228 0
M  V30 16636 H 1571.53 -4.63207 -1.98633 0
M  V30 16637 H 1571.14 -3.70335 -0.522268 0
M  V30 16638 H 1573.43 -6.42443 -2.15113 0
M  V30 16639 H 1574.37 -7.04043 -0.756938 0
M  V30 16640 H 1574.78 -5.45074 -1.46813 0
M  V30 16641 N 1574.18 -0.163538 -1.56749 0
M  V30 16642 C 1575.59 0.354516 -1.83303 0
M  V30 16643 C 1575.94 1.63601 -1.08301 0
M  V30 16644 O 1575.06 2.13814 -0.333546 0
M  V30 16645 C 1575.66 0.649983 -3.32507 0
M  V30 16646 C 1574.22 1.1125 -3.59584 0
M  V30 16647 C 1573.36 0.144257 -2.76925 0
M  V30 16648 H 1576.32 -0.387945 -1.53885 0
M  V30 16649 H 1576.34 1.5029 -3.49562 0
M  V30 16650 H 1575.85 -0.282886 -3.87068 0
M  V30 16651 H 1573.95 2.06074 -3.10426 0
M  V30 16652 H 1574.06 1.02704 -4.67962 0
M  V30 16653 H 1572.43 0.640116 -2.46525 0
M  V30 16654 H 1573.21 -0.782495 -3.34263 0
M  V30 16655 N 1575.65 1.57214 0.110213 0
M  V30 16656 C 1576.59 1.96198 1.1654 0
M  V30 16657 C 1577.57 0.832925 1.39646 0
M  V30 16658 O 1578.75 1.09188 1.53656 0
M  V30 16659 C 1575.88 2.26576 2.51756 0
M  V30 16660 C 1574.92 3.49093 2.45023 0
M  V30 16661 S 1575.76 5.01363 1.88136 0
M  V30 16662 C 1576.91 5.34903 3.25007 0
M  V30 16663 H 1577.14 2.85392 0.832996 0
M  V30 16664 H 1574.68 1.51104 0.317314 0
M  V30 16665 H 1576.64 2.44756 3.29552 0
M  V30 16666 H 1575.3 1.37981 2.8217 0
M  V30 16667 H 1574.49 3.67743 3.44647 0
M  V30 16668 H 1574.09 3.30346 1.7535 0
M  V30 16669 H 1576.38 5.30623 4.21243 0
M  V30 16670 H 1577.33 6.36062 3.11176 0
M  V30 16671 H 1577.73 4.62371 3.23841 0
M  V30 16672 N 1577.13 -0.380637 1.52934 0
M  V30 16673 C 1578.36 -1.15033 1.72575 0
M  V30 16674 C 1578.78 -1.82715 0.446869 0
M  V30 16675 O 1578.14 -1.71154 -0.598004 0
M  V30 16676 C 1578.19 -2.16773 2.8817 0
M  V30 16677 O 1577.29 -3.23539 2.55727 0
M  V30 16678 H 1576.63 -0.334489 0.573597 0
M  V30 16679 H 1579.16 -0.442369 1.9976 0
M  V30 16680 H 1579.17 -2.60629 3.13905 0
M  V30 16681 H 1577.85 -1.669 3.80943 0
M  V30 16682 H 1576.43 -2.84761 2.4076 0
M  V30 16683 N 1578.61 -1.44039 -0.639573 0
M  V30 16684 C 1579.56 -1.50541 -1.77314 0
M  V30 16685 C 1580.55 -0.37781 -1.65133 0
M  V30 16686 O 1581.76 -0.552396 -1.71314 0
M  V30 16687 H 1578.13 -0.472221 -0.585245 0
M  V30 16688 H 1580.1 -2.45964 -1.68951 0
M  V30 16689 C 1578.85 -1.45868 -3.15623 0
M  V30 16690 H 1578.18 -2.31946 -3.25639 0
M  V30 16691 H 1579.62 -1.54479 -3.94857 0
M  V30 16692 C 1578.08 -0.178204 -3.36428 0
M  V30 16693 O 1578.61 0.755017 -3.94541 0
M  V30 16694 N 1576.81 -0.0840295 -2.90478 0
M  V30 16695 H 1576.36 -0.844281 -2.43371 0
M  V30 16696 H 1576.32 0.771988 -3.04775 0
M  V30 16697 N 1580.09 0.879207 -1.30796 0
M  V30 16698 C 1581.33 1.63392 -1.20129 0
M  V30 16699 C 1581.67 1.92684 0.242164 0
M  V30 16700 O 1580.94 1.55188 1.17247 0
M  V30 16701 C 1581.23 2.97005 -2.03618 0
M  V30 16702 C 1581.08 2.74649 -3.56214 0
M  V30 16703 C 1582.4 3.97998 -1.87845 0
M  V30 16704 H 1579.52 0.592911 -0.437751 0
M  V30 16705 H 1582.16 1.017 -1.6049 0
M  V30 16706 H 1580.31 3.49659 -1.69326 0
M  V30 16707 H 1581.98 2.28738 -4.00595 0
M  V30 16708 H 1580.22 2.09048 -3.80107 0
M  V30 16709 H 1580.89 3.69681 -4.09927 0
M  V30 16710 H 1583.37 3.54523 -2.17836 0
M  V30 16711 H 1582.25 4.89388 -2.48578 0
M  V30 16712 H 1582.51 4.34062 -0.839183 0
M  V30 16713 N 1581.57 1.13606 1.09231 0
M  V30 16714 C 1582.52 0.784018 2.14096 0
M  V30 16715 C 1583.5 -0.22288 1.59349 0
M  V30 16716 O 1584.69 -0.0264914 1.7698 0
M  V30 16717 C 1581.82 0.253922 3.4236 0
M  V30 16718 C 1580.91 1.28985 4.0401 0
M  V30 16719 N 1581.3 2.49138 4.40186 0
M  V30 16720 C 1579.6 1.1381 4.31235 0
M  V30 16721 C 1580.3 3.15388 4.8878 0
M  V30 16722 N 1579.27 2.42806 4.8636 0
M  V30 16723 H 1583.08 1.69816 2.39874 0
M  V30 16724 H 1580.59 1.01867 1.26478 0
M  V30 16725 H 1582.59 -0.0165402 4.16897 0
M  V30 16726 H 1581.25 -0.65452 3.18035 0
M  V30 16727 H 1582.26 2.8643 4.31484 0
M  V30 16728 H 1578.94 0.287982 4.16506 0
M  V30 16729 H 1580.33 4.17784 5.26219 0
M  V30 16730 N 1583.05 -1.27244 0.929878 0
M  V30 16731 C 1583.98 -2.29161 0.448066 0
M  V30 16732 C 1584.96 -1.62806 -0.492776 0
M  V30 16733 O 1586.14 -1.90098 -0.39706 0
M  V30 16734 C 1583.27 -3.46019 -0.298002 0
M  V30 16735 C 1582.23 -4.24384 0.555211 0
M  V30 16736 C 1581.55 -5.33741 -0.320153 0
M  V30 16737 C 1582.85 -4.89535 1.8208 0
M  V30 16738 H 1584.55 -2.69712 1.29983 0
M  V30 16739 H 1582.09 -1.29659 0.626466 0
M  V30 16740 H 1584.04 -4.16419 -0.646024 0
M  V30 16741 H 1582.77 -3.0439 -1.18381 0
M  V30 16742 H 1581.43 -3.55733 0.885971 0
M  V30 16743 H 1581.08 -4.88354 -1.20498 0
M  V30 16744 H 1580.78 -5.8708 0.247241 0
M  V30 16745 H 1582.3 -6.06982 -0.663697 0
M  V30 16746 H 1583.71 -5.52209 1.54071 0
M  V30 16747 H 1582.11 -5.52941 2.33186 0
M  V30 16748 H 1583.18 -4.13113 2.53901 0
M  V30 16749 N 1584.52 -0.695628 -1.41417 0
M  V30 16750 C 1585.94 -0.367185 -1.55319 0
M  V30 16751 C 1586.14 1.12584 -1.67114 0
M  V30 16752 O 1585.2 1.91166 -1.64959 0
M  V30 16753 C 1586.51 -1.11576 -2.79233 0
M  V30 16754 C 1588.06 -1.10011 -2.9303 0
M  V30 16755 C 1588.53 -1.83044 -4.19832 0
M  V30 16756 N 1590.02 -1.80014 -4.26789 0
M  V30 16757 C 1590.76 -2.33362 -5.23765 0
M  V30 16758 N 1590.25 -2.95182 -6.26769 0
M  V30 16759 N 1592.05 -2.23618 -5.15705 0
M  V30 16760 H 1584.2 -1.66398 -1.32006 0
M  V30 16761 H 1586.46 -0.702205 -0.636877 0
M  V30 16762 H 1586.17 -2.1706 -2.76727 0
M  V30 16763 H 1586.04 -0.694385 -3.70753 0
M  V30 16764 H 1588.43 -0.0535436 -2.95051 0
M  V30 16765 H 1588.51 -1.56055 -2.02683 0
M  V30 16766 H 1588.15 -2.8768 -4.18572 0
M  V30 16767 H 1588.08 -1.34434 -5.09151 0
M  V30 16768 H 1590.57 -1.34942 -3.52986 0
M  V30 16769 H 1590.89 -3.33456 -6.97156 0
M  V30 16770 H 1589.23 -2.99259 -6.27271 0
M  V30 16771 H 1592.42 -1.74994 -4.3416 0
M  V30 16772 H 1592.6 -2.65497 -5.91113 0
M  V30 16773 N 1586 1.51322 -0.440383 0
M  V30 16774 C 1587.25 2.01714 0.124815 0
M  V30 16775 C 1587.57 1.32634 1.42945 0
M  V30 16776 O 1586.84 0.461849 1.90378 0
M  V30 16777 H 1585.42 0.745384 0.049116 0
M  V30 16778 H 1588.08 1.85951 -0.583787 0
M  V30 16779 H 1587.18 3.10669 0.29853 0
M  V30 16780 N 1587.48 0.171848 1.5666 0
M  V30 16781 C 1588.71 -0.479221 2.01274 0
M  V30 16782 C 1589.12 -1.56771 1.05206 0
M  V30 16783 O 1588.48 -1.82423 0.0530164 0
M  V30 16784 C 1588.53 -1.05705 3.457 0
M  V30 16785 O 1588.25 -0.0120133 4.38098 0
M  V30 16786 C 1589.75 -1.78629 4.05717 0
M  V30 16787 H 1586.97 -0.122598 0.659705 0
M  V30 16788 H 1589.52 0.273733 2.0266 0
M  V30 16789 H 1587.67 -1.7605 3.45087 0
M  V30 16790 H 1588.09 -0.438714 5.22662 0
M  V30 16791 H 1589.56 -2.14319 5.08696 0
M  V30 16792 H 1590.04 -2.68149 3.4784 0
M  V30 16793 H 1590.64 -1.12925 4.10034 0
M  V30 16794 N 1588.96 -1.5727 -0.101874 0
M  V30 16795 C 1590.18 -1.90319 -0.824215 0
M  V30 16796 C 1590.61 -0.765469 -1.7182 0
M  V30 16797 O 1589.97 0.283275 -1.79073 0
M  V30 16798 C 1590.01 -3.22201 -1.61922 0
M  V30 16799 O 1589.12 -3.09313 -2.72762 0
M  V30 16800 H 1588.46 -0.624042 -0.226864 0
M  V30 16801 H 1590.99 -2.04447 -0.0791314 0
M  V30 16802 H 1591 -3.55343 -2.00487 0
M  V30 16803 H 1589.67 -4.04596 -0.963078 0
M  V30 16804 H 1588.25 -2.87672 -2.37274 0
M  V30 16805 N 1590.44 0.372521 -1.53134 0
M  V30 16806 C 1591.66 1.13668 -1.72879 0
M  V30 16807 C 1592.08 1.83246 -0.454588 0
M  V30 16808 O 1591.44 1.73302 0.572062 0
M  V30 16809 C 1591.49 2.17226 -2.88955 0
M  V30 16810 O 1591.21 1.50483 -4.11445 0
M  V30 16811 C 1592.71 3.06243 -3.20516 0
M  V30 16812 H 1589.93 0.340156 -0.57839 0
M  V30 16813 H 1592.47 0.433557 -1.99851 0
M  V30 16814 H 1590.63 2.83148 -2.64397 0
M  V30 16815 H 1591.04 2.19425 -4.76396 0
M  V30 16816 H 1592.52 3.74901 -4.05158 0
M  V30 16817 H 1592.99 3.70669 -2.35587 0
M  V30 16818 H 1593.6 2.45946 -3.46973 0
M  V30 16819 N 1591.91 1.44376 0.631925 0
M  V30 16820 C 1592.82 1.5367 1.77264 0
M  V30 16821 C 1593.84 0.422425 1.68794 0
M  V30 16822 O 1595.02 0.679656 1.89585 0
M  V30 16823 C 1592.08 1.47743 3.13644 0
M  V30 16824 C 1591.14 2.70015 3.33752 0
M  V30 16825 C 1590.37 2.64362 4.63626 0
M  V30 16826 O 1590.6 1.7032 5.44378 0
M  V30 16827 O 1589.53 3.55201 4.85918 0
M  V30 16828 H 1593.36 2.5004 1.72376 0
M  V30 16829 H 1590.94 1.26614 0.793052 0
M  V30 16830 H 1592.82 1.46958 3.94945 0
M  V30 16831 H 1591.5 0.545165 3.19076 0
M  V30 16832 H 1590.41 2.76369 2.52133 0
M  V30 16833 H 1591.74 3.62286 3.33181 0
M  V30 16834 N 1593.39 -0.872258 1.31261 0
M  V30 16835 C 1594.62 -1.65795 1.23772 0
M  V30 16836 C 1595.03 -1.87766 -0.197351 0
M  V30 16837 O 1594.39 -1.43418 -1.1286 0
M  V30 16838 C 1594.44 -3.02722 1.9759 0
M  V30 16839 O 1594.16 -2.81734 3.35496 0
M  V30 16840 C 1595.66 -3.97165 1.96913 0
M  V30 16841 H 1592.88 -0.516959 0.427778 0
M  V30 16842 H 1595.43 -1.0889 1.73099 0
M  V30 16843 H 1593.58 -3.56322 1.5203 0
M  V30 16844 H 1594 -3.6869 3.73052 0
M  V30 16845 H 1595.47 -4.90566 2.53079 0
M  V30 16846 H 1595.95 -4.28778 0.951089 0
M  V30 16847 H 1596.55 -3.495 2.42342 0
M  V30 16848 N 1594.87 -1.14184 -1.08627 0
M  V30 16849 C 1596.12 -0.91001 -1.81236 0
M  V30 16850 C 1596.45 0.562134 -1.85886 0
M  V30 16851 O 1595.72 1.41631 -1.33307 0
M  V30 16852 C 1596.01 -1.50879 -3.26967 0
M  V30 16853 C 1595.86 -3.05063 -3.3054 0
M  V30 16854 C 1597.18 -1.18379 -4.2388 0
M  V30 16855 H 1594.3 -0.332025 -0.657973 0
M  V30 16856 H 1596.94 -1.41144 -1.27194 0
M  V30 16857 H 1595.09 -1.08236 -3.73118 0
M  V30 16858 H 1596.76 -3.5652 -2.9273 0
M  V30 16859 H 1595 -3.39628 -2.6988 0
M  V30 16860 H 1595.68 -3.42064 -4.33239 0
M  V30 16861 H 1598.15 -1.55242 -3.86056 0
M  V30 16862 H 1597.03 -1.62911 -5.24167 0
M  V30 16863 H 1597.29 -0.0987385 -4.4199 0
M  V30 16864 N 1596.35 1.26749 -0.936613 0
M  V30 16865 C 1597.76 1.75925 -0.62507 0
M  V30 16866 C 1598.11 1.76359 0.859771 0
M  V30 16867 O 1597.24 1.37277 1.67284 0
M  V30 16868 C 1597.83 3.19474 -1.12791 0
M  V30 16869 C 1596.39 3.66282 -0.866872 0
M  V30 16870 C 1595.54 2.45913 -1.28148 0
M  V30 16871 H 1598.49 1.1289 -1.11542 0
M  V30 16872 H 1598.51 3.77465 -0.479643 0
M  V30 16873 H 1598.02 3.19126 -2.20862 0
M  V30 16874 H 1596.12 3.72065 0.199647 0
M  V30 16875 H 1596.23 4.55319 -1.49067 0
M  V30 16876 H 1594.6 2.44894 -0.699941 0
M  V30 16877 H 1595.38 2.4827 -2.37101 0
M  V30 16878 N 1597.83 0.703118 1.41046 0
M  V30 16879 C 1598.77 0.0312802 2.32579 0
M  V30 16880 C 1599.77 -0.760463 1.51371 0
M  V30 16881 O 1600.97 -0.665235 1.67256 0
M  V30 16882 H 1597.35 -0.00868655 0.75195 0
M  V30 16883 H 1599.32 0.820195 2.86907 0
M  V30 16884 C 1598.07 -0.885639 3.36232 0
M  V30 16885 H 1597.39 -0.285819 3.98777 0
M  V30 16886 H 1598.83 -1.3239 4.02801 0
M  V30 16887 C 1597.29 -2.00533 2.70718 0
M  V30 16888 O 1597.82 -3.09491 2.56082 0
M  V30 16889 N 1596.03 -1.78528 2.29295 0
M  V30 16890 H 1595.57 -0.899139 2.41399 0
M  V30 16891 H 1595.53 -2.53627 1.85797 0
M  V30 16892 N 1599.3 -1.51086 0.448402 0
M  V30 16893 C 1600.27 -2.26575 -0.3459 0
M  V30 16894 C 1601.27 -1.3045 -0.940178 0
M  V30 16895 O 1602.46 -1.5407 -0.812898 0
M  V30 16896 C 1599.59 -3.06591 -1.49045 0
M  V30 16897 H 1600.78 -2.98232 0.315822 0
M  V30 16898 H 1598.34 -1.54991 0.201851 0
M  V30 16899 H 1599.07 -2.39377 -2.1879 0
M  V30 16900 H 1598.86 -3.77207 -1.07038 0
M  V30 16901 H 1600.35 -3.63743 -2.05135 0
M  V30 16902 N 1600.78 -0.180154 -1.56567 0
M  V30 16903 C 1601.73 0.763484 -2.19713 0
M  V30 16904 C 1602.72 1.23095 -1.16378 0
M  V30 16905 O 1603.93 1.19558 -1.34558 0
M  V30 16906 H 1600.31 0.264515 -0.703943 0
M  V30 16907 H 1602.28 0.207039 -2.97681 0
M  V30 16908 C 1601.03 1.97884 -2.85897 0
M  V30 16909 H 1600.35 1.62818 -3.65144 0
M  V30 16910 H 1601.79 2.61779 -3.33538 0
M  V30 16911 C 1600.25 2.80811 -1.86136 0
M  V30 16912 O 1600.78 3.78253 -1.35232 0
M  V30 16913 N 1598.98 2.46003 -1.54697 0
M  V30 16914 H 1598.53 1.66823 -1.96285 0
M  V30 16915 H 1598.49 3.01774 -0.88202 0
M  V30 16916 N 1602.26 1.57322 0.0935319 0
M  V30 16917 C 1603.51 1.85353 0.795445 0
M  V30 16918 C 1603.82 0.769647 1.79822 0
M  V30 16919 O 1605.03 0.937121 2.54814 0
M  V30 16920 C 1603.48 3.28711 1.4655 0
M  V30 16921 C 1603.09 4.45174 0.502415 0
M  V30 16922 C 1604.84 3.65965 2.15105 0
M  V30 16923 C 1602.74 5.79566 1.17715 0
M  V30 16924 H 1601.67 0.691394 0.300816 0
M  V30 16925 H 1604.32 1.83436 0.0484063 0
M  V30 16926 H 1602.71 3.25173 2.26005 0
M  V30 16927 H 1603.88 4.60062 -0.260754 0
M  V30 16928 H 1602.2 4.16328 -0.0775186 0
M  V30 16929 H 1604.79 4.63655 2.66323 0
M  V30 16930 H 1605.14 2.94667 2.94069 0
M  V30 16931 H 1605.67 3.71398 1.42508 0
M  V30 16932 H 1602.41 6.54099 0.428277 0
M  V30 16933 H 1601.93 5.68519 1.9117 0
M  V30 16934 H 1603.61 6.2418 1.70318 0
M  V30 16935 N 1603.74 -0.364395 1.53329 0
M  V30 16936 C 1604.96 -1.13196 1.73786 0
M  V30 16937 C 1605.39 -1.82231 0.466224 0
M  V30 16938 O 1604.75 -1.71778 -0.579817 0
M  V30 16939 C 1604.79 -2.13704 2.90453 0
M  V30 16940 O 1603.9 -3.20808 2.59144 0
M  V30 16941 H 1603.24 -0.328387 0.577112 0
M  V30 16942 H 1605.77 -0.421157 2.00218 0
M  V30 16943 H 1605.78 -2.57285 3.16652 0
M  V30 16944 H 1604.45 -1.6285 3.82691 0
M  V30 16945 H 1603.03 -2.82192 2.43767 0
M  V30 16946 N 1605.22 -1.44709 -0.62426 0
M  V30 16947 C 1606.46 -1.47561 -1.38094 0
M  V30 16948 C 1606.79 -0.112115 -1.94677 0
M  V30 16949 O 1606.06 0.856458 -1.76186 0
M  V30 16950 H 1604.64 -0.543368 -0.512601 0
M  V30 16951 H 1607.3 -1.8054 -0.734258 0
M  V30 16952 H 1606.39 -2.20496 -2.2088 0
M  V30 16953 N 1606.69 0.865285 -1.31722 0
M  V30 16954 C 1607.94 1.61549 -1.21435 0
M  V30 16955 C 1608.26 1.9368 0.226501 0
M  V30 16956 O 1607.53 1.58705 1.14846 0
M  V30 16957 H 1606.11 0.598905 -0.446454 0
M  V30 16958 H 1608.78 1.03563 -1.65108 0
M  V30 16959 H 1607.87 2.55708 -1.78941 0
M  V30 16960 N 1608.17 1.14759 1.0802 0
M  V30 16961 C 1609.4 0.942316 1.84757 0
M  V30 16962 C 1609.82 -0.504188 1.81217 0
M  V30 16963 O 1609.18 -1.35891 1.20014 0
M  V30 16964 C 1609.23 1.45271 3.30043 0
M  V30 16965 O 1608.33 0.647414 4.07287 0
M  V30 16966 H 1607.67 0.336613 0.572353 0
M  V30 16967 H 1610.2 1.52578 1.36313 0
M  V30 16968 H 1610.21 1.4626 3.80883 0
M  V30 16969 H 1608.89 2.50583 3.31935 0
M  V30 16970 H 1607.47 0.706595 3.66144 0
M  V30 16971 N 1609.65 -1.26251 0.943322 0
M  V30 16972 C 1610.9 -1.93939 0.592909 0
M  V30 16973 C 1611.23 -1.73814 -0.866155 0
M  V30 16974 O 1610.5 -1.07645 -1.61997 0
M  V30 16975 C 1610.79 -3.47653 0.938601 0
M  V30 16976 C 1610.64 -3.77053 2.45257 0
M  V30 16977 C 1611.96 -4.37736 0.455546 0
M  V30 16978 H 1609.08 -0.704367 0.21688 0
M  V30 16979 H 1611.72 -1.4908 1.17793 0
M  V30 16980 H 1609.87 -3.85992 0.440756 0
M  V30 16981 H 1611.54 -3.48417 3.0233 0
M  V30 16982 H 1609.79 -3.23055 2.89513 0
M  V30 16983 H 1610.46 -4.84506 2.64495 0
M  V30 16984 H 1612.93 -4.06635 0.882435 0
M  V30 16985 H 1611.81 -5.44075 0.72623 0
M  V30 16986 H 1612.07 -4.37377 -0.644508 0
M  V30 16987 N 1611.13 -0.710588 -1.40671 0
M  V30 16988 C 1612.38 -0.248316 -2.01274 0
M  V30 16989 C 1612.71 1.1539 -1.56201 0
M  V30 16990 O 1611.98 1.78182 -0.779838 0
M  V30 16991 C 1612.27 -0.322762 -3.58651 0
M  V30 16992 C 1612.12 -1.763 -4.1381 0
M  V30 16993 C 1613.44 0.308908 -4.39015 0
M  V30 16994 H 1610.56 -0.0917037 -0.731272 0
M  V30 16995 H 1613.2 -0.902145 -1.67216 0
M  V30 16996 H 1611.35 0.233923 -3.87795 0
M  V30 16997 H 1613.02 -2.37468 -3.95483 0
M  V30 16998 H 1611.26 -2.29233 -3.68286 0
M  V30 16999 H 1611.94 -1.76652 -5.22971 0
M  V30 17000 H 1614.41 -0.165363 -4.15771 0
M  V30 17001 H 1613.29 0.226347 -5.48433 0
M  V30 17002 H 1613.55 1.39174 -4.19622 0
M  V30 17003 N 1612.61 1.50847 -0.456408 0
M  V30 17004 C 1613.57 2.26755 0.33388 0
M  V30 17005 C 1614.57 1.30947 0.933247 0
M  V30 17006 O 1615.76 1.54499 0.804716 0
M  V30 17007 C 1612.89 3.07378 1.47417 0
M  V30 17008 H 1614.09 2.98061 -0.331634 0
M  V30 17009 H 1611.64 1.54882 -0.210067 0
M  V30 17010 H 1612.37 2.40534 2.17518 0
M  V30 17011 H 1612.16 3.7777 1.05036 0
M  V30 17012 H 1613.65 3.64826 2.03204 0
M  V30 17013 N 1614.09 0.188454 1.56469 0
M  V30 17014 C 1615.36 -0.499324 1.89119 0
M  V30 17015 C 1615.74 -1.80116 1.10098 0
M  V30 17016 O 1615.09 -2.27623 0.200048 0
M  V30 17017 C 1615.3 -0.724574 3.41396 0
M  V30 17018 C 1616.65 -1.04692 4.11491 0
M  V30 17019 O 1617.67 -0.812526 3.46809 0
M  V30 17020 O 1616.53 -1.48998 5.25797 0
M  V30 17021 H 1613.63 -0.259468 0.785242 0
M  V30 17022 H 1616.17 0.228172 1.68159 0
M  V30 17023 H 1614.94 0.195039 3.90814 0
M  V30 17024 H 1614.57 -1.50477 3.68025 0
M  V30 17025 N 1615.56 -1.5737 -0.0851874 0
M  V30 17026 C 1616.49 -2.05796 -1.10319 0
M  V30 17027 C 1617.47 -0.948796 -1.4118 0
M  V30 17028 O 1618.66 -1.22069 -1.51039 0
M  V30 17029 C 1615.79 -2.49069 -2.42037 0
M  V30 17030 C 1614.74 -3.6374 -2.25561 0
M  V30 17031 C 1614.07 -3.93023 -3.62543 0
M  V30 17032 C 1615.37 -4.94274 -1.68793 0
M  V30 17033 H 1617.06 -2.91095 -0.700274 0
M  V30 17034 H 1614.61 -1.40039 -0.335405 0
M  V30 17035 H 1616.56 -2.81558 -3.13534 0
M  V30 17036 H 1615.29 -1.60781 -2.84283 0
M  V30 17037 H 1613.95 -3.31513 -1.56507 0
M  V30 17038 H 1613.59 -3.01887 -4.02335 0
M  V30 17039 H 1613.29 -4.70229 -3.52362 0
M  V30 17040 H 1614.82 -4.27995 -4.35491 0
M  V30 17041 H 1616.23 -5.25079 -2.30141 0
M  V30 17042 H 1614.63 -5.75711 -1.69344 0
M  V30 17043 H 1615.7 -4.80548 -0.648204 0
M  V30 17044 N 1617.04 0.356258 -1.53521 0
M  V30 17045 C 1617.99 1.45718 -1.81298 0
M  V30 17046 C 1618.98 1.55036 -0.682652 0
M  V30 17047 O 1620.19 1.57812 -0.865766 0
M  V30 17048 H 1616.56 0.485614 -0.57418 0
M  V30 17049 H 1618.54 1.19498 -2.73428 0
M  V30 17050 C 1617.28 2.82424 -2.0281 0
M  V30 17051 H 1616.61 2.76016 -2.89232 0
M  V30 17052 H 1618.05 3.5861 -2.26218 0
M  V30 17053 C 1616.51 3.2702 -0.809893 0
M  V30 17054 O 1617.04 4.017 -0.00310668 0
M  V30 17055 N 1615.24 2.83673 -0.630696 0
M  V30 17056 H 1614.79 2.23066 -1.28839 0
M  V30 17057 H 1614.75 3.13867 0.182961 0
M  V30 17058 N 1618.52 1.45038 0.616577 0
M  V30 17059 C 1619.77 1.48292 1.3731 0
M  V30 17060 C 1620.09 0.122437 1.94615 0
M  V30 17061 O 1619.36 -0.847103 1.76638 0
M  V30 17062 H 1617.94 0.546079 0.509712 0
M  V30 17063 H 1620.6 1.80927 0.724673 0
M  V30 17064 H 1619.7 2.21664 2.19708 0
M  V30 17065 N 1620 -0.858287 1.32179 0
M  V30 17066 C 1620.93 -1.98219 1.23415 0
M  V30 17067 C 1621.91 -1.69685 0.118779 0
M  V30 17068 O 1623.09 -1.91785 0.305342 0
M  V30 17069 C 1620.22 -3.33977 0.952725 0
M  V30 17070 C 1619.18 -3.76853 2.02894 0
M  V30 17071 C 1618.5 -5.10201 1.59999 0
M  V30 17072 C 1619.8 -3.92707 3.44352 0
M  V30 17073 H 1621.5 -2.05809 2.17446 0
M  V30 17074 H 1619.04 -0.988817 1.04682 0
M  V30 17075 H 1621 -4.12152 0.87798 0
M  V30 17076 H 1619.72 -3.26592 -0.023234 0
M  V30 17077 H 1618.38 -3.00926 2.09378 0
M  V30 17078 H 1618.03 -4.99268 0.61157 0
M  V30 17079 H 1617.73 -5.39859 2.32004 0
M  V30 17080 H 1619.25 -5.90873 1.53954 0
M  V30 17081 H 1620.67 -4.61246 3.40477 0
M  V30 17082 H 1619.06 -4.33779 4.14675 0
M  V30 17083 H 1620.13 -2.95731 3.8428 0
M  V30 17084 N 1621.48 -1.1533 -1.07409 0
M  V30 17085 C 1622.44 -0.852155 -2.1277 0
M  V30 17086 C 1623.44 0.14782 -1.60119 0
M  V30 17087 O 1624.63 -0.0817436 -1.74008 0
M  V30 17088 C 1621.76 -0.272233 -3.39811 0
M  V30 17089 H 1622.95 -1.78604 -2.40917 0
M  V30 17090 H 1620.51 -0.960698 -1.23289 0
M  V30 17091 H 1621.24 0.669873 -3.17306 0
M  V30 17092 H 1621.03 -0.992629 -3.79327 0
M  V30 17093 H 1622.52 -0.0790986 -4.17525 0
M  V30 17094 N 1622.95 1.25748 -0.950004 0
M  V30 17095 C 1624.2 1.93622 -0.603186 0
M  V30 17096 C 1624.53 1.74271 0.856925 0
M  V30 17097 O 1623.81 1.08502 1.61423 0
M  V30 17098 C 1624.09 3.4715 -0.957024 0
M  V30 17099 C 1623.94 3.75747 -2.47253 0
M  V30 17100 C 1625.26 4.37488 -0.478754 0
M  V30 17101 H 1622.38 0.703206 -0.220612 0
M  V30 17102 H 1625.02 1.48453 -1.18582 0
M  V30 17103 H 1623.17 3.85753 -0.46122 0
M  V30 17104 H 1624.85 3.46808 -3.04174 0
M  V30 17105 H 1623.09 3.21516 -2.91222 0
M  V30 17106 H 1623.76 4.83097 -2.67061 0
M  V30 17107 H 1626.24 4.06162 -0.903987 0
M  V30 17108 H 1625.11 5.43682 -0.755073 0
M  V30 17109 H 1625.37 4.37712 0.621303 0
M  V30 17110 N 1624.43 0.718038 1.40292 0
M  V30 17111 C 1625.38 0.0670495 2.30703 0
M  V30 17112 C 1626.35 -0.747716 1.48319 0
M  V30 17113 O 1627.53 -0.711161 1.77051 0
M  V30 17114 C 1624.67 -0.846918 3.34546 0
M  V30 17115 C 1623.79 -0.0213622 4.31995 0
M  V30 17116 C 1622.92 -0.935035 5.22906 0
M  V30 17117 C 1621.96 -0.103715 6.12012 0
M  V30 17118 N 1621.1 -0.972397 6.95334 0
M  V30 17119 H 1625.94 0.843724 2.85806 0
M  V30 17120 H 1623.47 0.427756 1.40743 0
M  V30 17121 H 1625.43 -1.39109 3.93325 0
M  V30 17122 H 1624.06 -1.58975 2.80939 0
M  V30 17123 H 1623.11 0.640026 3.74977 0
M  V30 17124 H 1624.43 0.62215 4.94905 0
M  V30 17125 H 1623.58 -1.54766 5.86628 0
M  V30 17126 H 1622.32 -1.61236 4.60276 0
M  V30 17127 H 1621.32 0.521826 5.47318 0
M  V30 17128 H 1622.55 0.570146 6.76702 0
M  V30 17129 H 1620.5 -1.63533 6.3529 0
M  V30 17130 H 1620.41 -0.384977 7.55019 0
M  V30 17131 H 1621.68 -1.57112 7.63503 0
M  V30 17132 N 1625.91 -1.50602 0.464402 0
M  V30 17133 C 1627.19 -1.94992 -0.154146 0
M  V30 17134 C 1627.57 -1.40447 -1.57601 0
M  V30 17135 O 1626.92 -0.602668 -2.20409 0
M  V30 17136 C 1627.13 -3.48844 -0.104296 0
M  V30 17137 C 1628.47 -4.23563 -0.296506 0
M  V30 17138 O 1629.5 -3.55739 -0.181187 0
M  V30 17139 O 1628.36 -5.43937 -0.528668 0
M  V30 17140 H 1625.45 -0.818921 -0.115311 0
M  V30 17141 H 1628 -1.61397 0.524324 0
M  V30 17142 H 1626.77 -3.81075 0.88869 0
M  V30 17143 H 1626.39 -3.88957 -0.824514 0
M  V30 17144 N 1627.39 -0.19675 -1.56367 0
M  V30 17145 C 1628.35 0.709734 -2.17934 0
M  V30 17146 C 1629.35 1.13979 -1.13426 0
M  V30 17147 O 1630.54 1.05261 -1.38801 0
M  V30 17148 C 1627.67 1.96917 -2.78274 0
M  V30 17149 H 1628.87 0.173342 -2.99399 0
M  V30 17150 H 1626.42 0.0528698 -1.56211 0
M  V30 17151 H 1627.15 2.54804 -2.00613 0
M  V30 17152 H 1626.94 1.66951 -3.54781 0
M  V30 17153 H 1628.43 2.61554 -3.25545 0
M  V30 17154 N 1628.87 1.57413 0.0768405 0
M  V30 17155 C 1630.11 1.88835 0.78235 0
M  V30 17156 C 1630.47 0.789942 1.74997 0
M  V30 17157 O 1631.67 0.987092 2.5002 0
M  V30 17158 C 1629.94 3.25491 1.47616 0
M  V30 17159 S 1631.5 3.78649 2.21743 0
M  V30 17160 H 1628.32 0.661649 0.260272 0
M  V30 17161 H 1630.92 1.95462 0.0386596 0
M  V30 17162 H 1629.63 4.03338 0.758047 0
M  V30 17163 H 1629.16 3.22049 2.25938 0
M  V30 17164 H 1631.17 3.53531 3.48182 0
M  V30 17165 N 1630.34 -0.348112 1.53707 0
M  V30 17166 C 1631.28 -1.44781 1.77682 0
M  V30 17167 C 1632.29 -1.4891 0.657997 0
M  V30 17168 O 1633.48 -1.52075 0.934635 0
M  V30 17169 C 1630.58 -2.83463 1.85747 0
M  V30 17170 C 1629.75 -3.02827 3.15618 0
M  V30 17171 C 1628.81 -4.21724 3.14698 0
M  V30 17172 O 1627.84 -4.16059 3.88437 0
M  V30 17173 N 1629.04 -5.3003 2.36746 0
M  V30 17174 H 1631.8 -1.24587 2.72577 0
M  V30 17175 H 1629.36 -0.537961 1.52701 0
M  V30 17176 H 1631.36 -3.6117 1.82589 0
M  V30 17177 H 1629.93 -2.96822 0.980595 0
M  V30 17178 H 1629.15 -2.1263 3.31937 0
M  V30 17179 H 1630.43 -3.12645 4.01411 0
M  V30 17180 H 1629.83 -5.375 1.7638 0
M  V30 17181 H 1628.39 -6.06247 2.39389 0
M  V30 17182 N 1631.82 -1.45363 -0.608876 0
M  V30 17183 C 1633.05 -1.52836 -1.39459 0
M  V30 17184 C 1633.47 -0.160537 -1.88116 0
M  V30 17185 O 1632.82 0.837671 -1.6214 0
M  V30 17186 C 1632.87 -2.51168 -2.59994 0
M  V30 17187 O 1632.59 -3.82635 -2.13359 0
M  V30 17188 C 1634.1 -2.68326 -3.52868 0
M  V30 17189 H 1631.32 -0.51765 -0.426942 0
M  V30 17190 H 1633.86 -1.90538 -0.742674 0
M  V30 17191 H 1632.01 -2.16542 -3.2123 0
M  V30 17192 H 1632.43 -4.35927 -2.91665 0
M  V30 17193 H 1633.9 -3.41109 -4.33992 0
M  V30 17194 H 1634.38 -1.74317 -4.03126 0
M  V30 17195 H 1634.99 -3.03943 -2.97487 0
M  V30 17196 N 1633.3 0.851265 -1.32632 0
M  V30 17197 C 1634.23 1.97562 -1.24465 0
M  V30 17198 C 1635.21 1.69619 -0.127777 0
M  V30 17199 O 1636.4 1.9162 -0.315509 0
M  V30 17200 C 1633.53 3.33467 -0.970423 0
M  V30 17201 C 1632.48 3.75772 -2.0489 0
M  V30 17202 C 1631.81 5.09345 -1.62702 0
M  V30 17203 C 1633.11 3.90876 -3.4643 0
M  V30 17204 H 1634.8 2.04653 -2.18535 0
M  V30 17205 H 1632.35 0.983252 -1.05205 0
M  V30 17206 H 1634.3 4.11681 -0.899825 0
M  V30 17207 H 1633.02 3.26599 0.00591373 0
M  V30 17208 H 1631.68 2.99812 -2.1097 0
M  V30 17209 H 1631.33 4.98937 -0.638039 0
M  V30 17210 H 1631.03 5.38621 -2.34864 0
M  V30 17211 H 1632.55 5.90048 -1.57085 0
M  V30 17212 H 1633.97 4.59434 -3.42919 0
M  V30 17213 H 1632.37 4.31574 -4.1697 0
M  V30 17214 H 1633.44 2.93689 -3.85843 0
M  V30 17215 N 1634.78 1.15898 1.06796 0
M  V30 17216 C 1635.71 0.88395 2.16122 0
M  V30 17217 C 1636.69 -0.167708 1.69271 0
M  V30 17218 O 1637.87 -0.0208846 1.94189 0
M  V30 17219 C 1635 0.378656 3.4523 0
M  V30 17220 C 1633.96 1.36764 4.05561 0
M  V30 17221 C 1633.28 0.720956 5.29817 0
M  V30 17222 C 1634.58 2.73554 4.44933 0
M  V30 17223 H 1636.28 1.79818 2.39386 0
M  V30 17224 H 1633.82 0.866008 1.15049 0
M  V30 17225 H 1635.78 0.17376 4.21042 0
M  V30 17226 H 1634.5 -0.571063 3.21569 0
M  V30 17227 H 1633.16 1.55899 3.318 0
M  V30 17228 H 1632.81 -0.235089 5.0245 0
M  V30 17229 H 1632.51 1.38101 5.71141 0
M  V30 17230 H 1634.03 0.525963 6.0833 0
M  V30 17231 H 1635.45 2.58231 5.11849 0
M  V30 17232 H 1633.84 3.35986 4.97226 0
M  V30 17233 H 1634.91 3.29192 3.56034 0
M  V30 17234 N 1636.26 -1.25243 0.956659 0
M  V30 17235 C 1637.2 -2.25811 0.477292 0
M  V30 17236 C 1638.17 -1.59273 -0.471301 0
M  V30 17237 O 1639.36 -1.86894 -0.384105 0
M  V30 17238 C 1636.5 -3.44286 -0.236891 0
M  V30 17239 C 1635.61 -4.25454 0.749177 0
M  V30 17240 C 1634.75 -5.31199 0.012228 0
M  V30 17241 C 1633.79 -6.04056 0.989094 0
M  V30 17242 N 1632.92 -7.0153 0.282883 0
M  V30 17243 H 1637.76 -2.66185 1.33977 0
M  V30 17244 H 1635.3 -1.30862 0.671832 0
M  V30 17245 H 1637.26 -4.11825 -0.66755 0
M  V30 17246 H 1635.89 -3.04781 -1.06339 0
M  V30 17247 H 1634.94 -3.57558 1.29831 0
M  V30 17248 H 1636.25 -4.75883 1.49454 0
M  V30 17249 H 1635.41 -6.04822 -0.476968 0
M  V30 17250 H 1634.14 -4.81648 -0.76591 0
M  V30 17251 H 1633.15 -5.29245 1.48927 0
M  V30 17252 H 1634.37 -6.55695 1.76749 0
M  V30 17253 H 1632.32 -6.54267 -0.476479 0
M  V30 17254 H 1632.24 -7.49786 0.967304 0
M  V30 17255 H 1633.51 -7.79281 -0.184709 0
M  V30 17256 N 1637.73 -0.725468 -1.3991 0
M  V30 17257 C 1639.15 -0.400048 -1.54505 0
M  V30 17258 C 1639.35 1.09014 -1.69464 0
M  V30 17259 O 1638.41 1.87624 -1.68977 0
M  V30 17260 C 1639.72 -1.17474 -2.76804 0
M  V30 17261 C 1641.27 -1.16202 -2.9063 0
M  V30 17262 C 1641.74 -1.91908 -4.15855 0
M  V30 17263 N 1643.23 -1.89026 -4.22875 0
M  V30 17264 C 1643.97 -2.4442 -5.18697 0
M  V30 17265 N 1643.46 -3.0841 -6.20367 0
M  V30 17266 N 1645.26 -2.34506 -5.10846 0
M  V30 17267 H 1637.41 -1.6916 -1.28447 0
M  V30 17268 H 1639.67 -0.715556 -0.621839 0
M  V30 17269 H 1639.38 -2.22881 -2.72061 0
M  V30 17270 H 1639.25 -0.772871 -3.69197 0
M  V30 17271 H 1641.64 -0.116116 -2.94871 0
M  V30 17272 H 1641.72 -1.60319 -1.99327 0
M  V30 17273 H 1641.36 -2.96494 -4.12375 0
M  V30 17274 H 1641.29 -1.45204 -5.06185 0
M  V30 17275 H 1643.78 -1.42399 -3.50044 0
M  V30 17276 H 1644.1 -3.48169 -6.89926 0
M  V30 17277 H 1642.44 -3.12497 -6.20782 0
M  V30 17278 H 1645.63 -1.84164 -4.3035 0
M  V30 17279 H 1645.81 -2.77976 -5.85349 0
M  V30 17280 N 1639.21 1.50354 -0.472382 0
M  V30 17281 C 1640.14 2.3142 0.310995 0
M  V30 17282 C 1641.12 1.38383 0.989151 0
M  V30 17283 O 1642.31 1.67303 0.986074 0
M  V30 17284 C 1639.44 3.18157 1.3926 0
M  V30 17285 C 1638.39 4.19756 0.835977 0
M  V30 17286 C 1637.72 4.9524 2.01597 0
M  V30 17287 C 1639.02 5.22074 -0.15361 0
M  V30 17288 H 1640.71 2.97159 -0.365595 0
M  V30 17289 H 1638.26 1.42905 -0.177266 0
M  V30 17290 H 1640.21 3.73666 1.94813 0
M  V30 17291 H 1638.94 2.50305 2.09798 0
M  V30 17292 H 1637.59 3.65351 0.302414 0
M  V30 17293 H 1637.24 4.2386 2.70836 0
M  V30 17294 H 1636.94 5.63966 1.64974 0
M  V30 17295 H 1638.47 5.53584 2.57637 0
M  V30 17296 H 1639.88 5.72446 0.312783 0
M  V30 17297 H 1638.28 5.98527 -0.43418 0
M  V30 17298 H 1639.35 4.72741 -1.07908 0
M  V30 17299 N 1640.69 0.205039 1.56261 0
M  V30 17300 C 1641.6 -0.723548 2.23164 0
M  V30 17301 C 1642.62 -1.22683 1.23389 0
M  V30 17302 O 1643.79 -1.27191 1.56155 0
M  V30 17303 C 1640.86 -1.92178 2.88563 0
M  V30 17304 C 1639.92 -1.46209 4.03635 0
M  V30 17305 C 1639.15 -2.60321 4.65906 0
M  V30 17306 O 1639.38 -3.78051 4.27122 0
M  V30 17307 O 1638.31 -2.32465 5.55197 0
M  V30 17308 H 1642.14 -0.183715 3.03144 0
M  V30 17309 H 1639.72 -0.0246933 1.4938 0
M  V30 17310 H 1641.6 -2.62188 3.29902 0
M  V30 17311 H 1640.28 -2.45003 2.11555 0
M  V30 17312 H 1639.18 -0.730492 3.66899 0
M  V30 17313 H 1640.52 -0.980402 4.82337 0
M  V30 17314 N 1642.17 -1.57451 -0.0684915 0
M  V30 17315 C 1643.58 -1.76107 -0.619932 0
M  V30 17316 C 1643.93 -0.830939 -1.77735 0
M  V30 17317 O 1643.06 -0.0158481 -2.16394 0
M  V30 17318 C 1643.65 -3.19352 -1.13136 0
M  V30 17319 C 1642.21 -3.39341 -1.62864 0
M  V30 17320 C 1641.36 -2.71801 -0.549477 0
M  V30 17321 H 1644.31 -1.57915 0.157689 0
M  V30 17322 H 1644.33 -3.23693 -2.00008 0
M  V30 17323 H 1643.84 -3.87024 -0.288762 0
M  V30 17324 H 1641.94 -2.76787 -2.49438 0
M  V30 17325 H 1642.06 -4.47799 -1.70331 0
M  V30 17326 H 1640.42 -2.34448 -0.995302 0
M  V30 17327 H 1641.2 -3.42132 0.282995 0
M  V30 17328 N 1643.65 0.339955 -1.5389 0
M  V30 17329 C 1644.9 1.07723 -1.70524 0
M  V30 17330 C 1645.21 1.89693 -0.477058 0
M  V30 17331 O 1646.42 2.66387 -0.524424 0
M  V30 17332 C 1644.87 1.96455 -3.01551 0
M  V30 17333 C 1644.48 1.19675 -4.3172 0
M  V30 17334 C 1646.22 2.70019 -3.27552 0
M  V30 17335 C 1644.13 2.07458 -5.53819 0
M  V30 17336 H 1643.06 0.405877 -0.635437 0
M  V30 17337 H 1645.71 0.336489 -1.80388 0
M  V30 17338 H 1644.09 2.74364 -2.85553 0
M  V30 17339 H 1645.27 0.466526 -4.58432 0
M  V30 17340 H 1643.58 0.578651 -4.1236 0
M  V30 17341 H 1646.18 3.35973 -4.15964 0
M  V30 17342 H 1646.52 3.36779 -2.44716 0
M  V30 17343 H 1647.06 1.99182 -3.44342 0
M  V30 17344 H 1643.79 1.45234 -6.39208 0
M  V30 17345 H 1643.31 2.7826 -5.31349 0
M  V30 17346 H 1644.99 2.66428 -5.89598 0
M  V30 17347 N 1645.13 1.45684 0.601159 0
M  V30 17348 C 1646.37 1.49308 1.3561 0
M  V30 17349 C 1646.69 0.141561 1.95087 0
M  V30 17350 O 1647.89 0.0554805 2.71443 0
M  V30 17351 C 1646.35 2.63001 2.4568 0
M  V30 17352 C 1645.96 4.04493 1.92586 0
M  V30 17353 C 1647.7 2.75877 3.22633 0
M  V30 17354 C 1645.61 5.09557 3.00176 0
M  V30 17355 H 1644.54 0.555604 0.509726 0
M  V30 17356 H 1647.19 1.71843 0.643606 0
M  V30 17357 H 1645.57 2.33761 3.19643 0
M  V30 17358 H 1646.75 4.4344 1.25289 0
M  V30 17359 H 1645.06 3.96123 1.28358 0
M  V30 17360 H 1647.66 3.51541 4.02893 0
M  V30 17361 H 1648 1.82737 3.74049 0
M  V30 17362 H 1648.53 3.04674 2.5577 0
M  V30 17363 H 1645.27 6.04427 2.53669 0
M  V30 17364 H 1644.79 4.75173 3.6602 0
M  V30 17365 H 1646.47 5.34591 3.64447 0
M  V30 17366 N 1646.6 -0.84422 1.33082 0
M  V30 17367 C 1647.83 -1.63654 1.27405 0
M  V30 17368 C 1648.25 -1.87476 -0.153146 0
M  V30 17369 O 1647.61 -1.43502 -1.10801 0
M  V30 17370 C 1647.66 -2.96698 2.04945 0
M  V30 17371 O 1646.76 -3.87751 1.40439 0
M  V30 17372 H 1646.1 -0.498545 0.438576 0
M  V30 17373 H 1648.63 -1.0507 1.7556 0
M  V30 17374 H 1648.64 -3.46438 2.1551 0
M  V30 17375 H 1647.32 -2.78682 3.08722 0
M  V30 17376 H 1645.9 -3.46231 1.38487 0
M  V30 17377 N 1648.08 -1.16463 -1.0618 0
M  V30 17378 C 1649.03 -0.87224 -2.13683 0
M  V30 17379 C 1650 0.179784 -1.65124 0
M  V30 17380 O 1651.18 0.0447406 -1.90748 0
M  V30 17381 C 1648.32 -0.380728 -3.42993 0
M  V30 17382 C 1647.44 -1.49571 -4.05281 0
M  V30 17383 C 1646.57 -0.959099 -5.2247 0
M  V30 17384 C 1645.61 -2.05021 -5.76743 0
M  V30 17385 N 1644.75 -1.5291 -6.85247 0
M  V30 17386 H 1649.59 -1.79288 -2.38033 0
M  V30 17387 H 1647.12 -0.894379 -1.16787 0
M  V30 17388 H 1649.08 -0.0773816 -4.17128 0
M  V30 17389 H 1647.71 0.502966 -3.18857 0
M  V30 17390 H 1646.76 -1.915 -3.28682 0
M  V30 17391 H 1648.08 -2.31904 -4.41613 0
M  V30 17392 H 1647.23 -0.609003 -6.03636 0
M  V30 17393 H 1645.97 -0.105086 -4.87587 0
M  V30 17394 H 1644.97 -2.40899 -4.94214 0
M  V30 17395 H 1646.2 -2.90821 -6.13678 0
M  V30 17396 H 1644.15 -0.697639 -6.5228 0
M  V30 17397 H 1644.06 -2.28859 -7.20527 0
M  V30 17398 H 1645.33 -1.20762 -7.70089 0
M  V30 17399 N 1649.56 1.24734 -0.963288 0
M  V30 17400 C 1650.51 2.27557 -0.481704 0
M  V30 17401 C 1651.5 1.63245 0.452488 0
M  V30 17402 O 1652.71 1.76981 0.328263 0
M  V30 17403 H 1649.08 0.73936 -0.137297 0
M  V30 17404 H 1651.05 2.65555 -1.361 0
M  V30 17405 C 1649.8 3.47023 0.216806 0
M  V30 17406 H 1649.13 3.9675 -0.492916 0
M  V30 17407 H 1650.57 4.20828 0.517659 0
M  V30 17408 C 1649.02 3.04466 1.44229 0
M  V30 17409 O 1649.55 3.11238 2.53956 0
M  V30 17410 N 1647.76 2.59563 1.30674 0
M  V30 17411 H 1647.31 2.54252 0.41395 0
M  V30 17412 H 1647.27 2.31453 2.12783 0
M  V30 17413 N 1651.04 0.732878 1.39523 0
M  V30 17414 C 1652.45 0.350145 1.83387 0
M  V30 17415 C 1652.8 -1.11807 1.61225 0
M  V30 17416 O 1651.92 -1.86222 1.10229 0
M  V30 17417 C 1652.52 0.628743 3.32915 0
M  V30 17418 C 1651.08 0.299529 3.75206 0
M  V30 17419 C 1650.23 0.892434 2.62547 0
M  V30 17420 H 1653.18 0.930687 1.28545 0
M  V30 17421 H 1653.2 -0.100206 3.80368 0
M  V30 17422 H 1652.71 1.6974 3.49013 0
M  V30 17423 H 1650.81 -0.763373 3.64696 0
M  V30 17424 H 1650.92 0.780607 4.72698 0
M  V30 17425 H 1649.29 0.319218 2.52692 0
M  V30 17426 H 1650.07 1.9657 2.81452 0
M  V30 17427 N 1652.52 -1.50101 0.480349 0
M  V30 17428 C 1653.46 -2.28722 -0.308993 0
M  V30 17429 C 1654.43 -1.34186 -0.978948 0
M  V30 17430 O 1655.62 -1.6313 -0.989602 0
M  V30 17431 C 1652.76 -3.16322 -1.37966 0
M  V30 17432 C 1651.87 -4.25898 -0.723552 0
M  V30 17433 C 1651.01 -5.00741 -1.7729 0
M  V30 17434 C 1650.04 -6.0218 -1.09754 0
M  V30 17435 N 1649.18 -6.70266 -2.09015 0
M  V30 17436 H 1654.02 -2.95722 0.367739 0
M  V30 17437 H 1651.56 -1.45826 0.193197 0
M  V30 17438 H 1653.52 -3.65469 -2.01217 0
M  V30 17439 H 1652.15 -2.51349 -2.02543 0
M  V30 17440 H 1651.2 -3.80394 0.0217507 0
M  V30 17441 H 1652.51 -4.98435 -0.190905 0
M  V30 17442 H 1651.66 -5.53653 -2.48098 0
M  V30 17443 H 1650.4 -4.27931 -2.33937 0
M  V30 17444 H 1649.41 -5.48519 -0.375123 0
M  V30 17445 H 1650.63 -6.76967 -0.537841 0
M  V30 17446 H 1648.58 -6.00242 -2.64662 0
M  V30 17447 H 1648.5 -7.3871 -1.6076 0
M  V30 17448 H 1649.76 -7.27792 -2.79175 0
M  V30 17449 N 1653.99 -0.213323 -1.5615 0
M  V30 17450 C 1655.24 0.419767 -1.97693 0
M  V30 17451 C 1655.56 1.60878 -1.10197 0
M  V30 17452 O 1654.83 1.95097 -0.177185 0
M  V30 17453 H 1653.41 0.158075 -0.730083 0
M  V30 17454 H 1656.07 -0.304303 -1.9251 0
M  V30 17455 H 1655.17 0.751645 -3.02914 0
M  V30 17456 N 1655.47 1.57485 0.0601405 0
M  V30 17457 C 1656.7 1.92051 0.769681 0
M  V30 17458 C 1657.12 0.810364 1.70524 0
M  V30 17459 O 1656.47 -0.215527 1.81223 0
M  V30 17460 C 1656.52 3.26423 1.55339 0
M  V30 17461 O 1656.24 4.3317 0.655423 0
M  V30 17462 C 1657.75 3.75076 2.36289 0
M  V30 17463 H 1654.97 0.63454 0.218175 0
M  V30 17464 H 1657.51 2.04482 0.0269308 0
M  V30 17465 H 1655.66 3.15483 2.24831 0
M  V30 17466 H 1656.08 5.10548 1.20171 0
M  V30 17467 H 1657.55 4.71695 2.86719 0
M  V30 17468 H 1658.03 3.04677 3.16336 0
M  V30 17469 H 1658.64 3.88998 1.71932 0
M  V30 17470 N 1656.95 -0.331789 1.54068 0
M  V30 17471 C 1658.2 -1.06854 1.73072 0
M  V30 17472 C 1658.55 -1.85949 0.494034 0
M  V30 17473 O 1657.84 -1.84591 -0.513489 0
M  V30 17474 C 1658.04 -2.03015 2.94142 0
M  V30 17475 C 1657.87 -1.33374 4.29467 0
M  V30 17476 C 1656.64 -1.07367 4.93762 0
M  V30 17477 C 1658.84 -0.753877 5.08745 0
M  V30 17478 N 1656.82 -0.344298 6.12934 0
M  V30 17479 C 1658.19 -0.155685 6.19805 0
M  V30 17480 C 1660.24 -0.655879 4.93561 0
M  V30 17481 C 1658.95 0.530985 7.17337 0
M  V30 17482 C 1660.97 0.0170729 5.91398 0
M  V30 17483 C 1660.33 0.604244 7.01804 0
M  V30 17484 H 1656.43 -0.374988 0.686227 0
M  V30 17485 H 1659.02 -0.350703 1.91515 0
M  V30 17486 H 1657.19 -2.72078 2.77178 0
M  V30 17487 H 1658.92 -2.69615 3.01811 0
M  V30 17488 H 1655.68 -1.36386 4.53537 0
M  V30 17489 H 1656.1 0.00600404 6.77 0
M  V30 17490 H 1660.74 -1.09557 4.08359 0
M  V30 17491 H 1658.46 0.982531 8.02105 0
M  V30 17492 H 1662.05 0.0924259 5.81727 0
M  V30 17493 H 1660.93 1.11671 7.76208 0
M  V30 17494 N 1658.43 -1.46001 -0.593424 0
M  V30 17495 C 1659.38 -1.55752 -1.70323 0
M  V30 17496 C 1660.35 -0.402466 -1.6115 0
M  V30 17497 O 1661.53 -0.617804 -1.80521 0
M  V30 17498 C 1658.67 -1.54362 -3.08653 0
M  V30 17499 C 1657.78 -2.80523 -3.28529 0
M  V30 17500 C 1656.92 -2.70709 -4.57045 0
M  V30 17501 C 1655.96 -3.91857 -4.70228 0
M  V30 17502 N 1655.09 -3.80494 -5.90059 0
M  V30 17503 H 1659.93 -2.50555 -1.61326 0
M  V30 17504 H 1657.47 -1.24313 -0.786425 0
M  V30 17505 H 1659.43 -1.51542 -3.88704 0
M  V30 17506 H 1658.06 -0.630986 -3.16573 0
M  V30 17507 H 1657.11 -2.93368 -2.42155 0
M  V30 17508 H 1658.42 -3.70341 -3.3414 0
M  V30 17509 H 1657.58 -2.65935 -5.45311 0
M  V30 17510 H 1656.32 -1.78513 -4.53855 0
M  V30 17511 H 1655.32 -3.96975 -3.80383 0
M  V30 17512 H 1656.55 -4.85136 -4.75205 0
M  V30 17513 H 1654.49 -2.91077 -5.87886 0
M  V30 17514 H 1654.41 -4.63958 -5.96891 0
M  V30 17515 H 1655.68 -3.79676 -6.80783 0
M  V30 17516 N 1659.91 0.83715 -1.33527 0
M  V30 17517 C 1661.18 1.57727 -1.15678 0
M  V30 17518 C 1661.56 2.09286 0.276178 0
M  V30 17519 O 1660.91 1.89589 1.27547 0
M  V30 17520 C 1661.12 2.70978 -2.19936 0
M  V30 17521 C 1662.47 3.40114 -2.5418 0
M  V30 17522 O 1663.49 2.81221 -2.18616 0
M  V30 17523 O 1662.35 4.46431 -3.15217 0
M  V30 17524 H 1659.45 0.69545 -0.447525 0
M  V30 17525 H 1661.99 0.879756 -1.45115 0
M  V30 17526 H 1660.76 2.30532 -3.16181 0
M  V30 17527 H 1660.39 3.48393 -1.91594 0
M  V30 17528 N 1661.38 1.17024 1.05561 0
M  V30 17529 C 1662.63 0.967739 1.78903 0
M  V30 17530 C 1662.99 -0.498615 1.85827 0
M  V30 17531 O 1662.28 -1.36528 1.34428 0
M  V30 17532 C 1662.47 1.53798 3.22616 0
M  V30 17533 C 1662.3 3.05826 3.29698 0
M  V30 17534 C 1661.07 3.74527 3.39201 0
M  V30 17535 C 1663.27 4.03456 3.18947 0
M  V30 17536 N 1661.25 5.14195 3.35376 0
M  V30 17537 C 1662.62 5.29553 3.22449 0
M  V30 17538 C 1664.68 3.95179 3.02883 0
M  V30 17539 C 1663.38 6.48333 3.11538 0
M  V30 17540 C 1665.41 5.13538 2.93313 0
M  V30 17541 C 1664.77 6.38519 2.97444 0
M  V30 17542 H 1660.87 0.407976 0.667143 0
M  V30 17543 H 1663.45 1.48545 1.25867 0
M  V30 17544 H 1661.62 1.04666 3.74032 0
M  V30 17545 H 1663.35 1.27248 3.84174 0
M  V30 17546 H 1660.11 3.25191 3.44308 0
M  V30 17547 H 1660.53 5.87196 3.36942 0
M  V30 17548 H 1665.18 2.99399 2.9853 0
M  V30 17549 H 1662.89 7.44327 3.14647 0
M  V30 17550 H 1666.48 5.08911 2.8196 0
M  V30 17551 H 1665.36 7.28566 2.90107 0
M  V30 17552 N 1662.86 -1.24221 0.969889 0
M  V30 17553 C 1663.83 -2.23529 0.506686 0
M  V30 17554 C 1664.83 -1.55797 -0.397968 0
M  V30 17555 O 1666.02 -1.73126 -0.193124 0
M  V30 17556 C 1663.15 -3.39861 -0.265943 0
M  V30 17557 H 1664.34 -2.66022 1.38463 0
M  V30 17558 H 1661.89 -1.36872 0.754698 0
M  V30 17559 H 1662.63 -3.0281 -1.16089 0
M  V30 17560 H 1662.41 -3.90222 0.383286 0
M  V30 17561 H 1663.9 -4.13567 -0.578975 0
M  V30 17562 N 1664.34 -0.740267 -1.39132 0
M  V30 17563 C 1665.27 -0.064087 -2.2911 0
M  V30 17564 C 1666.29 0.697897 -1.47082 0
M  V30 17565 O 1667.47 0.541189 -1.70098 0
M  V30 17566 C 1664.57 0.933426 -3.25792 0
M  V30 17567 C 1663.75 0.231867 -4.36785 0
M  V30 17568 C 1662.81 1.13823 -5.13742 0
M  V30 17569 O 1661.83 0.613741 -5.65881 0
M  V30 17570 N 1663.03 2.46751 -5.25447 0
M  V30 17571 H 1665.8 -0.836774 -2.87781 0
M  V30 17572 H 1663.36 -0.589928 -1.5077 0
M  V30 17573 H 1665.35 1.5425 -3.74151 0
M  V30 17574 H 1663.92 1.60728 -2.68114 0
M  V30 17575 H 1663.14 -0.557747 -3.90234 0
M  V30 17576 H 1664.43 -0.254115 -5.08165 0
M  V30 17577 H 1663.83 2.91834 -4.84613 0
M  V30 17578 H 1662.39 3.02741 -5.77227 0
M  V30 17579 N 1665.82 1.49844 -0.488302 0
M  V30 17580 C 1667.05 2.06819 0.0578807 0
M  V30 17581 C 1667.46 1.35018 1.31969 0
M  V30 17582 O 1666.82 0.424614 1.77492 0
M  V30 17583 C 1666.87 3.60005 0.328435 0
M  V30 17584 O 1666.59 4.29102 -0.883338 0
M  V30 17585 C 1668.09 4.33655 0.919675 0
M  V30 17586 H 1665.31 0.670837 -0.014775 0
M  V30 17587 H 1667.86 1.92792 -0.682022 0
M  V30 17588 H 1666.01 3.73777 1.0183 0
M  V30 17589 H 1666.42 5.206 -0.638414 0
M  V30 17590 H 1667.9 5.41753 1.05864 0
M  V30 17591 H 1668.38 3.95289 1.91424 0
M  V30 17592 H 1668.98 4.24457 0.267672 0
M  V30 17593 N 1667.3 0.221601 1.56034 0
M  V30 17594 C 1668.26 -0.674973 2.19036 0
M  V30 17595 C 1669.26 -1.1216 1.15225 0
M  V30 17596 O 1670.45 -1.0304 1.40458 0
M  V30 17597 C 1667.58 -1.92465 2.81372 0
M  V30 17598 H 1668.77 -0.125689 2.99637 0
M  V30 17599 H 1666.33 -0.0280114 1.56275 0
M  V30 17600 H 1667.06 -2.5158 2.04641 0
M  V30 17601 H 1666.85 -1.61286 3.57392 0
M  V30 17602 H 1668.34 -2.56342 3.29664 0
M  V30 17603 N 1668.77 -1.57515 -0.0517878 0
M  V30 17604 C 1670.02 -1.88214 -0.7471 0
M  V30 17605 C 1670.35 -0.815991 -1.76556 0
M  V30 17606 O 1669.6 0.185772 -1.94816 0
M  V30 17607 C 1669.9 -3.25625 -1.4732 0
M  V30 17608 C 1669.57 -4.46985 -0.592863 0
M  V30 17609 C 1668.23 -4.79923 -0.350322 0
M  V30 17610 C 1670.58 -5.21197 0.0163333 0
M  V30 17611 C 1667.91 -5.84474 0.510567 0
M  V30 17612 C 1670.26 -6.26661 0.864792 0
M  V30 17613 C 1668.93 -6.58087 1.11701 0
M  V30 17614 H 1668.2 -0.688725 -0.273383 0
M  V30 17615 H 1670.84 -1.91499 -0.00740375 0
M  V30 17616 H 1669.15 -3.18224 -2.28563 0
M  V30 17617 H 1670.85 -3.46619 -2.01634 0
M  V30 17618 H 1667.44 -4.21218 -0.792044 0
M  V30 17619 H 1671.62 -4.96048 -0.158125 0
M  V30 17620 H 1666.88 -6.0721 0.71452 0
M  V30 17621 H 1671.05 -6.83318 1.34347 0
M  V30 17622 H 1668.68 -7.38926 1.78584 0
M  V30 17623 N 1670.25 0.323614 -1.54242 0
M  V30 17624 C 1671.53 1.07979 -1.63095 0
M  V30 17625 C 1671.91 2.0592 -0.464774 0
M  V30 17626 O 1671.26 2.22004 0.540961 0
M  V30 17627 C 1671.47 1.78178 -3.0009 0
M  V30 17628 C 1672.82 2.31201 -3.56134 0
M  V30 17629 O 1673.84 1.88245 -3.02394 0
M  V30 17630 O 1672.7 3.09843 -4.50177 0
M  V30 17631 H 1669.79 0.497726 -0.660453 0
M  V30 17632 H 1672.34 0.323509 -1.66588 0
M  V30 17633 H 1671.11 1.06938 -3.76404 0
M  V30 17634 H 1670.73 2.60616 -3.00275 0
M  V30 17635 N 1671.73 1.46313 0.585673 0
M  V30 17636 C 1672.64 1.59232 1.72286 0
M  V30 17637 C 1673.66 0.475912 1.67365 0
M  V30 17638 O 1674.83 0.739627 1.87327 0
M  V30 17639 C 1671.9 1.57647 3.08785 0
M  V30 17640 C 1670.96 2.80497 3.24992 0
M  V30 17641 C 1670.19 2.78978 4.5498 0
M  V30 17642 O 1670.42 1.87553 5.38684 0
M  V30 17643 O 1669.35 3.7048 4.74371 0
M  V30 17644 H 1673.18 2.55398 1.64334 0
M  V30 17645 H 1670.76 1.29073 0.752369 0
M  V30 17646 H 1672.64 1.59448 3.90069 0
M  V30 17647 H 1671.32 0.6464 3.1718 0
M  V30 17648 H 1670.22 2.8425 2.43213 0
M  V30 17649 H 1671.56 3.72703 3.21487 0
M  V30 17650 N 1673.21 -0.830057 1.33969 0
M  V30 17651 C 1674.43 -1.62294 1.29133 0
M  V30 17652 C 1674.86 -1.87627 -0.133253 0
M  V30 17653 O 1674.22 -1.44669 -1.09272 0
M  V30 17654 C 1674.27 -2.94508 2.0808 0
M  V30 17655 O 1673.37 -3.86239 1.44544 0
M  V30 17656 H 1672.71 -0.493865 0.443839 0
M  V30 17657 H 1675.24 -1.03202 1.76665 0
M  V30 17658 H 1675.25 -3.44133 2.19173 0
M  V30 17659 H 1673.93 -2.75392 3.1166 0
M  V30 17660 H 1672.5 -3.44743 1.42151 0
M  V30 17661 N 1674.69 -1.17582 -1.04939 0
M  V30 17662 C 1675.94 -0.960189 -1.77379 0
M  V30 17663 C 1676.25 0.512001 -1.8878 0
M  V30 17664 O 1677.46 0.845912 -2.57986 0
M  V30 17665 C 1675.91 -1.66882 -3.18871 0
M  V30 17666 C 1675.52 -3.17972 -3.15591 0
M  V30 17667 C 1677.26 -1.53567 -3.95749 0
M  V30 17668 C 1675.17 -3.81513 -4.51887 0
M  V30 17669 H 1674.1 -0.35562 -0.664869 0
M  V30 17670 H 1676.75 -1.40863 -1.17601 0
M  V30 17671 H 1675.13 -1.14813 -3.78991 0
M  V30 17672 H 1676.31 -3.76995 -2.64974 0
M  V30 17673 H 1674.62 -3.31328 -2.52212 0
M  V30 17674 H 1677.22 -1.98408 -4.96526 0
M  V30 17675 H 1677.56 -0.486603 -4.13446 0
M  V30 17676 H 1678.1 -2.02868 -3.42183 0
M  V30 17677 H 1674.83 -4.86428 -4.39395 0
M  V30 17678 H 1674.35 -3.27276 -5.02643 0
M  V30 17679 H 1676.03 -3.83867 -5.20822 0
M  V30 17680 N 1676.17 1.23705 -0.976463 0
M  V30 17681 C 1677.11 2.27034 -0.505813 0
M  V30 17682 C 1678.11 1.63716 0.435148 0
M  V30 17683 O 1679.31 1.7732 0.309474 0
M  V30 17684 H 1675.69 0.737862 -0.145131 0
M  V30 17685 H 1677.66 2.64097 -1.38908 0
M  V30 17686 C 1676.41 3.47234 0.179987 0
M  V30 17687 H 1675.73 3.96205 -0.534969 0
M  V30 17688 H 1677.17 4.21353 0.472996 0
M  V30 17689 C 1675.63 3.05979 1.40991 0
M  V30 17690 O 1676.16 3.13914 2.50641 0
M  V30 17691 N 1674.37 2.60934 1.27913 0
M  V30 17692 H 1673.91 2.54677 0.38696 0
M  V30 17693 H 1673.87 2.33697 2.10316 0
M  V30 17694 N 1677.64 0.747635 1.38738 0
M  V30 17695 C 1678.57 0.131317 2.3313 0
M  V30 17696 C 1679.55 -0.710229 1.54563 0
M  V30 17697 O 1680.74 -0.652631 1.82905 0
M  V30 17698 C 1677.87 -0.767168 3.38721 0
M  V30 17699 C 1676.82 -0.0288124 4.2799 0
M  V30 17700 C 1676.15 -1.04515 5.24386 0
M  V30 17701 C 1677.45 1.13608 5.09795 0
M  V30 17702 H 1679.14 0.91981 2.84921 0
M  V30 17703 H 1676.69 0.443764 1.36992 0
M  V30 17704 H 1678.64 -1.20796 4.03716 0
M  V30 17705 H 1677.37 -1.58792 2.85399 0
M  V30 17706 H 1676.03 0.392491 3.64493 0
M  V30 17707 H 1675.67 -1.8598 4.67355 0
M  V30 17708 H 1675.37 -0.555813 5.84965 0
M  V30 17709 H 1676.9 -1.48538 5.92257 0
M  V30 17710 H 1678.31 0.773129 5.68063 0
M  V30 17711 H 1676.71 1.55589 5.79579 0
M  V30 17712 H 1677.78 1.95182 4.43883 0
M  V30 17713 N 1679.12 -1.49583 0.496242 0
M  V30 17714 C 1680.35 -2.07342 -0.0490986 0
M  V30 17715 C 1680.77 -1.35474 -1.30493 0
M  V30 17716 O 1680.13 -0.410005 -1.76603 0
M  V30 17717 C 1680.18 -3.59427 -0.290601 0
M  V30 17718 O 1679.28 -3.89111 -1.36626 0
M  V30 17719 H 1678.62 -0.663562 0.0241141 0
M  V30 17720 H 1681.15 -1.92452 0.6945 0
M  V30 17721 H 1681.16 -4.04627 -0.523549 0
M  V30 17722 H 1679.84 -4.11147 0.626959 0
M  V30 17723 H 1678.41 -3.55726 -1.11864 0
M  V30 17724 N 1680.6 -0.229873 -1.55915 0
M  V30 17725 C 1681.56 0.663347 -2.19391 0
M  V30 17726 C 1682.56 1.11548 -1.15818 0
M  V30 17727 O 1683.75 1.02294 -1.41002 0
M  V30 17728 C 1680.88 1.9097 -2.82389 0
M  V30 17729 H 1682.08 0.109797 -2.99699 0
M  V30 17730 H 1679.63 0.0197234 -1.56288 0
M  V30 17731 H 1680.37 2.50491 -2.05973 0
M  V30 17732 H 1680.15 1.59388 -3.58243 0
M  V30 17733 H 1681.64 2.5459 -3.31019 0
M  V30 17734 N 1682.08 1.5754 0.0434337 0
M  V30 17735 C 1683.32 1.88887 0.7382 0
M  V30 17736 C 1683.66 0.825827 1.75766 0
M  V30 17737 O 1682.93 -0.160797 1.93834 0
M  V30 17738 C 1683.21 3.30889 1.42072 0
M  V30 17739 C 1683.07 4.47874 0.415754 0
M  V30 17740 C 1684.39 3.71571 2.35846 0
M  V30 17741 H 1681.51 0.686975 0.266897 0
M  V30 17742 H 1684.15 1.9 0.00106957 0
M  V30 17743 H 1682.3 3.30071 2.04903 0
M  V30 17744 H 1683.97 4.60824 -0.209529 0
M  V30 17745 H 1682.21 4.32982 -0.266346 0
M  V30 17746 H 1682.88 5.44084 0.931509 0
M  V30 17747 H 1685.36 3.73663 1.83071 0
M  V30 17748 H 1684.24 4.71763 2.80589 0
M  V30 17749 H 1684.5 3.03041 3.21898 0
M  V30 17750 N 1683.56 -0.31543 1.54411 0
M  V30 17751 C 1684.8 -1.05033 1.72663 0
M  V30 17752 C 1685.12 -1.8828 0.507504 0
M  V30 17753 O 1684.39 -1.89968 -0.478418 0
M  V30 17754 H 1682.97 -0.39077 0.636638 0
M  V30 17755 H 1685.64 -0.3499 1.91733 0
M  V30 17756 H 1684.73 -1.71171 2.60973 0
M  V30 17757 N 1685.03 -1.46622 -0.577906 0
M  V30 17758 C 1686.26 -1.55534 -1.35988 0
M  V30 17759 C 1686.67 -0.197065 -1.88171 0
M  V30 17760 O 1686.02 0.816609 -1.64551 0
M  V30 17761 C 1686.08 -2.5035 -2.58002 0
M  V30 17762 C 1685.74 -3.96491 -2.27253 0
M  V30 17763 C 1686.74 -4.85567 -1.85797 0
M  V30 17764 C 1684.42 -4.41662 -2.39249 0
M  V30 17765 C 1686.42 -6.17828 -1.56738 0
M  V30 17766 C 1684.1 -5.73956 -2.09803 0
M  V30 17767 C 1685.1 -6.6186 -1.68613 0
M  V30 17768 O 1684.79 -7.91698 -1.3953 0
M  V30 17769 H 1684.52 -0.528412 -0.421612 0
M  V30 17770 H 1687.08 -1.92774 -0.709038 0
M  V30 17771 H 1685.31 -2.08137 -3.25908 0
M  V30 17772 H 1687 -2.49616 -3.20073 0
M  V30 17773 H 1687.76 -4.51924 -1.76039 0
M  V30 17774 H 1683.64 -3.73462 -2.70272 0
M  V30 17775 H 1687.18 -6.86398 -1.24514 0
M  V30 17776 H 1683.08 -6.07147 -2.19187 0
M  V30 17777 H 1683.85 -8.04009 -1.53335 0
M  V30 17778 N 1686.51 0.822941 -1.34408 0
M  V30 17779 C 1687.76 1.57916 -1.26763 0
M  V30 17780 C 1688.09 1.93821 0.162408 0
M  V30 17781 O 1687.34 1.60226 1.12366 0
M  V30 17782 C 1687.64 2.88915 -2.10388 0
M  V30 17783 C 1687.31 2.72302 -3.59392 0
M  V30 17784 C 1685.97 2.67479 -4.00011 0
M  V30 17785 C 1688.32 2.5598 -4.54008 0
M  V30 17786 C 1685.65 2.44255 -5.33438 0
M  V30 17787 C 1688 2.34288 -5.87615 0
M  V30 17788 C 1686.67 2.27877 -6.27398 0
M  V30 17789 H 1685.94 0.577854 -0.46386 0
M  V30 17790 H 1688.58 0.95218 -1.6615 0
M  V30 17791 H 1686.89 3.55903 -1.63829 0
M  V30 17792 H 1688.58 3.46511 -2.01819 0
M  V30 17793 H 1685.17 2.76896 -3.27149 0
M  V30 17794 H 1689.36 2.5873 -4.23524 0
M  V30 17795 H 1684.61 2.37749 -5.63281 0
M  V30 17796 H 1688.79 2.20646 -6.60521 0
M  V30 17797 H 1686.42 2.09643 -7.30722 0
M  V30 17798 N 1687.99 1.18137 1.04314 0
M  V30 17799 C 1689.41 0.930523 1.29667 0
M  V30 17800 C 1689.61 -0.405336 1.97381 0
M  V30 17801 O 1688.66 -1.14025 2.25288 0
M  V30 17802 C 1689.98 2.09427 2.1578 0
M  V30 17803 C 1691.52 2.13229 2.29134 0
M  V30 17804 C 1692 3.29014 3.18612 0
M  V30 17805 N 1693.49 3.28859 3.26199 0
M  V30 17806 C 1694.22 4.15092 3.95583 0
M  V30 17807 N 1693.72 5.11453 4.67319 0
M  V30 17808 N 1695.51 4.03014 3.91837 0
M  V30 17809 H 1687.66 2.04108 0.587669 0
M  V30 17810 H 1689.93 0.89171 0.321804 0
M  V30 17811 H 1689.63 3.06023 1.73328 0
M  V30 17812 H 1689.51 2.0528 3.16449 0
M  V30 17813 H 1691.89 1.17212 2.70823 0
M  V30 17814 H 1691.98 2.21435 1.28064 0
M  V30 17815 H 1691.62 4.25302 2.77635 0
M  V30 17816 H 1691.55 3.18045 4.19708 0
M  V30 17817 H 1694.04 2.59097 2.75095 0
M  V30 17818 H 1694.35 5.7363 5.1785 0
M  V30 17819 H 1692.7 5.15415 4.66232 0
M  V30 17820 H 1695.89 3.27021 3.34925 0
M  V30 17821 H 1696.06 4.70435 4.4564 0
M  V30 17822 N 1689.47 -1.23186 0.98301 0
M  V30 17823 C 1690.72 -1.91292 0.652051 0
M  V30 17824 C 1691.04 -1.77046 -0.8173 0
M  V30 17825 O 1690.31 -1.15146 -1.58487 0
M  V30 17826 H 1688.89 -0.708011 0.23818 0
M  V30 17827 H 1691.55 -1.49754 1.24739 0
M  V30 17828 H 1690.65 -2.98662 0.905951 0
M  V30 17829 N 1690.95 -0.754982 -1.38339 0
M  V30 17830 C 1692.18 -0.322156 -2.04073 0
M  V30 17831 C 1692.58 1.05488 -1.57063 0
M  V30 17832 O 1691.93 1.68154 -0.739597 0
M  V30 17833 C 1691.99 -0.267836 -3.58501 0
M  V30 17834 C 1691.65 -1.58665 -4.28572 0
M  V30 17835 C 1692.65 -2.53609 -4.53849 0
M  V30 17836 C 1690.34 -1.85647 -4.66734 0
M  V30 17837 C 1692.33 -3.73753 -5.16321 0
M  V30 17838 C 1690.02 -3.06065 -5.28931 0
M  V30 17839 C 1691.01 -3.99938 -5.53659 0
M  V30 17840 O 1690.7 -5.18238 -6.14561 0
M  V30 17841 H 1690.43 -0.135341 -0.662313 0
M  V30 17842 H 1692.99 -1.02517 -1.77987 0
M  V30 17843 H 1691.22 0.491434 -3.83565 0
M  V30 17844 H 1692.91 0.135662 -4.05673 0
M  V30 17845 H 1693.67 -2.3404 -4.24794 0
M  V30 17846 H 1689.55 -1.13415 -4.46831 0
M  V30 17847 H 1693.1 -4.47039 -5.35539 0
M  V30 17848 H 1688.99 -3.25526 -5.57408 0
M  V30 17849 H 1689.76 -5.18838 -6.33047 0
M  V30 17850 N 1692.42 1.49318 -0.504168 0
M  V30 17851 C 1693.33 2.32958 0.277053 0
M  V30 17852 C 1694.35 1.44838 0.964266 0
M  V30 17853 O 1695.53 1.77856 0.944947 0
M  V30 17854 C 1692.59 3.20352 1.32572 0
M  V30 17855 C 1691.65 4.24326 0.651606 0
M  V30 17856 C 1690.89 5.07544 1.65031 0
M  V30 17857 O 1691.11 4.92326 2.88047 0
M  V30 17858 O 1690.04 5.89737 1.20388 0
M  V30 17859 H 1693.87 3.00952 -0.40763 0
M  V30 17860 H 1691.45 1.47023 -0.265453 0
M  V30 17861 H 1693.34 3.74483 1.93237 0
M  V30 17862 H 1692.01 2.5505 1.99327 0
M  V30 17863 H 1690.92 3.741 0.00513384 0
M  V30 17864 H 1692.25 4.92193 0.0264424 0
M  V30 17865 N 1693.9 0.238138 1.5579 0
M  V30 17866 C 1695.13 -0.396409 2.03576 0
M  V30 17867 C 1695.55 -1.5138 1.11649 0
M  V30 17868 O 1694.91 -1.80979 0.107774 0
M  V30 17869 C 1694.96 -0.889749 3.49451 0
M  V30 17870 O 1694.06 -1.99997 3.60659 0
M  V30 17871 H 1693.4 -0.0876017 0.658196 0
M  V30 17872 H 1695.93 0.361632 2.01379 0
M  V30 17873 H 1695.94 -1.19526 3.901 0
M  V30 17874 H 1694.62 -0.0720136 4.15838 0
M  V30 17875 H 1693.2 -1.69983 3.31904 0
M  V30 17876 N 1695.38 -1.57561 -0.0350783 0
M  V30 17877 C 1696.66 -1.8014 -0.76217 0
M  V30 17878 C 1697.04 -0.834754 -1.93894 0
M  V30 17879 O 1696.39 0.124387 -2.28161 0
M  V30 17880 C 1696.6 -3.2769 -1.20084 0
M  V30 17881 C 1697.94 -3.92513 -1.61923 0
M  V30 17882 O 1698.97 -3.31803 -1.29558 0
M  V30 17883 O 1697.83 -4.9939 -2.21972 0
M  V30 17884 H 1694.92 -0.740572 -0.368078 0
M  V30 17885 H 1697.47 -1.69696 -0.0123195 0
M  V30 17886 H 1696.24 -3.89636 -0.3605 0
M  V30 17887 H 1695.86 -3.43 -2.01089 0
M  V30 17888 N 1696.86 0.307236 -1.54576 0
M  V30 17889 C 1697.79 1.4031 -1.79968 0
M  V30 17890 C 1698.77 1.4902 -0.650513 0
M  V30 17891 O 1699.95 1.66178 -0.889778 0
M  V30 17892 C 1697.08 2.78274 -1.93083 0
M  V30 17893 C 1696.13 2.87017 -3.15473 0
M  V30 17894 S 1696.96 2.49751 -4.73693 0
M  V30 17895 C 1698.12 3.89755 -4.89736 0
M  V30 17896 H 1698.35 1.18562 -2.72636 0
M  V30 17897 H 1695.88 0.504999 -1.45908 0
M  V30 17898 H 1697.84 3.57741 -2.01325 0
M  V30 17899 H 1696.5 2.97295 -1.01364 0
M  V30 17900 H 1695.69 3.88196 -3.21434 0
M  V30 17901 H 1695.3 2.15539 -3.05645 0
M  V30 17902 H 1697.59 4.84687 -4.73376 0
M  V30 17903 H 1698.53 3.88768 -5.91832 0
M  V30 17904 H 1698.94 3.79468 -4.17928 0
M  V30 17905 N 1698.34 1.46926 0.570122 0
M  V30 17906 C 1699.28 1.5883 1.69929 0
M  V30 17907 C 1700.28 0.456167 1.63143 0
M  V30 17908 O 1701.48 0.633503 1.68484 0
M  V30 17909 H 1697.86 0.499606 0.562048 0
M  V30 17910 H 1699.83 2.53744 1.57023 0
M  V30 17911 C 1698.58 1.60761 3.08304 0
M  V30 17912 H 1697.9 2.47219 3.14202 0
M  V30 17913 H 1699.34 1.73142 3.87037 0
M  V30 17914 C 1697.8 0.338515 3.35195 0
M  V30 17915 O 1698.33 -0.565917 3.97694 0
M  V30 17916 N 1696.54 0.222525 2.89747 0
M  V30 17917 H 1696.08 0.959435 2.39066 0
M  V30 17918 H 1696.04 -0.625697 3.08111 0
M  V30 17919 N 1699.82 -0.815801 1.34842 0
M  V30 17920 C 1701.06 -1.57426 1.28797 0
M  V30 17921 C 1701.42 -1.91897 -0.138973 0
M  V30 17922 O 1700.71 -1.57777 -1.08706 0
M  V30 17923 C 1700.9 -2.87795 2.11917 0
M  V30 17924 C 1700.73 -2.6606 3.62549 0
M  V30 17925 C 1699.5 -2.62428 4.3181 0
M  V30 17926 C 1701.7 -2.37078 4.56397 0
M  V30 17927 N 1699.68 -2.32313 5.68246 0
M  V30 17928 C 1701.05 -2.16721 5.80889 0
M  V30 17929 C 1703.11 -2.22865 4.45237 0
M  V30 17930 C 1701.81 -1.8359 6.95476 0
M  V30 17931 C 1703.84 -1.9113 5.59663 0
M  V30 17932 C 1703.2 -1.71602 6.83178 0
M  V30 17933 H 1699.3 -0.578164 0.526545 0
M  V30 17934 H 1701.88 -0.955728 1.69629 0
M  V30 17935 H 1700.05 -3.47559 1.7337 0
M  V30 17936 H 1701.79 -3.53258 1.97461 0
M  V30 17937 H 1698.54 -2.76753 3.84324 0
M  V30 17938 H 1698.96 -2.20076 6.40231 0
M  V30 17939 H 1703.61 -2.36665 3.50357 0
M  V30 17940 H 1701.32 -1.68528 7.90332 0
M  V30 17941 H 1704.91 -1.80854 5.52976 0
M  V30 17942 H 1703.79 -1.47403 7.70222 0
M  V30 17943 N 1701.29 -1.18689 -1.03686 0
M  V30 17944 C 1702.2 -0.932473 -2.15272 0
M  V30 17945 C 1703.22 0.104751 -1.73684 0
M  V30 17946 O 1704.4 -0.0780471 -2.01249 0
M  V30 17947 C 1701.46 -0.465807 -3.43557 0
M  V30 17948 C 1700.52 -1.57146 -3.99504 0
M  V30 17949 C 1699.75 -1.12696 -5.21666 0
M  V30 17950 O 1699.98 0.0127657 -5.70399 0
M  V30 17951 O 1698.91 -1.92627 -5.70244 0
M  V30 17952 H 1702.74 -1.86626 -2.39592 0
M  V30 17953 H 1700.32 -0.969029 -1.13711 0
M  V30 17954 H 1702.2 -0.213819 -4.20857 0
M  V30 17955 H 1700.88 0.43964 -3.20701 0
M  V30 17956 H 1699.79 -1.8775 -3.23575 0
M  V30 17957 H 1701.12 -2.45317 -4.26709 0
M  V30 17958 N 1702.77 1.22662 -0.989529 0
M  V30 17959 C 1703.72 2.24466 -0.536994 0
M  V30 17960 C 1704.69 1.60467 0.428907 0
M  V30 17961 O 1705.87 1.87846 0.334418 0
M  V30 17962 C 1703.01 3.44793 0.145526 0
M  V30 17963 C 1702.13 4.23318 -0.861716 0
M  V30 17964 C 1701.26 5.30979 -0.153062 0
M  V30 17965 C 1700.3 6.01221 -1.1489 0
M  V30 17966 N 1699.44 7.00533 -0.468782 0
M  V30 17967 H 1704.28 2.62539 -1.40987 0
M  V30 17968 H 1701.81 1.29035 -0.706291 0
M  V30 17969 H 1703.77 4.1345 0.558128 0
M  V30 17970 H 1702.4 3.07494 0.982213 0
M  V30 17971 H 1701.45 3.5399 -1.39266 0
M  V30 17972 H 1702.77 4.71753 -1.62019 0
M  V30 17973 H 1701.92 6.05874 0.316443 0
M  V30 17974 H 1700.66 4.8351 0.63794 0
M  V30 17975 H 1699.66 5.25111 -1.62907 0
M  V30 17976 H 1700.89 6.50779 -1.94072 0
M  V30 17977 H 1698.84 6.55301 0.302844 0
M  V30 17978 H 1698.75 7.46958 -1.16576 0
M  V30 17979 H 1700.02 7.79497 -0.0219686 0
M  V30 17980 N 1704.25 0.762308 1.37937 0
M  V30 17981 C 1705.5 0.321732 1.99523 0
M  V30 17982 C 1705.82 -1.10286 1.60816 0
M  V30 17983 O 1705.09 -1.75565 0.869117 0
M  V30 17984 H 1703.67 0.115967 0.737943 0
M  V30 17985 H 1706.33 0.978339 1.68566 0
M  V30 17986 H 1705.43 0.391818 3.09631 0
M  V30 17987 N 1705.73 -1.49049 0.51208 0
M  V30 17988 C 1706.64 -2.33102 -0.264695 0
M  V30 17989 C 1707.65 -1.45347 -0.956571 0
M  V30 17990 O 1708.83 -1.78355 -0.935501 0
M  V30 17991 C 1705.89 -3.21051 -1.30871 0
M  V30 17992 C 1704.96 -4.24666 -0.629094 0
M  V30 17993 C 1704.19 -5.08412 -1.62337 0
M  V30 17994 O 1704.41 -4.93847 -2.85432 0
M  V30 17995 O 1703.35 -5.90368 -1.17259 0
M  V30 17996 H 1707.17 -3.00732 0.423585 0
M  V30 17997 H 1704.76 -1.4688 0.273246 0
M  V30 17998 H 1706.64 -3.75503 -1.91248 0
M  V30 17999 H 1705.31 -2.56103 -1.97972 0
M  V30 18000 H 1704.22 -3.74097 0.0147056 0
M  V30 18001 H 1705.55 -4.922 -0.000339859 0
M  V30 18002 N 1707.21 -0.246397 -1.55662 0
M  V30 18003 C 1708.45 0.377739 -1.98539 0
M  V30 18004 C 1708.77 1.58504 -1.13585 0
M  V30 18005 O 1708.04 1.94677 -0.218528 0
M  V30 18006 H 1706.62 0.142554 -0.733272 0
M  V30 18007 H 1709.29 -0.345069 -1.91821 0
M  V30 18008 H 1708.38 0.687224 -3.0444 0
M  V30 18009 N 1708.68 1.57577 0.026722 0
M  V30 18010 C 1709.62 2.03515 1.05424 0
M  V30 18011 C 1710.63 0.948362 1.32325 0
M  V30 18012 O 1711.82 1.22563 1.29771 0
M  V30 18013 C 1708.92 2.39744 2.39533 0
M  V30 18014 C 1708.09 3.70832 2.31954 0
M  V30 18015 C 1707.15 3.94224 3.48531 0
M  V30 18016 O 1706.18 4.6525 3.27919 0
M  V30 18017 N 1707.38 3.40044 4.70479 0
M  V30 18018 H 1710.14 2.92282 0.662678 0
M  V30 18019 H 1707.7 1.60471 0.214623 0
M  V30 18020 H 1709.7 2.52529 3.16245 0
M  V30 18021 H 1708.27 1.56636 2.70525 0
M  V30 18022 H 1707.49 3.68378 1.40325 0
M  V30 18023 H 1708.77 4.56821 2.24035 0
M  V30 18024 H 1708.17 2.82478 4.90125 0
M  V30 18025 H 1706.73 3.58205 5.44548 0
M  V30 18026 N 1710.16 -0.299034 1.54737 0
M  V30 18027 C 1711.57 -0.871897 1.6509 0
M  V30 18028 C 1711.92 -1.88013 0.560843 0
M  V30 18029 O 1711.05 -2.1428 -0.302194 0
M  V30 18030 C 1711.64 -1.5882 2.99269 0
M  V30 18031 C 1710.2 -2.10944 3.11736 0
M  V30 18032 C 1709.35 -0.942776 2.60782 0
M  V30 18033 H 1712.3 -0.0759883 1.58518 0
M  V30 18034 H 1712.32 -2.45387 2.90802 0
M  V30 18035 H 1711.83 -0.854144 3.78584 0
M  V30 18036 H 1709.93 -2.87391 2.37144 0
M  V30 18037 H 1710.05 -2.34262 4.17921 0
M  V30 18038 H 1708.41 -1.3289 2.17284 0
M  V30 18039 H 1709.19 -0.222646 3.42577 0
M  V30 18040 N 1711.64 -1.47227 -0.562322 0
M  V30 18041 C 1712.89 -1.53589 -1.31972 0
M  V30 18042 C 1713.21 -0.196019 -1.9351 0
M  V30 18043 O 1712.47 0.81056 -1.78125 0
M  V30 18044 C 1712.77 -2.59832 -2.45402 0
M  V30 18045 C 1712.43 -4.03258 -2.01728 0
M  V30 18046 C 1711.1 -4.42302 -1.89533 0
M  V30 18047 C 1713.45 -4.93272 -1.68321 0
M  V30 18048 C 1710.78 -5.69202 -1.42219 0
M  V30 18049 C 1713.13 -6.2063 -1.2248 0
M  V30 18050 C 1711.79 -6.58561 -1.08877 0
M  V30 18051 H 1711.06 -0.562022 -0.482921 0
M  V30 18052 H 1713.71 -1.80801 -0.631119 0
M  V30 18053 H 1712.01 -2.26357 -3.19796 0
M  V30 18054 H 1713.71 -2.61979 -3.03592 0
M  V30 18055 H 1710.3 -3.72406 -2.1216 0
M  V30 18056 H 1714.49 -4.6381 -1.76618 0
M  V30 18057 H 1709.74 -5.97344 -1.30347 0
M  V30 18058 H 1713.92 -6.89794 -0.956907 0
M  V30 18059 H 1711.54 -7.56783 -0.719922 0
M  V30 18060 N 1713.12 0.808639 -1.35273 0
M  V30 18061 C 1714.03 1.95198 -1.30134 0
M  V30 18062 C 1715.04 1.72769 -0.206587 0
M  V30 18063 O 1716.22 1.96633 -0.4356 0
M  V30 18064 C 1713.28 3.29747 -1.07087 0
M  V30 18065 C 1712.35 3.65086 -2.25855 0
M  V30 18066 C 1711.58 4.93215 -2.03898 0
M  V30 18067 O 1711.8 5.61487 -1.00439 0
M  V30 18068 O 1710.74 5.26765 -2.91208 0
M  V30 18069 H 1714.56 2.0248 -2.26353 0
M  V30 18070 H 1712.15 0.946124 -1.15624 0
M  V30 18071 H 1714.03 4.10302 -0.960734 0
M  V30 18072 H 1712.7 3.23401 -0.139177 0
M  V30 18073 H 1711.61 2.84917 -2.42432 0
M  V30 18074 H 1712.94 3.76135 -3.17464 0
M  V30 18075 N 1714.6 1.19237 1.03055 0
M  V30 18076 C 1715.83 1.01769 1.79796 0
M  V30 18077 C 1716.23 -0.436738 1.8409 0
M  V30 18078 O 1715.58 -1.31514 1.28257 0
M  V30 18079 C 1715.64 1.50866 3.26312 0
M  V30 18080 C 1715.3 2.98949 3.45657 0
M  V30 18081 C 1716.3 3.96725 3.36014 0
M  V30 18082 C 1713.99 3.37605 3.71925 0
M  V30 18083 C 1715.98 5.31151 3.5236 0
M  V30 18084 C 1713.67 4.7219 3.87918 0
M  V30 18085 C 1714.66 5.68772 3.78137 0
M  V30 18086 O 1714.35 7.00919 3.9366 0
M  V30 18087 H 1714.08 0.359119 0.572721 0
M  V30 18088 H 1716.64 1.58449 1.30702 0
M  V30 18089 H 1714.87 0.885599 3.76423 0
M  V30 18090 H 1716.56 1.29633 3.84643 0
M  V30 18091 H 1717.32 3.68206 3.15672 0
M  V30 18092 H 1713.2 2.62982 3.78631 0
M  V30 18093 H 1716.75 6.06521 3.44643 0
M  V30 18094 H 1712.64 5.00405 4.07756 0
M  V30 18095 H 1713.41 7.07968 4.10761 0
M  V30 18096 N 1716.07 -1.22136 0.99602 0
M  V30 18097 C 1717.32 -1.90967 0.673634 0
M  V30 18098 C 1717.65 -1.77526 -0.794654 0
M  V30 18099 O 1716.9 -1.14014 -1.59058 0
M  V30 18100 C 1717.2 -3.42259 1.02926 0
M  V30 18101 C 1716.87 -3.75891 2.49032 0
M  V30 18102 C 1715.53 -3.84781 2.88959 0
M  V30 18103 C 1717.88 -3.91799 3.43719 0
M  V30 18104 C 1715.21 -4.0702 4.22554 0
M  V30 18105 C 1717.56 -4.15543 4.76977 0
M  V30 18106 C 1716.23 -4.22658 5.1664 0
M  V30 18107 H 1715.5 -0.698798 0.2465 0
M  V30 18108 H 1718.14 -1.44836 1.25279 0
M  V30 18109 H 1716.45 -3.90066 0.368224 0
M  V30 18110 H 1718.15 -3.93774 0.757803 0
M  V30 18111 H 1714.74 -3.69556 2.17086 0
M  V30 18112 H 1718.92 -3.84306 3.14042 0
M  V30 18113 H 1714.18 -4.10756 4.52868 0
M  V30 18114 H 1718.35 -4.26796 5.50289 0
M  V30 18115 H 1715.98 -4.39643 6.20176 0
M  V30 18116 N 1717.55 -0.769612 -1.37531 0
M  V30 18117 C 1718.8 -0.33346 -2.0004 0
M  V30 18118 C 1719.13 1.08661 -1.60955 0
M  V30 18119 O 1718.41 1.74714 -0.854709 0
M  V30 18120 C 1718.69 -0.474588 -3.56959 0
M  V30 18121 C 1718.54 -1.93692 -4.0596 0
M  V30 18122 C 1719.86 0.122429 -4.3993 0
M  V30 18123 H 1716.98 -0.122637 -0.726725 0
M  V30 18124 H 1719.62 -0.972255 -1.6324 0
M  V30 18125 H 1717.77 0.0692352 -3.88438 0
M  V30 18126 H 1719.44 -2.54028 -3.85055 0
M  V30 18127 H 1717.69 -2.44647 -3.58232 0
M  V30 18128 H 1718.36 -1.98674 -5.15008 0
M  V30 18129 H 1720.83 -0.341557 -4.14696 0
M  V30 18130 H 1719.71 -0.00646545 -5.489 0
M  V30 18131 H 1719.97 1.21251 -4.25148 0
M  V30 18132 N 1719.03 1.48775 -0.519977 0
M  V30 18133 C 1720.26 2.06595 0.013978 0
M  V30 18134 C 1720.67 1.37819 1.29624 0
M  V30 18135 O 1720.01 0.456315 1.77942 0
M  V30 18136 C 1720.07 3.58085 0.318694 0
M  V30 18137 C 1719.74 4.48669 -0.868623 0
M  V30 18138 C 1720.73 4.89048 -1.76432 0
M  V30 18139 C 1718.42 4.9071 -1.07279 0
M  V30 18140 C 1720.41 5.70226 -2.84818 0
M  V30 18141 C 1718.1 5.7166 -2.15981 0
M  V30 18142 C 1719.1 6.11325 -3.04583 0
M  V30 18143 O 1718.79 6.90653 -4.11405 0
M  V30 18144 H 1718.52 0.675506 -0.02584 0
M  V30 18145 H 1721.07 1.92289 -0.722099 0
M  V30 18146 H 1719.3 3.70468 1.10861 0
M  V30 18147 H 1720.99 3.98068 0.793529 0
M  V30 18148 H 1721.76 4.57198 -1.61848 0
M  V30 18149 H 1717.64 4.59326 -0.392454 0
M  V30 18150 H 1721.18 6.01105 -3.54004 0
M  V30 18151 H 1717.08 6.02923 -2.30552 0
M  V30 18152 H 1717.85 7.08991 -4.08992 0
M  V30 18153 N 1720.51 0.254649 1.55529 0
M  V30 18154 C 1721.76 -0.367205 1.98736 0
M  V30 18155 C 1722.08 -1.57899 1.14424 0
M  V30 18156 O 1721.35 -1.94559 0.228849 0
M  V30 18157 H 1719.93 -0.138663 0.734017 0
M  V30 18158 H 1722.59 0.355236 1.91635 0
M  V30 18159 H 1721.69 -0.671069 3.048 0
M  V30 18160 N 1721.99 -1.57589 -0.0183649 0
M  V30 18161 C 1722.95 -2.06217 -1.00035 0
M  V30 18162 C 1723.95 -0.968195 -1.28385 0
M  V30 18163 O 1725.14 -1.23147 -1.23209 0
M  V30 18164 C 1722.27 -2.48815 -2.33032 0
M  V30 18165 H 1723.46 -2.94236 -0.580085 0
M  V30 18166 H 1721.02 -1.5403 -0.265438 0
M  V30 18167 H 1721.75 -1.63985 -2.79785 0
M  V30 18168 H 1721.54 -3.28694 -2.13781 0
M  V30 18169 H 1723.03 -2.86828 -3.03512 0
M  V30 18170 N 1723.46 0.290824 -1.54893 0
M  V30 18171 C 1724.43 1.34215 -1.85793 0
M  V30 18172 C 1725.43 1.43204 -0.731393 0
M  V30 18173 O 1726.62 1.42663 -0.999647 0
M  V30 18174 C 1723.75 2.72577 -2.0473 0
M  V30 18175 H 1724.94 1.08056 -2.79757 0
M  V30 18176 H 1722.5 0.528008 -1.47111 0
M  V30 18177 H 1723.23 3.03943 -1.13088 0
M  V30 18178 H 1723.02 2.67442 -2.86736 0
M  V30 18179 H 1724.51 3.48573 -2.29971 0
M  V30 18180 N 1724.94 1.47523 0.554506 0
M  V30 18181 C 1726.18 1.55867 1.32231 0
M  V30 18182 C 1726.55 0.216987 1.9077 0
M  V30 18183 O 1727.75 0.175283 2.68228 0
M  V30 18184 C 1726.02 2.64761 2.40076 0
M  V30 18185 S 1727.58 2.92706 3.26908 0
M  V30 18186 H 1724.4 0.550369 0.450128 0
M  V30 18187 H 1727 1.84917 0.634504 0
M  V30 18188 H 1725.7 3.60838 1.95509 0
M  V30 18189 H 1725.23 2.37534 3.13594 0
M  V30 18190 H 1727.25 2.30127 4.39609 0
M  V30 18191 N 1726.42 -0.801453 1.357 0
M  V30 18192 C 1727.65 -1.59518 1.32547 0
M  V30 18193 C 1728.07 -1.87868 -0.0934243 0
M  V30 18194 O 1727.43 -1.46955 -1.06179 0
M  V30 18195 C 1727.48 -2.90028 2.14281 0
M  V30 18196 O 1726.58 -3.83086 1.52704 0
M  V30 18197 H 1725.92 -0.48434 0.454215 0
M  V30 18198 H 1728.45 -0.994315 1.78814 0
M  V30 18199 H 1728.46 -3.39406 2.26423 0
M  V30 18200 H 1727.14 -2.6872 3.17431 0
M  V30 18201 H 1725.71 -3.4165 1.49432 0
M  V30 18202 N 1727.9 -1.19782 -1.02421 0
M  V30 18203 C 1728.81 -0.955253 -2.14271 0
M  V30 18204 C 1729.82 0.0863233 -1.73786 0
M  V30 18205 O 1731 -0.0993878 -2.01155 0
M  V30 18206 C 1728.07 -0.502219 -3.43043 0
M  V30 18207 C 1727.13 -1.61374 -3.97815 0
M  V30 18208 C 1726.36 -1.18223 -5.20441 0
M  V30 18209 O 1726.58 -0.0477334 -5.7038 0
M  V30 18210 O 1725.52 -1.98664 -5.68169 0
M  V30 18211 H 1729.34 -1.89157 -2.37599 0
M  V30 18212 H 1726.93 -0.981035 -1.12677 0
M  V30 18213 H 1728.81 -0.258445 -4.20607 0
M  V30 18214 H 1727.48 0.4056 -3.21149 0
M  V30 18215 H 1726.39 -1.91172 -3.21565 0
M  V30 18216 H 1727.72 -2.49829 -4.24083 0
M  V30 18217 N 1729.38 1.21606 -1.00248 0
M  V30 18218 C 1730.62 1.9089 -0.684765 0
M  V30 18219 C 1730.96 1.77749 0.78224 0
M  V30 18220 O 1730.23 1.15251 1.56676 0
M  V30 18221 C 1730.51 3.42778 -1.1034 0
M  V30 18222 C 1730.37 3.64923 -2.62967 0
M  V30 18223 C 1731.69 4.35064 -0.663877 0
M  V30 18224 H 1728.81 0.693217 -0.250239 0
M  V30 18225 H 1731.45 1.4329 -1.24772 0
M  V30 18226 H 1729.6 3.83449 -0.624415 0
M  V30 18227 H 1731.27 3.33595 -3.18609 0
M  V30 18228 H 1729.51 3.08874 -3.04596 0
M  V30 18229 H 1730.18 4.71335 -2.87311 0
M  V30 18230 H 1732.66 4.01962 -1.07544 0
M  V30 18231 H 1731.54 5.3999 -0.984987 0
M  V30 18232 H 1731.8 4.39954 0.435095 0
M  V30 18233 N 1730.86 0.776895 1.37121 0
M  V30 18234 C 1731.77 0.167552 2.34001 0
M  V30 18235 C 1732.78 -0.673609 1.60432 0
M  V30 18236 O 1733.96 -0.592327 1.92493 0
M  V30 18237 C 1731.02 -0.697343 3.39615 0
M  V30 18238 C 1730.08 0.160869 4.28998 0
M  V30 18239 C 1729.32 -0.662841 5.29568 0
M  V30 18240 O 1729.54 -1.89962 5.37839 0
M  V30 18241 O 1728.47 -0.0693304 6.0186 0
M  V30 18242 H 1732.3 0.968247 2.87852 0
M  V30 18243 H 1729.88 0.538137 1.39372 0
M  V30 18244 H 1731.77 -1.19094 4.04221 0
M  V30 18245 H 1730.44 -1.47614 2.88083 0
M  V30 18246 H 1729.35 0.700941 3.67475 0
M  V30 18247 H 1730.68 0.902875 4.83848 0
M  V30 18248 N 1732.33 -1.48497 0.527859 0
M  V30 18249 C 1733.58 -2.01698 -0.00900086 0
M  V30 18250 C 1733.9 -1.4104 -1.35525 0
M  V30 18251 O 1735.1 -1.85726 -1.98035 0
M  V30 18252 C 1733.56 -3.59839 -0.0664428 0
M  V30 18253 C 1733.17 -4.2948 1.27479 0
M  V30 18254 C 1734.91 -4.20893 -0.552244 0
M  V30 18255 C 1732.82 -5.79548 1.17805 0
M  V30 18256 H 1731.75 -0.753966 -0.00713463 0
M  V30 18257 H 1734.4 -1.70779 0.67132 0
M  V30 18258 H 1732.78 -3.8759 -0.811795 0
M  V30 18259 H 1733.95 -4.13403 2.03554 0
M  V30 18260 H 1732.27 -3.80289 1.69616 0
M  V30 18261 H 1734.87 -5.30825 -0.642556 0
M  V30 18262 H 1735.21 -3.86066 -1.55752 0
M  V30 18263 H 1735.74 -3.97563 0.137363 0
M  V30 18264 H 1732.48 -6.18945 2.15841 0
M  V30 18265 H 1732 -5.98044 0.458624 0
M  V30 18266 H 1733.68 -6.41153 0.867834 0
M  V30 18267 N 1733.81 -0.262893 -1.55392 0
M  V30 18268 C 1735.09 0.408525 -1.91286 0
M  V30 18269 C 1735.47 1.74657 -1.18566 0
M  V30 18270 O 1734.82 2.26409 -0.308422 0
M  V30 18271 C 1735.03 0.560865 -3.44464 0
M  V30 18272 C 1736.37 0.849401 -4.16017 0
M  V30 18273 O 1737.4 0.646134 -3.50291 0
M  V30 18274 O 1736.26 1.23741 -5.32307 0
M  V30 18275 H 1733.35 0.221707 -0.796728 0
M  V30 18276 H 1735.9 -0.308143 -1.66879 0
M  V30 18277 H 1734.67 -0.381279 -3.89438 0
M  V30 18278 H 1734.29 1.32747 -3.74785 0
M  V30 18279 N 1735.29 1.57597 0.0100073 0
M  V30 18280 C 1736.53 1.91983 0.701555 0
M  V30 18281 C 1736.89 0.863453 1.71489 0
M  V30 18282 O 1738.09 1.09225 2.45608 0
M  V30 18283 C 1736.37 3.31459 1.33678 0
M  V30 18284 S 1737.92 3.87714 2.05484 0
M  V30 18285 H 1734.74 0.672093 0.231975 0
M  V30 18286 H 1737.34 1.9545 -0.0442772 0
M  V30 18287 H 1736.05 4.06191 0.586295 0
M  V30 18288 H 1735.58 3.31342 2.12076 0
M  V30 18289 H 1737.59 3.6798 3.32874 0
M  V30 18290 N 1736.77 -0.282606 1.55045 0
M  V30 18291 C 1737.7 -1.35347 1.90272 0
M  V30 18292 C 1738.68 -1.52001 0.763532 0
M  V30 18293 O 1739.86 -1.65204 1.02085 0
M  V30 18294 C 1736.99 -2.71464 2.16621 0
M  V30 18295 C 1735.95 -2.69554 3.32453 0
M  V30 18296 C 1735.27 -4.09132 3.4426 0
M  V30 18297 C 1736.57 -2.29669 4.69094 0
M  V30 18298 H 1738.27 -1.06113 2.79965 0
M  V30 18299 H 1735.81 -0.509018 1.34703 0
M  V30 18300 H 1737.77 -3.46482 2.39851 0
M  V30 18301 H 1736.49 -3.02261 1.23717 0
M  V30 18302 H 1735.15 -1.96993 3.09175 0
M  V30 18303 H 1734.8 -4.37136 2.4884 0
M  V30 18304 H 1734.5 -4.08751 4.22133 0
M  V30 18305 H 1736.02 -4.85903 3.69771 0
M  V30 18306 H 1737.44 -2.94407 4.91932 0
M  V30 18307 H 1735.83 -2.40467 5.49814 0
M  V30 18308 H 1736.9 -1.24796 4.68566 0
M  V30 18309 N 1738.25 -1.47815 -0.546675 0
M  V30 18310 C 1739.47 -1.58613 -1.32851 0
M  V30 18311 C 1739.89 -0.240179 -1.87266 0
M  V30 18312 O 1739.25 0.768148 -1.65547 0
M  V30 18313 C 1739.3 -2.61969 -2.49107 0
M  V30 18314 O 1739.02 -3.9134 -1.96938 0
M  V30 18315 C 1740.52 -2.83051 -3.4117 0
M  V30 18316 H 1737.74 -0.535292 -0.404603 0
M  V30 18317 H 1740.28 -1.93516 -0.661192 0
M  V30 18318 H 1738.44 -2.29971 -3.11756 0
M  V30 18319 H 1738.85 -4.47905 -2.72913 0
M  V30 18320 H 1740.33 -3.59209 -4.19134 0
M  V30 18321 H 1740.8 -1.91258 -3.95369 0
M  V30 18322 H 1741.41 -3.16287 -2.84328 0
M  V30 18323 N 1739.72 0.794246 -1.36123 0
M  V30 18324 C 1740.97 1.54885 -1.29827 0
M  V30 18325 C 1741.29 1.94608 0.123517 0
M  V30 18326 O 1740.56 1.6457 1.06272 0
M  V30 18327 H 1739.14 0.574398 -0.477573 0
M  V30 18328 H 1741.8 0.946658 -1.70365 0
M  V30 18329 H 1740.9 2.45863 -1.92244 0
M  V30 18330 N 1741.2 1.20323 1.01785 0
M  V30 18331 C 1742.48 0.921703 1.72522 0
M  V30 18332 C 1742.86 -0.569838 2.03264 0
M  V30 18333 O 1742.21 -1.53115 1.69611 0
M  V30 18334 C 1742.42 1.79335 2.99399 0
M  V30 18335 C 1743.76 2.03442 3.72688 0
M  V30 18336 O 1744.79 1.76578 3.09352 0
M  V30 18337 O 1743.65 2.48803 4.86579 0
M  V30 18338 H 1740.74 0.344505 0.751828 0
M  V30 18339 H 1743.29 1.31191 1.07644 0
M  V30 18340 H 1742.06 2.80339 2.72994 0
M  V30 18341 H 1741.68 1.40314 3.72018 0
M  V30 18342 N 1742.68 -1.21073 1.00892 0
M  V30 18343 C 1743.63 -2.21426 0.543574 0
M  V30 18344 C 1744.61 -1.55927 -0.396938 0
M  V30 18345 O 1745.81 -1.75613 -0.221152 0
M  V30 18346 C 1742.93 -3.43074 -0.124494 0
M  V30 18347 C 1742.02 -4.15753 0.837269 0
M  V30 18348 N 1742.41 -4.64936 1.99168 0
M  V30 18349 C 1740.71 -4.41142 0.656473 0
M  V30 18350 C 1741.41 -5.20527 2.59666 0
M  V30 18351 N 1740.39 -5.10133 1.87792 0
M  V30 18352 H 1744.19 -2.5711 1.42378 0
M  V30 18353 H 1741.7 -1.36923 0.873254 0
M  V30 18354 H 1743.7 -4.14181 -0.475363 0
M  V30 18355 H 1742.36 -3.08897 -1.00064 0
M  V30 18356 H 1743.37 -4.60392 2.37191 0
M  V30 18357 H 1740.05 -4.17144 -0.172261 0
M  V30 18358 H 1741.44 -5.69011 3.57318 0
M  V30 18359 N 1744.16 -0.784156 -1.36707 0
M  V30 18360 C 1745.11 -0.177044 -2.3012 0
M  V30 18361 C 1746.08 0.6761 -1.51717 0
M  V30 18362 O 1747.26 0.625878 -1.80243 0
M  V30 18363 C 1744.4 0.686337 -3.38206 0
M  V30 18364 C 1743.51 -0.184772 -4.31605 0
M  V30 18365 C 1742.65 0.684485 -5.26772 0
M  V30 18366 C 1741.69 -0.188402 -6.1181 0
M  V30 18367 N 1740.82 0.639537 -6.99181 0
M  V30 18368 H 1745.66 -0.979125 -2.81455 0
M  V30 18369 H 1743.2 -0.494419 -1.38542 0
M  V30 18370 H 1745.16 1.20185 -3.99514 0
M  V30 18371 H 1743.79 1.4539 -2.88204 0
M  V30 18372 H 1742.84 -0.818204 -3.71496 0
M  V30 18373 H 1744.15 -0.857567 -4.91373 0
M  V30 18374 H 1743.31 1.26601 -5.93344 0
M  V30 18375 H 1742.05 1.39092 -4.67445 0
M  V30 18376 H 1741.05 -0.782364 -5.44205 0
M  V30 18377 H 1742.28 -0.89236 -6.73212 0
M  V30 18378 H 1740.22 1.33036 -6.42369 0
M  V30 18379 H 1740.14 0.0243097 -7.55996 0
M  V30 18380 H 1741.41 1.20505 -7.70129 0
M  V30 18381 N 1745.64 1.48215 -0.535727 0
M  V30 18382 C 1746.58 2.31387 0.237209 0
M  V30 18383 C 1747.58 1.41589 0.929995 0
M  V30 18384 O 1748.78 1.58466 0.853725 0
M  V30 18385 H 1745.16 0.745928 0.0953663 0
M  V30 18386 H 1747.13 2.94452 -0.483772 0
M  V30 18387 C 1745.88 3.23771 1.26757 0
M  V30 18388 H 1745.2 3.92818 0.743902 0
M  V30 18389 H 1746.64 3.84841 1.7797 0
M  V30 18390 C 1745.1 2.45779 2.30422 0
M  V30 18391 O 1745.63 2.18673 3.36964 0
M  V30 18392 N 1743.84 2.07171 2.03785 0
M  V30 18393 H 1743.38 2.29416 1.17159 0
M  V30 18394 H 1743.34 1.55301 2.73366 0
M  V30 18395 N 1747.11 0.27113 1.5525 0
M  V30 18396 C 1748.36 -0.347408 1.98686 0
M  V30 18397 C 1748.68 -1.57275 1.16292 0
M  V30 18398 O 1749.88 -2.26399 1.49853 0
M  V30 18399 C 1748.34 -0.669461 3.53619 0
M  V30 18400 C 1747.95 0.535853 4.44784 0
M  V30 18401 C 1749.69 -1.25084 4.05653 0
M  V30 18402 C 1747.6 0.188607 5.91099 0
M  V30 18403 H 1746.53 -0.133581 0.742073 0
M  V30 18404 H 1749.18 0.375157 1.79624 0
M  V30 18405 H 1747.56 -1.45082 3.68466 0
M  V30 18406 H 1748.73 1.3128 4.41704 0
M  V30 18407 H 1747.05 1.03381 4.03363 0
M  V30 18408 H 1749.65 -1.52439 5.1251 0
M  V30 18409 H 1749.99 -2.18341 3.54448 0
M  V30 18410 H 1750.52 -0.531864 3.94228 0
M  V30 18411 H 1747.26 1.08894 6.46392 0
M  V30 18412 H 1746.78 -0.551653 5.97258 0
M  V30 18413 H 1748.46 -0.220603 6.46624 0
M  V30 18414 N 1748.59 -1.576 -0.00164943 0
M  V30 18415 C 1750.01 -1.5554 -0.357706 0
M  V30 18416 C 1750.21 -1.00078 -1.74891 0
M  V30 18417 O 1749.26 -0.633864 -2.44414 0
M  V30 18418 C 1750.58 -2.99785 -0.234448 0
M  V30 18419 C 1752.13 -3.11466 -0.309509 0
M  V30 18420 C 1752.6 -4.57493 -0.215394 0
M  V30 18421 N 1754.09 -4.62393 -0.273345 0
M  V30 18422 C 1754.83 -5.72963 -0.223836 0
M  V30 18423 N 1754.32 -6.92687 -0.12502 0
M  V30 18424 N 1756.12 -5.61424 -0.27558 0
M  V30 18425 H 1748.27 -1.91992 0.908448 0
M  V30 18426 H 1750.53 -0.88179 0.348067 0
M  V30 18427 H 1750.24 -3.44195 0.722671 0
M  V30 18428 H 1750.11 -3.63226 -1.01718 0
M  V30 18429 H 1752.5 -2.66986 -1.25707 0
M  V30 18430 H 1752.58 -2.50805 0.503064 0
M  V30 18431 H 1752.22 -5.02647 0.728617 0
M  V30 18432 H 1752.15 -5.16098 -1.04643 0
M  V30 18433 H 1754.64 -3.76265 -0.351116 0
M  V30 18434 H 1754.96 -7.72744 -0.0930938 0
M  V30 18435 H 1753.3 -6.94941 -0.0906712 0
M  V30 18436 H 1756.49 -4.66782 -0.350963 0
M  V30 18437 H 1756.66 -6.47579 -0.233531 0
M  V30 18438 N 1750.07 0.274379 -1.55193 0
M  V30 18439 C 1751.3 1.02443 -1.79758 0
M  V30 18440 C 1751.71 1.79984 -0.570205 0
M  V30 18441 O 1751.07 1.7659 0.46069 0
M  V30 18442 C 1751.12 1.9841 -3.02185 0
M  V30 18443 O 1750.84 1.24012 -4.20182 0
M  V30 18444 C 1752.34 2.85239 -3.39343 0
M  V30 18445 H 1749.56 0.302684 -0.598852 0
M  V30 18446 H 1752.11 0.305581 -2.02204 0
M  V30 18447 H 1750.26 2.6576 -2.81869 0
M  V30 18448 H 1750.68 1.88684 -4.89386 0
M  V30 18449 H 1752.15 3.48376 -4.2818 0
M  V30 18450 H 1752.63 3.54936 -2.58684 0
M  V30 18451 H 1753.23 2.23382 -3.61912 0
M  V30 18452 N 1751.55 1.48103 0.538828 0
M  V30 18453 C 1752.83 1.46155 1.29992 0
M  V30 18454 C 1753.21 0.16841 2.10427 0
M  V30 18455 O 1752.55 -0.849967 2.12103 0
M  V30 18456 C 1752.76 2.71826 2.18888 0
M  V30 18457 C 1754.11 3.19794 2.79315 0
M  V30 18458 O 1755.14 2.72681 2.2918 0
M  V30 18459 O 1753.99 4.0175 3.70485 0
M  V30 18460 H 1751.09 0.583293 0.586258 0
M  V30 18461 H 1753.63 1.60326 0.556212 0
M  V30 18462 H 1752.41 3.57462 1.59176 0
M  V30 18463 H 1752.03 2.60332 3.00521 0
M  V30 18464 N 1753.03 -0.787016 1.36542 0
M  V30 18465 C 1754.28 -1.54019 1.30234 0
M  V30 18466 C 1754.59 -1.95259 -0.115496 0
M  V30 18467 O 1755.79 -2.69827 -0.300966 0
M  V30 18468 C 1754.25 -2.78048 2.28512 0
M  V30 18469 C 1753.86 -2.43968 3.75744 0
M  V30 18470 C 1755.6 -3.56025 2.31185 0
M  V30 18471 C 1753.51 -3.64406 4.65792 0
M  V30 18472 H 1752.44 -0.578185 0.483961 0
M  V30 18473 H 1755.09 -0.8634 1.61919 0
M  V30 18474 H 1753.47 -3.47538 1.89824 0
M  V30 18475 H 1754.65 -1.82359 4.23181 0
M  V30 18476 H 1752.96 -1.79197 3.75869 0
M  V30 18477 H 1755.56 -4.45514 2.9567 0
M  V30 18478 H 1755.9 -3.94783 1.32107 0
M  V30 18479 H 1756.43 -2.93516 2.68502 0
M  V30 18480 H 1753.17 -3.30742 5.65942 0
M  V30 18481 H 1752.69 -4.25173 4.2307 0
M  V30 18482 H 1754.37 -4.31406 4.82181 0
M  V30 18483 N 1754.5 -1.20861 -1.01145 0
M  V30 18484 C 1755.75 -1.02343 -1.75082 0
M  V30 18485 C 1756.08 0.44278 -1.89085 0
M  V30 18486 O 1755.36 1.32867 -1.42045 0
M  V30 18487 C 1755.64 -1.71368 -3.1671 0
M  V30 18488 C 1755.49 -3.25466 -3.1047 0
M  V30 18489 C 1756.81 -1.45097 -4.15494 0
M  V30 18490 H 1753.93 -0.373198 -0.635525 0
M  V30 18491 H 1756.57 -1.48947 -1.17961 0
M  V30 18492 H 1754.72 -1.31746 -3.6548 0
M  V30 18493 H 1756.4 -3.74415 -2.69464 0
M  V30 18494 H 1754.64 -3.56104 -2.47735 0
M  V30 18495 H 1755.31 -3.68924 -4.10608 0
M  V30 18496 H 1757.79 -1.7948 -3.75401 0
M  V30 18497 H 1756.66 -1.95917 -5.12745 0
M  V30 18498 H 1756.92 -0.379628 -4.40467 0
M  V30 18499 N 1755.98 1.20536 -1.01532 0
M  V30 18500 C 1756.92 2.21979 -0.529198 0
M  V30 18501 C 1757.89 1.5701 0.422676 0
M  V30 18502 O 1759.08 1.85354 0.342975 0
M  V30 18503 C 1756.2 3.37918 0.230033 0
M  V30 18504 C 1755.25 4.21185 -0.671202 0
M  V30 18505 S 1756.08 4.90898 -2.13962 0
M  V30 18506 C 1757.24 6.10259 -1.39051 0
M  V30 18507 H 1757.47 2.62871 -1.38875 0
M  V30 18508 H 1755.01 1.30567 -0.824113 0
M  V30 18509 H 1756.96 4.05127 0.661978 0
M  V30 18510 H 1755.62 2.95489 1.06514 0
M  V30 18511 H 1754.82 5.03927 -0.085834 0
M  V30 18512 H 1754.42 3.59224 -1.04087 0
M  V30 18513 H 1756.71 6.74181 -0.669841 0
M  V30 18514 H 1757.65 6.73252 -2.19402 0
M  V30 18515 H 1758.06 5.57377 -0.893953 0
M  V30 18516 N 1757.46 0.791395 1.36289 0
M  V30 18517 C 1758.74 0.288602 1.93459 0
M  V30 18518 C 1759.12 -1.21953 1.7231 0
M  V30 18519 O 1758.47 -2.01194 1.0832 0
M  V30 18520 C 1758.68 0.683392 3.42244 0
M  V30 18521 C 1760.02 0.664255 4.19372 0
M  V30 18522 O 1761.05 0.623988 3.50692 0
M  V30 18523 O 1759.91 0.708926 5.41882 0
M  V30 18524 H 1757 0.0719305 0.823866 0
M  V30 18525 H 1759.55 0.874071 1.45458 0
M  V30 18526 H 1758.32 1.72344 3.51302 0
M  V30 18527 H 1757.94 0.0719128 3.97535 0
M  V30 18528 N 1758.94 -1.47929 0.54358 0
M  V30 18529 C 1760.19 -2.02795 0.014488 0
M  V30 18530 C 1760.52 -1.41848 -1.32638 0
M  V30 18531 O 1759.79 -0.569099 -1.85988 0
M  V30 18532 C 1760.08 -3.5998 -0.093097 0
M  V30 18533 C 1759.93 -4.31384 1.2739 0
M  V30 18534 C 1761.25 -4.32521 -0.813251 0
M  V30 18535 H 1758.37 -0.736969 0.00673905 0
M  V30 18536 H 1761.01 -1.76507 0.703238 0
M  V30 18537 H 1759.16 -3.82508 -0.679685 0
M  V30 18538 H 1760.83 -4.20235 1.90264 0
M  V30 18539 H 1759.07 -3.9227 1.85221 0
M  V30 18540 H 1759.75 -5.39856 1.15148 0
M  V30 18541 H 1762.22 -4.14903 -0.315334 0
M  V30 18542 H 1761.1 -5.42161 -0.857456 0
M  V30 18543 H 1761.36 -4.00768 -1.86649 0
M  V30 18544 N 1760.42 -0.27936 -1.55104 0
M  V30 18545 C 1761.67 0.335541 -1.99295 0
M  V30 18546 C 1761.99 1.56059 -1.16921 0
M  V30 18547 O 1761.26 1.9417 -0.259773 0
M  V30 18548 H 1759.84 0.126968 -0.736131 0
M  V30 18549 H 1762.5 -0.385679 -1.91046 0
M  V30 18550 H 1761.59 0.622493 -3.05829 0
M  V30 18551 N 1761.9 1.57599 -0.0067085 0
M  V30 18552 C 1763.14 1.92717 0.681153 0
M  V30 18553 C 1763.5 0.881593 1.70564 0
M  V30 18554 O 1764.7 1.11823 2.44436 0
M  V30 18555 C 1762.97 3.32858 1.30155 0
M  V30 18556 S 1764.53 3.89871 2.0136 0
M  V30 18557 H 1761.35 0.674515 0.224833 0
M  V30 18558 H 1763.95 1.95392 -0.0650048 0
M  V30 18559 H 1762.65 4.0679 0.54318 0
M  V30 18560 H 1762.19 3.33573 2.0855 0
M  V30 18561 H 1764.2 3.7149 3.28952 0
M  V30 18562 N 1763.37 -0.266145 1.55336 0
M  V30 18563 C 1764.6 -1.01915 1.80633 0
M  V30 18564 C 1765.02 -1.78897 0.581172 0
M  V30 18565 O 1764.38 -1.75118 -0.469399 0
M  V30 18566 C 1764.43 -1.948 3.03456 0
M  V30 18567 O 1763.53 -3.03678 2.79022 0
M  V30 18568 H 1762.87 -0.29102 0.596828 0
M  V30 18569 H 1765.4 -0.292973 2.02492 0
M  V30 18570 H 1765.41 -2.36626 3.32373 0
M  V30 18571 H 1764.09 -1.38182 3.92273 0
M  V30 18572 H 1762.67 -2.66118 2.61219 0
M  V30 18573 N 1764.85 -1.48386 -0.530967 0
M  V30 18574 C 1766.1 -1.55608 -1.28332 0
M  V30 18575 C 1766.41 -0.234479 -1.94189 0
M  V30 18576 O 1767.62 -0.184926 -2.70869 0
M  V30 18577 C 1766.08 -2.74423 -2.32852 0
M  V30 18578 C 1765.68 -4.13221 -1.73068 0
M  V30 18579 C 1767.43 -2.90956 -3.09103 0
M  V30 18580 C 1765.33 -5.23299 -2.75522 0
M  V30 18581 H 1764.26 -0.579291 -0.482637 0
M  V30 18582 H 1766.92 -1.74718 -0.560885 0
M  V30 18583 H 1765.3 -2.48745 -3.08126 0
M  V30 18584 H 1766.47 -4.48913 -1.03989 0
M  V30 18585 H 1764.79 -4.01796 -1.09312 0
M  V30 18586 H 1767.38 -3.70363 -3.85662 0
M  V30 18587 H 1767.73 -2.00376 -3.64905 0
M  V30 18588 H 1768.26 -3.1653 -2.40943 0
M  V30 18589 H 1765 -6.15842 -2.24542 0
M  V30 18590 H 1764.52 -4.92095 -3.42932 0
M  V30 18591 H 1766.2 -5.5137 -3.38526 0
M  V30 18592 N 1766.33 0.779763 -1.36958 0
M  V30 18593 C 1767.28 1.91417 -1.32145 0
M  V30 18594 C 1768.27 1.68074 -0.211572 0
M  V30 18595 O 1769.48 1.75962 -0.379139 0
M  V30 18596 H 1765.85 0.62934 -0.411624 0
M  V30 18597 H 1767.82 1.92594 -2.27926 0
M  V30 18598 C 1766.57 3.28574 -1.13729 0
M  V30 18599 H 1765.9 3.47109 -1.98383 0
M  V30 18600 H 1767.34 4.08272 -1.1441 0
M  V30 18601 C 1765.79 3.36531 0.157538 0
M  V30 18602 O 1766.32 3.85067 1.14397 0
M  V30 18603 N 1764.53 2.89872 0.205509 0
M  V30 18604 H 1764.08 2.50566 -0.597854 0
M  V30 18605 H 1764.04 2.95578 1.07151 0
M  V30 18606 N 1767.81 1.21396 1.00503 0
M  V30 18607 C 1769.22 1.02983 1.55728 0
M  V30 18608 C 1769.57 -0.410383 1.9186 0
M  V30 18609 O 1768.69 -1.29358 1.7348 0
M  V30 18610 C 1769.29 1.86316 2.8297 0
M  V30 18611 C 1767.85 1.72235 3.34682 0
M  V30 18612 C 1767 1.8353 2.07875 0
M  V30 18613 H 1769.95 1.35418 0.827499 0
M  V30 18614 H 1769.97 1.37339 3.5485 0
M  V30 18615 H 1769.48 2.91131 2.56641 0
M  V30 18616 H 1767.58 0.701047 3.65945 0
M  V30 18617 H 1767.69 2.54198 4.06103 0
M  V30 18618 H 1766.06 1.26838 2.20872 0
M  V30 18619 H 1766.84 2.89852 1.83958 0
M  V30 18620 N 1769.29 -1.19996 1.0217 0
M  V30 18621 C 1770.25 -2.21179 0.601036 0
M  V30 18622 C 1771.25 -1.57345 -0.331531 0
M  V30 18623 O 1772.44 -1.73789 -0.119521 0
M  V30 18624 C 1769.57 -3.40683 -0.121557 0
M  V30 18625 H 1770.76 -2.5991 1.49622 0
M  V30 18626 H 1768.32 -1.33548 0.812071 0
M  V30 18627 H 1769.05 -3.07461 -1.03142 0
M  V30 18628 H 1768.84 -3.88245 0.548448 0
M  V30 18629 H 1770.33 -4.1565 -0.403046 0
M  V30 18630 N 1770.76 -0.798611 -1.35867 0
M  V30 18631 C 1772.01 -0.371795 -1.98244 0
M  V30 18632 C 1772.33 1.06474 -1.64081 0
M  V30 18633 O 1773.53 1.59428 -2.19761 0
M  V30 18634 C 1771.99 -0.613821 -3.54627 0
M  V30 18635 C 1771.6 -2.06237 -3.97706 0
M  V30 18636 C 1773.34 -0.251966 -4.23752 0
M  V30 18637 C 1771.25 -2.25057 -5.46903 0
M  V30 18638 H 1770.18 -0.135278 -0.741765 0
M  V30 18639 H 1772.83 -0.981544 -1.55042 0
M  V30 18640 H 1771.21 0.0657688 -3.95945 0
M  V30 18641 H 1772.38 -2.77912 -3.67562 0
M  V30 18642 H 1770.7 -2.38334 -3.41447 0
M  V30 18643 H 1773.3 -0.370736 -5.33413 0
M  V30 18644 H 1773.64 0.800968 -4.08522 0
M  V30 18645 H 1774.17 -0.885155 -3.87827 0
M  V30 18646 H 1770.91 -3.28767 -5.67091 0
M  V30 18647 H 1770.43 -1.57898 -5.78643 0
M  V30 18648 H 1772.11 -2.06219 -6.13256 0
M  V30 18649 N 1772.24 1.47639 -0.551417 0
M  V30 18650 C 1773.52 1.95559 0.0401983 0
M  V30 18651 C 1773.9 1.49396 1.49144 0
M  V30 18652 O 1773.25 0.730148 2.1652 0
M  V30 18653 C 1773.46 3.48859 -0.0992677 0
M  V30 18654 C 1774.8 4.24572 0.0490517 0
M  V30 18655 O 1775.83 3.5619 -0.026527 0
M  V30 18656 O 1774.69 5.46094 0.210638 0
M  V30 18657 H 1771.78 0.824251 0.0673694 0
M  V30 18658 H 1774.33 1.58065 -0.617532 0
M  V30 18659 H 1773.1 3.75245 -1.10936 0
M  V30 18660 H 1772.72 3.93102 0.596339 0
M  V30 18661 N 1773.72 0.287581 1.54954 0
M  V30 18662 C 1774.97 -0.326315 1.99043 0
M  V30 18663 C 1775.28 -1.56033 1.17954 0
M  V30 18664 O 1776.49 -2.24797 1.52246 0
M  V30 18665 C 1774.94 -0.631918 3.54309 0
M  V30 18666 C 1774.55 0.582998 4.4419 0
M  V30 18667 C 1776.3 -1.20775 4.06957 0
M  V30 18668 C 1774.2 0.251291 5.90866 0
M  V30 18669 H 1773.13 -0.125703 0.743448 0
M  V30 18670 H 1775.78 0.394188 1.79216 0
M  V30 18671 H 1774.17 -1.41166 3.69984 0
M  V30 18672 H 1775.34 1.35957 4.40287 0
M  V30 18673 H 1773.66 1.07653 4.02243 0
M  V30 18674 H 1776.25 -1.46995 5.14098 0
M  V30 18675 H 1776.6 -2.14569 3.56743 0
M  V30 18676 H 1777.13 -0.490021 3.9477 0
M  V30 18677 H 1773.87 1.15744 6.452 0
M  V30 18678 H 1773.39 -0.488274 5.97809 0
M  V30 18679 H 1775.07 -0.152008 6.46821 0
M  V30 18680 N 1775.2 -1.57593 0.0150662 0
M  V30 18681 C 1776.45 -1.90836 -0.665282 0
M  V30 18682 C 1776.77 -0.890693 -1.73469 0
M  V30 18683 O 1776.04 0.0698113 -1.95776 0
M  V30 18684 H 1774.62 -0.704377 -0.24872 0
M  V30 18685 H 1777.28 -1.94809 0.0595521 0
M  V30 18686 H 1776.38 -2.91043 -1.12697 0
M  V30 18687 N 1776.68 0.257904 -1.55475 0
M  V30 18688 C 1777.61 1.34176 -1.85821 0
M  V30 18689 C 1778.62 1.44821 -0.743696 0
M  V30 18690 O 1779.81 1.46367 -1.02171 0
M  V30 18691 C 1776.91 2.72151 -2.01958 0
M  V30 18692 C 1776.08 2.83911 -3.32736 0
M  V30 18693 C 1775.14 4.02659 -3.38751 0
M  V30 18694 O 1774.17 3.92705 -4.12034 0
M  V30 18695 N 1775.37 5.15325 -2.67245 0
M  V30 18696 H 1778.14 1.08483 -2.79377 0
M  V30 18697 H 1775.7 0.448017 -1.55578 0
M  V30 18698 H 1777.69 3.4991 -2.03335 0
M  V30 18699 H 1776.26 2.906 -1.15198 0
M  V30 18700 H 1775.48 1.92915 -3.43769 0
M  V30 18701 H 1776.77 2.88709 -4.18956 0
M  V30 18702 H 1776.16 5.26303 -2.07418 0
M  V30 18703 H 1774.72 5.91259 -2.74328 0
M  V30 18704 N 1778.15 1.48666 0.52309 0
M  V30 18705 C 1779.4 1.56286 1.27505 0
M  V30 18706 C 1779.72 0.244774 1.94062 0
M  V30 18707 O 1780.92 0.199289 2.70768 0
M  V30 18708 C 1779.38 2.75654 2.31393 0
M  V30 18709 C 1778.99 4.14133 1.70874 0
M  V30 18710 C 1780.73 2.92591 3.07556 0
M  V30 18711 C 1778.64 5.24752 2.72743 0
M  V30 18712 H 1777.57 0.581842 0.479558 0
M  V30 18713 H 1780.22 1.75013 0.551611 0
M  V30 18714 H 1778.6 2.50376 3.06803 0
M  V30 18715 H 1779.77 4.49458 1.01607 0
M  V30 18716 H 1778.09 4.0237 1.0718 0
M  V30 18717 H 1780.69 3.72403 3.83692 0
M  V30 18718 H 1781.03 2.02308 3.63837 0
M  V30 18719 H 1781.56 3.17804 2.39261 0
M  V30 18720 H 1778.3 6.17024 2.21273 0
M  V30 18721 H 1777.82 4.93907 3.40318 0
M  V30 18722 H 1779.5 5.53158 3.35598 0
M  V30 18723 N 1779.63 -0.772489 1.37369 0
M  V30 18724 C 1780.54 -1.91679 1.35263 0
M  V30 18725 C 1781.56 -1.72161 0.252321 0
M  V30 18726 O 1782.73 -1.95409 0.487581 0
M  V30 18727 C 1779.8 -3.26792 1.15792 0
M  V30 18728 C 1778.86 -3.5897 2.35455 0
M  V30 18729 C 1778.09 -4.87636 2.16903 0
M  V30 18730 O 1778.32 -5.58627 1.15291 0
M  V30 18731 O 1777.25 -5.18859 3.05072 0
M  V30 18732 H 1781.08 -1.96408 2.31641 0
M  V30 18733 H 1778.66 -0.915136 1.18092 0
M  V30 18734 H 1780.54 -4.07611 1.06918 0
M  V30 18735 H 1779.22 -3.22918 0.224872 0
M  V30 18736 H 1778.13 -2.78389 2.49901 0
M  V30 18737 H 1779.46 -3.67586 3.27325 0
M  V30 18738 N 1781.11 -1.21927 -0.998575 0
M  V30 18739 C 1782.36 -1.03834 -1.73386 0
M  V30 18740 C 1782.68 0.428247 -1.90239 0
M  V30 18741 O 1781.95 1.30847 -1.45794 0
M  V30 18742 H 1780.53 -0.381225 -0.642399 0
M  V30 18743 H 1783.19 -1.53344 -1.20298 0
M  V30 18744 H 1782.29 -1.51155 -2.73054 0
M  V30 18745 N 1782.59 1.19452 -1.02805 0
M  V30 18746 C 1783.55 2.20857 -0.612757 0
M  V30 18747 C 1784.55 1.57519 0.323182 0
M  V30 18748 O 1785.74 1.7385 0.110303 0
M  V30 18749 C 1782.87 3.40743 0.103488 0
M  V30 18750 H 1784.07 2.59113 -1.50998 0
M  V30 18751 H 1781.62 1.33116 -0.819142 0
M  V30 18752 H 1782.35 3.08004 1.0151 0
M  V30 18753 H 1782.14 3.87949 -0.56903 0
M  V30 18754 H 1783.63 4.15858 0.380998 0
M  V30 18755 N 1784.07 0.805805 1.35442 0
M  V30 18756 C 1785.31 0.385808 1.98791 0
M  V30 18757 C 1785.64 -1.04681 1.63927 0
M  V30 18758 O 1784.9 -1.7408 0.894125 0
M  V30 18759 C 1785.2 0.515335 3.53665 0
M  V30 18760 C 1784.86 1.91115 4.08394 0
M  V30 18761 C 1783.52 2.29302 4.23053 0
M  V30 18762 C 1785.88 2.82437 4.38039 0
M  V30 18763 C 1783.2 3.58182 4.64675 0
M  V30 18764 C 1785.56 4.10762 4.811 0
M  V30 18765 C 1784.22 4.48949 4.93964 0
M  V30 18766 H 1783.49 0.141177 0.727427 0
M  V30 18767 H 1786.14 1.02644 1.61667 0
M  V30 18768 H 1784.44 -0.208753 3.91243 0
M  V30 18769 H 1786.14 0.171152 4.00635 0
M  V30 18770 H 1782.73 1.60446 3.97436 0
M  V30 18771 H 1786.91 2.54183 4.26268 0
M  V30 18772 H 1782.17 3.87618 4.72824 0
M  V30 18773 H 1786.34 4.81626 5.03 0
M  V30 18774 H 1783.97 5.48867 5.25974 0
M  V30 18775 N 1785.54 -1.47344 0.559239 0
M  V30 18776 C 1786.79 -2.01672 0.0337843 0
M  V30 18777 C 1787.11 -1.43883 -1.32503 0
M  V30 18778 O 1788.31 -1.89885 -1.94051 0
M  V30 18779 C 1786.77 -3.59899 0.00989925 0
M  V30 18780 C 1786.38 -4.2668 1.3656 0
M  V30 18781 C 1788.12 -4.21969 -0.462842 0
M  V30 18782 C 1786.03 -5.76919 1.30071 0
M  V30 18783 H 1784.96 -0.753948 0.00885972 0
M  V30 18784 H 1787.61 -1.69317 0.707394 0
M  V30 18785 H 1785.99 -3.89225 -0.729399 0
M  V30 18786 H 1787.16 -4.08993 2.12277 0
M  V30 18787 H 1785.48 -3.76605 1.77644 0
M  V30 18788 H 1788.08 -5.32069 -0.529816 0
M  V30 18789 H 1788.42 -3.89283 -1.47528 0
M  V30 18790 H 1788.95 -3.97182 0.221661 0
M  V30 18791 H 1785.69 -6.14227 2.28921 0
M  V30 18792 H 1785.21 -5.96937 0.585375 0
M  V30 18793 H 1786.89 -6.39168 1.00364 0
M  V30 18794 N 1787.02 -0.295795 -1.54799 0
M  V30 18795 C 1787.95 0.616191 -2.20762 0
M  V30 18796 C 1788.97 1.10157 -1.19872 0
M  V30 18797 O 1790.16 1.01992 -1.46492 0
M  V30 18798 C 1787.26 1.85497 -2.83627 0
M  V30 18799 C 1786.43 1.51295 -4.10401 0
M  V30 18800 C 1785.49 2.60633 -4.57118 0
M  V30 18801 O 1784.51 2.25945 -5.22434 0
M  V30 18802 N 1785.72 3.91078 -4.28997 0
M  V30 18803 H 1788.48 0.0515252 -2.99656 0
M  V30 18804 H 1786.04 -0.11777 -1.61471 0
M  V30 18805 H 1788.03 2.57979 -3.11816 0
M  V30 18806 H 1786.6 2.32816 -2.08604 0
M  V30 18807 H 1785.82 0.621 -3.89278 0
M  V30 18808 H 1787.11 1.25974 -4.92958 0
M  V30 18809 H 1786.51 4.22072 -3.76659 0
M  V30 18810 H 1785.07 4.59875 -4.61907 0
M  V30 18811 N 1788.5 1.57583 -0.0234236 0
M  V30 18812 C 1789.75 1.91186 0.655152 0
M  V30 18813 C 1790.07 0.89988 1.72995 0
M  V30 18814 O 1789.34 -0.0594278 1.9581 0
M  V30 18815 H 1787.92 0.705686 0.244982 0
M  V30 18816 H 1790.58 1.94775 -0.0698824 0
M  V30 18817 H 1789.68 2.91636 1.11152 0
M  V30 18818 N 1789.98 -0.249655 1.5561 0
M  V30 18819 C 1790.91 -1.33534 1.85051 0
M  V30 18820 C 1791.89 -1.46503 0.705373 0
M  V30 18821 O 1793.07 -1.62761 0.950841 0
M  V30 18822 C 1790.2 -2.70916 2.03278 0
M  V30 18823 C 1789.25 -2.75111 3.25908 0
M  V30 18824 S 1790.08 -2.31998 4.82636 0
M  V30 18825 C 1791.24 -3.7131 5.03865 0
M  V30 18826 H 1791.47 -1.08362 2.76848 0
M  V30 18827 H 1789 -0.450498 1.47682 0
M  V30 18828 H 1790.96 -3.50022 2.14464 0
M  V30 18829 H 1789.62 -2.93328 1.12328 0
M  V30 18830 H 1788.81 -3.75999 3.3562 0
M  V30 18831 H 1788.42 -2.04047 3.13434 0
M  V30 18832 H 1790.71 -4.66784 4.91039 0
M  V30 18833 H 1791.65 -3.66535 6.05853 0
M  V30 18834 H 1792.06 -3.63696 4.31724 0
M  V30 18835 N 1791.46 -1.48941 -0.515198 0
M  V30 18836 C 1792.71 -1.57398 -1.26768 0
M  V30 18837 C 1793.03 -0.256213 -1.93309 0
M  V30 18838 O 1792.3 0.723408 -1.82054 0
M  V30 18839 H 1790.88 -0.579895 -0.470883 0
M  V30 18840 H 1793.54 -1.85489 -0.598315 0
M  V30 18841 H 1792.63 -2.36272 -2.03916 0
M  V30 18842 N 1792.94 0.765193 -1.37777 0
M  V30 18843 C 1793.87 1.89247 -1.36777 0
M  V30 18844 C 1794.85 1.68463 -0.235389 0
M  V30 18845 O 1796.03 1.89225 -0.436733 0
M  V30 18846 C 1793.16 3.2662 -1.18053 0
M  V30 18847 C 1792.12 3.61981 -2.28372 0
M  V30 18848 C 1791.44 4.97967 -1.94765 0
M  V30 18849 C 1792.74 3.68053 -3.70587 0
M  V30 18850 H 1794.44 1.90341 -2.31108 0
M  V30 18851 H 1791.98 0.914355 -1.11245 0
M  V30 18852 H 1793.93 4.05125 -1.15982 0
M  V30 18853 H 1792.66 3.25976 -0.201803 0
M  V30 18854 H 1791.32 2.85788 -2.2961 0
M  V30 18855 H 1790.97 4.93869 -0.954052 0
M  V30 18856 H 1790.67 5.22594 -2.68642 0
M  V30 18857 H 1792.19 5.78864 -1.94292 0
M  V30 18858 H 1793.6 4.36696 -3.71443 0
M  V30 18859 H 1792 4.04183 -4.43572 0
M  V30 18860 H 1793.07 2.68556 -4.03739 0
M  V30 18861 N 1794.41 1.22455 0.992094 0
M  V30 18862 C 1795.64 1.07438 1.76467 0
M  V30 18863 C 1796.05 -0.37795 1.85387 0
M  V30 18864 O 1795.39 -1.27367 1.32376 0
M  V30 18865 C 1795.46 1.61171 3.21347 0
M  V30 18866 C 1795.12 3.09794 3.35971 0
M  V30 18867 C 1796.12 4.07214 3.23222 0
M  V30 18868 C 1793.8 3.49266 3.60996 0
M  V30 18869 C 1795.8 5.42092 3.35284 0
M  V30 18870 C 1793.48 4.84292 3.72699 0
M  V30 18871 C 1794.48 5.80514 3.59851 0
M  V30 18872 O 1794.17 7.13088 3.71161 0
M  V30 18873 H 1793.9 0.377158 0.561006 0
M  V30 18874 H 1796.46 1.62527 1.25595 0
M  V30 18875 H 1794.69 1.00491 3.73415 0
M  V30 18876 H 1796.37 1.41804 3.80324 0
M  V30 18877 H 1797.14 3.78063 3.03798 0
M  V30 18878 H 1793.02 2.74895 3.70073 0
M  V30 18879 H 1796.56 6.17178 3.25172 0
M  V30 18880 H 1792.46 5.13124 3.91629 0
M  V30 18881 H 1793.23 7.20677 3.88029 0
M  V30 18882 N 1795.89 -1.18905 1.03437 0
M  V30 18883 C 1797.12 -1.92678 0.753853 0
M  V30 18884 C 1797.53 -1.75814 -0.688111 0
M  V30 18885 O 1796.89 -1.08363 -1.46846 0
M  V30 18886 C 1796.94 -3.44275 1.10258 0
M  V30 18887 O 1796.66 -3.60602 2.48793 0
M  V30 18888 C 1798.16 -4.35159 0.84566 0
M  V30 18889 H 1795.38 -0.611875 0.275408 0
M  V30 18890 H 1797.93 -1.50887 1.38034 0
M  V30 18891 H 1796.08 -3.83878 0.521177 0
M  V30 18892 H 1796.5 -4.54403 2.61951 0
M  V30 18893 H 1797.97 -5.40109 1.13958 0
M  V30 18894 H 1798.45 -4.3865 -0.219767 0
M  V30 18895 H 1799.05 -4.01245 1.41006 0
M  V30 18896 N 1797.37 -0.812977 -1.35013 0
M  V30 18897 C 1798.62 -0.392801 -1.97838 0
M  V30 18898 C 1798.93 1.04728 -1.65201 0
M  V30 18899 O 1800.14 1.57088 -2.2144 0
M  V30 18900 C 1798.59 -0.651399 -3.53956 0
M  V30 18901 C 1798.2 -2.10444 -3.95496 0
M  V30 18902 C 1799.95 -0.296897 -4.2346 0
M  V30 18903 C 1797.85 -2.30845 -5.44485 0
M  V30 18904 H 1796.78 -0.143138 -0.740289 0
M  V30 18905 H 1799.43 -0.997933 -1.53992 0
M  V30 18906 H 1797.82 0.0237698 -3.95993 0
M  V30 18907 H 1798.99 -2.81795 -3.64593 0
M  V30 18908 H 1797.3 -2.41942 -3.389 0
M  V30 18909 H 1799.9 -0.427291 -5.3299 0
M  V30 18910 H 1800.24 0.757594 -4.09349 0
M  V30 18911 H 1800.78 -0.92624 -3.86866 0
M  V30 18912 H 1797.52 -3.34763 -5.63572 0
M  V30 18913 H 1797.04 -1.64027 -5.76936 0
M  V30 18914 H 1798.72 -2.12712 -6.11034 0
M  V30 18915 N 1798.85 1.47045 -0.567045 0
M  V30 18916 C 1799.76 2.33924 0.177998 0
M  V30 18917 C 1800.77 1.48797 0.901967 0
M  V30 18918 O 1801.95 1.81704 0.868662 0
M  V30 18919 C 1799.01 3.25687 1.18865 0
M  V30 18920 C 1798.08 4.26708 0.471049 0
M  V30 18921 C 1797.31 5.14087 1.43355 0
M  V30 18922 O 1797.53 5.041 2.66907 0
M  V30 18923 O 1796.47 5.94313 0.952674 0
M  V30 18924 H 1800.29 2.98952 -0.534907 0
M  V30 18925 H 1797.88 1.45765 -0.327571 0
M  V30 18926 H 1799.76 3.82342 1.7718 0
M  V30 18927 H 1798.43 2.63274 1.8833 0
M  V30 18928 H 1797.34 3.73785 -0.153539 0
M  V30 18929 H 1798.67 4.91862 -0.182337 0
M  V30 18930 N 1800.33 0.304 1.5464 0
M  V30 18931 C 1801.24 -0.580159 2.27313 0
M  V30 18932 C 1802.25 -1.14588 1.30941 0
M  V30 18933 O 1803.43 -1.17002 1.63928 0
M  V30 18934 C 1800.49 -1.73437 3.00201 0
M  V30 18935 C 1799.55 -1.20243 4.12116 0
M  V30 18936 C 1798.79 -2.30164 4.81519 0
M  V30 18937 O 1799.01 -3.50123 4.503 0
M  V30 18938 O 1797.94 -1.96686 5.68857 0
M  V30 18939 H 1801.77 0.00944552 3.03699 0
M  V30 18940 H 1799.35 0.0703565 1.49234 0
M  V30 18941 H 1801.24 -2.40677 3.45908 0
M  V30 18942 H 1799.91 -2.31053 2.26708 0
M  V30 18943 H 1798.82 -0.495679 3.70802 0
M  V30 18944 H 1800.15 -0.67167 4.87596 0
M  V30 18945 N 1801.8 -1.57568 0.0317802 0
M  V30 18946 C 1802.73 -2.13412 -0.947499 0
M  V30 18947 C 1803.71 -1.05091 -1.33753 0
M  V30 18948 O 1804.9 -1.32936 -1.41568 0
M  V30 18949 C 1802.03 -2.66337 -2.22895 0
M  V30 18950 C 1800.98 -3.79469 -1.97958 0
M  V30 18951 C 1800.31 -4.18833 -3.3239 0
M  V30 18952 C 1801.61 -5.05432 -1.31664 0
M  V30 18953 H 1803.3 -2.95488 -0.482417 0
M  V30 18954 H 1800.85 -1.42142 -0.230603 0
M  V30 18955 H 1802.8 -3.04039 -2.91784 0
M  V30 18956 H 1801.53 -1.81426 -2.71574 0
M  V30 18957 H 1800.19 -3.42209 -1.31485 0
M  V30 18958 H 1799.83 -3.30899 -3.78833 0
M  V30 18959 H 1799.53 -4.95071 -3.16511 0
M  V30 18960 H 1801.06 -4.5912 -4.02544 0
M  V30 18961 H 1802.47 -5.40704 -1.90558 0
M  V30 18962 H 1800.87 -5.86686 -1.26173 0
M  V30 18963 H 1801.94 -4.84032 -0.28996 0
M  V30 18964 N 1803.28 0.241399 -1.5574 0
M  V30 18965 C 1804.23 1.31868 -1.91608 0
M  V30 18966 C 1805.22 1.49545 -0.795774 0
M  V30 18967 O 1806.43 1.50955 -0.980442 0
M  V30 18968 H 1802.81 0.441685 -0.60862 0
M  V30 18969 H 1804.78 0.98887 -2.81538 0
M  V30 18970 C 1803.53 2.66602 -2.23201 0
M  V30 18971 H 1802.85 2.53802 -3.08909 0
M  V30 18972 H 1804.29 3.40842 -2.52196 0
M  V30 18973 C 1802.75 3.20112 -1.05024 0
M  V30 18974 O 1803.28 4.0057 -0.301069 0
M  V30 18975 N 1801.48 2.78214 -0.839381 0
M  V30 18976 H 1801.03 2.12894 -1.4503 0
M  V30 18977 H 1800.99 3.1436 -0.050362 0
M  V30 18978 N 1804.76 1.49212 0.507292 0
M  V30 18979 C 1805.99 1.61845 1.28412 0
M  V30 18980 C 1806.4 0.286619 1.87016 0
M  V30 18981 O 1805.74 -0.737169 1.6826 0
M  V30 18982 C 1805.8 2.62374 2.45764 0
M  V30 18983 C 1805.47 4.06882 2.08077 0
M  V30 18984 C 1806.46 4.93879 1.62418 0
M  V30 18985 C 1804.15 4.52574 2.17904 0
M  V30 18986 C 1806.14 6.24603 1.27082 0
M  V30 18987 C 1803.83 5.83313 1.8218 0
M  V30 18988 C 1804.83 6.69151 1.36843 0
M  V30 18989 O 1804.52 7.97454 1.01598 0
M  V30 18990 H 1804.25 0.547926 0.395921 0
M  V30 18991 H 1806.8 1.95937 0.616255 0
M  V30 18992 H 1805.03 2.23449 3.15606 0
M  V30 18993 H 1806.72 2.64603 3.07799 0
M  V30 18994 H 1807.49 4.59808 1.54277 0
M  V30 18995 H 1803.37 3.85932 2.52146 0
M  V30 18996 H 1806.91 6.91557 0.91623 0
M  V30 18997 H 1802.81 6.16913 1.89969 0
M  V30 18998 H 1803.58 8.10409 1.148 0
M  V30 18999 N 1806.24 -0.757876 1.38181 0
M  V30 19000 C 1807.46 -1.55221 1.37555 0
M  V30 19001 C 1807.89 -1.8807 -0.0336083 0
M  V30 19002 O 1807.25 -1.50258 -1.0145 0
M  V30 19003 C 1807.29 -2.83064 2.23399 0
M  V30 19004 O 1806.4 -3.78034 1.64814 0
M  V30 19005 H 1805.74 -0.469644 0.469394 0
M  V30 19006 H 1808.27 -0.936923 1.81887 0
M  V30 19007 H 1808.28 -3.32031 2.37106 0
M  V30 19008 H 1806.95 -2.58485 3.2582 0
M  V30 19009 H 1805.53 -3.36723 1.60225 0
M  V30 19010 N 1807.72 -1.22979 -0.985586 0
M  V30 19011 C 1809.13 -1.05448 -1.5407 0
M  V30 19012 C 1809.48 0.379808 -1.92489 0
M  V30 19013 O 1808.6 1.26582 -1.75516 0
M  V30 19014 C 1809.2 -1.90794 -2.7997 0
M  V30 19015 C 1807.76 -1.77538 -3.31899 0
M  V30 19016 C 1806.9 -1.86814 -2.04929 0
M  V30 19017 H 1809.86 -1.36718 -0.80585 0
M  V30 19018 H 1809.88 -1.42967 -3.5262 0
M  V30 19019 H 1809.39 -2.95177 -2.51977 0
M  V30 19020 H 1807.49 -0.759177 -3.64784 0
M  V30 19021 H 1807.6 -2.60627 -4.02008 0
M  V30 19022 H 1805.97 -1.30336 -2.18826 0
M  V30 19023 H 1806.75 -2.92742 -1.79324 0
M  V30 19024 N 1809.19 1.18355 -1.04066 0
M  V30 19025 C 1810.13 2.21482 -0.58977 0
M  V30 19026 C 1811.14 1.59198 0.340576 0
M  V30 19027 O 1812.33 1.77988 0.135094 0
M  V30 19028 C 1809.43 3.3853 0.158397 0
M  V30 19029 C 1808.6 4.30392 -0.779824 0
M  V30 19030 C 1807.66 5.26147 -0.0749517 0
M  V30 19031 O 1806.69 5.64812 -0.705381 0
M  V30 19032 N 1807.89 5.68137 1.19168 0
M  V30 19033 H 1810.65 2.60791 -1.47676 0
M  V30 19034 H 1808.21 1.33141 -0.921151 0
M  V30 19035 H 1810.21 3.99611 0.639788 0
M  V30 19036 H 1808.78 2.97913 0.946929 0
M  V30 19037 H 1808 3.66915 -1.44107 0
M  V30 19038 H 1809.28 4.88668 -1.41707 0
M  V30 19039 H 1808.68 5.38777 1.7244 0
M  V30 19040 H 1807.24 6.31415 1.61735 0
M  V30 19041 N 1810.67 0.820125 1.3458 0
M  V30 19042 C 1811.92 0.406067 1.97979 0
M  V30 19043 C 1812.24 -1.03366 1.65349 0
M  V30 19044 O 1811.51 -1.71721 0.942798 0
M  V30 19045 H 1810.09 0.147162 0.732361 0
M  V30 19046 H 1812.75 1.04895 1.64265 0
M  V30 19047 H 1811.85 0.52279 3.0769 0
M  V30 19048 N 1812.15 -1.46743 0.574835 0
M  V30 19049 C 1813.4 -2.01625 0.0551724 0
M  V30 19050 C 1813.71 -1.4528 -1.3097 0
M  V30 19051 O 1814.92 -1.91932 -1.92026 0
M  V30 19052 C 1813.37 -3.59868 0.0480708 0
M  V30 19053 C 1812.98 -4.25207 1.41078 0
M  V30 19054 C 1814.73 -4.22436 -0.41806 0
M  V30 19055 C 1812.63 -5.75507 1.36183 0
M  V30 19056 H 1811.56 -0.753812 0.0168558 0
M  V30 19057 H 1814.21 -1.68557 0.725313 0
M  V30 19058 H 1812.6 -3.89976 -0.688076 0
M  V30 19059 H 1813.77 -4.06718 2.16603 0
M  V30 19060 H 1812.09 -3.747 1.81628 0
M  V30 19061 H 1814.68 -5.32601 -0.473353 0
M  V30 19062 H 1815.03 -3.90826 -1.43391 0
M  V30 19063 H 1815.56 -3.96925 0.263775 0
M  V30 19064 H 1812.3 -6.11765 2.35423 0
M  V30 19065 H 1811.82 -5.96282 0.648655 0
M  V30 19066 H 1813.5 -6.38068 1.07137 0
M  V30 19067 N 1813.63 -0.312197 -1.54477 0
M  V30 19068 C 1814.56 0.551829 -2.26886 0
M  V30 19069 C 1815.54 1.12874 -1.27254 0
M  V30 19070 O 1816.72 1.15599 -1.56046 0
M  V30 19071 C 1813.85 1.71839 -3.01809 0
M  V30 19072 C 1812.81 1.27131 -4.08683 0
M  V30 19073 C 1812.13 2.52392 -4.71384 0
M  V30 19074 C 1813.43 0.394413 -5.20809 0
M  V30 19075 H 1815.13 -0.0521331 -2.99355 0
M  V30 19076 H 1812.67 -0.0265138 -1.43976 0
M  V30 19077 H 1814.63 2.32903 -3.5119 0
M  V30 19078 H 1813.35 2.34876 -2.26938 0
M  V30 19079 H 1812.01 0.683666 -3.60169 0
M  V30 19080 H 1811.66 3.13768 -3.93139 0
M  V30 19081 H 1811.36 2.23174 -5.43569 0
M  V30 19082 H 1812.88 3.14239 -5.23533 0
M  V30 19083 H 1814.3 0.911031 -5.66015 0
M  V30 19084 H 1812.69 0.195517 -5.99781 0
M  V30 19085 H 1813.76 -0.577661 -4.81447 0
M  V30 19086 N 1815.11 1.57549 -0.040136 0
M  V30 19087 C 1816.06 2.07384 0.947418 0
M  V30 19088 C 1817.04 0.976645 1.27869 0
M  V30 19089 O 1818.23 1.2401 1.26296 0
M  V30 19090 C 1815.36 2.61343 2.22609 0
M  V30 19091 C 1814.45 3.78012 1.9227 0
M  V30 19092 N 1814.84 4.88206 1.32244 0
M  V30 19093 C 1813.14 3.86708 2.22201 0
M  V30 19094 C 1813.84 5.69338 1.19286 0
M  V30 19095 N 1812.81 5.16595 1.69207 0
M  V30 19096 H 1816.62 2.89979 0.478476 0
M  V30 19097 H 1814.13 1.61564 0.164602 0
M  V30 19098 H 1816.13 2.95343 2.94242 0
M  V30 19099 H 1814.79 1.80182 2.70119 0
M  V30 19100 H 1815.8 5.08232 0.996048 0
M  V30 19101 H 1812.47 3.16472 2.72308 0
M  V30 19102 H 1813.86 6.67947 0.727784 0
M  V30 19103 N 1816.58 -0.233136 1.55866 0
M  V30 19104 C 1817.81 -0.976415 1.82411 0
M  V30 19105 C 1818.23 -1.78409 0.617724 0
M  V30 19106 O 1817.58 -1.77749 -0.413709 0
M  V30 19107 C 1817.64 -1.90328 3.07339 0
M  V30 19108 O 1817.36 -1.12828 4.23322 0
M  V30 19109 C 1818.86 -2.76142 3.46786 0
M  V30 19110 H 1816.08 -0.2867 0.606666 0
M  V30 19111 H 1818.62 -0.251863 2.02943 0
M  V30 19112 H 1816.78 -2.58193 2.88816 0
M  V30 19113 H 1817.19 -1.75643 4.94216 0
M  V30 19114 H 1818.66 -3.36901 4.37266 0
M  V30 19115 H 1819.14 -3.47953 2.68003 0
M  V30 19116 H 1819.75 -2.13708 3.67708 0
M  V30 19117 N 1818.06 -1.49479 -0.499372 0
M  V30 19118 C 1819.48 -1.36278 -0.830692 0
M  V30 19119 C 1819.68 -0.397116 -1.97548 0
M  V30 19120 O 1818.74 0.170614 -2.51923 0
M  V30 19121 C 1820.05 -2.77031 -1.16937 0
M  V30 19122 C 1821.6 -2.85744 -1.27748 0
M  V30 19123 C 1822.07 -4.27267 -1.64944 0
M  V30 19124 N 1823.56 -4.30086 -1.7199 0
M  V30 19125 C 1824.3 -5.36559 -2.02218 0
M  V30 19126 N 1823.79 -6.53275 -2.30659 0
M  V30 19127 N 1825.59 -5.23976 -2.03483 0
M  V30 19128 H 1817.74 -2.10858 0.255497 0
M  V30 19129 H 1820 -0.946588 0.0517184 0
M  V30 19130 H 1819.71 -3.494 -0.401529 0
M  V30 19131 H 1819.58 -3.12501 -2.11242 0
M  V30 19132 H 1821.97 -2.13611 -2.03604 0
M  V30 19133 H 1822.05 -2.53854 -0.314901 0
M  V30 19134 H 1821.69 -4.99927 -0.896384 0
M  V30 19135 H 1821.62 -4.56622 -2.62305 0
M  V30 19136 H 1824.11 -3.45911 -1.52164 0
M  V30 19137 H 1824.43 -7.30241 -2.52918 0
M  V30 19138 H 1822.77 -6.56498 -2.28112 0
M  V30 19139 H 1825.96 -4.31799 -1.80741 0
M  V30 19140 H 1826.14 -6.07049 -2.26707 0
M  V30 19141 N 1819.54 0.750537 -1.38581 0
M  V30 19142 C 1820.79 1.50676 -1.34689 0
M  V30 19143 C 1821.11 1.94903 0.0615414 0
M  V30 19144 O 1820.38 1.67867 1.00982 0
M  V30 19145 H 1818.96 0.558914 -0.495605 0
M  V30 19146 H 1821.62 0.891979 -1.73291 0
M  V30 19147 H 1820.72 2.39623 -1.99969 0
M  V30 19148 N 1821.02 1.235 0.979051 0
M  V30 19149 C 1822.43 1.06263 1.53509 0
M  V30 19150 C 1822.78 -0.369594 1.92687 0
M  V30 19151 O 1821.91 -1.25649 1.76185 0
M  V30 19152 C 1822.5 1.92276 2.78954 0
M  V30 19153 C 1821.06 1.79296 3.30953 0
M  V30 19154 C 1820.21 1.87898 2.03935 0
M  V30 19155 H 1823.16 1.37143 0.798588 0
M  V30 19156 H 1823.18 1.44835 3.51857 0
M  V30 19157 H 1822.69 2.96509 2.50408 0
M  V30 19158 H 1820.79 0.778512 3.64376 0
M  V30 19159 H 1820.91 2.62755 4.0062 0
M  V30 19160 H 1819.27 1.31494 2.18131 0
M  V30 19161 H 1820.05 2.93689 1.77769 0
M  V30 19162 N 1822.5 -1.17802 1.04693 0
M  V30 19163 C 1823.77 -1.83839 0.668039 0
M  V30 19164 C 1824.15 -1.93143 -0.852008 0
M  V30 19165 O 1823.5 -1.46213 -1.75596 0
M  V30 19166 C 1823.71 -3.21783 1.35118 0
M  V30 19167 C 1825.06 -3.97747 1.48601 0
M  V30 19168 O 1826.08 -3.31244 1.30979 0
M  V30 19169 O 1824.94 -5.16915 1.77373 0
M  V30 19170 H 1822.04 -0.793045 0.234538 0
M  V30 19171 H 1824.58 -1.25141 1.1462 0
M  V30 19172 H 1823.36 -3.0995 2.38844 0
M  V30 19173 H 1822.98 -3.88142 0.862045 0
M  V30 19174 N 1823.98 -0.827251 -1.34143 0
M  V30 19175 C 1824.91 -0.209663 -2.28239 0
M  V30 19176 C 1825.92 0.602945 -1.51223 0
M  V30 19177 O 1827.11 0.431917 -1.73196 0
M  V30 19178 C 1824.21 0.724345 -3.31069 0
M  V30 19179 C 1823.38 -0.0463812 -4.37375 0
M  V30 19180 C 1822.44 0.809208 -5.19941 0
M  V30 19181 O 1821.47 0.252619 -5.68639 0
M  V30 19182 N 1822.67 2.12835 -5.40075 0
M  V30 19183 H 1825.43 -1.0181 -2.81877 0
M  V30 19184 H 1823 -0.684618 -1.46713 0
M  V30 19185 H 1824.99 1.30143 -3.83204 0
M  V30 19186 H 1823.56 1.43352 -2.77793 0
M  V30 19187 H 1822.78 -0.804793 -3.85897 0
M  V30 19188 H 1824.07 -0.576775 -5.0552 0
M  V30 19189 H 1823.46 2.60423 -5.02191 0
M  V30 19190 H 1822.02 2.65419 -5.95312 0
M  V30 19191 N 1825.45 1.46436 -0.582609 0
M  V30 19192 C 1826.68 2.06469 -0.0736587 0
M  V30 19193 C 1827.09 1.43193 1.23662 0
M  V30 19194 O 1826.43 0.531376 1.75847 0
M  V30 19195 C 1826.5 3.59114 0.166531 0
M  V30 19196 C 1826.16 4.44581 -1.05814 0
M  V30 19197 C 1827.16 4.81125 -1.97016 0
M  V30 19198 C 1824.84 4.85718 -1.27996 0
M  V30 19199 C 1826.84 5.57632 -3.08747 0
M  V30 19200 C 1824.52 5.61986 -2.40032 0
M  V30 19201 C 1825.52 5.97856 -3.30237 0
M  V30 19202 O 1825.21 6.72582 -4.40328 0
M  V30 19203 H 1824.94 0.673802 -0.0544673 0
M  V30 19204 H 1827.5 1.89053 -0.803005 0
M  V30 19205 H 1825.73 3.74837 0.950489 0
M  V30 19206 H 1827.41 4.01075 0.62398 0
M  V30 19207 H 1828.18 4.49922 -1.81094 0
M  V30 19208 H 1824.06 4.57249 -0.586917 0
M  V30 19209 H 1827.6 5.85549 -3.7918 0
M  V30 19210 H 1823.5 5.92602 -2.55917 0
M  V30 19211 H 1824.27 6.91006 -4.38694 0
M  V30 19212 N 1826.93 0.320385 1.54309 0
M  V30 19213 C 1827.88 -0.547011 2.24224 0
M  V30 19214 C 1828.85 -1.11419 1.23187 0
M  V30 19215 O 1830.03 -1.15513 1.5186 0
M  V30 19216 C 1827.17 -1.70359 3.0012 0
M  V30 19217 C 1826.29 -1.16594 4.15968 0
M  V30 19218 C 1825.42 -2.28795 4.79402 0
M  V30 19219 C 1824.46 -1.72263 5.8736 0
M  V30 19220 N 1823.6 -2.78113 6.44668 0
M  V30 19221 H 1828.44 0.0557725 2.97948 0
M  V30 19222 H 1825.97 0.0392956 1.47048 0
M  V30 19223 H 1827.93 -2.38413 3.42367 0
M  V30 19224 H 1826.56 -2.27771 2.28736 0
M  V30 19225 H 1825.61 -0.377054 3.78527 0
M  V30 19226 H 1826.93 -0.712254 4.93689 0
M  V30 19227 H 1826.08 -3.04759 5.24601 0
M  V30 19228 H 1824.82 -2.77499 4.01056 0
M  V30 19229 H 1823.82 -0.947951 5.41566 0
M  V30 19230 H 1825.05 -1.2444 6.67601 0
M  V30 19231 H 1823 -3.26115 5.69197 0
M  V30 19232 H 1822.91 -2.37298 7.17792 0
M  V30 19233 H 1824.18 -3.53916 6.94524 0
M  V30 19234 N 1828.41 -1.57525 0.0484906 0
M  V30 19235 C 1829.66 -1.91761 -0.625335 0
M  V30 19236 C 1829.97 -0.928421 -1.72162 0
M  V30 19237 O 1831.18 -1.16273 -2.45342 0
M  V30 19238 C 1829.63 -3.40571 -1.1636 0
M  V30 19239 C 1829.24 -4.47889 -0.0995687 0
M  V30 19240 C 1830.99 -3.83845 -1.81282 0
M  V30 19241 C 1828.89 -5.87811 -0.650563 0
M  V30 19242 H 1827.82 -0.71567 -0.237346 0
M  V30 19243 H 1830.47 -1.83127 0.116944 0
M  V30 19244 H 1828.86 -3.44201 -1.95811 0
M  V30 19245 H 1830.03 -4.55846 0.673904 0
M  V30 19246 H 1828.34 -4.13939 0.452038 0
M  V30 19247 H 1830.94 -4.8575 -2.23497 0
M  V30 19248 H 1831.28 -3.19947 -2.66345 0
M  V30 19249 H 1831.82 -3.8272 -1.08491 0
M  V30 19250 H 1828.56 -6.55299 0.162371 0
M  V30 19251 H 1828.08 -5.83422 -1.39208 0
M  V30 19252 H 1829.76 -6.36979 -1.1343 0
M  V30 19253 N 1829.89 0.224867 -1.55988 0
M  V30 19254 C 1831.3 0.792138 -1.69062 0
M  V30 19255 C 1831.65 1.85123 -0.649908 0
M  V30 19256 O 1830.77 2.15477 0.199614 0
M  V30 19257 C 1831.37 1.44361 -3.06505 0
M  V30 19258 C 1829.93 1.95831 -3.21446 0
M  V30 19259 C 1829.08 0.81728 -2.64983 0
M  V30 19260 H 1832.03 0.000270833 -1.587 0
M  V30 19261 H 1832.05 2.31233 -3.02178 0
M  V30 19262 H 1831.56 0.672544 -3.82228 0
M  V30 19263 H 1829.66 2.75749 -2.50586 0
M  V30 19264 H 1829.77 2.14056 -4.28622 0
M  V30 19265 H 1828.14 1.22371 -2.23377 0
M  V30 19266 H 1828.92 0.058944 -3.43249 0
M  V30 19267 N 1831.37 1.49742 0.491438 0
M  V30 19268 C 1832.33 1.66587 1.57421 0
M  V30 19269 C 1833.33 0.537281 1.51558 0
M  V30 19270 O 1834.52 0.803928 1.5454 0
M  V30 19271 C 1831.65 1.67217 2.97071 0
M  V30 19272 H 1832.84 2.63171 1.4381 0
M  V30 19273 H 1830.4 1.38917 0.716368 0
M  V30 19274 H 1831.13 0.722529 3.16149 0
M  V30 19275 H 1830.92 2.49187 3.02734 0
M  V30 19276 H 1832.41 1.82274 3.75721 0
M  V30 19277 N 1832.84 -0.743177 1.38977 0
M  V30 19278 C 1834.09 -1.49798 1.35069 0
M  V30 19279 C 1834.41 -1.95527 -0.0533172 0
M  V30 19280 O 1835.61 -2.70648 -0.21497 0
M  V30 19281 C 1834.07 -2.70637 2.37242 0
M  V30 19282 C 1833.68 -2.3189 3.83316 0
M  V30 19283 C 1835.42 -3.4849 2.42395 0
M  V30 19284 C 1833.33 -3.49403 4.77149 0
M  V30 19285 H 1832.26 -0.562495 0.50211 0
M  V30 19286 H 1834.91 -0.81145 1.64584 0
M  V30 19287 H 1833.29 -3.41323 2.00785 0
M  V30 19288 H 1834.46 -1.68803 4.28768 0
M  V30 19289 H 1832.78 -1.67148 3.8138 0
M  V30 19290 H 1835.38 -4.35882 3.09694 0
M  V30 19291 H 1835.72 -3.9038 1.446 0
M  V30 19292 H 1836.25 -2.84825 2.77704 0
M  V30 19293 H 1832.99 -3.1257 5.76177 0
M  V30 19294 H 1832.51 -4.11498 4.36382 0
M  V30 19295 H 1834.19 -4.15847 4.95661 0
M  V30 19296 N 1834.32 -1.24018 -0.972487 0
M  V30 19297 C 1835.56 -1.08885 -1.72984 0
M  V30 19298 C 1835.93 0.366766 -1.88464 0
M  V30 19299 O 1837.13 0.639481 -2.61083 0
M  V30 19300 C 1835.4 -1.80306 -3.08585 0
M  V30 19301 S 1836.96 -1.80844 -3.99801 0
M  V30 19302 H 1833.78 -0.389523 -0.594805 0
M  V30 19303 H 1836.38 -1.57275 -1.16124 0
M  V30 19304 H 1835.08 -2.85339 -2.94975 0
M  V30 19305 H 1834.61 -1.3223 -3.70512 0
M  V30 19306 H 1836.63 -0.872692 -4.88465 0
M  V30 19307 N 1835.8 1.17245 -1.05316 0
M  V30 19308 C 1837.08 1.83482 -0.677779 0
M  V30 19309 C 1837.46 1.93592 0.841753 0
M  V30 19310 O 1836.81 1.47142 1.74818 0
M  V30 19311 C 1837.02 3.21062 -1.36823 0
M  V30 19312 C 1838.36 3.96954 -1.50708 0
M  V30 19313 O 1839.39 3.30545 -1.32734 0
M  V30 19314 O 1838.25 5.15967 -1.80111 0
M  V30 19315 H 1835.34 0.79179 -0.238741 0
M  V30 19316 H 1837.89 1.24531 -1.15283 0
M  V30 19317 H 1836.66 3.08679 -2.40484 0
M  V30 19318 H 1836.28 3.8768 -0.882617 0
M  V30 19319 N 1837.28 0.834353 1.33702 0
M  V30 19320 C 1838.21 0.209437 2.27237 0
M  V30 19321 C 1839.19 -0.640813 1.4944 0
M  V30 19322 O 1840.37 -0.602063 1.78627 0
M  V30 19323 C 1837.5 -0.706361 3.31253 0
M  V30 19324 C 1836.55 0.0678418 4.26446 0
M  V30 19325 S 1837.38 1.42271 5.16255 0
M  V30 19326 C 1838.54 0.512085 6.23802 0
M  V30 19327 H 1838.77 1.0024 2.79891 0
M  V30 19328 H 1836.3 0.630861 1.40924 0
M  V30 19329 H 1838.26 -1.22915 3.91666 0
M  V30 19330 H 1836.92 -1.47295 2.77422 0
M  V30 19331 H 1836.11 -0.628824 5.00062 0
M  V30 19332 H 1835.72 0.521548 3.70346 0
M  V30 19333 H 1838.01 -0.291863 6.76871 0
M  V30 19334 H 1838.95 1.21826 6.97541 0
M  V30 19335 H 1839.36 0.0954372 5.64419 0
M  V30 19336 N 1838.76 -1.46125 0.590367 0
M  V30 19337 C 1840.17 -1.85962 0.165876 0
M  V30 19338 C 1840.52 -1.49296 -1.27299 0
M  V30 19339 O 1839.64 -0.911461 -1.96269 0
M  V30 19340 C 1840.24 -3.3752 0.294262 0
M  V30 19341 C 1838.8 -3.76324 -0.0754118 0
M  V30 19342 C 1837.94 -2.70126 0.626682 0
M  V30 19343 H 1840.9 -1.3717 0.79812 0
M  V30 19344 H 1840.92 -3.77482 -0.4783 0
M  V30 19345 H 1840.43 -3.64175 1.34159 0
M  V30 19346 H 1838.53 -3.55287 -1.12258 0
M  V30 19347 H 1838.64 -4.7812 0.306241 0
M  V30 19348 H 1837.01 -2.54614 0.0661219 0
M  V30 19349 H 1837.79 -2.99619 1.6758 0
M  V30 19350 N 1840.23 -0.328564 -1.54137 0
M  V30 19351 C 1841.46 0.274326 -2.05073 0
M  V30 19352 C 1841.88 1.45393 -1.20442 0
M  V30 19353 O 1841.23 1.80964 -0.23625 0
M  V30 19354 C 1841.29 0.703941 -3.5458 0
M  V30 19355 O 1841.01 -0.428738 -4.35997 0
M  V30 19356 C 1842.51 1.36912 -4.21628 0
M  V30 19357 H 1839.73 0.0556157 -0.668691 0
M  V30 19358 H 1842.27 -0.476204 -1.98878 0
M  V30 19359 H 1840.43 1.40444 -3.61046 0
M  V30 19360 H 1840.84 -0.0892654 -5.24424 0
M  V30 19361 H 1842.31 1.62062 -5.27674 0
M  V30 19362 H 1842.79 2.31799 -3.73049 0
M  V30 19363 H 1843.4 0.711064 -4.19314 0
M  V30 19364 N 1841.71 1.57497 -0.0568439 0
M  V30 19365 C 1842.62 2.1535 0.930668 0
M  V30 19366 C 1843.64 1.11276 1.33767 0
M  V30 19367 O 1844.81 1.43472 1.41343 0
M  V30 19368 C 1841.88 2.69165 2.18521 0
M  V30 19369 C 1840.94 3.88057 1.83603 0
M  V30 19370 C 1840.17 4.39296 3.03076 0
M  V30 19371 O 1840.4 3.89588 4.16627 0
M  V30 19372 O 1839.33 5.30814 2.8376 0
M  V30 19373 H 1843.16 3.00063 0.468623 0
M  V30 19374 H 1840.74 1.48482 0.16538 0
M  V30 19375 H 1842.62 3.03721 2.92116 0
M  V30 19376 H 1841.3 1.8752 2.63852 0
M  V30 19377 H 1840.21 3.5838 1.07306 0
M  V30 19378 H 1841.54 4.70949 1.43066 0
M  V30 19379 N 1843.19 -0.216591 1.56105 0
M  V30 19380 C 1844.12 -1.27155 1.95841 0
M  V30 19381 C 1845.1 -1.48626 0.827313 0
M  V30 19382 O 1846.29 -1.60725 1.09 0
M  V30 19383 C 1843.42 -2.62032 2.27939 0
M  V30 19384 C 1842.37 -2.55211 3.43586 0
M  V30 19385 C 1841.7 -3.94163 3.61303 0
M  V30 19386 C 1843 -2.09566 4.78413 0
M  V30 19387 H 1844.69 -0.941435 2.84214 0
M  V30 19388 H 1842.24 -0.451427 1.36741 0
M  V30 19389 H 1844.19 -3.35997 2.5433 0
M  V30 19390 H 1842.91 -2.96742 1.36426 0
M  V30 19391 H 1841.57 -1.83703 3.17252 0
M  V30 19392 H 1841.22 -4.26188 2.67156 0
M  V30 19393 H 1840.92 -3.90479 4.3909 0
M  V30 19394 H 1842.44 -4.69782 3.90047 0
M  V30 19395 H 1843.86 -2.73277 5.03977 0
M  V30 19396 H 1842.26 -2.16931 5.59518 0
M  V30 19397 H 1843.33 -1.0481 4.73437 0
M  V30 19398 N 1844.67 -1.5 -0.48349 0
M  V30 19399 C 1845.62 -1.64347 -1.58032 0
M  V30 19400 C 1846.6 -0.498472 -1.52984 0
M  V30 19401 O 1847.79 -0.752287 -1.60217 0
M  V30 19402 C 1844.92 -1.72952 -2.96551 0
M  V30 19403 C 1844.01 -2.93088 -3.06529 0
M  V30 19404 N 1844.4 -4.16937 -2.86352 0
M  V30 19405 C 1842.7 -2.91389 -3.37652 0
M  V30 19406 C 1843.4 -4.97786 -3.00972 0
M  V30 19407 N 1842.38 -4.31494 -3.30626 0
M  V30 19408 H 1846.18 -2.57807 -1.41112 0
M  V30 19409 H 1843.69 -1.47014 -0.689978 0
M  V30 19410 H 1845.69 -1.81332 -3.75399 0
M  V30 19411 H 1844.35 -0.80642 -3.14527 0
M  V30 19412 H 1845.36 -4.46635 -2.62178 0
M  V30 19413 H 1842.04 -2.08528 -3.61694 0
M  V30 19414 H 1843.43 -6.06229 -2.89716 0
M  V30 19415 N 1846.15 0.735796 -1.39369 0
M  V30 19416 C 1847.4 1.49079 -1.35861 0
M  V30 19417 C 1847.71 1.95553 0.0429472 0
M  V30 19418 O 1848.91 2.70758 0.200614 0
M  V30 19419 C 1847.37 2.69375 -2.38674 0
M  V30 19420 C 1846.98 2.29854 -3.8454 0
M  V30 19421 C 1848.72 3.47199 -2.44239 0
M  V30 19422 C 1846.63 3.46868 -4.78996 0
M  V30 19423 H 1845.56 0.559825 -0.505086 0
M  V30 19424 H 1848.21 0.80271 -1.65012 0
M  V30 19425 H 1846.59 3.40253 -2.02592 0
M  V30 19426 H 1847.77 1.66527 -4.29657 0
M  V30 19427 H 1846.08 1.65123 -3.82261 0
M  V30 19428 H 1848.68 4.34234 -3.12002 0
M  V30 19429 H 1849.02 3.89608 -1.46668 0
M  V30 19430 H 1849.55 2.83349 -2.7921 0
M  V30 19431 H 1846.29 3.0951 -5.77827 0
M  V30 19432 H 1845.81 4.09178 -4.38558 0
M  V30 19433 H 1847.49 4.13213 -4.9786 0
M  V30 19434 N 1847.63 1.24532 0.965897 0
M  V30 19435 C 1848.59 1.04026 2.04233 0
M  V30 19436 C 1849.59 -0.00305855 1.608 0
M  V30 19437 O 1850.78 0.238077 1.72565 0
M  V30 19438 C 1847.91 0.577072 3.3598 0
M  V30 19439 H 1849.1 1.99569 2.23858 0
M  V30 19440 H 1846.66 1.0678 1.14139 0
M  V30 19441 H 1847.39 -0.381471 3.22049 0
M  V30 19442 H 1847.18 1.33012 3.6885 0
M  V30 19443 H 1848.67 0.45469 4.15117 0
M  V30 19444 N 1849.1 -1.16685 1.05936 0
M  V30 19445 C 1850.03 -2.23129 0.688153 0
M  V30 19446 C 1851.01 -1.67108 -0.31765 0
M  V30 19447 O 1852.2 -1.93233 -0.193578 0
M  V30 19448 C 1849.33 -3.47229 0.069991 0
M  V30 19449 C 1848.28 -4.16121 1.00137 0
M  V30 19450 C 1847.61 -5.34131 0.246699 0
M  V30 19451 C 1848.91 -4.67508 2.32882 0
M  V30 19452 H 1850.6 -2.54436 1.57806 0
M  V30 19453 H 1848.15 -1.22298 0.76021 0
M  V30 19454 H 1850.1 -4.20918 -0.201545 0
M  V30 19455 H 1848.83 -3.15212 -0.854909 0
M  V30 19456 H 1847.49 -3.44355 1.25759 0
M  V30 19457 H 1847.13 -4.98366 -0.681204 0
M  V30 19458 H 1846.83 -5.81163 0.867373 0
M  V30 19459 H 1848.36 -6.10598 -0.0173762 0
M  V30 19460 H 1849.77 -5.32795 2.11666 0
M  V30 19461 H 1848.17 -5.25147 2.90414 0
M  V30 19462 H 1849.24 -3.83912 2.96209 0
M  V30 19463 N 1850.58 -0.841432 -1.33258 0
M  V30 19464 C 1851.51 -0.291603 -2.31672 0
M  V30 19465 C 1852.49 0.602066 -1.59089 0
M  V30 19466 O 1853.68 0.525081 -1.86967 0
M  V30 19467 C 1850.81 0.532008 -3.43201 0
M  V30 19468 C 1849.76 -0.26609 -4.27172 0
M  V30 19469 C 1849.09 0.681432 -5.3034 0
M  V30 19470 C 1850.39 -1.48457 -5.00757 0
M  V30 19471 H 1852.08 -1.1139 -2.77908 0
M  V30 19472 H 1849.63 -0.53708 -1.33609 0
M  V30 19473 H 1851.58 0.926977 -4.11078 0
M  V30 19474 H 1850.3 1.38754 -2.9566 0
M  V30 19475 H 1848.96 -0.64265 -3.60923 0
M  V30 19476 H 1848.61 1.53344 -4.79056 0
M  V30 19477 H 1848.31 0.151522 -5.87405 0
M  V30 19478 H 1849.84 1.07386 -6.01083 0
M  V30 19479 H 1851.25 -1.16262 -5.61388 0
M  V30 19480 H 1849.65 -1.95145 -5.67484 0
M  V30 19481 H 1850.72 -2.25296 -4.29383 0
M  V30 19482 N 1852.06 1.4581 -0.598108 0
M  V30 19483 C 1853.47 1.85871 -0.175736 0
M  V30 19484 C 1853.82 1.49969 1.26505 0
M  V30 19485 O 1852.95 0.921857 1.95782 0
M  V30 19486 C 1853.54 3.37359 -0.312157 0
M  V30 19487 C 1852.1 3.76359 0.0554534 0
M  V30 19488 C 1851.25 2.6979 -0.640999 0
M  V30 19489 H 1854.2 1.36745 -0.805383 0
M  V30 19490 H 1854.22 3.7773 0.458274 0
M  V30 19491 H 1853.73 3.63458 -1.36088 0
M  V30 19492 H 1851.83 3.55878 1.10372 0
M  V30 19493 H 1851.95 4.77951 -0.331592 0
M  V30 19494 H 1850.31 2.54576 -0.0796238 0
M  V30 19495 H 1851.09 2.98726 -1.69167 0
M  V30 19496 N 1853.54 0.336733 1.53961 0
M  V30 19497 C 1854.95 -0.148599 1.86108 0
M  V30 19498 C 1855.3 -1.50551 1.25812 0
M  V30 19499 O 1854.42 -2.08782 0.569109 0
M  V30 19500 C 1855.02 -0.276413 3.37671 0
M  V30 19501 C 1853.58 -0.705973 3.6972 0
M  V30 19502 C 1852.73 0.164407 2.76812 0
M  V30 19503 H 1855.68 0.556568 1.4862 0
M  V30 19504 H 1855.7 -1.10509 3.64099 0
M  V30 19505 H 1855.21 0.711315 3.81526 0
M  V30 19506 H 1853.31 -1.70297 3.31406 0
M  V30 19507 H 1853.42 -0.500591 4.76478 0
M  V30 19508 H 1851.79 -0.362166 2.52112 0
M  V30 19509 H 1852.57 1.14914 3.23496 0
M  V30 19510 N 1855.02 -1.57465 0.0651956 0
M  V30 19511 C 1856.24 -1.97975 -0.618099 0
M  V30 19512 C 1856.67 -0.943068 -1.62751 0
M  V30 19513 O 1856.02 0.0921045 -1.81066 0
M  V30 19514 C 1856.07 -3.37533 -1.26902 0
M  V30 19515 O 1855.18 -3.36451 -2.38483 0
M  V30 19516 H 1854.52 -0.644553 -0.159524 0
M  V30 19517 H 1857.05 -2.04136 0.137754 0
M  V30 19518 H 1857.06 -3.74571 -1.61742 0
M  V30 19519 H 1855.73 -4.12518 -0.529334 0
M  V30 19520 H 1854.31 -3.11175 -2.05486 0
M  V30 19521 N 1856.49 0.20831 -1.56217 0
M  V30 19522 C 1857.43 1.28196 -1.89996 0
M  V30 19523 C 1858.44 1.42381 -0.789394 0
M  V30 19524 O 1859.63 1.43043 -1.06776 0
M  V30 19525 C 1856.73 2.65588 -2.10514 0
M  V30 19526 C 1855.9 2.73181 -3.416 0
M  V30 19527 C 1854.96 3.91678 -3.5139 0
M  V30 19528 O 1853.99 3.79397 -4.24319 0
M  V30 19529 N 1855.19 5.06562 -2.83505 0
M  V30 19530 H 1857.95 0.995403 -2.82687 0
M  V30 19531 H 1855.51 0.398294 -1.56924 0
M  V30 19532 H 1857.51 3.43264 -2.14365 0
M  V30 19533 H 1856.08 2.86788 -1.24385 0
M  V30 19534 H 1855.3 1.81881 -3.49733 0
M  V30 19535 H 1856.58 2.75234 -4.27929 0
M  V30 19536 H 1855.98 5.19437 -2.24056 0
M  V30 19537 H 1854.54 5.82232 -2.93 0
M  V30 19538 N 1857.97 1.50255 0.475528 0
M  V30 19539 C 1858.92 1.69315 1.59484 0
M  V30 19540 C 1859.91 0.558996 1.59911 0
M  V30 19541 O 1861.12 0.73937 1.64114 0
M  V30 19542 H 1857.49 0.534338 0.529138 0
M  V30 19543 H 1859.47 2.63217 1.40568 0
M  V30 19544 C 1858.21 1.80042 2.97456 0
M  V30 19545 H 1857.54 2.667 2.97844 0
M  V30 19546 H 1858.98 1.97405 3.75243 0
M  V30 19547 C 1857.44 0.551002 3.32364 0
M  V30 19548 O 1857.97 -0.311853 4.00488 0
M  V30 19549 N 1856.17 0.406343 2.87745 0
M  V30 19550 H 1855.72 1.10953 2.32481 0
M  V30 19551 H 1855.68 -0.428483 3.11467 0
M  V30 19552 N 1859.45 -0.728395 1.39758 0
M  V30 19553 C 1860.67 -1.52268 1.40816 0
M  V30 19554 C 1861.1 -1.88099 0.00629167 0
M  V30 19555 O 1860.46 -1.52376 -0.982402 0
M  V30 19556 C 1860.51 -2.78262 2.29353 0
M  V30 19557 O 1859.61 -3.74453 1.72796 0
M  V30 19558 H 1858.95 -0.459582 0.47925 0
M  V30 19559 H 1861.48 -0.898132 1.83833 0
M  V30 19560 H 1861.49 -3.26927 2.44096 0
M  V30 19561 H 1860.17 -2.51515 3.31229 0
M  V30 19562 H 1858.74 -3.33248 1.67332 0
M  V30 19563 N 1860.93 -1.25042 -0.959279 0
M  V30 19564 C 1861.88 -1.04802 -2.07652 0
M  V30 19565 C 1862.87 0.019648 -1.69389 0
M  V30 19566 O 1864.08 -0.135594 -1.79489 0
M  V30 19567 H 1860.45 -0.321939 -0.679602 0
M  V30 19568 H 1862.42 -1.99527 -2.21882 0
M  V30 19569 C 1861.17 -0.678505 -3.41016 0
M  V30 19570 H 1860.49 -1.49185 -3.70923 0
M  V30 19571 H 1861.93 -0.576549 -4.20062 0
M  V30 19572 C 1860.39 0.615075 -3.31238 0
M  V30 19573 O 1860.92 1.65848 -3.65865 0
M  V30 19574 N 1859.13 0.598958 -2.8436 0
M  V30 19575 H 1858.68 -0.250509 -2.56379 0
M  V30 19576 H 1858.63 1.46464 -2.78201 0
M  V30 19577 N 1862.41 1.16121 -1.06553 0
M  V30 19578 C 1863.63 1.90611 -0.804673 0
M  V30 19579 C 1864.05 1.77576 0.641255 0
M  V30 19580 O 1863.41 1.12218 1.43921 0
M  V30 19581 C 1863.46 3.41231 -1.19348 0
M  V30 19582 O 1863.18 3.53879 -2.58266 0
M  V30 19583 C 1864.68 4.32764 -0.960738 0
M  V30 19584 H 1861.9 0.604358 -0.291534 0
M  V30 19585 H 1864.44 1.47174 -1.41986 0
M  V30 19586 H 1862.6 3.82361 -0.622772 0
M  V30 19587 H 1863.01 4.47298 -2.73907 0
M  V30 19588 H 1864.49 5.36898 -1.28238 0
M  V30 19589 H 1864.96 4.39078 0.103389 0
M  V30 19590 H 1865.57 3.97365 -1.51595 0
M  V30 19591 N 1863.88 0.848487 1.3281 0
M  V30 19592 C 1864.81 0.303885 2.31514 0
M  V30 19593 C 1865.8 -0.593621 1.59406 0
M  V30 19594 O 1866.98 -0.515158 1.87243 0
M  V30 19595 C 1864.11 -0.5138 3.43478 0
M  V30 19596 C 1863.06 0.28874 4.27025 0
M  V30 19597 C 1862.39 -0.653297 5.30694 0
M  V30 19598 C 1863.69 1.51111 4.99963 0
M  V30 19599 H 1865.38 1.12862 2.77313 0
M  V30 19600 H 1862.93 0.544158 1.33323 0
M  V30 19601 H 1864.88 -0.905164 4.11564 0
M  V30 19602 H 1863.61 -1.37184 2.96392 0
M  V30 19603 H 1862.27 0.661782 3.60577 0
M  V30 19604 H 1861.91 -1.50801 4.79863 0
M  V30 19605 H 1861.61 -0.120368 5.87477 0
M  V30 19606 H 1863.14 -1.04197 6.01644 0
M  V30 19607 H 1864.55 1.19237 5.60763 0
M  V30 19608 H 1862.95 1.98152 5.66441 0
M  V30 19609 H 1864.02 2.2757 4.28182 0
M  V30 19610 N 1865.36 -1.4549 0.605832 0
M  V30 19611 C 1866.59 -2.06325 0.106497 0
M  V30 19612 C 1867 -1.45142 -1.21369 0
M  V30 19613 O 1866.34 -0.559284 -1.74979 0
M  V30 19614 C 1866.41 -3.59334 -0.109378 0
M  V30 19615 C 1866.07 -4.42842 1.12873 0
M  V30 19616 C 1867.07 -4.77929 2.04645 0
M  V30 19617 C 1864.75 -4.83621 1.35707 0
M  V30 19618 C 1866.75 -5.5265 3.1758 0
M  V30 19619 C 1864.43 -5.58096 2.48943 0
M  V30 19620 C 1865.43 -5.92527 3.39707 0
M  V30 19621 O 1865.12 -6.65492 4.50973 0
M  V30 19622 H 1864.85 -0.67285 0.06518 0
M  V30 19623 H 1867.4 -1.87751 0.83298 0
M  V30 19624 H 1865.63 -3.76301 -0.890735 0
M  V30 19625 H 1867.32 -4.02017 -0.560094 0
M  V30 19626 H 1868.09 -4.46984 1.88229 0
M  V30 19627 H 1863.97 -4.56257 0.659587 0
M  V30 19628 H 1867.51 -5.79443 3.88448 0
M  V30 19629 H 1863.41 -5.88455 2.65312 0
M  V30 19630 H 1864.18 -6.8394 4.49632 0
M  V30 19631 N 1866.84 -0.344893 -1.5378 0
M  V30 19632 C 1868.07 0.255228 -2.05824 0
M  V30 19633 C 1868.49 1.43329 -1.21812 0
M  V30 19634 O 1867.85 1.79807 -0.232191 0
M  V30 19635 C 1867.9 0.646906 -3.5475 0
M  V30 19636 O 1867 1.74677 -3.7358 0
M  V30 19637 H 1866.34 0.0420518 -0.662667 0
M  V30 19638 H 1868.87 -0.499498 -1.98409 0
M  V30 19639 H 1868.88 0.923686 -3.97407 0
M  V30 19640 H 1867.56 -0.214619 -4.15346 0
M  V30 19641 H 1866.13 1.46715 -3.42825 0
M  V30 19642 N 1868.32 1.57428 -0.0735454 0
M  V30 19643 C 1869.54 1.98301 0.607591 0
M  V30 19644 C 1869.97 0.951686 1.62248 0
M  V30 19645 O 1869.33 -0.0825008 1.81112 0
M  V30 19646 C 1869.37 3.38201 1.2511 0
M  V30 19647 O 1868.48 3.37711 2.36696 0
M  V30 19648 H 1867.82 0.64539 0.156104 0
M  V30 19649 H 1870.35 2.0406 -0.148578 0
M  V30 19650 H 1870.36 3.75424 1.59753 0
M  V30 19651 H 1869.03 4.12793 0.50745 0
M  V30 19652 H 1867.61 3.1226 2.03833 0
M  V30 19653 N 1869.8 -0.200022 1.56326 0
M  V30 19654 C 1870.74 -1.24792 1.94154 0
M  V30 19655 C 1871.71 -1.45484 0.801474 0
M  V30 19656 O 1872.9 -1.58699 1.05921 0
M  V30 19657 C 1870.04 -2.5887 2.28211 0
M  V30 19658 C 1869.15 -2.45798 3.55257 0
M  V30 19659 C 1868.29 -3.72546 3.78659 0
M  V30 19660 C 1867.33 -3.54286 4.99147 0
M  V30 19661 N 1866.46 -4.73034 5.18829 0
M  V30 19662 H 1871.3 -0.918324 2.83497 0
M  V30 19663 H 1868.84 -0.442097 1.40299 0
M  V30 19664 H 1870.8 -3.36977 2.45972 0
M  V30 19665 H 1869.43 -2.89883 1.42014 0
M  V30 19666 H 1868.48 -1.59013 3.4557 0
M  V30 19667 H 1869.79 -2.28236 4.4352 0
M  V30 19668 H 1868.95 -4.59094 3.96633 0
M  V30 19669 H 1867.68 -3.93057 2.88717 0
M  V30 19670 H 1866.69 -2.66123 4.81102 0
M  V30 19671 H 1867.91 -3.35225 5.90594 0
M  V30 19672 H 1865.86 -4.93818 4.31834 0
M  V30 19673 H 1865.78 -4.58279 6.01262 0
M  V30 19674 H 1867.05 -5.60947 5.41257 0
M  V30 19675 N 1871.27 -1.50505 -0.467553 0
M  V30 19676 C 1872.52 -1.61352 -1.21697 0
M  V30 19677 C 1872.84 -0.317583 -1.92396 0
M  V30 19678 O 1872.11 0.665123 -1.84263 0
M  V30 19679 H 1870.69 -0.594582 -0.452196 0
M  V30 19680 H 1873.36 -1.87299 -0.539 0
M  V30 19681 H 1872.45 -2.4264 -1.96296 0
M  V30 19682 N 1872.75 0.720973 -1.40142 0
M  V30 19683 C 1873.68 1.84799 -1.42729 0
M  V30 19684 C 1874.66 1.67629 -0.288866 0
M  V30 19685 O 1875.85 1.8774 -0.496713 0
M  V30 19686 C 1872.98 3.22699 -1.28385 0
M  V30 19687 C 1871.93 3.54532 -2.39773 0
M  V30 19688 C 1871.26 4.91518 -2.10509 0
M  V30 19689 C 1872.56 3.56077 -3.82108 0
M  V30 19690 H 1874.25 1.82892 -2.37046 0
M  V30 19691 H 1871.8 0.8785 -1.14098 0
M  V30 19692 H 1873.75 4.0123 -1.28812 0
M  V30 19693 H 1872.48 3.25169 -0.305408 0
M  V30 19694 H 1871.13 2.78338 -2.38586 0
M  V30 19695 H 1870.78 4.90584 -1.11069 0
M  V30 19696 H 1870.48 5.13783 -2.85132 0
M  V30 19697 H 1872.01 5.72389 -2.1261 0
M  V30 19698 H 1873.42 4.24657 -3.85148 0
M  V30 19699 H 1871.82 3.89866 -4.56207 0
M  V30 19700 H 1872.89 2.55576 -4.12079 0
M  V30 19701 N 1874.23 1.25549 0.952634 0
M  V30 19702 C 1875.48 1.10198 1.69413 0
M  V30 19703 C 1875.8 -0.357345 1.91698 0
M  V30 19704 O 1875.07 -1.25345 1.5055 0
M  V30 19705 H 1873.65 0.404804 0.627808 0
M  V30 19706 H 1876.31 1.57703 1.14524 0
M  V30 19707 H 1875.41 1.61185 2.67256 0
M  V30 19708 N 1875.71 -1.15554 1.07168 0
M  V30 19709 C 1876.62 -2.2386 0.701714 0
M  V30 19710 C 1877.63 -1.7163 -0.28621 0
M  V30 19711 O 1878.81 -2.00958 -0.133308 0
M  V30 19712 C 1875.88 -3.46546 0.103165 0
M  V30 19713 C 1874.94 -4.13774 1.14409 0
M  V30 19714 C 1874.17 -5.30604 0.574007 0
M  V30 19715 O 1874.39 -5.67123 -0.610521 0
M  V30 19716 O 1873.33 -5.87293 1.31799 0
M  V30 19717 H 1877.15 -2.57833 1.60487 0
M  V30 19718 H 1874.74 -1.23241 0.844514 0
M  V30 19719 H 1876.62 -4.2078 -0.228452 0
M  V30 19720 H 1875.29 -3.14327 -0.773339 0
M  V30 19721 H 1874.2 -3.4147 1.52803 0
M  V30 19722 H 1875.53 -4.5007 1.99243 0
M  V30 19723 N 1877.19 -0.855519 -1.32358 0
M  V30 19724 C 1878.41 -0.472456 -2.01947 0
M  V30 19725 C 1878.84 0.923482 -1.6387 0
M  V30 19726 O 1878.2 1.60677 -0.839799 0
M  V30 19727 C 1878.24 -0.620081 -3.55229 0
M  V30 19728 O 1877.35 0.34676 -4.1094 0
M  V30 19729 H 1876.69 -0.189756 -0.636309 0
M  V30 19730 H 1879.22 -1.15495 -1.68885 0
M  V30 19731 H 1879.23 -0.507933 -4.04826 0
M  V30 19732 H 1877.9 -1.63802 -3.82285 0
M  V30 19733 H 1876.48 0.190778 -3.72412 0
M  V30 19734 N 1878.67 1.45167 -0.61354 0
M  V30 19735 C 1879.91 2.01796 -0.110844 0
M  V30 19736 C 1880.23 1.48372 1.26534 0
M  V30 19737 O 1879.5 0.680323 1.83707 0
M  V30 19738 H 1878.08 0.746034 -0.0379861 0
M  V30 19739 H 1880.75 1.77892 -0.796279 0
M  V30 19740 H 1879.84 3.12032 -0.0651413 0
M  V30 19741 N 1880.14 0.353044 1.53595 0
M  V30 19742 C 1881.39 -0.240904 2.01364 0
M  V30 19743 C 1881.72 -1.49438 1.24023 0
M  V30 19744 O 1881 -1.91672 0.330451 0
M  V30 19745 C 1881.28 -0.545497 3.55944 0
M  V30 19746 C 1881.13 0.720742 4.43988 0
M  V30 19747 C 1882.45 -1.35124 4.18843 0
M  V30 19748 H 1879.57 -0.0860838 0.731955 0
M  V30 19749 H 1882.21 0.475459 1.83955 0
M  V30 19750 H 1880.36 -1.15578 3.7091 0
M  V30 19751 H 1882.04 1.35852 4.40842 0
M  V30 19752 H 1880.28 1.34369 4.12465 0
M  V30 19753 H 1880.95 0.462749 5.50057 0
M  V30 19754 H 1883.43 -0.835104 4.07634 0
M  V30 19755 H 1882.3 -1.53311 5.27055 0
M  V30 19756 H 1882.56 -2.35612 3.74085 0
M  V30 19757 N 1881.62 -1.57387 0.0818932 0
M  V30 19758 C 1882.87 -1.93869 -0.584899 0
M  V30 19759 C 1883.2 -0.962686 -1.69005 0
M  V30 19760 O 1882.45 0.0199955 -1.9569 0
M  V30 19761 C 1882.75 -3.36939 -1.19193 0
M  V30 19762 C 1882.42 -4.50402 -0.211908 0
M  V30 19763 C 1881.08 -4.81165 0.0576757 0
M  V30 19764 C 1883.43 -5.19184 0.457992 0
M  V30 19765 C 1880.76 -5.78044 1.00408 0
M  V30 19766 C 1883.11 -6.17077 1.39278 0
M  V30 19767 C 1881.77 -6.46253 1.67073 0
M  V30 19768 H 1881.04 -0.709417 -0.21403 0
M  V30 19769 H 1883.69 -1.90872 0.154919 0
M  V30 19770 H 1882 -3.3645 -2.00771 0
M  V30 19771 H 1883.69 -3.62461 -1.71532 0
M  V30 19772 H 1880.28 -4.26415 -0.43221 0
M  V30 19773 H 1884.47 -4.95603 0.262847 0
M  V30 19774 H 1879.72 -5.9897 1.22656 0
M  V30 19775 H 1883.9 -6.69474 1.91775 0
M  V30 19776 H 1881.52 -7.21132 2.40566 0
M  V30 19777 N 1883.1 0.191729 -1.56429 0
M  V30 19778 C 1884.03 1.24024 -1.97839 0
M  V30 19779 C 1885.01 1.47291 -0.850853 0
M  V30 19780 O 1886.2 1.58971 -1.11543 0
M  V30 19781 C 1883.33 2.58373 -2.32079 0
M  V30 19782 C 1882.28 2.49712 -3.47603 0
M  V30 19783 C 1881.61 3.88365 -3.67528 0
M  V30 19784 C 1882.91 2.01929 -4.81687 0
M  V30 19785 H 1884.6 0.8961 -2.85675 0
M  V30 19786 H 1882.15 0.429616 -1.37442 0
M  V30 19787 H 1884.1 3.31908 -2.59643 0
M  V30 19788 H 1882.82 2.94534 -1.41129 0
M  V30 19789 H 1881.48 1.78632 -3.20135 0
M  V30 19790 H 1881.13 4.21884 -2.73903 0
M  V30 19791 H 1880.83 3.83444 -4.45246 0
M  V30 19792 H 1882.35 4.63518 -3.97472 0
M  V30 19793 H 1883.77 2.65225 -5.0826 0
M  V30 19794 H 1882.16 2.08002 -5.62899 0
M  V30 19795 H 1883.23 0.972649 -4.75045 0
M  V30 19796 N 1884.58 1.50751 0.459565 0
M  V30 19797 C 1885.83 1.61995 1.20839 0
M  V30 19798 C 1886.15 0.327782 1.92225 0
M  V30 19799 O 1885.42 -0.655341 1.84613 0
M  V30 19800 H 1884 0.596972 0.449036 0
M  V30 19801 H 1886.66 1.87582 0.52906 0
M  V30 19802 H 1885.75 2.43678 1.95006 0
M  V30 19803 N 1886.06 -0.713531 1.40522 0
M  V30 19804 C 1887.3 -1.48585 1.40363 0
M  V30 19805 C 1887.66 -1.91999 0.00566667 0
M  V30 19806 O 1888.86 -2.68527 -0.12105 0
M  V30 19807 C 1887.13 -2.67762 2.36724 0
M  V30 19808 S 1888.69 -3.57142 2.54941 0
M  V30 19809 H 1885.51 -0.507978 0.497473 0
M  V30 19810 H 1888.11 -0.834206 1.76809 0
M  V30 19811 H 1886.81 -2.34042 3.37124 0
M  V30 19812 H 1886.35 -3.37836 2.01569 0
M  V30 19813 H 1888.36 -4.6227 1.80336 0
M  V30 19814 N 1887.53 -1.26053 -0.945962 0
M  V30 19815 C 1888.76 -1.14181 -1.7314 0
M  V30 19816 C 1889.18 0.299663 -1.85698 0
M  V30 19817 O 1888.54 1.21711 -1.34373 0
M  V30 19818 C 1888.59 -1.81052 -3.11854 0
M  V30 19819 O 1887.69 -1.09606 -3.97568 0
M  V30 19820 H 1887.03 -0.398138 -0.531397 0
M  V30 19821 H 1889.56 -1.66782 -1.18511 0
M  V30 19822 H 1889.57 -1.87685 -3.62269 0
M  V30 19823 H 1888.25 -2.85921 -3.0203 0
M  V30 19824 H 1886.83 -1.10915 -3.56023 0
M  V30 19825 N 1889.01 1.14984 -1.07779 0
M  V30 19826 C 1890.26 1.86148 -0.804777 0
M  V30 19827 C 1890.59 1.82364 0.667615 0
M  V30 19828 O 1889.87 1.24982 1.4903 0
M  V30 19829 C 1890.15 3.35067 -1.31916 0
M  V30 19830 C 1890 3.4746 -2.85642 0
M  V30 19831 C 1891.32 4.29961 -0.939217 0
M  V30 19832 H 1888.44 0.675899 -0.293818 0
M  V30 19833 H 1891.08 1.35065 -1.33632 0
M  V30 19834 H 1889.23 3.78702 -0.867011 0
M  V30 19835 H 1890.9 3.12658 -3.3918 0
M  V30 19836 H 1889.15 2.88878 -3.23623 0
M  V30 19837 H 1889.82 4.52109 -3.16704 0
M  V30 19838 H 1892.29 3.94309 -1.3289 0
M  V30 19839 H 1891.17 5.32633 -1.32641 0
M  V30 19840 H 1891.43 4.4183 0.15442 0
M  V30 19841 N 1890.49 0.862526 1.31902 0
M  V30 19842 C 1891.74 0.469775 1.96976 0
M  V30 19843 C 1892.06 -0.976339 1.6822 0
M  V30 19844 O 1891.32 -1.70131 0.967153 0
M  V30 19845 C 1891.62 0.664872 3.51161 0
M  V30 19846 C 1891.28 2.08264 3.99921 0
M  V30 19847 C 1889.95 2.47039 4.12947 0
M  V30 19848 C 1892.3 3.00762 4.25666 0
M  V30 19849 C 1889.63 3.77568 4.49065 0
M  V30 19850 C 1891.98 4.30797 4.63245 0
M  V30 19851 C 1890.64 4.69496 4.74478 0
M  V30 19852 H 1889.91 0.171903 0.720785 0
M  V30 19853 H 1892.56 1.09409 1.57169 0
M  V30 19854 H 1890.86 -0.0426255 3.91777 0
M  V30 19855 H 1892.56 0.340921 3.99548 0
M  V30 19856 H 1889.15 1.77158 3.90273 0
M  V30 19857 H 1893.34 2.72034 4.15104 0
M  V30 19858 H 1888.59 4.07323 4.55958 0
M  V30 19859 H 1892.77 5.02527 4.8212 0
M  V30 19860 H 1890.39 5.70682 5.02221 0
M  V30 19861 N 1891.97 -1.4484 0.62123 0
M  V30 19862 C 1893.22 -2.02133 0.121784 0
M  V30 19863 C 1893.54 -1.48784 -1.25274 0
M  V30 19864 O 1892.8 -0.658116 -1.84302 0
M  V30 19865 C 1893.1 -3.57369 0.0470922 0
M  V30 19866 C 1892.76 -4.2993 1.35908 0
M  V30 19867 C 1891.43 -4.4947 1.71843 0
M  V30 19868 C 1893.78 -4.71295 2.22554 0
M  V30 19869 C 1891.11 -5.07634 2.94151 0
M  V30 19870 C 1893.46 -5.30812 3.44124 0
M  V30 19871 C 1892.12 -5.48573 3.80294 0
M  V30 19872 H 1891.39 -0.739659 0.044564 0
M  V30 19873 H 1894.04 -1.73732 0.805571 0
M  V30 19874 H 1892.34 -3.85127 -0.720022 0
M  V30 19875 H 1894.04 -3.99419 -0.355713 0
M  V30 19876 H 1890.63 -4.15044 1.06941 0
M  V30 19877 H 1894.81 -4.5592 1.96088 0
M  V30 19878 H 1890.07 -5.19572 3.22265 0
M  V30 19879 H 1894.24 -5.61816 4.11504 0
M  V30 19880 H 1891.87 -5.93409 4.75152 0
M  V30 19881 N 1893.45 -0.361184 -1.53405 0
M  V30 19882 C 1894.41 0.475026 -2.24223 0
M  V30 19883 C 1895.41 1.01331 -1.24855 0
M  V30 19884 O 1896.6 0.899756 -1.49164 0
M  V30 19885 C 1893.73 1.6635 -2.97557 0
M  V30 19886 H 1894.92 -0.144595 -2.99551 0
M  V30 19887 H 1892.48 -0.112802 -1.55892 0
M  V30 19888 H 1893.21 2.32133 -2.26461 0
M  V30 19889 H 1893 1.28454 -3.70462 0
M  V30 19890 H 1894.49 2.2562 -3.51405 0
M  V30 19891 N 1894.92 1.57341 -0.0902386 0
M  V30 19892 C 1896.17 1.93352 0.574273 0
M  V30 19893 C 1896.49 0.97374 1.6964 0
M  V30 19894 O 1897.69 1.22737 2.42173 0
M  V30 19895 C 1896.15 3.43536 1.07289 0
M  V30 19896 C 1895.76 4.47996 -0.0192163 0
M  V30 19897 C 1897.5 3.88516 1.71042 0
M  V30 19898 C 1895.41 5.89329 0.494487 0
M  V30 19899 H 1894.34 0.721711 0.218287 0
M  V30 19900 H 1896.99 1.82753 -0.165456 0
M  V30 19901 H 1895.37 3.49271 1.86616 0
M  V30 19902 H 1896.54 4.53899 -0.794527 0
M  V30 19903 H 1894.86 4.12595 -0.561628 0
M  V30 19904 H 1897.46 4.91505 2.1054 0
M  V30 19905 H 1897.8 3.26896 2.57769 0
M  V30 19906 H 1898.33 3.85462 0.983058 0
M  V30 19907 H 1895.07 6.54638 -0.336054 0
M  V30 19908 H 1894.59 5.86908 1.23691 0
M  V30 19909 H 1896.27 6.39763 0.965014 0
M  V30 19910 N 1896.4 -0.183431 1.56529 0
M  V30 19911 C 1897.35 -1.23162 1.91873 0
M  V30 19912 C 1898.34 -1.40413 0.785677 0
M  V30 19913 O 1899.53 -1.42588 1.0487 0
M  V30 19914 C 1896.66 -2.57382 2.27177 0
M  V30 19915 C 1895.74 -2.43875 3.46967 0
M  V30 19916 N 1896.13 -2.00063 4.64552 0
M  V30 19917 C 1894.43 -2.74736 3.51335 0
M  V30 19918 C 1895.13 -1.98728 5.46701 0
M  V30 19919 N 1894.11 -2.40674 4.87418 0
M  V30 19920 H 1897.91 -0.884396 2.80278 0
M  V30 19921 H 1895.43 -0.391791 1.57603 0
M  V30 19922 H 1897.42 -3.33109 2.50687 0
M  V30 19923 H 1896.08 -2.92918 1.40104 0
M  V30 19924 H 1897.09 -1.7059 4.88999 0
M  V30 19925 H 1893.77 -3.1439 2.74709 0
M  V30 19926 H 1895.16 -1.66657 6.50903 0
M  V30 19927 N 1897.88 -1.50992 -0.451564 0
M  V30 19928 C 1899.16 -1.53486 -1.2125 0
M  V30 19929 C 1899.54 -0.290809 -2.09087 0
M  V30 19930 O 1898.89 0.724859 -2.16698 0
M  V30 19931 C 1899.1 -2.84125 -2.02667 0
M  V30 19932 C 1900.44 -3.35535 -2.60195 0
M  V30 19933 O 1901.47 -2.85579 -2.12892 0
M  V30 19934 O 1900.33 -4.22667 -3.46432 0
M  V30 19935 H 1897.42 -0.616481 -0.551253 0
M  V30 19936 H 1899.97 -1.63296 -0.461792 0
M  V30 19937 H 1898.74 -3.66134 -1.38064 0
M  V30 19938 H 1898.36 -2.7741 -2.84832 0
M  V30 19939 N 1899.36 0.706069 -1.40899 0
M  V30 19940 C 1900.32 1.80184 -1.41656 0
M  V30 19941 C 1901.32 1.57807 -0.308823 0
M  V30 19942 O 1902.51 1.64673 -0.568197 0
M  V30 19943 C 1899.64 3.18412 -1.21765 0
M  V30 19944 H 1900.84 1.80908 -2.39191 0
M  V30 19945 H 1898.39 0.912658 -1.26887 0
M  V30 19946 H 1899.12 3.23333 -0.250288 0
M  V30 19947 H 1898.91 3.36054 -2.02015 0
M  V30 19948 H 1900.4 3.9842 -1.25106 0
M  V30 19949 N 1900.84 1.26553 0.939264 0
M  V30 19950 C 1902.08 1.12376 1.68818 0
M  V30 19951 C 1902.42 -0.331784 1.91345 0
M  V30 19952 O 1901.69 -1.24359 1.4955 0
M  V30 19953 C 1901.97 1.89541 3.0618 0
M  V30 19954 C 1901.83 3.43014 2.90966 0
M  V30 19955 C 1903.15 1.69074 4.06327 0
M  V30 19956 H 1900.26 0.409616 0.612686 0
M  V30 19957 H 1902.91 1.55571 1.09076 0
M  V30 19958 H 1901.06 1.5283 3.57177 0
M  V30 19959 H 1902.73 3.89489 2.47176 0
M  V30 19960 H 1900.97 3.69942 2.26551 0
M  V30 19961 H 1901.64 3.92236 3.88401 0
M  V30 19962 H 1904.12 2.01061 3.64299 0
M  V30 19963 H 1902.99 2.25478 5.00451 0
M  V30 19964 H 1903.26 0.635787 4.37504 0
M  V30 19965 N 1902.31 -1.14411 1.08387 0
M  V30 19966 C 1903.54 -1.89848 0.835015 0
M  V30 19967 C 1903.96 -1.78034 -0.607091 0
M  V30 19968 O 1903.32 -1.12039 -1.42538 0
M  V30 19969 C 1903.37 -3.37818 1.26141 0
M  V30 19970 O 1902.47 -4.10325 0.41322 0
M  V30 19971 H 1901.82 -0.590682 0.303299 0
M  V30 19972 H 1904.35 -1.44823 1.44525 0
M  V30 19973 H 1904.36 -3.88631 1.24218 0
M  V30 19974 H 1903.03 -3.45735 2.31172 0
M  V30 19975 H 1901.61 -3.69589 0.495854 0
M  V30 19976 N 1903.79 -0.869509 -1.31443 0
M  V30 19977 C 1904.76 -0.329869 -2.26814 0
M  V30 19978 C 1905.76 0.518895 -1.52198 0
M  V30 19979 O 1906.95 0.328267 -1.71079 0
M  V30 19980 C 1904.08 0.53159 -3.3673 0
M  V30 19981 H 1905.27 -1.1718 -2.7606 0
M  V30 19982 H 1902.82 -0.645061 -1.42368 0
M  V30 19983 H 1903.56 1.39473 -2.92776 0
M  V30 19984 H 1903.34 -0.0761553 -3.92026 0
M  V30 19985 H 1904.83 0.901447 -4.07754 0
M  V30 19986 N 1905.27 1.44508 -0.628902 0
M  V30 19987 C 1906.23 2.291 0.0676501 0
M  V30 19988 C 1907.23 1.40921 0.77447 0
M  V30 19989 O 1908.42 1.62816 0.619397 0
M  V30 19990 C 1905.56 3.22448 1.10634 0
M  V30 19991 H 1906.75 2.92174 -0.676344 0
M  V30 19992 H 1904.3 1.51384 -0.388933 0
M  V30 19993 H 1905.04 2.64219 1.88039 0
M  V30 19994 H 1904.82 3.87428 0.603465 0
M  V30 19995 H 1906.31 3.86 1.59354 0
M  V30 19996 N 1906.75 0.369315 1.53212 0
M  V30 19997 C 1908.17 0.0184115 1.59589 0
M  V30 19998 C 1908.37 -1.46424 1.38428 0
M  V30 19999 O 1907.42 -2.2263 1.1913 0
M  V30 20000 C 1908.73 0.477693 2.96881 0
M  V30 20001 C 1910.28 0.432233 3.10001 0
M  V30 20002 C 1910.76 0.867386 4.49711 0
M  V30 20003 N 1912.25 0.822594 4.55837 0
M  V30 20004 C 1912.98 1.13094 5.62136 0
M  V30 20005 N 1912.48 1.50876 6.76172 0
M  V30 20006 N 1914.27 1.0535 5.52139 0
M  V30 20007 H 1906.42 1.33479 1.65218 0
M  V30 20008 H 1908.69 0.545823 0.775101 0
M  V30 20009 H 1908.39 1.51245 3.17518 0
M  V30 20010 H 1908.27 -0.133741 3.76963 0
M  V30 20011 H 1910.65 -0.593397 2.89072 0
M  V30 20012 H 1910.73 1.07921 2.3192 0
M  V30 20013 H 1910.38 1.89115 4.71379 0
M  V30 20014 H 1910.31 0.19762 5.26229 0
M  V30 20015 H 1912.8 0.544303 3.7396 0
M  V30 20016 H 1913.11 1.72821 7.53228 0
M  V30 20017 H 1911.46 1.54745 6.77554 0
M  V30 20018 H 1914.65 0.757487 4.6193 0
M  V30 20019 H 1914.82 1.29713 6.34885 0
M  V30 20020 N 1908.23 -1.57291 0.0985816 0
M  V30 20021 C 1909.16 -2.11249 -0.889184 0
M  V30 20022 C 1910.17 -1.05051 -1.24371 0
M  V30 20023 O 1911.36 -1.32488 -1.19621 0
M  V30 20024 C 1908.46 -2.58021 -2.19724 0
M  V30 20025 C 1907.63 -3.88091 -2.01752 0
M  V30 20026 C 1906.69 -4.20674 -3.16101 0
M  V30 20027 O 1905.72 -4.89837 -2.89911 0
M  V30 20028 N 1906.92 -3.76356 -4.41969 0
M  V30 20029 H 1909.69 -2.96624 -0.42832 0
M  V30 20030 H 1907.25 -1.61669 -0.0864254 0
M  V30 20031 H 1909.24 -2.76861 -2.95178 0
M  V30 20032 H 1907.81 -1.77638 -2.57223 0
M  V30 20033 H 1907.03 -3.78364 -1.10608 0
M  V30 20034 H 1908.32 -4.7318 -1.87026 0
M  V30 20035 H 1907.72 -3.20533 -4.66128 0
M  V30 20036 H 1906.27 -4.00344 -5.14361 0
M  V30 20037 N 1909.71 0.175127 -1.56624 0
M  V30 20038 C 1910.62 1.23691 -1.99343 0
M  V30 20039 C 1911.63 1.48662 -0.904197 0
M  V30 20040 O 1912.81 1.60885 -1.21153 0
M  V30 20041 C 1909.87 2.55689 -2.34145 0
M  V30 20042 C 1908.93 2.38614 -3.56878 0
M  V30 20043 C 1908.17 3.64318 -3.9001 0
M  V30 20044 O 1908.39 4.69335 -3.24162 0
M  V30 20045 O 1907.32 3.58655 -4.83373 0
M  V30 20046 H 1911.15 0.904314 -2.89924 0
M  V30 20047 H 1908.73 0.381697 -1.44442 0
M  V30 20048 H 1910.62 3.33562 -2.57516 0
M  V30 20049 H 1909.29 2.88535 -1.46728 0
M  V30 20050 H 1908.2 1.58786 -3.3873 0
M  V30 20051 H 1909.53 2.10694 -4.44825 0
M  V30 20052 N 1911.18 1.5123 0.44355 0
M  V30 20053 C 1912.6 1.39267 0.779541 0
M  V30 20054 C 1912.8 0.470162 1.95938 0
M  V30 20055 O 1911.86 -0.0769965 2.52383 0
M  V30 20056 C 1913.17 2.8118 1.06574 0
M  V30 20057 C 1914.72 2.90288 1.17055 0
M  V30 20058 C 1915.19 4.33095 1.48973 0
M  V30 20059 N 1916.68 4.36173 1.55909 0
M  V30 20060 C 1917.42 5.43694 1.82165 0
M  V30 20061 N 1916.91 6.61386 2.06255 0
M  V30 20062 N 1918.71 5.31167 1.83896 0
M  V30 20063 H 1910.86 2.09764 -0.333579 0
M  V30 20064 H 1913.12 0.944017 -0.0868148 0
M  V30 20065 H 1912.83 3.5065 0.271575 0
M  V30 20066 H 1912.7 3.20125 1.99498 0
M  V30 20067 H 1915.09 2.2102 1.95535 0
M  V30 20068 H 1915.17 2.54848 0.220468 0
M  V30 20069 H 1914.81 5.0291 0.710222 0
M  V30 20070 H 1914.74 4.66043 2.45177 0
M  V30 20071 H 1917.23 3.5132 1.39221 0
M  V30 20072 H 1917.55 7.39125 2.25641 0
M  V30 20073 H 1915.89 6.64512 2.0359 0
M  V30 20074 H 1919.08 4.38209 1.64591 0
M  V30 20075 H 1919.26 6.15044 2.0402 0
M  V30 20076 N 1912.66 -0.698586 1.41271 0
M  V30 20077 C 1913.91 -1.45573 1.40189 0
M  V30 20078 C 1914.23 -1.94997 0.0108379 0
M  V30 20079 O 1913.5 -1.715 -0.946822 0
M  V30 20080 H 1912.08 -0.540134 0.516008 0
M  V30 20081 H 1914.74 -0.827048 1.76482 0
M  V30 20082 H 1913.84 -2.32036 2.08724 0
M  V30 20083 N 1914.14 -1.27049 -0.93254 0
M  V30 20084 C 1915.07 -1.11867 -2.04959 0
M  V30 20085 C 1916.05 -0.0214563 -1.70086 0
M  V30 20086 O 1917.24 -0.195063 -1.93218 0
M  V30 20087 C 1914.37 -0.759993 -3.38883 0
M  V30 20088 C 1913.32 -1.8099 -3.87849 0
M  V30 20089 C 1912.65 -1.30532 -5.18522 0
M  V30 20090 C 1913.95 -3.21309 -4.11774 0
M  V30 20091 H 1915.64 -2.05309 -2.17918 0
M  V30 20092 H 1913.19 -0.988507 -1.04712 0
M  V30 20093 H 1915.14 -0.640623 -4.16502 0
M  V30 20094 H 1913.86 0.210139 -3.25923 0
M  V30 20095 H 1912.52 -1.91809 -3.12418 0
M  V30 20096 H 1912.17 -0.324784 -5.0195 0
M  V30 20097 H 1911.87 -2.00722 -5.52254 0
M  V30 20098 H 1913.39 -1.19879 -5.98716 0
M  V30 20099 H 1914.81 -3.13517 -4.79979 0
M  V30 20100 H 1913.2 -3.89166 -4.56804 0
M  V30 20101 H 1914.27 -3.66722 -3.17243 0
M  V30 20102 N 1915.62 1.13835 -1.08993 0
M  V30 20103 C 1916.57 2.17155 -0.694818 0
M  V30 20104 C 1917.55 1.58291 0.28858 0
M  V30 20105 O 1918.74 1.76719 0.0996503 0
M  V30 20106 C 1915.87 3.43117 -0.112138 0
M  V30 20107 C 1914.96 4.08998 -1.12168 0
M  V30 20108 N 1915.35 4.50111 -2.30724 0
M  V30 20109 C 1913.65 4.35572 -0.958807 0
M  V30 20110 C 1914.35 5.01403 -2.94907 0
M  V30 20111 N 1913.32 4.95984 -2.22487 0
M  V30 20112 H 1917.13 2.46691 -1.59752 0
M  V30 20113 H 1914.64 1.30583 -0.965503 0
M  V30 20114 H 1916.64 4.16472 0.188914 0
M  V30 20115 H 1915.3 3.15056 0.785468 0
M  V30 20116 H 1916.31 4.42959 -2.68343 0
M  V30 20117 H 1912.99 4.1734 -0.11551 0
M  V30 20118 H 1914.38 5.43044 -3.95667 0
M  V30 20119 N 1917.1 0.876467 1.3098 0
M  V30 20120 C 1918.34 0.489671 1.96078 0
M  V30 20121 C 1918.66 -0.962603 1.69585 0
M  V30 20122 O 1917.93 -1.67568 1.01478 0
M  V30 20123 H 1916.51 0.178091 0.72546 0
M  V30 20124 H 1919.18 1.11768 1.59668 0
M  V30 20125 H 1918.27 0.652822 3.05196 0
M  V30 20126 N 1918.57 -1.44173 0.636557 0
M  V30 20127 C 1919.98 -1.8534 0.224954 0
M  V30 20128 C 1920.34 -1.53271 -1.22485 0
M  V30 20129 O 1919.46 -0.973441 -1.93269 0
M  V30 20130 C 1920.06 -3.36413 0.401492 0
M  V30 20131 C 1918.61 -3.76374 0.0443511 0
M  V30 20132 C 1917.76 -2.67995 0.712303 0
M  V30 20133 H 1920.71 -1.34562 0.841356 0
M  V30 20134 H 1920.73 -3.78812 -0.357965 0
M  V30 20135 H 1920.25 -3.59722 1.45677 0
M  V30 20136 H 1918.35 -3.58679 -1.00897 0
M  V30 20137 H 1918.46 -4.76904 0.458196 0
M  V30 20138 H 1916.82 -2.54275 0.147092 0
M  V30 20139 H 1917.61 -2.94136 1.77028 0
M  V30 20140 N 1920.05 -0.377435 -1.53014 0
M  V30 20141 C 1920.98 0.455103 -2.29022 0
M  V30 20142 C 1921.96 1.07375 -1.31926 0
M  V30 20143 O 1923.15 1.08877 -1.60809 0
M  V30 20144 C 1920.28 1.58883 -3.08826 0
M  V30 20145 C 1919.23 1.09683 -4.13707 0
M  V30 20146 C 1918.56 2.32172 -4.81664 0
M  V30 20147 C 1919.86 0.173165 -5.22013 0
M  V30 20148 H 1921.55 -0.179053 -2.98864 0
M  V30 20149 H 1919.1 -0.0875549 -1.43734 0
M  V30 20150 H 1921.05 2.17798 -3.60752 0
M  V30 20151 H 1919.77 2.2504 -2.36695 0
M  V30 20152 H 1918.43 0.530291 -3.62744 0
M  V30 20153 H 1918.08 2.96811 -4.06094 0
M  V30 20154 H 1917.78 1.99919 -5.52545 0
M  V30 20155 H 1919.31 2.91751 -5.3639 0
M  V30 20156 H 1920.72 0.670145 -5.6937 0
M  V30 20157 H 1919.12 -0.0590463 -6.00071 0
M  V30 20158 H 1920.19 -0.781339 -4.78564 0
M  V30 20159 N 1921.53 1.57237 -0.106922 0
M  V30 20160 C 1922.76 1.9912 0.562038 0
M  V30 20161 C 1923.17 0.986338 1.60987 0
M  V30 20162 O 1922.53 -0.0224611 1.82486 0
M  V30 20163 C 1922.58 3.41034 1.19909 0
M  V30 20164 O 1922.3 4.37674 0.193157 0
M  V30 20165 C 1923.8 3.97984 1.95253 0
M  V30 20166 H 1921.02 0.654071 0.149772 0
M  V30 20167 H 1923.57 2.03618 -0.189699 0
M  V30 20168 H 1921.72 3.37513 1.90168 0
M  V30 20169 H 1922.14 5.20401 0.654461 0
M  V30 20170 H 1923.61 4.99398 2.35171 0
M  V30 20171 H 1924.09 3.36455 2.82303 0
M  V30 20172 H 1924.69 4.05014 1.29784 0
M  V30 20173 N 1923.01 -0.166818 1.56715 0
M  V30 20174 C 1923.94 -1.2086 1.99787 0
M  V30 20175 C 1924.92 -1.45918 0.874178 0
M  V30 20176 O 1926.1 -1.57176 1.14058 0
M  V30 20177 C 1923.23 -2.54648 2.3616 0
M  V30 20178 C 1922.19 -2.44151 3.51532 0
M  V30 20179 C 1921.51 -3.82469 3.7366 0
M  V30 20180 C 1922.81 -1.9424 4.84838 0
M  V30 20181 H 1924.51 -0.850538 2.87065 0
M  V30 20182 H 1922.05 -0.407696 1.38108 0
M  V30 20183 H 1924.01 -3.27736 2.64891 0
M  V30 20184 H 1922.73 -2.92251 1.45797 0
M  V30 20185 H 1921.39 -1.73516 3.22936 0
M  V30 20186 H 1921.04 -4.17473 2.8058 0
M  V30 20187 H 1920.74 -3.76312 4.5129 0
M  V30 20188 H 1922.26 -4.57136 4.04796 0
M  V30 20189 H 1923.68 -2.57105 5.12416 0
M  V30 20190 H 1922.07 -1.99021 5.66137 0
M  V30 20191 H 1923.14 -0.89695 4.76532 0
M  V30 20192 N 1924.49 -1.51463 -0.435524 0
M  V30 20193 C 1925.43 -1.73484 -1.54939 0
M  V30 20194 C 1926.43 -0.601197 -1.58373 0
M  V30 20195 O 1927.63 -0.782622 -1.62096 0
M  V30 20196 H 1924.01 -0.54818 -0.514784 0
M  V30 20197 H 1925.98 -2.66851 -1.3354 0
M  V30 20198 C 1924.73 -1.87866 -2.92578 0
M  V30 20199 H 1924.05 -2.74503 -2.90668 0
M  V30 20200 H 1925.49 -2.07285 -3.69877 0
M  V30 20201 C 1923.95 -0.638928 -3.30786 0
M  V30 20202 O 1924.48 0.205561 -4.01174 0
M  V30 20203 N 1922.69 -0.48249 -2.86567 0
M  V30 20204 H 1922.23 -1.17078 -2.29457 0
M  V30 20205 H 1922.19 0.345753 -3.12493 0
M  V30 20206 N 1925.96 0.691085 -1.4164 0
M  V30 20207 C 1927.19 1.48481 -1.44804 0
M  V30 20208 C 1927.61 1.88016 -0.0561606 0
M  V30 20209 O 1926.97 1.54927 0.941657 0
M  V30 20210 C 1927.02 2.72083 -2.3665 0
M  V30 20211 O 1926.12 3.6974 -1.82663 0
M  V30 20212 H 1925.47 0.446714 -0.491267 0
M  V30 20213 H 1928 0.849076 -1.8615 0
M  V30 20214 H 1928.01 3.2034 -2.52678 0
M  V30 20215 H 1926.68 2.42645 -3.37781 0
M  V30 20216 H 1925.26 3.28695 -1.76108 0
M  V30 20217 N 1927.44 1.27542 0.925789 0
M  V30 20218 C 1928.85 1.12679 1.48864 0
M  V30 20219 C 1929.2 -0.287536 1.94082 0
M  V30 20220 O 1928.33 -1.18064 1.81356 0
M  V30 20221 C 1928.92 2.03934 2.70548 0
M  V30 20222 C 1927.48 1.93171 3.23051 0
M  V30 20223 C 1926.63 1.96378 1.95783 0
M  V30 20224 H 1929.58 1.40407 0.739703 0
M  V30 20225 H 1929.6 1.59628 3.45397 0
M  V30 20226 H 1929.11 3.06863 2.37607 0
M  V30 20227 H 1927.22 0.932356 3.60746 0
M  V30 20228 H 1927.33 2.7951 3.89115 0
M  V30 20229 H 1925.69 1.40628 2.12358 0
M  V30 20230 H 1926.48 3.00964 1.65153 0
M  V30 20231 N 1928.92 -1.13255 1.09595 0
M  V30 20232 C 1929.85 -2.20827 0.758791 0
M  V30 20233 C 1930.83 -1.68034 -0.264325 0
M  V30 20234 O 1932.02 -1.93751 -0.132005 0
M  V30 20235 C 1929.15 -3.46831 0.180424 0
M  V30 20236 C 1928.1 -4.12724 1.13325 0
M  V30 20237 C 1927.43 -5.33075 0.416504 0
M  V30 20238 C 1928.73 -4.59862 2.47637 0
M  V30 20239 H 1930.42 -2.49287 1.65821 0
M  V30 20240 H 1927.97 -1.19818 0.798734 0
M  V30 20241 H 1929.92 -4.21346 -0.0675313 0
M  V30 20242 H 1928.64 -3.17773 -0.754194 0
M  V30 20243 H 1927.3 -3.40179 1.36651 0
M  V30 20244 H 1926.95 -5.00281 -0.522308 0
M  V30 20245 H 1926.65 -5.78109 1.05183 0
M  V30 20246 H 1928.17 -6.10344 0.17689 0
M  V30 20247 H 1929.59 -5.25791 2.28509 0
M  V30 20248 H 1927.99 -5.15642 3.06974 0
M  V30 20249 H 1929.06 -3.74294 3.08273 0
M  V30 20250 N 1930.4 -0.883401 -1.30514 0
M  V30 20251 C 1931.63 -0.515948 -2.00364 0
M  V30 20252 C 1932.04 0.895148 -1.6623 0
M  V30 20253 O 1931.4 1.58844 -0.898601 0
M  V30 20254 C 1931.45 -0.679282 -3.55061 0
M  V30 20255 O 1931.17 -2.03482 -3.87978 0
M  V30 20256 C 1932.67 -0.314612 -4.42182 0
M  V30 20257 H 1929.89 -0.199595 -0.640627 0
M  V30 20258 H 1932.44 -1.18827 -1.66435 0
M  V30 20259 H 1930.59 -0.0543511 -3.87362 0
M  V30 20260 H 1931 -2.0523 -4.82681 0
M  V30 20261 H 1932.48 -0.4798 -5.49911 0
M  V30 20262 H 1932.96 0.747247 -4.32797 0
M  V30 20263 H 1933.56 -0.9158 -4.15323 0
M  V30 20264 N 1931.88 1.43833 -0.644194 0
M  V30 20265 C 1933.29 1.85218 -0.23478 0
M  V30 20266 C 1933.64 1.53918 1.2167 0
M  V30 20267 O 1932.76 0.983677 1.92751 0
M  V30 20268 C 1933.36 3.36195 -0.419327 0
M  V30 20269 C 1931.92 3.76345 -0.0643105 0
M  V30 20270 C 1931.06 2.67614 -0.726506 0
M  V30 20271 H 1934.02 1.34114 -0.84848 0
M  V30 20272 H 1934.04 3.78997 0.33787 0
M  V30 20273 H 1933.55 3.58944 -1.47582 0
M  V30 20274 H 1931.65 3.59209 0.989939 0
M  V30 20275 H 1931.76 4.76654 -0.483481 0
M  V30 20276 H 1930.13 2.54193 -0.160575 0
M  V30 20277 H 1930.91 2.93193 -1.78585 0
M  V30 20278 N 1933.35 0.385544 1.52811 0
M  V30 20279 C 1934.26 -0.45885 2.30069 0
M  V30 20280 C 1935.28 -1.07486 1.36831 0
M  V30 20281 O 1936.46 -1.08148 1.699 0
M  V30 20282 C 1933.52 -1.57281 3.08972 0
M  V30 20283 C 1932.58 -0.98229 4.17911 0
M  V30 20284 C 1931.82 -2.04316 4.93042 0
M  V30 20285 O 1932.04 -3.25761 4.68226 0
M  V30 20286 O 1930.97 -1.66256 5.78483 0
M  V30 20287 H 1934.8 0.170416 3.03221 0
M  V30 20288 H 1932.38 0.149363 1.48651 0
M  V30 20289 H 1934.27 -2.22003 3.5818 0
M  V30 20290 H 1932.94 -2.18711 2.38637 0
M  V30 20291 H 1931.85 -0.298428 3.72908 0
M  V30 20292 H 1933.18 -0.412261 4.9047 0
M  V30 20293 N 1934.83 -1.57178 0.115259 0
M  V30 20294 C 1935.78 -2.15114 -0.836331 0
M  V30 20295 C 1936.75 -1.07511 -1.26612 0
M  V30 20296 O 1937.93 -1.354 -1.3443 0
M  V30 20297 C 1935.07 -2.75187 -2.08245 0
M  V30 20298 C 1934.19 -3.97086 -1.70137 0
M  V30 20299 C 1933.32 -4.45258 -2.89687 0
M  V30 20300 C 1932.36 -5.59697 -2.47801 0
M  V30 20301 N 1931.5 -6.0263 -3.60252 0
M  V30 20302 H 1936.34 -2.96106 -0.335434 0
M  V30 20303 H 1933.88 -1.46293 -0.15388 0
M  V30 20304 H 1935.83 -3.08145 -2.81252 0
M  V30 20305 H 1934.46 -1.96891 -2.558 0
M  V30 20306 H 1933.52 -3.70313 -0.870192 0
M  V30 20307 H 1934.83 -4.80085 -1.35352 0
M  V30 20308 H 1933.98 -4.80105 -3.70923 0
M  V30 20309 H 1932.72 -3.61201 -3.27696 0
M  V30 20310 H 1931.73 -5.24458 -1.64997 0
M  V30 20311 H 1932.95 -6.45517 -2.10913 0
M  V30 20312 H 1930.9 -5.21515 -3.97942 0
M  V30 20313 H 1930.81 -6.80474 -3.29379 0
M  V30 20314 H 1932.08 -6.42114 -4.41939 0
M  V30 20315 N 1936.31 0.158505 -1.56801 0
M  V30 20316 C 1937.56 0.871408 -1.81905 0
M  V30 20317 C 1937.87 1.8285 -0.694632 0
M  V30 20318 O 1939.08 2.58471 -0.830953 0
M  V30 20319 C 1937.54 1.60017 -3.2237 0
M  V30 20320 C 1937.14 0.686065 -4.42716 0
M  V30 20321 C 1938.89 2.30054 -3.56757 0
M  V30 20322 C 1936.79 1.41579 -5.74203 0
M  V30 20323 H 1935.72 0.329148 -0.678364 0
M  V30 20324 H 1938.38 0.124216 -1.83079 0
M  V30 20325 H 1936.76 2.39258 -3.1555 0
M  V30 20326 H 1937.93 -0.0702946 -4.60746 0
M  V30 20327 H 1936.25 0.0947 -4.16292 0
M  V30 20328 H 1938.84 2.85268 -4.52246 0
M  V30 20329 H 1939.19 3.06002 -2.82256 0
M  V30 20330 H 1939.72 1.57744 -3.65187 0
M  V30 20331 H 1936.46 0.698382 -6.51769 0
M  V30 20332 H 1935.98 2.14515 -5.60128 0
M  V30 20333 H 1937.66 1.95983 -6.16603 0
M  V30 20334 N 1937.79 1.51692 0.427485 0
M  V30 20335 C 1939.21 1.40086 0.764726 0
M  V30 20336 C 1939.41 0.490917 1.95428 0
M  V30 20337 O 1938.46 -0.0502236 2.5245 0
M  V30 20338 C 1939.77 2.82295 1.03586 0
M  V30 20339 C 1941.32 2.91513 1.1397 0
M  V30 20340 C 1941.8 4.34651 1.44371 0
M  V30 20341 N 1943.29 4.37802 1.51274 0
M  V30 20342 C 1944.02 5.45596 1.76388 0
M  V30 20343 N 1943.52 6.63536 1.99228 0
M  V30 20344 N 1945.31 5.33088 1.78252 0
M  V30 20345 H 1937.46 2.09399 -0.355809 0
M  V30 20346 H 1939.73 0.943043 -0.0968225 0
M  V30 20347 H 1939.43 3.50918 0.234369 0
M  V30 20348 H 1939.31 3.22223 1.96092 0
M  V30 20349 H 1941.69 2.23082 1.9318 0
M  V30 20350 H 1941.77 2.55068 0.193426 0
M  V30 20351 H 1941.42 5.03635 0.656841 0
M  V30 20352 H 1941.35 4.68617 2.4022 0
M  V30 20353 H 1943.84 3.52777 1.35487 0
M  V30 20354 H 1944.15 7.41477 2.17789 0
M  V30 20355 H 1942.5 6.66634 1.9653 0
M  V30 20356 H 1945.69 4.39931 1.59933 0
M  V30 20357 H 1945.86 6.17174 1.97486 0
M  V30 20358 N 1939.27 -0.683564 1.42004 0
M  V30 20359 C 1940.2 -1.80812 1.39221 0
M  V30 20360 C 1941.18 -1.60545 0.25771 0
M  V30 20361 O 1942.36 -1.83135 0.446539 0
M  V30 20362 C 1939.49 -3.17679 1.17463 0
M  V30 20363 C 1938.54 -3.56713 2.33791 0
M  V30 20364 S 1939.37 -3.60144 3.96304 0
M  V30 20365 C 1940.52 -4.99718 3.76872 0
M  V30 20366 H 1940.76 -1.82897 2.34384 0
M  V30 20367 H 1938.29 -0.853409 1.28671 0
M  V30 20368 H 1940.25 -3.96686 1.05597 0
M  V30 20369 H 1938.91 -3.13189 0.239001 0
M  V30 20370 H 1938.1 -4.56174 2.14292 0
M  V30 20371 H 1937.7 -2.85045 2.42127 0
M  V30 20372 H 1940 -5.87555 3.37321 0
M  V30 20373 H 1940.94 -5.24261 4.75979 0
M  V30 20374 H 1941.35 -4.71823 3.09909 0
M  V30 20375 N 1940.75 -1.28031 -0.919012 0
M  V30 20376 C 1941.71 -1.11534 -2.00232 0
M  V30 20377 C 1942.71 -0.0566233 -1.607 0
M  V30 20378 O 1943.9 -0.30196 -1.71563 0
M  V30 20379 C 1941.03 -0.701371 -3.33607 0
M  V30 20380 H 1942.22 -2.0774 -2.16297 0
M  V30 20381 H 1939.78 -1.10942 -1.10098 0
M  V30 20382 H 1940.51 0.261682 -3.23243 0
M  V30 20383 H 1940.3 -1.4661 -3.63659 0
M  V30 20384 H 1941.79 -0.608444 -4.13144 0
M  V30 20385 N 1942.22 1.12672 -1.10194 0
M  V30 20386 C 1943.46 1.85769 -0.852599 0
M  V30 20387 C 1943.83 1.82027 0.610749 0
M  V30 20388 O 1945.03 2.50442 0.976339 0
M  V30 20389 C 1943.3 3.29565 -1.38281 0
M  V30 20390 S 1944.86 4.20064 -1.26853 0
M  V30 20391 H 1941.68 0.64075 -0.308157 0
M  V30 20392 H 1944.28 1.35746 -1.40689 0
M  V30 20393 H 1942.98 3.29846 -2.44192 0
M  V30 20394 H 1942.51 3.84652 -0.824994 0
M  V30 20395 H 1944.53 4.95691 -0.224588 0
M  V30 20396 N 1943.7 0.89031 1.30043 0
M  V30 20397 C 1944.61 0.365266 2.31739 0
M  V30 20398 C 1945.63 -0.535219 1.65564 0
M  V30 20399 O 1946.8 -0.427058 1.9682 0
M  V30 20400 C 1943.87 -0.407009 3.44303 0
M  V30 20401 C 1942.93 0.523869 4.26092 0
M  V30 20402 C 1942.16 -0.211645 5.3328 0
M  V30 20403 O 1942.39 -1.43697 5.52003 0
M  V30 20404 O 1941.32 0.440999 6.00282 0
M  V30 20405 H 1945.15 1.20872 2.7861 0
M  V30 20406 H 1942.73 0.654319 1.34309 0
M  V30 20407 H 1944.61 -0.844074 4.1286 0
M  V30 20408 H 1943.29 -1.22668 2.99557 0
M  V30 20409 H 1942.19 1.00986 3.60212 0
M  V30 20410 H 1943.53 1.30969 4.74455 0
M  V30 20411 N 1945.18 -1.43489 0.651812 0
M  V30 20412 C 1946.46 -1.95371 0.0946135 0
M  V30 20413 C 1946.84 -1.59316 -1.38498 0
M  V30 20414 O 1946.18 -0.87757 -2.10976 0
M  V30 20415 C 1946.39 -3.47346 0.339353 0
M  V30 20416 C 1947.74 -4.23901 0.243543 0
M  V30 20417 O 1948.77 -3.55161 0.271836 0
M  V30 20418 O 1947.63 -5.46248 0.166055 0
M  V30 20419 H 1944.72 -0.826934 -0.0104284 0
M  V30 20420 H 1947.27 -1.53436 0.724952 0
M  V30 20421 H 1946.04 -3.66712 1.36522 0
M  V30 20422 H 1945.66 -3.96277 -0.324122 0
M  V30 20423 N 1946.66 -0.393643 -1.52605 0
M  V30 20424 C 1947.6 0.439408 -2.26579 0
M  V30 20425 C 1948.57 1.05415 -1.28362 0
M  V30 20426 O 1949.76 1.08136 -1.57198 0
M  V30 20427 C 1946.9 1.55846 -3.07906 0
M  V30 20428 C 1946.01 0.966152 -4.21058 0
M  V30 20429 C 1945.15 2.05662 -4.89772 0
M  V30 20430 C 1944.19 1.44043 -5.9491 0
M  V30 20431 N 1943.32 2.47039 -6.57203 0
M  V30 20432 H 1948.16 -0.197864 -2.97342 0
M  V30 20433 H 1945.7 -0.109409 -1.46693 0
M  V30 20434 H 1947.66 2.21807 -3.53352 0
M  V30 20435 H 1946.29 2.16598 -2.39343 0
M  V30 20436 H 1945.34 0.196024 -3.79895 0
M  V30 20437 H 1946.65 0.475898 -4.96525 0
M  V30 20438 H 1945.81 2.79383 -5.38544 0
M  V30 20439 H 1944.55 2.58048 -4.13839 0
M  V30 20440 H 1943.55 0.688483 -5.45472 0
M  V30 20441 H 1944.78 0.924458 -6.72778 0
M  V30 20442 H 1942.72 2.98586 -5.84108 0
M  V30 20443 H 1942.64 2.02781 -7.28297 0
M  V30 20444 H 1943.91 3.20377 -7.10619 0
M  V30 20445 N 1948.14 1.57115 -0.123593 0
M  V30 20446 C 1949.38 1.95352 0.533292 0
M  V30 20447 C 1949.71 1.00716 1.66393 0
M  V30 20448 O 1948.97 0.0318953 1.95674 0
M  V30 20449 C 1949.26 3.39981 1.10218 0
M  V30 20450 C 1948.93 4.50805 0.0924171 0
M  V30 20451 C 1947.59 4.80843 -0.185228 0
M  V30 20452 C 1949.94 5.17787 -0.595483 0
M  V30 20453 C 1947.27 5.75179 -1.15698 0
M  V30 20454 C 1949.62 6.13168 -1.5559 0
M  V30 20455 C 1948.29 6.41596 -1.84148 0
M  V30 20456 H 1947.56 0.714842 0.195146 0
M  V30 20457 H 1950.21 1.90395 -0.205471 0
M  V30 20458 H 1948.51 3.41654 1.9178 0
M  V30 20459 H 1950.21 3.66881 1.61862 0
M  V30 20460 H 1946.8 4.27411 0.319001 0
M  V30 20461 H 1950.98 4.94732 -0.394155 0
M  V30 20462 H 1946.24 5.95508 -1.38494 0
M  V30 20463 H 1950.41 6.64154 -2.09458 0
M  V30 20464 H 1948.04 7.14501 -2.59601 0
M  V30 20465 N 1949.61 -0.150187 1.56883 0
M  V30 20466 C 1950.84 -0.87835 1.8733 0
M  V30 20467 C 1951.26 -1.74883 0.711426 0
M  V30 20468 O 1950.61 -1.79692 -0.318906 0
M  V30 20469 C 1950.66 -1.73769 3.16996 0
M  V30 20470 O 1950.39 -0.902296 4.28708 0
M  V30 20471 C 1951.89 -2.57371 3.60936 0
M  V30 20472 H 1949.11 -0.254139 0.621011 0
M  V30 20473 H 1951.65 -0.143933 2.03993 0
M  V30 20474 H 1949.81 -2.42521 3.02097 0
M  V30 20475 H 1950.22 -1.49198 5.02832 0
M  V30 20476 H 1951.69 -3.13249 4.5451 0
M  V30 20477 H 1952.17 -3.33257 2.86071 0
M  V30 20478 H 1952.78 -1.93916 3.78519 0
M  V30 20479 N 1951.09 -1.51916 -0.419434 0
M  V30 20480 C 1952.04 -1.7452 -1.51035 0
M  V30 20481 C 1953.01 -0.587321 -1.5537 0
M  V30 20482 O 1954.19 -0.823744 -1.72102 0
M  V30 20483 C 1951.33 -1.89242 -2.88585 0
M  V30 20484 C 1950.45 -3.16859 -2.9364 0
M  V30 20485 C 1949.58 -3.22072 -4.22426 0
M  V30 20486 C 1948.62 -4.43931 -4.21416 0
M  V30 20487 N 1947.76 -4.46594 -5.41755 0
M  V30 20488 H 1952.6 -2.67631 -1.31063 0
M  V30 20489 H 1950.14 -1.32623 -0.636368 0
M  V30 20490 H 1952.09 -1.9576 -3.68421 0
M  V30 20491 H 1950.72 -0.995211 -3.07076 0
M  V30 20492 H 1949.78 -3.19562 -2.06359 0
M  V30 20493 H 1951.09 -4.06719 -2.88758 0
M  V30 20494 H 1950.24 -3.27605 -5.10647 0
M  V30 20495 H 1948.98 -2.30131 -4.29989 0
M  V30 20496 H 1947.99 -4.38555 -3.31586 0
M  V30 20497 H 1949.21 -5.37155 -4.15501 0
M  V30 20498 H 1947.16 -3.57532 -5.50006 0
M  V30 20499 H 1947.07 -5.30286 -5.38825 0
M  V30 20500 H 1948.34 -4.56343 -6.31958 0
M  V30 20501 N 1952.57 0.676023 -1.42365 0
M  V30 20502 C 1953.5 1.80071 -1.40178 0
M  V30 20503 C 1954.48 1.60406 -0.266221 0
M  V30 20504 O 1955.67 1.82895 -0.456245 0
M  V30 20505 C 1952.79 3.17052 -1.19147 0
M  V30 20506 C 1951.84 3.55468 -2.35679 0
M  V30 20507 S 1952.67 3.58037 -3.98208 0
M  V30 20508 C 1953.83 4.97712 -3.79517 0
M  V30 20509 H 1954.06 1.81652 -2.35351 0
M  V30 20510 H 1951.59 0.846573 -1.29122 0
M  V30 20511 H 1953.55 3.9612 -1.07699 0
M  V30 20512 H 1952.21 3.13058 -0.255607 0
M  V30 20513 H 1951.41 4.55031 -2.16709 0
M  V30 20514 H 1951.01 2.83757 -2.43635 0
M  V30 20515 H 1953.3 5.85758 -3.40432 0
M  V30 20516 H 1954.24 5.2173 -4.78752 0
M  V30 20517 H 1954.65 4.70172 -3.12407 0
M  V30 20518 N 1954.05 1.28517 0.912209 0
M  V30 20519 C 1955.3 1.15138 1.65609 0
M  V30 20520 C 1955.61 -0.299022 1.93301 0
M  V30 20521 O 1956.82 -0.55395 2.65789 0
M  V30 20522 C 1955.27 2.01287 2.98348 0
M  V30 20523 C 1954.88 3.51076 2.78297 0
M  V30 20524 C 1956.62 1.96599 3.7623 0
M  V30 20525 C 1954.53 4.29371 4.06687 0
M  V30 20526 H 1953.46 0.42731 0.621226 0
M  V30 20527 H 1956.11 1.5306 1.01217 0
M  V30 20528 H 1954.49 1.56222 3.63883 0
M  V30 20529 H 1955.67 4.04109 2.21434 0
M  V30 20530 H 1953.98 3.57306 2.13826 0
M  V30 20531 H 1956.58 2.52362 4.71399 0
M  V30 20532 H 1956.92 0.943087 4.05477 0
M  V30 20533 H 1957.46 2.39641 3.17517 0
M  V30 20534 H 1954.2 5.32248 3.82612 0
M  V30 20535 H 1953.72 3.81112 4.63156 0
M  V30 20536 H 1955.39 4.39372 4.74933 0
M  V30 20537 N 1955.53 -1.12086 1.1079 0
M  V30 20538 C 1956.94 -1.65205 0.869718 0
M  V30 20539 C 1957.29 -1.86823 -0.599309 0
M  V30 20540 O 1956.41 -1.59743 -1.45983 0
M  V30 20541 C 1957.01 -3.00109 1.57226 0
M  V30 20542 C 1955.57 -3.50163 1.38068 0
M  V30 20543 C 1954.71 -2.2511 1.61928 0
M  V30 20544 H 1957.67 -0.958175 1.2651 0
M  V30 20545 H 1957.69 -3.66757 1.01337 0
M  V30 20546 H 1957.2 -2.84344 2.64141 0
M  V30 20547 H 1955.3 -3.71106 0.33333 0
M  V30 20548 H 1955.41 -4.29388 2.12515 0
M  V30 20549 H 1953.78 -2.32399 1.04224 0
M  V30 20550 H 1954.56 -2.11895 2.70103 0
M  V30 20551 N 1957 -0.897194 -1.29569 0
M  V30 20552 C 1958.42 -0.592933 -1.48177 0
M  V30 20553 C 1958.62 0.866214 -1.81931 0
M  V30 20554 O 1957.68 1.64658 -1.91427 0
M  V30 20555 C 1958.99 -1.5166 -2.59653 0
M  V30 20556 C 1960.54 -1.52153 -2.73529 0
M  V30 20557 C 1961.01 -2.43142 -3.88131 0
M  V30 20558 N 1962.5 -2.41175 -3.9546 0
M  V30 20559 C 1963.24 -3.08283 -4.83476 0
M  V30 20560 N 1962.73 -3.84662 -5.76201 0
M  V30 20561 N 1964.53 -2.97453 -4.76946 0
M  V30 20562 H 1956.68 -1.84096 -1.05935 0
M  V30 20563 H 1958.94 -0.788701 -0.52598 0
M  V30 20564 H 1958.65 -2.55612 -2.41569 0
M  V30 20565 H 1958.52 -1.23526 -3.564 0
M  V30 20566 H 1960.91 -0.489472 -2.91012 0
M  V30 20567 H 1960.99 -1.84324 -1.77365 0
M  V30 20568 H 1960.63 -3.46441 -3.71404 0
M  V30 20569 H 1960.56 -2.08282 -4.83659 0
M  V30 20570 H 1963.05 -1.8568 -3.29137 0
M  V30 20571 H 1963.37 -4.32929 -6.4015 0
M  V30 20572 H 1961.71 -3.88769 -5.76094 0
M  V30 20573 H 1964.9 -2.37301 -4.03492 0
M  V30 20574 H 1965.08 -3.50029 -5.45329 0
M  V30 20575 N 1958.48 1.43142 -0.659413 0
M  V30 20576 C 1959.76 1.95318 -0.104973 0
M  V30 20577 C 1960.14 1.60048 1.37651 0
M  V30 20578 O 1959.49 0.888746 2.10508 0
M  V30 20579 C 1959.7 3.47161 -0.357769 0
M  V30 20580 C 1961.05 4.23766 -0.26602 0
M  V30 20581 O 1962.07 3.55012 -0.290667 0
M  V30 20582 O 1960.93 5.46152 -0.195021 0
M  V30 20583 H 1958.02 0.826978 0.0060428 0
M  V30 20584 H 1960.57 1.53049 -0.733079 0
M  V30 20585 H 1959.34 3.65983 -1.38465 0
M  V30 20586 H 1958.96 3.96443 0.303102 0
M  V30 20587 N 1959.96 0.40173 1.52394 0
M  V30 20588 C 1960.87 -0.434422 2.30543 0
M  V30 20589 C 1961.89 -1.06028 1.37964 0
M  V30 20590 O 1963.06 -1.0634 1.71037 0
M  V30 20591 C 1960.13 -1.53995 3.10623 0
M  V30 20592 C 1959.19 -0.93791 4.18929 0
M  V30 20593 C 1958.42 -1.99075 4.95182 0
M  V30 20594 O 1958.64 -3.20777 4.71655 0
M  V30 20595 O 1957.58 -1.60111 5.80214 0
M  V30 20596 H 1961.4 0.202567 3.03024 0
M  V30 20597 H 1958.99 0.165122 1.48485 0
M  V30 20598 H 1960.87 -2.18191 3.60514 0
M  V30 20599 H 1959.55 -2.16167 2.40943 0
M  V30 20600 H 1958.45 -0.25886 3.73203 0
M  V30 20601 H 1959.79 -0.360217 4.9088 0
M  V30 20602 N 1961.44 -1.57047 0.131923 0
M  V30 20603 C 1962.85 -1.82552 -0.391375 0
M  V30 20604 C 1963.2 -1.04983 -1.6575 0
M  V30 20605 O 1962.33 -0.2904 -2.14443 0
M  V30 20606 C 1962.92 -3.3113 -0.716843 0
M  V30 20607 C 1961.48 -3.57269 -1.18472 0
M  V30 20608 C 1960.63 -2.76578 -0.200021 0
M  V30 20609 H 1963.58 -1.54636 0.356863 0
M  V30 20610 H 1963.6 -3.46463 -1.57302 0
M  V30 20611 H 1963.11 -3.87559 0.204844 0
M  V30 20612 H 1961.21 -3.06211 -2.12287 0
M  V30 20613 H 1961.32 -4.65798 -1.12111 0
M  V30 20614 H 1959.69 -2.45185 -0.689655 0
M  V30 20615 H 1960.47 -3.35772 0.71499 0
M  V30 20616 N 1962.92 0.141865 -1.5696 0
M  V30 20617 C 1964.16 0.851923 -1.83267 0
M  V30 20618 C 1964.49 1.81473 -0.713611 0
M  V30 20619 O 1963.76 1.94109 0.264326 0
M  V30 20620 H 1962.34 0.317594 -0.676124 0
M  V30 20621 H 1965 0.134643 -1.94434 0
M  V30 20622 H 1964.09 1.41106 -2.7838 0
M  V30 20623 N 1964.39 1.52136 0.411372 0
M  V30 20624 C 1965.62 1.70223 1.18486 0
M  V30 20625 C 1966.04 0.409966 1.83578 0
M  V30 20626 O 1965.4 -0.632366 1.69914 0
M  V30 20627 C 1965.45 2.83744 2.22535 0
M  V30 20628 O 1964.55 2.49157 3.28625 0
M  V30 20629 H 1963.9 0.566741 0.345978 0
M  V30 20630 H 1966.43 1.98829 0.482526 0
M  V30 20631 H 1966.44 3.08591 2.669 0
M  V30 20632 H 1965.11 3.77503 1.74541 0
M  V30 20633 H 1963.69 2.34974 2.89554 0
M  V30 20634 N 1965.87 -0.668464 1.42721 0
M  V30 20635 C 1967.1 -1.45448 1.46726 0
M  V30 20636 C 1967.51 -1.89035 0.0790078 0
M  V30 20637 O 1966.85 -1.59123 -0.917912 0
M  V30 20638 C 1966.92 -2.73153 2.33726 0
M  V30 20639 C 1966.58 -2.51602 3.81504 0
M  V30 20640 C 1967.58 -2.15798 4.72998 0
M  V30 20641 C 1965.26 -2.664 4.25836 0
M  V30 20642 C 1967.26 -1.95067 6.06818 0
M  V30 20643 C 1964.94 -2.45285 5.59713 0
M  V30 20644 C 1965.94 -2.09672 6.50021 0
M  V30 20645 O 1965.63 -1.88765 7.81424 0
M  V30 20646 H 1965.36 -0.453831 0.501013 0
M  V30 20647 H 1967.92 -0.8282 1.87963 0
M  V30 20648 H 1966.15 -3.38286 1.87349 0
M  V30 20649 H 1967.83 -3.35056 2.29112 0
M  V30 20650 H 1968.6 -2.03955 4.40031 0
M  V30 20651 H 1964.48 -2.93097 3.5583 0
M  V30 20652 H 1968.02 -1.67193 6.77268 0
M  V30 20653 H 1963.92 -2.56725 5.92252 0
M  V30 20654 H 1964.69 -2.03313 7.92847 0
M  V30 20655 N 1967.35 -1.28999 -0.905381 0
M  V30 20656 C 1968.6 -1.16813 -1.65779 0
M  V30 20657 C 1968.93 0.280936 -1.92157 0
M  V30 20658 O 1968.21 1.2035 -1.52794 0
M  V30 20659 C 1968.49 -1.97593 -3.01047 0
M  V30 20660 C 1968.34 -3.50608 -2.8177 0
M  V30 20661 C 1969.66 -1.79788 -4.01702 0
M  V30 20662 H 1966.78 -0.425716 -0.60161 0
M  V30 20663 H 1969.42 -1.58409 -1.04913 0
M  V30 20664 H 1967.57 -1.62246 -3.52999 0
M  V30 20665 H 1969.24 -3.95905 -2.36763 0
M  V30 20666 H 1967.49 -3.75818 -2.16663 0
M  V30 20667 H 1968.16 -4.02396 -3.77865 0
M  V30 20668 H 1970.63 -2.10649 -3.5884 0
M  V30 20669 H 1969.51 -2.38667 -4.94297 0
M  V30 20670 H 1969.77 -0.75156 -4.35665 0
M  V30 20671 N 1968.83 1.11497 -1.11383 0
M  V30 20672 C 1970.24 1.64742 -0.878467 0
M  V30 20673 C 1970.59 1.87138 0.589393 0
M  V30 20674 O 1969.72 1.60515 1.45134 0
M  V30 20675 C 1970.31 2.99271 -1.58815 0
M  V30 20676 C 1968.87 3.49426 -1.39923 0
M  V30 20677 C 1968.02 2.24248 -1.6312 0
M  V30 20678 H 1970.97 0.951453 -1.27016 0
M  V30 20679 H 1970.99 3.66215 -1.03281 0
M  V30 20680 H 1970.5 2.82939 -2.65645 0
M  V30 20681 H 1968.6 3.70924 -0.353006 0
M  V30 20682 H 1968.72 4.28255 -2.1479 0
M  V30 20683 H 1967.08 2.31843 -1.05455 0
M  V30 20684 H 1967.86 2.10459 -2.71223 0
M  V30 20685 N 1970.31 0.904053 1.29092 0
M  V30 20686 C 1971.55 0.542414 1.96034 0
M  V30 20687 C 1971.91 -0.902189 1.69936 0
M  V30 20688 O 1971.2 -1.6317 1.0043 0
M  V30 20689 C 1971.4 0.776255 3.48868 0
M  V30 20690 C 1971.22 2.24204 3.89824 0
M  V30 20691 C 1969.99 2.89031 4.14475 0
M  V30 20692 C 1972.19 3.21762 4.01215 0
M  V30 20693 N 1970.17 4.26007 4.42031 0
M  V30 20694 C 1971.55 4.4387 4.32873 0
M  V30 20695 C 1973.6 3.17293 3.83705 0
M  V30 20696 C 1972.3 5.62076 4.48846 0
M  V30 20697 C 1974.33 4.34789 4.0089 0
M  V30 20698 C 1973.69 5.55668 4.32912 0
M  V30 20699 H 1969.79 0.248172 0.741576 0
M  V30 20700 H 1972.37 1.16577 1.55942 0
M  V30 20701 H 1970.55 0.182248 3.87972 0
M  V30 20702 H 1972.28 0.379616 4.02916 0
M  V30 20703 H 1969.03 2.39805 4.084 0
M  V30 20704 H 1969.46 4.96802 4.5991 0
M  V30 20705 H 1974.1 2.24922 3.58008 0
M  V30 20706 H 1971.82 6.54934 4.73378 0
M  V30 20707 H 1975.4 4.32821 3.88789 0
M  V30 20708 H 1974.28 6.4507 4.45931 0
M  V30 20709 N 1971.79 -1.4279 0.666995 0
M  V30 20710 C 1972.73 -2.32583 -0.0279199 0
M  V30 20711 C 1973.73 -1.49387 -0.79874 0
M  V30 20712 O 1974.93 -1.65509 -0.707585 0
M  V30 20713 H 1971.31 -0.751485 -0.0278204 0
M  V30 20714 H 1973.28 -2.88901 0.746913 0
M  V30 20715 C 1972.03 -3.33869 -0.970921 0
M  V30 20716 H 1971.35 -3.9792 -0.387213 0
M  V30 20717 H 1972.79 -3.99301 -1.42599 0
M  V30 20718 C 1971.25 -2.65527 -2.07358 0
M  V30 20719 O 1971.78 -2.48123 -3.15908 0
M  V30 20720 N 1969.99 -2.24677 -1.84305 0
M  V30 20721 H 1969.53 -2.39032 -0.960283 0
M  V30 20722 H 1969.49 -1.79282 -2.58274 0
M  V30 20723 N 1973.26 -0.409806 -1.52179 0
M  V30 20724 C 1974.51 0.166003 -2.02119 0
M  V30 20725 C 1974.84 1.44732 -1.29484 0
M  V30 20726 O 1974.12 1.90314 -0.401362 0
M  V30 20727 C 1974.4 0.413015 -3.57724 0
M  V30 20728 C 1974.25 -0.885028 -4.41007 0
M  V30 20729 C 1975.57 1.19486 -4.2357 0
M  V30 20730 H 1972.69 0.0588585 -0.734646 0
M  V30 20731 H 1975.33 -0.543405 -1.82063 0
M  V30 20732 H 1973.48 1.01732 -3.74944 0
M  V30 20733 H 1975.16 -1.5212 -4.35497 0
M  V30 20734 H 1973.4 -1.49585 -4.07194 0
M  V30 20735 H 1974.07 -0.66658 -5.47961 0
M  V30 20736 H 1976.55 0.683238 -4.10452 0
M  V30 20737 H 1975.42 1.33644 -5.32382 0
M  V30 20738 H 1975.68 2.21566 -3.82571 0
M  V30 20739 N 1974.74 1.56975 -0.14025 0
M  V30 20740 C 1976.15 1.82757 0.381688 0
M  V30 20741 C 1976.5 1.0586 1.65191 0
M  V30 20742 O 1975.63 0.301768 2.14286 0
M  V30 20743 C 1976.22 3.31505 0.699272 0
M  V30 20744 C 1974.78 3.57892 1.16576 0
M  V30 20745 C 1973.93 2.7668 0.185351 0
M  V30 20746 H 1976.88 1.54444 -0.365058 0
M  V30 20747 H 1976.9 3.47292 1.55462 0
M  V30 20748 H 1976.41 3.87445 -0.225394 0
M  V30 20749 H 1974.51 3.07332 2.1066 0
M  V30 20750 H 1974.63 4.66386 1.0964 0
M  V30 20751 H 1972.99 2.45548 0.676642 0
M  V30 20752 H 1973.77 3.35388 -0.732787 0
M  V30 20753 N 1976.22 -0.133539 1.57033 0
M  V30 20754 C 1977.47 -0.842358 1.83268 0
M  V30 20755 C 1977.78 -1.81722 0.723634 0
M  V30 20756 O 1978.99 -2.57117 0.871969 0
M  V30 20757 C 1977.44 -1.54868 3.24875 0
M  V30 20758 C 1977.05 -0.615546 4.43751 0
M  V30 20759 C 1978.8 -2.24349 3.60372 0
M  V30 20760 C 1976.7 -1.32426 5.76383 0
M  V30 20761 H 1975.63 -0.318314 0.683515 0
M  V30 20762 H 1978.28 -0.0950741 1.83254 0
M  V30 20763 H 1976.67 -2.34207 3.19316 0
M  V30 20764 H 1977.84 0.143586 4.60576 0
M  V30 20765 H 1976.15 -0.0284595 4.1639 0
M  V30 20766 H 1978.75 -2.78037 4.56727 0
M  V30 20767 H 1979.09 -3.01473 2.87088 0
M  V30 20768 H 1979.63 -1.51914 3.67651 0
M  V30 20769 H 1976.37 -0.594603 6.52798 0
M  V30 20770 H 1975.89 -2.05577 5.6347 0
M  V30 20771 H 1977.57 -1.86148 6.19643 0
M  V30 20772 O 1977.74 -1.59088 -0.278064 0
M  V30 20773 H 1978.43 -1.70262 -0.923609 0
M  V30 END ATOM
M  V30 BEGIN BOND
M  V30 END BOND
M  V30 END CTAB
M  END
$$$$
