drugbank_target|P9WGR1 Enoyl-[acyl-carrier-protein] reductase [NADH] (DB00609; DB00951; DB02990; DB04289; DB05154; DB07090; DB07123; DB07155; DB07178; DB07188; DB07192; DB07222; DB07287; DB08604)
 OpenBabel12092119293D

  0  0  0     0  0            999 V3000
M  V30 BEGIN CTAB
M  V30 COUNTS 4029 4067 0 0 0
M  V30 BEGIN ATOM
M  V30 1 H -0.908 1.98254 -0.117106 0
M  V30 2 N 0 1.576 0 0
M  V30 3 C 0.933 2.03868 1.02534 0
M  V30 4 C 1.911 0.928543 1.3348 0
M  V30 5 O 3.095 1.19667 1.45644 0
M  V30 6 C 0.222 2.43627 2.35294 0
M  V30 7 C -0.732 3.65373 2.2001 0
M  V30 8 S 0.101 5.13292 1.52614 0
M  V30 9 C 1.257 5.56322 2.86805 0
M  V30 10 H 1.49 2.90518 0.631377 0
M  V30 11 H -0.977 1.52953 0.210867 0
M  V30 12 H 0.981 2.67203 3.11629 0
M  V30 13 H -0.358 1.57376 2.7183 0
M  V30 14 H -1.165 3.90944 3.18086 0
M  V30 15 H -1.563 3.418 1.51819 0
M  V30 16 H 0.729 5.58782 3.83104 0
M  V30 17 H 1.672 6.56266 2.65933 0
M  V30 18 H 2.08 4.83886 2.90714 0
M  V30 19 N 1.4781 -0.272755 1.55222 0
M  V30 20 C 2.7061 -1.02255 1.79865 0
M  V30 21 C 3.1211 -1.79924 0.572088 0
M  V30 22 O 2.4781 -1.76638 -0.458842 0
M  V30 23 C 2.5291 -1.98094 3.02392 0
M  V30 24 O 2.2501 -1.23572 4.20311 0
M  V30 25 C 3.7511 -2.84884 3.39641 0
M  V30 26 H 0.9711 -0.302057 0.599168 0
M  V30 27 H 3.5151 -0.303465 2.02236 0
M  V30 28 H 1.6701 -2.65465 2.82147 0
M  V30 29 H 2.0841 -1.88172 4.89583 0
M  V30 30 H 3.5581 -3.47927 4.28545 0
M  V30 31 H 4.0351 -3.54665 2.59055 0
M  V30 32 H 4.6411 -2.23003 3.62146 0
M  V30 33 N 2.9562 -1.48159 -0.537278 0
M  V30 34 C 4.2042 -1.55497 -1.29094 0
M  V30 35 C 4.5252 -0.227454 -1.93669 0
M  V30 36 O 3.7952 0.750386 -1.80959 0
M  V30 37 H 2.3752 -0.572832 -0.47945 0
M  V30 38 H 5.0372 -1.84579 -0.625818 0
M  V30 39 H 4.1332 -2.33216 -2.07405 0
M  V30 40 N 4.4343 0.785586 -1.36625 0
M  V30 41 C 5.3643 1.91259 -1.33949 0
M  V30 42 C 6.3453 1.68795 -0.210325 0
M  V30 43 O 7.5303 1.89854 -0.408561 0
M  V30 44 C 4.6603 3.28339 -1.13186 0
M  V30 45 C 3.6143 3.65335 -2.22967 0
M  V30 46 C 2.9403 5.00806 -1.87342 0
M  V30 47 C 4.2403 3.7352 -3.65075 0
M  V30 48 H 5.9343 1.93755 -2.28253 0
M  V30 49 H 3.4803 0.930788 -1.09874 0
M  V30 50 H 5.4333 4.06804 -1.09948 0
M  V30 51 H 4.1573 3.2624 -0.153332 0
M  V30 52 H 2.8163 2.89169 -2.25337 0
M  V30 53 H 2.4643 4.95233 -0.880545 0
M  V30 54 H 2.1643 5.26529 -2.60846 0
M  V30 55 H 3.6883 5.81687 -1.85667 0
M  V30 56 H 5.1023 4.42168 -3.64911 0
M  V30 57 H 3.4993 4.10731 -4.37516 0
M  V30 58 H 4.5693 2.74527 -3.99703 0
M  V30 59 N 5.9124 1.20967 1.01018 0
M  V30 60 C 6.8424 0.988272 2.11555 0
M  V30 61 C 7.8234 -0.0849778 1.69888 0
M  V30 62 O 9.0084 0.0738202 1.9406 0
M  V30 63 C 6.1384 0.546528 3.42973 0
M  V30 64 C 5.0924 1.56375 3.9841 0
M  V30 65 C 4.4184 0.97842 5.25672 0
M  V30 66 C 5.7184 2.94922 4.31066 0
M  V30 67 H 7.4124 1.91276 2.30334 0
M  V30 68 H 4.9584 0.921073 1.1069 0
M  V30 69 H 6.9114 0.378839 4.19694 0
M  V30 70 H 5.6354 -0.413598 3.23971 0
M  V30 71 H 4.2944 1.71891 3.23804 0
M  V30 72 H 3.9424 0.0101688 5.02999 0
M  V30 73 H 3.6424 1.65784 5.63728 0
M  V30 74 H 5.1664 0.821939 6.05043 0
M  V30 75 H 6.5804 2.8288 4.9865 0
M  V30 76 H 4.9774 3.5983 4.80253 0
M  V30 77 H 6.0474 3.4616 3.39561 0
M  V30 78 N 7.3905 -1.2043 1.01659 0
M  V30 79 C 8.6675 -1.8548 0.621004 0
M  V30 80 C 9.0475 -1.9091 -0.900919 0
M  V30 81 O 8.3955 -1.41694 -1.79263 0
M  V30 82 C 8.6055 -3.25119 1.2688 0
M  V30 83 C 9.9535 -4.01403 1.38423 0
M  V30 84 O 10.9775 -3.34473 1.22501 0
M  V30 85 O 9.8365 -5.21265 1.64151 0
M  V30 86 H 6.9305 -0.798761 0.214266 0
M  V30 87 H 9.4765 -1.28019 1.11396 0
M  V30 88 H 8.2485 -3.15932 2.30873 0
M  V30 89 H 7.8715 -3.90212 0.762917 0
M  V30 90 N 8.8686 -0.792821 -1.36206 0
M  V30 91 C 10.1166 -0.366062 -1.98757 0
M  V30 92 C 10.4376 1.0668 -1.63231 0
M  V30 93 O 9.7076 1.73587 -0.907978 0
M  V30 94 H 8.2876 -0.132364 -0.735179 0
M  V30 95 H 10.9496 -1.01562 -1.66347 0
M  V30 96 H 10.0456 -0.460638 -3.08682 0
M  V30 97 N 10.3467 1.47872 -0.545128 0
M  V30 98 C 11.2937 2.29849 0.2093 0
M  V30 99 C 12.2637 1.38313 0.919707 0
M  V30 100 O 13.4487 1.67277 0.917772 0
M  V30 101 C 10.5887 3.22019 1.24088 0
M  V30 102 C 9.7017 4.2864 0.537778 0
M  V30 103 C 8.8367 5.07973 1.5536 0
M  V30 104 C 7.8757 6.06381 0.8348 0
M  V30 105 N 7.0127 6.78717 1.79688 0
M  V30 106 H 11.8527 2.93845 -0.49591 0
M  V30 107 H 9.3897 1.44848 -0.256389 0
M  V30 108 H 11.3477 3.73868 1.85144 0
M  V30 109 H 9.9777 2.59914 1.91428 0
M  V30 110 H 9.0297 3.7994 -0.187046 0
M  V30 111 H 10.3417 4.98793 -0.0258907 0
M  V30 112 H 9.4957 5.63912 2.23803 0
M  V30 113 H 8.2347 4.37693 2.15118 0
M  V30 114 H 7.2397 5.49631 0.136388 0
M  V30 115 H 8.4647 6.78665 0.24313 0
M  V30 116 H 6.4107 6.11177 2.38326 0
M  V30 117 H 6.3277 7.44998 1.28505 0
M  V30 118 H 7.5957 7.39237 2.47282 0
M  V30 119 N 11.8248 0.280983 1.55075 0
M  V30 120 C 13.2408 -0.0729964 1.59433 0
M  V30 121 C 13.4408 -1.5411 1.29817 0
M  V30 122 O 12.4968 -2.29086 1.06187 0
M  V30 123 C 13.8098 0.306921 2.9913 0
M  V30 124 C 15.3578 0.254023 3.11968 0
M  V30 125 C 15.8328 0.608467 4.5394 0
M  V30 126 N 17.3238 0.560241 4.59799 0
M  V30 127 C 18.0588 0.80722 5.6769 0
M  V30 128 N 17.5548 1.11912 6.83701 0
M  V30 129 N 19.3478 0.735623 5.57266 0
M  V30 130 H 11.4988 1.238 1.7259 0
M  V30 131 H 13.7618 0.500547 0.805082 0
M  V30 132 H 13.4678 1.32816 3.25657 0
M  V30 133 H 13.3418 -0.349363 3.75579 0
M  V30 134 H 15.7288 -0.75794 2.852 0
M  V30 135 H 15.8098 0.944649 2.37718 0
M  V30 136 H 15.4538 1.61814 4.81434 0
M  V30 137 H 15.3838 -0.104013 5.26497 0
M  V30 138 H 17.8748 0.329288 3.76463 0
M  V30 139 H 18.1878 1.29409 7.61888 0
M  V30 140 H 16.5328 1.15695 6.85303 0
M  V30 141 H 19.7238 0.491752 4.6551 0
M  V30 142 H 19.8968 0.931482 6.4127 0
M  V30 143 N 13.3029 -1.57598 0.00835791 0
M  V30 144 C 14.5519 -1.90107 -0.673968 0
M  V30 145 C 14.8649 -0.884275 -1.7447 0
M  V30 146 O 16.0709 -1.09987 -2.48224 0
M  V30 147 C 14.5269 -3.37497 -1.24995 0
M  V30 148 C 14.1349 -4.47491 -0.2136 0
M  V30 149 C 15.8789 -3.79104 -1.90999 0
M  V30 150 C 13.7859 -5.85963 -0.80005 0
M  V30 151 H 12.7159 -0.709393 -0.255495 0
M  V30 152 H 15.3669 -1.83365 0.0702693 0
M  V30 153 H 13.7489 -3.39102 -2.04513 0
M  V30 154 H 14.9229 -4.57414 0.557596 0
M  V30 155 H 13.2379 -4.14956 0.346474 0
M  V30 156 H 15.8349 -4.79901 -2.35795 0
M  V30 157 H 16.1779 -3.1306 -2.74407 0
M  V30 158 H 16.7109 -3.79833 -1.18203 0
M  V30 159 H 13.4499 -6.555 -0.00456708 0
M  V30 160 H 12.9699 -5.79687 -1.54021 0
M  V30 161 H 14.6489 -6.33884 -1.29615 0
M  V30 162 N 14.781 0.264519 -1.55364 0
M  V30 163 C 15.711 1.33121 -1.91836 0
M  V30 164 C 16.692 1.51101 -0.781192 0
M  V30 165 O 17.877 1.64003 -1.04003 0
M  V30 166 C 15.007 2.68921 -2.19769 0
M  V30 167 C 13.961 2.65661 -3.35571 0
M  V30 168 C 13.287 4.05093 -3.49004 0
M  V30 169 C 14.587 2.24187 -4.71739 0
M  V30 170 H 16.281 1.02844 -2.81182 0
M  V30 171 H 13.827 0.493286 -1.35287 0
M  V30 172 H 15.78 3.43663 -2.43872 0
M  V30 173 H 14.504 3.00799 -1.27231 0
M  V30 174 H 13.163 1.93377 -3.1145 0
M  V30 175 H 12.811 4.34206 -2.53917 0
M  V30 176 H 12.511 4.03804 -4.26868 0
M  V30 177 H 14.035 4.81561 -3.75408 0
M  V30 178 H 15.449 2.88654 -4.9533 0
M  V30 179 H 13.846 2.34044 -5.52579 0
M  V30 180 H 14.916 1.19327 -4.69988 0
M  V30 181 N 16.2591 1.48442 0.529413 0
M  V30 182 C 17.5051 1.5672 1.28711 0
M  V30 183 C 17.8381 0.2406 1.92704 0
M  V30 184 O 17.1131 -0.753454 1.79313 0
M  V30 185 C 17.3961 2.70587 2.37603 0
M  V30 186 C 17.2491 4.12953 1.78297 0
M  V30 187 C 18.5681 2.80212 3.39366 0
M  V30 188 H 15.6871 0.570474 0.466613 0
M  V30 189 H 18.3291 1.80617 0.589706 0
M  V30 190 H 16.4791 2.50342 2.97088 0
M  V30 191 H 18.1511 4.44639 1.22858 0
M  V30 192 H 16.3941 4.19927 1.0883 0
M  V30 193 H 17.0651 4.88448 2.57144 0
M  V30 194 H 19.5411 2.98553 2.89836 0
M  V30 195 H 18.4171 3.61611 4.12951 0
M  V30 196 H 18.6781 1.88393 3.99951 0
M  V30 197 N 17.7372 -0.778329 1.37039 0
M  V30 198 C 18.9622 -1.57248 1.35233 0
M  V30 199 C 19.3872 -1.87999 -0.0615568 0
M  V30 200 O 18.7452 -1.48734 -1.03672 0
M  V30 201 C 18.7932 -2.86353 2.19167 0
M  V30 202 O 17.8972 -3.80442 1.59178 0
M  V30 203 H 17.2382 -0.476569 0.462362 0
M  V30 204 H 19.7682 -0.963853 1.80474 0
M  V30 205 H 19.7782 -3.35519 2.32145 0
M  V30 206 H 18.4532 -2.63299 3.21942 0
M  V30 207 H 17.0302 -3.39067 1.55203 0
M  V30 208 N 19.2153 -1.21501 -1.00376 0
M  V30 209 C 20.4633 -1.03095 -1.73827 0
M  V30 210 C 20.7843 0.436341 -1.90055 0
M  V30 211 O 20.0543 1.31466 -1.45236 0
M  V30 212 H 18.6343 -0.378487 -0.644016 0
M  V30 213 H 21.2963 -1.52831 -1.20949 0
M  V30 214 H 20.3923 -1.49991 -2.73695 0
M  V30 215 N 20.6934 1.19889 -1.02296 0
M  V30 216 C 21.9424 1.88743 -0.711257 0
M  V30 217 C 22.2554 1.80112 0.762817 0
M  V30 218 O 23.4614 2.44161 1.18733 0
M  V30 219 C 21.9174 3.38525 -1.22185 0
M  V30 220 C 21.5254 3.55727 -2.72328 0
M  V30 221 C 23.2694 4.12893 -0.985864 0
M  V30 222 C 21.1764 4.99369 -3.16835 0
M  V30 223 H 20.1064 0.706885 -0.262353 0
M  V30 224 H 22.7574 1.35586 -1.23648 0
M  V30 225 H 21.1394 3.91044 -0.624571 0
M  V30 226 H 22.3134 3.13564 -3.3766 0
M  V30 227 H 20.6284 2.94739 -2.9414 0
M  V30 228 H 23.2254 5.18813 -1.29374 0
M  V30 229 H 23.5684 4.16228 0.0775055 0
M  V30 230 H 24.1014 3.66494 -1.54684 0
M  V30 231 H 20.8404 5.01193 -4.22476 0
M  V30 232 H 20.3604 5.42317 -2.56228 0
M  V30 233 H 22.0394 5.67988 -3.09837 0
M  V30 234 N 22.1715 0.800033 1.35784 0
M  V30 235 C 23.4205 0.37387 1.98205 0
M  V30 236 C 23.7335 -1.06302 1.64193 0
M  V30 237 O 24.9395 -1.59198 2.19928 0
M  V30 238 C 23.3955 0.617532 3.54562 0
M  V30 239 C 23.0035 2.06654 3.9749 0
M  V30 240 C 24.7475 0.256401 4.23725 0
M  V30 241 C 22.6545 2.2563 5.46667 0
M  V30 242 H 21.5845 0.136055 0.741623 0
M  V30 243 H 24.2355 0.983166 1.54939 0
M  V30 244 H 22.6175 -0.0616248 3.95952 0
M  V30 245 H 23.7915 2.78296 3.67271 0
M  V30 246 H 22.1065 2.38691 3.41197 0
M  V30 247 H 24.7035 0.376318 5.33374 0
M  V30 248 H 25.0465 -0.796692 4.08606 0
M  V30 249 H 25.5795 0.889214 3.87734 0
M  V30 250 H 22.3185 3.2936 5.66747 0
M  V30 251 H 21.8385 1.58504 5.78478 0
M  V30 252 H 23.5175 2.06861 6.1304 0
M  V30 253 N 23.6496 -1.47581 0.552962 0
M  V30 254 C 24.8776 -2.06875 0.0320556 0
M  V30 255 C 25.2926 -1.40625 -1.25976 0
M  V30 256 O 24.6496 -0.501349 -1.75479 0
M  V30 257 C 24.7006 -3.61092 -0.17167 0
M  V30 258 O 24.4216 -4.24858 1.06899 0
M  V30 259 C 25.9226 -4.37242 -0.730344 0
M  V30 260 H 23.1426 -0.669561 0.043915 0
M  V30 261 H 25.6866 -1.89646 0.765163 0
M  V30 262 H 23.8416 -3.7785 -0.854894 0
M  V30 263 H 24.2556 -5.17334 0.864059 0
M  V30 264 H 25.7296 -5.45842 -0.822203 0
M  V30 265 H 26.2066 -4.03235 -1.74064 0
M  V30 266 H 26.8126 -4.25219 -0.0829543 0
M  V30 267 N 25.1277 -0.289203 -1.54924 0
M  V30 268 C 26.4047 0.376032 -1.91951 0
M  V30 269 C 26.7847 1.72622 -1.21511 0
M  V30 270 O 26.1327 2.25853 -0.346767 0
M  V30 271 C 26.3427 0.502378 -3.45365 0
M  V30 272 C 27.6907 0.778741 -4.17398 0
M  V30 273 O 28.7147 0.586647 -3.51336 0
M  V30 274 O 27.5737 1.14698 -5.34328 0
M  V30 275 H 24.6677 0.208167 -0.800372 0
M  V30 276 H 27.2137 -0.336394 -1.66332 0
M  V30 277 H 25.9857 -0.447255 -3.88736 0
M  V30 278 H 25.6087 1.26373 -3.76982 0
M  V30 279 N 26.6058 1.57591 -0.0167156 0
M  V30 280 C 27.8308 1.9598 0.67872 0
M  V30 281 C 28.2558 0.892546 1.65575 0
M  V30 282 O 27.6138 -0.147772 1.80697 0
M  V30 283 C 27.6618 3.33468 1.37227 0
M  V30 284 O 26.7658 3.28954 2.48722 0
M  V30 285 H 26.1068 0.639339 0.17928 0
M  V30 286 H 28.6368 2.04463 -0.0748802 0
M  V30 287 H 28.6468 3.69417 1.7319 0
M  V30 288 H 27.3218 4.10694 0.656007 0
M  V30 289 H 25.8988 3.04705 2.14963 0
M  V30 290 N 28.0839 -0.256276 1.55502 0
M  V30 291 C 29.3089 -1.00766 1.81276 0
M  V30 292 C 29.7339 -1.78524 0.59252 0
M  V30 293 O 29.0919 -1.75413 -0.45827 0
M  V30 294 C 29.1399 -1.92869 3.04687 0
M  V30 295 O 28.2439 -3.019 2.80945 0
M  V30 296 H 27.5849 -0.287224 0.598664 0
M  V30 297 H 30.1149 -0.280109 2.02674 0
M  V30 298 H 30.1249 -2.34511 3.33869 0
M  V30 299 H 28.7999 -1.35689 3.93143 0
M  V30 300 H 27.3769 -2.64454 2.62904 0
M  V30 301 N 29.562 -1.4872 -0.521534 0
M  V30 302 C 30.811 -1.56419 -1.27341 0
M  V30 303 C 31.124 -0.246805 -1.94037 0
M  V30 304 O 32.33 -0.202122 -2.70747 0
M  V30 305 C 30.786 -2.75896 -2.31105 0
M  V30 306 C 30.394 -4.14311 -1.70441 0
M  V30 307 C 32.138 -2.92913 -3.07249 0
M  V30 308 C 30.045 -5.25038 -2.72194 0
M  V30 309 H 28.975 -0.582344 -0.478949 0
M  V30 310 H 31.626 -1.75071 -0.549779 0
M  V30 311 H 30.008 -2.50697 -3.06541 0
M  V30 312 H 31.182 -4.49564 -1.01136 0
M  V30 313 H 29.497 -4.02482 -1.06759 0
M  V30 314 H 32.094 -3.72805 -3.83302 0
M  V30 315 H 32.437 -2.02689 -3.63625 0
M  V30 316 H 32.97 -3.18054 -2.38928 0
M  V30 317 H 29.709 -6.17255 -2.20627 0
M  V30 318 H 29.229 -4.94263 -3.39801 0
M  V30 319 H 30.908 -5.53508 -3.35019 0
M  V30 320 N 31.0401 0.771051 -1.3745 0
M  V30 321 C 32.0031 1.86598 -1.33093 0
M  V30 322 C 33.0031 1.59076 -0.234845 0
M  V30 323 O 34.1931 1.67145 -0.490732 0
M  V30 324 C 31.3251 3.23747 -1.06773 0
M  V30 325 H 32.5181 1.91873 -2.30488 0
M  V30 326 H 30.0711 0.970876 -1.2249 0
M  V30 327 H 30.8061 3.24148 -0.099129 0
M  V30 328 H 30.5911 3.45115 -1.86112 0
M  V30 329 H 32.0811 4.03824 -1.06377 0
M  V30 330 N 32.5182 1.22032 0.997298 0
M  V30 331 C 33.7652 1.04222 1.73621 0
M  V30 332 C 34.0932 -0.423264 1.89839 0
M  V30 333 O 33.3482 -1.3302 1.43542 0
M  V30 334 C 33.6472 1.69345 3.14733 0
M  V30 335 C 33.3132 3.19226 3.18442 0
M  V30 336 C 31.9752 3.60124 3.19161 0
M  V30 337 C 34.3272 4.15181 3.15078 0
M  V30 338 C 31.6552 4.95467 3.14212 0
M  V30 339 C 34.0072 5.50495 3.1167 0
M  V30 340 C 32.6712 5.90779 3.10703 0
M  V30 341 H 31.9412 0.381374 0.635323 0
M  V30 342 H 34.5882 1.51732 1.16831 0
M  V30 343 H 32.8932 1.14147 3.74803 0
M  V30 344 H 34.5902 1.53059 3.7064 0
M  V30 345 H 31.1802 2.86659 3.18629 0
M  V30 346 H 35.3642 3.84605 3.13676 0
M  V30 347 H 30.6202 5.25916 3.11805 0
M  V30 348 H 34.7942 6.24576 3.08022 0
M  V30 349 H 32.4212 6.9562 3.06622 0
M  V30 350 N 33.9963 -1.19345 1.0293 0
M  V30 351 C 34.9463 -2.20472 0.58104 0
M  V30 352 C 35.9303 -1.56578 -0.370442 0
M  V30 353 O 37.1223 -1.75963 -0.191344 0
M  V30 354 C 34.2513 -3.43236 -0.066306 0
M  V30 355 C 33.3373 -4.14274 0.907642 0
M  V30 356 N 33.7283 -4.61492 2.07023 0
M  V30 357 C 32.0263 -4.39966 0.731177 0
M  V30 358 C 32.7273 -5.1605 2.68454 0
M  V30 359 N 31.7033 -5.06875 1.96414 0
M  V30 360 H 35.5053 -2.54659 1.46717 0
M  V30 361 H 33.0193 -1.35423 0.896345 0
M  V30 362 H 35.0163 -4.14927 -0.405068 0
M  V30 363 H 33.6763 -3.10549 -0.948118 0
M  V30 364 H 34.6873 -4.56304 2.44963 0
M  V30 365 H 31.3643 -4.17377 -0.101507 0
M  V30 366 H 32.7543 -5.6287 3.66915 0
M  V30 367 N 35.4744 -0.807222 -1.35358 0
M  V30 368 C 36.7234 -0.384376 -1.98004 0
M  V30 369 C 37.0364 1.0543 -1.64754 0
M  V30 370 O 38.2424 1.58029 -2.20769 0
M  V30 371 C 36.6984 -0.636326 -3.5423 0
M  V30 372 C 36.3064 -2.08759 -3.96388 0
M  V30 373 C 38.0504 -0.278869 -4.23583 0
M  V30 374 C 35.9574 -2.28525 -5.45463 0
M  V30 375 H 34.8874 -0.139986 -0.740891 0
M  V30 376 H 37.5384 -0.991369 -1.54415 0
M  V30 377 H 35.9204 0.0406256 -3.95979 0
M  V30 378 H 37.0944 -2.8024 -3.6579 0
M  V30 379 H 35.4094 -2.40497 -3.39926 0
M  V30 380 H 38.0064 -0.404599 -5.33167 0
M  V30 381 H 38.3494 0.775012 -4.09022 0
M  V30 382 H 38.8824 -0.909764 -3.87257 0
M  V30 383 H 35.6214 -3.32361 -5.64992 0
M  V30 384 H 35.1414 -1.61569 -5.77629 0
M  V30 385 H 36.8204 -2.10109 -6.11934 0
M  V30 386 N 36.9525 1.47285 -0.560781 0
M  V30 387 C 37.9155 2.28535 0.174488 0
M  V30 388 C 38.9155 1.37153 0.839388 0
M  V30 389 O 40.1055 1.59748 0.694702 0
M  V30 390 C 37.2375 3.16934 1.25561 0
M  V30 391 H 38.4305 2.95012 -0.539262 0
M  V30 392 H 35.9835 1.53034 -0.317865 0
M  V30 393 H 36.7185 2.55157 2.00164 0
M  V30 394 H 36.5035 3.8419 0.783604 0
M  V30 395 H 37.9935 3.78143 1.77193 0
M  V30 396 N 38.4306 0.297415 1.54768 0
M  V30 397 C 39.8466 -0.0560823 1.59501 0
M  V30 398 C 40.0466 -1.52725 1.31444 0
M  V30 399 O 39.1026 -2.27947 1.08611 0
M  V30 400 C 40.4156 0.338631 2.98787 0
M  V30 401 C 41.9636 0.287097 3.11681 0
M  V30 402 C 42.4386 0.656579 4.53269 0
M  V30 403 N 43.9296 0.608977 4.59179 0
M  V30 404 C 44.6646 0.867385 5.66802 0
M  V30 405 N 44.1606 1.19157 6.82476 0
M  V30 406 N 45.9536 0.794687 5.56454 0
M  V30 407 H 38.1046 1.25624 1.71267 0
M  V30 408 H 40.3676 0.509057 0.799728 0
M  V30 409 H 40.0736 1.36263 3.2423 0
M  V30 410 H 39.9476 -0.309508 3.75928 0
M  V30 411 H 42.3346 -0.727649 2.85988 0
M  V30 412 H 42.4156 0.969809 2.36703 0
M  V30 413 H 42.0596 1.66912 4.7969 0
M  V30 414 H 41.9896 -0.0481649 5.26578 0
M  V30 415 H 44.4806 0.369198 3.76092 0
M  V30 416 H 44.7936 1.37482 7.60473 0
M  V30 417 H 43.1386 1.22958 6.84037 0
M  V30 418 H 46.3296 0.541098 4.64962 0
M  V30 419 H 46.5026 0.999445 6.40246 0
M  V30 420 N 39.9087 -1.5758 0.0250728 0
M  V30 421 C 41.1547 -1.91917 -0.655413 0
M  V30 422 C 41.4877 -0.901433 -1.72011 0
M  V30 423 O 40.7627 0.0764069 -1.9435 0
M  V30 424 C 41.0457 -3.36751 -1.27558 0
M  V30 425 C 40.8987 -4.49258 -0.220719 0
M  V30 426 C 42.2177 -3.81469 -2.19475 0
M  V30 427 H 39.3367 -0.697925 -0.23679 0
M  V30 428 H 41.9787 -1.89825 0.0815036 0
M  V30 429 H 40.1287 -3.38664 -1.90365 0
M  V30 430 H 41.8007 -4.59478 0.409601 0
M  V30 431 H 40.0437 -4.31415 0.454264 0
M  V30 432 H 40.7147 -5.47618 -0.694175 0
M  V30 433 H 43.1907 -3.81266 -1.66659 0
M  V30 434 H 42.0667 -4.83512 -2.59822 0
M  V30 435 H 42.3277 -3.16744 -3.08424 0
M  V30 436 N 41.3868 0.248026 -1.55636 0
M  V30 437 C 42.3498 1.29044 -1.89421 0
M  V30 438 C 43.3498 1.41134 -0.770581 0
M  V30 439 O 44.5398 1.39854 -1.03858 0
M  V30 440 C 41.6718 2.66831 -2.12165 0
M  V30 441 H 42.8648 1.00305 -2.82629 0
M  V30 442 H 40.4178 0.487265 -1.48511 0
M  V30 443 H 41.1528 3.00711 -1.21422 0
M  V30 444 H 40.9378 2.59438 -2.93997 0
M  V30 445 H 42.4278 3.42103 -2.3949 0
M  V30 446 N 42.8649 1.48995 0.513639 0
M  V30 447 C 43.7969 1.60836 1.63293 0
M  V30 448 C 44.8099 0.491701 1.55197 0
M  V30 449 O 45.9989 0.763238 1.6136 0
M  V30 450 C 43.0989 1.53731 3.02027 0
M  V30 451 C 42.2719 2.80715 3.35437 0
M  V30 452 C 41.3309 2.66837 4.53525 0
M  V30 453 O 40.3569 3.40753 4.55934 0
M  V30 454 N 41.5589 1.77539 5.52684 0
M  V30 455 H 44.3239 2.57366 1.53566 0
M  V30 456 H 41.8849 1.45925 0.701259 0
M  V30 457 H 43.8769 1.42118 3.78926 0
M  V30 458 H 42.4469 0.651092 3.05744 0
M  V30 459 H 41.6669 3.06772 2.47557 0
M  V30 460 H 42.9549 3.64927 3.54551 0
M  V30 461 H 42.3529 1.16719 5.53528 0
M  V30 462 H 40.9099 1.71856 6.28736 0
M  V30 463 N 44.343 -0.763751 1.37857 0
M  V30 464 C 45.253 -1.90817 1.36478 0
M  V30 465 C 46.269 -1.71997 0.263248 0
M  V30 466 O 47.445 -1.95095 0.499979 0
M  V30 467 C 44.51 -3.2605 1.17864 0
M  V30 468 C 43.571 -3.57467 2.3773 0
M  V30 469 C 42.804 -4.86249 2.19995 0
M  V30 470 O 43.027 -5.57884 1.18836 0
M  V30 471 O 41.961 -5.16911 3.08361 0
M  V30 472 H 45.787 -1.94933 2.32884 0
M  V30 473 H 43.372 -0.907619 1.1867 0
M  V30 474 H 45.254 -4.06924 1.09504 0
M  V30 475 H 43.929 -3.22769 0.245372 0
M  V30 476 H 42.836 -2.76796 2.51664 0
M  V30 477 H 44.169 -3.655 3.29652 0
M  V30 478 N 45.8211 -1.22559 -0.990812 0
M  V30 479 C 46.7531 -0.955325 -2.08342 0
M  V30 480 C 47.7661 0.0668408 -1.62663 0
M  V30 481 O 48.9551 -0.167421 -1.77713 0
M  V30 482 C 46.0551 -0.415566 -3.36342 0
M  V30 483 C 45.2281 -1.49544 -4.11042 0
M  V30 484 C 44.2871 -0.962399 -5.17324 0
M  V30 485 O 43.3131 -1.64907 -5.44788 0
M  V30 486 N 44.5151 0.215134 -5.80101 0
M  V30 487 H 47.2801 -1.89596 -2.32106 0
M  V30 488 H 44.8411 -1.13276 -1.15673 0
M  V30 489 H 46.8331 -0.0442386 -4.04676 0
M  V30 490 H 45.4031 0.430232 -3.09625 0
M  V30 491 H 44.6231 -2.04 -3.37309 0
M  V30 492 H 45.9111 -2.22195 -4.57719 0
M  V30 493 H 45.3091 0.789779 -5.6016 0
M  V30 494 H 43.8661 0.527826 -6.49659 0
M  V30 495 N 47.2992 1.18797 -1.03562 0
M  V30 496 C 48.5472 1.88278 -0.734569 0
M  V30 497 C 48.8682 1.8043 0.739586 0
M  V30 498 O 48.1382 1.21925 1.53333 0
M  V30 499 H 46.7182 0.696991 -0.268725 0
M  V30 500 H 49.3802 1.44192 -1.31129 0
M  V30 501 H 48.4762 2.94443 -1.03489 0
M  V30 502 N 48.7773 0.814389 1.34928 0
M  V30 503 C 49.7403 0.235759 2.27984 0
M  V30 504 C 50.7403 -0.581412 1.49921 0
M  V30 505 O 51.9303 -0.398758 1.69575 0
M  V30 506 C 49.0623 -0.670433 3.34242 0
M  V30 507 H 50.2553 1.05659 2.80671 0
M  V30 508 H 47.8083 0.585614 1.44915 0
M  V30 509 H 48.5433 -1.51466 2.86755 0
M  V30 510 H 48.3283 -0.0860822 3.92005 0
M  V30 511 H 49.8183 -1.06935 4.03676 0
M  V30 512 N 50.2554 -1.46986 0.568584 0
M  V30 513 C 51.1874 -2.28233 -0.210337 0
M  V30 514 C 52.2004 -1.37682 -0.868767 0
M  V30 515 O 53.3894 -1.62406 -0.740705 0
M  V30 516 C 50.4894 -3.12293 -1.3163 0
M  V30 517 C 49.6624 -4.30878 -0.7525 0
M  V30 518 C 48.7214 -4.96445 -1.74439 0
M  V30 519 O 47.7474 -5.54482 -1.286 0
M  V30 520 N 48.9494 -4.92171 -3.07812 0
M  V30 521 H 51.7144 -2.95723 0.486648 0
M  V30 522 H 49.2754 -1.56742 0.405409 0
M  V30 523 H 51.2674 -3.53022 -1.97883 0
M  V30 524 H 49.8374 -2.46971 -1.91636 0
M  V30 525 H 49.0574 -3.94104 0.0871128 0
M  V30 526 H 50.3454 -5.07558 -0.35536 0
M  V30 527 H 49.7434 -4.46239 -3.47688 0
M  V30 528 H 48.3004 -5.36884 -3.69592 0
M  V30 529 N 51.7335 -0.305618 -1.54608 0
M  V30 530 C 52.6635 0.561482 -2.26649 0
M  V30 531 C 53.6445 1.13415 -1.26772 0
M  V30 532 O 54.8295 1.16262 -1.55553 0
M  V30 533 C 51.9595 1.73122 -3.01075 0
M  V30 534 C 50.9135 1.2887 -4.08138 0
M  V30 535 C 50.2395 2.54396 -4.70305 0
M  V30 536 C 51.5395 0.416578 -5.20636 0
M  V30 537 H 53.2335 -0.0393902 -2.99374 0
M  V30 538 H 50.7795 -0.020385 -1.43986 0
M  V30 539 H 52.7325 2.34396 -3.50195 0
M  V30 540 H 51.4565 2.3584 -2.25936 0
M  V30 541 H 50.1155 0.698991 -3.59875 0
M  V30 542 H 49.7635 3.15439 -3.918 0
M  V30 543 H 49.4635 2.25486 -5.42614 0
M  V30 544 H 50.9875 3.16464 -5.2219 0
M  V30 545 H 52.4015 0.935116 -5.65622 0
M  V30 546 H 50.7985 0.221046 -5.99693 0
M  V30 547 H 51.8685 -0.557162 -4.81688 0
M  V30 548 N 53.2116 1.57565 -0.0334293 0
M  V30 549 C 54.4576 1.92262 0.645226 0
M  V30 550 C 54.7906 0.910543 1.71531 0
M  V30 551 O 54.0656 -0.066099 1.94388 0
M  V30 552 C 54.3486 3.37422 1.2577 0
M  V30 553 C 54.2016 4.49369 0.196891 0
M  V30 554 C 55.5206 3.82628 2.17449 0
M  V30 555 H 52.6396 0.699171 0.233085 0
M  V30 556 H 55.2816 1.89779 -0.0915694 0
M  V30 557 H 53.4316 3.39669 1.88566 0
M  V30 558 H 55.1036 4.59254 -0.433962 0
M  V30 559 H 53.3466 4.31168 -0.477137 0
M  V30 560 H 54.0176 5.47978 0.665124 0
M  V30 561 H 56.4936 3.82145 1.64634 0
M  V30 562 H 55.3696 4.84883 2.57254 0
M  V30 563 H 55.6306 3.18376 3.0674 0
M  V30 564 N 54.6897 -0.239769 1.55765 0
M  V30 565 C 55.6197 -1.30052 1.9393 0
M  V30 566 C 56.6007 -1.49839 0.805132 0
M  V30 567 O 57.7857 -1.62328 1.06599 0
M  V30 568 C 54.9157 -2.65391 2.2402 0
M  V30 569 C 53.8697 -2.60289 3.39755 0
M  V30 570 C 53.1957 -3.99489 3.55405 0
M  V30 571 C 54.4957 -2.16654 4.75246 0
M  V30 572 H 56.1897 -0.983573 2.82783 0
M  V30 573 H 53.7357 -0.471701 1.36055 0
M  V30 574 H 55.6887 -3.3974 2.49308 0
M  V30 575 H 54.4127 -2.98736 1.32 0
M  V30 576 H 53.0717 -1.88398 3.14487 0
M  V30 577 H 52.7197 -4.30112 2.60793 0
M  V30 578 H 52.4197 -3.96962 4.33238 0
M  V30 579 H 53.9437 -4.75528 3.83022 0
M  V30 580 H 55.3577 -2.80737 4.99859 0
M  V30 581 H 53.7547 -2.25223 5.56232 0
M  V30 582 H 54.8247 -1.11835 4.71827 0
M  V30 583 N 56.1678 -1.49265 -0.50573 0
M  V30 584 C 57.3958 -1.62215 -1.28429 0
M  V30 585 C 57.8108 -0.291697 -1.86533 0
M  V30 586 O 57.1678 0.722233 -1.67601 0
M  V30 587 C 57.2188 -2.68735 -2.41793 0
M  V30 588 O 56.9398 -3.96619 -1.86078 0
M  V30 589 C 58.4408 -2.92346 -3.3324 0
M  V30 590 H 55.6608 -0.546239 -0.389697 0
M  V30 591 H 58.2048 -1.95265 -0.607609 0
M  V30 592 H 56.3598 -2.38476 -3.053 0
M  V30 593 H 56.7738 -4.55256 -2.60465 0
M  V30 594 H 58.2478 -3.70623 -4.09075 0
M  V30 595 H 58.7248 -2.02081 -3.89948 0
M  V30 596 H 59.3308 -3.24003 -2.75503 0
M  V30 597 N 57.6459 0.756429 -1.3826 0
M  V30 598 C 58.8939 1.51248 -1.34047 0
M  V30 599 C 59.2149 1.94875 0.0698372 0
M  V30 600 O 58.4849 1.67436 1.01696 0
M  V30 601 H 57.0649 0.561018 -0.493222 0
M  V30 602 H 59.7269 0.899347 -1.7291 0
M  V30 603 H 58.8229 2.40472 -1.98947 0
M  V30 604 N 59.124 1.23083 0.984299 0
M  V30 605 C 60.371 1.06057 1.72505 0
M  V30 606 C 60.699 -0.403105 1.90277 0
M  V30 607 O 59.954 -1.3149 1.44944 0
M  V30 608 C 60.253 1.72673 3.1292 0
M  V30 609 C 59.919 3.22586 3.15038 0
M  V30 610 C 58.581 3.63489 3.15324 0
M  V30 611 C 60.933 4.185 3.10657 0
M  V30 612 C 58.261 4.98772 3.08939 0
M  V30 613 C 60.613 5.53769 3.05814 0
M  V30 614 C 59.277 5.94041 3.04419 0
M  V30 615 H 58.547 0.388091 0.631242 0
M  V30 616 H 61.194 1.52963 1.15215 0
M  V30 617 H 59.499 1.18116 3.73572 0
M  V30 618 H 61.196 1.56982 3.68996 0
M  V30 619 H 57.786 2.90022 3.15571 0
M  V30 620 H 61.97 3.87911 3.09579 0
M  V30 621 H 57.226 5.29193 3.0621 0
M  V30 622 H 61.4 6.27808 3.0138 0
M  V30 623 H 59.027 6.98833 2.99227 0
M  V30 624 N 60.6021 -1.18246 1.0419 0
M  V30 625 C 61.8791 -1.84121 0.660208 0
M  V30 626 C 62.2591 -1.92778 -0.860221 0
M  V30 627 O 61.6071 -1.45464 -1.76217 0
M  V30 628 C 61.8171 -3.22355 1.33747 0
M  V30 629 C 63.1651 -3.98376 1.46906 0
M  V30 630 O 64.1891 -3.31799 1.29568 0
M  V30 631 O 63.0481 -5.17665 1.75171 0
M  V30 632 H 60.1421 -0.794036 0.231161 0
M  V30 633 H 62.6881 -1.25628 1.14087 0
M  V30 634 H 61.4601 -3.10964 2.37522 0
M  V30 635 H 61.0831 -3.88506 0.845515 0
M  V30 636 N 62.0802 -0.821533 -1.34494 0
M  V30 637 C 63.4962 -0.507117 -1.51329 0
M  V30 638 C 63.6962 0.968964 -1.76673 0
M  V30 639 O 62.7522 1.75348 -1.81685 0
M  V30 640 C 64.0652 -1.36544 -2.67911 0
M  V30 641 C 65.6132 -1.36242 -2.81793 0
M  V30 642 C 66.0882 -2.2052 -4.01416 0
M  V30 643 N 67.5792 -2.18136 -4.08621 0
M  V30 644 C 68.3142 -2.80095 -5.00334 0
M  V30 645 N 67.8102 -3.51039 -5.9728 0
M  V30 646 N 69.6032 -2.69656 -4.93196 0
M  V30 647 H 61.7542 -1.77729 -1.16302 0
M  V30 648 H 64.0172 -0.757291 -0.570276 0
M  V30 649 H 63.7232 -2.41361 -2.55808 0
M  V30 650 H 63.5972 -1.02917 -3.62888 0
M  V30 651 H 65.9842 -0.322041 -2.93338 0
M  V30 652 H 66.0652 -1.73866 -1.87628 0
M  V30 653 H 65.7092 -3.24607 -3.90631 0
M  V30 654 H 65.6392 -1.80247 -4.94791 0
M  V30 655 H 68.1302 -1.6653 -3.39229 0
M  V30 656 H 68.4432 -3.95565 -6.63889 0
M  V30 657 H 66.7882 -3.55145 -5.97409 0
M  V30 658 H 69.9792 -2.13808 -4.16418 0
M  V30 659 H 70.1522 -3.1823 -5.64476 0
M  V30 660 N 63.5583 1.46682 -0.576371 0
M  V30 661 C 64.4883 2.33028 0.148397 0
M  V30 662 C 65.4693 1.44961 0.889956 0
M  V30 663 O 66.6543 1.73789 0.866662 0
M  V30 664 C 63.7843 3.27117 1.1667 0
M  V30 665 C 62.7383 4.24575 0.540386 0
M  V30 666 C 62.0643 5.08126 1.6647 0
M  V30 667 C 63.3643 5.19722 -0.518331 0
M  V30 668 H 65.0583 2.93875 -0.572509 0
M  V30 669 H 62.6043 1.41315 -0.276768 0
M  V30 670 H 64.5573 3.86374 1.68204 0
M  V30 671 H 63.2813 2.64364 1.9178 0
M  V30 672 H 61.9403 3.66571 0.0461769 0
M  V30 673 H 61.5883 4.41762 2.40531 0
M  V30 674 H 61.2883 5.74122 1.25131 0
M  V30 675 H 62.8123 5.70246 2.18293 0
M  V30 676 H 64.2263 5.73232 -0.0883058 0
M  V30 677 H 62.6233 5.94026 -0.851679 0
M  V30 678 H 63.6933 4.64037 -1.40703 0
M  V30 679 N 65.0364 0.313813 1.54444 0
M  V30 680 C 66.4524 -0.0391619 1.59552 0
M  V30 681 C 66.6524 -1.51322 1.33056 0
M  V30 682 O 65.7084 -2.26782 1.11022 0
M  V30 683 C 67.0214 0.370302 2.98411 0
M  V30 684 C 68.5694 0.320139 3.11358 0
M  V30 685 C 69.0444 0.704617 4.52547 0
M  V30 686 N 70.5354 0.657645 4.58508 0
M  V30 687 C 71.2704 0.927453 5.6585 0
M  V30 688 N 70.7664 1.26389 6.81174 0
M  V30 689 N 72.5594 0.853662 5.5558 0
M  V30 690 H 64.7104 1.27433 1.69925 0
M  V30 691 H 66.9734 0.517511 0.794284 0
M  V30 692 H 66.6794 1.39694 3.22767 0
M  V30 693 H 66.5534 -0.269619 3.76235 0
M  V30 694 H 68.9404 -0.697275 2.86744 0
M  V30 695 H 69.0214 0.99486 2.35661 0
M  V30 696 H 68.6654 1.7199 4.77893 0
M  V30 697 H 68.5954 0.00768843 5.26599 0
M  V30 698 H 71.0864 0.409067 3.75679 0
M  V30 699 H 71.3994 1.4554 7.58972 0
M  V30 700 H 69.7444 1.30206 6.82694 0
M  V30 701 H 72.9354 0.590383 4.64362 0
M  V30 702 H 73.1084 1.0673 6.3915 0
M  V30 703 N 66.5145 -1.57545 0.0417849 0
M  V30 704 C 67.4445 -2.14009 -0.933929 0
M  V30 705 C 68.4255 -1.05938 -1.33083 0
M  V30 706 O 69.6105 -1.33833 -1.40721 0
M  V30 707 C 66.7405 -2.67747 -2.21199 0
M  V30 708 C 65.6945 -3.80718 -1.95544 0
M  V30 709 C 65.0205 -4.20935 -3.29724 0
M  V30 710 C 66.3205 -5.06258 -1.28452 0
M  V30 711 H 68.0145 -2.95788 -0.463645 0
M  V30 712 H 65.5605 -1.42285 -0.221573 0
M  V30 713 H 67.5135 -3.05886 -2.89848 0
M  V30 714 H 66.2375 -1.83147 -2.70416 0
M  V30 715 H 64.8965 -3.43037 -1.2931 0
M  V30 716 H 64.5445 -3.33298 -3.76724 0
M  V30 717 H 64.2445 -4.9707 -3.13361 0
M  V30 718 H 65.7685 -4.61666 -3.9962 0
M  V30 719 H 67.1825 -5.41903 -1.8712 0
M  V30 720 H 65.5795 -5.87475 -1.22445 0
M  V30 721 H 66.6495 -4.84207 -0.259219 0
M  V30 722 N 67.9926 0.231505 -1.5589 0
M  V30 723 C 69.2416 0.955346 -1.7764 0
M  V30 724 C 69.5546 1.85893 -0.608546 0
M  V30 725 O 70.7606 2.62067 -0.70943 0
M  V30 726 C 69.2166 1.74886 -3.14552 0
M  V30 727 C 68.8246 0.891915 -4.39032 0
M  V30 728 C 70.5686 2.46452 -3.45633 0
M  V30 729 C 68.4756 1.68221 -5.66971 0
M  V30 730 H 67.4056 0.360446 -0.662265 0
M  V30 731 H 70.0566 0.209516 -1.823 0
M  V30 732 H 68.4386 2.53723 -3.04041 0
M  V30 733 H 69.6126 0.144793 -4.60572 0
M  V30 734 H 67.9276 0.288863 -4.15397 0
M  V30 735 H 70.5246 3.06061 -4.38441 0
M  V30 736 H 70.8676 3.18841 -2.67668 0
M  V30 737 H 71.4006 1.74613 -3.57428 0
M  V30 738 H 68.1396 1.00178 -6.478 0
M  V30 739 H 67.6596 2.4042 -5.49507 0
M  V30 740 H 69.3386 2.24544 -6.06786 0
M  V30 741 N 69.4707 1.49531 0.497807 0
M  V30 742 C 70.4027 1.62559 1.61578 0
M  V30 743 C 71.4157 0.508134 1.54667 0
M  V30 744 O 72.6047 0.780309 1.60541 0
M  V30 745 C 69.7047 1.56925 3.00379 0
M  V30 746 C 68.8777 2.84257 3.3244 0
M  V30 747 C 67.9367 2.71632 4.50669 0
M  V30 748 O 66.9627 3.4557 4.52294 0
M  V30 749 N 68.1647 1.83391 5.5077 0
M  V30 750 H 70.9297 2.58981 1.50828 0
M  V30 751 H 68.4907 1.4666 0.685743 0
M  V30 752 H 70.4827 1.46129 3.77397 0
M  V30 753 H 69.0527 0.683483 3.05037 0
M  V30 754 H 68.2727 3.09381 2.44289 0
M  V30 755 H 69.5607 3.68666 3.5066 0
M  V30 756 H 68.9587 1.22583 5.52259 0
M  V30 757 H 67.5157 1.78515 6.26878 0
M  V30 758 N 70.9488 -0.749086 1.3866 0
M  V30 759 C 72.3648 -1.05276 1.19955 0
M  V30 760 C 72.5648 -2.01435 0.05134 0
M  V30 761 O 71.6208 -2.45232 -0.60147 0
M  V30 762 C 72.9338 -1.62853 2.52783 0
M  V30 763 C 74.4818 -1.75002 2.59506 0
M  V30 764 C 74.9568 -2.35991 3.92521 0
M  V30 765 N 76.4478 -2.43416 3.94085 0
M  V30 766 C 77.1828 -2.91511 4.9377 0
M  V30 767 N 76.6788 -3.39608 6.03853 0
M  V30 768 N 78.4718 -2.90592 4.81157 0
M  V30 769 H 70.6228 -0.111066 2.12109 0
M  V30 770 H 72.8858 -0.111901 0.941373 0
M  V30 771 H 72.5918 -0.99664 3.37283 0
M  V30 772 H 72.4658 -2.61854 2.715 0
M  V30 773 H 74.8528 -2.37317 1.75398 0
M  V30 774 H 74.9338 -0.74693 2.44652 0
M  V30 775 H 74.5778 -1.74308 4.77053 0
M  V30 776 H 74.5078 -3.3695 4.04688 0
M  V30 777 H 76.9988 -2.09405 3.14576 0
M  V30 778 H 77.3118 -3.74775 6.75843 0
M  V30 779 H 75.6568 -3.37653 6.07466 0
M  V30 780 H 78.8478 -2.52332 3.94267 0
M  V30 781 H 79.0208 -3.27762 5.58996 0
M  V30 782 N 72.4269 -1.23603 -0.977757 0
M  V30 783 C 73.6759 -1.06377 -1.71368 0
M  V30 784 C 73.9889 0.399062 -1.91486 0
M  V30 785 O 75.1949 0.691312 -2.62551 0
M  V30 786 C 73.6509 -1.85512 -3.08404 0
M  V30 787 C 73.2589 -3.36141 -2.96164 0
M  V30 788 C 75.0029 -1.76783 -3.85938 0
M  V30 789 C 72.9099 -4.07659 -4.28449 0
M  V30 790 H 71.8399 -0.394452 -0.642591 0
M  V30 791 H 74.4909 -1.47594 -1.09034 0
M  V30 792 H 72.8729 -1.37103 -3.71509 0
M  V30 793 H 74.0469 -3.92056 -2.42133 0
M  V30 794 H 72.3619 -3.45712 -2.32104 0
M  V30 795 H 74.9589 -2.27526 -4.83876 0
M  V30 796 H 75.3019 -0.731116 -4.0983 0
M  V30 797 H 75.8349 -2.22818 -3.2954 0
M  V30 798 H 72.5739 -5.11648 -4.09752 0
M  V30 799 H 72.0939 -3.5653 -4.82334 0
M  V30 800 H 73.7729 -4.141 -4.97122 0
M  V30 801 N 73.905 1.17692 -1.04816 0
M  V30 802 C 75.133 1.91786 -0.776254 0
M  V30 803 C 75.548 1.76604 0.667577 0
M  V30 804 O 74.905 1.10067 1.45573 0
M  V30 805 C 74.956 3.42967 -1.14263 0
M  V30 806 O 74.677 3.57678 -2.52978 0
M  V30 807 C 76.178 4.34144 -0.896311 0
M  V30 808 H 73.398 0.608624 -0.282519 0
M  V30 809 H 75.942 1.49268 -1.39783 0
M  V30 810 H 74.097 3.83245 -0.565874 0
M  V30 811 H 74.511 4.51319 -2.67229 0
M  V30 812 H 75.985 5.38744 -1.20244 0
M  V30 813 H 76.462 4.38876 0.168636 0
M  V30 814 H 77.068 3.99574 -1.45672 0
M  V30 815 N 75.3831 0.828654 1.34056 0
M  V30 816 C 76.6601 0.341809 1.9259 0
M  V30 817 C 77.0401 -1.17158 1.75605 0
M  V30 818 O 76.3881 -1.98132 1.13824 0
M  V30 819 C 76.5981 0.777453 3.4023 0
M  V30 820 C 77.9461 0.779579 4.17382 0
M  V30 821 O 78.9701 0.7204 3.48839 0
M  V30 822 O 77.8291 0.857996 5.39723 0
M  V30 823 H 74.9231 0.0946085 0.821571 0
M  V30 824 H 77.4691 0.913827 1.42994 0
M  V30 825 H 76.2411 1.8196 3.46419 0
M  V30 826 H 75.8641 0.181444 3.97186 0
M  V30 827 N 76.8612 -1.46375 0.584142 0
M  V30 828 C 78.2772 -1.57694 0.245929 0
M  V30 829 C 78.4772 -1.57903 -1.25175 0
M  V30 830 O 77.5332 -1.49676 -2.03355 0
M  V30 831 C 78.8462 -2.87028 0.896402 0
M  V30 832 C 80.3942 -3.00662 0.870127 0
M  V30 833 C 80.8692 -4.32734 1.50017 0
M  V30 834 N 82.3602 -4.39436 1.46458 0
M  V30 835 C 83.0952 -5.40248 1.92144 0
M  V30 836 N 82.5912 -6.47726 2.4581 0
M  V30 837 N 84.3842 -5.31459 1.83052 0
M  V30 838 H 76.5352 -1.44483 1.55687 0
M  V30 839 H 78.7982 -0.689291 0.650831 0
M  V30 840 H 78.5042 -2.9269 1.95002 0
M  V30 841 H 78.3782 -3.75014 0.405486 0
M  V30 842 H 80.7652 -2.94581 -0.174871 0
M  V30 843 H 80.8462 -2.14148 1.39908 0
M  V30 844 H 80.4902 -4.39573 2.54437 0
M  V30 845 H 80.4202 -5.18025 0.946432 0
M  V30 846 H 82.9112 -3.62367 1.07231 0
M  V30 847 H 83.2242 -7.20863 2.78525 0
M  V30 848 H 81.5692 -6.48542 2.49836 0
M  V30 849 H 84.7602 -4.46396 1.40883 0
M  V30 850 H 84.9332 -6.09881 2.18973 0
M  V30 851 N 78.3393 -0.321999 -1.54275 0
M  V30 852 C 79.2693 0.537411 -2.27231 0
M  V30 853 C 80.2503 1.12064 -1.27968 0
M  V30 854 O 81.4353 1.14606 -1.56777 0
M  V30 855 C 78.5653 1.69919 -3.02894 0
M  V30 856 C 77.5193 1.24534 -4.09482 0
M  V30 857 C 76.8453 2.49394 -4.72977 0
M  V30 858 C 78.1453 0.361335 -5.21049 0
M  V30 859 H 79.8393 -0.0711406 -2.99315 0
M  V30 860 H 77.3853 -0.0356555 -1.43956 0
M  V30 861 H 79.3383 2.30668 -3.52662 0
M  V30 862 H 78.0623 2.33431 -2.28424 0
M  V30 863 H 76.7213 0.660782 -3.60596 0
M  V30 864 H 76.3693 3.11265 -3.95124 0
M  V30 865 H 76.0693 2.19718 -5.44975 0
M  V30 866 H 77.5933 3.10908 -5.25517 0
M  V30 867 H 79.0073 0.875072 -5.66582 0
M  V30 868 H 77.4043 0.157428 -5.99893 0
M  V30 869 H 78.4743 -0.60822 -4.8107 0
M  V30 870 N 79.8174 1.5752 -0.0501392 0
M  V30 871 C 81.2284 1.80271 0.485705 0
M  V30 872 C 81.5794 0.96228 1.70981 0
M  V30 873 O 80.7044 0.178578 2.15662 0
M  V30 874 C 81.2994 3.26957 0.887938 0
M  V30 875 C 79.8584 3.5063 1.36877 0
M  V30 876 C 79.0054 2.75165 0.343468 0
M  V30 877 H 81.9564 1.56281 -0.276028 0
M  V30 878 H 81.9774 3.37821 1.75093 0
M  V30 879 H 81.4894 3.881 -0.0031809 0
M  V30 880 H 79.5904 2.94766 2.27911 0
M  V30 881 H 79.7034 4.59343 1.36164 0
M  V30 882 H 78.0674 2.4127 0.816128 0
M  V30 883 H 78.8504 3.39034 -0.539548 0
M  V30 884 N 81.2955 -0.223234 1.56011 0
M  V30 885 C 82.2585 -1.26014 1.9145 0
M  V30 886 C 83.2585 -1.3989 0.792937 0
M  V30 887 O 84.4485 -1.38184 1.0607 0
M  V30 888 C 81.5805 -2.63422 2.16383 0
M  V30 889 H 82.7735 -0.95796 2.84189 0
M  V30 890 H 80.3265 -0.463576 1.49267 0
M  V30 891 H 81.0615 -2.98741 1.2619 0
M  V30 892 H 80.8465 -2.54728 2.98088 0
M  V30 893 H 82.3365 -3.38249 2.44903 0
M  V30 894 N 82.7736 -1.49793 -0.48987 0
M  V30 895 C 83.7206 -1.67281 -1.59014 0
M  V30 896 C 84.6906 -0.514177 -1.57941 0
M  V30 897 O 85.8756 -0.742533 -1.75759 0
M  V30 898 C 83.0156 -1.75569 -2.97102 0
M  V30 899 C 82.1286 -3.0281 -3.08107 0
M  V30 900 C 81.2636 -3.02008 -4.36995 0
M  V30 901 C 80.3026 -4.23782 -4.41673 0
M  V30 902 N 79.4396 -4.20826 -5.62005 0
M  V30 903 H 84.2796 -2.61224 -1.43409 0
M  V30 904 H 81.8166 -1.29508 -0.697565 0
M  V30 905 H 83.7746 -1.78354 -3.77155 0
M  V30 906 H 82.4046 -0.850827 -3.11385 0
M  V30 907 H 81.4566 -3.09584 -2.21047 0
M  V30 908 H 82.7686 -3.92801 -3.07423 0
M  V30 909 H 81.9226 -3.03418 -5.25378 0
M  V30 910 H 80.6616 -2.09815 -4.4026 0
M  V30 911 H 79.6666 -4.22604 -3.5169 0
M  V30 912 H 80.8916 -5.17181 -4.40115 0
M  V30 913 H 78.8376 -3.31476 -5.66091 0
M  V30 914 H 78.7546 -5.04564 -5.62984 0
M  V30 915 H 80.0226 -4.26355 -6.52565 0
M  V30 916 N 84.2517 0.741722 -1.39055 0
M  V30 917 C 85.2147 1.83733 -1.37021 0
M  V30 918 C 86.2147 1.58542 -0.268534 0
M  V30 919 O 87.4047 1.66067 -0.526076 0
M  V30 920 C 84.5367 3.2141 -1.13617 0
M  V30 921 H 85.7297 1.86941 -2.34506 0
M  V30 922 H 83.2827 0.944676 -1.24521 0
M  V30 923 H 84.0177 3.23865 -0.167863 0
M  V30 924 H 83.8027 3.4109 -1.93391 0
M  V30 925 H 85.2927 4.01477 -1.14918 0
M  V30 926 N 85.7298 1.2412 0.971189 0
M  V30 927 C 87.1408 1.07236 1.52831 0
M  V30 928 C 87.4918 -0.357352 1.92918 0
M  V30 929 O 86.6168 -1.24528 1.76979 0
M  V30 930 C 87.2118 1.94043 2.77728 0
M  V30 931 C 85.7708 1.81394 3.29808 0
M  V30 932 C 84.9178 1.89189 2.02738 0
M  V30 933 H 87.8688 1.37648 0.789864 0
M  V30 934 H 87.8898 1.47066 3.5093 0
M  V30 935 H 87.4018 2.98093 2.4852 0
M  V30 936 H 85.5028 0.801634 3.63874 0
M  V30 937 H 85.6158 2.65294 3.98944 0
M  V30 938 H 83.9798 1.32877 2.17292 0
M  V30 939 H 84.7628 2.94812 1.759 0
M  V30 940 N 87.2079 -1.17134 1.05439 0
M  V30 941 C 88.1379 -2.2342 0.678649 0
M  V30 942 C 89.1189 -1.66971 -0.32476 0
M  V30 943 O 90.3039 -1.93149 -0.201802 0
M  V30 944 C 87.4339 -3.47256 0.0552099 0
M  V30 945 C 86.3879 -4.16543 0.98365 0
M  V30 946 C 85.7139 -5.34231 0.223961 0
M  V30 947 C 87.0139 -4.68495 2.3089 0
M  V30 948 H 88.7079 -2.55105 1.56722 0
M  V30 949 H 86.2539 -1.2262 0.754998 0
M  V30 950 H 88.2069 -4.20828 -0.21946 0
M  V30 951 H 86.9309 -3.14846 -0.868319 0
M  V30 952 H 85.5899 -3.44887 1.24293 0
M  V30 953 H 85.2379 -4.98071 -0.702412 0
M  V30 954 H 84.9379 -5.81527 0.842627 0
M  V30 955 H 86.4619 -6.10585 -0.0433671 0
M  V30 956 H 87.8759 -5.33691 2.09396 0
M  V30 957 H 86.2729 -5.26379 2.88176 0
M  V30 958 H 87.3429 -3.85169 2.94572 0
M  V30 959 N 88.686 -0.835752 -1.33615 0
M  V30 960 C 89.616 -0.281739 -2.31794 0
M  V30 961 C 90.597 0.608833 -1.58831 0
M  V30 962 O 91.782 0.533035 -1.86741 0
M  V30 963 C 88.912 0.546612 -3.42971 0
M  V30 964 C 87.866 -0.247904 -4.27281 0
M  V30 965 C 87.192 0.704001 -5.30045 0
M  V30 966 C 88.492 -1.46324 -5.01385 0
M  V30 967 H 90.186 -1.10206 -2.78379 0
M  V30 968 H 87.732 -0.531388 -1.33837 0
M  V30 969 H 89.685 0.944467 -4.1068 0
M  V30 970 H 88.409 1.40011 -2.95067 0
M  V30 971 H 87.068 -0.627281 -3.61194 0
M  V30 972 H 86.716 1.55381 -4.78399 0
M  V30 973 H 86.416 0.176524 -5.87335 0
M  V30 974 H 87.94 1.09944 -6.0062 0
M  V30 975 H 89.354 -1.13871 -5.61877 0
M  V30 976 H 87.751 -1.92728 -5.6831 0
M  V30 977 H 88.821 -2.23467 -4.30338 0
M  V30 978 N 90.1641 1.46063 -0.591896 0
M  V30 979 C 91.0741 2.34192 0.13831 0
M  V30 980 C 92.0901 1.50305 0.876608 0
M  V30 981 O 93.2661 1.8315 0.837728 0
M  V30 982 C 90.3311 3.27656 1.13326 0
M  V30 983 C 89.3921 4.27445 0.39863 0
M  V30 984 C 88.6251 5.16443 1.34618 0
M  V30 985 O 88.8481 5.08553 2.58321 0
M  V30 986 O 87.7821 5.95843 0.851768 0
M  V30 987 H 91.6081 2.98002 -0.58552 0
M  V30 988 H 89.1931 1.45188 -0.352239 0
M  V30 989 H 91.0751 3.85291 1.70671 0
M  V30 990 H 89.7501 2.6643 1.83839 0
M  V30 991 H 88.6571 3.73471 -0.216895 0
M  V30 992 H 89.9901 4.91482 -0.265709 0
M  V30 993 N 91.6422 0.330177 1.54103 0
M  V30 994 C 92.5722 -0.525353 2.27513 0
M  V30 995 C 93.5532 -1.11383 1.2856 0
M  V30 996 O 94.7382 -1.13773 1.57383 0
M  V30 997 C 91.8682 -1.6831 3.03791 0
M  V30 998 C 90.8222 -1.2236 4.10137 0
M  V30 999 C 90.1482 -2.46882 4.74293 0
M  V30 1000 C 91.4482 -0.333697 5.21233 0
M  V30 1001 H 93.1422 0.087013 2.99274 0
M  V30 1002 H 90.6882 0.0432893 1.43935 0
M  V30 1003 H 92.6412 -2.28795 3.5388 0
M  V30 1004 H 91.3652 -2.32216 2.29659 0
M  V30 1005 H 90.0242 -0.64165 3.60941 0
M  V30 1006 H 89.6722 -3.09165 3.96769 0
M  V30 1007 H 89.3722 -2.16825 5.46133 0
M  V30 1008 H 90.8962 -3.08117 5.27159 0
M  V30 1009 H 92.3102 -0.845013 5.67038 0
M  V30 1010 H 90.7072 -0.125612 5.99969 0
M  V30 1011 H 91.7772 0.633724 4.80741 0
M  V30 1012 N 93.1203 -1.57491 0.0584922 0
M  V30 1013 C 94.3973 -1.84346 -0.653918 0
M  V30 1014 C 94.7773 -0.948355 -1.88599 0
M  V30 1015 O 94.1253 -0.0112403 -2.28497 0
M  V30 1016 C 94.3353 -3.34239 -1.00425 0
M  V30 1017 C 95.6833 -4.01431 -1.38342 0
M  V30 1018 O 96.7073 -3.38907 -1.09637 0
M  V30 1019 O 95.5663 -5.11683 -1.91943 0
M  V30 1020 H 92.6603 -0.761112 -0.323478 0
M  V30 1021 H 95.2063 -1.6947 0.0884125 0
M  V30 1022 H 93.9783 -3.91089 -0.128625 0
M  V30 1023 H 93.6013 -3.54329 -1.80378 0
M  V30 1024 N 94.5984 0.214957 -1.56127 0
M  V30 1025 C 95.8444 0.939762 -1.79712 0
M  V30 1026 C 96.1774 1.83723 -0.629247 0
M  V30 1027 O 95.4524 1.90925 0.371197 0
M  V30 1028 C 95.7354 1.77306 -3.13424 0
M  V30 1029 C 95.5884 0.90164 -4.40671 0
M  V30 1030 C 96.9074 2.74956 -3.43638 0
M  V30 1031 H 94.0264 0.340214 -0.653776 0
M  V30 1032 H 96.6684 0.20824 -1.88855 0
M  V30 1033 H 94.8184 2.39673 -3.0576 0
M  V30 1034 H 96.4904 0.294206 -4.60361 0
M  V30 1035 H 94.7334 0.207368 -4.33304 0
M  V30 1036 H 95.4044 1.51923 -5.30682 0
M  V30 1037 H 97.8804 2.22724 -3.51473 0
M  V30 1038 H 96.7564 3.30358 -4.38355 0
M  V30 1039 H 97.0174 3.53023 -2.66134 0
M  V30 1040 N 96.0765 1.50051 0.48192 0
M  V30 1041 C 97.0085 1.64263 1.59844 0
M  V30 1042 C 98.0215 0.52451 1.54119 0
M  V30 1043 O 99.2105 0.797293 1.59704 0
M  V30 1044 C 96.3105 1.60102 2.98698 0
M  V30 1045 C 95.4835 2.87767 3.29407 0
M  V30 1046 C 94.5425 2.76397 4.47762 0
M  V30 1047 O 93.5685 3.50348 4.48603 0
M  V30 1048 N 94.7705 1.89222 5.48794 0
M  V30 1049 H 97.5355 2.60566 1.48073 0
M  V30 1050 H 95.0965 1.47379 0.670149 0
M  V30 1051 H 97.0885 1.50123 3.75826 0
M  V30 1052 H 95.6585 0.715798 3.04294 0
M  V30 1053 H 94.8785 3.11954 2.40994 0
M  V30 1054 H 96.1665 3.72365 3.4673 0
M  V30 1055 H 95.5645 1.28434 5.50928 0
M  V30 1056 H 94.1215 1.85154 6.24949 0
M  V30 1057 N 97.5546 -0.734337 1.39446 0
M  V30 1058 C 98.5026 -1.86971 1.38364 0
M  V30 1059 C 99.4966 -1.67288 0.266687 0
M  V30 1060 O 100.703 -1.74621 0.436755 0
M  V30 1061 H 97.0776 -0.615474 0.432082 0
M  V30 1062 H 99.0486 -1.85 2.34132 0
M  V30 1063 C 97.7976 -3.2466 1.24465 0
M  V30 1064 H 97.1206 -3.40402 2.09682 0
M  V30 1065 H 98.5606 -4.04292 1.27764 0
M  V30 1066 C 97.0196 -3.36867 -0.0468674 0
M  V30 1067 O 97.5496 -3.88618 -1.01681 0
M  V30 1068 N 95.7556 -2.90391 -0.110145 0
M  V30 1069 H 95.3026 -2.48466 0.679868 0
M  V30 1070 H 95.2606 -2.98939 -0.973799 0
M  V30 1071 N 99.0327 -1.24633 -0.964593 0
M  V30 1072 C 99.9427 -1.05859 -2.09359 0
M  V30 1073 C 100.959 0.00148855 -1.74 0
M  V30 1074 O 102.135 -0.197346 -2.00431 0
M  V30 1075 C 99.1997 -0.668879 -3.40187 0
M  V30 1076 C 98.2607 -1.80578 -3.89474 0
M  V30 1077 C 97.4937 -1.43457 -5.14058 0
M  V30 1078 O 97.7167 -0.325775 -5.69469 0
M  V30 1079 O 96.6507 -2.2613 -5.57807 0
M  V30 1080 H 100.477 -2.00516 -2.28094 0
M  V30 1081 H 98.0617 -1.03481 -1.0776 0
M  V30 1082 H 99.9437 -0.463211 -4.18846 0
M  V30 1083 H 98.6187 0.248536 -3.22744 0
M  V30 1084 H 97.5257 -2.06623 -3.11862 0
M  V30 1085 H 98.8587 -2.70208 -4.11398 0
M  V30 1086 N 100.511 1.16574 -1.06058 0
M  V30 1087 C 101.421 2.2452 -0.680282 0
M  V30 1088 C 102.437 1.71348 0.302604 0
M  V30 1089 O 103.613 2.00822 0.152513 0
M  V30 1090 C 100.678 3.46629 -0.0700315 0
M  V30 1091 C 99.7388 4.14849 -1.10448 0
M  V30 1092 C 98.9718 5.31129 -0.523256 0
M  V30 1093 O 99.1948 5.66514 0.664709 0
M  V30 1094 O 98.1288 5.88526 -1.26179 0
M  V30 1095 H 101.955 2.59355 -1.58015 0
M  V30 1096 H 99.5398 1.24043 -0.832694 0
M  V30 1097 H 101.422 4.20543 0.268667 0
M  V30 1098 H 100.097 3.13573 0.803353 0
M  V30 1099 H 99.0038 3.42916 -1.49532 0
M  V30 1100 H 100.337 4.51954 -1.94931 0
M  V30 1101 N 101.989 0.842826 1.3317 0
M  V30 1102 C 102.939 0.250877 2.26616 0
M  V30 1103 C 103.923 -0.596427 1.49437 0
M  V30 1104 O 105.115 -0.447747 1.71243 0
M  V30 1105 C 102.244 -0.569779 3.38539 0
M  V30 1106 C 101.33 0.289254 4.23112 0
M  V30 1107 N 101.721 1.36987 4.86897 0
M  V30 1108 C 100.019 0.0769631 4.45934 0
M  V30 1109 C 100.72 1.89737 5.49886 0
M  V30 1110 N 99.6959 1.19827 5.30229 0
M  V30 1111 H 103.498 1.07718 2.73448 0
M  V30 1112 H 101.012 0.687693 1.47121 0
M  V30 1113 H 103.009 -1.01018 4.04476 0
M  V30 1114 H 101.669 -1.39401 2.93253 0
M  V30 1115 H 102.68 1.75277 4.87338 0
M  V30 1116 H 99.3569 -0.713507 4.11358 0
M  V30 1117 H 100.747 2.80253 6.10662 0
M  V30 1118 N 103.467 -1.45747 0.599634 0
M  V30 1119 C 104.397 -2.33235 -0.111306 0
M  V30 1120 C 105.378 -1.46359 -0.866781 0
M  V30 1121 O 106.563 -1.75146 -0.838904 0
M  V30 1122 C 103.693 -3.28932 -1.11451 0
M  V30 1123 C 102.647 -4.25381 -0.472772 0
M  V30 1124 C 101.973 -5.1071 -1.58365 0
M  V30 1125 C 103.273 -5.18831 0.600948 0
M  V30 1126 H 104.967 -2.92927 0.61919 0
M  V30 1127 H 102.513 -1.40857 0.299215 0
M  V30 1128 H 104.466 -3.89002 -1.62036 0
M  V30 1129 H 103.19 -2.67381 -1.8755 0
M  V30 1130 H 101.849 -3.66598 0.0121472 0
M  V30 1131 H 101.497 -4.45533 -2.33473 0
M  V30 1132 H 101.197 -5.7604 -1.15982 0
M  V30 1133 H 102.721 -5.73647 -2.09194 0
M  V30 1134 H 104.135 -5.73019 0.179491 0
M  V30 1135 H 102.532 -5.92595 0.946076 0
M  V30 1136 H 103.602 -4.6174 1.48068 0
M  V30 1137 N 104.945 -0.338344 -1.53925 0
M  V30 1138 C 105.908 0.508299 -2.23493 0
M  V30 1139 C 106.908 1.03175 -1.23335 0
M  V30 1140 O 108.098 0.921826 -1.47811 0
M  V30 1141 C 105.23 1.70754 -2.95052 0
M  V30 1142 H 106.423 -0.100058 -2.99733 0
M  V30 1143 H 103.976 -0.0896198 -1.56043 0
M  V30 1144 H 104.711 2.35474 -2.22986 0
M  V30 1145 H 104.496 1.33946 -3.68512 0
M  V30 1146 H 105.986 2.30818 -3.48013 0
M  V30 1147 N 106.423 1.57458 -0.0668435 0
M  V30 1148 C 107.648 1.9804 0.616027 0
M  V30 1149 C 108.073 0.944771 1.62652 0
M  V30 1150 O 107.431 -0.0902094 1.81075 0
M  V30 1151 C 107.479 3.37665 1.26549 0
M  V30 1152 O 106.583 3.36701 2.38131 0
M  V30 1153 H 105.924 0.644719 0.158849 0
M  V30 1154 H 108.454 2.04121 -0.139891 0
M  V30 1155 H 108.464 3.7474 1.6135 0
M  V30 1156 H 107.139 4.12573 0.525016 0
M  V30 1157 H 105.716 3.1139 2.0516 0
M  V30 1158 N 107.901 -0.206675 1.56239 0
M  V30 1159 C 108.831 -1.25909 1.96645 0
M  V30 1160 C 109.812 -1.48097 0.836734 0
M  V30 1161 O 110.997 -1.6003 1.10019 0
M  V30 1162 C 108.127 -2.6058 2.29599 0
M  V30 1163 C 107.081 -2.53024 3.452 0
M  V30 1164 C 106.407 -3.91861 3.63798 0
M  V30 1165 C 107.707 -2.06524 4.79734 0
M  V30 1166 H 109.401 -0.923369 2.84806 0
M  V30 1167 H 106.947 -0.442735 1.37025 0
M  V30 1168 H 108.9 -3.34375 2.56459 0
M  V30 1169 H 107.624 -2.95869 1.38307 0
M  V30 1170 H 106.283 -1.81684 3.18412 0
M  V30 1171 H 105.931 -4.24483 2.69857 0
M  V30 1172 H 105.631 -3.87683 4.4156 0
M  V30 1173 H 107.155 -4.67296 3.93022 0
M  V30 1174 H 108.569 -2.70072 5.05702 0
M  V30 1175 H 106.966 -2.13374 5.60885 0
M  V30 1176 H 108.036 -1.01802 4.74093 0
M  V30 1177 N 109.379 -1.50304 -0.473955 0
M  V30 1178 C 110.342 -1.6841 -1.55469 0
M  V30 1179 C 111.342 -0.554905 -1.50922 0
M  V30 1180 O 112.532 -0.821882 -1.53593 0
M  V30 1181 C 109.664 -1.70667 -2.95102 0
M  V30 1182 H 110.857 -2.64828 -1.40733 0
M  V30 1183 H 108.41 -1.39742 -0.700132 0
M  V30 1184 H 109.145 -0.75932 -3.15285 0
M  V30 1185 H 108.93 -2.52698 -2.9981 0
M  V30 1186 H 110.42 -1.8664 -3.73571 0
M  V30 1187 N 110.857 0.726932 -1.39834 0
M  V30 1188 C 112.105 1.4837 -1.37225 0
M  V30 1189 C 112.426 1.94979 0.0284857 0
M  V30 1190 O 111.696 1.69555 0.981213 0
M  V30 1191 H 110.276 0.55043 -0.505011 0
M  V30 1192 H 112.938 0.862468 -1.74778 0
M  V30 1193 H 112.034 2.36198 -2.04003 0
M  V30 1194 N 112.336 1.25143 0.95797 0
M  V30 1195 C 113.752 1.01892 1.22842 0
M  V30 1196 C 113.952 -0.266311 1.99732 0
M  V30 1197 O 113.008 -0.979913 2.3271 0
M  V30 1198 C 114.321 2.24004 2.00606 0
M  V30 1199 C 115.869 2.28731 2.13662 0
M  V30 1200 C 116.344 3.5049 2.94823 0
M  V30 1201 N 117.835 3.50866 3.02403 0
M  V30 1202 C 118.57 4.4174 3.65586 0
M  V30 1203 N 118.066 5.42882 4.30408 0
M  V30 1204 N 119.859 4.29429 3.62694 0
M  V30 1205 H 112.01 2.07718 0.443493 0
M  V30 1206 H 114.273 0.912031 0.258657 0
M  V30 1207 H 113.979 3.17395 1.51503 0
M  V30 1208 H 113.853 2.26907 3.01319 0
M  V30 1209 H 116.24 1.35865 2.61963 0
M  V30 1210 H 116.321 2.29848 1.12265 0
M  V30 1211 H 115.965 4.43676 2.47213 0
M  V30 1212 H 115.895 3.46617 3.96439 0
M  V30 1213 H 118.386 2.777 2.56302 0
M  V30 1214 H 118.699 6.0844 4.76467 0
M  V30 1215 H 117.044 5.46758 4.29047 0
M  V30 1216 H 120.235 3.49643 3.11236 0
M  V30 1217 H 120.408 5.00448 4.1165 0
M  V30 1218 N 113.814 -1.1601 1.06675 0
M  V30 1219 C 115.06 -1.86909 0.786945 0
M  V30 1220 C 115.393 -1.81717 -0.685018 0
M  V30 1221 O 114.668 -1.23551 -1.50218 0
M  V30 1222 C 114.951 -3.36313 1.28707 0
M  V30 1223 C 114.804 -3.50175 2.82308 0
M  V30 1224 C 116.123 -4.3084 0.898071 0
M  V30 1225 H 113.242 -0.678677 0.287343 0
M  V30 1226 H 115.884 -1.36336 1.32334 0
M  V30 1227 H 114.034 -3.79513 0.830768 0
M  V30 1228 H 115.706 -3.15886 3.36175 0
M  V30 1229 H 113.949 -2.91959 3.20847 0
M  V30 1230 H 114.62 -4.55116 3.12368 0
M  V30 1231 H 117.096 -3.95561 1.29114 0
M  V30 1232 H 115.972 -5.33876 1.27543 0
M  V30 1233 H 116.233 -4.41662 -0.196651 0
M  V30 1234 N 115.292 -0.849877 -1.32721 0
M  V30 1235 C 116.52 -0.464754 -2.01613 0
M  V30 1236 C 116.935 0.937191 -1.63897 0
M  V30 1237 O 116.292 1.61081 -0.857856 0
M  V30 1238 C 116.343 -0.588638 -3.56675 0
M  V30 1239 O 116.064 -1.93535 -3.93034 0
M  V30 1240 C 117.565 -0.2019 -4.4284 0
M  V30 1241 H 114.785 -0.183215 -0.645502 0
M  V30 1242 H 117.329 -1.1455 -1.69407 0
M  V30 1243 H 115.484 0.0443159 -3.87375 0
M  V30 1244 H 115.898 -1.92871 -4.87751 0
M  V30 1245 H 117.372 -0.339599 -5.50954 0
M  V30 1246 H 117.849 0.857224 -4.30753 0
M  V30 1247 H 118.455 -0.809733 -4.17521 0
M  V30 1248 N 116.77 1.45427 -0.607355 0
M  V30 1249 C 117.68 2.34325 0.113463 0
M  V30 1250 C 118.696 1.51226 0.860617 0
M  V30 1251 O 119.872 1.84029 0.818255 0
M  V30 1252 C 116.937 3.28839 1.09844 0
M  V30 1253 C 115.998 4.27844 0.353271 0
M  V30 1254 C 115.231 5.17842 1.29133 0
M  V30 1255 O 115.454 5.11264 2.52913 0
M  V30 1256 O 114.388 5.96713 0.788523 0
M  V30 1257 H 118.214 2.97364 -0.617094 0
M  V30 1258 H 115.799 1.44807 -0.367619 0
M  V30 1259 H 117.681 3.8708 1.66575 0
M  V30 1260 H 116.356 2.68365 1.81003 0
M  V30 1261 H 115.263 3.7322 -0.256494 0
M  V30 1262 H 116.596 4.91173 -0.317822 0
M  V30 1263 N 118.248 0.346503 1.53744 0
M  V30 1264 C 119.211 -0.496439 2.23759 0
M  V30 1265 C 120.211 -1.0252 1.2388 0
M  V30 1266 O 121.401 -0.913974 1.48297 0
M  V30 1267 C 118.533 -1.69187 2.95954 0
M  V30 1268 H 119.726 0.115952 2.99676 0
M  V30 1269 H 117.279 0.0978939 1.55993 0
M  V30 1270 H 118.014 -2.34288 2.24231 0
M  V30 1271 H 117.799 -1.31989 3.69217 0
M  V30 1272 H 119.289 -2.28969 3.49232 0
M  V30 1273 N 119.726 -1.57421 0.075193 0
M  V30 1274 C 120.975 -1.92794 -0.592731 0
M  V30 1275 C 121.288 -0.957478 -1.70563 0
M  V30 1276 O 122.494 -1.20417 -2.43335 0
M  V30 1277 C 120.95 -3.42495 -1.10569 0
M  V30 1278 C 120.558 -4.47994 -0.0236121 0
M  V30 1279 C 122.302 -3.86864 -1.74748 0
M  V30 1280 C 120.209 -5.88829 -0.550803 0
M  V30 1281 H 119.139 -0.719591 -0.225177 0
M  V30 1282 H 121.79 -1.82902 0.147978 0
M  V30 1283 H 120.172 -3.47471 -1.89947 0
M  V30 1284 H 121.346 -4.54637 0.751099 0
M  V30 1285 H 119.661 -4.13113 0.522159 0
M  V30 1286 H 122.258 -4.8947 -2.15229 0
M  V30 1287 H 122.601 -3.24417 -2.60882 0
M  V30 1288 H 123.134 -3.84504 -1.01986 0
M  V30 1289 H 119.873 -6.54929 0.273457 0
M  V30 1290 H 119.393 -5.85698 -1.29296 0
M  V30 1291 H 121.072 -6.38811 -1.02613 0
M  V30 1292 N 121.204 0.198386 -1.56346 0
M  V30 1293 C 122.452 0.91747 -1.80075 0
M  V30 1294 C 122.773 1.83929 -0.647692 0
M  V30 1295 O 122.043 1.93029 0.334166 0
M  V30 1296 H 120.623 0.341774 -0.664228 0
M  V30 1297 H 123.285 0.204684 -1.93822 0
M  V30 1298 H 122.381 1.51055 -2.7311 0
M  V30 1299 N 122.682 1.50554 0.465978 0
M  V30 1300 C 123.645 1.69233 1.54574 0
M  V30 1301 C 124.645 0.562901 1.50626 0
M  V30 1302 O 125.835 0.830016 1.53155 0
M  V30 1303 C 122.967 1.7223 2.94193 0
M  V30 1304 H 124.16 2.65571 1.39327 0
M  V30 1305 H 121.713 1.40111 0.692711 0
M  V30 1306 H 122.448 0.77603 3.14878 0
M  V30 1307 H 122.233 2.54285 2.98466 0
M  V30 1308 H 123.723 1.88618 3.72576 0
M  V30 1309 N 124.16 -0.719506 1.40217 0
M  V30 1310 C 125.408 -1.47641 1.3801 0
M  V30 1311 C 125.729 -1.94992 -0.018145 0
M  V30 1312 O 124.999 -1.70073 -0.972207 0
M  V30 1313 H 123.579 -0.547744 0.507923 0
M  V30 1314 H 126.241 -0.853187 1.75233 0
M  V30 1315 H 125.337 -2.35112 2.05253 0
M  V30 1316 N 125.638 -1.25649 -0.95132 0
M  V30 1317 C 126.586 -1.06118 -2.06982 0
M  V30 1318 C 127.58 0.00889169 -1.69398 0
M  V30 1319 O 128.786 -0.146988 -1.79399 0
M  V30 1320 H 125.161 -0.326248 -0.677544 0
M  V30 1321 H 127.132 -2.00932 -2.2061 0
M  V30 1322 C 125.881 -0.700145 -3.40578 0
M  V30 1323 H 125.204 -1.51537 -3.69968 0
M  V30 1324 H 126.644 -0.603211 -4.19687 0
M  V30 1325 C 125.103 0.59403 -3.31622 0
M  V30 1326 O 125.633 1.63522 -3.66911 0
M  V30 1327 N 123.839 0.58089 -2.84735 0
M  V30 1328 H 123.386 -0.266783 -2.56215 0
M  V30 1329 H 123.344 1.44695 -2.79125 0
M  V30 1330 N 127.117 1.15442 -1.07289 0
M  V30 1331 C 128.064 2.20161 -0.692653 0
M  V30 1332 C 129.034 1.63073 0.31564 0
M  V30 1333 O 130.219 1.89725 0.202235 0
M  V30 1334 C 127.359 3.44967 -0.0959509 0
M  V30 1335 C 126.472 4.16256 -1.15564 0
M  V30 1336 C 125.607 5.28609 -0.524011 0
M  V30 1337 C 124.646 5.91715 -1.56653 0
M  V30 1338 N 123.783 6.9554 -0.957531 0
M  V30 1339 H 128.623 2.52037 -1.59002 0
M  V30 1340 H 126.16 1.2378 -0.794798 0
M  V30 1341 H 128.118 4.16341 0.267628 0
M  V30 1342 H 126.748 3.1361 0.764772 0
M  V30 1343 H 125.8 3.43385 -1.6368 0
M  V30 1344 H 127.112 4.59268 -1.94613 0
M  V30 1345 H 126.266 6.06604 -0.108032 0
M  V30 1346 H 125.005 4.86787 0.29825 0
M  V30 1347 H 124.01 5.12433 -1.9923 0
M  V30 1348 H 125.235 6.35614 -2.39107 0
M  V30 1349 H 123.181 6.55814 -0.156162 0
M  V30 1350 H 123.098 7.36977 -1.68526 0
M  V30 1351 H 124.366 7.77435 -0.567032 0
M  V30 1352 N 128.595 0.856903 1.32268 0
M  V30 1353 C 129.525 0.31858 2.31316 0
M  V30 1354 C 130.506 -0.583487 1.59779 0
M  V30 1355 O 131.691 -0.503259 1.87566 0
M  V30 1356 C 128.821 -0.491979 3.43798 0
M  V30 1357 C 127.775 0.315849 4.26833 0
M  V30 1358 C 127.101 -0.619586 5.31098 0
M  V30 1359 C 128.401 1.54282 4.98993 0
M  V30 1360 H 130.095 1.14621 2.76591 0
M  V30 1361 H 127.641 0.552613 1.32974 0
M  V30 1362 H 129.594 -0.879012 4.1213 0
M  V30 1363 H 128.318 -1.35299 2.97257 0
M  V30 1364 H 126.977 0.684664 3.6015 0
M  V30 1365 H 126.625 -1.47751 4.8081 0
M  V30 1366 H 126.325 -0.0830621 5.87541 0
M  V30 1367 H 127.849 -1.00375 6.02293 0
M  V30 1368 H 129.263 1.22796 5.59995 0
M  V30 1369 H 127.66 2.01745 5.65172 0
M  V30 1370 H 128.73 2.30285 4.26728 0
M  V30 1371 N 130.073 -1.45103 0.615059 0
M  V30 1372 C 131.35 -1.95549 0.0448276 0
M  V30 1373 C 131.73 -1.55737 -1.4251 0
M  V30 1374 O 131.078 -0.823556 -2.13143 0
M  V30 1375 C 131.288 -3.48098 0.250785 0
M  V30 1376 C 132.636 -4.24384 0.135509 0
M  V30 1377 O 133.66 -3.55738 0.181299 0
M  V30 1378 O 132.519 -5.46493 0.0268878 0
M  V30 1379 H 129.613 -0.8264 -0.0314845 0
M  V30 1380 H 132.159 -1.55232 0.685642 0
M  V30 1381 H 130.931 -3.7007 1.27139 0
M  V30 1382 H 130.554 -3.95323 -0.424937 0
M  V30 1383 N 131.551 -0.354651 -1.53558 0
M  V30 1384 C 132.799 0.237972 -2.00694 0
M  V30 1385 C 133.12 1.50173 -1.24391 0
M  V30 1386 O 132.39 1.92673 -0.354135 0
M  V30 1387 H 130.97 0.0909256 -0.741446 0
M  V30 1388 H 133.632 -0.478368 -1.88938 0
M  V30 1389 H 132.728 0.47264 -3.085 0
M  V30 1390 N 133.029 1.57378 -0.0835403 0
M  V30 1391 C 134.275 1.94217 0.583733 0
M  V30 1392 C 134.608 0.964653 1.68547 0
M  V30 1393 O 133.883 -0.00422258 1.945 0
M  V30 1394 C 134.166 3.41253 1.14972 0
M  V30 1395 C 134.019 4.49768 0.0538277 0
M  V30 1396 C 135.338 3.89352 2.05166 0
M  V30 1397 H 132.457 0.706233 0.210724 0
M  V30 1398 H 135.099 1.89392 -0.1519 0
M  V30 1399 H 133.249 3.45496 1.77665 0
M  V30 1400 H 134.921 4.57641 -0.579851 0
M  V30 1401 H 133.164 4.29432 -0.614068 0
M  V30 1402 H 133.835 5.49817 0.490452 0
M  V30 1403 H 136.311 3.87189 1.52393 0
M  V30 1404 H 135.187 4.92822 2.41698 0
M  V30 1405 H 135.448 3.27973 2.96456 0
M  V30 1406 N 134.507 -0.190092 1.56449 0
M  V30 1407 C 135.753 -0.911052 1.81184 0
M  V30 1408 C 136.086 -1.82699 0.658396 0
M  V30 1409 O 135.361 -1.91491 -0.340775 0
M  V30 1410 C 135.644 -1.72297 3.16205 0
M  V30 1411 C 135.497 -0.831419 4.42049 0
M  V30 1412 C 136.816 -2.69454 3.47969 0
M  V30 1413 H 133.935 -0.32977 0.659106 0
M  V30 1414 H 136.577 -0.178169 1.89163 0
M  V30 1415 H 134.727 -2.34778 3.09534 0
M  V30 1416 H 136.399 -0.220929 4.60771 0
M  V30 1417 H 134.642 -0.138406 4.33579 0
M  V30 1418 H 135.313 -1.43461 5.33032 0
M  V30 1419 H 137.789 -2.17104 3.54972 0
M  V30 1420 H 136.665 -3.23342 4.43555 0
M  V30 1421 H 136.926 -3.48744 2.71717 0
M  V30 1422 N 135.985 -1.50799 -0.457987 0
M  V30 1423 C 136.935 -1.67003 -1.55222 0
M  V30 1424 C 137.919 -0.52434 -1.52117 0
M  V30 1425 O 139.111 -0.779345 -1.58919 0
M  V30 1426 C 136.24 -1.77956 -2.93576 0
M  V30 1427 C 135.326 -2.98243 -3.01516 0
M  V30 1428 N 135.717 -4.21732 -2.79241 0
M  V30 1429 C 134.015 -2.97072 -3.32662 0
M  V30 1430 C 134.716 -5.02817 -2.92489 0
M  V30 1431 N 133.692 -4.37038 -3.23262 0
M  V30 1432 H 137.494 -2.60163 -1.36721 0
M  V30 1433 H 135.008 -1.48163 -0.664952 0
M  V30 1434 H 137.005 -1.87671 -3.72271 0
M  V30 1435 H 135.665 -0.859634 -3.13114 0
M  V30 1436 H 136.676 -4.51016 -2.54567 0
M  V30 1437 H 133.353 -2.14631 -3.58106 0
M  V30 1438 H 134.743 -6.11054 -2.79396 0
M  V30 1439 N 137.463 0.71206 -1.40597 0
M  V30 1440 C 138.688 1.50617 -1.42581 0
M  V30 1441 C 139.113 1.88079 -0.0282102 0
M  V30 1442 O 138.471 1.53511 0.964579 0
M  V30 1443 C 138.519 2.7557 -2.3258 0
M  V30 1444 O 137.623 3.72414 -1.77148 0
M  V30 1445 H 136.964 0.453966 -0.484573 0
M  V30 1446 H 139.494 0.876649 -1.84868 0
M  V30 1447 H 139.504 3.2406 -2.47889 0
M  V30 1448 H 138.179 2.47639 -3.34138 0
M  V30 1449 H 136.756 3.31276 -1.71204 0
M  V30 1450 N 138.941 1.26152 0.944643 0
M  V30 1451 C 140.19 1.10883 1.68487 0
M  V30 1452 C 140.503 -0.348153 1.92477 0
M  V30 1453 O 141.709 -0.621459 2.64292 0
M  V30 1454 C 140.165 1.93624 3.03377 0
M  V30 1455 C 139.773 3.43875 2.87148 0
M  V30 1456 C 141.517 1.86954 3.81115 0
M  V30 1457 C 139.424 4.18875 4.1749 0
M  V30 1458 H 138.354 0.41135 0.631907 0
M  V30 1459 H 141.005 1.50433 1.05082 0
M  V30 1460 H 139.387 1.46904 3.67743 0
M  V30 1461 H 140.561 3.98338 2.31653 0
M  V30 1462 H 138.876 3.51744 2.22856 0
M  V30 1463 H 141.473 2.40275 4.77673 0
M  V30 1464 H 141.816 0.839518 4.07747 0
M  V30 1465 H 142.349 2.31477 3.23517 0
M  V30 1466 H 139.088 5.22332 3.96043 0
M  V30 1467 H 138.608 3.69193 4.72712 0
M  V30 1468 H 140.287 4.27134 4.85968 0
M  V30 1469 N 140.419 -1.14872 1.07899 0
M  V30 1470 C 141.667 -1.85422 0.803941 0
M  V30 1471 C 141.988 -1.83051 -0.67211 0
M  V30 1472 O 141.258 -1.27532 -1.48703 0
M  V30 1473 H 139.838 -0.686537 0.294408 0
M  V30 1474 H 142.5 -1.39226 1.3639 0
M  V30 1475 H 141.596 -2.90399 1.14346 0
M  V30 1476 N 141.898 -0.863906 -1.31812 0
M  V30 1477 C 143.145 -0.471836 -1.96926 0
M  V30 1478 C 143.473 0.974578 -1.68322 0
M  V30 1479 O 142.728 1.7003 -0.968933 0
M  V30 1480 C 143.027 -0.668547 -3.51091 0
M  V30 1481 C 142.693 -2.08683 -3.99703 0
M  V30 1482 C 141.355 -2.47471 -4.12688 0
M  V30 1483 C 143.707 -3.01207 -4.25351 0
M  V30 1484 C 141.035 -3.78037 -4.4867 0
M  V30 1485 C 143.387 -4.31282 -4.62794 0
M  V30 1486 C 142.051 -4.69992 -4.73987 0
M  V30 1487 H 141.321 -0.172657 -0.720604 0
M  V30 1488 H 143.968 -1.09573 -1.57054 0
M  V30 1489 H 142.273 0.0385252 -3.91781 0
M  V30 1490 H 143.97 -0.345102 -3.99512 0
M  V30 1491 H 140.56 -1.77566 -3.90087 0
M  V30 1492 H 144.744 -2.72469 -4.14819 0
M  V30 1493 H 140 -4.078 -4.55532 0
M  V30 1494 H 144.174 -5.03031 -4.81594 0
M  V30 1495 H 141.801 -5.71207 -5.01624 0
M  V30 1496 N 143.376 1.44774 -0.622745 0
M  V30 1497 C 144.309 2.27792 0.136329 0
M  V30 1498 C 145.287 1.38041 0.859264 0
M  V30 1499 O 146.471 1.67478 0.86506 0
M  V30 1500 C 143.598 3.16776 1.19878 0
M  V30 1501 C 142.644 4.22575 0.57731 0
M  V30 1502 S 143.477 5.31825 -0.626294 0
M  V30 1503 C 144.633 6.24377 0.436378 0
M  V30 1504 H 144.866 2.91824 -0.567967 0
M  V30 1505 H 142.399 1.48838 -0.410677 0
M  V30 1506 H 144.357 3.68596 1.80686 0
M  V30 1507 H 143.018 2.5198 1.87523 0
M  V30 1508 H 142.211 4.84818 1.37721 0
M  V30 1509 H 141.813 3.73974 0.0440439 0
M  V30 1510 H 144.105 6.64689 1.31128 0
M  V30 1511 H 145.048 7.07941 -0.150271 0
M  V30 1512 H 145.456 5.59381 0.758513 0
M  V30 1513 N 144.854 0.36279 1.53368 0
M  V30 1514 C 146.265 -0.117022 1.86333 0
M  V30 1515 C 146.616 -1.48397 1.28347 0
M  V30 1516 O 145.741 -2.07787 0.604428 0
M  V30 1517 C 146.336 -0.21912 3.38091 0
M  V30 1518 C 144.895 -0.643184 3.70864 0
M  V30 1519 C 144.042 0.211318 2.76494 0
M  V30 1520 H 146.993 0.581687 1.47655 0
M  V30 1521 H 147.014 -1.04319 3.6592 0
M  V30 1522 H 146.526 0.775902 3.80265 0
M  V30 1523 H 144.627 -1.64654 3.34245 0
M  V30 1524 H 144.74 -0.41973 4.77258 0
M  V30 1525 H 143.104 -0.319367 2.5269 0
M  V30 1526 H 143.887 1.20383 3.21501 0
M  V30 1527 N 146.332 -1.57332 0.0918853 0
M  V30 1528 C 147.264 -2.10869 -0.898168 0
M  V30 1529 C 148.277 -1.04521 -1.24817 0
M  V30 1530 O 149.466 -1.31977 -1.20184 0
M  V30 1531 C 146.566 -2.57083 -2.2082 0
M  V30 1532 C 145.739 -3.87229 -2.03402 0
M  V30 1533 C 144.798 -4.19324 -3.17889 0
M  V30 1534 O 143.824 -4.88598 -2.91994 0
M  V30 1535 N 145.026 -3.74471 -4.43567 0
M  V30 1536 H 147.791 -2.96439 -0.440943 0
M  V30 1537 H 145.352 -1.61631 -0.0933064 0
M  V30 1538 H 147.344 -2.75602 -2.96354 0
M  V30 1539 H 145.914 -1.76541 -2.57977 0
M  V30 1540 H 145.134 -3.7789 -1.12218 0
M  V30 1541 H 146.422 -4.72379 -1.89038 0
M  V30 1542 H 145.82 -3.18546 -4.67488 0
M  V30 1543 H 144.377 -3.98151 -5.16061 0
M  V30 1544 N 147.81 0.181792 -1.56548 0
M  V30 1545 C 149.038 0.915947 -1.85521 0
M  V30 1546 C 149.453 1.76282 -0.676016 0
M  V30 1547 O 148.81 1.79012 0.355077 0
M  V30 1548 C 148.861 1.80126 -3.13427 0
M  V30 1549 O 148.582 0.988562 -4.26801 0
M  V30 1550 C 150.083 2.64597 -3.55673 0
M  V30 1551 H 147.303 0.26661 -0.61576 0
M  V30 1552 H 149.847 0.185039 -2.03661 0
M  V30 1553 H 148.002 2.48563 -2.97145 0
M  V30 1554 H 148.416 1.59308 -4.99721 0
M  V30 1555 H 149.89 3.2235 -4.48101 0
M  V30 1556 H 150.367 3.38958 -2.79292 0
M  V30 1557 H 150.973 2.0151 -3.74532 0
M  V30 1558 N 149.288 1.51039 0.449983 0
M  V30 1559 C 150.536 1.62759 1.19808 0
M  V30 1560 C 150.857 0.339981 1.92013 0
M  V30 1561 O 150.127 -0.643606 1.85026 0
M  V30 1562 H 148.707 0.599811 0.445237 0
M  V30 1563 H 151.369 1.87914 0.517138 0
M  V30 1564 H 150.465 2.44911 1.93455 0
M  V30 1565 N 150.766 -0.704594 1.40972 0
M  V30 1566 C 151.699 -1.82861 1.36518 0
M  V30 1567 C 152.677 -1.6091 0.23382 0
M  V30 1568 O 153.861 -1.83778 0.419271 0
M  V30 1569 C 150.988 -3.1939 1.12729 0
M  V30 1570 C 150.034 -3.60148 2.28463 0
M  V30 1571 S 150.867 -3.65994 3.90907 0
M  V30 1572 C 152.023 -5.05264 3.69403 0
M  V30 1573 H 152.256 -1.86361 2.3164 0
M  V30 1574 H 149.789 -0.872439 1.27389 0
M  V30 1575 H 151.747 -3.98211 0.996893 0
M  V30 1576 H 150.408 -3.1351 0.192427 0
M  V30 1577 H 149.601 -4.59309 2.07489 0
M  V30 1578 H 149.203 -2.88612 2.37863 0
M  V30 1579 H 151.495 -5.92504 3.28551 0
M  V30 1580 H 152.438 -5.31278 4.68134 0
M  V30 1581 H 152.846 -4.76377 3.02862 0
M  V30 1582 N 152.244 -1.26651 -0.937939 0
M  V30 1583 C 153.492 -1.12165 -1.68118 0
M  V30 1584 C 153.813 0.334983 -1.92101 0
M  V30 1585 O 153.083 1.23583 -1.52 0
M  V30 1586 H 151.663 -0.412093 -0.623048 0
M  V30 1587 H 154.325 -1.59027 -1.12678 0
M  V30 1588 H 153.421 -1.64289 -2.6536 0
M  V30 1589 N 153.722 1.14298 -1.08507 0
M  V30 1590 C 154.971 1.84708 -0.810305 0
M  V30 1591 C 155.284 1.83903 0.666271 0
M  V30 1592 O 156.49 2.50112 1.05624 0
M  V30 1593 C 154.946 3.31572 -1.39957 0
M  V30 1594 C 154.554 3.40791 -2.90801 0
M  V30 1595 C 156.298 4.07087 -1.20334 0
M  V30 1596 C 154.205 4.81872 -3.4286 0
M  V30 1597 H 153.135 0.691985 -0.299454 0
M  V30 1598 H 155.786 1.28841 -1.30661 0
M  V30 1599 H 154.168 3.87183 -0.830976 0
M  V30 1600 H 155.342 2.95225 -3.53806 0
M  V30 1601 H 153.657 2.78732 -3.0935 0
M  V30 1602 H 156.254 5.11225 -1.56693 0
M  V30 1603 H 156.597 4.16054 -0.143237 0
M  V30 1604 H 157.13 3.57779 -1.73893 0
M  V30 1605 H 153.869 4.78094 -4.48449 0
M  V30 1606 H 153.389 5.27972 -2.84615 0
M  V30 1607 H 155.068 5.50765 -3.39509 0
M  V30 1608 N 155.201 0.870884 1.31352 0
M  V30 1609 C 156.149 0.316445 2.30437 0
M  V30 1610 C 157.143 -0.568965 1.59559 0
M  V30 1611 O 158.349 -0.454964 1.74155 0
M  V30 1612 H 154.724 0.0836521 0.747333 0
M  V30 1613 H 156.695 1.16606 2.74673 0
M  V30 1614 C 155.444 -0.46635 3.44558 0
M  V30 1615 H 154.767 0.205687 3.99271 0
M  V30 1616 H 156.207 -0.819614 4.16003 0
M  V30 1617 C 154.666 -1.65797 2.9328 0
M  V30 1618 O 155.196 -2.75728 2.92125 0
M  V30 1619 N 153.402 -1.49041 2.4947 0
M  V30 1620 H 152.949 -0.59612 2.50608 0
M  V30 1621 H 152.907 -2.28911 2.15516 0
M  V30 1622 N 156.679 -1.44442 0.630414 0
M  V30 1623 C 158.09 -1.85434 0.217063 0
M  V30 1624 C 158.441 -1.52748 -1.23136 0
M  V30 1625 O 157.566 -0.965205 -1.93682 0
M  V30 1626 C 158.161 -3.36581 0.387168 0
M  V30 1627 C 156.72 -3.76389 0.0283297 0
M  V30 1628 C 155.867 -2.68296 0.700889 0
M  V30 1629 H 158.818 -1.34919 0.83562 0
M  V30 1630 H 158.839 -3.78657 -0.374086 0
M  V30 1631 H 158.351 -3.60339 1.44144 0
M  V30 1632 H 156.452 -3.58246 -1.02423 0
M  V30 1633 H 156.565 -4.77095 0.437892 0
M  V30 1634 H 154.929 -2.54335 0.136267 0
M  V30 1635 H 155.712 -2.94887 1.75774 0
M  V30 1636 N 158.157 -0.370918 -1.53173 0
M  V30 1637 C 159.404 0.217102 -2.01333 0
M  V30 1638 C 159.732 1.48338 -1.25802 0
M  V30 1639 O 158.987 1.92698 -0.34146 0
M  V30 1640 C 159.286 0.549696 -3.53147 0
M  V30 1641 C 158.952 -0.622872 -4.46577 0
M  V30 1642 C 157.614 -0.944595 -4.71838 0
M  V30 1643 C 159.966 -1.40819 -5.01816 0
M  V30 1644 C 157.294 -2.05351 -5.49589 0
M  V30 1645 C 159.646 -2.50757 -5.80778 0
M  V30 1646 C 158.31 -2.83458 -6.04324 0
M  V30 1647 H 157.58 0.0794431 -0.736729 0
M  V30 1648 H 160.227 -0.504481 -1.84736 0
M  V30 1649 H 158.532 1.35237 -3.6772 0
M  V30 1650 H 160.229 1.017 -3.87889 0
M  V30 1651 H 156.819 -0.36209 -4.27068 0
M  V30 1652 H 161.003 -1.17289 -4.82242 0
M  V30 1653 H 156.259 -2.3108 -5.6605 0
M  V30 1654 H 160.433 -3.12022 -6.22588 0
M  V30 1655 H 158.06 -3.69508 -6.64355 0
M  V30 1656 N 159.635 1.57281 -0.100228 0
M  V30 1657 C 160.882 1.94537 0.562268 0
M  V30 1658 C 161.21 0.982315 1.67871 0
M  V30 1659 O 160.465 0.00280936 1.957 0
M  V30 1660 C 160.764 3.38305 1.15259 0
M  V30 1661 C 160.43 4.50618 0.159409 0
M  V30 1662 C 159.092 4.81066 -0.113741 0
M  V30 1663 C 161.444 5.18615 -0.518461 0
M  V30 1664 C 158.772 5.76835 -1.07137 0
M  V30 1665 C 161.124 6.15412 -1.46459 0
M  V30 1666 C 159.788 6.44262 -1.74592 0
M  V30 1667 H 159.058 0.711863 0.205748 0
M  V30 1668 H 161.705 1.90679 -0.17715 0
M  V30 1669 H 160.01 3.38766 1.96836 0
M  V30 1670 H 161.707 3.64435 1.67297 0
M  V30 1671 H 158.297 4.2689 0.382491 0
M  V30 1672 H 162.481 4.95264 -0.320581 0
M  V30 1673 H 157.737 5.975 -1.29628 0
M  V30 1674 H 161.911 6.67194 -1.99564 0
M  V30 1675 H 159.538 7.1828 -2.48953 0
M  V30 1676 N 161.113 -0.173488 1.56642 0
M  V30 1677 C 162.39 -0.917617 1.7274 0
M  V30 1678 C 162.77 -2.00484 0.661027 0
M  V30 1679 O 162.118 -2.26184 -0.32453 0
M  V30 1680 C 162.328 -1.48433 3.15862 0
M  V30 1681 C 163.676 -1.95809 3.76754 0
M  V30 1682 O 164.7 -1.58231 3.19126 0
M  V30 1683 O 163.559 -2.65024 4.77938 0
M  V30 1684 H 160.653 -0.431772 0.705338 0
M  V30 1685 H 163.199 -0.161487 1.6893 0
M  V30 1686 H 161.971 -0.701715 3.84957 0
M  V30 1687 H 161.594 -2.30471 3.23989 0
M  V30 1688 N 162.591 -1.51276 -0.441967 0
M  V30 1689 C 163.554 -1.7167 -1.51862 0
M  V30 1690 C 164.554 -0.586793 -1.49711 0
M  V30 1691 O 165.744 -0.854276 -1.51815 0
M  V30 1692 C 162.876 -1.76889 -2.91416 0
M  V30 1693 H 164.069 -2.67754 -1.35084 0
M  V30 1694 H 161.622 -1.41196 -0.670333 0
M  V30 1695 H 162.357 -0.826026 -3.13604 0
M  V30 1696 H 162.142 -2.59001 -2.94382 0
M  V30 1697 H 163.632 -1.94522 -3.69528 0
M  V30 1698 N 164.069 0.697108 -1.41344 0
M  V30 1699 C 165.48 1.27697 -1.36199 0
M  V30 1700 C 165.831 1.9615 -0.0443463 0
M  V30 1701 O 164.956 1.98689 0.857419 0
M  V30 1702 C 165.551 2.32223 -2.46694 0
M  V30 1703 C 164.11 2.8579 -2.44952 0
M  V30 1704 C 163.257 1.59807 -2.26621 0
M  V30 1705 H 166.208 0.491968 -1.50882 0
M  V30 1706 H 166.229 3.1348 -2.15664 0
M  V30 1707 H 165.741 1.82373 -3.42581 0
M  V30 1708 H 163.842 3.3982 -1.52817 0
M  V30 1709 H 163.955 3.36325 -3.41207 0
M  V30 1710 H 162.319 1.8556 -1.7447 0
M  V30 1711 H 163.102 1.11956 -3.24532 0
M  V30 1712 N 165.547 1.27147 0.931209 0
M  V30 1713 C 166.777 1.15914 1.71019 0
M  V30 1714 C 167.185 -0.287112 1.87009 0
M  V30 1715 O 166.528 -1.20761 1.38429 0
M  V30 1716 C 166.59 1.76647 3.13107 0
M  V30 1717 C 166.254 3.25807 3.20467 0
M  V30 1718 C 167.251 4.22489 3.02983 0
M  V30 1719 C 164.936 3.66452 3.43538 0
M  V30 1720 C 166.93 5.57794 3.08454 0
M  V30 1721 C 164.617 5.01888 3.48643 0
M  V30 1722 C 165.615 5.97369 3.31119 0
M  V30 1723 O 165.303 7.30337 3.35952 0
M  V30 1724 H 165.035 0.404062 0.54195 0
M  V30 1725 H 167.589 1.68457 1.17521 0
M  V30 1726 H 165.819 1.18578 3.68071 0
M  V30 1727 H 167.508 1.60179 3.72958 0
M  V30 1728 H 168.274 3.92425 2.85004 0
M  V30 1729 H 164.153 2.92611 3.5623 0
M  V30 1730 H 167.697 6.32298 2.94694 0
M  V30 1731 H 163.594 5.31609 3.66145 0
M  V30 1732 H 164.362 7.38739 3.5243 0
M  V30 1733 N 167.025 -1.13721 1.09112 0
M  V30 1734 C 167.988 -2.17222 0.731241 0
M  V30 1735 C 168.988 -1.59035 -0.237566 0
M  V30 1736 O 170.178 -1.74192 -0.0161704 0
M  V30 1737 C 167.31 -3.40804 0.0808443 0
M  V30 1738 H 168.503 -2.50573 1.64783 0
M  V30 1739 H 166.056 -1.28493 0.889897 0
M  V30 1740 H 166.791 -3.1304 -0.847127 0
M  V30 1741 H 166.576 -3.84306 0.777896 0
M  V30 1742 H 168.066 -4.1731 -0.155657 0
M  V30 1743 N 168.503 -0.877838 -1.30888 0
M  V30 1744 C 169.78 -0.413052 -1.91189 0
M  V30 1745 C 170.16 1.1056 -1.79832 0
M  V30 1746 O 169.508 1.93771 -1.21099 0
M  V30 1747 C 169.718 -0.903191 -3.3711 0
M  V30 1748 C 171.066 -0.93395 -4.14201 0
M  V30 1749 O 172.09 -0.849373 -3.45925 0
M  V30 1750 O 170.949 -1.05772 -5.36167 0
M  V30 1751 H 168.043 -0.125035 -0.817493 0
M  V30 1752 H 170.589 -0.966269 -1.39504 0
M  V30 1753 H 169.361 -1.94692 -3.39427 0
M  V30 1754 H 168.984 -0.328732 -3.96239 0
M  V30 1755 N 169.982 1.44106 -0.638065 0
M  V30 1756 C 171.228 2.02277 -0.145546 0
M  V30 1757 C 171.561 1.50125 1.23191 0
M  V30 1758 O 170.836 0.688133 1.8192 0
M  V30 1759 C 171.119 3.59829 -0.139791 0
M  V30 1760 C 170.972 4.22247 -1.55008 0
M  V30 1761 C 172.291 4.36873 0.531966 0
M  V30 1762 H 169.41 0.734992 -0.0543632 0
M  V30 1763 H 172.052 1.71592 -0.815863 0
M  V30 1764 H 170.202 3.86102 0.431007 0
M  V30 1765 H 171.874 4.07057 -2.1703 0
M  V30 1766 H 170.117 3.79476 -2.10191 0
M  V30 1767 H 170.788 5.31284 -1.49804 0
M  V30 1768 H 173.264 4.16074 0.0464781 0
M  V30 1769 H 172.14 5.4657 0.505206 0
M  V30 1770 H 172.401 4.11995 1.60352 0
M  V30 1771 N 171.46 0.379036 1.52974 0
M  V30 1772 C 172.685 -0.209353 2.06341 0
M  V30 1773 C 173.11 -1.40583 1.24972 0
M  V30 1774 O 172.468 -1.79246 0.272155 0
M  V30 1775 C 172.516 -0.567786 3.56102 0
M  V30 1776 O 171.62 -1.66318 3.77375 0
M  V30 1777 H 170.961 -0.0272919 0.663439 0
M  V30 1778 H 173.491 0.543536 1.97248 0
M  V30 1779 H 173.501 -0.835003 3.99364 0
M  V30 1780 H 172.176 0.307013 4.14765 0
M  V30 1781 H 170.753 -1.39048 3.46006 0
M  V30 1782 N 172.938 -1.57226 0.108567 0
M  V30 1783 C 173.885 -2.14756 -0.845481 0
M  V30 1784 C 174.855 -1.06971 -1.27068 0
M  V30 1785 O 176.04 -1.34827 -1.35005 0
M  V30 1786 C 173.18 -2.74298 -2.09415 0
M  V30 1787 C 172.293 -3.96358 -1.71826 0
M  V30 1788 C 171.428 -4.44021 -2.9158 0
M  V30 1789 C 170.467 -5.58637 -2.50181 0
M  V30 1790 N 169.604 -6.01091 -3.62814 0
M  V30 1791 H 174.444 -2.95961 -0.348035 0
M  V30 1792 H 171.981 -1.46226 -0.160106 0
M  V30 1793 H 173.939 -3.06945 -2.82561 0
M  V30 1794 H 172.569 -1.95801 -2.56636 0
M  V30 1795 H 171.621 -3.69939 -0.885947 0
M  V30 1796 H 172.933 -4.79504 -1.37394 0
M  V30 1797 H 172.087 -4.78522 -3.72963 0
M  V30 1798 H 170.826 -3.59803 -3.29231 0
M  V30 1799 H 169.831 -5.23751 -1.67228 0
M  V30 1800 H 171.056 -6.44613 -2.13659 0
M  V30 1801 H 169.002 -5.19817 -4.00158 0
M  V30 1802 H 168.919 -6.79066 -3.32273 0
M  V30 1803 H 170.187 -6.40227 -4.44668 0
M  V30 1804 N 174.416 0.165178 -1.56732 0
M  V30 1805 C 175.664 0.879068 -1.8198 0
M  V30 1806 C 175.985 1.82514 -0.686561 0
M  V30 1807 O 175.255 1.93694 0.293146 0
M  V30 1808 H 173.835 0.327608 -0.671329 0
M  V30 1809 H 176.497 0.163526 -1.94213 0
M  V30 1810 H 175.593 1.45228 -2.76252 0
M  V30 1811 N 175.894 1.51508 0.433938 0
M  V30 1812 C 177.143 1.63578 1.18005 0
M  V30 1813 C 177.456 0.359514 1.92268 0
M  V30 1814 O 178.662 0.359632 2.69108 0
M  V30 1815 C 177.118 2.88901 2.14626 0
M  V30 1816 C 176.726 4.23544 1.45995 0
M  V30 1817 C 178.47 3.10328 2.89649 0
M  V30 1818 C 176.377 5.40014 2.4112 0
M  V30 1819 H 175.307 0.609277 0.444182 0
M  V30 1820 H 177.958 1.77978 0.446773 0
M  V30 1821 H 176.34 2.68142 2.91403 0
M  V30 1822 H 177.514 4.54696 0.747532 0
M  V30 1823 H 175.829 4.08021 0.831115 0
M  V30 1824 H 178.426 3.94518 3.60915 0
M  V30 1825 H 178.769 2.23544 3.51189 0
M  V30 1826 H 179.302 3.31443 2.19978 0
M  V30 1827 H 176.041 6.29068 1.84264 0
M  V30 1828 H 175.561 5.13233 3.10406 0
M  V30 1829 H 177.24 5.72099 3.02177 0
M  V30 1830 N 177.372 -0.689602 1.41712 0
M  V30 1831 C 178.322 -1.79571 1.40493 0
M  V30 1832 C 179.306 -1.58473 0.278409 0
M  V30 1833 O 180.498 -1.69204 0.519532 0
M  V30 1834 C 177.627 -3.17923 1.29536 0
M  V30 1835 C 176.713 -3.44695 2.47075 0
M  V30 1836 N 177.104 -3.42132 3.72531 0
M  V30 1837 C 175.402 -3.75269 2.41017 0
M  V30 1838 C 176.103 -3.67976 4.50521 0
M  V30 1839 N 175.079 -3.88014 3.80718 0
M  V30 1840 H 178.881 -1.75961 2.35404 0
M  V30 1841 H 176.395 -0.889839 1.35851 0
M  V30 1842 H 178.392 -3.97167 1.26745 0
M  V30 1843 H 177.052 -3.22741 0.356153 0
M  V30 1844 H 178.063 -3.22375 4.05333 0
M  V30 1845 H 174.74 -3.87421 1.55599 0
M  V30 1846 H 176.13 -3.7208 5.59469 0
M  V30 1847 N 178.85 -1.27639 -0.924453 0
M  V30 1848 C 180.099 -1.13549 -1.66702 0
M  V30 1849 C 180.412 0.317487 -1.93006 0
M  V30 1850 O 181.618 0.579333 -2.65247 0
M  V30 1851 C 180.074 -1.98426 -3.00259 0
M  V30 1852 C 179.682 -3.484 -2.81641 0
M  V30 1853 C 181.426 -1.92993 -3.78092 0
M  V30 1854 C 179.333 -4.25464 -4.10773 0
M  V30 1855 H 178.263 -0.421351 -0.625283 0
M  V30 1856 H 180.914 -1.52085 -1.02676 0
M  V30 1857 H 179.296 -1.52736 -3.6536 0
M  V30 1858 H 180.47 -4.01973 -2.25287 0
M  V30 1859 H 178.785 -3.55245 -2.17232 0
M  V30 1860 H 181.382 -2.47844 -4.7379 0
M  V30 1861 H 181.725 -0.904281 -4.0636 0
M  V30 1862 H 182.258 -2.36595 -3.19793 0
M  V30 1863 H 178.997 -5.28566 -3.87683 0
M  V30 1864 H 178.517 -3.76667 -4.66779 0
M  V30 1865 H 180.196 -4.34812 -4.79111 0
M  V30 1866 N 180.328 1.1314 -1.09713 0
M  V30 1867 C 181.553 1.88862 -0.857081 0
M  V30 1868 C 181.978 1.78729 0.586304 0
M  V30 1869 O 181.336 1.13692 1.41222 0
M  V30 1870 C 181.384 3.36325 -1.30069 0
M  V30 1871 O 180.488 4.09815 -0.461007 0
M  V30 1872 H 179.829 0.587108 -0.310162 0
M  V30 1873 H 182.359 1.43129 -1.46203 0
M  V30 1874 H 182.369 3.87157 -1.28738 0
M  V30 1875 H 181.044 3.43017 -2.35185 0
M  V30 1876 H 179.621 3.68986 -0.538888 0
M  V30 1877 N 181.806 0.884767 1.30421 0
M  V30 1878 C 182.769 0.356277 2.26414 0
M  V30 1879 C 183.769 -0.501124 1.52792 0
M  V30 1880 O 184.959 -0.30831 1.7145 0
M  V30 1881 C 182.091 -0.492316 3.37326 0
M  V30 1882 H 183.284 1.20389 2.74675 0
M  V30 1883 H 180.837 0.661607 1.41607 0
M  V30 1884 H 181.572 -1.36052 2.94381 0
M  V30 1885 H 181.357 0.121832 3.91911 0
M  V30 1886 H 182.847 -0.853871 4.08777 0
M  V30 1887 N 183.284 -1.43765 0.645699 0
M  V30 1888 C 184.514 -2.05953 0.163318 0
M  V30 1889 C 184.922 -1.48432 -1.17322 0
M  V30 1890 O 184.265 -0.607295 -1.73371 0
M  V30 1891 C 184.327 -3.59499 -0.0103065 0
M  V30 1892 C 183.991 -4.39563 1.25035 0
M  V30 1893 C 184.988 -4.72108 2.17739 0
M  V30 1894 C 182.673 -4.79697 1.48983 0
M  V30 1895 C 184.667 -5.43688 3.3269 0
M  V30 1896 C 182.354 -5.51023 2.64229 0
M  V30 1897 C 183.352 -5.8294 3.55908 0
M  V30 1898 O 183.04 -6.5281 4.69142 0
M  V30 1899 H 182.772 -0.670798 0.0836986 0
M  V30 1900 H 185.326 -1.85384 0.884407 0
M  V30 1901 H 183.556 -3.78613 -0.78669 0
M  V30 1902 H 185.245 -4.03408 -0.449087 0
M  V30 1903 H 186.011 -4.41627 2.00476 0
M  V30 1904 H 181.89 -4.54266 0.785078 0
M  V30 1905 H 185.434 -5.68517 4.04269 0
M  V30 1906 H 181.331 -5.8092 2.81429 0
M  V30 1907 H 182.099 -6.71288 4.6831 0
M  V30 1908 N 184.763 -0.387143 -1.52771 0
M  V30 1909 C 185.988 0.198407 -2.06449 0
M  V30 1910 C 186.413 1.39918 -1.25716 0
M  V30 1911 O 185.771 1.79099 -0.281657 0
M  V30 1912 C 185.819 0.548893 -3.56398 0
M  V30 1913 O 184.923 1.64315 -3.78252 0
M  V30 1914 H 184.264 0.0237731 -0.663574 0
M  V30 1915 H 186.794 -0.553989 -1.96957 0
M  V30 1916 H 186.804 0.813812 -3.99801 0
M  V30 1917 H 185.479 -0.329005 -4.14597 0
M  V30 1918 H 184.056 1.37211 -3.46738 0
M  V30 1919 N 186.241 1.57166 -0.116904 0
M  V30 1920 C 187.471 1.99184 0.548586 0
M  V30 1921 C 187.879 0.995436 1.60897 0
M  V30 1922 O 187.222 -0.0201293 1.83689 0
M  V30 1923 C 187.284 3.37611 1.23526 0
M  V30 1924 C 186.948 4.55857 0.323077 0
M  V30 1925 C 187.945 5.18056 -0.437476 0
M  V30 1926 C 185.63 5.01751 0.234761 0
M  V30 1927 C 187.624 6.24536 -1.2741 0
M  V30 1928 C 185.311 6.08093 -0.605496 0
M  V30 1929 C 186.309 6.69352 -1.35856 0
M  V30 1930 O 185.997 7.7364 -2.18487 0
M  V30 1931 H 185.729 0.659148 0.149999 0
M  V30 1932 H 188.283 2.0443 -0.199428 0
M  V30 1933 H 186.513 3.29113 2.0303 0
M  V30 1934 H 188.202 3.63932 1.79745 0
M  V30 1935 H 188.968 4.83516 -0.379105 0
M  V30 1936 H 184.847 4.53817 0.810601 0
M  V30 1937 H 188.391 6.72281 -1.86237 0
M  V30 1938 H 184.288 6.42063 -0.665268 0
M  V30 1939 H 185.056 7.90727 -2.11406 0
M  V30 1940 N 187.719 -0.156864 1.56817 0
M  V30 1941 C 188.682 -1.17781 1.96622 0
M  V30 1942 C 189.682 -1.36401 0.851555 0
M  V30 1943 O 190.872 -1.33561 1.11836 0
M  V30 1944 C 188.004 -2.54008 2.27361 0
M  V30 1945 H 189.197 -0.836564 2.87996 0
M  V30 1946 H 186.75 -0.39985 1.51099 0
M  V30 1947 H 187.485 -2.9312 1.38748 0
M  V30 1948 H 187.27 -2.41856 3.08623 0
M  V30 1949 H 188.76 -3.27558 2.59029 0
M  V30 1950 N 189.197 -1.51736 -0.425897 0
M  V30 1951 C 190.422 -1.69082 -1.20108 0
M  V30 1952 C 190.847 -0.392398 -1.83962 0
M  V30 1953 O 190.205 0.64858 -1.69302 0
M  V30 1954 C 190.253 -2.81604 -2.25237 0
M  V30 1955 O 189.357 -2.46004 -3.30992 0
M  V30 1956 H 188.698 -0.563408 -0.35138 0
M  V30 1957 H 191.228 -1.98358 -0.501512 0
M  V30 1958 H 191.238 -3.06025 -2.69838 0
M  V30 1959 H 189.913 -3.75817 -1.78142 0
M  V30 1960 H 188.49 -2.32195 -2.91787 0
M  V30 1961 N 190.675 0.682077 -1.42076 0
M  V30 1962 C 191.608 1.80666 -1.3941 0
M  V30 1963 C 192.586 1.60518 -0.25939 0
M  V30 1964 O 193.77 1.83088 -0.448456 0
M  V30 1965 C 190.897 3.17556 -1.17796 0
M  V30 1966 C 189.943 3.56468 -2.34164 0
M  V30 1967 S 190.776 3.59729 -3.96681 0
M  V30 1968 C 191.932 4.99323 -3.77395 0
M  V30 1969 H 192.165 1.82652 -2.34575 0
M  V30 1970 H 189.698 0.852062 -1.2876 0
M  V30 1971 H 191.656 3.96575 -1.06012 0
M  V30 1972 H 190.317 3.13164 -0.242279 0
M  V30 1973 H 189.51 4.5595 -2.1477 0
M  V30 1974 H 189.112 2.84792 -2.42425 0
M  V30 1975 H 191.404 5.87202 -3.37935 0
M  V30 1976 H 192.347 5.23763 -4.76527 0
M  V30 1977 H 192.755 4.71498 -3.10403 0
M  V30 1978 N 192.153 1.28127 0.917671 0
M  V30 1979 C 193.116 1.11744 2.00115 0
M  V30 1980 C 194.116 0.0583052 1.60694 0
M  V30 1981 O 195.306 0.303755 1.71531 0
M  V30 1982 C 192.438 0.704862 3.33533 0
M  V30 1983 H 193.631 2.07966 2.16079 0
M  V30 1984 H 191.184 1.11058 1.09981 0
M  V30 1985 H 191.919 -0.258299 3.2327 0
M  V30 1986 H 191.704 1.4699 3.63505 0
M  V30 1987 H 193.194 0.612768 4.1308 0
M  V30 1988 N 193.631 -1.12557 1.10312 0
M  V30 1989 C 194.578 -2.18247 0.750781 0
M  V30 1990 C 195.548 -1.63853 -0.272293 0
M  V30 1991 O 196.733 -1.90195 -0.151862 0
M  V30 1992 C 193.873 -3.44591 0.187379 0
M  V30 1993 C 192.986 -4.13046 1.2656 0
M  V30 1994 C 192.121 -5.27034 0.663978 0
M  V30 1995 C 191.16 -5.87353 1.72287 0
M  V30 1996 N 190.297 -6.92757 1.1416 0
M  V30 1997 H 195.137 -2.47732 1.65628 0
M  V30 1998 H 192.674 -1.21629 0.827337 0
M  V30 1999 H 194.632 -4.16904 -0.157148 0
M  V30 2000 H 193.262 -3.15527 -0.681355 0
M  V30 2001 H 192.314 -3.38924 1.72727 0
M  V30 2002 H 193.626 -4.53947 2.06721 0
M  V30 2003 H 192.78 -6.06104 0.268824 0
M  V30 2004 H 191.519 -4.87407 -0.169082 0
M  V30 2005 H 190.524 -5.06971 2.12746 0
M  V30 2006 H 191.749 -6.29051 2.55875 0
M  V30 2007 H 189.695 -6.5517 0.329984 0
M  V30 2008 H 189.612 -7.3225 1.88007 0
M  V30 2009 H 190.88 -7.75658 0.772956 0
M  V30 2010 N 195.109 -0.891671 -1.2995 0
M  V30 2011 C 196.072 -0.36828 -2.26222 0
M  V30 2012 C 197.072 0.493014 -1.53056 0
M  V30 2013 O 198.262 0.299213 -1.71611 0
M  V30 2014 C 195.394 0.47442 -3.37583 0
M  V30 2015 H 196.587 -1.21844 -2.74033 0
M  V30 2016 H 194.14 -0.669107 -1.41254 0
M  V30 2017 H 194.875 1.34489 -2.95099 0
M  V30 2018 H 194.66 -0.142615 -3.91841 0
M  V30 2019 H 196.15 0.83218 -4.09224 0
M  V30 2020 N 196.587 1.43421 -0.653314 0
M  V30 2021 C 197.517 2.33487 0.0246656 0
M  V30 2022 C 198.498 1.49475 0.811863 0
M  V30 2023 O 199.683 1.78139 0.773322 0
M  V30 2024 C 196.813 3.32841 0.99166 0
M  V30 2025 C 195.767 4.26842 0.314568 0
M  V30 2026 C 195.093 5.16236 1.39302 0
M  V30 2027 C 196.393 5.16243 -0.793095 0
M  V30 2028 H 198.087 2.90427 -0.727481 0
M  V30 2029 H 195.633 1.39649 -0.351287 0
M  V30 2030 H 197.586 3.94747 1.47487 0
M  V30 2031 H 196.31 2.74158 1.77497 0
M  V30 2032 H 194.969 3.663 -0.148199 0
M  V30 2033 H 194.617 4.53891 2.16776 0
M  V30 2034 H 194.317 5.79948 0.945223 0
M  V30 2035 H 195.841 5.81015 1.87759 0
M  V30 2036 H 197.255 5.71958 -0.392039 0
M  V30 2037 H 195.652 5.88676 -1.16536 0
M  V30 2038 H 196.722 4.55927 -1.65103 0
M  V30 2039 N 198.065 0.39524 1.52563 0
M  V30 2040 C 198.995 -0.428384 2.29537 0
M  V30 2041 C 199.976 -1.05831 1.33169 0
M  V30 2042 O 201.161 -1.06995 1.62067 0
M  V30 2043 C 198.291 -1.55274 3.10656 0
M  V30 2044 C 197.245 -1.04855 4.14957 0
M  V30 2045 C 196.571 -2.26543 4.84337 0
M  V30 2046 C 197.871 -0.112324 5.22179 0
M  V30 2047 H 199.565 0.213867 2.98635 0
M  V30 2048 H 197.111 0.104298 1.43622 0
M  V30 2049 H 199.064 -2.1358 3.63265 0
M  V30 2050 H 197.788 -2.22266 2.39302 0
M  V30 2051 H 196.447 -0.487985 3.63338 0
M  V30 2052 H 196.095 -2.92059 4.09525 0
M  V30 2053 H 195.795 -1.93466 5.54837 0
M  V30 2054 H 197.319 -2.85481 5.39753 0
M  V30 2055 H 198.733 -0.603752 5.70112 0
M  V30 2056 H 197.13 0.128968 5.99961 0
M  V30 2057 H 198.2 0.837052 4.77621 0
M  V30 2058 N 199.544 -1.57102 0.125237 0
M  V30 2059 C 200.955 -1.82384 -0.399142 0
M  V30 2060 C 201.306 -1.04276 -1.66195 0
M  V30 2061 O 200.431 -0.281269 -2.14564 0
M  V30 2062 C 201.026 -3.30821 -0.730932 0
M  V30 2063 C 199.585 -3.56762 -1.19992 0
M  V30 2064 C 198.732 -2.7649 -0.211792 0
M  V30 2065 H 201.683 -1.54786 0.350277 0
M  V30 2066 H 201.704 -3.4579 -1.58775 0
M  V30 2067 H 201.216 -3.87643 0.188345 0
M  V30 2068 H 199.317 -3.05305 -2.13588 0
M  V30 2069 H 199.43 -4.65317 -1.14093 0
M  V30 2070 H 197.794 -2.4489 -0.700085 0
M  V30 2071 H 198.577 -3.36073 0.700691 0
M  V30 2072 N 201.022 0.148545 -1.56898 0
M  V30 2073 C 202.271 0.85984 -1.82454 0
M  V30 2074 C 202.584 1.82406 -0.706229 0
M  V30 2075 O 203.79 2.57938 -0.847349 0
M  V30 2076 C 202.246 1.57967 -3.2338 0
M  V30 2077 C 201.854 0.65794 -4.43142 0
M  V30 2078 C 203.598 2.27784 -3.58211 0
M  V30 2079 C 201.505 1.3793 -5.75091 0
M  V30 2080 H 200.435 0.324834 -0.68044 0
M  V30 2081 H 203.086 0.112588 -1.83154 0
M  V30 2082 H 201.468 2.37249 -3.17063 0
M  V30 2083 H 202.642 -0.0995497 -4.60692 0
M  V30 2084 H 200.957 0.0682643 -4.16344 0
M  V30 2085 H 203.554 2.8239 -4.54048 0
M  V30 2086 H 203.897 3.04204 -2.84193 0
M  V30 2087 H 204.43 1.55421 -3.66182 0
M  V30 2088 H 201.169 0.656982 -6.52199 0
M  V30 2089 H 200.689 2.10954 -5.61479 0
M  V30 2090 H 202.368 1.92063 -6.17835 0
M  V30 2091 N 202.5 1.5196 0.417844 0
M  V30 2092 C 203.433 1.69387 1.52916 0
M  V30 2093 C 204.411 0.541419 1.53321 0
M  V30 2094 O 205.595 0.767695 1.72159 0
M  V30 2095 C 202.722 1.72525 2.91467 0
M  V30 2096 C 201.768 2.93967 3.09008 0
M  V30 2097 S 202.601 4.54461 2.83242 0
M  V30 2098 C 203.757 4.60372 4.24038 0
M  V30 2099 H 203.99 2.63382 1.37903 0
M  V30 2100 H 201.523 1.41889 0.608845 0
M  V30 2101 H 203.481 1.75018 3.7132 0
M  V30 2102 H 202.142 0.796733 3.03827 0
M  V30 2103 H 201.335 2.92619 4.10353 0
M  V30 2104 H 200.937 2.89316 2.37007 0
M  V30 2105 H 203.229 4.37213 5.17544 0
M  V30 2106 H 204.172 5.62273 4.30412 0
M  V30 2107 H 204.58 3.89492 4.08602 0
M  V30 2108 N 203.978 -0.674533 1.42435 0
M  V30 2109 C 204.926 -1.80934 1.46169 0
M  V30 2110 C 205.92 -1.66006 0.3374 0
M  V30 2111 O 207.126 -1.72611 0.510425 0
M  V30 2112 H 203.501 -0.596594 0.457798 0
M  V30 2113 H 205.472 -1.74903 2.41767 0
M  V30 2114 C 204.221 -3.19088 1.38123 0
M  V30 2115 H 203.544 -3.31203 2.23931 0
M  V30 2116 H 204.984 -3.9851 1.44797 0
M  V30 2117 C 203.443 -3.36763 0.0960517 0
M  V30 2118 O 203.973 -3.92581 -0.851073 0
M  V30 2119 N 202.179 -2.90597 0.0131186 0
M  V30 2120 H 201.726 -2.45359 0.784639 0
M  V30 2121 H 201.684 -3.028 -0.846133 0
M  V30 2122 N 205.456 -1.28612 -0.910864 0
M  V30 2123 C 206.867 -1.14406 -1.47541 0
M  V30 2124 C 207.218 0.264901 -1.94403 0
M  V30 2125 O 206.343 1.15942 -1.82719 0
M  V30 2126 C 206.938 -2.07073 -2.68153 0
M  V30 2127 C 205.497 -1.96923 -3.20778 0
M  V30 2128 C 204.644 -1.98646 -1.93481 0
M  V30 2129 H 207.595 -1.41259 -0.723291 0
M  V30 2130 H 207.616 -1.63642 -3.43514 0
M  V30 2131 H 207.128 -3.09611 -2.34015 0
M  V30 2132 H 205.229 -0.97433 -3.59635 0
M  V30 2133 H 205.342 -2.84026 -3.85832 0
M  V30 2134 H 203.706 -1.43093 -2.10705 0
M  V30 2135 H 204.489 -3.02868 -1.61634 0
M  V30 2136 N 206.934 1.1197 -1.10907 0
M  V30 2137 C 208.182 1.83225 -0.852819 0
M  V30 2138 C 208.503 1.84769 0.623341 0
M  V30 2139 O 207.773 1.3143 1.45269 0
M  V30 2140 H 206.353 0.67849 -0.312507 0
M  V30 2141 H 209.015 1.3556 -1.40033 0
M  V30 2142 H 208.111 2.87265 -1.22005 0
M  V30 2143 N 208.412 0.89855 1.29475 0
M  V30 2144 C 209.66 0.522847 1.9522 0
M  V30 2145 C 209.981 -0.93371 1.71192 0
M  V30 2146 O 209.251 -1.65823 1.04305 0
M  V30 2147 H 207.831 0.190366 0.722336 0
M  V30 2148 H 210.493 1.14459 1.5775 0
M  V30 2149 H 209.589 0.704476 3.04045 0
M  V30 2150 N 209.89 -1.43072 0.660911 0
M  V30 2151 C 211.115 -2.06584 0.183805 0
M  V30 2152 C 211.54 -1.49257 -1.14472 0
M  V30 2153 O 210.898 -0.605528 -1.70889 0
M  V30 2154 C 210.946 -3.60418 0.114434 0
M  V30 2155 O 210.05 -4.01981 -0.921137 0
M  V30 2156 H 209.391 -0.656669 0.0983994 0
M  V30 2157 H 211.921 -1.83447 0.906006 0
M  V30 2158 H 211.931 -4.07946 -0.0663394 0
M  V30 2159 H 210.606 -4.01519 1.08422 0
M  V30 2160 H 209.183 -3.66029 -0.71253 0
M  V30 2161 N 211.368 -0.403325 -1.52352 0
M  V30 2162 C 212.617 0.175668 -2.00934 0
M  V30 2163 C 212.93 1.46718 -1.29356 0
M  V30 2164 O 214.136 2.12708 -1.68724 0
M  V30 2165 C 212.592 0.363612 -3.58058 0
M  V30 2166 C 212.2 -0.915472 -4.38547 0
M  V30 2167 C 213.944 0.89821 -4.14888 0
M  V30 2168 C 211.851 -0.695035 -5.87302 0
M  V30 2169 H 210.781 0.0694234 -0.750797 0
M  V30 2170 H 213.432 -0.527879 -1.75743 0
M  V30 2171 H 211.814 1.12935 -3.79555 0
M  V30 2172 H 212.988 -1.68691 -4.28812 0
M  V30 2173 H 211.303 -1.37606 -3.93006 0
M  V30 2174 H 213.9 1.07907 -5.23699 0
M  V30 2175 H 214.243 1.87126 -3.71873 0
M  V30 2176 H 214.776 0.191681 -3.97338 0
M  V30 2177 H 211.515 -1.63948 -6.34666 0
M  V30 2178 H 211.035 0.0372116 -5.99788 0
M  V30 2179 H 212.714 -0.33497 -6.46132 0
M  V30 2180 N 212.846 1.57033 -0.133567 0
M  V30 2181 C 214.092 1.95976 0.521649 0
M  V30 2182 C 214.425 1.01779 1.65393 0
M  V30 2183 O 213.7 0.0576581 1.94415 0
M  V30 2184 C 213.983 3.44738 1.04057 0
M  V30 2185 C 213.836 4.49711 -0.0892897 0
M  V30 2186 C 215.155 3.95682 1.92675 0
M  V30 2187 H 212.274 0.712579 0.188149 0
M  V30 2188 H 214.916 1.88813 -0.212076 0
M  V30 2189 H 213.066 3.50973 1.66583 0
M  V30 2190 H 214.738 4.55565 -0.725152 0
M  V30 2191 H 212.981 4.27261 -0.750378 0
M  V30 2192 H 213.652 5.51099 0.315284 0
M  V30 2193 H 216.128 3.91841 1.39998 0
M  V30 2194 H 215.004 5.00262 2.25897 0
M  V30 2195 H 215.265 3.37239 2.85872 0
M  V30 2196 N 214.325 -0.140222 1.56975 0
M  V30 2197 C 215.573 -0.850005 1.83356 0
M  V30 2198 C 215.894 -1.81399 0.71551 0
M  V30 2199 O 215.164 -1.94136 -0.262294 0
M  V30 2200 H 213.744 -0.316886 0.676456 0
M  V30 2201 H 216.406 -0.132608 1.94448 0
M  V30 2202 H 215.502 -1.40814 2.78528 0
M  V30 2203 N 215.803 -1.52179 -0.40978 0
M  V30 2204 C 216.736 -1.70196 -1.52015 0
M  V30 2205 C 217.714 -0.549542 -1.53032 0
M  V30 2206 O 218.898 -0.776815 -1.71749 0
M  V30 2207 C 216.025 -1.74069 -2.90547 0
M  V30 2208 C 215.071 -2.95601 -3.07445 0
M  V30 2209 S 215.904 -4.55956 -2.80827 0
M  V30 2210 C 217.06 -4.62614 -4.21591 0
M  V30 2211 H 217.293 -2.64109 -1.36504 0
M  V30 2212 H 214.826 -1.4221 -0.601312 0
M  V30 2213 H 216.784 -1.76985 -3.70387 0
M  V30 2214 H 215.445 -0.812835 -3.034 0
M  V30 2215 H 214.638 -2.94791 -4.08796 0
M  V30 2216 H 214.24 -2.90569 -2.35469 0
M  V30 2217 H 216.532 -4.39951 -5.15218 0
M  V30 2218 H 217.475 -5.64548 -4.27424 0
M  V30 2219 H 217.883 -3.91654 -4.06531 0
M  V30 2220 N 217.281 0.66697 -1.42791 0
M  V30 2221 C 218.558 1.4234 -1.34159 0
M  V30 2222 C 218.938 2.11093 0.0172729 0
M  V30 2223 O 218.286 2.03808 1.03318 0
M  V30 2224 C 218.496 2.41942 -2.51526 0
M  V30 2225 C 219.844 3.06353 -2.93995 0
M  V30 2226 O 220.868 2.52269 -2.51473 0
M  V30 2227 O 219.727 4.04376 -3.67617 0
M  V30 2228 H 216.821 0.635277 -0.529483 0
M  V30 2229 H 219.367 0.695034 -1.54814 0
M  V30 2230 H 218.139 1.89991 -3.42081 0
M  V30 2231 H 217.762 3.22249 -2.32898 0
M  V30 2232 N 218.759 1.29093 0.90403 0
M  V30 2233 C 220.006 1.16813 1.65411 0
M  V30 2234 C 220.334 -0.28128 1.92455 0
M  V30 2235 O 219.589 -1.22006 1.53013 0
M  V30 2236 C 219.888 1.92224 3.01305 0
M  V30 2237 C 219.554 3.41968 2.93885 0
M  V30 2238 C 218.216 3.82807 2.91569 0
M  V30 2239 C 220.568 4.37409 2.83413 0
M  V30 2240 C 217.896 5.1741 2.76594 0
M  V30 2241 C 220.248 5.72097 2.69977 0
M  V30 2242 C 218.912 6.12199 2.66024 0
M  V30 2243 H 218.182 0.42745 0.605283 0
M  V30 2244 H 220.829 1.59981 1.05254 0
M  V30 2245 H 219.134 1.41635 3.65304 0
M  V30 2246 H 220.831 1.80131 3.58265 0
M  V30 2247 H 217.421 3.09504 2.96488 0
M  V30 2248 H 221.605 4.06813 2.84283 0
M  V30 2249 H 216.861 5.47596 2.71935 0
M  V30 2250 H 221.035 6.45704 2.60844 0
M  V30 2251 H 218.662 7.16448 2.54178 0
M  V30 2252 N 220.237 -1.11381 1.11499 0
M  V30 2253 C 221.514 -1.7955 0.775965 0
M  V30 2254 C 221.894 -1.97859 -0.73588 0
M  V30 2255 O 221.242 -1.56376 -1.66609 0
M  V30 2256 C 221.452 -3.13196 1.53977 0
M  V30 2257 C 222.8 -3.88227 1.71944 0
M  V30 2258 O 223.824 -3.22887 1.50407 0
M  V30 2259 O 222.683 -5.05477 2.07738 0
M  V30 2260 H 219.777 -0.777728 0.28119 0
M  V30 2261 H 222.323 -1.18118 1.21845 0
M  V30 2262 H 221.095 -2.95229 2.56818 0
M  V30 2263 H 220.718 -3.82342 1.09088 0
M  V30 2264 N 221.715 -0.905404 -1.28997 0
M  V30 2265 C 223.126 -0.581953 -1.77398 0
M  V30 2266 C 223.477 0.902552 -1.74208 0
M  V30 2267 O 222.602 1.70584 -1.33154 0
M  V30 2268 C 223.197 -1.04961 -3.22131 0
M  V30 2269 C 221.756 -0.777229 -3.68288 0
M  V30 2270 C 220.903 -1.22109 -2.48967 0
M  V30 2271 H 223.854 -1.08754 -1.15578 0
M  V30 2272 H 223.875 -0.387387 -3.78523 0
M  V30 2273 H 223.387 -2.13008 -3.24421 0
M  V30 2274 H 221.488 0.290383 -3.71467 0
M  V30 2275 H 221.601 -1.37911 -4.58822 0
M  V30 2276 H 219.965 -0.639971 -2.46529 0
M  V30 2277 H 220.748 -2.30972 -2.53982 0
M  V30 2278 N 223.193 1.4272 -0.668489 0
M  V30 2279 C 224.418 2.06484 -0.194758 0
M  V30 2280 C 224.843 1.49862 1.13679 0
M  V30 2281 O 224.201 0.614582 1.70565 0
M  V30 2282 C 224.249 3.60353 -0.133546 0
M  V30 2283 O 223.353 4.02464 0.899806 0
M  V30 2284 H 222.694 0.656137 -0.10188 0
M  V30 2285 H 225.224 1.82964 -0.915722 0
M  V30 2286 H 225.234 4.07976 0.0447041 0
M  V30 2287 H 223.909 4.00938 -1.1055 0
M  V30 2288 H 222.486 3.66402 0.693109 0
M  V30 2289 N 224.671 0.411399 1.52136 0
M  V30 2290 C 226.087 0.0623865 1.59478 0
M  V30 2291 C 226.287 -1.42554 1.4241 0
M  V30 2292 O 225.343 -2.19263 1.2522 0
M  V30 2293 C 226.656 0.559331 2.95452 0
M  V30 2294 C 228.204 0.517503 3.08692 0
M  V30 2295 C 228.679 0.990994 4.4715 0
M  V30 2296 N 230.17 0.947908 4.53397 0
M  V30 2297 C 230.905 1.28544 5.58806 0
M  V30 2298 N 230.401 1.69454 6.71757 0
M  V30 2299 N 232.194 1.20526 5.49026 0
M  V30 2300 H 224.345 1.37982 1.61477 0
M  V30 2301 H 226.608 0.566977 0.759764 0
M  V30 2302 H 226.314 1.59938 3.1323 0
M  V30 2303 H 226.188 -0.0298014 3.77188 0
M  V30 2304 H 228.575 -0.513505 2.90598 0
M  V30 2305 H 228.656 1.14272 2.28857 0
M  V30 2306 H 228.3 2.02034 4.65988 0
M  V30 2307 H 228.23 0.34257 5.25485 0
M  V30 2308 H 230.721 0.647157 3.72317 0
M  V30 2309 H 231.034 1.93513 7.48179 0
M  V30 2310 H 229.379 1.73359 6.73032 0
M  V30 2311 H 232.57 0.884505 4.59667 0
M  V30 2312 H 232.743 1.47161 6.31069 0
M  V30 2313 N 226.149 -1.5696 0.141893 0
M  V30 2314 C 227.112 -2.15316 -0.785587 0
M  V30 2315 C 228.112 -1.09366 -1.1788 0
M  V30 2316 O 229.302 -1.35031 -1.10056 0
M  V30 2317 C 226.434 -2.71211 -2.06537 0
M  V30 2318 H 227.627 -2.98608 -0.278041 0
M  V30 2319 H 225.18 -1.5593 -0.107519 0
M  V30 2320 H 225.915 -1.91571 -2.6167 0
M  V30 2321 H 225.7 -3.4872 -1.79268 0
M  V30 2322 H 227.19 -3.16189 -2.72789 0
M  V30 2323 N 227.627 0.131896 -1.57047 0
M  V30 2324 C 228.56 1.19236 -1.94571 0
M  V30 2325 C 229.538 1.40782 -0.813576 0
M  V30 2326 O 230.722 1.55148 -1.07058 0
M  V30 2327 C 227.849 2.54858 -2.23081 0
M  V30 2328 C 226.895 2.49817 -3.45679 0
M  V30 2329 S 227.728 1.95036 -4.98719 0
M  V30 2330 C 228.884 3.32357 -5.30367 0
M  V30 2331 H 229.117 0.872297 -2.84215 0
M  V30 2332 H 226.65 0.338134 -1.50652 0
M  V30 2333 H 228.608 3.32898 -2.40185 0
M  V30 2334 H 227.269 2.84047 -1.34074 0
M  V30 2335 H 226.462 3.49688 -3.62952 0
M  V30 2336 H 226.064 1.79892 -3.27895 0
M  V30 2337 H 228.356 4.28525 -5.2476 0
M  V30 2338 H 229.299 3.19923 -6.31708 0
M  V30 2339 H 229.707 3.3019 -4.57859 0
M  V30 2340 N 229.106 1.52395 0.401703 0
M  V30 2341 C 230.517 1.58899 0.980202 0
M  V30 2342 C 230.868 0.434032 1.91339 0
M  V30 2343 O 229.993 -0.444619 2.11783 0
M  V30 2344 C 230.588 2.87994 1.78451 0
M  V30 2345 C 229.147 2.96953 2.31292 0
M  V30 2346 C 228.294 2.53903 1.11483 0
M  V30 2347 H 231.245 1.57657 0.18168 0
M  V30 2348 H 231.266 2.73765 2.64259 0
M  V30 2349 H 230.778 3.72035 1.10506 0
M  V30 2350 H 228.879 2.17422 3.02586 0
M  V30 2351 H 228.992 4.01344 2.61649 0
M  V30 2352 H 227.356 2.07925 1.47104 0
M  V30 2353 H 228.139 3.40326 0.450928 0
M  V30 2354 N 230.584 -0.659388 1.43143 0
M  V30 2355 C 231.547 -1.75432 1.47501 0
M  V30 2356 C 232.547 -1.56707 0.360512 0
M  V30 2357 O 233.737 -1.62717 0.622002 0
M  V30 2358 C 230.869 -3.14239 1.32162 0
M  V30 2359 H 232.062 -1.7295 2.45006 0
M  V30 2360 H 229.615 -0.870469 1.29817 0
M  V30 2361 H 230.35 -3.22336 0.356401 0
M  V30 2362 H 230.135 -3.29235 2.12948 0
M  V30 2363 H 231.625 -3.94094 1.3813 0
M  V30 2364 N 232.062 -1.29571 -0.897171 0
M  V30 2365 C 233.292 -1.20408 -1.67886 0
M  V30 2366 C 233.7 0.237429 -1.87704 0
M  V30 2367 O 233.043 1.17048 -1.41582 0
M  V30 2368 C 233.105 -1.84887 -3.08314 0
M  V30 2369 C 232.769 -3.34189 -3.11716 0
M  V30 2370 C 233.766 -4.30374 -2.91675 0
M  V30 2371 C 231.451 -3.75431 -3.33701 0
M  V30 2372 C 233.445 -5.65776 -2.93557 0
M  V30 2373 C 231.132 -5.10955 -3.35214 0
M  V30 2374 C 232.13 -6.05938 -3.15164 0
M  V30 2375 O 231.818 -7.38987 -3.1647 0
M  V30 2376 H 231.55 -0.418289 -0.531046 0
M  V30 2377 H 234.104 -1.71514 -1.13014 0
M  V30 2378 H 232.334 -1.28295 -3.64798 0
M  V30 2379 H 234.023 -1.70011 -3.6858 0
M  V30 2380 H 234.789 -3.99844 -2.74499 0
M  V30 2381 H 230.668 -3.01953 -3.48347 0
M  V30 2382 H 234.212 -6.39889 -2.77826 0
M  V30 2383 H 230.109 -5.4113 -3.51922 0
M  V30 2384 H 230.877 -7.47823 -3.3272 0
M  V30 2385 N 233.54 1.10788 -1.12088 0
M  V30 2386 C 234.488 2.19111 -0.780587 0
M  V30 2387 C 235.482 1.67818 0.230961 0
M  V30 2388 O 236.688 1.79777 0.0895427 0
M  V30 2389 H 233.063 0.714477 -0.234578 0
M  V30 2390 H 235.034 2.45055 -1.70266 0
M  V30 2391 C 233.783 3.46818 -0.24747 0
M  V30 2392 H 233.106 3.86646 -1.01712 0
M  V30 2393 H 234.546 4.23973 -0.0476291 0
M  V30 2394 C 233.005 3.20968 1.02378 0
M  V30 2395 O 233.535 3.42298 2.10226 0
M  V30 2396 N 231.741 2.74658 0.949271 0
M  V30 2397 H 231.288 2.57501 0.0715173 0
M  V30 2398 H 231.246 2.57739 1.80049 0
M  V30 2399 N 235.018 0.912232 1.28515 0
M  V30 2400 C 236.264 0.554851 1.95686 0
M  V30 2401 C 236.619 -0.89138 1.70506 0
M  V30 2402 O 235.912 -1.62529 1.01464 0
M  V30 2403 C 236.106 0.798392 3.48368 0
M  V30 2404 C 235.935 2.26674 3.88393 0
M  V30 2405 C 234.705 2.91657 4.12631 0
M  V30 2406 C 236.903 3.24303 3.99164 0
M  V30 2407 N 234.885 4.28805 4.39317 0
M  V30 2408 C 236.256 4.4661 4.30046 0
M  V30 2409 C 238.311 3.19723 3.81683 0
M  V30 2410 C 237.014 5.64915 4.45268 0
M  V30 2411 C 239.04 4.37325 3.98121 0
M  V30 2412 C 238.402 5.58406 4.29375 0
M  V30 2413 H 234.501 0.252876 0.739985 0
M  V30 2414 H 237.085 1.17565 1.55199 0
M  V30 2415 H 235.256 0.20688 3.87849 0
M  V30 2416 H 236.988 0.405193 4.02666 0
M  V30 2417 H 233.743 2.42393 4.06869 0
M  V30 2418 H 234.167 4.99712 4.56746 0
M  V30 2419 H 238.809 2.27191 3.56573 0
M  V30 2420 H 236.527 6.57927 4.6921 0
M  V30 2421 H 240.113 4.35282 3.86033 0
M  V30 2422 H 238.993 6.47889 4.41825 0
M  V30 2423 N 236.496 -1.42363 0.676048 0
M  V30 2424 C 237.429 -2.28141 -0.0516916 0
M  V30 2425 C 238.407 -1.41135 -0.807439 0
M  V30 2426 O 239.591 -1.70573 -0.802305 0
M  V30 2427 C 236.718 -3.21007 -1.08039 0
M  V30 2428 C 235.764 -4.24426 -0.420076 0
M  V30 2429 S 236.597 -5.29134 0.823246 0
M  V30 2430 C 237.753 -6.25566 -0.204344 0
M  V30 2431 H 237.986 -2.89515 0.675884 0
M  V30 2432 H 235.519 -1.47211 0.465635 0
M  V30 2433 H 237.477 -3.75048 -1.66881 0
M  V30 2434 H 236.138 -2.58766 -1.78042 0
M  V30 2435 H 235.331 -4.89596 -1.19633 0
M  V30 2436 H 234.933 -3.7388 0.0947845 0
M  V30 2437 H 237.225 -6.69098 -1.06369 0
M  V30 2438 H 238.168 -7.06895 0.412915 0
M  V30 2439 H 238.576 -5.61811 -0.55038 0
M  V30 2440 N 237.974 -0.419461 -1.51915 0
M  V30 2441 C 239.202 0.152136 -2.0634 0
M  V30 2442 C 239.617 1.37988 -1.28859 0
M  V30 2443 O 238.974 1.79243 -0.343232 0
M  V30 2444 C 239.025 0.492266 -3.58133 0
M  V30 2445 O 238.746 -0.686736 -4.32684 0
M  V30 2446 C 240.247 1.11648 -4.2901 0
M  V30 2447 H 237.467 0.0158325 -0.670813 0
M  V30 2448 H 240.011 -0.593394 -1.95702 0
M  V30 2449 H 238.166 1.18769 -3.68745 0
M  V30 2450 H 238.58 -0.400341 -5.2297 0
M  V30 2451 H 240.054 1.3046 -5.36362 0
M  V30 2452 H 240.531 2.09251 -3.86148 0
M  V30 2453 H 241.137 0.460958 -4.22795 0
M  V30 2454 N 239.452 1.56882 -0.150215 0
M  V30 2455 C 240.698 1.96518 0.500834 0
M  V30 2456 C 241.031 1.03527 1.64304 0
M  V30 2457 O 240.306 0.0782751 1.94342 0
M  V30 2458 C 240.589 3.45822 1.00395 0
M  V30 2459 C 240.442 4.49591 -0.136983 0
M  V30 2460 C 241.761 3.97704 1.88467 0
M  V30 2461 H 238.88 0.714535 0.18058 0
M  V30 2462 H 241.522 1.88577 -0.232091 0
M  V30 2463 H 239.672 3.5272 1.62851 0
M  V30 2464 H 241.344 4.5477 -0.77343 0
M  V30 2465 H 239.587 4.26441 -0.795652 0
M  V30 2466 H 240.258 5.51402 0.256815 0
M  V30 2467 H 242.734 3.93304 1.35834 0
M  V30 2468 H 241.61 5.0263 2.20578 0
M  V30 2469 H 241.871 3.40252 2.82279 0
M  V30 2470 N 240.93 -0.123565 1.57115 0
M  V30 2471 C 241.893 -1.13583 1.99076 0
M  V30 2472 C 242.893 -1.34564 0.880296 0
M  V30 2473 O 244.083 -1.31158 1.14644 0
M  V30 2474 C 241.215 -2.49128 2.32698 0
M  V30 2475 H 242.408 -0.775287 2.89706 0
M  V30 2476 H 239.961 -0.36771 1.51913 0
M  V30 2477 H 240.696 -2.90111 1.44934 0
M  V30 2478 H 240.481 -2.35255 3.13684 0
M  V30 2479 H 241.971 -3.2199 2.65918 0
M  V30 2480 N 242.408 -1.52605 -0.393616 0
M  V30 2481 C 243.355 -1.77055 -1.48054 0
M  V30 2482 C 244.325 -0.61358 -1.54352 0
M  V30 2483 O 245.51 -0.852806 -1.70681 0
M  V30 2484 C 242.65 -1.94108 -2.85335 0
M  V30 2485 C 241.763 -3.21792 -2.88226 0
M  V30 2486 C 240.898 -3.29188 -4.16904 0
M  V30 2487 C 239.937 -4.51013 -4.13828 0
M  V30 2488 N 239.074 -4.55716 -5.34105 0
M  V30 2489 H 243.914 -2.69815 -1.26506 0
M  V30 2490 H 241.451 -1.33683 -0.61379 0
M  V30 2491 H 243.409 -2.01979 -3.65049 0
M  V30 2492 H 242.039 -1.04713 -3.05344 0
M  V30 2493 H 241.091 -3.23015 -2.00911 0
M  V30 2494 H 242.403 -4.11557 -2.8182 0
M  V30 2495 H 241.557 -3.36216 -5.05018 0
M  V30 2496 H 240.296 -2.37389 -4.26026 0
M  V30 2497 H 239.301 -4.44115 -3.24102 0
M  V30 2498 H 240.526 -5.44123 -4.06333 0
M  V30 2499 H 238.472 -3.66807 -5.43865 0
M  V30 2500 H 238.389 -5.39346 -5.29756 0
M  V30 2501 H 239.657 -4.66993 -6.2413 0
M  V30 2502 N 243.887 0.651787 -1.4349 0
M  V30 2503 C 245.112 1.44434 -1.48841 0
M  V30 2504 C 245.537 1.8779 -0.107955 0
M  V30 2505 O 244.895 1.57464 0.898602 0
M  V30 2506 C 244.943 2.65458 -2.44059 0
M  V30 2507 O 244.047 3.64566 -1.92784 0
M  V30 2508 H 243.388 0.433005 -0.503391 0
M  V30 2509 H 245.918 0.797451 -1.88419 0
M  V30 2510 H 245.928 3.13255 -2.6141 0
M  V30 2511 H 244.603 2.33244 -3.4434 0
M  V30 2512 H 243.18 3.23716 -1.851 0
M  V30 2513 N 245.365 1.30045 0.890287 0
M  V30 2514 C 246.328 1.15963 1.977 0
M  V30 2515 C 247.328 0.0923777 1.60534 0
M  V30 2516 O 248.518 0.340071 1.70848 0
M  V30 2517 C 245.65 0.775451 3.31963 0
M  V30 2518 H 246.843 2.12502 2.11619 0
M  V30 2519 H 244.396 1.13366 1.07601 0
M  V30 2520 H 245.131 -0.189671 3.23745 0
M  V30 2521 H 244.916 1.54668 3.60306 0
M  V30 2522 H 246.406 0.700251 4.11687 0
M  V30 2523 N 246.843 -1.10192 1.12674 0
M  V30 2524 C 247.773 -2.18652 0.819362 0
M  V30 2525 C 248.754 -1.68698 -0.217915 0
M  V30 2526 O 249.939 -1.94041 -0.0785581 0
M  V30 2527 C 247.069 -3.46202 0.27594 0
M  V30 2528 C 246.023 -4.09444 1.24656 0
M  V30 2529 C 245.349 -5.31725 0.563258 0
M  V30 2530 C 246.649 -4.52863 2.60217 0
M  V30 2531 H 248.343 -2.44622 1.72628 0
M  V30 2532 H 245.889 -1.17571 0.831451 0
M  V30 2533 H 247.842 -4.21372 0.0486149 0
M  V30 2534 H 246.566 -3.1973 -0.666331 0
M  V30 2535 H 245.225 -3.36284 1.45974 0
M  V30 2536 H 244.873 -5.0153 -0.384235 0
M  V30 2537 H 244.573 -5.74991 1.21075 0
M  V30 2538 H 246.097 -6.09624 0.34503 0
M  V30 2539 H 247.511 -5.19294 2.42913 0
M  V30 2540 H 245.908 -5.06986 3.21068 0
M  V30 2541 H 246.978 -3.65656 3.18471 0
M  V30 2542 N 248.321 -0.919034 -1.28029 0
M  V30 2543 C 249.231 -0.416756 -2.30869 0
M  V30 2544 C 250.247 0.498235 -1.66714 0
M  V30 2545 O 251.423 0.383144 -1.97722 0
M  V30 2546 C 248.488 0.330274 -3.45123 0
M  V30 2547 C 247.549 -0.618578 -4.2482 0
M  V30 2548 C 246.782 0.0928959 -5.33619 0
M  V30 2549 O 247.005 1.31375 -5.55065 0
M  V30 2550 O 245.939 -0.574499 -5.99152 0
M  V30 2551 H 249.765 -1.27043 -2.75851 0
M  V30 2552 H 247.35 -0.684052 -1.3282 0
M  V30 2553 H 249.232 0.751972 -4.14636 0
M  V30 2554 H 247.907 1.1597 -3.02213 0
M  V30 2555 H 246.814 -1.08978 -3.57875 0
M  V30 2556 H 248.147 -1.41497 -4.71423 0
M  V30 2557 N 249.799 1.42003 -0.683588 0
M  V30 2558 C 251.024 2.06265 -0.216647 0
M  V30 2559 C 251.449 1.51059 1.12083 0
M  V30 2560 O 250.807 0.632638 1.69904 0
M  V30 2561 C 250.855 3.60191 -0.171759 0
M  V30 2562 O 249.959 4.03396 0.857069 0
M  V30 2563 H 249.3 0.65502 -0.108834 0
M  V30 2564 H 251.83 1.81982 -0.935077 0
M  V30 2565 H 251.84 4.08 0.0014303 0
M  V30 2566 H 250.515 3.99743 -1.14796 0
M  V30 2567 H 249.092 3.67117 0.654208 0
M  V30 2568 N 251.277 0.427512 1.51691 0
M  V30 2569 C 252.523 -0.142439 2.02299 0
M  V30 2570 C 252.856 -1.43214 1.31162 0
M  V30 2571 O 252.131 -1.89833 0.423511 0
M  V30 2572 C 252.414 -0.371301 3.58181 0
M  V30 2573 C 252.267 0.936358 4.39946 0
M  V30 2574 C 253.586 -1.14542 4.24933 0
M  V30 2575 H 250.705 -0.0502937 0.735282 0
M  V30 2576 H 253.347 0.564584 1.81418 0
M  V30 2577 H 251.497 -0.973559 3.76104 0
M  V30 2578 H 253.169 1.57184 4.33694 0
M  V30 2579 H 251.412 1.5432 4.05423 0
M  V30 2580 H 252.083 0.730388 5.47147 0
M  V30 2581 H 254.559 -0.635362 4.11221 0
M  V30 2582 H 253.435 -1.27431 5.33903 0
M  V30 2583 H 253.696 -2.17093 3.85127 0
M  V30 2584 N 252.755 -1.56801 0.158532 0
M  V30 2585 C 253.703 -2.18638 -0.793729 0
M  V30 2586 C 254.697 -1.14669 -1.24689 0
M  V30 2587 O 255.903 -1.32895 -1.21403 0
M  V30 2588 H 252.278 -0.700226 -0.274204 0
M  V30 2589 H 254.249 -2.97367 -0.248095 0
M  V30 2590 C 252.998 -2.83139 -2.0181 0
M  V30 2591 H 252.321 -3.62863 -1.67841 0
M  V30 2592 H 253.761 -3.29894 -2.66357 0
M  V30 2593 C 252.22 -1.82244 -2.83353 0
M  V30 2594 O 252.75 -1.3 -3.80083 0
M  V30 2595 N 250.956 -1.51288 -2.48114 0
M  V30 2596 H 250.503 -1.93964 -1.69516 0
M  V30 2597 H 250.461 -0.840296 -3.02963 0
M  V30 2598 N 254.233 0.115231 -1.57178 0
M  V30 2599 C 255.649 0.468877 -1.52557 0
M  V30 2600 C 255.849 1.81649 -0.872125 0
M  V30 2601 O 254.905 2.48347 -0.45606 0
M  V30 2602 C 256.218 0.4499 -2.97315 0
M  V30 2603 C 257.766 0.533185 -3.08425 0
M  V30 2604 C 258.241 0.54456 -4.54751 0
M  V30 2605 N 259.732 0.605892 -4.5922 0
M  V30 2606 C 260.467 0.636203 -5.6986 0
M  V30 2607 N 259.963 0.623931 -6.89985 0
M  V30 2608 N 261.756 0.679496 -5.57978 0
M  V30 2609 H 253.907 -0.767712 -1.9804 0
M  V30 2610 H 256.17 -0.283609 -0.904583 0
M  V30 2611 H 255.876 -0.472721 -3.48509 0
M  V30 2612 H 255.75 1.27632 -3.5495 0
M  V30 2613 H 258.137 1.44623 -2.57232 0
M  V30 2614 H 258.218 -0.320995 -2.53778 0
M  V30 2615 H 257.862 -0.364452 -5.06591 0
M  V30 2616 H 257.792 1.41568 -5.07214 0
M  V30 2617 H 260.283 0.621386 -3.72756 0
M  V30 2618 H 260.596 0.649787 -7.70063 0
M  V30 2619 H 258.941 0.591296 -6.9248 0
M  V30 2620 H 262.132 0.686472 -4.63039 0
M  V30 2621 H 262.305 0.69965 -6.44212 0
M  V30 2622 N 255.711 1.52812 0.385517 0
M  V30 2623 C 256.958 1.68026 1.1302 0
M  V30 2624 C 257.286 0.421934 1.89868 0
M  V30 2625 O 256.541 -0.595749 1.86412 0
M  V30 2626 C 256.84 2.86856 2.13187 0
M  V30 2627 C 256.506 4.24159 1.5297 0
M  V30 2628 C 255.168 4.61501 1.36274 0
M  V30 2629 C 257.52 5.09627 1.09223 0
M  V30 2630 C 254.848 5.81966 0.743837 0
M  V30 2631 C 257.2 6.30719 0.487411 0
M  V30 2632 C 255.864 6.6679 0.307777 0
M  V30 2633 H 255.134 0.614849 0.413571 0
M  V30 2634 H 257.781 1.86962 0.414405 0
M  V30 2635 H 256.086 2.6235 2.90998 0
M  V30 2636 H 257.783 2.95821 2.70722 0
M  V30 2637 H 254.373 3.94746 1.66954 0
M  V30 2638 H 258.557 4.81343 1.20922 0
M  V30 2639 H 253.813 6.08519 0.592891 0
M  V30 2640 H 257.987 6.96259 0.140143 0
M  V30 2641 H 255.614 7.60001 -0.173879 0
M  V30 2642 N 257.189 -0.644168 1.43834 0
M  V30 2643 C 258.435 -1.40603 1.46146 0
M  V30 2644 C 258.768 -1.93997 0.0887717 0
M  V30 2645 O 258.043 -1.72854 -0.891724 0
M  V30 2646 C 258.326 -2.58086 2.51124 0
M  V30 2647 C 258.179 -2.10126 3.97702 0
M  V30 2648 C 259.498 -3.60291 2.52742 0
M  V30 2649 H 256.617 -0.509905 0.532134 0
M  V30 2650 H 259.259 -0.729502 1.75437 0
M  V30 2651 H 257.409 -3.15801 2.26278 0
M  V30 2652 H 259.081 -1.57342 4.33637 0
M  V30 2653 H 257.324 -1.41419 4.10101 0
M  V30 2654 H 257.995 -2.94649 4.66783 0
M  V30 2655 H 260.471 -3.12352 2.7491 0
M  V30 2656 H 259.347 -4.40032 3.28121 0
M  V30 2657 H 259.608 -4.1349 1.56455 0
M  V30 2658 N 258.668 -1.30515 -0.883378 0
M  V30 2659 C 259.631 -1.1701 -1.97082 0
M  V30 2660 C 260.631 -0.10089 -1.60483 0
M  V30 2661 O 261.821 -0.349127 -1.70666 0
M  V30 2662 C 258.953 -0.793045 -3.31547 0
M  V30 2663 H 260.146 -2.13622 -2.10489 0
M  V30 2664 H 257.699 -1.13935 -1.06998 0
M  V30 2665 H 258.434 0.172499 -3.23841 0
M  V30 2666 H 258.219 -1.56576 -3.5948 0
M  V30 2667 H 259.709 -0.722073 -4.1131 0
M  V30 2668 N 260.146 1.09593 -1.13257 0
M  V30 2669 C 261.562 1.33775 -0.870423 0
M  V30 2670 C 261.762 1.95327 0.494926 0
M  V30 2671 O 260.818 2.19853 1.2418 0
M  V30 2672 C 262.131 2.25106 -1.99369 0
M  V30 2673 C 263.679 2.3862 -2.02558 0
M  V30 2674 C 264.154 3.33285 -3.14142 0
M  V30 2675 N 265.645 3.40857 -3.13641 0
M  V30 2676 C 266.38 4.14101 -3.96621 0
M  V30 2677 N 265.876 4.90157 -4.8961 0
M  V30 2678 N 267.669 4.09808 -3.84726 0
M  V30 2679 H 259.82 0.680136 -2.01216 0
M  V30 2680 H 262.083 0.362133 -0.876107 0
M  V30 2681 H 261.789 1.87103 -2.97801 0
M  V30 2682 H 261.663 3.25481 -1.90635 0
M  V30 2683 H 264.05 2.75887 -1.0474 0
M  V30 2684 H 264.131 1.38028 -2.15364 0
M  V30 2685 H 263.775 2.96741 -4.12198 0
M  V30 2686 H 263.705 4.33776 -2.98574 0
M  V30 2687 H 266.196 2.86624 -2.46282 0
M  V30 2688 H 266.509 5.4347 -5.49418 0
M  V30 2689 H 264.854 4.89251 -4.93617 0
M  V30 2690 H 268.045 3.4949 -3.11408 0
M  V30 2691 H 268.218 4.66629 -4.49623 0
M  V30 2692 N 261.624 0.925811 1.2754 0
M  V30 2693 C 262.534 0.428993 2.30644 0
M  V30 2694 C 263.55 -0.489387 1.66976 0
M  V30 2695 O 264.726 -0.372653 1.97922 0
M  V30 2696 C 261.791 -0.311967 3.45294 0
M  V30 2697 C 260.852 0.641098 4.24486 0
M  V30 2698 C 260.085 -0.0645955 5.33661 0
M  V30 2699 O 260.308 -1.28429 5.55754 0
M  V30 2700 O 259.242 0.606265 5.98839 0
M  V30 2701 H 263.068 1.28504 2.75173 0
M  V30 2702 H 260.653 0.691086 1.32455 0
M  V30 2703 H 262.535 -0.729972 4.15029 0
M  V30 2704 H 261.21 -1.14365 3.02824 0
M  V30 2705 H 260.117 1.10874 3.57292 0
M  V30 2706 H 261.45 1.43995 4.70666 0
M  V30 2707 N 263.102 -1.41638 0.69111 0
M  V30 2708 C 264.065 -2.29178 0.0319786 0
M  V30 2709 C 265.065 -1.44153 -0.712496 0
M  V30 2710 O 266.255 -1.65354 -0.548053 0
M  V30 2711 C 263.387 -3.26952 -0.965161 0
M  V30 2712 H 264.58 -2.88959 0.802681 0
M  V30 2713 H 262.133 -1.4955 0.454356 0
M  V30 2714 H 262.868 -2.72142 -1.76378 0
M  V30 2715 H 262.653 -3.89685 -0.434522 0
M  V30 2716 H 264.143 -3.92561 -1.42428 0
M  V30 2717 N 264.58 -0.43555 -1.51462 0
M  V30 2718 C 265.828 0.131254 -2.01673 0
M  V30 2719 C 266.149 1.43368 -1.32177 0
M  V30 2720 O 265.419 1.90524 -0.455769 0
M  V30 2721 H 263.999 0.0514954 -0.745223 0
M  V30 2722 H 266.661 -0.577847 -1.86137 0
M  V30 2723 H 265.757 0.308446 -3.10572 0
M  V30 2724 N 266.058 1.56714 -0.166846 0
M  V30 2725 C 267.005 2.17746 0.765193 0
M  V30 2726 C 267.975 1.11614 1.23011 0
M  V30 2727 O 269.16 1.39745 1.29908 0
M  V30 2728 C 266.3 2.81882 1.9909 0
M  V30 2729 C 265.413 4.02462 1.56997 0
M  V30 2730 C 264.548 4.54537 2.749 0
M  V30 2731 C 263.587 5.67538 2.29275 0
M  V30 2732 N 262.724 6.14142 3.40255 0
M  V30 2733 H 267.564 2.97048 0.237952 0
M  V30 2734 H 265.101 1.4672 0.105725 0
M  V30 2735 H 267.059 3.17221 2.70974 0
M  V30 2736 H 265.689 2.05191 2.49192 0
M  V30 2737 H 264.741 3.72973 0.748037 0
M  V30 2738 H 266.053 4.84273 1.19503 0
M  V30 2739 H 265.207 4.92035 3.54946 0
M  V30 2740 H 263.946 3.71774 3.1565 0
M  V30 2741 H 262.951 5.29597 1.47674 0
M  V30 2742 H 264.176 6.52099 1.89588 0
M  V30 2743 H 262.122 5.3431 3.8059 0
M  V30 2744 H 262.039 6.9093 3.06841 0
M  V30 2745 H 263.307 6.56289 4.206 0
M  V30 2746 N 267.536 -0.106894 1.57237 0
M  V30 2747 C 268.766 -0.825191 1.89405 0
M  V30 2748 C 269.174 -1.73374 0.757496 0
M  V30 2749 O 268.517 -1.81552 -0.280115 0
M  V30 2750 C 268.579 -1.70102 3.1671 0
M  V30 2751 C 268.243 -0.965523 4.46684 0
M  V30 2752 C 269.24 -0.300741 5.19029 0
M  V30 2753 C 266.925 -0.943105 4.93367 0
M  V30 2754 C 268.919 0.376622 6.36286 0
M  V30 2755 C 266.606 -0.261949 6.10538 0
M  V30 2756 C 267.604 0.396748 6.81847 0
M  V30 2757 O 267.292 1.06701 7.96787 0
M  V30 2758 H 267.024 -0.241852 0.631255 0
M  V30 2759 H 269.578 -0.0921491 2.05193 0
M  V30 2760 H 267.808 -2.47601 2.97036 0
M  V30 2761 H 269.497 -2.29483 3.34802 0
M  V30 2762 H 270.263 -0.309599 4.84011 0
M  V30 2763 H 266.142 -1.44524 4.3776 0
M  V30 2764 H 269.686 0.891334 6.91882 0
M  V30 2765 H 265.583 -0.250896 6.45012 0
M  V30 2766 H 266.351 0.972707 8.127 0
M  V30 2767 N 269.014 -1.53014 -0.377408 0
M  V30 2768 C 270.262 -1.6829 -1.11906 0
M  V30 2769 C 270.583 -0.431206 -1.90173 0
M  V30 2770 O 269.853 0.554595 -1.87886 0
M  V30 2771 H 268.433 -0.620371 -0.416112 0
M  V30 2772 H 271.095 -1.90167 -0.426893 0
M  V30 2773 H 270.191 -2.53862 -1.8155 0
M  V30 2774 N 270.492 0.636531 -1.44174 0
M  V30 2775 C 271.738 1.39826 -1.4689 0
M  V30 2776 C 272.071 1.93947 -0.0990585 0
M  V30 2777 O 271.346 1.73325 0.882544 0
M  V30 2778 C 271.629 2.56751 -2.5249 0
M  V30 2779 C 271.482 2.08014 -3.98811 0
M  V30 2780 C 272.801 3.58946 -2.54649 0
M  V30 2781 H 269.92 0.507075 -0.53483 0
M  V30 2782 H 272.562 0.720188 -1.75822 0
M  V30 2783 H 270.712 3.14597 -2.2795 0
M  V30 2784 H 272.384 1.5504 -4.34466 0
M  V30 2785 H 270.627 1.39242 -4.10846 0
M  V30 2786 H 271.298 2.92169 -4.68339 0
M  V30 2787 H 273.774 3.1089 -2.76563 0
M  V30 2788 H 272.65 4.38286 -3.3045 0
M  V30 2789 H 272.911 4.12655 -1.58646 0
M  V30 2790 N 271.97 1.30982 0.876444 0
M  V30 2791 C 273.386 1.09498 1.16113 0
M  V30 2792 C 273.586 -0.13875 2.01022 0
M  V30 2793 O 272.642 -0.829935 2.38471 0
M  V30 2794 C 273.955 2.36308 1.85954 0
M  V30 2795 C 275.503 2.41856 1.98683 0
M  V30 2796 C 275.978 3.6853 2.71937 0
M  V30 2797 N 277.469 3.69387 2.79477 0
M  V30 2798 C 278.204 4.64096 3.36753 0
M  V30 2799 N 277.7 5.69155 3.95012 0
M  V30 2800 N 279.493 4.51626 3.3465 0
M  V30 2801 H 271.644 2.10118 0.310494 0
M  V30 2802 H 273.907 0.926634 0.200131 0
M  V30 2803 H 273.613 3.26388 1.31011 0
M  V30 2804 H 273.487 2.4561 2.86278 0
M  V30 2805 H 275.874 1.52249 2.52793 0
M  V30 2806 H 275.955 2.36523 0.9742 0
M  V30 2807 H 275.599 4.58499 2.18496 0
M  V30 2808 H 275.529 3.71127 3.73593 0
M  V30 2809 H 278.02 2.93438 2.38123 0
M  V30 2810 H 278.333 6.3751 4.36808 0
M  V30 2811 H 276.678 5.72937 3.93406 0
M  V30 2812 H 279.869 3.68728 2.8837 0
M  V30 2813 H 280.042 5.25614 3.7899 0
M  V30 2814 N 273.449 -1.08991 1.13837 0
M  V30 2815 C 274.674 -1.85551 0.926585 0
M  V30 2816 C 275.099 -1.80782 -0.519566 0
M  V30 2817 O 274.457 -1.18855 -1.36906 0
M  V30 2818 C 274.505 -3.31266 1.42462 0
M  V30 2819 O 273.609 -4.07822 0.612789 0
M  V30 2820 H 272.95 -0.575192 0.331738 0
M  V30 2821 H 275.48 -1.37604 1.51414 0
M  V30 2822 H 275.49 -3.82112 1.43019 0
M  V30 2823 H 274.165 -3.34052 2.47754 0
M  V30 2824 H 272.742 -3.66731 0.675463 0
M  V30 2825 N 274.927 -0.932562 -1.27047 0
M  V30 2826 C 275.875 -0.42603 -2.28665 0
M  V30 2827 C 276.869 0.49219 -1.62092 0
M  V30 2828 O 278.075 0.371355 -1.76128 0
M  V30 2829 H 274.45 -0.119213 -0.742491 0
M  V30 2830 H 276.421 -1.29579 -2.68797 0
M  V30 2831 C 275.17 0.301426 -3.46391 0
M  V30 2832 H 274.493 -0.39595 -3.97834 0
M  V30 2833 H 275.933 0.6202 -4.1944 0
M  V30 2834 C 274.392 1.51616 -3.00856 0
M  V30 2835 O 274.922 2.61476 -3.04948 0
M  V30 2836 N 273.128 1.36969 -2.56296 0
M  V30 2837 H 272.675 0.475873 -2.53166 0
M  V30 2838 H 272.633 2.18368 -2.26192 0
M  V30 2839 N 276.405 1.4127 -0.698611 0
M  V30 2840 C 277.335 2.33447 -0.049629 0
M  V30 2841 C 278.316 1.51982 0.763898 0
M  V30 2842 O 279.501 1.80509 0.716257 0
M  V30 2843 C 276.631 3.35828 0.885267 0
M  V30 2844 C 275.585 4.27627 0.178613 0
M  V30 2845 C 274.911 5.20406 1.22807 0
M  V30 2846 C 276.211 5.13459 -0.956933 0
M  V30 2847 H 277.905 2.87966 -0.81951 0
M  V30 2848 H 275.451 1.38461 -0.395538 0
M  V30 2849 H 277.404 3.9924 1.34854 0
M  V30 2850 H 276.128 2.79666 1.68685 0
M  V30 2851 H 274.787 3.65643 -0.26466 0
M  V30 2852 H 274.435 4.60558 2.02226 0
M  V30 2853 H 274.135 5.82661 0.760239 0
M  V30 2854 H 275.659 5.86695 1.69179 0
M  V30 2855 H 277.073 5.70421 -0.573805 0
M  V30 2856 H 275.47 5.8467 -1.35205 0
M  V30 2857 H 276.54 4.50443 -1.79524 0
M  V30 2858 N 277.883 0.443576 1.51229 0
M  V30 2859 C 279.129 -0.120975 2.02439 0
M  V30 2860 C 279.462 -1.41815 1.32674 0
M  V30 2861 O 278.737 -1.89373 0.443622 0
M  V30 2862 C 279.02 -0.333291 3.58554 0
M  V30 2863 C 278.873 0.982968 4.38928 0
M  V30 2864 C 280.192 -1.10028 4.26124 0
M  V30 2865 H 277.311 -0.0424923 0.735774 0
M  V30 2866 H 279.953 0.583794 1.80809 0
M  V30 2867 H 278.103 -0.933614 3.77115 0
M  V30 2868 H 279.775 1.61775 4.32003 0
M  V30 2869 H 278.018 1.58611 4.03763 0
M  V30 2870 H 278.689 0.788379 5.46341 0
M  V30 2871 H 281.165 -0.591711 4.11871 0
M  V30 2872 H 280.041 -1.21761 5.35225 0
M  V30 2873 H 280.302 -2.12996 3.87408 0
M  V30 2874 N 279.361 -1.56624 0.175154 0
M  V30 2875 C 280.324 -2.16934 -0.739738 0
M  V30 2876 C 281.324 -1.11842 -1.15533 0
M  V30 2877 O 282.514 -1.37335 -1.07167 0
M  V30 2878 C 279.646 -2.75531 -2.00738 0
M  V30 2879 H 280.839 -2.99131 -0.214639 0
M  V30 2880 H 278.392 -1.56123 -0.0744197 0
M  V30 2881 H 279.127 -1.97078 -2.57548 0
M  V30 2882 H 278.912 -3.52444 -1.71831 0
M  V30 2883 H 280.402 -3.21904 -2.66021 0
M  V30 2884 N 280.839 0.0985539 -1.57292 0
M  V30 2885 C 281.802 1.10402 -2.00858 0
M  V30 2886 C 282.802 1.33146 -0.901593 0
M  V30 2887 O 283.992 1.29318 -1.16716 0
M  V30 2888 C 281.124 2.45394 -2.36632 0
M  V30 2889 H 282.317 0.729099 -2.90902 0
M  V30 2890 H 279.87 0.343495 -1.52479 0
M  V30 2891 H 280.605 2.87769 -1.49531 0
M  V30 2892 H 280.39 2.30235 -3.17387 0
M  V30 2893 H 281.88 3.17718 -2.71007 0
M  V30 2894 N 282.317 1.53212 0.369288 0
M  V30 2895 C 283.565 1.68881 1.11012 0
M  V30 2896 C 283.886 0.441285 1.89941 0
M  V30 2897 O 283.156 -0.544623 1.88177 0
M  V30 2898 H 281.736 0.622569 0.412816 0
M  V30 2899 H 284.398 1.90391 0.416802 0
M  V30 2900 H 283.494 2.54822 1.80201 0
M  V30 2901 N 283.795 -0.628877 1.44509 0
M  V30 2902 C 285.206 -1.21054 1.42137 0
M  V30 2903 C 285.557 -1.95715 0.137881 0
M  V30 2904 O 284.682 -2.02554 -0.761645 0
M  V30 2905 C 285.277 -2.20189 2.57493 0
M  V30 2906 C 283.836 -2.73777 2.58308 0
M  V30 2907 C 282.983 -1.48813 2.33987 0
M  V30 2908 H 285.934 -0.41942 1.53057 0
M  V30 2909 H 285.955 -3.02833 2.30375 0
M  V30 2910 H 285.467 -1.6582 3.50892 0
M  V30 2911 H 283.568 -3.32142 1.68856 0
M  V30 2912 H 283.681 -3.19662 3.56865 0
M  V30 2913 H 282.045 -1.77024 1.83124 0
M  V30 2914 H 282.828 -0.963442 3.29504 0
M  V30 2915 N 285.273 -1.31445 -0.869486 0
M  V30 2916 C 286.522 -1.20517 -1.61736 0
M  V30 2917 C 286.835 0.235341 -1.94179 0
M  V30 2918 O 288.041 0.466312 -2.67465 0
M  V30 2919 C 286.497 -2.10982 -2.91573 0
M  V30 2920 C 286.105 -3.60032 -2.66611 0
M  V30 2921 C 287.849 -2.08856 -3.69567 0
M  V30 2922 C 285.756 -4.42503 -3.92358 0
M  V30 2923 H 284.686 -0.447493 -0.606849 0
M  V30 2924 H 287.337 -1.56303 -0.96133 0
M  V30 2925 H 285.719 -1.68095 -3.58553 0
M  V30 2926 H 286.893 -4.11167 -2.08035 0
M  V30 2927 H 285.208 -3.64139 -2.0197 0
M  V30 2928 H 287.805 -2.67716 -4.62852 0
M  V30 2929 H 288.148 -1.07582 -4.02159 0
M  V30 2930 H 288.681 -2.49945 -3.09471 0
M  V30 2931 H 285.42 -5.44533 -3.64916 0
M  V30 2932 H 284.94 -3.96125 -4.50383 0
M  V30 2933 H 286.619 -4.54741 -4.60238 0
M  V30 2934 N 286.751 1.08385 -1.14413 0
M  V30 2935 C 288.167 1.32844 -0.884563 0
M  V30 2936 C 288.367 1.95841 0.474181 0
M  V30 2937 O 287.423 2.21158 1.21842 0
M  V30 2938 C 288.736 2.22978 -2.01745 0
M  V30 2939 C 290.284 2.36458 -2.05077 0
M  V30 2940 C 290.759 3.29934 -3.1766 0
M  V30 2941 N 292.25 3.37511 -3.17239 0
M  V30 2942 C 292.985 4.09871 -4.0099 0
M  V30 2943 N 292.481 4.84936 -4.94781 0
M  V30 2944 N 294.274 4.05704 -3.89051 0
M  V30 2945 H 286.425 0.658756 -2.01926 0
M  V30 2946 H 288.688 0.352821 -0.879899 0
M  V30 2947 H 288.394 1.83934 -2.99769 0
M  V30 2948 H 288.268 3.23441 -1.94077 0
M  V30 2949 H 290.655 2.7476 -1.0766 0
M  V30 2950 H 290.736 1.35736 -2.16816 0
M  V30 2951 H 290.38 2.92352 -4.15322 0
M  V30 2952 H 290.31 4.30584 -3.03158 0
M  V30 2953 H 292.801 2.83996 -2.49308 0
M  V30 2954 H 293.114 5.37612 -5.55151 0
M  V30 2955 H 291.459 4.83988 -4.98779 0
M  V30 2956 H 294.65 3.46167 -3.15097 0
M  V30 2957 H 294.823 4.61834 -4.54547 0
M  V30 2958 N 288.23 0.939286 1.26551 0
M  V30 2959 C 289.458 0.602536 1.97932 0
M  V30 2960 C 289.873 -0.82206 1.69964 0
M  V30 2961 O 289.23 -1.54789 0.966784 0
M  V30 2962 C 289.281 0.832946 3.51773 0
M  V30 2963 O 289.002 2.20151 3.78768 0
M  V30 2964 C 290.503 0.506483 4.40397 0
M  V30 2965 H 287.723 0.227248 0.631347 0
M  V30 2966 H 290.267 1.25948 1.61113 0
M  V30 2967 H 288.422 0.222644 3.8676 0
M  V30 2968 H 288.836 2.26013 4.73306 0
M  V30 2969 H 290.31 0.718333 5.47306 0
M  V30 2970 H 290.787 -0.558451 4.35635 0
M  V30 2971 H 291.393 1.09543 4.10951 0
M  V30 2972 N 289.708 -1.40897 0.706093 0
M  V30 2973 C 290.638 -2.33418 0.0620085 0
M  V30 2974 C 291.619 -1.52385 -0.755827 0
M  V30 2975 O 292.804 -1.80886 -0.706674 0
M  V30 2976 C 289.934 -3.36293 -0.867445 0
M  V30 2977 C 288.888 -4.27716 -0.155932 0
M  V30 2978 C 288.214 -5.2105 -1.20046 0
M  V30 2979 C 289.514 -5.12944 0.984149 0
M  V30 2980 H 291.208 -2.87527 0.83477 0
M  V30 2981 H 288.754 -1.38249 0.402875 0
M  V30 2982 H 290.707 -3.99949 -1.32735 0
M  V30 2983 H 289.431 -2.80556 -1.67199 0
M  V30 2984 H 288.09 -3.65498 0.284047 0
M  V30 2985 H 287.738 -4.61624 -1.99781 0
M  V30 2986 H 287.438 -5.83056 -0.729328 0
M  V30 2987 H 288.962 -5.87584 -1.66066 0
M  V30 2988 H 290.376 -5.70109 0.604048 0
M  V30 2989 H 288.773 -5.83945 1.38304 0
M  V30 2990 H 289.843 -4.49485 1.81911 0
M  V30 2991 N 291.186 -0.45159 -1.50991 0
M  V30 2992 C 292.149 0.341117 -2.26647 0
M  V30 2993 C 293.149 0.937422 -1.30649 0
M  V30 2994 O 294.339 0.809644 -1.54241 0
M  V30 2995 C 291.471 1.48398 -3.06905 0
M  V30 2996 H 292.664 -0.322117 -2.98165 0
M  V30 2997 H 290.217 -0.205122 -1.54948 0
M  V30 2998 H 290.952 2.18284 -2.39838 0
M  V30 2999 H 290.737 1.06241 -3.77432 0
M  V30 3000 H 292.227 2.04367 -3.64176 0
M  V30 3001 N 292.664 1.56529 -0.183458 0
M  V30 3002 C 293.597 2.14417 0.781052 0
M  V30 3003 C 294.575 1.07761 1.21763 0
M  V30 3004 O 295.759 1.35807 1.30724 0
M  V30 3005 C 292.886 2.69361 2.05335 0
M  V30 3006 C 291.932 3.885 1.75982 0
M  V30 3007 S 292.765 5.27568 0.918256 0
M  V30 3008 C 293.921 5.85926 2.20095 0
M  V30 3009 H 294.154 2.95893 0.2889 0
M  V30 3010 H 291.687 1.54368 0.0313844 0
M  V30 3011 H 293.645 3.01662 2.78406 0
M  V30 3012 H 292.306 1.87949 2.51663 0
M  V30 3013 H 291.499 4.25314 2.70415 0
M  V30 3014 H 291.101 3.57149 1.10999 0
M  V30 3015 H 293.393 5.99579 3.15453 0
M  V30 3016 H 294.336 6.82761 1.87731 0
M  V30 3017 H 294.744 5.14438 2.32409 0
M  V30 3018 N 294.142 -0.090211 1.57342 0
M  V30 3019 C 295.367 -0.810082 1.90925 0
M  V30 3020 C 295.792 -1.71248 0.778187 0
M  V30 3021 O 295.15 -1.79278 -0.269991 0
M  V30 3022 C 295.198 -1.59529 3.23393 0
M  V30 3023 O 294.302 -2.70461 3.11327 0
M  V30 3024 H 293.643 -0.222231 0.625707 0
M  V30 3025 H 296.173 -0.0639716 2.045 0
M  V30 3026 H 296.183 -1.97847 3.5682 0
M  V30 3027 H 294.858 -0.933055 4.05299 0
M  V30 3028 H 293.435 -2.35135 2.89423 0
M  V30 3029 N 295.62 -1.53406 -0.361157 0
M  V30 3030 C 296.583 -1.79479 -1.42548 0
M  V30 3031 C 297.583 -0.665327 -1.4639 0
M  V30 3032 O 298.773 -0.933549 -1.47073 0
M  V30 3033 C 295.905 -1.92087 -2.8163 0
M  V30 3034 H 297.098 -2.74538 -1.20701 0
M  V30 3035 H 294.651 -1.4455 -0.594546 0
M  V30 3036 H 295.386 -0.991099 -3.08784 0
M  V30 3037 H 295.171 -2.74241 -2.80239 0
M  V30 3038 H 296.661 -2.13836 -3.58697 0
M  V30 3039 N 297.098 0.621204 -1.44841 0
M  V30 3040 C 298.347 1.37658 -1.47422 0
M  V30 3041 C 298.66 1.95264 -0.114629 0
M  V30 3042 O 299.866 2.71494 -0.0180199 0
M  V30 3043 C 298.322 2.49285 -2.59586 0
M  V30 3044 C 297.93 1.98149 -4.01797 0
M  V30 3045 C 299.674 3.26409 -2.71399 0
M  V30 3046 C 297.581 3.07178 -5.05367 0
M  V30 3047 H 296.511 0.517344 -0.548517 0
M  V30 3048 H 299.162 0.667257 -1.70938 0
M  V30 3049 H 297.544 3.22839 -2.29328 0
M  V30 3050 H 298.718 1.31395 -4.41669 0
M  V30 3051 H 297.033 1.33812 -3.94314 0
M  V30 3052 H 299.63 4.07706 -3.45948 0
M  V30 3053 H 299.973 3.76535 -1.77559 0
M  V30 3054 H 300.506 2.5995 -3.01116 0
M  V30 3055 H 297.245 2.61985 -6.00869 0
M  V30 3056 H 296.765 3.72542 -4.70077 0
M  V30 3057 H 298.444 3.71789 -5.29511 0
M  V30 3058 N 298.576 1.31904 0.862503 0
M  V30 3059 C 299.822 1.22197 1.61851 0
M  V30 3060 C 300.155 -0.217641 1.92977 0
M  V30 3061 O 299.43 -1.15264 1.56666 0
M  V30 3062 C 299.713 2.07378 2.94391 0
M  V30 3063 C 299.566 3.59678 2.70096 0
M  V30 3064 C 300.885 1.92891 3.95577 0
M  V30 3065 H 298.004 0.445255 0.587296 0
M  V30 3066 H 300.646 1.6177 0.99651 0
M  V30 3067 H 298.796 1.73758 3.47477 0
M  V30 3068 H 300.468 4.03472 2.23625 0
M  V30 3069 H 298.711 3.82735 2.04197 0
M  V30 3070 H 299.382 4.14595 3.64438 0
M  V30 3071 H 301.858 2.22327 3.51724 0
M  V30 3072 H 300.734 2.54781 4.86187 0
M  V30 3073 H 300.995 0.894315 4.3296 0
M  V30 3074 N 300.054 -1.07777 1.14986 0
M  V30 3075 C 301.302 -1.79934 0.920235 0
M  V30 3076 C 301.623 -1.86955 -0.554336 0
M  V30 3077 O 300.893 -1.36731 -1.40291 0
M  V30 3078 H 299.473 -0.666424 0.337473 0
M  V30 3079 H 302.135 -1.3027 1.44968 0
M  V30 3080 H 301.231 -2.82539 1.32583 0
M  V30 3081 N 301.532 -0.945985 -1.26051 0
M  V30 3082 C 302.78 -0.594941 -1.93145 0
M  V30 3083 C 303.101 0.86953 -1.7454 0
M  V30 3084 O 302.371 1.61838 -1.10387 0
M  V30 3085 H 300.951 -0.217044 -0.714773 0
M  V30 3086 H 303.613 -1.20235 -1.53393 0
M  V30 3087 H 302.709 -0.816835 -3.01221 0
M  V30 3088 N 303.011 1.40521 -0.713556 0
M  V30 3089 C 303.974 2.29098 -0.0684347 0
M  V30 3090 C 304.974 1.45268 0.689472 0
M  V30 3091 O 306.164 1.66205 0.521677 0
M  V30 3092 C 303.296 3.28446 0.913024 0
M  V30 3093 H 304.489 2.87645 -0.84855 0
M  V30 3094 H 302.042 1.48809 -0.47809 0
M  V30 3095 H 302.777 2.74913 1.72027 0
M  V30 3096 H 302.562 3.90327 0.372472 0
M  V30 3097 H 304.052 3.94777 1.36165 0
M  V30 3098 N 304.489 0.459591 1.5075 0
M  V30 3099 C 305.419 -0.330644 2.31147 0
M  V30 3100 C 306.4 -1.00087 1.37538 0
M  V30 3101 O 307.585 -1.00025 1.66459 0
M  V30 3102 C 304.715 -1.41958 3.16962 0
M  V30 3103 C 303.669 -0.871608 4.19031 0
M  V30 3104 C 302.995 -2.05797 4.9351 0
M  V30 3105 C 304.295 0.109251 5.22186 0
M  V30 3106 H 305.989 0.340336 2.97459 0
M  V30 3107 H 303.535 0.165119 1.4305 0
M  V30 3108 H 305.488 -1.9798 3.71997 0
M  V30 3109 H 304.212 -2.11917 2.48513 0
M  V30 3110 H 302.871 -0.333442 3.6508 0
M  V30 3111 H 302.519 -2.74427 4.21544 0
M  V30 3112 H 302.219 -1.6976 5.62544 0
M  V30 3113 H 303.743 -2.62331 5.51375 0
M  V30 3114 H 305.157 -0.361405 5.7216 0
M  V30 3115 H 303.554 0.383316 5.98875 0
M  V30 3116 H 304.624 1.03887 4.73641 0
M  V30 3117 N 305.967 -1.56429 0.191757 0
M  V30 3118 C 307.215 -1.97095 -0.447006 0
M  V30 3119 C 307.536 -1.07967 -1.62383 0
M  V30 3120 O 306.806 -0.150248 -1.95323 0
M  V30 3121 H 305.386 -0.727832 -0.168135 0
M  V30 3122 H 308.048 -1.92911 0.27771 0
M  V30 3123 H 307.144 -3.01848 -0.793371 0
M  V30 3124 N 307.445 0.0818655 -1.57387 0
M  V30 3125 C 308.355 1.11642 -2.06333 0
M  V30 3126 C 309.371 1.43033 -0.99083 0
M  V30 3127 O 310.547 1.53411 -1.30488 0
M  V30 3128 C 307.612 2.41342 -2.48907 0
M  V30 3129 C 306.673 2.17014 -3.7041 0
M  V30 3130 C 305.906 3.4053 -4.10944 0
M  V30 3131 O 306.129 4.4927 -3.51444 0
M  V30 3132 O 305.063 3.29336 -5.03807 0
M  V30 3133 H 308.889 0.730657 -2.9478 0
M  V30 3134 H 306.474 0.295301 -1.46452 0
M  V30 3135 H 308.356 3.17691 -2.76858 0
M  V30 3136 H 307.031 2.79319 -1.63593 0
M  V30 3137 H 305.938 1.38403 -3.47556 0
M  V30 3138 H 307.271 1.83923 -4.56545 0
M  V30 3139 N 308.923 1.53595 0.353017 0
M  V30 3140 C 309.833 1.83897 1.45667 0
M  V30 3141 C 310.849 0.728334 1.58023 0
M  V30 3142 O 312.025 1.01968 1.73679 0
M  V30 3143 C 309.09 2.03383 2.80778 0
M  V30 3144 C 308.151 3.27262 2.77845 0
M  V30 3145 C 307.384 3.45809 4.06512 0
M  V30 3146 O 307.607 2.68387 5.03314 0
M  V30 3147 O 306.541 4.39207 4.11559 0
M  V30 3148 H 310.367 2.77686 1.2298 0
M  V30 3149 H 307.952 1.39132 0.544308 0
M  V30 3150 H 309.834 2.17698 3.60812 0
M  V30 3151 H 308.509 1.12783 3.03417 0
M  V30 3152 H 307.416 3.18359 1.96465 0
M  V30 3153 H 308.749 4.17824 2.60161 0
M  V30 3154 N 310.401 -0.613514 1.45168 0
M  V30 3155 C 311.364 -1.7065 1.53007 0
M  V30 3156 C 312.364 -1.5548 0.410184 0
M  V30 3157 O 313.554 -1.60656 0.673455 0
M  V30 3158 C 310.686 -3.09875 1.42093 0
M  V30 3159 H 311.879 -1.65068 2.50385 0
M  V30 3160 H 309.432 -0.828728 1.32521 0
M  V30 3161 H 310.167 -3.21039 0.458769 0
M  V30 3162 H 309.952 -3.22293 2.23315 0
M  V30 3163 H 311.442 -3.895 1.50598 0
M  V30 3164 N 311.879 -1.3236 -0.855495 0
M  V30 3165 C 313.127 -1.22629 -1.60644 0
M  V30 3166 C 313.448 0.212136 -1.93843 0
M  V30 3167 O 312.718 1.13666 -1.59552 0
M  V30 3168 H 311.298 -0.450882 -0.595579 0
M  V30 3169 H 313.96 -1.65871 -1.02337 0
M  V30 3170 H 313.056 -1.80832 -2.54374 0
M  V30 3171 N 313.357 1.07166 -1.15556 0
M  V30 3172 C 314.32 2.12589 -0.856644 0
M  V30 3173 C 315.32 1.6015 0.14444 0
M  V30 3174 O 316.51 1.7399 -0.0854163 0
M  V30 3175 C 313.642 3.39753 -0.279405 0
M  V30 3176 H 314.835 2.40539 -1.79112 0
M  V30 3177 H 312.388 1.23086 -0.963298 0
M  V30 3178 H 313.123 3.17447 0.663174 0
M  V30 3179 H 312.908 3.79117 -1.00063 0
M  V30 3180 H 314.398 4.17507 -0.0879113 0
M  V30 3181 N 314.835 0.952656 1.25548 0
M  V30 3182 C 315.767 0.428609 2.25157 0
M  V30 3183 C 316.78 -0.454428 1.56329 0
M  V30 3184 O 317.969 -0.263023 1.76552 0
M  V30 3185 C 315.069 -0.401972 3.36508 0
M  V30 3186 C 314.242 0.467601 4.34893 0
M  V30 3187 C 313.301 -0.30445 5.25319 0
M  V30 3188 O 312.327 0.296473 5.68427 0
M  V30 3189 N 313.529 -1.59805 5.5807 0
M  V30 3190 H 316.294 1.28497 2.70756 0
M  V30 3191 H 313.855 0.822798 1.39433 0
M  V30 3192 H 315.847 -0.926134 3.9396 0
M  V30 3193 H 314.417 -1.15918 2.90313 0
M  V30 3194 H 313.637 1.17288 3.76347 0
M  V30 3195 H 314.925 1.06119 4.97611 0
M  V30 3196 H 314.323 -2.10823 5.24948 0
M  V30 3197 H 312.88 -2.06822 6.18116 0
M  V30 3198 N 316.313 -1.40141 0.720998 0
M  V30 3199 C 317.562 -2.0002 0.259804 0
M  V30 3200 C 317.875 -1.57839 -1.15526 0
M  V30 3201 O 319.081 -2.10455 -1.71525 0
M  V30 3202 C 317.537 -3.57516 0.413566 0
M  V30 3203 C 317.145 -4.08667 1.83562 0
M  V30 3204 C 318.889 -4.24498 0.0134387 0
M  V30 3205 C 316.796 -5.58686 1.93968 0
M  V30 3206 H 315.726 -0.748195 0.0933806 0
M  V30 3207 H 318.377 -1.60313 0.892866 0
M  V30 3208 H 316.759 -3.9495 -0.288169 0
M  V30 3209 H 317.933 -3.82598 2.56817 0
M  V30 3210 H 316.248 -3.543 2.1877 0
M  V30 3211 H 318.845 -5.34654 0.0703954 0
M  V30 3212 H 319.188 -4.03375 -1.02927 0
M  V30 3213 H 319.721 -3.92188 0.665815 0
M  V30 3214 H 316.46 -5.8467 2.96379 0
M  V30 3215 H 315.98 -5.86602 1.25131 0
M  V30 3216 H 317.659 -6.23875 1.71431 0
M  V30 3217 N 317.792 -0.46758 -1.50504 0
M  V30 3218 C 318.724 0.364655 -2.26281 0
M  V30 3219 C 319.737 0.960151 -1.31472 0
M  V30 3220 O 320.926 0.849153 -1.57008 0
M  V30 3221 C 318.026 1.52509 -3.02645 0
M  V30 3222 C 317.199 1.04302 -4.24782 0
M  V30 3223 C 316.258 2.07709 -4.8347 0
M  V30 3224 O 315.284 1.65913 -5.44483 0
M  V30 3225 N 316.486 3.40485 -4.70159 0
M  V30 3226 H 319.251 -0.28495 -2.98342 0
M  V30 3227 H 316.812 -0.298163 -1.59131 0
M  V30 3228 H 318.804 2.21371 -3.38787 0
M  V30 3229 H 317.374 2.07945 -2.33404 0
M  V30 3230 H 316.594 0.180393 -3.93787 0
M  V30 3231 H 317.882 0.698798 -5.03978 0
M  V30 3232 H 317.28 3.77155 -4.21629 0
M  V30 3233 H 315.837 4.05156 -5.1058 0
M  V30 3234 N 319.27 1.56325 -0.20005 0
M  V30 3235 C 320.2 2.22318 0.713916 0
M  V30 3236 C 321.181 1.18788 1.21752 0
M  V30 3237 O 322.366 1.47309 1.26545 0
M  V30 3238 C 319.496 2.88639 1.93144 0
M  V30 3239 C 318.45 3.98457 1.56255 0
M  V30 3240 C 317.776 4.51967 2.85709 0
M  V30 3241 C 319.076 5.16612 0.768747 0
M  V30 3242 H 320.77 2.98952 0.163755 0
M  V30 3243 H 318.316 1.43792 0.0773219 0
M  V30 3244 H 320.269 3.33491 2.57608 0
M  V30 3245 H 318.993 2.09419 2.50621 0
M  V30 3246 H 317.652 3.54305 0.941471 0
M  V30 3247 H 317.3 3.69503 3.41287 0
M  V30 3248 H 317 5.26071 2.6177 0
M  V30 3249 H 318.524 4.99523 3.51154 0
M  V30 3250 H 319.938 5.57977 1.3166 0
M  V30 3251 H 318.335 5.96812 0.627286 0
M  V30 3252 H 319.405 4.84358 -0.229168 0
M  V30 3253 N 320.748 -0.0735177 1.57428 0
M  V30 3254 C 321.678 -1.0879 2.06608 0
M  V30 3255 C 322.659 -1.40473 0.959237 0
M  V30 3256 O 323.844 -1.5013 1.23185 0
M  V30 3257 C 320.974 -2.40183 2.50857 0
M  V30 3258 C 319.928 -2.22858 3.65402 0
M  V30 3259 C 319.254 -3.59619 3.957 0
M  V30 3260 C 320.554 -1.65123 4.95511 0
M  V30 3261 H 322.248 -0.678673 2.91607 0
M  V30 3262 H 319.794 -0.325013 1.40284 0
M  V30 3263 H 321.747 -3.11437 2.83874 0
M  V30 3264 H 320.471 -2.83083 1.62885 0
M  V30 3265 H 319.13 -1.54045 3.32664 0
M  V30 3266 H 318.778 -4.00086 3.04861 0
M  V30 3267 H 318.478 -3.48866 4.72828 0
M  V30 3268 H 320.002 -4.32306 4.31212 0
M  V30 3269 H 321.416 -2.26241 5.26771 0
M  V30 3270 H 319.813 -1.65071 5.7695 0
M  V30 3271 H 320.883 -0.612559 4.81015 0
M  V30 3272 N 322.226 -1.5378 -0.344866 0
M  V30 3273 C 323.136 -1.84667 -1.4469 0
M  V30 3274 C 324.152 -0.736704 -1.57635 0
M  V30 3275 O 325.328 -1.02888 -1.73136 0
M  V30 3276 C 322.393 -2.04869 -2.79696 0
M  V30 3277 C 321.454 -3.28731 -2.76106 0
M  V30 3278 C 320.687 -3.4796 -4.04673 0
M  V30 3279 O 320.91 -2.71052 -5.01883 0
M  V30 3280 O 319.844 -4.41383 -4.09224 0
M  V30 3281 H 323.67 -2.78334 -1.21506 0
M  V30 3282 H 321.255 -1.39418 -0.536921 0
M  V30 3283 H 323.137 -2.19609 -3.59652 0
M  V30 3284 H 321.812 -1.14391 -3.02814 0
M  V30 3285 H 320.719 -3.19396 -1.94774 0
M  V30 3286 H 322.052 -4.19198 -2.57941 0
M  V30 3287 N 323.704 0.605807 -1.45491 0
M  V30 3288 C 324.614 1.74466 -1.56839 0
M  V30 3289 C 325.63 1.68006 -0.452772 0
M  V30 3290 O 326.806 1.8833 -0.713708 0
M  V30 3291 C 323.871 3.10931 -1.53371 0
M  V30 3292 C 322.932 3.28832 -2.75986 0
M  V30 3293 C 322.165 4.58787 -2.72673 0
M  V30 3294 O 322.388 5.4122 -1.80102 0
M  V30 3295 O 321.322 4.79438 -3.63899 0
M  V30 3296 H 325.148 1.67843 -2.53106 0
M  V30 3297 H 322.733 0.770108 -1.28022 0
M  V30 3298 H 324.615 3.92233 -1.54051 0
M  V30 3299 H 323.29 3.18042 -0.602572 0
M  V30 3300 H 322.197 2.47112 -2.80867 0
M  V30 3301 H 323.53 3.26599 -3.68231 0
M  V30 3302 N 325.182 1.32811 0.848464 0
M  V30 3303 C 326.43 1.23479 1.59991 0
M  V30 3304 C 326.751 -0.201853 1.93952 0
M  V30 3305 O 326.021 -1.12818 1.60153 0
M  V30 3306 H 324.601 0.454034 0.593179 0
M  V30 3307 H 327.263 1.66412 1.01455 0
M  V30 3308 H 326.359 1.82178 2.53412 0
M  V30 3309 N 326.66 -1.06551 1.16123 0
M  V30 3310 C 327.906 -1.79719 0.952505 0
M  V30 3311 C 328.261 -1.85396 -0.514385 0
M  V30 3312 O 327.554 -1.33263 -1.37665 0
M  V30 3313 C 327.748 -3.23911 1.51052 0
M  V30 3314 C 327.577 -3.32284 3.03013 0
M  V30 3315 C 326.347 -3.42371 3.71632 0
M  V30 3316 C 328.545 -3.22363 4.00732 0
M  V30 3317 N 326.527 -3.39732 5.11327 0
M  V30 3318 C 327.898 -3.26937 5.26794 0
M  V30 3319 C 329.953 -3.0623 3.92591 0
M  V30 3320 C 328.656 -3.17035 6.45663 0
M  V30 3321 C 330.682 -2.97665 5.11028 0
M  V30 3322 C 330.044 -3.02858 6.35969 0
M  V30 3323 H 326.143 -0.670585 0.402293 0
M  V30 3324 H 328.727 -1.27125 1.4747 0
M  V30 3325 H 326.898 -3.74907 1.01484 0
M  V30 3326 H 328.63 -3.85242 1.2398 0
M  V30 3327 H 325.385 -3.47058 3.22254 0
M  V30 3328 H 325.809 -3.41919 5.84312 0
M  V30 3329 H 330.451 -3.01063 2.96852 0
M  V30 3330 H 328.169 -3.2096 7.41627 0
M  V30 3331 H 331.755 -2.86273 5.06497 0
M  V30 3332 H 330.635 -2.96286 7.26075 0
M  V30 3333 N 328.138 -0.959301 -1.25041 0
M  V30 3334 C 329.415 -0.533805 -1.88175 0
M  V30 3335 C 329.795 0.988994 -1.865 0
M  V30 3336 O 329.143 1.85677 -1.33177 0
M  V30 3337 C 329.353 -1.11575 -3.30684 0
M  V30 3338 C 330.701 -1.19548 -4.07423 0
M  V30 3339 O 331.725 -1.06765 -3.39823 0
M  V30 3340 O 330.584 -1.39656 -5.28354 0
M  V30 3341 H 327.678 -0.176772 -0.807887 0
M  V30 3342 H 330.224 -1.05303 -1.33076 0
M  V30 3343 H 328.996 -2.15884 -3.26358 0
M  V30 3344 H 328.619 -0.580059 -3.93346 0
M  V30 3345 N 329.616 1.39756 -0.72842 0
M  V30 3346 C 330.548 2.29157 -0.0446202 0
M  V30 3347 C 331.561 1.46484 0.710367 0
M  V30 3348 O 332.75 1.69632 0.55562 0
M  V30 3349 C 329.85 3.24987 0.961071 0
M  V30 3350 C 329.023 4.36572 0.268967 0
M  V30 3351 C 328.082 5.12756 1.18184 0
M  V30 3352 O 327.108 5.6534 0.661794 0
M  V30 3353 N 328.31 5.23331 2.51206 0
M  V30 3354 H 331.075 2.88482 -0.812295 0
M  V30 3355 H 328.636 1.51265 -0.577098 0
M  V30 3356 H 330.628 3.72827 1.57423 0
M  V30 3357 H 329.198 2.66739 1.63 0
M  V30 3358 H 328.418 3.90694 -0.524574 0
M  V30 3359 H 329.706 5.08363 -0.210934 0
M  V30 3360 H 329.104 4.82116 2.9594 0
M  V30 3361 H 327.661 5.74634 3.07634 0
M  V30 3362 N 331.094 0.475555 1.50254 0
M  V30 3363 C 332.51 0.12997 1.5907 0
M  V30 3364 C 332.71 -1.36385 1.48328 0
M  V30 3365 O 331.766 -2.13754 1.34407 0
M  V30 3366 C 333.079 0.684139 2.92814 0
M  V30 3367 C 334.627 0.647965 3.0622 0
M  V30 3368 C 335.102 1.17975 4.42545 0
M  V30 3369 N 336.593 1.13936 4.48969 0
M  V30 3370 C 337.328 1.52129 5.52851 0
M  V30 3371 N 336.824 1.97793 6.63965 0
M  V30 3372 N 338.617 1.43704 5.4342 0
M  V30 3373 H 330.768 1.44706 1.55479 0
M  V30 3374 H 333.031 0.598691 0.735033 0
M  V30 3375 H 332.737 1.73079 3.06164 0
M  V30 3376 H 332.611 0.130204 3.76975 0
M  V30 3377 H 334.998 -0.38979 2.92514 0
M  V30 3378 H 335.079 1.23876 2.23805 0
M  V30 3379 H 334.723 2.21616 4.57 0
M  V30 3380 H 334.653 0.565138 5.23559 0
M  V30 3381 H 337.144 0.804488 3.69238 0
M  V30 3382 H 337.457 2.25072 7.39299 0
M  V30 3383 H 335.802 2.01749 6.65073 0
M  V30 3384 H 338.993 1.07867 4.55502 0
M  V30 3385 H 339.166 1.73794 6.24259 0
M  V30 3386 N 332.573 -1.56217 0.208337 0
M  V30 3387 C 333.536 -2.18455 -0.693557 0
M  V30 3388 C 334.536 -1.14268 -1.13135 0
M  V30 3389 O 335.726 -1.39577 -1.0423 0
M  V30 3390 C 332.858 -2.79727 -1.94848 0
M  V30 3391 H 334.051 -2.99519 -0.15114 0
M  V30 3392 H 331.604 -1.56245 -0.041287 0
M  V30 3393 H 332.339 -2.02497 -2.53309 0
M  V30 3394 H 332.124 -3.56009 -1.64316 0
M  V30 3395 H 333.614 -3.27475 -2.59133 0
M  V30 3396 N 334.051 0.0651679 -1.57465 0
M  V30 3397 C 335.462 0.616213 -1.76238 0
M  V30 3398 C 335.813 1.7756 -0.834689 0
M  V30 3399 O 334.938 2.1639 -0.0204156 0
M  V30 3400 C 335.533 1.12462 -3.1959 0
M  V30 3401 C 334.092 1.62147 -3.39684 0
M  V30 3402 C 333.239 0.543739 -2.71917 0
M  V30 3403 H 336.19 -0.161022 -1.57881 0
M  V30 3404 H 336.211 1.99324 -3.24114 0
M  V30 3405 H 335.723 0.280592 -3.87084 0
M  V30 3406 H 333.824 2.48854 -2.77313 0
M  V30 3407 H 333.937 1.69385 -4.48158 0
M  V30 3408 H 332.301 0.990352 -2.34657 0
M  V30 3409 H 333.084 -0.290216 -3.42071 0
M  V30 3410 N 335.529 1.53961 0.336706 0
M  V30 3411 C 336.778 1.70751 1.07363 0
M  V30 3412 C 337.091 0.481061 1.89592 0
M  V30 3413 O 338.297 0.530046 2.66276 0
M  V30 3414 C 336.753 3.01965 1.95818 0
M  V30 3415 C 336.361 4.31971 1.18764 0
M  V30 3416 C 338.105 3.28121 2.69327 0
M  V30 3417 C 336.012 5.54255 2.06289 0
M  V30 3418 H 334.942 0.636292 0.404535 0
M  V30 3419 H 337.593 1.80459 0.332681 0
M  V30 3420 H 335.975 2.86132 2.7376 0
M  V30 3421 H 337.149 4.5853 0.456849 0
M  V30 3422 H 335.464 4.12481 0.569946 0
M  V30 3423 H 338.061 4.16673 3.35094 0
M  V30 3424 H 338.404 2.45426 3.36261 0
M  V30 3425 H 338.937 3.44762 1.98454 0
M  V30 3426 H 335.676 6.39513 1.43885 0
M  V30 3427 H 335.196 5.31935 2.77138 0
M  V30 3428 H 336.875 5.90159 2.65182 0
M  V30 3429 N 337.007 -0.598083 1.45811 0
M  V30 3430 C 338.255 -1.35413 1.50026 0
M  V30 3431 C 338.576 -1.94444 0.147177 0
M  V30 3432 O 337.846 -1.77701 -0.824571 0
M  V30 3433 H 336.426 -0.502727 0.552517 0
M  V30 3434 H 339.088 -0.701606 1.81834 0
M  V30 3435 H 338.184 -2.16871 2.2444 0
M  V30 3436 N 338.485 -1.33259 -0.841409 0
M  V30 3437 C 339.731 -1.25766 -1.59857 0
M  V30 3438 C 340.086 0.175602 -1.91597 0
M  V30 3439 O 339.379 1.117 -1.55672 0
M  V30 3440 C 339.573 -2.06381 -2.9179 0
M  V30 3441 C 339.402 -3.57401 -2.72937 0
M  V30 3442 C 338.172 -4.26718 -2.70628 0
M  V30 3443 C 340.37 -4.51786 -2.45753 0
M  V30 3444 N 338.352 -5.63705 -2.43125 0
M  V30 3445 C 339.723 -5.76643 -2.27777 0
M  V30 3446 C 341.778 -4.40898 -2.31329 0
M  V30 3447 C 340.481 -6.91842 -1.96841 0
M  V30 3448 C 342.507 -5.55911 -2.01786 0
M  V30 3449 C 341.869 -6.79776 -1.8462 0
M  V30 3450 H 337.968 -0.515406 -0.588117 0
M  V30 3451 H 340.552 -1.67772 -0.987955 0
M  V30 3452 H 338.723 -1.667 -3.50807 0
M  V30 3453 H 340.455 -1.90678 -3.56965 0
M  V30 3454 H 337.21 -3.78968 -2.84043 0
M  V30 3455 H 337.634 -6.35911 -2.32265 0
M  V30 3456 H 342.276 -3.45772 -2.43314 0
M  V30 3457 H 339.994 -7.86968 -1.83594 0
M  V30 3458 H 343.58 -5.49421 -1.91384 0
M  V30 3459 H 342.46 -7.67266 -1.62088 0
M  V30 3460 N 339.963 1.05934 -1.16686 0
M  V30 3461 C 340.911 2.15603 -0.872817 0
M  V30 3462 C 341.905 1.68647 0.159576 0
M  V30 3463 O 343.111 1.79995 0.0132125 0
M  V30 3464 H 339.486 0.703885 -0.264671 0
M  V30 3465 H 341.457 2.37613 -1.80507 0
M  V30 3466 C 340.206 3.45457 -0.394344 0
M  V30 3467 H 339.529 3.81984 -1.18019 0
M  V30 3468 H 340.969 4.2339 -0.227408 0
M  V30 3469 C 339.428 3.25021 0.88673 0
M  V30 3470 O 339.958 3.50906 1.95519 0
M  V30 3471 N 338.164 2.78437 0.831925 0
M  V30 3472 H 337.711 2.57572 -0.0377619 0
M  V30 3473 H 337.669 2.65144 1.68956 0
M  V30 3474 N 341.441 0.965919 1.2453 0
M  V30 3475 C 342.374 0.4393 2.23932 0
M  V30 3476 C 343.352 -0.485615 1.55179 0
M  V30 3477 O 344.536 -0.417402 1.83821 0
M  V30 3478 C 341.663 -0.366042 3.36716 0
M  V30 3479 C 340.709 0.5009 4.23548 0
M  V30 3480 S 341.542 1.94002 4.99123 0
M  V30 3481 C 342.698 1.14342 6.15367 0
M  V30 3482 H 342.931 1.28167 2.68254 0
M  V30 3483 H 340.464 0.770819 1.33782 0
M  V30 3484 H 342.422 -0.824724 4.0213 0
M  V30 3485 H 341.083 -1.18337 2.90956 0
M  V30 3486 H 340.276 -0.117341 5.03863 0
M  V30 3487 H 339.878 0.89524 3.63127 0
M  V30 3488 H 342.17 0.397572 6.76332 0
M  V30 3489 H 343.113 1.92089 6.81548 0
M  V30 3490 H 343.521 0.668579 5.60527 0
M  V30 3491 N 342.919 -1.39368 0.735821 0
M  V30 3492 C 343.866 -2.30599 0.0963825 0
M  V30 3493 C 344.836 -1.49257 -0.728794 0
M  V30 3494 O 346.021 -1.77941 -0.688588 0
M  V30 3495 C 343.161 -3.35596 -0.804305 0
M  V30 3496 C 342.274 -4.31987 0.0335761 0
M  V30 3497 C 341.409 -5.24053 -0.868461 0
M  V30 3498 C 340.448 -6.12095 -0.0258776 0
M  V30 3499 N 339.585 -6.96514 -0.883893 0
M  V30 3500 H 344.425 -2.8471 0.880002 0
M  V30 3501 H 341.962 -1.40188 0.445619 0
M  V30 3502 H 343.92 -3.95062 -1.34096 0
M  V30 3503 H 342.55 -2.82938 -1.55389 0
M  V30 3504 H 341.602 -3.74133 0.68766 0
M  V30 3505 H 342.914 -4.94074 0.685036 0
M  V30 3506 H 342.068 -5.88549 -1.47293 0
M  V30 3507 H 340.807 -4.62289 -1.5537 0
M  V30 3508 H 339.812 -5.4661 0.591386 0
M  V30 3509 H 341.037 -6.75923 0.656156 0
M  V30 3510 H 338.983 -6.37318 -1.55441 0
M  V30 3511 H 338.9 -7.55448 -0.288931 0
M  V30 3512 H 340.168 -7.65439 -1.4739 0
M  V30 3513 N 344.397 -0.483516 -1.5 0
M  V30 3514 C 345.674 0.129337 -1.95172 0
M  V30 3515 C 346.054 1.55802 -1.4244 0
M  V30 3516 O 345.402 2.19625 -0.630649 0
M  V30 3517 C 345.612 0.0599251 -3.48949 0
M  V30 3518 C 346.96 0.242617 -4.23906 0
M  V30 3519 O 347.984 0.135933 -3.55941 0
M  V30 3520 O 346.843 0.459454 -5.44565 0
M  V30 3521 H 343.937 0.104887 -0.820322 0
M  V30 3522 H 346.483 -0.544807 -1.60717 0
M  V30 3523 H 345.255 -0.937079 -3.79914 0
M  V30 3524 H 344.878 0.774984 -3.89974 0
M  V30 3525 N 345.875 1.56104 -0.216619 0
M  V30 3526 C 346.838 2.18819 0.681962 0
M  V30 3527 C 347.838 1.14866 1.12528 0
M  V30 3528 O 349.028 1.40128 1.03488 0
M  V30 3529 C 346.16 2.80756 1.93362 0
M  V30 3530 H 347.353 2.99595 0.135254 0
M  V30 3531 H 344.906 1.56265 0.0330003 0
M  V30 3532 H 345.641 2.03837 2.52232 0
M  V30 3533 H 345.426 3.56876 1.62426 0
M  V30 3534 H 346.916 3.28844 2.57393 0
M  V30 3535 N 347.353 -0.0568162 1.57498 0
M  V30 3536 C 348.581 -0.765626 1.92213 0
M  V30 3537 C 348.996 -1.70353 0.813961 0
M  V30 3538 O 348.353 -1.81268 -0.211701 0
M  V30 3539 C 348.404 -1.5465 3.2675 0
M  V30 3540 O 348.125 -0.646278 4.33307 0
M  V30 3541 C 349.626 -2.35497 3.75574 0
M  V30 3542 H 346.846 -0.216835 0.634999 0
M  V30 3543 H 349.39 -0.0226146 2.04487 0
M  V30 3544 H 347.545 -2.24165 3.15957 0
M  V30 3545 H 347.959 -1.19093 5.108 0
M  V30 3546 H 349.433 -2.85722 4.72299 0
M  V30 3547 H 349.91 -3.15692 3.05344 0
M  V30 3548 H 350.516 -1.7111 3.8936 0
M  V30 3549 N 348.832 -1.54138 -0.328536 0
M  V30 3550 C 350.243 -1.63395 -0.903272 0
M  V30 3551 C 350.594 -0.524828 -1.8905 0
M  V30 3552 O 349.719 0.343068 -2.13663 0
M  V30 3553 C 350.314 -2.9618 -1.64507 0
M  V30 3554 C 348.873 -3.0765 -2.1686 0
M  V30 3555 C 348.02 -2.58933 -0.992416 0
M  V30 3556 H 350.971 -1.58344 -0.106253 0
M  V30 3557 H 350.992 -2.86061 -2.50897 0
M  V30 3558 H 350.504 -3.76884 -0.926302 0
M  V30 3559 H 348.605 -2.31611 -2.91868 0
M  V30 3560 H 348.718 -4.1337 -2.42202 0
M  V30 3561 H 347.082 -2.14706 -1.37016 0
M  V30 3562 H 347.865 -3.42089 -0.288041 0
M  V30 3563 N 350.31 0.590341 -1.46126 0
M  V30 3564 C 351.556 1.35082 -1.51264 0
M  V30 3565 C 351.889 1.93534 -0.160711 0
M  V30 3566 O 351.164 1.76045 0.826956 0
M  V30 3567 C 351.447 2.48588 -2.6053 0
M  V30 3568 C 351.3 1.95221 -4.05227 0
M  V30 3569 C 352.619 3.50662 -2.6594 0
M  V30 3570 H 349.738 0.489803 -0.550692 0
M  V30 3571 H 352.38 0.663887 -1.78024 0
M  V30 3572 H 350.53 3.07186 -2.37843 0
M  V30 3573 H 352.202 1.41139 -4.39178 0
M  V30 3574 H 350.445 1.26101 -4.15068 0
M  V30 3575 H 351.116 2.77121 -4.77397 0
M  V30 3576 H 353.592 3.01934 -2.86313 0
M  V30 3577 H 352.468 4.27551 -3.44226 0
M  V30 3578 H 352.729 4.07399 -1.71694 0
M  V30 3579 N 351.788 1.33704 0.83433 0
M  V30 3580 C 352.751 1.24244 1.92603 0
M  V30 3581 C 353.751 0.160383 1.59998 0
M  V30 3582 O 354.941 0.412228 1.69252 0
M  V30 3583 C 352.073 0.91555 3.28376 0
M  V30 3584 H 353.266 2.21287 2.02416 0
M  V30 3585 H 350.819 1.17827 1.02696 0
M  V30 3586 H 351.554 -0.0521886 3.24258 0
M  V30 3587 H 351.339 1.69811 3.53422 0
M  V30 3588 H 352.829 0.874231 4.08347 0
M  V30 3589 N 353.266 -1.05314 1.17247 0
M  V30 3590 C 354.213 -2.13031 0.888058 0
M  V30 3591 C 355.183 -1.65253 -0.167537 0
M  V30 3592 O 356.368 -1.90775 -0.0305974 0
M  V30 3593 C 353.508 -3.42702 0.406147 0
M  V30 3594 C 352.621 -4.04161 1.52572 0
M  V30 3595 C 351.756 -5.21744 0.997808 0
M  V30 3596 C 350.795 -5.75207 2.09291 0
M  V30 3597 N 349.932 -6.84094 1.57986 0
M  V30 3598 H 354.772 -2.36698 1.81048 0
M  V30 3599 H 352.309 -1.16121 0.903013 0
M  V30 3600 H 354.267 -4.17059 0.108305 0
M  V30 3601 H 352.897 -3.19222 -0.479313 0
M  V30 3602 H 351.949 -3.27253 1.93931 0
M  V30 3603 H 353.261 -4.39881 2.35172 0
M  V30 3604 H 352.415 -6.03168 0.653739 0
M  V30 3605 H 351.154 -4.87495 0.141232 0
M  V30 3606 H 350.159 -4.92414 2.44557 0
M  V30 3607 H 351.384 -6.11505 2.95362 0
M  V30 3608 H 349.33 -6.51745 0.74598 0
M  V30 3609 H 349.247 -7.18811 2.34195 0
M  V30 3610 H 350.515 -7.69172 1.26468 0
M  V30 3611 N 354.744 -0.972509 -1.24016 0
M  V30 3612 C 355.972 -0.654803 -1.96265 0
M  V30 3613 C 356.387 0.776708 -1.72083 0
M  V30 3614 O 355.744 1.52171 -1.00748 0
M  V30 3615 C 355.795 -0.92592 -3.49441 0
M  V30 3616 O 355.516 -2.30116 -3.72798 0
M  V30 3617 C 357.017 -0.623068 -4.38899 0
M  V30 3618 H 354.237 -0.243907 -0.6251 0
M  V30 3619 H 356.781 -1.30175 -1.57717 0
M  V30 3620 H 354.936 -0.325108 -3.86033 0
M  V30 3621 H 355.35 -2.38483 -4.67147 0
M  V30 3622 H 356.824 -0.863189 -5.45209 0
M  V30 3623 H 357.301 0.442754 -4.36963 0
M  V30 3624 H 357.907 -1.204 -4.07902 0
M  V30 3625 N 356.222 1.38976 -0.743202 0
M  V30 3626 C 357.468 2.0064 -0.295189 0
M  V30 3627 C 357.801 1.5885 1.11716 0
M  V30 3628 O 357.076 0.821181 1.76315 0
M  V30 3629 C 357.359 3.578 -0.406318 0
M  V30 3630 C 357.212 4.09586 -1.85903 0
M  V30 3631 C 358.531 4.39616 0.206439 0
M  V30 3632 H 355.65 0.728935 -0.108733 0
M  V30 3633 H 358.292 1.65067 -0.940897 0
M  V30 3634 H 356.442 3.88235 0.143419 0
M  V30 3635 H 358.114 3.89837 -2.46627 0
M  V30 3636 H 356.357 3.6284 -2.3776 0
M  V30 3637 H 357.028 5.18708 -1.888 0
M  V30 3638 H 359.504 4.15273 -0.262283 0
M  V30 3639 H 358.38 5.48812 0.0983819 0
M  V30 3640 H 358.641 4.22754 1.2935 0
M  V30 3641 N 357.7 0.491464 1.49741 0
M  V30 3642 C 358.94 -0.0549118 2.04326 0
M  V30 3643 C 359.304 -1.35148 1.36378 0
M  V30 3644 O 360.505 -1.9815 1.81631 0
M  V30 3645 C 358.776 -0.213841 3.5676 0
M  V30 3646 S 360.335 -0.715839 4.32922 0
M  V30 3647 H 357.153 -0.00630513 0.710972 0
M  V30 3648 H 359.755 0.663257 1.83905 0
M  V30 3649 H 358.459 0.73527 4.0376 0
M  V30 3650 H 357.99 -0.957529 3.81569 0
M  V30 3651 H 360.005 -1.9864 4.54705 0
M  V30 3652 N 359.178 -1.55987 0.224894 0
M  V30 3653 C 360.141 -2.19178 -0.670348 0
M  V30 3654 C 361.141 -1.15461 -1.11917 0
M  V30 3655 O 362.331 -1.40675 -1.02743 0
M  V30 3656 C 359.463 -2.81777 -1.9187 0
M  V30 3657 H 360.656 -2.99662 -0.119364 0
M  V30 3658 H 358.209 -1.5628 -0.0247128 0
M  V30 3659 H 358.944 -2.05172 -2.51147 0
M  V30 3660 H 358.729 -3.57732 -1.60531 0
M  V30 3661 H 360.219 -3.30205 -2.55645 0
M  V30 3662 N 360.656 0.0484629 -1.57525 0
M  V30 3663 C 361.586 1.0549 -2.08313 0
M  V30 3664 C 362.567 1.38929 -0.981463 0
M  V30 3665 O 363.752 1.48151 -1.25558 0
M  V30 3666 C 360.882 2.36162 -2.54646 0
M  V30 3667 C 359.836 2.17016 -3.68901 0
M  V30 3668 C 359.162 3.53278 -4.01371 0
M  V30 3669 C 360.462 1.57219 -4.98076 0
M  V30 3670 H 362.156 0.632195 -2.92649 0
M  V30 3671 H 359.702 0.302654 -1.40784 0
M  V30 3672 H 361.655 3.06882 -2.88793 0
M  V30 3673 H 360.379 2.80456 -1.67368 0
M  V30 3674 H 359.038 1.48733 -3.35073 0
M  V30 3675 H 358.686 3.95185 -3.11188 0
M  V30 3676 H 358.386 3.41299 -4.78318 0
M  V30 3677 H 359.91 4.25391 -4.38035 0
M  V30 3678 H 361.324 2.17832 -5.30304 0
M  V30 3679 H 359.721 1.55871 -5.79503 0
M  V30 3680 H 360.791 0.535956 -4.81929 0
M  V30 3681 N 362.134 1.5431 0.320358 0
M  V30 3682 C 363.064 1.86912 1.3995 0
M  V30 3683 C 364.045 0.726211 1.53819 0
M  V30 3684 O 365.23 0.980233 1.67646 0
M  V30 3685 C 362.36 2.09932 2.7667 0
M  V30 3686 C 361.314 3.25776 2.77586 0
M  V30 3687 C 360.64 3.34173 4.17412 0
M  V30 3688 C 361.94 4.6335 2.41048 0
M  V30 3689 H 363.634 2.77292 1.12914 0
M  V30 3690 H 361.18 1.33421 0.541738 0
M  V30 3691 H 363.133 2.31324 3.52232 0
M  V30 3692 H 361.857 1.16304 3.0519 0
M  V30 3693 H 360.516 3.04276 2.04479 0
M  V30 3694 H 360.164 2.38098 4.43078 0
M  V30 3695 H 359.864 4.12033 4.18931 0
M  V30 3696 H 361.388 3.57803 4.94782 0
M  V30 3697 H 362.802 4.84602 3.06324 0
M  V30 3698 H 361.199 5.43782 2.53813 0
M  V30 3699 H 362.269 4.65381 1.36193 0
M  V30 3700 N 363.613 -0.582584 1.46437 0
M  V30 3701 C 364.838 -1.37168 1.55563 0
M  V30 3702 C 365.263 -1.87061 0.19743 0
M  V30 3703 O 364.621 -1.61572 -0.822451 0
M  V30 3704 C 364.669 -2.53511 2.56446 0
M  V30 3705 O 363.773 -3.54953 2.09958 0
M  V30 3706 H 363.114 -0.408494 0.523477 0
M  V30 3707 H 365.644 -0.706646 1.9201 0
M  V30 3708 H 365.654 -3.00426 2.76058 0
M  V30 3709 H 364.329 -2.16549 3.55076 0
M  V30 3710 H 362.906 -3.14516 2.00334 0
M  V30 3711 N 365.091 -1.34144 -0.827227 0
M  V30 3712 C 366.368 -1.16844 -1.56865 0
M  V30 3713 C 366.748 0.260654 -2.09485 0
M  V30 3714 O 366.096 1.26138 -1.9053 0
M  V30 3715 C 366.306 -2.21939 -2.6934 0
M  V30 3716 C 367.654 -2.56695 -3.3822 0
M  V30 3717 O 368.678 -2.20695 -2.79593 0
M  V30 3718 O 367.537 -3.18518 -4.44082 0
M  V30 3719 H 364.631 -0.452669 -0.692112 0
M  V30 3720 H 367.177 -1.45763 -0.868973 0
M  V30 3721 H 365.949 -3.17882 -2.28182 0
M  V30 3722 H 365.572 -1.94172 -3.46962 0
M  V30 3723 N 366.569 1.04691 -1.17803 0
M  V30 3724 C 367.815 1.78181 -0.980977 0
M  V30 3725 C 368.17 1.86191 0.484825 0
M  V30 3726 O 367.463 1.35436 1.35527 0
M  V30 3727 C 367.657 3.21467 -1.56186 0
M  V30 3728 C 367.486 3.27422 -3.08261 0
M  V30 3729 C 366.256 3.36415 -3.77032 0
M  V30 3730 C 368.454 3.15947 -4.0581 0
M  V30 3731 N 366.436 3.31554 -5.16667 0
M  V30 3732 C 367.807 3.18514 -5.31929 0
M  V30 3733 C 369.862 2.99945 -3.97413 0
M  V30 3734 C 368.565 3.06723 -6.50625 0
M  V30 3735 C 370.591 2.89497 -5.15699 0
M  V30 3736 C 369.953 2.92702 -6.40706 0
M  V30 3737 H 366.052 0.6641 -0.412911 0
M  V30 3738 H 368.636 1.24762 -1.49474 0
M  V30 3739 H 366.807 3.73245 -1.07436 0
M  V30 3740 H 368.539 3.8322 -1.30093 0
M  V30 3741 H 365.294 3.41887 -3.27735 0
M  V30 3742 H 365.718 3.3258 -5.89678 0
M  V30 3743 H 370.36 2.96302 -3.01604 0
M  V30 3744 H 368.078 3.0912 -7.46639 0
M  V30 3745 H 371.664 2.78179 -5.10987 0
M  V30 3746 H 370.544 2.84697 -7.30696 0
M  V30 3747 N 368.047 0.979072 1.23499 0
M  V30 3748 C 368.977 0.537606 2.27227 0
M  V30 3749 C 369.958 -0.428539 1.64613 0
M  V30 3750 O 371.143 -0.322191 1.91509 0
M  V30 3751 C 368.273 -0.162052 3.46922 0
M  V30 3752 C 367.227 0.721242 4.21879 0
M  V30 3753 C 366.553 -0.110555 5.34586 0
M  V30 3754 C 367.853 2.01141 4.82016 0
M  V30 3755 H 369.547 1.40462 2.64406 0
M  V30 3756 H 367.093 0.67684 1.27102 0
M  V30 3757 H 369.046 -0.482192 4.18632 0
M  V30 3758 H 367.77 -1.06351 3.08799 0
M  V30 3759 H 366.429 1.02482 3.51984 0
M  V30 3760 H 366.077 -1.0125 4.92704 0
M  V30 3761 H 365.777 0.477325 5.85658 0
M  V30 3762 H 367.301 -0.425107 6.09118 0
M  V30 3763 H 368.715 1.75612 5.45741 0
M  V30 3764 H 367.112 2.54695 5.43369 0
M  V30 3765 H 368.182 2.69909 4.02836 0
M  V30 3766 N 369.525 -1.3858 0.750561 0
M  V30 3767 C 370.936 -1.82927 0.373438 0
M  V30 3768 C 371.287 -1.62634 -1.09748 0
M  V30 3769 O 370.412 -1.12588 -1.84805 0
M  V30 3770 C 371.007 -3.32088 0.671029 0
M  V30 3771 C 369.566 -3.74795 0.34722 0
M  V30 3772 C 368.713 -2.61391 0.92575 0
M  V30 3773 H 371.664 -1.27351 0.946958 0
M  V30 3774 H 371.685 -3.80465 -0.0518269 0
M  V30 3775 H 371.197 -3.46826 1.74164 0
M  V30 3776 H 369.298 -3.65638 -0.716933 0
M  V30 3777 H 369.411 -4.71667 0.840656 0
M  V30 3778 H 367.775 -2.52265 0.351327 0
M  V30 3779 H 368.558 -2.78929 2.00133 0
M  V30 3780 N 371.003 -0.499398 -1.49478 0
M  V30 3781 C 371.966 0.268838 -2.27618 0
M  V30 3782 C 372.966 0.895383 -1.33565 0
M  V30 3783 O 374.156 0.760164 -1.56739 0
M  V30 3784 C 371.288 1.38559 -3.11471 0
M  V30 3785 H 372.481 -0.416812 -2.96989 0
M  V30 3786 H 370.034 -0.254313 -1.54217 0
M  V30 3787 H 370.769 2.10544 -2.46661 0
M  V30 3788 H 370.554 0.941797 -3.80621 0
M  V30 3789 H 372.044 1.92678 -3.70493 0
M  V30 3790 N 372.481 1.55866 -0.233164 0
M  V30 3791 C 373.709 2.02998 0.399905 0
M  V30 3792 C 374.124 1.11274 1.52524 0
M  V30 3793 O 373.481 0.124528 1.82075 0
M  V30 3794 C 373.532 3.4958 0.920639 0
M  V30 3795 O 373.253 4.37808 -0.159834 0
M  V30 3796 C 374.754 4.12411 1.62578 0
M  V30 3797 H 371.974 0.664006 0.0966281 0
M  V30 3798 H 374.518 2.0143 -0.353013 0
M  V30 3799 H 372.673 3.51727 1.62379 0
M  V30 3800 H 373.087 5.23981 0.23337 0
M  V30 3801 H 374.561 5.16711 1.94201 0
M  V30 3802 H 375.038 3.5809 2.54299 0
M  V30 3803 H 375.644 4.14148 0.967553 0
M  V30 3804 N 373.959 -0.0401083 1.57549 0
M  V30 3805 C 375.187 -0.745196 1.93014 0
M  V30 3806 C 375.602 -1.6948 0.831984 0
M  V30 3807 O 374.959 -1.81482 -0.192463 0
M  V30 3808 C 375.01 -1.51176 3.28372 0
M  V30 3809 O 374.731 -0.600284 4.33968 0
M  V30 3810 C 376.232 -2.315 3.78051 0
M  V30 3811 H 373.452 -0.210088 0.637263 0
M  V30 3812 H 375.996 -0.000924689 2.045 0
M  V30 3813 H 374.151 -2.20801 3.18317 0
M  V30 3814 H 374.565 -1.13669 5.12035 0
M  V30 3815 H 376.039 -2.80697 4.75303 0
M  V30 3816 H 376.516 -3.12436 3.08675 0
M  V30 3817 H 377.122 -1.66971 3.91153 0
M  V30 3818 N 375.437 -1.54477 -0.31217 0
M  V30 3819 C 376.685 -1.72884 -1.04668 0
M  V30 3820 C 377.006 -0.511477 -1.88173 0
M  V30 3821 O 376.276 0.474407 -1.90069 0
M  V30 3822 H 374.856 -0.637461 -0.389425 0
M  V30 3823 H 377.518 -1.91807 -0.345852 0
M  V30 3824 H 376.614 -2.61334 -1.70619 0
M  V30 3825 N 376.915 0.57481 -1.46744 0
M  V30 3826 C 378.192 1.3352 -1.4294 0
M  V30 3827 C 378.572 2.10775 -0.117009 0
M  V30 3828 O 377.92 2.09966 0.901474 0
M  V30 3829 C 378.13 2.25456 -2.66403 0
M  V30 3830 C 379.478 2.87035 -3.12883 0
M  V30 3831 O 380.502 2.35766 -2.67007 0
M  V30 3832 O 379.361 3.80179 -3.92589 0
M  V30 3833 H 376.455 0.600318 -0.568812 0
M  V30 3834 H 379.001 0.595171 -1.58921 0
M  V30 3835 H 377.773 1.67851 -3.53471 0
M  V30 3836 H 377.396 3.06785 -2.52921 0
M  V30 3837 N 378.394 1.34581 0.820102 0
M  V30 3838 C 379.643 1.26437 1.57151 0
M  V30 3839 C 379.956 -0.163111 1.94919 0
M  V30 3840 O 381.162 -0.366722 2.69012 0
M  V30 3841 C 379.618 2.21658 2.83541 0
M  V30 3842 C 379.226 3.69679 2.53065 0
M  V30 3843 C 380.97 2.22428 3.61561 0
M  V30 3844 C 378.877 4.56761 3.75664 0
M  V30 3845 H 377.807 0.469707 0.589823 0
M  V30 3846 H 380.458 1.59763 0.902656 0
M  V30 3847 H 378.84 1.81287 3.52067 0
M  V30 3848 H 380.014 4.18605 1.92631 0
M  V30 3849 H 378.329 3.71384 1.88316 0
M  V30 3850 H 380.926 2.8471 4.52597 0
M  V30 3851 H 381.269 1.22434 3.97889 0
M  V30 3852 H 381.802 2.61259 2.99981 0
M  V30 3853 H 378.541 5.57702 3.44454 0
M  V30 3854 H 378.061 4.12568 4.35371 0
M  V30 3855 H 379.74 4.71509 4.43044 0
M  V30 3856 N 379.872 -1.04064 1.18357 0
M  V30 3857 C 381.121 -1.76662 0.973313 0
M  V30 3858 C 381.434 -1.89154 -0.497991 0
M  V30 3859 O 382.64 -2.58606 -0.826762 0
M  V30 3860 C 381.096 -3.17624 1.69242 0
M  V30 3861 C 380.704 -3.13225 3.20303 0
M  V30 3862 C 382.448 -3.946 1.56497 0
M  V30 3863 C 380.355 -4.49046 3.84853 0
M  V30 3864 H 379.285 -0.662214 0.36054 0
M  V30 3865 H 381.936 -1.16553 1.41731 0
M  V30 3866 H 380.318 -3.78129 1.1762 0
M  V30 3867 H 381.492 -2.62172 3.78949 0
M  V30 3868 H 379.807 -2.49749 3.33189 0
M  V30 3869 H 382.404 -4.95042 2.02084 0
M  V30 3870 H 382.747 -4.13074 0.517243 0
M  V30 3871 H 383.28 -3.4067 2.05399 0
M  V30 3872 H 380.019 -4.35777 4.89672 0
M  V30 3873 H 379.539 -5.00203 3.30994 0
M  V30 3874 H 381.218 -5.17961 3.87718 0
M  V30 3875 N 381.35 -0.985608 -1.22978 0
M  V30 3876 C 382.58 -0.674603 -1.95276 0
M  V30 3877 C 382.988 0.763483 -1.73111 0
M  V30 3878 O 382.331 1.52601 -1.02268 0
M  V30 3879 C 382.393 -0.891597 -3.48268 0
M  V30 3880 C 382.057 -2.31275 -3.94158 0
M  V30 3881 C 383.054 -3.29179 -4.02415 0
M  V30 3882 C 380.739 -2.64524 -4.27004 0
M  V30 3883 C 382.733 -4.58407 -4.42879 0
M  V30 3884 C 380.42 -3.93974 -4.67149 0
M  V30 3885 C 381.418 -4.90727 -4.75053 0
M  V30 3886 O 381.106 -6.17865 -5.14294 0
M  V30 3887 H 380.838 -0.249251 -0.628371 0
M  V30 3888 H 383.392 -1.32106 -1.5728 0
M  V30 3889 H 381.622 -0.187962 -3.86243 0
M  V30 3890 H 383.311 -0.576957 -4.01779 0
M  V30 3891 H 384.077 -3.04823 -3.77237 0
M  V30 3892 H 379.956 -1.89923 -4.2006 0
M  V30 3893 H 383.5 -5.33926 -4.48964 0
M  V30 3894 H 379.397 -4.18122 -4.91777 0
M  V30 3895 H 380.165 -6.21694 -5.32389 0
M  V30 3896 N 382.828 1.3818 -0.7579 0
M  V30 3897 C 383.791 2.28764 -0.141286 0
M  V30 3898 C 384.791 1.47388 0.642907 0
M  V30 3899 O 385.981 1.67781 0.468536 0
M  V30 3900 C 383.113 3.31184 0.808069 0
M  V30 3901 H 384.306 2.848 -0.939633 0
M  V30 3902 H 381.859 1.47212 -0.525191 0
M  V30 3903 H 382.594 2.80247 1.63193 0
M  V30 3904 H 382.379 3.91314 0.248104 0
M  V30 3905 H 383.869 3.98909 1.23536 0
M  V30 3906 N 384.306 0.507319 1.49211 0
M  V30 3907 C 385.583 -0.0982702 1.95353 0
M  V30 3908 C 385.963 -1.53516 1.449 0
M  V30 3909 O 385.311 -2.18594 0.66551 0
M  V30 3910 C 385.521 -0.00440283 3.49 0
M  V30 3911 C 386.869 -0.175147 4.24239 0
M  V30 3912 O 387.893 -0.0792891 3.56112 0
M  V30 3913 O 386.752 -0.37276 5.45227 0
M  V30 3914 H 383.846 -0.0918236 0.821887 0
M  V30 3915 H 386.392 0.570307 1.5983 0
M  V30 3916 H 385.164 0.997402 3.78375 0
M  V30 3917 H 384.787 -0.712845 3.91158 0
M  V30 3918 N 385.784 -1.5574 0.241426 0
M  V30 3919 C 387.032 -1.98417 -0.384075 0
M  V30 3920 C 387.353 -1.13078 -1.58866 0
M  V30 3921 O 386.623 -0.212312 -1.94746 0
M  V30 3922 H 385.203 -0.732813 -0.144894 0
M  V30 3923 H 387.865 -1.9193 0.338943 0
M  V30 3924 H 386.961 -3.04219 -0.696939 0
M  V30 3925 N 387.262 0.0317525 -1.57568 0
M  V30 3926 C 388.51 0.721676 -1.88776 0
M  V30 3927 C 388.831 1.76039 -0.838772 0
M  V30 3928 O 388.101 1.95482 0.127935 0
M  V30 3929 H 386.681 0.269534 -0.696678 0
M  V30 3930 H 389.343 -0.00165879 -1.949 0
M  V30 3931 H 388.439 1.21293 -2.87566 0
M  V30 3932 N 388.74 1.54641 0.303973 0
M  V30 3933 C 389.703 1.84646 1.35789 0
M  V30 3934 C 390.703 0.7192 1.4382 0
M  V30 3935 O 391.893 0.987491 1.43507 0
M  V30 3936 C 389.025 2.02407 2.74307 0
M  V30 3937 H 390.218 2.78829 1.10429 0
M  V30 3938 H 387.771 1.46658 0.540487 0
M  V30 3939 H 388.506 1.10502 3.04893 0
M  V30 3940 H 388.291 2.84453 2.69868 0
M  V30 3941 H 389.781 2.27002 3.50514 0
M  V30 3942 N 390.218 -0.567019 1.47046 0
M  V30 3943 C 391.168 -1.67018 1.55207 0
M  V30 3944 C 392.152 -1.55543 0.411714 0
M  V30 3945 O 393.344 -1.64192 0.661064 0
M  V30 3946 C 390.473 -3.05801 1.56014 0
M  V30 3947 C 389.559 -3.22515 2.75399 0
M  V30 3948 N 389.95 -3.09329 4.00186 0
M  V30 3949 C 388.248 -3.53493 2.71954 0
M  V30 3950 C 388.949 -3.2847 4.80086 0
M  V30 3951 N 387.925 -3.54352 4.12233 0
M  V30 3952 H 391.727 -1.55377 2.4947 0
M  V30 3953 H 389.241 -0.771503 1.42904 0
M  V30 3954 H 391.238 -3.84996 1.59949 0
M  V30 3955 H 389.898 -3.18561 0.628396 0
M  V30 3956 H 390.909 -2.86863 4.31196 0
M  V30 3957 H 387.586 -3.7284 1.87873 0
M  V30 3958 H 388.976 -3.23326 5.88991 0
M  V30 3959 N 391.696 -1.35014 -0.812953 0
M  V30 3960 C 392.924 -1.31031 -1.6012 0
M  V30 3961 C 393.339 0.113558 -1.88458 0
M  V30 3962 O 392.696 1.06363 -1.48301 0
M  V30 3963 C 392.747 -2.10872 -2.93624 0
M  V30 3964 O 392.468 -3.47706 -2.66518 0
M  V30 3965 C 393.969 -2.14401 -3.88004 0
M  V30 3966 H 391.189 -0.45037 -0.497401 0
M  V30 3967 H 393.733 -1.77775 -1.01076 0
M  V30 3968 H 391.888 -1.67744 -3.492 0
M  V30 3969 H 392.302 -3.89097 -3.51715 0
M  V30 3970 H 393.776 -2.74669 -4.78812 0
M  V30 3971 H 394.253 -1.14105 -4.24119 0
M  V30 3972 H 394.859 -2.57662 -3.38364 0
M  V30 3973 N 393.175 1.03435 -1.18907 0
M  V30 3974 C 394.107 2.1165 -0.879595 0
M  V30 3975 C 395.12 1.62316 0.125439 0
M  V30 3976 O 396.309 1.78201 -0.103245 0
M  V30 3977 C 393.409 3.37622 -0.294042 0
M  V30 3978 C 392.582 4.16166 -1.34629 0
M  V30 3979 C 391.641 5.20457 -0.775274 0
M  V30 3980 O 390.667 5.50379 -1.4516 0
M  V30 3981 N 391.869 5.78949 0.424126 0
M  V30 3982 H 394.634 2.38791 -1.81105 0
M  V30 3983 H 392.195 1.19681 -1.09032 0
M  V30 3984 H 394.187 4.04572 0.101679 0
M  V30 3985 H 392.757 3.07873 0.541575 0
M  V30 3986 H 391.977 3.44444 -1.91707 0
M  V30 3987 H 393.265 4.65432 -2.05549 0
M  V30 3988 H 392.663 5.56948 0.991209 0
M  V30 3989 H 391.22 6.47334 0.761691 0
M  V30 3990 N 394.653 0.992116 1.22453 0
M  V30 3991 C 395.583 0.561677 2.26644 0
M  V30 3992 C 396.564 -0.411055 1.65059 0
M  V30 3993 O 397.749 -0.301861 1.9184 0
M  V30 3994 C 394.879 -0.125247 3.47074 0
M  V30 3995 C 393.833 0.765948 4.21091 0
M  V30 3996 C 393.159 -0.0538484 5.34673 0
M  V30 3997 C 394.459 2.06242 4.79856 0
M  V30 3998 H 396.153 1.43259 2.62902 0
M  V30 3999 H 393.699 0.690283 1.26377 0
M  V30 4000 H 395.652 -0.437764 4.1912 0
M  V30 4001 H 394.376 -1.03069 3.0991 0
M  V30 4002 H 393.035 1.0621 3.50878 0
M  V30 4003 H 392.683 -0.960188 4.9375 0
M  V30 4004 H 392.383 0.539415 5.85119 0
M  V30 4005 H 393.907 -0.360477 6.09535 0
M  V30 4006 H 395.321 1.8139 5.43848 0
M  V30 4007 H 393.718 2.60444 5.40638 0
M  V30 4008 H 394.788 2.74167 3.99951 0
M  V30 4009 N 396.131 -1.37776 0.765217 0
M  V30 4010 C 397.061 -2.32945 0.160953 0
M  V30 4011 C 398.042 -1.55454 -0.690516 0
M  V30 4012 O 399.227 -1.83721 -0.629318 0
M  V30 4013 C 396.357 -3.39669 -0.724031 0
M  V30 4014 C 395.311 -4.27992 0.0256173 0
M  V30 4015 C 394.637 -5.25673 -0.978383 0
M  V30 4016 C 395.937 -5.08309 1.20082 0
M  V30 4017 H 397.631 -2.83728 0.955969 0
M  V30 4018 H 395.177 -1.36416 0.461149 0
M  V30 4019 H 397.13 -4.05219 -1.15652 0
M  V30 4020 H 395.854 -2.87396 -1.5515 0
M  V30 4021 H 394.513 -3.63964 0.438812 0
M  V30 4022 H 394.161 -4.69682 -1.80022 0
M  V30 4023 H 393.861 -5.85625 -0.481378 0
M  V30 4024 H 395.385 -5.94098 -1.40995 0
M  V30 4025 H 396.799 -5.67034 0.845307 0
M  V30 4026 H 395.196 -5.77554 1.62947 0
M  V30 4027 H 396.266 -4.41365 2.00811 0
M  V30 4028 O 397.648 -0.656736 -1.47544 0
M  V30 4029 H 398.339 -0.183317 -1.92831 0
M  V30 END ATOM
M  V30 BEGIN BOND
M  V30 END BOND
M  V30 END CTAB
M  END
$$$$
