drugbank_target|P80373 30S ribosomal protein S4 (DB08185)
 OpenBabel12092120483D

  0  0  0     0  0            999 V3000
M  V30 BEGIN CTAB
M  V30 COUNTS 3490 3520 0 0 0
M  V30 BEGIN ATOM
M  V30 1 H -0.908 1.98254 -0.117106 0
M  V30 2 N 0 1.576 0 0
M  V30 3 C 0.933 2.03868 1.02534 0
M  V30 4 C 1.911 0.928543 1.3348 0
M  V30 5 O 3.095 1.19667 1.45644 0
M  V30 6 C 0.222 2.43627 2.35294 0
M  V30 7 C -0.732 3.65373 2.2001 0
M  V30 8 S 0.101 5.13292 1.52614 0
M  V30 9 C 1.257 5.56322 2.86805 0
M  V30 10 H 1.49 2.90518 0.631377 0
M  V30 11 H -0.977 1.52953 0.210867 0
M  V30 12 H 0.981 2.67203 3.11629 0
M  V30 13 H -0.358 1.57376 2.7183 0
M  V30 14 H -1.165 3.90944 3.18086 0
M  V30 15 H -1.563 3.418 1.51819 0
M  V30 16 H 0.729 5.58782 3.83104 0
M  V30 17 H 1.672 6.56266 2.65933 0
M  V30 18 H 2.08 4.83886 2.90714 0
M  V30 19 N 1.4781 -0.272755 1.55222 0
M  V30 20 C 2.7261 -1.00234 1.75492 0
M  V30 21 C 3.0471 -1.8681 0.5592 0
M  V30 22 O 2.3171 -1.91215 -0.425882 0
M  V30 23 H 0.8971 -0.373076 0.647166 0
M  V30 24 H 3.5591 -0.296926 1.92625 0
M  V30 25 H 2.6551 -1.63913 2.65592 0
M  V30 26 N 2.9562 -1.48159 -0.537278 0
M  V30 27 C 4.3722 -1.34118 -0.865129 0
M  V30 28 C 4.5722 -0.346678 -1.98495 0
M  V30 29 O 3.6282 0.234715 -2.51407 0
M  V30 30 C 4.9412 -2.73963 -1.23954 0
M  V30 31 C 6.4892 -2.82397 -1.34984 0
M  V30 32 C 6.9642 -4.22928 -1.75772 0
M  V30 33 N 8.4552 -4.25566 -1.82887 0
M  V30 34 C 9.1902 -5.31235 -2.15817 0
M  V30 35 N 8.6862 -6.47189 -2.47222 0
M  V30 36 N 10.4792 -5.18624 -2.16761 0
M  V30 37 H 2.6302 -2.1144 0.201715 0
M  V30 38 H 4.8932 -0.947598 0.0275949 0
M  V30 39 H 4.5992 -3.48264 -0.490381 0
M  V30 40 H 4.4732 -3.0702 -2.19132 0
M  V30 41 H 6.8602 -2.08356 -2.08978 0
M  V30 42 H 6.9412 -2.5297 -0.379448 0
M  V30 43 H 6.5852 -4.97482 -1.02341 0
M  V30 44 H 6.5152 -4.49794 -2.73848 0
M  V30 45 H 9.0062 -3.41924 -1.60924 0
M  V30 46 H 9.3192 -7.23564 -2.71433 0
M  V30 47 H 7.6642 -6.50476 -2.44757 0
M  V30 48 H 10.8552 -4.27056 -1.91679 0
M  V30 49 H 11.0282 -6.01078 -2.42093 0
M  V30 50 N 4.4343 0.785586 -1.36625 0
M  V30 51 C 5.6643 1.5722 -1.34036 0
M  V30 52 C 6.0723 1.89033 0.0795062 0
M  V30 53 O 5.4153 1.50881 1.04789 0
M  V30 54 C 5.4773 2.91759 -2.10041 0
M  V30 55 C 5.1413 2.82654 -3.59104 0
M  V30 56 C 6.1383 2.54634 -4.53274 0
M  V30 57 C 3.8233 3.01111 -4.02042 0
M  V30 58 C 5.8173 2.45177 -5.88359 0
M  V30 59 C 3.5043 2.91276 -5.37216 0
M  V30 60 C 4.5023 2.63348 -6.30188 0
M  V30 61 O 4.1903 2.53514 -7.6288 0
M  V30 62 H 3.9223 0.494177 -0.461265 0
M  V30 63 H 6.4763 0.982632 -1.8037 0
M  V30 64 H 4.7063 3.52781 -1.58375 0
M  V30 65 H 6.3953 3.53059 -2.00261 0
M  V30 66 H 7.1613 2.40073 -4.21414 0
M  V30 67 H 3.0403 3.21854 -3.30047 0
M  V30 68 H 6.5843 2.23299 -6.60896 0
M  V30 69 H 2.4813 3.054 -5.68684 0
M  V30 70 H 3.2493 2.68967 -7.73045 0
M  V30 71 N 5.9124 1.20967 1.01018 0
M  V30 72 C 7.1614 1.01796 1.74128 0
M  V30 73 C 7.4744 -0.449691 1.90361 0
M  V30 74 O 8.6804 -0.76068 2.60626 0
M  V30 75 C 7.1364 1.7727 3.13215 0
M  V30 76 C 6.7444 3.28171 3.04972 0
M  V30 77 C 8.4884 1.66489 3.90489 0
M  V30 78 C 6.3954 3.96156 4.39107 0
M  V30 79 H 5.3254 0.377276 0.652824 0
M  V30 80 H 7.9764 1.44651 1.12909 0
M  V30 81 H 6.3584 1.27205 3.75013 0
M  V30 82 H 7.5324 3.85499 2.52443 0
M  V30 83 H 5.8474 3.39437 2.41188 0
M  V30 84 H 8.4444 2.14617 4.89738 0
M  V30 85 H 8.7874 0.6222 4.11624 0
M  V30 86 H 9.3204 2.14003 3.35332 0
M  V30 87 H 6.0594 5.00604 4.23174 0
M  V30 88 H 5.5794 3.43617 4.91617 0
M  V30 89 H 7.2584 4.00774 5.07926 0
M  V30 90 N 7.3905 -1.2043 1.01659 0
M  V30 91 C 8.6385 -1.89423 0.704522 0
M  V30 92 C 8.9595 -1.79231 -0.768197 0
M  V30 93 O 8.2295 -1.1947 -1.55254 0
M  V30 94 H 6.8095 -0.701178 0.257602 0
M  V30 95 H 9.4715 -1.4626 1.28818 0
M  V30 96 H 8.5675 -2.96052 0.987916 0
M  V30 97 N 8.8686 -0.792821 -1.36206 0
M  V30 98 C 10.2796 -0.429513 -1.81692 0
M  V30 99 C 10.6306 1.04695 -1.65932 0
M  V30 100 O 9.7556 1.81256 -1.18218 0
M  V30 101 C 10.3506 -0.772831 -3.29868 0
M  V30 102 C 8.9096 -0.462307 -3.7355 0
M  V30 103 C 8.0566 -1.00569 -2.5842 0
M  V30 104 H 11.0076 -0.985672 -1.24379 0
M  V30 105 H 11.0286 -0.0651928 -3.80444 0
M  V30 106 H 10.5406 -1.84747 -3.41307 0
M  V30 107 H 8.6416 0.604158 -3.67669 0
M  V30 108 H 8.7546 -0.985299 -4.68859 0
M  V30 109 H 7.1186 -0.428734 -2.51066 0
M  V30 110 H 7.9016 -2.08616 -2.72643 0
M  V30 111 N 10.3467 1.47872 -0.545128 0
M  V30 112 C 11.5927 2.02793 -0.0166104 0
M  V30 113 C 11.9257 1.41987 1.32489 0
M  V30 114 O 11.2007 0.571045 1.85928 0
M  V30 115 C 11.4837 3.59989 0.0893294 0
M  V30 116 C 11.3367 4.3125 -1.27841 0
M  V30 117 C 12.6557 4.32606 0.808724 0
M  V30 118 H 9.7747 0.736962 -0.00751035 0
M  V30 119 H 12.4167 1.76433 -0.705085 0
M  V30 120 H 10.5667 3.82579 0.675681 0
M  V30 121 H 12.2387 4.20035 -1.90704 0
M  V30 122 H 10.4817 3.92076 -1.85632 0
M  V30 123 H 11.1527 5.39736 -1.15713 0
M  V30 124 H 13.6287 4.14936 0.310992 0
M  V30 125 H 12.5047 5.42251 0.851782 0
M  V30 126 H 12.7657 4.00963 1.86229 0
M  V30 127 N 11.8248 0.280983 1.55075 0
M  V30 128 C 13.0648 -0.335234 2.01632 0
M  V30 129 C 13.4288 -1.5261 1.16508 0
M  V30 130 O 14.6298 -2.21235 1.52672 0
M  V30 131 C 12.9008 -0.702172 3.50434 0
M  V30 132 S 14.4598 -1.30409 4.18974 0
M  V30 133 H 11.2778 -0.103967 0.703358 0
M  V30 134 H 13.8798 0.404187 1.91276 0
M  V30 135 H 12.5838 0.17333 4.10034 0
M  V30 136 H 12.1148 -1.4729 3.64786 0
M  V30 137 H 14.1298 -2.59253 4.23087 0
M  V30 138 N 13.3029 -1.57598 0.00835791 0
M  V30 139 C 14.7189 -1.55764 -0.347822 0
M  V30 140 C 14.9189 -1.01186 -1.74252 0
M  V30 141 O 13.9749 -0.649371 -2.44007 0
M  V30 142 C 15.2879 -2.99927 -0.215407 0
M  V30 143 C 16.8359 -3.11656 -0.289725 0
M  V30 144 C 17.3109 -4.57621 -0.18634 0
M  V30 145 N 18.8019 -4.62557 -0.243978 0
M  V30 146 C 19.5369 -5.73094 -0.18745 0
M  V30 147 N 19.0329 -6.92753 -0.0810331 0
M  V30 148 N 20.8259 -5.61588 -0.239925 0
M  V30 149 H 12.9769 -1.91411 0.92062 0
M  V30 150 H 15.2399 -0.879562 0.353659 0
M  V30 151 H 14.9459 -3.43729 0.744512 0
M  V30 152 H 14.8199 -3.63865 -0.994097 0
M  V30 153 H 17.2069 -2.67779 -1.24009 0
M  V30 154 H 17.2879 -2.5048 0.51898 0
M  V30 155 H 16.9319 -5.02174 0.760519 0
M  V30 156 H 16.8619 -5.16752 -1.01364 0
M  V30 157 H 19.3529 -3.76481 -0.327217 0
M  V30 158 H 19.6659 -7.72787 -0.0440241 0
M  V30 159 H 18.0109 -6.94984 -0.0465419 0
M  V30 160 H 21.2019 -4.66996 -0.321317 0
M  V30 161 H 21.3749 -6.47714 -0.192407 0
M  V30 162 N 14.781 0.264519 -1.55364 0
M  V30 163 C 15.711 1.33121 -1.91836 0
M  V30 164 C 16.692 1.51101 -0.781192 0
M  V30 165 O 17.877 1.64003 -1.04003 0
M  V30 166 C 15.007 2.68921 -2.19769 0
M  V30 167 C 13.961 2.65661 -3.35571 0
M  V30 168 C 13.287 4.05093 -3.49004 0
M  V30 169 C 14.587 2.24187 -4.71739 0
M  V30 170 H 16.281 1.02844 -2.81182 0
M  V30 171 H 13.827 0.493286 -1.35287 0
M  V30 172 H 15.78 3.43663 -2.43872 0
M  V30 173 H 14.504 3.00799 -1.27231 0
M  V30 174 H 13.163 1.93377 -3.1145 0
M  V30 175 H 12.811 4.34206 -2.53917 0
M  V30 176 H 12.511 4.03804 -4.26868 0
M  V30 177 H 14.035 4.81561 -3.75408 0
M  V30 178 H 15.449 2.88654 -4.9533 0
M  V30 179 H 13.846 2.34044 -5.52579 0
M  V30 180 H 14.916 1.19327 -4.69988 0
M  V30 181 N 16.2591 1.48442 0.529413 0
M  V30 182 C 17.4991 1.58086 1.29569 0
M  V30 183 C 17.8631 0.249302 1.90375 0
M  V30 184 O 19.0641 0.220738 2.67892 0
M  V30 185 C 17.3351 2.68793 2.35552 0
M  V30 186 S 18.8941 2.98207 3.21898 0
M  V30 187 H 15.7121 0.557922 0.440732 0
M  V30 188 H 18.3141 1.85966 0.603059 0
M  V30 189 H 17.0181 3.64102 1.89363 0
M  V30 190 H 16.5491 2.42817 3.09522 0
M  V30 191 H 18.5641 2.37548 4.35644 0
M  V30 192 N 17.7372 -0.778329 1.37039 0
M  V30 193 C 19.1532 -1.07796 1.17695 0
M  V30 194 C 19.3532 -2.01498 0.00860115 0
M  V30 195 O 18.4092 -2.43901 -0.653352 0
M  V30 196 C 19.7222 -1.68178 2.49272 0
M  V30 197 C 21.2702 -1.80467 2.55735 0
M  V30 198 C 21.7452 -2.44263 3.87427 0
M  V30 199 N 23.2362 -2.51721 3.88833 0
M  V30 200 C 23.9712 -3.01919 4.87476 0
M  V30 201 N 23.4672 -3.5234 5.96513 0
M  V30 202 N 25.2602 -3.00733 4.74885 0
M  V30 203 H 17.4112 -0.156032 2.11826 0
M  V30 204 H 19.6742 -0.131844 0.938787 0
M  V30 205 H 19.3802 -1.06796 3.35093 0
M  V30 206 H 19.2542 -2.67554 2.65885 0
M  V30 207 H 21.6412 -2.40984 1.70325 0
M  V30 208 H 21.7222 -0.798656 2.43013 0
M  V30 209 H 21.3662 -1.84388 4.73248 0
M  V30 210 H 21.2962 -3.45458 3.9745 0
M  V30 211 H 23.7872 -2.1603 3.10063 0
M  V30 212 H 24.1002 -3.89027 6.67741 0
M  V30 213 H 22.4452 -3.50462 6.00168 0
M  V30 214 H 25.6362 -2.60638 3.88826 0
M  V30 215 H 25.8092 -3.39545 5.51918 0
M  V30 216 N 19.2153 -1.21501 -1.00376 0
M  V30 217 C 20.6313 -0.972629 -1.26539 0
M  V30 218 C 20.8313 0.340257 -1.98606 0
M  V30 219 O 19.8873 1.06561 -2.28913 0
M  V30 220 C 21.2003 -2.16404 -2.08781 0
M  V30 221 C 22.7483 -2.20643 -2.22004 0
M  V30 222 C 23.2233 -3.39306 -3.07629 0
M  V30 223 N 24.7143 -3.39401 -3.15217 0
M  V30 224 C 25.4493 -4.27867 -3.81729 0
M  V30 225 N 24.9453 -5.26533 -4.5026 0
M  V30 226 N 26.7383 -4.15672 -3.78382 0
M  V30 227 H 18.8893 -2.05929 -0.520281 0
M  V30 228 H 21.1523 -0.901803 -0.292328 0
M  V30 229 H 20.8583 -3.11554 -1.63178 0
M  V30 230 H 20.7323 -2.15567 -3.09533 0
M  V30 231 H 23.1193 -1.26048 -2.66825 0
M  V30 232 H 23.2003 -2.25523 -1.20718 0
M  V30 233 H 22.8443 -4.34195 -2.63509 0
M  V30 234 H 22.7743 -3.31665 -4.09031 0
M  V30 235 H 25.2653 -2.67997 -2.66432 0
M  V30 236 H 25.5783 -5.90337 -4.98721 0
M  V30 237 H 23.9233 -5.30457 -4.49044 0
M  V30 238 H 27.1143 -3.3785 -3.23998 0
M  V30 239 H 27.2873 -4.84825 -4.2994 0
M  V30 240 N 20.6934 1.19889 -1.02296 0
M  V30 241 C 21.6034 2.26571 -0.608508 0
M  V30 242 C 22.6194 1.70299 0.356964 0
M  V30 243 O 23.7954 2.00235 0.216326 0
M  V30 244 C 20.8604 3.46677 0.0402814 0
M  V30 245 C 19.9214 4.18153 -0.97194 0
M  V30 246 C 19.1544 5.32525 -0.354016 0
M  V30 247 O 19.3774 5.64112 0.844604 0
M  V30 248 O 18.3114 5.92242 -1.07391 0
M  V30 249 H 22.1374 2.64251 -1.49684 0
M  V30 250 H 19.7224 1.26629 -0.792809 0
M  V30 251 H 21.6044 4.19475 0.402324 0
M  V30 252 H 20.2794 3.10858 0.902707 0
M  V30 253 H 19.1864 3.47499 -1.38546 0
M  V30 254 H 20.5194 4.57927 -1.80454 0
M  V30 255 N 22.1715 0.800033 1.35784 0
M  V30 256 C 23.4195 0.376597 1.9856 0
M  V30 257 C 23.7405 -1.05812 1.63795 0
M  V30 258 O 23.0105 -1.73103 0.917171 0
M  V30 259 H 21.5905 0.136261 0.734467 0
M  V30 260 H 24.2525 1.02442 1.65806 0
M  V30 261 H 23.3485 0.477002 3.08433 0
M  V30 262 N 23.6496 -1.47581 0.552962 0
M  V30 263 C 24.8956 -2.02782 0.0273648 0
M  V30 264 C 25.2286 -1.42687 -1.31734 0
M  V30 265 O 24.5036 -0.580897 -1.85623 0
M  V30 266 C 24.7866 -3.60031 -0.0702371 0
M  V30 267 C 24.6396 -4.30566 1.30126 0
M  V30 268 C 25.9586 -4.33028 -0.785771 0
M  V30 269 H 23.0776 -0.736912 0.0114185 0
M  V30 270 H 25.7196 -1.76056 0.714432 0
M  V30 271 H 23.8696 -3.82932 -0.655382 0
M  V30 272 H 25.5416 -4.19018 1.92929 0
M  V30 273 H 23.7846 -3.91086 1.87709 0
M  V30 274 H 24.4556 -5.39114 1.18573 0
M  V30 275 H 26.9316 -4.15095 -0.288982 0
M  V30 276 H 25.8076 -5.42695 -0.823013 0
M  V30 277 H 26.0686 -4.01945 -1.841 0
M  V30 278 N 25.1277 -0.289203 -1.54924 0
M  V30 279 C 26.0747 0.592115 -2.23075 0
M  V30 280 C 27.0447 1.13881 -1.20915 0
M  V30 281 O 28.2297 1.18551 -1.495 0
M  V30 282 C 25.3697 1.76376 -2.96623 0
M  V30 283 C 24.4827 1.24959 -4.13533 0
M  V30 284 C 23.6177 2.38416 -4.74691 0
M  V30 285 C 22.6567 1.84072 -5.83767 0
M  V30 286 N 21.7937 2.91057 -6.38929 0
M  V30 287 H 26.6337 0.00432038 -2.98 0
M  V30 288 H 24.1707 -0.00963529 -1.47097 0
M  V30 289 H 26.1287 2.45268 -3.3749 0
M  V30 290 H 24.7587 2.32337 -2.24097 0
M  V30 291 H 23.8107 0.453307 -3.77689 0
M  V30 292 H 25.1227 0.811662 -4.92152 0
M  V30 293 H 24.2767 3.15276 -5.18349 0
M  V30 294 H 23.0157 2.8553 -3.95378 0
M  V30 295 H 22.0207 1.05697 -5.39545 0
M  V30 296 H 23.2457 1.37877 -6.64956 0
M  V30 297 H 21.1917 3.37526 -5.62505 0
M  V30 298 H 21.1087 2.51724 -7.12861 0
M  V30 299 H 22.3767 3.6785 -6.87246 0
M  V30 300 N 26.6058 1.57591 -0.0167156 0
M  V30 301 C 27.5358 2.12496 0.967858 0
M  V30 302 C 28.5168 1.03807 1.34752 0
M  V30 303 O 29.7018 1.31577 1.42833 0
M  V30 304 C 26.8318 2.64194 2.25431 0
M  V30 305 C 25.7858 3.77559 2.01576 0
M  V30 306 C 25.1118 4.15636 3.36379 0
M  V30 307 C 26.4118 5.04151 1.36489 0
M  V30 308 H 28.1058 2.95013 0.510643 0
M  V30 309 H 25.6518 1.41915 0.244181 0
M  V30 310 H 27.6048 3.01236 2.94678 0
M  V30 311 H 26.3288 1.78821 2.73296 0
M  V30 312 H 24.9878 3.40937 1.34751 0
M  V30 313 H 24.6358 3.27263 3.81979 0
M  V30 314 H 24.3358 4.92022 3.21229 0
M  V30 315 H 25.8598 4.5525 4.06915 0
M  V30 316 H 27.2738 5.38857 1.95718 0
M  V30 317 H 25.6708 5.85453 1.31776 0
M  V30 318 H 26.7408 4.83733 0.336219 0
M  V30 319 N 28.0839 -0.256276 1.55502 0
M  V30 320 C 29.3139 -1.00196 1.80677 0
M  V30 321 C 29.7219 -1.79805 0.588797 0
M  V30 322 O 29.0649 -1.78055 -0.451883 0
M  V30 323 C 29.1269 -1.99515 2.99055 0
M  V30 324 C 28.7909 -1.38688 4.35448 0
M  V30 325 C 29.7879 -0.794079 5.138 0
M  V30 326 C 27.4729 -1.40906 4.82132 0
M  V30 327 C 29.4669 -0.231562 6.36979 0
M  V30 328 C 27.1539 -0.842684 6.05262 0
M  V30 329 C 28.1519 -0.254953 6.82524 0
M  V30 330 O 27.8399 0.3027 8.0333 0
M  V30 331 H 27.5719 -0.300919 0.60533 0
M  V30 332 H 30.1259 -0.287307 2.03381 0
M  V30 333 H 28.3559 -2.74785 2.72084 0
M  V30 334 H 30.0449 -2.60349 3.11405 0
M  V30 335 H 30.8109 -0.769519 4.78856 0
M  V30 336 H 26.6899 -1.85591 4.21992 0
M  V30 337 H 30.2339 0.227816 6.97228 0
M  V30 338 H 26.1309 -0.86454 6.39684 0
M  V30 339 H 26.8989 0.193662 8.18271 0
M  V30 340 N 29.562 -1.4872 -0.521534 0
M  V30 341 C 30.492 -1.66771 -1.63431 0
M  V30 342 C 31.473 -0.516499 -1.62069 0
M  V30 343 O 32.658 -0.750013 -1.79132 0
M  V30 344 C 29.788 -1.71515 -3.01993 0
M  V30 345 C 28.742 -2.86222 -3.18216 0
M  V30 346 C 28.068 -2.76061 -4.57924 0
M  V30 347 C 29.368 -4.27419 -3.00184 0
M  V30 348 H 31.062 -2.59932 -1.48579 0
M  V30 349 H 28.608 -1.25089 -0.713358 0
M  V30 350 H 30.561 -1.82731 -3.7972 0
M  V30 351 H 29.285 -0.749393 -3.17886 0
M  V30 352 H 27.944 -2.74575 -2.42908 0
M  V30 353 H 27.592 -1.77437 -4.70665 0
M  V30 354 H 27.292 -3.53037 -4.69722 0
M  V30 355 H 28.816 -2.89256 -5.37739 0
M  V30 356 H 30.23 -4.39855 -3.67697 0
M  V30 357 H 28.627 -5.05458 -3.2347 0
M  V30 358 H 29.697 -4.43293 -1.96518 0
M  V30 359 N 31.0401 0.771051 -1.3745 0
M  V30 360 C 31.9871 1.88435 -1.3327 0
M  V30 361 C 32.9571 1.64914 -0.198136 0
M  V30 362 O 34.1421 1.86821 -0.387606 0
M  V30 363 C 31.2821 3.25509 -1.14622 0
M  V30 364 C 30.3951 3.60979 -2.37314 0
M  V30 365 C 29.5301 4.87265 -2.11533 0
M  V30 366 C 28.5691 5.15469 -3.30088 0
M  V30 367 N 27.7061 6.32944 -3.03853 0
M  V30 368 H 32.5461 1.91344 -2.28455 0
M  V30 369 H 30.0831 0.935466 -1.13523 0
M  V30 370 H 32.0411 4.04582 -1.01831 0
M  V30 371 H 30.6711 3.21974 -0.230837 0
M  V30 372 H 29.7231 2.76885 -2.60842 0
M  V30 373 H 31.0351 3.77759 -3.25729 0
M  V30 374 H 30.1891 5.74244 -1.95777 0
M  V30 375 H 28.9281 4.7259 -1.20457 0
M  V30 376 H 27.9331 4.26966 -3.46382 0
M  V30 377 H 29.1581 5.32052 -4.22016 0
M  V30 378 H 27.1041 6.19625 -2.15407 0
M  V30 379 H 27.0211 6.50143 -3.85812 0
M  V30 380 H 28.2891 7.22857 -2.91716 0
M  V30 381 N 32.5182 1.22032 0.997298 0
M  V30 382 C 33.7662 1.04016 1.73278 0
M  V30 383 C 34.0872 -0.426255 1.90284 0
M  V30 384 O 33.3572 -1.30694 1.45931 0
M  V30 385 H 31.9372 0.381897 0.642 0
M  V30 386 H 34.5992 1.5347 1.20137 0
M  V30 387 H 33.6952 1.51441 2.72896 0
M  V30 388 N 33.9963 -1.19345 1.0293 0
M  V30 389 C 34.9063 -2.26245 0.620515 0
M  V30 390 C 35.9223 -1.70486 -0.347928 0
M  V30 391 O 37.0983 -2.00347 -0.205704 0
M  V30 392 C 34.1633 -3.46693 -0.0218957 0
M  V30 393 C 33.2243 -4.17632 0.994102 0
M  V30 394 C 32.4573 -5.32329 0.382253 0
M  V30 395 O 32.6803 -5.64552 -0.814676 0
M  V30 396 O 31.6143 -5.91664 1.10531 0
M  V30 397 H 35.4403 -2.63453 1.51083 0
M  V30 398 H 33.0253 -1.26207 0.799513 0
M  V30 399 H 34.9073 -4.19683 -0.380072 0
M  V30 400 H 33.5823 -3.11333 -0.886209 0
M  V30 401 H 32.4893 -3.4676 1.40387 0
M  V30 402 H 33.8223 -4.56964 1.8288 0
M  V30 403 N 35.4744 -0.807222 -1.35358 0
M  V30 404 C 36.8904 -0.491038 -1.51858 0
M  V30 405 C 37.0904 0.987648 -1.75635 0
M  V30 406 O 36.1464 1.77265 -1.79815 0
M  V30 407 C 37.4594 -1.33695 -2.69344 0
M  V30 408 C 39.0074 -1.33246 -2.83222 0
M  V30 409 C 39.4824 -2.1625 -4.03733 0
M  V30 410 N 40.9734 -2.1379 -4.10911 0
M  V30 411 C 41.7084 -2.74772 -5.03277 0
M  V30 412 N 41.2044 -3.44684 -6.0097 0
M  V30 413 N 42.9974 -2.6441 -4.96028 0
M  V30 414 H 35.1484 -1.76485 -1.18181 0
M  V30 415 H 37.4114 -0.751199 -0.578276 0
M  V30 416 H 37.1174 -2.38634 -2.58354 0
M  V30 417 H 36.9914 -0.990618 -3.6396 0
M  V30 418 H 39.3784 -0.290911 -2.93663 0
M  V30 419 H 39.4594 -1.71866 -1.89461 0
M  V30 420 H 39.1034 -3.20445 -3.94052 0
M  V30 421 H 39.0334 -1.74989 -4.96675 0
M  V30 422 H 41.5244 -1.62923 -3.40976 0
M  V30 423 H 41.8374 -3.88501 -6.68047 0
M  V30 424 H 40.1824 -3.48788 -6.01142 0
M  V30 425 H 43.3734 -2.0938 -4.18662 0
M  V30 426 H 43.5464 -3.12225 -5.6782 0
M  V30 427 N 36.9525 1.47285 -0.560781 0
M  V30 428 C 38.1925 2.0436 -0.0404627 0
M  V30 429 C 38.5565 1.42534 1.28639 0
M  V30 430 O 39.7575 1.90677 1.89462 0
M  V30 431 C 38.0285 3.57369 0.0471856 0
M  V30 432 S 39.5875 4.3579 0.513109 0
M  V30 433 H 36.4055 0.710492 -0.0268674 0
M  V30 434 H 39.0075 1.80611 -0.748323 0
M  V30 435 H 37.7115 3.9989 -0.922817 0
M  V30 436 H 37.2425 3.8562 0.778491 0
M  V30 437 H 39.2575 4.63476 1.77212 0
M  V30 438 N 38.4306 0.297415 1.54768 0
M  V30 439 C 39.6606 -0.315165 2.04182 0
M  V30 440 C 40.0686 -1.4834 1.17439 0
M  V30 441 O 39.4116 -1.82695 0.191891 0
M  V30 442 C 39.4736 -0.837583 3.49607 0
M  V30 443 C 39.1376 0.204912 4.5654 0
M  V30 444 C 40.1346 1.03214 5.09552 0
M  V30 445 C 37.8196 0.345578 5.0111 0
M  V30 446 C 39.8136 1.986 6.05671 0
M  V30 447 C 37.5006 1.30289 5.97049 0
M  V30 448 C 38.4986 2.12159 6.49213 0
M  V30 449 O 38.1866 3.06268 7.43273 0
M  V30 450 H 37.9186 -0.0729646 0.672051 0
M  V30 451 H 40.4726 0.433907 2.00765 0
M  V30 452 H 38.7026 -1.63712 3.50336 0
M  V30 453 H 40.3916 -1.36566 3.82236 0
M  V30 454 H 41.1576 0.934312 4.75916 0
M  V30 455 H 37.0366 -0.28171 4.60138 0
M  V30 456 H 40.5806 2.62542 6.46311 0
M  V30 457 H 36.4776 1.40145 6.30103 0
M  V30 458 H 37.2456 3.01205 7.61064 0
M  V30 459 N 39.9087 -1.5758 0.0250728 0
M  V30 460 C 41.1337 -1.96337 -0.668317 0
M  V30 461 C 41.5587 -0.901314 -1.651 0
M  V30 462 O 40.9167 0.138187 -1.80773 0
M  V30 463 C 40.9647 -3.34191 -1.35457 0
M  V30 464 O 40.0687 -3.30269 -2.46974 0
M  V30 465 H 39.4097 -0.640281 -0.175887 0
M  V30 466 H 41.9397 -2.0442 0.0857224 0
M  V30 467 H 41.9497 -3.70331 -1.71228 0
M  V30 468 H 40.6247 -4.11036 -0.634218 0
M  V30 469 H 39.2017 -3.05841 -2.13344 0
M  V30 470 N 41.3868 0.248026 -1.55636 0
M  V30 471 C 42.7978 0.817177 -1.67866 0
M  V30 472 C 43.1488 1.86069 -0.622322 0
M  V30 473 O 42.2738 2.15157 0.231618 0
M  V30 474 C 42.8688 1.489 -3.04326 0
M  V30 475 C 41.4278 2.00587 -3.185 0
M  V30 476 C 40.5748 0.856573 -2.63739 0
M  V30 477 H 43.5258 0.0238579 -1.58682 0
M  V30 478 H 43.5468 2.35698 -2.98708 0
M  V30 479 H 43.0588 0.729279 -3.81186 0
M  V30 480 H 41.1598 2.79443 -2.4646 0
M  V30 481 H 41.2728 2.20402 -4.25393 0
M  V30 482 H 39.6368 1.25678 -2.21534 0
M  V30 483 H 40.4198 0.109953 -3.43124 0
M  V30 484 N 42.8649 1.48995 0.513639 0
M  V30 485 C 43.8119 1.6473 1.61656 0
M  V30 486 C 44.7819 0.488984 1.58739 0
M  V30 487 O 45.9669 0.714478 1.76918 0
M  V30 488 C 43.1069 1.7082 2.99858 0
M  V30 489 C 42.2199 2.9787 3.12885 0
M  V30 490 C 41.3549 2.95017 4.41744 0
M  V30 491 C 40.3939 4.16702 4.48359 0
M  V30 492 N 39.5309 4.11832 5.68629 0
M  V30 493 H 44.3709 2.58909 1.47547 0
M  V30 494 H 41.9079 1.28382 0.71808 0
M  V30 495 H 43.8659 1.72331 3.79944 0
M  V30 496 H 42.4959 0.801181 3.12699 0
M  V30 497 H 41.5479 3.06029 2.25944 0
M  V30 498 H 42.8599 3.8786 3.13633 0
M  V30 499 H 42.0139 2.95021 5.30139 0
M  V30 500 H 40.7529 2.02784 4.43542 0
M  V30 501 H 39.7579 4.16955 3.58369 0
M  V30 502 H 40.9829 5.10113 4.48287 0
M  V30 503 H 38.9289 3.22428 5.71293 0
M  V30 504 H 38.8459 4.95543 5.7094 0
M  V30 505 H 40.1139 4.1592 6.59266 0
M  V30 506 N 44.343 -0.763751 1.37857 0
M  V30 507 C 45.583 -1.53551 1.34913 0
M  V30 508 C 45.947 -1.91895 -0.0635882 0
M  V30 509 O 47.148 -2.67916 -0.217825 0
M  V30 510 C 45.419 -2.76126 2.26912 0
M  V30 511 S 46.978 -3.66105 2.41893 0
M  V30 512 H 43.796 -0.52559 0.478828 0
M  V30 513 H 46.398 -0.897435 1.73685 0
M  V30 514 H 45.102 -2.4605 3.28463 0
M  V30 515 H 44.633 -3.44887 1.89253 0
M  V30 516 H 46.648 -4.68473 1.63545 0
M  V30 517 N 45.8211 -1.22559 -0.990812 0
M  V30 518 C 46.7841 -0.998863 -2.0629 0
M  V30 519 C 47.7841 0.0354834 -1.60761 0
M  V30 520 O 48.9741 -0.203231 -1.7301 0
M  V30 521 C 46.1061 -0.509203 -3.37076 0
M  V30 522 H 47.2991 -1.95014 -2.27837 0
M  V30 523 H 44.8521 -1.04456 -1.16269 0
M  V30 524 H 45.5871 0.446335 -3.21214 0
M  V30 525 H 45.3721 -1.25547 -3.71457 0
M  V30 526 H 46.8621 -0.370888 -4.1595 0
M  V30 527 N 47.2992 1.18797 -1.03562 0
M  V30 528 C 48.2322 2.2105 -0.56676 0
M  V30 529 C 49.2102 1.57704 0.395993 0
M  V30 530 O 50.3942 1.85908 0.311498 0
M  V30 531 C 47.5212 3.38259 0.172704 0
M  V30 532 C 46.5672 4.19987 -0.74252 0
M  V30 533 S 47.4002 4.87199 -2.22254 0
M  V30 534 C 48.5562 6.07813 -1.49379 0
M  V30 535 H 48.7892 2.60478 -1.43312 0
M  V30 536 H 46.3222 1.29151 -0.846133 0
M  V30 537 H 48.2802 4.06191 0.593191 0
M  V30 538 H 46.9412 2.97252 1.01488 0
M  V30 539 H 46.1342 5.03709 -0.171265 0
M  V30 540 H 45.7362 3.57408 -1.10163 0
M  V30 541 H 48.0282 6.72948 -0.784056 0
M  V30 542 H 48.9712 6.69435 -2.30786 0
M  V30 543 H 49.3792 5.55781 -0.988331 0
M  V30 544 N 48.7773 0.814389 1.34928 0
M  V30 545 C 49.6873 0.231978 2.3345 0
M  V30 546 C 50.7033 -0.629139 1.62228 0
M  V30 547 O 51.8793 -0.539052 1.94052 0
M  V30 548 C 48.9443 -0.603482 3.41407 0
M  V30 549 C 48.0053 0.279037 4.28392 0
M  V30 550 C 47.2383 -0.516643 5.31193 0
M  V30 551 O 47.4613 -1.75068 5.4287 0
M  V30 552 O 46.3953 0.0965652 6.01823 0
M  V30 553 H 50.2213 1.04721 2.85074 0
M  V30 554 H 47.8063 0.576343 1.37836 0
M  V30 555 H 49.6883 -1.07908 4.0735 0
M  V30 556 H 48.3633 -1.39618 2.92042 0
M  V30 557 H 47.2703 0.801948 3.65403 0
M  V30 558 H 48.6033 1.03588 4.81176 0
M  V30 559 N 50.2554 -1.46986 0.568584 0
M  V30 560 C 51.6714 -1.57946 0.229189 0
M  V30 561 C 51.8714 -1.56567 -1.26843 0
M  V30 562 O 50.9274 -1.47511 -2.04931 0
M  V30 563 C 52.2404 -2.87963 0.865909 0
M  V30 564 C 53.7884 -3.01568 0.838188 0
M  V30 565 C 54.2634 -4.34301 1.45419 0
M  V30 566 N 55.7544 -4.40965 1.41788 0
M  V30 567 C 56.4894 -5.42256 1.86403 0
M  V30 568 N 55.9854 -6.50297 2.38926 0
M  V30 569 N 57.7784 -5.3337 1.77405 0
M  V30 570 H 49.9294 -1.46126 1.54146 0
M  V30 571 H 52.1924 -0.696156 0.643484 0
M  V30 572 H 51.8984 -2.94742 1.91886 0
M  V30 573 H 51.7724 -3.75423 0.365687 0
M  V30 574 H 54.1594 -2.94379 -0.206106 0
M  V30 575 H 54.2404 -2.1562 1.37629 0
M  V30 576 H 53.8844 -4.42247 2.49761 0
M  V30 577 H 53.8144 -5.19 0.891435 0
M  V30 578 H 56.3054 -3.63484 1.03381 0
M  V30 579 H 56.6184 -7.23777 2.70863 0
M  V30 580 H 54.9634 -6.51155 2.42944 0
M  V30 581 H 58.1544 -4.47865 1.3614 0
M  V30 582 H 58.3274 -6.12169 2.12492 0
M  V30 583 N 51.7335 -0.305618 -1.54608 0
M  V30 584 C 53.1495 0.0476228 -1.59529 0
M  V30 585 C 53.3495 1.52025 -1.32252 0
M  V30 586 O 52.4055 2.27368 -1.09818 0
M  V30 587 C 53.7185 -0.354471 -2.98603 0
M  V30 588 C 55.2665 -0.303622 -3.11524 0
M  V30 589 C 55.7415 -0.680608 -4.52915 0
M  V30 590 N 57.2325 -0.63332 -4.5885 0
M  V30 591 C 57.9675 -0.897432 -5.66334 0
M  V30 592 N 57.4635 -1.22775 -6.81834 0
M  V30 593 N 59.2565 -0.824186 -5.56025 0
M  V30 594 H 51.4075 -1.2653 -1.70599 0
M  V30 595 H 53.6705 -0.513291 -0.797017 0
M  V30 596 H 53.3765 -1.3798 -3.23503 0
M  V30 597 H 53.2505 0.289568 -3.76087 0
M  V30 598 H 55.6375 0.712472 -2.8637 0
M  V30 599 H 55.7185 -0.982348 -2.36185 0
M  V30 600 H 55.3625 -1.69453 -4.78799 0
M  V30 601 H 55.2925 0.0202385 -5.26596 0
M  V30 602 H 57.7835 -0.389138 -3.75891 0
M  V30 603 H 58.0965 -1.41513 -7.59733 0
M  V30 604 H 56.4415 -1.26583 -6.83375 0
M  V30 605 H 59.6325 -0.565748 -4.64669 0
M  V30 606 H 59.8055 -1.03338 -6.39707 0
M  V30 607 N 53.2116 1.57565 -0.0334293 0
M  V30 608 C 54.6226 1.79746 0.504798 0
M  V30 609 C 54.9736 0.944091 1.71992 0
M  V30 610 O 54.0986 0.155694 2.15839 0
M  V30 611 C 54.6936 3.25997 0.922567 0
M  V30 612 C 53.2526 3.49159 1.40588 0
M  V30 613 C 52.3996 2.74785 0.372633 0
M  V30 614 H 55.3506 1.56565 -0.259436 0
M  V30 615 H 55.3716 3.35945 1.78666 0
M  V30 616 H 54.8836 3.88081 0.0379825 0
M  V30 617 H 52.9846 2.92332 2.31025 0
M  V30 618 H 53.0976 4.57873 1.41028 0
M  V30 619 H 51.4616 2.40391 0.841672 0
M  V30 620 H 52.2446 3.39587 -0.503559 0
M  V30 621 N 54.6897 -0.239769 1.55765 0
M  V30 622 C 55.9197 -0.982743 1.8173 0
M  V30 623 C 56.3277 -1.7917 0.607835 0
M  V30 624 O 55.6707 -1.78525 -0.432973 0
M  V30 625 C 55.7327 -1.96332 3.01155 0
M  V30 626 C 55.3967 -1.34062 4.36894 0
M  V30 627 C 56.3937 -0.739539 5.14613 0
M  V30 628 C 54.0787 -1.35784 4.83599 0
M  V30 629 C 56.0727 -0.163989 6.37189 0
M  V30 630 C 53.7597 -0.778441 6.06122 0
M  V30 631 C 54.7577 -0.182548 6.82756 0
M  V30 632 O 54.4457 0.387887 8.02964 0
M  V30 633 H 54.1777 -0.294481 0.608487 0
M  V30 634 H 56.7317 -0.26572 2.03674 0
M  V30 635 H 54.9617 -2.71884 2.74984 0
M  V30 636 H 56.6507 -2.57032 3.14149 0
M  V30 637 H 57.4167 -0.718687 4.79646 0
M  V30 638 H 53.2957 -1.81105 4.23936 0
M  V30 639 H 56.8397 0.301753 6.96947 0
M  V30 640 H 52.7367 -0.796645 6.40565 0
M  V30 641 H 53.5047 0.28044 8.18019 0
M  V30 642 N 56.1678 -1.49265 -0.50573 0
M  V30 643 C 57.5788 -1.51769 -1.08734 0
M  V30 644 C 57.9298 -0.301192 -1.93874 0
M  V30 645 O 57.0548 0.589456 -2.08217 0
M  V30 646 C 57.6498 -2.75017 -1.97867 0
M  V30 647 C 56.2088 -2.80314 -2.51199 0
M  V30 648 C 55.3558 -2.4562 -1.28709 0
M  V30 649 H 58.3068 -1.56031 -0.289855 0
M  V30 650 H 58.3278 -2.5491 -2.82491 0
M  V30 651 H 57.8398 -3.63539 -1.35873 0
M  V30 652 H 55.9408 -1.96061 -3.16845 0
M  V30 653 H 56.0538 -3.82366 -2.88675 0
M  V30 654 H 54.4178 -1.97297 -1.61078 0
M  V30 655 H 55.2008 -3.36411 -0.6843 0
M  V30 656 N 57.6459 0.756429 -1.3826 0
M  V30 657 C 59.0569 1.33359 -1.30661 0
M  V30 658 C 59.4079 1.96161 0.0388875 0
M  V30 659 O 58.5329 1.94874 0.940918 0
M  V30 660 C 59.1279 2.42477 -2.36622 0
M  V30 661 C 57.6869 2.95922 -2.3261 0
M  V30 662 C 56.8339 1.69275 -2.19639 0
M  V30 663 H 59.7849 0.55552 -1.4866 0
M  V30 664 H 59.8059 3.22345 -2.02174 0
M  V30 665 H 59.3179 1.96739 -3.34538 0
M  V30 666 H 57.4189 3.45996 -1.38267 0
M  V30 667 H 57.5319 3.50494 -3.26636 0
M  V30 668 H 55.8959 1.92793 -1.66442 0
M  V30 669 H 56.6789 1.25619 -3.19491 0
M  V30 670 N 59.124 1.23083 0.984299 0
M  V30 671 C 60.372 1.05848 1.72165 0
M  V30 672 C 60.693 -0.406049 1.90726 0
M  V30 673 O 59.963 -1.29139 1.47309 0
M  V30 674 H 58.543 0.388685 0.637913 0
M  V30 675 H 61.205 1.54736 1.18503 0
M  V30 676 H 60.301 1.54327 2.71274 0
M  V30 677 N 60.6021 -1.18246 1.0419 0
M  V30 678 C 61.5341 -2.2142 0.592088 0
M  V30 679 C 62.5471 -1.59233 -0.338909 0
M  V30 680 O 63.7361 -1.78002 -0.133231 0
M  V30 681 C 60.8361 -3.38546 -0.154854 0
M  V30 682 C 60.0091 -4.3031 0.784328 0
M  V30 683 C 59.0681 -5.26138 0.0804583 0
M  V30 684 O 58.0941 -5.64738 0.711292 0
M  V30 685 N 59.2961 -5.68261 -1.18574 0
M  V30 686 H 62.0611 -2.60636 1.47949 0
M  V30 687 H 59.6221 -1.33044 0.922544 0
M  V30 688 H 61.6141 -3.99678 -0.635606 0
M  V30 689 H 60.1841 -2.98012 -0.943811 0
M  V30 690 H 59.4041 -3.66764 1.44491 0
M  V30 691 H 60.6921 -4.8852 1.42218 0
M  V30 692 H 60.0901 -5.38957 -1.71876 0
M  V30 693 H 58.6471 -6.31584 -1.61074 0
M  V30 694 N 62.0802 -0.821533 -1.34494 0
M  V30 695 C 63.0302 -0.214793 -2.26986 0
M  V30 696 C 64.0142 0.620125 -1.4847 0
M  V30 697 O 65.2062 0.474933 -1.70509 0
M  V30 698 C 62.3352 0.623566 -3.37589 0
M  V30 699 C 61.4212 -0.221904 -4.23519 0
M  V30 700 N 61.8122 -1.29223 -4.89014 0
M  V30 701 C 60.1102 -0.00600922 -4.46 0
M  V30 702 C 60.8112 -1.80965 -5.52835 0
M  V30 703 N 59.7872 -1.11376 -5.32068 0
M  V30 704 H 63.5892 -1.03354 -2.75128 0
M  V30 705 H 61.1032 -0.6642 -1.48196 0
M  V30 706 H 63.1002 1.0744 -4.02818 0
M  V30 707 H 61.7602 1.44049 -2.90998 0
M  V30 708 H 62.7712 -1.67502 -4.90065 0
M  V30 709 H 59.4482 0.77886 -4.10171 0
M  V30 710 H 60.8382 -2.70502 -6.15043 0
M  V30 711 N 63.5583 1.46682 -0.576371 0
M  V30 712 C 64.8063 2.02013 -0.0594163 0
M  V30 713 C 65.1273 1.45101 1.30271 0
M  V30 714 O 64.3973 0.633317 1.8538 0
M  V30 715 H 62.9773 0.746759 -0.0189745 0
M  V30 716 H 65.6393 1.79862 -0.750717 0
M  V30 717 H 64.7353 3.12097 0.014345 0
M  V30 718 N 65.0364 0.313813 1.54444 0
M  V30 719 C 65.9684 -0.590425 2.21465 0
M  V30 720 C 66.9814 -1.08753 1.21147 0
M  V30 721 O 68.1704 -1.00278 1.4767 0
M  V30 722 C 65.2704 -1.82179 2.85769 0
M  V30 723 C 64.4434 -1.46502 4.12136 0
M  V30 724 C 63.5024 -2.55288 4.60124 0
M  V30 725 O 62.5284 -2.19842 5.25032 0
M  V30 726 N 63.7304 -3.86053 4.33525 0
M  V30 727 H 66.4954 -0.0166033 2.99695 0
M  V30 728 H 64.0564 0.136578 1.61323 0
M  V30 729 H 66.0484 -2.54328 3.14801 0
M  V30 730 H 64.6184 -2.30369 2.11303 0
M  V30 731 H 63.8384 -0.575595 3.89975 0
M  V30 732 H 65.1264 -1.20221 4.94393 0
M  V30 733 H 64.5244 -4.17654 3.81552 0
M  V30 734 H 63.0814 -4.54461 4.67235 0
M  V30 735 N 66.5145 -1.57545 0.0417849 0
M  V30 736 C 67.4615 -2.10977 -0.935805 0
M  V30 737 C 68.4315 -1.01486 -1.31491 0
M  V30 738 O 69.6165 -1.2898 -1.40602 0
M  V30 739 C 66.7565 -2.65169 -2.2086 0
M  V30 740 C 65.8695 -3.88714 -1.88482 0
M  V30 741 C 65.0045 -4.31254 -3.1015 0
M  V30 742 C 64.0435 -5.47524 -2.7365 0
M  V30 743 N 63.1805 -5.85162 -3.87982 0
M  V30 744 H 68.0205 -2.94218 -0.473249 0
M  V30 745 H 65.5575 -1.45415 -0.221981 0
M  V30 746 H 67.5155 -2.94685 -2.95325 0
M  V30 747 H 66.1455 -1.8474 -2.64709 0
M  V30 748 H 65.1975 -3.65849 -1.04205 0
M  V30 749 H 66.5095 -4.73245 -1.57608 0
M  V30 750 H 65.6635 -4.62273 -3.92923 0
M  V30 751 H 64.4025 -3.45516 -3.44195 0
M  V30 752 H 63.4075 -5.16187 -1.89291 0
M  V30 753 H 64.6325 -6.34971 -2.40807 0
M  V30 754 H 62.5785 -5.02377 -4.21846 0
M  V30 755 H 62.4955 -6.64362 -3.60775 0
M  V30 756 H 63.7635 -6.20791 -4.71422 0
M  V30 757 N 67.9926 0.231505 -1.5589 0
M  V30 758 C 69.4086 0.580748 -1.48659 0
M  V30 759 C 69.6086 1.87617 -0.73498 0
M  V30 760 O 68.6646 2.51046 -0.270586 0
M  V30 761 C 69.9776 0.669202 -2.93159 0
M  V30 762 C 71.5256 0.760499 -3.03621 0
M  V30 763 C 72.0006 0.880383 -4.49459 0
M  V30 764 N 73.4916 0.944861 -4.53461 0
M  V30 765 C 74.2266 1.05716 -5.63571 0
M  V30 766 N 73.7226 1.13403 -6.83456 0
M  V30 767 N 75.5156 1.09152 -5.514 0
M  V30 768 H 67.6666 -0.618695 -2.03189 0
M  V30 769 H 69.9296 -0.215728 -0.923128 0
M  V30 770 H 69.6356 -0.212904 -3.51055 0
M  V30 771 H 69.5096 1.5361 -3.44505 0
M  V30 772 H 71.8966 1.63305 -2.45796 0
M  V30 773 H 71.9776 -0.131864 -2.5546 0
M  V30 774 H 71.6216 0.0123284 -5.07899 0
M  V30 775 H 71.5516 1.78802 -4.95316 0
M  V30 776 H 74.0426 0.896176 -3.6712 0
M  V30 777 H 74.3556 1.21921 -7.63122 0
M  V30 778 H 72.7006 1.10333 -6.86186 0
M  V30 779 H 75.8916 1.02805 -4.56671 0
M  V30 780 H 76.0646 1.17558 -6.37247 0
M  V30 781 N 69.4707 1.49531 0.497807 0
M  V30 782 C 70.4337 1.65916 1.58128 0
M  V30 783 C 71.4337 0.530825 1.51786 0
M  V30 784 O 72.6237 0.797342 1.54881 0
M  V30 785 C 69.7557 1.65951 2.9778 0
M  V30 786 H 70.9487 2.62556 1.44929 0
M  V30 787 H 68.5017 1.38611 0.722275 0
M  V30 788 H 69.2367 0.709065 3.16453 0
M  V30 789 H 69.0217 2.47897 3.03792 0
M  V30 790 H 70.5117 1.80673 3.76493 0
M  V30 791 N 70.9488 -0.749086 1.3866 0
M  V30 792 C 72.3648 -1.05276 1.19955 0
M  V30 793 C 72.5648 -2.01435 0.05134 0
M  V30 794 O 71.6208 -2.45232 -0.60147 0
M  V30 795 C 72.9338 -1.62853 2.52783 0
M  V30 796 C 74.4818 -1.75002 2.59506 0
M  V30 797 C 74.9568 -2.35991 3.92521 0
M  V30 798 N 76.4478 -2.43416 3.94085 0
M  V30 799 C 77.1828 -2.91511 4.9377 0
M  V30 800 N 76.6788 -3.39608 6.03853 0
M  V30 801 N 78.4718 -2.90592 4.81157 0
M  V30 802 H 70.6228 -0.111066 2.12109 0
M  V30 803 H 72.8858 -0.111901 0.941373 0
M  V30 804 H 72.5918 -0.99664 3.37283 0
M  V30 805 H 72.4658 -2.61854 2.715 0
M  V30 806 H 74.8528 -2.37317 1.75398 0
M  V30 807 H 74.9338 -0.74693 2.44652 0
M  V30 808 H 74.5778 -1.74308 4.77053 0
M  V30 809 H 74.5078 -3.3695 4.04688 0
M  V30 810 H 76.9988 -2.09405 3.14576 0
M  V30 811 H 77.3118 -3.74775 6.75843 0
M  V30 812 H 75.6568 -3.37653 6.07466 0
M  V30 813 H 78.8478 -2.52332 3.94267 0
M  V30 814 H 79.0208 -3.27762 5.58996 0
M  V30 815 N 72.4269 -1.23603 -0.977757 0
M  V30 816 C 73.8429 -0.999251 -1.24447 0
M  V30 817 C 74.0429 0.298053 -1.99283 0
M  V30 818 O 73.0989 1.01681 -2.31122 0
M  V30 819 C 74.4119 -2.20784 -2.04144 0
M  V30 820 C 75.9599 -2.25303 -2.17273 0
M  V30 821 C 76.4349 -3.45755 -3.00362 0
M  V30 822 N 77.9259 -3.4601 -3.07947 0
M  V30 823 C 78.6609 -4.35868 -3.72568 0
M  V30 824 N 78.1569 -5.35966 -4.38991 0
M  V30 825 N 79.9499 -4.23605 -3.6948 0
M  V30 826 H 72.1009 -2.06986 -0.476483 0
M  V30 827 H 74.3639 -0.907801 -0.273134 0
M  V30 828 H 74.0699 -3.14945 -1.56533 0
M  V30 829 H 73.9439 -2.22085 -3.04891 0
M  V30 830 H 76.3309 -1.3168 -2.64092 0
M  V30 831 H 76.4119 -2.28033 -1.15907 0
M  V30 832 H 76.0559 -4.39687 -2.5424 0
M  V30 833 H 75.9859 -3.40266 -4.01904 0
M  V30 834 H 78.4769 -2.73588 -2.60688 0
M  V30 835 H 78.7899 -6.00783 -4.86086 0
M  V30 836 H 77.1349 -5.39863 -4.37691 0
M  V30 837 H 80.3259 -3.44647 -3.16759 0
M  V30 838 H 80.4989 -4.93836 -4.1956 0
M  V30 839 N 73.905 1.17692 -1.04816 0
M  V30 840 C 75.316 1.69501 -0.782698 0
M  V30 841 C 75.667 1.83456 0.695577 0
M  V30 842 O 74.792 1.51942 1.54086 0
M  V30 843 C 75.387 3.07874 -1.41419 0
M  V30 844 C 73.946 3.56864 -1.19686 0
M  V30 845 C 73.093 2.3322 -1.50012 0
M  V30 846 H 76.044 1.02262 -1.2136 0
M  V30 847 H 76.065 3.71528 -0.821428 0
M  V30 848 H 75.577 2.97685 -2.49009 0
M  V30 849 H 73.678 3.72337 -0.140043 0
M  V30 850 H 73.791 4.39851 -1.89916 0
M  V30 851 H 72.155 2.37501 -0.920071 0
M  V30 852 H 72.938 2.25644 -2.58727 0
M  V30 853 N 75.3831 0.828654 1.34056 0
M  V30 854 C 76.6081 0.431637 2.02859 0
M  V30 855 C 77.0331 -0.956339 1.61975 0
M  V30 856 O 76.3911 -1.62338 0.807228 0
M  V30 857 C 76.4391 0.548323 3.56407 0
M  V30 858 O 75.5431 -0.429556 4.10157 0
M  V30 859 H 74.8841 0.176886 0.640006 0
M  V30 860 H 77.4141 1.12066 1.71179 0
M  V30 861 H 77.4241 0.426196 4.05768 0
M  V30 862 H 76.0991 1.5606 3.8551 0
M  V30 863 H 74.6761 -0.265836 3.71951 0
M  V30 864 N 76.8612 -1.46375 0.584142 0
M  V30 865 C 78.1382 -1.956 0.0033388 0
M  V30 866 C 78.5182 -1.52679 -1.45782 0
M  V30 867 O 77.8662 -0.77816 -2.14842 0
M  V30 868 C 78.0762 -3.48551 0.176891 0
M  V30 869 C 79.4242 -4.24576 0.0454609 0
M  V30 870 O 80.4482 -3.56043 0.105801 0
M  V30 871 O 79.3072 -5.46427 -0.0890376 0
M  V30 872 H 76.4012 -0.825547 -0.0490066 0
M  V30 873 H 78.9472 -1.56652 0.65256 0
M  V30 874 H 77.7192 -3.72683 1.1926 0
M  V30 875 H 77.3422 -3.94332 -0.508695 0
M  V30 876 N 78.3393 -0.321999 -1.54275 0
M  V30 877 C 79.5693 0.282642 -2.04658 0
M  V30 878 C 79.9773 1.46453 -1.19784 0
M  V30 879 O 79.3203 1.82367 -0.220932 0
M  V30 880 C 79.3823 0.781857 -3.50895 0
M  V30 881 C 79.0463 -0.277517 -4.56157 0
M  V30 882 C 80.0433 -1.11307 -5.07845 0
M  V30 883 C 77.7283 -0.425256 -5.00497 0
M  V30 884 C 79.7223 -2.08211 -6.02434 0
M  V30 885 C 77.4093 -1.39771 -5.94901 0
M  V30 886 C 78.4073 -2.2246 -6.45756 0
M  V30 887 O 78.0953 -3.18054 -7.38307 0
M  V30 888 H 77.8273 0.0622636 -0.673126 0
M  V30 889 H 80.3813 -0.465792 -2.00049 0
M  V30 890 H 78.6113 1.58118 -3.52896 0
M  V30 891 H 80.3003 1.30467 -3.84361 0
M  V30 892 H 81.0663 -1.00991 -4.74369 0
M  V30 893 H 76.9453 0.20847 -4.60528 0
M  V30 894 H 80.4893 -2.72791 -6.42052 0
M  V30 895 H 76.3863 -1.50152 -6.27794 0
M  V30 896 H 77.1543 -3.13275 -7.56175 0
M  V30 897 N 79.8174 1.5752 -0.0501392 0
M  V30 898 C 80.7804 2.1037 0.909786 0
M  V30 899 C 81.7804 1.02308 1.24056 0
M  V30 900 O 82.9704 1.28385 1.17741 0
M  V30 901 C 80.1024 2.58708 2.21998 0
M  V30 902 H 81.2954 2.96479 0.451665 0
M  V30 903 H 78.8484 1.55038 0.198248 0
M  V30 904 H 79.5834 1.75989 2.72394 0
M  V30 905 H 79.3684 3.37675 1.99295 0
M  V30 906 H 80.8584 2.99747 2.9076 0
M  V30 907 N 81.2955 -0.223234 1.56011 0
M  V30 908 C 82.5415 -0.949279 1.79211 0
M  V30 909 C 82.8745 -1.84054 0.619494 0
M  V30 910 O 82.1495 -1.90726 -0.381317 0
M  V30 911 C 82.4325 -1.78965 3.12479 0
M  V30 912 C 82.2855 -0.924997 4.40186 0
M  V30 913 C 83.6045 -2.76774 3.42175 0
M  V30 914 H 80.7235 -0.343676 0.651963 0
M  V30 915 H 83.3655 -0.218253 1.88742 0
M  V30 916 H 81.5155 -2.41291 3.04485 0
M  V30 917 H 83.1875 -0.318615 4.60198 0
M  V30 918 H 81.4305 -0.230344 4.33188 0
M  V30 919 H 82.1015 -1.54735 5.29869 0
M  V30 920 H 84.5775 -2.24584 3.50287 0
M  V30 921 H 83.4535 -3.32678 4.36597 0
M  V30 922 H 83.7145 -3.54429 2.64258 0
M  V30 923 N 82.7736 -1.49793 -0.48987 0
M  V30 924 C 84.1896 -1.36803 -0.822022 0
M  V30 925 C 84.3896 -0.409652 -1.97292 0
M  V30 926 O 83.4456 0.154614 -2.52026 0
M  V30 927 C 84.7586 -2.77768 -1.15175 0
M  V30 928 C 86.3066 -2.86549 -1.25931 0
M  V30 929 C 86.7816 -4.28306 -1.62228 0
M  V30 930 N 88.2726 -4.31169 -1.69256 0
M  V30 931 C 89.0076 -5.37832 -1.98807 0
M  V30 932 N 88.5036 -6.54726 -2.26507 0
M  V30 933 N 90.2966 -5.25258 -2.00152 0
M  V30 934 H 82.4476 -2.10691 0.268881 0
M  V30 935 H 84.7106 -0.946241 0.057728 0
M  V30 936 H 84.4166 -3.49648 -0.379335 0
M  V30 937 H 84.2906 -3.13836 -2.09253 0
M  V30 938 H 86.6776 -2.14899 -2.02243 0
M  V30 939 H 86.7586 -2.54049 -0.298776 0
M  V30 940 H 86.4026 -5.00486 -0.864622 0
M  V30 941 H 86.3326 -4.58279 -2.594 0
M  V30 942 H 88.8236 -3.4687 -1.49965 0
M  V30 943 H 89.1366 -7.31833 -2.48276 0
M  V30 944 H 87.4816 -6.57933 -2.23939 0
M  V30 945 H 90.6726 -4.32938 -1.77996 0
M  V30 946 H 90.8456 -6.08476 -2.22848 0
M  V30 947 N 84.2517 0.741722 -1.39055 0
M  V30 948 C 85.1817 1.869 -1.39966 0
M  V30 949 C 86.1627 1.6804 -0.26392 0
M  V30 950 O 87.3477 1.88458 -0.468755 0
M  V30 951 C 84.4777 3.24572 -1.23574 0
M  V30 952 C 83.4317 3.58056 -2.34477 0
M  V30 953 C 82.7577 4.94593 -2.0318 0
M  V30 954 C 84.0577 3.61716 -3.76774 0
M  V30 955 H 85.7517 1.86395 -2.34302 0
M  V30 956 H 83.2977 0.895361 -1.1278 0
M  V30 957 H 85.2507 4.031 -1.22834 0
M  V30 958 H 83.9747 3.25587 -0.257045 0
M  V30 959 H 82.6337 2.81854 -2.34423 0
M  V30 960 H 82.2817 4.92181 -1.03765 0
M  V30 961 H 81.9817 5.17964 -2.77465 0
M  V30 962 H 83.5057 5.75486 -2.04079 0
M  V30 963 H 84.9197 4.30335 -3.78794 0
M  V30 964 H 83.3167 3.96603 -4.50362 0
M  V30 965 H 84.3867 2.61672 -4.08235 0
M  V30 966 N 85.7298 1.2412 0.971189 0
M  V30 967 C 87.1458 1.00584 1.23916 0
M  V30 968 C 87.3458 -0.287481 1.99439 0
M  V30 969 O 86.4018 -1.00454 2.31658 0
M  V30 970 C 87.7148 2.21864 2.0297 0
M  V30 971 C 89.2628 2.26452 2.16076 0
M  V30 972 C 89.7378 3.47343 2.98524 0
M  V30 973 N 91.2288 3.47639 3.06107 0
M  V30 974 C 91.9638 4.37837 3.70251 0
M  V30 975 N 91.4598 5.38286 4.36142 0
M  V30 976 N 93.2528 4.25558 3.67228 0
M  V30 977 H 85.4038 2.07236 0.465499 0
M  V30 978 H 87.6668 0.909236 0.268315 0
M  V30 979 H 87.3728 3.15771 1.54861 0
M  V30 980 H 87.2468 2.23698 3.03709 0
M  V30 981 H 89.6338 1.33078 2.6339 0
M  V30 982 H 89.7148 2.28645 1.14696 0
M  V30 983 H 89.3588 4.41029 2.51905 0
M  V30 984 H 89.2888 3.42393 4.00093 0
M  V30 985 H 91.7798 2.74966 2.59233 0
M  V30 986 H 92.0928 6.03352 4.82894 0
M  V30 987 H 90.4378 5.42176 4.34822 0
M  V30 988 H 93.6288 3.46322 3.14927 0
M  V30 989 H 93.8018 4.96054 4.16935 0
M  V30 990 N 87.2079 -1.17134 1.05439 0
M  V30 991 C 88.1179 -2.24878 0.668365 0
M  V30 992 C 89.1339 -1.71186 -0.311687 0
M  V30 993 O 90.3099 -2.00738 -0.163161 0
M  V30 994 C 87.3749 -3.46662 0.051648 0
M  V30 995 C 86.4359 -4.15429 1.08246 0
M  V30 996 C 85.6689 -5.31399 0.495082 0
M  V30 997 O 85.8919 -5.66153 -0.694743 0
M  V30 998 O 84.8259 -5.89187 1.23056 0
M  V30 999 H 88.6519 -2.60189 1.56637 0
M  V30 1000 H 86.2369 -1.24482 0.826104 0
M  V30 1001 H 88.1189 -4.20394 -0.290966 0
M  V30 1002 H 86.7939 -3.13142 -0.819971 0
M  V30 1003 H 85.7009 -3.43704 1.47711 0
M  V30 1004 H 87.0339 -4.52982 1.92532 0
M  V30 1005 N 88.686 -0.835752 -1.33615 0
M  V30 1006 C 89.633 -0.26473 -2.29277 0
M  V30 1007 C 90.603 0.617712 -1.54187 0
M  V30 1008 O 91.788 0.556641 -1.825 0
M  V30 1009 C 88.928 0.556777 -3.40579 0
M  V30 1010 C 88.041 -0.349339 -4.30585 0
M  V30 1011 C 87.176 0.482969 -5.29 0
M  V30 1012 C 86.215 -0.421732 -6.10645 0
M  V30 1013 N 85.352 0.372262 -7.01112 0
M  V30 1014 H 90.192 -1.08582 -2.77514 0
M  V30 1015 H 87.729 -0.546927 -1.36554 0
M  V30 1016 H 89.687 1.04852 -4.03809 0
M  V30 1017 H 88.317 1.34286 -2.93542 0
M  V30 1018 H 87.369 -0.959372 -3.68104 0
M  V30 1019 H 88.681 -1.04445 -4.87742 0
M  V30 1020 H 87.835 1.03866 -5.97743 0
M  V30 1021 H 86.574 1.21153 -4.72412 0
M  V30 1022 H 85.579 -0.989464 -5.40823 0
M  V30 1023 H 86.804 -1.14861 -6.69316 0
M  V30 1024 H 84.75 1.08426 -6.46977 0
M  V30 1025 H 84.667 -0.264198 -7.55538 0
M  V30 1026 H 85.935 0.910293 -7.74167 0
M  V30 1027 N 90.1641 1.46063 -0.591896 0
M  V30 1028 C 91.0961 2.28539 0.174001 0
M  V30 1029 C 92.1091 1.39047 0.846753 0
M  V30 1030 O 93.2981 1.63564 0.714774 0
M  V30 1031 C 90.3981 3.14347 1.26645 0
M  V30 1032 C 89.5711 4.32021 0.683856 0
M  V30 1033 C 88.6301 4.99157 1.66518 0
M  V30 1034 O 87.6561 5.56458 1.19763 0
M  V30 1035 N 88.8581 4.97005 2.99943 0
M  V30 1036 H 91.6231 2.94911 -0.533633 0
M  V30 1037 H 89.1841 1.56077 -0.430294 0
M  V30 1038 H 91.1761 3.56125 1.92242 0
M  V30 1039 H 89.7461 2.49988 1.87682 0
M  V30 1040 H 88.9661 3.93915 -0.1498 0
M  V30 1041 H 90.2541 5.08059 0.274567 0
M  V30 1042 H 89.6521 4.51714 3.40545 0
M  V30 1043 H 88.2091 5.42696 3.61004 0
M  V30 1044 N 91.6422 0.330177 1.54103 0
M  V30 1045 C 92.5892 -0.532762 2.24567 0
M  V30 1046 C 93.5592 -1.10635 1.23892 0
M  V30 1047 O 94.7442 -1.14546 1.5259 0
M  V30 1048 C 91.8842 -1.6845 3.01195 0
M  V30 1049 C 90.9972 -1.13951 4.167 0
M  V30 1050 C 90.1322 -2.25746 4.80845 0
M  V30 1051 C 89.1712 -1.6853 5.88442 0
M  V30 1052 N 88.3082 -2.74014 6.46421 0
M  V30 1053 H 93.1482 0.0746905 2.97906 0
M  V30 1054 H 90.6852 0.048632 1.4702 0
M  V30 1055 H 92.6432 -2.36234 3.43874 0
M  V30 1056 H 91.2732 -2.26314 2.30178 0
M  V30 1057 H 90.3252 -0.35301 3.78758 0
M  V30 1058 H 91.6372 -0.680892 4.94131 0
M  V30 1059 H 90.7912 -3.01422 5.26526 0
M  V30 1060 H 89.5302 -2.74947 4.0281 0
M  V30 1061 H 88.5352 -0.913543 5.42157 0
M  V30 1062 H 89.7602 -1.20198 6.68378 0
M  V30 1063 H 87.7062 -3.22494 5.71256 0
M  V30 1064 H 87.6232 -2.32735 7.19285 0
M  V30 1065 H 88.8912 -3.49499 6.96757 0
M  V30 1066 N 93.1203 -1.57491 0.0584922 0
M  V30 1067 C 94.0503 -2.14988 -0.911178 0
M  V30 1068 C 95.0313 -1.07343 -1.31952 0
M  V30 1069 O 96.2163 -1.35318 -1.39294 0
M  V30 1070 C 93.3463 -2.70078 -2.18347 0
M  V30 1071 C 92.3003 -3.82771 -1.91495 0
M  V30 1072 C 91.6263 -4.24408 -3.25241 0
M  V30 1073 C 92.9263 -5.07592 -1.23075 0
M  V30 1074 H 94.6203 -2.96263 -0.432246 0
M  V30 1075 H 92.1663 -1.42512 -0.206469 0
M  V30 1076 H 94.1193 -3.08943 -2.86587 0
M  V30 1077 H 92.8433 -1.86005 -2.68458 0
M  V30 1078 H 91.5023 -3.44389 -1.25664 0
M  V30 1079 H 91.1503 -3.37275 -3.73168 0
M  V30 1080 H 90.8503 -5.00366 -3.08071 0
M  V30 1081 H 92.3743 -4.65879 -3.94701 0
M  V30 1082 H 93.7883 -5.43857 -1.81362 0
M  V30 1083 H 92.1853 -5.88741 -1.16207 0
M  V30 1084 H 93.2553 -4.84454 -0.207847 0
M  V30 1085 N 94.5984 0.214957 -1.56127 0
M  V30 1086 C 96.0144 0.564948 -1.49267 0
M  V30 1087 C 96.2144 1.86827 -0.754838 0
M  V30 1088 O 95.2704 2.50745 -0.297198 0
M  V30 1089 C 96.5834 0.638071 -2.93852 0
M  V30 1090 C 98.1314 0.728253 -3.0441 0
M  V30 1091 C 98.6064 0.832663 -4.50367 0
M  V30 1092 N 100.097 0.896712 -4.54437 0
M  V30 1093 C 100.832 0.997324 -5.6466 0
M  V30 1094 N 100.328 1.06147 -6.8462 0
M  V30 1095 N 102.121 1.03297 -5.52527 0
M  V30 1096 H 94.2724 -0.640211 -2.02522 0
M  V30 1097 H 96.5354 -0.225507 -0.920788 0
M  V30 1098 H 96.2414 -0.250126 -3.50809 0
M  V30 1099 H 96.1154 1.49947 -3.46115 0
M  V30 1100 H 98.5024 1.60689 -2.47514 0
M  V30 1101 H 98.5834 -0.158952 -2.55306 0
M  V30 1102 H 98.2274 -0.0415417 -5.07883 0
M  V30 1103 H 98.1574 1.73538 -4.97184 0
M  V30 1104 H 100.648 0.857188 -3.6805 0
M  V30 1105 H 100.961 1.1382 -7.64372 0
M  V30 1106 H 99.3064 1.03049 -6.87318 0
M  V30 1107 H 102.497 0.979558 -4.57736 0
M  V30 1108 H 102.67 1.10793 -6.38458 0
M  V30 1109 N 96.0765 1.50051 0.48192 0
M  V30 1110 C 97.4925 1.37237 0.814756 0
M  V30 1111 C 97.6925 0.420109 1.97072 0
M  V30 1112 O 96.7485 -0.141246 2.52105 0
M  V30 1113 C 98.0615 2.78375 1.13701 0
M  V30 1114 C 99.6095 2.87213 1.2441 0
M  V30 1115 C 100.084 4.29161 1.59954 0
M  V30 1116 N 101.575 4.32061 1.66967 0
M  V30 1117 C 102.31 5.38879 1.95952 0
M  V30 1118 N 101.806 6.55918 2.23031 0
M  V30 1119 N 103.599 5.26312 1.97363 0
M  V30 1120 H 95.7505 2.10546 -0.28005 0
M  V30 1121 H 98.0135 0.945921 -0.0627454 0
M  V30 1122 H 97.7195 3.49845 0.360787 0
M  V30 1123 H 97.5935 3.14941 2.07586 0
M  V30 1124 H 99.9805 2.15969 2.01101 0
M  V30 1125 H 100.061 2.54204 0.285299 0
M  V30 1126 H 99.7055 5.00938 0.838067 0
M  V30 1127 H 99.6355 4.59648 2.56966 0
M  V30 1128 H 102.126 3.47661 1.48123 0
M  V30 1129 H 102.439 7.33139 2.44391 0
M  V30 1130 H 100.784 6.59112 2.20447 0
M  V30 1131 H 103.975 4.33876 1.75697 0
M  V30 1132 H 104.148 6.09649 2.19618 0
M  V30 1133 N 97.5546 -0.734337 1.39446 0
M  V30 1134 C 98.8036 -1.48937 1.36017 0
M  V30 1135 C 99.1166 -1.95557 -0.0409005 0
M  V30 1136 O 100.323 -2.70779 -0.19778 0
M  V30 1137 C 98.7786 -2.69125 2.38955 0
M  V30 1138 C 98.3866 -2.29452 3.8478 0
M  V30 1139 C 100.131 -3.46944 2.44603 0
M  V30 1140 C 98.0376 -3.46366 4.79358 0
M  V30 1141 H 96.9676 -0.559296 0.505672 0
M  V30 1142 H 99.6186 -0.800983 1.65095 0
M  V30 1143 H 98.0006 -3.40041 2.02948 0
M  V30 1144 H 99.1746 -1.66077 4.29831 0
M  V30 1145 H 97.4896 -1.64723 3.82433 0
M  V30 1146 H 100.087 -4.33907 3.12456 0
M  V30 1147 H 100.43 -3.89454 1.47076 0
M  V30 1148 H 100.963 -2.83056 2.79507 0
M  V30 1149 H 97.7016 -3.08905 5.78151 0
M  V30 1150 H 97.2216 -4.08719 4.38986 0
M  V30 1151 H 98.9006 -4.12691 4.98292 0
M  V30 1152 N 99.0327 -1.24633 -0.964593 0
M  V30 1153 C 100.263 -1.11339 -1.74032 0
M  V30 1154 C 100.671 0.336593 -1.86182 0
M  V30 1155 O 100.014 1.24389 -1.35178 0
M  V30 1156 C 100.076 -1.68284 -3.1768 0
M  V30 1157 C 99.7397 -3.17196 -3.28992 0
M  V30 1158 C 100.737 -4.14308 -3.14078 0
M  V30 1159 C 98.4217 -3.57215 -3.53133 0
M  V30 1160 C 100.416 -5.4942 -3.23135 0
M  V30 1161 C 98.1027 -4.92468 -3.61827 0
M  V30 1162 C 99.1007 -5.8838 -3.46841 0
M  V30 1163 O 98.7887 -7.21173 -3.55197 0
M  V30 1164 H 98.5207 -0.389551 -0.552472 0
M  V30 1165 H 101.075 -1.65282 -1.21946 0
M  V30 1166 H 99.3047 -1.08777 -3.71085 0
M  V30 1167 H 100.994 -1.50234 -3.77074 0
M  V30 1168 H 101.76 -3.84731 -2.95308 0
M  V30 1169 H 97.6387 -2.83063 -3.63863 0
M  V30 1170 H 101.183 -6.24263 -3.11355 0
M  V30 1171 H 97.0797 -5.21714 -3.80111 0
M  V30 1172 H 97.8477 -7.29135 -3.71892 0
M  V30 1173 N 100.511 1.16574 -1.06058 0
M  V30 1174 C 101.759 1.86677 -0.77434 0
M  V30 1175 C 102.08 1.81959 0.701147 0
M  V30 1176 O 101.35 1.2515 1.50713 0
M  V30 1177 H 99.9298 0.691134 -0.283449 0
M  V30 1178 H 102.592 1.41378 -1.34158 0
M  V30 1179 H 101.688 2.92181 -1.09711 0
M  V30 1180 N 101.989 0.842826 1.3317 0
M  V30 1181 C 103.238 0.436738 1.96915 0
M  V30 1182 C 103.551 -1.01025 1.67491 0
M  V30 1183 O 104.757 -1.5212 2.24881 0
M  V30 1184 C 103.213 0.730021 3.52418 0
M  V30 1185 C 102.821 2.19195 3.90714 0
M  V30 1186 C 104.565 0.391076 4.22695 0
M  V30 1187 C 102.472 2.42907 5.39212 0
M  V30 1188 H 101.402 0.15958 0.736919 0
M  V30 1189 H 104.053 1.03196 1.51733 0
M  V30 1190 H 102.435 0.0643755 3.95948 0
M  V30 1191 H 103.609 2.8984 3.58231 0
M  V30 1192 H 101.924 2.49425 3.33431 0
M  V30 1193 H 104.521 0.545817 5.31907 0
M  V30 1194 H 104.864 -0.666294 4.10933 0
M  V30 1195 H 105.397 1.01212 3.84709 0
M  V30 1196 H 102.136 3.47224 5.55982 0
M  V30 1197 H 101.656 1.76827 5.73142 0
M  V30 1198 H 103.335 2.2626 6.06148 0
M  V30 1199 N 103.467 -1.45747 0.599634 0
M  V30 1200 C 104.692 -2.07178 0.0960198 0
M  V30 1201 C 105.117 -1.44268 -1.207 0
M  V30 1202 O 104.475 -0.532503 -1.73303 0
M  V30 1203 C 104.523 -3.60579 -0.0385348 0
M  V30 1204 O 103.627 -3.97713 -1.0908 0
M  V30 1205 H 102.968 -0.660251 0.0704593 0
M  V30 1206 H 105.498 -1.87124 0.827385 0
M  V30 1207 H 105.508 -4.07298 -0.239304 0
M  V30 1208 H 104.183 -4.05756 0.912947 0
M  V30 1209 H 102.76 -3.62678 -0.867135 0
M  V30 1210 N 104.945 -0.338344 -1.53925 0
M  V30 1211 C 105.855 0.529421 -2.28548 0
M  V30 1212 C 106.871 1.11645 -1.3346 0
M  V30 1213 O 108.047 1.13325 -1.66492 0
M  V30 1214 C 105.112 1.66713 -3.03987 0
M  V30 1215 C 104.173 1.11041 -4.14691 0
M  V30 1216 C 103.406 2.19389 -4.86522 0
M  V30 1217 O 103.629 3.40013 -4.57982 0
M  V30 1218 O 102.563 1.83976 -5.73094 0
M  V30 1219 H 106.389 -0.0770399 -3.03602 0
M  V30 1220 H 103.974 -0.103555 -1.49041 0
M  V30 1221 H 105.856 2.32918 -3.5118 0
M  V30 1222 H 104.531 2.25949 -2.31794 0
M  V30 1223 H 103.438 0.413024 -3.71813 0
M  V30 1224 H 104.771 0.562975 -4.8897 0
M  V30 1225 N 106.423 1.57458 -0.0668435 0
M  V30 1226 C 107.839 1.56947 0.289772 0
M  V30 1227 C 108.039 1.07584 1.70376 0
M  V30 1228 O 107.095 0.739486 2.41429 0
M  V30 1229 C 108.408 3.0052 0.103943 0
M  V30 1230 C 109.956 3.12517 0.173857 0
M  V30 1231 C 110.431 4.57997 0.0163682 0
M  V30 1232 N 111.922 4.63144 0.0721352 0
M  V30 1233 C 112.657 5.73394 -0.0253794 0
M  V30 1234 N 112.153 6.92576 -0.176133 0
M  V30 1235 N 113.946 5.62091 0.0313305 0
M  V30 1236 H 106.097 1.87863 -0.991027 0
M  V30 1237 H 108.36 0.86583 -0.38606 0
M  V30 1238 H 108.066 3.40729 -0.871572 0
M  V30 1239 H 107.94 3.67304 0.858366 0
M  V30 1240 H 110.327 2.72197 1.13985 0
M  V30 1241 H 110.408 2.48381 -0.611586 0
M  V30 1242 H 110.052 4.99005 -0.946374 0
M  V30 1243 H 109.982 5.20158 0.821153 0
M  V30 1244 H 112.473 3.77436 0.187263 0
M  V30 1245 H 112.786 7.72418 -0.242821 0
M  V30 1246 H 111.131 6.94678 -0.211429 0
M  V30 1247 H 114.322 4.67867 0.147773 0
M  V30 1248 H 114.495 6.47982 -0.048121 0
M  V30 1249 N 107.901 -0.206675 1.56239 0
M  V30 1250 C 108.833 -1.27997 1.9013 0
M  V30 1251 C 109.846 -1.42299 0.790883 0
M  V30 1252 O 111.035 -1.42931 1.06925 0
M  V30 1253 C 108.135 -2.65368 2.10792 0
M  V30 1254 C 107.308 -2.72824 3.41886 0
M  V30 1255 C 106.367 -3.9131 3.51799 0
M  V30 1256 O 105.393 -3.78953 4.24716 0
M  V30 1257 N 106.595 -5.06265 2.84035 0
M  V30 1258 H 109.36 -0.992444 2.82791 0
M  V30 1259 H 106.921 -0.396652 1.56966 0
M  V30 1260 H 108.913 -3.43039 2.14724 0
M  V30 1261 H 107.483 -2.86657 1.24685 0
M  V30 1262 H 106.703 -1.81515 3.49923 0
M  V30 1263 H 107.991 -2.74786 4.28217 0
M  V30 1264 H 107.389 -5.19203 2.246 0
M  V30 1265 H 105.946 -5.81925 2.93609 0
M  V30 1266 N 109.379 -1.50304 -0.473955 0
M  V30 1267 C 110.626 -1.6115 -1.22625 0
M  V30 1268 C 110.954 -0.310517 -1.92005 0
M  V30 1269 O 110.209 0.703419 -1.82621 0
M  V30 1270 C 110.508 -2.73938 -2.29549 0
M  V30 1271 C 110.174 -4.14519 -1.7744 0
M  V30 1272 C 108.836 -4.5277 -1.62949 0
M  V30 1273 C 111.188 -5.02392 -1.3875 0
M  V30 1274 C 108.516 -5.76639 -1.08187 0
M  V30 1275 C 110.868 -6.26805 -0.854309 0
M  V30 1276 C 109.532 -6.63861 -0.696011 0
M  V30 1277 H 108.802 -0.589691 -0.448715 0
M  V30 1278 H 111.449 -1.84228 -0.522705 0
M  V30 1279 H 109.754 -2.44937 -3.05799 0
M  V30 1280 H 111.451 -2.79534 -2.87509 0
M  V30 1281 H 108.041 -3.8434 -1.89685 0
M  V30 1282 H 112.225 -4.73474 -1.4878 0
M  V30 1283 H 107.481 -6.04027 -0.946666 0
M  V30 1284 H 111.655 -6.94258 -0.545843 0
M  V30 1285 H 109.282 -7.59722 -0.26952 0
M  V30 1286 N 110.857 0.726932 -1.39834 0
M  V30 1287 C 112.273 1.03354 -1.21615 0
M  V30 1288 C 112.473 2.01327 -0.08338 0
M  V30 1289 O 111.529 2.46158 0.56238 0
M  V30 1290 C 112.842 1.58811 -2.55342 0
M  V30 1291 C 114.39 1.70851 -2.62257 0
M  V30 1292 C 114.865 2.29716 -3.96225 0
M  V30 1293 N 116.356 2.37116 -3.97907 0
M  V30 1294 C 117.091 2.83619 -4.98345 0
M  V30 1295 N 116.587 3.29958 -6.09179 0
M  V30 1296 N 118.38 2.82901 -4.8572 0
M  V30 1297 H 110.531 0.0773069 -2.12259 0
M  V30 1298 H 112.794 0.0969102 -0.943034 0
M  V30 1299 H 112.5 0.942855 -3.38826 0
M  V30 1300 H 112.374 2.57502 -2.75632 0
M  V30 1301 H 114.761 2.34497 -1.79152 0
M  V30 1302 H 114.842 0.707913 -2.45809 0
M  V30 1303 H 114.486 1.66696 -4.79765 0
M  V30 1304 H 114.416 3.30469 -4.09997 0
M  V30 1305 H 116.907 2.04374 -3.17868 0
M  V30 1306 H 117.22 3.63976 -6.8172 0
M  V30 1307 H 115.565 3.27946 -6.12761 0
M  V30 1308 H 118.756 2.46027 -3.98231 0
M  V30 1309 H 118.929 3.18827 -5.6414 0
M  V30 1310 N 112.336 1.25143 0.95797 0
M  V30 1311 C 113.284 1.05019 2.07542 0
M  V30 1312 C 114.278 -0.0178751 1.69391 0
M  V30 1313 O 115.484 0.137472 1.79474 0
M  V30 1314 H 111.859 0.32265 0.679265 0
M  V30 1315 H 113.83 1.99759 2.21673 0
M  V30 1316 C 112.579 0.682074 3.40944 0
M  V30 1317 H 111.902 1.49573 3.70767 0
M  V30 1318 H 113.342 0.580945 4.20001 0
M  V30 1319 C 111.801 -0.611608 3.31302 0
M  V30 1320 O 112.331 -1.65465 3.66038 0
M  V30 1321 N 110.537 -0.595982 2.84423 0
M  V30 1322 H 110.084 0.253192 2.56353 0
M  V30 1323 H 110.042 -1.46173 2.78354 0
M  V30 1324 N 113.814 -1.1601 1.06675 0
M  V30 1325 C 114.744 -2.22688 0.702307 0
M  V30 1326 C 115.725 -1.67306 -0.307032 0
M  V30 1327 O 116.91 -1.93352 -0.181305 0
M  V30 1328 C 114.04 -3.47178 0.092038 0
M  V30 1329 C 112.994 -4.15477 1.02777 0
M  V30 1330 C 112.32 -5.33963 0.28061 0
M  V30 1331 C 113.62 -4.66019 2.35846 0
M  V30 1332 H 115.314 -2.53429 1.59419 0
M  V30 1333 H 112.86 -1.21813 0.767961 0
M  V30 1334 H 114.813 -4.21037 -0.174814 0
M  V30 1335 H 113.537 -3.15749 -0.834877 0
M  V30 1336 H 112.196 -3.43549 1.27944 0
M  V30 1337 H 111.844 -4.98788 -0.649545 0
M  V30 1338 H 111.544 -5.806 0.904258 0
M  V30 1339 H 113.068 -6.10596 0.021396 0
M  V30 1340 H 114.482 -5.3144 2.15045 0
M  V30 1341 H 112.879 -5.23293 2.93743 0
M  V30 1342 H 113.949 -3.82023 2.98641 0
M  V30 1343 N 115.292 -0.849877 -1.32721 0
M  V30 1344 C 116.539 -0.450923 -1.97416 0
M  V30 1345 C 116.867 0.992376 -1.67279 0
M  V30 1346 O 116.122 1.71048 -0.950845 0
M  V30 1347 C 116.421 -0.631272 -3.51781 0
M  V30 1348 C 116.087 -2.04432 -4.01894 0
M  V30 1349 C 114.749 -2.4308 -4.1529 0
M  V30 1350 C 117.101 -2.96679 -4.28522 0
M  V30 1351 C 114.429 -3.73257 -4.52654 0
M  V30 1352 C 116.781 -4.26349 -4.67343 0
M  V30 1353 C 115.445 -4.64939 -4.78945 0
M  V30 1354 H 114.715 -0.165004 -0.722395 0
M  V30 1355 H 117.362 -1.07901 -1.58207 0
M  V30 1356 H 115.667 0.0800767 -3.91718 0
M  V30 1357 H 117.364 -0.302709 -3.99856 0
M  V30 1358 H 113.954 -1.73419 -3.91949 0
M  V30 1359 H 118.138 -2.68054 -4.17685 0
M  V30 1360 H 113.394 -4.02946 -4.59831 0
M  V30 1361 H 117.568 -4.97895 -4.86902 0
M  V30 1362 H 115.195 -5.65855 -5.07654 0
M  V30 1363 N 116.77 1.45427 -0.607355 0
M  V30 1364 C 117.68 2.34325 0.113463 0
M  V30 1365 C 118.696 1.51226 0.860617 0
M  V30 1366 O 119.872 1.84029 0.818255 0
M  V30 1367 C 116.937 3.28839 1.09844 0
M  V30 1368 C 115.998 4.27844 0.353271 0
M  V30 1369 C 115.231 5.17842 1.29133 0
M  V30 1370 O 115.454 5.11264 2.52913 0
M  V30 1371 O 114.388 5.96713 0.788523 0
M  V30 1372 H 118.214 2.97364 -0.617094 0
M  V30 1373 H 115.799 1.44807 -0.367619 0
M  V30 1374 H 117.681 3.8708 1.66575 0
M  V30 1375 H 116.356 2.68365 1.81003 0
M  V30 1376 H 115.263 3.7322 -0.256494 0
M  V30 1377 H 116.596 4.91173 -0.317822 0
M  V30 1378 N 118.248 0.346503 1.53744 0
M  V30 1379 C 119.158 -0.517293 2.28826 0
M  V30 1380 C 120.174 -1.10935 1.3405 0
M  V30 1381 O 121.35 -1.1244 1.6709 0
M  V30 1382 C 118.415 -1.65098 3.04866 0
M  V30 1383 C 117.476 -1.0884 4.15274 0
M  V30 1384 C 116.709 -2.16806 4.87679 0
M  V30 1385 O 116.932 -3.3758 4.59778 0
M  V30 1386 O 115.866 -1.80934 5.74061 0
M  V30 1387 H 119.692 0.0931396 3.03557 0
M  V30 1388 H 117.277 0.111458 1.48984 0
M  V30 1389 H 119.159 -2.31053 3.5241 0
M  V30 1390 H 117.834 -2.24717 2.32989 0
M  V30 1391 H 116.741 -0.3933 3.72027 0
M  V30 1392 H 118.074 -0.537036 4.89261 0
M  V30 1393 N 119.726 -1.57421 0.075193 0
M  V30 1394 C 120.689 -2.11791 -0.876203 0
M  V30 1395 C 121.689 -1.04268 -1.22412 0
M  V30 1396 O 122.879 -1.30242 -1.15684 0
M  V30 1397 C 120.011 -2.62207 -2.17854 0
M  V30 1398 H 121.204 -2.9716 -0.40444 0
M  V30 1399 H 118.757 -1.55333 -0.173557 0
M  V30 1400 H 119.492 -1.803 -2.6956 0
M  V30 1401 H 119.277 -3.40802 -1.93897 0
M  V30 1402 H 120.767 -3.04335 -2.85955 0
M  V30 1403 N 121.204 0.198386 -1.56346 0
M  V30 1404 C 122.429 0.939682 -1.84891 0
M  V30 1405 C 122.854 1.76202 -0.658369 0
M  V30 1406 O 122.212 1.76993 0.392851 0
M  V30 1407 C 122.26 1.81428 -3.11635 0
M  V30 1408 O 121.364 2.91265 -2.91956 0
M  V30 1409 H 120.705 0.264807 -0.608912 0
M  V30 1410 H 123.235 0.204695 -2.03573 0
M  V30 1411 H 123.245 2.21958 -3.42343 0
M  V30 1412 H 121.92 1.21004 -3.97908 0
M  V30 1413 H 120.497 2.54514 -2.72538 0
M  V30 1414 N 122.682 1.50554 0.465978 0
M  V30 1415 C 123.629 1.6979 1.56333 0
M  V30 1416 C 124.599 0.539239 1.57103 0
M  V30 1417 O 125.784 0.770401 1.74555 0
M  V30 1418 C 122.924 1.80273 2.94271 0
M  V30 1419 C 122.037 3.07674 3.0325 0
M  V30 1420 C 121.172 3.08922 4.32135 0
M  V30 1421 C 120.211 4.30755 4.34875 0
M  V30 1422 N 119.348 4.29714 5.55239 0
M  V30 1423 H 124.188 2.63472 1.39235 0
M  V30 1424 H 121.725 1.30602 0.676873 0
M  V30 1425 H 123.683 1.84332 3.74269 0
M  V30 1426 H 122.313 0.900258 3.09992 0
M  V30 1427 H 121.365 3.13062 2.16094 0
M  V30 1428 H 122.677 3.97642 3.01135 0
M  V30 1429 H 121.831 3.11738 5.20485 0
M  V30 1430 H 120.57 2.16792 4.36866 0
M  V30 1431 H 119.575 4.28146 3.44922 0
M  V30 1432 H 120.8 5.24117 4.31831 0
M  V30 1433 H 118.746 3.4044 5.60746 0
M  V30 1434 H 118.663 5.13456 5.54886 0
M  V30 1435 H 119.931 4.36683 6.457 0
M  V30 1436 N 124.16 -0.719506 1.40217 0
M  V30 1437 C 125.107 -1.83359 1.40172 0
M  V30 1438 C 126.077 -1.64065 0.259206 0
M  V30 1439 O 127.262 -1.85254 0.456677 0
M  V30 1440 C 124.402 -3.2103 1.26624 0
M  V30 1441 C 123.515 -3.51923 2.50548 0
M  V30 1442 C 122.65 -4.79079 2.29471 0
M  V30 1443 C 121.689 -5.02863 3.48992 0
M  V30 1444 N 120.826 -6.2123 3.27135 0
M  V30 1445 H 125.666 -1.82733 2.35399 0
M  V30 1446 H 123.203 -0.892688 1.16917 0
M  V30 1447 H 125.161 -4.00524 1.16776 0
M  V30 1448 H 123.791 -3.20895 0.350176 0
M  V30 1449 H 122.843 -2.67014 2.70939 0
M  V30 1450 H 124.155 -3.6541 3.39525 0
M  V30 1451 H 123.309 -5.66582 2.16955 0
M  V30 1452 H 122.048 -4.67794 1.37913 0
M  V30 1453 H 121.053 -4.13816 3.6199 0
M  V30 1454 H 122.278 -5.16023 4.41472 0
M  V30 1455 H 120.224 -6.11204 2.38256 0
M  V30 1456 H 120.141 -6.35375 4.09675 0
M  V30 1457 H 121.409 -7.11532 3.18344 0
M  V30 1458 N 125.638 -1.25649 -0.95132 0
M  V30 1459 C 126.585 -1.06323 -2.04851 0
M  V30 1460 C 127.555 0.0286491 -1.66075 0
M  V30 1461 O 128.74 -0.12917 -1.90362 0
M  V30 1462 C 125.88 -0.691529 -3.381 0
M  V30 1463 C 124.993 -1.85861 -3.89974 0
M  V30 1464 C 124.128 -1.43096 -5.11563 0
M  V30 1465 C 123.167 -2.56696 -5.55674 0
M  V30 1466 N 122.304 -2.14684 -6.68472 0
M  V30 1467 H 127.144 -2.00222 -2.20715 0
M  V30 1468 H 124.681 -0.997027 -1.08156 0
M  V30 1469 H 126.639 -0.456963 -4.1469 0
M  V30 1470 H 125.269 0.210474 -3.22113 0
M  V30 1471 H 124.321 -2.20639 -3.09875 0
M  V30 1472 H 125.633 -2.71161 -4.18657 0
M  V30 1473 H 124.787 -1.15624 -5.9558 0
M  V30 1474 H 123.526 -0.548722 -4.84603 0
M  V30 1475 H 122.531 -2.84909 -4.7022 0
M  V30 1476 H 123.756 -3.45503 -5.8464 0
M  V30 1477 H 121.702 -1.28881 -6.43215 0
M  V30 1478 H 121.619 -2.9353 -6.96689 0
M  V30 1479 H 122.887 -1.90397 -7.5589 0
M  V30 1480 N 127.117 1.15442 -1.07289 0
M  V30 1481 C 128.365 1.85845 -0.794096 0
M  V30 1482 C 128.686 1.82692 0.681809 0
M  V30 1483 O 127.956 1.26741 1.49377 0
M  V30 1484 H 126.536 0.688089 -0.290763 0
M  V30 1485 H 129.198 1.39947 -1.3565 0
M  V30 1486 H 128.294 2.91001 -1.12804 0
M  V30 1487 N 128.595 0.856903 1.32268 0
M  V30 1488 C 129.841 0.462069 1.97466 0
M  V30 1489 C 130.174 -0.980298 1.67642 0
M  V30 1490 O 129.449 -1.68824 0.965858 0
M  V30 1491 C 129.732 0.704336 3.53145 0
M  V30 1492 C 129.585 2.19529 3.9259 0
M  V30 1493 C 130.904 0.1622 4.39801 0
M  V30 1494 H 128.023 0.169357 0.717278 0
M  V30 1495 H 130.665 1.07574 1.56614 0
M  V30 1496 H 128.815 0.181999 3.88073 0
M  V30 1497 H 130.487 2.78387 3.67829 0
M  V30 1498 H 128.73 2.67292 3.41668 0
M  V30 1499 H 129.401 2.31549 5.01088 0
M  V30 1500 H 131.877 0.608905 4.11621 0
M  V30 1501 H 130.753 0.361265 5.4771 0
M  V30 1502 H 131.014 -0.935158 4.32096 0
M  V30 1503 N 130.073 -1.45103 0.615059 0
M  V30 1504 C 131.301 -2.06553 0.11977 0
M  V30 1505 C 131.716 -1.45842 -1.19898 0
M  V30 1506 O 131.073 -0.575325 -1.73194 0
M  V30 1507 C 131.124 -3.61495 -0.018364 0
M  V30 1508 O 130.845 -4.19942 1.24822 0
M  V30 1509 C 132.346 -4.39947 -0.544237 0
M  V30 1510 H 129.566 -0.667096 0.0722739 0
M  V30 1511 H 132.11 -1.8623 0.84491 0
M  V30 1512 H 130.265 -3.81135 -0.693865 0
M  V30 1513 H 130.679 -5.13204 1.0827 0
M  V30 1514 H 132.153 -5.48838 -0.589953 0
M  V30 1515 H 132.63 -4.10255 -1.56805 0
M  V30 1516 H 133.236 -4.25188 0.0974703 0
M  V30 1517 N 131.551 -0.354651 -1.53558 0
M  V30 1518 C 132.799 0.237972 -2.00694 0
M  V30 1519 C 133.12 1.50173 -1.24391 0
M  V30 1520 O 132.39 1.92673 -0.354135 0
M  V30 1521 H 130.97 0.0909256 -0.741446 0
M  V30 1522 H 133.632 -0.478368 -1.88938 0
M  V30 1523 H 132.728 0.47264 -3.085 0
M  V30 1524 N 133.029 1.57378 -0.0835403 0
M  V30 1525 C 134.254 1.98682 0.594987 0
M  V30 1526 C 134.679 0.961969 1.61641 0
M  V30 1527 O 134.037 -0.0709989 1.81161 0
M  V30 1528 C 134.085 3.38988 1.2296 0
M  V30 1529 O 133.189 3.39208 2.34546 0
M  V30 1530 H 132.53 0.646368 0.152002 0
M  V30 1531 H 135.06 2.03961 -0.161533 0
M  V30 1532 H 135.07 3.76431 1.57366 0
M  V30 1533 H 133.745 4.13107 0.481228 0
M  V30 1534 H 132.322 3.13548 2.01846 0
M  V30 1535 N 134.507 -0.190092 1.56449 0
M  V30 1536 C 135.753 -0.911052 1.81184 0
M  V30 1537 C 136.086 -1.82699 0.658396 0
M  V30 1538 O 135.361 -1.91491 -0.340775 0
M  V30 1539 C 135.644 -1.72297 3.16205 0
M  V30 1540 C 135.497 -0.831419 4.42049 0
M  V30 1541 C 136.816 -2.69454 3.47969 0
M  V30 1542 H 133.935 -0.32977 0.659106 0
M  V30 1543 H 136.577 -0.178169 1.89163 0
M  V30 1544 H 134.727 -2.34778 3.09534 0
M  V30 1545 H 136.399 -0.220929 4.60771 0
M  V30 1546 H 134.642 -0.138406 4.33579 0
M  V30 1547 H 135.313 -1.43461 5.33032 0
M  V30 1548 H 137.789 -2.17104 3.54972 0
M  V30 1549 H 136.665 -3.23342 4.43555 0
M  V30 1550 H 136.926 -3.48744 2.71717 0
M  V30 1551 N 135.985 -1.50799 -0.457987 0
M  V30 1552 C 137.232 -1.62442 -1.20908 0
M  V30 1553 C 137.56 -0.330865 -1.91665 0
M  V30 1554 O 136.815 0.68401 -1.83357 0
M  V30 1555 C 137.114 -2.76358 -2.2663 0
M  V30 1556 C 136.78 -4.16378 -1.73033 0
M  V30 1557 C 135.442 -4.54473 -1.58138 0
M  V30 1558 C 137.794 -5.03836 -1.33413 0
M  V30 1559 C 135.122 -5.77754 -1.02065 0
M  V30 1560 C 137.474 -6.27676 -0.78778 0
M  V30 1561 C 136.138 -6.64562 -0.625561 0
M  V30 1562 H 135.408 -0.594417 -0.442435 0
M  V30 1563 H 138.055 -1.84772 -0.503136 0
M  V30 1564 H 136.36 -2.48167 -3.03184 0
M  V30 1565 H 138.057 -2.82568 -2.84528 0
M  V30 1566 H 134.647 -3.86331 -1.85598 0
M  V30 1567 H 138.831 -4.75026 -1.4375 0
M  V30 1568 H 134.087 -6.04997 -0.882547 0
M  V30 1569 H 138.261 -6.94797 -0.472177 0
M  V30 1570 H 135.888 -7.59965 -0.188926 0
M  V30 1571 N 137.463 0.71206 -1.40597 0
M  V30 1572 C 138.393 1.83889 -1.43899 0
M  V30 1573 C 139.374 1.67442 -0.299504 0
M  V30 1574 O 140.559 1.87421 -0.508624 0
M  V30 1575 C 137.689 3.21877 -1.30431 0
M  V30 1576 C 136.643 3.53002 -2.42019 0
M  V30 1577 C 135.969 4.90172 -2.13626 0
M  V30 1578 C 137.269 3.53643 -3.84362 0
M  V30 1579 H 138.963 1.81383 -2.38203 0
M  V30 1580 H 136.509 0.871237 -1.14654 0
M  V30 1581 H 138.462 4.00404 -1.31357 0
M  V30 1582 H 137.186 3.24968 -0.326049 0
M  V30 1583 H 135.845 2.76818 -2.40349 0
M  V30 1584 H 135.493 4.89869 -1.14182 0
M  V30 1585 H 135.193 5.11962 -2.88389 0
M  V30 1586 H 136.717 5.71028 -2.1624 0
M  V30 1587 H 138.131 4.22203 -3.87837 0
M  V30 1588 H 136.528 3.86961 -4.58673 0
M  V30 1589 H 137.598 2.52954 -4.13693 0
M  V30 1590 N 138.941 1.26152 0.944643 0
M  V30 1591 C 140.189 1.11271 1.6871 0
M  V30 1592 C 140.51 -0.345166 1.91921 0
M  V30 1593 O 139.78 -1.24387 1.51343 0
M  V30 1594 H 138.36 0.408783 0.625224 0
M  V30 1595 H 141.022 1.58427 1.1352 0
M  V30 1596 H 140.118 1.62879 2.66227 0
M  V30 1597 N 140.419 -1.14872 1.07899 0
M  V30 1598 C 141.349 -2.2193 0.725887 0
M  V30 1599 C 142.33 -1.67622 -0.28927 0
M  V30 1600 O 143.515 -1.93533 -0.160787 0
M  V30 1601 C 140.645 -3.47061 0.128856 0
M  V30 1602 C 139.599 -4.14363 1.07178 0
M  V30 1603 C 138.925 -5.33636 0.337229 0
M  V30 1604 C 140.225 -4.63492 2.40775 0
M  V30 1605 H 141.919 -2.51724 1.62097 0
M  V30 1606 H 139.465 -1.20991 0.780838 0
M  V30 1607 H 141.418 -4.21199 -0.130147 0
M  V30 1608 H 140.142 -3.16617 -0.80134 0
M  V30 1609 H 138.801 -3.42173 1.3158 0
M  V30 1610 H 138.449 -4.99449 -0.596606 0
M  V30 1611 H 138.149 -5.79609 0.965788 0
M  V30 1612 H 139.673 -6.10539 0.0861567 0
M  V30 1613 H 141.087 -5.2913 2.20669 0
M  V30 1614 H 139.484 -5.20148 2.99276 0
M  V30 1615 H 140.554 -3.78834 3.02676 0
M  V30 1616 N 141.898 -0.863906 -1.31812 0
M  V30 1617 C 142.828 -0.330843 -2.31144 0
M  V30 1618 C 143.809 0.575005 -1.60087 0
M  V30 1619 O 144.994 0.493304 -1.8783 0
M  V30 1620 C 142.124 0.47374 -3.44054 0
M  V30 1621 C 141.078 -0.338481 -4.26659 0
M  V30 1622 C 140.404 0.591412 -5.31419 0
M  V30 1623 C 141.704 -1.56926 -4.98168 0
M  V30 1624 H 143.398 -1.16086 -2.75979 0
M  V30 1625 H 140.944 -0.559657 -1.32679 0
M  V30 1626 H 142.897 0.857143 -4.12591 0
M  V30 1627 H 141.621 1.33721 -2.9797 0
M  V30 1628 H 140.28 -0.703754 -3.59782 0
M  V30 1629 H 139.928 1.45199 -4.81587 0
M  V30 1630 H 139.628 0.0519022 -5.87577 0
M  V30 1631 H 141.152 0.97179 -6.02817 0
M  V30 1632 H 142.566 -1.25764 -5.59336 0
M  V30 1633 H 140.963 -2.04739 -5.64094 0
M  V30 1634 H 142.033 -2.32544 -4.25501 0
M  V30 1635 N 143.376 1.44774 -0.622745 0
M  V30 1636 C 144.286 2.34433 0.0886031 0
M  V30 1637 C 145.302 1.52131 0.844529 0
M  V30 1638 O 146.478 1.84886 0.798691 0
M  V30 1639 C 143.543 3.29986 1.0635 0
M  V30 1640 C 142.604 4.28195 0.307873 0
M  V30 1641 C 141.837 5.19183 1.23633 0
M  V30 1642 O 142.06 5.13918 2.47476 0
M  V30 1643 O 140.994 5.97515 0.725189 0
M  V30 1644 H 144.82 2.96693 -0.648599 0
M  V30 1645 H 142.405 1.44408 -0.382957 0
M  V30 1646 H 144.287 3.88825 1.6246 0
M  V30 1647 H 142.962 2.70269 1.78146 0
M  V30 1648 H 141.869 3.72927 -0.296064 0
M  V30 1649 H 143.202 4.90808 -0.3699 0
M  V30 1650 N 144.854 0.36279 1.53368 0
M  V30 1651 C 146.079 -0.231226 2.06107 0
M  V30 1652 C 146.504 -1.419 1.23474 0
M  V30 1653 O 145.862 -1.79524 0.253128 0
M  V30 1654 C 145.91 -0.605523 3.5548 0
M  V30 1655 O 145.014 -1.70312 3.7559 0
M  V30 1656 H 144.355 -0.034327 0.663112 0
M  V30 1657 H 146.885 0.522584 1.97814 0
M  V30 1658 H 146.895 -0.877314 3.98456 0
M  V30 1659 H 145.57 0.263004 4.15068 0
M  V30 1660 H 144.147 -1.4271 3.44512 0
M  V30 1661 N 146.332 -1.57332 0.0918853 0
M  V30 1662 C 147.748 -1.57389 -0.264766 0
M  V30 1663 C 147.948 -1.10281 -1.68643 0
M  V30 1664 O 147.004 -0.777801 -2.40222 0
M  V30 1665 C 148.317 -3.00648 -0.0561195 0
M  V30 1666 C 149.865 -3.12754 -0.124116 0
M  V30 1667 C 150.34 -4.57965 0.0564972 0
M  V30 1668 N 151.831 -4.632 0.00155611 0
M  V30 1669 C 152.566 -5.73281 0.116598 0
M  V30 1670 N 152.062 -6.92208 0.286294 0
M  V30 1671 N 153.855 -5.6207 0.0580973 0
M  V30 1672 H 146.006 -1.86262 1.02079 0
M  V30 1673 H 148.269 -0.859579 0.399786 0
M  V30 1674 H 147.975 -3.393 0.925669 0
M  V30 1675 H 147.849 -3.68623 -0.799823 0
M  V30 1676 H 150.236 -2.73976 -1.09641 0
M  V30 1677 H 150.317 -2.47377 0.651024 0
M  V30 1678 H 149.961 -4.97436 1.02564 0
M  V30 1679 H 149.891 -5.21399 -0.738297 0
M  V30 1680 H 152.382 -3.77686 -0.127192 0
M  V30 1681 H 152.695 -7.71934 0.365676 0
M  V30 1682 H 151.04 -6.94254 0.32192 0
M  V30 1683 H 154.231 -4.68043 -0.0733204 0
M  V30 1684 H 154.404 -6.47824 0.151203 0
M  V30 1685 N 147.81 0.181792 -1.56548 0
M  V30 1686 C 148.74 1.22765 -1.98623 0
M  V30 1687 C 149.721 1.46747 -0.860189 0
M  V30 1688 O 150.906 1.58259 -1.12551 0
M  V30 1689 C 148.036 2.56894 -2.33715 0
M  V30 1690 C 146.99 2.475 -3.49182 0
M  V30 1691 C 146.316 3.86023 -3.69986 0
M  V30 1692 C 147.616 1.98866 -4.82959 0
M  V30 1693 H 149.31 0.877942 -2.86239 0
M  V30 1694 H 146.856 0.42088 -1.37712 0
M  V30 1695 H 148.809 3.30253 -2.61746 0
M  V30 1696 H 147.533 2.93632 -1.42997 0
M  V30 1697 H 146.192 1.76596 -3.21262 0
M  V30 1698 H 145.84 4.20136 -2.76576 0
M  V30 1699 H 145.54 3.80609 -4.47672 0
M  V30 1700 H 147.064 4.60984 -4.00407 0
M  V30 1701 H 148.478 2.61992 -5.09934 0
M  V30 1702 H 146.875 2.04424 -5.64208 0
M  V30 1703 H 147.945 0.942465 -4.75653 0
M  V30 1704 N 149.288 1.51039 0.449983 0
M  V30 1705 C 150.565 1.53612 1.21089 0
M  V30 1706 C 150.945 0.292997 2.09057 0
M  V30 1707 O 150.293 -0.72259 2.16774 0
M  V30 1708 C 150.503 2.84337 2.0237 0
M  V30 1709 C 151.851 3.35807 2.59843 0
M  V30 1710 O 152.875 2.85802 2.12593 0
M  V30 1711 O 151.734 4.23029 3.45989 0
M  V30 1712 H 148.828 0.617057 0.550608 0
M  V30 1713 H 151.374 1.63344 0.460082 0
M  V30 1714 H 150.146 3.66278 1.37681 0
M  V30 1715 H 149.769 2.77708 2.84542 0
M  V30 1716 N 150.766 -0.704594 1.40972 0
M  V30 1717 C 151.714 -1.83994 1.42299 0
M  V30 1718 C 152.708 -1.66684 0.302111 0
M  V30 1719 O 153.914 -1.73655 0.473697 0
M  V30 1720 H 150.289 -0.606171 0.44504 0
M  V30 1721 H 152.26 -1.79992 2.38003 0
M  V30 1722 C 151.009 -3.21946 1.31323 0
M  V30 1723 H 150.332 -3.35878 2.16855 0
M  V30 1724 H 151.772 -4.01491 1.36311 0
M  V30 1725 C 150.231 -3.36891 0.0245977 0
M  V30 1726 O 150.761 -3.90687 -0.934153 0
M  V30 1727 N 148.967 -2.90559 -0.0485243 0
M  V30 1728 H 148.514 -2.46968 0.732419 0
M  V30 1729 H 148.472 -3.00937 -0.910171 0
M  V30 1730 N 152.244 -1.26651 -0.937939 0
M  V30 1731 C 153.49 -1.12553 -1.687 0
M  V30 1732 C 153.823 0.329782 -1.91379 0
M  V30 1733 O 153.098 1.24202 -1.4968 0
M  V30 1734 C 153.381 -1.89862 -3.05981 0
M  V30 1735 C 153.234 -3.43318 -2.90607 0
M  V30 1736 C 154.553 -1.69499 -4.0615 0
M  V30 1737 H 151.672 -0.410257 -0.612257 0
M  V30 1738 H 154.314 -1.55685 -1.08913 0
M  V30 1739 H 152.464 -1.53204 -3.57017 0
M  V30 1740 H 154.136 -3.89747 -2.46769 0
M  V30 1741 H 152.379 -3.70179 -2.26164 0
M  V30 1742 H 153.05 -3.92642 -3.8799 0
M  V30 1743 H 155.526 -2.01442 -3.64088 0
M  V30 1744 H 154.402 -2.26002 -5.00214 0
M  V30 1745 H 154.663 -0.640365 -4.37438 0
M  V30 1746 N 153.722 1.14298 -1.08507 0
M  V30 1747 C 154.968 1.85633 -0.816581 0
M  V30 1748 C 155.301 1.82784 0.656021 0
M  V30 1749 O 154.576 1.25926 1.48233 0
M  V30 1750 C 154.859 3.34223 -1.34041 0
M  V30 1751 C 154.712 3.45639 -2.87843 0
M  V30 1752 C 156.031 4.29356 -0.9665 0
M  V30 1753 H 153.15 0.67402 -0.298104 0
M  V30 1754 H 155.792 1.34214 -1.34487 0
M  V30 1755 H 153.942 3.78144 -0.89104 0
M  V30 1756 H 155.614 3.10498 -3.41158 0
M  V30 1757 H 153.857 2.86817 -3.25451 0
M  V30 1758 H 154.528 4.50089 -3.19569 0
M  V30 1759 H 157.004 3.93457 -1.35391 0
M  V30 1760 H 155.88 5.3178 -1.3602 0
M  V30 1761 H 156.141 4.41919 0.126362 0
M  V30 1762 N 155.201 0.870884 1.31352 0
M  V30 1763 C 156.431 0.496049 2.00557 0
M  V30 1764 C 156.839 -0.916241 1.65534 0
M  V30 1765 O 156.182 -1.61188 0.881134 0
M  V30 1766 C 156.244 0.574418 3.54881 0
M  V30 1767 C 155.908 1.94849 4.1338 0
M  V30 1768 C 156.905 2.91611 4.30417 0
M  V30 1769 C 154.59 2.25005 4.49086 0
M  V30 1770 C 156.584 4.16672 4.82352 0
M  V30 1771 C 154.271 3.50315 5.00722 0
M  V30 1772 C 155.269 4.45964 5.17306 0
M  V30 1773 O 154.957 5.69052 5.67833 0
M  V30 1774 H 154.689 0.191664 0.64826 0
M  V30 1775 H 157.243 1.17409 1.68536 0
M  V30 1776 H 155.473 -0.160549 3.86367 0
M  V30 1777 H 157.162 0.212879 4.05341 0
M  V30 1778 H 157.928 2.69622 4.03149 0
M  V30 1779 H 153.807 1.51332 4.35453 0
M  V30 1780 H 157.351 4.91336 4.95211 0
M  V30 1781 H 153.248 3.72147 5.27424 0
M  V30 1782 H 154.016 5.71236 5.86201 0
M  V30 1783 N 156.679 -1.44442 0.630414 0
M  V30 1784 C 158.095 -1.56832 0.295973 0
M  V30 1785 C 158.295 -1.61806 -1.20088 0
M  V30 1786 O 157.351 -1.5607 -1.9849 0
M  V30 1787 C 158.664 -2.84031 0.987264 0
M  V30 1788 C 160.212 -2.97742 0.96534 0
M  V30 1789 C 160.687 -4.27743 1.63708 0
M  V30 1790 N 162.178 -4.34555 1.60364 0
M  V30 1791 C 162.913 -5.33862 2.09234 0
M  V30 1792 N 162.409 -6.39578 2.66292 0
M  V30 1793 N 164.202 -5.25366 1.99867 0
M  V30 1794 H 156.353 -1.39457 1.60205 0
M  V30 1795 H 158.616 -0.668237 0.672431 0
M  V30 1796 H 158.322 -2.86338 2.04215 0
M  V30 1797 H 158.196 -3.73534 0.524588 0
M  V30 1798 H 160.583 -2.94989 -0.0810639 0
M  V30 1799 H 160.664 -2.09589 1.4665 0
M  V30 1800 H 160.308 -4.31255 2.68293 0
M  V30 1801 H 160.238 -5.14752 1.11076 0
M  V30 1802 H 162.729 -3.58772 1.18705 0
M  V30 1803 H 163.042 -7.11637 3.01317 0
M  V30 1804 H 161.387 -6.40265 2.70343 0
M  V30 1805 H 164.578 -4.41688 1.55013 0
M  V30 1806 H 164.751 -6.02606 2.38265 0
M  V30 1807 N 158.157 -0.370918 -1.53173 0
M  V30 1808 C 159.087 0.464847 -2.28826 0
M  V30 1809 C 160.068 1.07936 -1.31468 0
M  V30 1810 O 161.253 1.0956 -1.60344 0
M  V30 1811 C 158.383 1.60196 -3.08147 0
M  V30 1812 C 157.337 1.11443 -4.13237 0
M  V30 1813 C 156.663 2.3422 -4.80672 0
M  V30 1814 C 157.963 0.195384 -5.21934 0
M  V30 1815 H 159.657 -0.166329 -2.98938 0
M  V30 1816 H 157.203 -0.0814359 -1.4377 0
M  V30 1817 H 159.156 2.19332 -3.59822 0
M  V30 1818 H 157.88 2.26045 -2.35735 0
M  V30 1819 H 156.539 0.545727 -3.62515 0
M  V30 1820 H 156.187 2.98537 -4.04827 0
M  V30 1821 H 155.887 2.02269 -5.51689 0
M  V30 1822 H 157.411 2.94032 -5.35143 0
M  V30 1823 H 158.825 0.694375 -5.69079 0
M  V30 1824 H 157.222 -0.0335027 -6.00091 0
M  V30 1825 H 158.292 -0.760961 -4.78892 0
M  V30 1826 N 159.635 1.57281 -0.100228 0
M  V30 1827 C 160.883 1.94153 0.561157 0
M  V30 1828 C 161.204 0.983157 1.68401 0
M  V30 1829 O 160.474 0.0361132 1.95867 0
M  V30 1830 H 159.054 0.716791 0.210283 0
M  V30 1831 H 161.716 1.94202 -0.164765 0
M  V30 1832 H 160.812 2.96709 0.968008 0
M  V30 1833 N 161.113 -0.173488 1.56642 0
M  V30 1834 C 162.36 -0.890465 1.81871 0
M  V30 1835 C 162.688 -1.82339 0.67696 0
M  V30 1836 O 161.943 -1.92795 -0.335926 0
M  V30 1837 C 162.242 -1.72069 3.13252 0
M  V30 1838 C 161.908 -0.936878 4.41059 0
M  V30 1839 C 160.57 -0.720545 4.75775 0
M  V30 1840 C 162.922 -0.386919 5.19762 0
M  V30 1841 C 160.25 0.0568829 5.86672 0
M  V30 1842 C 162.602 0.37741 6.31473 0
M  V30 1843 C 161.266 0.604563 6.64757 0
M  V30 1844 H 160.536 -0.325844 0.665512 0
M  V30 1845 H 163.183 -0.155527 1.90867 0
M  V30 1846 H 161.488 -2.52496 2.99588 0
M  V30 1847 H 163.185 -2.27844 3.29982 0
M  V30 1848 H 159.775 -1.11553 4.13828 0
M  V30 1849 H 163.959 -0.541398 4.93338 0
M  V30 1850 H 159.215 0.242635 6.10918 0
M  V30 1851 H 163.389 0.810825 6.91664 0
M  V30 1852 H 161.016 1.20885 7.50527 0
M  V30 1853 N 162.591 -1.51276 -0.441967 0
M  V30 1854 C 163.554 -1.7167 -1.51862 0
M  V30 1855 C 164.554 -0.586793 -1.49711 0
M  V30 1856 O 165.744 -0.854276 -1.51815 0
M  V30 1857 C 162.876 -1.76889 -2.91416 0
M  V30 1858 H 164.069 -2.67754 -1.35084 0
M  V30 1859 H 161.622 -1.41196 -0.670333 0
M  V30 1860 H 162.357 -0.826026 -3.13604 0
M  V30 1861 H 162.142 -2.59001 -2.94382 0
M  V30 1862 H 163.632 -1.94522 -3.69528 0
M  V30 1863 N 164.069 0.697108 -1.41344 0
M  V30 1864 C 165.315 1.4593 -1.40827 0
M  V30 1865 C 165.648 1.94193 -0.0167098 0
M  V30 1866 O 164.923 1.69425 0.955263 0
M  V30 1867 C 165.206 2.67229 -2.41373 0
M  V30 1868 C 165.059 2.24741 -3.8963 0
M  V30 1869 C 166.378 3.69423 -2.39196 0
M  V30 1870 H 163.497 0.529303 -0.512842 0
M  V30 1871 H 166.139 0.794112 -1.72609 0
M  V30 1872 H 164.289 3.23982 -2.14401 0
M  V30 1873 H 165.961 1.73327 -4.27499 0
M  V30 1874 H 164.204 1.56542 -4.0457 0
M  V30 1875 H 164.875 3.1177 -4.55525 0
M  V30 1876 H 167.351 3.2234 -2.63128 0
M  V30 1877 H 166.227 4.51907 -3.11563 0
M  V30 1878 H 166.488 4.19012 -1.41001 0
M  V30 1879 N 165.547 1.27147 0.931209 0
M  V30 1880 C 166.772 1.16191 1.71797 0
M  V30 1881 C 167.197 -0.278004 1.86034 0
M  V30 1882 O 166.555 -1.20137 1.35782 0
M  V30 1883 C 166.603 1.84673 3.09723 0
M  V30 1884 O 165.707 1.14231 3.96264 0
M  V30 1885 H 165.048 0.404303 0.526721 0
M  V30 1886 H 167.578 1.68152 1.1656 0
M  V30 1887 H 167.588 1.91893 3.60057 0
M  V30 1888 H 166.263 2.89421 2.98677 0
M  V30 1889 H 164.84 1.15056 3.54706 0
M  V30 1890 N 167.025 -1.13721 1.09112 0
M  V30 1891 C 168.441 -1.36914 0.820174 0
M  V30 1892 C 168.641 -1.93356 -0.567079 0
M  V30 1893 O 167.697 -2.15093 -1.32255 0
M  V30 1894 C 169.01 -2.3235 1.90877 0
M  V30 1895 C 170.558 -2.45973 1.93562 0
M  V30 1896 C 171.033 -3.44714 3.01556 0
M  V30 1897 N 172.524 -3.52263 3.00775 0
M  V30 1898 C 173.259 -4.28536 3.80978 0
M  V30 1899 N 172.755 -5.07991 4.71081 0
M  V30 1900 N 174.548 -4.23804 3.69251 0
M  V30 1901 H 166.699 -0.754348 1.98553 0
M  V30 1902 H 168.962 -0.3944 0.862063 0
M  V30 1903 H 168.668 -1.98027 2.90651 0
M  V30 1904 H 168.542 -3.32332 1.78424 0
M  V30 1905 H 170.929 -2.79584 0.944286 0
M  V30 1906 H 171.01 -1.45926 2.10093 0
M  V30 1907 H 170.654 -3.11835 4.00901 0
M  V30 1908 H 170.584 -4.44558 2.82269 0
M  V30 1909 H 173.075 -2.95567 2.35475 0
M  V30 1910 H 173.388 -5.63487 5.28869 0
M  V30 1911 H 171.733 -5.07235 4.75119 0
M  V30 1912 H 174.924 -3.60806 2.98222 0
M  V30 1913 H 175.097 -4.82995 4.31995 0
M  V30 1914 N 168.503 -0.877838 -1.30888 0
M  V30 1915 C 169.919 -0.570844 -1.49042 0
M  V30 1916 C 170.119 0.893159 -1.80624 0
M  V30 1917 O 169.175 1.67485 -1.88958 0
M  V30 1918 C 170.488 -1.47784 -2.61878 0
M  V30 1919 C 172.036 -1.48071 -2.75761 0
M  V30 1920 C 172.511 -2.37347 -3.91702 0
M  V30 1921 N 174.002 -2.35271 -3.99001 0
M  V30 1922 C 174.737 -3.01063 -4.88004 0
M  V30 1923 N 174.233 -3.76055 -5.81854 0
M  V30 1924 N 176.026 -2.90332 -4.81315 0
M  V30 1925 H 168.177 -1.82502 -1.0866 0
M  V30 1926 H 170.44 -0.780797 -0.537644 0
M  V30 1927 H 170.146 -2.51993 -2.45341 0
M  V30 1928 H 170.02 -1.18215 -3.58197 0
M  V30 1929 H 172.407 -0.446166 -2.91708 0
M  V30 1930 H 172.488 -1.81668 -1.80085 0
M  V30 1931 H 172.132 -3.40883 -3.76512 0
M  V30 1932 H 172.062 -2.01071 -4.86701 0
M  V30 1933 H 174.553 -1.80768 -3.3186 0
M  V30 1934 H 174.866 -4.23366 -6.46514 0
M  V30 1935 H 173.211 -3.80163 -5.81808 0
M  V30 1936 H 176.402 -2.31278 -4.06974 0
M  V30 1937 H 176.575 -3.41885 -5.50471 0
M  V30 1938 N 169.982 1.44106 -0.638065 0
M  V30 1939 C 170.914 2.28976 0.101205 0
M  V30 1940 C 171.927 1.4167 0.802088 0
M  V30 1941 O 173.116 1.65755 0.662375 0
M  V30 1942 C 170.216 3.18217 1.16581 0
M  V30 1943 C 169.389 4.33978 0.546066 0
M  V30 1944 C 168.448 5.04202 1.50554 0
M  V30 1945 O 167.474 5.59986 1.01999 0
M  V30 1946 N 168.676 5.06296 2.8398 0
M  V30 1947 H 171.441 2.93064 -0.627186 0
M  V30 1948 H 169.002 1.54629 -0.479731 0
M  V30 1949 H 170.994 3.62061 1.80815 0
M  V30 1950 H 169.564 2.55833 1.79634 0
M  V30 1951 H 168.784 3.93239 -0.275046 0
M  V30 1952 H 170.072 5.08675 0.112793 0
M  V30 1953 H 169.47 4.62319 3.26002 0
M  V30 1954 H 168.027 5.53907 3.43556 0
M  V30 1955 N 171.46 0.379036 1.52974 0
M  V30 1956 C 172.423 -0.448865 2.24762 0
M  V30 1957 C 173.423 -0.998689 1.26027 0
M  V30 1958 O 174.613 -0.882313 1.50203 0
M  V30 1959 C 171.745 -1.62872 2.99476 0
M  V30 1960 H 172.938 0.179491 2.99362 0
M  V30 1961 H 170.491 0.13096 1.5575 0
M  V30 1962 H 171.226 -2.29479 2.29151 0
M  V30 1963 H 171.011 -1.24128 3.71934 0
M  V30 1964 H 172.501 -2.2151 3.5401 0
M  V30 1965 N 172.938 -1.57226 0.108567 0
M  V30 1966 C 174.354 -1.5766 -0.248058 0
M  V30 1967 C 174.554 -1.12063 -1.67464 0
M  V30 1968 O 173.61 -0.803236 -2.39383 0
M  V30 1969 C 174.923 -3.0069 -0.0242287 0
M  V30 1970 C 176.471 -3.12868 -0.0909372 0
M  V30 1971 C 176.946 -4.57879 0.105067 0
M  V30 1972 N 178.437 -4.63172 0.0506846 0
M  V30 1973 C 179.172 -5.73126 0.177396 0
M  V30 1974 N 178.668 -6.91866 0.359696 0
M  V30 1975 N 180.461 -5.61977 0.117709 0
M  V30 1976 H 172.612 -1.85169 1.04049 0
M  V30 1977 H 174.875 -0.85529 0.40888 0
M  V30 1978 H 174.581 -3.38299 0.961604 0
M  V30 1979 H 174.455 -3.6945 -0.76068 0
M  V30 1980 H 176.842 -2.75124 -1.06729 0
M  V30 1981 H 176.923 -2.46672 0.677225 0
M  V30 1982 H 176.567 -4.96321 1.07834 0
M  V30 1983 H 176.497 -5.22153 -0.682954 0
M  V30 1984 H 178.988 -3.778 -0.0871266 0
M  V30 1985 H 179.301 -7.71503 0.447529 0
M  V30 1986 H 177.646 -6.93874 0.395536 0
M  V30 1987 H 180.837 -4.68094 -0.0236741 0
M  V30 1988 H 181.01 -6.47627 0.219905 0
M  V30 1989 N 174.416 0.165178 -1.56732 0
M  V30 1990 C 175.348 1.22911 -1.93457 0
M  V30 1991 C 176.361 1.40152 -0.828333 0
M  V30 1992 O 177.55 1.40046 -1.10677 0
M  V30 1993 C 174.65 2.59686 -2.17753 0
M  V30 1994 C 173.823 2.63663 -3.48999 0
M  V30 1995 C 172.882 3.81845 -3.62051 0
M  V30 1996 O 171.908 3.67559 -4.34613 0
M  V30 1997 N 173.11 4.98557 -2.97357 0
M  V30 1998 H 175.875 0.917118 -2.85323 0
M  V30 1999 H 173.436 0.354895 -1.57962 0
M  V30 2000 H 175.428 3.37225 -2.23743 0
M  V30 2001 H 173.998 2.83251 -1.32242 0
M  V30 2002 H 173.218 1.72173 -3.54612 0
M  V30 2003 H 174.506 2.63336 -4.35352 0
M  V30 2004 H 173.904 5.13065 -2.38287 0
M  V30 2005 H 172.461 5.73936 -3.08934 0
M  V30 2006 N 175.894 1.51508 0.433938 0
M  V30 2007 C 176.824 1.76016 1.53429 0
M  V30 2008 C 177.805 0.610112 1.58782 0
M  V30 2009 O 178.99 0.853177 1.74455 0
M  V30 2010 C 176.12 1.88831 2.9148 0
M  V30 2011 C 175.074 3.04288 3.00987 0
M  V30 2012 C 174.4 3.0229 4.4105 0
M  V30 2013 C 175.7 4.44193 2.74754 0
M  V30 2014 H 177.394 2.68152 1.33171 0
M  V30 2015 H 174.94 1.29035 0.639214 0
M  V30 2016 H 176.893 2.04559 3.6842 0
M  V30 2017 H 175.617 0.933455 3.12976 0
M  V30 2018 H 174.276 2.8827 2.26486 0
M  V30 2019 H 173.924 2.04576 4.59519 0
M  V30 2020 H 173.624 3.79822 4.4834 0
M  V30 2021 H 175.148 3.20116 5.1996 0
M  V30 2022 H 176.562 4.60544 3.41426 0
M  V30 2023 H 174.959 5.23457 2.9345 0
M  V30 2024 H 176.029 4.53996 1.70339 0
M  V30 2025 N 177.372 -0.689602 1.41712 0
M  V30 2026 C 178.618 -1.45181 1.41599 0
M  V30 2027 C 178.951 -1.94181 0.0270081 0
M  V30 2028 O 178.226 -1.6993 -0.946265 0
M  V30 2029 C 178.509 -2.65945 2.42787 0
M  V30 2030 C 178.362 -2.22672 3.90816 0
M  V30 2031 C 179.681 -3.68149 2.41151 0
M  V30 2032 H 176.8 -0.526576 0.515642 0
M  V30 2033 H 179.442 -0.784947 1.73028 0
M  V30 2034 H 177.592 -3.2284 2.16116 0
M  V30 2035 H 179.264 -1.71058 4.28412 0
M  V30 2036 H 177.507 -1.54394 4.05395 0
M  V30 2037 H 178.178 -3.0935 4.57172 0
M  V30 2038 H 180.654 -3.2094 2.64834 0
M  V30 2039 H 179.53 -4.50248 3.13955 0
M  V30 2040 H 179.791 -4.18259 1.43221 0
M  V30 2041 N 178.85 -1.27639 -0.924453 0
M  V30 2042 C 180.266 -1.05113 -1.20097 0
M  V30 2043 C 180.466 0.213262 -2.00368 0
M  V30 2044 O 179.522 0.91787 -2.35226 0
M  V30 2045 C 180.835 -2.29244 -1.94596 0
M  V30 2046 C 182.383 -2.34315 -2.07522 0
M  V30 2047 C 182.858 -3.58183 -2.85427 0
M  V30 2048 N 184.349 -3.5876 -2.92994 0
M  V30 2049 C 185.084 -4.51277 -3.53746 0
M  V30 2050 N 184.58 -5.54102 -4.15863 0
M  V30 2051 N 186.373 -4.38894 -3.51181 0
M  V30 2052 H 178.524 -2.08821 -0.388264 0
M  V30 2053 H 180.787 -0.918568 -0.234385 0
M  V30 2054 H 180.493 -3.21301 -1.43034 0
M  V30 2055 H 180.367 -2.34816 -2.95197 0
M  V30 2056 H 182.754 -1.42762 -2.58269 0
M  V30 2057 H 182.835 -2.32744 -1.06131 0
M  V30 2058 H 182.479 -4.50074 -2.35363 0
M  V30 2059 H 182.409 -3.57006 -3.8711 0
M  V30 2060 H 184.9 -2.84398 -2.4885 0
M  V30 2061 H 185.213 -6.20859 -4.60168 0
M  V30 2062 H 183.558 -5.57941 -4.144 0
M  V30 2063 H 186.749 -3.57772 -3.01856 0
M  V30 2064 H 186.922 -5.11186 -3.98237 0
M  V30 2065 N 180.328 1.1314 -1.09713 0
M  V30 2066 C 181.278 2.16709 -0.708593 0
M  V30 2067 C 182.262 1.58471 0.278523 0
M  V30 2068 O 183.454 1.76779 0.088427 0
M  V30 2069 C 180.583 3.43039 -0.133923 0
M  V30 2070 C 179.669 4.08277 -1.14763 0
M  V30 2071 N 180.06 4.48637 -2.33577 0
M  V30 2072 C 178.358 4.34954 -0.986446 0
M  V30 2073 C 179.059 4.9952 -2.98085 0
M  V30 2074 N 178.035 4.94561 -2.25632 0
M  V30 2075 H 181.837 2.45672 -1.61315 0
M  V30 2076 H 179.351 1.29967 -0.973775 0
M  V30 2077 H 181.348 4.16583 0.162465 0
M  V30 2078 H 180.008 3.15549 0.765447 0
M  V30 2079 H 181.019 4.41246 -2.7115 0
M  V30 2080 H 177.696 4.17258 -0.142008 0
M  V30 2081 H 179.086 5.40521 -3.99108 0
M  V30 2082 N 181.806 0.884767 1.30421 0
M  V30 2083 C 183.054 0.502112 1.95763 0
M  V30 2084 C 183.375 -0.951815 1.70192 0
M  V30 2085 O 182.645 -1.6692 1.0254 0
M  V30 2086 H 181.225 0.182694 0.724315 0
M  V30 2087 H 183.887 1.1278 1.58955 0
M  V30 2088 H 182.983 0.672188 3.04775 0
M  V30 2089 N 183.284 -1.43765 0.645699 0
M  V30 2090 C 184.234 -2.27884 -0.0726442 0
M  V30 2091 C 185.218 -1.39483 -0.802086 0
M  V30 2092 O 186.41 -1.63174 -0.685791 0
M  V30 2093 C 183.539 -3.27055 -1.04356 0
M  V30 2094 C 182.625 -4.22944 -0.312985 0
M  V30 2095 N 183.016 -5.01391 0.666386 0
M  V30 2096 C 181.314 -4.42528 -0.55546 0
M  V30 2097 C 182.015 -5.71217 1.09935 0
M  V30 2098 N 180.991 -5.41856 0.435137 0
M  V30 2099 H 184.793 -2.85949 0.678988 0
M  V30 2100 H 182.307 -1.55378 0.472368 0
M  V30 2101 H 184.304 -3.86089 -1.57292 0
M  V30 2102 H 182.964 -2.70551 -1.79534 0
M  V30 2103 H 183.975 -5.07252 1.04481 0
M  V30 2104 H 180.652 -3.97104 -1.28899 0
M  V30 2105 H 182.042 -6.44202 1.90929 0
M  V30 2106 N 184.763 -0.387143 -1.52771 0
M  V30 2107 C 186.012 0.19697 -2.00736 0
M  V30 2108 C 186.325 1.48082 -1.27793 0
M  V30 2109 O 187.531 2.14485 -1.66458 0
M  V30 2110 C 185.987 0.401568 -3.57653 0
M  V30 2111 C 185.595 -0.868907 -4.39493 0
M  V30 2112 C 187.339 0.942164 -4.13912 0
M  V30 2113 C 185.246 -0.632705 -5.88006 0
M  V30 2114 H 184.176 0.0773827 -0.750019 0
M  V30 2115 H 186.827 -0.50921 -1.76293 0
M  V30 2116 H 185.209 1.16954 -3.78335 0
M  V30 2117 H 186.383 -1.64133 -4.30577 0
M  V30 2118 H 184.698 -1.33429 -3.94443 0
M  V30 2119 H 187.295 1.13455 -5.22525 0
M  V30 2120 H 187.638 1.9106 -3.69867 0
M  V30 2121 H 188.171 0.233814 -3.97112 0
M  V30 2122 H 184.91 -1.57208 -6.36369 0
M  V30 2123 H 184.43 0.100825 -5.99715 0
M  V30 2124 H 186.109 -0.26642 -6.46451 0
M  V30 2125 N 186.241 1.57166 -0.116904 0
M  V30 2126 C 187.469 1.99473 0.549383 0
M  V30 2127 C 187.884 0.996541 1.60357 0
M  V30 2128 O 187.241 -0.0108731 1.82497 0
M  V30 2129 C 187.292 3.41788 1.17741 0
M  V30 2130 O 187.013 4.37788 0.165362 0
M  V30 2131 C 188.514 3.99216 1.92722 0
M  V30 2132 H 185.734 0.655009 0.145616 0
M  V30 2133 H 188.278 2.03494 -0.202625 0
M  V30 2134 H 186.433 3.38713 1.88021 0
M  V30 2135 H 186.847 5.20806 0.621403 0
M  V30 2136 H 188.321 5.00882 2.31995 0
M  V30 2137 H 188.798 3.3824 2.80161 0
M  V30 2138 H 189.404 4.0583 1.27209 0
M  V30 2139 N 187.719 -0.156864 1.56817 0
M  V30 2140 C 188.965 -0.872416 1.83076 0
M  V30 2141 C 189.298 -1.81261 0.697001 0
M  V30 2142 O 188.573 -1.92171 -0.30008 0
M  V30 2143 C 188.856 -1.65551 3.19789 0
M  V30 2144 C 188.709 -0.737467 4.43713 0
M  V30 2145 C 190.028 -2.62012 3.53606 0
M  V30 2146 H 187.147 -0.315715 0.665953 0
M  V30 2147 H 189.789 -0.138004 1.89498 0
M  V30 2148 H 187.939 -2.28159 3.14445 0
M  V30 2149 H 189.611 -0.123143 4.61136 0
M  V30 2150 H 187.854 -0.0464067 4.33775 0
M  V30 2151 H 188.525 -1.32122 5.35955 0
M  V30 2152 H 191.001 -2.09525 3.59497 0
M  V30 2153 H 189.877 -3.13861 4.50314 0
M  V30 2154 H 190.138 -3.42902 2.79053 0
M  V30 2155 N 189.197 -1.51736 -0.425897 0
M  V30 2156 C 190.145 -1.74464 -1.53834 0
M  V30 2157 C 191.139 -0.611241 -1.57988 0
M  V30 2158 O 192.345 -0.792899 -1.61596 0
M  V30 2159 H 188.72 -0.551437 -0.511293 0
M  V30 2160 H 190.691 -2.67694 -1.31843 0
M  V30 2161 C 189.44 -1.8972 -2.91379 0
M  V30 2162 H 188.763 -2.76344 -2.88919 0
M  V30 2163 H 190.203 -2.09629 -3.68553 0
M  V30 2164 C 188.662 -0.65992 -3.30374 0
M  V30 2165 O 189.192 0.180083 -4.01296 0
M  V30 2166 N 187.398 -0.500677 -2.86254 0
M  V30 2167 H 186.945 -1.18532 -2.28709 0
M  V30 2168 H 186.903 0.325903 -3.12706 0
M  V30 2169 N 190.675 0.682077 -1.42076 0
M  V30 2170 C 191.923 1.4393 -1.41876 0
M  V30 2171 C 192.244 1.94971 -0.0335599 0
M  V30 2172 O 191.514 1.72591 0.926773 0
M  V30 2173 H 190.094 0.534085 -0.522267 0
M  V30 2174 H 192.756 0.806427 -1.77434 0
M  V30 2175 H 191.852 2.29588 -2.11414 0
M  V30 2176 N 192.153 1.28127 0.917671 0
M  V30 2177 C 193.569 1.05749 1.19538 0
M  V30 2178 C 193.769 -0.202633 2.00479 0
M  V30 2179 O 192.825 -0.905382 2.3571 0
M  V30 2180 C 194.138 2.30273 1.93378 0
M  V30 2181 C 195.686 2.35412 2.06277 0
M  V30 2182 C 196.161 3.59692 2.83524 0
M  V30 2183 N 197.652 3.60309 2.91087 0
M  V30 2184 C 198.387 4.53147 3.51348 0
M  V30 2185 N 197.883 5.563 4.12919 0
M  V30 2186 N 199.676 4.40751 3.48849 0
M  V30 2187 H 191.827 2.09024 0.377184 0
M  V30 2188 H 194.09 0.919798 0.22951 0
M  V30 2189 H 193.796 3.22055 1.41328 0
M  V30 2190 H 193.67 2.36378 2.93947 0
M  V30 2191 H 196.057 1.4413 2.57508 0
M  V30 2192 H 196.138 2.33304 1.04895 0
M  V30 2193 H 195.782 4.51316 2.32973 0
M  V30 2194 H 195.712 3.59054 3.85211 0
M  V30 2195 H 198.203 2.85714 2.47338 0
M  V30 2196 H 198.516 6.2329 4.56869 0
M  V30 2197 H 196.861 5.60131 4.11435 0
M  V30 2198 H 200.052 3.59367 2.99955 0
M  V30 2199 H 200.225 5.13291 3.9552 0
M  V30 2200 N 193.631 -1.12557 1.10312 0
M  V30 2201 C 195.047 -1.36036 0.834649 0
M  V30 2202 C 195.247 -1.93946 -0.546539 0
M  V30 2203 O 194.303 -2.16484 -1.29966 0
M  V30 2204 C 195.616 -2.30312 1.9333 0
M  V30 2205 C 197.164 -2.43906 1.9616 0
M  V30 2206 C 197.639 -3.41496 3.05195 0
M  V30 2207 N 199.13 -3.49053 3.04494 0
M  V30 2208 C 199.865 -4.24471 3.85502 0
M  V30 2209 N 199.361 -5.02966 4.76442 0
M  V30 2210 N 201.154 -4.19864 3.73725 0
M  V30 2211 H 193.305 -0.733246 1.99342 0
M  V30 2212 H 195.568 -0.385234 0.866198 0
M  V30 2213 H 195.274 -1.94933 2.92735 0
M  V30 2214 H 195.148 -3.30421 1.81939 0
M  V30 2215 H 197.535 -2.78567 0.973886 0
M  V30 2216 H 197.616 -1.4369 2.11629 0
M  V30 2217 H 197.26 -3.07565 4.04186 0
M  V30 2218 H 197.19 -4.41539 2.86968 0
M  V30 2219 H 199.681 -2.93053 2.38596 0
M  V30 2220 H 199.994 -5.57846 5.34815 0
M  V30 2221 H 198.339 -5.02167 4.80472 0
M  V30 2222 H 201.53 -3.57623 3.02032 0
M  V30 2223 H 201.703 -4.78386 4.37093 0
M  V30 2224 N 195.109 -0.891671 -1.2995 0
M  V30 2225 C 196.355 -0.514261 -1.96171 0
M  V30 2226 C 196.688 0.935506 -1.70182 0
M  V30 2227 O 195.963 1.66204 -1.01028 0
M  V30 2228 C 196.246 -0.797719 -3.51153 0
M  V30 2229 C 196.099 -2.2986 -3.86632 0
M  V30 2230 C 197.418 -0.278749 -4.39216 0
M  V30 2231 H 194.537 -0.188314 -0.712535 0
M  V30 2232 H 197.179 -1.11689 -1.53706 0
M  V30 2233 H 195.329 -0.284826 -3.87455 0
M  V30 2234 H 197.001 -2.88042 -3.60319 0
M  V30 2235 H 195.244 -2.76257 -3.34462 0
M  V30 2236 H 195.915 -2.44753 -4.94773 0
M  V30 2237 H 198.391 -0.717825 -4.09862 0
M  V30 2238 H 197.267 -0.506353 -5.46559 0
M  V30 2239 H 197.528 0.820266 -4.34424 0
M  V30 2240 N 196.587 1.43421 -0.653314 0
M  V30 2241 C 197.864 1.95361 -0.0966581 0
M  V30 2242 C 198.244 1.59461 1.38331 0
M  V30 2243 O 197.592 0.879777 2.10884 0
M  V30 2244 C 197.802 3.47311 -0.342988 0
M  V30 2245 C 199.15 4.23875 -0.24798 0
M  V30 2246 O 200.174 3.55133 -0.275553 0
M  V30 2247 O 199.033 5.4623 -0.171771 0
M  V30 2248 H 196.127 0.826945 0.00956291 0
M  V30 2249 H 198.673 1.5336 -0.726558 0
M  V30 2250 H 197.445 3.66569 -1.36906 0
M  V30 2251 H 197.068 3.9631 0.319975 0
M  V30 2252 N 198.065 0.39524 1.52563 0
M  V30 2253 C 198.995 -0.428384 2.29537 0
M  V30 2254 C 199.976 -1.05831 1.33169 0
M  V30 2255 O 201.161 -1.06995 1.62067 0
M  V30 2256 C 198.291 -1.55274 3.10656 0
M  V30 2257 C 197.245 -1.04855 4.14957 0
M  V30 2258 C 196.571 -2.26543 4.84337 0
M  V30 2259 C 197.871 -0.112324 5.22179 0
M  V30 2260 H 199.565 0.213867 2.98635 0
M  V30 2261 H 197.111 0.104298 1.43622 0
M  V30 2262 H 199.064 -2.1358 3.63265 0
M  V30 2263 H 197.788 -2.22266 2.39302 0
M  V30 2264 H 196.447 -0.487985 3.63338 0
M  V30 2265 H 196.095 -2.92059 4.09525 0
M  V30 2266 H 195.795 -1.93466 5.54837 0
M  V30 2267 H 197.319 -2.85481 5.39753 0
M  V30 2268 H 198.733 -0.603752 5.70112 0
M  V30 2269 H 197.13 0.128968 5.99961 0
M  V30 2270 H 198.2 0.837052 4.77621 0
M  V30 2271 N 199.544 -1.57102 0.125237 0
M  V30 2272 C 200.955 -1.82384 -0.399142 0
M  V30 2273 C 201.306 -1.04276 -1.66195 0
M  V30 2274 O 200.431 -0.281269 -2.14564 0
M  V30 2275 C 201.026 -3.30821 -0.730932 0
M  V30 2276 C 199.585 -3.56762 -1.19992 0
M  V30 2277 C 198.732 -2.7649 -0.211792 0
M  V30 2278 H 201.683 -1.54786 0.350277 0
M  V30 2279 H 201.704 -3.4579 -1.58775 0
M  V30 2280 H 201.216 -3.87643 0.188345 0
M  V30 2281 H 199.317 -3.05305 -2.13588 0
M  V30 2282 H 199.43 -4.65317 -1.14093 0
M  V30 2283 H 197.794 -2.4489 -0.700085 0
M  V30 2284 H 198.577 -3.36073 0.700691 0
M  V30 2285 N 201.022 0.148545 -1.56898 0
M  V30 2286 C 202.247 0.880385 -1.87787 0
M  V30 2287 C 202.672 1.74018 -0.714093 0
M  V30 2288 O 202.03 1.78153 0.336343 0
M  V30 2289 C 202.078 1.71422 -3.17249 0
M  V30 2290 O 201.182 2.8183 -3.01074 0
M  V30 2291 H 200.523 0.245301 -0.617028 0
M  V30 2292 H 203.053 0.139826 -2.04122 0
M  V30 2293 H 203.063 2.10954 -3.49231 0
M  V30 2294 H 201.738 1.08284 -4.01556 0
M  V30 2295 H 200.315 2.45715 -2.80497 0
M  V30 2296 N 202.5 1.5196 0.417844 0
M  V30 2297 C 203.73 1.69181 1.18581 0
M  V30 2298 C 204.138 0.397104 1.84986 0
M  V30 2299 O 203.481 -0.636011 1.72339 0
M  V30 2300 C 203.543 2.76497 2.29759 0
M  V30 2301 C 203.207 4.18514 1.83563 0
M  V30 2302 C 204.204 5.02648 1.32821 0
M  V30 2303 C 201.889 4.64708 1.90661 0
M  V30 2304 C 203.883 6.31044 0.897894 0
M  V30 2305 C 201.57 5.93096 1.47241 0
M  V30 2306 C 202.568 6.76093 0.968891 0
M  V30 2307 O 202.256 8.02078 0.540924 0
M  V30 2308 H 201.988 0.570457 0.362705 0
M  V30 2309 H 204.542 1.99249 0.498885 0
M  V30 2310 H 202.772 2.41786 3.01789 0
M  V30 2311 H 204.461 2.82403 2.91553 0
M  V30 2312 H 205.227 4.68154 1.26716 0
M  V30 2313 H 201.106 4.00216 2.28797 0
M  V30 2314 H 204.65 6.95776 0.504192 0
M  V30 2315 H 200.547 6.271 1.53022 0
M  V30 2316 H 201.315 8.15794 0.66502 0
M  V30 2317 N 203.978 -0.674533 1.42435 0
M  V30 2318 C 205.394 -0.98769 1.25367 0
M  V30 2319 C 205.594 -2.00879 0.158044 0
M  V30 2320 O 204.65 -2.48075 -0.470633 0
M  V30 2321 C 205.963 -1.49224 2.6106 0
M  V30 2322 C 207.511 -1.61 2.68417 0
M  V30 2323 C 207.986 -2.14852 4.04478 0
M  V30 2324 N 209.477 -2.22185 4.06434 0
M  V30 2325 C 210.212 -2.64928 5.08528 0
M  V30 2326 N 209.708 -3.07121 6.21006 0
M  V30 2327 N 211.501 -2.64679 4.95885 0
M  V30 2328 H 203.652 0.00152503 2.124 0
M  V30 2329 H 205.915 -0.0618434 0.945981 0
M  V30 2330 H 205.621 -0.816453 3.42092 0
M  V30 2331 H 205.495 -2.47094 2.84999 0
M  V30 2332 H 207.882 -2.27686 1.87732 0
M  V30 2333 H 207.963 -0.616195 2.48267 0
M  V30 2334 H 207.607 -1.48775 4.85622 0
M  V30 2335 H 207.537 -3.15024 4.2198 0
M  V30 2336 H 210.028 -1.92435 3.25234 0
M  V30 2337 H 210.341 -3.38423 6.94759 0
M  V30 2338 H 208.686 -3.04978 6.24511 0
M  V30 2339 H 211.877 -2.31078 4.07088 0
M  V30 2340 H 212.05 -2.9767 5.75584 0
M  V30 2341 N 205.456 -1.28612 -0.910864 0
M  V30 2342 C 206.702 -1.16106 -1.66274 0
M  V30 2343 C 207.035 0.289113 -1.92036 0
M  V30 2344 O 206.31 1.21 -1.52281 0
M  V30 2345 C 206.593 -1.96309 -3.01885 0
M  V30 2346 C 206.446 -3.49405 -2.8326 0
M  V30 2347 C 207.765 -1.78076 -4.02463 0
M  V30 2348 H 204.884 -0.423152 -0.603417 0
M  V30 2349 H 207.526 -1.57961 -1.05586 0
M  V30 2350 H 205.676 -1.60742 -3.53687 0
M  V30 2351 H 207.348 -3.94894 -2.38446 0
M  V30 2352 H 205.591 -3.74893 -2.18261 0
M  V30 2353 H 206.262 -4.00784 -3.79574 0
M  V30 2354 H 208.738 -2.0912 -3.59733 0
M  V30 2355 H 207.614 -2.36561 -4.95308 0
M  V30 2356 H 207.875 -0.733008 -4.35981 0
M  V30 2357 N 206.934 1.1197 -1.10907 0
M  V30 2358 C 208.35 1.35591 -0.841852 0
M  V30 2359 C 208.55 1.94233 0.536246 0
M  V30 2360 O 207.606 2.1717 1.28816 0
M  V30 2361 C 208.919 2.29284 -1.94549 0
M  V30 2362 C 210.467 2.42862 -1.97451 0
M  V30 2363 C 210.942 3.39873 -3.07002 0
M  V30 2364 N 212.433 3.47433 -3.06341 0
M  V30 2365 C 213.168 4.22421 -3.87748 0
M  V30 2366 N 212.664 5.00432 -4.79103 0
M  V30 2367 N 214.457 4.17876 -3.75946 0
M  V30 2368 H 206.608 0.722664 -1.99728 0
M  V30 2369 H 208.871 0.380635 -0.868229 0
M  V30 2370 H 208.577 1.93378 -2.93765 0
M  V30 2371 H 208.451 3.29452 -1.83688 0
M  V30 2372 H 210.838 2.78046 -0.988645 0
M  V30 2373 H 210.919 1.42566 -2.12388 0
M  V30 2374 H 210.563 3.05417 -4.05811 0
M  V30 2375 H 210.493 4.40011 -2.89306 0
M  V30 2376 H 212.984 2.91784 -2.40147 0
M  V30 2377 H 213.297 5.55002 -5.37766 0
M  V30 2378 H 211.642 4.99612 -4.83128 0
M  V30 2379 H 214.833 3.56016 -3.03924 0
M  V30 2380 H 215.006 4.76061 -4.39624 0
M  V30 2381 N 208.412 0.89855 1.29475 0
M  V30 2382 C 209.823 0.572537 1.77705 0
M  V30 2383 C 210.174 -0.911778 1.73727 0
M  V30 2384 O 209.299 -1.71288 1.32247 0
M  V30 2385 C 209.894 1.03252 3.22683 0
M  V30 2386 C 208.453 0.757687 3.68695 0
M  V30 2387 C 207.6 1.20787 2.49612 0
M  V30 2388 H 210.551 1.08139 1.16153 0
M  V30 2389 H 210.572 0.367307 3.78723 0
M  V30 2390 H 210.084 2.11285 3.25546 0
M  V30 2391 H 208.185 -0.310079 3.71308 0
M  V30 2392 H 208.298 1.35476 4.59547 0
M  V30 2393 H 206.662 0.626888 2.46865 0
M  V30 2394 H 207.445 2.29622 2.55203 0
M  V30 2395 N 209.89 -1.43072 0.660911 0
M  V30 2396 C 211.138 -2.01323 0.177094 0
M  V30 2397 C 211.459 -1.5245 -1.2159 0
M  V30 2398 O 210.729 -0.740322 -1.81373 0
M  V30 2399 H 209.309 -0.744382 0.0624804 0
M  V30 2400 H 211.971 -1.75179 0.854305 0
M  V30 2401 H 211.067 -3.11649 0.167641 0
M  V30 2402 N 211.368 -0.403325 -1.52352 0
M  V30 2403 C 212.645 0.232611 -1.94212 0
M  V30 2404 C 213.025 1.63133 -1.33981 0
M  V30 2405 O 212.373 2.22659 -0.513344 0
M  V30 2406 C 212.583 0.244811 -3.4814 0
M  V30 2407 C 213.931 0.46698 -4.22024 0
M  V30 2408 O 214.955 0.324419 -3.5472 0
M  V30 2409 O 213.814 0.74747 -5.41364 0
M  V30 2410 H 210.908 0.148223 -0.813609 0
M  V30 2411 H 213.454 -0.458848 -1.63379 0
M  V30 2412 H 212.226 -0.734378 -3.84347 0
M  V30 2413 H 211.849 0.980611 -3.85318 0
M  V30 2414 N 212.846 1.57033 -0.133567 0
M  V30 2415 C 213.756 2.19632 0.824564 0
M  V30 2416 C 214.772 1.17666 1.28182 0
M  V30 2417 O 215.948 1.50193 1.3418 0
M  V30 2418 C 213.013 2.79499 2.05137 0
M  V30 2419 C 212.074 3.96548 1.64464 0
M  V30 2420 C 211.307 4.5355 2.81297 0
M  V30 2421 O 211.53 4.09438 3.97136 0
M  V30 2422 O 210.464 5.44018 2.57542 0
M  V30 2423 H 214.29 3.01991 0.321766 0
M  V30 2424 H 211.875 1.49112 0.0927889 0
M  V30 2425 H 213.757 3.17602 2.7696 0
M  V30 2426 H 212.432 2.00162 2.54395 0
M  V30 2427 H 211.339 3.63186 0.897048 0
M  V30 2428 H 212.672 4.77364 1.19934 0
M  V30 2429 N 214.325 -0.140222 1.56975 0
M  V30 2430 C 215.574 -0.850152 1.82908 0
M  V30 2431 C 215.887 -1.82028 0.715892 0
M  V30 2432 O 217.093 -2.57485 0.861016 0
M  V30 2433 C 215.549 -1.5625 3.24213 0
M  V30 2434 C 215.157 -0.63443 4.43485 0
M  V30 2435 C 216.901 -2.25881 3.59413 0
M  V30 2436 C 214.808 -1.34879 5.75814 0
M  V30 2437 H 213.738 -0.321221 0.682153 0
M  V30 2438 H 216.389 -0.102874 1.83211 0
M  V30 2439 H 214.771 -2.35565 3.18316 0
M  V30 2440 H 215.945 0.12398 4.60633 0
M  V30 2441 H 214.26 -0.0461836 4.16374 0
M  V30 2442 H 216.857 -2.79978 4.5554 0
M  V30 2443 H 217.2 -3.02693 2.85802 0
M  V30 2444 H 217.733 -1.53477 3.67001 0
M  V30 2445 H 214.472 -0.622385 6.52539 0
M  V30 2446 H 213.992 -2.07974 5.6259 0
M  V30 2447 H 215.671 -1.88784 6.18845 0
M  V30 2448 N 215.803 -1.52179 -0.40978 0
M  V30 2449 C 216.766 -1.74853 -1.48186 0
M  V30 2450 C 217.766 -0.618417 -1.48433 0
M  V30 2451 O 218.956 -0.886286 -1.49969 0
M  V30 2452 C 216.088 -1.8303 -2.87598 0
M  V30 2453 H 217.281 -2.70559 -1.29374 0
M  V30 2454 H 214.834 -1.42586 -0.640233 0
M  V30 2455 H 215.569 -0.89236 -3.11781 0
M  V30 2456 H 215.354 -2.65187 -2.88822 0
M  V30 2457 H 216.844 -2.02316 -3.65319 0
M  V30 2458 N 217.281 0.66697 -1.42791 0
M  V30 2459 C 218.527 1.4291 -1.43891 0
M  V30 2460 C 218.86 1.94114 -0.0578972 0
M  V30 2461 O 218.135 1.71414 0.91911 0
M  V30 2462 C 218.418 2.62049 -2.46987 0
M  V30 2463 C 218.271 2.16426 -3.94309 0
M  V30 2464 C 219.59 3.64266 -2.46978 0
M  V30 2465 H 216.709 0.518306 -0.523954 0
M  V30 2466 H 219.351 0.757321 -1.74255 0
M  V30 2467 H 217.501 3.19361 -2.21225 0
M  V30 2468 H 219.173 1.64221 -4.31079 0
M  V30 2469 H 217.416 1.47925 -4.078 0
M  V30 2470 H 218.087 3.02038 -4.62036 0
M  V30 2471 H 220.563 3.16686 -2.69906 0
M  V30 2472 H 219.439 4.45196 -3.21079 0
M  V30 2473 H 219.7 4.15927 -1.49857 0
M  V30 2474 N 218.759 1.29093 0.90403 0
M  V30 2475 C 219.722 1.1386 1.98919 0
M  V30 2476 C 220.722 0.0753457 1.60623 0
M  V30 2477 O 221.912 0.321931 1.71199 0
M  V30 2478 C 219.044 0.740198 3.32767 0
M  V30 2479 H 220.237 2.10246 2.13861 0
M  V30 2480 H 217.79 1.12218 1.08797 0
M  V30 2481 H 218.525 -0.223997 3.23525 0
M  V30 2482 H 218.31 1.50838 3.61926 0
M  V30 2483 H 219.8 0.656546 4.12407 0
M  V30 2484 N 220.237 -1.11381 1.11499 0
M  V30 2485 C 221.147 -2.21019 0.786628 0
M  V30 2486 C 222.163 -1.72597 -0.220507 0
M  V30 2487 O 223.339 -2.01321 -0.0565251 0
M  V30 2488 C 220.404 -3.459 0.235333 0
M  V30 2489 C 219.465 -4.09107 1.30115 0
M  V30 2490 C 218.698 -5.28027 0.776068 0
M  V30 2491 O 218.921 -5.6904 -0.393661 0
M  V30 2492 O 217.855 -5.81835 1.54114 0
M  V30 2493 H 221.681 -2.51521 1.70209 0
M  V30 2494 H 219.266 -1.19928 0.890928 0
M  V30 2495 H 221.148 -4.21346 -0.067715 0
M  V30 2496 H 219.823 -3.17049 -0.652828 0
M  V30 2497 H 218.73 -3.35391 1.65722 0
M  V30 2498 H 220.063 -4.42139 2.16273 0
M  V30 2499 N 221.715 -0.905404 -1.28997 0
M  V30 2500 C 222.662 -0.385892 -2.27551 0
M  V30 2501 C 223.632 0.535113 -1.57244 0
M  V30 2502 O 224.817 0.459119 -1.85194 0
M  V30 2503 C 221.957 0.375461 -3.43051 0
M  V30 2504 C 221.07 -0.577092 -4.28128 0
M  V30 2505 C 220.205 0.201879 -5.30816 0
M  V30 2506 C 219.244 -0.744829 -6.07551 0
M  V30 2507 N 218.381 9.42587e-05 -7.021 0
M  V30 2508 H 223.221 -1.23139 -2.71368 0
M  V30 2509 H 220.758 -0.618542 -1.33463 0
M  V30 2510 H 222.716 0.832992 -4.088 0
M  V30 2511 H 221.346 1.18537 -3.00248 0
M  V30 2512 H 220.398 -1.15315 -3.62501 0
M  V30 2513 H 221.71 -1.30152 -4.8152 0
M  V30 2514 H 220.864 0.720351 -6.02408 0
M  V30 2515 H 219.603 0.959413 -4.7817 0
M  V30 2516 H 218.608 -1.27475 -5.34818 0
M  V30 2517 H 219.833 -1.50178 -6.62286 0
M  V30 2518 H 217.779 0.739791 -6.51815 0
M  V30 2519 H 217.696 -0.664321 -7.53076 0
M  V30 2520 H 218.964 0.498644 -7.77903 0
M  V30 2521 N 223.193 1.4272 -0.668489 0
M  V30 2522 C 224.418 2.06484 -0.194758 0
M  V30 2523 C 224.843 1.49862 1.13679 0
M  V30 2524 O 224.201 0.614582 1.70565 0
M  V30 2525 C 224.249 3.60353 -0.133546 0
M  V30 2526 O 223.353 4.02464 0.899806 0
M  V30 2527 H 222.694 0.656137 -0.10188 0
M  V30 2528 H 225.224 1.82964 -0.915722 0
M  V30 2529 H 225.234 4.07976 0.0447041 0
M  V30 2530 H 223.909 4.00938 -1.1055 0
M  V30 2531 H 222.486 3.66402 0.693109 0
M  V30 2532 N 224.671 0.411399 1.52136 0
M  V30 2533 C 226.087 0.0623865 1.59478 0
M  V30 2534 C 226.287 -1.42554 1.4241 0
M  V30 2535 O 225.343 -2.19263 1.2522 0
M  V30 2536 C 226.656 0.559331 2.95452 0
M  V30 2537 C 228.204 0.517503 3.08692 0
M  V30 2538 C 228.679 0.990994 4.4715 0
M  V30 2539 N 230.17 0.947908 4.53397 0
M  V30 2540 C 230.905 1.28544 5.58806 0
M  V30 2541 N 230.401 1.69454 6.71757 0
M  V30 2542 N 232.194 1.20526 5.49026 0
M  V30 2543 H 224.345 1.37982 1.61477 0
M  V30 2544 H 226.608 0.566977 0.759764 0
M  V30 2545 H 226.314 1.59938 3.1323 0
M  V30 2546 H 226.188 -0.0298014 3.77188 0
M  V30 2547 H 228.575 -0.513505 2.90598 0
M  V30 2548 H 228.656 1.14272 2.28857 0
M  V30 2549 H 228.3 2.02034 4.65988 0
M  V30 2550 H 228.23 0.34257 5.25485 0
M  V30 2551 H 230.721 0.647157 3.72317 0
M  V30 2552 H 231.034 1.93513 7.48179 0
M  V30 2553 H 229.379 1.73359 6.73032 0
M  V30 2554 H 232.57 0.884505 4.59667 0
M  V30 2555 H 232.743 1.47161 6.31069 0
M  V30 2556 N 226.149 -1.5696 0.141893 0
M  V30 2557 C 227.097 -2.17784 -0.816874 0
M  V30 2558 C 228.091 -1.1334 -1.25899 0
M  V30 2559 O 229.297 -1.316 -1.22806 0
M  V30 2560 H 225.672 -0.697278 -0.281615 0
M  V30 2561 H 227.643 -2.97087 -0.279621 0
M  V30 2562 C 226.392 -2.80983 -2.04802 0
M  V30 2563 H 225.715 -3.61062 -1.7168 0
M  V30 2564 H 227.155 -3.2705 -2.69841 0
M  V30 2565 C 225.614 -1.79228 -2.8527 0
M  V30 2566 O 226.144 -1.25962 -3.8144 0
M  V30 2567 N 224.35 -1.48647 -2.49704 0
M  V30 2568 H 223.897 -1.92155 -1.71564 0
M  V30 2569 H 223.855 -0.808115 -3.03837 0
M  V30 2570 N 227.627 0.131896 -1.57047 0
M  V30 2571 C 228.557 1.16384 -2.02428 0
M  V30 2572 C 229.538 1.43936 -0.90644 0
M  V30 2573 O 230.723 1.54599 -1.17528 0
M  V30 2574 C 227.853 2.49328 -2.4177 0
M  V30 2575 C 226.807 2.36266 -3.56879 0
M  V30 2576 C 226.133 3.74057 -3.8208 0
M  V30 2577 C 227.433 1.834 -4.89042 0
M  V30 2578 H 229.127 0.786433 -2.88887 0
M  V30 2579 H 226.673 0.376855 -1.38981 0
M  V30 2580 H 228.626 3.21759 -2.7212 0
M  V30 2581 H 227.35 2.88934 -1.52266 0
M  V30 2582 H 226.009 1.66286 -3.26718 0
M  V30 2583 H 225.657 4.11125 -2.89803 0
M  V30 2584 H 225.357 3.66174 -4.59554 0
M  V30 2585 H 226.881 4.48012 -4.1487 0
M  V30 2586 H 228.295 2.45636 -5.18011 0
M  V30 2587 H 226.692 1.8637 -5.70426 0
M  V30 2588 H 227.762 0.790662 -4.7841 0
M  V30 2589 N 229.106 1.52395 0.401703 0
M  V30 2590 C 230.016 1.7917 1.51444 0
M  V30 2591 C 231.032 0.677691 1.6026 0
M  V30 2592 O 232.208 0.963909 1.76835 0
M  V30 2593 C 229.273 1.94347 2.87107 0
M  V30 2594 C 228.334 3.18257 2.88116 0
M  V30 2595 C 227.567 3.32701 4.17308 0
M  V30 2596 O 227.79 2.52238 5.11598 0
M  V30 2597 O 226.724 4.25891 4.25324 0
M  V30 2598 H 230.55 2.73633 1.31752 0
M  V30 2599 H 228.135 1.3733 0.588296 0
M  V30 2600 H 230.017 2.06109 3.67555 0
M  V30 2601 H 228.692 1.03073 3.06851 0
M  V30 2602 H 227.599 3.11947 2.06494 0
M  V30 2603 H 228.932 4.09336 2.73322 0
M  V30 2604 N 230.584 -0.659388 1.43143 0
M  V30 2605 C 231.514 -1.78422 1.50625 0
M  V30 2606 C 232.495 -1.66216 0.361443 0
M  V30 2607 O 233.68 -1.85404 0.577834 0
M  V30 2608 C 230.81 -3.16815 1.42287 0
M  V30 2609 C 229.764 -3.43777 2.54954 0
M  V30 2610 C 229.09 -4.81905 2.31671 0
M  V30 2611 C 230.39 -3.39134 3.97222 0
M  V30 2612 H 232.084 -1.72417 2.44771 0
M  V30 2613 H 229.63 -0.828084 1.17808 0
M  V30 2614 H 231.583 -3.95253 1.46127 0
M  V30 2615 H 230.307 -3.23534 0.446435 0
M  V30 2616 H 228.966 -2.67707 2.50457 0
M  V30 2617 H 228.614 -4.85294 1.32284 0
M  V30 2618 H 228.314 -5.00906 3.07192 0
M  V30 2619 H 229.838 -5.62609 2.37284 0
M  V30 2620 H 231.252 -4.07518 4.03239 0
M  V30 2621 H 229.649 -3.69671 4.72719 0
M  V30 2622 H 230.719 -2.37426 4.22797 0
M  V30 2623 N 232.062 -1.29571 -0.897171 0
M  V30 2624 C 233.311 -1.1706 -1.64256 0
M  V30 2625 C 233.624 0.276476 -1.93636 0
M  V30 2626 O 234.83 0.52294 -2.66416 0
M  V30 2627 C 233.286 -2.0475 -2.95982 0
M  V30 2628 C 232.894 -3.54295 -2.74187 0
M  V30 2629 C 234.638 -2.0097 -3.73914 0
M  V30 2630 C 232.545 -4.34081 -4.01656 0
M  V30 2631 H 231.475 -0.43452 -0.616205 0
M  V30 2632 H 234.126 -1.54229 -0.994268 0
M  V30 2633 H 232.508 -1.60452 -3.62038 0
M  V30 2634 H 233.682 -4.06662 -2.1671 0
M  V30 2635 H 231.997 -3.59773 -2.09648 0
M  V30 2636 H 234.594 -2.57838 -4.68427 0
M  V30 2637 H 234.937 -0.990273 -4.0435 0
M  V30 2638 H 235.47 -2.43325 -3.14703 0
M  V30 2639 H 232.209 -5.36671 -3.76384 0
M  V30 2640 H 231.729 -3.86483 -4.58684 0
M  V30 2641 H 233.408 -4.44877 -4.69781 0
M  V30 2642 N 233.54 1.10788 -1.12088 0
M  V30 2643 C 234.956 1.34691 -0.856186 0
M  V30 2644 C 235.156 1.94791 0.515615 0
M  V30 2645 O 234.212 2.18524 1.26505 0
M  V30 2646 C 235.525 2.27208 -1.9697 0
M  V30 2647 C 237.073 2.40755 -2.00016 0
M  V30 2648 C 237.548 3.36598 -3.1059 0
M  V30 2649 N 239.039 3.44164 -3.10008 0
M  V30 2650 C 239.774 4.18284 -3.92206 0
M  V30 2651 N 239.27 4.95322 -4.84384 0
M  V30 2652 N 241.063 4.13865 -3.80357 0
M  V30 2653 H 233.214 0.70144 -2.00483 0
M  V30 2654 H 235.477 0.371405 -0.872217 0
M  V30 2655 H 235.183 1.90251 -2.958 0
M  V30 2656 H 235.057 3.27485 -1.87172 0
M  V30 2657 H 237.444 2.76982 -1.01808 0
M  V30 2658 H 237.525 1.40305 -2.13888 0
M  V30 2659 H 237.169 3.01096 -4.09028 0
M  V30 2660 H 237.099 4.36918 -2.93956 0
M  V30 2661 H 239.59 2.8922 -2.43228 0
M  V30 2662 H 239.903 5.49267 -5.43623 0
M  V30 2663 H 238.248 4.94459 -4.884 0
M  V30 2664 H 241.439 3.52773 -3.07683 0
M  V30 2665 H 241.612 4.71372 -4.44649 0
M  V30 2666 N 235.018 0.912232 1.28515 0
M  V30 2667 C 235.95 0.35676 2.26406 0
M  V30 2668 C 236.963 -0.503933 1.54804 0
M  V30 2669 O 238.152 -0.319059 1.75625 0
M  V30 2670 C 235.252 -0.508825 3.35058 0
M  V30 2671 C 234.425 0.329007 4.36161 0
M  V30 2672 C 233.484 -0.471422 5.24084 0
M  V30 2673 O 232.51 0.115482 5.69083 0
M  V30 2674 N 233.712 -1.77479 5.52704 0
M  V30 2675 H 236.477 1.19818 2.74707 0
M  V30 2676 H 234.038 0.778022 1.4198 0
M  V30 2677 H 236.03 -1.051 3.90815 0
M  V30 2678 H 234.6 -1.25095 2.86478 0
M  V30 2679 H 233.82 1.05256 3.79888 0
M  V30 2680 H 235.108 0.90234 5.00735 0
M  V30 2681 H 234.506 -2.27417 5.17975 0
M  V30 2682 H 233.063 -2.26382 6.11224 0
M  V30 2683 N 236.496 -1.42363 0.676048 0
M  V30 2684 C 237.444 -2.32596 -0.0131507 0
M  V30 2685 C 238.438 -1.49891 -0.789238 0
M  V30 2686 O 239.644 -1.65955 -0.697061 0
M  V30 2687 H 236.019 -0.751647 -0.0230481 0
M  V30 2688 H 237.99 -2.88421 0.765243 0
M  V30 2689 C 236.739 -3.34479 -0.949702 0
M  V30 2690 H 236.062 -3.98158 -0.361938 0
M  V30 2691 H 237.502 -4.00199 -1.4006 0
M  V30 2692 C 235.961 -2.66838 -2.05667 0
M  V30 2693 O 236.491 -2.50124 -3.14326 0
M  V30 2694 N 234.697 -2.25843 -1.82875 0
M  V30 2695 H 234.244 -2.39637 -0.945085 0
M  V30 2696 H 234.202 -1.80918 -2.5713 0
M  V30 2697 N 237.974 -0.419461 -1.51915 0
M  V30 2698 C 238.904 0.391813 -2.30189 0
M  V30 2699 C 239.885 1.03699 -1.34836 0
M  V30 2700 O 241.07 1.04403 -1.63748 0
M  V30 2701 C 238.2 1.50312 -3.13087 0
M  V30 2702 C 237.154 0.9824 -4.16573 0
M  V30 2703 C 236.48 2.18809 -4.8788 0
M  V30 2704 C 237.78 0.0292356 -5.22292 0
M  V30 2705 H 239.474 -0.26135 -2.98257 0
M  V30 2706 H 237.02 -0.127134 -1.43438 0
M  V30 2707 H 238.973 2.07773 -3.66617 0
M  V30 2708 H 237.697 2.18431 -2.42807 0
M  V30 2709 H 236.356 0.430119 -3.64068 0
M  V30 2710 H 236.004 2.85507 -4.14119 0
M  V30 2711 H 235.704 1.84615 -5.57845 0
M  V30 2712 H 237.228 2.76858 -5.44226 0
M  V30 2713 H 238.642 0.512976 -5.71 0
M  V30 2714 H 237.039 -0.2244 -5.9968 0
M  V30 2715 H 238.109 -0.912931 -4.76228 0
M  V30 2716 N 239.452 1.56882 -0.150215 0
M  V30 2717 C 240.362 2.20494 0.801222 0
M  V30 2718 C 241.378 1.19019 1.26927 0
M  V30 2719 O 242.554 1.51607 1.32579 0
M  V30 2720 C 239.619 2.81659 2.02161 0
M  V30 2721 C 238.68 3.9827 1.60249 0
M  V30 2722 C 237.913 4.56508 2.7647 0
M  V30 2723 O 238.136 4.13627 3.92771 0
M  V30 2724 O 237.07 5.46719 2.51757 0
M  V30 2725 H 240.896 3.02315 0.289717 0
M  V30 2726 H 238.481 1.49202 0.0769684 0
M  V30 2727 H 240.363 3.20522 2.73576 0
M  V30 2728 H 239.038 2.02849 2.52258 0
M  V30 2729 H 237.945 3.64117 0.858477 0
M  V30 2730 H 239.278 4.78609 1.14864 0
M  V30 2731 N 240.93 -0.123565 1.57115 0
M  V30 2732 C 241.893 -1.13583 1.99076 0
M  V30 2733 C 242.893 -1.34564 0.880296 0
M  V30 2734 O 244.083 -1.31158 1.14644 0
M  V30 2735 C 241.215 -2.49128 2.32698 0
M  V30 2736 H 242.408 -0.775287 2.89706 0
M  V30 2737 H 239.961 -0.36771 1.51913 0
M  V30 2738 H 240.696 -2.90111 1.44934 0
M  V30 2739 H 240.481 -2.35255 3.13684 0
M  V30 2740 H 241.971 -3.2199 2.65918 0
M  V30 2741 N 242.408 -1.52605 -0.393616 0
M  V30 2742 C 243.341 -1.71798 -1.50202 0
M  V30 2743 C 244.319 -0.565743 -1.52441 0
M  V30 2744 O 245.503 -0.794987 -1.70916 0
M  V30 2745 C 242.63 -1.7714 -2.88685 0
M  V30 2746 C 241.676 -2.98845 -3.04292 0
M  V30 2747 S 242.509 -4.58909 -2.75976 0
M  V30 2748 C 243.665 -4.6706 -4.1666 0
M  V30 2749 H 243.898 -2.65542 -1.33696 0
M  V30 2750 H 241.431 -1.42839 -0.586195 0
M  V30 2751 H 243.389 -1.80903 -3.68489 0
M  V30 2752 H 242.05 -0.844969 -3.02521 0
M  V30 2753 H 241.243 -2.99111 -4.05646 0
M  V30 2754 H 240.845 -2.9305 -2.32374 0
M  V30 2755 H 243.137 -4.45391 -5.10523 0
M  V30 2756 H 244.08 -5.6905 -4.21412 0
M  V30 2757 H 244.488 -3.95944 -4.02354 0
M  V30 2758 N 243.887 0.651787 -1.4349 0
M  V30 2759 C 244.834 1.76462 -1.4876 0
M  V30 2760 C 245.804 1.62641 -0.337189 0
M  V30 2761 O 246.989 1.82864 -0.544544 0
M  V30 2762 C 244.129 3.14623 -1.41796 0
M  V30 2763 C 243.242 3.39568 -2.67053 0
M  V30 2764 C 242.377 4.67585 -2.52068 0
M  V30 2765 C 241.416 4.85639 -3.72587 0
M  V30 2766 N 240.553 6.04915 -3.56402 0
M  V30 2767 H 245.393 1.71293 -2.43849 0
M  V30 2768 H 242.93 0.835889 -1.21043 0
M  V30 2769 H 244.888 3.94496 -1.35753 0
M  V30 2770 H 243.518 3.18859 -0.50288 0
M  V30 2771 H 242.57 2.53783 -2.8337 0
M  V30 2772 H 243.882 3.48795 -3.56572 0
M  V30 2773 H 243.036 5.55586 -2.4374 0
M  V30 2774 H 241.775 4.60681 -1.60075 0
M  V30 2775 H 240.78 3.96073 -3.81321 0
M  V30 2776 H 242.005 4.94372 -4.65589 0
M  V30 2777 H 239.951 5.9914 -2.67146 0
M  V30 2778 H 239.868 6.15106 -4.39524 0
M  V30 2779 H 241.136 6.95533 -3.51929 0
M  V30 2780 N 245.365 1.30045 0.890287 0
M  V30 2781 C 246.613 1.18327 1.63839 0
M  V30 2782 C 246.934 -0.263455 1.93212 0
M  V30 2783 O 246.204 -1.17856 1.56482 0
M  V30 2784 H 244.784 0.434933 0.607324 0
M  V30 2785 H 247.446 1.631 1.06698 0
M  V30 2786 H 246.542 1.74024 2.59079 0
M  V30 2787 N 246.843 -1.10192 1.12674 0
M  V30 2788 C 248.259 -1.34235 0.863317 0
M  V30 2789 C 248.459 -1.95062 -0.505277 0
M  V30 2790 O 247.515 -2.19192 -1.25345 0
M  V30 2791 C 248.828 -2.2616 1.98172 0
M  V30 2792 C 250.376 -2.3969 2.0129 0
M  V30 2793 C 250.851 -3.34946 3.1237 0
M  V30 2794 N 252.342 -3.42515 3.11829 0
M  V30 2795 C 253.077 -4.16199 3.94419 0
M  V30 2796 N 252.573 -4.92747 4.87004 0
M  V30 2797 N 254.366 -4.11843 3.82547 0
M  V30 2798 H 246.517 -0.690798 2.00853 0
M  V30 2799 H 248.78 -0.366774 0.874174 0
M  V30 2800 H 248.486 -1.8868 2.96804 0
M  V30 2801 H 248.36 -3.26488 1.88906 0
M  V30 2802 H 250.747 -2.76438 1.03276 0
M  V30 2803 H 250.828 -1.39169 2.14629 0
M  V30 2804 H 250.472 -2.98923 4.10619 0
M  V30 2805 H 250.402 -4.35353 2.96269 0
M  V30 2806 H 252.893 -2.87926 2.44759 0
M  V30 2807 H 253.206 -5.46376 5.46528 0
M  V30 2808 H 251.551 -4.91862 4.91016 0
M  V30 2809 H 254.742 -3.51136 3.0955 0
M  V30 2810 H 254.915 -4.69007 4.47142 0
M  V30 2811 N 248.321 -0.919034 -1.28029 0
M  V30 2812 C 249.268 -0.410005 -2.27129 0
M  V30 2813 C 250.238 0.518405 -1.57803 0
M  V30 2814 O 251.423 0.439451 -1.8567 0
M  V30 2815 C 248.563 0.339054 -3.4343 0
M  V30 2816 C 247.676 -0.622468 -4.27492 0
M  V30 2817 C 246.811 0.145567 -5.31001 0
M  V30 2818 C 245.85 -0.809226 -6.06727 0
M  V30 2819 N 244.987 -0.0743728 -7.02061 0
M  V30 2820 H 249.827 -1.26011 -2.70047 0
M  V30 2821 H 247.364 -0.632663 -1.328 0
M  V30 2822 H 249.322 0.789586 -4.0966 0
M  V30 2823 H 247.952 1.15346 -3.01488 0
M  V30 2824 H 247.004 -1.19153 -3.61257 0
M  V30 2825 H 248.316 -1.35252 -4.80113 0
M  V30 2826 H 247.47 0.656417 -6.03139 0
M  V30 2827 H 246.209 0.908643 -4.79161 0
M  V30 2828 H 245.214 -1.3314 -5.33436 0
M  V30 2829 H 246.439 -1.57194 -6.60656 0
M  V30 2830 H 244.385 0.670616 -6.52563 0
M  V30 2831 H 244.302 -0.744157 -7.52329 0
M  V30 2832 H 245.57 0.416109 -7.78389 0
M  V30 2833 N 249.799 1.42003 -0.683588 0
M  V30 2834 C 251.045 2.01712 -0.209825 0
M  V30 2835 C 251.378 1.53968 1.18353 0
M  V30 2836 O 250.653 0.745661 1.79639 0
M  V30 2837 C 250.936 3.59202 -0.254197 0
M  V30 2838 C 250.789 4.17102 -1.68363 0
M  V30 2839 C 252.108 4.38344 0.392709 0
M  V30 2840 H 249.227 0.732891 -0.0777189 0
M  V30 2841 H 251.869 1.68909 -0.87004 0
M  V30 2842 H 250.019 3.87278 0.307954 0
M  V30 2843 H 251.691 3.99946 -2.29871 0
M  V30 2844 H 249.934 3.72597 -2.22157 0
M  V30 2845 H 250.605 5.26249 -1.6663 0
M  V30 2846 H 253.081 4.16011 -0.0859162 0
M  V30 2847 H 251.957 5.47901 0.331063 0
M  V30 2848 H 252.218 4.16887 1.47164 0
M  V30 2849 N 251.277 0.427512 1.51691 0
M  V30 2850 C 252.525 -0.141948 2.01601 0
M  V30 2851 C 252.846 -1.44067 1.31414 0
M  V30 2852 O 252.116 -1.90763 0.445658 0
M  V30 2853 H 250.696 -0.0554468 0.744939 0
M  V30 2854 H 253.358 0.567968 1.86441 0
M  V30 2855 H 252.454 -0.324913 3.10404 0
M  V30 2856 N 252.755 -1.56801 0.158532 0
M  V30 2857 C 254.166 -1.83189 -0.360366 0
M  V30 2858 C 254.517 -1.07778 -1.63946 0
M  V30 2859 O 253.642 -0.326718 -2.13919 0
M  V30 2860 C 254.237 -3.32297 -0.660595 0
M  V30 2861 C 252.796 -3.59227 -1.12398 0
M  V30 2862 C 251.943 -2.76877 -0.153097 0
M  V30 2863 H 254.894 -1.54008 0.383031 0
M  V30 2864 H 254.915 -3.4908 -1.51405 0
M  V30 2865 H 254.427 -3.87156 0.270527 0
M  V30 2866 H 252.528 -3.09766 -2.07064 0
M  V30 2867 H 252.641 -4.67632 -1.04197 0
M  V30 2868 H 251.005 -2.46319 -0.647983 0
M  V30 2869 H 251.788 -3.34511 0.77182 0
M  V30 2870 N 254.233 0.115231 -1.57178 0
M  V30 2871 C 255.479 0.818565 -1.86202 0
M  V30 2872 C 255.834 1.77316 -0.746785 0
M  V30 2873 O 255.127 1.89923 0.25291 0
M  V30 2874 C 255.321 1.60324 -3.19423 0
M  V30 2875 C 255.15 0.726138 -4.43799 0
M  V30 2876 C 253.92 0.379535 -5.03873 0
M  V30 2877 C 256.118 0.0420774 -5.14283 0
M  V30 2878 N 254.1 -0.507841 -6.11796 0
M  V30 2879 C 255.471 -0.704152 -6.15988 0
M  V30 2880 C 257.526 -0.0339486 -4.97888 0
M  V30 2881 C 256.229 -1.51927 -7.03072 0
M  V30 2882 C 258.255 -0.835906 -5.85463 0
M  V30 2883 C 257.617 -1.57031 -6.86673 0
M  V30 2884 H 253.716 0.276343 -0.731545 0
M  V30 2885 H 256.3 0.0821032 -1.94527 0
M  V30 2886 H 254.471 2.31072 -3.12186 0
M  V30 2887 H 256.203 2.2522 -3.36241 0
M  V30 2888 H 252.958 0.722634 -4.68054 0
M  V30 2889 H 253.382 -0.94349 -6.70393 0
M  V30 2890 H 258.024 0.519496 -4.19596 0
M  V30 2891 H 255.742 -2.08386 -7.80769 0
M  V30 2892 H 259.328 -0.89714 -5.74841 0
M  V30 2893 H 258.208 -2.18088 -7.53264 0
M  V30 2894 N 255.711 1.52812 0.385517 0
M  V30 2895 C 256.641 1.80808 1.47752 0
M  V30 2896 C 257.622 0.660318 1.5676 0
M  V30 2897 O 258.807 0.908246 1.71652 0
M  V30 2898 C 255.937 1.98008 2.85324 0
M  V30 2899 C 254.891 3.13709 2.91154 0
M  V30 2900 C 254.217 3.16169 4.31209 0
M  V30 2901 C 255.517 4.52709 2.60483 0
M  V30 2902 H 257.211 2.72253 1.24573 0
M  V30 2903 H 254.757 1.31003 0.597839 0
M  V30 2904 H 256.71 2.16176 3.61726 0
M  V30 2905 H 255.434 1.03255 3.09848 0
M  V30 2906 H 254.093 2.95329 2.17201 0
M  V30 2907 H 253.741 2.19092 4.52778 0
M  V30 2908 H 253.441 3.93894 4.36029 0
M  V30 2909 H 254.965 3.36496 5.09512 0
M  V30 2910 H 256.379 4.71173 3.26602 0
M  V30 2911 H 254.776 5.32528 2.76648 0
M  V30 2912 H 255.846 4.59186 1.55809 0
M  V30 2913 N 257.189 -0.644168 1.43834 0
M  V30 2914 C 258.414 -1.43642 1.49605 0
M  V30 2915 C 258.839 -1.8773 0.117913 0
M  V30 2916 O 258.197 -1.57938 -0.890239 0
M  V30 2917 C 258.245 -2.6416 2.45463 0
M  V30 2918 O 257.349 -3.63538 1.94714 0
M  V30 2919 H 256.69 -0.430329 0.50568 0
M  V30 2920 H 259.22 -0.787448 1.8884 0
M  V30 2921 H 259.23 -3.11864 2.63068 0
M  V30 2922 H 257.905 -2.31414 3.45572 0
M  V30 2923 H 256.482 -3.2273 1.86814 0
M  V30 2924 N 258.668 -1.30515 -0.883378 0
M  V30 2925 C 259.598 -1.19607 -2.00541 0
M  V30 2926 C 260.579 -0.086346 -1.69881 0
M  V30 2927 O 261.764 -0.268654 -1.92333 0
M  V30 2928 C 258.894 -0.888758 -3.35736 0
M  V30 2929 C 257.848 -1.95659 -3.8066 0
M  V30 2930 C 257.174 -1.50224 -5.13164 0
M  V30 2931 C 258.474 -3.36788 -3.99213 0
M  V30 2932 H 260.168 -2.13476 -2.09925 0
M  V30 2933 H 257.714 -1.02775 -1.00863 0
M  V30 2934 H 259.667 -0.799094 -4.13754 0
M  V30 2935 H 258.391 0.0856125 -3.26488 0
M  V30 2936 H 257.05 -2.03591 -3.04871 0
M  V30 2937 H 256.698 -0.516092 -5.00345 0
M  V30 2938 H 256.398 -2.2165 -5.44192 0
M  V30 2939 H 257.922 -1.42639 -5.93706 0
M  V30 2940 H 259.336 -3.31605 -4.67665 0
M  V30 2941 H 257.733 -4.06314 -4.41621 0
M  V30 2942 H 258.803 -3.78561 -3.03017 0
M  V30 2943 N 260.146 1.09593 -1.13257 0
M  V30 2944 C 261.423 1.78293 -0.804432 0
M  V30 2945 C 261.803 1.99004 0.70431 0
M  V30 2946 O 261.151 1.59007 1.641 0
M  V30 2947 C 261.361 3.10707 -1.5894 0
M  V30 2948 C 262.709 3.85443 -1.78099 0
M  V30 2949 O 263.733 3.20454 -1.55525 0
M  V30 2950 O 262.592 5.02108 -2.15753 0
M  V30 2951 H 259.686 0.773156 -0.293528 0
M  V30 2952 H 262.232 1.16164 -1.23709 0
M  V30 2953 H 261.004 2.91106 -2.61482 0
M  V30 2954 H 260.627 3.80558 -1.15157 0
M  V30 2955 N 261.624 0.925811 1.2754 0
M  V30 2956 C 262.87 0.566092 1.94739 0
M  V30 2957 C 263.203 -0.890057 1.72603 0
M  V30 2958 O 262.478 -1.63467 1.05399 0
M  V30 2959 C 262.761 0.89054 3.48915 0
M  V30 2960 C 262.614 2.4003 3.80402 0
M  V30 2961 C 263.933 0.395101 4.38323 0
M  V30 2962 H 261.052 0.20714 0.707292 0
M  V30 2963 H 263.694 1.15725 1.50691 0
M  V30 2964 H 261.844 0.387452 3.86563 0
M  V30 2965 H 263.516 2.97494 3.52555 0
M  V30 2966 H 261.759 2.85028 3.2702 0
M  V30 2967 H 262.43 2.57785 4.8811 0
M  V30 2968 H 264.906 0.826241 4.07814 0
M  V30 2969 H 263.782 0.651086 5.45025 0
M  V30 2970 H 264.043 -0.704798 4.36446 0
M  V30 2971 N 263.102 -1.41638 0.69111 0
M  V30 2972 C 264.012 -2.34588 0.0233487 0
M  V30 2973 C 265.028 -1.55987 -0.770984 0
M  V30 2974 O 266.204 -1.88486 -0.709569 0
M  V30 2975 C 263.269 -3.34684 -0.904851 0
M  V30 2976 C 262.33 -4.29176 -0.103225 0
M  V30 2977 C 261.563 -5.2449 -0.987216 0
M  V30 2978 O 261.786 -5.2514 -2.22674 0
M  V30 2979 O 260.72 -6.00295 -0.439281 0
M  V30 2980 H 264.546 -2.93261 0.789416 0
M  V30 2981 H 262.131 -1.42417 0.45142 0
M  V30 2982 H 264.013 -3.96133 -1.43724 0
M  V30 2983 H 262.688 -2.78461 -1.65049 0
M  V30 2984 H 261.595 -3.71089 0.473655 0
M  V30 2985 H 262.928 -4.88484 0.60365 0
M  V30 2986 N 264.58 -0.43555 -1.51462 0
M  V30 2987 C 265.828 0.131254 -2.01673 0
M  V30 2988 C 266.149 1.43368 -1.32177 0
M  V30 2989 O 265.419 1.90524 -0.455769 0
M  V30 2990 H 263.999 0.0514954 -0.745223 0
M  V30 2991 H 266.661 -0.577847 -1.86137 0
M  V30 2992 H 265.757 0.308446 -3.10572 0
M  V30 2993 N 266.058 1.56714 -0.166846 0
M  V30 2994 C 266.991 2.13577 0.80375 0
M  V30 2995 C 267.969 1.06464 1.22899 0
M  V30 2996 O 269.153 1.34413 1.32157 0
M  V30 2997 C 266.28 2.67168 2.0818 0
M  V30 2998 C 265.326 3.86612 1.80093 0
M  V30 2999 S 266.159 5.26565 0.97416 0
M  V30 3000 C 267.315 5.83558 2.26297 0
M  V30 3001 H 267.548 2.9557 0.320267 0
M  V30 3002 H 265.081 1.54326 0.0477555 0
M  V30 3003 H 267.039 2.98692 2.8159 0
M  V30 3004 H 265.7 1.85269 2.53642 0
M  V30 3005 H 264.893 4.22422 2.7491 0
M  V30 3006 H 264.495 3.55951 1.14781 0
M  V30 3007 H 266.787 5.962 3.21795 0
M  V30 3008 H 267.73 6.80731 1.94962 0
M  V30 3009 H 268.138 5.11944 2.37853 0
M  V30 3010 N 267.536 -0.106894 1.57237 0
M  V30 3011 C 268.483 -1.13049 2.01217 0
M  V30 3012 C 269.453 -1.40471 0.886403 0
M  V30 3013 O 270.638 -1.52133 1.15153 0
M  V30 3014 C 267.778 -2.4487 2.43172 0
M  V30 3015 C 266.891 -2.24281 3.69218 0
M  V30 3016 C 266.026 -3.49417 4.00101 0
M  V30 3017 C 265.065 -3.24038 5.19294 0
M  V30 3018 N 264.202 -4.41409 5.45988 0
M  V30 3019 H 269.042 -0.748456 2.88448 0
M  V30 3020 H 266.579 -0.358054 1.42676 0
M  V30 3021 H 268.537 -3.21786 2.65537 0
M  V30 3022 H 267.167 -2.80944 1.58967 0
M  V30 3023 H 266.219 -1.38224 3.54398 0
M  V30 3024 H 267.531 -2.01512 4.56283 0
M  V30 3025 H 266.685 -4.34746 4.2318 0
M  V30 3026 H 265.424 -3.75229 3.11535 0
M  V30 3027 H 264.429 -2.37102 4.96047 0
M  V30 3028 H 265.654 -2.99584 6.09447 0
M  V30 3029 H 263.6 -4.67319 4.60379 0
M  V30 3030 H 263.517 -4.21788 6.274 0
M  V30 3031 H 264.785 -5.27836 5.73593 0
M  V30 3032 N 269.014 -1.53014 -0.377408 0
M  V30 3033 C 270.262 -1.6829 -1.11906 0
M  V30 3034 C 270.583 -0.431206 -1.90173 0
M  V30 3035 O 269.853 0.554595 -1.87886 0
M  V30 3036 H 268.433 -0.620371 -0.416112 0
M  V30 3037 H 271.095 -1.90167 -0.426893 0
M  V30 3038 H 270.191 -2.53862 -1.8155 0
M  V30 3039 N 270.492 0.636531 -1.44174 0
M  V30 3040 C 271.439 1.74875 -1.50624 0
M  V30 3041 C 272.409 1.62275 -0.35442 0
M  V30 3042 O 273.594 1.82276 -0.563908 0
M  V30 3043 C 270.734 3.13102 -1.45125 0
M  V30 3044 C 269.847 3.36717 -2.7064 0
M  V30 3045 C 268.982 4.64885 -2.57013 0
M  V30 3046 C 268.021 4.8166 -3.77717 0
M  V30 3047 N 267.158 6.01101 -3.62798 0
M  V30 3048 H 271.998 1.68697 -2.45653 0
M  V30 3049 H 269.535 0.823004 -1.21922 0
M  V30 3050 H 271.493 3.93034 -1.39929 0
M  V30 3051 H 270.123 3.18308 -0.536671 0
M  V30 3052 H 269.175 2.50763 -2.86046 0
M  V30 3053 H 270.487 3.44993 -3.60252 0
M  V30 3054 H 269.641 5.52969 -2.49619 0
M  V30 3055 H 268.38 4.58957 -1.64953 0
M  V30 3056 H 267.385 3.92007 -3.85501 0
M  V30 3057 H 268.61 4.89406 -4.70807 0
M  V30 3058 H 266.556 5.96273 -2.73486 0
M  V30 3059 H 266.473 6.10409 -4.46023 0
M  V30 3060 H 267.741 6.91761 -3.59286 0
M  V30 3061 N 271.97 1.30982 0.876444 0
M  V30 3062 C 273.217 1.20296 1.62896 0
M  V30 3063 C 273.545 -0.240395 1.93009 0
M  V30 3064 O 272.8 -1.18733 1.55567 0
M  V30 3065 C 273.099 1.98572 2.9716 0
M  V30 3066 C 272.765 3.48125 2.86566 0
M  V30 3067 C 271.427 3.88905 2.83383 0
M  V30 3068 C 273.779 4.43322 2.74071 0
M  V30 3069 C 271.107 5.2316 2.65556 0
M  V30 3070 C 273.459 5.77695 2.57781 0
M  V30 3071 C 272.123 6.17704 2.52979 0
M  V30 3072 H 271.393 0.440193 0.59608 0
M  V30 3073 H 274.04 1.62177 1.01837 0
M  V30 3074 H 272.345 1.49352 3.62217 0
M  V30 3075 H 274.042 1.8769 3.54364 0
M  V30 3076 H 270.632 3.15723 2.89856 0
M  V30 3077 H 274.816 4.12752 2.75589 0
M  V30 3078 H 270.072 5.53241 2.60259 0
M  V30 3079 H 274.246 6.51091 2.47089 0
M  V30 3080 H 271.873 7.21678 2.38924 0
M  V30 3081 N 273.449 -1.08991 1.13837 0
M  V30 3082 C 274.379 -2.17771 0.842507 0
M  V30 3083 C 275.36 -1.6892 -0.20001 0
M  V30 3084 O 276.545 -1.94113 -0.0579731 0
M  V30 3085 C 273.675 -3.4589 0.312644 0
M  V30 3086 C 272.629 -4.08099 1.28992 0
M  V30 3087 C 271.955 -5.31098 0.619623 0
M  V30 3088 C 273.255 -4.50077 2.65005 0
M  V30 3089 H 274.949 -2.42777 1.75213 0
M  V30 3090 H 272.495 -1.16682 0.843875 0
M  V30 3091 H 274.448 -4.21297 0.0933043 0
M  V30 3092 H 273.172 -3.20419 -0.632382 0
M  V30 3093 H 271.831 -3.34717 1.49533 0
M  V30 3094 H 271.479 -5.0191 -0.33102 0
M  V30 3095 H 271.179 -5.73674 1.27167 0
M  V30 3096 H 272.703 -6.09224 0.409669 0
M  V30 3097 H 274.117 -5.16688 2.48407 0
M  V30 3098 H 272.514 -5.03553 3.26427 0
M  V30 3099 H 273.584 -3.62257 3.22332 0
M  V30 3100 N 274.927 -0.932562 -1.27047 0
M  V30 3101 C 276.343 -0.633544 -1.46487 0
M  V30 3102 C 276.543 0.815746 -1.84249 0
M  V30 3103 O 275.599 1.59319 -1.95892 0
M  V30 3104 C 276.912 -1.58758 -2.55375 0
M  V30 3105 C 278.46 -1.59634 -2.69232 0
M  V30 3106 C 278.935 -2.53747 -3.81283 0
M  V30 3107 N 280.426 -2.51982 -3.88664 0
M  V30 3108 C 281.161 -3.21491 -4.74796 0
M  V30 3109 N 280.657 -4.00395 -5.65381 0
M  V30 3110 N 282.45 -3.10485 -4.68568 0
M  V30 3111 H 274.601 -1.86946 -1.00821 0
M  V30 3112 H 276.864 -0.802897 -0.504044 0
M  V30 3113 H 276.57 -2.62172 -2.34432 0
M  V30 3114 H 276.444 -1.33301 -3.52861 0
M  V30 3115 H 278.831 -0.569488 -2.89553 0
M  V30 3116 H 278.912 -1.89142 -1.72218 0
M  V30 3117 H 278.556 -3.56545 -3.61715 0
M  V30 3118 H 278.486 -2.21532 -4.77735 0
M  V30 3119 H 280.977 -1.94681 -3.23895 0
M  V30 3120 H 281.29 -4.50406 -6.27976 0
M  V30 3121 H 279.635 -4.04498 -5.65161 0
M  V30 3122 H 282.826 -2.48331 -3.96799 0
M  V30 3123 H 282.999 -3.64925 -5.35475 0
M  V30 3124 N 276.405 1.4127 -0.698611 0
M  V30 3125 C 277.335 2.33447 -0.049629 0
M  V30 3126 C 278.316 1.51982 0.763898 0
M  V30 3127 O 279.501 1.80509 0.716257 0
M  V30 3128 C 276.631 3.35828 0.885267 0
M  V30 3129 C 275.585 4.27627 0.178613 0
M  V30 3130 C 274.911 5.20406 1.22807 0
M  V30 3131 C 276.211 5.13459 -0.956933 0
M  V30 3132 H 277.905 2.87966 -0.81951 0
M  V30 3133 H 275.451 1.38461 -0.395538 0
M  V30 3134 H 277.404 3.9924 1.34854 0
M  V30 3135 H 276.128 2.79666 1.68685 0
M  V30 3136 H 274.787 3.65643 -0.26466 0
M  V30 3137 H 274.435 4.60558 2.02226 0
M  V30 3138 H 274.135 5.82661 0.760239 0
M  V30 3139 H 275.659 5.86695 1.69179 0
M  V30 3140 H 277.073 5.70421 -0.573805 0
M  V30 3141 H 275.47 5.8467 -1.35205 0
M  V30 3142 H 276.54 4.50443 -1.79524 0
M  V30 3143 N 277.883 0.443576 1.51229 0
M  V30 3144 C 279.294 -0.0180867 1.86691 0
M  V30 3145 C 279.645 -1.41384 1.36033 0
M  V30 3146 O 278.77 -2.04291 0.713722 0
M  V30 3147 C 279.365 -0.039597 3.38777 0
M  V30 3148 C 277.924 -0.445692 3.73752 0
M  V30 3149 C 277.071 0.357584 2.74985 0
M  V30 3150 H 280.022 0.659138 1.44364 0
M  V30 3151 H 280.043 -0.847761 3.70936 0
M  V30 3152 H 279.555 0.976382 3.75617 0
M  V30 3153 H 277.656 -1.46704 3.42503 0
M  V30 3154 H 277.769 -0.166155 4.78812 0
M  V30 3155 H 276.133 -0.184973 2.54027 0
M  V30 3156 H 276.916 1.37256 3.14668 0
M  V30 3157 N 279.361 -1.56624 0.175154 0
M  V30 3158 C 280.638 -1.88688 -0.515373 0
M  V30 3159 C 281.018 -1.08564 -1.81044 0
M  V30 3160 O 280.366 -0.180703 -2.27784 0
M  V30 3161 C 280.576 -3.40768 -0.753552 0
M  V30 3162 C 281.924 -4.10587 -1.08184 0
M  V30 3163 O 282.948 -3.46106 -0.841961 0
M  V30 3164 O 281.807 -5.24512 -1.53459 0
M  V30 3165 H 278.901 -0.78301 -0.26613 0
M  V30 3166 H 281.447 -1.68347 0.213877 0
M  V30 3167 H 280.219 -3.90965 0.161829 0
M  V30 3168 H 279.842 -3.66733 -1.53598 0
M  V30 3169 N 280.839 0.0985539 -1.57292 0
M  V30 3170 C 282.255 0.45267 -1.53046 0
M  V30 3171 C 282.455 1.80713 -0.891342 0
M  V30 3172 O 281.511 2.4785 -0.482375 0
M  V30 3173 C 282.824 0.418341 -2.97776 0
M  V30 3174 C 284.372 0.500443 -3.08973 0
M  V30 3175 C 284.847 0.496297 -4.55303 0
M  V30 3176 N 286.338 0.557151 -4.59837 0
M  V30 3177 C 287.073 0.575726 -5.70502 0
M  V30 3178 N 286.569 0.550714 -6.90608 0
M  V30 3179 N 288.362 0.620277 -5.58667 0
M  V30 3180 H 280.513 -0.788673 -1.97215 0
M  V30 3181 H 282.776 -0.293188 -0.901524 0
M  V30 3182 H 282.482 -0.509659 -3.47988 0
M  V30 3183 H 282.356 1.2386 -3.56284 0
M  V30 3184 H 284.743 1.41886 -2.58751 0
M  V30 3185 H 284.824 -0.347894 -2.53423 0
M  V30 3186 H 284.468 -0.418162 -5.06176 0
M  V30 3187 H 284.398 1.3618 -5.08687 0
M  V30 3188 H 286.889 0.581816 -3.73394 0
M  V30 3189 H 287.202 0.568075 -7.70709 0
M  V30 3190 H 285.547 0.517816 -6.93068 0
M  V30 3191 H 288.738 0.637322 -4.63741 0
M  V30 3192 H 288.911 0.631283 -6.44918 0
M  V30 3193 N 282.317 1.53212 0.369288 0
M  V30 3194 C 283.227 1.82342 1.47609 0
M  V30 3195 C 284.243 0.711532 1.58787 0
M  V30 3196 O 285.419 1.0012 1.74751 0
M  V30 3197 C 282.484 2.00393 2.8292 0
M  V30 3198 C 281.545 3.24297 2.81301 0
M  V30 3199 C 280.778 3.41478 4.10157 0
M  V30 3200 O 281.001 2.63033 5.06132 0
M  V30 3201 O 279.935 4.34817 4.16194 0
M  V30 3202 H 283.761 2.76366 1.25918 0
M  V30 3203 H 281.346 1.38547 0.559034 0
M  V30 3204 H 283.228 2.13859 3.63101 0
M  V30 3205 H 281.903 1.09559 3.04596 0
M  V30 3206 H 280.81 3.16257 1.99831 0
M  V30 3207 H 282.143 4.15041 2.64578 0
M  V30 3208 N 283.795 -0.628877 1.44509 0
M  V30 3209 C 285.072 -1.38733 1.37886 0
M  V30 3210 C 285.452 -2.11065 0.0387008 0
M  V30 3211 O 284.8 -2.06476 -0.97878 0
M  V30 3212 C 285.01 -2.35188 2.57852 0
M  V30 3213 C 286.358 -2.9845 3.02014 0
M  V30 3214 O 287.382 -2.45513 2.58073 0
M  V30 3215 O 286.241 -3.94487 3.78209 0
M  V30 3216 H 283.335 -0.621015 0.54614 0
M  V30 3217 H 285.881 -0.653744 1.56602 0
M  V30 3218 H 284.653 -1.80855 3.46998 0
M  V30 3219 H 284.276 -3.1596 2.4136 0
M  V30 3220 N 285.273 -1.31445 -0.869486 0
M  V30 3221 C 286.203 -1.21727 -1.99261 0
M  V30 3222 C 287.184 -0.104359 -1.6978 0
M  V30 3223 O 288.369 -0.289038 -1.92037 0
M  V30 3224 C 285.499 -0.924317 -3.34774 0
M  V30 3225 C 284.453 -1.99685 -3.78563 0
M  V30 3226 C 283.779 -1.55658 -5.11541 0
M  V30 3227 C 285.079 -3.41003 -3.95619 0
M  V30 3228 H 286.773 -2.1569 -2.07649 0
M  V30 3229 H 284.319 -1.03839 -0.997675 0
M  V30 3230 H 286.272 -0.842934 -4.12883 0
M  V30 3231 H 284.996 0.0509793 -3.2656 0
M  V30 3232 H 283.655 -2.06813 -3.02694 0
M  V30 3233 H 283.303 -0.569132 -4.9977 0
M  V30 3234 H 283.003 -2.27409 -5.41811 0
M  V30 3235 H 284.527 -1.48928 -5.92159 0
M  V30 3236 H 285.941 -3.36547 -4.64122 0
M  V30 3237 H 284.338 -4.10975 -4.37286 0
M  V30 3238 H 285.408 -3.81754 -2.98985 0
M  V30 3239 N 286.751 1.08385 -1.14413 0
M  V30 3240 C 287.714 2.13486 -0.834048 0
M  V30 3241 C 288.714 1.59988 0.161418 0
M  V30 3242 O 289.904 1.74071 -0.0669575 0
M  V30 3243 C 287.036 3.4003 -0.243354 0
M  V30 3244 H 288.229 2.42425 -1.7655 0
M  V30 3245 H 285.782 1.24101 -0.950189 0
M  V30 3246 H 286.517 3.16726 0.696807 0
M  V30 3247 H 286.302 3.80157 -0.960367 0
M  V30 3248 H 287.792 4.17577 -0.0436242 0
M  V30 3249 N 288.23 0.939286 1.26551 0
M  V30 3250 C 289.16 0.465044 2.28822 0
M  V30 3251 C 290.141 -0.480692 1.63167 0
M  V30 3252 O 291.326 -0.382955 1.90387 0
M  V30 3253 C 288.456 -0.27234 3.46231 0
M  V30 3254 C 287.41 0.58666 4.2396 0
M  V30 3255 C 286.736 -0.280573 5.33963 0
M  V30 3256 C 288.036 1.85704 4.88171 0
M  V30 3257 H 289.73 1.31979 2.68741 0
M  V30 3258 H 287.276 0.636061 1.29191 0
M  V30 3259 H 289.229 -0.615133 4.16886 0
M  V30 3260 H 287.953 -1.16121 3.0526 0
M  V30 3261 H 286.612 0.91232 3.55067 0
M  V30 3262 H 286.26 -1.16874 4.89234 0
M  V30 3263 H 285.96 0.29076 5.8688 0
M  V30 3264 H 287.484 -0.618678 6.07458 0
M  V30 3265 H 288.898 1.58161 5.51052 0
M  V30 3266 H 287.295 2.37279 5.51197 0
M  V30 3267 H 288.365 2.56957 4.11219 0
M  V30 3268 N 289.708 -1.40897 0.706093 0
M  V30 3269 C 291.119 -1.84023 0.315052 0
M  V30 3270 C 291.47 -1.5906 -1.14866 0
M  V30 3271 O 290.595 -1.06651 -1.88293 0
M  V30 3272 C 291.19 -3.34055 0.565038 0
M  V30 3273 C 289.749 -3.7571 0.227806 0
M  V30 3274 C 288.896 -2.64204 0.842122 0
M  V30 3275 H 291.847 -1.303 0.905963 0
M  V30 3276 H 291.868 -3.80107 -0.172843 0
M  V30 3277 H 291.38 -3.52192 1.63042 0
M  V30 3278 H 289.481 -3.63172 -0.832895 0
M  V30 3279 H 289.594 -4.74103 0.690174 0
M  V30 3280 H 287.958 -2.53255 0.270893 0
M  V30 3281 H 288.741 -2.85155 1.91158 0
M  V30 3282 N 291.186 -0.45159 -1.50991 0
M  V30 3283 C 292.432 0.110237 -2.025 0
M  V30 3284 C 292.765 1.41109 -1.33424 0
M  V30 3285 O 292.04 1.89135 -0.453659 0
M  V30 3286 C 292.323 0.314271 -3.58726 0
M  V30 3287 C 292.176 -1.00623 -4.38401 0
M  V30 3288 C 293.495 1.07767 -4.26702 0
M  V30 3289 H 290.614 0.0385897 -0.735989 0
M  V30 3290 H 293.256 -0.593374 -1.80497 0
M  V30 3291 H 291.406 0.913601 -3.77605 0
M  V30 3292 H 293.078 -1.64064 -4.31139 0
M  V30 3293 H 291.321 -1.6075 -4.02917 0
M  V30 3294 H 291.992 -0.817341 -5.45915 0
M  V30 3295 H 294.468 0.56986 -4.12179 0
M  V30 3296 H 293.344 1.18921 -5.35863 0
M  V30 3297 H 293.605 2.10939 -3.88532 0
M  V30 3298 N 292.664 1.56529 -0.183458 0
M  V30 3299 C 293.612 2.19873 0.758845 0
M  V30 3300 C 294.606 1.16638 1.22849 0
M  V30 3301 O 295.812 1.3481 1.19274 0
M  V30 3302 H 292.187 0.7045 0.263029 0
M  V30 3303 H 294.158 2.97724 0.200755 0
M  V30 3304 C 292.907 2.86314 1.9728 0
M  V30 3305 H 292.23 3.65487 1.62047 0
M  V30 3306 H 293.67 3.3409 2.61075 0
M  V30 3307 C 292.129 1.86729 2.80418 0
M  V30 3308 O 292.659 1.36031 3.77966 0
M  V30 3309 N 290.865 1.55216 2.45675 0
M  V30 3310 H 290.412 1.96636 1.66409 0
M  V30 3311 H 290.37 0.888388 3.01588 0
M  V30 3312 N 294.142 -0.090211 1.57342 0
M  V30 3313 C 295.052 -1.12735 2.05738 0
M  V30 3314 C 296.068 -1.43557 0.983231 0
M  V30 3315 O 297.244 -1.54101 1.29672 0
M  V30 3316 C 294.309 -2.42659 2.47624 0
M  V30 3317 C 293.37 -2.18975 3.69254 0
M  V30 3318 C 292.603 -3.42704 4.09133 0
M  V30 3319 O 292.826 -4.51127 3.49057 0
M  V30 3320 O 291.76 -3.32003 5.02053 0
M  V30 3321 H 295.586 -0.746279 2.94388 0
M  V30 3322 H 293.171 -0.303064 1.46294 0
M  V30 3323 H 295.053 -3.19155 2.7517 0
M  V30 3324 H 293.728 -2.80182 1.62109 0
M  V30 3325 H 292.635 -1.40244 3.46818 0
M  V30 3326 H 293.968 -1.86342 4.55563 0
M  V30 3327 N 295.62 -1.53406 -0.361157 0
M  V30 3328 C 296.552 -1.76446 -1.46286 0
M  V30 3329 C 297.565 -0.645322 -1.49464 0
M  V30 3330 O 298.754 -0.921681 -1.52864 0
M  V30 3331 C 295.854 -1.83332 -2.85031 0
M  V30 3332 C 295.027 -3.13033 -3.05498 0
M  V30 3333 C 294.086 -3.11104 -4.24383 0
M  V30 3334 O 293.112 -3.84888 -4.19344 0
M  V30 3335 N 294.314 -2.32234 -5.32022 0
M  V30 3336 H 297.079 -2.71508 -1.26899 0
M  V30 3337 H 294.64 -1.52238 -0.550915 0
M  V30 3338 H 296.632 -1.79514 -3.62708 0
M  V30 3339 H 295.202 -0.955342 -2.97644 0
M  V30 3340 H 294.422 -3.30119 -2.15442 0
M  V30 3341 H 295.71 -3.9874 -3.16044 0
M  V30 3342 H 295.108 -1.71807 -5.38979 0
M  V30 3343 H 293.665 -2.3423 -6.08259 0
M  V30 3344 N 297.098 0.621204 -1.44841 0
M  V30 3345 C 298.028 1.74366 -1.55303 0
M  V30 3346 C 299.009 1.65199 -0.405385 0
M  V30 3347 O 300.194 1.83807 -0.626787 0
M  V30 3348 C 297.324 3.12931 -1.50637 0
M  V30 3349 C 296.278 3.36896 -2.63979 0
M  V30 3350 C 295.604 4.75594 -2.44366 0
M  V30 3351 C 296.904 3.28483 -4.06074 0
M  V30 3352 H 298.598 1.65867 -2.49256 0
M  V30 3353 H 296.144 0.796558 -1.19962 0
M  V30 3354 H 298.097 3.9124 -1.56555 0
M  V30 3355 H 296.821 3.22237 -0.532057 0
M  V30 3356 H 295.48 2.60972 -2.57467 0
M  V30 3357 H 295.128 4.81616 -1.45105 0
M  V30 3358 H 294.828 4.92586 -3.20364 0
M  V30 3359 H 296.352 5.5612 -2.52117 0
M  V30 3360 H 297.766 3.96684 -4.13902 0
M  V30 3361 H 296.163 3.57008 -4.82354 0
M  V30 3362 H 297.233 2.26133 -4.28943 0
M  V30 3363 N 298.576 1.31904 0.862503 0
M  V30 3364 C 299.822 1.22197 1.61851 0
M  V30 3365 C 300.155 -0.217641 1.92977 0
M  V30 3366 O 299.43 -1.15264 1.56666 0
M  V30 3367 C 299.713 2.07378 2.94391 0
M  V30 3368 C 299.566 3.59678 2.70096 0
M  V30 3369 C 300.885 1.92891 3.95577 0
M  V30 3370 H 298.004 0.445255 0.587296 0
M  V30 3371 H 300.646 1.6177 0.99651 0
M  V30 3372 H 298.796 1.73758 3.47477 0
M  V30 3373 H 300.468 4.03472 2.23625 0
M  V30 3374 H 298.711 3.82735 2.04197 0
M  V30 3375 H 299.382 4.14595 3.64438 0
M  V30 3376 H 301.858 2.22327 3.51724 0
M  V30 3377 H 300.734 2.54781 4.86187 0
M  V30 3378 H 300.995 0.894315 4.3296 0
M  V30 3379 N 300.054 -1.07777 1.14986 0
M  V30 3380 C 301.303 -1.79669 0.916617 0
M  V30 3381 C 301.616 -1.87474 -0.557917 0
M  V30 3382 O 302.822 -2.55845 -0.908617 0
M  V30 3383 C 301.278 -3.22848 1.59051 0
M  V30 3384 C 300.886 -3.23257 3.10176 0
M  V30 3385 C 302.63 -3.99379 1.43864 0
M  V30 3386 C 300.537 -4.61063 3.70372 0
M  V30 3387 H 299.467 -0.673349 0.33929 0
M  V30 3388 H 302.118 -1.21003 1.37951 0
M  V30 3389 H 300.5 -3.8168 1.0553 0
M  V30 3390 H 301.674 -2.74095 3.70417 0
M  V30 3391 H 299.989 -2.60222 3.25074 0
M  V30 3392 H 302.586 -5.0122 1.86232 0
M  V30 3393 H 302.929 -4.14511 0.385564 0
M  V30 3394 H 303.462 -3.47032 1.94457 0
M  V30 3395 H 300.201 -4.51135 4.7556 0
M  V30 3396 H 299.721 -5.1048 3.14913 0
M  V30 3397 H 301.4 -5.30034 3.71043 0
M  V30 3398 N 301.532 -0.945985 -1.26051 0
M  V30 3399 C 302.442 -0.465633 -2.29933 0
M  V30 3400 C 303.458 0.462761 -1.67733 0
M  V30 3401 O 304.634 0.341118 -1.9849 0
M  V30 3402 C 301.699 0.256994 -3.45746 0
M  V30 3403 C 300.76 -0.708549 -4.23412 0
M  V30 3404 C 299.993 -0.0203135 -5.33696 0
M  V30 3405 O 300.216 1.19571 -5.57726 0
M  V30 3406 O 299.15 -0.701459 -5.97799 0
M  V30 3407 H 302.976 -1.32866 -2.73094 0
M  V30 3408 H 300.561 -0.712071 -1.31339 0
M  V30 3409 H 302.443 0.663852 -4.16138 0
M  V30 3410 H 301.118 1.09533 -3.04605 0
M  V30 3411 H 300.025 -1.16545 -3.55483 0
M  V30 3412 H 301.358 -1.51465 -4.68315 0
M  V30 3413 N 303.011 1.40521 -0.713556 0
M  V30 3414 C 304.258 2.00923 -0.25219 0
M  V30 3415 C 304.586 1.56571 1.15395 0
M  V30 3416 O 303.841 0.775874 1.79663 0
M  V30 3417 C 304.14 3.56317 -0.278 0
M  V30 3418 C 303.806 4.20246 -1.63415 0
M  V30 3419 C 302.468 4.37422 -2.00538 0
M  V30 3420 C 304.82 4.55923 -2.52554 0
M  V30 3421 C 302.148 4.87558 -3.2635 0
M  V30 3422 C 304.5 5.07458 -3.77716 0
M  V30 3423 C 303.164 5.22843 -4.14959 0
M  V30 3424 H 302.434 0.735231 -0.0922829 0
M  V30 3425 H 305.081 1.68161 -0.916188 0
M  V30 3426 H 303.386 3.88976 0.469567 0
M  V30 3427 H 305.083 4.00883 0.0967819 0
M  V30 3428 H 301.673 4.07263 -1.33546 0
M  V30 3429 H 305.857 4.42291 -2.25149 0
M  V30 3430 H 301.113 4.97654 -3.55176 0
M  V30 3431 H 305.287 5.34041 -4.4696 0
M  V30 3432 H 302.914 5.61454 -5.12516 0
M  V30 3433 N 304.489 0.459591 1.5075 0
M  V30 3434 C 305.719 -0.0972338 2.06371 0
M  V30 3435 C 306.127 -1.35074 1.32483 0
M  V30 3436 O 305.47 -1.79637 0.384226 0
M  V30 3437 C 305.532 -0.462759 3.56509 0
M  V30 3438 C 305.196 0.687084 4.51805 0
M  V30 3439 C 306.193 1.56578 4.95761 0
M  V30 3440 C 303.878 0.874144 4.94635 0
M  V30 3441 C 305.872 2.61604 5.81242 0
M  V30 3442 C 303.559 1.92765 5.79901 0
M  V30 3443 C 304.557 2.79697 6.23104 0
M  V30 3444 O 304.245 3.83235 7.06673 0
M  V30 3445 H 303.977 -0.00140687 0.675999 0
M  V30 3446 H 306.531 0.644011 1.95043 0
M  V30 3447 H 304.761 -1.25703 3.65699 0
M  V30 3448 H 306.45 -0.953323 3.94546 0
M  V30 3449 H 307.216 1.4329 4.6335 0
M  V30 3450 H 303.095 0.207006 4.60535 0
M  V30 3451 H 306.639 3.29489 6.14884 0
M  V30 3452 H 302.536 2.06064 6.11725 0
M  V30 3453 H 303.304 3.80084 7.24899 0
M  V30 3454 N 305.967 -1.56429 0.191757 0
M  V30 3455 C 307.192 -2.02309 -0.456706 0
M  V30 3456 C 307.617 -1.07103 -1.5463 0
M  V30 3457 O 306.975 -0.0539677 -1.8122 0
M  V30 3458 C 307.023 -3.46654 -0.993159 0
M  V30 3459 O 306.127 -3.54559 -2.10622 0
M  V30 3460 H 305.468 -0.655303 -0.107114 0
M  V30 3461 H 307.998 -2.02364 0.301653 0
M  V30 3462 H 308.008 -3.86377 -1.31061 0
M  V30 3463 H 306.683 -4.1544 -0.195504 0
M  V30 3464 H 305.26 -3.26708 -1.79767 0
M  V30 3465 N 307.445 0.0818655 -1.57387 0
M  V30 3466 C 308.861 0.436412 -1.53517 0
M  V30 3467 C 309.061 1.79758 -0.910459 0
M  V30 3468 O 308.117 2.47324 -0.508636 0
M  V30 3469 C 309.43 0.386734 -2.98203 0
M  V30 3470 C 310.978 0.467644 -3.09487 0
M  V30 3471 C 311.453 0.447978 -4.55804 0
M  V30 3472 N 312.944 0.508348 -4.60402 0
M  V30 3473 C 313.679 0.515184 -5.71081 0
M  V30 3474 N 313.175 0.477435 -6.91153 0
M  V30 3475 N 314.968 0.560988 -5.59294 0
M  V30 3476 H 307.119 -0.809546 -1.96367 0
M  V30 3477 H 309.382 -0.302733 -0.898363 0
M  V30 3478 H 309.088 -0.546539 -3.47427 0
M  V30 3479 H 308.962 1.20075 -3.57578 0
M  V30 3480 H 311.349 1.39134 -2.60242 0
M  V30 3481 H 311.43 -0.374753 -2.5304 0
M  V30 3482 H 311.074 -0.471826 -5.05704 0
M  V30 3483 H 311.004 1.30777 -5.10103 0
M  V30 3484 H 313.495 0.54218 -3.7399 0
M  V30 3485 H 313.808 0.486299 -7.71268 0
M  V30 3486 H 312.153 0.444278 -6.93579 0
M  V30 3487 H 315.344 0.5881 -4.64391 0
M  V30 3488 H 315.517 0.562846 -6.45551 0
M  V30 3489 O 308.962 1.59916 0.225637 0
M  V30 3490 H 309.653 1.73205 0.867161 0
M  V30 END ATOM
M  V30 BEGIN BOND
M  V30 END BOND
M  V30 END CTAB
M  END
$$$$
