drugbank_target|P98066 Tumor necrosis factor-inducible gene 6 protein (DB00843; DB00945; DB08818)
 OpenBabel12092121013D

  0  0  0     0  0            999 V3000
M  V30 BEGIN CTAB
M  V30 COUNTS 11488 12334 0 0 0
M  V30 BEGIN ATOM
M  V30 1 H -1.547 9.37743 -1.21644 0
M  V30 2 O -1.44 8.89599 -0.40059 0
M  V30 3 P 0 8.91 0 0
M  V30 4 O 0.22 10.1746 0.733838 0
M  V30 5 O 0.79 8.73346 -1.23964 0
M  V30 6 O 0.25 7.66872 0.971405 0
M  V30 7 C -0.69 7.42405 2.04668 0
M  V30 8 C 0.04 6.86059 3.24661 0
M  V30 9 O 0.25 5.42934 3.03695 0
M  V30 10 C 1.44 7.41287 3.50796 0
M  V30 11 O 1.83 7.27073 4.86816 0
M  V30 12 C 2.32 6.5273 2.63741 0
M  V30 13 C 1.61 5.1842 2.73198 0
M  V30 14 N 1.66 4.38762 1.4784 0
M  V30 15 H -1.178 8.36899 2.3252 0
M  V30 16 H -1.45 6.70391 1.71179 0
M  V30 17 H -0.582 7.03638 4.13219 0
M  V30 18 H 2.073 4.59931 3.54016 0
M  V30 19 H 2.353 6.88995 1.59871 0
M  V30 20 H 3.344 6.4684 3.0373 0
M  V30 21 H 1.51 8.47002 3.20749 0
M  V30 22 P 3.37998 7.20834 5.23717 0
M  V30 23 O 3.59998 7.79853 6.57286 0
M  V30 24 O 4.16998 7.79239 4.12957 0
M  V30 25 O 3.62998 5.63315 5.29344 0
M  V30 26 C 2.68998 4.80255 6.01876 0
M  V30 27 C 3.41998 3.64202 6.65911 0
M  V30 28 O 3.62998 2.60694 5.64732 0
M  V30 29 C 4.81998 3.93473 7.1943 0
M  V30 30 O 5.20998 3.02071 8.21205 0
M  V30 31 C 5.69998 3.73047 5.97036 0
M  V30 32 C 4.98998 2.58828 5.25741 0
M  V30 33 N 5.03998 2.68068 3.77503 0
M  V30 34 H 2.20098 5.40332 6.79951 0
M  V30 35 H 1.93098 4.41613 5.32378 0
M  V30 36 H 2.79798 3.26331 7.47797 0
M  V30 37 P 6.75996 2.75334 8.47391 0
M  V30 38 O 6.97996 2.44571 9.90142 0
M  V30 39 O 7.54996 3.87688 7.92115 0
M  V30 40 O 7.00996 1.4459 7.59357 0
M  V30 41 C 6.06996 0.347608 7.69215 0
M  V30 42 C 6.79996 -0.96767 7.52806 0
M  V30 43 O 7.00996 -1.21036 6.1011 0
M  V30 44 C 8.19996 -1.04544 8.13308 0
M  V30 45 O 8.58996 -2.38311 8.41922 0
M  V30 46 C 9.07996 -0.491279 7.02284 0
M  V30 47 C 8.36996 -0.996264 5.77469 0
M  V30 48 N 8.41996 -0.0501916 4.62973 0
M  V30 49 H 5.58096 0.374722 8.67691 0
M  V30 50 H 5.31096 0.443485 6.90277 0
M  V30 51 H 6.17796 -1.75537 7.96793 0
M  V30 52 P 10.1399 -2.75334 8.47391 0
M  V30 53 O 10.3599 -3.84128 9.44797 0
M  V30 54 O 10.9299 -1.51947 8.68712 0
M  V30 55 O 10.3899 -3.29363 6.99321 0
M  V30 56 C 9.44994 -4.24011 6.4274 0
M  V30 57 C 10.1799 -5.20775 5.52155 0
M  V30 58 O 10.3899 -4.56534 4.22446 0
M  V30 59 C 11.5799 -5.62629 5.96531 0
M  V30 60 O 11.9699 -6.87667 5.41053 0
M  V30 61 C 12.4599 -4.52537 5.39283 0
M  V30 62 C 11.7499 -4.20027 4.08623 0
M  V30 63 N 11.7999 -2.76189 3.71603 0
M  V30 64 H 8.96094 -4.797 7.24003 0
M  V30 65 H 8.69094 -3.69856 5.84513 0
M  V30 66 H 9.55794 -6.10356 5.41441 0
M  V30 67 P 13.5199 -7.20834 5.23717 0
M  V30 68 O 13.7399 -8.66104 5.38572 0
M  V30 69 O 14.3099 -6.33544 6.1349 0
M  V30 70 O 13.7699 -6.7751 3.72168 0
M  V30 71 C 12.8299 -7.20825 2.7076 0
M  V30 72 C 13.5599 -7.45864 1.40599 0
M  V30 73 O 13.7699 -6.17651 0.734225 0
M  V30 74 C 14.9599 -8.05808 1.51899 0
M  V30 75 O 15.3499 -8.74358 0.335205 0
M  V30 76 C 15.8399 -6.83093 1.70294 0
M  V30 77 C 15.1299 -5.79992 0.836974 0
M  V30 78 N 15.1799 -4.41864 1.38293 0
M  V30 79 H 12.3409 -8.13644 3.0377 0
M  V30 80 H 12.0709 -6.42788 2.55485 0
M  V30 81 H 12.9379 -8.12039 0.792769 0
M  V30 82 P 16.8999 -8.91 1.09116e-15 0
M  V30 83 O 17.1199 -10.1736 -0.733766 0
M  V30 84 O 17.6899 -8.73247 1.2395 0
M  V30 85 O 17.1499 -7.66872 -0.971405 0
M  V30 86 C 16.2099 -7.42212 -2.04614 0
M  V30 87 C 16.9399 -6.86059 -3.24661 0
M  V30 88 O 17.1499 -5.42847 -3.03646 0
M  V30 89 C 18.3399 -7.41196 -3.50753 0
M  V30 90 O 18.7299 -7.27073 -4.86816 0
M  V30 91 C 19.2199 -6.5273 -2.63741 0
M  V30 92 C 18.5099 -5.1842 -2.73198 0
M  V30 93 N 18.5599 -4.38668 -1.47808 0
M  V30 94 C 18.7099 -3.02239 -1.60048 0
M  V30 95 O 18.7999 -2.46459 -2.67869 0
M  V30 96 N 18.7499 -2.32436 -0.408571 0
M  V30 97 C 18.6599 -2.85471 0.854993 0
M  V30 98 C 18.5099 -4.28918 0.887335 0
M  V30 99 C 18.4599 -5.00349 -0.255399 0
M  V30 100 H 15.7199 -8.36803 -2.32493 0
M  V30 101 H 15.4509 -6.701 -1.71105 0
M  V30 102 H 16.3179 -7.03551 -4.13168 0
M  V30 103 H 18.9729 -4.59773 -3.53894 0
M  V30 104 H 19.2519 -6.88995 -1.59871 0
M  V30 105 H 20.2439 -6.46749 -3.03687 0
M  V30 106 H 18.4099 -8.46908 -3.20714 0
M  V30 107 H 18.3389 -6.08548 -0.206986 0
M  V30 108 P 20.2799 -7.20834 -5.23717 0
M  V30 109 O 20.4999 -7.79853 -6.57286 0
M  V30 110 O 21.0699 -7.79239 -4.12957 0
M  V30 111 O 20.5299 -5.63315 -5.29344 0
M  V30 112 C 19.5899 -4.80255 -6.01876 0
M  V30 113 C 20.3199 -3.64202 -6.65911 0
M  V30 114 O 20.5299 -2.60694 -5.64732 0
M  V30 115 C 21.7199 -3.93473 -7.1943 0
M  V30 116 O 22.1099 -3.02071 -8.21205 0
M  V30 117 C 22.5999 -3.73047 -5.97036 0
M  V30 118 C 21.8899 -2.58828 -5.25741 0
M  V30 119 N 21.9399 -2.68068 -3.77503 0
M  V30 120 H 19.1009 -5.40332 -6.79951 0
M  V30 121 H 18.8309 -4.41613 -5.32378 0
M  V30 122 H 19.6979 -3.26331 -7.47797 0
M  V30 123 P 23.6599 -2.75334 -8.47391 0
M  V30 124 O 23.8799 -2.44571 -9.90142 0
M  V30 125 O 24.4499 -3.87688 -7.92115 0
M  V30 126 O 23.9099 -1.4459 -7.59357 0
M  V30 127 C 22.9699 -0.347608 -7.69215 0
M  V30 128 C 23.6999 0.96767 -7.52806 0
M  V30 129 O 23.9099 1.21036 -6.1011 0
M  V30 130 C 25.0999 1.04544 -8.13308 0
M  V30 131 O 25.4899 2.38311 -8.41922 0
M  V30 132 C 25.9799 0.491279 -7.02284 0
M  V30 133 C 25.2699 0.996264 -5.77469 0
M  V30 134 N 25.3199 0.0501916 -4.62973 0
M  V30 135 H 22.4809 -0.374722 -8.67691 0
M  V30 136 H 22.2109 -0.443485 -6.90277 0
M  V30 137 H 23.0779 1.75537 -7.96793 0
M  V30 138 P 27.0398 2.75334 -8.47391 0
M  V30 139 O 27.2598 3.84128 -9.44797 0
M  V30 140 O 27.8298 1.51947 -8.68712 0
M  V30 141 O 27.2898 3.29363 -6.99321 0
M  V30 142 C 26.3498 4.24011 -6.4274 0
M  V30 143 C 27.0798 5.20775 -5.52155 0
M  V30 144 O 27.2898 4.56534 -4.22446 0
M  V30 145 C 28.4798 5.62629 -5.96531 0
M  V30 146 O 28.8698 6.87667 -5.41053 0
M  V30 147 C 29.3598 4.52537 -5.39283 0
M  V30 148 C 28.6498 4.20027 -4.08623 0
M  V30 149 N 28.6998 2.76189 -3.71603 0
M  V30 150 H 25.8608 4.797 -7.24003 0
M  V30 151 H 25.5908 3.69856 -5.84513 0
M  V30 152 H 26.4578 6.10356 -5.41441 0
M  V30 153 P 30.4198 7.20834 -5.23717 0
M  V30 154 O 30.6398 8.66104 -5.38572 0
M  V30 155 O 31.2098 6.33544 -6.1349 0
M  V30 156 O 30.6698 6.7751 -3.72168 0
M  V30 157 C 29.7298 7.20825 -2.7076 0
M  V30 158 C 30.4598 7.45864 -1.40599 0
M  V30 159 O 30.6698 6.17651 -0.734225 0
M  V30 160 C 31.8598 8.05808 -1.51899 0
M  V30 161 O 32.2498 8.74358 -0.335205 0
M  V30 162 C 32.7398 6.83093 -1.70294 0
M  V30 163 C 32.0298 5.79992 -0.836974 0
M  V30 164 N 32.0798 4.41864 -1.38293 0
M  V30 165 H 29.2408 8.13644 -3.0377 0
M  V30 166 H 28.9708 6.42788 -2.55485 0
M  V30 167 H 29.8378 8.12039 -0.792769 0
M  V30 168 P 33.7998 8.91 -2.18232e-15 0
M  V30 169 O 34.0198 10.1726 0.733694 0
M  V30 170 O 34.5898 8.73148 -1.23936 0
M  V30 171 O 34.0498 7.66872 0.971405 0
M  V30 172 C 33.1098 7.42309 2.04641 0
M  V30 173 C 33.8398 6.86059 3.24661 0
M  V30 174 O 34.0498 5.42847 3.03646 0
M  V30 175 C 35.2398 7.41196 3.50753 0
M  V30 176 O 35.6298 7.27073 4.86816 0
M  V30 177 C 36.1198 6.5273 2.63741 0
M  V30 178 C 35.4098 5.1842 2.73198 0
M  V30 179 N 35.4598 4.38762 1.4784 0
M  V30 180 H 32.6208 8.36803 2.32493 0
M  V30 181 H 32.3508 6.70197 1.71129 0
M  V30 182 H 33.2178 7.03551 4.13168 0
M  V30 183 P 37.1798 7.20834 5.23717 0
M  V30 184 O 37.3998 7.80006 6.57415 0
M  V30 185 O 37.9698 7.79416 4.13051 0
M  V30 186 O 37.4298 5.63315 5.29344 0
M  V30 187 C 36.4898 4.80318 6.01954 0
M  V30 188 C 37.2198 3.64202 6.65911 0
M  V30 189 O 37.4298 2.60736 5.64823 0
M  V30 190 C 38.6198 3.93521 7.19518 0
M  V30 191 O 39.0098 3.02071 8.21205 0
M  V30 192 C 39.4998 3.73047 5.97036 0
M  V30 193 C 38.7898 2.58828 5.25741 0
M  V30 194 N 38.8398 2.68068 3.77503 0
M  V30 195 H 36.0018 5.40394 6.8003 0
M  V30 196 H 35.7298 4.41741 5.32532 0
M  V30 197 H 36.5978 3.26371 7.47889 0
M  V30 198 H 39.2528 1.64007 5.56746 0
M  V30 199 H 39.5328 4.63439 5.3432 0
M  V30 200 H 40.5238 3.44776 6.25925 0
M  V30 201 H 38.6898 4.96707 7.57347 0
M  V30 202 P 40.5598 2.75334 8.47391 0
M  V30 203 O 40.7798 2.44571 9.90142 0
M  V30 204 O 41.3498 3.87688 7.92115 0
M  V30 205 O 40.8098 1.4459 7.59357 0
M  V30 206 C 39.8698 0.347608 7.69215 0
M  V30 207 C 40.5998 -0.96767 7.52806 0
M  V30 208 O 40.8098 -1.21036 6.1011 0
M  V30 209 C 41.9998 -1.04544 8.13308 0
M  V30 210 O 42.3898 -2.38311 8.41922 0
M  V30 211 C 42.8798 -0.491279 7.02284 0
M  V30 212 C 42.1698 -0.996264 5.77469 0
M  V30 213 N 42.2198 -0.0501916 4.62973 0
M  V30 214 H 39.3808 0.374722 8.67691 0
M  V30 215 H 39.1108 0.443485 6.90277 0
M  V30 216 H 39.9778 -1.75537 7.96793 0
M  V30 217 P 43.9397 -2.75334 8.47391 0
M  V30 218 O 44.1597 -3.84128 9.44797 0
M  V30 219 O 44.7297 -1.51947 8.68712 0
M  V30 220 O 44.1897 -3.29363 6.99321 0
M  V30 221 C 43.2497 -4.24011 6.4274 0
M  V30 222 C 43.9797 -5.20775 5.52155 0
M  V30 223 O 44.1897 -4.56534 4.22446 0
M  V30 224 C 45.3797 -5.62629 5.96531 0
M  V30 225 O 45.7697 -6.87667 5.41053 0
M  V30 226 C 46.2597 -4.52537 5.39283 0
M  V30 227 C 45.5497 -4.20027 4.08623 0
M  V30 228 N 45.5997 -2.76189 3.71603 0
M  V30 229 H 42.7607 -4.797 7.24003 0
M  V30 230 H 42.4907 -3.69856 5.84513 0
M  V30 231 H 43.3577 -6.10356 5.41441 0
M  V30 232 P 47.3197 -7.20834 5.23717 0
M  V30 233 O 47.5397 -8.66189 5.38625 0
M  V30 234 O 48.1097 -6.33615 6.1356 0
M  V30 235 O 47.5697 -6.7751 3.72168 0
M  V30 236 C 46.6297 -7.20732 2.70725 0
M  V30 237 C 47.3597 -7.45864 1.40599 0
M  V30 238 O 47.5697 -6.17651 0.734225 0
M  V30 239 C 48.7597 -8.05808 1.51899 0
M  V30 240 O 49.1497 -8.74358 0.335205 0
M  V30 241 C 49.6397 -6.83093 1.70294 0
M  V30 242 C 48.9297 -5.79992 0.836974 0
M  V30 243 N 48.9797 -4.41769 1.38263 0
M  V30 244 C 49.1297 -3.38591 0.481702 0
M  V30 245 O 49.2197 -3.56839 -0.718452 0
M  V30 246 N 49.1697 -2.1206 1.03569 0
M  V30 247 C 49.0797 -1.80696 2.36966 0
M  V30 248 O 49.1297 -0.630473 2.74862 0
M  V30 249 C 48.9297 -2.94845 3.23898 0
M  V30 250 C 48.8197 -2.65253 4.70362 0
M  V30 251 C 48.8797 -4.19803 2.73435 0
M  V30 252 H 46.1397 -8.13644 3.0377 0
M  V30 253 H 45.8707 -6.42695 2.55448 0
M  V30 254 H 46.7377 -8.12039 0.792769 0
M  V30 255 H 49.3927 -5.79978 -0.160587 0
M  V30 256 H 49.6717 -6.51379 2.75643 0
M  V30 257 H 50.6637 -7.01734 1.34462 0
M  V30 258 H 48.8297 -8.73674 2.38337 0
M  V30 259 H 48.7587 -5.04492 3.4095 0
M  V30 260 H 49.7887 -2.83924 5.1913 0
M  V30 261 H 48.0517 -3.29824 5.15163 0
M  V30 262 H 48.5397 -1.59723 4.84449 0
M  V30 263 H 49.2757 -1.35644 0.399345 0
M  V30 264 P 50.6997 -8.91 3.27348e-15 0
M  V30 265 O 50.9197 -10.1726 -0.733694 0
M  V30 266 O 51.4897 -8.73148 1.23936 0
M  V30 267 O 50.9497 -7.66872 -0.971405 0
M  V30 268 C 50.0097 -7.42309 -2.04641 0
M  V30 269 C 50.7397 -6.86059 -3.24661 0
M  V30 270 O 50.9497 -5.42847 -3.03646 0
M  V30 271 C 52.1397 -7.41196 -3.50753 0
M  V30 272 O 52.5297 -7.27073 -4.86816 0
M  V30 273 C 53.0197 -6.5273 -2.63741 0
M  V30 274 C 52.3097 -5.1842 -2.73198 0
M  V30 275 N 52.3597 -4.38762 -1.4784 0
M  V30 276 H 49.5207 -8.36803 -2.32493 0
M  V30 277 H 49.2507 -6.70197 -1.71129 0
M  V30 278 H 50.1177 -7.03551 -4.13168 0
M  V30 279 P 54.0797 -7.20834 -5.23717 0
M  V30 280 O 54.2997 -7.79853 -6.57286 0
M  V30 281 O 54.8697 -7.79239 -4.12957 0
M  V30 282 O 54.3297 -5.63315 -5.29344 0
M  V30 283 C 53.3897 -4.80255 -6.01876 0
M  V30 284 C 54.1197 -3.64202 -6.65911 0
M  V30 285 O 54.3297 -2.60694 -5.64732 0
M  V30 286 C 55.5197 -3.93473 -7.1943 0
M  V30 287 O 55.9097 -3.02071 -8.21205 0
M  V30 288 C 56.3997 -3.73047 -5.97036 0
M  V30 289 C 55.6897 -2.58828 -5.25741 0
M  V30 290 N 55.7397 -2.68068 -3.77503 0
M  V30 291 C 55.6597 -3.79715 -2.96723 0
M  V30 292 N 55.7397 -3.5377 -1.68852 0
M  V30 293 C 55.8797 -2.15054 -1.63254 0
M  V30 294 C 56.0097 -1.28964 -0.518571 0
M  V30 295 O 56.0297 -1.56826 0.679156 0
M  V30 296 N 56.1297 0.0538097 -0.918425 0
M  V30 297 C 56.1297 0.494275 -2.22578 0
M  V30 298 N 56.2597 1.81086 -2.40434 0
M  V30 299 N 55.9997 -0.313645 -3.27502 0
M  V30 300 C 55.8797 -1.61829 -2.91033 0
M  V30 301 H 52.9007 -5.40332 -6.79951 0
M  V30 302 H 52.6307 -4.41613 -5.32378 0
M  V30 303 H 53.4977 -3.26331 -7.47797 0
M  V30 304 H 56.1527 -1.63422 -5.56814 0
M  V30 305 H 56.4317 -4.63374 -5.34244 0
M  V30 306 H 57.4237 -3.44728 -6.25838 0
M  V30 307 H 55.5897 -4.96652 -7.57263 0
M  V30 308 H 55.5407 -4.80617 -3.3614 0
M  V30 309 H 56.2227 0.742702 -0.199384 0
M  V30 310 H 56.2597 2.20598 -3.35588 0
M  V30 311 H 56.3607 2.43518 -1.58945 0
M  V30 312 P 57.4597 -2.75334 -8.47391 0
M  V30 313 O 57.6797 -2.44619 -9.90336 0
M  V30 314 O 58.2497 -3.87776 -7.92294 0
M  V30 315 O 57.7097 -1.4459 -7.59357 0
M  V30 316 C 56.7697 -0.347653 -7.69315 0
M  V30 317 C 57.4997 0.96767 -7.52806 0
M  V30 318 O 57.7097 1.21055 -6.10208 0
M  V30 319 C 58.8997 1.04557 -8.13408 0
M  V30 320 O 59.2897 2.38311 -8.41922 0
M  V30 321 C 59.7797 0.491279 -7.02284 0
M  V30 322 C 59.0697 0.996264 -5.77469 0
M  V30 323 N 59.1197 0.0501916 -4.62973 0
M  V30 324 H 56.2817 -0.374765 -8.67791 0
M  V30 325 H 56.0097 -0.443613 -6.90476 0
M  V30 326 H 56.8777 1.75559 -7.96891 0
M  V30 327 H 59.5327 1.94563 -5.46818 0
M  V30 328 H 59.8127 -0.608651 -7.04676 0
M  V30 329 H 60.8037 0.889796 -7.09039 0
M  V30 330 H 58.9697 0.433128 -9.04664 0
M  V30 331 P 60.8396 2.75334 -8.47391 0
M  V30 332 O 61.0596 3.84128 -9.44797 0
M  V30 333 O 61.6296 1.51947 -8.68712 0
M  V30 334 O 61.0896 3.29363 -6.99321 0
M  V30 335 C 60.1496 4.24011 -6.4274 0
M  V30 336 C 60.8796 5.20775 -5.52155 0
M  V30 337 O 61.0896 4.56534 -4.22446 0
M  V30 338 C 62.2796 5.62629 -5.96531 0
M  V30 339 O 62.6696 6.87667 -5.41053 0
M  V30 340 C 63.1596 4.52537 -5.39283 0
M  V30 341 C 62.4496 4.20027 -4.08623 0
M  V30 342 N 62.4996 2.76189 -3.71603 0
M  V30 343 C 62.4196 1.64862 -4.52822 0
M  V30 344 N 62.4996 0.512671 -3.88633 0
M  V30 345 C 62.6396 0.888083 -2.54977 0
M  V30 346 C 62.7696 0.094668 -1.38677 0
M  V30 347 O 62.7896 -1.13053 -1.28163 0
M  V30 348 N 62.8896 0.890102 -0.232633 0
M  V30 349 C 62.8896 2.26958 -0.21772 0
M  V30 350 N 63.0196 2.84626 0.97925 0
M  V30 351 N 62.7596 3.0178 -1.31033 0
M  V30 352 C 62.6396 2.26781 -2.43843 0
M  V30 353 H 59.6606 4.797 -7.24003 0
M  V30 354 H 59.3906 3.69856 -5.84513 0
M  V30 355 H 60.2576 6.10356 -5.41441 0
M  V30 356 H 62.9126 4.79061 -3.27488 0
M  V30 357 H 63.1916 3.64906 -6.05785 0
M  V30 358 H 64.1836 4.8868 -5.2125 0
M  V30 359 H 62.3496 5.66726 -7.06352 0
M  V30 360 H 62.3006 1.71169 -5.60966 0
M  V30 361 H 62.9826 0.419134 0.644739 0
M  V30 362 H 63.0196 3.87332 1.06098 0
M  V30 363 H 63.1206 2.26417 1.82483 0
M  V30 364 P 64.2196 7.20834 -5.23717 0
M  V30 365 O 64.4396 8.66104 -5.38572 0
M  V30 366 O 65.0096 6.33544 -6.1349 0
M  V30 367 O 64.4696 6.7751 -3.72168 0
M  V30 368 C 63.5296 7.20825 -2.7076 0
M  V30 369 C 64.2596 7.45864 -1.40599 0
M  V30 370 O 64.4696 6.17651 -0.734225 0
M  V30 371 C 65.6596 8.05808 -1.51899 0
M  V30 372 O 66.0496 8.74358 -0.335205 0
M  V30 373 C 66.5396 6.83093 -1.70294 0
M  V30 374 C 65.8296 5.79992 -0.836974 0
M  V30 375 N 65.8796 4.41864 -1.38293 0
M  V30 376 H 63.0406 8.13644 -3.0377 0
M  V30 377 H 62.7706 6.42788 -2.55485 0
M  V30 378 H 63.6376 8.12039 -0.792769 0
M  V30 379 P 67.5996 8.91 -4.36464e-15 0
M  V30 380 O 67.8196 10.1726 0.733694 0
M  V30 381 O 68.3896 8.73148 -1.23936 0
M  V30 382 O 67.8496 7.66872 0.971405 0
M  V30 383 C 66.9096 7.42309 2.04641 0
M  V30 384 C 67.6396 6.86059 3.24661 0
M  V30 385 O 67.8496 5.42847 3.03646 0
M  V30 386 C 69.0396 7.41196 3.50753 0
M  V30 387 O 69.4296 7.27073 4.86816 0
M  V30 388 C 69.9196 6.5273 2.63741 0
M  V30 389 C 69.2096 5.1842 2.73198 0
M  V30 390 N 69.2596 4.38762 1.4784 0
M  V30 391 H 66.4206 8.36803 2.32493 0
M  V30 392 H 66.1506 6.70197 1.71129 0
M  V30 393 H 67.0176 7.03551 4.13168 0
M  V30 394 P 70.9796 7.20834 5.23717 0
M  V30 395 O 71.1996 7.79853 6.57286 0
M  V30 396 O 71.7696 7.79239 4.12957 0
M  V30 397 O 71.2296 5.63315 5.29344 0
M  V30 398 C 70.2896 4.80255 6.01876 0
M  V30 399 C 71.0196 3.64202 6.65911 0
M  V30 400 O 71.2296 2.60694 5.64732 0
M  V30 401 C 72.4196 3.93473 7.1943 0
M  V30 402 O 72.8096 3.02071 8.21205 0
M  V30 403 C 73.2996 3.73047 5.97036 0
M  V30 404 C 72.5896 2.58828 5.25741 0
M  V30 405 N 72.6396 2.68068 3.77503 0
M  V30 406 H 69.8006 5.40332 6.79951 0
M  V30 407 H 69.5306 4.41613 5.32378 0
M  V30 408 H 70.3976 3.26331 7.47797 0
M  V30 409 P 74.3596 2.75334 8.47391 0
M  V30 410 O 74.5796 2.44571 9.90142 0
M  V30 411 O 75.1496 3.87688 7.92115 0
M  V30 412 O 74.6096 1.4459 7.59357 0
M  V30 413 C 73.6696 0.347608 7.69215 0
M  V30 414 C 74.3996 -0.96767 7.52806 0
M  V30 415 O 74.6096 -1.21036 6.1011 0
M  V30 416 C 75.7996 -1.04544 8.13308 0
M  V30 417 O 76.1896 -2.38311 8.41922 0
M  V30 418 C 76.6796 -0.491279 7.02284 0
M  V30 419 C 75.9696 -0.996264 5.77469 0
M  V30 420 N 76.0196 -0.0501916 4.62973 0
M  V30 421 C 75.9396 1.32786 4.63244 0
M  V30 422 N 76.0196 1.86957 3.44545 0
M  V30 423 C 76.1596 0.780241 2.58481 0
M  V30 424 C 76.2896 0.738536 1.17757 0
M  V30 425 O 76.3096 1.66794 0.372349 0
M  V30 426 N 76.4096 -0.58337 0.711393 0
M  V30 427 C 76.4096 -1.70816 1.51017 0
M  V30 428 N 76.5396 -2.87826 0.880757 0
M  V30 429 N 76.2796 -1.67126 2.8339 0
M  V30 430 C 76.1596 -0.401421 3.30572 0
M  V30 431 H 73.1806 0.374722 8.67691 0
M  V30 432 H 72.9106 0.443485 6.90277 0
M  V30 433 H 73.7776 -1.75537 7.96793 0
M  V30 434 H 76.4326 -1.95076 5.46529 0
M  V30 435 H 76.7116 0.608565 7.04577 0
M  V30 436 H 77.7036 -0.889672 7.08939 0
M  V30 437 H 75.8696 -0.43308 9.04564 0
M  V30 438 H 75.8206 1.91249 5.54442 0
M  V30 439 H 76.5026 -0.718054 -0.275244 0
M  V30 440 H 76.5396 -3.75721 1.41832 0
M  V30 441 H 76.6406 -2.90436 -0.145468 0
M  V30 442 P 77.7395 -2.75334 8.47391 0
M  V30 443 O 77.9595 -3.84128 9.44797 0
M  V30 444 O 78.5295 -1.51947 8.68712 0
M  V30 445 O 77.9895 -3.29363 6.99321 0
M  V30 446 C 77.0495 -4.24011 6.4274 0
M  V30 447 C 77.7795 -5.20775 5.52155 0
M  V30 448 O 77.9895 -4.56534 4.22446 0
M  V30 449 C 79.1795 -5.62629 5.96531 0
M  V30 450 O 79.5695 -6.87667 5.41053 0
M  V30 451 C 80.0595 -4.52537 5.39283 0
M  V30 452 C 79.3495 -4.20027 4.08623 0
M  V30 453 N 79.3995 -2.76189 3.71603 0
M  V30 454 H 76.5605 -4.797 7.24003 0
M  V30 455 H 76.2905 -3.69856 5.84513 0
M  V30 456 H 77.1575 -6.10356 5.41441 0
M  V30 457 P 81.1195 -7.20834 5.23717 0
M  V30 458 O 81.3395 -8.66104 5.38572 0
M  V30 459 O 81.9095 -6.33544 6.1349 0
M  V30 460 O 81.3695 -6.7751 3.72168 0
M  V30 461 C 80.4295 -7.20825 2.7076 0
M  V30 462 C 81.1595 -7.45864 1.40599 0
M  V30 463 O 81.3695 -6.17651 0.734225 0
M  V30 464 C 82.5595 -8.05808 1.51899 0
M  V30 465 O 82.9495 -8.74358 0.335205 0
M  V30 466 C 83.4395 -6.83093 1.70294 0
M  V30 467 C 82.7295 -5.79992 0.836974 0
M  V30 468 N 82.7795 -4.41864 1.38293 0
M  V30 469 H 79.9405 -8.13644 3.0377 0
M  V30 470 H 79.6705 -6.42788 2.55485 0
M  V30 471 H 80.5375 -8.12039 0.792769 0
M  V30 472 P 84.4995 -8.91 5.4558e-15 0
M  V30 473 O 84.7195 -10.1746 -0.733838 0
M  V30 474 O 85.2895 -8.73346 1.23964 0
M  V30 475 O 84.7495 -7.66872 -0.971405 0
M  V30 476 C 83.8095 -7.42405 -2.04668 0
M  V30 477 C 84.5395 -6.86059 -3.24661 0
M  V30 478 O 84.7495 -5.42934 -3.03695 0
M  V30 479 C 85.9395 -7.41287 -3.50796 0
M  V30 480 O 86.3295 -7.27073 -4.86816 0
M  V30 481 C 86.8195 -6.5273 -2.63741 0
M  V30 482 C 86.1095 -5.1842 -2.73198 0
M  V30 483 N 86.1595 -4.38762 -1.4784 0
M  V30 484 H 83.3215 -8.36899 -2.3252 0
M  V30 485 H 83.0495 -6.70391 -1.71179 0
M  V30 486 H 83.9175 -7.03638 -4.13219 0
M  V30 487 H 86.5725 -4.59931 -3.54016 0
M  V30 488 H 86.8525 -6.88995 -1.59871 0
M  V30 489 H 87.8435 -6.4684 -3.0373 0
M  V30 490 H 86.0095 -8.47002 -3.20749 0
M  V30 491 P 87.8795 -7.20834 -5.23717 0
M  V30 492 O 88.0995 -7.79853 -6.57286 0
M  V30 493 O 88.6695 -7.79239 -4.12957 0
M  V30 494 O 88.1295 -5.63315 -5.29344 0
M  V30 495 C 87.1895 -4.80255 -6.01876 0
M  V30 496 C 87.9195 -3.64202 -6.65911 0
M  V30 497 O 88.1295 -2.60694 -5.64732 0
M  V30 498 C 89.3195 -3.93473 -7.1943 0
M  V30 499 O 89.7095 -3.02071 -8.21205 0
M  V30 500 C 90.1995 -3.73047 -5.97036 0
M  V30 501 C 89.4895 -2.58828 -5.25741 0
M  V30 502 N 89.5395 -2.68068 -3.77503 0
M  V30 503 H 86.7005 -5.40332 -6.79951 0
M  V30 504 H 86.4305 -4.41613 -5.32378 0
M  V30 505 H 87.2975 -3.26331 -7.47797 0
M  V30 506 P 91.2595 -2.75334 -8.47391 0
M  V30 507 O 91.4795 -2.44571 -9.90142 0
M  V30 508 O 92.0495 -3.87688 -7.92115 0
M  V30 509 O 91.5095 -1.4459 -7.59357 0
M  V30 510 C 90.5695 -0.347608 -7.69215 0
M  V30 511 C 91.2995 0.96767 -7.52806 0
M  V30 512 O 91.5095 1.21036 -6.1011 0
M  V30 513 C 92.6995 1.04544 -8.13308 0
M  V30 514 O 93.0895 2.38311 -8.41922 0
M  V30 515 C 93.5795 0.491279 -7.02284 0
M  V30 516 C 92.8695 0.996264 -5.77469 0
M  V30 517 N 92.9195 0.0501916 -4.62973 0
M  V30 518 H 90.0805 -0.374722 -8.67691 0
M  V30 519 H 89.8105 -0.443485 -6.90277 0
M  V30 520 H 90.6775 1.75537 -7.96793 0
M  V30 521 P 94.6394 2.75334 -8.47391 0
M  V30 522 O 94.8594 3.84128 -9.44797 0
M  V30 523 O 95.4294 1.51947 -8.68712 0
M  V30 524 O 94.8894 3.29363 -6.99321 0
M  V30 525 C 93.9494 4.24011 -6.4274 0
M  V30 526 C 94.6794 5.20775 -5.52155 0
M  V30 527 O 94.8894 4.56534 -4.22446 0
M  V30 528 C 96.0794 5.62629 -5.96531 0
M  V30 529 O 96.4694 6.87667 -5.41053 0
M  V30 530 C 96.9594 4.52537 -5.39283 0
M  V30 531 C 96.2494 4.20027 -4.08623 0
M  V30 532 N 96.2994 2.76189 -3.71603 0
M  V30 533 H 93.4604 4.797 -7.24003 0
M  V30 534 H 93.1904 3.69856 -5.84513 0
M  V30 535 H 94.0574 6.10356 -5.41441 0
M  V30 536 P 98.0194 7.20834 -5.23717 0
M  V30 537 O 98.2394 8.66274 -5.38678 0
M  V30 538 O 98.8094 6.33687 -6.13629 0
M  V30 539 O 98.2694 6.7751 -3.72168 0
M  V30 540 C 97.3294 7.20919 -2.70795 0
M  V30 541 C 98.0594 7.45864 -1.40599 0
M  V30 542 O 98.2694 6.17751 -0.734343 0
M  V30 543 C 99.4594 8.05906 -1.51917 0
M  V30 544 O 99.8494 8.74358 -0.335205 0
M  V30 545 C 100.339 6.83093 -1.70294 0
M  V30 546 C 99.6294 5.79992 -0.836974 0
M  V30 547 N 99.6794 4.41864 -1.38293 0
M  V30 548 H 96.8414 8.13738 -3.03804 0
M  V30 549 H 96.5694 6.42974 -2.55559 0
M  V30 550 H 97.4374 8.12139 -0.792866 0
M  V30 551 H 100.092 5.80178 0.160643 0
M  V30 552 H 100.372 6.51379 -2.75643 0
M  V30 553 H 101.363 7.01832 -1.3448 0
M  V30 554 H 99.5294 8.73771 -2.38364 0
M  V30 555 P 101.399 8.91 -6.54696e-15 0
M  V30 556 O 101.619 10.1726 0.733694 0
M  V30 557 O 102.189 8.73148 -1.23936 0
M  V30 558 O 101.649 7.66872 0.971405 0
M  V30 559 C 100.709 7.42309 2.04641 0
M  V30 560 C 101.439 6.86059 3.24661 0
M  V30 561 O 101.649 5.42847 3.03646 0
M  V30 562 C 102.839 7.41196 3.50753 0
M  V30 563 O 103.229 7.27073 4.86816 0
M  V30 564 C 103.719 6.5273 2.63741 0
M  V30 565 C 103.009 5.1842 2.73198 0
M  V30 566 N 103.059 4.38762 1.4784 0
M  V30 567 H 100.22 8.36803 2.32493 0
M  V30 568 H 99.9504 6.70197 1.71129 0
M  V30 569 H 100.817 7.03551 4.13168 0
M  V30 570 P 104.779 7.20834 5.23717 0
M  V30 571 O 104.999 7.79853 6.57286 0
M  V30 572 O 105.569 7.79239 4.12957 0
M  V30 573 O 105.029 5.63315 5.29344 0
M  V30 574 C 104.089 4.80255 6.01876 0
M  V30 575 C 104.819 3.64202 6.65911 0
M  V30 576 O 105.029 2.60694 5.64732 0
M  V30 577 C 106.219 3.93473 7.1943 0
M  V30 578 O 106.609 3.02071 8.21205 0
M  V30 579 C 107.099 3.73047 5.97036 0
M  V30 580 C 106.389 2.58828 5.25741 0
M  V30 581 N 106.439 2.68068 3.77503 0
M  V30 582 H 103.6 5.40332 6.79951 0
M  V30 583 H 103.33 4.41613 5.32378 0
M  V30 584 H 104.197 3.26331 7.47797 0
M  V30 585 P 108.159 2.75334 8.47391 0
M  V30 586 O 108.379 2.44571 9.90142 0
M  V30 587 O 108.949 3.87688 7.92115 0
M  V30 588 O 108.409 1.4459 7.59357 0
M  V30 589 C 107.469 0.347608 7.69215 0
M  V30 590 C 108.199 -0.96767 7.52806 0
M  V30 591 O 108.409 -1.21036 6.1011 0
M  V30 592 C 109.599 -1.04544 8.13308 0
M  V30 593 O 109.989 -2.38311 8.41922 0
M  V30 594 C 110.479 -0.491279 7.02284 0
M  V30 595 C 109.769 -0.996264 5.77469 0
M  V30 596 N 109.819 -0.0501916 4.62973 0
M  V30 597 C 109.739 1.32786 4.63244 0
M  V30 598 N 109.819 1.86957 3.44545 0
M  V30 599 C 109.959 0.780241 2.58481 0
M  V30 600 C 110.089 0.738536 1.17757 0
M  V30 601 N 110.209 -0.58337 0.711393 0
M  V30 602 C 110.209 -1.70816 1.51017 0
M  V30 603 N 110.339 -2.87826 0.880757 0
M  V30 604 N 110.079 -1.67126 2.8339 0
M  V30 605 C 109.959 -0.401421 3.30572 0
M  V30 606 H 106.98 0.374722 8.67691 0
M  V30 607 H 106.71 0.443485 6.90277 0
M  V30 608 H 107.577 -1.75537 7.96793 0
M  V30 609 P 111.539 -2.75334 8.47391 0
M  V30 610 O 111.759 -3.84204 9.44982 0
M  V30 611 O 112.329 -1.51982 8.68909 0
M  V30 612 O 111.789 -3.29363 6.99321 0
M  V30 613 C 110.849 -4.24066 6.42823 0
M  V30 614 C 111.579 -5.20775 5.52155 0
M  V30 615 O 111.789 -4.56607 4.22514 0
M  V30 616 C 112.979 -5.62697 5.96604 0
M  V30 617 O 113.369 -6.87667 5.41053 0
M  V30 618 C 113.859 -4.52537 5.39283 0
M  V30 619 C 113.149 -4.20027 4.08623 0
M  V30 620 N 113.199 -2.76189 3.71603 0
M  V30 621 C 113.119 -1.66944 4.54297 0
M  V30 622 N 113.189 -0.536169 3.91344 0
M  V30 623 C 113.339 -0.901569 2.58849 0
M  V30 624 C 113.469 -0.146599 1.40236 0
M  V30 625 N 113.479 1.18234 1.37046 0
M  V30 626 N 113.589 -0.822941 0.249738 0
M  V30 627 C 113.579 -2.15179 0.280525 0
M  V30 628 N 113.459 -2.96414 1.30822 0
M  V30 629 C 113.339 -2.25804 2.44748 0
M  V30 630 H 110.361 -4.79756 7.24086 0
M  V30 631 H 110.089 -3.69963 5.84682 0
M  V30 632 H 110.957 -6.10431 5.41508 0
M  V30 633 H 113.612 -4.78816 3.28024 0
M  V30 634 H 113.892 -3.64957 6.05871 0
M  V30 635 H 114.883 -4.88748 5.21323 0
M  V30 636 H 113.049 -5.66789 7.0643 0
M  V30 637 H 113.008 -1.74684 5.62396 0
M  V30 638 H 113.389 1.71949 2.24394 0
M  V30 639 H 113.578 1.67511 0.470742 0
M  V30 640 H 113.686 -2.63704 -0.6828 0
M  V30 641 P 114.919 -7.20834 5.23717 0
M  V30 642 O 115.139 -8.66274 5.38678 0
M  V30 643 O 115.709 -6.33687 6.13629 0
M  V30 644 O 115.169 -6.7751 3.72168 0
M  V30 645 C 114.229 -7.20919 2.70795 0
M  V30 646 C 114.959 -7.45864 1.40599 0
M  V30 647 O 115.169 -6.17751 0.734343 0
M  V30 648 C 116.359 -8.05906 1.51917 0
M  V30 649 O 116.749 -8.74358 0.335205 0
M  V30 650 C 117.239 -6.83093 1.70294 0
M  V30 651 C 116.529 -5.79992 0.836974 0
M  V30 652 N 116.579 -4.41864 1.38293 0
M  V30 653 C 116.499 -4.02089 2.69407 0
M  V30 654 N 116.569 -2.73403 2.85089 0
M  V30 655 C 116.719 -2.25086 1.5642 0
M  V30 656 C 116.849 -0.942887 1.04836 0
M  V30 657 N 116.859 0.150999 1.80369 0
M  V30 658 N 116.969 -0.812565 -0.28167 0
M  V30 659 C 116.959 -1.90572 -1.03784 0
M  V30 660 N 116.839 -3.167 -0.683905 0
M  V30 661 C 116.719 -3.26538 0.652815 0
M  V30 662 H 113.741 -8.13738 3.03804 0
M  V30 663 H 113.469 -6.42974 2.55559 0
M  V30 664 H 114.337 -8.12139 0.792866 0
M  V30 665 H 116.992 -5.80178 -0.160643 0
M  V30 666 H 117.272 -6.51379 2.75643 0
M  V30 667 H 118.263 -7.01832 1.3448 0
M  V30 668 H 116.429 -8.73771 2.38364 0
M  V30 669 H 116.388 -4.7189 3.52311 0
M  V30 670 H 116.769 0.0721434 2.82608 0
M  V30 671 H 116.958 1.0785 1.36544 0
M  V30 672 H 117.066 -1.73207 -2.10241 0
M  V30 673 P 118.299 -8.91 7.63812e-15 0
M  V30 674 O 118.519 -10.1726 -0.733694 0
M  V30 675 O 119.089 -8.73148 1.23936 0
M  V30 676 O 118.549 -7.66872 -0.971405 0
M  V30 677 C 117.609 -7.42309 -2.04641 0
M  V30 678 C 118.339 -6.86059 -3.24661 0
M  V30 679 O 118.549 -5.42847 -3.03646 0
M  V30 680 C 119.739 -7.41196 -3.50753 0
M  V30 681 O 120.129 -7.27073 -4.86816 0
M  V30 682 C 120.619 -6.5273 -2.63741 0
M  V30 683 C 119.909 -5.1842 -2.73198 0
M  V30 684 N 119.959 -4.38762 -1.4784 0
M  V30 685 C 119.879 -4.81605 -0.168631 0
M  V30 686 N 119.959 -3.85454 0.713363 0
M  V30 687 C 120.099 -2.6994 -0.0566958 0
M  V30 688 C 120.229 -1.34815 0.338502 0
M  V30 689 O 120.249 -0.869548 1.47125 0
M  V30 690 N 120.349 -0.496304 -0.77465 0
M  V30 691 C 120.349 -0.908403 -2.09122 0
M  V30 692 N 120.479 0.0517805 -3.00955 0
M  V30 693 N 120.219 -2.17875 -2.46519 0
M  V30 694 C 120.099 -3.01988 -1.4033 0
M  V30 695 H 117.12 -8.36803 -2.32493 0
M  V30 696 H 116.85 -6.70197 -1.71129 0
M  V30 697 H 117.717 -7.03551 -4.13168 0
M  V30 698 H 120.372 -4.59498 -3.54415 0
M  V30 699 H 120.651 -6.88898 -1.59848 0
M  V30 700 H 121.643 -6.46749 -3.03687 0
M  V30 701 H 119.809 -8.46908 -3.20714 0
M  V30 702 H 119.76 -5.86405 0.105564 0
M  V30 703 H 120.442 0.483664 -0.597855 0
M  V30 704 H 120.479 -0.187865 -4.0116 0
M  V30 705 H 120.58 1.03585 -2.71726 0
M  V30 706 P 121.679 -7.20834 -5.23717 0
M  V30 707 O 121.899 -7.79853 -6.57286 0
M  V30 708 O 122.469 -7.79239 -4.12957 0
M  V30 709 O 121.929 -5.63315 -5.29344 0
M  V30 710 C 120.989 -4.80255 -6.01876 0
M  V30 711 C 121.719 -3.64202 -6.65911 0
M  V30 712 O 121.929 -2.60694 -5.64732 0
M  V30 713 C 123.119 -3.93473 -7.1943 0
M  V30 714 O 123.509 -3.02071 -8.21205 0
M  V30 715 C 123.999 -3.73047 -5.97036 0
M  V30 716 C 123.289 -2.58828 -5.25741 0
M  V30 717 N 123.339 -2.68068 -3.77503 0
M  V30 718 H 120.5 -5.40332 -6.79951 0
M  V30 719 H 120.23 -4.41613 -5.32378 0
M  V30 720 H 121.097 -3.26331 -7.47797 0
M  V30 721 P 125.059 -2.75334 -8.47391 0
M  V30 722 O 125.279 -2.44595 -9.90239 0
M  V30 723 O 125.849 -3.87732 -7.92204 0
M  V30 724 O 125.309 -1.4459 -7.59357 0
M  V30 725 C 124.369 -0.347563 -7.69115 0
M  V30 726 C 125.099 0.96767 -7.52806 0
M  V30 727 O 125.309 1.21036 -6.1011 0
M  V30 728 C 126.499 1.04544 -8.13308 0
M  V30 729 O 126.889 2.38311 -8.41922 0
M  V30 730 C 127.379 0.491279 -7.02284 0
M  V30 731 C 126.669 0.996264 -5.77469 0
M  V30 732 N 126.719 0.0501808 -4.62873 0
M  V30 733 C 126.869 0.588177 -3.36904 0
M  V30 734 O 126.959 1.78598 -3.17173 0
M  V30 735 N 126.909 -0.329694 -2.33686 0
M  V30 736 C 126.819 -1.6953 -2.45079 0
M  V30 737 C 126.669 -2.16933 -3.80505 0
M  V30 738 C 126.619 -1.30326 -4.83752 0
M  V30 739 H 123.879 -0.374722 -8.67691 0
M  V30 740 H 123.61 -0.443421 -6.90177 0
M  V30 741 H 124.477 1.75537 -7.96793 0
M  V30 742 H 127.132 1.94496 -5.46629 0
M  V30 743 H 127.411 -0.608651 -7.04676 0
M  V30 744 H 128.403 0.889672 -7.08939 0
M  V30 745 H 126.569 0.43308 -9.04564 0
M  V30 746 H 126.498 -1.68366 -5.8516 0
M  V30 747 P 128.439 2.75334 -8.47391 0
M  V30 748 O 128.659 3.84204 -9.44982 0
M  V30 749 O 129.229 1.51982 -8.68909 0
M  V30 750 O 128.689 3.29363 -6.99321 0
M  V30 751 C 127.749 4.24066 -6.42823 0
M  V30 752 C 128.479 5.20775 -5.52155 0
M  V30 753 O 128.689 4.56607 -4.22514 0
M  V30 754 C 129.879 5.62697 -5.96604 0
M  V30 755 O 130.269 6.87667 -5.41053 0
M  V30 756 C 130.759 4.52537 -5.39283 0
M  V30 757 C 130.049 4.20027 -4.08623 0
M  V30 758 N 130.099 2.76189 -3.71603 0
M  V30 759 H 127.261 4.79756 -7.24086 0
M  V30 760 H 126.989 3.69963 -5.84682 0
M  V30 761 H 127.857 6.10431 -5.41508 0
M  V30 762 H 130.512 4.78816 -3.28024 0
M  V30 763 H 130.792 3.64957 -6.05871 0
M  V30 764 H 131.783 4.88748 -5.21323 0
M  V30 765 H 129.949 5.66789 -7.0643 0
M  V30 766 P 131.819 7.20834 -5.23717 0
M  V30 767 O 132.039 8.66104 -5.38572 0
M  V30 768 O 132.609 6.33544 -6.1349 0
M  V30 769 O 132.069 6.7751 -3.72168 0
M  V30 770 C 131.129 7.20825 -2.7076 0
M  V30 771 C 131.859 7.45864 -1.40599 0
M  V30 772 O 132.069 6.17651 -0.734225 0
M  V30 773 C 133.259 8.05808 -1.51899 0
M  V30 774 O 133.649 8.74358 -0.335205 0
M  V30 775 C 134.139 6.83093 -1.70294 0
M  V30 776 C 133.429 5.79992 -0.836974 0
M  V30 777 N 133.479 4.41864 -1.38293 0
M  V30 778 C 133.399 3.99538 -2.69438 0
M  V30 779 N 133.479 2.69909 -2.84277 0
M  V30 780 C 133.619 2.21719 -1.5408 0
M  V30 781 C 133.749 0.891712 -1.06628 0
M  V30 782 N 133.869 0.856846 0.334985 0
M  V30 783 C 133.869 1.9641 1.15789 0
M  V30 784 N 133.999 1.72708 2.46522 0
M  V30 785 N 133.739 3.21165 0.713741 0
M  V30 786 C 133.619 3.26797 -0.639748 0
M  V30 787 H 130.64 8.13644 -3.0377 0
M  V30 788 H 130.37 6.42788 -2.55485 0
M  V30 789 H 131.237 8.12039 -0.792769 0
M  V30 790 P 135.199 8.91 -8.72928e-15 0
M  V30 791 O 135.419 10.1726 0.733694 0
M  V30 792 O 135.989 8.73148 -1.23936 0
M  V30 793 O 135.449 7.66872 0.971405 0
M  V30 794 C 134.509 7.42309 2.04641 0
M  V30 795 C 135.239 6.86059 3.24661 0
M  V30 796 O 135.449 5.42847 3.03646 0
M  V30 797 C 136.639 7.41196 3.50753 0
M  V30 798 O 137.029 7.27073 4.86816 0
M  V30 799 C 137.519 6.5273 2.63741 0
M  V30 800 C 136.809 5.1842 2.73198 0
M  V30 801 N 136.859 4.38762 1.4784 0
M  V30 802 H 134.02 8.36803 2.32493 0
M  V30 803 H 133.75 6.70197 1.71129 0
M  V30 804 H 134.617 7.03551 4.13168 0
M  V30 805 P 138.579 7.20834 5.23717 0
M  V30 806 O 138.799 7.80006 6.57415 0
M  V30 807 O 139.369 7.79416 4.13051 0
M  V30 808 O 138.829 5.63315 5.29344 0
M  V30 809 C 137.889 4.80318 6.01954 0
M  V30 810 C 138.619 3.64202 6.65911 0
M  V30 811 O 138.829 2.60736 5.64823 0
M  V30 812 C 140.019 3.93521 7.19518 0
M  V30 813 O 140.409 3.02071 8.21205 0
M  V30 814 C 140.899 3.73047 5.97036 0
M  V30 815 C 140.189 2.58828 5.25741 0
M  V30 816 N 140.239 2.68068 3.77503 0
M  V30 817 C 140.159 3.80474 2.99159 0
M  V30 818 N 140.229 3.55622 1.71925 0
M  V30 819 C 140.379 2.1832 1.65733 0
M  V30 820 C 140.509 1.28842 0.572777 0
M  V30 821 N 140.519 1.66875 -0.70098 0
M  V30 822 N 140.629 -0.016788 0.859836 0
M  V30 823 C 140.619 -0.398145 2.13316 0
M  V30 824 N 140.499 0.328224 3.22333 0
M  V30 825 C 140.379 1.62992 2.90383 0
M  V30 826 H 137.401 5.40394 6.8003 0
M  V30 827 H 137.129 4.41741 5.32532 0
M  V30 828 H 137.997 3.26371 7.47889 0
M  V30 829 H 140.652 1.64007 5.56746 0
M  V30 830 H 140.932 4.63439 5.3432 0
M  V30 831 H 141.923 3.44776 6.25925 0
M  V30 832 H 140.089 4.96707 7.57347 0
M  V30 833 H 140.048 4.8089 3.39924 0
M  V30 834 H 140.429 2.66547 -0.941919 0
M  V30 835 H 140.618 0.965341 -1.44766 0
M  V30 836 H 140.726 -1.46427 2.29697 0
M  V30 837 P 141.959 2.75334 8.47391 0
M  V30 838 O 142.179 2.44571 9.90142 0
M  V30 839 O 142.749 3.87688 7.92115 0
M  V30 840 O 142.209 1.4459 7.59357 0
M  V30 841 C 141.269 0.347608 7.69215 0
M  V30 842 C 141.999 -0.96767 7.52806 0
M  V30 843 O 142.209 -1.21036 6.1011 0
M  V30 844 C 143.399 -1.04544 8.13308 0
M  V30 845 O 143.789 -2.38311 8.41922 0
M  V30 846 C 144.279 -0.491279 7.02284 0
M  V30 847 C 143.569 -0.996264 5.77469 0
M  V30 848 N 143.619 -0.0501916 4.62973 0
M  V30 849 C 143.539 1.32786 4.63244 0
M  V30 850 N 143.619 1.86957 3.44545 0
M  V30 851 C 143.759 0.780241 2.58481 0
M  V30 852 C 143.889 0.738536 1.17757 0
M  V30 853 N 144.009 -0.58337 0.711393 0
M  V30 854 C 144.009 -1.70816 1.51017 0
M  V30 855 N 144.139 -2.87826 0.880757 0
M  V30 856 N 143.879 -1.67126 2.8339 0
M  V30 857 C 143.759 -0.401421 3.30572 0
M  V30 858 H 140.78 0.374722 8.67691 0
M  V30 859 H 140.51 0.443485 6.90277 0
M  V30 860 H 141.377 -1.75537 7.96793 0
M  V30 861 P 145.339 -2.75334 8.47391 0
M  V30 862 O 145.559 -3.84128 9.44797 0
M  V30 863 O 146.129 -1.51947 8.68712 0
M  V30 864 O 145.589 -3.29363 6.99321 0
M  V30 865 C 144.649 -4.24011 6.4274 0
M  V30 866 C 145.379 -5.20775 5.52155 0
M  V30 867 O 145.589 -4.56534 4.22446 0
M  V30 868 C 146.779 -5.62629 5.96531 0
M  V30 869 O 147.169 -6.87667 5.41053 0
M  V30 870 C 147.659 -4.52537 5.39283 0
M  V30 871 C 146.949 -4.20027 4.08623 0
M  V30 872 N 146.999 -2.76189 3.71603 0
M  V30 873 H 144.16 -4.797 7.24003 0
M  V30 874 H 143.89 -3.69856 5.84513 0
M  V30 875 H 144.757 -6.10356 5.41441 0
M  V30 876 P 148.719 -7.20834 5.23717 0
M  V30 877 O 148.939 -8.66104 5.38572 0
M  V30 878 O 149.509 -6.33544 6.1349 0
M  V30 879 O 148.969 -6.7751 3.72168 0
M  V30 880 C 148.029 -7.20825 2.7076 0
M  V30 881 C 148.759 -7.45864 1.40599 0
M  V30 882 O 148.969 -6.17651 0.734225 0
M  V30 883 C 150.159 -8.05808 1.51899 0
M  V30 884 O 150.549 -8.74358 0.335205 0
M  V30 885 C 151.039 -6.83093 1.70294 0
M  V30 886 C 150.329 -5.79992 0.836974 0
M  V30 887 N 150.379 -4.41864 1.38293 0
M  V30 888 C 150.299 -3.99538 2.69438 0
M  V30 889 N 150.379 -2.69909 2.84277 0
M  V30 890 C 150.519 -2.21719 1.5408 0
M  V30 891 C 150.649 -0.891712 1.06628 0
M  V30 892 O 150.669 0.161298 1.70137 0
M  V30 893 N 150.769 -0.856846 -0.334985 0
M  V30 894 C 150.769 -1.9641 -1.15789 0
M  V30 895 N 150.899 -1.72708 -2.46522 0
M  V30 896 N 150.639 -3.21165 -0.713741 0
M  V30 897 C 150.519 -3.26797 0.639748 0
M  V30 898 H 147.54 -8.13644 3.0377 0
M  V30 899 H 147.27 -6.42788 2.55485 0
M  V30 900 H 148.137 -8.12039 0.792769 0
M  V30 901 H 150.792 -5.80061 -0.166416 0
M  V30 902 H 151.071 -6.51287 2.75604 0
M  V30 903 H 152.063 -7.01734 1.34462 0
M  V30 904 H 150.229 -8.73674 2.38337 0
M  V30 905 H 150.18 -4.68207 3.53221 0
M  V30 906 H 150.862 0.0398818 -0.767965 0
M  V30 907 H 150.899 -2.50995 -3.13503 0
M  V30 908 H 151 -0.759148 -2.80716 0
M  V30 909 P 152.099 -8.91 9.82044e-15 0
M  V30 910 O 152.319 -10.1726 -0.733694 0
M  V30 911 O 152.889 -8.73148 1.23936 0
M  V30 912 O 152.349 -7.66872 -0.971405 0
M  V30 913 C 151.409 -7.42309 -2.04641 0
M  V30 914 C 152.139 -6.86059 -3.24661 0
M  V30 915 O 152.349 -5.42847 -3.03646 0
M  V30 916 C 153.539 -7.41196 -3.50753 0
M  V30 917 O 153.929 -7.27073 -4.86816 0
M  V30 918 C 154.419 -6.5273 -2.63741 0
M  V30 919 C 153.709 -5.1842 -2.73198 0
M  V30 920 N 153.759 -4.38762 -1.4784 0
M  V30 921 H 150.92 -8.36803 -2.32493 0
M  V30 922 H 150.65 -6.70197 -1.71129 0
M  V30 923 H 151.517 -7.03551 -4.13168 0
M  V30 924 P 155.479 -7.20834 -5.23717 0
M  V30 925 O 155.699 -7.7993 -6.57351 0
M  V30 926 O 156.269 -7.79328 -4.13004 0
M  V30 927 O 155.729 -5.63315 -5.29344 0
M  V30 928 C 154.789 -4.80193 -6.01798 0
M  V30 929 C 155.519 -3.64202 -6.65911 0
M  V30 930 O 155.729 -2.60694 -5.64732 0
M  V30 931 C 156.919 -3.93473 -7.1943 0
M  V30 932 O 157.309 -3.02071 -8.21205 0
M  V30 933 C 157.799 -3.73047 -5.97036 0
M  V30 934 C 157.089 -2.58828 -5.25741 0
M  V30 935 N 157.139 -2.6801 -3.77422 0
M  V30 936 C 157.289 -1.50443 -3.07133 0
M  V30 937 O 157.379 -0.419406 -3.61576 0
M  V30 938 N 157.329 -1.6403 -1.69677 0
M  V30 939 C 157.239 -2.81206 -0.986255 0
M  V30 940 C 157.089 -3.99158 -1.80325 0
M  V30 941 C 157.039 -3.89779 -3.1476 0
M  V30 942 H 154.299 -5.40332 -6.79951 0
M  V30 943 H 154.03 -4.41549 -5.32301 0
M  V30 944 H 154.897 -3.26331 -7.47797 0
M  V30 945 H 157.552 -1.6395 -5.56554 0
M  V30 946 H 157.831 -4.63439 -5.3432 0
M  V30 947 H 158.823 -3.44728 -6.25838 0
M  V30 948 H 156.989 -4.96652 -7.57263 0
M  V30 949 H 156.918 -4.80159 -3.74441 0
M  V30 950 P 158.859 -2.75334 -8.47391 0
M  V30 951 O 159.079 -2.44571 -9.90142 0
M  V30 952 O 159.649 -3.87688 -7.92115 0
M  V30 953 O 159.109 -1.4459 -7.59357 0
M  V30 954 C 158.169 -0.347608 -7.69215 0
M  V30 955 C 158.899 0.96767 -7.52806 0
M  V30 956 O 159.109 1.21036 -6.1011 0
M  V30 957 C 160.299 1.04544 -8.13308 0
M  V30 958 O 160.689 2.38311 -8.41922 0
M  V30 959 C 161.179 0.491279 -7.02284 0
M  V30 960 C 160.469 0.996264 -5.77469 0
M  V30 961 N 160.519 0.0501916 -4.62973 0
M  V30 962 H 157.68 -0.374722 -8.67691 0
M  V30 963 H 157.41 -0.443485 -6.90277 0
M  V30 964 H 158.277 1.75537 -7.96793 0
M  V30 965 P 162.239 2.75334 -8.47391 0
M  V30 966 O 162.459 3.84128 -9.44797 0
M  V30 967 O 163.029 1.51947 -8.68712 0
M  V30 968 O 162.489 3.29363 -6.99321 0
M  V30 969 C 161.549 4.24011 -6.4274 0
M  V30 970 C 162.279 5.20775 -5.52155 0
M  V30 971 O 162.489 4.56534 -4.22446 0
M  V30 972 C 163.679 5.62629 -5.96531 0
M  V30 973 O 164.069 6.87667 -5.41053 0
M  V30 974 C 164.559 4.52537 -5.39283 0
M  V30 975 C 163.849 4.20027 -4.08623 0
M  V30 976 N 163.899 2.76189 -3.71603 0
M  V30 977 H 161.06 4.797 -7.24003 0
M  V30 978 H 160.79 3.69856 -5.84513 0
M  V30 979 H 161.657 6.10356 -5.41441 0
M  V30 980 P 165.619 7.20834 -5.23717 0
M  V30 981 O 165.839 8.66189 -5.38625 0
M  V30 982 O 166.409 6.33615 -6.1356 0
M  V30 983 O 165.869 6.7751 -3.72168 0
M  V30 984 C 164.929 7.20732 -2.70725 0
M  V30 985 C 165.659 7.45864 -1.40599 0
M  V30 986 O 165.869 6.17651 -0.734225 0
M  V30 987 C 167.059 8.05808 -1.51899 0
M  V30 988 O 167.449 8.74358 -0.335205 0
M  V30 989 C 167.939 6.83093 -1.70294 0
M  V30 990 C 167.229 5.79992 -0.836974 0
M  V30 991 N 167.279 4.41769 -1.38263 0
M  V30 992 C 167.429 3.38591 -0.481702 0
M  V30 993 O 167.519 3.56839 0.718452 0
M  V30 994 N 167.469 2.1206 -1.03569 0
M  V30 995 C 167.379 1.80696 -2.36966 0
M  V30 996 O 167.429 0.630473 -2.74862 0
M  V30 997 C 167.229 2.94845 -3.23898 0
M  V30 998 C 167.119 2.65253 -4.70362 0
M  V30 999 C 167.179 4.19803 -2.73435 0
M  V30 1000 H 164.439 8.13644 -3.0377 0
M  V30 1001 H 164.17 6.42695 -2.55448 0
M  V30 1002 H 165.037 8.12039 -0.792769 0
M  V30 1003 H 167.692 5.79978 0.160587 0
M  V30 1004 H 167.971 6.51379 -2.75643 0
M  V30 1005 H 168.963 7.01734 -1.34462 0
M  V30 1006 H 167.129 8.73674 -2.38337 0
M  V30 1007 H 167.058 5.04492 -3.4095 0
M  V30 1008 H 168.088 2.83924 -5.1913 0
M  V30 1009 H 166.351 3.29824 -5.15163 0
M  V30 1010 H 166.839 1.59723 -4.84449 0
M  V30 1011 H 167.575 1.35644 -0.399345 0
M  V30 1012 P 168.999 8.91 -1.09116e-14 0
M  V30 1013 O 169.219 10.1736 0.733766 0
M  V30 1014 O 169.789 8.73247 -1.2395 0
M  V30 1015 O 169.249 7.66872 0.971405 0
M  V30 1016 C 168.309 7.42212 2.04614 0
M  V30 1017 C 169.039 6.86059 3.24661 0
M  V30 1018 O 169.249 5.42847 3.03646 0
M  V30 1019 C 170.439 7.41196 3.50753 0
M  V30 1020 O 170.829 7.27073 4.86816 0
M  V30 1021 C 171.319 6.5273 2.63741 0
M  V30 1022 C 170.609 5.1842 2.73198 0
M  V30 1023 N 170.659 4.38668 1.47808 0
M  V30 1024 C 170.809 3.02239 1.60048 0
M  V30 1025 O 170.899 2.46459 2.67869 0
M  V30 1026 N 170.849 2.32436 0.408571 0
M  V30 1027 C 170.759 2.85471 -0.854993 0
M  V30 1028 C 170.609 4.28918 -0.887335 0
M  V30 1029 C 170.559 5.00349 0.255399 0
M  V30 1030 H 167.819 8.36803 2.32493 0
M  V30 1031 H 167.55 6.701 1.71105 0
M  V30 1032 H 168.417 7.03551 4.13168 0
M  V30 1033 H 171.072 4.59773 3.53894 0
M  V30 1034 H 171.351 6.88995 1.59871 0
M  V30 1035 H 172.343 6.46749 3.03687 0
M  V30 1036 H 170.509 8.46908 3.20714 0
M  V30 1037 H 170.438 6.08548 0.206986 0
M  V30 1038 P 172.379 7.20834 5.23717 0
M  V30 1039 O 172.599 7.80006 6.57415 0
M  V30 1040 O 173.169 7.79416 4.13051 0
M  V30 1041 O 172.629 5.63315 5.29344 0
M  V30 1042 C 171.689 4.80318 6.01954 0
M  V30 1043 C 172.419 3.64202 6.65911 0
M  V30 1044 O 172.629 2.60736 5.64823 0
M  V30 1045 C 173.819 3.93521 7.19518 0
M  V30 1046 O 174.209 3.02071 8.21205 0
M  V30 1047 C 174.699 3.73047 5.97036 0
M  V30 1048 C 173.989 2.58828 5.25741 0
M  V30 1049 N 174.039 2.68068 3.77503 0
M  V30 1050 C 173.959 3.80474 2.99159 0
M  V30 1051 N 174.029 3.55622 1.71925 0
M  V30 1052 C 174.179 2.1832 1.65733 0
M  V30 1053 C 174.309 1.28842 0.572777 0
M  V30 1054 N 174.319 1.66875 -0.70098 0
M  V30 1055 N 174.429 -0.016788 0.859836 0
M  V30 1056 C 174.419 -0.398145 2.13316 0
M  V30 1057 N 174.299 0.328224 3.22333 0
M  V30 1058 C 174.179 1.62992 2.90383 0
M  V30 1059 H 171.201 5.40394 6.8003 0
M  V30 1060 H 170.929 4.41741 5.32532 0
M  V30 1061 H 171.797 3.26371 7.47889 0
M  V30 1062 H 174.452 1.64007 5.56746 0
M  V30 1063 H 174.732 4.63439 5.3432 0
M  V30 1064 H 175.723 3.44776 6.25925 0
M  V30 1065 H 173.889 4.96707 7.57347 0
M  V30 1066 H 173.848 4.8089 3.39924 0
M  V30 1067 H 174.229 2.66547 -0.941919 0
M  V30 1068 H 174.418 0.965341 -1.44766 0
M  V30 1069 H 174.526 -1.46427 2.29697 0
M  V30 1070 P 175.759 2.75334 8.47391 0
M  V30 1071 O 175.979 2.44571 9.90142 0
M  V30 1072 O 176.549 3.87688 7.92115 0
M  V30 1073 O 176.009 1.4459 7.59357 0
M  V30 1074 C 175.069 0.347608 7.69215 0
M  V30 1075 C 175.799 -0.96767 7.52806 0
M  V30 1076 O 176.009 -1.21036 6.1011 0
M  V30 1077 C 177.199 -1.04544 8.13308 0
M  V30 1078 O 177.589 -2.38311 8.41922 0
M  V30 1079 C 178.079 -0.491279 7.02284 0
M  V30 1080 C 177.369 -0.996264 5.77469 0
M  V30 1081 N 177.419 -0.0501916 4.62973 0
M  V30 1082 H 174.58 0.374722 8.67691 0
M  V30 1083 H 174.31 0.443485 6.90277 0
M  V30 1084 H 175.177 -1.75537 7.96793 0
M  V30 1085 P 179.139 -2.75334 8.47391 0
M  V30 1086 O 179.359 -3.84204 9.44982 0
M  V30 1087 O 179.929 -1.51982 8.68909 0
M  V30 1088 O 179.389 -3.29363 6.99321 0
M  V30 1089 C 178.449 -4.24066 6.42823 0
M  V30 1090 C 179.179 -5.20775 5.52155 0
M  V30 1091 O 179.389 -4.56607 4.22514 0
M  V30 1092 C 180.579 -5.62697 5.96604 0
M  V30 1093 O 180.969 -6.87667 5.41053 0
M  V30 1094 C 181.459 -4.52537 5.39283 0
M  V30 1095 C 180.749 -4.20027 4.08623 0
M  V30 1096 N 180.799 -2.76189 3.71603 0
M  V30 1097 C 180.719 -1.66944 4.54297 0
M  V30 1098 N 180.789 -0.536169 3.91344 0
M  V30 1099 C 180.939 -0.901569 2.58849 0
M  V30 1100 C 181.069 -0.146599 1.40236 0
M  V30 1101 N 181.079 1.18234 1.37046 0
M  V30 1102 N 181.189 -0.822941 0.249738 0
M  V30 1103 C 181.179 -2.15179 0.280525 0
M  V30 1104 N 181.059 -2.96414 1.30822 0
M  V30 1105 C 180.939 -2.25804 2.44748 0
M  V30 1106 H 177.961 -4.79756 7.24086 0
M  V30 1107 H 177.689 -3.69963 5.84682 0
M  V30 1108 H 178.557 -6.10431 5.41508 0
M  V30 1109 H 181.212 -4.78816 3.28024 0
M  V30 1110 H 181.492 -3.64957 6.05871 0
M  V30 1111 H 182.483 -4.88748 5.21323 0
M  V30 1112 H 180.649 -5.66789 7.0643 0
M  V30 1113 H 180.608 -1.74684 5.62396 0
M  V30 1114 H 180.989 1.71949 2.24394 0
M  V30 1115 H 181.178 1.67511 0.470742 0
M  V30 1116 H 181.286 -2.63704 -0.6828 0
M  V30 1117 P 182.519 -7.20834 5.23717 0
M  V30 1118 O 182.739 -8.66104 5.38572 0
M  V30 1119 O 183.309 -6.33544 6.1349 0
M  V30 1120 O 182.769 -6.7751 3.72168 0
M  V30 1121 C 181.829 -7.20825 2.7076 0
M  V30 1122 C 182.559 -7.45864 1.40599 0
M  V30 1123 O 182.769 -6.17651 0.734225 0
M  V30 1124 C 183.959 -8.05808 1.51899 0
M  V30 1125 O 184.349 -8.74358 0.335205 0
M  V30 1126 C 184.839 -6.83093 1.70294 0
M  V30 1127 C 184.129 -5.79992 0.836974 0
M  V30 1128 N 184.179 -4.41864 1.38293 0
M  V30 1129 H 181.34 -8.13644 3.0377 0
M  V30 1130 H 181.07 -6.42788 2.55485 0
M  V30 1131 H 181.937 -8.12039 0.792769 0
M  V30 1132 P 185.899 -8.91 -8.29613e-14 0
M  V30 1133 O 186.119 -10.1746 -0.733838 0
M  V30 1134 O 186.689 -8.73346 1.23964 0
M  V30 1135 O 186.149 -7.66872 -0.971405 0
M  V30 1136 C 185.209 -7.42405 -2.04668 0
M  V30 1137 C 185.939 -6.86059 -3.24661 0
M  V30 1138 O 186.149 -5.42934 -3.03695 0
M  V30 1139 C 187.339 -7.41287 -3.50796 0
M  V30 1140 O 187.729 -7.27073 -4.86816 0
M  V30 1141 C 188.219 -6.5273 -2.63741 0
M  V30 1142 C 187.509 -5.1842 -2.73198 0
M  V30 1143 N 187.559 -4.38762 -1.4784 0
M  V30 1144 C 187.479 -4.83651 -0.183876 0
M  V30 1145 N 187.549 -3.88759 0.699393 0
M  V30 1146 C 187.699 -2.7404 -0.0575568 0
M  V30 1147 C 187.829 -1.37902 0.293928 0
M  V30 1148 N 187.839 -0.938021 1.54797 0
M  V30 1149 N 187.949 -0.491817 -0.70549 0
M  V30 1150 C 187.939 -0.931735 -1.95979 0
M  V30 1151 N 187.819 -2.16017 -2.41481 0
M  V30 1152 C 187.699 -3.02547 -1.39121 0
M  V30 1153 H 184.721 -8.36899 -2.3252 0
M  V30 1154 H 184.449 -6.70391 -1.71179 0
M  V30 1155 H 185.317 -7.03638 -4.13219 0
M  V30 1156 H 187.972 -4.59931 -3.54016 0
M  V30 1157 H 188.252 -6.88995 -1.59871 0
M  V30 1158 H 189.243 -6.4684 -3.0373 0
M  V30 1159 H 187.409 -8.47002 -3.20749 0
M  V30 1160 H 187.368 -5.8885 0.0765548 0
M  V30 1161 H 187.749 -1.60276 2.32875 0
M  V30 1162 H 187.938 0.0699355 1.73859 0
M  V30 1163 H 188.046 -0.165507 -2.71897 0
M  V30 1164 P 189.279 -7.20834 -5.23717 0
M  V30 1165 O 189.499 -7.79853 -6.57286 0
M  V30 1166 O 190.069 -7.79239 -4.12957 0
M  V30 1167 O 189.529 -5.63315 -5.29344 0
M  V30 1168 C 188.589 -4.80255 -6.01876 0
M  V30 1169 C 189.319 -3.64202 -6.65911 0
M  V30 1170 O 189.529 -2.60694 -5.64732 0
M  V30 1171 C 190.719 -3.93473 -7.1943 0
M  V30 1172 O 191.109 -3.02071 -8.21205 0
M  V30 1173 C 191.599 -3.73047 -5.97036 0
M  V30 1174 C 190.889 -2.58828 -5.25741 0
M  V30 1175 N 190.939 -2.68068 -3.77503 0
M  V30 1176 H 188.1 -5.40332 -6.79951 0
M  V30 1177 H 187.83 -4.41613 -5.32378 0
M  V30 1178 H 188.697 -3.26331 -7.47797 0
M  V30 1179 P 192.659 -2.75334 -8.47391 0
M  V30 1180 O 192.879 -2.44595 -9.90239 0
M  V30 1181 O 193.449 -3.87732 -7.92204 0
M  V30 1182 O 192.909 -1.4459 -7.59357 0
M  V30 1183 C 191.969 -0.347608 -7.69215 0
M  V30 1184 C 192.699 0.96767 -7.52806 0
M  V30 1185 O 192.909 1.21036 -6.1011 0
M  V30 1186 C 194.099 1.04544 -8.13308 0
M  V30 1187 O 194.489 2.38311 -8.41922 0
M  V30 1188 C 194.979 0.491279 -7.02284 0
M  V30 1189 C 194.269 0.996264 -5.77469 0
M  V30 1190 N 194.319 0.0501808 -4.62873 0
M  V30 1191 C 194.469 0.578037 -3.3505 0
M  V30 1192 O 194.559 1.8073 -3.21711 0
M  V30 1193 N 194.519 -0.468541 -2.263 0
M  V30 1194 C 194.419 -1.59186 -2.47176 0
M  V30 1195 N 194.469 -2.37626 -1.40392 0
M  V30 1196 C 194.269 -2.16203 -3.77467 0
M  V30 1197 C 194.219 -1.29324 -4.8195 0
M  V30 1198 H 191.479 -0.374679 -8.67591 0
M  V30 1199 H 191.21 -0.443421 -6.90177 0
M  V30 1200 H 192.077 1.75559 -7.96891 0
M  V30 1201 H 194.732 1.94529 -5.46723 0
M  V30 1202 H 195.011 -0.608651 -7.04676 0
M  V30 1203 H 196.003 0.889672 -7.08939 0
M  V30 1204 H 194.169 0.43308 -9.04564 0
M  V30 1205 H 194.097 -1.67758 -5.83046 0
M  V30 1206 H 194.199 -3.23869 -3.92281 0
M  V30 1207 H 194.587 -1.96317 -0.467202 0
M  V30 1208 H 194.39 -3.39693 -1.51142 0
M  V30 1209 P 196.039 2.75334 -8.47391 0
M  V30 1210 O 196.259 3.84128 -9.44797 0
M  V30 1211 O 196.829 1.51947 -8.68712 0
M  V30 1212 O 196.289 3.29363 -6.99321 0
M  V30 1213 C 195.349 4.24011 -6.4274 0
M  V30 1214 C 196.079 5.20775 -5.52155 0
M  V30 1215 O 196.289 4.56534 -4.22446 0
M  V30 1216 C 197.479 5.62629 -5.96531 0
M  V30 1217 O 197.869 6.87667 -5.41053 0
M  V30 1218 C 198.359 4.52537 -5.39283 0
M  V30 1219 C 197.649 4.20027 -4.08623 0
M  V30 1220 N 197.699 2.76189 -3.71603 0
M  V30 1221 H 194.86 4.797 -7.24003 0
M  V30 1222 H 194.59 3.69856 -5.84513 0
M  V30 1223 H 195.457 6.10356 -5.41441 0
M  V30 1224 P 199.419 7.20834 -5.23717 0
M  V30 1225 O 199.639 8.66104 -5.38572 0
M  V30 1226 O 200.209 6.33544 -6.1349 0
M  V30 1227 O 199.669 6.7751 -3.72168 0
M  V30 1228 C 198.729 7.20825 -2.7076 0
M  V30 1229 C 199.459 7.45864 -1.40599 0
M  V30 1230 O 199.669 6.17651 -0.734225 0
M  V30 1231 C 200.859 8.05808 -1.51899 0
M  V30 1232 O 201.249 8.74358 -0.335205 0
M  V30 1233 C 201.739 6.83093 -1.70294 0
M  V30 1234 C 201.029 5.79992 -0.836974 0
M  V30 1235 N 201.079 4.41864 -1.38293 0
M  V30 1236 H 198.24 8.13644 -3.0377 0
M  V30 1237 H 197.97 6.42788 -2.55485 0
M  V30 1238 H 198.837 8.12039 -0.792769 0
M  V30 1239 P 202.799 8.91 2.40144e-13 0
M  V30 1240 O 203.019 10.1726 0.733694 0
M  V30 1241 O 203.589 8.73148 -1.23936 0
M  V30 1242 O 203.049 7.66872 0.971405 0
M  V30 1243 C 202.109 7.42309 2.04641 0
M  V30 1244 C 202.839 6.86059 3.24661 0
M  V30 1245 O 203.049 5.42847 3.03646 0
M  V30 1246 C 204.239 7.41196 3.50753 0
M  V30 1247 O 204.629 7.27073 4.86816 0
M  V30 1248 C 205.119 6.5273 2.63741 0
M  V30 1249 C 204.409 5.1842 2.73198 0
M  V30 1250 N 204.459 4.38762 1.4784 0
M  V30 1251 H 201.62 8.36803 2.32493 0
M  V30 1252 H 201.35 6.70197 1.71129 0
M  V30 1253 H 202.217 7.03551 4.13168 0
M  V30 1254 P 206.179 7.20834 5.23717 0
M  V30 1255 O 206.399 7.79853 6.57286 0
M  V30 1256 O 206.969 7.79239 4.12957 0
M  V30 1257 O 206.429 5.63315 5.29344 0
M  V30 1258 C 205.489 4.80255 6.01876 0
M  V30 1259 C 206.219 3.64202 6.65911 0
M  V30 1260 O 206.429 2.60694 5.64732 0
M  V30 1261 C 207.619 3.93473 7.1943 0
M  V30 1262 O 208.009 3.02071 8.21205 0
M  V30 1263 C 208.499 3.73047 5.97036 0
M  V30 1264 C 207.789 2.58828 5.25741 0
M  V30 1265 N 207.839 2.68068 3.77503 0
M  V30 1266 C 207.759 3.79715 2.96723 0
M  V30 1267 N 207.839 3.5377 1.68852 0
M  V30 1268 C 207.979 2.15054 1.63254 0
M  V30 1269 C 208.109 1.28964 0.518571 0
M  V30 1270 O 208.129 1.56826 -0.679156 0
M  V30 1271 N 208.229 -0.0538097 0.918425 0
M  V30 1272 C 208.229 -0.494275 2.22578 0
M  V30 1273 N 208.359 -1.81086 2.40434 0
M  V30 1274 N 208.099 0.313645 3.27502 0
M  V30 1275 C 207.979 1.61829 2.91033 0
M  V30 1276 H 205 5.40332 6.79951 0
M  V30 1277 H 204.73 4.41613 5.32378 0
M  V30 1278 H 205.597 3.26331 7.47797 0
M  V30 1279 H 208.252 1.63422 5.56814 0
M  V30 1280 H 208.531 4.63374 5.34244 0
M  V30 1281 H 209.523 3.44728 6.25838 0
M  V30 1282 H 207.689 4.96652 7.57263 0
M  V30 1283 H 207.64 4.80617 3.3614 0
M  V30 1284 H 208.322 -0.742702 0.199384 0
M  V30 1285 H 208.359 -2.20598 3.35588 0
M  V30 1286 H 208.46 -2.43518 1.58945 0
M  V30 1287 P 209.559 2.75334 8.47391 0
M  V30 1288 O 209.779 2.44571 9.90142 0
M  V30 1289 O 210.349 3.87688 7.92115 0
M  V30 1290 O 209.809 1.4459 7.59357 0
M  V30 1291 C 208.869 0.347608 7.69215 0
M  V30 1292 C 209.599 -0.96767 7.52806 0
M  V30 1293 O 209.809 -1.21036 6.1011 0
M  V30 1294 C 210.999 -1.04544 8.13308 0
M  V30 1295 O 211.389 -2.38311 8.41922 0
M  V30 1296 C 211.879 -0.491279 7.02284 0
M  V30 1297 C 211.169 -0.996264 5.77469 0
M  V30 1298 N 211.219 -0.0501916 4.62973 0
M  V30 1299 C 211.139 1.32786 4.63244 0
M  V30 1300 N 211.219 1.86957 3.44545 0
M  V30 1301 C 211.359 0.780241 2.58481 0
M  V30 1302 C 211.489 0.738536 1.17757 0
M  V30 1303 O 211.509 1.66794 0.372349 0
M  V30 1304 N 211.609 -0.58337 0.711393 0
M  V30 1305 C 211.609 -1.70816 1.51017 0
M  V30 1306 N 211.739 -2.87826 0.880757 0
M  V30 1307 N 211.479 -1.67126 2.8339 0
M  V30 1308 C 211.359 -0.401421 3.30572 0
M  V30 1309 H 208.38 0.374722 8.67691 0
M  V30 1310 H 208.11 0.443485 6.90277 0
M  V30 1311 H 208.977 -1.75537 7.96793 0
M  V30 1312 H 211.632 -1.95076 5.46529 0
M  V30 1313 H 211.911 0.608565 7.04577 0
M  V30 1314 H 212.903 -0.889672 7.08939 0
M  V30 1315 H 211.069 -0.43308 9.04564 0
M  V30 1316 H 211.02 1.91249 5.54442 0
M  V30 1317 H 211.702 -0.718054 -0.275244 0
M  V30 1318 H 211.739 -3.75721 1.41832 0
M  V30 1319 H 211.84 -2.90436 -0.145468 0
M  V30 1320 P 212.939 -2.75334 8.47391 0
M  V30 1321 O 213.159 -3.84204 9.44982 0
M  V30 1322 O 213.729 -1.51982 8.68909 0
M  V30 1323 O 213.189 -3.29363 6.99321 0
M  V30 1324 C 212.249 -4.24066 6.42823 0
M  V30 1325 C 212.979 -5.20775 5.52155 0
M  V30 1326 O 213.189 -4.56607 4.22514 0
M  V30 1327 C 214.379 -5.62697 5.96604 0
M  V30 1328 O 214.769 -6.87667 5.41053 0
M  V30 1329 C 215.259 -4.52537 5.39283 0
M  V30 1330 C 214.549 -4.20027 4.08623 0
M  V30 1331 N 214.599 -2.76189 3.71603 0
M  V30 1332 H 211.761 -4.79756 7.24086 0
M  V30 1333 H 211.489 -3.69963 5.84682 0
M  V30 1334 H 212.357 -6.10431 5.41508 0
M  V30 1335 H 215.012 -4.78816 3.28024 0
M  V30 1336 H 215.292 -3.64957 6.05871 0
M  V30 1337 H 216.283 -4.88748 5.21323 0
M  V30 1338 H 214.449 -5.66789 7.0643 0
M  V30 1339 P 216.319 -7.20834 5.23717 0
M  V30 1340 O 216.539 -8.66104 5.38572 0
M  V30 1341 O 217.109 -6.33544 6.1349 0
M  V30 1342 O 216.569 -6.7751 3.72168 0
M  V30 1343 C 215.629 -7.20825 2.7076 0
M  V30 1344 C 216.359 -7.45864 1.40599 0
M  V30 1345 O 216.569 -6.17651 0.734225 0
M  V30 1346 C 217.759 -8.05808 1.51899 0
M  V30 1347 O 218.149 -8.74358 0.335205 0
M  V30 1348 C 218.639 -6.83093 1.70294 0
M  V30 1349 C 217.929 -5.79992 0.836974 0
M  V30 1350 N 217.979 -4.41864 1.38293 0
M  V30 1351 H 215.14 -8.13644 3.0377 0
M  V30 1352 H 214.87 -6.42788 2.55485 0
M  V30 1353 H 215.737 -8.12039 0.792769 0
M  V30 1354 P 219.699 -8.91 -3.97326e-13 0
M  V30 1355 O 219.919 -10.1746 -0.733838 0
M  V30 1356 O 220.489 -8.73346 1.23964 0
M  V30 1357 O 219.949 -7.66872 -0.971405 0
M  V30 1358 C 219.009 -7.42405 -2.04668 0
M  V30 1359 C 219.739 -6.86059 -3.24661 0
M  V30 1360 O 219.949 -5.42934 -3.03695 0
M  V30 1361 C 221.139 -7.41287 -3.50796 0
M  V30 1362 O 221.529 -7.27073 -4.86816 0
M  V30 1363 C 222.019 -6.5273 -2.63741 0
M  V30 1364 C 221.309 -5.1842 -2.73198 0
M  V30 1365 N 221.359 -4.38762 -1.4784 0
M  V30 1366 C 221.279 -4.83651 -0.183876 0
M  V30 1367 N 221.349 -3.88759 0.699393 0
M  V30 1368 C 221.499 -2.7404 -0.0575568 0
M  V30 1369 C 221.629 -1.37902 0.293928 0
M  V30 1370 N 221.639 -0.938021 1.54797 0
M  V30 1371 N 221.749 -0.491817 -0.70549 0
M  V30 1372 C 221.739 -0.931735 -1.95979 0
M  V30 1373 N 221.619 -2.16017 -2.41481 0
M  V30 1374 C 221.499 -3.02547 -1.39121 0
M  V30 1375 H 218.521 -8.36899 -2.3252 0
M  V30 1376 H 218.249 -6.70391 -1.71179 0
M  V30 1377 H 219.117 -7.03638 -4.13219 0
M  V30 1378 H 221.772 -4.59931 -3.54016 0
M  V30 1379 H 222.052 -6.88995 -1.59871 0
M  V30 1380 H 223.043 -6.4684 -3.0373 0
M  V30 1381 H 221.209 -8.47002 -3.20749 0
M  V30 1382 H 221.168 -5.8885 0.0765548 0
M  V30 1383 H 221.549 -1.60276 2.32875 0
M  V30 1384 H 221.738 0.0699355 1.73859 0
M  V30 1385 H 221.846 -0.165507 -2.71897 0
M  V30 1386 P 223.079 -7.20834 -5.23717 0
M  V30 1387 O 223.299 -7.7993 -6.57351 0
M  V30 1388 O 223.869 -7.79328 -4.13004 0
M  V30 1389 O 223.329 -5.63315 -5.29344 0
M  V30 1390 C 222.389 -4.80193 -6.01798 0
M  V30 1391 C 223.119 -3.64202 -6.65911 0
M  V30 1392 O 223.329 -2.60694 -5.64732 0
M  V30 1393 C 224.519 -3.93473 -7.1943 0
M  V30 1394 O 224.909 -3.02071 -8.21205 0
M  V30 1395 C 225.399 -3.73047 -5.97036 0
M  V30 1396 C 224.689 -2.58828 -5.25741 0
M  V30 1397 N 224.739 -2.6801 -3.77422 0
M  V30 1398 C 224.889 -1.50443 -3.07133 0
M  V30 1399 O 224.979 -0.419406 -3.61576 0
M  V30 1400 N 224.929 -1.6403 -1.69677 0
M  V30 1401 C 224.839 -2.81206 -0.986255 0
M  V30 1402 O 224.889 -2.80892 0.249754 0
M  V30 1403 C 224.689 -3.99158 -1.80325 0
M  V30 1404 C 224.579 -5.29309 -1.06921 0
M  V30 1405 C 224.639 -3.89779 -3.1476 0
M  V30 1406 H 221.899 -5.40332 -6.79951 0
M  V30 1407 H 221.63 -4.41549 -5.32301 0
M  V30 1408 H 222.497 -3.26331 -7.47797 0
M  V30 1409 H 225.152 -1.6395 -5.56554 0
M  V30 1410 H 225.431 -4.63439 -5.3432 0
M  V30 1411 H 226.423 -3.44728 -6.25838 0
M  V30 1412 H 224.589 -4.96652 -7.57263 0
M  V30 1413 H 224.518 -4.80159 -3.74441 0
M  V30 1414 H 225.548 -5.81459 -1.09608 0
M  V30 1415 H 223.811 -5.9187 -1.54487 0
M  V30 1416 H 224.299 -5.10095 -0.0220288 0
M  V30 1417 H 225.035 -0.798962 -1.16664 0
M  V30 1418 P 226.459 -2.75334 -8.47391 0
M  V30 1419 O 226.679 -2.44595 -9.90239 0
M  V30 1420 O 227.249 -3.87732 -7.92204 0
M  V30 1421 O 226.709 -1.4459 -7.59357 0
M  V30 1422 C 225.769 -0.347563 -7.69115 0
M  V30 1423 C 226.499 0.96767 -7.52806 0
M  V30 1424 O 226.709 1.21036 -6.1011 0
M  V30 1425 C 227.899 1.04544 -8.13308 0
M  V30 1426 O 228.289 2.38311 -8.41922 0
M  V30 1427 C 228.779 0.491279 -7.02284 0
M  V30 1428 C 228.069 0.996264 -5.77469 0
M  V30 1429 N 228.119 0.0501808 -4.62873 0
M  V30 1430 C 228.269 0.588177 -3.36904 0
M  V30 1431 O 228.359 1.78598 -3.17173 0
M  V30 1432 N 228.309 -0.329694 -2.33686 0
M  V30 1433 C 228.219 -1.6953 -2.45079 0
M  V30 1434 C 228.069 -2.16933 -3.80505 0
M  V30 1435 C 228.019 -1.30326 -4.83752 0
M  V30 1436 H 225.279 -0.374722 -8.67691 0
M  V30 1437 H 225.01 -0.443421 -6.90177 0
M  V30 1438 H 225.877 1.75537 -7.96793 0
M  V30 1439 H 228.532 1.94496 -5.46629 0
M  V30 1440 H 228.811 -0.608651 -7.04676 0
M  V30 1441 H 229.803 0.889672 -7.08939 0
M  V30 1442 H 227.969 0.43308 -9.04564 0
M  V30 1443 H 227.898 -1.68366 -5.8516 0
M  V30 1444 P 229.839 2.75334 -8.47391 0
M  V30 1445 O 230.059 3.84128 -9.44797 0
M  V30 1446 O 230.629 1.51947 -8.68712 0
M  V30 1447 O 230.089 3.29363 -6.99321 0
M  V30 1448 C 229.149 4.24011 -6.4274 0
M  V30 1449 C 229.879 5.20775 -5.52155 0
M  V30 1450 O 230.089 4.56534 -4.22446 0
M  V30 1451 C 231.279 5.62629 -5.96531 0
M  V30 1452 O 231.669 6.87667 -5.41053 0
M  V30 1453 C 232.159 4.52537 -5.39283 0
M  V30 1454 C 231.449 4.20027 -4.08623 0
M  V30 1455 N 231.499 2.76189 -3.71603 0
M  V30 1456 H 228.66 4.797 -7.24003 0
M  V30 1457 H 228.39 3.69856 -5.84513 0
M  V30 1458 H 229.257 6.10356 -5.41441 0
M  V30 1459 P 233.219 7.20834 -5.23717 0
M  V30 1460 O 233.439 8.66104 -5.38572 0
M  V30 1461 O 234.009 6.33544 -6.1349 0
M  V30 1462 O 233.469 6.7751 -3.72168 0
M  V30 1463 C 232.529 7.20825 -2.7076 0
M  V30 1464 C 233.259 7.45864 -1.40599 0
M  V30 1465 O 233.469 6.17651 -0.734225 0
M  V30 1466 C 234.659 8.05808 -1.51899 0
M  V30 1467 O 235.049 8.74358 -0.335205 0
M  V30 1468 C 235.539 6.83093 -1.70294 0
M  V30 1469 C 234.829 5.79992 -0.836974 0
M  V30 1470 N 234.879 4.41864 -1.38293 0
M  V30 1471 H 232.04 8.13644 -3.0377 0
M  V30 1472 H 231.77 6.42788 -2.55485 0
M  V30 1473 H 232.637 8.12039 -0.792769 0
M  V30 1474 P 236.599 8.91 5.54508e-13 0
M  V30 1475 O 236.819 10.1726 0.733694 0
M  V30 1476 O 237.389 8.73148 -1.23936 0
M  V30 1477 O 236.849 7.66872 0.971405 0
M  V30 1478 C 235.909 7.42309 2.04641 0
M  V30 1479 C 236.639 6.86059 3.24661 0
M  V30 1480 O 236.849 5.42847 3.03646 0
M  V30 1481 C 238.039 7.41196 3.50753 0
M  V30 1482 O 238.429 7.27073 4.86816 0
M  V30 1483 C 238.919 6.5273 2.63741 0
M  V30 1484 C 238.209 5.1842 2.73198 0
M  V30 1485 N 238.259 4.38762 1.4784 0
M  V30 1486 H 235.42 8.36803 2.32493 0
M  V30 1487 H 235.15 6.70197 1.71129 0
M  V30 1488 H 236.017 7.03551 4.13168 0
M  V30 1489 P 239.979 7.20834 5.23717 0
M  V30 1490 O 240.199 7.79853 6.57286 0
M  V30 1491 O 240.769 7.79239 4.12957 0
M  V30 1492 O 240.229 5.63315 5.29344 0
M  V30 1493 C 239.289 4.80255 6.01876 0
M  V30 1494 C 240.019 3.64202 6.65911 0
M  V30 1495 O 240.229 2.60694 5.64732 0
M  V30 1496 C 241.419 3.93473 7.1943 0
M  V30 1497 O 241.809 3.02071 8.21205 0
M  V30 1498 C 242.299 3.73047 5.97036 0
M  V30 1499 C 241.589 2.58828 5.25741 0
M  V30 1500 N 241.639 2.68068 3.77503 0
M  V30 1501 H 238.8 5.40332 6.79951 0
M  V30 1502 H 238.53 4.41613 5.32378 0
M  V30 1503 H 239.397 3.26331 7.47797 0
M  V30 1504 P 243.359 2.75334 8.47391 0
M  V30 1505 O 243.579 2.44619 9.90336 0
M  V30 1506 O 244.149 3.87776 7.92294 0
M  V30 1507 O 243.609 1.4459 7.59357 0
M  V30 1508 C 242.669 0.347653 7.69315 0
M  V30 1509 C 243.399 -0.96767 7.52806 0
M  V30 1510 O 243.609 -1.21055 6.10208 0
M  V30 1511 C 244.799 -1.04557 8.13408 0
M  V30 1512 O 245.189 -2.38311 8.41922 0
M  V30 1513 C 245.679 -0.491279 7.02284 0
M  V30 1514 C 244.969 -0.996264 5.77469 0
M  V30 1515 N 245.019 -0.0501916 4.62973 0
M  V30 1516 C 244.939 1.31969 4.65661 0
M  V30 1517 N 245.009 1.86649 3.48119 0
M  V30 1518 C 245.159 0.792089 2.62406 0
M  V30 1519 C 245.289 0.705684 1.2207 0
M  V30 1520 N 245.299 1.76207 0.413762 0
M  V30 1521 N 245.409 -0.518981 0.685754 0
M  V30 1522 C 245.399 -1.57595 1.49174 0
M  V30 1523 N 245.279 -1.62909 2.80066 0
M  V30 1524 C 245.159 -0.388195 3.3073 0
M  V30 1525 H 242.181 0.374765 8.67791 0
M  V30 1526 H 241.909 0.443613 6.90476 0
M  V30 1527 H 242.777 -1.75559 7.96891 0
M  V30 1528 H 245.432 -1.94563 5.46818 0
M  V30 1529 H 245.712 0.608651 7.04676 0
M  V30 1530 H 246.703 -0.889796 7.09039 0
M  V30 1531 H 244.869 -0.433128 9.04664 0
M  V30 1532 H 244.828 1.89246 5.57664 0
M  V30 1533 H 245.209 2.71005 0.804694 0
M  V30 1534 H 245.398 1.63189 -0.603768 0
M  V30 1535 H 245.506 -2.53475 0.997614 0
M  V30 1536 P 246.739 -2.75334 8.47391 0
M  V30 1537 O 246.959 -3.84204 9.44982 0
M  V30 1538 O 247.529 -1.51982 8.68909 0
M  V30 1539 O 246.989 -3.29363 6.99321 0
M  V30 1540 C 246.049 -4.24066 6.42823 0
M  V30 1541 C 246.779 -5.20775 5.52155 0
M  V30 1542 O 246.989 -4.56607 4.22514 0
M  V30 1543 C 248.179 -5.62697 5.96604 0
M  V30 1544 O 248.569 -6.87667 5.41053 0
M  V30 1545 C 249.059 -4.52537 5.39283 0
M  V30 1546 C 248.349 -4.20027 4.08623 0
M  V30 1547 N 248.399 -2.76189 3.71603 0
M  V30 1548 C 248.319 -1.66944 4.54297 0
M  V30 1549 N 248.389 -0.536169 3.91344 0
M  V30 1550 C 248.539 -0.901569 2.58849 0
M  V30 1551 C 248.669 -0.146599 1.40236 0
M  V30 1552 N 248.679 1.18234 1.37046 0
M  V30 1553 N 248.789 -0.822941 0.249738 0
M  V30 1554 C 248.779 -2.15179 0.280525 0
M  V30 1555 N 248.659 -2.96414 1.30822 0
M  V30 1556 C 248.539 -2.25804 2.44748 0
M  V30 1557 H 245.561 -4.79756 7.24086 0
M  V30 1558 H 245.289 -3.69963 5.84682 0
M  V30 1559 H 246.157 -6.10431 5.41508 0
M  V30 1560 H 248.812 -4.78816 3.28024 0
M  V30 1561 H 249.092 -3.64957 6.05871 0
M  V30 1562 H 250.083 -4.88748 5.21323 0
M  V30 1563 H 248.249 -5.66789 7.0643 0
M  V30 1564 H 248.208 -1.74684 5.62396 0
M  V30 1565 H 248.589 1.71949 2.24394 0
M  V30 1566 H 248.778 1.67511 0.470742 0
M  V30 1567 H 248.886 -2.63704 -0.6828 0
M  V30 1568 P 250.119 -7.20834 5.23717 0
M  V30 1569 O 250.339 -8.66104 5.38572 0
M  V30 1570 O 250.909 -6.33544 6.1349 0
M  V30 1571 O 250.369 -6.7751 3.72168 0
M  V30 1572 C 249.429 -7.20825 2.7076 0
M  V30 1573 C 250.159 -7.45864 1.40599 0
M  V30 1574 O 250.369 -6.17651 0.734225 0
M  V30 1575 C 251.559 -8.05808 1.51899 0
M  V30 1576 O 251.949 -8.74358 0.335205 0
M  V30 1577 C 252.439 -6.83093 1.70294 0
M  V30 1578 C 251.729 -5.79992 0.836974 0
M  V30 1579 N 251.779 -4.41864 1.38293 0
M  V30 1580 C 251.699 -3.99538 2.69438 0
M  V30 1581 N 251.779 -2.69909 2.84277 0
M  V30 1582 C 251.919 -2.21719 1.5408 0
M  V30 1583 C 252.049 -0.891712 1.06628 0
M  V30 1584 N 252.169 -0.856846 -0.334985 0
M  V30 1585 C 252.169 -1.9641 -1.15789 0
M  V30 1586 N 252.299 -1.72708 -2.46522 0
M  V30 1587 N 252.039 -3.21165 -0.713741 0
M  V30 1588 C 251.919 -3.26797 0.639748 0
M  V30 1589 H 248.94 -8.13644 3.0377 0
M  V30 1590 H 248.67 -6.42788 2.55485 0
M  V30 1591 H 249.537 -8.12039 0.792769 0
M  V30 1592 P 253.498 -8.91 -7.1169e-13 0
M  V30 1593 O 253.718 -10.1726 -0.733694 0
M  V30 1594 O 254.288 -8.73148 1.23936 0
M  V30 1595 O 253.748 -7.66872 -0.971405 0
M  V30 1596 C 252.808 -7.42309 -2.04641 0
M  V30 1597 C 253.538 -6.86059 -3.24661 0
M  V30 1598 O 253.748 -5.42847 -3.03646 0
M  V30 1599 C 254.938 -7.41196 -3.50753 0
M  V30 1600 O 255.328 -7.27073 -4.86816 0
M  V30 1601 C 255.818 -6.5273 -2.63741 0
M  V30 1602 C 255.108 -5.1842 -2.73198 0
M  V30 1603 N 255.158 -4.38762 -1.4784 0
M  V30 1604 H 252.319 -8.36803 -2.32493 0
M  V30 1605 H 252.049 -6.70197 -1.71129 0
M  V30 1606 H 252.916 -7.03551 -4.13168 0
M  V30 1607 P 256.878 -7.20834 -5.23717 0
M  V30 1608 O 257.098 -7.79853 -6.57286 0
M  V30 1609 O 257.668 -7.79239 -4.12957 0
M  V30 1610 O 257.128 -5.63315 -5.29344 0
M  V30 1611 C 256.188 -4.80255 -6.01876 0
M  V30 1612 C 256.918 -3.64202 -6.65911 0
M  V30 1613 O 257.128 -2.60694 -5.64732 0
M  V30 1614 C 258.318 -3.93473 -7.1943 0
M  V30 1615 O 258.708 -3.02071 -8.21205 0
M  V30 1616 C 259.198 -3.73047 -5.97036 0
M  V30 1617 C 258.488 -2.58828 -5.25741 0
M  V30 1618 N 258.538 -2.68068 -3.77503 0
M  V30 1619 H 255.699 -5.40332 -6.79951 0
M  V30 1620 H 255.429 -4.41613 -5.32378 0
M  V30 1621 H 256.296 -3.26331 -7.47797 0
M  V30 1622 P 260.258 -2.75334 -8.47391 0
M  V30 1623 O 260.478 -2.44571 -9.90142 0
M  V30 1624 O 261.048 -3.87688 -7.92115 0
M  V30 1625 O 260.508 -1.4459 -7.59357 0
M  V30 1626 C 259.568 -0.347608 -7.69215 0
M  V30 1627 C 260.298 0.96767 -7.52806 0
M  V30 1628 O 260.508 1.21036 -6.1011 0
M  V30 1629 C 261.698 1.04544 -8.13308 0
M  V30 1630 O 262.088 2.38311 -8.41922 0
M  V30 1631 C 262.578 0.491279 -7.02284 0
M  V30 1632 C 261.868 0.996264 -5.77469 0
M  V30 1633 N 261.918 0.0501916 -4.62973 0
M  V30 1634 C 261.838 -1.32786 -4.63244 0
M  V30 1635 N 261.918 -1.86957 -3.44545 0
M  V30 1636 C 262.058 -0.780241 -2.58481 0
M  V30 1637 C 262.188 -0.738536 -1.17757 0
M  V30 1638 O 262.208 -1.66794 -0.372349 0
M  V30 1639 N 262.308 0.58337 -0.711393 0
M  V30 1640 C 262.308 1.70816 -1.51017 0
M  V30 1641 N 262.438 2.87826 -0.880757 0
M  V30 1642 N 262.178 1.67126 -2.8339 0
M  V30 1643 C 262.058 0.401421 -3.30572 0
M  V30 1644 H 259.079 -0.374722 -8.67691 0
M  V30 1645 H 258.809 -0.443485 -6.90277 0
M  V30 1646 H 259.676 1.75537 -7.96793 0
M  V30 1647 H 262.331 1.95076 -5.46529 0
M  V30 1648 H 262.61 -0.608565 -7.04577 0
M  V30 1649 H 263.602 0.889672 -7.08939 0
M  V30 1650 H 261.768 0.43308 -9.04564 0
M  V30 1651 H 261.719 -1.91249 -5.54442 0
M  V30 1652 H 262.401 0.718054 0.275244 0
M  V30 1653 H 262.438 3.75721 -1.41832 0
M  V30 1654 H 262.539 2.90436 0.145468 0
M  V30 1655 P 263.638 2.75334 -8.47391 0
M  V30 1656 O 263.858 3.84128 -9.44797 0
M  V30 1657 O 264.428 1.51947 -8.68712 0
M  V30 1658 O 263.888 3.29363 -6.99321 0
M  V30 1659 C 262.948 4.24011 -6.4274 0
M  V30 1660 C 263.678 5.20775 -5.52155 0
M  V30 1661 O 263.888 4.56534 -4.22446 0
M  V30 1662 C 265.078 5.62629 -5.96531 0
M  V30 1663 O 265.468 6.87667 -5.41053 0
M  V30 1664 C 265.958 4.52537 -5.39283 0
M  V30 1665 C 265.248 4.20027 -4.08623 0
M  V30 1666 N 265.298 2.76189 -3.71603 0
M  V30 1667 H 262.459 4.797 -7.24003 0
M  V30 1668 H 262.189 3.69856 -5.84513 0
M  V30 1669 H 263.056 6.10356 -5.41441 0
M  V30 1670 P 267.018 7.20834 -5.23717 0
M  V30 1671 O 267.238 8.66274 -5.38678 0
M  V30 1672 O 267.808 6.33687 -6.13629 0
M  V30 1673 O 267.268 6.7751 -3.72168 0
M  V30 1674 C 266.328 7.20919 -2.70795 0
M  V30 1675 C 267.058 7.45864 -1.40599 0
M  V30 1676 O 267.268 6.17751 -0.734343 0
M  V30 1677 C 268.458 8.05906 -1.51917 0
M  V30 1678 O 268.848 8.74358 -0.335205 0
M  V30 1679 C 269.338 6.83093 -1.70294 0
M  V30 1680 C 268.628 5.79992 -0.836974 0
M  V30 1681 N 268.678 4.41864 -1.38293 0
M  V30 1682 H 265.84 8.13738 -3.03804 0
M  V30 1683 H 265.568 6.42974 -2.55559 0
M  V30 1684 H 266.436 8.12139 -0.792866 0
M  V30 1685 H 269.091 5.80178 0.160643 0
M  V30 1686 H 269.371 6.51379 -2.75643 0
M  V30 1687 H 270.362 7.01832 -1.3448 0
M  V30 1688 H 268.528 8.73771 -2.38364 0
M  V30 1689 P 270.398 8.91 8.68872e-13 0
M  V30 1690 O 270.618 10.1726 0.733694 0
M  V30 1691 O 271.188 8.73148 -1.23936 0
M  V30 1692 O 270.648 7.66872 0.971405 0
M  V30 1693 C 269.708 7.42309 2.04641 0
M  V30 1694 C 270.438 6.86059 3.24661 0
M  V30 1695 O 270.648 5.42847 3.03646 0
M  V30 1696 C 271.838 7.41196 3.50753 0
M  V30 1697 O 272.228 7.27073 4.86816 0
M  V30 1698 C 272.718 6.5273 2.63741 0
M  V30 1699 C 272.008 5.1842 2.73198 0
M  V30 1700 N 272.058 4.38762 1.4784 0
M  V30 1701 H 269.219 8.36803 2.32493 0
M  V30 1702 H 268.949 6.70197 1.71129 0
M  V30 1703 H 269.816 7.03551 4.13168 0
M  V30 1704 P 273.778 7.20834 5.23717 0
M  V30 1705 O 273.998 7.7993 6.57351 0
M  V30 1706 O 274.568 7.79328 4.13004 0
M  V30 1707 O 274.028 5.63315 5.29344 0
M  V30 1708 C 273.088 4.80255 6.01876 0
M  V30 1709 C 273.818 3.64202 6.65911 0
M  V30 1710 O 274.028 2.60694 5.64732 0
M  V30 1711 C 275.218 3.93473 7.1943 0
M  V30 1712 O 275.608 3.02071 8.21205 0
M  V30 1713 C 276.098 3.73047 5.97036 0
M  V30 1714 C 275.388 2.58828 5.25741 0
M  V30 1715 N 275.438 2.6801 3.77422 0
M  V30 1716 C 275.588 1.50173 3.05038 0
M  V30 1717 O 275.678 0.428832 3.665 0
M  V30 1718 N 275.638 1.70922 1.55541 0
M  V30 1719 C 275.538 2.7407 1.06402 0
M  V30 1720 N 275.588 2.74764 -0.260931 0
M  V30 1721 C 275.388 3.96781 1.78296 0
M  V30 1722 C 275.338 3.87909 3.13891 0
M  V30 1723 H 272.598 5.4027 6.79873 0
M  V30 1724 H 272.329 4.41549 5.32301 0
M  V30 1725 H 273.196 3.26371 7.47889 0
M  V30 1726 H 275.851 1.63978 5.5665 0
M  V30 1727 H 276.13 4.63439 5.3432 0
M  V30 1728 H 277.122 3.44728 6.25838 0
M  V30 1729 H 275.288 4.96652 7.57263 0
M  V30 1730 H 275.216 4.78425 3.73088 0
M  V30 1731 H 275.318 4.92593 1.26997 0
M  V30 1732 H 275.706 1.86285 -0.77595 0
M  V30 1733 H 275.509 3.63657 -0.773896 0
M  V30 1734 P 277.158 2.75334 8.47391 0
M  V30 1735 O 277.378 2.44619 9.90336 0
M  V30 1736 O 277.948 3.87776 7.92294 0
M  V30 1737 O 277.408 1.4459 7.59357 0
M  V30 1738 C 276.468 0.347653 7.69315 0
M  V30 1739 C 277.198 -0.96767 7.52806 0
M  V30 1740 O 277.408 -1.21055 6.10208 0
M  V30 1741 C 278.598 -1.04557 8.13408 0
M  V30 1742 O 278.988 -2.38311 8.41922 0
M  V30 1743 C 279.478 -0.491279 7.02284 0
M  V30 1744 C 278.768 -0.996264 5.77469 0
M  V30 1745 N 278.818 -0.0501916 4.62973 0
M  V30 1746 C 278.738 1.31969 4.65661 0
M  V30 1747 N 278.808 1.86649 3.48119 0
M  V30 1748 C 278.958 0.792089 2.62406 0
M  V30 1749 C 279.088 0.705684 1.2207 0
M  V30 1750 N 279.098 1.76207 0.413762 0
M  V30 1751 N 279.208 -0.518981 0.685754 0
M  V30 1752 C 279.198 -1.57595 1.49174 0
M  V30 1753 N 279.078 -1.62909 2.80066 0
M  V30 1754 C 278.958 -0.388195 3.3073 0
M  V30 1755 H 275.98 0.374765 8.67791 0
M  V30 1756 H 275.708 0.443613 6.90476 0
M  V30 1757 H 276.576 -1.75559 7.96891 0
M  V30 1758 H 279.231 -1.94563 5.46818 0
M  V30 1759 H 279.511 0.608651 7.04676 0
M  V30 1760 H 280.502 -0.889796 7.09039 0
M  V30 1761 H 278.668 -0.433128 9.04664 0
M  V30 1762 H 278.627 1.89246 5.57664 0
M  V30 1763 H 279.008 2.71005 0.804694 0
M  V30 1764 H 279.197 1.63189 -0.603768 0
M  V30 1765 H 279.305 -2.53475 0.997614 0
M  V30 1766 P 280.538 -2.75334 8.47391 0
M  V30 1767 O 280.758 -3.84204 9.44982 0
M  V30 1768 O 281.328 -1.51982 8.68909 0
M  V30 1769 O 280.788 -3.29363 6.99321 0
M  V30 1770 C 279.848 -4.24066 6.42823 0
M  V30 1771 C 280.578 -5.20775 5.52155 0
M  V30 1772 O 280.788 -4.56607 4.22514 0
M  V30 1773 C 281.978 -5.62697 5.96604 0
M  V30 1774 O 282.368 -6.87667 5.41053 0
M  V30 1775 C 282.858 -4.52537 5.39283 0
M  V30 1776 C 282.148 -4.20027 4.08623 0
M  V30 1777 N 282.198 -2.76189 3.71603 0
M  V30 1778 C 282.118 -1.66944 4.54297 0
M  V30 1779 N 282.188 -0.536169 3.91344 0
M  V30 1780 C 282.338 -0.901569 2.58849 0
M  V30 1781 C 282.468 -0.146599 1.40236 0
M  V30 1782 N 282.478 1.18234 1.37046 0
M  V30 1783 N 282.588 -0.822941 0.249738 0
M  V30 1784 C 282.578 -2.15179 0.280525 0
M  V30 1785 N 282.458 -2.96414 1.30822 0
M  V30 1786 C 282.338 -2.25804 2.44748 0
M  V30 1787 H 279.36 -4.79756 7.24086 0
M  V30 1788 H 279.088 -3.69963 5.84682 0
M  V30 1789 H 279.956 -6.10431 5.41508 0
M  V30 1790 H 282.611 -4.78816 3.28024 0
M  V30 1791 H 282.891 -3.64957 6.05871 0
M  V30 1792 H 283.882 -4.88748 5.21323 0
M  V30 1793 H 282.048 -5.66789 7.0643 0
M  V30 1794 H 282.007 -1.74684 5.62396 0
M  V30 1795 H 282.388 1.71949 2.24394 0
M  V30 1796 H 282.577 1.67511 0.470742 0
M  V30 1797 H 282.685 -2.63704 -0.6828 0
M  V30 1798 P 283.918 -7.20834 5.23717 0
M  V30 1799 O 284.138 -8.66104 5.38572 0
M  V30 1800 O 284.708 -6.33544 6.1349 0
M  V30 1801 O 284.168 -6.7751 3.72168 0
M  V30 1802 C 283.228 -7.20825 2.7076 0
M  V30 1803 C 283.958 -7.45864 1.40599 0
M  V30 1804 O 284.168 -6.17651 0.734225 0
M  V30 1805 C 285.358 -8.05808 1.51899 0
M  V30 1806 O 285.748 -8.74358 0.335205 0
M  V30 1807 C 286.238 -6.83093 1.70294 0
M  V30 1808 C 285.528 -5.79992 0.836974 0
M  V30 1809 N 285.578 -4.41864 1.38293 0
M  V30 1810 C 285.498 -3.99538 2.69438 0
M  V30 1811 N 285.578 -2.69909 2.84277 0
M  V30 1812 C 285.718 -2.21719 1.5408 0
M  V30 1813 C 285.848 -0.891712 1.06628 0
M  V30 1814 O 285.868 0.161298 1.70137 0
M  V30 1815 N 285.968 -0.856846 -0.334985 0
M  V30 1816 C 285.968 -1.9641 -1.15789 0
M  V30 1817 N 286.098 -1.72708 -2.46522 0
M  V30 1818 N 285.838 -3.21165 -0.713741 0
M  V30 1819 C 285.718 -3.26797 0.639748 0
M  V30 1820 H 282.739 -8.13644 3.0377 0
M  V30 1821 H 282.469 -6.42788 2.55485 0
M  V30 1822 H 283.336 -8.12039 0.792769 0
M  V30 1823 H 285.991 -5.80061 -0.166416 0
M  V30 1824 H 286.27 -6.51287 2.75604 0
M  V30 1825 H 287.262 -7.01734 1.34462 0
M  V30 1826 H 285.428 -8.73674 2.38337 0
M  V30 1827 H 285.379 -4.68207 3.53221 0
M  V30 1828 H 286.061 0.0398818 -0.767965 0
M  V30 1829 H 286.098 -2.50995 -3.13503 0
M  V30 1830 H 286.199 -0.759148 -2.80716 0
M  V30 1831 P 287.298 -8.91 -1.02605e-12 0
M  V30 1832 O 287.518 -10.1746 -0.733838 0
M  V30 1833 O 288.088 -8.73346 1.23964 0
M  V30 1834 O 287.548 -7.66872 -0.971405 0
M  V30 1835 C 286.608 -7.42405 -2.04668 0
M  V30 1836 C 287.338 -6.86059 -3.24661 0
M  V30 1837 O 287.548 -5.42934 -3.03695 0
M  V30 1838 C 288.738 -7.41287 -3.50796 0
M  V30 1839 O 289.128 -7.27073 -4.86816 0
M  V30 1840 C 289.618 -6.5273 -2.63741 0
M  V30 1841 C 288.908 -5.1842 -2.73198 0
M  V30 1842 N 288.958 -4.38762 -1.4784 0
M  V30 1843 H 286.12 -8.36899 -2.3252 0
M  V30 1844 H 285.848 -6.70391 -1.71179 0
M  V30 1845 H 286.716 -7.03638 -4.13219 0
M  V30 1846 H 289.371 -4.59931 -3.54016 0
M  V30 1847 H 289.651 -6.88995 -1.59871 0
M  V30 1848 H 290.642 -6.4684 -3.0373 0
M  V30 1849 H 288.808 -8.47002 -3.20749 0
M  V30 1850 P 290.678 -7.20834 -5.23717 0
M  V30 1851 O 290.898 -7.80006 -6.57415 0
M  V30 1852 O 291.468 -7.79416 -4.13051 0
M  V30 1853 O 290.928 -5.63315 -5.29344 0
M  V30 1854 C 289.988 -4.80318 -6.01954 0
M  V30 1855 C 290.718 -3.64202 -6.65911 0
M  V30 1856 O 290.928 -2.60736 -5.64823 0
M  V30 1857 C 292.118 -3.93521 -7.19518 0
M  V30 1858 O 292.508 -3.02071 -8.21205 0
M  V30 1859 C 292.998 -3.73047 -5.97036 0
M  V30 1860 C 292.288 -2.58828 -5.25741 0
M  V30 1861 N 292.338 -2.68068 -3.77503 0
M  V30 1862 H 289.5 -5.40394 -6.8003 0
M  V30 1863 H 289.228 -4.41741 -5.32532 0
M  V30 1864 H 290.096 -3.26371 -7.47889 0
M  V30 1865 H 292.751 -1.64007 -5.56746 0
M  V30 1866 H 293.031 -4.63439 -5.3432 0
M  V30 1867 H 294.022 -3.44776 -6.25925 0
M  V30 1868 H 292.188 -4.96707 -7.57347 0
M  V30 1869 P 294.058 -2.75334 -8.47391 0
M  V30 1870 O 294.278 -2.44619 -9.90336 0
M  V30 1871 O 294.848 -3.87776 -7.92294 0
M  V30 1872 O 294.308 -1.4459 -7.59357 0
M  V30 1873 C 293.368 -0.347653 -7.69315 0
M  V30 1874 C 294.098 0.96767 -7.52806 0
M  V30 1875 O 294.308 1.21055 -6.10208 0
M  V30 1876 C 295.498 1.04557 -8.13408 0
M  V30 1877 O 295.888 2.38311 -8.41922 0
M  V30 1878 C 296.378 0.491279 -7.02284 0
M  V30 1879 C 295.668 0.996264 -5.77469 0
M  V30 1880 N 295.718 0.0501916 -4.62973 0
M  V30 1881 C 295.638 -1.31969 -4.65661 0
M  V30 1882 N 295.708 -1.86649 -3.48119 0
M  V30 1883 C 295.858 -0.792089 -2.62406 0
M  V30 1884 C 295.988 -0.705684 -1.2207 0
M  V30 1885 N 295.998 -1.76207 -0.413762 0
M  V30 1886 N 296.108 0.518981 -0.685754 0
M  V30 1887 C 296.098 1.57595 -1.49174 0
M  V30 1888 N 295.978 1.62909 -2.80066 0
M  V30 1889 C 295.858 0.388195 -3.3073 0
M  V30 1890 H 292.88 -0.374765 -8.67791 0
M  V30 1891 H 292.608 -0.443613 -6.90476 0
M  V30 1892 H 293.476 1.75559 -7.96891 0
M  V30 1893 H 296.131 1.94563 -5.46818 0
M  V30 1894 H 296.411 -0.608651 -7.04676 0
M  V30 1895 H 297.402 0.889796 -7.09039 0
M  V30 1896 H 295.568 0.433128 -9.04664 0
M  V30 1897 H 295.527 -1.89246 -5.57664 0
M  V30 1898 H 295.908 -2.71005 -0.804694 0
M  V30 1899 H 296.097 -1.63189 0.603768 0
M  V30 1900 H 296.205 2.53475 -0.997614 0
M  V30 1901 P 297.438 2.75334 -8.47391 0
M  V30 1902 O 297.658 3.84128 -9.44797 0
M  V30 1903 O 298.228 1.51947 -8.68712 0
M  V30 1904 O 297.688 3.29363 -6.99321 0
M  V30 1905 C 296.748 4.24011 -6.4274 0
M  V30 1906 C 297.478 5.20775 -5.52155 0
M  V30 1907 O 297.688 4.56534 -4.22446 0
M  V30 1908 C 298.878 5.62629 -5.96531 0
M  V30 1909 O 299.268 6.87667 -5.41053 0
M  V30 1910 C 299.758 4.52537 -5.39283 0
M  V30 1911 C 299.048 4.20027 -4.08623 0
M  V30 1912 N 299.098 2.76189 -3.71603 0
M  V30 1913 H 296.259 4.797 -7.24003 0
M  V30 1914 H 295.989 3.69856 -5.84513 0
M  V30 1915 H 296.856 6.10356 -5.41441 0
M  V30 1916 P 300.818 7.20834 -5.23717 0
M  V30 1917 O 301.038 8.66104 -5.38572 0
M  V30 1918 O 301.608 6.33544 -6.1349 0
M  V30 1919 O 301.068 6.7751 -3.72168 0
M  V30 1920 C 300.128 7.20825 -2.7076 0
M  V30 1921 C 300.858 7.45864 -1.40599 0
M  V30 1922 O 301.068 6.17651 -0.734225 0
M  V30 1923 C 302.258 8.05808 -1.51899 0
M  V30 1924 O 302.648 8.74358 -0.335205 0
M  V30 1925 C 303.138 6.83093 -1.70294 0
M  V30 1926 C 302.428 5.79992 -0.836974 0
M  V30 1927 N 302.478 4.41864 -1.38293 0
M  V30 1928 C 302.398 3.99538 -2.69438 0
M  V30 1929 N 302.478 2.69909 -2.84277 0
M  V30 1930 C 302.618 2.21719 -1.5408 0
M  V30 1931 C 302.748 0.891712 -1.06628 0
M  V30 1932 O 302.768 -0.161298 -1.70137 0
M  V30 1933 N 302.868 0.856846 0.334985 0
M  V30 1934 C 302.868 1.9641 1.15789 0
M  V30 1935 N 302.998 1.72708 2.46522 0
M  V30 1936 N 302.738 3.21165 0.713741 0
M  V30 1937 C 302.618 3.26797 -0.639748 0
M  V30 1938 H 299.639 8.13644 -3.0377 0
M  V30 1939 H 299.369 6.42788 -2.55485 0
M  V30 1940 H 300.236 8.12039 -0.792769 0
M  V30 1941 H 302.891 5.80061 0.166416 0
M  V30 1942 H 303.17 6.51287 -2.75604 0
M  V30 1943 H 304.162 7.01734 -1.34462 0
M  V30 1944 H 302.328 8.73674 -2.38337 0
M  V30 1945 H 302.279 4.68207 -3.53221 0
M  V30 1946 H 302.961 -0.0398818 0.767965 0
M  V30 1947 H 302.998 2.50995 3.13503 0
M  V30 1948 H 303.099 0.759148 2.80716 0
M  V30 1949 P 304.198 8.91 1.18324e-12 0
M  V30 1950 O 304.418 10.1726 0.733694 0
M  V30 1951 O 304.988 8.73148 -1.23936 0
M  V30 1952 O 304.448 7.66872 0.971405 0
M  V30 1953 C 303.508 7.42309 2.04641 0
M  V30 1954 C 304.238 6.86059 3.24661 0
M  V30 1955 O 304.448 5.42847 3.03646 0
M  V30 1956 C 305.638 7.41196 3.50753 0
M  V30 1957 O 306.028 7.27073 4.86816 0
M  V30 1958 C 306.518 6.5273 2.63741 0
M  V30 1959 C 305.808 5.1842 2.73198 0
M  V30 1960 N 305.858 4.38762 1.4784 0
M  V30 1961 C 305.778 4.81605 0.168631 0
M  V30 1962 N 305.858 3.85454 -0.713363 0
M  V30 1963 C 305.998 2.6994 0.0566958 0
M  V30 1964 C 306.128 1.34815 -0.338502 0
M  V30 1965 N 306.248 0.496304 0.77465 0
M  V30 1966 C 306.248 0.908403 2.09122 0
M  V30 1967 N 306.378 -0.0517805 3.00955 0
M  V30 1968 N 306.118 2.17875 2.46519 0
M  V30 1969 C 305.998 3.01988 1.4033 0
M  V30 1970 H 303.019 8.36803 2.32493 0
M  V30 1971 H 302.749 6.70197 1.71129 0
M  V30 1972 H 303.616 7.03551 4.13168 0
M  V30 1973 P 307.578 7.20834 5.23717 0
M  V30 1974 O 307.798 7.79853 6.57286 0
M  V30 1975 O 308.368 7.79239 4.12957 0
M  V30 1976 O 307.828 5.63315 5.29344 0
M  V30 1977 C 306.888 4.80255 6.01876 0
M  V30 1978 C 307.618 3.64202 6.65911 0
M  V30 1979 O 307.828 2.60694 5.64732 0
M  V30 1980 C 309.018 3.93473 7.1943 0
M  V30 1981 O 309.408 3.02071 8.21205 0
M  V30 1982 C 309.898 3.73047 5.97036 0
M  V30 1983 C 309.188 2.58828 5.25741 0
M  V30 1984 N 309.238 2.68068 3.77503 0
M  V30 1985 H 306.399 5.40332 6.79951 0
M  V30 1986 H 306.129 4.41613 5.32378 0
M  V30 1987 H 306.996 3.26331 7.47797 0
M  V30 1988 P 310.958 2.75334 8.47391 0
M  V30 1989 O 311.178 2.44571 9.90142 0
M  V30 1990 O 311.748 3.87688 7.92115 0
M  V30 1991 O 311.208 1.4459 7.59357 0
M  V30 1992 C 310.268 0.347608 7.69215 0
M  V30 1993 C 310.998 -0.96767 7.52806 0
M  V30 1994 O 311.208 -1.21036 6.1011 0
M  V30 1995 C 312.398 -1.04544 8.13308 0
M  V30 1996 O 312.788 -2.38311 8.41922 0
M  V30 1997 C 313.278 -0.491279 7.02284 0
M  V30 1998 C 312.568 -0.996264 5.77469 0
M  V30 1999 N 312.618 -0.0501916 4.62973 0
M  V30 2000 C 312.538 1.32786 4.63244 0
M  V30 2001 N 312.618 1.86957 3.44545 0
M  V30 2002 C 312.758 0.780241 2.58481 0
M  V30 2003 C 312.888 0.738536 1.17757 0
M  V30 2004 O 312.908 1.66794 0.372349 0
M  V30 2005 N 313.008 -0.58337 0.711393 0
M  V30 2006 C 313.008 -1.70816 1.51017 0
M  V30 2007 N 313.138 -2.87826 0.880757 0
M  V30 2008 N 312.878 -1.67126 2.8339 0
M  V30 2009 C 312.758 -0.401421 3.30572 0
M  V30 2010 H 309.779 0.374722 8.67691 0
M  V30 2011 H 309.509 0.443485 6.90277 0
M  V30 2012 H 310.376 -1.75537 7.96793 0
M  V30 2013 H 313.031 -1.95076 5.46529 0
M  V30 2014 H 313.31 0.608565 7.04577 0
M  V30 2015 H 314.302 -0.889672 7.08939 0
M  V30 2016 H 312.468 -0.43308 9.04564 0
M  V30 2017 H 312.419 1.91249 5.54442 0
M  V30 2018 H 313.101 -0.718054 -0.275244 0
M  V30 2019 H 313.138 -3.75721 1.41832 0
M  V30 2020 H 313.239 -2.90436 -0.145468 0
M  V30 2021 P 314.338 -2.75334 8.47391 0
M  V30 2022 O 314.558 -3.84166 9.4489 0
M  V30 2023 O 315.128 -1.51964 8.6881 0
M  V30 2024 O 314.588 -3.29363 6.99321 0
M  V30 2025 C 313.648 -4.23956 6.42656 0
M  V30 2026 C 314.378 -5.20775 5.52155 0
M  V30 2027 O 314.588 -4.56534 4.22446 0
M  V30 2028 C 315.778 -5.62629 5.96531 0
M  V30 2029 O 316.168 -6.87667 5.41053 0
M  V30 2030 C 316.658 -4.52537 5.39283 0
M  V30 2031 C 315.948 -4.20027 4.08623 0
M  V30 2032 N 315.998 -2.7613 3.71522 0
M  V30 2033 C 316.148 -2.45612 2.37989 0
M  V30 2034 O 316.238 -3.30919 1.51621 0
M  V30 2035 N 316.188 -1.10684 2.08435 0
M  V30 2036 C 316.098 -0.0690084 2.9792 0
M  V30 2037 C 315.948 -0.481522 4.35345 0
M  V30 2038 C 315.898 -1.78906 4.67968 0
M  V30 2039 H 313.158 -4.797 7.24003 0
M  V30 2040 H 312.889 -3.69802 5.84429 0
M  V30 2041 H 313.756 -6.10356 5.41441 0
M  V30 2042 H 316.411 -4.78651 3.27911 0
M  V30 2043 H 316.69 -3.64957 6.05871 0
M  V30 2044 H 317.682 -4.8868 5.2125 0
M  V30 2045 H 315.848 -5.66726 7.06352 0
M  V30 2046 H 315.777 -2.07737 5.72367 0
M  V30 2047 P 317.718 -7.20834 5.23717 0
M  V30 2048 O 317.938 -8.66104 5.38572 0
M  V30 2049 O 318.508 -6.33544 6.1349 0
M  V30 2050 O 317.968 -6.7751 3.72168 0
M  V30 2051 C 317.028 -7.20825 2.7076 0
M  V30 2052 C 317.758 -7.45864 1.40599 0
M  V30 2053 O 317.968 -6.17651 0.734225 0
M  V30 2054 C 319.158 -8.05808 1.51899 0
M  V30 2055 O 319.548 -8.74358 0.335205 0
M  V30 2056 C 320.038 -6.83093 1.70294 0
M  V30 2057 C 319.328 -5.79992 0.836974 0
M  V30 2058 N 319.378 -4.41864 1.38293 0
M  V30 2059 H 316.539 -8.13644 3.0377 0
M  V30 2060 H 316.269 -6.42788 2.55485 0
M  V30 2061 H 317.136 -8.12039 0.792769 0
M  V30 2062 P 321.098 -8.91 -1.34042e-12 0
M  V30 2063 O 321.318 -10.1726 -0.733694 0
M  V30 2064 O 321.888 -8.73148 1.23936 0
M  V30 2065 O 321.348 -7.66872 -0.971405 0
M  V30 2066 C 320.408 -7.42309 -2.04641 0
M  V30 2067 C 321.138 -6.86059 -3.24661 0
M  V30 2068 O 321.348 -5.42847 -3.03646 0
M  V30 2069 C 322.538 -7.41196 -3.50753 0
M  V30 2070 O 322.928 -7.27073 -4.86816 0
M  V30 2071 C 323.418 -6.5273 -2.63741 0
M  V30 2072 C 322.708 -5.1842 -2.73198 0
M  V30 2073 N 322.758 -4.38762 -1.4784 0
M  V30 2074 H 319.919 -8.36803 -2.32493 0
M  V30 2075 H 319.649 -6.70197 -1.71129 0
M  V30 2076 H 320.516 -7.03551 -4.13168 0
M  V30 2077 P 324.478 -7.20834 -5.23717 0
M  V30 2078 O 324.698 -7.79853 -6.57286 0
M  V30 2079 O 325.268 -7.79239 -4.12957 0
M  V30 2080 O 324.728 -5.63315 -5.29344 0
M  V30 2081 C 323.788 -4.80255 -6.01876 0
M  V30 2082 C 324.518 -3.64202 -6.65911 0
M  V30 2083 O 324.728 -2.60694 -5.64732 0
M  V30 2084 C 325.918 -3.93473 -7.1943 0
M  V30 2085 O 326.308 -3.02071 -8.21205 0
M  V30 2086 C 326.798 -3.73047 -5.97036 0
M  V30 2087 C 326.088 -2.58828 -5.25741 0
M  V30 2088 N 326.138 -2.68068 -3.77503 0
M  V30 2089 H 323.299 -5.40332 -6.79951 0
M  V30 2090 H 323.029 -4.41613 -5.32378 0
M  V30 2091 H 323.896 -3.26331 -7.47797 0
M  V30 2092 P 327.858 -2.75334 -8.47391 0
M  V30 2093 O 328.078 -2.44571 -9.90142 0
M  V30 2094 O 328.648 -3.87688 -7.92115 0
M  V30 2095 O 328.108 -1.4459 -7.59357 0
M  V30 2096 C 327.168 -0.347608 -7.69215 0
M  V30 2097 C 327.898 0.96767 -7.52806 0
M  V30 2098 O 328.108 1.21036 -6.1011 0
M  V30 2099 C 329.298 1.04544 -8.13308 0
M  V30 2100 O 329.688 2.38311 -8.41922 0
M  V30 2101 C 330.178 0.491279 -7.02284 0
M  V30 2102 C 329.468 0.996264 -5.77469 0
M  V30 2103 N 329.518 0.0501916 -4.62973 0
M  V30 2104 H 326.679 -0.374722 -8.67691 0
M  V30 2105 H 326.409 -0.443485 -6.90277 0
M  V30 2106 H 327.276 1.75537 -7.96793 0
M  V30 2107 P 331.238 2.75334 -8.47391 0
M  V30 2108 O 331.458 3.84128 -9.44797 0
M  V30 2109 O 332.028 1.51947 -8.68712 0
M  V30 2110 O 331.488 3.29363 -6.99321 0
M  V30 2111 C 330.548 4.24011 -6.4274 0
M  V30 2112 C 331.278 5.20775 -5.52155 0
M  V30 2113 O 331.488 4.56534 -4.22446 0
M  V30 2114 C 332.678 5.62629 -5.96531 0
M  V30 2115 O 333.068 6.87667 -5.41053 0
M  V30 2116 C 333.558 4.52537 -5.39283 0
M  V30 2117 C 332.848 4.20027 -4.08623 0
M  V30 2118 N 332.898 2.76189 -3.71603 0
M  V30 2119 H 330.059 4.797 -7.24003 0
M  V30 2120 H 329.789 3.69856 -5.84513 0
M  V30 2121 H 330.656 6.10356 -5.41441 0
M  V30 2122 P 334.618 7.20834 -5.23717 0
M  V30 2123 O 334.838 8.66104 -5.38572 0
M  V30 2124 O 335.408 6.33544 -6.1349 0
M  V30 2125 O 334.868 6.7751 -3.72168 0
M  V30 2126 C 333.928 7.20825 -2.7076 0
M  V30 2127 C 334.658 7.45864 -1.40599 0
M  V30 2128 O 334.868 6.17651 -0.734225 0
M  V30 2129 C 336.058 8.05808 -1.51899 0
M  V30 2130 O 336.448 8.74358 -0.335205 0
M  V30 2131 C 336.938 6.83093 -1.70294 0
M  V30 2132 C 336.228 5.79992 -0.836974 0
M  V30 2133 N 336.278 4.41864 -1.38293 0
M  V30 2134 C 336.198 3.99538 -2.69438 0
M  V30 2135 N 336.278 2.69909 -2.84277 0
M  V30 2136 C 336.418 2.21719 -1.5408 0
M  V30 2137 C 336.548 0.891712 -1.06628 0
M  V30 2138 O 336.568 -0.161298 -1.70137 0
M  V30 2139 N 336.668 0.856846 0.334985 0
M  V30 2140 C 336.668 1.9641 1.15789 0
M  V30 2141 N 336.798 1.72708 2.46522 0
M  V30 2142 N 336.538 3.21165 0.713741 0
M  V30 2143 C 336.418 3.26797 -0.639748 0
M  V30 2144 H 333.439 8.13644 -3.0377 0
M  V30 2145 H 333.169 6.42788 -2.55485 0
M  V30 2146 H 334.036 8.12039 -0.792769 0
M  V30 2147 H 336.691 5.80061 0.166416 0
M  V30 2148 H 336.97 6.51287 -2.75604 0
M  V30 2149 H 337.962 7.01734 -1.34462 0
M  V30 2150 H 336.128 8.73674 -2.38337 0
M  V30 2151 H 336.079 4.68207 -3.53221 0
M  V30 2152 H 336.761 -0.0398818 0.767965 0
M  V30 2153 H 336.798 2.50995 3.13503 0
M  V30 2154 H 336.899 0.759148 2.80716 0
M  V30 2155 P 337.998 8.91 1.4976e-12 0
M  V30 2156 O 338.218 10.1726 0.733694 0
M  V30 2157 O 338.788 8.73148 -1.23936 0
M  V30 2158 O 338.248 7.66872 0.971405 0
M  V30 2159 C 337.308 7.42309 2.04641 0
M  V30 2160 C 338.038 6.86059 3.24661 0
M  V30 2161 O 338.248 5.42847 3.03646 0
M  V30 2162 C 339.438 7.41196 3.50753 0
M  V30 2163 O 339.828 7.27073 4.86816 0
M  V30 2164 C 340.318 6.5273 2.63741 0
M  V30 2165 C 339.608 5.1842 2.73198 0
M  V30 2166 N 339.658 4.38762 1.4784 0
M  V30 2167 H 336.819 8.36803 2.32493 0
M  V30 2168 H 336.549 6.70197 1.71129 0
M  V30 2169 H 337.416 7.03551 4.13168 0
M  V30 2170 P 341.378 7.20834 5.23717 0
M  V30 2171 O 341.598 7.79853 6.57286 0
M  V30 2172 O 342.168 7.79239 4.12957 0
M  V30 2173 O 341.628 5.63315 5.29344 0
M  V30 2174 C 340.688 4.80255 6.01876 0
M  V30 2175 C 341.418 3.64202 6.65911 0
M  V30 2176 O 341.628 2.60694 5.64732 0
M  V30 2177 C 342.818 3.93473 7.1943 0
M  V30 2178 O 343.208 3.02071 8.21205 0
M  V30 2179 C 343.698 3.73047 5.97036 0
M  V30 2180 C 342.988 2.58828 5.25741 0
M  V30 2181 N 343.038 2.68068 3.77503 0
M  V30 2182 H 340.199 5.40332 6.79951 0
M  V30 2183 H 339.929 4.41613 5.32378 0
M  V30 2184 H 340.796 3.26331 7.47797 0
M  V30 2185 P 344.758 2.75334 8.47391 0
M  V30 2186 O 344.978 2.44595 9.90239 0
M  V30 2187 O 345.548 3.87732 7.92204 0
M  V30 2188 O 345.008 1.4459 7.59357 0
M  V30 2189 C 344.068 0.347608 7.69215 0
M  V30 2190 C 344.798 -0.96767 7.52806 0
M  V30 2191 O 345.008 -1.21036 6.1011 0
M  V30 2192 C 346.198 -1.04544 8.13308 0
M  V30 2193 O 346.588 -2.38311 8.41922 0
M  V30 2194 C 347.078 -0.491279 7.02284 0
M  V30 2195 C 346.368 -0.996264 5.77469 0
M  V30 2196 N 346.418 -0.0501808 4.62873 0
M  V30 2197 C 346.568 -0.578037 3.3505 0
M  V30 2198 O 346.658 -1.8073 3.21711 0
M  V30 2199 N 346.618 0.468541 2.263 0
M  V30 2200 C 346.518 1.59186 2.47176 0
M  V30 2201 N 346.568 2.37626 1.40392 0
M  V30 2202 C 346.368 2.16203 3.77467 0
M  V30 2203 C 346.318 1.29324 4.8195 0
M  V30 2204 H 343.578 0.374679 8.67591 0
M  V30 2205 H 343.309 0.443421 6.90177 0
M  V30 2206 H 344.176 -1.75559 7.96891 0
M  V30 2207 H 346.831 -1.94529 5.46723 0
M  V30 2208 H 347.11 0.608651 7.04676 0
M  V30 2209 H 348.102 -0.889672 7.08939 0
M  V30 2210 H 346.268 -0.43308 9.04564 0
M  V30 2211 H 346.196 1.67758 5.83046 0
M  V30 2212 H 346.298 3.23869 3.92281 0
M  V30 2213 H 346.686 1.96317 0.467202 0
M  V30 2214 H 346.489 3.39693 1.51142 0
M  V30 2215 P 348.138 -2.75334 8.47391 0
M  V30 2216 O 348.358 -3.84128 9.44797 0
M  V30 2217 O 348.928 -1.51947 8.68712 0
M  V30 2218 O 348.388 -3.29363 6.99321 0
M  V30 2219 C 347.448 -4.24011 6.4274 0
M  V30 2220 C 348.178 -5.20775 5.52155 0
M  V30 2221 O 348.388 -4.56534 4.22446 0
M  V30 2222 C 349.578 -5.62629 5.96531 0
M  V30 2223 O 349.968 -6.87667 5.41053 0
M  V30 2224 C 350.458 -4.52537 5.39283 0
M  V30 2225 C 349.748 -4.20027 4.08623 0
M  V30 2226 N 349.798 -2.76189 3.71603 0
M  V30 2227 C 349.718 -1.64862 4.52822 0
M  V30 2228 N 349.798 -0.512671 3.88633 0
M  V30 2229 C 349.938 -0.888083 2.54977 0
M  V30 2230 C 350.068 -0.094668 1.38677 0
M  V30 2231 O 350.088 1.13053 1.28163 0
M  V30 2232 N 350.188 -0.890102 0.232633 0
M  V30 2233 C 350.188 -2.26958 0.21772 0
M  V30 2234 N 350.318 -2.84626 -0.97925 0
M  V30 2235 N 350.058 -3.0178 1.31033 0
M  V30 2236 C 349.938 -2.26781 2.43843 0
M  V30 2237 H 346.959 -4.797 7.24003 0
M  V30 2238 H 346.689 -3.69856 5.84513 0
M  V30 2239 H 347.556 -6.10356 5.41441 0
M  V30 2240 H 350.211 -4.79061 3.27488 0
M  V30 2241 H 350.49 -3.64906 6.05785 0
M  V30 2242 H 351.482 -4.8868 5.2125 0
M  V30 2243 H 349.648 -5.66726 7.06352 0
M  V30 2244 H 349.599 -1.71169 5.60966 0
M  V30 2245 H 350.281 -0.419134 -0.644739 0
M  V30 2246 H 350.318 -3.87332 -1.06098 0
M  V30 2247 H 350.419 -2.26417 -1.82483 0
M  V30 2248 P 351.518 -7.20834 5.23717 0
M  V30 2249 O 351.738 -8.66104 5.38572 0
M  V30 2250 O 352.308 -6.33544 6.1349 0
M  V30 2251 O 351.768 -6.7751 3.72168 0
M  V30 2252 C 350.828 -7.20825 2.7076 0
M  V30 2253 C 351.558 -7.45864 1.40599 0
M  V30 2254 O 351.768 -6.17651 0.734225 0
M  V30 2255 C 352.958 -8.05808 1.51899 0
M  V30 2256 O 353.348 -8.74358 0.335205 0
M  V30 2257 C 353.838 -6.83093 1.70294 0
M  V30 2258 C 353.128 -5.79992 0.836974 0
M  V30 2259 N 353.178 -4.41864 1.38293 0
M  V30 2260 H 350.339 -8.13644 3.0377 0
M  V30 2261 H 350.069 -6.42788 2.55485 0
M  V30 2262 H 350.936 -8.12039 0.792769 0
M  V30 2263 P 354.898 -8.91 -1.65478e-12 0
M  V30 2264 O 355.118 -10.1726 -0.733694 0
M  V30 2265 O 355.688 -8.73148 1.23936 0
M  V30 2266 O 355.148 -7.66872 -0.971405 0
M  V30 2267 C 354.208 -7.42309 -2.04641 0
M  V30 2268 C 354.938 -6.86059 -3.24661 0
M  V30 2269 O 355.148 -5.42847 -3.03646 0
M  V30 2270 C 356.338 -7.41196 -3.50753 0
M  V30 2271 O 356.728 -7.27073 -4.86816 0
M  V30 2272 C 357.218 -6.5273 -2.63741 0
M  V30 2273 C 356.508 -5.1842 -2.73198 0
M  V30 2274 N 356.558 -4.38762 -1.4784 0
M  V30 2275 C 356.478 -4.81605 -0.168631 0
M  V30 2276 N 356.558 -3.85454 0.713363 0
M  V30 2277 C 356.698 -2.6994 -0.0566958 0
M  V30 2278 C 356.828 -1.34815 0.338502 0
M  V30 2279 O 356.848 -0.869548 1.47125 0
M  V30 2280 N 356.948 -0.496304 -0.77465 0
M  V30 2281 C 356.948 -0.908403 -2.09122 0
M  V30 2282 N 357.078 0.0517805 -3.00955 0
M  V30 2283 N 356.818 -2.17875 -2.46519 0
M  V30 2284 C 356.698 -3.01988 -1.4033 0
M  V30 2285 H 353.719 -8.36803 -2.32493 0
M  V30 2286 H 353.449 -6.70197 -1.71129 0
M  V30 2287 H 354.316 -7.03551 -4.13168 0
M  V30 2288 H 356.971 -4.59498 -3.54415 0
M  V30 2289 H 357.25 -6.88898 -1.59848 0
M  V30 2290 H 358.242 -6.46749 -3.03687 0
M  V30 2291 H 356.408 -8.46908 -3.20714 0
M  V30 2292 H 356.359 -5.86405 0.105564 0
M  V30 2293 H 357.041 0.483664 -0.597855 0
M  V30 2294 H 357.078 -0.187865 -4.0116 0
M  V30 2295 H 357.179 1.03585 -2.71726 0
M  V30 2296 P 358.278 -7.20834 -5.23717 0
M  V30 2297 O 358.498 -7.79853 -6.57286 0
M  V30 2298 O 359.068 -7.79239 -4.12957 0
M  V30 2299 O 358.528 -5.63315 -5.29344 0
M  V30 2300 C 357.588 -4.80255 -6.01876 0
M  V30 2301 C 358.318 -3.64202 -6.65911 0
M  V30 2302 O 358.528 -2.60694 -5.64732 0
M  V30 2303 C 359.718 -3.93473 -7.1943 0
M  V30 2304 O 360.108 -3.02071 -8.21205 0
M  V30 2305 C 360.598 -3.73047 -5.97036 0
M  V30 2306 C 359.888 -2.58828 -5.25741 0
M  V30 2307 N 359.938 -2.68068 -3.77503 0
M  V30 2308 H 357.099 -5.40332 -6.79951 0
M  V30 2309 H 356.829 -4.41613 -5.32378 0
M  V30 2310 H 357.696 -3.26331 -7.47797 0
M  V30 2311 P 361.658 -2.75334 -8.47391 0
M  V30 2312 O 361.878 -2.44595 -9.90239 0
M  V30 2313 O 362.448 -3.87732 -7.92204 0
M  V30 2314 O 361.908 -1.4459 -7.59357 0
M  V30 2315 C 360.968 -0.347563 -7.69115 0
M  V30 2316 C 361.698 0.96767 -7.52806 0
M  V30 2317 O 361.908 1.21036 -6.1011 0
M  V30 2318 C 363.098 1.04544 -8.13308 0
M  V30 2319 O 363.488 2.38311 -8.41922 0
M  V30 2320 C 363.978 0.491279 -7.02284 0
M  V30 2321 C 363.268 0.996264 -5.77469 0
M  V30 2322 N 363.318 0.0501808 -4.62873 0
M  V30 2323 C 363.468 0.588177 -3.36904 0
M  V30 2324 O 363.558 1.78598 -3.17173 0
M  V30 2325 N 363.508 -0.329694 -2.33686 0
M  V30 2326 C 363.418 -1.6953 -2.45079 0
M  V30 2327 O 363.468 -2.41926 -1.44899 0
M  V30 2328 C 363.268 -2.16933 -3.80505 0
M  V30 2329 C 363.158 -3.65373 -3.97621 0
M  V30 2330 C 363.218 -1.30326 -4.83752 0
M  V30 2331 H 360.478 -0.374722 -8.67691 0
M  V30 2332 H 360.209 -0.443421 -6.90177 0
M  V30 2333 H 361.076 1.75537 -7.96793 0
M  V30 2334 H 363.731 1.94496 -5.46629 0
M  V30 2335 H 364.01 -0.608651 -7.04676 0
M  V30 2336 H 365.002 0.889672 -7.08939 0
M  V30 2337 H 363.168 0.43308 -9.04564 0
M  V30 2338 H 363.097 -1.68366 -5.8516 0
M  V30 2339 H 364.127 -4.05985 -4.30448 0
M  V30 2340 H 362.39 -3.88028 -4.72875 0
M  V30 2341 H 362.878 -4.11381 -3.01609 0
M  V30 2342 H 363.614 0.0393617 -1.41345 0
M  V30 2343 P 365.038 2.75334 -8.47391 0
M  V30 2344 O 365.258 3.84128 -9.44797 0
M  V30 2345 O 365.828 1.51947 -8.68712 0
M  V30 2346 O 365.288 3.29363 -6.99321 0
M  V30 2347 C 364.348 4.24011 -6.4274 0
M  V30 2348 C 365.078 5.20775 -5.52155 0
M  V30 2349 O 365.288 4.56534 -4.22446 0
M  V30 2350 C 366.478 5.62629 -5.96531 0
M  V30 2351 O 366.868 6.87667 -5.41053 0
M  V30 2352 C 367.358 4.52537 -5.39283 0
M  V30 2353 C 366.648 4.20027 -4.08623 0
M  V30 2354 N 366.698 2.76189 -3.71603 0
M  V30 2355 C 366.618 1.64862 -4.52822 0
M  V30 2356 N 366.698 0.512671 -3.88633 0
M  V30 2357 C 366.838 0.888083 -2.54977 0
M  V30 2358 C 366.968 0.094668 -1.38677 0
M  V30 2359 O 366.988 -1.13053 -1.28163 0
M  V30 2360 N 367.088 0.890102 -0.232633 0
M  V30 2361 C 367.088 2.26958 -0.21772 0
M  V30 2362 N 367.218 2.84626 0.97925 0
M  V30 2363 N 366.958 3.0178 -1.31033 0
M  V30 2364 C 366.838 2.26781 -2.43843 0
M  V30 2365 H 363.859 4.797 -7.24003 0
M  V30 2366 H 363.589 3.69856 -5.84513 0
M  V30 2367 H 364.456 6.10356 -5.41441 0
M  V30 2368 H 367.111 4.79061 -3.27488 0
M  V30 2369 H 367.39 3.64906 -6.05785 0
M  V30 2370 H 368.382 4.8868 -5.2125 0
M  V30 2371 H 366.548 5.66726 -7.06352 0
M  V30 2372 H 366.499 1.71169 -5.60966 0
M  V30 2373 H 367.181 0.419134 0.644739 0
M  V30 2374 H 367.218 3.87332 1.06098 0
M  V30 2375 H 367.319 2.26417 1.82483 0
M  V30 2376 P 368.418 7.20834 -5.23717 0
M  V30 2377 O 368.638 8.66104 -5.38572 0
M  V30 2378 O 369.208 6.33544 -6.1349 0
M  V30 2379 O 368.668 6.7751 -3.72168 0
M  V30 2380 C 367.728 7.20825 -2.7076 0
M  V30 2381 C 368.458 7.45864 -1.40599 0
M  V30 2382 O 368.668 6.17651 -0.734225 0
M  V30 2383 C 369.858 8.05808 -1.51899 0
M  V30 2384 O 370.248 8.74358 -0.335205 0
M  V30 2385 C 370.738 6.83093 -1.70294 0
M  V30 2386 C 370.028 5.79992 -0.836974 0
M  V30 2387 N 370.078 4.41864 -1.38293 0
M  V30 2388 H 367.239 8.13644 -3.0377 0
M  V30 2389 H 366.969 6.42788 -2.55485 0
M  V30 2390 H 367.836 8.12039 -0.792769 0
M  V30 2391 P 371.798 8.91 1.81197e-12 0
M  V30 2392 O 372.018 10.1726 0.733694 0
M  V30 2393 O 372.588 8.73148 -1.23936 0
M  V30 2394 O 372.048 7.66872 0.971405 0
M  V30 2395 C 371.108 7.42309 2.04641 0
M  V30 2396 C 371.838 6.86059 3.24661 0
M  V30 2397 O 372.048 5.42847 3.03646 0
M  V30 2398 C 373.238 7.41196 3.50753 0
M  V30 2399 O 373.628 7.27073 4.86816 0
M  V30 2400 C 374.118 6.5273 2.63741 0
M  V30 2401 C 373.408 5.1842 2.73198 0
M  V30 2402 N 373.458 4.38762 1.4784 0
M  V30 2403 H 370.619 8.36803 2.32493 0
M  V30 2404 H 370.349 6.70197 1.71129 0
M  V30 2405 H 371.216 7.03551 4.13168 0
M  V30 2406 P 375.178 7.20834 5.23717 0
M  V30 2407 O 375.398 7.79853 6.57286 0
M  V30 2408 O 375.968 7.79239 4.12957 0
M  V30 2409 O 375.428 5.63315 5.29344 0
M  V30 2410 C 374.488 4.80255 6.01876 0
M  V30 2411 C 375.218 3.64202 6.65911 0
M  V30 2412 O 375.428 2.60694 5.64732 0
M  V30 2413 C 376.618 3.93473 7.1943 0
M  V30 2414 O 377.008 3.02071 8.21205 0
M  V30 2415 C 377.498 3.73047 5.97036 0
M  V30 2416 C 376.788 2.58828 5.25741 0
M  V30 2417 N 376.838 2.68068 3.77503 0
M  V30 2418 H 373.999 5.40332 6.79951 0
M  V30 2419 H 373.729 4.41613 5.32378 0
M  V30 2420 H 374.596 3.26331 7.47797 0
M  V30 2421 P 378.558 2.75334 8.47391 0
M  V30 2422 O 378.778 2.44595 9.90239 0
M  V30 2423 O 379.348 3.87732 7.92204 0
M  V30 2424 O 378.808 1.4459 7.59357 0
M  V30 2425 C 377.868 0.347563 7.69115 0
M  V30 2426 C 378.598 -0.96767 7.52806 0
M  V30 2427 O 378.808 -1.21036 6.1011 0
M  V30 2428 C 379.998 -1.04544 8.13308 0
M  V30 2429 O 380.388 -2.38311 8.41922 0
M  V30 2430 C 380.878 -0.491279 7.02284 0
M  V30 2431 C 380.168 -0.996264 5.77469 0
M  V30 2432 N 380.218 -0.0501808 4.62873 0
M  V30 2433 C 380.368 -0.588177 3.36904 0
M  V30 2434 O 380.458 -1.78598 3.17173 0
M  V30 2435 N 380.408 0.329694 2.33686 0
M  V30 2436 C 380.318 1.6953 2.45079 0
M  V30 2437 C 380.168 2.16933 3.80505 0
M  V30 2438 C 380.118 1.30326 4.83752 0
M  V30 2439 H 377.378 0.374722 8.67691 0
M  V30 2440 H 377.109 0.443421 6.90177 0
M  V30 2441 H 377.976 -1.75537 7.96793 0
M  V30 2442 H 380.631 -1.94496 5.46629 0
M  V30 2443 H 380.91 0.608651 7.04676 0
M  V30 2444 H 381.902 -0.889672 7.08939 0
M  V30 2445 H 380.068 -0.43308 9.04564 0
M  V30 2446 H 379.997 1.68366 5.8516 0
M  V30 2447 P 381.938 -2.75334 8.47391 0
M  V30 2448 O 382.158 -3.84128 9.44797 0
M  V30 2449 O 382.728 -1.51947 8.68712 0
M  V30 2450 O 382.188 -3.29363 6.99321 0
M  V30 2451 C 381.248 -4.24011 6.4274 0
M  V30 2452 C 381.978 -5.20775 5.52155 0
M  V30 2453 O 382.188 -4.56534 4.22446 0
M  V30 2454 C 383.378 -5.62629 5.96531 0
M  V30 2455 O 383.768 -6.87667 5.41053 0
M  V30 2456 C 384.258 -4.52537 5.39283 0
M  V30 2457 C 383.548 -4.20027 4.08623 0
M  V30 2458 N 383.598 -2.76189 3.71603 0
M  V30 2459 C 383.518 -1.64862 4.52822 0
M  V30 2460 N 383.598 -0.512671 3.88633 0
M  V30 2461 C 383.738 -0.888083 2.54977 0
M  V30 2462 C 383.868 -0.094668 1.38677 0
M  V30 2463 O 383.888 1.13053 1.28163 0
M  V30 2464 N 383.988 -0.890102 0.232633 0
M  V30 2465 C 383.988 -2.26958 0.21772 0
M  V30 2466 N 384.118 -2.84626 -0.97925 0
M  V30 2467 N 383.858 -3.0178 1.31033 0
M  V30 2468 C 383.738 -2.26781 2.43843 0
M  V30 2469 H 380.759 -4.797 7.24003 0
M  V30 2470 H 380.489 -3.69856 5.84513 0
M  V30 2471 H 381.356 -6.10356 5.41441 0
M  V30 2472 H 384.011 -4.79061 3.27488 0
M  V30 2473 H 384.29 -3.64906 6.05785 0
M  V30 2474 H 385.282 -4.8868 5.2125 0
M  V30 2475 H 383.448 -5.66726 7.06352 0
M  V30 2476 H 383.399 -1.71169 5.60966 0
M  V30 2477 H 384.081 -0.419134 -0.644739 0
M  V30 2478 H 384.118 -3.87332 -1.06098 0
M  V30 2479 H 384.219 -2.26417 -1.82483 0
M  V30 2480 P 385.318 -7.20834 5.23717 0
M  V30 2481 O 385.538 -8.66104 5.38572 0
M  V30 2482 O 386.108 -6.33544 6.1349 0
M  V30 2483 O 385.568 -6.7751 3.72168 0
M  V30 2484 C 384.628 -7.20825 2.7076 0
M  V30 2485 C 385.358 -7.45864 1.40599 0
M  V30 2486 O 385.568 -6.17651 0.734225 0
M  V30 2487 C 386.758 -8.05808 1.51899 0
M  V30 2488 O 387.148 -8.74358 0.335205 0
M  V30 2489 C 387.638 -6.83093 1.70294 0
M  V30 2490 C 386.928 -5.79992 0.836974 0
M  V30 2491 N 386.978 -4.41864 1.38293 0
M  V30 2492 H 384.139 -8.13644 3.0377 0
M  V30 2493 H 383.869 -6.42788 2.55485 0
M  V30 2494 H 384.736 -8.12039 0.792769 0
M  V30 2495 P 388.698 -8.91 -1.96915e-12 0
M  V30 2496 O 388.918 -10.1726 -0.733694 0
M  V30 2497 O 389.488 -8.73148 1.23936 0
M  V30 2498 O 388.948 -7.66872 -0.971405 0
M  V30 2499 C 388.008 -7.42309 -2.04641 0
M  V30 2500 C 388.738 -6.86059 -3.24661 0
M  V30 2501 O 388.948 -5.42847 -3.03646 0
M  V30 2502 C 390.138 -7.41196 -3.50753 0
M  V30 2503 O 390.528 -7.27073 -4.86816 0
M  V30 2504 C 391.018 -6.5273 -2.63741 0
M  V30 2505 C 390.308 -5.1842 -2.73198 0
M  V30 2506 N 390.358 -4.38762 -1.4784 0
M  V30 2507 C 390.278 -4.81605 -0.168631 0
M  V30 2508 N 390.358 -3.85454 0.713363 0
M  V30 2509 C 390.498 -2.6994 -0.0566958 0
M  V30 2510 C 390.628 -1.34815 0.338502 0
M  V30 2511 N 390.748 -0.496304 -0.77465 0
M  V30 2512 C 390.748 -0.908403 -2.09122 0
M  V30 2513 N 390.878 0.0517805 -3.00955 0
M  V30 2514 N 390.618 -2.17875 -2.46519 0
M  V30 2515 C 390.498 -3.01988 -1.4033 0
M  V30 2516 H 387.519 -8.36803 -2.32493 0
M  V30 2517 H 387.249 -6.70197 -1.71129 0
M  V30 2518 H 388.116 -7.03551 -4.13168 0
M  V30 2519 P 392.078 -7.20834 -5.23717 0
M  V30 2520 O 392.298 -7.79853 -6.57286 0
M  V30 2521 O 392.868 -7.79239 -4.12957 0
M  V30 2522 O 392.328 -5.63315 -5.29344 0
M  V30 2523 C 391.388 -4.80255 -6.01876 0
M  V30 2524 C 392.118 -3.64202 -6.65911 0
M  V30 2525 O 392.328 -2.60694 -5.64732 0
M  V30 2526 C 393.518 -3.93473 -7.1943 0
M  V30 2527 O 393.908 -3.02071 -8.21205 0
M  V30 2528 C 394.398 -3.73047 -5.97036 0
M  V30 2529 C 393.688 -2.58828 -5.25741 0
M  V30 2530 N 393.738 -2.68068 -3.77503 0
M  V30 2531 H 390.899 -5.40332 -6.79951 0
M  V30 2532 H 390.629 -4.41613 -5.32378 0
M  V30 2533 H 391.496 -3.26331 -7.47797 0
M  V30 2534 P 395.458 -2.75334 -8.47391 0
M  V30 2535 O 395.678 -2.44571 -9.90142 0
M  V30 2536 O 396.248 -3.87688 -7.92115 0
M  V30 2537 O 395.708 -1.4459 -7.59357 0
M  V30 2538 C 394.768 -0.347608 -7.69215 0
M  V30 2539 C 395.498 0.96767 -7.52806 0
M  V30 2540 O 395.708 1.21036 -6.1011 0
M  V30 2541 C 396.898 1.04544 -8.13308 0
M  V30 2542 O 397.288 2.38311 -8.41922 0
M  V30 2543 C 397.778 0.491279 -7.02284 0
M  V30 2544 C 397.068 0.996264 -5.77469 0
M  V30 2545 N 397.118 0.0501916 -4.62973 0
M  V30 2546 H 394.279 -0.374722 -8.67691 0
M  V30 2547 H 394.009 -0.443485 -6.90277 0
M  V30 2548 H 394.876 1.75537 -7.96793 0
M  V30 2549 P 398.838 2.75334 -8.47391 0
M  V30 2550 O 399.058 3.84128 -9.44797 0
M  V30 2551 O 399.628 1.51947 -8.68712 0
M  V30 2552 O 399.088 3.29363 -6.99321 0
M  V30 2553 C 398.148 4.24011 -6.4274 0
M  V30 2554 C 398.878 5.20775 -5.52155 0
M  V30 2555 O 399.088 4.56534 -4.22446 0
M  V30 2556 C 400.278 5.62629 -5.96531 0
M  V30 2557 O 400.668 6.87667 -5.41053 0
M  V30 2558 C 401.158 4.52537 -5.39283 0
M  V30 2559 C 400.448 4.20027 -4.08623 0
M  V30 2560 N 400.498 2.76189 -3.71603 0
M  V30 2561 C 400.418 1.64862 -4.52822 0
M  V30 2562 N 400.498 0.512671 -3.88633 0
M  V30 2563 C 400.638 0.888083 -2.54977 0
M  V30 2564 C 400.768 0.094668 -1.38677 0
M  V30 2565 N 400.888 0.890102 -0.232633 0
M  V30 2566 C 400.888 2.26958 -0.21772 0
M  V30 2567 N 401.018 2.84626 0.97925 0
M  V30 2568 N 400.758 3.0178 -1.31033 0
M  V30 2569 C 400.638 2.26781 -2.43843 0
M  V30 2570 H 397.659 4.797 -7.24003 0
M  V30 2571 H 397.389 3.69856 -5.84513 0
M  V30 2572 H 398.256 6.10356 -5.41441 0
M  V30 2573 P 402.218 7.20834 -5.23717 0
M  V30 2574 O 402.438 8.66104 -5.38572 0
M  V30 2575 O 403.008 6.33544 -6.1349 0
M  V30 2576 O 402.468 6.7751 -3.72168 0
M  V30 2577 C 401.528 7.20825 -2.7076 0
M  V30 2578 C 402.258 7.45864 -1.40599 0
M  V30 2579 O 402.468 6.17651 -0.734225 0
M  V30 2580 C 403.658 8.05808 -1.51899 0
M  V30 2581 O 404.048 8.74358 -0.335205 0
M  V30 2582 C 404.538 6.83093 -1.70294 0
M  V30 2583 C 403.828 5.79992 -0.836974 0
M  V30 2584 N 403.878 4.41864 -1.38293 0
M  V30 2585 H 401.039 8.13644 -3.0377 0
M  V30 2586 H 400.769 6.42788 -2.55485 0
M  V30 2587 H 401.636 8.12039 -0.792769 0
M  V30 2588 P 405.598 8.91 2.12633e-12 0
M  V30 2589 O 405.818 10.1726 0.733694 0
M  V30 2590 O 406.388 8.73148 -1.23936 0
M  V30 2591 O 405.848 7.66872 0.971405 0
M  V30 2592 C 404.908 7.42309 2.04641 0
M  V30 2593 C 405.638 6.86059 3.24661 0
M  V30 2594 O 405.848 5.42847 3.03646 0
M  V30 2595 C 407.038 7.41196 3.50753 0
M  V30 2596 O 407.428 7.27073 4.86816 0
M  V30 2597 C 407.918 6.5273 2.63741 0
M  V30 2598 C 407.208 5.1842 2.73198 0
M  V30 2599 N 407.258 4.38762 1.4784 0
M  V30 2600 H 404.419 8.36803 2.32493 0
M  V30 2601 H 404.149 6.70197 1.71129 0
M  V30 2602 H 405.016 7.03551 4.13168 0
M  V30 2603 P 408.978 7.20834 5.23717 0
M  V30 2604 O 409.198 7.79853 6.57286 0
M  V30 2605 O 409.768 7.79239 4.12957 0
M  V30 2606 O 409.228 5.63315 5.29344 0
M  V30 2607 C 408.288 4.80255 6.01876 0
M  V30 2608 C 409.018 3.64202 6.65911 0
M  V30 2609 O 409.228 2.60694 5.64732 0
M  V30 2610 C 410.418 3.93473 7.1943 0
M  V30 2611 O 410.808 3.02071 8.21205 0
M  V30 2612 C 411.298 3.73047 5.97036 0
M  V30 2613 C 410.588 2.58828 5.25741 0
M  V30 2614 N 410.638 2.68068 3.77503 0
M  V30 2615 C 410.558 3.79715 2.96723 0
M  V30 2616 N 410.638 3.5377 1.68852 0
M  V30 2617 C 410.778 2.15054 1.63254 0
M  V30 2618 C 410.908 1.28964 0.518571 0
M  V30 2619 N 411.028 -0.0538097 0.918425 0
M  V30 2620 C 411.028 -0.494275 2.22578 0
M  V30 2621 N 411.158 -1.81086 2.40434 0
M  V30 2622 N 410.898 0.313645 3.27502 0
M  V30 2623 C 410.778 1.61829 2.91033 0
M  V30 2624 H 407.799 5.40332 6.79951 0
M  V30 2625 H 407.529 4.41613 5.32378 0
M  V30 2626 H 408.396 3.26331 7.47797 0
M  V30 2627 P 412.358 2.75334 8.47391 0
M  V30 2628 O 412.578 2.44619 9.90336 0
M  V30 2629 O 413.148 3.87776 7.92294 0
M  V30 2630 O 412.608 1.4459 7.59357 0
M  V30 2631 C 411.668 0.347653 7.69315 0
M  V30 2632 C 412.398 -0.96767 7.52806 0
M  V30 2633 O 412.608 -1.21055 6.10208 0
M  V30 2634 C 413.798 -1.04557 8.13408 0
M  V30 2635 O 414.188 -2.38311 8.41922 0
M  V30 2636 C 414.678 -0.491279 7.02284 0
M  V30 2637 C 413.968 -0.996264 5.77469 0
M  V30 2638 N 414.018 -0.0501916 4.62973 0
M  V30 2639 H 411.18 0.374765 8.67791 0
M  V30 2640 H 410.908 0.443613 6.90476 0
M  V30 2641 H 411.776 -1.75559 7.96891 0
M  V30 2642 H 414.431 -1.94563 5.46818 0
M  V30 2643 H 414.711 0.608651 7.04676 0
M  V30 2644 H 415.702 -0.889796 7.09039 0
M  V30 2645 H 413.868 -0.433128 9.04664 0
M  V30 2646 P 415.738 -2.75334 8.47391 0
M  V30 2647 O 415.958 -3.84128 9.44797 0
M  V30 2648 O 416.528 -1.51947 8.68712 0
M  V30 2649 O 415.988 -3.29363 6.99321 0
M  V30 2650 C 415.048 -4.24011 6.4274 0
M  V30 2651 C 415.778 -5.20775 5.52155 0
M  V30 2652 O 415.988 -4.56534 4.22446 0
M  V30 2653 C 417.178 -5.62629 5.96531 0
M  V30 2654 O 417.568 -6.87667 5.41053 0
M  V30 2655 C 418.058 -4.52537 5.39283 0
M  V30 2656 C 417.348 -4.20027 4.08623 0
M  V30 2657 N 417.398 -2.76189 3.71603 0
M  V30 2658 H 414.559 -4.797 7.24003 0
M  V30 2659 H 414.289 -3.69856 5.84513 0
M  V30 2660 H 415.156 -6.10356 5.41441 0
M  V30 2661 P 419.118 -7.20834 5.23717 0
M  V30 2662 O 419.338 -8.66274 5.38678 0
M  V30 2663 O 419.908 -6.33687 6.13629 0
M  V30 2664 O 419.368 -6.7751 3.72168 0
M  V30 2665 C 418.428 -7.20919 2.70795 0
M  V30 2666 C 419.158 -7.45864 1.40599 0
M  V30 2667 O 419.368 -6.17751 0.734343 0
M  V30 2668 C 420.558 -8.05906 1.51917 0
M  V30 2669 O 420.948 -8.74358 0.335205 0
M  V30 2670 C 421.438 -6.83093 1.70294 0
M  V30 2671 C 420.728 -5.79992 0.836974 0
M  V30 2672 N 420.778 -4.41864 1.38293 0
M  V30 2673 C 420.698 -4.02089 2.69407 0
M  V30 2674 N 420.768 -2.73403 2.85089 0
M  V30 2675 C 420.918 -2.25086 1.5642 0
M  V30 2676 C 421.048 -0.942887 1.04836 0
M  V30 2677 N 421.058 0.150999 1.80369 0
M  V30 2678 N 421.168 -0.812565 -0.28167 0
M  V30 2679 C 421.158 -1.90572 -1.03784 0
M  V30 2680 N 421.038 -3.167 -0.683905 0
M  V30 2681 C 420.918 -3.26538 0.652815 0
M  V30 2682 H 417.94 -8.13738 3.03804 0
M  V30 2683 H 417.668 -6.42974 2.55559 0
M  V30 2684 H 418.536 -8.12139 0.792866 0
M  V30 2685 H 421.191 -5.80178 -0.160643 0
M  V30 2686 H 421.471 -6.51379 2.75643 0
M  V30 2687 H 422.462 -7.01832 1.3448 0
M  V30 2688 H 420.628 -8.73771 2.38364 0
M  V30 2689 H 420.587 -4.7189 3.52311 0
M  V30 2690 H 420.968 0.0721434 2.82608 0
M  V30 2691 H 421.157 1.0785 1.36544 0
M  V30 2692 H 421.265 -1.73207 -2.10241 0
M  V30 2693 P 422.497 -8.91 -2.28351e-12 0
M  V30 2694 O 422.717 -10.1736 -0.733766 0
M  V30 2695 O 423.287 -8.73247 1.2395 0
M  V30 2696 O 422.747 -7.66872 -0.971405 0
M  V30 2697 C 421.807 -7.42212 -2.04614 0
M  V30 2698 C 422.537 -6.86059 -3.24661 0
M  V30 2699 O 422.747 -5.42847 -3.03646 0
M  V30 2700 C 423.937 -7.41196 -3.50753 0
M  V30 2701 O 424.327 -7.27073 -4.86816 0
M  V30 2702 C 424.817 -6.5273 -2.63741 0
M  V30 2703 C 424.107 -5.1842 -2.73198 0
M  V30 2704 N 424.157 -4.38668 -1.47808 0
M  V30 2705 C 424.307 -3.02239 -1.60048 0
M  V30 2706 O 424.397 -2.46459 -2.67869 0
M  V30 2707 N 424.347 -2.32436 -0.408571 0
M  V30 2708 C 424.257 -2.85471 0.854993 0
M  V30 2709 C 424.107 -4.28918 0.887335 0
M  V30 2710 C 424.057 -5.00349 -0.255399 0
M  V30 2711 H 421.317 -8.36803 -2.32493 0
M  V30 2712 H 421.048 -6.701 -1.71105 0
M  V30 2713 H 421.915 -7.03551 -4.13168 0
M  V30 2714 H 424.57 -4.59773 -3.53894 0
M  V30 2715 H 424.849 -6.88995 -1.59871 0
M  V30 2716 H 425.841 -6.46749 -3.03687 0
M  V30 2717 H 424.007 -8.46908 -3.20714 0
M  V30 2718 H 423.936 -6.08548 -0.206986 0
M  V30 2719 P 425.877 -7.20834 -5.23717 0
M  V30 2720 O 426.097 -7.7993 -6.57351 0
M  V30 2721 O 426.667 -7.79328 -4.13004 0
M  V30 2722 O 426.127 -5.63315 -5.29344 0
M  V30 2723 C 425.187 -4.80255 -6.01876 0
M  V30 2724 C 425.917 -3.64202 -6.65911 0
M  V30 2725 O 426.127 -2.60694 -5.64732 0
M  V30 2726 C 427.317 -3.93473 -7.1943 0
M  V30 2727 O 427.707 -3.02071 -8.21205 0
M  V30 2728 C 428.197 -3.73047 -5.97036 0
M  V30 2729 C 427.487 -2.58828 -5.25741 0
M  V30 2730 N 427.537 -2.6801 -3.77422 0
M  V30 2731 C 427.687 -1.50173 -3.05038 0
M  V30 2732 O 427.777 -0.428832 -3.665 0
M  V30 2733 N 427.737 -1.70922 -1.55541 0
M  V30 2734 C 427.637 -2.7407 -1.06402 0
M  V30 2735 N 427.687 -2.74764 0.260931 0
M  V30 2736 C 427.487 -3.96781 -1.78296 0
M  V30 2737 C 427.437 -3.87909 -3.13891 0
M  V30 2738 H 424.697 -5.4027 -6.79873 0
M  V30 2739 H 424.428 -4.41549 -5.32301 0
M  V30 2740 H 425.295 -3.26371 -7.47889 0
M  V30 2741 H 427.95 -1.63978 -5.5665 0
M  V30 2742 H 428.229 -4.63439 -5.3432 0
M  V30 2743 H 429.221 -3.44728 -6.25838 0
M  V30 2744 H 427.387 -4.96652 -7.57263 0
M  V30 2745 H 427.315 -4.78425 -3.73088 0
M  V30 2746 H 427.417 -4.92593 -1.26997 0
M  V30 2747 H 427.805 -1.86285 0.77595 0
M  V30 2748 H 427.608 -3.63657 0.773896 0
M  V30 2749 P 429.257 -2.75334 -8.47391 0
M  V30 2750 O 429.477 -2.44595 -9.90239 0
M  V30 2751 O 430.047 -3.87732 -7.92204 0
M  V30 2752 O 429.507 -1.4459 -7.59357 0
M  V30 2753 C 428.567 -0.347563 -7.69115 0
M  V30 2754 C 429.297 0.96767 -7.52806 0
M  V30 2755 O 429.507 1.21036 -6.1011 0
M  V30 2756 C 430.697 1.04544 -8.13308 0
M  V30 2757 O 431.087 2.38311 -8.41922 0
M  V30 2758 C 431.577 0.491279 -7.02284 0
M  V30 2759 C 430.867 0.996264 -5.77469 0
M  V30 2760 N 430.917 0.0501808 -4.62873 0
M  V30 2761 C 431.067 0.588177 -3.36904 0
M  V30 2762 O 431.157 1.78598 -3.17173 0
M  V30 2763 N 431.107 -0.329694 -2.33686 0
M  V30 2764 C 431.017 -1.6953 -2.45079 0
M  V30 2765 C 430.867 -2.16933 -3.80505 0
M  V30 2766 C 430.817 -1.30326 -4.83752 0
M  V30 2767 H 428.077 -0.374722 -8.67691 0
M  V30 2768 H 427.808 -0.443421 -6.90177 0
M  V30 2769 H 428.675 1.75537 -7.96793 0
M  V30 2770 H 431.33 1.94496 -5.46629 0
M  V30 2771 H 431.609 -0.608651 -7.04676 0
M  V30 2772 H 432.601 0.889672 -7.08939 0
M  V30 2773 H 430.767 0.43308 -9.04564 0
M  V30 2774 H 430.696 -1.68366 -5.8516 0
M  V30 2775 P 432.637 2.75334 -8.47391 0
M  V30 2776 O 432.857 3.84128 -9.44797 0
M  V30 2777 O 433.427 1.51947 -8.68712 0
M  V30 2778 O 432.887 3.29363 -6.99321 0
M  V30 2779 C 431.947 4.24011 -6.4274 0
M  V30 2780 C 432.677 5.20775 -5.52155 0
M  V30 2781 O 432.887 4.56534 -4.22446 0
M  V30 2782 C 434.077 5.62629 -5.96531 0
M  V30 2783 O 434.467 6.87667 -5.41053 0
M  V30 2784 C 434.957 4.52537 -5.39283 0
M  V30 2785 C 434.247 4.20027 -4.08623 0
M  V30 2786 N 434.297 2.76189 -3.71603 0
M  V30 2787 H 431.458 4.797 -7.24003 0
M  V30 2788 H 431.188 3.69856 -5.84513 0
M  V30 2789 H 432.055 6.10356 -5.41441 0
M  V30 2790 P 436.017 7.20834 -5.23717 0
M  V30 2791 O 436.237 8.66104 -5.38572 0
M  V30 2792 O 436.807 6.33544 -6.1349 0
M  V30 2793 O 436.267 6.7751 -3.72168 0
M  V30 2794 C 435.327 7.20825 -2.7076 0
M  V30 2795 C 436.057 7.45864 -1.40599 0
M  V30 2796 O 436.267 6.17651 -0.734225 0
M  V30 2797 C 437.457 8.05808 -1.51899 0
M  V30 2798 O 437.847 8.74358 -0.335205 0
M  V30 2799 C 438.337 6.83093 -1.70294 0
M  V30 2800 C 437.627 5.79992 -0.836974 0
M  V30 2801 N 437.677 4.41864 -1.38293 0
M  V30 2802 H 434.838 8.13644 -3.0377 0
M  V30 2803 H 434.568 6.42788 -2.55485 0
M  V30 2804 H 435.435 8.12039 -0.792769 0
M  V30 2805 P 439.397 8.91 2.44069e-12 0
M  V30 2806 O 439.617 10.1746 0.733838 0
M  V30 2807 O 440.187 8.73346 -1.23964 0
M  V30 2808 O 439.647 7.66872 0.971405 0
M  V30 2809 C 438.707 7.42405 2.04668 0
M  V30 2810 C 439.437 6.86059 3.24661 0
M  V30 2811 O 439.647 5.42934 3.03695 0
M  V30 2812 C 440.837 7.41287 3.50796 0
M  V30 2813 O 441.227 7.27073 4.86816 0
M  V30 2814 C 441.717 6.5273 2.63741 0
M  V30 2815 C 441.007 5.1842 2.73198 0
M  V30 2816 N 441.057 4.38762 1.4784 0
M  V30 2817 H 438.219 8.36899 2.3252 0
M  V30 2818 H 437.947 6.70391 1.71179 0
M  V30 2819 H 438.815 7.03638 4.13219 0
M  V30 2820 H 441.47 4.59931 3.54016 0
M  V30 2821 H 441.75 6.88995 1.59871 0
M  V30 2822 H 442.741 6.4684 3.0373 0
M  V30 2823 H 440.907 8.47002 3.20749 0
M  V30 2824 P 442.777 7.20834 5.23717 0
M  V30 2825 O 442.997 7.80006 6.57415 0
M  V30 2826 O 443.567 7.79416 4.13051 0
M  V30 2827 O 443.027 5.63315 5.29344 0
M  V30 2828 C 442.087 4.80318 6.01954 0
M  V30 2829 C 442.817 3.64202 6.65911 0
M  V30 2830 O 443.027 2.60736 5.64823 0
M  V30 2831 C 444.217 3.93521 7.19518 0
M  V30 2832 O 444.607 3.02071 8.21205 0
M  V30 2833 C 445.097 3.73047 5.97036 0
M  V30 2834 C 444.387 2.58828 5.25741 0
M  V30 2835 N 444.437 2.68068 3.77503 0
M  V30 2836 C 444.357 3.80474 2.99159 0
M  V30 2837 N 444.427 3.55622 1.71925 0
M  V30 2838 C 444.577 2.1832 1.65733 0
M  V30 2839 C 444.707 1.28842 0.572777 0
M  V30 2840 N 444.717 1.66875 -0.70098 0
M  V30 2841 N 444.827 -0.016788 0.859836 0
M  V30 2842 C 444.817 -0.398145 2.13316 0
M  V30 2843 N 444.697 0.328224 3.22333 0
M  V30 2844 C 444.577 1.62992 2.90383 0
M  V30 2845 H 441.599 5.40394 6.8003 0
M  V30 2846 H 441.327 4.41741 5.32532 0
M  V30 2847 H 442.195 3.26371 7.47889 0
M  V30 2848 H 444.85 1.64007 5.56746 0
M  V30 2849 H 445.13 4.63439 5.3432 0
M  V30 2850 H 446.121 3.44776 6.25925 0
M  V30 2851 H 444.287 4.96707 7.57347 0
M  V30 2852 H 444.246 4.8089 3.39924 0
M  V30 2853 H 444.627 2.66547 -0.941919 0
M  V30 2854 H 444.816 0.965341 -1.44766 0
M  V30 2855 H 444.924 -1.46427 2.29697 0
M  V30 2856 P 446.157 2.75334 8.47391 0
M  V30 2857 O 446.377 2.44571 9.90142 0
M  V30 2858 O 446.947 3.87688 7.92115 0
M  V30 2859 O 446.407 1.4459 7.59357 0
M  V30 2860 C 445.467 0.347608 7.69215 0
M  V30 2861 C 446.197 -0.96767 7.52806 0
M  V30 2862 O 446.407 -1.21036 6.1011 0
M  V30 2863 C 447.597 -1.04544 8.13308 0
M  V30 2864 O 447.987 -2.38311 8.41922 0
M  V30 2865 C 448.477 -0.491279 7.02284 0
M  V30 2866 C 447.767 -0.996264 5.77469 0
M  V30 2867 N 447.817 -0.0501916 4.62973 0
M  V30 2868 H 444.978 0.374722 8.67691 0
M  V30 2869 H 444.708 0.443485 6.90277 0
M  V30 2870 H 445.575 -1.75537 7.96793 0
M  V30 2871 P 449.537 -2.75334 8.47391 0
M  V30 2872 O 449.757 -3.84128 9.44797 0
M  V30 2873 O 450.327 -1.51947 8.68712 0
M  V30 2874 O 449.787 -3.29363 6.99321 0
M  V30 2875 C 448.847 -4.24011 6.4274 0
M  V30 2876 C 449.577 -5.20775 5.52155 0
M  V30 2877 O 449.787 -4.56534 4.22446 0
M  V30 2878 C 450.977 -5.62629 5.96531 0
M  V30 2879 O 451.367 -6.87667 5.41053 0
M  V30 2880 C 451.857 -4.52537 5.39283 0
M  V30 2881 C 451.147 -4.20027 4.08623 0
M  V30 2882 N 451.197 -2.76189 3.71603 0
M  V30 2883 H 448.358 -4.797 7.24003 0
M  V30 2884 H 448.088 -3.69856 5.84513 0
M  V30 2885 H 448.955 -6.10356 5.41441 0
M  V30 2886 P 452.917 -7.20834 5.23717 0
M  V30 2887 O 453.137 -8.66189 5.38625 0
M  V30 2888 O 453.707 -6.33615 6.1356 0
M  V30 2889 O 453.167 -6.7751 3.72168 0
M  V30 2890 C 452.227 -7.20825 2.7076 0
M  V30 2891 C 452.957 -7.45864 1.40599 0
M  V30 2892 O 453.167 -6.17651 0.734225 0
M  V30 2893 C 454.357 -8.05808 1.51899 0
M  V30 2894 O 454.747 -8.74358 0.335205 0
M  V30 2895 C 455.237 -6.83093 1.70294 0
M  V30 2896 C 454.527 -5.79992 0.836974 0
M  V30 2897 N 454.577 -4.41769 1.38263 0
M  V30 2898 C 454.727 -3.36514 0.485617 0
M  V30 2899 O 454.817 -3.61814 -0.724703 0
M  V30 2900 N 454.777 -2.00746 1.14492 0
M  V30 2901 C 454.677 -1.85887 2.27776 0
M  V30 2902 N 454.727 -0.600907 2.69379 0
M  V30 2903 C 454.527 -2.92182 3.22265 0
M  V30 2904 C 454.477 -4.18399 2.71925 0
M  V30 2905 H 451.737 -8.1355 3.03735 0
M  V30 2906 H 451.468 -6.42695 2.55448 0
M  V30 2907 H 452.335 -8.12139 0.792866 0
M  V30 2908 H 454.99 -5.80078 -0.160615 0
M  V30 2909 H 455.269 -6.51379 2.75643 0
M  V30 2910 H 456.261 -7.01734 1.34462 0
M  V30 2911 H 454.427 -8.73674 2.38337 0
M  V30 2912 H 454.355 -5.02669 3.39718 0
M  V30 2913 H 454.457 -2.73001 4.29239 0
M  V30 2914 H 454.845 0.162318 2.01146 0
M  V30 2915 H 454.648 -0.387742 3.69773 0
M  V30 2916 P 456.297 -8.91 -2.59788e-12 0
M  V30 2917 O 456.517 -10.1726 -0.733694 0
M  V30 2918 O 457.087 -8.73148 1.23936 0
M  V30 2919 O 456.547 -7.66872 -0.971405 0
M  V30 2920 C 455.607 -7.42309 -2.04641 0
M  V30 2921 C 456.337 -6.86059 -3.24661 0
M  V30 2922 O 456.547 -5.42847 -3.03646 0
M  V30 2923 C 457.737 -7.41196 -3.50753 0
M  V30 2924 O 458.127 -7.27073 -4.86816 0
M  V30 2925 C 458.617 -6.5273 -2.63741 0
M  V30 2926 C 457.907 -5.1842 -2.73198 0
M  V30 2927 N 457.957 -4.38762 -1.4784 0
M  V30 2928 C 457.877 -4.81605 -0.168631 0
M  V30 2929 N 457.957 -3.85454 0.713363 0
M  V30 2930 C 458.097 -2.6994 -0.0566958 0
M  V30 2931 C 458.227 -1.34815 0.338502 0
M  V30 2932 O 458.247 -0.869548 1.47125 0
M  V30 2933 N 458.347 -0.496304 -0.77465 0
M  V30 2934 C 458.347 -0.908403 -2.09122 0
M  V30 2935 N 458.477 0.0517805 -3.00955 0
M  V30 2936 N 458.217 -2.17875 -2.46519 0
M  V30 2937 C 458.097 -3.01988 -1.4033 0
M  V30 2938 H 455.118 -8.36803 -2.32493 0
M  V30 2939 H 454.848 -6.70197 -1.71129 0
M  V30 2940 H 455.715 -7.03551 -4.13168 0
M  V30 2941 H 458.37 -4.59498 -3.54415 0
M  V30 2942 H 458.649 -6.88898 -1.59848 0
M  V30 2943 H 459.641 -6.46749 -3.03687 0
M  V30 2944 H 457.807 -8.46908 -3.20714 0
M  V30 2945 H 457.758 -5.86405 0.105564 0
M  V30 2946 H 458.44 0.483664 -0.597855 0
M  V30 2947 H 458.477 -0.187865 -4.0116 0
M  V30 2948 H 458.578 1.03585 -2.71726 0
M  V30 2949 P 459.677 -7.20834 -5.23717 0
M  V30 2950 O 459.897 -7.79853 -6.57286 0
M  V30 2951 O 460.467 -7.79239 -4.12957 0
M  V30 2952 O 459.927 -5.63315 -5.29344 0
M  V30 2953 C 458.987 -4.80255 -6.01876 0
M  V30 2954 C 459.717 -3.64202 -6.65911 0
M  V30 2955 O 459.927 -2.60694 -5.64732 0
M  V30 2956 C 461.117 -3.93473 -7.1943 0
M  V30 2957 O 461.507 -3.02071 -8.21205 0
M  V30 2958 C 461.997 -3.73047 -5.97036 0
M  V30 2959 C 461.287 -2.58828 -5.25741 0
M  V30 2960 N 461.337 -2.68068 -3.77503 0
M  V30 2961 C 461.257 -3.79715 -2.96723 0
M  V30 2962 N 461.337 -3.5377 -1.68852 0
M  V30 2963 C 461.477 -2.15054 -1.63254 0
M  V30 2964 C 461.607 -1.28964 -0.518571 0
M  V30 2965 O 461.627 -1.56826 0.679156 0
M  V30 2966 N 461.727 0.0538097 -0.918425 0
M  V30 2967 C 461.727 0.494275 -2.22578 0
M  V30 2968 N 461.857 1.81086 -2.40434 0
M  V30 2969 N 461.597 -0.313645 -3.27502 0
M  V30 2970 C 461.477 -1.61829 -2.91033 0
M  V30 2971 H 458.498 -5.40332 -6.79951 0
M  V30 2972 H 458.228 -4.41613 -5.32378 0
M  V30 2973 H 459.095 -3.26331 -7.47797 0
M  V30 2974 H 461.75 -1.63422 -5.56814 0
M  V30 2975 H 462.029 -4.63374 -5.34244 0
M  V30 2976 H 463.021 -3.44728 -6.25838 0
M  V30 2977 H 461.187 -4.96652 -7.57263 0
M  V30 2978 H 461.138 -4.80617 -3.3614 0
M  V30 2979 H 461.82 0.742702 -0.199384 0
M  V30 2980 H 461.857 2.20598 -3.35588 0
M  V30 2981 H 461.958 2.43518 -1.58945 0
M  V30 2982 P 463.057 -2.75334 -8.47391 0
M  V30 2983 O 463.277 -2.44571 -9.90142 0
M  V30 2984 O 463.847 -3.87688 -7.92115 0
M  V30 2985 O 463.307 -1.4459 -7.59357 0
M  V30 2986 C 462.367 -0.347608 -7.69215 0
M  V30 2987 C 463.097 0.96767 -7.52806 0
M  V30 2988 O 463.307 1.21036 -6.1011 0
M  V30 2989 C 464.497 1.04544 -8.13308 0
M  V30 2990 O 464.887 2.38311 -8.41922 0
M  V30 2991 C 465.377 0.491279 -7.02284 0
M  V30 2992 C 464.667 0.996264 -5.77469 0
M  V30 2993 N 464.717 0.0501916 -4.62973 0
M  V30 2994 H 461.878 -0.374722 -8.67691 0
M  V30 2995 H 461.608 -0.443485 -6.90277 0
M  V30 2996 H 462.475 1.75537 -7.96793 0
M  V30 2997 P 466.437 2.75334 -8.47391 0
M  V30 2998 O 466.657 3.84128 -9.44797 0
M  V30 2999 O 467.227 1.51947 -8.68712 0
M  V30 3000 O 466.687 3.29363 -6.99321 0
M  V30 3001 C 465.747 4.24011 -6.4274 0
M  V30 3002 C 466.477 5.20775 -5.52155 0
M  V30 3003 O 466.687 4.56534 -4.22446 0
M  V30 3004 C 467.877 5.62629 -5.96531 0
M  V30 3005 O 468.267 6.87667 -5.41053 0
M  V30 3006 C 468.757 4.52537 -5.39283 0
M  V30 3007 C 468.047 4.20027 -4.08623 0
M  V30 3008 N 468.097 2.76189 -3.71603 0
M  V30 3009 H 465.258 4.797 -7.24003 0
M  V30 3010 H 464.988 3.69856 -5.84513 0
M  V30 3011 H 465.855 6.10356 -5.41441 0
M  V30 3012 P 469.817 7.20834 -5.23717 0
M  V30 3013 O 470.037 8.66189 -5.38625 0
M  V30 3014 O 470.607 6.33615 -6.1356 0
M  V30 3015 O 470.067 6.7751 -3.72168 0
M  V30 3016 C 469.127 7.20732 -2.70725 0
M  V30 3017 C 469.857 7.45864 -1.40599 0
M  V30 3018 O 470.067 6.17651 -0.734225 0
M  V30 3019 C 471.257 8.05808 -1.51899 0
M  V30 3020 O 471.647 8.74358 -0.335205 0
M  V30 3021 C 472.137 6.83093 -1.70294 0
M  V30 3022 C 471.427 5.79992 -0.836974 0
M  V30 3023 N 471.477 4.41769 -1.38263 0
M  V30 3024 C 471.627 3.38591 -0.481702 0
M  V30 3025 O 471.717 3.56839 0.718452 0
M  V30 3026 N 471.667 2.1206 -1.03569 0
M  V30 3027 C 471.577 1.80696 -2.36966 0
M  V30 3028 O 471.627 0.630473 -2.74862 0
M  V30 3029 C 471.427 2.94845 -3.23898 0
M  V30 3030 C 471.317 2.65253 -4.70362 0
M  V30 3031 C 471.377 4.19803 -2.73435 0
M  V30 3032 H 468.637 8.13644 -3.0377 0
M  V30 3033 H 468.368 6.42695 -2.55448 0
M  V30 3034 H 469.235 8.12039 -0.792769 0
M  V30 3035 H 471.89 5.79978 0.160587 0
M  V30 3036 H 472.169 6.51379 -2.75643 0
M  V30 3037 H 473.161 7.01734 -1.34462 0
M  V30 3038 H 471.327 8.73674 -2.38337 0
M  V30 3039 H 471.256 5.04492 -3.4095 0
M  V30 3040 H 472.286 2.83924 -5.1913 0
M  V30 3041 H 470.549 3.29824 -5.15163 0
M  V30 3042 H 471.037 1.59723 -4.84449 0
M  V30 3043 H 471.773 1.35644 -0.399345 0
M  V30 3044 P 473.197 8.91 2.75506e-12 0
M  V30 3045 O 473.417 10.1726 0.733694 0
M  V30 3046 O 473.987 8.73148 -1.23936 0
M  V30 3047 O 473.447 7.66872 0.971405 0
M  V30 3048 C 472.507 7.42309 2.04641 0
M  V30 3049 C 473.237 6.86059 3.24661 0
M  V30 3050 O 473.447 5.42847 3.03646 0
M  V30 3051 C 474.637 7.41196 3.50753 0
M  V30 3052 O 475.027 7.27073 4.86816 0
M  V30 3053 C 475.517 6.5273 2.63741 0
M  V30 3054 C 474.807 5.1842 2.73198 0
M  V30 3055 N 474.857 4.38762 1.4784 0
M  V30 3056 H 472.018 8.36803 2.32493 0
M  V30 3057 H 471.748 6.70197 1.71129 0
M  V30 3058 H 472.615 7.03551 4.13168 0
M  V30 3059 P 476.577 7.20834 5.23717 0
M  V30 3060 O 476.797 7.79853 6.57286 0
M  V30 3061 O 477.367 7.79239 4.12957 0
M  V30 3062 O 476.827 5.63315 5.29344 0
M  V30 3063 C 475.887 4.80255 6.01876 0
M  V30 3064 C 476.617 3.64202 6.65911 0
M  V30 3065 O 476.827 2.60694 5.64732 0
M  V30 3066 C 478.017 3.93473 7.1943 0
M  V30 3067 O 478.407 3.02071 8.21205 0
M  V30 3068 C 478.897 3.73047 5.97036 0
M  V30 3069 C 478.187 2.58828 5.25741 0
M  V30 3070 N 478.237 2.68068 3.77503 0
M  V30 3071 H 475.398 5.40332 6.79951 0
M  V30 3072 H 475.128 4.41613 5.32378 0
M  V30 3073 H 475.995 3.26331 7.47797 0
M  V30 3074 P 479.957 2.75334 8.47391 0
M  V30 3075 O 480.177 2.44571 9.90142 0
M  V30 3076 O 480.747 3.87688 7.92115 0
M  V30 3077 O 480.207 1.4459 7.59357 0
M  V30 3078 C 479.267 0.347608 7.69215 0
M  V30 3079 C 479.997 -0.96767 7.52806 0
M  V30 3080 O 480.207 -1.21036 6.1011 0
M  V30 3081 C 481.397 -1.04544 8.13308 0
M  V30 3082 O 481.787 -2.38311 8.41922 0
M  V30 3083 C 482.277 -0.491279 7.02284 0
M  V30 3084 C 481.567 -0.996264 5.77469 0
M  V30 3085 N 481.617 -0.0501916 4.62973 0
M  V30 3086 H 478.778 0.374722 8.67691 0
M  V30 3087 H 478.508 0.443485 6.90277 0
M  V30 3088 H 479.375 -1.75537 7.96793 0
M  V30 3089 P 483.337 -2.75334 8.47391 0
M  V30 3090 O 483.557 -3.84128 9.44797 0
M  V30 3091 O 484.127 -1.51947 8.68712 0
M  V30 3092 O 483.587 -3.29363 6.99321 0
M  V30 3093 C 482.647 -4.24011 6.4274 0
M  V30 3094 C 483.377 -5.20775 5.52155 0
M  V30 3095 O 483.587 -4.56534 4.22446 0
M  V30 3096 C 484.777 -5.62629 5.96531 0
M  V30 3097 O 485.167 -6.87667 5.41053 0
M  V30 3098 C 485.657 -4.52537 5.39283 0
M  V30 3099 C 484.947 -4.20027 4.08623 0
M  V30 3100 N 484.997 -2.76189 3.71603 0
M  V30 3101 H 482.158 -4.797 7.24003 0
M  V30 3102 H 481.888 -3.69856 5.84513 0
M  V30 3103 H 482.755 -6.10356 5.41441 0
M  V30 3104 P 486.717 -7.20834 5.23717 0
M  V30 3105 O 486.937 -8.66104 5.38572 0
M  V30 3106 O 487.507 -6.33544 6.1349 0
M  V30 3107 O 486.967 -6.7751 3.72168 0
M  V30 3108 C 486.027 -7.20825 2.7076 0
M  V30 3109 C 486.757 -7.45864 1.40599 0
M  V30 3110 O 486.967 -6.17651 0.734225 0
M  V30 3111 C 488.157 -8.05808 1.51899 0
M  V30 3112 O 488.547 -8.74358 0.335205 0
M  V30 3113 C 489.037 -6.83093 1.70294 0
M  V30 3114 C 488.327 -5.79992 0.836974 0
M  V30 3115 N 488.377 -4.41864 1.38293 0
M  V30 3116 H 485.538 -8.13644 3.0377 0
M  V30 3117 H 485.268 -6.42788 2.55485 0
M  V30 3118 H 486.135 -8.12039 0.792769 0
M  V30 3119 P 490.097 -8.91 -2.91224e-12 0
M  V30 3120 O 490.317 -10.1726 -0.733694 0
M  V30 3121 O 490.887 -8.73148 1.23936 0
M  V30 3122 O 490.347 -7.66872 -0.971405 0
M  V30 3123 C 489.407 -7.42309 -2.04641 0
M  V30 3124 C 490.137 -6.86059 -3.24661 0
M  V30 3125 O 490.347 -5.42847 -3.03646 0
M  V30 3126 C 491.537 -7.41196 -3.50753 0
M  V30 3127 O 491.927 -7.27073 -4.86816 0
M  V30 3128 C 492.417 -6.5273 -2.63741 0
M  V30 3129 C 491.707 -5.1842 -2.73198 0
M  V30 3130 N 491.757 -4.38762 -1.4784 0
M  V30 3131 H 488.918 -8.36803 -2.32493 0
M  V30 3132 H 488.648 -6.70197 -1.71129 0
M  V30 3133 H 489.515 -7.03551 -4.13168 0
M  V30 3134 P 493.477 -7.20834 -5.23717 0
M  V30 3135 O 493.697 -7.79853 -6.57286 0
M  V30 3136 O 494.267 -7.79239 -4.12957 0
M  V30 3137 O 493.727 -5.63315 -5.29344 0
M  V30 3138 C 492.787 -4.80255 -6.01876 0
M  V30 3139 C 493.517 -3.64202 -6.65911 0
M  V30 3140 O 493.727 -2.60694 -5.64732 0
M  V30 3141 C 494.917 -3.93473 -7.1943 0
M  V30 3142 O 495.307 -3.02071 -8.21205 0
M  V30 3143 C 495.797 -3.73047 -5.97036 0
M  V30 3144 C 495.087 -2.58828 -5.25741 0
M  V30 3145 N 495.137 -2.68068 -3.77503 0
M  V30 3146 H 492.298 -5.40332 -6.79951 0
M  V30 3147 H 492.028 -4.41613 -5.32378 0
M  V30 3148 H 492.895 -3.26331 -7.47797 0
M  V30 3149 P 496.857 -2.75334 -8.47391 0
M  V30 3150 O 497.077 -2.44571 -9.90142 0
M  V30 3151 O 497.647 -3.87688 -7.92115 0
M  V30 3152 O 497.107 -1.4459 -7.59357 0
M  V30 3153 C 496.167 -0.347608 -7.69215 0
M  V30 3154 C 496.897 0.96767 -7.52806 0
M  V30 3155 O 497.107 1.21036 -6.1011 0
M  V30 3156 C 498.297 1.04544 -8.13308 0
M  V30 3157 O 498.687 2.38311 -8.41922 0
M  V30 3158 C 499.177 0.491279 -7.02284 0
M  V30 3159 C 498.467 0.996264 -5.77469 0
M  V30 3160 N 498.517 0.0501916 -4.62973 0
M  V30 3161 H 495.678 -0.374722 -8.67691 0
M  V30 3162 H 495.408 -0.443485 -6.90277 0
M  V30 3163 H 496.275 1.75537 -7.96793 0
M  V30 3164 P 500.237 2.75334 -8.47391 0
M  V30 3165 O 500.457 3.84128 -9.44797 0
M  V30 3166 O 501.027 1.51947 -8.68712 0
M  V30 3167 O 500.487 3.29363 -6.99321 0
M  V30 3168 C 499.547 4.24011 -6.4274 0
M  V30 3169 C 500.277 5.20775 -5.52155 0
M  V30 3170 O 500.487 4.56534 -4.22446 0
M  V30 3171 C 501.677 5.62629 -5.96531 0
M  V30 3172 O 502.067 6.87667 -5.41053 0
M  V30 3173 C 502.557 4.52537 -5.39283 0
M  V30 3174 C 501.847 4.20027 -4.08623 0
M  V30 3175 N 501.897 2.76189 -3.71603 0
M  V30 3176 H 499.058 4.797 -7.24003 0
M  V30 3177 H 498.788 3.69856 -5.84513 0
M  V30 3178 H 499.655 6.10356 -5.41441 0
M  V30 3179 P 503.617 7.20834 -5.23717 0
M  V30 3180 O 503.837 8.66104 -5.38572 0
M  V30 3181 O 504.407 6.33544 -6.1349 0
M  V30 3182 O 503.867 6.7751 -3.72168 0
M  V30 3183 C 502.927 7.20825 -2.7076 0
M  V30 3184 C 503.657 7.45864 -1.40599 0
M  V30 3185 O 503.867 6.17651 -0.734225 0
M  V30 3186 C 505.057 8.05808 -1.51899 0
M  V30 3187 O 505.447 8.74358 -0.335205 0
M  V30 3188 C 505.937 6.83093 -1.70294 0
M  V30 3189 C 505.227 5.79992 -0.836974 0
M  V30 3190 N 505.277 4.41864 -1.38293 0
M  V30 3191 C 505.197 3.99538 -2.69438 0
M  V30 3192 N 505.277 2.69909 -2.84277 0
M  V30 3193 C 505.417 2.21719 -1.5408 0
M  V30 3194 C 505.547 0.891712 -1.06628 0
M  V30 3195 O 505.567 -0.161298 -1.70137 0
M  V30 3196 N 505.667 0.856846 0.334985 0
M  V30 3197 C 505.667 1.9641 1.15789 0
M  V30 3198 N 505.797 1.72708 2.46522 0
M  V30 3199 N 505.537 3.21165 0.713741 0
M  V30 3200 C 505.417 3.26797 -0.639748 0
M  V30 3201 H 502.438 8.13644 -3.0377 0
M  V30 3202 H 502.168 6.42788 -2.55485 0
M  V30 3203 H 503.035 8.12039 -0.792769 0
M  V30 3204 H 505.69 5.80061 0.166416 0
M  V30 3205 H 505.969 6.51287 -2.75604 0
M  V30 3206 H 506.961 7.01734 -1.34462 0
M  V30 3207 H 505.127 8.73674 -2.38337 0
M  V30 3208 H 505.078 4.68207 -3.53221 0
M  V30 3209 H 505.76 -0.0398818 0.767965 0
M  V30 3210 H 505.797 2.50995 3.13503 0
M  V30 3211 H 505.898 0.759148 2.80716 0
M  V30 3212 P 506.997 8.91 3.06942e-12 0
M  V30 3213 O 507.217 10.1726 0.733694 0
M  V30 3214 O 507.787 8.73148 -1.23936 0
M  V30 3215 O 507.247 7.66872 0.971405 0
M  V30 3216 C 506.307 7.42309 2.04641 0
M  V30 3217 C 507.037 6.86059 3.24661 0
M  V30 3218 O 507.247 5.42847 3.03646 0
M  V30 3219 C 508.437 7.41196 3.50753 0
M  V30 3220 O 508.827 7.27073 4.86816 0
M  V30 3221 C 509.317 6.5273 2.63741 0
M  V30 3222 C 508.607 5.1842 2.73198 0
M  V30 3223 N 508.657 4.38762 1.4784 0
M  V30 3224 H 505.818 8.36803 2.32493 0
M  V30 3225 H 505.548 6.70197 1.71129 0
M  V30 3226 H 506.415 7.03551 4.13168 0
M  V30 3227 P 510.377 7.20834 5.23717 0
M  V30 3228 O 510.597 7.79853 6.57286 0
M  V30 3229 O 511.167 7.79239 4.12957 0
M  V30 3230 O 510.627 5.63315 5.29344 0
M  V30 3231 C 509.687 4.80255 6.01876 0
M  V30 3232 C 510.417 3.64202 6.65911 0
M  V30 3233 O 510.627 2.60694 5.64732 0
M  V30 3234 C 511.817 3.93473 7.1943 0
M  V30 3235 O 512.207 3.02071 8.21205 0
M  V30 3236 C 512.697 3.73047 5.97036 0
M  V30 3237 C 511.987 2.58828 5.25741 0
M  V30 3238 N 512.037 2.68068 3.77503 0
M  V30 3239 H 509.198 5.40332 6.79951 0
M  V30 3240 H 508.928 4.41613 5.32378 0
M  V30 3241 H 509.795 3.26331 7.47797 0
M  V30 3242 P 513.757 2.75334 8.47391 0
M  V30 3243 O 513.977 2.44571 9.90142 0
M  V30 3244 O 514.547 3.87688 7.92115 0
M  V30 3245 O 514.007 1.4459 7.59357 0
M  V30 3246 C 513.067 0.347608 7.69215 0
M  V30 3247 C 513.797 -0.96767 7.52806 0
M  V30 3248 O 514.007 -1.21036 6.1011 0
M  V30 3249 C 515.197 -1.04544 8.13308 0
M  V30 3250 O 515.587 -2.38311 8.41922 0
M  V30 3251 C 516.077 -0.491279 7.02284 0
M  V30 3252 C 515.367 -0.996264 5.77469 0
M  V30 3253 N 515.417 -0.0501916 4.62973 0
M  V30 3254 H 512.578 0.374722 8.67691 0
M  V30 3255 H 512.308 0.443485 6.90277 0
M  V30 3256 H 513.175 -1.75537 7.96793 0
M  V30 3257 P 517.137 -2.75334 8.47391 0
M  V30 3258 O 517.357 -3.84128 9.44797 0
M  V30 3259 O 517.927 -1.51947 8.68712 0
M  V30 3260 O 517.387 -3.29363 6.99321 0
M  V30 3261 C 516.447 -4.24011 6.4274 0
M  V30 3262 C 517.177 -5.20775 5.52155 0
M  V30 3263 O 517.387 -4.56534 4.22446 0
M  V30 3264 C 518.577 -5.62629 5.96531 0
M  V30 3265 O 518.967 -6.87667 5.41053 0
M  V30 3266 C 519.457 -4.52537 5.39283 0
M  V30 3267 C 518.747 -4.20027 4.08623 0
M  V30 3268 N 518.797 -2.76189 3.71603 0
M  V30 3269 H 515.958 -4.797 7.24003 0
M  V30 3270 H 515.688 -3.69856 5.84513 0
M  V30 3271 H 516.555 -6.10356 5.41441 0
M  V30 3272 P 520.517 -7.20834 5.23717 0
M  V30 3273 O 520.737 -8.66189 5.38625 0
M  V30 3274 O 521.307 -6.33615 6.1356 0
M  V30 3275 O 520.767 -6.7751 3.72168 0
M  V30 3276 C 519.827 -7.20732 2.70725 0
M  V30 3277 C 520.557 -7.45864 1.40599 0
M  V30 3278 O 520.767 -6.17651 0.734225 0
M  V30 3279 C 521.957 -8.05808 1.51899 0
M  V30 3280 O 522.347 -8.74358 0.335205 0
M  V30 3281 C 522.837 -6.83093 1.70294 0
M  V30 3282 C 522.127 -5.79992 0.836974 0
M  V30 3283 N 522.177 -4.41769 1.38263 0
M  V30 3284 C 522.327 -3.38591 0.481702 0
M  V30 3285 O 522.417 -3.56839 -0.718452 0
M  V30 3286 N 522.367 -2.1206 1.03569 0
M  V30 3287 C 522.277 -1.80696 2.36966 0
M  V30 3288 C 522.127 -2.94845 3.23898 0
M  V30 3289 C 522.077 -4.19803 2.73435 0
M  V30 3290 H 519.337 -8.13644 3.0377 0
M  V30 3291 H 519.068 -6.42695 2.55448 0
M  V30 3292 H 519.935 -8.12039 0.792769 0
M  V30 3293 H 522.59 -5.79978 -0.160587 0
M  V30 3294 H 522.869 -6.51379 2.75643 0
M  V30 3295 H 523.861 -7.01734 1.34462 0
M  V30 3296 H 522.027 -8.73674 2.38337 0
M  V30 3297 H 521.956 -5.04492 3.4095 0
M  V30 3298 P 523.897 -8.91 -3.22661e-12 0
M  V30 3299 O 524.117 -10.1726 -0.733694 0
M  V30 3300 O 524.687 -8.73148 1.23936 0
M  V30 3301 O 524.147 -7.66872 -0.971405 0
M  V30 3302 C 523.207 -7.42309 -2.04641 0
M  V30 3303 C 523.937 -6.86059 -3.24661 0
M  V30 3304 O 524.147 -5.42847 -3.03646 0
M  V30 3305 C 525.337 -7.41196 -3.50753 0
M  V30 3306 O 525.727 -7.27073 -4.86816 0
M  V30 3307 C 526.217 -6.5273 -2.63741 0
M  V30 3308 C 525.507 -5.1842 -2.73198 0
M  V30 3309 N 525.557 -4.38762 -1.4784 0
M  V30 3310 H 522.718 -8.36803 -2.32493 0
M  V30 3311 H 522.448 -6.70197 -1.71129 0
M  V30 3312 H 523.315 -7.03551 -4.13168 0
M  V30 3313 P 527.277 -7.20834 -5.23717 0
M  V30 3314 O 527.497 -7.79853 -6.57286 0
M  V30 3315 O 528.067 -7.79239 -4.12957 0
M  V30 3316 O 527.527 -5.63315 -5.29344 0
M  V30 3317 C 526.587 -4.80255 -6.01876 0
M  V30 3318 C 527.317 -3.64202 -6.65911 0
M  V30 3319 O 527.527 -2.60694 -5.64732 0
M  V30 3320 C 528.717 -3.93473 -7.1943 0
M  V30 3321 O 529.107 -3.02071 -8.21205 0
M  V30 3322 C 529.597 -3.73047 -5.97036 0
M  V30 3323 C 528.887 -2.58828 -5.25741 0
M  V30 3324 N 528.937 -2.68068 -3.77503 0
M  V30 3325 H 526.098 -5.40332 -6.79951 0
M  V30 3326 H 525.828 -4.41613 -5.32378 0
M  V30 3327 H 526.695 -3.26331 -7.47797 0
M  V30 3328 P 530.657 -2.75334 -8.47391 0
M  V30 3329 O 530.877 -2.44571 -9.90142 0
M  V30 3330 O 531.447 -3.87688 -7.92115 0
M  V30 3331 O 530.907 -1.4459 -7.59357 0
M  V30 3332 C 529.967 -0.347608 -7.69215 0
M  V30 3333 C 530.697 0.96767 -7.52806 0
M  V30 3334 O 530.907 1.21036 -6.1011 0
M  V30 3335 C 532.097 1.04544 -8.13308 0
M  V30 3336 O 532.487 2.38311 -8.41922 0
M  V30 3337 C 532.977 0.491279 -7.02284 0
M  V30 3338 C 532.267 0.996264 -5.77469 0
M  V30 3339 N 532.317 0.0501916 -4.62973 0
M  V30 3340 H 529.478 -0.374722 -8.67691 0
M  V30 3341 H 529.208 -0.443485 -6.90277 0
M  V30 3342 H 530.075 1.75537 -7.96793 0
M  V30 3343 P 534.037 2.75334 -8.47391 0
M  V30 3344 O 534.257 3.84128 -9.44797 0
M  V30 3345 O 534.827 1.51947 -8.68712 0
M  V30 3346 O 534.287 3.29363 -6.99321 0
M  V30 3347 C 533.347 4.24011 -6.4274 0
M  V30 3348 C 534.077 5.20775 -5.52155 0
M  V30 3349 O 534.287 4.56534 -4.22446 0
M  V30 3350 C 535.477 5.62629 -5.96531 0
M  V30 3351 O 535.867 6.87667 -5.41053 0
M  V30 3352 C 536.357 4.52537 -5.39283 0
M  V30 3353 C 535.647 4.20027 -4.08623 0
M  V30 3354 N 535.697 2.76189 -3.71603 0
M  V30 3355 H 532.858 4.797 -7.24003 0
M  V30 3356 H 532.588 3.69856 -5.84513 0
M  V30 3357 H 533.455 6.10356 -5.41441 0
M  V30 3358 P 537.417 7.20834 -5.23717 0
M  V30 3359 O 537.637 8.66104 -5.38572 0
M  V30 3360 O 538.207 6.33544 -6.1349 0
M  V30 3361 O 537.667 6.7751 -3.72168 0
M  V30 3362 C 536.727 7.20825 -2.7076 0
M  V30 3363 C 537.457 7.45864 -1.40599 0
M  V30 3364 O 537.667 6.17651 -0.734225 0
M  V30 3365 C 538.857 8.05808 -1.51899 0
M  V30 3366 O 539.247 8.74358 -0.335205 0
M  V30 3367 C 539.737 6.83093 -1.70294 0
M  V30 3368 C 539.027 5.79992 -0.836974 0
M  V30 3369 N 539.077 4.41864 -1.38293 0
M  V30 3370 H 536.238 8.13644 -3.0377 0
M  V30 3371 H 535.968 6.42788 -2.55485 0
M  V30 3372 H 536.835 8.12039 -0.792769 0
M  V30 3373 P 540.797 8.91 3.38379e-12 0
M  V30 3374 O 541.017 10.1736 0.733766 0
M  V30 3375 O 541.587 8.73247 -1.2395 0
M  V30 3376 O 541.047 7.66872 0.971405 0
M  V30 3377 C 540.107 7.42309 2.04641 0
M  V30 3378 C 540.837 6.86059 3.24661 0
M  V30 3379 O 541.047 5.42847 3.03646 0
M  V30 3380 C 542.237 7.41196 3.50753 0
M  V30 3381 O 542.627 7.27073 4.86816 0
M  V30 3382 C 543.117 6.5273 2.63741 0
M  V30 3383 C 542.407 5.1842 2.73198 0
M  V30 3384 N 542.457 4.38668 1.47808 0
M  V30 3385 C 542.607 3.00789 1.58511 0
M  V30 3386 O 542.697 2.50116 2.71298 0
M  V30 3387 N 542.657 2.29703 0.253698 0
M  V30 3388 C 542.557 2.84269 -0.750133 0
M  V30 3389 N 542.607 2.06951 -1.82612 0
M  V30 3390 C 542.407 4.25803 -0.889776 0
M  V30 3391 C 542.357 4.98326 0.259363 0
M  V30 3392 H 539.617 8.36707 2.32466 0
M  V30 3393 H 539.348 6.701 1.71105 0
M  V30 3394 H 540.215 7.03638 4.13219 0
M  V30 3395 H 542.87 4.59852 3.53955 0
M  V30 3396 H 543.149 6.88995 1.59871 0
M  V30 3397 H 544.141 6.46749 3.03687 0
M  V30 3398 H 542.307 8.46908 3.20714 0
M  V30 3399 H 542.235 6.06349 0.206238 0
M  V30 3400 H 542.337 4.73163 -1.86796 0
M  V30 3401 H 542.725 1.05099 -1.72271 0
M  V30 3402 H 542.528 2.48716 -2.76361 0
M  V30 3403 P 544.177 7.20834 5.23717 0
M  V30 3404 O 544.397 7.7993 6.57351 0
M  V30 3405 O 544.967 7.79328 4.13004 0
M  V30 3406 O 544.427 5.63315 5.29344 0
M  V30 3407 C 543.487 4.80193 6.01798 0
M  V30 3408 C 544.217 3.64202 6.65911 0
M  V30 3409 O 544.427 2.60694 5.64732 0
M  V30 3410 C 545.617 3.93473 7.1943 0
M  V30 3411 O 546.007 3.02071 8.21205 0
M  V30 3412 C 546.497 3.73047 5.97036 0
M  V30 3413 C 545.787 2.58828 5.25741 0
M  V30 3414 N 545.837 2.6801 3.77422 0
M  V30 3415 C 545.987 1.50443 3.07133 0
M  V30 3416 O 546.077 0.419406 3.61576 0
M  V30 3417 N 546.027 1.6403 1.69677 0
M  V30 3418 C 545.937 2.81206 0.986255 0
M  V30 3419 C 545.787 3.99158 1.80325 0
M  V30 3420 C 545.737 3.89779 3.1476 0
M  V30 3421 H 542.997 5.40332 6.79951 0
M  V30 3422 H 542.728 4.41549 5.32301 0
M  V30 3423 H 543.595 3.26331 7.47797 0
M  V30 3424 H 546.25 1.6395 5.56554 0
M  V30 3425 H 546.529 4.63439 5.3432 0
M  V30 3426 H 547.521 3.44728 6.25838 0
M  V30 3427 H 545.687 4.96652 7.57263 0
M  V30 3428 H 545.616 4.80159 3.74441 0
M  V30 3429 P 547.557 2.75334 8.47391 0
M  V30 3430 O 547.777 2.44619 9.90336 0
M  V30 3431 O 548.347 3.87776 7.92294 0
M  V30 3432 O 547.807 1.4459 7.59357 0
M  V30 3433 C 546.867 0.347653 7.69315 0
M  V30 3434 C 547.597 -0.96767 7.52806 0
M  V30 3435 O 547.807 -1.21055 6.10208 0
M  V30 3436 C 548.997 -1.04557 8.13408 0
M  V30 3437 O 549.387 -2.38311 8.41922 0
M  V30 3438 C 549.877 -0.491279 7.02284 0
M  V30 3439 C 549.167 -0.996264 5.77469 0
M  V30 3440 N 549.217 -0.0501916 4.62973 0
M  V30 3441 H 546.379 0.374765 8.67791 0
M  V30 3442 H 546.107 0.443613 6.90476 0
M  V30 3443 H 546.975 -1.75559 7.96891 0
M  V30 3444 H 549.63 -1.94563 5.46818 0
M  V30 3445 H 549.91 0.608651 7.04676 0
M  V30 3446 H 550.901 -0.889796 7.09039 0
M  V30 3447 H 549.067 -0.433128 9.04664 0
M  V30 3448 P 550.937 -2.75334 8.47391 0
M  V30 3449 O 551.157 -3.84204 9.44982 0
M  V30 3450 O 551.727 -1.51982 8.68909 0
M  V30 3451 O 551.187 -3.29363 6.99321 0
M  V30 3452 C 550.247 -4.24066 6.42823 0
M  V30 3453 C 550.977 -5.20775 5.52155 0
M  V30 3454 O 551.187 -4.56607 4.22514 0
M  V30 3455 C 552.377 -5.62697 5.96604 0
M  V30 3456 O 552.767 -6.87667 5.41053 0
M  V30 3457 C 553.257 -4.52537 5.39283 0
M  V30 3458 C 552.547 -4.20027 4.08623 0
M  V30 3459 N 552.597 -2.76189 3.71603 0
M  V30 3460 H 549.759 -4.79756 7.24086 0
M  V30 3461 H 549.487 -3.69963 5.84682 0
M  V30 3462 H 550.355 -6.10431 5.41508 0
M  V30 3463 H 553.01 -4.78816 3.28024 0
M  V30 3464 H 553.29 -3.64957 6.05871 0
M  V30 3465 H 554.281 -4.88748 5.21323 0
M  V30 3466 H 552.447 -5.66789 7.0643 0
M  V30 3467 P 554.317 -7.20834 5.23717 0
M  V30 3468 O 554.537 -8.66104 5.38572 0
M  V30 3469 O 555.107 -6.33544 6.1349 0
M  V30 3470 O 554.567 -6.7751 3.72168 0
M  V30 3471 C 553.627 -7.20825 2.7076 0
M  V30 3472 C 554.357 -7.45864 1.40599 0
M  V30 3473 O 554.567 -6.17651 0.734225 0
M  V30 3474 C 555.757 -8.05808 1.51899 0
M  V30 3475 O 556.147 -8.74358 0.335205 0
M  V30 3476 C 556.637 -6.83093 1.70294 0
M  V30 3477 C 555.927 -5.79992 0.836974 0
M  V30 3478 N 555.977 -4.41864 1.38293 0
M  V30 3479 H 553.138 -8.13644 3.0377 0
M  V30 3480 H 552.868 -6.42788 2.55485 0
M  V30 3481 H 553.735 -8.12039 0.792769 0
M  V30 3482 P 557.697 -8.91 -3.54097e-12 0
M  V30 3483 O 557.917 -10.1726 -0.733694 0
M  V30 3484 O 558.487 -8.73148 1.23936 0
M  V30 3485 O 557.947 -7.66872 -0.971405 0
M  V30 3486 C 557.007 -7.42309 -2.04641 0
M  V30 3487 C 557.737 -6.86059 -3.24661 0
M  V30 3488 O 557.947 -5.42847 -3.03646 0
M  V30 3489 C 559.137 -7.41196 -3.50753 0
M  V30 3490 O 559.527 -7.27073 -4.86816 0
M  V30 3491 C 560.017 -6.5273 -2.63741 0
M  V30 3492 C 559.307 -5.1842 -2.73198 0
M  V30 3493 N 559.357 -4.38762 -1.4784 0
M  V30 3494 C 559.277 -4.81605 -0.168631 0
M  V30 3495 N 559.357 -3.85454 0.713363 0
M  V30 3496 C 559.497 -2.6994 -0.0566958 0
M  V30 3497 C 559.627 -1.34815 0.338502 0
M  V30 3498 N 559.747 -0.496304 -0.77465 0
M  V30 3499 C 559.747 -0.908403 -2.09122 0
M  V30 3500 N 559.877 0.0517805 -3.00955 0
M  V30 3501 N 559.617 -2.17875 -2.46519 0
M  V30 3502 C 559.497 -3.01988 -1.4033 0
M  V30 3503 H 556.518 -8.36803 -2.32493 0
M  V30 3504 H 556.248 -6.70197 -1.71129 0
M  V30 3505 H 557.115 -7.03551 -4.13168 0
M  V30 3506 P 561.077 -7.20834 -5.23717 0
M  V30 3507 O 561.297 -7.79853 -6.57286 0
M  V30 3508 O 561.867 -7.79239 -4.12957 0
M  V30 3509 O 561.327 -5.63315 -5.29344 0
M  V30 3510 C 560.387 -4.80255 -6.01876 0
M  V30 3511 C 561.117 -3.64202 -6.65911 0
M  V30 3512 O 561.327 -2.60694 -5.64732 0
M  V30 3513 C 562.517 -3.93473 -7.1943 0
M  V30 3514 O 562.907 -3.02071 -8.21205 0
M  V30 3515 C 563.397 -3.73047 -5.97036 0
M  V30 3516 C 562.687 -2.58828 -5.25741 0
M  V30 3517 N 562.737 -2.68068 -3.77503 0
M  V30 3518 H 559.898 -5.40332 -6.79951 0
M  V30 3519 H 559.628 -4.41613 -5.32378 0
M  V30 3520 H 560.495 -3.26331 -7.47797 0
M  V30 3521 P 564.457 -2.75334 -8.47391 0
M  V30 3522 O 564.677 -2.44571 -9.90142 0
M  V30 3523 O 565.247 -3.87688 -7.92115 0
M  V30 3524 O 564.707 -1.4459 -7.59357 0
M  V30 3525 C 563.767 -0.347608 -7.69215 0
M  V30 3526 C 564.497 0.96767 -7.52806 0
M  V30 3527 O 564.707 1.21036 -6.1011 0
M  V30 3528 C 565.897 1.04544 -8.13308 0
M  V30 3529 O 566.287 2.38311 -8.41922 0
M  V30 3530 C 566.777 0.491279 -7.02284 0
M  V30 3531 C 566.067 0.996264 -5.77469 0
M  V30 3532 N 566.117 0.0501916 -4.62973 0
M  V30 3533 H 563.278 -0.374722 -8.67691 0
M  V30 3534 H 563.008 -0.443485 -6.90277 0
M  V30 3535 H 563.875 1.75537 -7.96793 0
M  V30 3536 P 567.837 2.75334 -8.47391 0
M  V30 3537 O 568.057 3.84166 -9.4489 0
M  V30 3538 O 568.627 1.51964 -8.6881 0
M  V30 3539 O 568.087 3.29363 -6.99321 0
M  V30 3540 C 567.147 4.23956 -6.42656 0
M  V30 3541 C 567.877 5.20775 -5.52155 0
M  V30 3542 O 568.087 4.56534 -4.22446 0
M  V30 3543 C 569.277 5.62629 -5.96531 0
M  V30 3544 O 569.667 6.87667 -5.41053 0
M  V30 3545 C 570.157 4.52537 -5.39283 0
M  V30 3546 C 569.447 4.20027 -4.08623 0
M  V30 3547 N 569.497 2.7613 -3.71522 0
M  V30 3548 C 569.647 2.45612 -2.37989 0
M  V30 3549 O 569.737 3.30919 -1.51621 0
M  V30 3550 N 569.687 1.10684 -2.08435 0
M  V30 3551 C 569.597 0.0690084 -2.9792 0
M  V30 3552 C 569.447 0.481522 -4.35345 0
M  V30 3553 C 569.397 1.78906 -4.67968 0
M  V30 3554 H 566.657 4.797 -7.24003 0
M  V30 3555 H 566.388 3.69802 -5.84429 0
M  V30 3556 H 567.255 6.10356 -5.41441 0
M  V30 3557 H 569.91 4.78651 -3.27911 0
M  V30 3558 H 570.189 3.64957 -6.05871 0
M  V30 3559 H 571.181 4.8868 -5.2125 0
M  V30 3560 H 569.347 5.66726 -7.06352 0
M  V30 3561 H 569.276 2.07737 -5.72367 0
M  V30 3562 P 571.217 7.20834 -5.23717 0
M  V30 3563 O 571.437 8.66104 -5.38572 0
M  V30 3564 O 572.007 6.33544 -6.1349 0
M  V30 3565 O 571.467 6.7751 -3.72168 0
M  V30 3566 C 570.527 7.20825 -2.7076 0
M  V30 3567 C 571.257 7.45864 -1.40599 0
M  V30 3568 O 571.467 6.17651 -0.734225 0
M  V30 3569 C 572.657 8.05808 -1.51899 0
M  V30 3570 O 573.047 8.74358 -0.335205 0
M  V30 3571 C 573.537 6.83093 -1.70294 0
M  V30 3572 C 572.827 5.79992 -0.836974 0
M  V30 3573 N 572.877 4.41864 -1.38293 0
M  V30 3574 C 572.797 3.99538 -2.69438 0
M  V30 3575 N 572.877 2.69909 -2.84277 0
M  V30 3576 C 573.017 2.21719 -1.5408 0
M  V30 3577 C 573.147 0.891712 -1.06628 0
M  V30 3578 O 573.167 -0.161298 -1.70137 0
M  V30 3579 N 573.267 0.856846 0.334985 0
M  V30 3580 C 573.267 1.9641 1.15789 0
M  V30 3581 N 573.397 1.72708 2.46522 0
M  V30 3582 N 573.137 3.21165 0.713741 0
M  V30 3583 C 573.017 3.26797 -0.639748 0
M  V30 3584 H 570.038 8.13644 -3.0377 0
M  V30 3585 H 569.768 6.42788 -2.55485 0
M  V30 3586 H 570.635 8.12039 -0.792769 0
M  V30 3587 H 573.29 5.80061 0.166416 0
M  V30 3588 H 573.569 6.51287 -2.75604 0
M  V30 3589 H 574.561 7.01734 -1.34462 0
M  V30 3590 H 572.727 8.73674 -2.38337 0
M  V30 3591 H 572.678 4.68207 -3.53221 0
M  V30 3592 H 573.36 -0.0398818 0.767965 0
M  V30 3593 H 573.397 2.50995 3.13503 0
M  V30 3594 H 573.498 0.759148 2.80716 0
M  V30 3595 P 574.597 8.91 3.69815e-12 0
M  V30 3596 O 574.817 10.1726 0.733694 0
M  V30 3597 O 575.387 8.73148 -1.23936 0
M  V30 3598 O 574.847 7.66872 0.971405 0
M  V30 3599 C 573.907 7.42309 2.04641 0
M  V30 3600 C 574.637 6.86059 3.24661 0
M  V30 3601 O 574.847 5.42847 3.03646 0
M  V30 3602 C 576.037 7.41196 3.50753 0
M  V30 3603 O 576.427 7.27073 4.86816 0
M  V30 3604 C 576.917 6.5273 2.63741 0
M  V30 3605 C 576.207 5.1842 2.73198 0
M  V30 3606 N 576.257 4.38762 1.4784 0
M  V30 3607 H 573.418 8.36803 2.32493 0
M  V30 3608 H 573.148 6.70197 1.71129 0
M  V30 3609 H 574.015 7.03551 4.13168 0
M  V30 3610 P 577.977 7.20834 5.23717 0
M  V30 3611 O 578.197 7.79853 6.57286 0
M  V30 3612 O 578.767 7.79239 4.12957 0
M  V30 3613 O 578.227 5.63315 5.29344 0
M  V30 3614 C 577.287 4.80255 6.01876 0
M  V30 3615 C 578.017 3.64202 6.65911 0
M  V30 3616 O 578.227 2.60694 5.64732 0
M  V30 3617 C 579.417 3.93473 7.1943 0
M  V30 3618 O 579.807 3.02071 8.21205 0
M  V30 3619 C 580.297 3.73047 5.97036 0
M  V30 3620 C 579.587 2.58828 5.25741 0
M  V30 3621 N 579.637 2.68068 3.77503 0
M  V30 3622 C 579.557 3.79715 2.96723 0
M  V30 3623 N 579.637 3.5377 1.68852 0
M  V30 3624 C 579.777 2.15054 1.63254 0
M  V30 3625 C 579.907 1.28964 0.518571 0
M  V30 3626 N 580.027 -0.0538097 0.918425 0
M  V30 3627 C 580.027 -0.494275 2.22578 0
M  V30 3628 N 580.157 -1.81086 2.40434 0
M  V30 3629 N 579.897 0.313645 3.27502 0
M  V30 3630 C 579.777 1.61829 2.91033 0
M  V30 3631 H 576.798 5.40332 6.79951 0
M  V30 3632 H 576.528 4.41613 5.32378 0
M  V30 3633 H 577.395 3.26331 7.47797 0
M  V30 3634 P 581.357 2.75334 8.47391 0
M  V30 3635 O 581.577 2.44571 9.90142 0
M  V30 3636 O 582.147 3.87688 7.92115 0
M  V30 3637 O 581.607 1.4459 7.59357 0
M  V30 3638 C 580.667 0.347608 7.69215 0
M  V30 3639 C 581.397 -0.96767 7.52806 0
M  V30 3640 O 581.607 -1.21036 6.1011 0
M  V30 3641 C 582.797 -1.04544 8.13308 0
M  V30 3642 O 583.187 -2.38311 8.41922 0
M  V30 3643 C 583.677 -0.491279 7.02284 0
M  V30 3644 C 582.967 -0.996264 5.77469 0
M  V30 3645 N 583.017 -0.0501916 4.62973 0
M  V30 3646 H 580.178 0.374722 8.67691 0
M  V30 3647 H 579.908 0.443485 6.90277 0
M  V30 3648 H 580.775 -1.75537 7.96793 0
M  V30 3649 P 584.737 -2.75334 8.47391 0
M  V30 3650 O 584.957 -3.84204 9.44982 0
M  V30 3651 O 585.527 -1.51982 8.68909 0
M  V30 3652 O 584.987 -3.29363 6.99321 0
M  V30 3653 C 584.047 -4.24066 6.42823 0
M  V30 3654 C 584.777 -5.20775 5.52155 0
M  V30 3655 O 584.987 -4.56607 4.22514 0
M  V30 3656 C 586.177 -5.62697 5.96604 0
M  V30 3657 O 586.567 -6.87667 5.41053 0
M  V30 3658 C 587.057 -4.52537 5.39283 0
M  V30 3659 C 586.347 -4.20027 4.08623 0
M  V30 3660 N 586.397 -2.76189 3.71603 0
M  V30 3661 H 583.559 -4.79756 7.24086 0
M  V30 3662 H 583.287 -3.69963 5.84682 0
M  V30 3663 H 584.155 -6.10431 5.41508 0
M  V30 3664 H 586.81 -4.78816 3.28024 0
M  V30 3665 H 587.09 -3.64957 6.05871 0
M  V30 3666 H 588.081 -4.88748 5.21323 0
M  V30 3667 H 586.247 -5.66789 7.0643 0
M  V30 3668 P 588.117 -7.20834 5.23717 0
M  V30 3669 O 588.337 -8.66104 5.38572 0
M  V30 3670 O 588.907 -6.33544 6.1349 0
M  V30 3671 O 588.367 -6.7751 3.72168 0
M  V30 3672 C 587.427 -7.20825 2.7076 0
M  V30 3673 C 588.157 -7.45864 1.40599 0
M  V30 3674 O 588.367 -6.17651 0.734225 0
M  V30 3675 C 589.557 -8.05808 1.51899 0
M  V30 3676 O 589.947 -8.74358 0.335205 0
M  V30 3677 C 590.437 -6.83093 1.70294 0
M  V30 3678 C 589.727 -5.79992 0.836974 0
M  V30 3679 N 589.777 -4.41864 1.38293 0
M  V30 3680 H 586.938 -8.13644 3.0377 0
M  V30 3681 H 586.668 -6.42788 2.55485 0
M  V30 3682 H 587.535 -8.12039 0.792769 0
M  V30 3683 P 591.496 -8.91 -3.85533e-12 0
M  V30 3684 O 591.716 -10.1726 -0.733694 0
M  V30 3685 O 592.286 -8.73148 1.23936 0
M  V30 3686 O 591.746 -7.66872 -0.971405 0
M  V30 3687 C 590.806 -7.42309 -2.04641 0
M  V30 3688 C 591.536 -6.86059 -3.24661 0
M  V30 3689 O 591.746 -5.42847 -3.03646 0
M  V30 3690 C 592.937 -7.41196 -3.50753 0
M  V30 3691 O 593.327 -7.27073 -4.86816 0
M  V30 3692 C 593.817 -6.5273 -2.63741 0
M  V30 3693 C 593.106 -5.1842 -2.73198 0
M  V30 3694 N 593.156 -4.38762 -1.4784 0
M  V30 3695 H 590.317 -8.36803 -2.32493 0
M  V30 3696 H 590.048 -6.70197 -1.71129 0
M  V30 3697 H 590.914 -7.03551 -4.13168 0
M  V30 3698 P 594.876 -7.20834 -5.23717 0
M  V30 3699 O 595.096 -7.79853 -6.57286 0
M  V30 3700 O 595.666 -7.79239 -4.12957 0
M  V30 3701 O 595.126 -5.63315 -5.29344 0
M  V30 3702 C 594.186 -4.80255 -6.01876 0
M  V30 3703 C 594.916 -3.64202 -6.65911 0
M  V30 3704 O 595.126 -2.60694 -5.64732 0
M  V30 3705 C 596.316 -3.93473 -7.1943 0
M  V30 3706 O 596.706 -3.02071 -8.21205 0
M  V30 3707 C 597.196 -3.73047 -5.97036 0
M  V30 3708 C 596.486 -2.58828 -5.25741 0
M  V30 3709 N 596.536 -2.68068 -3.77503 0
M  V30 3710 H 593.697 -5.40332 -6.79951 0
M  V30 3711 H 593.427 -4.41613 -5.32378 0
M  V30 3712 H 594.294 -3.26331 -7.47797 0
M  V30 3713 P 598.256 -2.75334 -8.47391 0
M  V30 3714 O 598.476 -2.44571 -9.90142 0
M  V30 3715 O 599.046 -3.87688 -7.92115 0
M  V30 3716 O 598.506 -1.4459 -7.59357 0
M  V30 3717 C 597.566 -0.347608 -7.69215 0
M  V30 3718 C 598.296 0.96767 -7.52806 0
M  V30 3719 O 598.506 1.21036 -6.1011 0
M  V30 3720 C 599.696 1.04544 -8.13308 0
M  V30 3721 O 600.086 2.38311 -8.41922 0
M  V30 3722 C 600.576 0.491279 -7.02284 0
M  V30 3723 C 599.866 0.996264 -5.77469 0
M  V30 3724 N 599.916 0.0501916 -4.62973 0
M  V30 3725 H 597.077 -0.374722 -8.67691 0
M  V30 3726 H 596.807 -0.443485 -6.90277 0
M  V30 3727 H 597.674 1.75537 -7.96793 0
M  V30 3728 P 601.636 2.75334 -8.47391 0
M  V30 3729 O 601.856 3.84128 -9.44797 0
M  V30 3730 O 602.426 1.51947 -8.68712 0
M  V30 3731 O 601.886 3.29363 -6.99321 0
M  V30 3732 C 600.946 4.24011 -6.4274 0
M  V30 3733 C 601.676 5.20775 -5.52155 0
M  V30 3734 O 601.886 4.56534 -4.22446 0
M  V30 3735 C 603.076 5.62629 -5.96531 0
M  V30 3736 O 603.466 6.87667 -5.41053 0
M  V30 3737 C 603.956 4.52537 -5.39283 0
M  V30 3738 C 603.246 4.20027 -4.08623 0
M  V30 3739 N 603.296 2.76189 -3.71603 0
M  V30 3740 H 600.457 4.797 -7.24003 0
M  V30 3741 H 600.187 3.69856 -5.84513 0
M  V30 3742 H 601.054 6.10356 -5.41441 0
M  V30 3743 P 605.016 7.20834 -5.23717 0
M  V30 3744 O 605.236 8.66104 -5.38572 0
M  V30 3745 O 605.806 6.33544 -6.1349 0
M  V30 3746 O 605.266 6.7751 -3.72168 0
M  V30 3747 C 604.326 7.20825 -2.7076 0
M  V30 3748 C 605.056 7.45864 -1.40599 0
M  V30 3749 O 605.266 6.17651 -0.734225 0
M  V30 3750 C 606.456 8.05808 -1.51899 0
M  V30 3751 O 606.846 8.74358 -0.335205 0
M  V30 3752 C 607.336 6.83093 -1.70294 0
M  V30 3753 C 606.626 5.79992 -0.836974 0
M  V30 3754 N 606.676 4.41864 -1.38293 0
M  V30 3755 H 603.837 8.13644 -3.0377 0
M  V30 3756 H 603.567 6.42788 -2.55485 0
M  V30 3757 H 604.434 8.12039 -0.792769 0
M  V30 3758 P 608.396 8.91 4.01252e-12 0
M  V30 3759 O 608.616 10.1726 0.733694 0
M  V30 3760 O 609.186 8.73148 -1.23936 0
M  V30 3761 O 608.646 7.66872 0.971405 0
M  V30 3762 C 607.706 7.42309 2.04641 0
M  V30 3763 C 608.436 6.86059 3.24661 0
M  V30 3764 O 608.646 5.42847 3.03646 0
M  V30 3765 C 609.836 7.41196 3.50753 0
M  V30 3766 O 610.226 7.27073 4.86816 0
M  V30 3767 C 610.716 6.5273 2.63741 0
M  V30 3768 C 610.006 5.1842 2.73198 0
M  V30 3769 N 610.056 4.38762 1.4784 0
M  V30 3770 H 607.217 8.36803 2.32493 0
M  V30 3771 H 606.947 6.70197 1.71129 0
M  V30 3772 H 607.814 7.03551 4.13168 0
M  V30 3773 P 611.776 7.20834 5.23717 0
M  V30 3774 O 611.996 7.79853 6.57286 0
M  V30 3775 O 612.566 7.79239 4.12957 0
M  V30 3776 O 612.026 5.63315 5.29344 0
M  V30 3777 C 611.086 4.80255 6.01876 0
M  V30 3778 C 611.816 3.64202 6.65911 0
M  V30 3779 O 612.026 2.60694 5.64732 0
M  V30 3780 C 613.216 3.93473 7.1943 0
M  V30 3781 O 613.606 3.02071 8.21205 0
M  V30 3782 C 614.096 3.73047 5.97036 0
M  V30 3783 C 613.386 2.58828 5.25741 0
M  V30 3784 N 613.436 2.68068 3.77503 0
M  V30 3785 H 610.597 5.40332 6.79951 0
M  V30 3786 H 610.327 4.41613 5.32378 0
M  V30 3787 H 611.194 3.26331 7.47797 0
M  V30 3788 P 615.156 2.75334 8.47391 0
M  V30 3789 O 615.376 2.44571 9.90142 0
M  V30 3790 O 615.946 3.87688 7.92115 0
M  V30 3791 O 615.406 1.4459 7.59357 0
M  V30 3792 C 614.466 0.347608 7.69215 0
M  V30 3793 C 615.196 -0.96767 7.52806 0
M  V30 3794 O 615.406 -1.21036 6.1011 0
M  V30 3795 C 616.596 -1.04544 8.13308 0
M  V30 3796 O 616.986 -2.38311 8.41922 0
M  V30 3797 C 617.476 -0.491279 7.02284 0
M  V30 3798 C 616.766 -0.996264 5.77469 0
M  V30 3799 N 616.816 -0.0501916 4.62973 0
M  V30 3800 H 613.977 0.374722 8.67691 0
M  V30 3801 H 613.707 0.443485 6.90277 0
M  V30 3802 H 614.574 -1.75537 7.96793 0
M  V30 3803 P 618.536 -2.75334 8.47391 0
M  V30 3804 O 618.756 -3.84128 9.44797 0
M  V30 3805 O 619.326 -1.51947 8.68712 0
M  V30 3806 O 618.786 -3.29363 6.99321 0
M  V30 3807 C 617.846 -4.24011 6.4274 0
M  V30 3808 C 618.576 -5.20775 5.52155 0
M  V30 3809 O 618.786 -4.56534 4.22446 0
M  V30 3810 C 619.976 -5.62629 5.96531 0
M  V30 3811 O 620.366 -6.87667 5.41053 0
M  V30 3812 C 620.856 -4.52537 5.39283 0
M  V30 3813 C 620.146 -4.20027 4.08623 0
M  V30 3814 N 620.196 -2.76189 3.71603 0
M  V30 3815 H 617.357 -4.797 7.24003 0
M  V30 3816 H 617.087 -3.69856 5.84513 0
M  V30 3817 H 617.954 -6.10356 5.41441 0
M  V30 3818 P 621.916 -7.20834 5.23717 0
M  V30 3819 O 622.136 -8.66104 5.38572 0
M  V30 3820 O 622.706 -6.33544 6.1349 0
M  V30 3821 O 622.166 -6.7751 3.72168 0
M  V30 3822 C 621.226 -7.20825 2.7076 0
M  V30 3823 C 621.956 -7.45864 1.40599 0
M  V30 3824 O 622.166 -6.17651 0.734225 0
M  V30 3825 C 623.356 -8.05808 1.51899 0
M  V30 3826 O 623.746 -8.74358 0.335205 0
M  V30 3827 C 624.236 -6.83093 1.70294 0
M  V30 3828 C 623.526 -5.79992 0.836974 0
M  V30 3829 N 623.576 -4.41864 1.38293 0
M  V30 3830 H 620.737 -8.13644 3.0377 0
M  V30 3831 H 620.467 -6.42788 2.55485 0
M  V30 3832 H 621.334 -8.12039 0.792769 0
M  V30 3833 P 625.296 -8.91 -4.1697e-12 0
M  V30 3834 O 625.516 -10.1726 -0.733694 0
M  V30 3835 O 626.086 -8.73148 1.23936 0
M  V30 3836 O 625.546 -7.66872 -0.971405 0
M  V30 3837 C 624.606 -7.42309 -2.04641 0
M  V30 3838 C 625.336 -6.86059 -3.24661 0
M  V30 3839 O 625.546 -5.42847 -3.03646 0
M  V30 3840 C 626.736 -7.41196 -3.50753 0
M  V30 3841 O 627.126 -7.27073 -4.86816 0
M  V30 3842 C 627.616 -6.5273 -2.63741 0
M  V30 3843 C 626.906 -5.1842 -2.73198 0
M  V30 3844 N 626.956 -4.38762 -1.4784 0
M  V30 3845 H 624.117 -8.36803 -2.32493 0
M  V30 3846 H 623.847 -6.70197 -1.71129 0
M  V30 3847 H 624.714 -7.03551 -4.13168 0
M  V30 3848 P 628.676 -7.20834 -5.23717 0
M  V30 3849 O 628.896 -7.79853 -6.57286 0
M  V30 3850 O 629.466 -7.79239 -4.12957 0
M  V30 3851 O 628.926 -5.63315 -5.29344 0
M  V30 3852 C 627.986 -4.80255 -6.01876 0
M  V30 3853 C 628.716 -3.64202 -6.65911 0
M  V30 3854 O 628.926 -2.60694 -5.64732 0
M  V30 3855 C 630.116 -3.93473 -7.1943 0
M  V30 3856 O 630.506 -3.02071 -8.21205 0
M  V30 3857 C 630.996 -3.73047 -5.97036 0
M  V30 3858 C 630.286 -2.58828 -5.25741 0
M  V30 3859 N 630.336 -2.68068 -3.77503 0
M  V30 3860 C 630.256 -3.79715 -2.96723 0
M  V30 3861 N 630.336 -3.5377 -1.68852 0
M  V30 3862 C 630.476 -2.15054 -1.63254 0
M  V30 3863 C 630.606 -1.28964 -0.518571 0
M  V30 3864 O 630.626 -1.56826 0.679156 0
M  V30 3865 N 630.726 0.0538097 -0.918425 0
M  V30 3866 C 630.726 0.494275 -2.22578 0
M  V30 3867 N 630.856 1.81086 -2.40434 0
M  V30 3868 N 630.596 -0.313645 -3.27502 0
M  V30 3869 C 630.476 -1.61829 -2.91033 0
M  V30 3870 H 627.497 -5.40332 -6.79951 0
M  V30 3871 H 627.227 -4.41613 -5.32378 0
M  V30 3872 H 628.094 -3.26331 -7.47797 0
M  V30 3873 H 630.749 -1.63422 -5.56814 0
M  V30 3874 H 631.028 -4.63374 -5.34244 0
M  V30 3875 H 632.02 -3.44728 -6.25838 0
M  V30 3876 H 630.186 -4.96652 -7.57263 0
M  V30 3877 H 630.137 -4.80617 -3.3614 0
M  V30 3878 H 630.819 0.742702 -0.199384 0
M  V30 3879 H 630.856 2.20598 -3.35588 0
M  V30 3880 H 630.957 2.43518 -1.58945 0
M  V30 3881 P 632.056 -2.75334 -8.47391 0
M  V30 3882 O 632.276 -2.44595 -9.90239 0
M  V30 3883 O 632.846 -3.87732 -7.92204 0
M  V30 3884 O 632.306 -1.4459 -7.59357 0
M  V30 3885 C 631.366 -0.347608 -7.69215 0
M  V30 3886 C 632.096 0.96767 -7.52806 0
M  V30 3887 O 632.306 1.21036 -6.1011 0
M  V30 3888 C 633.496 1.04544 -8.13308 0
M  V30 3889 O 633.886 2.38311 -8.41922 0
M  V30 3890 C 634.376 0.491279 -7.02284 0
M  V30 3891 C 633.666 0.996264 -5.77469 0
M  V30 3892 N 633.716 0.0501808 -4.62873 0
M  V30 3893 C 633.866 0.578037 -3.3505 0
M  V30 3894 O 633.956 1.8073 -3.21711 0
M  V30 3895 N 633.916 -0.468541 -2.263 0
M  V30 3896 C 633.816 -1.59186 -2.47176 0
M  V30 3897 N 633.866 -2.37626 -1.40392 0
M  V30 3898 C 633.666 -2.16203 -3.77467 0
M  V30 3899 C 633.616 -1.29324 -4.8195 0
M  V30 3900 H 630.876 -0.374679 -8.67591 0
M  V30 3901 H 630.607 -0.443421 -6.90177 0
M  V30 3902 H 631.474 1.75559 -7.96891 0
M  V30 3903 H 634.129 1.94529 -5.46723 0
M  V30 3904 H 634.408 -0.608651 -7.04676 0
M  V30 3905 H 635.4 0.889672 -7.08939 0
M  V30 3906 H 633.566 0.43308 -9.04564 0
M  V30 3907 H 633.494 -1.67758 -5.83046 0
M  V30 3908 H 633.596 -3.23869 -3.92281 0
M  V30 3909 H 633.984 -1.96317 -0.467202 0
M  V30 3910 H 633.787 -3.39693 -1.51142 0
M  V30 3911 P 635.436 2.75334 -8.47391 0
M  V30 3912 O 635.656 3.84128 -9.44797 0
M  V30 3913 O 636.226 1.51947 -8.68712 0
M  V30 3914 O 635.686 3.29363 -6.99321 0
M  V30 3915 C 634.746 4.24011 -6.4274 0
M  V30 3916 C 635.476 5.20775 -5.52155 0
M  V30 3917 O 635.686 4.56534 -4.22446 0
M  V30 3918 C 636.876 5.62629 -5.96531 0
M  V30 3919 O 637.266 6.87667 -5.41053 0
M  V30 3920 C 637.756 4.52537 -5.39283 0
M  V30 3921 C 637.046 4.20027 -4.08623 0
M  V30 3922 N 637.096 2.76189 -3.71603 0
M  V30 3923 H 634.257 4.797 -7.24003 0
M  V30 3924 H 633.987 3.69856 -5.84513 0
M  V30 3925 H 634.854 6.10356 -5.41441 0
M  V30 3926 P 638.816 7.20834 -5.23717 0
M  V30 3927 O 639.036 8.66274 -5.38678 0
M  V30 3928 O 639.606 6.33687 -6.13629 0
M  V30 3929 O 639.066 6.7751 -3.72168 0
M  V30 3930 C 638.126 7.20919 -2.70795 0
M  V30 3931 C 638.856 7.45864 -1.40599 0
M  V30 3932 O 639.066 6.17751 -0.734343 0
M  V30 3933 C 640.256 8.05906 -1.51917 0
M  V30 3934 O 640.646 8.74358 -0.335205 0
M  V30 3935 C 641.136 6.83093 -1.70294 0
M  V30 3936 C 640.426 5.79992 -0.836974 0
M  V30 3937 N 640.476 4.41864 -1.38293 0
M  V30 3938 C 640.396 4.02089 -2.69407 0
M  V30 3939 N 640.466 2.73403 -2.85089 0
M  V30 3940 C 640.616 2.25086 -1.5642 0
M  V30 3941 C 640.746 0.942887 -1.04836 0
M  V30 3942 N 640.756 -0.150999 -1.80369 0
M  V30 3943 N 640.866 0.812565 0.28167 0
M  V30 3944 C 640.856 1.90572 1.03784 0
M  V30 3945 N 640.736 3.167 0.683905 0
M  V30 3946 C 640.616 3.26538 -0.652815 0
M  V30 3947 H 637.638 8.13738 -3.03804 0
M  V30 3948 H 637.366 6.42974 -2.55559 0
M  V30 3949 H 638.234 8.12139 -0.792866 0
M  V30 3950 H 640.889 5.80178 0.160643 0
M  V30 3951 H 641.169 6.51379 -2.75643 0
M  V30 3952 H 642.16 7.01832 -1.3448 0
M  V30 3953 H 640.326 8.73771 -2.38364 0
M  V30 3954 H 640.285 4.7189 -3.52311 0
M  V30 3955 H 640.666 -0.0721434 -2.82608 0
M  V30 3956 H 640.855 -1.0785 -1.36544 0
M  V30 3957 H 640.963 1.73207 2.10241 0
M  V30 3958 P 642.196 8.91 4.32688e-12 0
M  V30 3959 O 642.416 10.1726 0.733694 0
M  V30 3960 O 642.986 8.73148 -1.23936 0
M  V30 3961 O 642.446 7.66872 0.971405 0
M  V30 3962 C 641.506 7.42309 2.04641 0
M  V30 3963 C 642.236 6.86059 3.24661 0
M  V30 3964 O 642.446 5.42847 3.03646 0
M  V30 3965 C 643.636 7.41196 3.50753 0
M  V30 3966 O 644.026 7.27073 4.86816 0
M  V30 3967 C 644.516 6.5273 2.63741 0
M  V30 3968 C 643.806 5.1842 2.73198 0
M  V30 3969 N 643.856 4.38762 1.4784 0
M  V30 3970 H 641.017 8.36803 2.32493 0
M  V30 3971 H 640.747 6.70197 1.71129 0
M  V30 3972 H 641.614 7.03551 4.13168 0
M  V30 3973 P 645.576 7.20834 5.23717 0
M  V30 3974 O 645.796 7.7993 6.57351 0
M  V30 3975 O 646.366 7.79328 4.13004 0
M  V30 3976 O 645.826 5.63315 5.29344 0
M  V30 3977 C 644.886 4.80193 6.01798 0
M  V30 3978 C 645.616 3.64202 6.65911 0
M  V30 3979 O 645.826 2.60694 5.64732 0
M  V30 3980 C 647.016 3.93473 7.1943 0
M  V30 3981 O 647.406 3.02071 8.21205 0
M  V30 3982 C 647.896 3.73047 5.97036 0
M  V30 3983 C 647.186 2.58828 5.25741 0
M  V30 3984 N 647.236 2.6801 3.77422 0
M  V30 3985 C 647.386 1.50443 3.07133 0
M  V30 3986 O 647.476 0.419406 3.61576 0
M  V30 3987 N 647.426 1.6403 1.69677 0
M  V30 3988 C 647.336 2.81206 0.986255 0
M  V30 3989 C 647.186 3.99158 1.80325 0
M  V30 3990 C 647.136 3.89779 3.1476 0
M  V30 3991 H 644.396 5.40332 6.79951 0
M  V30 3992 H 644.127 4.41549 5.32301 0
M  V30 3993 H 644.994 3.26331 7.47797 0
M  V30 3994 H 647.649 1.6395 5.56554 0
M  V30 3995 H 647.928 4.63439 5.3432 0
M  V30 3996 H 648.92 3.44728 6.25838 0
M  V30 3997 H 647.086 4.96652 7.57263 0
M  V30 3998 H 647.015 4.80159 3.74441 0
M  V30 3999 P 648.956 2.75334 8.47391 0
M  V30 4000 O 649.176 2.44571 9.90142 0
M  V30 4001 O 649.746 3.87688 7.92115 0
M  V30 4002 O 649.206 1.4459 7.59357 0
M  V30 4003 C 648.266 0.347608 7.69215 0
M  V30 4004 C 648.996 -0.96767 7.52806 0
M  V30 4005 O 649.206 -1.21036 6.1011 0
M  V30 4006 C 650.396 -1.04544 8.13308 0
M  V30 4007 O 650.786 -2.38311 8.41922 0
M  V30 4008 C 651.276 -0.491279 7.02284 0
M  V30 4009 C 650.566 -0.996264 5.77469 0
M  V30 4010 N 650.616 -0.0501916 4.62973 0
M  V30 4011 H 647.777 0.374722 8.67691 0
M  V30 4012 H 647.507 0.443485 6.90277 0
M  V30 4013 H 648.374 -1.75537 7.96793 0
M  V30 4014 P 652.336 -2.75334 8.47391 0
M  V30 4015 O 652.556 -3.84128 9.44797 0
M  V30 4016 O 653.126 -1.51947 8.68712 0
M  V30 4017 O 652.586 -3.29363 6.99321 0
M  V30 4018 C 651.646 -4.24011 6.4274 0
M  V30 4019 C 652.376 -5.20775 5.52155 0
M  V30 4020 O 652.586 -4.56534 4.22446 0
M  V30 4021 C 653.776 -5.62629 5.96531 0
M  V30 4022 O 654.166 -6.87667 5.41053 0
M  V30 4023 C 654.656 -4.52537 5.39283 0
M  V30 4024 C 653.946 -4.20027 4.08623 0
M  V30 4025 N 653.996 -2.76189 3.71603 0
M  V30 4026 H 651.157 -4.797 7.24003 0
M  V30 4027 H 650.887 -3.69856 5.84513 0
M  V30 4028 H 651.754 -6.10356 5.41441 0
M  V30 4029 P 655.716 -7.20834 5.23717 0
M  V30 4030 O 655.936 -8.66104 5.38572 0
M  V30 4031 O 656.506 -6.33544 6.1349 0
M  V30 4032 O 655.966 -6.7751 3.72168 0
M  V30 4033 C 655.026 -7.20825 2.7076 0
M  V30 4034 C 655.756 -7.45864 1.40599 0
M  V30 4035 O 655.966 -6.17651 0.734225 0
M  V30 4036 C 657.156 -8.05808 1.51899 0
M  V30 4037 O 657.546 -8.74358 0.335205 0
M  V30 4038 C 658.036 -6.83093 1.70294 0
M  V30 4039 C 657.326 -5.79992 0.836974 0
M  V30 4040 N 657.376 -4.41864 1.38293 0
M  V30 4041 H 654.537 -8.13644 3.0377 0
M  V30 4042 H 654.267 -6.42788 2.55485 0
M  V30 4043 H 655.134 -8.12039 0.792769 0
M  V30 4044 P 659.096 -8.91 -4.48406e-12 0
M  V30 4045 O 659.316 -10.1736 -0.733766 0
M  V30 4046 O 659.886 -8.73247 1.2395 0
M  V30 4047 O 659.346 -7.66872 -0.971405 0
M  V30 4048 C 658.406 -7.42212 -2.04614 0
M  V30 4049 C 659.136 -6.86059 -3.24661 0
M  V30 4050 O 659.346 -5.42847 -3.03646 0
M  V30 4051 C 660.536 -7.41196 -3.50753 0
M  V30 4052 O 660.926 -7.27073 -4.86816 0
M  V30 4053 C 661.416 -6.5273 -2.63741 0
M  V30 4054 C 660.706 -5.1842 -2.73198 0
M  V30 4055 N 660.756 -4.38668 -1.47808 0
M  V30 4056 C 660.906 -3.02239 -1.60048 0
M  V30 4057 O 660.996 -2.46459 -2.67869 0
M  V30 4058 N 660.946 -2.32436 -0.408571 0
M  V30 4059 C 660.856 -2.85471 0.854993 0
M  V30 4060 C 660.706 -4.28918 0.887335 0
M  V30 4061 C 660.656 -5.00349 -0.255399 0
M  V30 4062 H 657.916 -8.36803 -2.32493 0
M  V30 4063 H 657.647 -6.701 -1.71105 0
M  V30 4064 H 658.514 -7.03551 -4.13168 0
M  V30 4065 H 661.169 -4.59773 -3.53894 0
M  V30 4066 H 661.448 -6.88995 -1.59871 0
M  V30 4067 H 662.44 -6.46749 -3.03687 0
M  V30 4068 H 660.606 -8.46908 -3.20714 0
M  V30 4069 H 660.535 -6.08548 -0.206986 0
M  V30 4070 P 662.476 -7.20834 -5.23717 0
M  V30 4071 O 662.696 -7.79853 -6.57286 0
M  V30 4072 O 663.266 -7.79239 -4.12957 0
M  V30 4073 O 662.726 -5.63315 -5.29344 0
M  V30 4074 C 661.786 -4.80255 -6.01876 0
M  V30 4075 C 662.516 -3.64202 -6.65911 0
M  V30 4076 O 662.726 -2.60694 -5.64732 0
M  V30 4077 C 663.916 -3.93473 -7.1943 0
M  V30 4078 O 664.306 -3.02071 -8.21205 0
M  V30 4079 C 664.796 -3.73047 -5.97036 0
M  V30 4080 C 664.086 -2.58828 -5.25741 0
M  V30 4081 N 664.136 -2.68068 -3.77503 0
M  V30 4082 H 661.297 -5.40332 -6.79951 0
M  V30 4083 H 661.027 -4.41613 -5.32378 0
M  V30 4084 H 661.894 -3.26331 -7.47797 0
M  V30 4085 P 665.856 -2.75334 -8.47391 0
M  V30 4086 O 666.076 -2.44571 -9.90142 0
M  V30 4087 O 666.646 -3.87688 -7.92115 0
M  V30 4088 O 666.106 -1.4459 -7.59357 0
M  V30 4089 C 665.166 -0.347608 -7.69215 0
M  V30 4090 C 665.896 0.96767 -7.52806 0
M  V30 4091 O 666.106 1.21036 -6.1011 0
M  V30 4092 C 667.296 1.04544 -8.13308 0
M  V30 4093 O 667.686 2.38311 -8.41922 0
M  V30 4094 C 668.176 0.491279 -7.02284 0
M  V30 4095 C 667.466 0.996264 -5.77469 0
M  V30 4096 N 667.516 0.0501916 -4.62973 0
M  V30 4097 H 664.677 -0.374722 -8.67691 0
M  V30 4098 H 664.407 -0.443485 -6.90277 0
M  V30 4099 H 665.274 1.75537 -7.96793 0
M  V30 4100 P 669.236 2.75334 -8.47391 0
M  V30 4101 O 669.456 3.84166 -9.4489 0
M  V30 4102 O 670.026 1.51964 -8.6881 0
M  V30 4103 O 669.486 3.29363 -6.99321 0
M  V30 4104 C 668.546 4.23956 -6.42656 0
M  V30 4105 C 669.276 5.20775 -5.52155 0
M  V30 4106 O 669.486 4.56534 -4.22446 0
M  V30 4107 C 670.676 5.62629 -5.96531 0
M  V30 4108 O 671.066 6.87667 -5.41053 0
M  V30 4109 C 671.556 4.52537 -5.39283 0
M  V30 4110 C 670.846 4.20027 -4.08623 0
M  V30 4111 N 670.896 2.7613 -3.71522 0
M  V30 4112 C 671.046 2.45612 -2.37989 0
M  V30 4113 O 671.136 3.30919 -1.51621 0
M  V30 4114 N 671.086 1.10684 -2.08435 0
M  V30 4115 C 670.996 0.0690084 -2.9792 0
M  V30 4116 C 670.846 0.481522 -4.35345 0
M  V30 4117 C 670.796 1.78906 -4.67968 0
M  V30 4118 H 668.056 4.797 -7.24003 0
M  V30 4119 H 667.787 3.69802 -5.84429 0
M  V30 4120 H 668.654 6.10356 -5.41441 0
M  V30 4121 H 671.309 4.78651 -3.27911 0
M  V30 4122 H 671.588 3.64957 -6.05871 0
M  V30 4123 H 672.58 4.8868 -5.2125 0
M  V30 4124 H 670.746 5.66726 -7.06352 0
M  V30 4125 H 670.675 2.07737 -5.72367 0
M  V30 4126 P 672.616 7.20834 -5.23717 0
M  V30 4127 O 672.836 8.66104 -5.38572 0
M  V30 4128 O 673.406 6.33544 -6.1349 0
M  V30 4129 O 672.866 6.7751 -3.72168 0
M  V30 4130 C 671.926 7.20825 -2.7076 0
M  V30 4131 C 672.656 7.45864 -1.40599 0
M  V30 4132 O 672.866 6.17651 -0.734225 0
M  V30 4133 C 674.056 8.05808 -1.51899 0
M  V30 4134 O 674.446 8.74358 -0.335205 0
M  V30 4135 C 674.936 6.83093 -1.70294 0
M  V30 4136 C 674.226 5.79992 -0.836974 0
M  V30 4137 N 674.276 4.41864 -1.38293 0
M  V30 4138 H 671.437 8.13644 -3.0377 0
M  V30 4139 H 671.167 6.42788 -2.55485 0
M  V30 4140 H 672.034 8.12039 -0.792769 0
M  V30 4141 P 675.996 8.91 4.64125e-12 0
M  V30 4142 O 676.216 10.1726 0.733694 0
M  V30 4143 O 676.786 8.73148 -1.23936 0
M  V30 4144 O 676.246 7.66872 0.971405 0
M  V30 4145 C 675.306 7.42309 2.04641 0
M  V30 4146 C 676.036 6.86059 3.24661 0
M  V30 4147 O 676.246 5.42847 3.03646 0
M  V30 4148 C 677.436 7.41196 3.50753 0
M  V30 4149 O 677.826 7.27073 4.86816 0
M  V30 4150 C 678.316 6.5273 2.63741 0
M  V30 4151 C 677.606 5.1842 2.73198 0
M  V30 4152 N 677.656 4.38762 1.4784 0
M  V30 4153 H 674.817 8.36803 2.32493 0
M  V30 4154 H 674.547 6.70197 1.71129 0
M  V30 4155 H 675.414 7.03551 4.13168 0
M  V30 4156 P 679.376 7.20834 5.23717 0
M  V30 4157 O 679.596 7.79853 6.57286 0
M  V30 4158 O 680.166 7.79239 4.12957 0
M  V30 4159 O 679.626 5.63315 5.29344 0
M  V30 4160 C 678.686 4.80255 6.01876 0
M  V30 4161 C 679.416 3.64202 6.65911 0
M  V30 4162 O 679.626 2.60694 5.64732 0
M  V30 4163 C 680.816 3.93473 7.1943 0
M  V30 4164 O 681.206 3.02071 8.21205 0
M  V30 4165 C 681.696 3.73047 5.97036 0
M  V30 4166 C 680.986 2.58828 5.25741 0
M  V30 4167 N 681.036 2.68068 3.77503 0
M  V30 4168 H 678.197 5.40332 6.79951 0
M  V30 4169 H 677.927 4.41613 5.32378 0
M  V30 4170 H 678.794 3.26331 7.47797 0
M  V30 4171 P 682.756 2.75334 8.47391 0
M  V30 4172 O 682.976 2.44619 9.90336 0
M  V30 4173 O 683.546 3.87776 7.92294 0
M  V30 4174 O 683.006 1.4459 7.59357 0
M  V30 4175 C 682.066 0.347653 7.69315 0
M  V30 4176 C 682.796 -0.96767 7.52806 0
M  V30 4177 O 683.006 -1.21055 6.10208 0
M  V30 4178 C 684.196 -1.04557 8.13408 0
M  V30 4179 O 684.586 -2.38311 8.41922 0
M  V30 4180 C 685.076 -0.491279 7.02284 0
M  V30 4181 C 684.366 -0.996264 5.77469 0
M  V30 4182 N 684.416 -0.0501916 4.62973 0
M  V30 4183 H 681.578 0.374765 8.67791 0
M  V30 4184 H 681.306 0.443613 6.90476 0
M  V30 4185 H 682.174 -1.75559 7.96891 0
M  V30 4186 H 684.829 -1.94563 5.46818 0
M  V30 4187 H 685.109 0.608651 7.04676 0
M  V30 4188 H 686.1 -0.889796 7.09039 0
M  V30 4189 H 684.266 -0.433128 9.04664 0
M  V30 4190 P 686.136 -2.75334 8.47391 0
M  V30 4191 O 686.356 -3.84128 9.44797 0
M  V30 4192 O 686.926 -1.51947 8.68712 0
M  V30 4193 O 686.386 -3.29363 6.99321 0
M  V30 4194 C 685.446 -4.24011 6.4274 0
M  V30 4195 C 686.176 -5.20775 5.52155 0
M  V30 4196 O 686.386 -4.56534 4.22446 0
M  V30 4197 C 687.576 -5.62629 5.96531 0
M  V30 4198 O 687.966 -6.87667 5.41053 0
M  V30 4199 C 688.456 -4.52537 5.39283 0
M  V30 4200 C 687.746 -4.20027 4.08623 0
M  V30 4201 N 687.796 -2.76189 3.71603 0
M  V30 4202 C 687.716 -1.64862 4.52822 0
M  V30 4203 N 687.796 -0.512671 3.88633 0
M  V30 4204 C 687.936 -0.888083 2.54977 0
M  V30 4205 C 688.066 -0.094668 1.38677 0
M  V30 4206 O 688.086 1.13053 1.28163 0
M  V30 4207 N 688.186 -0.890102 0.232633 0
M  V30 4208 C 688.186 -2.26958 0.21772 0
M  V30 4209 N 688.316 -2.84626 -0.97925 0
M  V30 4210 N 688.056 -3.0178 1.31033 0
M  V30 4211 C 687.936 -2.26781 2.43843 0
M  V30 4212 H 684.957 -4.797 7.24003 0
M  V30 4213 H 684.687 -3.69856 5.84513 0
M  V30 4214 H 685.554 -6.10356 5.41441 0
M  V30 4215 H 688.209 -4.79061 3.27488 0
M  V30 4216 H 688.488 -3.64906 6.05785 0
M  V30 4217 H 689.48 -4.8868 5.2125 0
M  V30 4218 H 687.646 -5.66726 7.06352 0
M  V30 4219 H 687.597 -1.71169 5.60966 0
M  V30 4220 H 688.279 -0.419134 -0.644739 0
M  V30 4221 H 688.316 -3.87332 -1.06098 0
M  V30 4222 H 688.417 -2.26417 -1.82483 0
M  V30 4223 P 689.516 -7.20834 5.23717 0
M  V30 4224 O 689.736 -8.66104 5.38572 0
M  V30 4225 O 690.306 -6.33544 6.1349 0
M  V30 4226 O 689.766 -6.7751 3.72168 0
M  V30 4227 C 688.826 -7.20825 2.7076 0
M  V30 4228 C 689.556 -7.45864 1.40599 0
M  V30 4229 O 689.766 -6.17651 0.734225 0
M  V30 4230 C 690.956 -8.05808 1.51899 0
M  V30 4231 O 691.346 -8.74358 0.335205 0
M  V30 4232 C 691.836 -6.83093 1.70294 0
M  V30 4233 C 691.126 -5.79992 0.836974 0
M  V30 4234 N 691.176 -4.41864 1.38293 0
M  V30 4235 H 688.337 -8.13644 3.0377 0
M  V30 4236 H 688.067 -6.42788 2.55485 0
M  V30 4237 H 688.934 -8.12039 0.792769 0
M  V30 4238 P 692.896 -8.91 -4.67181e-12 0
M  V30 4239 O 693.116 -10.1726 -0.733694 0
M  V30 4240 O 693.686 -8.73148 1.23936 0
M  V30 4241 O 693.146 -7.66872 -0.971405 0
M  V30 4242 C 692.206 -7.42309 -2.04641 0
M  V30 4243 C 692.936 -6.86059 -3.24661 0
M  V30 4244 O 693.146 -5.42847 -3.03646 0
M  V30 4245 C 694.336 -7.41196 -3.50753 0
M  V30 4246 O 694.726 -7.27073 -4.86816 0
M  V30 4247 C 695.216 -6.5273 -2.63741 0
M  V30 4248 C 694.506 -5.1842 -2.73198 0
M  V30 4249 N 694.556 -4.38762 -1.4784 0
M  V30 4250 H 691.717 -8.36803 -2.32493 0
M  V30 4251 H 691.447 -6.70197 -1.71129 0
M  V30 4252 H 692.314 -7.03551 -4.13168 0
M  V30 4253 P 696.276 -7.20834 -5.23717 0
M  V30 4254 O 696.496 -7.79853 -6.57286 0
M  V30 4255 O 697.066 -7.79239 -4.12957 0
M  V30 4256 O 696.526 -5.63315 -5.29344 0
M  V30 4257 C 695.586 -4.80255 -6.01876 0
M  V30 4258 C 696.316 -3.64202 -6.65911 0
M  V30 4259 O 696.526 -2.60694 -5.64732 0
M  V30 4260 C 697.716 -3.93473 -7.1943 0
M  V30 4261 O 698.106 -3.02071 -8.21205 0
M  V30 4262 C 698.596 -3.73047 -5.97036 0
M  V30 4263 C 697.886 -2.58828 -5.25741 0
M  V30 4264 N 697.936 -2.68068 -3.77503 0
M  V30 4265 C 697.856 -3.79715 -2.96723 0
M  V30 4266 N 697.936 -3.5377 -1.68852 0
M  V30 4267 C 698.076 -2.15054 -1.63254 0
M  V30 4268 C 698.206 -1.28964 -0.518571 0
M  V30 4269 O 698.226 -1.56826 0.679156 0
M  V30 4270 N 698.326 0.0538097 -0.918425 0
M  V30 4271 C 698.326 0.494275 -2.22578 0
M  V30 4272 N 698.456 1.81086 -2.40434 0
M  V30 4273 N 698.196 -0.313645 -3.27502 0
M  V30 4274 C 698.076 -1.61829 -2.91033 0
M  V30 4275 H 695.097 -5.40332 -6.79951 0
M  V30 4276 H 694.827 -4.41613 -5.32378 0
M  V30 4277 H 695.694 -3.26331 -7.47797 0
M  V30 4278 H 698.349 -1.63422 -5.56814 0
M  V30 4279 H 698.628 -4.63374 -5.34244 0
M  V30 4280 H 699.62 -3.44728 -6.25838 0
M  V30 4281 H 697.786 -4.96652 -7.57263 0
M  V30 4282 H 697.737 -4.80617 -3.3614 0
M  V30 4283 H 698.419 0.742702 -0.199384 0
M  V30 4284 H 698.456 2.20598 -3.35588 0
M  V30 4285 H 698.557 2.43518 -1.58945 0
M  V30 4286 P 699.656 -2.75334 -8.47391 0
M  V30 4287 O 699.876 -2.44571 -9.90142 0
M  V30 4288 O 700.446 -3.87688 -7.92115 0
M  V30 4289 O 699.906 -1.4459 -7.59357 0
M  V30 4290 C 698.966 -0.347608 -7.69215 0
M  V30 4291 C 699.696 0.96767 -7.52806 0
M  V30 4292 O 699.906 1.21036 -6.1011 0
M  V30 4293 C 701.096 1.04544 -8.13308 0
M  V30 4294 O 701.486 2.38311 -8.41922 0
M  V30 4295 C 701.976 0.491279 -7.02284 0
M  V30 4296 C 701.266 0.996264 -5.77469 0
M  V30 4297 N 701.316 0.0501916 -4.62973 0
M  V30 4298 C 701.236 -1.32786 -4.63244 0
M  V30 4299 N 701.316 -1.86957 -3.44545 0
M  V30 4300 C 701.456 -0.780241 -2.58481 0
M  V30 4301 C 701.586 -0.738536 -1.17757 0
M  V30 4302 N 701.706 0.58337 -0.711393 0
M  V30 4303 C 701.706 1.70816 -1.51017 0
M  V30 4304 N 701.836 2.87826 -0.880757 0
M  V30 4305 N 701.576 1.67126 -2.8339 0
M  V30 4306 C 701.456 0.401421 -3.30572 0
M  V30 4307 H 698.477 -0.374722 -8.67691 0
M  V30 4308 H 698.207 -0.443485 -6.90277 0
M  V30 4309 H 699.074 1.75537 -7.96793 0
M  V30 4310 P 703.036 2.75334 -8.47391 0
M  V30 4311 O 703.256 3.84166 -9.4489 0
M  V30 4312 O 703.826 1.51964 -8.6881 0
M  V30 4313 O 703.286 3.29363 -6.99321 0
M  V30 4314 C 702.346 4.23956 -6.42656 0
M  V30 4315 C 703.076 5.20775 -5.52155 0
M  V30 4316 O 703.286 4.56534 -4.22446 0
M  V30 4317 C 704.476 5.62629 -5.96531 0
M  V30 4318 O 704.866 6.87667 -5.41053 0
M  V30 4319 C 705.356 4.52537 -5.39283 0
M  V30 4320 C 704.646 4.20027 -4.08623 0
M  V30 4321 N 704.696 2.7613 -3.71522 0
M  V30 4322 C 704.846 2.45612 -2.37989 0
M  V30 4323 O 704.936 3.30919 -1.51621 0
M  V30 4324 N 704.886 1.10684 -2.08435 0
M  V30 4325 C 704.796 0.0690084 -2.9792 0
M  V30 4326 C 704.646 0.481522 -4.35345 0
M  V30 4327 C 704.596 1.78906 -4.67968 0
M  V30 4328 H 701.856 4.797 -7.24003 0
M  V30 4329 H 701.587 3.69802 -5.84429 0
M  V30 4330 H 702.454 6.10356 -5.41441 0
M  V30 4331 H 705.109 4.78651 -3.27911 0
M  V30 4332 H 705.388 3.64957 -6.05871 0
M  V30 4333 H 706.38 4.8868 -5.2125 0
M  V30 4334 H 704.546 5.66726 -7.06352 0
M  V30 4335 H 704.475 2.07737 -5.72367 0
M  V30 4336 P 706.416 7.20834 -5.23717 0
M  V30 4337 O 706.636 8.66189 -5.38625 0
M  V30 4338 O 707.206 6.33615 -6.1356 0
M  V30 4339 O 706.666 6.7751 -3.72168 0
M  V30 4340 C 705.726 7.20825 -2.7076 0
M  V30 4341 C 706.456 7.45864 -1.40599 0
M  V30 4342 O 706.666 6.17651 -0.734225 0
M  V30 4343 C 707.856 8.05808 -1.51899 0
M  V30 4344 O 708.246 8.74358 -0.335205 0
M  V30 4345 C 708.736 6.83093 -1.70294 0
M  V30 4346 C 708.026 5.79992 -0.836974 0
M  V30 4347 N 708.076 4.41769 -1.38263 0
M  V30 4348 C 708.226 3.36514 -0.485617 0
M  V30 4349 O 708.316 3.61814 0.724703 0
M  V30 4350 N 708.276 2.00746 -1.14492 0
M  V30 4351 C 708.176 1.85887 -2.27776 0
M  V30 4352 N 708.226 0.600907 -2.69379 0
M  V30 4353 C 708.026 2.92182 -3.22265 0
M  V30 4354 C 707.976 4.18399 -2.71925 0
M  V30 4355 H 705.236 8.1355 -3.03735 0
M  V30 4356 H 704.967 6.42695 -2.55448 0
M  V30 4357 H 705.834 8.12139 -0.792866 0
M  V30 4358 H 708.489 5.80078 0.160615 0
M  V30 4359 H 708.768 6.51379 -2.75643 0
M  V30 4360 H 709.76 7.01734 -1.34462 0
M  V30 4361 H 707.926 8.73674 -2.38337 0
M  V30 4362 H 707.854 5.02669 -3.39718 0
M  V30 4363 H 707.956 2.73001 -4.29239 0
M  V30 4364 H 708.344 -0.162318 -2.01146 0
M  V30 4365 H 708.147 0.387742 -3.69773 0
M  V30 4366 P 709.796 8.91 4.82899e-12 0
M  V30 4367 O 710.016 10.1726 0.733694 0
M  V30 4368 O 710.586 8.73148 -1.23936 0
M  V30 4369 O 710.046 7.66872 0.971405 0
M  V30 4370 C 709.106 7.42309 2.04641 0
M  V30 4371 C 709.836 6.86059 3.24661 0
M  V30 4372 O 710.046 5.42847 3.03646 0
M  V30 4373 C 711.236 7.41196 3.50753 0
M  V30 4374 O 711.626 7.27073 4.86816 0
M  V30 4375 C 712.116 6.5273 2.63741 0
M  V30 4376 C 711.406 5.1842 2.73198 0
M  V30 4377 N 711.456 4.38762 1.4784 0
M  V30 4378 C 711.376 4.81605 0.168631 0
M  V30 4379 N 711.456 3.85454 -0.713363 0
M  V30 4380 C 711.596 2.6994 0.0566958 0
M  V30 4381 C 711.726 1.34815 -0.338502 0
M  V30 4382 O 711.746 0.869548 -1.47125 0
M  V30 4383 N 711.846 0.496304 0.77465 0
M  V30 4384 C 711.846 0.908403 2.09122 0
M  V30 4385 N 711.976 -0.0517805 3.00955 0
M  V30 4386 N 711.716 2.17875 2.46519 0
M  V30 4387 C 711.596 3.01988 1.4033 0
M  V30 4388 H 708.617 8.36803 2.32493 0
M  V30 4389 H 708.347 6.70197 1.71129 0
M  V30 4390 H 709.214 7.03551 4.13168 0
M  V30 4391 H 711.869 4.59498 3.54415 0
M  V30 4392 H 712.148 6.88898 1.59848 0
M  V30 4393 H 713.14 6.46749 3.03687 0
M  V30 4394 H 711.306 8.46908 3.20714 0
M  V30 4395 H 711.257 5.86405 -0.105564 0
M  V30 4396 H 711.939 -0.483664 0.597855 0
M  V30 4397 H 711.976 0.187865 4.0116 0
M  V30 4398 H 712.077 -1.03585 2.71726 0
M  V30 4399 P 713.176 7.20834 5.23717 0
M  V30 4400 O 713.396 7.79853 6.57286 0
M  V30 4401 O 713.966 7.79239 4.12957 0
M  V30 4402 O 713.426 5.63315 5.29344 0
M  V30 4403 C 712.486 4.80255 6.01876 0
M  V30 4404 C 713.216 3.64202 6.65911 0
M  V30 4405 O 713.426 2.60694 5.64732 0
M  V30 4406 C 714.616 3.93473 7.1943 0
M  V30 4407 O 715.006 3.02071 8.21205 0
M  V30 4408 C 715.496 3.73047 5.97036 0
M  V30 4409 C 714.786 2.58828 5.25741 0
M  V30 4410 N 714.836 2.68068 3.77503 0
M  V30 4411 H 711.997 5.40332 6.79951 0
M  V30 4412 H 711.727 4.41613 5.32378 0
M  V30 4413 H 712.594 3.26331 7.47797 0
M  V30 4414 P 716.556 2.75334 8.47391 0
M  V30 4415 O 716.776 2.44571 9.90142 0
M  V30 4416 O 717.346 3.87688 7.92115 0
M  V30 4417 O 716.806 1.4459 7.59357 0
M  V30 4418 C 715.866 0.347608 7.69215 0
M  V30 4419 C 716.596 -0.96767 7.52806 0
M  V30 4420 O 716.806 -1.21036 6.1011 0
M  V30 4421 C 717.996 -1.04544 8.13308 0
M  V30 4422 O 718.386 -2.38311 8.41922 0
M  V30 4423 C 718.876 -0.491279 7.02284 0
M  V30 4424 C 718.166 -0.996264 5.77469 0
M  V30 4425 N 718.216 -0.0501916 4.62973 0
M  V30 4426 H 715.377 0.374722 8.67691 0
M  V30 4427 H 715.107 0.443485 6.90277 0
M  V30 4428 H 715.974 -1.75537 7.96793 0
M  V30 4429 P 719.936 -2.75334 8.47391 0
M  V30 4430 O 720.156 -3.84128 9.44797 0
M  V30 4431 O 720.726 -1.51947 8.68712 0
M  V30 4432 O 720.186 -3.29363 6.99321 0
M  V30 4433 C 719.246 -4.24011 6.4274 0
M  V30 4434 C 719.976 -5.20775 5.52155 0
M  V30 4435 O 720.186 -4.56534 4.22446 0
M  V30 4436 C 721.376 -5.62629 5.96531 0
M  V30 4437 O 721.766 -6.87667 5.41053 0
M  V30 4438 C 722.256 -4.52537 5.39283 0
M  V30 4439 C 721.546 -4.20027 4.08623 0
M  V30 4440 N 721.596 -2.76189 3.71603 0
M  V30 4441 H 718.757 -4.797 7.24003 0
M  V30 4442 H 718.487 -3.69856 5.84513 0
M  V30 4443 H 719.354 -6.10356 5.41441 0
M  V30 4444 P 723.316 -7.20834 5.23717 0
M  V30 4445 O 723.536 -8.66104 5.38572 0
M  V30 4446 O 724.106 -6.33544 6.1349 0
M  V30 4447 O 723.566 -6.7751 3.72168 0
M  V30 4448 C 722.626 -7.20825 2.7076 0
M  V30 4449 C 723.356 -7.45864 1.40599 0
M  V30 4450 O 723.566 -6.17651 0.734225 0
M  V30 4451 C 724.756 -8.05808 1.51899 0
M  V30 4452 O 725.146 -8.74358 0.335205 0
M  V30 4453 C 725.636 -6.83093 1.70294 0
M  V30 4454 C 724.926 -5.79992 0.836974 0
M  V30 4455 N 724.976 -4.41864 1.38293 0
M  V30 4456 H 722.137 -8.13644 3.0377 0
M  V30 4457 H 721.867 -6.42788 2.55485 0
M  V30 4458 H 722.734 -8.12039 0.792769 0
M  V30 4459 P 726.696 -8.91 -4.98617e-12 0
M  V30 4460 O 726.916 -10.1726 -0.733694 0
M  V30 4461 O 727.486 -8.73148 1.23936 0
M  V30 4462 O 726.946 -7.66872 -0.971405 0
M  V30 4463 C 726.006 -7.42309 -2.04641 0
M  V30 4464 C 726.736 -6.86059 -3.24661 0
M  V30 4465 O 726.946 -5.42847 -3.03646 0
M  V30 4466 C 728.136 -7.41196 -3.50753 0
M  V30 4467 O 728.526 -7.27073 -4.86816 0
M  V30 4468 C 729.016 -6.5273 -2.63741 0
M  V30 4469 C 728.306 -5.1842 -2.73198 0
M  V30 4470 N 728.356 -4.38762 -1.4784 0
M  V30 4471 H 725.517 -8.36803 -2.32493 0
M  V30 4472 H 725.247 -6.70197 -1.71129 0
M  V30 4473 H 726.114 -7.03551 -4.13168 0
M  V30 4474 P 730.076 -7.20834 -5.23717 0
M  V30 4475 O 730.296 -7.79853 -6.57286 0
M  V30 4476 O 730.866 -7.79239 -4.12957 0
M  V30 4477 O 730.326 -5.63315 -5.29344 0
M  V30 4478 C 729.386 -4.80255 -6.01876 0
M  V30 4479 C 730.116 -3.64202 -6.65911 0
M  V30 4480 O 730.326 -2.60694 -5.64732 0
M  V30 4481 C 731.516 -3.93473 -7.1943 0
M  V30 4482 O 731.906 -3.02071 -8.21205 0
M  V30 4483 C 732.396 -3.73047 -5.97036 0
M  V30 4484 C 731.686 -2.58828 -5.25741 0
M  V30 4485 N 731.736 -2.68068 -3.77503 0
M  V30 4486 H 728.897 -5.40332 -6.79951 0
M  V30 4487 H 728.627 -4.41613 -5.32378 0
M  V30 4488 H 729.494 -3.26331 -7.47797 0
M  V30 4489 P 733.456 -2.75334 -8.47391 0
M  V30 4490 O 733.676 -2.44571 -9.90142 0
M  V30 4491 O 734.246 -3.87688 -7.92115 0
M  V30 4492 O 733.706 -1.4459 -7.59357 0
M  V30 4493 C 732.766 -0.347608 -7.69215 0
M  V30 4494 C 733.496 0.96767 -7.52806 0
M  V30 4495 O 733.706 1.21036 -6.1011 0
M  V30 4496 C 734.896 1.04544 -8.13308 0
M  V30 4497 O 735.286 2.38311 -8.41922 0
M  V30 4498 C 735.776 0.491279 -7.02284 0
M  V30 4499 C 735.066 0.996264 -5.77469 0
M  V30 4500 N 735.116 0.0501916 -4.62973 0
M  V30 4501 H 732.277 -0.374722 -8.67691 0
M  V30 4502 H 732.007 -0.443485 -6.90277 0
M  V30 4503 H 732.874 1.75537 -7.96793 0
M  V30 4504 P 736.836 2.75334 -8.47391 0
M  V30 4505 O 737.056 3.84128 -9.44797 0
M  V30 4506 O 737.626 1.51947 -8.68712 0
M  V30 4507 O 737.086 3.29363 -6.99321 0
M  V30 4508 C 736.146 4.24011 -6.4274 0
M  V30 4509 C 736.876 5.20775 -5.52155 0
M  V30 4510 O 737.086 4.56534 -4.22446 0
M  V30 4511 C 738.276 5.62629 -5.96531 0
M  V30 4512 O 738.666 6.87667 -5.41053 0
M  V30 4513 C 739.156 4.52537 -5.39283 0
M  V30 4514 C 738.446 4.20027 -4.08623 0
M  V30 4515 N 738.496 2.76189 -3.71603 0
M  V30 4516 H 735.657 4.797 -7.24003 0
M  V30 4517 H 735.387 3.69856 -5.84513 0
M  V30 4518 H 736.254 6.10356 -5.41441 0
M  V30 4519 P 740.216 7.20834 -5.23717 0
M  V30 4520 O 740.436 8.66104 -5.38572 0
M  V30 4521 O 741.006 6.33544 -6.1349 0
M  V30 4522 O 740.466 6.7751 -3.72168 0
M  V30 4523 C 739.526 7.20825 -2.7076 0
M  V30 4524 C 740.256 7.45864 -1.40599 0
M  V30 4525 O 740.466 6.17651 -0.734225 0
M  V30 4526 C 741.656 8.05808 -1.51899 0
M  V30 4527 O 742.046 8.74358 -0.335205 0
M  V30 4528 C 742.536 6.83093 -1.70294 0
M  V30 4529 C 741.826 5.79992 -0.836974 0
M  V30 4530 N 741.876 4.41864 -1.38293 0
M  V30 4531 H 739.037 8.13644 -3.0377 0
M  V30 4532 H 738.767 6.42788 -2.55485 0
M  V30 4533 H 739.634 8.12039 -0.792769 0
M  V30 4534 P 743.596 8.91 5.14336e-12 0
M  V30 4535 O 743.816 10.1736 0.733766 0
M  V30 4536 O 744.386 8.73247 -1.2395 0
M  V30 4537 O 743.846 7.66872 0.971405 0
M  V30 4538 C 742.906 7.42212 2.04614 0
M  V30 4539 C 743.636 6.86059 3.24661 0
M  V30 4540 O 743.846 5.42847 3.03646 0
M  V30 4541 C 745.036 7.41196 3.50753 0
M  V30 4542 O 745.426 7.27073 4.86816 0
M  V30 4543 C 745.916 6.5273 2.63741 0
M  V30 4544 C 745.206 5.1842 2.73198 0
M  V30 4545 N 745.256 4.38668 1.47808 0
M  V30 4546 C 745.406 3.02239 1.60048 0
M  V30 4547 O 745.496 2.46459 2.67869 0
M  V30 4548 N 745.446 2.32436 0.408571 0
M  V30 4549 C 745.356 2.85471 -0.854993 0
M  V30 4550 O 745.406 2.12566 -1.8531 0
M  V30 4551 C 745.206 4.28918 -0.887335 0
M  V30 4552 C 745.096 4.91066 -2.24619 0
M  V30 4553 C 745.156 5.00349 0.255399 0
M  V30 4554 H 742.416 8.36803 2.32493 0
M  V30 4555 H 742.147 6.701 1.71105 0
M  V30 4556 H 743.014 7.03551 4.13168 0
M  V30 4557 H 745.669 4.59773 3.53894 0
M  V30 4558 H 745.948 6.88995 1.59871 0
M  V30 4559 H 746.94 6.46749 3.03687 0
M  V30 4560 H 745.106 8.46908 3.20714 0
M  V30 4561 H 745.035 6.08548 0.206986 0
M  V30 4562 H 746.065 5.34836 -2.53099 0
M  V30 4563 H 744.328 5.69638 -2.2291 0
M  V30 4564 H 744.816 4.13971 -2.98044 0
M  V30 4565 H 745.552 1.33211 0.474216 0
M  V30 4566 P 746.976 7.20834 5.23717 0
M  V30 4567 O 747.196 7.79853 6.57286 0
M  V30 4568 O 747.766 7.79239 4.12957 0
M  V30 4569 O 747.226 5.63315 5.29344 0
M  V30 4570 C 746.286 4.80255 6.01876 0
M  V30 4571 C 747.016 3.64202 6.65911 0
M  V30 4572 O 747.226 2.60694 5.64732 0
M  V30 4573 C 748.416 3.93473 7.1943 0
M  V30 4574 O 748.806 3.02071 8.21205 0
M  V30 4575 C 749.296 3.73047 5.97036 0
M  V30 4576 C 748.586 2.58828 5.25741 0
M  V30 4577 N 748.636 2.68068 3.77503 0
M  V30 4578 C 748.556 3.79715 2.96723 0
M  V30 4579 N 748.636 3.5377 1.68852 0
M  V30 4580 C 748.776 2.15054 1.63254 0
M  V30 4581 C 748.906 1.28964 0.518571 0
M  V30 4582 O 748.926 1.56826 -0.679156 0
M  V30 4583 N 749.026 -0.0538097 0.918425 0
M  V30 4584 C 749.026 -0.494275 2.22578 0
M  V30 4585 N 749.156 -1.81086 2.40434 0
M  V30 4586 N 748.896 0.313645 3.27502 0
M  V30 4587 C 748.776 1.61829 2.91033 0
M  V30 4588 H 745.797 5.40332 6.79951 0
M  V30 4589 H 745.527 4.41613 5.32378 0
M  V30 4590 H 746.394 3.26331 7.47797 0
M  V30 4591 H 749.049 1.63422 5.56814 0
M  V30 4592 H 749.328 4.63374 5.34244 0
M  V30 4593 H 750.32 3.44728 6.25838 0
M  V30 4594 H 748.486 4.96652 7.57263 0
M  V30 4595 H 748.437 4.80617 3.3614 0
M  V30 4596 H 749.119 -0.742702 0.199384 0
M  V30 4597 H 749.156 -2.20598 3.35588 0
M  V30 4598 H 749.257 -2.43518 1.58945 0
M  V30 4599 P 750.356 2.75334 8.47391 0
M  V30 4600 O 750.576 2.44571 9.90142 0
M  V30 4601 O 751.146 3.87688 7.92115 0
M  V30 4602 O 750.606 1.4459 7.59357 0
M  V30 4603 C 749.666 0.347608 7.69215 0
M  V30 4604 C 750.396 -0.96767 7.52806 0
M  V30 4605 O 750.606 -1.21036 6.1011 0
M  V30 4606 C 751.796 -1.04544 8.13308 0
M  V30 4607 O 752.186 -2.38311 8.41922 0
M  V30 4608 C 752.676 -0.491279 7.02284 0
M  V30 4609 C 751.966 -0.996264 5.77469 0
M  V30 4610 N 752.016 -0.0501916 4.62973 0
M  V30 4611 H 749.177 0.374722 8.67691 0
M  V30 4612 H 748.907 0.443485 6.90277 0
M  V30 4613 H 749.774 -1.75537 7.96793 0
M  V30 4614 P 753.736 -2.75334 8.47391 0
M  V30 4615 O 753.956 -3.84128 9.44797 0
M  V30 4616 O 754.526 -1.51947 8.68712 0
M  V30 4617 O 753.986 -3.29363 6.99321 0
M  V30 4618 C 753.046 -4.24011 6.4274 0
M  V30 4619 C 753.776 -5.20775 5.52155 0
M  V30 4620 O 753.986 -4.56534 4.22446 0
M  V30 4621 C 755.176 -5.62629 5.96531 0
M  V30 4622 O 755.566 -6.87667 5.41053 0
M  V30 4623 C 756.056 -4.52537 5.39283 0
M  V30 4624 C 755.346 -4.20027 4.08623 0
M  V30 4625 N 755.396 -2.76189 3.71603 0
M  V30 4626 H 752.557 -4.797 7.24003 0
M  V30 4627 H 752.287 -3.69856 5.84513 0
M  V30 4628 H 753.154 -6.10356 5.41441 0
M  V30 4629 P 757.116 -7.20834 5.23717 0
M  V30 4630 O 757.336 -8.66274 5.38678 0
M  V30 4631 O 757.906 -6.33687 6.13629 0
M  V30 4632 O 757.366 -6.7751 3.72168 0
M  V30 4633 C 756.426 -7.20919 2.70795 0
M  V30 4634 C 757.156 -7.45864 1.40599 0
M  V30 4635 O 757.366 -6.17751 0.734343 0
M  V30 4636 C 758.556 -8.05906 1.51917 0
M  V30 4637 O 758.946 -8.74358 0.335205 0
M  V30 4638 C 759.436 -6.83093 1.70294 0
M  V30 4639 C 758.726 -5.79992 0.836974 0
M  V30 4640 N 758.776 -4.41864 1.38293 0
M  V30 4641 H 755.938 -8.13738 3.03804 0
M  V30 4642 H 755.666 -6.42974 2.55559 0
M  V30 4643 H 756.534 -8.12139 0.792866 0
M  V30 4644 H 759.189 -5.80178 -0.160643 0
M  V30 4645 H 759.469 -6.51379 2.75643 0
M  V30 4646 H 760.46 -7.01832 1.3448 0
M  V30 4647 H 758.626 -8.73771 2.38364 0
M  V30 4648 P 760.496 -8.91 -5.30054e-12 0
M  V30 4649 O 760.716 -10.1736 -0.733766 0
M  V30 4650 O 761.286 -8.73247 1.2395 0
M  V30 4651 O 760.746 -7.66872 -0.971405 0
M  V30 4652 C 759.806 -7.42212 -2.04614 0
M  V30 4653 C 760.536 -6.86059 -3.24661 0
M  V30 4654 O 760.746 -5.42847 -3.03646 0
M  V30 4655 C 761.936 -7.41196 -3.50753 0
M  V30 4656 O 762.326 -7.27073 -4.86816 0
M  V30 4657 C 762.816 -6.5273 -2.63741 0
M  V30 4658 C 762.106 -5.1842 -2.73198 0
M  V30 4659 N 762.156 -4.38668 -1.47808 0
M  V30 4660 C 762.306 -3.02239 -1.60048 0
M  V30 4661 O 762.396 -2.46459 -2.67869 0
M  V30 4662 N 762.346 -2.32436 -0.408571 0
M  V30 4663 C 762.256 -2.85471 0.854993 0
M  V30 4664 O 762.306 -2.12566 1.8531 0
M  V30 4665 C 762.106 -4.28918 0.887335 0
M  V30 4666 C 761.996 -4.91066 2.24619 0
M  V30 4667 C 762.056 -5.00349 -0.255399 0
M  V30 4668 H 759.316 -8.36803 -2.32493 0
M  V30 4669 H 759.047 -6.701 -1.71105 0
M  V30 4670 H 759.914 -7.03551 -4.13168 0
M  V30 4671 H 762.569 -4.59773 -3.53894 0
M  V30 4672 H 762.848 -6.88995 -1.59871 0
M  V30 4673 H 763.84 -6.46749 -3.03687 0
M  V30 4674 H 762.006 -8.46908 -3.20714 0
M  V30 4675 H 761.935 -6.08548 -0.206986 0
M  V30 4676 H 762.965 -5.34836 2.53099 0
M  V30 4677 H 761.228 -5.69638 2.2291 0
M  V30 4678 H 761.716 -4.13971 2.98044 0
M  V30 4679 H 762.452 -1.33211 -0.474216 0
M  V30 4680 P 763.875 -7.20834 -5.23717 0
M  V30 4681 O 764.095 -7.79853 -6.57286 0
M  V30 4682 O 764.665 -7.79239 -4.12957 0
M  V30 4683 O 764.125 -5.63315 -5.29344 0
M  V30 4684 C 763.185 -4.80255 -6.01876 0
M  V30 4685 C 763.915 -3.64202 -6.65911 0
M  V30 4686 O 764.125 -2.60694 -5.64732 0
M  V30 4687 C 765.315 -3.93473 -7.1943 0
M  V30 4688 O 765.705 -3.02071 -8.21205 0
M  V30 4689 C 766.195 -3.73047 -5.97036 0
M  V30 4690 C 765.485 -2.58828 -5.25741 0
M  V30 4691 N 765.535 -2.68068 -3.77503 0
M  V30 4692 H 762.696 -5.40332 -6.79951 0
M  V30 4693 H 762.426 -4.41613 -5.32378 0
M  V30 4694 H 763.293 -3.26331 -7.47797 0
M  V30 4695 P 767.255 -2.75334 -8.47391 0
M  V30 4696 O 767.475 -2.44571 -9.90142 0
M  V30 4697 O 768.045 -3.87688 -7.92115 0
M  V30 4698 O 767.505 -1.4459 -7.59357 0
M  V30 4699 C 766.565 -0.347608 -7.69215 0
M  V30 4700 C 767.295 0.96767 -7.52806 0
M  V30 4701 O 767.505 1.21036 -6.1011 0
M  V30 4702 C 768.695 1.04544 -8.13308 0
M  V30 4703 O 769.085 2.38311 -8.41922 0
M  V30 4704 C 769.575 0.491279 -7.02284 0
M  V30 4705 C 768.865 0.996264 -5.77469 0
M  V30 4706 N 768.915 0.0501916 -4.62973 0
M  V30 4707 H 766.076 -0.374722 -8.67691 0
M  V30 4708 H 765.806 -0.443485 -6.90277 0
M  V30 4709 H 766.673 1.75537 -7.96793 0
M  V30 4710 P 770.635 2.75334 -8.47391 0
M  V30 4711 O 770.855 3.84128 -9.44797 0
M  V30 4712 O 771.425 1.51947 -8.68712 0
M  V30 4713 O 770.885 3.29363 -6.99321 0
M  V30 4714 C 769.945 4.24011 -6.4274 0
M  V30 4715 C 770.675 5.20775 -5.52155 0
M  V30 4716 O 770.885 4.56534 -4.22446 0
M  V30 4717 C 772.075 5.62629 -5.96531 0
M  V30 4718 O 772.465 6.87667 -5.41053 0
M  V30 4719 C 772.955 4.52537 -5.39283 0
M  V30 4720 C 772.245 4.20027 -4.08623 0
M  V30 4721 N 772.295 2.76189 -3.71603 0
M  V30 4722 H 769.456 4.797 -7.24003 0
M  V30 4723 H 769.186 3.69856 -5.84513 0
M  V30 4724 H 770.053 6.10356 -5.41441 0
M  V30 4725 P 774.015 7.20834 -5.23717 0
M  V30 4726 O 774.235 8.66104 -5.38572 0
M  V30 4727 O 774.805 6.33544 -6.1349 0
M  V30 4728 O 774.265 6.7751 -3.72168 0
M  V30 4729 C 773.325 7.20825 -2.7076 0
M  V30 4730 C 774.055 7.45864 -1.40599 0
M  V30 4731 O 774.265 6.17651 -0.734225 0
M  V30 4732 C 775.455 8.05808 -1.51899 0
M  V30 4733 O 775.845 8.74358 -0.335205 0
M  V30 4734 C 776.335 6.83093 -1.70294 0
M  V30 4735 C 775.625 5.79992 -0.836974 0
M  V30 4736 N 775.675 4.41864 -1.38293 0
M  V30 4737 H 772.836 8.13644 -3.0377 0
M  V30 4738 H 772.566 6.42788 -2.55485 0
M  V30 4739 H 773.433 8.12039 -0.792769 0
M  V30 4740 P 777.395 8.91 5.45772e-12 0
M  V30 4741 O 777.615 10.1726 0.733694 0
M  V30 4742 O 778.185 8.73148 -1.23936 0
M  V30 4743 O 777.645 7.66872 0.971405 0
M  V30 4744 C 776.705 7.42309 2.04641 0
M  V30 4745 C 777.435 6.86059 3.24661 0
M  V30 4746 O 777.645 5.42847 3.03646 0
M  V30 4747 C 778.835 7.41196 3.50753 0
M  V30 4748 O 779.225 7.27073 4.86816 0
M  V30 4749 C 779.715 6.5273 2.63741 0
M  V30 4750 C 779.005 5.1842 2.73198 0
M  V30 4751 N 779.055 4.38762 1.4784 0
M  V30 4752 H 776.216 8.36803 2.32493 0
M  V30 4753 H 775.946 6.70197 1.71129 0
M  V30 4754 H 776.813 7.03551 4.13168 0
M  V30 4755 P 780.775 7.20834 5.23717 0
M  V30 4756 O 780.995 7.79853 6.57286 0
M  V30 4757 O 781.565 7.79239 4.12957 0
M  V30 4758 O 781.025 5.63315 5.29344 0
M  V30 4759 C 780.085 4.80255 6.01876 0
M  V30 4760 C 780.815 3.64202 6.65911 0
M  V30 4761 O 781.025 2.60694 5.64732 0
M  V30 4762 C 782.215 3.93473 7.1943 0
M  V30 4763 O 782.605 3.02071 8.21205 0
M  V30 4764 C 783.095 3.73047 5.97036 0
M  V30 4765 C 782.385 2.58828 5.25741 0
M  V30 4766 N 782.435 2.68068 3.77503 0
M  V30 4767 H 779.596 5.40332 6.79951 0
M  V30 4768 H 779.326 4.41613 5.32378 0
M  V30 4769 H 780.193 3.26331 7.47797 0
M  V30 4770 P 784.155 2.75334 8.47391 0
M  V30 4771 O 784.375 2.44619 9.90336 0
M  V30 4772 O 784.945 3.87776 7.92294 0
M  V30 4773 O 784.405 1.4459 7.59357 0
M  V30 4774 C 783.465 0.347653 7.69315 0
M  V30 4775 C 784.195 -0.96767 7.52806 0
M  V30 4776 O 784.405 -1.21055 6.10208 0
M  V30 4777 C 785.595 -1.04557 8.13408 0
M  V30 4778 O 785.985 -2.38311 8.41922 0
M  V30 4779 C 786.475 -0.491279 7.02284 0
M  V30 4780 C 785.765 -0.996264 5.77469 0
M  V30 4781 N 785.815 -0.0501916 4.62973 0
M  V30 4782 C 785.735 1.31969 4.65661 0
M  V30 4783 N 785.805 1.86649 3.48119 0
M  V30 4784 C 785.955 0.792089 2.62406 0
M  V30 4785 C 786.085 0.705684 1.2207 0
M  V30 4786 N 786.095 1.76207 0.413762 0
M  V30 4787 N 786.205 -0.518981 0.685754 0
M  V30 4788 C 786.195 -1.57595 1.49174 0
M  V30 4789 N 786.075 -1.62909 2.80066 0
M  V30 4790 C 785.955 -0.388195 3.3073 0
M  V30 4791 H 782.977 0.374765 8.67791 0
M  V30 4792 H 782.705 0.443613 6.90476 0
M  V30 4793 H 783.573 -1.75559 7.96891 0
M  V30 4794 H 786.228 -1.94563 5.46818 0
M  V30 4795 H 786.508 0.608651 7.04676 0
M  V30 4796 H 787.499 -0.889796 7.09039 0
M  V30 4797 H 785.665 -0.433128 9.04664 0
M  V30 4798 H 785.624 1.89246 5.57664 0
M  V30 4799 H 786.005 2.71005 0.804694 0
M  V30 4800 H 786.194 1.63189 -0.603768 0
M  V30 4801 H 786.302 -2.53475 0.997614 0
M  V30 4802 P 787.535 -2.75334 8.47391 0
M  V30 4803 O 787.755 -3.84128 9.44797 0
M  V30 4804 O 788.325 -1.51947 8.68712 0
M  V30 4805 O 787.785 -3.29363 6.99321 0
M  V30 4806 C 786.845 -4.24011 6.4274 0
M  V30 4807 C 787.575 -5.20775 5.52155 0
M  V30 4808 O 787.785 -4.56534 4.22446 0
M  V30 4809 C 788.975 -5.62629 5.96531 0
M  V30 4810 O 789.365 -6.87667 5.41053 0
M  V30 4811 C 789.855 -4.52537 5.39283 0
M  V30 4812 C 789.145 -4.20027 4.08623 0
M  V30 4813 N 789.195 -2.76189 3.71603 0
M  V30 4814 H 786.356 -4.797 7.24003 0
M  V30 4815 H 786.086 -3.69856 5.84513 0
M  V30 4816 H 786.953 -6.10356 5.41441 0
M  V30 4817 P 790.915 -7.20834 5.23717 0
M  V30 4818 O 791.135 -8.66104 5.38572 0
M  V30 4819 O 791.705 -6.33544 6.1349 0
M  V30 4820 O 791.165 -6.7751 3.72168 0
M  V30 4821 C 790.225 -7.20825 2.7076 0
M  V30 4822 C 790.955 -7.45864 1.40599 0
M  V30 4823 O 791.165 -6.17651 0.734225 0
M  V30 4824 C 792.355 -8.05808 1.51899 0
M  V30 4825 O 792.745 -8.74358 0.335205 0
M  V30 4826 C 793.235 -6.83093 1.70294 0
M  V30 4827 C 792.525 -5.79992 0.836974 0
M  V30 4828 N 792.575 -4.41864 1.38293 0
M  V30 4829 H 789.736 -8.13644 3.0377 0
M  V30 4830 H 789.466 -6.42788 2.55485 0
M  V30 4831 H 790.333 -8.12039 0.792769 0
M  V30 4832 P 794.295 -8.91 -5.6149e-12 0
M  V30 4833 O 794.515 -10.1736 -0.733766 0
M  V30 4834 O 795.085 -8.73247 1.2395 0
M  V30 4835 O 794.545 -7.66872 -0.971405 0
M  V30 4836 C 793.605 -7.42212 -2.04614 0
M  V30 4837 C 794.335 -6.86059 -3.24661 0
M  V30 4838 O 794.545 -5.42847 -3.03646 0
M  V30 4839 C 795.735 -7.41196 -3.50753 0
M  V30 4840 O 796.125 -7.27073 -4.86816 0
M  V30 4841 C 796.615 -6.5273 -2.63741 0
M  V30 4842 C 795.905 -5.1842 -2.73198 0
M  V30 4843 N 795.955 -4.38668 -1.47808 0
M  V30 4844 C 796.105 -3.02239 -1.60048 0
M  V30 4845 O 796.195 -2.46459 -2.67869 0
M  V30 4846 N 796.145 -2.32436 -0.408571 0
M  V30 4847 C 796.055 -2.85471 0.854993 0
M  V30 4848 O 796.105 -2.12566 1.8531 0
M  V30 4849 C 795.905 -4.28918 0.887335 0
M  V30 4850 C 795.795 -4.91066 2.24619 0
M  V30 4851 C 795.855 -5.00349 -0.255399 0
M  V30 4852 H 793.115 -8.36803 -2.32493 0
M  V30 4853 H 792.846 -6.701 -1.71105 0
M  V30 4854 H 793.713 -7.03551 -4.13168 0
M  V30 4855 H 796.368 -4.59773 -3.53894 0
M  V30 4856 H 796.647 -6.88995 -1.59871 0
M  V30 4857 H 797.639 -6.46749 -3.03687 0
M  V30 4858 H 795.805 -8.46908 -3.20714 0
M  V30 4859 H 795.734 -6.08548 -0.206986 0
M  V30 4860 H 796.764 -5.34836 2.53099 0
M  V30 4861 H 795.027 -5.69638 2.2291 0
M  V30 4862 H 795.515 -4.13971 2.98044 0
M  V30 4863 H 796.251 -1.33211 -0.474216 0
M  V30 4864 P 797.675 -7.20834 -5.23717 0
M  V30 4865 O 797.895 -7.80006 -6.57415 0
M  V30 4866 O 798.465 -7.79416 -4.13051 0
M  V30 4867 O 797.925 -5.63315 -5.29344 0
M  V30 4868 C 796.985 -4.80318 -6.01954 0
M  V30 4869 C 797.715 -3.64202 -6.65911 0
M  V30 4870 O 797.925 -2.60736 -5.64823 0
M  V30 4871 C 799.115 -3.93521 -7.19518 0
M  V30 4872 O 799.505 -3.02071 -8.21205 0
M  V30 4873 C 799.995 -3.73047 -5.97036 0
M  V30 4874 C 799.285 -2.58828 -5.25741 0
M  V30 4875 N 799.335 -2.68068 -3.77503 0
M  V30 4876 C 799.255 -3.80474 -2.99159 0
M  V30 4877 N 799.325 -3.55622 -1.71925 0
M  V30 4878 C 799.475 -2.1832 -1.65733 0
M  V30 4879 C 799.605 -1.28842 -0.572777 0
M  V30 4880 N 799.615 -1.66875 0.70098 0
M  V30 4881 N 799.725 0.016788 -0.859836 0
M  V30 4882 C 799.715 0.398145 -2.13316 0
M  V30 4883 N 799.595 -0.328224 -3.22333 0
M  V30 4884 C 799.475 -1.62992 -2.90383 0
M  V30 4885 H 796.497 -5.40394 -6.8003 0
M  V30 4886 H 796.225 -4.41741 -5.32532 0
M  V30 4887 H 797.093 -3.26371 -7.47889 0
M  V30 4888 H 799.748 -1.64007 -5.56746 0
M  V30 4889 H 800.028 -4.63439 -5.3432 0
M  V30 4890 H 801.019 -3.44776 -6.25925 0
M  V30 4891 H 799.185 -4.96707 -7.57347 0
M  V30 4892 H 799.144 -4.8089 -3.39924 0
M  V30 4893 H 799.525 -2.66547 0.941919 0
M  V30 4894 H 799.714 -0.965341 1.44766 0
M  V30 4895 H 799.822 1.46427 -2.29697 0
M  V30 4896 P 801.055 -2.75334 -8.47391 0
M  V30 4897 O 801.275 -2.44571 -9.90142 0
M  V30 4898 O 801.845 -3.87688 -7.92115 0
M  V30 4899 O 801.305 -1.4459 -7.59357 0
M  V30 4900 C 800.365 -0.347608 -7.69215 0
M  V30 4901 C 801.095 0.96767 -7.52806 0
M  V30 4902 O 801.305 1.21036 -6.1011 0
M  V30 4903 C 802.495 1.04544 -8.13308 0
M  V30 4904 O 802.885 2.38311 -8.41922 0
M  V30 4905 C 803.375 0.491279 -7.02284 0
M  V30 4906 C 802.665 0.996264 -5.77469 0
M  V30 4907 N 802.715 0.0501916 -4.62973 0
M  V30 4908 C 802.635 -1.32786 -4.63244 0
M  V30 4909 N 802.715 -1.86957 -3.44545 0
M  V30 4910 C 802.855 -0.780241 -2.58481 0
M  V30 4911 C 802.985 -0.738536 -1.17757 0
M  V30 4912 O 803.005 -1.66794 -0.372349 0
M  V30 4913 N 803.105 0.58337 -0.711393 0
M  V30 4914 C 803.105 1.70816 -1.51017 0
M  V30 4915 N 803.235 2.87826 -0.880757 0
M  V30 4916 N 802.975 1.67126 -2.8339 0
M  V30 4917 C 802.855 0.401421 -3.30572 0
M  V30 4918 H 799.876 -0.374722 -8.67691 0
M  V30 4919 H 799.606 -0.443485 -6.90277 0
M  V30 4920 H 800.473 1.75537 -7.96793 0
M  V30 4921 H 803.128 1.95076 -5.46529 0
M  V30 4922 H 803.407 -0.608565 -7.04577 0
M  V30 4923 H 804.399 0.889672 -7.08939 0
M  V30 4924 H 802.565 0.43308 -9.04564 0
M  V30 4925 H 802.516 -1.91249 -5.54442 0
M  V30 4926 H 803.198 0.718054 0.275244 0
M  V30 4927 H 803.235 3.75721 -1.41832 0
M  V30 4928 H 803.336 2.90436 0.145468 0
M  V30 4929 P 804.435 2.75334 -8.47391 0
M  V30 4930 O 804.655 3.84128 -9.44797 0
M  V30 4931 O 805.225 1.51947 -8.68712 0
M  V30 4932 O 804.685 3.29363 -6.99321 0
M  V30 4933 C 803.745 4.24011 -6.4274 0
M  V30 4934 C 804.475 5.20775 -5.52155 0
M  V30 4935 O 804.685 4.56534 -4.22446 0
M  V30 4936 C 805.875 5.62629 -5.96531 0
M  V30 4937 O 806.265 6.87667 -5.41053 0
M  V30 4938 C 806.755 4.52537 -5.39283 0
M  V30 4939 C 806.045 4.20027 -4.08623 0
M  V30 4940 N 806.095 2.76189 -3.71603 0
M  V30 4941 C 806.015 1.64862 -4.52822 0
M  V30 4942 N 806.095 0.512671 -3.88633 0
M  V30 4943 C 806.235 0.888083 -2.54977 0
M  V30 4944 C 806.365 0.094668 -1.38677 0
M  V30 4945 O 806.385 -1.13053 -1.28163 0
M  V30 4946 N 806.485 0.890102 -0.232633 0
M  V30 4947 C 806.485 2.26958 -0.21772 0
M  V30 4948 N 806.615 2.84626 0.97925 0
M  V30 4949 N 806.355 3.0178 -1.31033 0
M  V30 4950 C 806.235 2.26781 -2.43843 0
M  V30 4951 H 803.256 4.797 -7.24003 0
M  V30 4952 H 802.986 3.69856 -5.84513 0
M  V30 4953 H 803.853 6.10356 -5.41441 0
M  V30 4954 H 806.508 4.79061 -3.27488 0
M  V30 4955 H 806.787 3.64906 -6.05785 0
M  V30 4956 H 807.779 4.8868 -5.2125 0
M  V30 4957 H 805.945 5.66726 -7.06352 0
M  V30 4958 H 805.896 1.71169 -5.60966 0
M  V30 4959 H 806.578 0.419134 0.644739 0
M  V30 4960 H 806.615 3.87332 1.06098 0
M  V30 4961 H 806.716 2.26417 1.82483 0
M  V30 4962 P 807.815 7.20834 -5.23717 0
M  V30 4963 O 808.035 8.66104 -5.38572 0
M  V30 4964 O 808.605 6.33544 -6.1349 0
M  V30 4965 O 808.065 6.7751 -3.72168 0
M  V30 4966 C 807.125 7.20825 -2.7076 0
M  V30 4967 C 807.855 7.45864 -1.40599 0
M  V30 4968 O 808.065 6.17651 -0.734225 0
M  V30 4969 C 809.255 8.05808 -1.51899 0
M  V30 4970 O 809.645 8.74358 -0.335205 0
M  V30 4971 C 810.135 6.83093 -1.70294 0
M  V30 4972 C 809.425 5.79992 -0.836974 0
M  V30 4973 N 809.475 4.41864 -1.38293 0
M  V30 4974 H 806.636 8.13644 -3.0377 0
M  V30 4975 H 806.366 6.42788 -2.55485 0
M  V30 4976 H 807.233 8.12039 -0.792769 0
M  V30 4977 P 811.195 8.91 5.77209e-12 0
M  V30 4978 O 811.415 10.1726 0.733694 0
M  V30 4979 O 811.985 8.73148 -1.23936 0
M  V30 4980 O 811.445 7.66872 0.971405 0
M  V30 4981 C 810.505 7.42309 2.04641 0
M  V30 4982 C 811.235 6.86059 3.24661 0
M  V30 4983 O 811.445 5.42847 3.03646 0
M  V30 4984 C 812.635 7.41196 3.50753 0
M  V30 4985 O 813.025 7.27073 4.86816 0
M  V30 4986 C 813.515 6.5273 2.63741 0
M  V30 4987 C 812.805 5.1842 2.73198 0
M  V30 4988 N 812.855 4.38762 1.4784 0
M  V30 4989 H 810.016 8.36803 2.32493 0
M  V30 4990 H 809.746 6.70197 1.71129 0
M  V30 4991 H 810.613 7.03551 4.13168 0
M  V30 4992 P 814.575 7.20834 5.23717 0
M  V30 4993 O 814.795 7.79853 6.57286 0
M  V30 4994 O 815.365 7.79239 4.12957 0
M  V30 4995 O 814.825 5.63315 5.29344 0
M  V30 4996 C 813.885 4.80255 6.01876 0
M  V30 4997 C 814.615 3.64202 6.65911 0
M  V30 4998 O 814.825 2.60694 5.64732 0
M  V30 4999 C 816.015 3.93473 7.1943 0
M  V30 5000 O 816.405 3.02071 8.21205 0
M  V30 5001 C 816.895 3.73047 5.97036 0
M  V30 5002 C 816.185 2.58828 5.25741 0
M  V30 5003 N 816.235 2.68068 3.77503 0
M  V30 5004 H 813.396 5.40332 6.79951 0
M  V30 5005 H 813.126 4.41613 5.32378 0
M  V30 5006 H 813.993 3.26331 7.47797 0
M  V30 5007 P 817.955 2.75334 8.47391 0
M  V30 5008 O 818.175 2.44571 9.90142 0
M  V30 5009 O 818.745 3.87688 7.92115 0
M  V30 5010 O 818.205 1.4459 7.59357 0
M  V30 5011 C 817.265 0.347608 7.69215 0
M  V30 5012 C 817.995 -0.96767 7.52806 0
M  V30 5013 O 818.205 -1.21036 6.1011 0
M  V30 5014 C 819.395 -1.04544 8.13308 0
M  V30 5015 O 819.785 -2.38311 8.41922 0
M  V30 5016 C 820.275 -0.491279 7.02284 0
M  V30 5017 C 819.565 -0.996264 5.77469 0
M  V30 5018 N 819.615 -0.0501916 4.62973 0
M  V30 5019 H 816.776 0.374722 8.67691 0
M  V30 5020 H 816.506 0.443485 6.90277 0
M  V30 5021 H 817.373 -1.75537 7.96793 0
M  V30 5022 P 821.335 -2.75334 8.47391 0
M  V30 5023 O 821.555 -3.84166 9.4489 0
M  V30 5024 O 822.125 -1.51964 8.6881 0
M  V30 5025 O 821.585 -3.29363 6.99321 0
M  V30 5026 C 820.645 -4.23956 6.42656 0
M  V30 5027 C 821.375 -5.20775 5.52155 0
M  V30 5028 O 821.585 -4.56534 4.22446 0
M  V30 5029 C 822.775 -5.62629 5.96531 0
M  V30 5030 O 823.165 -6.87667 5.41053 0
M  V30 5031 C 823.655 -4.52537 5.39283 0
M  V30 5032 C 822.945 -4.20027 4.08623 0
M  V30 5033 N 822.995 -2.7613 3.71522 0
M  V30 5034 C 823.145 -2.45612 2.37989 0
M  V30 5035 O 823.235 -3.30919 1.51621 0
M  V30 5036 N 823.185 -1.10684 2.08435 0
M  V30 5037 C 823.095 -0.0690084 2.9792 0
M  V30 5038 C 822.945 -0.481522 4.35345 0
M  V30 5039 C 822.895 -1.78906 4.67968 0
M  V30 5040 H 820.155 -4.797 7.24003 0
M  V30 5041 H 819.886 -3.69802 5.84429 0
M  V30 5042 H 820.753 -6.10356 5.41441 0
M  V30 5043 H 823.408 -4.78651 3.27911 0
M  V30 5044 H 823.687 -3.64957 6.05871 0
M  V30 5045 H 824.679 -4.8868 5.2125 0
M  V30 5046 H 822.845 -5.66726 7.06352 0
M  V30 5047 H 822.774 -2.07737 5.72367 0
M  V30 5048 P 824.715 -7.20834 5.23717 0
M  V30 5049 O 824.935 -8.66104 5.38572 0
M  V30 5050 O 825.505 -6.33544 6.1349 0
M  V30 5051 O 824.965 -6.7751 3.72168 0
M  V30 5052 C 824.025 -7.20825 2.7076 0
M  V30 5053 C 824.755 -7.45864 1.40599 0
M  V30 5054 O 824.965 -6.17651 0.734225 0
M  V30 5055 C 826.155 -8.05808 1.51899 0
M  V30 5056 O 826.545 -8.74358 0.335205 0
M  V30 5057 C 827.035 -6.83093 1.70294 0
M  V30 5058 C 826.325 -5.79992 0.836974 0
M  V30 5059 N 826.375 -4.41864 1.38293 0
M  V30 5060 H 823.536 -8.13644 3.0377 0
M  V30 5061 H 823.266 -6.42788 2.55485 0
M  V30 5062 H 824.133 -8.12039 0.792769 0
M  V30 5063 P 828.095 -8.91 -5.92927e-12 0
M  V30 5064 O 828.315 -10.1746 -0.733838 0
M  V30 5065 O 828.885 -8.73346 1.23964 0
M  V30 5066 O 828.345 -7.66872 -0.971405 0
M  V30 5067 C 827.405 -7.42405 -2.04668 0
M  V30 5068 C 828.135 -6.86059 -3.24661 0
M  V30 5069 O 828.345 -5.42934 -3.03695 0
M  V30 5070 C 829.535 -7.41287 -3.50796 0
M  V30 5071 O 829.925 -7.27073 -4.86816 0
M  V30 5072 C 830.415 -6.5273 -2.63741 0
M  V30 5073 C 829.705 -5.1842 -2.73198 0
M  V30 5074 N 829.755 -4.38762 -1.4784 0
M  V30 5075 C 829.675 -4.83651 -0.183876 0
M  V30 5076 N 829.745 -3.88759 0.699393 0
M  V30 5077 C 829.895 -2.7404 -0.0575568 0
M  V30 5078 C 830.025 -1.37902 0.293928 0
M  V30 5079 N 830.035 -0.938021 1.54797 0
M  V30 5080 N 830.145 -0.491817 -0.70549 0
M  V30 5081 C 830.135 -0.931735 -1.95979 0
M  V30 5082 N 830.015 -2.16017 -2.41481 0
M  V30 5083 C 829.895 -3.02547 -1.39121 0
M  V30 5084 H 826.917 -8.36899 -2.3252 0
M  V30 5085 H 826.645 -6.70391 -1.71179 0
M  V30 5086 H 827.513 -7.03638 -4.13219 0
M  V30 5087 H 830.168 -4.59931 -3.54016 0
M  V30 5088 H 830.448 -6.88995 -1.59871 0
M  V30 5089 H 831.439 -6.4684 -3.0373 0
M  V30 5090 H 829.605 -8.47002 -3.20749 0
M  V30 5091 H 829.564 -5.8885 0.0765548 0
M  V30 5092 H 829.945 -1.60276 2.32875 0
M  V30 5093 H 830.134 0.0699355 1.73859 0
M  V30 5094 H 830.242 -0.165507 -2.71897 0
M  V30 5095 P 831.475 -7.20834 -5.23717 0
M  V30 5096 O 831.695 -7.80006 -6.57415 0
M  V30 5097 O 832.265 -7.79416 -4.13051 0
M  V30 5098 O 831.725 -5.63315 -5.29344 0
M  V30 5099 C 830.785 -4.80318 -6.01954 0
M  V30 5100 C 831.515 -3.64202 -6.65911 0
M  V30 5101 O 831.725 -2.60736 -5.64823 0
M  V30 5102 C 832.915 -3.93521 -7.19518 0
M  V30 5103 O 833.305 -3.02071 -8.21205 0
M  V30 5104 C 833.795 -3.73047 -5.97036 0
M  V30 5105 C 833.085 -2.58828 -5.25741 0
M  V30 5106 N 833.135 -2.68068 -3.77503 0
M  V30 5107 H 830.297 -5.40394 -6.8003 0
M  V30 5108 H 830.025 -4.41741 -5.32532 0
M  V30 5109 H 830.893 -3.26371 -7.47889 0
M  V30 5110 H 833.548 -1.64007 -5.56746 0
M  V30 5111 H 833.828 -4.63439 -5.3432 0
M  V30 5112 H 834.819 -3.44776 -6.25925 0
M  V30 5113 H 832.985 -4.96707 -7.57347 0
M  V30 5114 P 834.855 -2.75334 -8.47391 0
M  V30 5115 O 835.075 -2.44571 -9.90142 0
M  V30 5116 O 835.645 -3.87688 -7.92115 0
M  V30 5117 O 835.105 -1.4459 -7.59357 0
M  V30 5118 C 834.165 -0.347608 -7.69215 0
M  V30 5119 C 834.895 0.96767 -7.52806 0
M  V30 5120 O 835.105 1.21036 -6.1011 0
M  V30 5121 C 836.295 1.04544 -8.13308 0
M  V30 5122 O 836.685 2.38311 -8.41922 0
M  V30 5123 C 837.175 0.491279 -7.02284 0
M  V30 5124 C 836.465 0.996264 -5.77469 0
M  V30 5125 N 836.515 0.0501916 -4.62973 0
M  V30 5126 H 833.676 -0.374722 -8.67691 0
M  V30 5127 H 833.406 -0.443485 -6.90277 0
M  V30 5128 H 834.273 1.75537 -7.96793 0
M  V30 5129 P 838.235 2.75334 -8.47391 0
M  V30 5130 O 838.455 3.84128 -9.44797 0
M  V30 5131 O 839.025 1.51947 -8.68712 0
M  V30 5132 O 838.485 3.29363 -6.99321 0
M  V30 5133 C 837.545 4.24011 -6.4274 0
M  V30 5134 C 838.275 5.20775 -5.52155 0
M  V30 5135 O 838.485 4.56534 -4.22446 0
M  V30 5136 C 839.675 5.62629 -5.96531 0
M  V30 5137 O 840.065 6.87667 -5.41053 0
M  V30 5138 C 840.555 4.52537 -5.39283 0
M  V30 5139 C 839.845 4.20027 -4.08623 0
M  V30 5140 N 839.895 2.76189 -3.71603 0
M  V30 5141 H 837.056 4.797 -7.24003 0
M  V30 5142 H 836.786 3.69856 -5.84513 0
M  V30 5143 H 837.653 6.10356 -5.41441 0
M  V30 5144 P 841.615 7.20834 -5.23717 0
M  V30 5145 O 841.835 8.66104 -5.38572 0
M  V30 5146 O 842.405 6.33544 -6.1349 0
M  V30 5147 O 841.865 6.7751 -3.72168 0
M  V30 5148 C 840.925 7.20825 -2.7076 0
M  V30 5149 C 841.655 7.45864 -1.40599 0
M  V30 5150 O 841.865 6.17651 -0.734225 0
M  V30 5151 C 843.055 8.05808 -1.51899 0
M  V30 5152 O 843.445 8.74358 -0.335205 0
M  V30 5153 C 843.935 6.83093 -1.70294 0
M  V30 5154 C 843.225 5.79992 -0.836974 0
M  V30 5155 N 843.275 4.41864 -1.38293 0
M  V30 5156 H 840.436 8.13644 -3.0377 0
M  V30 5157 H 840.166 6.42788 -2.55485 0
M  V30 5158 H 841.033 8.12039 -0.792769 0
M  V30 5159 P 844.995 8.91 6.08645e-12 0
M  V30 5160 O 845.215 10.1726 0.733694 0
M  V30 5161 O 845.785 8.73148 -1.23936 0
M  V30 5162 O 845.245 7.66872 0.971405 0
M  V30 5163 C 844.305 7.42309 2.04641 0
M  V30 5164 C 845.035 6.86059 3.24661 0
M  V30 5165 O 845.245 5.42847 3.03646 0
M  V30 5166 C 846.435 7.41196 3.50753 0
M  V30 5167 O 846.825 7.27073 4.86816 0
M  V30 5168 C 847.315 6.5273 2.63741 0
M  V30 5169 C 846.605 5.1842 2.73198 0
M  V30 5170 N 846.655 4.38762 1.4784 0
M  V30 5171 H 843.816 8.36803 2.32493 0
M  V30 5172 H 843.546 6.70197 1.71129 0
M  V30 5173 H 844.413 7.03551 4.13168 0
M  V30 5174 P 848.375 7.20834 5.23717 0
M  V30 5175 O 848.595 7.79853 6.57286 0
M  V30 5176 O 849.165 7.79239 4.12957 0
M  V30 5177 O 848.625 5.63315 5.29344 0
M  V30 5178 C 847.685 4.80255 6.01876 0
M  V30 5179 C 848.415 3.64202 6.65911 0
M  V30 5180 O 848.625 2.60694 5.64732 0
M  V30 5181 C 849.815 3.93473 7.1943 0
M  V30 5182 O 850.205 3.02071 8.21205 0
M  V30 5183 C 850.695 3.73047 5.97036 0
M  V30 5184 C 849.985 2.58828 5.25741 0
M  V30 5185 N 850.035 2.68068 3.77503 0
M  V30 5186 H 847.196 5.40332 6.79951 0
M  V30 5187 H 846.926 4.41613 5.32378 0
M  V30 5188 H 847.793 3.26331 7.47797 0
M  V30 5189 P 851.755 2.75334 8.47391 0
M  V30 5190 O 851.975 2.44571 9.90142 0
M  V30 5191 O 852.545 3.87688 7.92115 0
M  V30 5192 O 852.005 1.4459 7.59357 0
M  V30 5193 C 851.065 0.347608 7.69215 0
M  V30 5194 C 851.795 -0.96767 7.52806 0
M  V30 5195 O 852.005 -1.21036 6.1011 0
M  V30 5196 C 853.195 -1.04544 8.13308 0
M  V30 5197 O 853.585 -2.38311 8.41922 0
M  V30 5198 C 854.075 -0.491279 7.02284 0
M  V30 5199 C 853.365 -0.996264 5.77469 0
M  V30 5200 N 853.415 -0.0501916 4.62973 0
M  V30 5201 H 850.576 0.374722 8.67691 0
M  V30 5202 H 850.306 0.443485 6.90277 0
M  V30 5203 H 851.173 -1.75537 7.96793 0
M  V30 5204 P 855.135 -2.75334 8.47391 0
M  V30 5205 O 855.355 -3.84128 9.44797 0
M  V30 5206 O 855.925 -1.51947 8.68712 0
M  V30 5207 O 855.385 -3.29363 6.99321 0
M  V30 5208 C 854.445 -4.24011 6.4274 0
M  V30 5209 C 855.175 -5.20775 5.52155 0
M  V30 5210 O 855.385 -4.56534 4.22446 0
M  V30 5211 C 856.575 -5.62629 5.96531 0
M  V30 5212 O 856.965 -6.87667 5.41053 0
M  V30 5213 C 857.455 -4.52537 5.39283 0
M  V30 5214 C 856.745 -4.20027 4.08623 0
M  V30 5215 N 856.795 -2.76189 3.71603 0
M  V30 5216 H 853.956 -4.797 7.24003 0
M  V30 5217 H 853.686 -3.69856 5.84513 0
M  V30 5218 H 854.553 -6.10356 5.41441 0
M  V30 5219 P 858.515 -7.20834 5.23717 0
M  V30 5220 O 858.735 -8.66104 5.38572 0
M  V30 5221 O 859.305 -6.33544 6.1349 0
M  V30 5222 O 858.765 -6.7751 3.72168 0
M  V30 5223 C 857.825 -7.20825 2.7076 0
M  V30 5224 C 858.555 -7.45864 1.40599 0
M  V30 5225 O 858.765 -6.17651 0.734225 0
M  V30 5226 C 859.955 -8.05808 1.51899 0
M  V30 5227 O 860.345 -8.74358 0.335205 0
M  V30 5228 C 860.835 -6.83093 1.70294 0
M  V30 5229 C 860.125 -5.79992 0.836974 0
M  V30 5230 N 860.175 -4.41864 1.38293 0
M  V30 5231 H 857.336 -8.13644 3.0377 0
M  V30 5232 H 857.066 -6.42788 2.55485 0
M  V30 5233 H 857.933 -8.12039 0.792769 0
M  V30 5234 P 861.895 -8.91 -6.24363e-12 0
M  V30 5235 O 862.115 -10.1726 -0.733694 0
M  V30 5236 O 862.685 -8.73148 1.23936 0
M  V30 5237 O 862.145 -7.66872 -0.971405 0
M  V30 5238 C 861.205 -7.42309 -2.04641 0
M  V30 5239 C 861.935 -6.86059 -3.24661 0
M  V30 5240 O 862.145 -5.42847 -3.03646 0
M  V30 5241 C 863.335 -7.41196 -3.50753 0
M  V30 5242 O 863.725 -7.27073 -4.86816 0
M  V30 5243 C 864.215 -6.5273 -2.63741 0
M  V30 5244 C 863.505 -5.1842 -2.73198 0
M  V30 5245 N 863.555 -4.38762 -1.4784 0
M  V30 5246 C 863.475 -4.81605 -0.168631 0
M  V30 5247 N 863.555 -3.85454 0.713363 0
M  V30 5248 C 863.695 -2.6994 -0.0566958 0
M  V30 5249 C 863.825 -1.34815 0.338502 0
M  V30 5250 O 863.845 -0.869548 1.47125 0
M  V30 5251 N 863.945 -0.496304 -0.77465 0
M  V30 5252 C 863.945 -0.908403 -2.09122 0
M  V30 5253 N 864.075 0.0517805 -3.00955 0
M  V30 5254 N 863.815 -2.17875 -2.46519 0
M  V30 5255 C 863.695 -3.01988 -1.4033 0
M  V30 5256 H 860.716 -8.36803 -2.32493 0
M  V30 5257 H 860.446 -6.70197 -1.71129 0
M  V30 5258 H 861.313 -7.03551 -4.13168 0
M  V30 5259 H 863.968 -4.59498 -3.54415 0
M  V30 5260 H 864.247 -6.88898 -1.59848 0
M  V30 5261 H 865.239 -6.46749 -3.03687 0
M  V30 5262 H 863.405 -8.46908 -3.20714 0
M  V30 5263 H 863.356 -5.86405 0.105564 0
M  V30 5264 H 864.038 0.483664 -0.597855 0
M  V30 5265 H 864.075 -0.187865 -4.0116 0
M  V30 5266 H 864.176 1.03585 -2.71726 0
M  V30 5267 P 865.275 -7.20834 -5.23717 0
M  V30 5268 O 865.495 -7.79853 -6.57286 0
M  V30 5269 O 866.065 -7.79239 -4.12957 0
M  V30 5270 O 865.525 -5.63315 -5.29344 0
M  V30 5271 C 864.585 -4.80255 -6.01876 0
M  V30 5272 C 865.315 -3.64202 -6.65911 0
M  V30 5273 O 865.525 -2.60694 -5.64732 0
M  V30 5274 C 866.715 -3.93473 -7.1943 0
M  V30 5275 O 867.105 -3.02071 -8.21205 0
M  V30 5276 C 867.595 -3.73047 -5.97036 0
M  V30 5277 C 866.885 -2.58828 -5.25741 0
M  V30 5278 N 866.935 -2.68068 -3.77503 0
M  V30 5279 H 864.096 -5.40332 -6.79951 0
M  V30 5280 H 863.826 -4.41613 -5.32378 0
M  V30 5281 H 864.693 -3.26331 -7.47797 0
M  V30 5282 P 868.655 -2.75334 -8.47391 0
M  V30 5283 O 868.875 -2.44571 -9.90142 0
M  V30 5284 O 869.445 -3.87688 -7.92115 0
M  V30 5285 O 868.905 -1.4459 -7.59357 0
M  V30 5286 C 867.965 -0.347608 -7.69215 0
M  V30 5287 C 868.695 0.96767 -7.52806 0
M  V30 5288 O 868.905 1.21036 -6.1011 0
M  V30 5289 C 870.095 1.04544 -8.13308 0
M  V30 5290 O 870.485 2.38311 -8.41922 0
M  V30 5291 C 870.975 0.491279 -7.02284 0
M  V30 5292 C 870.265 0.996264 -5.77469 0
M  V30 5293 N 870.315 0.0501916 -4.62973 0
M  V30 5294 H 867.476 -0.374722 -8.67691 0
M  V30 5295 H 867.206 -0.443485 -6.90277 0
M  V30 5296 H 868.073 1.75537 -7.96793 0
M  V30 5297 P 872.035 2.75334 -8.47391 0
M  V30 5298 O 872.255 3.84166 -9.4489 0
M  V30 5299 O 872.825 1.51964 -8.6881 0
M  V30 5300 O 872.285 3.29363 -6.99321 0
M  V30 5301 C 871.345 4.23956 -6.42656 0
M  V30 5302 C 872.075 5.20775 -5.52155 0
M  V30 5303 O 872.285 4.56534 -4.22446 0
M  V30 5304 C 873.475 5.62629 -5.96531 0
M  V30 5305 O 873.865 6.87667 -5.41053 0
M  V30 5306 C 874.355 4.52537 -5.39283 0
M  V30 5307 C 873.645 4.20027 -4.08623 0
M  V30 5308 N 873.695 2.7613 -3.71522 0
M  V30 5309 C 873.845 2.45612 -2.37989 0
M  V30 5310 O 873.935 3.30919 -1.51621 0
M  V30 5311 N 873.885 1.10684 -2.08435 0
M  V30 5312 C 873.795 0.0690084 -2.9792 0
M  V30 5313 O 873.845 -1.10553 -2.59426 0
M  V30 5314 C 873.645 0.481522 -4.35345 0
M  V30 5315 C 873.535 -0.618778 -5.36443 0
M  V30 5316 C 873.595 1.78906 -4.67968 0
M  V30 5317 H 870.855 4.797 -7.24003 0
M  V30 5318 H 870.586 3.69802 -5.84429 0
M  V30 5319 H 871.453 6.10356 -5.41441 0
M  V30 5320 H 874.108 4.78651 -3.27911 0
M  V30 5321 H 874.387 3.64957 -6.05871 0
M  V30 5322 H 875.379 4.8868 -5.2125 0
M  V30 5323 H 873.545 5.66726 -7.06352 0
M  V30 5324 H 873.474 2.07737 -5.72367 0
M  V30 5325 H 874.504 -0.754375 -5.86871 0
M  V30 5326 H 872.767 -0.359721 -6.10641 0
M  V30 5327 H 873.255 -1.55533 -4.8581 0
M  V30 5328 H 873.991 0.862651 -1.12037 0
M  V30 5329 P 875.415 7.20834 -5.23717 0
M  V30 5330 O 875.635 8.66104 -5.38572 0
M  V30 5331 O 876.205 6.33544 -6.1349 0
M  V30 5332 O 875.665 6.7751 -3.72168 0
M  V30 5333 C 874.725 7.20825 -2.7076 0
M  V30 5334 C 875.455 7.45864 -1.40599 0
M  V30 5335 O 875.665 6.17651 -0.734225 0
M  V30 5336 C 876.855 8.05808 -1.51899 0
M  V30 5337 O 877.245 8.74358 -0.335205 0
M  V30 5338 C 877.735 6.83093 -1.70294 0
M  V30 5339 C 877.025 5.79992 -0.836974 0
M  V30 5340 N 877.075 4.41864 -1.38293 0
M  V30 5341 H 874.236 8.13644 -3.0377 0
M  V30 5342 H 873.966 6.42788 -2.55485 0
M  V30 5343 H 874.833 8.12039 -0.792769 0
M  V30 5344 P 878.795 8.91 6.40081e-12 0
M  V30 5345 O 879.015 10.1736 0.733766 0
M  V30 5346 O 879.585 8.73247 -1.2395 0
M  V30 5347 O 879.045 7.66872 0.971405 0
M  V30 5348 C 878.105 7.42212 2.04614 0
M  V30 5349 C 878.835 6.86059 3.24661 0
M  V30 5350 O 879.045 5.42847 3.03646 0
M  V30 5351 C 880.235 7.41196 3.50753 0
M  V30 5352 O 880.625 7.27073 4.86816 0
M  V30 5353 C 881.115 6.5273 2.63741 0
M  V30 5354 C 880.405 5.1842 2.73198 0
M  V30 5355 N 880.455 4.38668 1.47808 0
M  V30 5356 C 880.605 3.02239 1.60048 0
M  V30 5357 O 880.695 2.46459 2.67869 0
M  V30 5358 N 880.645 2.32436 0.408571 0
M  V30 5359 C 880.555 2.85471 -0.854993 0
M  V30 5360 O 880.605 2.12566 -1.8531 0
M  V30 5361 C 880.405 4.28918 -0.887335 0
M  V30 5362 C 880.295 4.91066 -2.24619 0
M  V30 5363 C 880.355 5.00349 0.255399 0
M  V30 5364 H 877.615 8.36803 2.32493 0
M  V30 5365 H 877.346 6.701 1.71105 0
M  V30 5366 H 878.213 7.03551 4.13168 0
M  V30 5367 H 880.868 4.59773 3.53894 0
M  V30 5368 H 881.147 6.88995 1.59871 0
M  V30 5369 H 882.139 6.46749 3.03687 0
M  V30 5370 H 880.305 8.46908 3.20714 0
M  V30 5371 H 880.234 6.08548 0.206986 0
M  V30 5372 H 881.264 5.34836 -2.53099 0
M  V30 5373 H 879.527 5.69638 -2.2291 0
M  V30 5374 H 880.015 4.13971 -2.98044 0
M  V30 5375 H 880.751 1.33211 0.474216 0
M  V30 5376 P 882.175 7.20834 5.23717 0
M  V30 5377 O 882.395 7.7993 6.57351 0
M  V30 5378 O 882.965 7.79328 4.13004 0
M  V30 5379 O 882.425 5.63315 5.29344 0
M  V30 5380 C 881.485 4.80193 6.01798 0
M  V30 5381 C 882.215 3.64202 6.65911 0
M  V30 5382 O 882.425 2.60694 5.64732 0
M  V30 5383 C 883.615 3.93473 7.1943 0
M  V30 5384 O 884.005 3.02071 8.21205 0
M  V30 5385 C 884.495 3.73047 5.97036 0
M  V30 5386 C 883.785 2.58828 5.25741 0
M  V30 5387 N 883.835 2.6801 3.77422 0
M  V30 5388 C 883.985 1.50443 3.07133 0
M  V30 5389 O 884.075 0.419406 3.61576 0
M  V30 5390 N 884.025 1.6403 1.69677 0
M  V30 5391 C 883.935 2.81206 0.986255 0
M  V30 5392 O 883.985 2.80892 -0.249754 0
M  V30 5393 C 883.785 3.99158 1.80325 0
M  V30 5394 C 883.675 5.29309 1.06921 0
M  V30 5395 C 883.735 3.89779 3.1476 0
M  V30 5396 H 880.995 5.40332 6.79951 0
M  V30 5397 H 880.726 4.41549 5.32301 0
M  V30 5398 H 881.593 3.26331 7.47797 0
M  V30 5399 H 884.248 1.6395 5.56554 0
M  V30 5400 H 884.527 4.63439 5.3432 0
M  V30 5401 H 885.519 3.44728 6.25838 0
M  V30 5402 H 883.685 4.96652 7.57263 0
M  V30 5403 H 883.614 4.80159 3.74441 0
M  V30 5404 H 884.644 5.81459 1.09608 0
M  V30 5405 H 882.907 5.9187 1.54487 0
M  V30 5406 H 883.395 5.10095 0.0220288 0
M  V30 5407 H 884.131 0.798962 1.16664 0
M  V30 5408 P 885.555 2.75334 8.47391 0
M  V30 5409 O 885.775 2.44571 9.90142 0
M  V30 5410 O 886.345 3.87688 7.92115 0
M  V30 5411 O 885.805 1.4459 7.59357 0
M  V30 5412 C 884.865 0.347608 7.69215 0
M  V30 5413 C 885.595 -0.96767 7.52806 0
M  V30 5414 O 885.805 -1.21036 6.1011 0
M  V30 5415 C 886.995 -1.04544 8.13308 0
M  V30 5416 O 887.385 -2.38311 8.41922 0
M  V30 5417 C 887.875 -0.491279 7.02284 0
M  V30 5418 C 887.165 -0.996264 5.77469 0
M  V30 5419 N 887.215 -0.0501916 4.62973 0
M  V30 5420 H 884.376 0.374722 8.67691 0
M  V30 5421 H 884.106 0.443485 6.90277 0
M  V30 5422 H 884.973 -1.75537 7.96793 0
M  V30 5423 P 888.935 -2.75334 8.47391 0
M  V30 5424 O 889.155 -3.84166 9.4489 0
M  V30 5425 O 889.725 -1.51964 8.6881 0
M  V30 5426 O 889.185 -3.29363 6.99321 0
M  V30 5427 C 888.245 -4.23956 6.42656 0
M  V30 5428 C 888.975 -5.20775 5.52155 0
M  V30 5429 O 889.185 -4.56534 4.22446 0
M  V30 5430 C 890.375 -5.62629 5.96531 0
M  V30 5431 O 890.765 -6.87667 5.41053 0
M  V30 5432 C 891.255 -4.52537 5.39283 0
M  V30 5433 C 890.545 -4.20027 4.08623 0
M  V30 5434 N 890.595 -2.7613 3.71522 0
M  V30 5435 C 890.745 -2.45612 2.37989 0
M  V30 5436 O 890.835 -3.30919 1.51621 0
M  V30 5437 N 890.785 -1.10684 2.08435 0
M  V30 5438 C 890.695 -0.0690084 2.9792 0
M  V30 5439 O 890.745 1.10553 2.59426 0
M  V30 5440 C 890.545 -0.481522 4.35345 0
M  V30 5441 C 890.435 0.618778 5.36443 0
M  V30 5442 C 890.495 -1.78906 4.67968 0
M  V30 5443 H 887.755 -4.797 7.24003 0
M  V30 5444 H 887.486 -3.69802 5.84429 0
M  V30 5445 H 888.353 -6.10356 5.41441 0
M  V30 5446 H 891.008 -4.78651 3.27911 0
M  V30 5447 H 891.287 -3.64957 6.05871 0
M  V30 5448 H 892.279 -4.8868 5.2125 0
M  V30 5449 H 890.445 -5.66726 7.06352 0
M  V30 5450 H 890.374 -2.07737 5.72367 0
M  V30 5451 H 891.404 0.754375 5.86871 0
M  V30 5452 H 889.667 0.359721 6.10641 0
M  V30 5453 H 890.155 1.55533 4.8581 0
M  V30 5454 H 890.891 -0.862651 1.12037 0
M  V30 5455 P 892.315 -7.20834 5.23717 0
M  V30 5456 O 892.535 -8.66104 5.38572 0
M  V30 5457 O 893.105 -6.33544 6.1349 0
M  V30 5458 O 892.565 -6.7751 3.72168 0
M  V30 5459 C 891.625 -7.20825 2.7076 0
M  V30 5460 C 892.355 -7.45864 1.40599 0
M  V30 5461 O 892.565 -6.17651 0.734225 0
M  V30 5462 C 893.755 -8.05808 1.51899 0
M  V30 5463 O 894.145 -8.74358 0.335205 0
M  V30 5464 C 894.635 -6.83093 1.70294 0
M  V30 5465 C 893.925 -5.79992 0.836974 0
M  V30 5466 N 893.975 -4.41864 1.38293 0
M  V30 5467 C 893.895 -3.99538 2.69438 0
M  V30 5468 N 893.975 -2.69909 2.84277 0
M  V30 5469 C 894.115 -2.21719 1.5408 0
M  V30 5470 C 894.245 -0.891712 1.06628 0
M  V30 5471 O 894.265 0.161298 1.70137 0
M  V30 5472 N 894.365 -0.856846 -0.334985 0
M  V30 5473 C 894.365 -1.9641 -1.15789 0
M  V30 5474 N 894.495 -1.72708 -2.46522 0
M  V30 5475 N 894.235 -3.21165 -0.713741 0
M  V30 5476 C 894.115 -3.26797 0.639748 0
M  V30 5477 H 891.136 -8.13644 3.0377 0
M  V30 5478 H 890.866 -6.42788 2.55485 0
M  V30 5479 H 891.733 -8.12039 0.792769 0
M  V30 5480 H 894.388 -5.80061 -0.166416 0
M  V30 5481 H 894.667 -6.51287 2.75604 0
M  V30 5482 H 895.659 -7.01734 1.34462 0
M  V30 5483 H 893.825 -8.73674 2.38337 0
M  V30 5484 H 893.776 -4.68207 3.53221 0
M  V30 5485 H 894.458 0.0398818 -0.767965 0
M  V30 5486 H 894.495 -2.50995 -3.13503 0
M  V30 5487 H 894.596 -0.759148 -2.80716 0
M  V30 5488 P 895.695 -8.91 -6.558e-12 0
M  V30 5489 O 895.915 -10.1726 -0.733694 0
M  V30 5490 O 896.485 -8.73148 1.23936 0
M  V30 5491 O 895.945 -7.66872 -0.971405 0
M  V30 5492 C 895.005 -7.42309 -2.04641 0
M  V30 5493 C 895.735 -6.86059 -3.24661 0
M  V30 5494 O 895.945 -5.42847 -3.03646 0
M  V30 5495 C 897.135 -7.41196 -3.50753 0
M  V30 5496 O 897.525 -7.27073 -4.86816 0
M  V30 5497 C 898.015 -6.5273 -2.63741 0
M  V30 5498 C 897.305 -5.1842 -2.73198 0
M  V30 5499 N 897.355 -4.38762 -1.4784 0
M  V30 5500 H 894.516 -8.36803 -2.32493 0
M  V30 5501 H 894.246 -6.70197 -1.71129 0
M  V30 5502 H 895.113 -7.03551 -4.13168 0
M  V30 5503 P 899.075 -7.20834 -5.23717 0
M  V30 5504 O 899.295 -7.79853 -6.57286 0
M  V30 5505 O 899.865 -7.79239 -4.12957 0
M  V30 5506 O 899.325 -5.63315 -5.29344 0
M  V30 5507 C 898.385 -4.80255 -6.01876 0
M  V30 5508 C 899.115 -3.64202 -6.65911 0
M  V30 5509 O 899.325 -2.60694 -5.64732 0
M  V30 5510 C 900.515 -3.93473 -7.1943 0
M  V30 5511 O 900.905 -3.02071 -8.21205 0
M  V30 5512 C 901.395 -3.73047 -5.97036 0
M  V30 5513 C 900.685 -2.58828 -5.25741 0
M  V30 5514 N 900.735 -2.68068 -3.77503 0
M  V30 5515 H 897.896 -5.40332 -6.79951 0
M  V30 5516 H 897.626 -4.41613 -5.32378 0
M  V30 5517 H 898.493 -3.26331 -7.47797 0
M  V30 5518 P 902.455 -2.75334 -8.47391 0
M  V30 5519 O 902.675 -2.44571 -9.90142 0
M  V30 5520 O 903.245 -3.87688 -7.92115 0
M  V30 5521 O 902.705 -1.4459 -7.59357 0
M  V30 5522 C 901.765 -0.347608 -7.69215 0
M  V30 5523 C 902.495 0.96767 -7.52806 0
M  V30 5524 O 902.705 1.21036 -6.1011 0
M  V30 5525 C 903.895 1.04544 -8.13308 0
M  V30 5526 O 904.285 2.38311 -8.41922 0
M  V30 5527 C 904.775 0.491279 -7.02284 0
M  V30 5528 C 904.065 0.996264 -5.77469 0
M  V30 5529 N 904.115 0.0501916 -4.62973 0
M  V30 5530 H 901.276 -0.374722 -8.67691 0
M  V30 5531 H 901.006 -0.443485 -6.90277 0
M  V30 5532 H 901.873 1.75537 -7.96793 0
M  V30 5533 P 905.835 2.75334 -8.47391 0
M  V30 5534 O 906.055 3.84128 -9.44797 0
M  V30 5535 O 906.625 1.51947 -8.68712 0
M  V30 5536 O 906.085 3.29363 -6.99321 0
M  V30 5537 C 905.145 4.24011 -6.4274 0
M  V30 5538 C 905.875 5.20775 -5.52155 0
M  V30 5539 O 906.085 4.56534 -4.22446 0
M  V30 5540 C 907.275 5.62629 -5.96531 0
M  V30 5541 O 907.665 6.87667 -5.41053 0
M  V30 5542 C 908.155 4.52537 -5.39283 0
M  V30 5543 C 907.445 4.20027 -4.08623 0
M  V30 5544 N 907.495 2.76189 -3.71603 0
M  V30 5545 H 904.656 4.797 -7.24003 0
M  V30 5546 H 904.386 3.69856 -5.84513 0
M  V30 5547 H 905.253 6.10356 -5.41441 0
M  V30 5548 P 909.215 7.20834 -5.23717 0
M  V30 5549 O 909.435 8.66104 -5.38572 0
M  V30 5550 O 910.005 6.33544 -6.1349 0
M  V30 5551 O 909.465 6.7751 -3.72168 0
M  V30 5552 C 908.525 7.20825 -2.7076 0
M  V30 5553 C 909.255 7.45864 -1.40599 0
M  V30 5554 O 909.465 6.17651 -0.734225 0
M  V30 5555 C 910.655 8.05808 -1.51899 0
M  V30 5556 O 911.045 8.74358 -0.335205 0
M  V30 5557 C 911.535 6.83093 -1.70294 0
M  V30 5558 C 910.825 5.79992 -0.836974 0
M  V30 5559 N 910.875 4.41864 -1.38293 0
M  V30 5560 H 908.036 8.13644 -3.0377 0
M  V30 5561 H 907.766 6.42788 -2.55485 0
M  V30 5562 H 908.633 8.12039 -0.792769 0
M  V30 5563 P 912.595 8.91 6.71518e-12 0
M  V30 5564 O 912.815 10.1746 0.733838 0
M  V30 5565 O 913.385 8.73346 -1.23964 0
M  V30 5566 O 912.845 7.66872 0.971405 0
M  V30 5567 C 911.905 7.42405 2.04668 0
M  V30 5568 C 912.635 6.86059 3.24661 0
M  V30 5569 O 912.845 5.42934 3.03695 0
M  V30 5570 C 914.035 7.41287 3.50796 0
M  V30 5571 O 914.425 7.27073 4.86816 0
M  V30 5572 C 914.915 6.5273 2.63741 0
M  V30 5573 C 914.205 5.1842 2.73198 0
M  V30 5574 N 914.255 4.38762 1.4784 0
M  V30 5575 C 914.175 4.83651 0.183876 0
M  V30 5576 N 914.245 3.88759 -0.699393 0
M  V30 5577 C 914.395 2.7404 0.0575568 0
M  V30 5578 C 914.525 1.37902 -0.293928 0
M  V30 5579 N 914.535 0.938021 -1.54797 0
M  V30 5580 N 914.645 0.491817 0.70549 0
M  V30 5581 C 914.635 0.931735 1.95979 0
M  V30 5582 N 914.515 2.16017 2.41481 0
M  V30 5583 C 914.395 3.02547 1.39121 0
M  V30 5584 H 911.417 8.36899 2.3252 0
M  V30 5585 H 911.145 6.70391 1.71179 0
M  V30 5586 H 912.013 7.03638 4.13219 0
M  V30 5587 H 914.668 4.59931 3.54016 0
M  V30 5588 H 914.948 6.88995 1.59871 0
M  V30 5589 H 915.939 6.4684 3.0373 0
M  V30 5590 H 914.105 8.47002 3.20749 0
M  V30 5591 H 914.064 5.8885 -0.0765548 0
M  V30 5592 H 914.445 1.60276 -2.32875 0
M  V30 5593 H 914.634 -0.0699355 -1.73859 0
M  V30 5594 H 914.742 0.165507 2.71897 0
M  V30 5595 P 915.975 7.20834 5.23717 0
M  V30 5596 O 916.195 7.79853 6.57286 0
M  V30 5597 O 916.765 7.79239 4.12957 0
M  V30 5598 O 916.225 5.63315 5.29344 0
M  V30 5599 C 915.285 4.80255 6.01876 0
M  V30 5600 C 916.015 3.64202 6.65911 0
M  V30 5601 O 916.225 2.60694 5.64732 0
M  V30 5602 C 917.415 3.93473 7.1943 0
M  V30 5603 O 917.805 3.02071 8.21205 0
M  V30 5604 C 918.295 3.73047 5.97036 0
M  V30 5605 C 917.585 2.58828 5.25741 0
M  V30 5606 N 917.635 2.68068 3.77503 0
M  V30 5607 C 917.555 3.79715 2.96723 0
M  V30 5608 N 917.635 3.5377 1.68852 0
M  V30 5609 C 917.775 2.15054 1.63254 0
M  V30 5610 C 917.905 1.28964 0.518571 0
M  V30 5611 O 917.925 1.56826 -0.679156 0
M  V30 5612 N 918.025 -0.0538097 0.918425 0
M  V30 5613 C 918.025 -0.494275 2.22578 0
M  V30 5614 N 918.155 -1.81086 2.40434 0
M  V30 5615 N 917.895 0.313645 3.27502 0
M  V30 5616 C 917.775 1.61829 2.91033 0
M  V30 5617 H 914.796 5.40332 6.79951 0
M  V30 5618 H 914.526 4.41613 5.32378 0
M  V30 5619 H 915.393 3.26331 7.47797 0
M  V30 5620 H 918.048 1.63422 5.56814 0
M  V30 5621 H 918.327 4.63374 5.34244 0
M  V30 5622 H 919.319 3.44728 6.25838 0
M  V30 5623 H 917.485 4.96652 7.57263 0
M  V30 5624 H 917.436 4.80617 3.3614 0
M  V30 5625 H 918.118 -0.742702 0.199384 0
M  V30 5626 H 918.155 -2.20598 3.35588 0
M  V30 5627 H 918.256 -2.43518 1.58945 0
M  V30 5628 P 919.355 2.75334 8.47391 0
M  V30 5629 O 919.575 2.44571 9.90142 0
M  V30 5630 O 920.145 3.87688 7.92115 0
M  V30 5631 O 919.605 1.4459 7.59357 0
M  V30 5632 C 918.665 0.347608 7.69215 0
M  V30 5633 C 919.395 -0.96767 7.52806 0
M  V30 5634 O 919.605 -1.21036 6.1011 0
M  V30 5635 C 920.795 -1.04544 8.13308 0
M  V30 5636 O 921.185 -2.38311 8.41922 0
M  V30 5637 C 921.675 -0.491279 7.02284 0
M  V30 5638 C 920.965 -0.996264 5.77469 0
M  V30 5639 N 921.015 -0.0501916 4.62973 0
M  V30 5640 C 920.935 1.32786 4.63244 0
M  V30 5641 N 921.015 1.86957 3.44545 0
M  V30 5642 C 921.155 0.780241 2.58481 0
M  V30 5643 C 921.285 0.738536 1.17757 0
M  V30 5644 N 921.405 -0.58337 0.711393 0
M  V30 5645 C 921.405 -1.70816 1.51017 0
M  V30 5646 N 921.535 -2.87826 0.880757 0
M  V30 5647 N 921.275 -1.67126 2.8339 0
M  V30 5648 C 921.155 -0.401421 3.30572 0
M  V30 5649 H 918.176 0.374722 8.67691 0
M  V30 5650 H 917.906 0.443485 6.90277 0
M  V30 5651 H 918.773 -1.75537 7.96793 0
M  V30 5652 P 922.735 -2.75334 8.47391 0
M  V30 5653 O 922.955 -3.84128 9.44797 0
M  V30 5654 O 923.525 -1.51947 8.68712 0
M  V30 5655 O 922.985 -3.29363 6.99321 0
M  V30 5656 C 922.045 -4.24011 6.4274 0
M  V30 5657 C 922.775 -5.20775 5.52155 0
M  V30 5658 O 922.985 -4.56534 4.22446 0
M  V30 5659 C 924.175 -5.62629 5.96531 0
M  V30 5660 O 924.565 -6.87667 5.41053 0
M  V30 5661 C 925.055 -4.52537 5.39283 0
M  V30 5662 C 924.345 -4.20027 4.08623 0
M  V30 5663 N 924.395 -2.76189 3.71603 0
M  V30 5664 H 921.556 -4.797 7.24003 0
M  V30 5665 H 921.286 -3.69856 5.84513 0
M  V30 5666 H 922.153 -6.10356 5.41441 0
M  V30 5667 P 926.115 -7.20834 5.23717 0
M  V30 5668 O 926.335 -8.66104 5.38572 0
M  V30 5669 O 926.905 -6.33544 6.1349 0
M  V30 5670 O 926.365 -6.7751 3.72168 0
M  V30 5671 C 925.425 -7.20825 2.7076 0
M  V30 5672 C 926.155 -7.45864 1.40599 0
M  V30 5673 O 926.365 -6.17651 0.734225 0
M  V30 5674 C 927.555 -8.05808 1.51899 0
M  V30 5675 O 927.945 -8.74358 0.335205 0
M  V30 5676 C 928.435 -6.83093 1.70294 0
M  V30 5677 C 927.725 -5.79992 0.836974 0
M  V30 5678 N 927.775 -4.41864 1.38293 0
M  V30 5679 H 924.936 -8.13644 3.0377 0
M  V30 5680 H 924.666 -6.42788 2.55485 0
M  V30 5681 H 925.533 -8.12039 0.792769 0
M  V30 5682 P 929.495 -8.91 -6.87236e-12 0
M  V30 5683 O 929.715 -10.1746 -0.733838 0
M  V30 5684 O 930.285 -8.73346 1.23964 0
M  V30 5685 O 929.745 -7.66872 -0.971405 0
M  V30 5686 C 928.805 -7.42405 -2.04668 0
M  V30 5687 C 929.535 -6.86059 -3.24661 0
M  V30 5688 O 929.745 -5.42934 -3.03695 0
M  V30 5689 C 930.935 -7.41287 -3.50796 0
M  V30 5690 O 931.325 -7.27073 -4.86816 0
M  V30 5691 C 931.815 -6.5273 -2.63741 0
M  V30 5692 C 931.105 -5.1842 -2.73198 0
M  V30 5693 N 931.155 -4.38762 -1.4784 0
M  V30 5694 H 928.317 -8.36899 -2.3252 0
M  V30 5695 H 928.045 -6.70391 -1.71179 0
M  V30 5696 H 928.913 -7.03638 -4.13219 0
M  V30 5697 H 931.568 -4.59931 -3.54016 0
M  V30 5698 H 931.848 -6.88995 -1.59871 0
M  V30 5699 H 932.839 -6.4684 -3.0373 0
M  V30 5700 H 931.005 -8.47002 -3.20749 0
M  V30 5701 P 932.874 -7.20834 -5.23717 0
M  V30 5702 O 933.094 -7.79853 -6.57286 0
M  V30 5703 O 933.664 -7.79239 -4.12957 0
M  V30 5704 O 933.124 -5.63315 -5.29344 0
M  V30 5705 C 932.184 -4.80255 -6.01876 0
M  V30 5706 C 932.914 -3.64202 -6.65911 0
M  V30 5707 O 933.124 -2.60694 -5.64732 0
M  V30 5708 C 934.314 -3.93473 -7.1943 0
M  V30 5709 O 934.704 -3.02071 -8.21205 0
M  V30 5710 C 935.194 -3.73047 -5.97036 0
M  V30 5711 C 934.484 -2.58828 -5.25741 0
M  V30 5712 N 934.534 -2.68068 -3.77503 0
M  V30 5713 H 931.695 -5.40332 -6.79951 0
M  V30 5714 H 931.425 -4.41613 -5.32378 0
M  V30 5715 H 932.292 -3.26331 -7.47797 0
M  V30 5716 H 934.573 -2.12276 -7.9008 0
M  V30 5717 H 938.595 5.66378 7.64073 0
M  V30 5718 O 938.475 5.84357 6.71818 0
M  V30 5719 P 937.034 6.144 6.45285 0
M  V30 5720 O 936.814 7.54673 6.86199 0
M  V30 5721 O 936.244 5.12391 7.179 0
M  V30 5722 O 936.784 5.99158 4.88404 0
M  V30 5723 C 937.724 6.60234 3.96415 0
M  V30 5724 C 936.994 7.08259 2.72856 0
M  V30 5725 O 936.784 5.9427 1.83651 0
M  V30 5726 C 935.594 7.64886 2.9555 0
M  V30 5727 O 935.204 8.53963 1.90717 0
M  V30 5728 C 934.714 6.4116 2.90739 0
M  V30 5729 C 935.424 5.55375 1.86963 0
M  V30 5730 N 935.374 4.09664 2.15742 0
M  V30 5731 H 938.213 7.45574 4.45629 0
M  V30 5732 H 938.485 5.86232 3.67314 0
M  V30 5733 H 937.617 7.84412 2.24479 0
M  V30 5734 P 933.655 8.7635 1.60911 0
M  V30 5735 O 933.435 10.1388 1.11561 0
M  V30 5736 O 932.865 8.36503 2.79617 0
M  V30 5737 O 933.405 7.71806 0.42951 0
M  V30 5738 C 934.345 7.67148 -0.673689 0
M  V30 5739 C 933.615 7.33374 -1.95559 0
M  V30 5740 O 933.405 5.88721 -2.00726 0
M  V30 5741 C 932.215 7.92526 -2.10483 0
M  V30 5742 O 931.825 8.02971 -3.47653 0
M  V30 5743 C 931.335 6.89602 -1.41652 0
M  V30 5744 C 932.045 5.59201 -1.75185 0
M  V30 5745 N 931.995 4.58235 -0.662552 0
M  V30 5746 H 934.834 8.65116 -0.777161 0
M  V30 5747 H 935.106 6.90173 -0.474152 0
M  V30 5748 H 934.238 7.66548 -2.79458 0
M  V30 5749 P 930.275 8.03563 -3.84925 0
M  V30 5750 O 930.055 8.85821 -5.0569 0
M  V30 5751 O 929.485 8.41101 -2.65469 0
M  V30 5752 O 930.025 6.4965 -4.18908 0
M  V30 5753 C 930.965 5.81037 -5.05421 0
M  V30 5754 C 930.235 4.78366 -5.89277 0
M  V30 5755 O 930.025 3.58302 -5.08433 0
M  V30 5756 C 928.835 5.17448 -6.36119 0
M  V30 5757 O 928.445 4.45271 -7.53232 0
M  V30 5758 C 927.955 4.74639 -5.19936 0
M  V30 5759 C 928.665 3.49432 -4.70418 0
M  V30 5760 N 928.615 3.32099 -3.22613 0
M  V30 5761 H 931.454 6.54213 -5.71376 0
M  V30 5762 H 931.726 5.30936 -4.43503 0
M  V30 5763 H 930.858 4.55889 -6.76652 0
M  V30 5764 H 928.203 2.61715 -5.17932 0
M  V30 5765 H 927.923 5.52155 -4.41878 0
M  V30 5766 H 926.932 4.51981 -5.53374 0
M  V30 5767 H 928.766 6.25124 -6.55234 0
M  V30 5768 P 926.895 4.23843 -7.83734 0
M  V30 5769 O 926.675 4.19407 -9.29784 0
M  V30 5770 O 926.105 5.24426 -7.09156 0
M  V30 5771 O 926.645 2.7935 -7.20758 0
M  V30 5772 C 927.585 1.7299 -7.50419 0
M  V30 5773 C 926.855 0.406376 -7.57911 0
M  V30 5774 O 926.645 -0.0897726 -6.21935 0
M  V30 5775 C 925.455 0.447224 -8.1878 0
M  V30 5776 O 925.065 -0.825065 -8.71101 0
M  V30 5777 C 924.575 0.783801 -6.99623 0
M  V30 5778 C 925.285 0.0619192 -5.85967 0
M  V30 5779 N 925.235 0.7859 -4.56281 0
M  V30 5780 H 928.074 1.93423 -8.4679 0
M  V30 5781 H 928.346 1.68181 -6.71046 0
M  V30 5782 H 927.478 -0.289041 -8.15388 0
M  V30 5783 P 923.515 -1.17771 -8.83182 0
M  V30 5784 O 923.295 -2.07206 -9.98732 0
M  V30 5785 O 922.725 0.0743816 -8.81969 0
M  V30 5786 O 923.265 -1.97652 -7.47304 0
M  V30 5787 C 924.205 -3.01055 -7.08599 0
M  V30 5788 C 923.475 -4.12613 -6.37049 0
M  V30 5789 O 923.265 -3.72827 -4.97879 0
M  V30 5790 C 922.075 -4.45719 -6.88164 0
M  V30 5791 O 921.685 -5.7877 -6.5624 0
M  V30 5792 C 921.195 -3.47768 -6.11991 0
M  V30 5793 C 921.905 -3.39356 -4.77615 0
M  V30 5794 N 921.855 -2.04571 -4.15244 0
M  V30 5795 C 921.705 -1.98587 -2.78314 0
M  V30 5796 O 921.615 -2.98134 -2.08835 0
M  V30 5797 N 921.665 -0.714467 -2.24925 0
M  V30 5798 C 921.755 0.470001 -2.94169 0
M  V30 5799 C 921.905 0.312541 -4.36783 0
M  V30 5800 C 921.955 -0.914512 -4.92583 0
M  V30 5801 H 924.696 -3.41169 -7.98575 0
M  V30 5802 H 924.965 -2.58295 -6.41556 0
M  V30 5803 H 924.098 -5.02657 -6.42673 0
M  V30 5804 H 921.443 -4.11637 -4.08885 0
M  V30 5805 H 921.164 -2.49626 -6.61679 0
M  V30 5806 H 920.172 -3.86566 -6.00778 0
M  V30 5807 H 922.006 -4.29943 -7.96918 0
M  V30 5808 H 922.077 -1.00937 -6.00374 0
M  V30 5809 P 920.135 -6.144 -6.45285 0
M  V30 5810 O 919.915 -7.54673 -6.86199 0
M  V30 5811 O 919.345 -5.12391 -7.179 0
M  V30 5812 O 919.885 -5.99236 -4.88467 0
M  V30 5813 C 920.825 -6.60234 -3.96415 0
M  V30 5814 C 920.095 -7.08079 -2.736 0
M  V30 5815 O 919.885 -5.94365 -1.8368 0
M  V30 5816 C 918.695 -7.64886 -2.9555 0
M  V30 5817 O 918.305 -8.5406 -1.90739 0
M  V30 5818 C 917.815 -6.4116 -2.90739 0
M  V30 5819 C 918.525 -5.55375 -1.86963 0
M  V30 5820 N 918.475 -4.09664 -2.15742 0
M  V30 5821 C 918.325 -3.22231 -1.08477 0
M  V30 5822 O 918.235 -3.68951 0.0600489 0
M  V30 5823 N 918.275 -1.76692 -1.48799 0
M  V30 5824 C 918.375 -1.41695 -2.57602 0
M  V30 5825 N 918.325 -0.107296 -2.75791 0
M  V30 5826 C 918.525 -2.29178 -3.69733 0
M  V30 5827 C 918.575 -3.62753 -3.42653 0
M  V30 5828 H 921.315 -7.45488 -4.45578 0
M  V30 5829 H 921.585 -5.86232 -3.67314 0
M  V30 5830 H 920.718 -7.84508 -2.24507 0
M  V30 5831 H 918.063 -5.73556 -0.888715 0
M  V30 5832 H 917.783 -5.9096 -3.88638 0
M  V30 5833 H 916.792 -6.66053 -2.58894 0
M  V30 5834 H 918.626 -8.16339 -3.92049 0
M  V30 5835 H 918.698 -4.33052 -4.24913 0
M  V30 5836 H 918.596 -1.9103 -4.71577 0
M  V30 5837 H 918.208 0.521221 -1.95056 0
M  V30 5838 H 918.404 0.286429 -3.70695 0
M  V30 5839 P 916.755 -8.7635 -1.60911 0
M  V30 5840 O 916.535 -10.1388 -1.11561 0
M  V30 5841 O 915.965 -8.36503 -2.79617 0
M  V30 5842 O 916.505 -7.71806 -0.42951 0
M  V30 5843 C 917.445 -7.66948 0.673514 0
M  V30 5844 C 916.715 -7.33374 1.95559 0
M  V30 5845 O 916.505 -5.88721 2.00726 0
M  V30 5846 C 915.315 -7.92218 2.1125 0
M  V30 5847 O 914.925 -8.02971 3.47653 0
M  V30 5848 C 914.435 -6.89504 1.41631 0
M  V30 5849 C 915.145 -5.59106 1.75155 0
M  V30 5850 N 915.095 -4.58136 0.662409 0
M  V30 5851 C 914.945 -3.26059 1.02863 0
M  V30 5852 O 914.855 -2.90743 2.19009 0
M  V30 5853 N 914.905 -2.35995 -0.0155585 0
M  V30 5854 C 914.995 -2.65248 -1.35603 0
M  V30 5855 O 914.945 -1.75605 -2.20651 0
M  V30 5856 C 915.145 -4.05747 -1.64698 0
M  V30 5857 C 915.255 -4.42345 -3.09553 0
M  V30 5858 C 915.195 -4.96734 -0.652411 0
M  V30 5859 H 917.936 -8.64917 0.776982 0
M  V30 5860 H 918.205 -6.89974 0.474015 0
M  V30 5861 H 917.338 -7.66548 2.79458 0
M  V30 5862 H 914.683 -5.16076 2.65138 0
M  V30 5863 H 914.404 -7.06433 0.329384 0
M  V30 5864 H 913.412 -6.90829 1.81996 0
M  V30 5865 H 915.246 -8.90774 1.62639 0
M  V30 5866 H 915.317 -6.02181 -0.895285 0
M  V30 5867 H 914.287 -4.80252 -3.45468 0
M  V30 5868 H 916.024 -5.20015 -3.22119 0
M  V30 5869 H 915.536 -3.53269 -3.67833 0
M  V30 5870 H 914.8 -1.39558 0.227499 0
M  V30 5871 P 913.375 -8.03563 3.84925 0
M  V30 5872 O 913.155 -8.85821 5.0569 0
M  V30 5873 O 912.585 -8.41101 2.65469 0
M  V30 5874 O 913.125 -6.4965 4.18908 0
M  V30 5875 C 914.065 -5.81037 5.05421 0
M  V30 5876 C 913.335 -4.78366 5.89277 0
M  V30 5877 O 913.125 -3.58302 5.08433 0
M  V30 5878 C 911.935 -5.17448 6.36119 0
M  V30 5879 O 911.545 -4.45271 7.53232 0
M  V30 5880 C 911.055 -4.74639 5.19936 0
M  V30 5881 C 911.765 -3.49432 4.70418 0
M  V30 5882 N 911.715 -3.31776 3.22945 0
M  V30 5883 H 914.554 -6.54213 5.71376 0
M  V30 5884 H 914.826 -5.30492 4.44033 0
M  V30 5885 H 913.958 -4.55889 6.76652 0
M  V30 5886 P 909.995 -4.23843 7.83734 0
M  V30 5887 O 909.775 -4.19407 9.29784 0
M  V30 5888 O 909.205 -5.24426 7.09156 0
M  V30 5889 O 909.745 -2.7935 7.20758 0
M  V30 5890 C 910.685 -1.7299 7.50419 0
M  V30 5891 C 909.955 -0.406376 7.57911 0
M  V30 5892 O 909.745 0.0897726 6.21935 0
M  V30 5893 C 908.555 -0.447224 8.1878 0
M  V30 5894 O 908.165 0.825065 8.71101 0
M  V30 5895 C 907.675 -0.783801 6.99623 0
M  V30 5896 C 908.385 -0.0619192 5.85967 0
M  V30 5897 N 908.335 -0.7859 4.56281 0
M  V30 5898 H 911.174 -1.93423 8.4679 0
M  V30 5899 H 911.446 -1.68181 6.71046 0
M  V30 5900 H 910.578 0.289041 8.15388 0
M  V30 5901 P 906.615 1.17771 8.83182 0
M  V30 5902 O 906.395 2.07206 9.98732 0
M  V30 5903 O 905.825 -0.0743816 8.81969 0
M  V30 5904 O 906.365 1.97652 7.47304 0
M  V30 5905 C 907.305 3.01133 7.08783 0
M  V30 5906 C 906.575 4.12613 6.37049 0
M  V30 5907 O 906.365 3.72827 4.97879 0
M  V30 5908 C 905.175 4.45085 6.88694 0
M  V30 5909 O 904.785 5.7877 6.5624 0
M  V30 5910 C 904.295 3.47817 6.12078 0
M  V30 5911 C 905.005 3.39414 4.77697 0
M  V30 5912 N 904.955 2.04615 4.15333 0
M  V30 5913 H 907.794 3.41248 7.98759 0
M  V30 5914 H 908.066 2.5837 6.41742 0
M  V30 5915 H 907.198 5.02657 6.42673 0
M  V30 5916 P 903.235 6.144 6.45285 0
M  V30 5917 O 903.015 7.54673 6.86199 0
M  V30 5918 O 902.445 5.12391 7.179 0
M  V30 5919 O 902.985 5.99158 4.88404 0
M  V30 5920 C 903.925 6.60234 3.96415 0
M  V30 5921 C 903.195 7.08259 2.72856 0
M  V30 5922 O 902.985 5.9427 1.83651 0
M  V30 5923 C 901.795 7.64886 2.9555 0
M  V30 5924 O 901.405 8.53963 1.90717 0
M  V30 5925 C 900.915 6.4116 2.90739 0
M  V30 5926 C 901.625 5.55375 1.86963 0
M  V30 5927 N 901.575 4.09448 2.16152 0
M  V30 5928 H 904.414 7.45574 4.45629 0
M  V30 5929 H 904.686 5.85864 3.679 0
M  V30 5930 H 903.818 7.84412 2.24479 0
M  V30 5931 H 901.163 5.73457 0.888562 0
M  V30 5932 H 900.883 5.90877 3.88583 0
M  V30 5933 H 899.892 6.6596 2.58858 0
M  V30 5934 H 901.726 8.16339 3.92049 0
M  V30 5935 P 899.855 8.7635 1.60911 0
M  V30 5936 O 899.635 10.1388 1.11561 0
M  V30 5937 O 899.065 8.36503 2.79617 0
M  V30 5938 O 899.605 7.71806 0.42951 0
M  V30 5939 C 900.545 7.67148 -0.673689 0
M  V30 5940 C 899.815 7.33374 -1.95559 0
M  V30 5941 O 899.605 5.88721 -2.00726 0
M  V30 5942 C 898.415 7.92526 -2.10483 0
M  V30 5943 O 898.025 8.02971 -3.47653 0
M  V30 5944 C 897.535 6.89602 -1.41652 0
M  V30 5945 C 898.245 5.59201 -1.75185 0
M  V30 5946 N 898.195 4.58235 -0.662552 0
M  V30 5947 H 901.034 8.65116 -0.777161 0
M  V30 5948 H 901.306 6.90173 -0.474152 0
M  V30 5949 H 900.438 7.66548 -2.79458 0
M  V30 5950 P 896.475 8.03563 -3.84925 0
M  V30 5951 O 896.255 8.85821 -5.0569 0
M  V30 5952 O 895.685 8.41101 -2.65469 0
M  V30 5953 O 896.225 6.49734 -4.18962 0
M  V30 5954 C 897.165 5.81037 -5.05421 0
M  V30 5955 C 896.435 4.79018 -5.88876 0
M  V30 5956 O 896.225 3.58359 -5.08515 0
M  V30 5957 C 895.035 5.17448 -6.36119 0
M  V30 5958 O 894.645 4.45322 -7.53318 0
M  V30 5959 C 894.155 4.74639 -5.19936 0
M  V30 5960 C 894.865 3.49432 -4.70418 0
M  V30 5961 N 894.815 3.31776 -3.22945 0
M  V30 5962 C 894.665 2.02742 -2.72939 0
M  V30 5963 O 894.575 1.08301 -3.52749 0
M  V30 5964 N 894.615 1.96117 -1.22063 0
M  V30 5965 C 894.715 2.8878 -0.551566 0
M  V30 5966 N 894.665 2.65609 0.750198 0
M  V30 5967 C 894.865 4.22457 -1.03707 0
M  V30 5968 C 894.915 4.37979 -2.39113 0
M  V30 5969 H 897.655 6.54138 -5.7131 0
M  V30 5970 H 897.925 5.30492 -4.44033 0
M  V30 5971 H 897.058 4.55945 -6.76735 0
M  V30 5972 H 894.403 2.6176 -5.18021 0
M  V30 5973 H 894.123 5.52233 -4.41941 0
M  V30 5974 H 893.132 4.52045 -5.53452 0
M  V30 5975 H 894.966 6.25124 -6.55234 0
M  V30 5976 H 895.038 5.37936 -2.80552 0
M  V30 5977 H 894.936 5.07528 -0.359553 0
M  V30 5978 H 894.548 1.69403 1.09847 0
M  V30 5979 H 894.744 3.43701 1.41792 0
M  V30 5980 P 893.095 4.23843 -7.83734 0
M  V30 5981 O 892.875 4.19407 -9.29784 0
M  V30 5982 O 892.305 5.24426 -7.09156 0
M  V30 5983 O 892.845 2.7935 -7.20758 0
M  V30 5984 C 893.785 1.7299 -7.50419 0
M  V30 5985 C 893.055 0.406376 -7.57911 0
M  V30 5986 O 892.845 -0.0897726 -6.21935 0
M  V30 5987 C 891.655 0.447224 -8.1878 0
M  V30 5988 O 891.265 -0.825065 -8.71101 0
M  V30 5989 C 890.775 0.783801 -6.99623 0
M  V30 5990 C 891.485 0.0619192 -5.85967 0
M  V30 5991 N 891.435 0.790462 -4.56202 0
M  V30 5992 C 891.515 2.13895 -4.34171 0
M  V30 5993 N 891.445 2.46449 -3.08687 0
M  V30 5994 C 891.295 1.2525 -2.43697 0
M  V30 5995 C 891.165 0.914535 -1.07318 0
M  V30 5996 N 891.155 1.80782 -0.0887348 0
M  V30 5997 N 891.045 -0.386745 -0.768133 0
M  V30 5998 C 891.055 -1.28096 -1.75159 0
M  V30 5999 N 891.175 -1.09708 -3.04861 0
M  V30 6000 C 891.295 0.214857 -3.32306 0
M  V30 6001 H 894.274 1.93423 -8.4679 0
M  V30 6002 H 894.546 1.68852 -6.70877 0
M  V30 6003 H 893.678 -0.289041 -8.15388 0
M  V30 6004 H 891.023 -0.927006 -5.72848 0
M  V30 6005 H 890.743 1.86973 -6.82036 0
M  V30 6006 H 889.752 0.403953 -7.13357 0
M  V30 6007 H 891.586 1.20599 -8.97534 0
M  V30 6008 H 891.627 2.86846 -5.14318 0
M  V30 6009 H 891.246 2.81082 -0.302037 0
M  V30 6010 H 891.057 1.49688 0.889064 0
M  V30 6011 H 890.949 -2.31317 -1.43855 0
M  V30 6012 P 889.715 -1.17771 -8.83182 0
M  V30 6013 O 889.495 -2.07206 -9.98732 0
M  V30 6014 O 888.925 0.0743816 -8.81969 0
M  V30 6015 O 889.465 -1.97652 -7.47304 0
M  V30 6016 C 890.405 -3.01133 -7.08783 0
M  V30 6017 C 889.675 -4.12613 -6.37049 0
M  V30 6018 O 889.465 -3.72827 -4.97879 0
M  V30 6019 C 888.275 -4.45085 -6.88694 0
M  V30 6020 O 887.885 -5.7877 -6.5624 0
M  V30 6021 C 887.395 -3.47817 -6.12078 0
M  V30 6022 C 888.105 -3.39414 -4.77697 0
M  V30 6023 N 888.055 -2.04199 -4.15538 0
M  V30 6024 H 890.894 -3.41248 -7.98759 0
M  V30 6025 H 891.166 -2.57728 -6.42 0
M  V30 6026 H 890.298 -5.02657 -6.42673 0
M  V30 6027 H 887.643 -4.11708 -4.08956 0
M  V30 6028 H 887.363 -2.49626 -6.61679 0
M  V30 6029 H 886.372 -3.8662 -6.00862 0
M  V30 6030 H 888.206 -4.29991 -7.97006 0
M  V30 6031 P 886.335 -6.144 -6.45285 0
M  V30 6032 O 886.115 -7.54673 -6.86199 0
M  V30 6033 O 885.545 -5.12391 -7.179 0
M  V30 6034 O 886.085 -5.99158 -4.88404 0
M  V30 6035 C 887.025 -6.60234 -3.96415 0
M  V30 6036 C 886.295 -7.08259 -2.72856 0
M  V30 6037 O 886.085 -5.9427 -1.83651 0
M  V30 6038 C 884.895 -7.64886 -2.9555 0
M  V30 6039 O 884.505 -8.53963 -1.90717 0
M  V30 6040 C 884.015 -6.4116 -2.90739 0
M  V30 6041 C 884.725 -5.55375 -1.86963 0
M  V30 6042 N 884.675 -4.09448 -2.16152 0
M  V30 6043 C 884.755 -3.46824 -3.37593 0
M  V30 6044 N 884.685 -2.17422 -3.29777 0
M  V30 6045 C 884.535 -1.93065 -1.94427 0
M  V30 6046 C 884.405 -0.738053 -1.20141 0
M  V30 6047 N 884.395 0.474256 -1.74676 0
M  V30 6048 N 884.285 -0.850049 0.13045 0
M  V30 6049 C 884.295 -2.06169 0.676992 0
M  V30 6050 N 884.415 -3.23842 0.101312 0
M  V30 6051 C 884.535 -3.09402 -1.23122 0
M  V30 6052 H 887.514 -7.45574 -4.45629 0
M  V30 6053 H 887.786 -5.85864 -3.679 0
M  V30 6054 H 886.918 -7.84412 -2.24479 0
M  V30 6055 H 884.263 -5.73457 -0.888562 0
M  V30 6056 H 883.983 -5.90877 -3.88583 0
M  V30 6057 H 882.992 -6.6596 -2.58858 0
M  V30 6058 H 884.826 -8.16339 -3.92049 0
M  V30 6059 H 884.867 -4.00505 -4.3174 0
M  V30 6060 H 884.486 0.581337 -2.76658 0
M  V30 6061 H 884.297 1.30811 -1.14888 0
M  V30 6062 H 884.189 -2.08295 1.75542 0
M  V30 6063 P 882.955 -8.7635 -1.60911 0
M  V30 6064 O 882.735 -10.1388 -1.11561 0
M  V30 6065 O 882.165 -8.36503 -2.79617 0
M  V30 6066 O 882.705 -7.71806 -0.42951 0
M  V30 6067 C 883.645 -7.67148 0.673689 0
M  V30 6068 C 882.915 -7.33374 1.95559 0
M  V30 6069 O 882.705 -5.88721 2.00726 0
M  V30 6070 C 881.515 -7.92526 2.10483 0
M  V30 6071 O 881.125 -8.02971 3.47653 0
M  V30 6072 C 880.635 -6.89602 1.41652 0
M  V30 6073 C 881.345 -5.59201 1.75185 0
M  V30 6074 N 881.295 -4.58301 0.657969 0
M  V30 6075 C 881.375 -4.79019 -0.692603 0
M  V30 6076 N 881.305 -3.69736 -1.38998 0
M  V30 6077 C 881.155 -2.70474 -0.438135 0
M  V30 6078 C 881.025 -1.30327 -0.538142 0
M  V30 6079 N 881.015 -0.64304 -1.69192 0
M  V30 6080 N 880.905 -0.611027 0.605183 0
M  V30 6081 C 880.915 -1.27002 1.75953 0
M  V30 6082 N 881.035 -2.56038 1.98546 0
M  V30 6083 C 881.155 -3.22681 0.822541 0
M  V30 6084 H 884.134 -8.65116 0.777161 0
M  V30 6085 H 884.406 -6.9022 0.46725 0
M  V30 6086 H 883.538 -7.66548 2.79458 0
M  V30 6087 H 880.883 -5.16165 2.65183 0
M  V30 6088 H 880.603 -7.06433 0.329384 0
M  V30 6089 H 879.612 -6.90926 1.82021 0
M  V30 6090 H 881.446 -8.90873 1.62657 0
M  V30 6091 H 881.487 -5.77785 -1.13874 0
M  V30 6092 H 881.106 -1.15585 -2.57991 0
M  V30 6093 H 880.917 0.382989 -1.69835 0
M  V30 6094 H 880.809 -0.653331 2.64449 0
M  V30 6095 P 879.575 -8.03563 3.84925 0
M  V30 6096 O 879.355 -8.85821 5.0569 0
M  V30 6097 O 878.785 -8.41101 2.65469 0
M  V30 6098 O 879.325 -6.4965 4.18908 0
M  V30 6099 C 880.265 -5.81037 5.05421 0
M  V30 6100 C 879.535 -4.78366 5.89277 0
M  V30 6101 O 879.325 -3.58302 5.08433 0
M  V30 6102 C 878.135 -5.17448 6.36119 0
M  V30 6103 O 877.745 -4.45271 7.53232 0
M  V30 6104 C 877.255 -4.74639 5.19936 0
M  V30 6105 C 877.965 -3.49432 4.70418 0
M  V30 6106 N 877.915 -3.32099 3.22613 0
M  V30 6107 H 880.754 -6.54213 5.71376 0
M  V30 6108 H 881.026 -5.30936 4.43503 0
M  V30 6109 H 880.158 -4.55889 6.76652 0
M  V30 6110 H 877.503 -2.61715 5.17932 0
M  V30 6111 H 877.223 -5.52155 4.41878 0
M  V30 6112 H 876.232 -4.51981 5.53374 0
M  V30 6113 H 878.066 -6.25124 6.55234 0
M  V30 6114 P 876.195 -4.23843 7.83734 0
M  V30 6115 O 875.975 -4.19407 9.29784 0
M  V30 6116 O 875.405 -5.24426 7.09156 0
M  V30 6117 O 875.945 -2.7935 7.20758 0
M  V30 6118 C 876.885 -1.7299 7.50419 0
M  V30 6119 C 876.155 -0.406376 7.57911 0
M  V30 6120 O 875.945 0.0897726 6.21935 0
M  V30 6121 C 874.755 -0.447224 8.1878 0
M  V30 6122 O 874.365 0.825065 8.71101 0
M  V30 6123 C 873.875 -0.783801 6.99623 0
M  V30 6124 C 874.585 -0.0619192 5.85967 0
M  V30 6125 N 874.535 -0.790462 4.56202 0
M  V30 6126 C 874.615 -2.13895 4.34171 0
M  V30 6127 N 874.545 -2.46449 3.08687 0
M  V30 6128 C 874.395 -1.2525 2.43697 0
M  V30 6129 C 874.265 -0.914535 1.07318 0
M  V30 6130 N 874.255 -1.80782 0.0887348 0
M  V30 6131 N 874.145 0.386745 0.768133 0
M  V30 6132 C 874.155 1.28096 1.75159 0
M  V30 6133 N 874.275 1.09708 3.04861 0
M  V30 6134 C 874.395 -0.214857 3.32306 0
M  V30 6135 H 877.374 -1.93423 8.4679 0
M  V30 6136 H 877.646 -1.68852 6.70877 0
M  V30 6137 H 876.778 0.289041 8.15388 0
M  V30 6138 H 874.123 0.927006 5.72848 0
M  V30 6139 H 873.843 -1.86973 6.82036 0
M  V30 6140 H 872.852 -0.403953 7.13357 0
M  V30 6141 H 874.686 -1.20599 8.97534 0
M  V30 6142 H 874.727 -2.86846 5.14318 0
M  V30 6143 H 874.346 -2.81082 0.302037 0
M  V30 6144 H 874.157 -1.49688 -0.889064 0
M  V30 6145 H 874.049 2.31317 1.43855 0
M  V30 6146 P 872.815 1.17771 8.83182 0
M  V30 6147 O 872.595 2.07206 9.98732 0
M  V30 6148 O 872.025 -0.0743816 8.81969 0
M  V30 6149 O 872.565 1.97652 7.47304 0
M  V30 6150 C 873.505 3.01133 7.08783 0
M  V30 6151 C 872.775 4.12613 6.37049 0
M  V30 6152 O 872.565 3.72827 4.97879 0
M  V30 6153 C 871.375 4.45085 6.88694 0
M  V30 6154 O 870.985 5.7877 6.5624 0
M  V30 6155 C 870.495 3.47817 6.12078 0
M  V30 6156 C 871.205 3.39414 4.77697 0
M  V30 6157 N 871.155 2.04615 4.15333 0
M  V30 6158 H 873.994 3.41248 7.98759 0
M  V30 6159 H 874.266 2.5837 6.41742 0
M  V30 6160 H 873.398 5.02657 6.42673 0
M  V30 6161 P 869.435 6.144 6.45285 0
M  V30 6162 O 869.215 7.54673 6.86199 0
M  V30 6163 O 868.645 5.12391 7.179 0
M  V30 6164 O 869.185 5.99158 4.88404 0
M  V30 6165 C 870.125 6.60234 3.96415 0
M  V30 6166 C 869.395 7.08259 2.72856 0
M  V30 6167 O 869.185 5.9427 1.83651 0
M  V30 6168 C 867.995 7.64886 2.9555 0
M  V30 6169 O 867.605 8.53963 1.90717 0
M  V30 6170 C 867.115 6.4116 2.90739 0
M  V30 6171 C 867.825 5.55375 1.86963 0
M  V30 6172 N 867.775 4.09448 2.16152 0
M  V30 6173 H 870.614 7.45574 4.45629 0
M  V30 6174 H 870.886 5.85864 3.679 0
M  V30 6175 H 870.018 7.84412 2.24479 0
M  V30 6176 H 867.363 5.73457 0.888562 0
M  V30 6177 H 867.083 5.90877 3.88583 0
M  V30 6178 H 866.092 6.6596 2.58858 0
M  V30 6179 H 867.926 8.16339 3.92049 0
M  V30 6180 P 866.055 8.7635 1.60911 0
M  V30 6181 O 865.835 10.1388 1.11561 0
M  V30 6182 O 865.265 8.36503 2.79617 0
M  V30 6183 O 865.805 7.71906 0.429565 0
M  V30 6184 C 866.745 7.67148 -0.673689 0
M  V30 6185 C 866.015 7.33666 -1.94851 0
M  V30 6186 O 865.805 5.88816 -2.00759 0
M  V30 6187 C 864.615 7.92526 -2.10483 0
M  V30 6188 O 864.225 8.03063 -3.47693 0
M  V30 6189 C 863.735 6.89602 -1.41652 0
M  V30 6190 C 864.445 5.59201 -1.75185 0
M  V30 6191 N 864.395 4.58235 -0.662552 0
M  V30 6192 C 864.245 3.24451 -1.01643 0
M  V30 6193 O 864.155 2.94958 -2.21722 0
M  V30 6194 N 864.195 2.30408 0.165238 0
M  V30 6195 C 864.295 2.66048 1.25118 0
M  V30 6196 N 864.245 1.70787 2.16813 0
M  V30 6197 C 864.445 4.02732 1.64413 0
M  V30 6198 C 864.495 4.9488 0.63991 0
M  V30 6199 H 867.235 8.65017 -0.777072 0
M  V30 6200 H 867.505 6.90173 -0.474152 0
M  V30 6201 H 866.638 7.66642 -2.79492 0
M  V30 6202 H 863.983 5.16254 -2.65229 0
M  V30 6203 H 863.703 7.06532 -0.329431 0
M  V30 6204 H 862.712 6.91023 -1.82047 0
M  V30 6205 H 864.546 8.90873 -1.62657 0
M  V30 6206 H 864.618 6.00104 0.892197 0
M  V30 6207 H 864.516 4.31733 2.69229 0
M  V30 6208 H 864.128 0.724835 1.8844 0
M  V30 6209 H 864.324 1.94716 3.16734 0
M  V30 6210 P 862.675 8.03563 -3.84925 0
M  V30 6211 O 862.455 8.85821 -5.0569 0
M  V30 6212 O 861.885 8.41101 -2.65469 0
M  V30 6213 O 862.425 6.4965 -4.18908 0
M  V30 6214 C 863.365 5.81037 -5.05421 0
M  V30 6215 C 862.635 4.78366 -5.89277 0
M  V30 6216 O 862.425 3.58302 -5.08433 0
M  V30 6217 C 861.235 5.17448 -6.36119 0
M  V30 6218 O 860.845 4.45271 -7.53232 0
M  V30 6219 C 860.355 4.74639 -5.19936 0
M  V30 6220 C 861.065 3.49432 -4.70418 0
M  V30 6221 N 861.015 3.31776 -3.22945 0
M  V30 6222 H 863.854 6.54213 -5.71376 0
M  V30 6223 H 864.126 5.30492 -4.44033 0
M  V30 6224 H 863.258 4.55889 -6.76652 0
M  V30 6225 P 859.295 4.23843 -7.83734 0
M  V30 6226 O 859.075 4.19407 -9.29784 0
M  V30 6227 O 858.505 5.24426 -7.09156 0
M  V30 6228 O 859.045 2.7935 -7.20758 0
M  V30 6229 C 859.985 1.7299 -7.50419 0
M  V30 6230 C 859.255 0.406376 -7.57911 0
M  V30 6231 O 859.045 -0.0897726 -6.21935 0
M  V30 6232 C 857.855 0.447224 -8.1878 0
M  V30 6233 O 857.465 -0.825065 -8.71101 0
M  V30 6234 C 856.975 0.783801 -6.99623 0
M  V30 6235 C 857.685 0.0619192 -5.85967 0
M  V30 6236 N 857.635 0.790462 -4.56202 0
M  V30 6237 H 860.474 1.93423 -8.4679 0
M  V30 6238 H 860.746 1.68852 -6.70877 0
M  V30 6239 H 859.878 -0.289041 -8.15388 0
M  V30 6240 H 857.223 -0.927006 -5.72848 0
M  V30 6241 H 856.943 1.86973 -6.82036 0
M  V30 6242 H 855.952 0.403953 -7.13357 0
M  V30 6243 H 857.786 1.20599 -8.97534 0
M  V30 6244 P 855.915 -1.17771 -8.83182 0
M  V30 6245 O 855.695 -2.07206 -9.98732 0
M  V30 6246 O 855.125 0.0743816 -8.81969 0
M  V30 6247 O 855.665 -1.97652 -7.47304 0
M  V30 6248 C 856.605 -3.01133 -7.08783 0
M  V30 6249 C 855.875 -4.12613 -6.37049 0
M  V30 6250 O 855.665 -3.72827 -4.97879 0
M  V30 6251 C 854.475 -4.45085 -6.88694 0
M  V30 6252 O 854.085 -5.7877 -6.5624 0
M  V30 6253 C 853.595 -3.47817 -6.12078 0
M  V30 6254 C 854.305 -3.39414 -4.77697 0
M  V30 6255 N 854.255 -2.04199 -4.15538 0
M  V30 6256 H 857.094 -3.41248 -7.98759 0
M  V30 6257 H 857.366 -2.57728 -6.42 0
M  V30 6258 H 856.498 -5.02657 -6.42673 0
M  V30 6259 H 853.843 -4.11708 -4.08956 0
M  V30 6260 H 853.563 -2.49626 -6.61679 0
M  V30 6261 H 852.572 -3.8662 -6.00862 0
M  V30 6262 H 854.406 -4.29991 -7.97006 0
M  V30 6263 P 852.535 -6.144 -6.45285 0
M  V30 6264 O 852.315 -7.54673 -6.86199 0
M  V30 6265 O 851.745 -5.12391 -7.179 0
M  V30 6266 O 852.285 -5.99158 -4.88404 0
M  V30 6267 C 853.225 -6.60234 -3.96415 0
M  V30 6268 C 852.495 -7.08259 -2.72856 0
M  V30 6269 O 852.285 -5.9427 -1.83651 0
M  V30 6270 C 851.095 -7.64886 -2.9555 0
M  V30 6271 O 850.705 -8.53963 -1.90717 0
M  V30 6272 C 850.215 -6.4116 -2.90739 0
M  V30 6273 C 850.925 -5.55375 -1.86963 0
M  V30 6274 N 850.875 -4.09448 -2.16152 0
M  V30 6275 H 853.714 -7.45574 -4.45629 0
M  V30 6276 H 853.986 -5.85864 -3.679 0
M  V30 6277 H 853.118 -7.84412 -2.24479 0
M  V30 6278 H 850.463 -5.73457 -0.888562 0
M  V30 6279 H 850.183 -5.90877 -3.88583 0
M  V30 6280 H 849.192 -6.6596 -2.58858 0
M  V30 6281 H 851.026 -8.16339 -3.92049 0
M  V30 6282 P 849.155 -8.7635 -1.60911 0
M  V30 6283 O 848.935 -10.1388 -1.11561 0
M  V30 6284 O 848.365 -8.36503 -2.79617 0
M  V30 6285 O 848.905 -7.71806 -0.42951 0
M  V30 6286 C 849.845 -7.67148 0.673689 0
M  V30 6287 C 849.115 -7.33374 1.95559 0
M  V30 6288 O 848.905 -5.88721 2.00726 0
M  V30 6289 C 847.715 -7.92526 2.10483 0
M  V30 6290 O 847.325 -8.02971 3.47653 0
M  V30 6291 C 846.835 -6.89602 1.41652 0
M  V30 6292 C 847.545 -5.59201 1.75185 0
M  V30 6293 N 847.495 -4.58301 0.657969 0
M  V30 6294 H 850.334 -8.65116 0.777161 0
M  V30 6295 H 850.606 -6.9022 0.46725 0
M  V30 6296 H 849.738 -7.66548 2.79458 0
M  V30 6297 H 847.083 -5.16165 2.65183 0
M  V30 6298 H 846.803 -7.06433 0.329384 0
M  V30 6299 H 845.812 -6.90926 1.82021 0
M  V30 6300 H 847.646 -8.90873 1.62657 0
M  V30 6301 P 845.775 -8.03563 3.84925 0
M  V30 6302 O 845.555 -8.85821 5.0569 0
M  V30 6303 O 844.985 -8.41101 2.65469 0
M  V30 6304 O 845.525 -6.4965 4.18908 0
M  V30 6305 C 846.465 -5.81037 5.05421 0
M  V30 6306 C 845.735 -4.78366 5.89277 0
M  V30 6307 O 845.525 -3.58302 5.08433 0
M  V30 6308 C 844.335 -5.17448 6.36119 0
M  V30 6309 O 843.945 -4.45271 7.53232 0
M  V30 6310 C 843.455 -4.74639 5.19936 0
M  V30 6311 C 844.165 -3.49432 4.70418 0
M  V30 6312 N 844.115 -3.31776 3.22945 0
M  V30 6313 H 846.954 -6.54213 5.71376 0
M  V30 6314 H 847.226 -5.30492 4.44033 0
M  V30 6315 H 846.358 -4.55889 6.76652 0
M  V30 6316 P 842.395 -4.23843 7.83734 0
M  V30 6317 O 842.175 -4.19407 9.29784 0
M  V30 6318 O 841.605 -5.24426 7.09156 0
M  V30 6319 O 842.145 -2.7935 7.20758 0
M  V30 6320 C 843.085 -1.7299 7.50419 0
M  V30 6321 C 842.355 -0.406376 7.57911 0
M  V30 6322 O 842.145 0.0897726 6.21935 0
M  V30 6323 C 840.955 -0.447224 8.1878 0
M  V30 6324 O 840.565 0.825065 8.71101 0
M  V30 6325 C 840.075 -0.783801 6.99623 0
M  V30 6326 C 840.785 -0.0619192 5.85967 0
M  V30 6327 N 840.735 -0.7859 4.56281 0
M  V30 6328 H 843.574 -1.93423 8.4679 0
M  V30 6329 H 843.846 -1.68181 6.71046 0
M  V30 6330 H 842.978 0.289041 8.15388 0
M  V30 6331 P 839.015 1.17771 8.83182 0
M  V30 6332 O 838.795 2.07206 9.98732 0
M  V30 6333 O 838.225 -0.0743816 8.81969 0
M  V30 6334 O 838.765 1.97652 7.47304 0
M  V30 6335 C 839.705 3.01133 7.08783 0
M  V30 6336 C 838.975 4.12613 6.37049 0
M  V30 6337 O 838.765 3.72827 4.97879 0
M  V30 6338 C 837.575 4.45085 6.88694 0
M  V30 6339 O 837.185 5.7877 6.5624 0
M  V30 6340 C 836.695 3.47817 6.12078 0
M  V30 6341 C 837.405 3.39414 4.77697 0
M  V30 6342 N 837.355 2.04199 4.15538 0
M  V30 6343 H 840.194 3.41248 7.98759 0
M  V30 6344 H 840.466 2.57728 6.42 0
M  V30 6345 H 839.598 5.02657 6.42673 0
M  V30 6346 H 836.943 4.11708 4.08956 0
M  V30 6347 H 836.663 2.49626 6.61679 0
M  V30 6348 H 835.672 3.8662 6.00862 0
M  V30 6349 H 837.506 4.29991 7.97006 0
M  V30 6350 P 835.635 6.144 6.45285 0
M  V30 6351 O 835.415 7.54673 6.86199 0
M  V30 6352 O 834.845 5.12391 7.179 0
M  V30 6353 O 835.385 5.99158 4.88404 0
M  V30 6354 C 836.325 6.60234 3.96415 0
M  V30 6355 C 835.595 7.08259 2.72856 0
M  V30 6356 O 835.385 5.9427 1.83651 0
M  V30 6357 C 834.195 7.64886 2.9555 0
M  V30 6358 O 833.805 8.53963 1.90717 0
M  V30 6359 C 833.315 6.4116 2.90739 0
M  V30 6360 C 834.025 5.55375 1.86963 0
M  V30 6361 N 833.975 4.09664 2.15742 0
M  V30 6362 H 836.814 7.45574 4.45629 0
M  V30 6363 H 837.086 5.86232 3.67314 0
M  V30 6364 H 836.218 7.84412 2.24479 0
M  V30 6365 P 832.255 8.7635 1.60911 0
M  V30 6366 O 832.035 10.1388 1.11561 0
M  V30 6367 O 831.465 8.36503 2.79617 0
M  V30 6368 O 832.005 7.71806 0.42951 0
M  V30 6369 C 832.945 7.66948 -0.673514 0
M  V30 6370 C 832.215 7.33374 -1.95559 0
M  V30 6371 O 832.005 5.88721 -2.00726 0
M  V30 6372 C 830.815 7.92218 -2.1125 0
M  V30 6373 O 830.425 8.02971 -3.47653 0
M  V30 6374 C 829.935 6.89504 -1.41631 0
M  V30 6375 C 830.645 5.59106 -1.75155 0
M  V30 6376 N 830.595 4.58136 -0.662409 0
M  V30 6377 C 830.445 3.26059 -1.02863 0
M  V30 6378 O 830.355 2.90743 -2.19009 0
M  V30 6379 N 830.405 2.35995 0.0155585 0
M  V30 6380 C 830.495 2.65248 1.35603 0
M  V30 6381 O 830.445 1.75605 2.20651 0
M  V30 6382 C 830.645 4.05747 1.64698 0
M  V30 6383 C 830.755 4.42345 3.09553 0
M  V30 6384 C 830.695 4.96734 0.652411 0
M  V30 6385 H 833.436 8.64917 -0.776982 0
M  V30 6386 H 833.705 6.89974 -0.474015 0
M  V30 6387 H 832.838 7.66548 -2.79458 0
M  V30 6388 H 830.183 5.16076 -2.65138 0
M  V30 6389 H 829.904 7.06433 -0.329384 0
M  V30 6390 H 828.912 6.90829 -1.81996 0
M  V30 6391 H 830.746 8.90774 -1.62639 0
M  V30 6392 H 830.817 6.02181 0.895285 0
M  V30 6393 H 829.787 4.80252 3.45468 0
M  V30 6394 H 831.524 5.20015 3.22119 0
M  V30 6395 H 831.036 3.53269 3.67833 0
M  V30 6396 H 830.3 1.39558 -0.227499 0
M  V30 6397 P 828.875 8.03563 -3.84925 0
M  V30 6398 O 828.655 8.85821 -5.0569 0
M  V30 6399 O 828.085 8.41101 -2.65469 0
M  V30 6400 O 828.625 6.4965 -4.18908 0
M  V30 6401 C 829.565 5.81037 -5.05421 0
M  V30 6402 C 828.835 4.78366 -5.89277 0
M  V30 6403 O 828.625 3.58302 -5.08433 0
M  V30 6404 C 827.435 5.17448 -6.36119 0
M  V30 6405 O 827.045 4.45271 -7.53232 0
M  V30 6406 C 826.555 4.74639 -5.19936 0
M  V30 6407 C 827.265 3.49432 -4.70418 0
M  V30 6408 N 827.215 3.31776 -3.22945 0
M  V30 6409 H 830.054 6.54213 -5.71376 0
M  V30 6410 H 830.326 5.30492 -4.44033 0
M  V30 6411 H 829.458 4.55889 -6.76652 0
M  V30 6412 P 825.495 4.23843 -7.83734 0
M  V30 6413 O 825.275 4.19407 -9.29784 0
M  V30 6414 O 824.705 5.24426 -7.09156 0
M  V30 6415 O 825.245 2.7935 -7.20758 0
M  V30 6416 C 826.185 1.7299 -7.50419 0
M  V30 6417 C 825.455 0.406376 -7.57911 0
M  V30 6418 O 825.245 -0.0897726 -6.21935 0
M  V30 6419 C 824.055 0.447224 -8.1878 0
M  V30 6420 O 823.665 -0.825065 -8.71101 0
M  V30 6421 C 823.175 0.783801 -6.99623 0
M  V30 6422 C 823.885 0.0619192 -5.85967 0
M  V30 6423 N 823.835 0.7859 -4.56281 0
M  V30 6424 C 823.915 2.14308 -4.31736 0
M  V30 6425 N 823.835 2.46106 -3.05116 0
M  V30 6426 C 823.695 1.23422 -2.4014 0
M  V30 6427 C 823.565 0.938381 -1.02409 0
M  V30 6428 N 823.445 -0.444647 -0.805413 0
M  V30 6429 C 823.445 -1.40829 -1.79435 0
M  V30 6430 N 823.315 -2.67213 -1.38558 0
M  V30 6431 N 823.575 -1.12947 -3.09005 0
M  V30 6432 C 823.695 0.204887 -3.32369 0
M  V30 6433 H 826.674 1.93423 -8.4679 0
M  V30 6434 H 826.946 1.68181 -6.71046 0
M  V30 6435 H 826.078 -0.289041 -8.15388 0
M  V30 6436 P 822.115 -1.17771 -8.83182 0
M  V30 6437 O 821.895 -2.07206 -9.98732 0
M  V30 6438 O 821.325 0.0743816 -8.81969 0
M  V30 6439 O 821.865 -1.97652 -7.47304 0
M  V30 6440 C 822.805 -3.01133 -7.08783 0
M  V30 6441 C 822.075 -4.12613 -6.37049 0
M  V30 6442 O 821.865 -3.72827 -4.97879 0
M  V30 6443 C 820.675 -4.45085 -6.88694 0
M  V30 6444 O 820.285 -5.7877 -6.5624 0
M  V30 6445 C 819.795 -3.47817 -6.12078 0
M  V30 6446 C 820.505 -3.39414 -4.77697 0
M  V30 6447 N 820.455 -2.04199 -4.15538 0
M  V30 6448 H 823.294 -3.41248 -7.98759 0
M  V30 6449 H 823.566 -2.57728 -6.42 0
M  V30 6450 H 822.698 -5.02657 -6.42673 0
M  V30 6451 H 820.043 -4.11708 -4.08956 0
M  V30 6452 H 819.763 -2.49626 -6.61679 0
M  V30 6453 H 818.772 -3.8662 -6.00862 0
M  V30 6454 H 820.606 -4.29991 -7.97006 0
M  V30 6455 P 818.735 -6.144 -6.45285 0
M  V30 6456 O 818.515 -7.54673 -6.86199 0
M  V30 6457 O 817.945 -5.12391 -7.179 0
M  V30 6458 O 818.485 -5.99158 -4.88404 0
M  V30 6459 C 819.425 -6.60234 -3.96415 0
M  V30 6460 C 818.695 -7.08259 -2.72856 0
M  V30 6461 O 818.485 -5.9427 -1.83651 0
M  V30 6462 C 817.295 -7.64886 -2.9555 0
M  V30 6463 O 816.905 -8.53963 -1.90717 0
M  V30 6464 C 816.415 -6.4116 -2.90739 0
M  V30 6465 C 817.125 -5.55375 -1.86963 0
M  V30 6466 N 817.075 -4.09664 -2.15742 0
M  V30 6467 H 819.914 -7.45574 -4.45629 0
M  V30 6468 H 820.186 -5.86232 -3.67314 0
M  V30 6469 H 819.318 -7.84412 -2.24479 0
M  V30 6470 P 815.355 -8.7635 -1.60911 0
M  V30 6471 O 815.135 -10.1388 -1.11561 0
M  V30 6472 O 814.565 -8.36503 -2.79617 0
M  V30 6473 O 815.105 -7.71806 -0.42951 0
M  V30 6474 C 816.045 -7.67148 0.673689 0
M  V30 6475 C 815.315 -7.33374 1.95559 0
M  V30 6476 O 815.105 -5.88721 2.00726 0
M  V30 6477 C 813.915 -7.92526 2.10483 0
M  V30 6478 O 813.525 -8.02971 3.47653 0
M  V30 6479 C 813.035 -6.89602 1.41652 0
M  V30 6480 C 813.745 -5.59201 1.75185 0
M  V30 6481 N 813.695 -4.58235 0.662552 0
M  V30 6482 H 816.534 -8.65116 0.777161 0
M  V30 6483 H 816.806 -6.90173 0.474152 0
M  V30 6484 H 815.938 -7.66548 2.79458 0
M  V30 6485 P 811.975 -8.03563 3.84925 0
M  V30 6486 O 811.755 -8.85821 5.0569 0
M  V30 6487 O 811.185 -8.41101 2.65469 0
M  V30 6488 O 811.725 -6.4965 4.18908 0
M  V30 6489 C 812.665 -5.81037 5.05421 0
M  V30 6490 C 811.935 -4.78366 5.89277 0
M  V30 6491 O 811.725 -3.58302 5.08433 0
M  V30 6492 C 810.535 -5.17448 6.36119 0
M  V30 6493 O 810.145 -4.45271 7.53232 0
M  V30 6494 C 809.655 -4.74639 5.19936 0
M  V30 6495 C 810.365 -3.49432 4.70418 0
M  V30 6496 N 810.315 -3.31776 3.22945 0
M  V30 6497 H 813.154 -6.54213 5.71376 0
M  V30 6498 H 813.426 -5.30492 4.44033 0
M  V30 6499 H 812.558 -4.55889 6.76652 0
M  V30 6500 P 808.595 -4.23843 7.83734 0
M  V30 6501 O 808.375 -4.19407 9.29784 0
M  V30 6502 O 807.805 -5.24426 7.09156 0
M  V30 6503 O 808.345 -2.79386 7.20852 0
M  V30 6504 C 809.285 -1.7299 7.50419 0
M  V30 6505 C 808.555 -0.41401 7.5797 0
M  V30 6506 O 808.345 0.089787 6.22035 0
M  V30 6507 C 807.155 -0.447224 8.1878 0
M  V30 6508 O 806.765 0.825159 8.71201 0
M  V30 6509 C 806.275 -0.783801 6.99623 0
M  V30 6510 C 806.985 -0.0619192 5.85967 0
M  V30 6511 N 806.935 -0.7859 4.56281 0
M  V30 6512 C 806.785 -0.0359258 3.39981 0
M  V30 6513 O 806.695 1.19723 3.49038 0
M  V30 6514 N 806.735 -0.869151 2.14025 0
M  V30 6515 C 806.835 -2.01207 2.14363 0
M  V30 6516 N 806.785 -2.58978 0.954287 0
M  V30 6517 C 806.985 -2.80817 3.32215 0
M  V30 6518 C 807.035 -2.13785 4.50884 0
M  V30 6519 H 809.775 -1.93401 8.46693 0
M  V30 6520 H 810.045 -1.68181 6.71046 0
M  V30 6521 H 809.178 0.289076 8.15488 0
M  V30 6522 H 806.523 0.927166 5.72947 0
M  V30 6523 H 806.243 -1.87 6.82132 0
M  V30 6524 H 805.252 -0.404009 7.13457 0
M  V30 6525 H 807.086 -1.20599 8.97534 0
M  V30 6526 H 807.158 -2.70295 5.43162 0
M  V30 6527 H 807.056 -3.89465 3.27406 0
M  V30 6528 H 806.668 -2.01616 0.107046 0
M  V30 6529 H 806.864 -3.61403 0.873101 0
M  V30 6530 P 805.215 1.17771 8.83182 0
M  V30 6531 O 804.995 2.07206 9.98732 0
M  V30 6532 O 804.425 -0.0743816 8.81969 0
M  V30 6533 O 804.965 1.97678 7.474 0
M  V30 6534 C 805.905 3.01133 7.08783 0
M  V30 6535 C 805.175 4.1203 6.37546 0
M  V30 6536 O 804.965 3.72887 4.9796 0
M  V30 6537 C 803.775 4.45085 6.88694 0
M  V30 6538 O 803.385 5.78836 6.56315 0
M  V30 6539 C 802.895 3.47817 6.12078 0
M  V30 6540 C 803.605 3.39414 4.77697 0
M  V30 6541 N 803.555 2.04615 4.15333 0
M  V30 6542 C 803.405 1.96929 2.77162 0
M  V30 6543 O 803.315 3.02017 2.12006 0
M  V30 6544 N 803.355 0.55485 2.24237 0
M  V30 6545 C 803.455 -0.367808 2.9169 0
M  V30 6546 N 803.405 -1.53426 2.29427 0
M  V30 6547 C 803.605 -0.319148 4.33828 0
M  V30 6548 C 803.655 0.920672 4.90433 0
M  V30 6549 H 806.395 3.41209 7.98667 0
M  V30 6550 H 806.665 2.5837 6.41742 0
M  V30 6551 H 805.798 5.02718 6.42752 0
M  V30 6552 H 803.143 4.11779 4.09026 0
M  V30 6553 H 802.863 2.49661 6.61772 0
M  V30 6554 H 801.872 3.86674 6.00946 0
M  V30 6555 H 803.706 4.29991 7.97006 0
M  V30 6556 H 803.778 1.00589 5.98303 0
M  V30 6557 H 803.676 -1.22639 4.93799 0
M  V30 6558 H 803.288 -1.56819 1.27167 0
M  V30 6559 H 803.484 -2.41062 2.83063 0
M  V30 6560 P 801.835 6.144 6.45285 0
M  V30 6561 O 801.615 7.54673 6.86199 0
M  V30 6562 O 801.045 5.12391 7.179 0
M  V30 6563 O 801.585 5.99158 4.88404 0
M  V30 6564 C 802.525 6.60062 3.96313 0
M  V30 6565 C 801.795 7.08259 2.72856 0
M  V30 6566 O 801.585 5.9427 1.83651 0
M  V30 6567 C 800.395 7.65087 2.94749 0
M  V30 6568 O 800.005 8.53963 1.90717 0
M  V30 6569 C 799.515 6.41069 2.90698 0
M  V30 6570 C 800.225 5.5528 1.86931 0
M  V30 6571 N 800.175 4.09575 2.15696 0
M  V30 6572 C 800.025 3.24249 1.08435 0
M  V30 6573 O 799.935 3.63946 -0.0628747 0
M  V30 6574 N 799.985 1.90009 1.39973 0
M  V30 6575 C 800.075 1.34884 2.65614 0
M  V30 6576 O 800.025 0.123716 2.81728 0
M  V30 6577 C 800.225 2.3145 3.71736 0
M  V30 6578 C 800.335 1.75913 5.10438 0
M  V30 6579 C 800.275 3.63518 3.44754 0
M  V30 6580 H 803.016 7.45402 4.45526 0
M  V30 6581 H 803.285 5.86062 3.67208 0
M  V30 6582 H 802.418 7.84412 2.24479 0
M  V30 6583 H 799.763 5.73358 0.888409 0
M  V30 6584 H 799.484 5.90877 3.88583 0
M  V30 6585 H 798.492 6.65867 2.58821 0
M  V30 6586 H 800.326 8.16248 3.92006 0
M  V30 6587 H 800.397 4.34551 4.26383 0
M  V30 6588 H 799.367 1.85471 5.61775 0
M  V30 6589 H 801.104 2.31364 5.66257 0
M  V30 6590 H 800.616 0.695936 5.05229 0
M  V30 6591 H 799.88 1.26277 0.63625 0
M  V30 6592 P 798.455 8.7635 1.60911 0
M  V30 6593 O 798.235 10.1388 1.11561 0
M  V30 6594 O 797.665 8.36503 2.79617 0
M  V30 6595 O 798.205 7.71806 0.42951 0
M  V30 6596 C 799.145 7.67148 -0.673689 0
M  V30 6597 C 798.415 7.33374 -1.95559 0
M  V30 6598 O 798.205 5.88721 -2.00726 0
M  V30 6599 C 797.015 7.92526 -2.10483 0
M  V30 6600 O 796.625 8.02971 -3.47653 0
M  V30 6601 C 796.135 6.89602 -1.41652 0
M  V30 6602 C 796.845 5.59201 -1.75185 0
M  V30 6603 N 796.795 4.58301 -0.657969 0
M  V30 6604 C 796.875 4.79019 0.692603 0
M  V30 6605 N 796.805 3.69736 1.38998 0
M  V30 6606 C 796.655 2.70474 0.438135 0
M  V30 6607 C 796.525 1.30327 0.538142 0
M  V30 6608 N 796.515 0.64304 1.69192 0
M  V30 6609 N 796.405 0.611027 -0.605183 0
M  V30 6610 C 796.415 1.27002 -1.75953 0
M  V30 6611 N 796.535 2.56038 -1.98546 0
M  V30 6612 C 796.655 3.22681 -0.822541 0
M  V30 6613 H 799.634 8.65116 -0.777161 0
M  V30 6614 H 799.906 6.9022 -0.46725 0
M  V30 6615 H 799.038 7.66548 -2.79458 0
M  V30 6616 H 796.383 5.16165 -2.65183 0
M  V30 6617 H 796.103 7.06433 -0.329384 0
M  V30 6618 H 795.112 6.90926 -1.82021 0
M  V30 6619 H 796.946 8.90873 -1.62657 0
M  V30 6620 H 796.987 5.77785 1.13874 0
M  V30 6621 H 796.606 1.15585 2.57991 0
M  V30 6622 H 796.417 -0.382989 1.69835 0
M  V30 6623 H 796.309 0.653331 -2.64449 0
M  V30 6624 P 795.075 8.03563 -3.84925 0
M  V30 6625 O 794.855 8.85821 -5.0569 0
M  V30 6626 O 794.285 8.41101 -2.65469 0
M  V30 6627 O 794.825 6.4965 -4.18908 0
M  V30 6628 C 795.765 5.81037 -5.05421 0
M  V30 6629 C 795.035 4.78366 -5.89277 0
M  V30 6630 O 794.825 3.58302 -5.08433 0
M  V30 6631 C 793.635 5.17448 -6.36119 0
M  V30 6632 O 793.245 4.45271 -7.53232 0
M  V30 6633 C 792.755 4.74639 -5.19936 0
M  V30 6634 C 793.465 3.49432 -4.70418 0
M  V30 6635 N 793.415 3.31776 -3.22945 0
M  V30 6636 H 796.254 6.54213 -5.71376 0
M  V30 6637 H 796.526 5.30492 -4.44033 0
M  V30 6638 H 795.658 4.55889 -6.76652 0
M  V30 6639 P 791.695 4.23843 -7.83734 0
M  V30 6640 O 791.475 4.19407 -9.29784 0
M  V30 6641 O 790.905 5.24426 -7.09156 0
M  V30 6642 O 791.445 2.7935 -7.20758 0
M  V30 6643 C 792.385 1.7299 -7.50419 0
M  V30 6644 C 791.655 0.406376 -7.57911 0
M  V30 6645 O 791.445 -0.0897726 -6.21935 0
M  V30 6646 C 790.255 0.447224 -8.1878 0
M  V30 6647 O 789.865 -0.825065 -8.71101 0
M  V30 6648 C 789.375 0.783801 -6.99623 0
M  V30 6649 C 790.085 0.0619192 -5.85967 0
M  V30 6650 N 790.035 0.790462 -4.56202 0
M  V30 6651 H 792.874 1.93423 -8.4679 0
M  V30 6652 H 793.146 1.68852 -6.70877 0
M  V30 6653 H 792.278 -0.289041 -8.15388 0
M  V30 6654 H 789.623 -0.927006 -5.72848 0
M  V30 6655 H 789.343 1.86973 -6.82036 0
M  V30 6656 H 788.352 0.403953 -7.13357 0
M  V30 6657 H 790.186 1.20599 -8.97534 0
M  V30 6658 P 788.315 -1.17771 -8.83182 0
M  V30 6659 O 788.095 -2.07206 -9.98732 0
M  V30 6660 O 787.525 0.0743816 -8.81969 0
M  V30 6661 O 788.065 -1.97652 -7.47304 0
M  V30 6662 C 789.005 -3.01055 -7.08599 0
M  V30 6663 C 788.275 -4.12613 -6.37049 0
M  V30 6664 O 788.065 -3.72827 -4.97879 0
M  V30 6665 C 786.875 -4.45719 -6.88164 0
M  V30 6666 O 786.485 -5.7877 -6.5624 0
M  V30 6667 C 785.995 -3.47768 -6.11991 0
M  V30 6668 C 786.705 -3.39356 -4.77615 0
M  V30 6669 N 786.655 -2.04571 -4.15244 0
M  V30 6670 C 786.505 -1.98587 -2.78314 0
M  V30 6671 O 786.415 -2.98134 -2.08835 0
M  V30 6672 N 786.465 -0.714467 -2.24925 0
M  V30 6673 C 786.555 0.470001 -2.94169 0
M  V30 6674 O 786.505 1.55587 -2.35195 0
M  V30 6675 C 786.705 0.312541 -4.36783 0
M  V30 6676 C 786.815 1.57711 -5.16352 0
M  V30 6677 C 786.755 -0.914512 -4.92583 0
M  V30 6678 H 789.496 -3.41169 -7.98575 0
M  V30 6679 H 789.765 -2.58295 -6.41556 0
M  V30 6680 H 788.898 -5.02657 -6.42673 0
M  V30 6681 H 786.243 -4.11637 -4.08885 0
M  V30 6682 H 785.964 -2.49626 -6.61679 0
M  V30 6683 H 784.972 -3.86566 -6.00778 0
M  V30 6684 H 786.806 -4.29943 -7.96918 0
M  V30 6685 H 786.877 -1.00937 -6.00374 0
M  V30 6686 H 785.847 1.80153 -5.63503 0
M  V30 6687 H 787.584 1.4566 -5.94104 0
M  V30 6688 H 787.096 2.40664 -4.49645 0
M  V30 6689 H 786.36 -0.647622 -1.25697 0
M  V30 6690 P 784.935 -6.144 -6.45285 0
M  V30 6691 O 784.715 -7.54673 -6.86199 0
M  V30 6692 O 784.145 -5.12391 -7.179 0
M  V30 6693 O 784.685 -5.99158 -4.88404 0
M  V30 6694 C 785.625 -6.60234 -3.96415 0
M  V30 6695 C 784.895 -7.08259 -2.72856 0
M  V30 6696 O 784.685 -5.9427 -1.83651 0
M  V30 6697 C 783.495 -7.64886 -2.9555 0
M  V30 6698 O 783.105 -8.53963 -1.90717 0
M  V30 6699 C 782.615 -6.4116 -2.90739 0
M  V30 6700 C 783.325 -5.55375 -1.86963 0
M  V30 6701 N 783.275 -4.09448 -2.16152 0
M  V30 6702 H 786.114 -7.45574 -4.45629 0
M  V30 6703 H 786.386 -5.85864 -3.679 0
M  V30 6704 H 785.518 -7.84412 -2.24479 0
M  V30 6705 H 782.863 -5.73457 -0.888562 0
M  V30 6706 H 782.583 -5.90877 -3.88583 0
M  V30 6707 H 781.592 -6.6596 -2.58858 0
M  V30 6708 H 783.426 -8.16339 -3.92049 0
M  V30 6709 P 781.555 -8.7635 -1.60911 0
M  V30 6710 O 781.335 -10.1388 -1.11561 0
M  V30 6711 O 780.765 -8.36503 -2.79617 0
M  V30 6712 O 781.305 -7.71806 -0.42951 0
M  V30 6713 C 782.245 -7.67148 0.673689 0
M  V30 6714 C 781.515 -7.33374 1.95559 0
M  V30 6715 O 781.305 -5.88721 2.00726 0
M  V30 6716 C 780.115 -7.92526 2.10483 0
M  V30 6717 O 779.725 -8.02971 3.47653 0
M  V30 6718 C 779.235 -6.89602 1.41652 0
M  V30 6719 C 779.945 -5.59201 1.75185 0
M  V30 6720 N 779.895 -4.58301 0.657969 0
M  V30 6721 H 782.734 -8.65116 0.777161 0
M  V30 6722 H 783.006 -6.9022 0.46725 0
M  V30 6723 H 782.138 -7.66548 2.79458 0
M  V30 6724 H 779.483 -5.16165 2.65183 0
M  V30 6725 H 779.203 -7.06433 0.329384 0
M  V30 6726 H 778.212 -6.90926 1.82021 0
M  V30 6727 H 780.046 -8.90873 1.62657 0
M  V30 6728 P 778.175 -8.03563 3.84925 0
M  V30 6729 O 777.955 -8.85821 5.0569 0
M  V30 6730 O 777.385 -8.41101 2.65469 0
M  V30 6731 O 777.925 -6.4965 4.18908 0
M  V30 6732 C 778.865 -5.81037 5.05421 0
M  V30 6733 C 778.135 -4.78366 5.89277 0
M  V30 6734 O 777.925 -3.58302 5.08433 0
M  V30 6735 C 776.735 -5.17448 6.36119 0
M  V30 6736 O 776.345 -4.45271 7.53232 0
M  V30 6737 C 775.855 -4.74639 5.19936 0
M  V30 6738 C 776.565 -3.49432 4.70418 0
M  V30 6739 N 776.515 -3.31776 3.22945 0
M  V30 6740 H 779.354 -6.54213 5.71376 0
M  V30 6741 H 779.626 -5.30492 4.44033 0
M  V30 6742 H 778.758 -4.55889 6.76652 0
M  V30 6743 P 774.795 -4.23843 7.83734 0
M  V30 6744 O 774.575 -4.19407 9.29784 0
M  V30 6745 O 774.005 -5.24426 7.09156 0
M  V30 6746 O 774.545 -2.7935 7.20758 0
M  V30 6747 C 775.485 -1.7299 7.50419 0
M  V30 6748 C 774.755 -0.406376 7.57911 0
M  V30 6749 O 774.545 0.0897726 6.21935 0
M  V30 6750 C 773.355 -0.447224 8.1878 0
M  V30 6751 O 772.965 0.825065 8.71101 0
M  V30 6752 C 772.475 -0.783801 6.99623 0
M  V30 6753 C 773.185 -0.0619192 5.85967 0
M  V30 6754 N 773.135 -0.7859 4.56281 0
M  V30 6755 H 775.974 -1.93423 8.4679 0
M  V30 6756 H 776.246 -1.68181 6.71046 0
M  V30 6757 H 775.378 0.289041 8.15388 0
M  V30 6758 P 771.415 1.17771 8.83182 0
M  V30 6759 O 771.195 2.07206 9.98732 0
M  V30 6760 O 770.625 -0.0743816 8.81969 0
M  V30 6761 O 771.165 1.97652 7.47304 0
M  V30 6762 C 772.105 3.01133 7.08783 0
M  V30 6763 C 771.375 4.12613 6.37049 0
M  V30 6764 O 771.165 3.72827 4.97879 0
M  V30 6765 C 769.975 4.45085 6.88694 0
M  V30 6766 O 769.585 5.7877 6.5624 0
M  V30 6767 C 769.095 3.47817 6.12078 0
M  V30 6768 C 769.805 3.39414 4.77697 0
M  V30 6769 N 769.755 2.04199 4.15538 0
M  V30 6770 H 772.594 3.41248 7.98759 0
M  V30 6771 H 772.866 2.57728 6.42 0
M  V30 6772 H 771.998 5.02657 6.42673 0
M  V30 6773 H 769.343 4.11708 4.08956 0
M  V30 6774 H 769.063 2.49626 6.61679 0
M  V30 6775 H 768.072 3.8662 6.00862 0
M  V30 6776 H 769.906 4.29991 7.97006 0
M  V30 6777 P 768.035 6.144 6.45285 0
M  V30 6778 O 767.815 7.54673 6.86199 0
M  V30 6779 O 767.245 5.12391 7.179 0
M  V30 6780 O 767.785 5.99158 4.88404 0
M  V30 6781 C 768.725 6.60234 3.96415 0
M  V30 6782 C 767.995 7.08259 2.72856 0
M  V30 6783 O 767.785 5.9427 1.83651 0
M  V30 6784 C 766.595 7.64886 2.9555 0
M  V30 6785 O 766.205 8.53963 1.90717 0
M  V30 6786 C 765.715 6.4116 2.90739 0
M  V30 6787 C 766.425 5.55375 1.86963 0
M  V30 6788 N 766.375 4.09664 2.15742 0
M  V30 6789 H 769.214 7.45574 4.45629 0
M  V30 6790 H 769.486 5.86232 3.67314 0
M  V30 6791 H 768.618 7.84412 2.24479 0
M  V30 6792 P 764.656 8.7635 1.60911 0
M  V30 6793 O 764.436 10.1388 1.11561 0
M  V30 6794 O 763.866 8.36503 2.79617 0
M  V30 6795 O 764.406 7.71806 0.42951 0
M  V30 6796 C 765.346 7.67148 -0.673689 0
M  V30 6797 C 764.616 7.33374 -1.95559 0
M  V30 6798 O 764.406 5.88721 -2.00726 0
M  V30 6799 C 763.216 7.92526 -2.10483 0
M  V30 6800 O 762.826 8.02971 -3.47653 0
M  V30 6801 C 762.336 6.89602 -1.41652 0
M  V30 6802 C 763.046 5.59201 -1.75185 0
M  V30 6803 N 762.996 4.58301 -0.657969 0
M  V30 6804 C 763.076 4.79019 0.692603 0
M  V30 6805 N 763.006 3.69736 1.38998 0
M  V30 6806 C 762.856 2.70474 0.438135 0
M  V30 6807 C 762.726 1.30327 0.538142 0
M  V30 6808 N 762.716 0.64304 1.69192 0
M  V30 6809 N 762.606 0.611027 -0.605183 0
M  V30 6810 C 762.616 1.27002 -1.75953 0
M  V30 6811 N 762.736 2.56038 -1.98546 0
M  V30 6812 C 762.856 3.22681 -0.822541 0
M  V30 6813 H 765.835 8.65116 -0.777161 0
M  V30 6814 H 766.107 6.9022 -0.46725 0
M  V30 6815 H 765.239 7.66548 -2.79458 0
M  V30 6816 H 762.584 5.16165 -2.65183 0
M  V30 6817 H 762.304 7.06433 -0.329384 0
M  V30 6818 H 761.313 6.90926 -1.82021 0
M  V30 6819 H 763.147 8.90873 -1.62657 0
M  V30 6820 H 763.188 5.77785 1.13874 0
M  V30 6821 H 762.807 1.15585 2.57991 0
M  V30 6822 H 762.618 -0.382989 1.69835 0
M  V30 6823 H 762.51 0.653331 -2.64449 0
M  V30 6824 P 761.276 8.03563 -3.84925 0
M  V30 6825 O 761.056 8.85821 -5.0569 0
M  V30 6826 O 760.486 8.41101 -2.65469 0
M  V30 6827 O 761.026 6.4965 -4.18908 0
M  V30 6828 C 761.966 5.81037 -5.05421 0
M  V30 6829 C 761.236 4.78366 -5.89277 0
M  V30 6830 O 761.026 3.58302 -5.08433 0
M  V30 6831 C 759.836 5.17448 -6.36119 0
M  V30 6832 O 759.446 4.45271 -7.53232 0
M  V30 6833 C 758.956 4.74639 -5.19936 0
M  V30 6834 C 759.666 3.49432 -4.70418 0
M  V30 6835 N 759.616 3.31776 -3.22945 0
M  V30 6836 H 762.455 6.54213 -5.71376 0
M  V30 6837 H 762.727 5.30492 -4.44033 0
M  V30 6838 H 761.859 4.55889 -6.76652 0
M  V30 6839 P 757.896 4.23843 -7.83734 0
M  V30 6840 O 757.676 4.19407 -9.29784 0
M  V30 6841 O 757.106 5.24426 -7.09156 0
M  V30 6842 O 757.646 2.7935 -7.20758 0
M  V30 6843 C 758.586 1.7299 -7.50419 0
M  V30 6844 C 757.856 0.406376 -7.57911 0
M  V30 6845 O 757.646 -0.0897726 -6.21935 0
M  V30 6846 C 756.456 0.447224 -8.1878 0
M  V30 6847 O 756.066 -0.825065 -8.71101 0
M  V30 6848 C 755.576 0.783801 -6.99623 0
M  V30 6849 C 756.286 0.0619192 -5.85967 0
M  V30 6850 N 756.236 0.7859 -4.56281 0
M  V30 6851 H 759.075 1.93423 -8.4679 0
M  V30 6852 H 759.347 1.68181 -6.71046 0
M  V30 6853 H 758.479 -0.289041 -8.15388 0
M  V30 6854 P 754.516 -1.17771 -8.83182 0
M  V30 6855 O 754.296 -2.07206 -9.98732 0
M  V30 6856 O 753.726 0.0743816 -8.81969 0
M  V30 6857 O 754.266 -1.97652 -7.47304 0
M  V30 6858 C 755.206 -3.01133 -7.08783 0
M  V30 6859 C 754.476 -4.12613 -6.37049 0
M  V30 6860 O 754.266 -3.72827 -4.97879 0
M  V30 6861 C 753.076 -4.45085 -6.88694 0
M  V30 6862 O 752.686 -5.7877 -6.5624 0
M  V30 6863 C 752.196 -3.47817 -6.12078 0
M  V30 6864 C 752.906 -3.39414 -4.77697 0
M  V30 6865 N 752.856 -2.04615 -4.15333 0
M  V30 6866 H 755.695 -3.41248 -7.98759 0
M  V30 6867 H 755.967 -2.5837 -6.41742 0
M  V30 6868 H 755.099 -5.02657 -6.42673 0
M  V30 6869 P 751.136 -6.144 -6.45285 0
M  V30 6870 O 750.916 -7.54673 -6.86199 0
M  V30 6871 O 750.346 -5.12391 -7.179 0
M  V30 6872 O 750.886 -5.99236 -4.88467 0
M  V30 6873 C 751.826 -6.60234 -3.96415 0
M  V30 6874 C 751.096 -7.08079 -2.736 0
M  V30 6875 O 750.886 -5.94365 -1.8368 0
M  V30 6876 C 749.696 -7.64886 -2.9555 0
M  V30 6877 O 749.306 -8.5406 -1.90739 0
M  V30 6878 C 748.816 -6.4116 -2.90739 0
M  V30 6879 C 749.526 -5.55375 -1.86963 0
M  V30 6880 N 749.476 -4.09664 -2.15742 0
M  V30 6881 C 749.326 -3.22231 -1.08477 0
M  V30 6882 O 749.236 -3.68951 0.0600489 0
M  V30 6883 N 749.276 -1.76692 -1.48799 0
M  V30 6884 C 749.376 -1.41695 -2.57602 0
M  V30 6885 N 749.326 -0.107296 -2.75791 0
M  V30 6886 C 749.526 -2.29178 -3.69733 0
M  V30 6887 C 749.576 -3.62753 -3.42653 0
M  V30 6888 H 752.316 -7.45488 -4.45578 0
M  V30 6889 H 752.586 -5.86232 -3.67314 0
M  V30 6890 H 751.719 -7.84508 -2.24507 0
M  V30 6891 H 749.064 -5.73556 -0.888715 0
M  V30 6892 H 748.784 -5.9096 -3.88638 0
M  V30 6893 H 747.793 -6.66053 -2.58894 0
M  V30 6894 H 749.627 -8.16339 -3.92049 0
M  V30 6895 H 749.699 -4.33052 -4.24913 0
M  V30 6896 H 749.597 -1.9103 -4.71577 0
M  V30 6897 H 749.209 0.521221 -1.95056 0
M  V30 6898 H 749.405 0.286429 -3.70695 0
M  V30 6899 P 747.756 -8.7635 -1.60911 0
M  V30 6900 O 747.536 -10.1388 -1.11561 0
M  V30 6901 O 746.966 -8.36503 -2.79617 0
M  V30 6902 O 747.506 -7.71806 -0.42951 0
M  V30 6903 C 748.446 -7.67148 0.673689 0
M  V30 6904 C 747.716 -7.33374 1.95559 0
M  V30 6905 O 747.506 -5.88721 2.00726 0
M  V30 6906 C 746.316 -7.92526 2.10483 0
M  V30 6907 O 745.926 -8.02971 3.47653 0
M  V30 6908 C 745.436 -6.89602 1.41652 0
M  V30 6909 C 746.146 -5.59201 1.75185 0
M  V30 6910 N 746.096 -4.58301 0.657969 0
M  V30 6911 C 746.176 -4.79019 -0.692603 0
M  V30 6912 N 746.106 -3.69736 -1.38998 0
M  V30 6913 C 745.956 -2.70474 -0.438135 0
M  V30 6914 C 745.826 -1.30327 -0.538142 0
M  V30 6915 N 745.816 -0.64304 -1.69192 0
M  V30 6916 N 745.706 -0.611027 0.605183 0
M  V30 6917 C 745.716 -1.27002 1.75953 0
M  V30 6918 N 745.836 -2.56038 1.98546 0
M  V30 6919 C 745.956 -3.22681 0.822541 0
M  V30 6920 H 748.935 -8.65116 0.777161 0
M  V30 6921 H 749.207 -6.9022 0.46725 0
M  V30 6922 H 748.339 -7.66548 2.79458 0
M  V30 6923 H 745.684 -5.16165 2.65183 0
M  V30 6924 H 745.404 -7.06433 0.329384 0
M  V30 6925 H 744.413 -6.90926 1.82021 0
M  V30 6926 H 746.247 -8.90873 1.62657 0
M  V30 6927 H 746.288 -5.77785 -1.13874 0
M  V30 6928 H 745.907 -1.15585 -2.57991 0
M  V30 6929 H 745.718 0.382989 -1.69835 0
M  V30 6930 H 745.61 -0.653331 2.64449 0
M  V30 6931 P 744.376 -8.03563 3.84925 0
M  V30 6932 O 744.156 -8.85821 5.0569 0
M  V30 6933 O 743.586 -8.41101 2.65469 0
M  V30 6934 O 744.126 -6.4965 4.18908 0
M  V30 6935 C 745.066 -5.81037 5.05421 0
M  V30 6936 C 744.336 -4.78366 5.89277 0
M  V30 6937 O 744.126 -3.58302 5.08433 0
M  V30 6938 C 742.936 -5.17448 6.36119 0
M  V30 6939 O 742.546 -4.45271 7.53232 0
M  V30 6940 C 742.056 -4.74639 5.19936 0
M  V30 6941 C 742.766 -3.49432 4.70418 0
M  V30 6942 N 742.716 -3.32099 3.22613 0
M  V30 6943 H 745.555 -6.54213 5.71376 0
M  V30 6944 H 745.827 -5.30936 4.43503 0
M  V30 6945 H 744.959 -4.55889 6.76652 0
M  V30 6946 H 742.304 -2.61715 5.17932 0
M  V30 6947 H 742.024 -5.52155 4.41878 0
M  V30 6948 H 741.033 -4.51981 5.53374 0
M  V30 6949 H 742.867 -6.25124 6.55234 0
M  V30 6950 P 740.996 -4.23843 7.83734 0
M  V30 6951 O 740.776 -4.19407 9.29784 0
M  V30 6952 O 740.206 -5.24426 7.09156 0
M  V30 6953 O 740.746 -2.7935 7.20758 0
M  V30 6954 C 741.686 -1.7299 7.50419 0
M  V30 6955 C 740.956 -0.406376 7.57911 0
M  V30 6956 O 740.746 0.0897726 6.21935 0
M  V30 6957 C 739.556 -0.447224 8.1878 0
M  V30 6958 O 739.166 0.825065 8.71101 0
M  V30 6959 C 738.676 -0.783801 6.99623 0
M  V30 6960 C 739.386 -0.0619192 5.85967 0
M  V30 6961 N 739.336 -0.7859 4.56281 0
M  V30 6962 H 742.175 -1.93423 8.4679 0
M  V30 6963 H 742.447 -1.68181 6.71046 0
M  V30 6964 H 741.579 0.289041 8.15388 0
M  V30 6965 P 737.616 1.17771 8.83182 0
M  V30 6966 O 737.396 2.07206 9.98732 0
M  V30 6967 O 736.826 -0.0743816 8.81969 0
M  V30 6968 O 737.366 1.97652 7.47304 0
M  V30 6969 C 738.306 3.01133 7.08783 0
M  V30 6970 C 737.576 4.12613 6.37049 0
M  V30 6971 O 737.366 3.72827 4.97879 0
M  V30 6972 C 736.176 4.45085 6.88694 0
M  V30 6973 O 735.786 5.7877 6.5624 0
M  V30 6974 C 735.296 3.47817 6.12078 0
M  V30 6975 C 736.006 3.39414 4.77697 0
M  V30 6976 N 735.956 2.04615 4.15333 0
M  V30 6977 H 738.795 3.41248 7.98759 0
M  V30 6978 H 739.067 2.5837 6.41742 0
M  V30 6979 H 738.199 5.02657 6.42673 0
M  V30 6980 P 734.236 6.144 6.45285 0
M  V30 6981 O 734.016 7.54673 6.86199 0
M  V30 6982 O 733.446 5.12391 7.179 0
M  V30 6983 O 733.986 5.99158 4.88404 0
M  V30 6984 C 734.926 6.60234 3.96415 0
M  V30 6985 C 734.196 7.08259 2.72856 0
M  V30 6986 O 733.986 5.9427 1.83651 0
M  V30 6987 C 732.796 7.64886 2.9555 0
M  V30 6988 O 732.406 8.53963 1.90717 0
M  V30 6989 C 731.916 6.4116 2.90739 0
M  V30 6990 C 732.626 5.55375 1.86963 0
M  V30 6991 N 732.576 4.09448 2.16152 0
M  V30 6992 H 735.415 7.45574 4.45629 0
M  V30 6993 H 735.687 5.85864 3.679 0
M  V30 6994 H 734.819 7.84412 2.24479 0
M  V30 6995 H 732.164 5.73457 0.888562 0
M  V30 6996 H 731.884 5.90877 3.88583 0
M  V30 6997 H 730.893 6.6596 2.58858 0
M  V30 6998 H 732.727 8.16339 3.92049 0
M  V30 6999 P 730.856 8.7635 1.60911 0
M  V30 7000 O 730.636 10.1388 1.11561 0
M  V30 7001 O 730.066 8.36503 2.79617 0
M  V30 7002 O 730.606 7.71806 0.42951 0
M  V30 7003 C 731.546 7.67148 -0.673689 0
M  V30 7004 C 730.816 7.33374 -1.95559 0
M  V30 7005 O 730.606 5.88721 -2.00726 0
M  V30 7006 C 729.416 7.92526 -2.10483 0
M  V30 7007 O 729.026 8.02971 -3.47653 0
M  V30 7008 C 728.536 6.89602 -1.41652 0
M  V30 7009 C 729.246 5.59201 -1.75185 0
M  V30 7010 N 729.196 4.58301 -0.657969 0
M  V30 7011 H 732.035 8.65116 -0.777161 0
M  V30 7012 H 732.307 6.9022 -0.46725 0
M  V30 7013 H 731.439 7.66548 -2.79458 0
M  V30 7014 H 728.784 5.16165 -2.65183 0
M  V30 7015 H 728.504 7.06433 -0.329384 0
M  V30 7016 H 727.513 6.90926 -1.82021 0
M  V30 7017 H 729.347 8.90873 -1.62657 0
M  V30 7018 P 727.476 8.03563 -3.84925 0
M  V30 7019 O 727.256 8.85821 -5.0569 0
M  V30 7020 O 726.686 8.41101 -2.65469 0
M  V30 7021 O 727.226 6.4965 -4.18908 0
M  V30 7022 C 728.166 5.81037 -5.05421 0
M  V30 7023 C 727.436 4.78366 -5.89277 0
M  V30 7024 O 727.226 3.58302 -5.08433 0
M  V30 7025 C 726.036 5.17448 -6.36119 0
M  V30 7026 O 725.646 4.45271 -7.53232 0
M  V30 7027 C 725.156 4.74639 -5.19936 0
M  V30 7028 C 725.866 3.49432 -4.70418 0
M  V30 7029 N 725.816 3.31776 -3.22945 0
M  V30 7030 H 728.655 6.54213 -5.71376 0
M  V30 7031 H 728.927 5.30492 -4.44033 0
M  V30 7032 H 728.059 4.55889 -6.76652 0
M  V30 7033 P 724.096 4.23843 -7.83734 0
M  V30 7034 O 723.876 4.19407 -9.29784 0
M  V30 7035 O 723.306 5.24426 -7.09156 0
M  V30 7036 O 723.846 2.7935 -7.20758 0
M  V30 7037 C 724.786 1.7299 -7.50419 0
M  V30 7038 C 724.056 0.406376 -7.57911 0
M  V30 7039 O 723.846 -0.0897726 -6.21935 0
M  V30 7040 C 722.656 0.447224 -8.1878 0
M  V30 7041 O 722.266 -0.825065 -8.71101 0
M  V30 7042 C 721.776 0.783801 -6.99623 0
M  V30 7043 C 722.486 0.0619192 -5.85967 0
M  V30 7044 N 722.436 0.7859 -4.56281 0
M  V30 7045 H 725.275 1.93423 -8.4679 0
M  V30 7046 H 725.547 1.68181 -6.71046 0
M  V30 7047 H 724.679 -0.289041 -8.15388 0
M  V30 7048 P 720.716 -1.17771 -8.83182 0
M  V30 7049 O 720.496 -2.07206 -9.98732 0
M  V30 7050 O 719.926 0.0743816 -8.81969 0
M  V30 7051 O 720.466 -1.97652 -7.47304 0
M  V30 7052 C 721.406 -3.01133 -7.08783 0
M  V30 7053 C 720.676 -4.12613 -6.37049 0
M  V30 7054 O 720.466 -3.72827 -4.97879 0
M  V30 7055 C 719.276 -4.45085 -6.88694 0
M  V30 7056 O 718.886 -5.7877 -6.5624 0
M  V30 7057 C 718.396 -3.47817 -6.12078 0
M  V30 7058 C 719.106 -3.39414 -4.77697 0
M  V30 7059 N 719.056 -2.04615 -4.15333 0
M  V30 7060 H 721.895 -3.41248 -7.98759 0
M  V30 7061 H 722.167 -2.5837 -6.41742 0
M  V30 7062 H 721.299 -5.02657 -6.42673 0
M  V30 7063 P 717.336 -6.144 -6.45285 0
M  V30 7064 O 717.116 -7.54673 -6.86199 0
M  V30 7065 O 716.546 -5.12391 -7.179 0
M  V30 7066 O 717.086 -5.99158 -4.88404 0
M  V30 7067 C 718.026 -6.60234 -3.96415 0
M  V30 7068 C 717.296 -7.08259 -2.72856 0
M  V30 7069 O 717.086 -5.9427 -1.83651 0
M  V30 7070 C 715.896 -7.64886 -2.9555 0
M  V30 7071 O 715.506 -8.53963 -1.90717 0
M  V30 7072 C 715.016 -6.4116 -2.90739 0
M  V30 7073 C 715.726 -5.55375 -1.86963 0
M  V30 7074 N 715.676 -4.09448 -2.16152 0
M  V30 7075 H 718.515 -7.45574 -4.45629 0
M  V30 7076 H 718.787 -5.85864 -3.679 0
M  V30 7077 H 717.919 -7.84412 -2.24479 0
M  V30 7078 H 715.264 -5.73457 -0.888562 0
M  V30 7079 H 714.984 -5.90877 -3.88583 0
M  V30 7080 H 713.993 -6.6596 -2.58858 0
M  V30 7081 H 715.827 -8.16339 -3.92049 0
M  V30 7082 P 713.956 -8.7635 -1.60911 0
M  V30 7083 O 713.736 -10.1388 -1.11561 0
M  V30 7084 O 713.166 -8.36503 -2.79617 0
M  V30 7085 O 713.706 -7.71906 -0.429565 0
M  V30 7086 C 714.646 -7.67148 0.673689 0
M  V30 7087 C 713.916 -7.33666 1.94851 0
M  V30 7088 O 713.706 -5.88816 2.00759 0
M  V30 7089 C 712.516 -7.92526 2.10483 0
M  V30 7090 O 712.126 -8.03063 3.47693 0
M  V30 7091 C 711.636 -6.89602 1.41652 0
M  V30 7092 C 712.346 -5.59201 1.75185 0
M  V30 7093 N 712.296 -4.58235 0.662552 0
M  V30 7094 C 712.146 -3.24451 1.01643 0
M  V30 7095 O 712.056 -2.94958 2.21722 0
M  V30 7096 N 712.096 -2.30408 -0.165238 0
M  V30 7097 C 712.196 -2.66048 -1.25118 0
M  V30 7098 N 712.146 -1.70787 -2.16813 0
M  V30 7099 C 712.346 -4.02732 -1.64413 0
M  V30 7100 C 712.396 -4.9488 -0.63991 0
M  V30 7101 H 715.136 -8.65017 0.777072 0
M  V30 7102 H 715.406 -6.90173 0.474152 0
M  V30 7103 H 714.539 -7.66642 2.79492 0
M  V30 7104 H 711.884 -5.16254 2.65229 0
M  V30 7105 H 711.604 -7.06532 0.329431 0
M  V30 7106 H 710.613 -6.91023 1.82047 0
M  V30 7107 H 712.447 -8.90873 1.62657 0
M  V30 7108 H 712.519 -6.00104 -0.892197 0
M  V30 7109 H 712.417 -4.31733 -2.69229 0
M  V30 7110 H 712.029 -0.724835 -1.8844 0
M  V30 7111 H 712.225 -1.94716 -3.16734 0
M  V30 7112 P 710.576 -8.03563 3.84925 0
M  V30 7113 O 710.356 -8.85821 5.0569 0
M  V30 7114 O 709.786 -8.41101 2.65469 0
M  V30 7115 O 710.326 -6.4965 4.18908 0
M  V30 7116 C 711.266 -5.81037 5.05421 0
M  V30 7117 C 710.536 -4.78366 5.89277 0
M  V30 7118 O 710.326 -3.58302 5.08433 0
M  V30 7119 C 709.136 -5.17448 6.36119 0
M  V30 7120 O 708.746 -4.45271 7.53232 0
M  V30 7121 C 708.256 -4.74639 5.19936 0
M  V30 7122 C 708.966 -3.49432 4.70418 0
M  V30 7123 N 708.916 -3.31776 3.22945 0
M  V30 7124 C 708.996 -4.27147 2.23315 0
M  V30 7125 N 708.916 -3.78447 1.02186 0
M  V30 7126 C 708.776 -2.41001 1.21732 0
M  V30 7127 C 708.646 -1.36111 0.27694 0
M  V30 7128 O 708.626 -1.42065 -0.951767 0
M  V30 7129 N 708.526 -0.113683 0.912949 0
M  V30 7130 C 708.526 0.0846396 2.27943 0
M  V30 7131 N 708.396 1.34737 2.6916 0
M  V30 7132 N 708.656 -0.902521 3.16379 0
M  V30 7133 C 708.776 -2.11937 2.56849 0
M  V30 7134 H 711.755 -6.54213 5.71376 0
M  V30 7135 H 712.027 -5.30492 4.44033 0
M  V30 7136 H 711.159 -4.55889 6.76652 0
M  V30 7137 H 708.504 -2.6176 5.18021 0
M  V30 7138 H 708.224 -5.52233 4.41941 0
M  V30 7139 H 707.233 -4.52045 5.53452 0
M  V30 7140 H 709.067 -6.25193 6.55307 0
M  V30 7141 H 709.116 -5.3351 2.43857 0
M  V30 7142 H 708.434 0.69331 0.330371 0
M  V30 7143 H 708.397 1.56433 3.6988 0
M  V30 7144 H 708.296 2.10701 2.00133 0
M  V30 7145 P 707.196 -4.23843 7.83734 0
M  V30 7146 O 706.976 -4.19407 9.29784 0
M  V30 7147 O 706.406 -5.24426 7.09156 0
M  V30 7148 O 706.946 -2.7935 7.20758 0
M  V30 7149 C 707.886 -1.7299 7.50419 0
M  V30 7150 C 707.156 -0.406376 7.57911 0
M  V30 7151 O 706.946 0.0897726 6.21935 0
M  V30 7152 C 705.756 -0.447224 8.1878 0
M  V30 7153 O 705.366 0.825065 8.71101 0
M  V30 7154 C 704.876 -0.783801 6.99623 0
M  V30 7155 C 705.586 -0.0619192 5.85967 0
M  V30 7156 N 705.536 -0.7859 4.56281 0
M  V30 7157 C 705.616 -2.14308 4.31736 0
M  V30 7158 N 705.536 -2.46106 3.05116 0
M  V30 7159 C 705.396 -1.23422 2.4014 0
M  V30 7160 C 705.266 -0.938381 1.02409 0
M  V30 7161 N 705.146 0.444647 0.805413 0
M  V30 7162 C 705.146 1.40829 1.79435 0
M  V30 7163 N 705.016 2.67213 1.38558 0
M  V30 7164 N 705.276 1.12947 3.09005 0
M  V30 7165 C 705.396 -0.204887 3.32369 0
M  V30 7166 H 708.375 -1.93423 8.4679 0
M  V30 7167 H 708.647 -1.68181 6.71046 0
M  V30 7168 H 707.779 0.289041 8.15388 0
M  V30 7169 P 703.816 1.17771 8.83182 0
M  V30 7170 O 703.596 2.07206 9.98732 0
M  V30 7171 O 703.026 -0.0743816 8.81969 0
M  V30 7172 O 703.566 1.97652 7.47304 0
M  V30 7173 C 704.506 3.01055 7.08599 0
M  V30 7174 C 703.776 4.12613 6.37049 0
M  V30 7175 O 703.566 3.72827 4.97879 0
M  V30 7176 C 702.376 4.45719 6.88164 0
M  V30 7177 O 701.986 5.7877 6.5624 0
M  V30 7178 C 701.496 3.47768 6.11991 0
M  V30 7179 C 702.206 3.39356 4.77615 0
M  V30 7180 N 702.156 2.04571 4.15244 0
M  V30 7181 C 702.006 1.98587 2.78314 0
M  V30 7182 O 701.916 2.98134 2.08835 0
M  V30 7183 N 701.966 0.714467 2.24925 0
M  V30 7184 C 702.056 -0.470001 2.94169 0
M  V30 7185 C 702.206 -0.312541 4.36783 0
M  V30 7186 C 702.256 0.914512 4.92583 0
M  V30 7187 H 704.997 3.41169 7.98575 0
M  V30 7188 H 705.266 2.58295 6.41556 0
M  V30 7189 H 704.399 5.02657 6.42673 0
M  V30 7190 H 701.744 4.11637 4.08885 0
M  V30 7191 H 701.465 2.49626 6.61679 0
M  V30 7192 H 700.473 3.86566 6.00778 0
M  V30 7193 H 702.307 4.29943 7.96918 0
M  V30 7194 H 702.378 1.00937 6.00374 0
M  V30 7195 P 700.436 6.144 6.45285 0
M  V30 7196 O 700.216 7.54673 6.86199 0
M  V30 7197 O 699.646 5.12391 7.179 0
M  V30 7198 O 700.186 5.99236 4.88467 0
M  V30 7199 C 701.126 6.60234 3.96415 0
M  V30 7200 C 700.396 7.08079 2.736 0
M  V30 7201 O 700.186 5.94365 1.8368 0
M  V30 7202 C 698.996 7.64886 2.9555 0
M  V30 7203 O 698.606 8.5406 1.90739 0
M  V30 7204 C 698.116 6.4116 2.90739 0
M  V30 7205 C 698.826 5.55375 1.86963 0
M  V30 7206 N 698.776 4.09664 2.15742 0
M  V30 7207 C 698.626 3.22231 1.08477 0
M  V30 7208 O 698.536 3.68951 -0.0600489 0
M  V30 7209 N 698.576 1.76692 1.48799 0
M  V30 7210 C 698.676 1.41695 2.57602 0
M  V30 7211 N 698.626 0.107296 2.75791 0
M  V30 7212 C 698.826 2.29178 3.69733 0
M  V30 7213 C 698.876 3.62753 3.42653 0
M  V30 7214 H 701.616 7.45488 4.45578 0
M  V30 7215 H 701.886 5.86232 3.67314 0
M  V30 7216 H 701.019 7.84508 2.24507 0
M  V30 7217 H 698.364 5.73556 0.888715 0
M  V30 7218 H 698.084 5.9096 3.88638 0
M  V30 7219 H 697.093 6.66053 2.58894 0
M  V30 7220 H 698.927 8.16339 3.92049 0
M  V30 7221 H 698.999 4.33052 4.24913 0
M  V30 7222 H 698.897 1.9103 4.71577 0
M  V30 7223 H 698.509 -0.521221 1.95056 0
M  V30 7224 H 698.705 -0.286429 3.70695 0
M  V30 7225 P 697.056 8.7635 1.60911 0
M  V30 7226 O 696.836 10.1388 1.11561 0
M  V30 7227 O 696.266 8.36503 2.79617 0
M  V30 7228 O 696.806 7.71806 0.42951 0
M  V30 7229 C 697.746 7.67148 -0.673689 0
M  V30 7230 C 697.016 7.33374 -1.95559 0
M  V30 7231 O 696.806 5.88721 -2.00726 0
M  V30 7232 C 695.616 7.92526 -2.10483 0
M  V30 7233 O 695.226 8.02971 -3.47653 0
M  V30 7234 C 694.736 6.89602 -1.41652 0
M  V30 7235 C 695.446 5.59201 -1.75185 0
M  V30 7236 N 695.396 4.58235 -0.662552 0
M  V30 7237 H 698.235 8.65116 -0.777161 0
M  V30 7238 H 698.507 6.90173 -0.474152 0
M  V30 7239 H 697.639 7.66548 -2.79458 0
M  V30 7240 P 693.676 8.03563 -3.84925 0
M  V30 7241 O 693.456 8.85821 -5.0569 0
M  V30 7242 O 692.886 8.41101 -2.65469 0
M  V30 7243 O 693.426 6.4965 -4.18908 0
M  V30 7244 C 694.366 5.81037 -5.05421 0
M  V30 7245 C 693.636 4.78366 -5.89277 0
M  V30 7246 O 693.426 3.58302 -5.08433 0
M  V30 7247 C 692.236 5.17448 -6.36119 0
M  V30 7248 O 691.846 4.45271 -7.53232 0
M  V30 7249 C 691.356 4.74639 -5.19936 0
M  V30 7250 C 692.066 3.49432 -4.70418 0
M  V30 7251 N 692.016 3.31776 -3.22945 0
M  V30 7252 H 694.855 6.54213 -5.71376 0
M  V30 7253 H 695.127 5.30492 -4.44033 0
M  V30 7254 H 694.259 4.55889 -6.76652 0
M  V30 7255 P 690.296 4.23843 -7.83734 0
M  V30 7256 O 690.076 4.19407 -9.29784 0
M  V30 7257 O 689.506 5.24426 -7.09156 0
M  V30 7258 O 690.046 2.79386 -7.20852 0
M  V30 7259 C 690.986 1.7299 -7.50419 0
M  V30 7260 C 690.256 0.41401 -7.5797 0
M  V30 7261 O 690.046 -0.089787 -6.22035 0
M  V30 7262 C 688.856 0.447224 -8.1878 0
M  V30 7263 O 688.466 -0.825159 -8.71201 0
M  V30 7264 C 687.976 0.783801 -6.99623 0
M  V30 7265 C 688.686 0.0619192 -5.85967 0
M  V30 7266 N 688.636 0.7859 -4.56281 0
M  V30 7267 C 688.486 0.0359258 -3.39981 0
M  V30 7268 O 688.396 -1.19723 -3.49038 0
M  V30 7269 N 688.436 0.869151 -2.14025 0
M  V30 7270 C 688.536 2.01207 -2.14363 0
M  V30 7271 N 688.486 2.58978 -0.954287 0
M  V30 7272 C 688.686 2.80817 -3.32215 0
M  V30 7273 C 688.736 2.13785 -4.50884 0
M  V30 7274 H 691.476 1.93401 -8.46693 0
M  V30 7275 H 691.746 1.68181 -6.71046 0
M  V30 7276 H 690.879 -0.289076 -8.15488 0
M  V30 7277 H 688.224 -0.927166 -5.72947 0
M  V30 7278 H 687.944 1.87 -6.82132 0
M  V30 7279 H 686.953 0.404009 -7.13457 0
M  V30 7280 H 688.787 1.20599 -8.97534 0
M  V30 7281 H 688.859 2.70295 -5.43162 0
M  V30 7282 H 688.757 3.89465 -3.27406 0
M  V30 7283 H 688.369 2.01616 -0.107046 0
M  V30 7284 H 688.565 3.61403 -0.873101 0
M  V30 7285 P 686.916 -1.17771 -8.83182 0
M  V30 7286 O 686.696 -2.07206 -9.98732 0
M  V30 7287 O 686.126 0.0743816 -8.81969 0
M  V30 7288 O 686.666 -1.97652 -7.47304 0
M  V30 7289 C 687.606 -3.01133 -7.08783 0
M  V30 7290 C 686.876 -4.12613 -6.37049 0
M  V30 7291 O 686.666 -3.72827 -4.97879 0
M  V30 7292 C 685.476 -4.45085 -6.88694 0
M  V30 7293 O 685.086 -5.7877 -6.5624 0
M  V30 7294 C 684.596 -3.47817 -6.12078 0
M  V30 7295 C 685.306 -3.39414 -4.77697 0
M  V30 7296 N 685.256 -2.04615 -4.15333 0
M  V30 7297 H 688.095 -3.41248 -7.98759 0
M  V30 7298 H 688.367 -2.5837 -6.41742 0
M  V30 7299 H 687.499 -5.02657 -6.42673 0
M  V30 7300 P 683.536 -6.144 -6.45285 0
M  V30 7301 O 683.316 -7.54673 -6.86199 0
M  V30 7302 O 682.746 -5.12391 -7.179 0
M  V30 7303 O 683.286 -5.99158 -4.88404 0
M  V30 7304 C 684.226 -6.60234 -3.96415 0
M  V30 7305 C 683.496 -7.08259 -2.72856 0
M  V30 7306 O 683.286 -5.9427 -1.83651 0
M  V30 7307 C 682.096 -7.64886 -2.9555 0
M  V30 7308 O 681.706 -8.53963 -1.90717 0
M  V30 7309 C 681.216 -6.4116 -2.90739 0
M  V30 7310 C 681.926 -5.55375 -1.86963 0
M  V30 7311 N 681.876 -4.09664 -2.15742 0
M  V30 7312 H 684.715 -7.45574 -4.45629 0
M  V30 7313 H 684.987 -5.86232 -3.67314 0
M  V30 7314 H 684.119 -7.84412 -2.24479 0
M  V30 7315 P 680.156 -8.7635 -1.60911 0
M  V30 7316 O 679.936 -10.1388 -1.11561 0
M  V30 7317 O 679.366 -8.36503 -2.79617 0
M  V30 7318 O 679.906 -7.71806 -0.42951 0
M  V30 7319 C 680.846 -7.67148 0.673689 0
M  V30 7320 C 680.116 -7.33374 1.95559 0
M  V30 7321 O 679.906 -5.88721 2.00726 0
M  V30 7322 C 678.716 -7.92526 2.10483 0
M  V30 7323 O 678.326 -8.02971 3.47653 0
M  V30 7324 C 677.836 -6.89602 1.41652 0
M  V30 7325 C 678.546 -5.59201 1.75185 0
M  V30 7326 N 678.496 -4.58301 0.657969 0
M  V30 7327 H 681.335 -8.65116 0.777161 0
M  V30 7328 H 681.607 -6.9022 0.46725 0
M  V30 7329 H 680.739 -7.66548 2.79458 0
M  V30 7330 H 678.084 -5.16165 2.65183 0
M  V30 7331 H 677.804 -7.06433 0.329384 0
M  V30 7332 H 676.813 -6.90926 1.82021 0
M  V30 7333 H 678.647 -8.90873 1.62657 0
M  V30 7334 P 676.776 -8.03563 3.84925 0
M  V30 7335 O 676.556 -8.85821 5.0569 0
M  V30 7336 O 675.986 -8.41101 2.65469 0
M  V30 7337 O 676.526 -6.4965 4.18908 0
M  V30 7338 C 677.466 -5.81037 5.05421 0
M  V30 7339 C 676.736 -4.78366 5.89277 0
M  V30 7340 O 676.526 -3.58302 5.08433 0
M  V30 7341 C 675.336 -5.17448 6.36119 0
M  V30 7342 O 674.946 -4.45271 7.53232 0
M  V30 7343 C 674.456 -4.74639 5.19936 0
M  V30 7344 C 675.166 -3.49432 4.70418 0
M  V30 7345 N 675.116 -3.32099 3.22613 0
M  V30 7346 H 677.955 -6.54213 5.71376 0
M  V30 7347 H 678.227 -5.30936 4.43503 0
M  V30 7348 H 677.359 -4.55889 6.76652 0
M  V30 7349 H 674.704 -2.61715 5.17932 0
M  V30 7350 H 674.424 -5.52155 4.41878 0
M  V30 7351 H 673.433 -4.51981 5.53374 0
M  V30 7352 H 675.267 -6.25124 6.55234 0
M  V30 7353 P 673.396 -4.23843 7.83734 0
M  V30 7354 O 673.176 -4.19407 9.29784 0
M  V30 7355 O 672.606 -5.24426 7.09156 0
M  V30 7356 O 673.146 -2.7935 7.20758 0
M  V30 7357 C 674.086 -1.7299 7.50419 0
M  V30 7358 C 673.356 -0.406376 7.57911 0
M  V30 7359 O 673.146 0.0897726 6.21935 0
M  V30 7360 C 671.956 -0.447224 8.1878 0
M  V30 7361 O 671.566 0.825065 8.71101 0
M  V30 7362 C 671.076 -0.783801 6.99623 0
M  V30 7363 C 671.786 -0.0619192 5.85967 0
M  V30 7364 N 671.736 -0.7859 4.56281 0
M  V30 7365 C 671.816 -2.14308 4.31736 0
M  V30 7366 N 671.736 -2.46106 3.05116 0
M  V30 7367 C 671.596 -1.23422 2.4014 0
M  V30 7368 C 671.466 -0.938381 1.02409 0
M  V30 7369 N 671.346 0.444647 0.805413 0
M  V30 7370 C 671.346 1.40829 1.79435 0
M  V30 7371 N 671.216 2.67213 1.38558 0
M  V30 7372 N 671.476 1.12947 3.09005 0
M  V30 7373 C 671.596 -0.204887 3.32369 0
M  V30 7374 H 674.575 -1.93423 8.4679 0
M  V30 7375 H 674.847 -1.68181 6.71046 0
M  V30 7376 H 673.979 0.289041 8.15388 0
M  V30 7377 P 670.016 1.17771 8.83182 0
M  V30 7378 O 669.796 2.07206 9.98732 0
M  V30 7379 O 669.226 -0.0743816 8.81969 0
M  V30 7380 O 669.766 1.97652 7.47304 0
M  V30 7381 C 670.706 3.01133 7.08783 0
M  V30 7382 C 669.976 4.12613 6.37049 0
M  V30 7383 O 669.766 3.72827 4.97879 0
M  V30 7384 C 668.576 4.45085 6.88694 0
M  V30 7385 O 668.186 5.7877 6.5624 0
M  V30 7386 C 667.696 3.47817 6.12078 0
M  V30 7387 C 668.406 3.39414 4.77697 0
M  V30 7388 N 668.356 2.04199 4.15538 0
M  V30 7389 H 671.195 3.41248 7.98759 0
M  V30 7390 H 671.467 2.57728 6.42 0
M  V30 7391 H 670.599 5.02657 6.42673 0
M  V30 7392 H 667.944 4.11708 4.08956 0
M  V30 7393 H 667.664 2.49626 6.61679 0
M  V30 7394 H 666.673 3.8662 6.00862 0
M  V30 7395 H 668.507 4.29991 7.97006 0
M  V30 7396 P 666.636 6.144 6.45285 0
M  V30 7397 O 666.416 7.54673 6.86199 0
M  V30 7398 O 665.846 5.12391 7.179 0
M  V30 7399 O 666.386 5.99158 4.88404 0
M  V30 7400 C 667.326 6.60234 3.96415 0
M  V30 7401 C 666.596 7.08259 2.72856 0
M  V30 7402 O 666.386 5.9427 1.83651 0
M  V30 7403 C 665.196 7.64886 2.9555 0
M  V30 7404 O 664.806 8.53963 1.90717 0
M  V30 7405 C 664.316 6.4116 2.90739 0
M  V30 7406 C 665.026 5.55375 1.86963 0
M  V30 7407 N 664.976 4.09448 2.16152 0
M  V30 7408 H 667.815 7.45574 4.45629 0
M  V30 7409 H 668.087 5.85864 3.679 0
M  V30 7410 H 667.219 7.84412 2.24479 0
M  V30 7411 H 664.564 5.73457 0.888562 0
M  V30 7412 H 664.284 5.90877 3.88583 0
M  V30 7413 H 663.293 6.6596 2.58858 0
M  V30 7414 H 665.127 8.16339 3.92049 0
M  V30 7415 P 663.256 8.7635 1.60911 0
M  V30 7416 O 663.036 10.1388 1.11561 0
M  V30 7417 O 662.466 8.36503 2.79617 0
M  V30 7418 O 663.006 7.71806 0.42951 0
M  V30 7419 C 663.946 7.67148 -0.673689 0
M  V30 7420 C 663.216 7.33374 -1.95559 0
M  V30 7421 O 663.006 5.88721 -2.00726 0
M  V30 7422 C 661.816 7.92526 -2.10483 0
M  V30 7423 O 661.426 8.02971 -3.47653 0
M  V30 7424 C 660.936 6.89602 -1.41652 0
M  V30 7425 C 661.646 5.59201 -1.75185 0
M  V30 7426 N 661.596 4.58235 -0.662552 0
M  V30 7427 C 661.676 4.7683 0.704049 0
M  V30 7428 N 661.596 3.66233 1.39775 0
M  V30 7429 C 661.456 2.66526 0.431739 0
M  V30 7430 C 661.326 1.26394 0.575992 0
M  V30 7431 N 661.206 0.62859 -0.67177 0
M  V30 7432 C 661.206 1.27134 -1.89385 0
M  V30 7433 N 661.076 0.492035 -2.96951 0
M  V30 7434 N 661.336 2.58978 -2.02907 0
M  V30 7435 C 661.456 3.22433 -0.832218 0
M  V30 7436 H 664.435 8.65116 -0.777161 0
M  V30 7437 H 664.707 6.90173 -0.474152 0
M  V30 7438 H 663.839 7.66548 -2.79458 0
M  V30 7439 P 659.876 8.03563 -3.84925 0
M  V30 7440 O 659.656 8.85821 -5.0569 0
M  V30 7441 O 659.086 8.41101 -2.65469 0
M  V30 7442 O 659.626 6.4965 -4.18908 0
M  V30 7443 C 660.566 5.81037 -5.05421 0
M  V30 7444 C 659.836 4.78366 -5.89277 0
M  V30 7445 O 659.626 3.58302 -5.08433 0
M  V30 7446 C 658.436 5.17448 -6.36119 0
M  V30 7447 O 658.046 4.45271 -7.53232 0
M  V30 7448 C 657.556 4.74639 -5.19936 0
M  V30 7449 C 658.266 3.49432 -4.70418 0
M  V30 7450 N 658.216 3.31776 -3.22945 0
M  V30 7451 H 661.055 6.54213 -5.71376 0
M  V30 7452 H 661.327 5.30492 -4.44033 0
M  V30 7453 H 660.459 4.55889 -6.76652 0
M  V30 7454 P 656.496 4.23843 -7.83734 0
M  V30 7455 O 656.276 4.19407 -9.29784 0
M  V30 7456 O 655.706 5.24426 -7.09156 0
M  V30 7457 O 656.246 2.7935 -7.20758 0
M  V30 7458 C 657.186 1.7299 -7.50419 0
M  V30 7459 C 656.456 0.406376 -7.57911 0
M  V30 7460 O 656.246 -0.0897726 -6.21935 0
M  V30 7461 C 655.056 0.447224 -8.1878 0
M  V30 7462 O 654.666 -0.825065 -8.71101 0
M  V30 7463 C 654.176 0.783801 -6.99623 0
M  V30 7464 C 654.886 0.0619192 -5.85967 0
M  V30 7465 N 654.836 0.7859 -4.56281 0
M  V30 7466 H 657.675 1.93423 -8.4679 0
M  V30 7467 H 657.947 1.68181 -6.71046 0
M  V30 7468 H 657.079 -0.289041 -8.15388 0
M  V30 7469 P 653.116 -1.17771 -8.83182 0
M  V30 7470 O 652.896 -2.07206 -9.98732 0
M  V30 7471 O 652.326 0.0743816 -8.81969 0
M  V30 7472 O 652.866 -1.97652 -7.47304 0
M  V30 7473 C 653.806 -3.01133 -7.08783 0
M  V30 7474 C 653.076 -4.12613 -6.37049 0
M  V30 7475 O 652.866 -3.72827 -4.97879 0
M  V30 7476 C 651.676 -4.45085 -6.88694 0
M  V30 7477 O 651.286 -5.7877 -6.5624 0
M  V30 7478 C 650.796 -3.47817 -6.12078 0
M  V30 7479 C 651.506 -3.39414 -4.77697 0
M  V30 7480 N 651.456 -2.04615 -4.15333 0
M  V30 7481 H 654.295 -3.41248 -7.98759 0
M  V30 7482 H 654.567 -2.5837 -6.41742 0
M  V30 7483 H 653.699 -5.02657 -6.42673 0
M  V30 7484 P 649.736 -6.144 -6.45285 0
M  V30 7485 O 649.516 -7.54673 -6.86199 0
M  V30 7486 O 648.946 -5.12391 -7.179 0
M  V30 7487 O 649.486 -5.99158 -4.88404 0
M  V30 7488 C 650.426 -6.60234 -3.96415 0
M  V30 7489 C 649.696 -7.08259 -2.72856 0
M  V30 7490 O 649.486 -5.9427 -1.83651 0
M  V30 7491 C 648.296 -7.64886 -2.9555 0
M  V30 7492 O 647.906 -8.53963 -1.90717 0
M  V30 7493 C 647.416 -6.4116 -2.90739 0
M  V30 7494 C 648.126 -5.55375 -1.86963 0
M  V30 7495 N 648.076 -4.09664 -2.15742 0
M  V30 7496 C 648.156 -3.44381 -3.37233 0
M  V30 7497 N 648.076 -2.14131 -3.28347 0
M  V30 7498 C 647.936 -1.90247 -1.91588 0
M  V30 7499 C 647.806 -0.683992 -1.20892 0
M  V30 7500 N 647.686 -0.903396 0.173998 0
M  V30 7501 C 647.686 -2.14171 0.784879 0
M  V30 7502 N 647.556 -2.1435 2.11317 0
M  V30 7503 N 647.816 -3.28784 0.119316 0
M  V30 7504 C 647.936 -3.0977 -1.22194 0
M  V30 7505 H 650.915 -7.45574 -4.45629 0
M  V30 7506 H 651.187 -5.86232 -3.67314 0
M  V30 7507 H 650.319 -7.84412 -2.24479 0
M  V30 7508 P 646.356 -8.7635 -1.60911 0
M  V30 7509 O 646.136 -10.1388 -1.11561 0
M  V30 7510 O 645.566 -8.36503 -2.79617 0
M  V30 7511 O 646.106 -7.71806 -0.42951 0
M  V30 7512 C 647.046 -7.67148 0.673689 0
M  V30 7513 C 646.316 -7.33374 1.95559 0
M  V30 7514 O 646.106 -5.88721 2.00726 0
M  V30 7515 C 644.916 -7.92526 2.10483 0
M  V30 7516 O 644.526 -8.02971 3.47653 0
M  V30 7517 C 644.036 -6.89602 1.41652 0
M  V30 7518 C 644.746 -5.59201 1.75185 0
M  V30 7519 N 644.696 -4.58301 0.657969 0
M  V30 7520 H 647.535 -8.65116 0.777161 0
M  V30 7521 H 647.807 -6.9022 0.46725 0
M  V30 7522 H 646.939 -7.66548 2.79458 0
M  V30 7523 H 644.284 -5.16165 2.65183 0
M  V30 7524 H 644.004 -7.06433 0.329384 0
M  V30 7525 H 643.013 -6.90926 1.82021 0
M  V30 7526 H 644.847 -8.90873 1.62657 0
M  V30 7527 P 642.976 -8.03563 3.84925 0
M  V30 7528 O 642.756 -8.85821 5.0569 0
M  V30 7529 O 642.186 -8.41101 2.65469 0
M  V30 7530 O 642.726 -6.4965 4.18908 0
M  V30 7531 C 643.666 -5.80886 5.05289 0
M  V30 7532 C 642.936 -4.78366 5.89277 0
M  V30 7533 O 642.726 -3.58302 5.08433 0
M  V30 7534 C 641.536 -5.16748 6.36559 0
M  V30 7535 O 641.146 -4.45271 7.53232 0
M  V30 7536 C 640.656 -4.74572 5.19863 0
M  V30 7537 C 641.366 -3.49373 4.70338 0
M  V30 7538 N 641.316 -3.31704 3.22876 0
M  V30 7539 C 641.166 -2.03326 2.74871 0
M  V30 7540 O 641.076 -1.06486 3.48076 0
M  V30 7541 N 641.126 -1.91838 1.37456 0
M  V30 7542 C 641.216 -2.94295 0.462035 0
M  V30 7543 O 641.166 -2.71763 -0.752928 0
M  V30 7544 C 641.366 -4.25064 1.05249 0
M  V30 7545 C 641.476 -5.39815 0.095697 0
M  V30 7546 C 641.416 -4.40214 2.39192 0
M  V30 7547 H 644.157 -6.54063 5.71245 0
M  V30 7548 H 644.426 -5.30339 4.43905 0
M  V30 7549 H 643.559 -4.55889 6.76652 0
M  V30 7550 H 640.904 -2.6167 5.17842 0
M  V30 7551 H 640.625 -5.52155 4.41878 0
M  V30 7552 H 639.633 -4.51918 5.53297 0
M  V30 7553 H 641.467 -6.25055 6.55162 0
M  V30 7554 H 641.538 -5.39798 2.81523 0
M  V30 7555 H 640.508 -5.91593 0.0279582 0
M  V30 7556 H 642.245 -6.10038 0.450573 0
M  V30 7557 H 641.757 -5.02007 -0.89937 0
M  V30 7558 H 641.021 -0.995326 1.00435 0
M  V30 7559 P 639.596 -4.23843 7.83734 0
M  V30 7560 O 639.376 -4.19407 9.29784 0
M  V30 7561 O 638.806 -5.24426 7.09156 0
M  V30 7562 O 639.346 -2.7935 7.20758 0
M  V30 7563 C 640.286 -1.7299 7.50419 0
M  V30 7564 C 639.556 -0.406376 7.57911 0
M  V30 7565 O 639.346 0.0897726 6.21935 0
M  V30 7566 C 638.156 -0.447224 8.1878 0
M  V30 7567 O 637.766 0.825065 8.71101 0
M  V30 7568 C 637.276 -0.783801 6.99623 0
M  V30 7569 C 637.986 -0.0619192 5.85967 0
M  V30 7570 N 637.936 -0.7859 4.56281 0
M  V30 7571 H 640.775 -1.93423 8.4679 0
M  V30 7572 H 641.047 -1.68181 6.71046 0
M  V30 7573 H 640.179 0.289041 8.15388 0
M  V30 7574 P 636.216 1.17771 8.83182 0
M  V30 7575 O 635.996 2.07206 9.98732 0
M  V30 7576 O 635.426 -0.0743816 8.81969 0
M  V30 7577 O 635.966 1.97652 7.47304 0
M  V30 7578 C 636.906 3.01133 7.08783 0
M  V30 7579 C 636.176 4.12613 6.37049 0
M  V30 7580 O 635.966 3.72827 4.97879 0
M  V30 7581 C 634.776 4.45085 6.88694 0
M  V30 7582 O 634.386 5.7877 6.5624 0
M  V30 7583 C 633.896 3.47817 6.12078 0
M  V30 7584 C 634.606 3.39414 4.77697 0
M  V30 7585 N 634.556 2.04615 4.15333 0
M  V30 7586 C 634.636 0.803897 4.75249 0
M  V30 7587 N 634.556 -0.197615 3.91502 0
M  V30 7588 C 634.416 0.413002 2.66823 0
M  V30 7589 C 634.286 -0.157221 1.38007 0
M  V30 7590 O 634.266 -1.34419 1.057 0
M  V30 7591 N 634.166 0.833136 0.390236 0
M  V30 7592 C 634.166 2.19402 0.623885 0
M  V30 7593 N 634.036 2.97622 -0.449677 0
M  V30 7594 N 634.296 2.73005 1.83601 0
M  V30 7595 C 634.416 1.78786 2.80935 0
M  V30 7596 H 637.395 3.41248 7.98759 0
M  V30 7597 H 637.667 2.5837 6.41742 0
M  V30 7598 H 636.799 5.02657 6.42673 0
M  V30 7599 H 634.144 4.11779 4.09026 0
M  V30 7600 H 633.864 2.49661 6.61772 0
M  V30 7601 H 632.873 3.86674 6.00946 0
M  V30 7602 H 634.707 4.30038 7.97094 0
M  V30 7603 H 634.756 0.670579 5.82754 0
M  V30 7604 H 634.074 0.528446 -0.557287 0
M  V30 7605 H 634.037 4.00117 -0.344773 0
M  V30 7606 H 633.936 2.55448 -1.38544 0
M  V30 7607 P 632.836 6.144 6.45285 0
M  V30 7608 O 632.616 7.54673 6.86199 0
M  V30 7609 O 632.046 5.12391 7.179 0
M  V30 7610 O 632.586 5.99236 4.88467 0
M  V30 7611 C 633.526 6.60234 3.96415 0
M  V30 7612 C 632.796 7.08079 2.736 0
M  V30 7613 O 632.586 5.94365 1.8368 0
M  V30 7614 C 631.396 7.64886 2.9555 0
M  V30 7615 O 631.006 8.5406 1.90739 0
M  V30 7616 C 630.516 6.4116 2.90739 0
M  V30 7617 C 631.226 5.55375 1.86963 0
M  V30 7618 N 631.176 4.09664 2.15742 0
M  V30 7619 C 631.026 3.22231 1.08477 0
M  V30 7620 O 630.936 3.68951 -0.0600489 0
M  V30 7621 N 630.976 1.76692 1.48799 0
M  V30 7622 C 631.076 1.41695 2.57602 0
M  V30 7623 N 631.026 0.107296 2.75791 0
M  V30 7624 C 631.226 2.29178 3.69733 0
M  V30 7625 C 631.276 3.62753 3.42653 0
M  V30 7626 H 634.016 7.45488 4.45578 0
M  V30 7627 H 634.286 5.86232 3.67314 0
M  V30 7628 H 633.419 7.84508 2.24507 0
M  V30 7629 H 630.764 5.73556 0.888715 0
M  V30 7630 H 630.484 5.9096 3.88638 0
M  V30 7631 H 629.493 6.66053 2.58894 0
M  V30 7632 H 631.327 8.16339 3.92049 0
M  V30 7633 H 631.399 4.33052 4.24913 0
M  V30 7634 H 631.297 1.9103 4.71577 0
M  V30 7635 H 630.909 -0.521221 1.95056 0
M  V30 7636 H 631.105 -0.286429 3.70695 0
M  V30 7637 P 629.456 8.7635 1.60911 0
M  V30 7638 O 629.236 10.1388 1.11561 0
M  V30 7639 O 628.666 8.36503 2.79617 0
M  V30 7640 O 629.206 7.71806 0.42951 0
M  V30 7641 C 630.146 7.67148 -0.673689 0
M  V30 7642 C 629.416 7.33374 -1.95559 0
M  V30 7643 O 629.206 5.88721 -2.00726 0
M  V30 7644 C 628.016 7.92526 -2.10483 0
M  V30 7645 O 627.626 8.02971 -3.47653 0
M  V30 7646 C 627.136 6.89602 -1.41652 0
M  V30 7647 C 627.846 5.59201 -1.75185 0
M  V30 7648 N 627.796 4.58235 -0.662552 0
M  V30 7649 H 630.635 8.65116 -0.777161 0
M  V30 7650 H 630.907 6.90173 -0.474152 0
M  V30 7651 H 630.039 7.66548 -2.79458 0
M  V30 7652 P 626.076 8.03563 -3.84925 0
M  V30 7653 O 625.856 8.85821 -5.0569 0
M  V30 7654 O 625.286 8.41101 -2.65469 0
M  V30 7655 O 625.826 6.4965 -4.18908 0
M  V30 7656 C 626.766 5.81037 -5.05421 0
M  V30 7657 C 626.036 4.78366 -5.89277 0
M  V30 7658 O 625.826 3.58302 -5.08433 0
M  V30 7659 C 624.636 5.17448 -6.36119 0
M  V30 7660 O 624.246 4.45271 -7.53232 0
M  V30 7661 C 623.756 4.74639 -5.19936 0
M  V30 7662 C 624.466 3.49432 -4.70418 0
M  V30 7663 N 624.416 3.32099 -3.22613 0
M  V30 7664 H 627.255 6.54213 -5.71376 0
M  V30 7665 H 627.527 5.30936 -4.43503 0
M  V30 7666 H 626.659 4.55889 -6.76652 0
M  V30 7667 H 624.004 2.61715 -5.17932 0
M  V30 7668 H 623.724 5.52155 -4.41878 0
M  V30 7669 H 622.733 4.51981 -5.53374 0
M  V30 7670 H 624.567 6.25124 -6.55234 0
M  V30 7671 P 622.696 4.23843 -7.83734 0
M  V30 7672 O 622.476 4.19407 -9.29784 0
M  V30 7673 O 621.906 5.24426 -7.09156 0
M  V30 7674 O 622.446 2.7935 -7.20758 0
M  V30 7675 C 623.386 1.7299 -7.50419 0
M  V30 7676 C 622.656 0.406376 -7.57911 0
M  V30 7677 O 622.446 -0.0897726 -6.21935 0
M  V30 7678 C 621.256 0.447224 -8.1878 0
M  V30 7679 O 620.866 -0.825065 -8.71101 0
M  V30 7680 C 620.376 0.783801 -6.99623 0
M  V30 7681 C 621.086 0.0619192 -5.85967 0
M  V30 7682 N 621.036 0.790462 -4.56202 0
M  V30 7683 H 623.875 1.93423 -8.4679 0
M  V30 7684 H 624.147 1.68852 -6.70877 0
M  V30 7685 H 623.279 -0.289041 -8.15388 0
M  V30 7686 H 620.624 -0.927006 -5.72848 0
M  V30 7687 H 620.344 1.86973 -6.82036 0
M  V30 7688 H 619.353 0.403953 -7.13357 0
M  V30 7689 H 621.187 1.20599 -8.97534 0
M  V30 7690 P 619.316 -1.17771 -8.83182 0
M  V30 7691 O 619.096 -2.07206 -9.98732 0
M  V30 7692 O 618.526 0.0743816 -8.81969 0
M  V30 7693 O 619.066 -1.97652 -7.47304 0
M  V30 7694 C 620.006 -3.01133 -7.08783 0
M  V30 7695 C 619.276 -4.12613 -6.37049 0
M  V30 7696 O 619.066 -3.72827 -4.97879 0
M  V30 7697 C 617.876 -4.45085 -6.88694 0
M  V30 7698 O 617.486 -5.7877 -6.5624 0
M  V30 7699 C 616.996 -3.47817 -6.12078 0
M  V30 7700 C 617.706 -3.39414 -4.77697 0
M  V30 7701 N 617.656 -2.04615 -4.15333 0
M  V30 7702 H 620.495 -3.41248 -7.98759 0
M  V30 7703 H 620.767 -2.5837 -6.41742 0
M  V30 7704 H 619.899 -5.02657 -6.42673 0
M  V30 7705 P 615.936 -6.144 -6.45285 0
M  V30 7706 O 615.716 -7.54673 -6.86199 0
M  V30 7707 O 615.146 -5.12391 -7.179 0
M  V30 7708 O 615.686 -5.99158 -4.88404 0
M  V30 7709 C 616.626 -6.60234 -3.96415 0
M  V30 7710 C 615.896 -7.08259 -2.72856 0
M  V30 7711 O 615.686 -5.9427 -1.83651 0
M  V30 7712 C 614.496 -7.64886 -2.9555 0
M  V30 7713 O 614.106 -8.53963 -1.90717 0
M  V30 7714 C 613.616 -6.4116 -2.90739 0
M  V30 7715 C 614.326 -5.55375 -1.86963 0
M  V30 7716 N 614.276 -4.09664 -2.15742 0
M  V30 7717 H 617.115 -7.45574 -4.45629 0
M  V30 7718 H 617.387 -5.86232 -3.67314 0
M  V30 7719 H 616.519 -7.84412 -2.24479 0
M  V30 7720 P 612.556 -8.7635 -1.60911 0
M  V30 7721 O 612.336 -10.1388 -1.11561 0
M  V30 7722 O 611.766 -8.36503 -2.79617 0
M  V30 7723 O 612.306 -7.71806 -0.42951 0
M  V30 7724 C 613.246 -7.67148 0.673689 0
M  V30 7725 C 612.516 -7.33374 1.95559 0
M  V30 7726 O 612.306 -5.88721 2.00726 0
M  V30 7727 C 611.116 -7.92526 2.10483 0
M  V30 7728 O 610.726 -8.02971 3.47653 0
M  V30 7729 C 610.236 -6.89602 1.41652 0
M  V30 7730 C 610.946 -5.59201 1.75185 0
M  V30 7731 N 610.896 -4.58301 0.657969 0
M  V30 7732 H 613.735 -8.65116 0.777161 0
M  V30 7733 H 614.007 -6.9022 0.46725 0
M  V30 7734 H 613.139 -7.66548 2.79458 0
M  V30 7735 H 610.484 -5.16165 2.65183 0
M  V30 7736 H 610.204 -7.06433 0.329384 0
M  V30 7737 H 609.213 -6.90926 1.82021 0
M  V30 7738 H 611.047 -8.90873 1.62657 0
M  V30 7739 P 609.176 -8.03563 3.84925 0
M  V30 7740 O 608.956 -8.85821 5.0569 0
M  V30 7741 O 608.386 -8.41101 2.65469 0
M  V30 7742 O 608.926 -6.4965 4.18908 0
M  V30 7743 C 609.866 -5.81037 5.05421 0
M  V30 7744 C 609.136 -4.78366 5.89277 0
M  V30 7745 O 608.926 -3.58302 5.08433 0
M  V30 7746 C 607.736 -5.17448 6.36119 0
M  V30 7747 O 607.346 -4.45271 7.53232 0
M  V30 7748 C 606.856 -4.74639 5.19936 0
M  V30 7749 C 607.566 -3.49432 4.70418 0
M  V30 7750 N 607.516 -3.31776 3.22945 0
M  V30 7751 H 610.355 -6.54213 5.71376 0
M  V30 7752 H 610.627 -5.30492 4.44033 0
M  V30 7753 H 609.759 -4.55889 6.76652 0
M  V30 7754 P 605.796 -4.23843 7.83734 0
M  V30 7755 O 605.576 -4.19407 9.29784 0
M  V30 7756 O 605.006 -5.24426 7.09156 0
M  V30 7757 O 605.546 -2.7935 7.20758 0
M  V30 7758 C 606.486 -1.7299 7.50419 0
M  V30 7759 C 605.756 -0.406376 7.57911 0
M  V30 7760 O 605.546 0.0897726 6.21935 0
M  V30 7761 C 604.356 -0.447224 8.1878 0
M  V30 7762 O 603.966 0.825065 8.71101 0
M  V30 7763 C 603.476 -0.783801 6.99623 0
M  V30 7764 C 604.186 -0.0619192 5.85967 0
M  V30 7765 N 604.136 -0.790462 4.56202 0
M  V30 7766 H 606.975 -1.93423 8.4679 0
M  V30 7767 H 607.247 -1.68852 6.70877 0
M  V30 7768 H 606.379 0.289041 8.15388 0
M  V30 7769 H 603.724 0.927006 5.72848 0
M  V30 7770 H 603.444 -1.86973 6.82036 0
M  V30 7771 H 602.453 -0.403953 7.13357 0
M  V30 7772 H 604.287 -1.20599 8.97534 0
M  V30 7773 P 602.416 1.17771 8.83182 0
M  V30 7774 O 602.196 2.07206 9.98732 0
M  V30 7775 O 601.626 -0.0743816 8.81969 0
M  V30 7776 O 602.166 1.97652 7.47304 0
M  V30 7777 C 603.106 3.01133 7.08783 0
M  V30 7778 C 602.376 4.12613 6.37049 0
M  V30 7779 O 602.166 3.72827 4.97879 0
M  V30 7780 C 600.976 4.45085 6.88694 0
M  V30 7781 O 600.586 5.7877 6.5624 0
M  V30 7782 C 600.096 3.47817 6.12078 0
M  V30 7783 C 600.806 3.39414 4.77697 0
M  V30 7784 N 600.756 2.04615 4.15333 0
M  V30 7785 H 603.595 3.41248 7.98759 0
M  V30 7786 H 603.867 2.5837 6.41742 0
M  V30 7787 H 602.999 5.02657 6.42673 0
M  V30 7788 P 599.036 6.144 6.45285 0
M  V30 7789 O 598.816 7.54673 6.86199 0
M  V30 7790 O 598.246 5.12391 7.179 0
M  V30 7791 O 598.786 5.99158 4.88404 0
M  V30 7792 C 599.726 6.60234 3.96415 0
M  V30 7793 C 598.996 7.08259 2.72856 0
M  V30 7794 O 598.786 5.9427 1.83651 0
M  V30 7795 C 597.596 7.64886 2.9555 0
M  V30 7796 O 597.206 8.53963 1.90717 0
M  V30 7797 C 596.716 6.4116 2.90739 0
M  V30 7798 C 597.426 5.55375 1.86963 0
M  V30 7799 N 597.376 4.09664 2.15742 0
M  V30 7800 H 600.215 7.45574 4.45629 0
M  V30 7801 H 600.487 5.86232 3.67314 0
M  V30 7802 H 599.619 7.84412 2.24479 0
M  V30 7803 P 595.656 8.7635 1.60911 0
M  V30 7804 O 595.437 10.1388 1.11561 0
M  V30 7805 O 594.866 8.36503 2.79617 0
M  V30 7806 O 595.406 7.71806 0.42951 0
M  V30 7807 C 596.346 7.67148 -0.673689 0
M  V30 7808 C 595.616 7.33374 -1.95559 0
M  V30 7809 O 595.406 5.88721 -2.00726 0
M  V30 7810 C 594.216 7.92526 -2.10483 0
M  V30 7811 O 593.827 8.02971 -3.47653 0
M  V30 7812 C 593.337 6.89602 -1.41652 0
M  V30 7813 C 594.046 5.59201 -1.75185 0
M  V30 7814 N 593.996 4.58301 -0.657969 0
M  V30 7815 H 596.836 8.65116 -0.777161 0
M  V30 7816 H 597.107 6.9022 -0.46725 0
M  V30 7817 H 596.24 7.66548 -2.79458 0
M  V30 7818 H 593.584 5.16165 -2.65183 0
M  V30 7819 H 593.304 7.06433 -0.329384 0
M  V30 7820 H 592.313 6.90926 -1.82021 0
M  V30 7821 H 594.147 8.90873 -1.62657 0
M  V30 7822 P 592.277 8.03563 -3.84925 0
M  V30 7823 O 592.057 8.85821 -5.0569 0
M  V30 7824 O 591.487 8.41101 -2.65469 0
M  V30 7825 O 592.027 6.4965 -4.18908 0
M  V30 7826 C 592.967 5.81037 -5.05421 0
M  V30 7827 C 592.237 4.78366 -5.89277 0
M  V30 7828 O 592.027 3.58302 -5.08433 0
M  V30 7829 C 590.837 5.17448 -6.36119 0
M  V30 7830 O 590.447 4.45271 -7.53232 0
M  V30 7831 C 589.957 4.74639 -5.19936 0
M  V30 7832 C 590.667 3.49432 -4.70418 0
M  V30 7833 N 590.617 3.31776 -3.22945 0
M  V30 7834 H 593.456 6.54213 -5.71376 0
M  V30 7835 H 593.728 5.30492 -4.44033 0
M  V30 7836 H 592.86 4.55889 -6.76652 0
M  V30 7837 P 588.897 4.23843 -7.83734 0
M  V30 7838 O 588.677 4.19407 -9.29784 0
M  V30 7839 O 588.107 5.24426 -7.09156 0
M  V30 7840 O 588.647 2.7935 -7.20758 0
M  V30 7841 C 589.587 1.7299 -7.50419 0
M  V30 7842 C 588.857 0.406376 -7.57911 0
M  V30 7843 O 588.647 -0.0897726 -6.21935 0
M  V30 7844 C 587.457 0.447224 -8.1878 0
M  V30 7845 O 587.067 -0.825065 -8.71101 0
M  V30 7846 C 586.577 0.783801 -6.99623 0
M  V30 7847 C 587.287 0.0619192 -5.85967 0
M  V30 7848 N 587.237 0.7859 -4.56281 0
M  V30 7849 H 590.076 1.93423 -8.4679 0
M  V30 7850 H 590.348 1.68181 -6.71046 0
M  V30 7851 H 589.48 -0.289041 -8.15388 0
M  V30 7852 P 585.517 -1.17771 -8.83182 0
M  V30 7853 O 585.297 -2.07206 -9.98732 0
M  V30 7854 O 584.727 0.0743816 -8.81969 0
M  V30 7855 O 585.267 -1.97652 -7.47304 0
M  V30 7856 C 586.207 -3.01133 -7.08783 0
M  V30 7857 C 585.477 -4.12613 -6.37049 0
M  V30 7858 O 585.267 -3.72827 -4.97879 0
M  V30 7859 C 584.077 -4.45085 -6.88694 0
M  V30 7860 O 583.687 -5.7877 -6.5624 0
M  V30 7861 C 583.197 -3.47817 -6.12078 0
M  V30 7862 C 583.907 -3.39414 -4.77697 0
M  V30 7863 N 583.857 -2.04615 -4.15333 0
M  V30 7864 H 586.696 -3.41248 -7.98759 0
M  V30 7865 H 586.968 -2.5837 -6.41742 0
M  V30 7866 H 586.1 -5.02657 -6.42673 0
M  V30 7867 P 582.137 -6.144 -6.45285 0
M  V30 7868 O 581.917 -7.54673 -6.86199 0
M  V30 7869 O 581.347 -5.12391 -7.179 0
M  V30 7870 O 581.887 -5.99158 -4.88404 0
M  V30 7871 C 582.827 -6.60062 -3.96313 0
M  V30 7872 C 582.097 -7.08259 -2.72856 0
M  V30 7873 O 581.887 -5.9427 -1.83651 0
M  V30 7874 C 580.697 -7.65087 -2.94749 0
M  V30 7875 O 580.307 -8.53963 -1.90717 0
M  V30 7876 C 579.817 -6.41069 -2.90698 0
M  V30 7877 C 580.527 -5.5528 -1.86931 0
M  V30 7878 N 580.477 -4.09575 -2.15696 0
M  V30 7879 C 580.327 -3.24249 -1.08435 0
M  V30 7880 O 580.237 -3.63946 0.0628747 0
M  V30 7881 N 580.287 -1.90009 -1.39973 0
M  V30 7882 C 580.377 -1.34884 -2.65614 0
M  V30 7883 C 580.527 -2.3145 -3.71736 0
M  V30 7884 C 580.577 -3.63518 -3.44754 0
M  V30 7885 H 583.318 -7.45402 -4.45526 0
M  V30 7886 H 583.587 -5.86062 -3.67208 0
M  V30 7887 H 582.72 -7.84412 -2.24479 0
M  V30 7888 H 580.065 -5.73358 -0.888409 0
M  V30 7889 H 579.786 -5.90877 -3.88583 0
M  V30 7890 H 578.794 -6.65867 -2.58821 0
M  V30 7891 H 580.628 -8.16248 -3.92006 0
M  V30 7892 H 580.699 -4.34551 -4.26383 0
M  V30 7893 P 578.757 -8.7635 -1.60911 0
M  V30 7894 O 578.537 -10.1388 -1.11561 0
M  V30 7895 O 577.967 -8.36503 -2.79617 0
M  V30 7896 O 578.507 -7.71806 -0.42951 0
M  V30 7897 C 579.447 -7.67148 0.673689 0
M  V30 7898 C 578.717 -7.33374 1.95559 0
M  V30 7899 O 578.507 -5.88721 2.00726 0
M  V30 7900 C 577.317 -7.92526 2.10483 0
M  V30 7901 O 576.927 -8.02971 3.47653 0
M  V30 7902 C 576.437 -6.89602 1.41652 0
M  V30 7903 C 577.147 -5.59201 1.75185 0
M  V30 7904 N 577.097 -4.58235 0.662552 0
M  V30 7905 H 579.936 -8.65116 0.777161 0
M  V30 7906 H 580.208 -6.90173 0.474152 0
M  V30 7907 H 579.34 -7.66548 2.79458 0
M  V30 7908 P 575.377 -8.03563 3.84925 0
M  V30 7909 O 575.157 -8.85821 5.0569 0
M  V30 7910 O 574.587 -8.41101 2.65469 0
M  V30 7911 O 575.127 -6.49734 4.18962 0
M  V30 7912 C 576.067 -5.81037 5.05421 0
M  V30 7913 C 575.337 -4.79018 5.88876 0
M  V30 7914 O 575.127 -3.58359 5.08515 0
M  V30 7915 C 573.937 -5.17448 6.36119 0
M  V30 7916 O 573.547 -4.45322 7.53318 0
M  V30 7917 C 573.057 -4.74639 5.19936 0
M  V30 7918 C 573.767 -3.49432 4.70418 0
M  V30 7919 N 573.717 -3.31776 3.22945 0
M  V30 7920 C 573.567 -2.02742 2.72939 0
M  V30 7921 O 573.477 -1.08301 3.52749 0
M  V30 7922 N 573.517 -1.96117 1.22063 0
M  V30 7923 C 573.617 -2.8878 0.551566 0
M  V30 7924 N 573.567 -2.65609 -0.750198 0
M  V30 7925 C 573.767 -4.22457 1.03707 0
M  V30 7926 C 573.817 -4.37979 2.39113 0
M  V30 7927 H 576.557 -6.54138 5.7131 0
M  V30 7928 H 576.827 -5.30492 4.44033 0
M  V30 7929 H 575.96 -4.55945 6.76735 0
M  V30 7930 H 573.305 -2.6176 5.18021 0
M  V30 7931 H 573.025 -5.52233 4.41941 0
M  V30 7932 H 572.034 -4.52045 5.53452 0
M  V30 7933 H 573.868 -6.25124 6.55234 0
M  V30 7934 H 573.94 -5.37936 2.80552 0
M  V30 7935 H 573.838 -5.07528 0.359553 0
M  V30 7936 H 573.45 -1.69403 -1.09847 0
M  V30 7937 H 573.646 -3.43701 -1.41792 0
M  V30 7938 P 571.997 -4.23843 7.83734 0
M  V30 7939 O 571.777 -4.19407 9.29784 0
M  V30 7940 O 571.207 -5.24426 7.09156 0
M  V30 7941 O 571.747 -2.7935 7.20758 0
M  V30 7942 C 572.687 -1.7299 7.50419 0
M  V30 7943 C 571.957 -0.406376 7.57911 0
M  V30 7944 O 571.747 0.0897726 6.21935 0
M  V30 7945 C 570.557 -0.447224 8.1878 0
M  V30 7946 O 570.167 0.825065 8.71101 0
M  V30 7947 C 569.677 -0.783801 6.99623 0
M  V30 7948 C 570.387 -0.0619192 5.85967 0
M  V30 7949 N 570.337 -0.7859 4.56281 0
M  V30 7950 C 570.417 -2.14308 4.31736 0
M  V30 7951 N 570.337 -2.46106 3.05116 0
M  V30 7952 C 570.197 -1.23422 2.4014 0
M  V30 7953 C 570.067 -0.938381 1.02409 0
M  V30 7954 N 569.947 0.444647 0.805413 0
M  V30 7955 C 569.947 1.40829 1.79435 0
M  V30 7956 N 569.817 2.67213 1.38558 0
M  V30 7957 N 570.077 1.12947 3.09005 0
M  V30 7958 C 570.197 -0.204887 3.32369 0
M  V30 7959 H 573.176 -1.93423 8.4679 0
M  V30 7960 H 573.448 -1.68181 6.71046 0
M  V30 7961 H 572.58 0.289041 8.15388 0
M  V30 7962 P 568.617 1.17771 8.83182 0
M  V30 7963 O 568.397 2.07206 9.98732 0
M  V30 7964 O 567.827 -0.0743816 8.81969 0
M  V30 7965 O 568.367 1.97652 7.47304 0
M  V30 7966 C 569.307 3.01133 7.08783 0
M  V30 7967 C 568.577 4.12613 6.37049 0
M  V30 7968 O 568.367 3.72827 4.97879 0
M  V30 7969 C 567.177 4.45085 6.88694 0
M  V30 7970 O 566.787 5.7877 6.5624 0
M  V30 7971 C 566.297 3.47817 6.12078 0
M  V30 7972 C 567.007 3.39414 4.77697 0
M  V30 7973 N 566.957 2.04199 4.15538 0
M  V30 7974 H 569.796 3.41248 7.98759 0
M  V30 7975 H 570.068 2.57728 6.42 0
M  V30 7976 H 569.2 5.02657 6.42673 0
M  V30 7977 H 566.545 4.11708 4.08956 0
M  V30 7978 H 566.265 2.49626 6.61679 0
M  V30 7979 H 565.274 3.8662 6.00862 0
M  V30 7980 H 567.108 4.29991 7.97006 0
M  V30 7981 P 565.237 6.144 6.45285 0
M  V30 7982 O 565.017 7.54673 6.86199 0
M  V30 7983 O 564.447 5.12391 7.179 0
M  V30 7984 O 564.987 5.99158 4.88404 0
M  V30 7985 C 565.927 6.60234 3.96415 0
M  V30 7986 C 565.197 7.08259 2.72856 0
M  V30 7987 O 564.987 5.9427 1.83651 0
M  V30 7988 C 563.797 7.64886 2.9555 0
M  V30 7989 O 563.407 8.53963 1.90717 0
M  V30 7990 C 562.917 6.4116 2.90739 0
M  V30 7991 C 563.627 5.55375 1.86963 0
M  V30 7992 N 563.577 4.09664 2.15742 0
M  V30 7993 H 566.416 7.45574 4.45629 0
M  V30 7994 H 566.688 5.86232 3.67314 0
M  V30 7995 H 565.82 7.84412 2.24479 0
M  V30 7996 P 561.857 8.7635 1.60911 0
M  V30 7997 O 561.637 10.1388 1.11561 0
M  V30 7998 O 561.067 8.36503 2.79617 0
M  V30 7999 O 561.607 7.71806 0.42951 0
M  V30 8000 C 562.547 7.66948 -0.673514 0
M  V30 8001 C 561.817 7.33374 -1.95559 0
M  V30 8002 O 561.607 5.88721 -2.00726 0
M  V30 8003 C 560.417 7.92218 -2.1125 0
M  V30 8004 O 560.027 8.02971 -3.47653 0
M  V30 8005 C 559.537 6.89504 -1.41631 0
M  V30 8006 C 560.247 5.59106 -1.75155 0
M  V30 8007 N 560.197 4.58136 -0.662409 0
M  V30 8008 C 560.047 3.26059 -1.02863 0
M  V30 8009 O 559.957 2.90743 -2.19009 0
M  V30 8010 N 560.007 2.35995 0.0155585 0
M  V30 8011 C 560.097 2.65248 1.35603 0
M  V30 8012 C 560.247 4.05747 1.64698 0
M  V30 8013 C 560.297 4.96734 0.652411 0
M  V30 8014 H 563.038 8.64917 -0.776982 0
M  V30 8015 H 563.307 6.89974 -0.474015 0
M  V30 8016 H 562.44 7.66548 -2.79458 0
M  V30 8017 H 559.785 5.16076 -2.65138 0
M  V30 8018 H 559.506 7.06433 -0.329384 0
M  V30 8019 H 558.514 6.90829 -1.81996 0
M  V30 8020 H 560.348 8.90774 -1.62639 0
M  V30 8021 H 560.419 6.02181 0.895285 0
M  V30 8022 P 558.477 8.03563 -3.84925 0
M  V30 8023 O 558.257 8.85821 -5.0569 0
M  V30 8024 O 557.687 8.41101 -2.65469 0
M  V30 8025 O 558.227 6.4965 -4.18908 0
M  V30 8026 C 559.167 5.81037 -5.05421 0
M  V30 8027 C 558.437 4.78366 -5.89277 0
M  V30 8028 O 558.227 3.58302 -5.08433 0
M  V30 8029 C 557.037 5.17448 -6.36119 0
M  V30 8030 O 556.647 4.45271 -7.53232 0
M  V30 8031 C 556.157 4.74639 -5.19936 0
M  V30 8032 C 556.867 3.49432 -4.70418 0
M  V30 8033 N 556.817 3.31776 -3.22945 0
M  V30 8034 H 559.656 6.54213 -5.71376 0
M  V30 8035 H 559.928 5.30492 -4.44033 0
M  V30 8036 H 559.06 4.55889 -6.76652 0
M  V30 8037 P 555.097 4.23843 -7.83734 0
M  V30 8038 O 554.877 4.19407 -9.29784 0
M  V30 8039 O 554.307 5.24426 -7.09156 0
M  V30 8040 O 554.847 2.7935 -7.20758 0
M  V30 8041 C 555.787 1.7299 -7.50419 0
M  V30 8042 C 555.057 0.406376 -7.57911 0
M  V30 8043 O 554.847 -0.0897726 -6.21935 0
M  V30 8044 C 553.657 0.447224 -8.1878 0
M  V30 8045 O 553.267 -0.825065 -8.71101 0
M  V30 8046 C 552.777 0.783801 -6.99623 0
M  V30 8047 C 553.487 0.0619192 -5.85967 0
M  V30 8048 N 553.437 0.7859 -4.56281 0
M  V30 8049 H 556.276 1.93423 -8.4679 0
M  V30 8050 H 556.548 1.68181 -6.71046 0
M  V30 8051 H 555.68 -0.289041 -8.15388 0
M  V30 8052 P 551.717 -1.17771 -8.83182 0
M  V30 8053 O 551.497 -2.07206 -9.98732 0
M  V30 8054 O 550.927 0.0743816 -8.81969 0
M  V30 8055 O 551.467 -1.97652 -7.47304 0
M  V30 8056 C 552.407 -3.01133 -7.08783 0
M  V30 8057 C 551.677 -4.12613 -6.37049 0
M  V30 8058 O 551.467 -3.72827 -4.97879 0
M  V30 8059 C 550.277 -4.45085 -6.88694 0
M  V30 8060 O 549.887 -5.7877 -6.5624 0
M  V30 8061 C 549.397 -3.47817 -6.12078 0
M  V30 8062 C 550.107 -3.39414 -4.77697 0
M  V30 8063 N 550.057 -2.04615 -4.15333 0
M  V30 8064 H 552.896 -3.41248 -7.98759 0
M  V30 8065 H 553.168 -2.5837 -6.41742 0
M  V30 8066 H 552.3 -5.02657 -6.42673 0
M  V30 8067 P 548.337 -6.144 -6.45285 0
M  V30 8068 O 548.117 -7.54673 -6.86199 0
M  V30 8069 O 547.547 -5.12391 -7.179 0
M  V30 8070 O 548.087 -5.99158 -4.88404 0
M  V30 8071 C 549.027 -6.60234 -3.96415 0
M  V30 8072 C 548.297 -7.08259 -2.72856 0
M  V30 8073 O 548.087 -5.9427 -1.83651 0
M  V30 8074 C 546.897 -7.64886 -2.9555 0
M  V30 8075 O 546.507 -8.53963 -1.90717 0
M  V30 8076 C 546.017 -6.4116 -2.90739 0
M  V30 8077 C 546.727 -5.55375 -1.86963 0
M  V30 8078 N 546.677 -4.09664 -2.15742 0
M  V30 8079 C 546.757 -3.44381 -3.37233 0
M  V30 8080 N 546.677 -2.14131 -3.28347 0
M  V30 8081 C 546.537 -1.90247 -1.91588 0
M  V30 8082 C 546.407 -0.683992 -1.20892 0
M  V30 8083 N 546.287 -0.903396 0.173998 0
M  V30 8084 C 546.287 -2.14171 0.784879 0
M  V30 8085 N 546.157 -2.1435 2.11317 0
M  V30 8086 N 546.417 -3.28784 0.119316 0
M  V30 8087 C 546.537 -3.0977 -1.22194 0
M  V30 8088 H 549.516 -7.45574 -4.45629 0
M  V30 8089 H 549.788 -5.86232 -3.67314 0
M  V30 8090 H 548.92 -7.84412 -2.24479 0
M  V30 8091 P 544.957 -8.7635 -1.60911 0
M  V30 8092 O 544.737 -10.1388 -1.11561 0
M  V30 8093 O 544.167 -8.36503 -2.79617 0
M  V30 8094 O 544.707 -7.71806 -0.42951 0
M  V30 8095 C 545.647 -7.67148 0.673689 0
M  V30 8096 C 544.917 -7.33374 1.95559 0
M  V30 8097 O 544.707 -5.88721 2.00726 0
M  V30 8098 C 543.517 -7.92526 2.10483 0
M  V30 8099 O 543.127 -8.02971 3.47653 0
M  V30 8100 C 542.637 -6.89602 1.41652 0
M  V30 8101 C 543.347 -5.59201 1.75185 0
M  V30 8102 N 543.297 -4.58235 0.662552 0
M  V30 8103 C 543.377 -4.7683 -0.704049 0
M  V30 8104 N 543.297 -3.66233 -1.39775 0
M  V30 8105 C 543.157 -2.66526 -0.431739 0
M  V30 8106 C 543.027 -1.26394 -0.575992 0
M  V30 8107 O 543.007 -0.589894 -1.60503 0
M  V30 8108 N 542.907 -0.62859 0.67177 0
M  V30 8109 C 542.907 -1.27134 1.89385 0
M  V30 8110 N 542.777 -0.492035 2.96951 0
M  V30 8111 N 543.037 -2.58978 2.02907 0
M  V30 8112 C 543.157 -3.22433 0.832218 0
M  V30 8113 H 546.136 -8.65116 0.777161 0
M  V30 8114 H 546.408 -6.90173 0.474152 0
M  V30 8115 H 545.54 -7.66548 2.79458 0
M  V30 8116 H 542.885 -5.16254 2.65229 0
M  V30 8117 H 542.605 -7.06532 0.329431 0
M  V30 8118 H 541.614 -6.91023 1.82047 0
M  V30 8119 H 543.448 -8.90971 1.62675 0
M  V30 8120 H 543.497 -5.74954 -1.16305 0
M  V30 8121 H 542.815 0.366713 0.674793 0
M  V30 8122 H 542.778 -0.908532 3.91188 0
M  V30 8123 H 542.677 0.528253 2.85758 0
M  V30 8124 P 541.577 -8.03563 3.84925 0
M  V30 8125 O 541.357 -8.85821 5.0569 0
M  V30 8126 O 540.787 -8.41101 2.65469 0
M  V30 8127 O 541.327 -6.4965 4.18908 0
M  V30 8128 C 542.267 -5.81037 5.05421 0
M  V30 8129 C 541.537 -4.78366 5.89277 0
M  V30 8130 O 541.327 -3.58302 5.08433 0
M  V30 8131 C 540.137 -5.17448 6.36119 0
M  V30 8132 O 539.747 -4.45271 7.53232 0
M  V30 8133 C 539.257 -4.74639 5.19936 0
M  V30 8134 C 539.967 -3.49432 4.70418 0
M  V30 8135 N 539.917 -3.31776 3.22945 0
M  V30 8136 H 542.756 -6.54213 5.71376 0
M  V30 8137 H 543.028 -5.30492 4.44033 0
M  V30 8138 H 542.16 -4.55889 6.76652 0
M  V30 8139 P 538.197 -4.23843 7.83734 0
M  V30 8140 O 537.977 -4.19407 9.29784 0
M  V30 8141 O 537.407 -5.24426 7.09156 0
M  V30 8142 O 537.947 -2.7935 7.20758 0
M  V30 8143 C 538.887 -1.7299 7.50419 0
M  V30 8144 C 538.157 -0.406376 7.57911 0
M  V30 8145 O 537.947 0.0897726 6.21935 0
M  V30 8146 C 536.757 -0.447224 8.1878 0
M  V30 8147 O 536.367 0.825065 8.71101 0
M  V30 8148 C 535.877 -0.783801 6.99623 0
M  V30 8149 C 536.587 -0.0619192 5.85967 0
M  V30 8150 N 536.537 -0.7859 4.56281 0
M  V30 8151 H 539.376 -1.93423 8.4679 0
M  V30 8152 H 539.648 -1.68181 6.71046 0
M  V30 8153 H 538.78 0.289041 8.15388 0
M  V30 8154 P 534.817 1.17771 8.83182 0
M  V30 8155 O 534.597 2.07206 9.98732 0
M  V30 8156 O 534.027 -0.0743816 8.81969 0
M  V30 8157 O 534.567 1.97652 7.47304 0
M  V30 8158 C 535.507 3.01133 7.08783 0
M  V30 8159 C 534.777 4.12613 6.37049 0
M  V30 8160 O 534.567 3.72827 4.97879 0
M  V30 8161 C 533.377 4.45085 6.88694 0
M  V30 8162 O 532.987 5.7877 6.5624 0
M  V30 8163 C 532.497 3.47817 6.12078 0
M  V30 8164 C 533.207 3.39414 4.77697 0
M  V30 8165 N 533.157 2.04615 4.15333 0
M  V30 8166 H 535.996 3.41248 7.98759 0
M  V30 8167 H 536.268 2.5837 6.41742 0
M  V30 8168 H 535.4 5.02657 6.42673 0
M  V30 8169 P 531.437 6.144 6.45285 0
M  V30 8170 O 531.217 7.54673 6.86199 0
M  V30 8171 O 530.647 5.12391 7.179 0
M  V30 8172 O 531.187 5.99158 4.88404 0
M  V30 8173 C 532.127 6.60234 3.96415 0
M  V30 8174 C 531.397 7.08259 2.72856 0
M  V30 8175 O 531.187 5.9427 1.83651 0
M  V30 8176 C 529.997 7.64886 2.9555 0
M  V30 8177 O 529.607 8.53963 1.90717 0
M  V30 8178 C 529.117 6.4116 2.90739 0
M  V30 8179 C 529.827 5.55375 1.86963 0
M  V30 8180 N 529.777 4.09448 2.16152 0
M  V30 8181 H 532.616 7.45574 4.45629 0
M  V30 8182 H 532.888 5.85864 3.679 0
M  V30 8183 H 532.02 7.84412 2.24479 0
M  V30 8184 H 529.365 5.73457 0.888562 0
M  V30 8185 H 529.085 5.90877 3.88583 0
M  V30 8186 H 528.094 6.6596 2.58858 0
M  V30 8187 H 529.928 8.16339 3.92049 0
M  V30 8188 P 528.057 8.7635 1.60911 0
M  V30 8189 O 527.837 10.1388 1.11561 0
M  V30 8190 O 527.267 8.36503 2.79617 0
M  V30 8191 O 527.807 7.71806 0.42951 0
M  V30 8192 C 528.747 7.67148 -0.673689 0
M  V30 8193 C 528.017 7.33374 -1.95559 0
M  V30 8194 O 527.807 5.88721 -2.00726 0
M  V30 8195 C 526.617 7.92526 -2.10483 0
M  V30 8196 O 526.227 8.02971 -3.47653 0
M  V30 8197 C 525.737 6.89602 -1.41652 0
M  V30 8198 C 526.447 5.59201 -1.75185 0
M  V30 8199 N 526.397 4.58235 -0.662552 0
M  V30 8200 H 529.236 8.65116 -0.777161 0
M  V30 8201 H 529.508 6.90173 -0.474152 0
M  V30 8202 H 528.64 7.66548 -2.79458 0
M  V30 8203 P 524.677 8.03563 -3.84925 0
M  V30 8204 O 524.457 8.85821 -5.0569 0
M  V30 8205 O 523.887 8.41101 -2.65469 0
M  V30 8206 O 524.427 6.4965 -4.18908 0
M  V30 8207 C 525.367 5.81037 -5.05421 0
M  V30 8208 C 524.637 4.78366 -5.89277 0
M  V30 8209 O 524.427 3.58302 -5.08433 0
M  V30 8210 C 523.237 5.17448 -6.36119 0
M  V30 8211 O 522.847 4.45271 -7.53232 0
M  V30 8212 C 522.357 4.74639 -5.19936 0
M  V30 8213 C 523.067 3.49432 -4.70418 0
M  V30 8214 N 523.017 3.31776 -3.22945 0
M  V30 8215 C 523.097 4.27147 -2.23315 0
M  V30 8216 N 523.017 3.78447 -1.02186 0
M  V30 8217 C 522.877 2.41001 -1.21732 0
M  V30 8218 C 522.747 1.36111 -0.27694 0
M  V30 8219 N 522.627 0.113683 -0.912949 0
M  V30 8220 C 522.627 -0.0846396 -2.27943 0
M  V30 8221 N 522.497 -1.34737 -2.6916 0
M  V30 8222 N 522.757 0.902521 -3.16379 0
M  V30 8223 C 522.877 2.11937 -2.56849 0
M  V30 8224 H 525.856 6.54213 -5.71376 0
M  V30 8225 H 526.128 5.30492 -4.44033 0
M  V30 8226 H 525.26 4.55889 -6.76652 0
M  V30 8227 P 521.297 4.23843 -7.83734 0
M  V30 8228 O 521.077 4.19407 -9.29784 0
M  V30 8229 O 520.507 5.24426 -7.09156 0
M  V30 8230 O 521.047 2.7935 -7.20758 0
M  V30 8231 C 521.987 1.7299 -7.50419 0
M  V30 8232 C 521.257 0.406376 -7.57911 0
M  V30 8233 O 521.047 -0.0897726 -6.21935 0
M  V30 8234 C 519.857 0.447224 -8.1878 0
M  V30 8235 O 519.467 -0.825065 -8.71101 0
M  V30 8236 C 518.977 0.783801 -6.99623 0
M  V30 8237 C 519.687 0.0619192 -5.85967 0
M  V30 8238 N 519.637 0.7859 -4.56281 0
M  V30 8239 H 522.476 1.93423 -8.4679 0
M  V30 8240 H 522.748 1.68181 -6.71046 0
M  V30 8241 H 521.88 -0.289041 -8.15388 0
M  V30 8242 P 517.917 -1.17771 -8.83182 0
M  V30 8243 O 517.697 -2.07206 -9.98732 0
M  V30 8244 O 517.127 0.0743816 -8.81969 0
M  V30 8245 O 517.667 -1.97652 -7.47304 0
M  V30 8246 C 518.607 -3.01133 -7.08783 0
M  V30 8247 C 517.877 -4.12613 -6.37049 0
M  V30 8248 O 517.667 -3.72827 -4.97879 0
M  V30 8249 C 516.477 -4.45085 -6.88694 0
M  V30 8250 O 516.087 -5.7877 -6.5624 0
M  V30 8251 C 515.597 -3.47817 -6.12078 0
M  V30 8252 C 516.307 -3.39414 -4.77697 0
M  V30 8253 N 516.257 -2.04615 -4.15333 0
M  V30 8254 H 519.096 -3.41248 -7.98759 0
M  V30 8255 H 519.368 -2.5837 -6.41742 0
M  V30 8256 H 518.5 -5.02657 -6.42673 0
M  V30 8257 P 514.537 -6.144 -6.45285 0
M  V30 8258 O 514.317 -7.54673 -6.86199 0
M  V30 8259 O 513.747 -5.12391 -7.179 0
M  V30 8260 O 514.287 -5.99158 -4.88404 0
M  V30 8261 C 515.227 -6.60234 -3.96415 0
M  V30 8262 C 514.497 -7.08259 -2.72856 0
M  V30 8263 O 514.287 -5.9427 -1.83651 0
M  V30 8264 C 513.097 -7.64886 -2.9555 0
M  V30 8265 O 512.707 -8.53963 -1.90717 0
M  V30 8266 C 512.217 -6.4116 -2.90739 0
M  V30 8267 C 512.927 -5.55375 -1.86963 0
M  V30 8268 N 512.877 -4.09664 -2.15742 0
M  V30 8269 H 515.716 -7.45574 -4.45629 0
M  V30 8270 H 515.988 -5.86232 -3.67314 0
M  V30 8271 H 515.12 -7.84412 -2.24479 0
M  V30 8272 P 511.157 -8.7635 -1.60911 0
M  V30 8273 O 510.937 -10.1388 -1.11561 0
M  V30 8274 O 510.367 -8.36503 -2.79617 0
M  V30 8275 O 510.907 -7.71806 -0.42951 0
M  V30 8276 C 511.847 -7.67148 0.673689 0
M  V30 8277 C 511.117 -7.33374 1.95559 0
M  V30 8278 O 510.907 -5.88721 2.00726 0
M  V30 8279 C 509.717 -7.92526 2.10483 0
M  V30 8280 O 509.327 -8.02971 3.47653 0
M  V30 8281 C 508.837 -6.89602 1.41652 0
M  V30 8282 C 509.547 -5.59201 1.75185 0
M  V30 8283 N 509.497 -4.58235 0.662552 0
M  V30 8284 H 512.336 -8.65116 0.777161 0
M  V30 8285 H 512.608 -6.90173 0.474152 0
M  V30 8286 H 511.74 -7.66548 2.79458 0
M  V30 8287 P 507.777 -8.03563 3.84925 0
M  V30 8288 O 507.557 -8.85821 5.0569 0
M  V30 8289 O 506.987 -8.41101 2.65469 0
M  V30 8290 O 507.527 -6.49734 4.18962 0
M  V30 8291 C 508.467 -5.81037 5.05421 0
M  V30 8292 C 507.737 -4.79018 5.88876 0
M  V30 8293 O 507.527 -3.58359 5.08515 0
M  V30 8294 C 506.337 -5.17448 6.36119 0
M  V30 8295 O 505.947 -4.45322 7.53318 0
M  V30 8296 C 505.457 -4.74639 5.19936 0
M  V30 8297 C 506.167 -3.49432 4.70418 0
M  V30 8298 N 506.117 -3.31776 3.22945 0
M  V30 8299 C 505.967 -2.02742 2.72939 0
M  V30 8300 O 505.877 -1.08301 3.52749 0
M  V30 8301 N 505.917 -1.96117 1.22063 0
M  V30 8302 C 506.017 -2.8878 0.551566 0
M  V30 8303 N 505.967 -2.65609 -0.750198 0
M  V30 8304 C 506.167 -4.22457 1.03707 0
M  V30 8305 C 506.217 -4.37979 2.39113 0
M  V30 8306 H 508.957 -6.54138 5.7131 0
M  V30 8307 H 509.227 -5.30492 4.44033 0
M  V30 8308 H 508.36 -4.55945 6.76735 0
M  V30 8309 H 505.705 -2.6176 5.18021 0
M  V30 8310 H 505.425 -5.52233 4.41941 0
M  V30 8311 H 504.434 -4.52045 5.53452 0
M  V30 8312 H 506.268 -6.25124 6.55234 0
M  V30 8313 H 506.34 -5.37936 2.80552 0
M  V30 8314 H 506.238 -5.07528 0.359553 0
M  V30 8315 H 505.85 -1.69403 -1.09847 0
M  V30 8316 H 506.046 -3.43701 -1.41792 0
M  V30 8317 P 504.397 -4.23843 7.83734 0
M  V30 8318 O 504.177 -4.19407 9.29784 0
M  V30 8319 O 503.607 -5.24426 7.09156 0
M  V30 8320 O 504.147 -2.7935 7.20758 0
M  V30 8321 C 505.087 -1.7299 7.50419 0
M  V30 8322 C 504.357 -0.406376 7.57911 0
M  V30 8323 O 504.147 0.0897726 6.21935 0
M  V30 8324 C 502.957 -0.447224 8.1878 0
M  V30 8325 O 502.567 0.825065 8.71101 0
M  V30 8326 C 502.077 -0.783801 6.99623 0
M  V30 8327 C 502.787 -0.0619192 5.85967 0
M  V30 8328 N 502.737 -0.7859 4.56281 0
M  V30 8329 H 505.576 -1.93423 8.4679 0
M  V30 8330 H 505.848 -1.68181 6.71046 0
M  V30 8331 H 504.98 0.289041 8.15388 0
M  V30 8332 P 501.017 1.17771 8.83182 0
M  V30 8333 O 500.797 2.07206 9.98732 0
M  V30 8334 O 500.227 -0.0743816 8.81969 0
M  V30 8335 O 500.767 1.97652 7.47304 0
M  V30 8336 C 501.707 3.01133 7.08783 0
M  V30 8337 C 500.977 4.12613 6.37049 0
M  V30 8338 O 500.767 3.72827 4.97879 0
M  V30 8339 C 499.577 4.45085 6.88694 0
M  V30 8340 O 499.187 5.7877 6.5624 0
M  V30 8341 C 498.697 3.47817 6.12078 0
M  V30 8342 C 499.407 3.39414 4.77697 0
M  V30 8343 N 499.357 2.04199 4.15538 0
M  V30 8344 H 502.196 3.41248 7.98759 0
M  V30 8345 H 502.468 2.57728 6.42 0
M  V30 8346 H 501.6 5.02657 6.42673 0
M  V30 8347 H 498.945 4.11708 4.08956 0
M  V30 8348 H 498.665 2.49626 6.61679 0
M  V30 8349 H 497.674 3.8662 6.00862 0
M  V30 8350 H 499.508 4.29991 7.97006 0
M  V30 8351 P 497.637 6.144 6.45285 0
M  V30 8352 O 497.417 7.54673 6.86199 0
M  V30 8353 O 496.847 5.12391 7.179 0
M  V30 8354 O 497.387 5.99158 4.88404 0
M  V30 8355 C 498.327 6.60234 3.96415 0
M  V30 8356 C 497.597 7.08259 2.72856 0
M  V30 8357 O 497.387 5.9427 1.83651 0
M  V30 8358 C 496.197 7.64886 2.9555 0
M  V30 8359 O 495.807 8.53963 1.90717 0
M  V30 8360 C 495.317 6.4116 2.90739 0
M  V30 8361 C 496.027 5.55375 1.86963 0
M  V30 8362 N 495.977 4.09448 2.16152 0
M  V30 8363 H 498.816 7.45574 4.45629 0
M  V30 8364 H 499.088 5.85864 3.679 0
M  V30 8365 H 498.22 7.84412 2.24479 0
M  V30 8366 H 495.565 5.73457 0.888562 0
M  V30 8367 H 495.285 5.90877 3.88583 0
M  V30 8368 H 494.294 6.6596 2.58858 0
M  V30 8369 H 496.128 8.16339 3.92049 0
M  V30 8370 P 494.257 8.7635 1.60911 0
M  V30 8371 O 494.037 10.1388 1.11561 0
M  V30 8372 O 493.467 8.36503 2.79617 0
M  V30 8373 O 494.007 7.71806 0.42951 0
M  V30 8374 C 494.947 7.67148 -0.673689 0
M  V30 8375 C 494.217 7.33374 -1.95559 0
M  V30 8376 O 494.007 5.88721 -2.00726 0
M  V30 8377 C 492.817 7.92526 -2.10483 0
M  V30 8378 O 492.427 8.02971 -3.47653 0
M  V30 8379 C 491.937 6.89602 -1.41652 0
M  V30 8380 C 492.647 5.59201 -1.75185 0
M  V30 8381 N 492.597 4.58235 -0.662552 0
M  V30 8382 H 495.436 8.65116 -0.777161 0
M  V30 8383 H 495.708 6.90173 -0.474152 0
M  V30 8384 H 494.84 7.66548 -2.79458 0
M  V30 8385 P 490.877 8.03563 -3.84925 0
M  V30 8386 O 490.657 8.85821 -5.0569 0
M  V30 8387 O 490.087 8.41101 -2.65469 0
M  V30 8388 O 490.627 6.4965 -4.18908 0
M  V30 8389 C 491.567 5.81037 -5.05421 0
M  V30 8390 C 490.837 4.78366 -5.89277 0
M  V30 8391 O 490.627 3.58302 -5.08433 0
M  V30 8392 C 489.437 5.17448 -6.36119 0
M  V30 8393 O 489.047 4.45271 -7.53232 0
M  V30 8394 C 488.557 4.74639 -5.19936 0
M  V30 8395 C 489.267 3.49432 -4.70418 0
M  V30 8396 N 489.217 3.31776 -3.22945 0
M  V30 8397 H 492.056 6.54213 -5.71376 0
M  V30 8398 H 492.328 5.30492 -4.44033 0
M  V30 8399 H 491.46 4.55889 -6.76652 0
M  V30 8400 P 487.497 4.23843 -7.83734 0
M  V30 8401 O 487.277 4.19407 -9.29784 0
M  V30 8402 O 486.707 5.24426 -7.09156 0
M  V30 8403 O 487.247 2.7935 -7.20758 0
M  V30 8404 C 488.187 1.7299 -7.50419 0
M  V30 8405 C 487.457 0.406376 -7.57911 0
M  V30 8406 O 487.247 -0.0897726 -6.21935 0
M  V30 8407 C 486.057 0.447224 -8.1878 0
M  V30 8408 O 485.667 -0.825065 -8.71101 0
M  V30 8409 C 485.177 0.783801 -6.99623 0
M  V30 8410 C 485.887 0.0619192 -5.85967 0
M  V30 8411 N 485.837 0.7859 -4.56281 0
M  V30 8412 H 488.676 1.93423 -8.4679 0
M  V30 8413 H 488.948 1.68181 -6.71046 0
M  V30 8414 H 488.08 -0.289041 -8.15388 0
M  V30 8415 P 484.117 -1.17771 -8.83182 0
M  V30 8416 O 483.897 -2.07206 -9.98732 0
M  V30 8417 O 483.327 0.0743816 -8.81969 0
M  V30 8418 O 483.867 -1.97652 -7.47304 0
M  V30 8419 C 484.807 -3.01133 -7.08783 0
M  V30 8420 C 484.077 -4.12613 -6.37049 0
M  V30 8421 O 483.867 -3.72827 -4.97879 0
M  V30 8422 C 482.677 -4.45085 -6.88694 0
M  V30 8423 O 482.287 -5.7877 -6.5624 0
M  V30 8424 C 481.797 -3.47817 -6.12078 0
M  V30 8425 C 482.507 -3.39414 -4.77697 0
M  V30 8426 N 482.457 -2.04199 -4.15538 0
M  V30 8427 H 485.296 -3.41248 -7.98759 0
M  V30 8428 H 485.568 -2.57728 -6.42 0
M  V30 8429 H 484.7 -5.02657 -6.42673 0
M  V30 8430 H 482.045 -4.11708 -4.08956 0
M  V30 8431 H 481.765 -2.49626 -6.61679 0
M  V30 8432 H 480.774 -3.8662 -6.00862 0
M  V30 8433 H 482.608 -4.29991 -7.97006 0
M  V30 8434 P 480.737 -6.144 -6.45285 0
M  V30 8435 O 480.517 -7.54673 -6.86199 0
M  V30 8436 O 479.947 -5.12391 -7.179 0
M  V30 8437 O 480.487 -5.99158 -4.88404 0
M  V30 8438 C 481.427 -6.60234 -3.96415 0
M  V30 8439 C 480.697 -7.08259 -2.72856 0
M  V30 8440 O 480.487 -5.9427 -1.83651 0
M  V30 8441 C 479.297 -7.64886 -2.9555 0
M  V30 8442 O 478.907 -8.53963 -1.90717 0
M  V30 8443 C 478.417 -6.4116 -2.90739 0
M  V30 8444 C 479.127 -5.55375 -1.86963 0
M  V30 8445 N 479.077 -4.09664 -2.15742 0
M  V30 8446 H 481.916 -7.45574 -4.45629 0
M  V30 8447 H 482.188 -5.86232 -3.67314 0
M  V30 8448 H 481.32 -7.84412 -2.24479 0
M  V30 8449 P 477.357 -8.7635 -1.60911 0
M  V30 8450 O 477.137 -10.1388 -1.11561 0
M  V30 8451 O 476.567 -8.36503 -2.79617 0
M  V30 8452 O 477.107 -7.71806 -0.42951 0
M  V30 8453 C 478.047 -7.67148 0.673689 0
M  V30 8454 C 477.317 -7.33374 1.95559 0
M  V30 8455 O 477.107 -5.88721 2.00726 0
M  V30 8456 C 475.917 -7.92526 2.10483 0
M  V30 8457 O 475.527 -8.02971 3.47653 0
M  V30 8458 C 475.037 -6.89602 1.41652 0
M  V30 8459 C 475.747 -5.59201 1.75185 0
M  V30 8460 N 475.697 -4.58301 0.657969 0
M  V30 8461 H 478.536 -8.65116 0.777161 0
M  V30 8462 H 478.808 -6.9022 0.46725 0
M  V30 8463 H 477.94 -7.66548 2.79458 0
M  V30 8464 H 475.285 -5.16165 2.65183 0
M  V30 8465 H 475.005 -7.06433 0.329384 0
M  V30 8466 H 474.014 -6.90926 1.82021 0
M  V30 8467 H 475.848 -8.90873 1.62657 0
M  V30 8468 P 473.977 -8.03563 3.84925 0
M  V30 8469 O 473.757 -8.85821 5.0569 0
M  V30 8470 O 473.187 -8.41101 2.65469 0
M  V30 8471 O 473.727 -6.4965 4.18908 0
M  V30 8472 C 474.667 -5.81037 5.05421 0
M  V30 8473 C 473.937 -4.78366 5.89277 0
M  V30 8474 O 473.727 -3.58302 5.08433 0
M  V30 8475 C 472.537 -5.17448 6.36119 0
M  V30 8476 O 472.147 -4.45271 7.53232 0
M  V30 8477 C 471.657 -4.74639 5.19936 0
M  V30 8478 C 472.367 -3.49432 4.70418 0
M  V30 8479 N 472.317 -3.32099 3.22613 0
M  V30 8480 C 472.397 -4.28245 2.25527 0
M  V30 8481 N 472.327 -3.80823 1.04874 0
M  V30 8482 C 472.177 -2.44571 1.23535 0
M  V30 8483 C 472.047 -1.37068 0.330675 0
M  V30 8484 N 472.037 -1.51472 -0.990824 0
M  V30 8485 N 471.927 -0.138614 0.848756 0
M  V30 8486 C 471.937 0.00675923 2.16999 0
M  V30 8487 N 472.057 -0.904372 3.11122 0
M  V30 8488 C 472.177 -2.12707 2.56212 0
M  V30 8489 H 475.156 -6.54213 5.71376 0
M  V30 8490 H 475.428 -5.30936 4.43503 0
M  V30 8491 H 474.56 -4.55889 6.76652 0
M  V30 8492 H 471.905 -2.61715 5.17932 0
M  V30 8493 H 471.625 -5.52155 4.41878 0
M  V30 8494 H 470.634 -4.51981 5.53374 0
M  V30 8495 H 472.468 -6.25124 6.55234 0
M  V30 8496 H 472.509 -5.34372 2.47488 0
M  V30 8497 H 472.128 -2.45153 -1.4078 0
M  V30 8498 H 471.939 -0.688422 -1.59911 0
M  V30 8499 H 471.831 1.02584 2.52346 0
M  V30 8500 P 470.597 -4.23843 7.83734 0
M  V30 8501 O 470.377 -4.19407 9.29784 0
M  V30 8502 O 469.807 -5.24426 7.09156 0
M  V30 8503 O 470.347 -2.7935 7.20758 0
M  V30 8504 C 471.287 -1.7299 7.50419 0
M  V30 8505 C 470.557 -0.406376 7.57911 0
M  V30 8506 O 470.347 0.0897726 6.21935 0
M  V30 8507 C 469.157 -0.447224 8.1878 0
M  V30 8508 O 468.767 0.825065 8.71101 0
M  V30 8509 C 468.277 -0.783801 6.99623 0
M  V30 8510 C 468.987 -0.0619192 5.85967 0
M  V30 8511 N 468.937 -0.7859 4.56281 0
M  V30 8512 H 471.776 -1.93423 8.4679 0
M  V30 8513 H 472.048 -1.68181 6.71046 0
M  V30 8514 H 471.18 0.289041 8.15388 0
M  V30 8515 P 467.217 1.17771 8.83182 0
M  V30 8516 O 466.997 2.07206 9.98732 0
M  V30 8517 O 466.427 -0.0743816 8.81969 0
M  V30 8518 O 466.967 1.97652 7.47304 0
M  V30 8519 C 467.907 3.01133 7.08783 0
M  V30 8520 C 467.177 4.12613 6.37049 0
M  V30 8521 O 466.967 3.72827 4.97879 0
M  V30 8522 C 465.777 4.45085 6.88694 0
M  V30 8523 O 465.387 5.7877 6.5624 0
M  V30 8524 C 464.897 3.47817 6.12078 0
M  V30 8525 C 465.607 3.39414 4.77697 0
M  V30 8526 N 465.557 2.04615 4.15333 0
M  V30 8527 H 468.396 3.41248 7.98759 0
M  V30 8528 H 468.668 2.5837 6.41742 0
M  V30 8529 H 467.8 5.02657 6.42673 0
M  V30 8530 P 463.837 6.144 6.45285 0
M  V30 8531 O 463.617 7.54673 6.86199 0
M  V30 8532 O 463.047 5.12391 7.179 0
M  V30 8533 O 463.587 5.99236 4.88467 0
M  V30 8534 C 464.527 6.60234 3.96415 0
M  V30 8535 C 463.797 7.08079 2.736 0
M  V30 8536 O 463.587 5.94365 1.8368 0
M  V30 8537 C 462.397 7.64886 2.9555 0
M  V30 8538 O 462.007 8.5406 1.90739 0
M  V30 8539 C 461.517 6.4116 2.90739 0
M  V30 8540 C 462.227 5.55375 1.86963 0
M  V30 8541 N 462.177 4.09664 2.15742 0
M  V30 8542 C 462.027 3.22231 1.08477 0
M  V30 8543 O 461.937 3.68951 -0.0600489 0
M  V30 8544 N 461.977 1.76692 1.48799 0
M  V30 8545 C 462.077 1.41695 2.57602 0
M  V30 8546 N 462.027 0.107296 2.75791 0
M  V30 8547 C 462.227 2.29178 3.69733 0
M  V30 8548 C 462.277 3.62753 3.42653 0
M  V30 8549 H 465.017 7.45488 4.45578 0
M  V30 8550 H 465.287 5.86232 3.67314 0
M  V30 8551 H 464.42 7.84508 2.24507 0
M  V30 8552 H 461.765 5.73556 0.888715 0
M  V30 8553 H 461.485 5.9096 3.88638 0
M  V30 8554 H 460.494 6.66053 2.58894 0
M  V30 8555 H 462.328 8.16339 3.92049 0
M  V30 8556 H 462.4 4.33052 4.24913 0
M  V30 8557 H 462.298 1.9103 4.71577 0
M  V30 8558 H 461.91 -0.521221 1.95056 0
M  V30 8559 H 462.106 -0.286429 3.70695 0
M  V30 8560 P 460.457 8.7635 1.60911 0
M  V30 8561 O 460.237 10.1388 1.11561 0
M  V30 8562 O 459.667 8.36503 2.79617 0
M  V30 8563 O 460.207 7.71906 0.429565 0
M  V30 8564 C 461.147 7.67148 -0.673689 0
M  V30 8565 C 460.417 7.33666 -1.94851 0
M  V30 8566 O 460.207 5.88816 -2.00759 0
M  V30 8567 C 459.017 7.92526 -2.10483 0
M  V30 8568 O 458.627 8.03063 -3.47693 0
M  V30 8569 C 458.137 6.89602 -1.41652 0
M  V30 8570 C 458.847 5.59201 -1.75185 0
M  V30 8571 N 458.797 4.58235 -0.662552 0
M  V30 8572 C 458.647 3.24451 -1.01643 0
M  V30 8573 O 458.557 2.94958 -2.21722 0
M  V30 8574 N 458.597 2.30408 0.165238 0
M  V30 8575 C 458.697 2.66048 1.25118 0
M  V30 8576 N 458.647 1.70787 2.16813 0
M  V30 8577 C 458.847 4.02732 1.64413 0
M  V30 8578 C 458.897 4.9488 0.63991 0
M  V30 8579 H 461.637 8.65017 -0.777072 0
M  V30 8580 H 461.907 6.90173 -0.474152 0
M  V30 8581 H 461.04 7.66642 -2.79492 0
M  V30 8582 H 458.385 5.16254 -2.65229 0
M  V30 8583 H 458.105 7.06532 -0.329431 0
M  V30 8584 H 457.114 6.91023 -1.82047 0
M  V30 8585 H 458.948 8.90873 -1.62657 0
M  V30 8586 H 459.02 6.00104 0.892197 0
M  V30 8587 H 458.918 4.31733 2.69229 0
M  V30 8588 H 458.53 0.724835 1.8844 0
M  V30 8589 H 458.726 1.94716 3.16734 0
M  V30 8590 P 457.077 8.03563 -3.84925 0
M  V30 8591 O 456.857 8.85821 -5.0569 0
M  V30 8592 O 456.287 8.41101 -2.65469 0
M  V30 8593 O 456.827 6.4965 -4.18908 0
M  V30 8594 C 457.767 5.81037 -5.05421 0
M  V30 8595 C 457.037 4.78366 -5.89277 0
M  V30 8596 O 456.827 3.58302 -5.08433 0
M  V30 8597 C 455.637 5.17448 -6.36119 0
M  V30 8598 O 455.247 4.45271 -7.53232 0
M  V30 8599 C 454.757 4.74639 -5.19936 0
M  V30 8600 C 455.467 3.49432 -4.70418 0
M  V30 8601 N 455.417 3.31776 -3.22945 0
M  V30 8602 C 455.497 4.27147 -2.23315 0
M  V30 8603 N 455.417 3.78447 -1.02186 0
M  V30 8604 C 455.277 2.41001 -1.21732 0
M  V30 8605 C 455.147 1.36111 -0.27694 0
M  V30 8606 O 455.127 1.42065 0.951767 0
M  V30 8607 N 455.027 0.113683 -0.912949 0
M  V30 8608 C 455.027 -0.0846396 -2.27943 0
M  V30 8609 N 454.897 -1.34737 -2.6916 0
M  V30 8610 N 455.157 0.902521 -3.16379 0
M  V30 8611 C 455.277 2.11937 -2.56849 0
M  V30 8612 H 458.256 6.54213 -5.71376 0
M  V30 8613 H 458.528 5.30492 -4.44033 0
M  V30 8614 H 457.66 4.55889 -6.76652 0
M  V30 8615 H 455.005 2.6176 -5.18021 0
M  V30 8616 H 454.725 5.52233 -4.41941 0
M  V30 8617 H 453.734 4.52045 -5.53452 0
M  V30 8618 H 455.568 6.25193 -6.55307 0
M  V30 8619 H 455.617 5.3351 -2.43857 0
M  V30 8620 H 454.935 -0.69331 -0.330371 0
M  V30 8621 H 454.898 -1.56433 -3.6988 0
M  V30 8622 H 454.797 -2.10701 -2.00133 0
M  V30 8623 P 453.697 4.23843 -7.83734 0
M  V30 8624 O 453.477 4.19407 -9.29784 0
M  V30 8625 O 452.907 5.24426 -7.09156 0
M  V30 8626 O 453.447 2.7935 -7.20758 0
M  V30 8627 C 454.387 1.7299 -7.50419 0
M  V30 8628 C 453.657 0.406376 -7.57911 0
M  V30 8629 O 453.447 -0.0897726 -6.21935 0
M  V30 8630 C 452.257 0.447224 -8.1878 0
M  V30 8631 O 451.867 -0.825065 -8.71101 0
M  V30 8632 C 451.377 0.783801 -6.99623 0
M  V30 8633 C 452.087 0.0619192 -5.85967 0
M  V30 8634 N 452.037 0.7859 -4.56281 0
M  V30 8635 H 454.876 1.93423 -8.4679 0
M  V30 8636 H 455.148 1.68181 -6.71046 0
M  V30 8637 H 454.28 -0.289041 -8.15388 0
M  V30 8638 P 450.317 -1.17771 -8.83182 0
M  V30 8639 O 450.097 -2.07206 -9.98732 0
M  V30 8640 O 449.527 0.0743816 -8.81969 0
M  V30 8641 O 450.067 -1.97652 -7.47304 0
M  V30 8642 C 451.007 -3.01133 -7.08783 0
M  V30 8643 C 450.277 -4.12613 -6.37049 0
M  V30 8644 O 450.067 -3.72827 -4.97879 0
M  V30 8645 C 448.877 -4.45085 -6.88694 0
M  V30 8646 O 448.487 -5.7877 -6.5624 0
M  V30 8647 C 447.997 -3.47817 -6.12078 0
M  V30 8648 C 448.707 -3.39414 -4.77697 0
M  V30 8649 N 448.657 -2.04199 -4.15538 0
M  V30 8650 H 451.496 -3.41248 -7.98759 0
M  V30 8651 H 451.768 -2.57728 -6.42 0
M  V30 8652 H 450.9 -5.02657 -6.42673 0
M  V30 8653 H 448.245 -4.11708 -4.08956 0
M  V30 8654 H 447.965 -2.49626 -6.61679 0
M  V30 8655 H 446.974 -3.8662 -6.00862 0
M  V30 8656 H 448.808 -4.29991 -7.97006 0
M  V30 8657 P 446.937 -6.144 -6.45285 0
M  V30 8658 O 446.717 -7.54673 -6.86199 0
M  V30 8659 O 446.147 -5.12391 -7.179 0
M  V30 8660 O 446.687 -5.99158 -4.88404 0
M  V30 8661 C 447.627 -6.60062 -3.96313 0
M  V30 8662 C 446.897 -7.08259 -2.72856 0
M  V30 8663 O 446.687 -5.9427 -1.83651 0
M  V30 8664 C 445.497 -7.65087 -2.94749 0
M  V30 8665 O 445.107 -8.53963 -1.90717 0
M  V30 8666 C 444.617 -6.41069 -2.90698 0
M  V30 8667 C 445.327 -5.5528 -1.86931 0
M  V30 8668 N 445.277 -4.09575 -2.15696 0
M  V30 8669 C 445.127 -3.24249 -1.08435 0
M  V30 8670 O 445.037 -3.63946 0.0628747 0
M  V30 8671 N 445.087 -1.90009 -1.39973 0
M  V30 8672 C 445.177 -1.34884 -2.65614 0
M  V30 8673 O 445.127 -0.123716 -2.81728 0
M  V30 8674 C 445.327 -2.3145 -3.71736 0
M  V30 8675 C 445.437 -1.75913 -5.10438 0
M  V30 8676 C 445.377 -3.63518 -3.44754 0
M  V30 8677 H 448.118 -7.45402 -4.45526 0
M  V30 8678 H 448.387 -5.86062 -3.67208 0
M  V30 8679 H 447.52 -7.84412 -2.24479 0
M  V30 8680 H 444.865 -5.73358 -0.888409 0
M  V30 8681 H 444.586 -5.90877 -3.88583 0
M  V30 8682 H 443.594 -6.65867 -2.58821 0
M  V30 8683 H 445.428 -8.16248 -3.92006 0
M  V30 8684 H 445.499 -4.34551 -4.26383 0
M  V30 8685 H 444.469 -1.85471 -5.61775 0
M  V30 8686 H 446.206 -2.31364 -5.66257 0
M  V30 8687 H 445.718 -0.695936 -5.05229 0
M  V30 8688 H 444.982 -1.26277 -0.63625 0
M  V30 8689 P 443.557 -8.7635 -1.60911 0
M  V30 8690 O 443.337 -10.1388 -1.11561 0
M  V30 8691 O 442.767 -8.36503 -2.79617 0
M  V30 8692 O 443.307 -7.71806 -0.42951 0
M  V30 8693 C 444.247 -7.67148 0.673689 0
M  V30 8694 C 443.517 -7.33374 1.95559 0
M  V30 8695 O 443.307 -5.88721 2.00726 0
M  V30 8696 C 442.117 -7.92526 2.10483 0
M  V30 8697 O 441.727 -8.02971 3.47653 0
M  V30 8698 C 441.237 -6.89602 1.41652 0
M  V30 8699 C 441.947 -5.59201 1.75185 0
M  V30 8700 N 441.897 -4.58235 0.662552 0
M  V30 8701 H 444.736 -8.65116 0.777161 0
M  V30 8702 H 445.008 -6.90173 0.474152 0
M  V30 8703 H 444.14 -7.66548 2.79458 0
M  V30 8704 P 440.177 -8.03563 3.84925 0
M  V30 8705 O 439.957 -8.85821 5.0569 0
M  V30 8706 O 439.387 -8.41101 2.65469 0
M  V30 8707 O 439.927 -6.4965 4.18908 0
M  V30 8708 C 440.867 -5.81037 5.05421 0
M  V30 8709 C 440.137 -4.78366 5.89277 0
M  V30 8710 O 439.927 -3.58302 5.08433 0
M  V30 8711 C 438.737 -5.17448 6.36119 0
M  V30 8712 O 438.347 -4.45271 7.53232 0
M  V30 8713 C 437.857 -4.74639 5.19936 0
M  V30 8714 C 438.567 -3.49432 4.70418 0
M  V30 8715 N 438.517 -3.31776 3.22945 0
M  V30 8716 H 441.356 -6.54213 5.71376 0
M  V30 8717 H 441.628 -5.30492 4.44033 0
M  V30 8718 H 440.76 -4.55889 6.76652 0
M  V30 8719 P 436.797 -4.23843 7.83734 0
M  V30 8720 O 436.577 -4.19407 9.29784 0
M  V30 8721 O 436.007 -5.24426 7.09156 0
M  V30 8722 O 436.547 -2.7935 7.20758 0
M  V30 8723 C 437.487 -1.7299 7.50419 0
M  V30 8724 C 436.757 -0.406376 7.57911 0
M  V30 8725 O 436.547 0.0897726 6.21935 0
M  V30 8726 C 435.357 -0.447224 8.1878 0
M  V30 8727 O 434.967 0.825065 8.71101 0
M  V30 8728 C 434.477 -0.783801 6.99623 0
M  V30 8729 C 435.187 -0.0619192 5.85967 0
M  V30 8730 N 435.137 -0.7859 4.56281 0
M  V30 8731 H 437.976 -1.93423 8.4679 0
M  V30 8732 H 438.248 -1.68181 6.71046 0
M  V30 8733 H 437.38 0.289041 8.15388 0
M  V30 8734 P 433.417 1.17771 8.83182 0
M  V30 8735 O 433.197 2.07206 9.98732 0
M  V30 8736 O 432.627 -0.0743816 8.81969 0
M  V30 8737 O 433.167 1.97652 7.47304 0
M  V30 8738 C 434.107 3.01133 7.08783 0
M  V30 8739 C 433.377 4.12613 6.37049 0
M  V30 8740 O 433.167 3.72827 4.97879 0
M  V30 8741 C 431.977 4.45085 6.88694 0
M  V30 8742 O 431.587 5.7877 6.5624 0
M  V30 8743 C 431.097 3.47817 6.12078 0
M  V30 8744 C 431.807 3.39414 4.77697 0
M  V30 8745 N 431.757 2.04615 4.15333 0
M  V30 8746 C 431.837 0.803897 4.75249 0
M  V30 8747 N 431.757 -0.197615 3.91502 0
M  V30 8748 C 431.617 0.413002 2.66823 0
M  V30 8749 C 431.487 -0.157221 1.38007 0
M  V30 8750 N 431.367 0.833136 0.390236 0
M  V30 8751 C 431.367 2.19402 0.623885 0
M  V30 8752 N 431.237 2.97622 -0.449677 0
M  V30 8753 N 431.497 2.73005 1.83601 0
M  V30 8754 C 431.617 1.78786 2.80935 0
M  V30 8755 H 434.596 3.41248 7.98759 0
M  V30 8756 H 434.868 2.5837 6.41742 0
M  V30 8757 H 434 5.02657 6.42673 0
M  V30 8758 P 430.037 6.144 6.45285 0
M  V30 8759 O 429.817 7.54673 6.86199 0
M  V30 8760 O 429.247 5.12391 7.179 0
M  V30 8761 O 429.787 5.99158 4.88404 0
M  V30 8762 C 430.727 6.60234 3.96415 0
M  V30 8763 C 429.997 7.08259 2.72856 0
M  V30 8764 O 429.787 5.9427 1.83651 0
M  V30 8765 C 428.597 7.64886 2.9555 0
M  V30 8766 O 428.207 8.53963 1.90717 0
M  V30 8767 C 427.717 6.4116 2.90739 0
M  V30 8768 C 428.427 5.55375 1.86963 0
M  V30 8769 N 428.377 4.09664 2.15742 0
M  V30 8770 C 428.457 3.44381 3.37233 0
M  V30 8771 N 428.377 2.14131 3.28347 0
M  V30 8772 C 428.237 1.90247 1.91588 0
M  V30 8773 C 428.107 0.683992 1.20892 0
M  V30 8774 O 428.087 -0.46618 1.64523 0
M  V30 8775 N 427.987 0.903396 -0.173998 0
M  V30 8776 C 427.987 2.14171 -0.784879 0
M  V30 8777 N 427.857 2.1435 -2.11317 0
M  V30 8778 N 428.117 3.28784 -0.119316 0
M  V30 8779 C 428.237 3.0977 1.22194 0
M  V30 8780 H 431.216 7.45574 4.45629 0
M  V30 8781 H 431.488 5.86232 3.67314 0
M  V30 8782 H 430.62 7.84412 2.24479 0
M  V30 8783 H 427.965 5.73556 0.888715 0
M  V30 8784 H 427.685 5.9096 3.88638 0
M  V30 8785 H 426.694 6.66053 2.58894 0
M  V30 8786 H 428.528 8.16429 3.92093 0
M  V30 8787 H 428.577 3.96785 4.32043 0
M  V30 8788 H 427.895 0.0999567 -0.761467 0
M  V30 8789 H 427.858 3.03436 -2.63076 0
M  V30 8790 H 427.757 1.25228 -2.62233 0
M  V30 8791 P 426.657 8.7635 1.60911 0
M  V30 8792 O 426.437 10.1388 1.11561 0
M  V30 8793 O 425.867 8.36503 2.79617 0
M  V30 8794 O 426.407 7.71806 0.42951 0
M  V30 8795 C 427.347 7.67148 -0.673689 0
M  V30 8796 C 426.617 7.33374 -1.95559 0
M  V30 8797 O 426.407 5.88721 -2.00726 0
M  V30 8798 C 425.217 7.92526 -2.10483 0
M  V30 8799 O 424.827 8.02971 -3.47653 0
M  V30 8800 C 424.337 6.89602 -1.41652 0
M  V30 8801 C 425.047 5.59201 -1.75185 0
M  V30 8802 N 424.997 4.58235 -0.662552 0
M  V30 8803 C 425.077 4.7683 0.704049 0
M  V30 8804 N 424.997 3.66233 1.39775 0
M  V30 8805 C 424.857 2.66526 0.431739 0
M  V30 8806 C 424.727 1.26394 0.575992 0
M  V30 8807 N 424.607 0.62859 -0.67177 0
M  V30 8808 C 424.607 1.27134 -1.89385 0
M  V30 8809 N 424.477 0.492035 -2.96951 0
M  V30 8810 N 424.737 2.58978 -2.02907 0
M  V30 8811 C 424.857 3.22433 -0.832218 0
M  V30 8812 H 427.836 8.65116 -0.777161 0
M  V30 8813 H 428.108 6.90173 -0.474152 0
M  V30 8814 H 427.24 7.66548 -2.79458 0
M  V30 8815 P 423.278 8.03563 -3.84925 0
M  V30 8816 O 423.058 8.85821 -5.0569 0
M  V30 8817 O 422.488 8.41101 -2.65469 0
M  V30 8818 O 423.028 6.4965 -4.18908 0
M  V30 8819 C 423.968 5.80886 -5.05289 0
M  V30 8820 C 423.238 4.78366 -5.89277 0
M  V30 8821 O 423.028 3.58302 -5.08433 0
M  V30 8822 C 421.838 5.16748 -6.36559 0
M  V30 8823 O 421.448 4.45271 -7.53232 0
M  V30 8824 C 420.958 4.74572 -5.19863 0
M  V30 8825 C 421.668 3.49373 -4.70338 0
M  V30 8826 N 421.618 3.31704 -3.22876 0
M  V30 8827 C 421.468 2.03326 -2.74871 0
M  V30 8828 O 421.378 1.06486 -3.48076 0
M  V30 8829 N 421.428 1.91838 -1.37456 0
M  V30 8830 C 421.518 2.94295 -0.462035 0
M  V30 8831 O 421.468 2.71763 0.752928 0
M  V30 8832 C 421.668 4.25064 -1.05249 0
M  V30 8833 C 421.778 5.39815 -0.095697 0
M  V30 8834 C 421.718 4.40214 -2.39192 0
M  V30 8835 H 424.459 6.54063 -5.71245 0
M  V30 8836 H 424.728 5.30339 -4.43905 0
M  V30 8837 H 423.861 4.55889 -6.76652 0
M  V30 8838 H 421.206 2.6167 -5.17842 0
M  V30 8839 H 420.927 5.52155 -4.41878 0
M  V30 8840 H 419.935 4.51918 -5.53297 0
M  V30 8841 H 421.769 6.25055 -6.55162 0
M  V30 8842 H 421.84 5.39798 -2.81523 0
M  V30 8843 H 420.81 5.91593 -0.0279582 0
M  V30 8844 H 422.547 6.10038 -0.450573 0
M  V30 8845 H 422.059 5.02007 0.89937 0
M  V30 8846 H 421.323 0.995326 -1.00435 0
M  V30 8847 P 419.898 4.23843 -7.83734 0
M  V30 8848 O 419.678 4.19407 -9.29784 0
M  V30 8849 O 419.108 5.24426 -7.09156 0
M  V30 8850 O 419.648 2.7935 -7.20758 0
M  V30 8851 C 420.588 1.7299 -7.50419 0
M  V30 8852 C 419.858 0.406376 -7.57911 0
M  V30 8853 O 419.648 -0.0897726 -6.21935 0
M  V30 8854 C 418.458 0.447224 -8.1878 0
M  V30 8855 O 418.068 -0.825065 -8.71101 0
M  V30 8856 C 417.578 0.783801 -6.99623 0
M  V30 8857 C 418.288 0.0619192 -5.85967 0
M  V30 8858 N 418.238 0.790462 -4.56202 0
M  V30 8859 H 421.077 1.93423 -8.4679 0
M  V30 8860 H 421.349 1.68852 -6.70877 0
M  V30 8861 H 420.481 -0.289041 -8.15388 0
M  V30 8862 H 417.826 -0.927006 -5.72848 0
M  V30 8863 H 417.546 1.86973 -6.82036 0
M  V30 8864 H 416.555 0.403953 -7.13357 0
M  V30 8865 H 418.389 1.20599 -8.97534 0
M  V30 8866 P 416.518 -1.17771 -8.83182 0
M  V30 8867 O 416.298 -2.07206 -9.98732 0
M  V30 8868 O 415.728 0.0743816 -8.81969 0
M  V30 8869 O 416.268 -1.97652 -7.47304 0
M  V30 8870 C 417.208 -3.01133 -7.08783 0
M  V30 8871 C 416.478 -4.12613 -6.37049 0
M  V30 8872 O 416.268 -3.72827 -4.97879 0
M  V30 8873 C 415.078 -4.45085 -6.88694 0
M  V30 8874 O 414.688 -5.7877 -6.5624 0
M  V30 8875 C 414.198 -3.47817 -6.12078 0
M  V30 8876 C 414.908 -3.39414 -4.77697 0
M  V30 8877 N 414.858 -2.04615 -4.15333 0
M  V30 8878 H 417.697 -3.41248 -7.98759 0
M  V30 8879 H 417.969 -2.5837 -6.41742 0
M  V30 8880 H 417.101 -5.02657 -6.42673 0
M  V30 8881 P 413.138 -6.144 -6.45285 0
M  V30 8882 O 412.918 -7.54673 -6.86199 0
M  V30 8883 O 412.348 -5.12391 -7.179 0
M  V30 8884 O 412.888 -5.99158 -4.88404 0
M  V30 8885 C 413.828 -6.60062 -3.96313 0
M  V30 8886 C 413.098 -7.08259 -2.72856 0
M  V30 8887 O 412.888 -5.9427 -1.83651 0
M  V30 8888 C 411.698 -7.65087 -2.94749 0
M  V30 8889 O 411.308 -8.53963 -1.90717 0
M  V30 8890 C 410.818 -6.41069 -2.90698 0
M  V30 8891 C 411.528 -5.5528 -1.86931 0
M  V30 8892 N 411.478 -4.09575 -2.15696 0
M  V30 8893 C 411.328 -3.24249 -1.08435 0
M  V30 8894 O 411.238 -3.63946 0.0628747 0
M  V30 8895 N 411.288 -1.90009 -1.39973 0
M  V30 8896 C 411.378 -1.34884 -2.65614 0
M  V30 8897 C 411.528 -2.3145 -3.71736 0
M  V30 8898 C 411.578 -3.63518 -3.44754 0
M  V30 8899 H 414.319 -7.45402 -4.45526 0
M  V30 8900 H 414.588 -5.86062 -3.67208 0
M  V30 8901 H 413.721 -7.84412 -2.24479 0
M  V30 8902 H 411.066 -5.73358 -0.888409 0
M  V30 8903 H 410.787 -5.90877 -3.88583 0
M  V30 8904 H 409.795 -6.65867 -2.58821 0
M  V30 8905 H 411.629 -8.16248 -3.92006 0
M  V30 8906 H 411.7 -4.34551 -4.26383 0
M  V30 8907 P 409.758 -8.7635 -1.60911 0
M  V30 8908 O 409.538 -10.1388 -1.11561 0
M  V30 8909 O 408.968 -8.36503 -2.79617 0
M  V30 8910 O 409.508 -7.71806 -0.42951 0
M  V30 8911 C 410.448 -7.67148 0.673689 0
M  V30 8912 C 409.718 -7.33374 1.95559 0
M  V30 8913 O 409.508 -5.88721 2.00726 0
M  V30 8914 C 408.318 -7.92526 2.10483 0
M  V30 8915 O 407.928 -8.02971 3.47653 0
M  V30 8916 C 407.438 -6.89602 1.41652 0
M  V30 8917 C 408.148 -5.59201 1.75185 0
M  V30 8918 N 408.098 -4.58235 0.662552 0
M  V30 8919 H 410.937 -8.65116 0.777161 0
M  V30 8920 H 411.209 -6.90173 0.474152 0
M  V30 8921 H 410.341 -7.66548 2.79458 0
M  V30 8922 P 406.378 -8.03563 3.84925 0
M  V30 8923 O 406.158 -8.85821 5.0569 0
M  V30 8924 O 405.588 -8.41101 2.65469 0
M  V30 8925 O 406.128 -6.4965 4.18908 0
M  V30 8926 C 407.068 -5.81037 5.05421 0
M  V30 8927 C 406.338 -4.78366 5.89277 0
M  V30 8928 O 406.128 -3.58302 5.08433 0
M  V30 8929 C 404.938 -5.17448 6.36119 0
M  V30 8930 O 404.548 -4.45271 7.53232 0
M  V30 8931 C 404.058 -4.74639 5.19936 0
M  V30 8932 C 404.768 -3.49432 4.70418 0
M  V30 8933 N 404.718 -3.32099 3.22613 0
M  V30 8934 H 407.557 -6.54213 5.71376 0
M  V30 8935 H 407.829 -5.30936 4.43503 0
M  V30 8936 H 406.961 -4.55889 6.76652 0
M  V30 8937 H 404.306 -2.61715 5.17932 0
M  V30 8938 H 404.026 -5.52155 4.41878 0
M  V30 8939 H 403.035 -4.51981 5.53374 0
M  V30 8940 H 404.869 -6.25124 6.55234 0
M  V30 8941 P 402.998 -4.23843 7.83734 0
M  V30 8942 O 402.778 -4.19407 9.29784 0
M  V30 8943 O 402.208 -5.24426 7.09156 0
M  V30 8944 O 402.748 -2.7935 7.20758 0
M  V30 8945 C 403.688 -1.72945 7.50224 0
M  V30 8946 C 402.958 -0.406376 7.57911 0
M  V30 8947 O 402.748 0.0897726 6.21935 0
M  V30 8948 C 401.558 -0.438983 8.18724 0
M  V30 8949 O 401.168 0.825065 8.71101 0
M  V30 8950 C 400.678 -0.783689 6.99524 0
M  V30 8951 C 401.388 -0.0619086 5.85867 0
M  V30 8952 N 401.338 -0.78573 4.56183 0
M  V30 8953 C 401.188 -0.0292889 3.41887 0
M  V30 8954 O 401.098 1.18445 3.4419 0
M  V30 8955 N 401.148 -0.744061 2.23964 0
M  V30 8956 C 401.238 -2.10932 2.10362 0
M  V30 8957 C 401.388 -2.8202 3.34994 0
M  V30 8958 C 401.438 -2.15547 4.52261 0
M  V30 8959 H 404.179 -1.93379 8.46595 0
M  V30 8960 H 404.448 -1.68132 6.70852 0
M  V30 8961 H 403.581 0.289041 8.15388 0
M  V30 8962 H 400.926 0.926847 5.72749 0
M  V30 8963 H 400.647 -1.86973 6.82036 0
M  V30 8964 H 399.655 -0.403896 7.13257 0
M  V30 8965 H 401.489 -1.20585 8.97435 0
M  V30 8966 H 401.56 -2.71231 5.45042 0
M  V30 8967 P 399.618 1.17771 8.83182 0
M  V30 8968 O 399.398 2.07206 9.98732 0
M  V30 8969 O 398.828 -0.0743816 8.81969 0
M  V30 8970 O 399.368 1.97652 7.47304 0
M  V30 8971 C 400.308 3.01133 7.08783 0
M  V30 8972 C 399.578 4.12613 6.37049 0
M  V30 8973 O 399.368 3.72827 4.97879 0
M  V30 8974 C 398.178 4.45085 6.88694 0
M  V30 8975 O 397.788 5.7877 6.5624 0
M  V30 8976 C 397.298 3.47817 6.12078 0
M  V30 8977 C 398.008 3.39414 4.77697 0
M  V30 8978 N 397.958 2.04615 4.15333 0
M  V30 8979 H 400.797 3.41248 7.98759 0
M  V30 8980 H 401.069 2.5837 6.41742 0
M  V30 8981 H 400.201 5.02657 6.42673 0
M  V30 8982 P 396.238 6.144 6.45285 0
M  V30 8983 O 396.018 7.54673 6.86199 0
M  V30 8984 O 395.448 5.12391 7.179 0
M  V30 8985 O 395.988 5.99158 4.88404 0
M  V30 8986 C 396.928 6.60234 3.96415 0
M  V30 8987 C 396.198 7.08259 2.72856 0
M  V30 8988 O 395.988 5.9427 1.83651 0
M  V30 8989 C 394.798 7.64886 2.9555 0
M  V30 8990 O 394.408 8.53963 1.90717 0
M  V30 8991 C 393.918 6.4116 2.90739 0
M  V30 8992 C 394.628 5.55375 1.86963 0
M  V30 8993 N 394.578 4.09664 2.15742 0
M  V30 8994 H 397.417 7.45574 4.45629 0
M  V30 8995 H 397.689 5.86232 3.67314 0
M  V30 8996 H 396.821 7.84412 2.24479 0
M  V30 8997 P 392.858 8.7635 1.60911 0
M  V30 8998 O 392.638 10.1388 1.11561 0
M  V30 8999 O 392.068 8.36503 2.79617 0
M  V30 9000 O 392.608 7.71806 0.42951 0
M  V30 9001 C 393.548 7.66948 -0.673514 0
M  V30 9002 C 392.818 7.33374 -1.95559 0
M  V30 9003 O 392.608 5.88721 -2.00726 0
M  V30 9004 C 391.418 7.92218 -2.1125 0
M  V30 9005 O 391.028 8.02971 -3.47653 0
M  V30 9006 C 390.538 6.89504 -1.41631 0
M  V30 9007 C 391.248 5.59106 -1.75155 0
M  V30 9008 N 391.198 4.58136 -0.662409 0
M  V30 9009 C 391.048 3.26059 -1.02863 0
M  V30 9010 O 390.958 2.90743 -2.19009 0
M  V30 9011 N 391.008 2.35995 0.0155585 0
M  V30 9012 C 391.098 2.65248 1.35603 0
M  V30 9013 C 391.248 4.05747 1.64698 0
M  V30 9014 C 391.298 4.96734 0.652411 0
M  V30 9015 H 394.039 8.64917 -0.776982 0
M  V30 9016 H 394.308 6.89974 -0.474015 0
M  V30 9017 H 393.441 7.66548 -2.79458 0
M  V30 9018 H 390.786 5.16076 -2.65138 0
M  V30 9019 H 390.507 7.06433 -0.329384 0
M  V30 9020 H 389.515 6.90829 -1.81996 0
M  V30 9021 H 391.349 8.90774 -1.62639 0
M  V30 9022 H 391.42 6.02181 0.895285 0
M  V30 9023 P 389.478 8.03563 -3.84925 0
M  V30 9024 O 389.258 8.85821 -5.0569 0
M  V30 9025 O 388.688 8.41101 -2.65469 0
M  V30 9026 O 389.228 6.4965 -4.18908 0
M  V30 9027 C 390.168 5.81037 -5.05421 0
M  V30 9028 C 389.438 4.78366 -5.89277 0
M  V30 9029 O 389.228 3.58302 -5.08433 0
M  V30 9030 C 388.038 5.17448 -6.36119 0
M  V30 9031 O 387.648 4.45271 -7.53232 0
M  V30 9032 C 387.158 4.74639 -5.19936 0
M  V30 9033 C 387.868 3.49432 -4.70418 0
M  V30 9034 N 387.818 3.31776 -3.22945 0
M  V30 9035 H 390.657 6.54213 -5.71376 0
M  V30 9036 H 390.929 5.30492 -4.44033 0
M  V30 9037 H 390.061 4.55889 -6.76652 0
M  V30 9038 P 386.098 4.23843 -7.83734 0
M  V30 9039 O 385.878 4.19407 -9.29784 0
M  V30 9040 O 385.308 5.24426 -7.09156 0
M  V30 9041 O 385.848 2.79386 -7.20852 0
M  V30 9042 C 386.788 1.7299 -7.50419 0
M  V30 9043 C 386.058 0.41401 -7.5797 0
M  V30 9044 O 385.848 -0.089787 -6.22035 0
M  V30 9045 C 384.658 0.447224 -8.1878 0
M  V30 9046 O 384.268 -0.825159 -8.71201 0
M  V30 9047 C 383.778 0.783801 -6.99623 0
M  V30 9048 C 384.488 0.0619192 -5.85967 0
M  V30 9049 N 384.438 0.7859 -4.56281 0
M  V30 9050 C 384.288 0.0359258 -3.39981 0
M  V30 9051 O 384.198 -1.19723 -3.49038 0
M  V30 9052 N 384.238 0.869151 -2.14025 0
M  V30 9053 C 384.338 2.01207 -2.14363 0
M  V30 9054 N 384.288 2.58978 -0.954287 0
M  V30 9055 C 384.488 2.80817 -3.32215 0
M  V30 9056 C 384.538 2.13785 -4.50884 0
M  V30 9057 H 387.278 1.93401 -8.46693 0
M  V30 9058 H 387.548 1.68181 -6.71046 0
M  V30 9059 H 386.681 -0.289076 -8.15488 0
M  V30 9060 H 384.026 -0.927166 -5.72947 0
M  V30 9061 H 383.746 1.87 -6.82132 0
M  V30 9062 H 382.755 0.404009 -7.13457 0
M  V30 9063 H 384.589 1.20599 -8.97534 0
M  V30 9064 H 384.661 2.70295 -5.43162 0
M  V30 9065 H 384.559 3.89465 -3.27406 0
M  V30 9066 H 384.171 2.01616 -0.107046 0
M  V30 9067 H 384.367 3.61403 -0.873101 0
M  V30 9068 P 382.718 -1.17771 -8.83182 0
M  V30 9069 O 382.498 -2.07206 -9.98732 0
M  V30 9070 O 381.928 0.0743816 -8.81969 0
M  V30 9071 O 382.468 -1.97652 -7.47304 0
M  V30 9072 C 383.408 -3.01133 -7.08783 0
M  V30 9073 C 382.678 -4.12613 -6.37049 0
M  V30 9074 O 382.468 -3.72827 -4.97879 0
M  V30 9075 C 381.278 -4.45085 -6.88694 0
M  V30 9076 O 380.888 -5.7877 -6.5624 0
M  V30 9077 C 380.398 -3.47817 -6.12078 0
M  V30 9078 C 381.108 -3.39414 -4.77697 0
M  V30 9079 N 381.058 -2.04615 -4.15333 0
M  V30 9080 C 381.138 -0.803897 -4.75249 0
M  V30 9081 N 381.058 0.197615 -3.91502 0
M  V30 9082 C 380.918 -0.413002 -2.66823 0
M  V30 9083 C 380.788 0.157221 -1.38007 0
M  V30 9084 N 380.668 -0.833136 -0.390236 0
M  V30 9085 C 380.668 -2.19402 -0.623885 0
M  V30 9086 N 380.538 -2.97622 0.449677 0
M  V30 9087 N 380.798 -2.73005 -1.83601 0
M  V30 9088 C 380.918 -1.78786 -2.80935 0
M  V30 9089 H 383.897 -3.41248 -7.98759 0
M  V30 9090 H 384.169 -2.5837 -6.41742 0
M  V30 9091 H 383.301 -5.02657 -6.42673 0
M  V30 9092 P 379.338 -6.144 -6.45285 0
M  V30 9093 O 379.118 -7.54673 -6.86199 0
M  V30 9094 O 378.548 -5.12391 -7.179 0
M  V30 9095 O 379.088 -5.99158 -4.88404 0
M  V30 9096 C 380.028 -6.60234 -3.96415 0
M  V30 9097 C 379.298 -7.08259 -2.72856 0
M  V30 9098 O 379.088 -5.9427 -1.83651 0
M  V30 9099 C 377.898 -7.64886 -2.9555 0
M  V30 9100 O 377.508 -8.53963 -1.90717 0
M  V30 9101 C 377.018 -6.4116 -2.90739 0
M  V30 9102 C 377.728 -5.55375 -1.86963 0
M  V30 9103 N 377.678 -4.09448 -2.16152 0
M  V30 9104 H 380.517 -7.45574 -4.45629 0
M  V30 9105 H 380.789 -5.85864 -3.679 0
M  V30 9106 H 379.921 -7.84412 -2.24479 0
M  V30 9107 H 377.266 -5.73457 -0.888562 0
M  V30 9108 H 376.986 -5.90877 -3.88583 0
M  V30 9109 H 375.995 -6.6596 -2.58858 0
M  V30 9110 H 377.829 -8.16339 -3.92049 0
M  V30 9111 P 375.958 -8.7635 -1.60911 0
M  V30 9112 O 375.738 -10.1388 -1.11561 0
M  V30 9113 O 375.168 -8.36503 -2.79617 0
M  V30 9114 O 375.708 -7.71806 -0.42951 0
M  V30 9115 C 376.648 -7.67148 0.673689 0
M  V30 9116 C 375.918 -7.33374 1.95559 0
M  V30 9117 O 375.708 -5.88721 2.00726 0
M  V30 9118 C 374.518 -7.92526 2.10483 0
M  V30 9119 O 374.128 -8.02971 3.47653 0
M  V30 9120 C 373.638 -6.89602 1.41652 0
M  V30 9121 C 374.348 -5.59201 1.75185 0
M  V30 9122 N 374.298 -4.58235 0.662552 0
M  V30 9123 H 377.137 -8.65116 0.777161 0
M  V30 9124 H 377.409 -6.90173 0.474152 0
M  V30 9125 H 376.541 -7.66548 2.79458 0
M  V30 9126 P 372.578 -8.03563 3.84925 0
M  V30 9127 O 372.358 -8.85821 5.0569 0
M  V30 9128 O 371.788 -8.41101 2.65469 0
M  V30 9129 O 372.328 -6.4965 4.18908 0
M  V30 9130 C 373.268 -5.81037 5.05421 0
M  V30 9131 C 372.538 -4.78366 5.89277 0
M  V30 9132 O 372.328 -3.58302 5.08433 0
M  V30 9133 C 371.138 -5.17448 6.36119 0
M  V30 9134 O 370.748 -4.45271 7.53232 0
M  V30 9135 C 370.258 -4.74639 5.19936 0
M  V30 9136 C 370.968 -3.49432 4.70418 0
M  V30 9137 N 370.918 -3.31776 3.22945 0
M  V30 9138 H 373.757 -6.54213 5.71376 0
M  V30 9139 H 374.029 -5.30492 4.44033 0
M  V30 9140 H 373.161 -4.55889 6.76652 0
M  V30 9141 P 369.198 -4.23843 7.83734 0
M  V30 9142 O 368.978 -4.19407 9.29784 0
M  V30 9143 O 368.408 -5.24426 7.09156 0
M  V30 9144 O 368.948 -2.79386 7.20852 0
M  V30 9145 C 369.888 -1.7299 7.50419 0
M  V30 9146 C 369.158 -0.41401 7.5797 0
M  V30 9147 O 368.948 0.089787 6.22035 0
M  V30 9148 C 367.758 -0.447224 8.1878 0
M  V30 9149 O 367.368 0.825159 8.71201 0
M  V30 9150 C 366.878 -0.783801 6.99623 0
M  V30 9151 C 367.588 -0.0619192 5.85967 0
M  V30 9152 N 367.538 -0.7859 4.56281 0
M  V30 9153 C 367.388 -0.0359258 3.39981 0
M  V30 9154 O 367.298 1.19723 3.49038 0
M  V30 9155 N 367.338 -0.869151 2.14025 0
M  V30 9156 C 367.438 -2.01207 2.14363 0
M  V30 9157 N 367.388 -2.58978 0.954287 0
M  V30 9158 C 367.588 -2.80817 3.32215 0
M  V30 9159 C 367.638 -2.13785 4.50884 0
M  V30 9160 H 370.378 -1.93401 8.46693 0
M  V30 9161 H 370.648 -1.68181 6.71046 0
M  V30 9162 H 369.781 0.289076 8.15488 0
M  V30 9163 H 367.126 0.927166 5.72947 0
M  V30 9164 H 366.846 -1.87 6.82132 0
M  V30 9165 H 365.855 -0.404009 7.13457 0
M  V30 9166 H 367.689 -1.20599 8.97534 0
M  V30 9167 H 367.761 -2.70295 5.43162 0
M  V30 9168 H 367.659 -3.89465 3.27406 0
M  V30 9169 H 367.271 -2.01616 0.107046 0
M  V30 9170 H 367.467 -3.61403 0.873101 0
M  V30 9171 P 365.818 1.17771 8.83182 0
M  V30 9172 O 365.598 2.07206 9.98732 0
M  V30 9173 O 365.028 -0.0743816 8.81969 0
M  V30 9174 O 365.568 1.97652 7.47304 0
M  V30 9175 C 366.508 3.01133 7.08783 0
M  V30 9176 C 365.778 4.12613 6.37049 0
M  V30 9177 O 365.568 3.72827 4.97879 0
M  V30 9178 C 364.378 4.45085 6.88694 0
M  V30 9179 O 363.988 5.7877 6.5624 0
M  V30 9180 C 363.498 3.47817 6.12078 0
M  V30 9181 C 364.208 3.39414 4.77697 0
M  V30 9182 N 364.158 2.04199 4.15538 0
M  V30 9183 C 364.238 0.821545 4.76977 0
M  V30 9184 N 364.168 -0.1794 3.94592 0
M  V30 9185 C 364.018 0.419121 2.70776 0
M  V30 9186 C 363.888 -0.109072 1.40577 0
M  V30 9187 N 363.878 -1.4104 1.1344 0
M  V30 9188 N 363.768 0.764381 0.39411 0
M  V30 9189 C 363.778 2.06587 0.664135 0
M  V30 9190 N 363.898 2.67948 1.82153 0
M  V30 9191 C 364.018 1.77942 2.8147 0
M  V30 9192 H 366.997 3.41248 7.98759 0
M  V30 9193 H 367.269 2.57728 6.42 0
M  V30 9194 H 366.401 5.02657 6.42673 0
M  V30 9195 H 363.746 4.11708 4.08956 0
M  V30 9196 H 363.466 2.49626 6.61679 0
M  V30 9197 H 362.475 3.8662 6.00862 0
M  V30 9198 H 364.309 4.29991 7.97006 0
M  V30 9199 H 364.35 0.702451 5.84696 0
M  V30 9200 H 363.969 -2.09647 1.89651 0
M  V30 9201 H 363.78 -1.73358 0.160575 0
M  V30 9202 H 363.672 2.71695 -0.195838 0
M  V30 9203 P 362.438 6.144 6.45285 0
M  V30 9204 O 362.218 7.54673 6.86199 0
M  V30 9205 O 361.648 5.12391 7.179 0
M  V30 9206 O 362.188 5.99158 4.88404 0
M  V30 9207 C 363.128 6.60234 3.96415 0
M  V30 9208 C 362.398 7.08259 2.72856 0
M  V30 9209 O 362.188 5.9427 1.83651 0
M  V30 9210 C 360.998 7.64886 2.9555 0
M  V30 9211 O 360.608 8.53963 1.90717 0
M  V30 9212 C 360.118 6.4116 2.90739 0
M  V30 9213 C 360.828 5.55375 1.86963 0
M  V30 9214 N 360.778 4.09448 2.16152 0
M  V30 9215 H 363.617 7.45574 4.45629 0
M  V30 9216 H 363.889 5.85864 3.679 0
M  V30 9217 H 363.021 7.84412 2.24479 0
M  V30 9218 H 360.366 5.73457 0.888562 0
M  V30 9219 H 360.086 5.90877 3.88583 0
M  V30 9220 H 359.095 6.6596 2.58858 0
M  V30 9221 H 360.929 8.16339 3.92049 0
M  V30 9222 P 359.058 8.7635 1.60911 0
M  V30 9223 O 358.838 10.1388 1.11561 0
M  V30 9224 O 358.268 8.36503 2.79617 0
M  V30 9225 O 358.808 7.71906 0.429565 0
M  V30 9226 C 359.748 7.67148 -0.673689 0
M  V30 9227 C 359.018 7.33666 -1.94851 0
M  V30 9228 O 358.808 5.88816 -2.00759 0
M  V30 9229 C 357.618 7.92526 -2.10483 0
M  V30 9230 O 357.228 8.03063 -3.47693 0
M  V30 9231 C 356.738 6.89602 -1.41652 0
M  V30 9232 C 357.448 5.59201 -1.75185 0
M  V30 9233 N 357.398 4.58235 -0.662552 0
M  V30 9234 C 357.248 3.24451 -1.01643 0
M  V30 9235 O 357.158 2.94958 -2.21722 0
M  V30 9236 N 357.198 2.30408 0.165238 0
M  V30 9237 C 357.298 2.66048 1.25118 0
M  V30 9238 N 357.248 1.70787 2.16813 0
M  V30 9239 C 357.448 4.02732 1.64413 0
M  V30 9240 C 357.498 4.9488 0.63991 0
M  V30 9241 H 360.238 8.65017 -0.777072 0
M  V30 9242 H 360.508 6.90173 -0.474152 0
M  V30 9243 H 359.641 7.66642 -2.79492 0
M  V30 9244 H 356.986 5.16254 -2.65229 0
M  V30 9245 H 356.706 7.06532 -0.329431 0
M  V30 9246 H 355.715 6.91023 -1.82047 0
M  V30 9247 H 357.549 8.90873 -1.62657 0
M  V30 9248 H 357.621 6.00104 0.892197 0
M  V30 9249 H 357.519 4.31733 2.69229 0
M  V30 9250 H 357.131 0.724835 1.8844 0
M  V30 9251 H 357.327 1.94716 3.16734 0
M  V30 9252 P 355.678 8.03563 -3.84925 0
M  V30 9253 O 355.458 8.85821 -5.0569 0
M  V30 9254 O 354.888 8.41101 -2.65469 0
M  V30 9255 O 355.428 6.4965 -4.18908 0
M  V30 9256 C 356.368 5.81037 -5.05421 0
M  V30 9257 C 355.638 4.78366 -5.89277 0
M  V30 9258 O 355.428 3.58302 -5.08433 0
M  V30 9259 C 354.238 5.17448 -6.36119 0
M  V30 9260 O 353.848 4.45271 -7.53232 0
M  V30 9261 C 353.358 4.74639 -5.19936 0
M  V30 9262 C 354.068 3.49432 -4.70418 0
M  V30 9263 N 354.018 3.31776 -3.22945 0
M  V30 9264 H 356.857 6.54213 -5.71376 0
M  V30 9265 H 357.129 5.30492 -4.44033 0
M  V30 9266 H 356.261 4.55889 -6.76652 0
M  V30 9267 P 352.298 4.23843 -7.83734 0
M  V30 9268 O 352.078 4.19407 -9.29784 0
M  V30 9269 O 351.508 5.24426 -7.09156 0
M  V30 9270 O 352.048 2.79386 -7.20852 0
M  V30 9271 C 352.988 1.7299 -7.50419 0
M  V30 9272 C 352.258 0.41401 -7.5797 0
M  V30 9273 O 352.048 -0.089787 -6.22035 0
M  V30 9274 C 350.858 0.447224 -8.1878 0
M  V30 9275 O 350.468 -0.825159 -8.71201 0
M  V30 9276 C 349.978 0.783801 -6.99623 0
M  V30 9277 C 350.688 0.0619192 -5.85967 0
M  V30 9278 N 350.638 0.7859 -4.56281 0
M  V30 9279 C 350.488 0.0359258 -3.39981 0
M  V30 9280 O 350.398 -1.19723 -3.49038 0
M  V30 9281 N 350.438 0.869151 -2.14025 0
M  V30 9282 C 350.538 2.01207 -2.14363 0
M  V30 9283 N 350.488 2.58978 -0.954287 0
M  V30 9284 C 350.688 2.80817 -3.32215 0
M  V30 9285 C 350.738 2.13785 -4.50884 0
M  V30 9286 H 353.478 1.93401 -8.46693 0
M  V30 9287 H 353.748 1.68181 -6.71046 0
M  V30 9288 H 352.881 -0.289076 -8.15488 0
M  V30 9289 H 350.226 -0.927166 -5.72947 0
M  V30 9290 H 349.946 1.87 -6.82132 0
M  V30 9291 H 348.955 0.404009 -7.13457 0
M  V30 9292 H 350.789 1.20599 -8.97534 0
M  V30 9293 H 350.861 2.70295 -5.43162 0
M  V30 9294 H 350.759 3.89465 -3.27406 0
M  V30 9295 H 350.371 2.01616 -0.107046 0
M  V30 9296 H 350.567 3.61403 -0.873101 0
M  V30 9297 P 348.918 -1.17771 -8.83182 0
M  V30 9298 O 348.698 -2.07206 -9.98732 0
M  V30 9299 O 348.128 0.0743816 -8.81969 0
M  V30 9300 O 348.668 -1.97652 -7.47304 0
M  V30 9301 C 349.608 -3.01133 -7.08783 0
M  V30 9302 C 348.878 -4.12613 -6.37049 0
M  V30 9303 O 348.668 -3.72827 -4.97879 0
M  V30 9304 C 347.478 -4.45085 -6.88694 0
M  V30 9305 O 347.088 -5.7877 -6.5624 0
M  V30 9306 C 346.598 -3.47817 -6.12078 0
M  V30 9307 C 347.308 -3.39414 -4.77697 0
M  V30 9308 N 347.258 -2.04615 -4.15333 0
M  V30 9309 C 347.338 -0.803897 -4.75249 0
M  V30 9310 N 347.258 0.197615 -3.91502 0
M  V30 9311 C 347.118 -0.413002 -2.66823 0
M  V30 9312 C 346.988 0.157221 -1.38007 0
M  V30 9313 O 346.968 1.34419 -1.057 0
M  V30 9314 N 346.868 -0.833136 -0.390236 0
M  V30 9315 C 346.868 -2.19402 -0.623885 0
M  V30 9316 N 346.738 -2.97622 0.449677 0
M  V30 9317 N 346.998 -2.73005 -1.83601 0
M  V30 9318 C 347.118 -1.78786 -2.80935 0
M  V30 9319 H 350.097 -3.41248 -7.98759 0
M  V30 9320 H 350.369 -2.5837 -6.41742 0
M  V30 9321 H 349.501 -5.02657 -6.42673 0
M  V30 9322 H 346.846 -4.11779 -4.09026 0
M  V30 9323 H 346.566 -2.49661 -6.61772 0
M  V30 9324 H 345.575 -3.86674 -6.00946 0
M  V30 9325 H 347.409 -4.30038 -7.97094 0
M  V30 9326 H 347.458 -0.670579 -5.82754 0
M  V30 9327 H 346.776 -0.528446 0.557287 0
M  V30 9328 H 346.739 -4.00117 0.344773 0
M  V30 9329 H 346.638 -2.55448 1.38544 0
M  V30 9330 P 345.538 -6.144 -6.45285 0
M  V30 9331 O 345.318 -7.54673 -6.86199 0
M  V30 9332 O 344.748 -5.12391 -7.179 0
M  V30 9333 O 345.288 -5.99158 -4.88404 0
M  V30 9334 C 346.228 -6.60234 -3.96415 0
M  V30 9335 C 345.498 -7.08259 -2.72856 0
M  V30 9336 O 345.288 -5.9427 -1.83651 0
M  V30 9337 C 344.098 -7.64886 -2.9555 0
M  V30 9338 O 343.708 -8.53963 -1.90717 0
M  V30 9339 C 343.218 -6.4116 -2.90739 0
M  V30 9340 C 343.928 -5.55375 -1.86963 0
M  V30 9341 N 343.878 -4.09664 -2.15742 0
M  V30 9342 H 346.717 -7.45574 -4.45629 0
M  V30 9343 H 346.989 -5.86232 -3.67314 0
M  V30 9344 H 346.121 -7.84412 -2.24479 0
M  V30 9345 P 342.158 -8.7635 -1.60911 0
M  V30 9346 O 341.938 -10.1388 -1.11561 0
M  V30 9347 O 341.368 -8.36503 -2.79617 0
M  V30 9348 O 341.908 -7.71806 -0.42951 0
M  V30 9349 C 342.848 -7.67148 0.673689 0
M  V30 9350 C 342.118 -7.33374 1.95559 0
M  V30 9351 O 341.908 -5.88721 2.00726 0
M  V30 9352 C 340.718 -7.92526 2.10483 0
M  V30 9353 O 340.328 -8.02971 3.47653 0
M  V30 9354 C 339.838 -6.89602 1.41652 0
M  V30 9355 C 340.548 -5.59201 1.75185 0
M  V30 9356 N 340.498 -4.58235 0.662552 0
M  V30 9357 H 343.337 -8.65116 0.777161 0
M  V30 9358 H 343.609 -6.90173 0.474152 0
M  V30 9359 H 342.741 -7.66548 2.79458 0
M  V30 9360 P 338.778 -8.03563 3.84925 0
M  V30 9361 O 338.558 -8.85821 5.0569 0
M  V30 9362 O 337.988 -8.41101 2.65469 0
M  V30 9363 O 338.528 -6.49734 4.18962 0
M  V30 9364 C 339.468 -5.81037 5.05421 0
M  V30 9365 C 338.738 -4.79018 5.88876 0
M  V30 9366 O 338.528 -3.58359 5.08515 0
M  V30 9367 C 337.338 -5.17448 6.36119 0
M  V30 9368 O 336.948 -4.45322 7.53318 0
M  V30 9369 C 336.458 -4.74639 5.19936 0
M  V30 9370 C 337.168 -3.49432 4.70418 0
M  V30 9371 N 337.118 -3.31776 3.22945 0
M  V30 9372 C 336.968 -2.02742 2.72939 0
M  V30 9373 O 336.878 -1.08301 3.52749 0
M  V30 9374 N 336.918 -1.96117 1.22063 0
M  V30 9375 C 337.018 -2.8878 0.551566 0
M  V30 9376 N 336.968 -2.65609 -0.750198 0
M  V30 9377 C 337.168 -4.22457 1.03707 0
M  V30 9378 C 337.218 -4.37979 2.39113 0
M  V30 9379 H 339.958 -6.54138 5.7131 0
M  V30 9380 H 340.228 -5.30492 4.44033 0
M  V30 9381 H 339.361 -4.55945 6.76735 0
M  V30 9382 H 336.706 -2.6176 5.18021 0
M  V30 9383 H 336.426 -5.52233 4.41941 0
M  V30 9384 H 335.435 -4.52045 5.53452 0
M  V30 9385 H 337.269 -6.25124 6.55234 0
M  V30 9386 H 337.341 -5.37936 2.80552 0
M  V30 9387 H 337.239 -5.07528 0.359553 0
M  V30 9388 H 336.851 -1.69403 -1.09847 0
M  V30 9389 H 337.047 -3.43701 -1.41792 0
M  V30 9390 P 335.398 -4.23843 7.83734 0
M  V30 9391 O 335.178 -4.19407 9.29784 0
M  V30 9392 O 334.608 -5.24426 7.09156 0
M  V30 9393 O 335.148 -2.7935 7.20758 0
M  V30 9394 C 336.088 -1.7299 7.50419 0
M  V30 9395 C 335.358 -0.406376 7.57911 0
M  V30 9396 O 335.148 0.0897726 6.21935 0
M  V30 9397 C 333.958 -0.447224 8.1878 0
M  V30 9398 O 333.568 0.825065 8.71101 0
M  V30 9399 C 333.078 -0.783801 6.99623 0
M  V30 9400 C 333.788 -0.0619192 5.85967 0
M  V30 9401 N 333.738 -0.7859 4.56281 0
M  V30 9402 H 336.577 -1.93423 8.4679 0
M  V30 9403 H 336.849 -1.68181 6.71046 0
M  V30 9404 H 335.981 0.289041 8.15388 0
M  V30 9405 P 332.018 1.17771 8.83182 0
M  V30 9406 O 331.798 2.07206 9.98732 0
M  V30 9407 O 331.228 -0.0743816 8.81969 0
M  V30 9408 O 331.768 1.97652 7.47304 0
M  V30 9409 C 332.708 3.01133 7.08783 0
M  V30 9410 C 331.978 4.12613 6.37049 0
M  V30 9411 O 331.768 3.72827 4.97879 0
M  V30 9412 C 330.578 4.45085 6.88694 0
M  V30 9413 O 330.188 5.7877 6.5624 0
M  V30 9414 C 329.698 3.47817 6.12078 0
M  V30 9415 C 330.408 3.39414 4.77697 0
M  V30 9416 N 330.358 2.04199 4.15538 0
M  V30 9417 H 333.197 3.41248 7.98759 0
M  V30 9418 H 333.469 2.57728 6.42 0
M  V30 9419 H 332.601 5.02657 6.42673 0
M  V30 9420 H 329.946 4.11708 4.08956 0
M  V30 9421 H 329.666 2.49626 6.61679 0
M  V30 9422 H 328.675 3.8662 6.00862 0
M  V30 9423 H 330.509 4.29991 7.97006 0
M  V30 9424 P 328.638 6.144 6.45285 0
M  V30 9425 O 328.418 7.54673 6.86199 0
M  V30 9426 O 327.848 5.12391 7.179 0
M  V30 9427 O 328.388 5.99158 4.88404 0
M  V30 9428 C 329.328 6.60234 3.96415 0
M  V30 9429 C 328.598 7.08259 2.72856 0
M  V30 9430 O 328.388 5.9427 1.83651 0
M  V30 9431 C 327.198 7.64886 2.9555 0
M  V30 9432 O 326.808 8.53963 1.90717 0
M  V30 9433 C 326.318 6.4116 2.90739 0
M  V30 9434 C 327.028 5.55375 1.86963 0
M  V30 9435 N 326.978 4.09664 2.15742 0
M  V30 9436 H 329.817 7.45574 4.45629 0
M  V30 9437 H 330.089 5.86232 3.67314 0
M  V30 9438 H 329.221 7.84412 2.24479 0
M  V30 9439 P 325.258 8.7635 1.60911 0
M  V30 9440 O 325.038 10.1388 1.11561 0
M  V30 9441 O 324.468 8.36503 2.79617 0
M  V30 9442 O 325.008 7.71806 0.42951 0
M  V30 9443 C 325.948 7.67148 -0.673689 0
M  V30 9444 C 325.218 7.33374 -1.95559 0
M  V30 9445 O 325.008 5.88721 -2.00726 0
M  V30 9446 C 323.818 7.92526 -2.10483 0
M  V30 9447 O 323.428 8.02971 -3.47653 0
M  V30 9448 C 322.938 6.89602 -1.41652 0
M  V30 9449 C 323.648 5.59201 -1.75185 0
M  V30 9450 N 323.598 4.58235 -0.662552 0
M  V30 9451 H 326.437 8.65116 -0.777161 0
M  V30 9452 H 326.709 6.90173 -0.474152 0
M  V30 9453 H 325.841 7.66548 -2.79458 0
M  V30 9454 P 321.878 8.03563 -3.84925 0
M  V30 9455 O 321.658 8.85821 -5.0569 0
M  V30 9456 O 321.088 8.41101 -2.65469 0
M  V30 9457 O 321.628 6.4965 -4.18908 0
M  V30 9458 C 322.568 5.81037 -5.05421 0
M  V30 9459 C 321.838 4.78366 -5.89277 0
M  V30 9460 O 321.628 3.58302 -5.08433 0
M  V30 9461 C 320.438 5.17448 -6.36119 0
M  V30 9462 O 320.048 4.45271 -7.53232 0
M  V30 9463 C 319.558 4.74639 -5.19936 0
M  V30 9464 C 320.268 3.49432 -4.70418 0
M  V30 9465 N 320.218 3.31776 -3.22945 0
M  V30 9466 H 323.057 6.54213 -5.71376 0
M  V30 9467 H 323.329 5.30492 -4.44033 0
M  V30 9468 H 322.461 4.55889 -6.76652 0
M  V30 9469 P 318.498 4.23843 -7.83734 0
M  V30 9470 O 318.278 4.19407 -9.29784 0
M  V30 9471 O 317.708 5.24426 -7.09156 0
M  V30 9472 O 318.248 2.7935 -7.20758 0
M  V30 9473 C 319.188 1.7299 -7.50419 0
M  V30 9474 C 318.458 0.406376 -7.57911 0
M  V30 9475 O 318.248 -0.0897726 -6.21935 0
M  V30 9476 C 317.058 0.447224 -8.1878 0
M  V30 9477 O 316.668 -0.825065 -8.71101 0
M  V30 9478 C 316.178 0.783801 -6.99623 0
M  V30 9479 C 316.888 0.0619192 -5.85967 0
M  V30 9480 N 316.838 0.7859 -4.56281 0
M  V30 9481 C 316.918 2.14308 -4.31736 0
M  V30 9482 N 316.838 2.46106 -3.05116 0
M  V30 9483 C 316.698 1.23422 -2.4014 0
M  V30 9484 C 316.568 0.938381 -1.02409 0
M  V30 9485 N 316.448 -0.444647 -0.805413 0
M  V30 9486 C 316.448 -1.40829 -1.79435 0
M  V30 9487 N 316.318 -2.67213 -1.38558 0
M  V30 9488 N 316.578 -1.12947 -3.09005 0
M  V30 9489 C 316.698 0.204887 -3.32369 0
M  V30 9490 H 319.677 1.93423 -8.4679 0
M  V30 9491 H 319.949 1.68181 -6.71046 0
M  V30 9492 H 319.081 -0.289041 -8.15388 0
M  V30 9493 P 315.118 -1.17771 -8.83182 0
M  V30 9494 O 314.898 -2.07206 -9.98732 0
M  V30 9495 O 314.328 0.0743816 -8.81969 0
M  V30 9496 O 314.868 -1.97678 -7.474 0
M  V30 9497 C 315.808 -3.01133 -7.08783 0
M  V30 9498 C 315.078 -4.1203 -6.37546 0
M  V30 9499 O 314.868 -3.72887 -4.9796 0
M  V30 9500 C 313.678 -4.45085 -6.88694 0
M  V30 9501 O 313.288 -5.78836 -6.56315 0
M  V30 9502 C 312.798 -3.47817 -6.12078 0
M  V30 9503 C 313.508 -3.39414 -4.77697 0
M  V30 9504 N 313.458 -2.04615 -4.15333 0
M  V30 9505 C 313.308 -1.96929 -2.77162 0
M  V30 9506 O 313.218 -3.02017 -2.12006 0
M  V30 9507 N 313.258 -0.55485 -2.24237 0
M  V30 9508 C 313.358 0.367808 -2.9169 0
M  V30 9509 N 313.308 1.53426 -2.29427 0
M  V30 9510 C 313.508 0.319148 -4.33828 0
M  V30 9511 C 313.558 -0.920672 -4.90433 0
M  V30 9512 H 316.298 -3.41209 -7.98667 0
M  V30 9513 H 316.568 -2.5837 -6.41742 0
M  V30 9514 H 315.701 -5.02718 -6.42752 0
M  V30 9515 H 313.046 -4.11779 -4.09026 0
M  V30 9516 H 312.766 -2.49661 -6.61772 0
M  V30 9517 H 311.775 -3.86674 -6.00946 0
M  V30 9518 H 313.609 -4.29991 -7.97006 0
M  V30 9519 H 313.681 -1.00589 -5.98303 0
M  V30 9520 H 313.579 1.22639 -4.93799 0
M  V30 9521 H 313.191 1.56819 -1.27167 0
M  V30 9522 H 313.387 2.41062 -2.83063 0
M  V30 9523 P 311.738 -6.144 -6.45285 0
M  V30 9524 O 311.518 -7.54673 -6.86199 0
M  V30 9525 O 310.948 -5.12391 -7.179 0
M  V30 9526 O 311.488 -5.99158 -4.88404 0
M  V30 9527 C 312.428 -6.60234 -3.96415 0
M  V30 9528 C 311.698 -7.08259 -2.72856 0
M  V30 9529 O 311.488 -5.9427 -1.83651 0
M  V30 9530 C 310.298 -7.64886 -2.9555 0
M  V30 9531 O 309.908 -8.53963 -1.90717 0
M  V30 9532 C 309.418 -6.4116 -2.90739 0
M  V30 9533 C 310.128 -5.55375 -1.86963 0
M  V30 9534 N 310.078 -4.09664 -2.15742 0
M  V30 9535 H 312.917 -7.45574 -4.45629 0
M  V30 9536 H 313.189 -5.86232 -3.67314 0
M  V30 9537 H 312.321 -7.84412 -2.24479 0
M  V30 9538 P 308.358 -8.7635 -1.60911 0
M  V30 9539 O 308.138 -10.1388 -1.11561 0
M  V30 9540 O 307.568 -8.36503 -2.79617 0
M  V30 9541 O 308.108 -7.71806 -0.42951 0
M  V30 9542 C 309.048 -7.66948 0.673514 0
M  V30 9543 C 308.318 -7.33374 1.95559 0
M  V30 9544 O 308.108 -5.88721 2.00726 0
M  V30 9545 C 306.918 -7.92218 2.1125 0
M  V30 9546 O 306.528 -8.02971 3.47653 0
M  V30 9547 C 306.038 -6.89504 1.41631 0
M  V30 9548 C 306.748 -5.59106 1.75155 0
M  V30 9549 N 306.698 -4.58136 0.662409 0
M  V30 9550 C 306.548 -3.26059 1.02863 0
M  V30 9551 O 306.458 -2.90743 2.19009 0
M  V30 9552 N 306.508 -2.35995 -0.0155585 0
M  V30 9553 C 306.598 -2.65248 -1.35603 0
M  V30 9554 C 306.748 -4.05747 -1.64698 0
M  V30 9555 C 306.798 -4.96734 -0.652411 0
M  V30 9556 H 309.539 -8.64917 0.776982 0
M  V30 9557 H 309.808 -6.89974 0.474015 0
M  V30 9558 H 308.941 -7.66548 2.79458 0
M  V30 9559 H 306.286 -5.16076 2.65138 0
M  V30 9560 H 306.007 -7.06433 0.329384 0
M  V30 9561 H 305.015 -6.90829 1.81996 0
M  V30 9562 H 306.849 -8.90774 1.62639 0
M  V30 9563 H 306.92 -6.02181 -0.895285 0
M  V30 9564 P 304.978 -8.03563 3.84925 0
M  V30 9565 O 304.758 -8.85821 5.0569 0
M  V30 9566 O 304.188 -8.41101 2.65469 0
M  V30 9567 O 304.728 -6.49734 4.18962 0
M  V30 9568 C 305.668 -5.81037 5.05421 0
M  V30 9569 C 304.938 -4.79018 5.88876 0
M  V30 9570 O 304.728 -3.58359 5.08515 0
M  V30 9571 C 303.538 -5.17448 6.36119 0
M  V30 9572 O 303.148 -4.45322 7.53318 0
M  V30 9573 C 302.658 -4.74639 5.19936 0
M  V30 9574 C 303.368 -3.49432 4.70418 0
M  V30 9575 N 303.318 -3.31776 3.22945 0
M  V30 9576 C 303.168 -2.02742 2.72939 0
M  V30 9577 O 303.078 -1.08301 3.52749 0
M  V30 9578 N 303.118 -1.96117 1.22063 0
M  V30 9579 C 303.218 -2.8878 0.551566 0
M  V30 9580 N 303.168 -2.65609 -0.750198 0
M  V30 9581 C 303.368 -4.22457 1.03707 0
M  V30 9582 C 303.418 -4.37979 2.39113 0
M  V30 9583 H 306.158 -6.54138 5.7131 0
M  V30 9584 H 306.428 -5.30492 4.44033 0
M  V30 9585 H 305.561 -4.55945 6.76735 0
M  V30 9586 H 302.906 -2.6176 5.18021 0
M  V30 9587 H 302.626 -5.52233 4.41941 0
M  V30 9588 H 301.635 -4.52045 5.53452 0
M  V30 9589 H 303.469 -6.25124 6.55234 0
M  V30 9590 H 303.541 -5.37936 2.80552 0
M  V30 9591 H 303.439 -5.07528 0.359553 0
M  V30 9592 H 303.051 -1.69403 -1.09847 0
M  V30 9593 H 303.247 -3.43701 -1.41792 0
M  V30 9594 P 301.598 -4.23843 7.83734 0
M  V30 9595 O 301.378 -4.19407 9.29784 0
M  V30 9596 O 300.808 -5.24426 7.09156 0
M  V30 9597 O 301.348 -2.7935 7.20758 0
M  V30 9598 C 302.288 -1.7299 7.50419 0
M  V30 9599 C 301.558 -0.406376 7.57911 0
M  V30 9600 O 301.348 0.0897726 6.21935 0
M  V30 9601 C 300.158 -0.447224 8.1878 0
M  V30 9602 O 299.768 0.825065 8.71101 0
M  V30 9603 C 299.278 -0.783801 6.99623 0
M  V30 9604 C 299.988 -0.0619192 5.85967 0
M  V30 9605 N 299.938 -0.790462 4.56202 0
M  V30 9606 H 302.777 -1.93423 8.4679 0
M  V30 9607 H 303.049 -1.68852 6.70877 0
M  V30 9608 H 302.181 0.289041 8.15388 0
M  V30 9609 H 299.526 0.927006 5.72848 0
M  V30 9610 H 299.246 -1.86973 6.82036 0
M  V30 9611 H 298.255 -0.403953 7.13357 0
M  V30 9612 H 300.089 -1.20599 8.97534 0
M  V30 9613 P 298.218 1.17771 8.83182 0
M  V30 9614 O 297.998 2.07206 9.98732 0
M  V30 9615 O 297.428 -0.0743816 8.81969 0
M  V30 9616 O 297.968 1.97652 7.47304 0
M  V30 9617 C 298.908 3.01055 7.08599 0
M  V30 9618 C 298.178 4.12613 6.37049 0
M  V30 9619 O 297.968 3.72827 4.97879 0
M  V30 9620 C 296.778 4.45719 6.88164 0
M  V30 9621 O 296.388 5.7877 6.5624 0
M  V30 9622 C 295.898 3.47768 6.11991 0
M  V30 9623 C 296.608 3.39356 4.77615 0
M  V30 9624 N 296.558 2.04571 4.15244 0
M  V30 9625 C 296.408 1.98587 2.78314 0
M  V30 9626 O 296.318 2.98134 2.08835 0
M  V30 9627 N 296.368 0.714467 2.24925 0
M  V30 9628 C 296.458 -0.470001 2.94169 0
M  V30 9629 O 296.408 -1.55587 2.35195 0
M  V30 9630 C 296.608 -0.312541 4.36783 0
M  V30 9631 C 296.718 -1.57711 5.16352 0
M  V30 9632 C 296.658 0.914512 4.92583 0
M  V30 9633 H 299.399 3.41169 7.98575 0
M  V30 9634 H 299.668 2.58295 6.41556 0
M  V30 9635 H 298.801 5.02657 6.42673 0
M  V30 9636 H 296.146 4.11637 4.08885 0
M  V30 9637 H 295.867 2.49626 6.61679 0
M  V30 9638 H 294.875 3.86566 6.00778 0
M  V30 9639 H 296.709 4.29943 7.96918 0
M  V30 9640 H 296.78 1.00937 6.00374 0
M  V30 9641 H 295.75 -1.80153 5.63503 0
M  V30 9642 H 297.487 -1.4566 5.94104 0
M  V30 9643 H 296.999 -2.40664 4.49645 0
M  V30 9644 H 296.263 0.647622 1.25697 0
M  V30 9645 P 294.838 6.144 6.45285 0
M  V30 9646 O 294.618 7.54673 6.86199 0
M  V30 9647 O 294.048 5.12391 7.179 0
M  V30 9648 O 294.588 5.99158 4.88404 0
M  V30 9649 C 295.528 6.60234 3.96415 0
M  V30 9650 C 294.798 7.08259 2.72856 0
M  V30 9651 O 294.588 5.9427 1.83651 0
M  V30 9652 C 293.398 7.64886 2.9555 0
M  V30 9653 O 293.008 8.53963 1.90717 0
M  V30 9654 C 292.518 6.4116 2.90739 0
M  V30 9655 C 293.228 5.55375 1.86963 0
M  V30 9656 N 293.178 4.09664 2.15742 0
M  V30 9657 H 296.017 7.45574 4.45629 0
M  V30 9658 H 296.289 5.86232 3.67314 0
M  V30 9659 H 295.421 7.84412 2.24479 0
M  V30 9660 P 291.458 8.7635 1.60911 0
M  V30 9661 O 291.238 10.1388 1.11561 0
M  V30 9662 O 290.668 8.36503 2.79617 0
M  V30 9663 O 291.208 7.71806 0.42951 0
M  V30 9664 C 292.148 7.67148 -0.673689 0
M  V30 9665 C 291.418 7.33374 -1.95559 0
M  V30 9666 O 291.208 5.88721 -2.00726 0
M  V30 9667 C 290.018 7.92526 -2.10483 0
M  V30 9668 O 289.628 8.02971 -3.47653 0
M  V30 9669 C 289.138 6.89602 -1.41652 0
M  V30 9670 C 289.848 5.59201 -1.75185 0
M  V30 9671 N 289.798 4.58235 -0.662552 0
M  V30 9672 H 292.637 8.65116 -0.777161 0
M  V30 9673 H 292.909 6.90173 -0.474152 0
M  V30 9674 H 292.041 7.66548 -2.79458 0
M  V30 9675 P 288.078 8.03563 -3.84925 0
M  V30 9676 O 287.858 8.85821 -5.0569 0
M  V30 9677 O 287.288 8.41101 -2.65469 0
M  V30 9678 O 287.828 6.49734 -4.18962 0
M  V30 9679 C 288.768 5.81037 -5.05421 0
M  V30 9680 C 288.038 4.79018 -5.88876 0
M  V30 9681 O 287.828 3.58359 -5.08515 0
M  V30 9682 C 286.638 5.17448 -6.36119 0
M  V30 9683 O 286.248 4.45322 -7.53318 0
M  V30 9684 C 285.758 4.74639 -5.19936 0
M  V30 9685 C 286.468 3.49432 -4.70418 0
M  V30 9686 N 286.418 3.31776 -3.22945 0
M  V30 9687 C 286.268 2.02742 -2.72939 0
M  V30 9688 O 286.178 1.08301 -3.52749 0
M  V30 9689 N 286.218 1.96117 -1.22063 0
M  V30 9690 C 286.318 2.8878 -0.551566 0
M  V30 9691 N 286.268 2.65609 0.750198 0
M  V30 9692 C 286.468 4.22457 -1.03707 0
M  V30 9693 C 286.518 4.37979 -2.39113 0
M  V30 9694 H 289.258 6.54138 -5.7131 0
M  V30 9695 H 289.528 5.30492 -4.44033 0
M  V30 9696 H 288.661 4.55945 -6.76735 0
M  V30 9697 H 286.006 2.6176 -5.18021 0
M  V30 9698 H 285.726 5.52233 -4.41941 0
M  V30 9699 H 284.735 4.52045 -5.53452 0
M  V30 9700 H 286.569 6.25124 -6.55234 0
M  V30 9701 H 286.641 5.37936 -2.80552 0
M  V30 9702 H 286.539 5.07528 -0.359553 0
M  V30 9703 H 286.151 1.69403 1.09847 0
M  V30 9704 H 286.347 3.43701 1.41792 0
M  V30 9705 P 284.698 4.23843 -7.83734 0
M  V30 9706 O 284.478 4.19407 -9.29784 0
M  V30 9707 O 283.908 5.24426 -7.09156 0
M  V30 9708 O 284.448 2.7935 -7.20758 0
M  V30 9709 C 285.388 1.72945 -7.50224 0
M  V30 9710 C 284.658 0.406376 -7.57911 0
M  V30 9711 O 284.448 -0.0897726 -6.21935 0
M  V30 9712 C 283.258 0.438983 -8.18724 0
M  V30 9713 O 282.868 -0.825065 -8.71101 0
M  V30 9714 C 282.378 0.783689 -6.99524 0
M  V30 9715 C 283.088 0.0619086 -5.85867 0
M  V30 9716 N 283.038 0.78573 -4.56183 0
M  V30 9717 C 282.888 0.0292889 -3.41887 0
M  V30 9718 O 282.798 -1.18445 -3.4419 0
M  V30 9719 N 282.848 0.744061 -2.23964 0
M  V30 9720 C 282.938 2.10932 -2.10362 0
M  V30 9721 O 282.888 2.64117 -0.98825 0
M  V30 9722 C 283.088 2.8202 -3.34994 0
M  V30 9723 C 283.198 4.31095 -3.25037 0
M  V30 9724 C 283.138 2.15547 -4.52261 0
M  V30 9725 H 285.879 1.93379 -8.46595 0
M  V30 9726 H 286.148 1.68132 -6.70852 0
M  V30 9727 H 285.281 -0.289041 -8.15388 0
M  V30 9728 H 282.626 -0.926847 -5.72749 0
M  V30 9729 H 282.347 1.86973 -6.82036 0
M  V30 9730 H 281.355 0.403896 -7.13257 0
M  V30 9731 H 283.189 1.20585 -8.97435 0
M  V30 9732 H 283.26 2.71231 -5.45042 0
M  V30 9733 H 282.23 4.76966 -3.49992 0
M  V30 9734 H 283.967 4.67047 -3.95024 0
M  V30 9735 H 283.479 4.58996 -2.22312 0
M  V30 9736 H 282.743 0.214893 -1.39758 0
M  V30 9737 P 281.318 -1.17771 -8.83182 0
M  V30 9738 O 281.098 -2.07206 -9.98732 0
M  V30 9739 O 280.528 0.0743816 -8.81969 0
M  V30 9740 O 281.068 -1.97652 -7.47304 0
M  V30 9741 C 282.008 -3.01055 -7.08599 0
M  V30 9742 C 281.278 -4.12613 -6.37049 0
M  V30 9743 O 281.068 -3.72827 -4.97879 0
M  V30 9744 C 279.878 -4.45719 -6.88164 0
M  V30 9745 O 279.488 -5.7877 -6.5624 0
M  V30 9746 C 278.998 -3.47768 -6.11991 0
M  V30 9747 C 279.708 -3.39356 -4.77615 0
M  V30 9748 N 279.658 -2.04571 -4.15244 0
M  V30 9749 C 279.508 -1.98587 -2.78314 0
M  V30 9750 O 279.418 -2.98134 -2.08835 0
M  V30 9751 N 279.468 -0.714467 -2.24925 0
M  V30 9752 C 279.558 0.470001 -2.94169 0
M  V30 9753 O 279.508 1.55587 -2.35195 0
M  V30 9754 C 279.708 0.312541 -4.36783 0
M  V30 9755 C 279.818 1.57711 -5.16352 0
M  V30 9756 C 279.758 -0.914512 -4.92583 0
M  V30 9757 H 282.499 -3.41169 -7.98575 0
M  V30 9758 H 282.768 -2.58295 -6.41556 0
M  V30 9759 H 281.901 -5.02657 -6.42673 0
M  V30 9760 H 279.246 -4.11637 -4.08885 0
M  V30 9761 H 278.967 -2.49626 -6.61679 0
M  V30 9762 H 277.975 -3.86566 -6.00778 0
M  V30 9763 H 279.809 -4.29943 -7.96918 0
M  V30 9764 H 279.88 -1.00937 -6.00374 0
M  V30 9765 H 278.85 1.80153 -5.63503 0
M  V30 9766 H 280.587 1.4566 -5.94104 0
M  V30 9767 H 280.099 2.40664 -4.49645 0
M  V30 9768 H 279.363 -0.647622 -1.25697 0
M  V30 9769 P 277.938 -6.144 -6.45285 0
M  V30 9770 O 277.718 -7.54673 -6.86199 0
M  V30 9771 O 277.148 -5.12391 -7.179 0
M  V30 9772 O 277.688 -5.99158 -4.88404 0
M  V30 9773 C 278.628 -6.60234 -3.96415 0
M  V30 9774 C 277.898 -7.08259 -2.72856 0
M  V30 9775 O 277.688 -5.9427 -1.83651 0
M  V30 9776 C 276.498 -7.64886 -2.9555 0
M  V30 9777 O 276.108 -8.53963 -1.90717 0
M  V30 9778 C 275.618 -6.4116 -2.90739 0
M  V30 9779 C 276.328 -5.55375 -1.86963 0
M  V30 9780 N 276.278 -4.09664 -2.15742 0
M  V30 9781 C 276.358 -3.44381 -3.37233 0
M  V30 9782 N 276.278 -2.14131 -3.28347 0
M  V30 9783 C 276.138 -1.90247 -1.91588 0
M  V30 9784 C 276.008 -0.683992 -1.20892 0
M  V30 9785 O 275.988 0.46618 -1.64523 0
M  V30 9786 N 275.888 -0.903396 0.173998 0
M  V30 9787 C 275.888 -2.14171 0.784879 0
M  V30 9788 N 275.758 -2.1435 2.11317 0
M  V30 9789 N 276.018 -3.28784 0.119316 0
M  V30 9790 C 276.138 -3.0977 -1.22194 0
M  V30 9791 H 279.117 -7.45574 -4.45629 0
M  V30 9792 H 279.389 -5.86232 -3.67314 0
M  V30 9793 H 278.521 -7.84412 -2.24479 0
M  V30 9794 H 275.866 -5.73556 -0.888715 0
M  V30 9795 H 275.586 -5.9096 -3.88638 0
M  V30 9796 H 274.595 -6.66053 -2.58894 0
M  V30 9797 H 276.429 -8.16429 -3.92093 0
M  V30 9798 H 276.478 -3.96785 -4.32043 0
M  V30 9799 H 275.796 -0.0999567 0.761467 0
M  V30 9800 H 275.759 -3.03436 2.63076 0
M  V30 9801 H 275.658 -1.25228 2.62233 0
M  V30 9802 P 274.558 -8.7635 -1.60911 0
M  V30 9803 O 274.338 -10.1388 -1.11561 0
M  V30 9804 O 273.768 -8.36503 -2.79617 0
M  V30 9805 O 274.308 -7.71806 -0.42951 0
M  V30 9806 C 275.248 -7.67148 0.673689 0
M  V30 9807 C 274.518 -7.33374 1.95559 0
M  V30 9808 O 274.308 -5.88721 2.00726 0
M  V30 9809 C 273.118 -7.92526 2.10483 0
M  V30 9810 O 272.728 -8.02971 3.47653 0
M  V30 9811 C 272.238 -6.89602 1.41652 0
M  V30 9812 C 272.948 -5.59201 1.75185 0
M  V30 9813 N 272.898 -4.58235 0.662552 0
M  V30 9814 H 275.737 -8.65116 0.777161 0
M  V30 9815 H 276.009 -6.90173 0.474152 0
M  V30 9816 H 275.141 -7.66548 2.79458 0
M  V30 9817 P 271.178 -8.03563 3.84925 0
M  V30 9818 O 270.958 -8.85821 5.0569 0
M  V30 9819 O 270.388 -8.41101 2.65469 0
M  V30 9820 O 270.928 -6.4965 4.18908 0
M  V30 9821 C 271.868 -5.81037 5.05421 0
M  V30 9822 C 271.138 -4.78366 5.89277 0
M  V30 9823 O 270.928 -3.58302 5.08433 0
M  V30 9824 C 269.738 -5.17448 6.36119 0
M  V30 9825 O 269.348 -4.45271 7.53232 0
M  V30 9826 C 268.858 -4.74639 5.19936 0
M  V30 9827 C 269.568 -3.49432 4.70418 0
M  V30 9828 N 269.518 -3.31776 3.22945 0
M  V30 9829 H 272.357 -6.54213 5.71376 0
M  V30 9830 H 272.629 -5.30492 4.44033 0
M  V30 9831 H 271.761 -4.55889 6.76652 0
M  V30 9832 P 267.798 -4.23843 7.83734 0
M  V30 9833 O 267.578 -4.19407 9.29784 0
M  V30 9834 O 267.008 -5.24426 7.09156 0
M  V30 9835 O 267.548 -2.7935 7.20758 0
M  V30 9836 C 268.488 -1.7299 7.50419 0
M  V30 9837 C 267.758 -0.406376 7.57911 0
M  V30 9838 O 267.548 0.0897726 6.21935 0
M  V30 9839 C 266.358 -0.447224 8.1878 0
M  V30 9840 O 265.968 0.825065 8.71101 0
M  V30 9841 C 265.478 -0.783801 6.99623 0
M  V30 9842 C 266.188 -0.0619192 5.85967 0
M  V30 9843 N 266.138 -0.7859 4.56281 0
M  V30 9844 H 268.977 -1.93423 8.4679 0
M  V30 9845 H 269.249 -1.68181 6.71046 0
M  V30 9846 H 268.381 0.289041 8.15388 0
M  V30 9847 P 264.418 1.17771 8.83182 0
M  V30 9848 O 264.198 2.07206 9.98732 0
M  V30 9849 O 263.628 -0.0743816 8.81969 0
M  V30 9850 O 264.168 1.97678 7.474 0
M  V30 9851 C 265.108 3.01133 7.08783 0
M  V30 9852 C 264.378 4.1203 6.37546 0
M  V30 9853 O 264.168 3.72887 4.9796 0
M  V30 9854 C 262.978 4.45085 6.88694 0
M  V30 9855 O 262.588 5.78836 6.56315 0
M  V30 9856 C 262.098 3.47817 6.12078 0
M  V30 9857 C 262.808 3.39414 4.77697 0
M  V30 9858 N 262.758 2.04615 4.15333 0
M  V30 9859 C 262.608 1.96929 2.77162 0
M  V30 9860 O 262.518 3.02017 2.12006 0
M  V30 9861 N 262.558 0.55485 2.24237 0
M  V30 9862 C 262.658 -0.367808 2.9169 0
M  V30 9863 N 262.608 -1.53426 2.29427 0
M  V30 9864 C 262.808 -0.319148 4.33828 0
M  V30 9865 C 262.858 0.920672 4.90433 0
M  V30 9866 H 265.598 3.41209 7.98667 0
M  V30 9867 H 265.868 2.5837 6.41742 0
M  V30 9868 H 265.001 5.02718 6.42752 0
M  V30 9869 H 262.346 4.11779 4.09026 0
M  V30 9870 H 262.066 2.49661 6.61772 0
M  V30 9871 H 261.075 3.86674 6.00946 0
M  V30 9872 H 262.909 4.29991 7.97006 0
M  V30 9873 H 262.981 1.00589 5.98303 0
M  V30 9874 H 262.879 -1.22639 4.93799 0
M  V30 9875 H 262.491 -1.56819 1.27167 0
M  V30 9876 H 262.687 -2.41062 2.83063 0
M  V30 9877 P 261.038 6.144 6.45285 0
M  V30 9878 O 260.818 7.54673 6.86199 0
M  V30 9879 O 260.248 5.12391 7.179 0
M  V30 9880 O 260.788 5.99158 4.88404 0
M  V30 9881 C 261.728 6.60234 3.96415 0
M  V30 9882 C 260.998 7.08259 2.72856 0
M  V30 9883 O 260.788 5.9427 1.83651 0
M  V30 9884 C 259.598 7.64886 2.9555 0
M  V30 9885 O 259.208 8.53963 1.90717 0
M  V30 9886 C 258.718 6.4116 2.90739 0
M  V30 9887 C 259.428 5.55375 1.86963 0
M  V30 9888 N 259.378 4.09664 2.15742 0
M  V30 9889 H 262.217 7.45574 4.45629 0
M  V30 9890 H 262.489 5.86232 3.67314 0
M  V30 9891 H 261.621 7.84412 2.24479 0
M  V30 9892 P 257.658 8.7635 1.60911 0
M  V30 9893 O 257.438 10.1388 1.11561 0
M  V30 9894 O 256.868 8.36503 2.79617 0
M  V30 9895 O 257.408 7.71806 0.42951 0
M  V30 9896 C 258.348 7.67148 -0.673689 0
M  V30 9897 C 257.618 7.33374 -1.95559 0
M  V30 9898 O 257.408 5.88721 -2.00726 0
M  V30 9899 C 256.218 7.92526 -2.10483 0
M  V30 9900 O 255.828 8.02971 -3.47653 0
M  V30 9901 C 255.338 6.89602 -1.41652 0
M  V30 9902 C 256.048 5.59201 -1.75185 0
M  V30 9903 N 255.998 4.58301 -0.657969 0
M  V30 9904 H 258.837 8.65116 -0.777161 0
M  V30 9905 H 259.109 6.9022 -0.46725 0
M  V30 9906 H 258.241 7.66548 -2.79458 0
M  V30 9907 H 255.586 5.16165 -2.65183 0
M  V30 9908 H 255.306 7.06433 -0.329384 0
M  V30 9909 H 254.315 6.90926 -1.82021 0
M  V30 9910 H 256.149 8.90873 -1.62657 0
M  V30 9911 P 254.279 8.03563 -3.84925 0
M  V30 9912 O 254.059 8.85821 -5.0569 0
M  V30 9913 O 253.489 8.41101 -2.65469 0
M  V30 9914 O 254.029 6.4965 -4.18908 0
M  V30 9915 C 254.969 5.80886 -5.05289 0
M  V30 9916 C 254.239 4.78366 -5.89277 0
M  V30 9917 O 254.029 3.58302 -5.08433 0
M  V30 9918 C 252.839 5.16748 -6.36559 0
M  V30 9919 O 252.449 4.45271 -7.53232 0
M  V30 9920 C 251.959 4.74572 -5.19863 0
M  V30 9921 C 252.669 3.49373 -4.70338 0
M  V30 9922 N 252.619 3.31704 -3.22876 0
M  V30 9923 C 252.469 2.03326 -2.74871 0
M  V30 9924 O 252.379 1.06486 -3.48076 0
M  V30 9925 N 252.429 1.91838 -1.37456 0
M  V30 9926 C 252.519 2.94295 -0.462035 0
M  V30 9927 C 252.669 4.25064 -1.05249 0
M  V30 9928 C 252.719 4.40214 -2.39192 0
M  V30 9929 H 255.46 6.54063 -5.71245 0
M  V30 9930 H 255.729 5.30339 -4.43905 0
M  V30 9931 H 254.862 4.55889 -6.76652 0
M  V30 9932 H 252.207 2.6167 -5.17842 0
M  V30 9933 H 251.928 5.52155 -4.41878 0
M  V30 9934 H 250.936 4.51918 -5.53297 0
M  V30 9935 H 252.77 6.25055 -6.55162 0
M  V30 9936 H 252.841 5.39798 -2.81523 0
M  V30 9937 P 250.899 4.23843 -7.83734 0
M  V30 9938 O 250.679 4.19407 -9.29784 0
M  V30 9939 O 250.109 5.24426 -7.09156 0
M  V30 9940 O 250.649 2.7935 -7.20758 0
M  V30 9941 C 251.589 1.72945 -7.50224 0
M  V30 9942 C 250.859 0.406376 -7.57911 0
M  V30 9943 O 250.649 -0.0897726 -6.21935 0
M  V30 9944 C 249.459 0.438983 -8.18724 0
M  V30 9945 O 249.069 -0.825065 -8.71101 0
M  V30 9946 C 248.579 0.783689 -6.99524 0
M  V30 9947 C 249.289 0.0619086 -5.85867 0
M  V30 9948 N 249.239 0.78573 -4.56183 0
M  V30 9949 C 249.089 0.0292889 -3.41887 0
M  V30 9950 O 248.999 -1.18445 -3.4419 0
M  V30 9951 N 249.049 0.744061 -2.23964 0
M  V30 9952 C 249.139 2.10932 -2.10362 0
M  V30 9953 O 249.089 2.64117 -0.98825 0
M  V30 9954 C 249.289 2.8202 -3.34994 0
M  V30 9955 C 249.399 4.31095 -3.25037 0
M  V30 9956 C 249.339 2.15547 -4.52261 0
M  V30 9957 H 252.08 1.93379 -8.46595 0
M  V30 9958 H 252.349 1.68132 -6.70852 0
M  V30 9959 H 251.482 -0.289041 -8.15388 0
M  V30 9960 H 248.827 -0.926847 -5.72749 0
M  V30 9961 H 248.548 1.86973 -6.82036 0
M  V30 9962 H 247.556 0.403896 -7.13257 0
M  V30 9963 H 249.39 1.20585 -8.97435 0
M  V30 9964 H 249.461 2.71231 -5.45042 0
M  V30 9965 H 248.431 4.76966 -3.49992 0
M  V30 9966 H 250.168 4.67047 -3.95024 0
M  V30 9967 H 249.68 4.58996 -2.22312 0
M  V30 9968 H 248.944 0.214893 -1.39758 0
M  V30 9969 P 247.519 -1.17771 -8.83182 0
M  V30 9970 O 247.299 -2.07206 -9.98732 0
M  V30 9971 O 246.729 0.0743816 -8.81969 0
M  V30 9972 O 247.269 -1.97652 -7.47304 0
M  V30 9973 C 248.209 -3.01055 -7.08599 0
M  V30 9974 C 247.479 -4.12613 -6.37049 0
M  V30 9975 O 247.269 -3.72827 -4.97879 0
M  V30 9976 C 246.079 -4.45719 -6.88164 0
M  V30 9977 O 245.689 -5.7877 -6.5624 0
M  V30 9978 C 245.199 -3.47768 -6.11991 0
M  V30 9979 C 245.909 -3.39356 -4.77615 0
M  V30 9980 N 245.859 -2.04571 -4.15244 0
M  V30 9981 C 245.709 -1.98587 -2.78314 0
M  V30 9982 O 245.619 -2.98134 -2.08835 0
M  V30 9983 N 245.669 -0.714467 -2.24925 0
M  V30 9984 C 245.759 0.470001 -2.94169 0
M  V30 9985 O 245.709 1.55587 -2.35195 0
M  V30 9986 C 245.909 0.312541 -4.36783 0
M  V30 9987 C 246.019 1.57711 -5.16352 0
M  V30 9988 C 245.959 -0.914512 -4.92583 0
M  V30 9989 H 248.7 -3.41169 -7.98575 0
M  V30 9990 H 248.969 -2.58295 -6.41556 0
M  V30 9991 H 248.102 -5.02657 -6.42673 0
M  V30 9992 H 245.447 -4.11637 -4.08885 0
M  V30 9993 H 245.168 -2.49626 -6.61679 0
M  V30 9994 H 244.176 -3.86566 -6.00778 0
M  V30 9995 H 246.01 -4.29943 -7.96918 0
M  V30 9996 H 246.081 -1.00937 -6.00374 0
M  V30 9997 H 245.051 1.80153 -5.63503 0
M  V30 9998 H 246.788 1.4566 -5.94104 0
M  V30 9999 H 246.3 2.40664 -4.49645 0
M  V30 10000 H 245.564 -0.647622 -1.25697 0
M  V30 10001 P 244.139 -6.144 -6.45285 0
M  V30 10002 O 243.919 -7.54673 -6.86199 0
M  V30 10003 O 243.349 -5.12391 -7.179 0
M  V30 10004 O 243.889 -5.99158 -4.88404 0
M  V30 10005 C 244.829 -6.60234 -3.96415 0
M  V30 10006 C 244.099 -7.08259 -2.72856 0
M  V30 10007 O 243.889 -5.9427 -1.83651 0
M  V30 10008 C 242.699 -7.64886 -2.9555 0
M  V30 10009 O 242.309 -8.53963 -1.90717 0
M  V30 10010 C 241.819 -6.4116 -2.90739 0
M  V30 10011 C 242.529 -5.55375 -1.86963 0
M  V30 10012 N 242.479 -4.09664 -2.15742 0
M  V30 10013 H 245.318 -7.45574 -4.45629 0
M  V30 10014 H 245.59 -5.86232 -3.67314 0
M  V30 10015 H 244.722 -7.84412 -2.24479 0
M  V30 10016 P 240.759 -8.7635 -1.60911 0
M  V30 10017 O 240.539 -10.1388 -1.11561 0
M  V30 10018 O 239.969 -8.36503 -2.79617 0
M  V30 10019 O 240.509 -7.71806 -0.42951 0
M  V30 10020 C 241.449 -7.67148 0.673689 0
M  V30 10021 C 240.719 -7.33374 1.95559 0
M  V30 10022 O 240.509 -5.88721 2.00726 0
M  V30 10023 C 239.319 -7.92526 2.10483 0
M  V30 10024 O 238.929 -8.02971 3.47653 0
M  V30 10025 C 238.439 -6.89602 1.41652 0
M  V30 10026 C 239.149 -5.59201 1.75185 0
M  V30 10027 N 239.099 -4.58235 0.662552 0
M  V30 10028 H 241.938 -8.65116 0.777161 0
M  V30 10029 H 242.21 -6.90173 0.474152 0
M  V30 10030 H 241.342 -7.66548 2.79458 0
M  V30 10031 P 237.379 -8.03563 3.84925 0
M  V30 10032 O 237.159 -8.85821 5.0569 0
M  V30 10033 O 236.589 -8.41101 2.65469 0
M  V30 10034 O 237.129 -6.4965 4.18908 0
M  V30 10035 C 238.069 -5.81037 5.05421 0
M  V30 10036 C 237.339 -4.78366 5.89277 0
M  V30 10037 O 237.129 -3.58302 5.08433 0
M  V30 10038 C 235.939 -5.17448 6.36119 0
M  V30 10039 O 235.549 -4.45271 7.53232 0
M  V30 10040 C 235.059 -4.74639 5.19936 0
M  V30 10041 C 235.769 -3.49432 4.70418 0
M  V30 10042 N 235.719 -3.31776 3.22945 0
M  V30 10043 H 238.558 -6.54213 5.71376 0
M  V30 10044 H 238.83 -5.30492 4.44033 0
M  V30 10045 H 237.962 -4.55889 6.76652 0
M  V30 10046 P 233.999 -4.23843 7.83734 0
M  V30 10047 O 233.779 -4.19407 9.29784 0
M  V30 10048 O 233.209 -5.24426 7.09156 0
M  V30 10049 O 233.749 -2.7935 7.20758 0
M  V30 10050 C 234.689 -1.7299 7.50419 0
M  V30 10051 C 233.959 -0.406376 7.57911 0
M  V30 10052 O 233.749 0.0897726 6.21935 0
M  V30 10053 C 232.559 -0.447224 8.1878 0
M  V30 10054 O 232.169 0.825065 8.71101 0
M  V30 10055 C 231.679 -0.783801 6.99623 0
M  V30 10056 C 232.389 -0.0619192 5.85967 0
M  V30 10057 N 232.339 -0.790462 4.56202 0
M  V30 10058 H 235.178 -1.93423 8.4679 0
M  V30 10059 H 235.45 -1.68852 6.70877 0
M  V30 10060 H 234.582 0.289041 8.15388 0
M  V30 10061 H 231.927 0.927006 5.72848 0
M  V30 10062 H 231.647 -1.86973 6.82036 0
M  V30 10063 H 230.656 -0.403953 7.13357 0
M  V30 10064 H 232.49 -1.20599 8.97534 0
M  V30 10065 P 230.619 1.17771 8.83182 0
M  V30 10066 O 230.399 2.07206 9.98732 0
M  V30 10067 O 229.829 -0.0743816 8.81969 0
M  V30 10068 O 230.369 1.97652 7.47304 0
M  V30 10069 C 231.309 3.01133 7.08783 0
M  V30 10070 C 230.579 4.12613 6.37049 0
M  V30 10071 O 230.369 3.72827 4.97879 0
M  V30 10072 C 229.179 4.45085 6.88694 0
M  V30 10073 O 228.789 5.7877 6.5624 0
M  V30 10074 C 228.299 3.47817 6.12078 0
M  V30 10075 C 229.009 3.39414 4.77697 0
M  V30 10076 N 228.959 2.04615 4.15333 0
M  V30 10077 C 229.039 0.803897 4.75249 0
M  V30 10078 N 228.959 -0.197615 3.91502 0
M  V30 10079 C 228.819 0.413002 2.66823 0
M  V30 10080 C 228.689 -0.157221 1.38007 0
M  V30 10081 N 228.569 0.833136 0.390236 0
M  V30 10082 C 228.569 2.19402 0.623885 0
M  V30 10083 N 228.439 2.97622 -0.449677 0
M  V30 10084 N 228.699 2.73005 1.83601 0
M  V30 10085 C 228.819 1.78786 2.80935 0
M  V30 10086 H 231.798 3.41248 7.98759 0
M  V30 10087 H 232.07 2.5837 6.41742 0
M  V30 10088 H 231.202 5.02657 6.42673 0
M  V30 10089 P 227.239 6.144 6.45285 0
M  V30 10090 O 227.019 7.54673 6.86199 0
M  V30 10091 O 226.449 5.12391 7.179 0
M  V30 10092 O 226.989 5.99158 4.88404 0
M  V30 10093 C 227.929 6.60234 3.96415 0
M  V30 10094 C 227.199 7.08259 2.72856 0
M  V30 10095 O 226.989 5.9427 1.83651 0
M  V30 10096 C 225.799 7.64886 2.9555 0
M  V30 10097 O 225.409 8.53963 1.90717 0
M  V30 10098 C 224.919 6.4116 2.90739 0
M  V30 10099 C 225.629 5.55375 1.86963 0
M  V30 10100 N 225.579 4.09448 2.16152 0
M  V30 10101 C 225.659 3.46824 3.37593 0
M  V30 10102 N 225.589 2.17422 3.29777 0
M  V30 10103 C 225.439 1.93065 1.94427 0
M  V30 10104 C 225.309 0.738053 1.20141 0
M  V30 10105 N 225.299 -0.474256 1.74676 0
M  V30 10106 N 225.189 0.850049 -0.13045 0
M  V30 10107 C 225.199 2.06169 -0.676992 0
M  V30 10108 N 225.319 3.23842 -0.101312 0
M  V30 10109 C 225.439 3.09402 1.23122 0
M  V30 10110 H 228.418 7.45574 4.45629 0
M  V30 10111 H 228.69 5.85864 3.679 0
M  V30 10112 H 227.822 7.84412 2.24479 0
M  V30 10113 H 225.167 5.73457 0.888562 0
M  V30 10114 H 224.887 5.90877 3.88583 0
M  V30 10115 H 223.896 6.6596 2.58858 0
M  V30 10116 H 225.73 8.16339 3.92049 0
M  V30 10117 H 225.771 4.00505 4.3174 0
M  V30 10118 H 225.39 -0.581337 2.76658 0
M  V30 10119 H 225.201 -1.30811 1.14888 0
M  V30 10120 H 225.093 2.08295 -1.75542 0
M  V30 10121 P 223.859 8.7635 1.60911 0
M  V30 10122 O 223.639 10.1388 1.11561 0
M  V30 10123 O 223.069 8.36503 2.79617 0
M  V30 10124 O 223.609 7.71806 0.42951 0
M  V30 10125 C 224.549 7.66948 -0.673514 0
M  V30 10126 C 223.819 7.33374 -1.95559 0
M  V30 10127 O 223.609 5.88721 -2.00726 0
M  V30 10128 C 222.419 7.92218 -2.1125 0
M  V30 10129 O 222.029 8.02971 -3.47653 0
M  V30 10130 C 221.539 6.89504 -1.41631 0
M  V30 10131 C 222.249 5.59106 -1.75155 0
M  V30 10132 N 222.199 4.58136 -0.662409 0
M  V30 10133 C 222.049 3.26059 -1.02863 0
M  V30 10134 O 221.959 2.90743 -2.19009 0
M  V30 10135 N 222.009 2.35995 0.0155585 0
M  V30 10136 C 222.099 2.65248 1.35603 0
M  V30 10137 O 222.049 1.75605 2.20651 0
M  V30 10138 C 222.249 4.05747 1.64698 0
M  V30 10139 C 222.359 4.42345 3.09553 0
M  V30 10140 C 222.299 4.96734 0.652411 0
M  V30 10141 H 225.04 8.64917 -0.776982 0
M  V30 10142 H 225.309 6.89974 -0.474015 0
M  V30 10143 H 224.442 7.66548 -2.79458 0
M  V30 10144 H 221.787 5.16076 -2.65138 0
M  V30 10145 H 221.508 7.06433 -0.329384 0
M  V30 10146 H 220.516 6.90829 -1.81996 0
M  V30 10147 H 222.35 8.90774 -1.62639 0
M  V30 10148 H 222.421 6.02181 0.895285 0
M  V30 10149 H 221.391 4.80252 3.45468 0
M  V30 10150 H 223.128 5.20015 3.22119 0
M  V30 10151 H 222.64 3.53269 3.67833 0
M  V30 10152 H 221.904 1.39558 -0.227499 0
M  V30 10153 P 220.479 8.03563 -3.84925 0
M  V30 10154 O 220.259 8.85821 -5.0569 0
M  V30 10155 O 219.689 8.41101 -2.65469 0
M  V30 10156 O 220.229 6.4965 -4.18908 0
M  V30 10157 C 221.169 5.81037 -5.05421 0
M  V30 10158 C 220.439 4.78366 -5.89277 0
M  V30 10159 O 220.229 3.58302 -5.08433 0
M  V30 10160 C 219.039 5.17448 -6.36119 0
M  V30 10161 O 218.649 4.45271 -7.53232 0
M  V30 10162 C 218.159 4.74639 -5.19936 0
M  V30 10163 C 218.869 3.49432 -4.70418 0
M  V30 10164 N 218.819 3.31776 -3.22945 0
M  V30 10165 H 221.658 6.54213 -5.71376 0
M  V30 10166 H 221.93 5.30492 -4.44033 0
M  V30 10167 H 221.062 4.55889 -6.76652 0
M  V30 10168 P 217.099 4.23843 -7.83734 0
M  V30 10169 O 216.879 4.19407 -9.29784 0
M  V30 10170 O 216.309 5.24426 -7.09156 0
M  V30 10171 O 216.849 2.7935 -7.20758 0
M  V30 10172 C 217.789 1.7299 -7.50419 0
M  V30 10173 C 217.059 0.406376 -7.57911 0
M  V30 10174 O 216.849 -0.0897726 -6.21935 0
M  V30 10175 C 215.659 0.447224 -8.1878 0
M  V30 10176 O 215.269 -0.825065 -8.71101 0
M  V30 10177 C 214.779 0.783801 -6.99623 0
M  V30 10178 C 215.489 0.0619192 -5.85967 0
M  V30 10179 N 215.439 0.7859 -4.56281 0
M  V30 10180 H 218.278 1.93423 -8.4679 0
M  V30 10181 H 218.55 1.68181 -6.71046 0
M  V30 10182 H 217.682 -0.289041 -8.15388 0
M  V30 10183 P 213.719 -1.17771 -8.83182 0
M  V30 10184 O 213.499 -2.07206 -9.98732 0
M  V30 10185 O 212.929 0.0743816 -8.81969 0
M  V30 10186 O 213.469 -1.97678 -7.474 0
M  V30 10187 C 214.409 -3.01133 -7.08783 0
M  V30 10188 C 213.679 -4.1203 -6.37546 0
M  V30 10189 O 213.469 -3.72887 -4.9796 0
M  V30 10190 C 212.279 -4.45085 -6.88694 0
M  V30 10191 O 211.889 -5.78836 -6.56315 0
M  V30 10192 C 211.399 -3.47817 -6.12078 0
M  V30 10193 C 212.109 -3.39414 -4.77697 0
M  V30 10194 N 212.059 -2.04615 -4.15333 0
M  V30 10195 C 211.909 -1.96929 -2.77162 0
M  V30 10196 O 211.819 -3.02017 -2.12006 0
M  V30 10197 N 211.859 -0.55485 -2.24237 0
M  V30 10198 C 211.959 0.367808 -2.9169 0
M  V30 10199 N 211.909 1.53426 -2.29427 0
M  V30 10200 C 212.109 0.319148 -4.33828 0
M  V30 10201 C 212.159 -0.920672 -4.90433 0
M  V30 10202 H 214.899 -3.41209 -7.98667 0
M  V30 10203 H 215.169 -2.5837 -6.41742 0
M  V30 10204 H 214.302 -5.02718 -6.42752 0
M  V30 10205 H 211.647 -4.11779 -4.09026 0
M  V30 10206 H 211.367 -2.49661 -6.61772 0
M  V30 10207 H 210.376 -3.86674 -6.00946 0
M  V30 10208 H 212.21 -4.29991 -7.97006 0
M  V30 10209 H 212.282 -1.00589 -5.98303 0
M  V30 10210 H 212.18 1.22639 -4.93799 0
M  V30 10211 H 211.792 1.56819 -1.27167 0
M  V30 10212 H 211.988 2.41062 -2.83063 0
M  V30 10213 P 210.339 -6.144 -6.45285 0
M  V30 10214 O 210.119 -7.54673 -6.86199 0
M  V30 10215 O 209.549 -5.12391 -7.179 0
M  V30 10216 O 210.089 -5.99236 -4.88467 0
M  V30 10217 C 211.029 -6.60234 -3.96415 0
M  V30 10218 C 210.299 -7.08079 -2.736 0
M  V30 10219 O 210.089 -5.94365 -1.8368 0
M  V30 10220 C 208.899 -7.64886 -2.9555 0
M  V30 10221 O 208.509 -8.5406 -1.90739 0
M  V30 10222 C 208.019 -6.4116 -2.90739 0
M  V30 10223 C 208.729 -5.55375 -1.86963 0
M  V30 10224 N 208.679 -4.09664 -2.15742 0
M  V30 10225 C 208.529 -3.22231 -1.08477 0
M  V30 10226 O 208.439 -3.68951 0.0600489 0
M  V30 10227 N 208.479 -1.76692 -1.48799 0
M  V30 10228 C 208.579 -1.41695 -2.57602 0
M  V30 10229 N 208.529 -0.107296 -2.75791 0
M  V30 10230 C 208.729 -2.29178 -3.69733 0
M  V30 10231 C 208.779 -3.62753 -3.42653 0
M  V30 10232 H 211.519 -7.45488 -4.45578 0
M  V30 10233 H 211.789 -5.86232 -3.67314 0
M  V30 10234 H 210.922 -7.84508 -2.24507 0
M  V30 10235 H 208.267 -5.73556 -0.888715 0
M  V30 10236 H 207.987 -5.9096 -3.88638 0
M  V30 10237 H 206.996 -6.66053 -2.58894 0
M  V30 10238 H 208.83 -8.16339 -3.92049 0
M  V30 10239 H 208.902 -4.33052 -4.24913 0
M  V30 10240 H 208.8 -1.9103 -4.71577 0
M  V30 10241 H 208.412 0.521221 -1.95056 0
M  V30 10242 H 208.608 0.286429 -3.70695 0
M  V30 10243 P 206.959 -8.7635 -1.60911 0
M  V30 10244 O 206.739 -10.1388 -1.11561 0
M  V30 10245 O 206.169 -8.36503 -2.79617 0
M  V30 10246 O 206.709 -7.71806 -0.42951 0
M  V30 10247 C 207.649 -7.67148 0.673689 0
M  V30 10248 C 206.919 -7.33374 1.95559 0
M  V30 10249 O 206.709 -5.88721 2.00726 0
M  V30 10250 C 205.519 -7.92526 2.10483 0
M  V30 10251 O 205.129 -8.02971 3.47653 0
M  V30 10252 C 204.639 -6.89602 1.41652 0
M  V30 10253 C 205.349 -5.59201 1.75185 0
M  V30 10254 N 205.299 -4.58235 0.662552 0
M  V30 10255 H 208.138 -8.65116 0.777161 0
M  V30 10256 H 208.41 -6.90173 0.474152 0
M  V30 10257 H 207.542 -7.66548 2.79458 0
M  V30 10258 P 203.579 -8.03563 3.84925 0
M  V30 10259 O 203.359 -8.85821 5.0569 0
M  V30 10260 O 202.789 -8.41101 2.65469 0
M  V30 10261 O 203.329 -6.4965 4.18908 0
M  V30 10262 C 204.269 -5.81037 5.05421 0
M  V30 10263 C 203.539 -4.78366 5.89277 0
M  V30 10264 O 203.329 -3.58302 5.08433 0
M  V30 10265 C 202.139 -5.17448 6.36119 0
M  V30 10266 O 201.749 -4.45271 7.53232 0
M  V30 10267 C 201.259 -4.74639 5.19936 0
M  V30 10268 C 201.969 -3.49432 4.70418 0
M  V30 10269 N 201.919 -3.31776 3.22945 0
M  V30 10270 H 204.758 -6.54213 5.71376 0
M  V30 10271 H 205.03 -5.30492 4.44033 0
M  V30 10272 H 204.162 -4.55889 6.76652 0
M  V30 10273 P 200.199 -4.23843 7.83734 0
M  V30 10274 O 199.979 -4.19407 9.29784 0
M  V30 10275 O 199.409 -5.24426 7.09156 0
M  V30 10276 O 199.949 -2.7935 7.20758 0
M  V30 10277 C 200.889 -1.7299 7.50419 0
M  V30 10278 C 200.159 -0.406376 7.57911 0
M  V30 10279 O 199.949 0.0897726 6.21935 0
M  V30 10280 C 198.759 -0.447224 8.1878 0
M  V30 10281 O 198.369 0.825065 8.71101 0
M  V30 10282 C 197.879 -0.783801 6.99623 0
M  V30 10283 C 198.589 -0.0619192 5.85967 0
M  V30 10284 N 198.539 -0.7859 4.56281 0
M  V30 10285 H 201.378 -1.93423 8.4679 0
M  V30 10286 H 201.65 -1.68181 6.71046 0
M  V30 10287 H 200.782 0.289041 8.15388 0
M  V30 10288 P 196.819 1.17771 8.83182 0
M  V30 10289 O 196.599 2.07206 9.98732 0
M  V30 10290 O 196.029 -0.0743816 8.81969 0
M  V30 10291 O 196.569 1.97652 7.47304 0
M  V30 10292 C 197.509 3.01133 7.08783 0
M  V30 10293 C 196.779 4.12613 6.37049 0
M  V30 10294 O 196.569 3.72827 4.97879 0
M  V30 10295 C 195.379 4.45085 6.88694 0
M  V30 10296 O 194.989 5.7877 6.5624 0
M  V30 10297 C 194.499 3.47817 6.12078 0
M  V30 10298 C 195.209 3.39414 4.77697 0
M  V30 10299 N 195.159 2.04615 4.15333 0
M  V30 10300 C 195.239 0.803897 4.75249 0
M  V30 10301 N 195.159 -0.197615 3.91502 0
M  V30 10302 C 195.019 0.413002 2.66823 0
M  V30 10303 C 194.889 -0.157221 1.38007 0
M  V30 10304 O 194.869 -1.34419 1.057 0
M  V30 10305 N 194.769 0.833136 0.390236 0
M  V30 10306 C 194.769 2.19402 0.623885 0
M  V30 10307 N 194.639 2.97622 -0.449677 0
M  V30 10308 N 194.899 2.73005 1.83601 0
M  V30 10309 C 195.019 1.78786 2.80935 0
M  V30 10310 H 197.998 3.41248 7.98759 0
M  V30 10311 H 198.27 2.5837 6.41742 0
M  V30 10312 H 197.402 5.02657 6.42673 0
M  V30 10313 H 194.747 4.11779 4.09026 0
M  V30 10314 H 194.467 2.49661 6.61772 0
M  V30 10315 H 193.476 3.86674 6.00946 0
M  V30 10316 H 195.31 4.30038 7.97094 0
M  V30 10317 H 195.359 0.670579 5.82754 0
M  V30 10318 H 194.677 0.528446 -0.557287 0
M  V30 10319 H 194.64 4.00117 -0.344773 0
M  V30 10320 H 194.539 2.55448 -1.38544 0
M  V30 10321 P 193.439 6.144 6.45285 0
M  V30 10322 O 193.219 7.54673 6.86199 0
M  V30 10323 O 192.649 5.12391 7.179 0
M  V30 10324 O 193.189 5.99158 4.88404 0
M  V30 10325 C 194.129 6.60234 3.96415 0
M  V30 10326 C 193.399 7.08259 2.72856 0
M  V30 10327 O 193.189 5.9427 1.83651 0
M  V30 10328 C 191.999 7.64886 2.9555 0
M  V30 10329 O 191.609 8.53963 1.90717 0
M  V30 10330 C 191.119 6.4116 2.90739 0
M  V30 10331 C 191.829 5.55375 1.86963 0
M  V30 10332 N 191.779 4.09664 2.15742 0
M  V30 10333 H 194.618 7.45574 4.45629 0
M  V30 10334 H 194.89 5.86232 3.67314 0
M  V30 10335 H 194.022 7.84412 2.24479 0
M  V30 10336 P 190.059 8.7635 1.60911 0
M  V30 10337 O 189.839 10.1388 1.11561 0
M  V30 10338 O 189.269 8.36503 2.79617 0
M  V30 10339 O 189.809 7.71806 0.42951 0
M  V30 10340 C 190.749 7.66948 -0.673514 0
M  V30 10341 C 190.019 7.33374 -1.95559 0
M  V30 10342 O 189.809 5.88721 -2.00726 0
M  V30 10343 C 188.619 7.92218 -2.1125 0
M  V30 10344 O 188.229 8.02971 -3.47653 0
M  V30 10345 C 187.739 6.89504 -1.41631 0
M  V30 10346 C 188.449 5.59106 -1.75155 0
M  V30 10347 N 188.399 4.58136 -0.662409 0
M  V30 10348 C 188.249 3.26059 -1.02863 0
M  V30 10349 O 188.159 2.90743 -2.19009 0
M  V30 10350 N 188.209 2.35995 0.0155585 0
M  V30 10351 C 188.299 2.65248 1.35603 0
M  V30 10352 O 188.249 1.75605 2.20651 0
M  V30 10353 C 188.449 4.05747 1.64698 0
M  V30 10354 C 188.559 4.42345 3.09553 0
M  V30 10355 C 188.499 4.96734 0.652411 0
M  V30 10356 H 191.24 8.64917 -0.776982 0
M  V30 10357 H 191.509 6.89974 -0.474015 0
M  V30 10358 H 190.642 7.66548 -2.79458 0
M  V30 10359 H 187.987 5.16076 -2.65138 0
M  V30 10360 H 187.708 7.06433 -0.329384 0
M  V30 10361 H 186.716 6.90829 -1.81996 0
M  V30 10362 H 188.55 8.90774 -1.62639 0
M  V30 10363 H 188.621 6.02181 0.895285 0
M  V30 10364 H 187.591 4.80252 3.45468 0
M  V30 10365 H 189.328 5.20015 3.22119 0
M  V30 10366 H 188.84 3.53269 3.67833 0
M  V30 10367 H 188.104 1.39558 -0.227499 0
M  V30 10368 P 186.679 8.03563 -3.84925 0
M  V30 10369 O 186.459 8.85821 -5.0569 0
M  V30 10370 O 185.889 8.41101 -2.65469 0
M  V30 10371 O 186.429 6.4965 -4.18908 0
M  V30 10372 C 187.369 5.81037 -5.05421 0
M  V30 10373 C 186.639 4.78366 -5.89277 0
M  V30 10374 O 186.429 3.58302 -5.08433 0
M  V30 10375 C 185.239 5.17448 -6.36119 0
M  V30 10376 O 184.849 4.45271 -7.53232 0
M  V30 10377 C 184.359 4.74639 -5.19936 0
M  V30 10378 C 185.069 3.49432 -4.70418 0
M  V30 10379 N 185.019 3.32099 -3.22613 0
M  V30 10380 H 187.858 6.54213 -5.71376 0
M  V30 10381 H 188.13 5.30936 -4.43503 0
M  V30 10382 H 187.262 4.55889 -6.76652 0
M  V30 10383 H 184.607 2.61715 -5.17932 0
M  V30 10384 H 184.327 5.52155 -4.41878 0
M  V30 10385 H 183.336 4.51981 -5.53374 0
M  V30 10386 H 185.17 6.25124 -6.55234 0
M  V30 10387 P 183.299 4.23843 -7.83734 0
M  V30 10388 O 183.079 4.19407 -9.29784 0
M  V30 10389 O 182.509 5.24426 -7.09156 0
M  V30 10390 O 183.049 2.7935 -7.20758 0
M  V30 10391 C 183.989 1.72945 -7.50224 0
M  V30 10392 C 183.259 0.406376 -7.57911 0
M  V30 10393 O 183.049 -0.0897726 -6.21935 0
M  V30 10394 C 181.859 0.438983 -8.18724 0
M  V30 10395 O 181.469 -0.825065 -8.71101 0
M  V30 10396 C 180.979 0.783689 -6.99524 0
M  V30 10397 C 181.689 0.0619086 -5.85867 0
M  V30 10398 N 181.639 0.78573 -4.56183 0
M  V30 10399 C 181.489 0.0292889 -3.41887 0
M  V30 10400 O 181.399 -1.18445 -3.4419 0
M  V30 10401 N 181.449 0.744061 -2.23964 0
M  V30 10402 C 181.539 2.10932 -2.10362 0
M  V30 10403 O 181.489 2.64117 -0.98825 0
M  V30 10404 C 181.689 2.8202 -3.34994 0
M  V30 10405 C 181.799 4.31095 -3.25037 0
M  V30 10406 C 181.739 2.15547 -4.52261 0
M  V30 10407 H 184.48 1.93379 -8.46595 0
M  V30 10408 H 184.749 1.68132 -6.70852 0
M  V30 10409 H 183.882 -0.289041 -8.15388 0
M  V30 10410 H 181.227 -0.926847 -5.72749 0
M  V30 10411 H 180.948 1.86973 -6.82036 0
M  V30 10412 H 179.956 0.403896 -7.13257 0
M  V30 10413 H 181.79 1.20585 -8.97435 0
M  V30 10414 H 181.861 2.71231 -5.45042 0
M  V30 10415 H 180.831 4.76966 -3.49992 0
M  V30 10416 H 182.568 4.67047 -3.95024 0
M  V30 10417 H 182.08 4.58996 -2.22312 0
M  V30 10418 H 181.344 0.214893 -1.39758 0
M  V30 10419 P 179.919 -1.17771 -8.83182 0
M  V30 10420 O 179.699 -2.07206 -9.98732 0
M  V30 10421 O 179.129 0.0743816 -8.81969 0
M  V30 10422 O 179.669 -1.97652 -7.47304 0
M  V30 10423 C 180.609 -3.01133 -7.08783 0
M  V30 10424 C 179.879 -4.12613 -6.37049 0
M  V30 10425 O 179.669 -3.72827 -4.97879 0
M  V30 10426 C 178.479 -4.45085 -6.88694 0
M  V30 10427 O 178.089 -5.7877 -6.5624 0
M  V30 10428 C 177.599 -3.47817 -6.12078 0
M  V30 10429 C 178.309 -3.39414 -4.77697 0
M  V30 10430 N 178.259 -2.04615 -4.15333 0
M  V30 10431 H 181.098 -3.41248 -7.98759 0
M  V30 10432 H 181.37 -2.5837 -6.41742 0
M  V30 10433 H 180.502 -5.02657 -6.42673 0
M  V30 10434 P 176.539 -6.144 -6.45285 0
M  V30 10435 O 176.319 -7.54673 -6.86199 0
M  V30 10436 O 175.749 -5.12391 -7.179 0
M  V30 10437 O 176.289 -5.99158 -4.88404 0
M  V30 10438 C 177.229 -6.60062 -3.96313 0
M  V30 10439 C 176.499 -7.08259 -2.72856 0
M  V30 10440 O 176.289 -5.9427 -1.83651 0
M  V30 10441 C 175.099 -7.65087 -2.94749 0
M  V30 10442 O 174.709 -8.53963 -1.90717 0
M  V30 10443 C 174.219 -6.41069 -2.90698 0
M  V30 10444 C 174.929 -5.5528 -1.86931 0
M  V30 10445 N 174.879 -4.09575 -2.15696 0
M  V30 10446 C 174.729 -3.24249 -1.08435 0
M  V30 10447 O 174.639 -3.63946 0.0628747 0
M  V30 10448 N 174.689 -1.90009 -1.39973 0
M  V30 10449 C 174.779 -1.34884 -2.65614 0
M  V30 10450 O 174.729 -0.123716 -2.81728 0
M  V30 10451 C 174.929 -2.3145 -3.71736 0
M  V30 10452 C 175.039 -1.75913 -5.10438 0
M  V30 10453 C 174.979 -3.63518 -3.44754 0
M  V30 10454 H 177.72 -7.45402 -4.45526 0
M  V30 10455 H 177.989 -5.86062 -3.67208 0
M  V30 10456 H 177.122 -7.84412 -2.24479 0
M  V30 10457 H 174.467 -5.73358 -0.888409 0
M  V30 10458 H 174.188 -5.90877 -3.88583 0
M  V30 10459 H 173.196 -6.65867 -2.58821 0
M  V30 10460 H 175.03 -8.16248 -3.92006 0
M  V30 10461 H 175.101 -4.34551 -4.26383 0
M  V30 10462 H 174.071 -1.85471 -5.61775 0
M  V30 10463 H 175.808 -2.31364 -5.66257 0
M  V30 10464 H 175.32 -0.695936 -5.05229 0
M  V30 10465 H 174.584 -1.26277 -0.63625 0
M  V30 10466 P 173.159 -8.7635 -1.60911 0
M  V30 10467 O 172.939 -10.1388 -1.11561 0
M  V30 10468 O 172.369 -8.36503 -2.79617 0
M  V30 10469 O 172.909 -7.71806 -0.42951 0
M  V30 10470 C 173.849 -7.67148 0.673689 0
M  V30 10471 C 173.119 -7.33374 1.95559 0
M  V30 10472 O 172.909 -5.88721 2.00726 0
M  V30 10473 C 171.719 -7.92526 2.10483 0
M  V30 10474 O 171.329 -8.02971 3.47653 0
M  V30 10475 C 170.839 -6.89602 1.41652 0
M  V30 10476 C 171.549 -5.59201 1.75185 0
M  V30 10477 N 171.499 -4.58235 0.662552 0
M  V30 10478 C 171.579 -4.7683 -0.704049 0
M  V30 10479 N 171.499 -3.66233 -1.39775 0
M  V30 10480 C 171.359 -2.66526 -0.431739 0
M  V30 10481 C 171.229 -1.26394 -0.575992 0
M  V30 10482 N 171.109 -0.62859 0.67177 0
M  V30 10483 C 171.109 -1.27134 1.89385 0
M  V30 10484 N 170.979 -0.492035 2.96951 0
M  V30 10485 N 171.239 -2.58978 2.02907 0
M  V30 10486 C 171.359 -3.22433 0.832218 0
M  V30 10487 H 174.338 -8.65116 0.777161 0
M  V30 10488 H 174.61 -6.90173 0.474152 0
M  V30 10489 H 173.742 -7.66548 2.79458 0
M  V30 10490 P 169.779 -8.03563 3.84925 0
M  V30 10491 O 169.559 -8.85821 5.0569 0
M  V30 10492 O 168.989 -8.41101 2.65469 0
M  V30 10493 O 169.529 -6.4965 4.18908 0
M  V30 10494 C 170.469 -5.81037 5.05421 0
M  V30 10495 C 169.739 -4.78366 5.89277 0
M  V30 10496 O 169.529 -3.58302 5.08433 0
M  V30 10497 C 168.339 -5.17448 6.36119 0
M  V30 10498 O 167.949 -4.45271 7.53232 0
M  V30 10499 C 167.459 -4.74639 5.19936 0
M  V30 10500 C 168.169 -3.49432 4.70418 0
M  V30 10501 N 168.119 -3.32099 3.22613 0
M  V30 10502 C 168.199 -4.28245 2.25527 0
M  V30 10503 N 168.129 -3.80823 1.04874 0
M  V30 10504 C 167.979 -2.44571 1.23535 0
M  V30 10505 C 167.849 -1.37068 0.330675 0
M  V30 10506 N 167.839 -1.51472 -0.990824 0
M  V30 10507 N 167.729 -0.138614 0.848756 0
M  V30 10508 C 167.739 0.00675923 2.16999 0
M  V30 10509 N 167.859 -0.904372 3.11122 0
M  V30 10510 C 167.979 -2.12707 2.56212 0
M  V30 10511 H 170.958 -6.54213 5.71376 0
M  V30 10512 H 171.23 -5.30936 4.43503 0
M  V30 10513 H 170.362 -4.55889 6.76652 0
M  V30 10514 H 167.707 -2.61715 5.17932 0
M  V30 10515 H 167.427 -5.52155 4.41878 0
M  V30 10516 H 166.436 -4.51981 5.53374 0
M  V30 10517 H 168.27 -6.25124 6.55234 0
M  V30 10518 H 168.311 -5.34372 2.47488 0
M  V30 10519 H 167.93 -2.45153 -1.4078 0
M  V30 10520 H 167.741 -0.688422 -1.59911 0
M  V30 10521 H 167.633 1.02584 2.52346 0
M  V30 10522 P 166.399 -4.23843 7.83734 0
M  V30 10523 O 166.179 -4.19407 9.29784 0
M  V30 10524 O 165.609 -5.24426 7.09156 0
M  V30 10525 O 166.149 -2.7935 7.20758 0
M  V30 10526 C 167.089 -1.7299 7.50419 0
M  V30 10527 C 166.359 -0.406376 7.57911 0
M  V30 10528 O 166.149 0.0897726 6.21935 0
M  V30 10529 C 164.959 -0.447224 8.1878 0
M  V30 10530 O 164.569 0.825065 8.71101 0
M  V30 10531 C 164.079 -0.783801 6.99623 0
M  V30 10532 C 164.789 -0.0619192 5.85967 0
M  V30 10533 N 164.739 -0.7859 4.56281 0
M  V30 10534 H 167.578 -1.93423 8.4679 0
M  V30 10535 H 167.85 -1.68181 6.71046 0
M  V30 10536 H 166.982 0.289041 8.15388 0
M  V30 10537 P 163.019 1.17771 8.83182 0
M  V30 10538 O 162.799 2.07206 9.98732 0
M  V30 10539 O 162.229 -0.0743816 8.81969 0
M  V30 10540 O 162.769 1.97652 7.47304 0
M  V30 10541 C 163.709 3.01133 7.08783 0
M  V30 10542 C 162.979 4.12613 6.37049 0
M  V30 10543 O 162.769 3.72827 4.97879 0
M  V30 10544 C 161.579 4.45085 6.88694 0
M  V30 10545 O 161.189 5.7877 6.5624 0
M  V30 10546 C 160.699 3.47817 6.12078 0
M  V30 10547 C 161.409 3.39414 4.77697 0
M  V30 10548 N 161.359 2.04199 4.15538 0
M  V30 10549 H 164.198 3.41248 7.98759 0
M  V30 10550 H 164.47 2.57728 6.42 0
M  V30 10551 H 163.602 5.02657 6.42673 0
M  V30 10552 H 160.947 4.11708 4.08956 0
M  V30 10553 H 160.667 2.49626 6.61679 0
M  V30 10554 H 159.676 3.8662 6.00862 0
M  V30 10555 H 161.51 4.29991 7.97006 0
M  V30 10556 P 159.639 6.144 6.45285 0
M  V30 10557 O 159.419 7.54673 6.86199 0
M  V30 10558 O 158.849 5.12391 7.179 0
M  V30 10559 O 159.389 5.99158 4.88404 0
M  V30 10560 C 160.329 6.60234 3.96415 0
M  V30 10561 C 159.599 7.08259 2.72856 0
M  V30 10562 O 159.389 5.9427 1.83651 0
M  V30 10563 C 158.199 7.64886 2.9555 0
M  V30 10564 O 157.809 8.53963 1.90717 0
M  V30 10565 C 157.319 6.4116 2.90739 0
M  V30 10566 C 158.029 5.55375 1.86963 0
M  V30 10567 N 157.979 4.09664 2.15742 0
M  V30 10568 C 158.059 3.44381 3.37233 0
M  V30 10569 N 157.979 2.14131 3.28347 0
M  V30 10570 C 157.839 1.90247 1.91588 0
M  V30 10571 C 157.709 0.683992 1.20892 0
M  V30 10572 N 157.589 0.903396 -0.173998 0
M  V30 10573 C 157.589 2.14171 -0.784879 0
M  V30 10574 N 157.459 2.1435 -2.11317 0
M  V30 10575 N 157.719 3.28784 -0.119316 0
M  V30 10576 C 157.839 3.0977 1.22194 0
M  V30 10577 H 160.818 7.45574 4.45629 0
M  V30 10578 H 161.09 5.86232 3.67314 0
M  V30 10579 H 160.222 7.84412 2.24479 0
M  V30 10580 P 156.259 8.7635 1.60911 0
M  V30 10581 O 156.039 10.1388 1.11561 0
M  V30 10582 O 155.469 8.36503 2.79617 0
M  V30 10583 O 156.009 7.71806 0.42951 0
M  V30 10584 C 156.949 7.67148 -0.673689 0
M  V30 10585 C 156.219 7.33374 -1.95559 0
M  V30 10586 O 156.009 5.88721 -2.00726 0
M  V30 10587 C 154.819 7.92526 -2.10483 0
M  V30 10588 O 154.429 8.02971 -3.47653 0
M  V30 10589 C 153.939 6.89602 -1.41652 0
M  V30 10590 C 154.649 5.59201 -1.75185 0
M  V30 10591 N 154.599 4.58301 -0.657969 0
M  V30 10592 H 157.438 8.65116 -0.777161 0
M  V30 10593 H 157.71 6.9022 -0.46725 0
M  V30 10594 H 156.842 7.66548 -2.79458 0
M  V30 10595 H 154.187 5.16165 -2.65183 0
M  V30 10596 H 153.907 7.06433 -0.329384 0
M  V30 10597 H 152.916 6.90926 -1.82021 0
M  V30 10598 H 154.75 8.90873 -1.62657 0
M  V30 10599 P 152.879 8.03563 -3.84925 0
M  V30 10600 O 152.659 8.85821 -5.0569 0
M  V30 10601 O 152.089 8.41101 -2.65469 0
M  V30 10602 O 152.629 6.49734 -4.18962 0
M  V30 10603 C 153.569 5.81037 -5.05421 0
M  V30 10604 C 152.839 4.79018 -5.88876 0
M  V30 10605 O 152.629 3.58359 -5.08515 0
M  V30 10606 C 151.439 5.17448 -6.36119 0
M  V30 10607 O 151.049 4.45322 -7.53318 0
M  V30 10608 C 150.559 4.74639 -5.19936 0
M  V30 10609 C 151.269 3.49432 -4.70418 0
M  V30 10610 N 151.219 3.31776 -3.22945 0
M  V30 10611 C 151.069 2.02742 -2.72939 0
M  V30 10612 O 150.979 1.08301 -3.52749 0
M  V30 10613 N 151.019 1.96117 -1.22063 0
M  V30 10614 C 151.119 2.8878 -0.551566 0
M  V30 10615 N 151.069 2.65609 0.750198 0
M  V30 10616 C 151.269 4.22457 -1.03707 0
M  V30 10617 C 151.319 4.37979 -2.39113 0
M  V30 10618 H 154.059 6.54138 -5.7131 0
M  V30 10619 H 154.329 5.30492 -4.44033 0
M  V30 10620 H 153.462 4.55945 -6.76735 0
M  V30 10621 H 150.807 2.6176 -5.18021 0
M  V30 10622 H 150.527 5.52233 -4.41941 0
M  V30 10623 H 149.536 4.52045 -5.53452 0
M  V30 10624 H 151.37 6.25124 -6.55234 0
M  V30 10625 H 151.442 5.37936 -2.80552 0
M  V30 10626 H 151.34 5.07528 -0.359553 0
M  V30 10627 H 150.952 1.69403 1.09847 0
M  V30 10628 H 151.148 3.43701 1.41792 0
M  V30 10629 P 149.499 4.23843 -7.83734 0
M  V30 10630 O 149.279 4.19407 -9.29784 0
M  V30 10631 O 148.709 5.24426 -7.09156 0
M  V30 10632 O 149.249 2.7935 -7.20758 0
M  V30 10633 C 150.189 1.7299 -7.50419 0
M  V30 10634 C 149.459 0.406376 -7.57911 0
M  V30 10635 O 149.249 -0.0897726 -6.21935 0
M  V30 10636 C 148.059 0.447224 -8.1878 0
M  V30 10637 O 147.669 -0.825065 -8.71101 0
M  V30 10638 C 147.179 0.783801 -6.99623 0
M  V30 10639 C 147.889 0.0619192 -5.85967 0
M  V30 10640 N 147.839 0.790462 -4.56202 0
M  V30 10641 H 150.678 1.93423 -8.4679 0
M  V30 10642 H 150.95 1.68852 -6.70877 0
M  V30 10643 H 150.082 -0.289041 -8.15388 0
M  V30 10644 H 147.427 -0.927006 -5.72848 0
M  V30 10645 H 147.147 1.86973 -6.82036 0
M  V30 10646 H 146.156 0.403953 -7.13357 0
M  V30 10647 H 147.99 1.20599 -8.97534 0
M  V30 10648 P 146.119 -1.17771 -8.83182 0
M  V30 10649 O 145.899 -2.07206 -9.98732 0
M  V30 10650 O 145.329 0.0743816 -8.81969 0
M  V30 10651 O 145.869 -1.97652 -7.47304 0
M  V30 10652 C 146.809 -3.01055 -7.08599 0
M  V30 10653 C 146.079 -4.12613 -6.37049 0
M  V30 10654 O 145.869 -3.72827 -4.97879 0
M  V30 10655 C 144.679 -4.45719 -6.88164 0
M  V30 10656 O 144.289 -5.7877 -6.5624 0
M  V30 10657 C 143.799 -3.47768 -6.11991 0
M  V30 10658 C 144.509 -3.39356 -4.77615 0
M  V30 10659 N 144.459 -2.04571 -4.15244 0
M  V30 10660 C 144.309 -1.98587 -2.78314 0
M  V30 10661 O 144.219 -2.98134 -2.08835 0
M  V30 10662 N 144.269 -0.714467 -2.24925 0
M  V30 10663 C 144.359 0.470001 -2.94169 0
M  V30 10664 C 144.509 0.312541 -4.36783 0
M  V30 10665 C 144.559 -0.914512 -4.92583 0
M  V30 10666 H 147.3 -3.41169 -7.98575 0
M  V30 10667 H 147.569 -2.58295 -6.41556 0
M  V30 10668 H 146.702 -5.02657 -6.42673 0
M  V30 10669 H 144.047 -4.11637 -4.08885 0
M  V30 10670 H 143.768 -2.49626 -6.61679 0
M  V30 10671 H 142.776 -3.86566 -6.00778 0
M  V30 10672 H 144.61 -4.29943 -7.96918 0
M  V30 10673 H 144.681 -1.00937 -6.00374 0
M  V30 10674 P 142.739 -6.144 -6.45285 0
M  V30 10675 O 142.519 -7.54673 -6.86199 0
M  V30 10676 O 141.949 -5.12391 -7.179 0
M  V30 10677 O 142.489 -5.99158 -4.88404 0
M  V30 10678 C 143.429 -6.60062 -3.96313 0
M  V30 10679 C 142.699 -7.08259 -2.72856 0
M  V30 10680 O 142.489 -5.9427 -1.83651 0
M  V30 10681 C 141.299 -7.65087 -2.94749 0
M  V30 10682 O 140.909 -8.53963 -1.90717 0
M  V30 10683 C 140.419 -6.41069 -2.90698 0
M  V30 10684 C 141.129 -5.5528 -1.86931 0
M  V30 10685 N 141.079 -4.09575 -2.15696 0
M  V30 10686 C 140.929 -3.24249 -1.08435 0
M  V30 10687 O 140.839 -3.63946 0.0628747 0
M  V30 10688 N 140.889 -1.90009 -1.39973 0
M  V30 10689 C 140.979 -1.34884 -2.65614 0
M  V30 10690 O 140.929 -0.123716 -2.81728 0
M  V30 10691 C 141.129 -2.3145 -3.71736 0
M  V30 10692 C 141.239 -1.75913 -5.10438 0
M  V30 10693 C 141.179 -3.63518 -3.44754 0
M  V30 10694 H 143.92 -7.45402 -4.45526 0
M  V30 10695 H 144.189 -5.86062 -3.67208 0
M  V30 10696 H 143.322 -7.84412 -2.24479 0
M  V30 10697 H 140.667 -5.73358 -0.888409 0
M  V30 10698 H 140.388 -5.90877 -3.88583 0
M  V30 10699 H 139.396 -6.65867 -2.58821 0
M  V30 10700 H 141.23 -8.16248 -3.92006 0
M  V30 10701 H 141.301 -4.34551 -4.26383 0
M  V30 10702 H 140.271 -1.85471 -5.61775 0
M  V30 10703 H 142.008 -2.31364 -5.66257 0
M  V30 10704 H 141.52 -0.695936 -5.05229 0
M  V30 10705 H 140.784 -1.26277 -0.63625 0
M  V30 10706 P 139.359 -8.7635 -1.60911 0
M  V30 10707 O 139.139 -10.1388 -1.11561 0
M  V30 10708 O 138.569 -8.36503 -2.79617 0
M  V30 10709 O 139.109 -7.71806 -0.42951 0
M  V30 10710 C 140.049 -7.67148 0.673689 0
M  V30 10711 C 139.319 -7.33374 1.95559 0
M  V30 10712 O 139.109 -5.88721 2.00726 0
M  V30 10713 C 137.919 -7.92526 2.10483 0
M  V30 10714 O 137.529 -8.02971 3.47653 0
M  V30 10715 C 137.039 -6.89602 1.41652 0
M  V30 10716 C 137.749 -5.59201 1.75185 0
M  V30 10717 N 137.699 -4.58235 0.662552 0
M  V30 10718 H 140.538 -8.65116 0.777161 0
M  V30 10719 H 140.81 -6.90173 0.474152 0
M  V30 10720 H 139.942 -7.66548 2.79458 0
M  V30 10721 P 135.979 -8.03563 3.84925 0
M  V30 10722 O 135.759 -8.85821 5.0569 0
M  V30 10723 O 135.189 -8.41101 2.65469 0
M  V30 10724 O 135.729 -6.4965 4.18908 0
M  V30 10725 C 136.669 -5.80886 5.05289 0
M  V30 10726 C 135.939 -4.78366 5.89277 0
M  V30 10727 O 135.729 -3.58302 5.08433 0
M  V30 10728 C 134.539 -5.16748 6.36559 0
M  V30 10729 O 134.149 -4.45271 7.53232 0
M  V30 10730 C 133.659 -4.74572 5.19863 0
M  V30 10731 C 134.369 -3.49373 4.70338 0
M  V30 10732 N 134.319 -3.31704 3.22876 0
M  V30 10733 C 134.169 -2.03326 2.74871 0
M  V30 10734 O 134.079 -1.06486 3.48076 0
M  V30 10735 N 134.129 -1.91838 1.37456 0
M  V30 10736 C 134.219 -2.94295 0.462035 0
M  V30 10737 C 134.369 -4.25064 1.05249 0
M  V30 10738 C 134.419 -4.40214 2.39192 0
M  V30 10739 H 137.16 -6.54063 5.71245 0
M  V30 10740 H 137.429 -5.30339 4.43905 0
M  V30 10741 H 136.562 -4.55889 6.76652 0
M  V30 10742 H 133.907 -2.6167 5.17842 0
M  V30 10743 H 133.628 -5.52155 4.41878 0
M  V30 10744 H 132.636 -4.51918 5.53297 0
M  V30 10745 H 134.47 -6.25055 6.55162 0
M  V30 10746 H 134.541 -5.39798 2.81523 0
M  V30 10747 P 132.599 -4.23843 7.83734 0
M  V30 10748 O 132.379 -4.19407 9.29784 0
M  V30 10749 O 131.809 -5.24426 7.09156 0
M  V30 10750 O 132.349 -2.7935 7.20758 0
M  V30 10751 C 133.289 -1.7299 7.50419 0
M  V30 10752 C 132.559 -0.406376 7.57911 0
M  V30 10753 O 132.349 0.0897726 6.21935 0
M  V30 10754 C 131.159 -0.447224 8.1878 0
M  V30 10755 O 130.769 0.825065 8.71101 0
M  V30 10756 C 130.279 -0.783801 6.99623 0
M  V30 10757 C 130.989 -0.0619192 5.85967 0
M  V30 10758 N 130.939 -0.7859 4.56281 0
M  V30 10759 H 133.778 -1.93423 8.4679 0
M  V30 10760 H 134.05 -1.68181 6.71046 0
M  V30 10761 H 133.182 0.289041 8.15388 0
M  V30 10762 P 129.219 1.17771 8.83182 0
M  V30 10763 O 128.999 2.07206 9.98732 0
M  V30 10764 O 128.429 -0.0743816 8.81969 0
M  V30 10765 O 128.969 1.97652 7.47304 0
M  V30 10766 C 129.909 3.01133 7.08783 0
M  V30 10767 C 129.179 4.12613 6.37049 0
M  V30 10768 O 128.969 3.72827 4.97879 0
M  V30 10769 C 127.779 4.45085 6.88694 0
M  V30 10770 O 127.389 5.7877 6.5624 0
M  V30 10771 C 126.899 3.47817 6.12078 0
M  V30 10772 C 127.609 3.39414 4.77697 0
M  V30 10773 N 127.559 2.04615 4.15333 0
M  V30 10774 C 127.639 0.803897 4.75249 0
M  V30 10775 N 127.559 -0.197615 3.91502 0
M  V30 10776 C 127.419 0.413002 2.66823 0
M  V30 10777 C 127.289 -0.157221 1.38007 0
M  V30 10778 N 127.169 0.833136 0.390236 0
M  V30 10779 C 127.169 2.19402 0.623885 0
M  V30 10780 N 127.039 2.97622 -0.449677 0
M  V30 10781 N 127.299 2.73005 1.83601 0
M  V30 10782 C 127.419 1.78786 2.80935 0
M  V30 10783 H 130.398 3.41248 7.98759 0
M  V30 10784 H 130.67 2.5837 6.41742 0
M  V30 10785 H 129.802 5.02657 6.42673 0
M  V30 10786 P 125.839 6.144 6.45285 0
M  V30 10787 O 125.619 7.54673 6.86199 0
M  V30 10788 O 125.049 5.12391 7.179 0
M  V30 10789 O 125.589 5.99158 4.88404 0
M  V30 10790 C 126.529 6.60234 3.96415 0
M  V30 10791 C 125.799 7.08259 2.72856 0
M  V30 10792 O 125.589 5.9427 1.83651 0
M  V30 10793 C 124.399 7.64886 2.9555 0
M  V30 10794 O 124.009 8.53963 1.90717 0
M  V30 10795 C 123.519 6.4116 2.90739 0
M  V30 10796 C 124.229 5.55375 1.86963 0
M  V30 10797 N 124.179 4.09664 2.15742 0
M  V30 10798 H 127.018 7.45574 4.45629 0
M  V30 10799 H 127.29 5.86232 3.67314 0
M  V30 10800 H 126.422 7.84412 2.24479 0
M  V30 10801 P 122.459 8.7635 1.60911 0
M  V30 10802 O 122.239 10.1388 1.11561 0
M  V30 10803 O 121.669 8.36503 2.79617 0
M  V30 10804 O 122.209 7.71906 0.429565 0
M  V30 10805 C 123.149 7.67148 -0.673689 0
M  V30 10806 C 122.419 7.33666 -1.94851 0
M  V30 10807 O 122.209 5.88816 -2.00759 0
M  V30 10808 C 121.019 7.92526 -2.10483 0
M  V30 10809 O 120.629 8.03063 -3.47693 0
M  V30 10810 C 120.139 6.89602 -1.41652 0
M  V30 10811 C 120.849 5.59201 -1.75185 0
M  V30 10812 N 120.799 4.58235 -0.662552 0
M  V30 10813 C 120.649 3.24451 -1.01643 0
M  V30 10814 O 120.559 2.94958 -2.21722 0
M  V30 10815 N 120.599 2.30408 0.165238 0
M  V30 10816 C 120.699 2.66048 1.25118 0
M  V30 10817 N 120.649 1.70787 2.16813 0
M  V30 10818 C 120.849 4.02732 1.64413 0
M  V30 10819 C 120.899 4.9488 0.63991 0
M  V30 10820 H 123.639 8.65017 -0.777072 0
M  V30 10821 H 123.909 6.90173 -0.474152 0
M  V30 10822 H 123.042 7.66642 -2.79492 0
M  V30 10823 H 120.387 5.16254 -2.65229 0
M  V30 10824 H 120.107 7.06532 -0.329431 0
M  V30 10825 H 119.116 6.91023 -1.82047 0
M  V30 10826 H 120.95 8.90873 -1.62657 0
M  V30 10827 H 121.022 6.00104 0.892197 0
M  V30 10828 H 120.92 4.31733 2.69229 0
M  V30 10829 H 120.532 0.724835 1.8844 0
M  V30 10830 H 120.728 1.94716 3.16734 0
M  V30 10831 P 119.079 8.03563 -3.84925 0
M  V30 10832 O 118.859 8.85821 -5.0569 0
M  V30 10833 O 118.289 8.41101 -2.65469 0
M  V30 10834 O 118.829 6.4965 -4.18908 0
M  V30 10835 C 119.769 5.80886 -5.05289 0
M  V30 10836 C 119.039 4.78366 -5.89277 0
M  V30 10837 O 118.829 3.58302 -5.08433 0
M  V30 10838 C 117.639 5.16748 -6.36559 0
M  V30 10839 O 117.249 4.45271 -7.53232 0
M  V30 10840 C 116.759 4.74572 -5.19863 0
M  V30 10841 C 117.469 3.49373 -4.70338 0
M  V30 10842 N 117.419 3.31704 -3.22876 0
M  V30 10843 C 117.269 2.03326 -2.74871 0
M  V30 10844 O 117.179 1.06486 -3.48076 0
M  V30 10845 N 117.229 1.91838 -1.37456 0
M  V30 10846 C 117.319 2.94295 -0.462035 0
M  V30 10847 O 117.269 2.71763 0.752928 0
M  V30 10848 C 117.469 4.25064 -1.05249 0
M  V30 10849 C 117.579 5.39815 -0.095697 0
M  V30 10850 C 117.519 4.40214 -2.39192 0
M  V30 10851 H 120.26 6.54063 -5.71245 0
M  V30 10852 H 120.529 5.30339 -4.43905 0
M  V30 10853 H 119.662 4.55889 -6.76652 0
M  V30 10854 H 117.007 2.6167 -5.17842 0
M  V30 10855 H 116.728 5.52155 -4.41878 0
M  V30 10856 H 115.736 4.51918 -5.53297 0
M  V30 10857 H 117.57 6.25055 -6.55162 0
M  V30 10858 H 117.641 5.39798 -2.81523 0
M  V30 10859 H 116.611 5.91593 -0.0279582 0
M  V30 10860 H 118.348 6.10038 -0.450573 0
M  V30 10861 H 117.86 5.02007 0.89937 0
M  V30 10862 H 117.124 0.995326 -1.00435 0
M  V30 10863 P 115.699 4.23843 -7.83734 0
M  V30 10864 O 115.479 4.19407 -9.29784 0
M  V30 10865 O 114.909 5.24426 -7.09156 0
M  V30 10866 O 115.449 2.7935 -7.20758 0
M  V30 10867 C 116.389 1.72945 -7.50224 0
M  V30 10868 C 115.659 0.406376 -7.57911 0
M  V30 10869 O 115.449 -0.0897726 -6.21935 0
M  V30 10870 C 114.259 0.438983 -8.18724 0
M  V30 10871 O 113.869 -0.825065 -8.71101 0
M  V30 10872 C 113.379 0.783689 -6.99524 0
M  V30 10873 C 114.089 0.0619086 -5.85867 0
M  V30 10874 N 114.039 0.78573 -4.56183 0
M  V30 10875 C 113.889 0.0292889 -3.41887 0
M  V30 10876 O 113.799 -1.18445 -3.4419 0
M  V30 10877 N 113.849 0.744061 -2.23964 0
M  V30 10878 C 113.939 2.10932 -2.10362 0
M  V30 10879 O 113.889 2.64117 -0.98825 0
M  V30 10880 C 114.089 2.8202 -3.34994 0
M  V30 10881 C 114.199 4.31095 -3.25037 0
M  V30 10882 C 114.139 2.15547 -4.52261 0
M  V30 10883 H 116.88 1.93379 -8.46595 0
M  V30 10884 H 117.149 1.68132 -6.70852 0
M  V30 10885 H 116.282 -0.289041 -8.15388 0
M  V30 10886 H 113.627 -0.926847 -5.72749 0
M  V30 10887 H 113.348 1.86973 -6.82036 0
M  V30 10888 H 112.356 0.403896 -7.13257 0
M  V30 10889 H 114.19 1.20585 -8.97435 0
M  V30 10890 H 114.261 2.71231 -5.45042 0
M  V30 10891 H 113.231 4.76966 -3.49992 0
M  V30 10892 H 114.968 4.67047 -3.95024 0
M  V30 10893 H 114.48 4.58996 -2.22312 0
M  V30 10894 H 113.744 0.214893 -1.39758 0
M  V30 10895 P 112.319 -1.17771 -8.83182 0
M  V30 10896 O 112.099 -2.07206 -9.98732 0
M  V30 10897 O 111.529 0.0743816 -8.81969 0
M  V30 10898 O 112.069 -1.97652 -7.47304 0
M  V30 10899 C 113.009 -3.01055 -7.08599 0
M  V30 10900 C 112.279 -4.12613 -6.37049 0
M  V30 10901 O 112.069 -3.72827 -4.97879 0
M  V30 10902 C 110.879 -4.45719 -6.88164 0
M  V30 10903 O 110.489 -5.7877 -6.5624 0
M  V30 10904 C 109.999 -3.47768 -6.11991 0
M  V30 10905 C 110.709 -3.39356 -4.77615 0
M  V30 10906 N 110.659 -2.04571 -4.15244 0
M  V30 10907 C 110.509 -1.98587 -2.78314 0
M  V30 10908 O 110.419 -2.98134 -2.08835 0
M  V30 10909 N 110.469 -0.714467 -2.24925 0
M  V30 10910 C 110.559 0.470001 -2.94169 0
M  V30 10911 C 110.709 0.312541 -4.36783 0
M  V30 10912 C 110.759 -0.914512 -4.92583 0
M  V30 10913 H 113.5 -3.41169 -7.98575 0
M  V30 10914 H 113.769 -2.58295 -6.41556 0
M  V30 10915 H 112.902 -5.02657 -6.42673 0
M  V30 10916 H 110.247 -4.11637 -4.08885 0
M  V30 10917 H 109.968 -2.49626 -6.61679 0
M  V30 10918 H 108.976 -3.86566 -6.00778 0
M  V30 10919 H 110.81 -4.29943 -7.96918 0
M  V30 10920 H 110.881 -1.00937 -6.00374 0
M  V30 10921 P 108.939 -6.144 -6.45285 0
M  V30 10922 O 108.719 -7.54673 -6.86199 0
M  V30 10923 O 108.149 -5.12391 -7.179 0
M  V30 10924 O 108.689 -5.99158 -4.88404 0
M  V30 10925 C 109.629 -6.60234 -3.96415 0
M  V30 10926 C 108.899 -7.08259 -2.72856 0
M  V30 10927 O 108.689 -5.9427 -1.83651 0
M  V30 10928 C 107.499 -7.64886 -2.9555 0
M  V30 10929 O 107.109 -8.53963 -1.90717 0
M  V30 10930 C 106.619 -6.4116 -2.90739 0
M  V30 10931 C 107.329 -5.55375 -1.86963 0
M  V30 10932 N 107.279 -4.09664 -2.15742 0
M  V30 10933 H 110.118 -7.45574 -4.45629 0
M  V30 10934 H 110.39 -5.86232 -3.67314 0
M  V30 10935 H 109.522 -7.84412 -2.24479 0
M  V30 10936 P 105.559 -8.7635 -1.60911 0
M  V30 10937 O 105.339 -10.1388 -1.11561 0
M  V30 10938 O 104.769 -8.36503 -2.79617 0
M  V30 10939 O 105.309 -7.71806 -0.42951 0
M  V30 10940 C 106.249 -7.67148 0.673689 0
M  V30 10941 C 105.519 -7.33374 1.95559 0
M  V30 10942 O 105.309 -5.88721 2.00726 0
M  V30 10943 C 104.119 -7.92526 2.10483 0
M  V30 10944 O 103.729 -8.02971 3.47653 0
M  V30 10945 C 103.239 -6.89602 1.41652 0
M  V30 10946 C 103.949 -5.59201 1.75185 0
M  V30 10947 N 103.899 -4.58235 0.662552 0
M  V30 10948 H 106.738 -8.65116 0.777161 0
M  V30 10949 H 107.01 -6.90173 0.474152 0
M  V30 10950 H 106.142 -7.66548 2.79458 0
M  V30 10951 P 102.179 -8.03563 3.84925 0
M  V30 10952 O 101.959 -8.85821 5.0569 0
M  V30 10953 O 101.389 -8.41101 2.65469 0
M  V30 10954 O 101.929 -6.4965 4.18908 0
M  V30 10955 C 102.869 -5.81037 5.05421 0
M  V30 10956 C 102.139 -4.78366 5.89277 0
M  V30 10957 O 101.929 -3.58302 5.08433 0
M  V30 10958 C 100.739 -5.17448 6.36119 0
M  V30 10959 O 100.349 -4.45271 7.53232 0
M  V30 10960 C 99.8594 -4.74639 5.19936 0
M  V30 10961 C 100.569 -3.49432 4.70418 0
M  V30 10962 N 100.519 -3.31776 3.22945 0
M  V30 10963 H 103.358 -6.54213 5.71376 0
M  V30 10964 H 103.63 -5.30492 4.44033 0
M  V30 10965 H 102.762 -4.55889 6.76652 0
M  V30 10966 P 98.7994 -4.23843 7.83734 0
M  V30 10967 O 98.5794 -4.19407 9.29784 0
M  V30 10968 O 98.0094 -5.24426 7.09156 0
M  V30 10969 O 98.5494 -2.7935 7.20758 0
M  V30 10970 C 99.4894 -1.7299 7.50419 0
M  V30 10971 C 98.7594 -0.406376 7.57911 0
M  V30 10972 O 98.5494 0.0897726 6.21935 0
M  V30 10973 C 97.3594 -0.447224 8.1878 0
M  V30 10974 O 96.9694 0.825065 8.71101 0
M  V30 10975 C 96.4794 -0.783801 6.99623 0
M  V30 10976 C 97.1894 -0.0619192 5.85967 0
M  V30 10977 N 97.1394 -0.7859 4.56281 0
M  V30 10978 H 99.9784 -1.93423 8.4679 0
M  V30 10979 H 100.25 -1.68181 6.71046 0
M  V30 10980 H 99.3824 0.289041 8.15388 0
M  V30 10981 P 95.4195 1.17771 8.83182 0
M  V30 10982 O 95.1995 2.07206 9.98732 0
M  V30 10983 O 94.6295 -0.0743816 8.81969 0
M  V30 10984 O 95.1695 1.97652 7.47304 0
M  V30 10985 C 96.1095 3.01133 7.08783 0
M  V30 10986 C 95.3795 4.12613 6.37049 0
M  V30 10987 O 95.1695 3.72827 4.97879 0
M  V30 10988 C 93.9795 4.45085 6.88694 0
M  V30 10989 O 93.5895 5.7877 6.5624 0
M  V30 10990 C 93.0995 3.47817 6.12078 0
M  V30 10991 C 93.8095 3.39414 4.77697 0
M  V30 10992 N 93.7595 2.04199 4.15538 0
M  V30 10993 H 96.5985 3.41248 7.98759 0
M  V30 10994 H 96.8705 2.57728 6.42 0
M  V30 10995 H 96.0025 5.02657 6.42673 0
M  V30 10996 H 93.3475 4.11708 4.08956 0
M  V30 10997 H 93.0675 2.49626 6.61679 0
M  V30 10998 H 92.0765 3.8662 6.00862 0
M  V30 10999 H 93.9105 4.29991 7.97006 0
M  V30 11000 P 92.0395 6.144 6.45285 0
M  V30 11001 O 91.8195 7.54673 6.86199 0
M  V30 11002 O 91.2495 5.12391 7.179 0
M  V30 11003 O 91.7895 5.99158 4.88404 0
M  V30 11004 C 92.7295 6.60234 3.96415 0
M  V30 11005 C 91.9995 7.08259 2.72856 0
M  V30 11006 O 91.7895 5.9427 1.83651 0
M  V30 11007 C 90.5995 7.64886 2.9555 0
M  V30 11008 O 90.2095 8.53963 1.90717 0
M  V30 11009 C 89.7195 6.4116 2.90739 0
M  V30 11010 C 90.4295 5.55375 1.86963 0
M  V30 11011 N 90.3795 4.09664 2.15742 0
M  V30 11012 H 93.2185 7.45574 4.45629 0
M  V30 11013 H 93.4905 5.86232 3.67314 0
M  V30 11014 H 92.6225 7.84412 2.24479 0
M  V30 11015 P 88.6595 8.7635 1.60911 0
M  V30 11016 O 88.4395 10.1388 1.11561 0
M  V30 11017 O 87.8695 8.36503 2.79617 0
M  V30 11018 O 88.4095 7.71806 0.42951 0
M  V30 11019 C 89.3495 7.67148 -0.673689 0
M  V30 11020 C 88.6195 7.33374 -1.95559 0
M  V30 11021 O 88.4095 5.88721 -2.00726 0
M  V30 11022 C 87.2195 7.92526 -2.10483 0
M  V30 11023 O 86.8295 8.02971 -3.47653 0
M  V30 11024 C 86.3395 6.89602 -1.41652 0
M  V30 11025 C 87.0495 5.59201 -1.75185 0
M  V30 11026 N 86.9995 4.58235 -0.662552 0
M  V30 11027 H 89.8385 8.65116 -0.777161 0
M  V30 11028 H 90.1105 6.90173 -0.474152 0
M  V30 11029 H 89.2425 7.66548 -2.79458 0
M  V30 11030 P 85.2795 8.03563 -3.84925 0
M  V30 11031 O 85.0595 8.85821 -5.0569 0
M  V30 11032 O 84.4895 8.41101 -2.65469 0
M  V30 11033 O 85.0295 6.4965 -4.18908 0
M  V30 11034 C 85.9695 5.81037 -5.05421 0
M  V30 11035 C 85.2395 4.78366 -5.89277 0
M  V30 11036 O 85.0295 3.58302 -5.08433 0
M  V30 11037 C 83.8395 5.17448 -6.36119 0
M  V30 11038 O 83.4495 4.45271 -7.53232 0
M  V30 11039 C 82.9595 4.74639 -5.19936 0
M  V30 11040 C 83.6695 3.49432 -4.70418 0
M  V30 11041 N 83.6195 3.31776 -3.22945 0
M  V30 11042 H 86.4585 6.54213 -5.71376 0
M  V30 11043 H 86.7305 5.30492 -4.44033 0
M  V30 11044 H 85.8625 4.55889 -6.76652 0
M  V30 11045 P 81.8995 4.23843 -7.83734 0
M  V30 11046 O 81.6795 4.19407 -9.29784 0
M  V30 11047 O 81.1095 5.24426 -7.09156 0
M  V30 11048 O 81.6495 2.7935 -7.20758 0
M  V30 11049 C 82.5895 1.7299 -7.50419 0
M  V30 11050 C 81.8595 0.406376 -7.57911 0
M  V30 11051 O 81.6495 -0.0897726 -6.21935 0
M  V30 11052 C 80.4595 0.447224 -8.1878 0
M  V30 11053 O 80.0695 -0.825065 -8.71101 0
M  V30 11054 C 79.5795 0.783801 -6.99623 0
M  V30 11055 C 80.2895 0.0619192 -5.85967 0
M  V30 11056 N 80.2395 0.7859 -4.56281 0
M  V30 11057 H 83.0785 1.93423 -8.4679 0
M  V30 11058 H 83.3505 1.68181 -6.71046 0
M  V30 11059 H 82.4825 -0.289041 -8.15388 0
M  V30 11060 P 78.5196 -1.17771 -8.83182 0
M  V30 11061 O 78.2996 -2.07206 -9.98732 0
M  V30 11062 O 77.7296 0.0743816 -8.81969 0
M  V30 11063 O 78.2696 -1.97678 -7.474 0
M  V30 11064 C 79.2096 -3.01133 -7.08783 0
M  V30 11065 C 78.4796 -4.1203 -6.37546 0
M  V30 11066 O 78.2696 -3.72887 -4.9796 0
M  V30 11067 C 77.0796 -4.45085 -6.88694 0
M  V30 11068 O 76.6896 -5.78836 -6.56315 0
M  V30 11069 C 76.1996 -3.47817 -6.12078 0
M  V30 11070 C 76.9096 -3.39414 -4.77697 0
M  V30 11071 N 76.8596 -2.04615 -4.15333 0
M  V30 11072 C 76.7096 -1.96929 -2.77162 0
M  V30 11073 O 76.6196 -3.02017 -2.12006 0
M  V30 11074 N 76.6596 -0.55485 -2.24237 0
M  V30 11075 C 76.7596 0.367808 -2.9169 0
M  V30 11076 N 76.7096 1.53426 -2.29427 0
M  V30 11077 C 76.9096 0.319148 -4.33828 0
M  V30 11078 C 76.9596 -0.920672 -4.90433 0
M  V30 11079 H 79.6996 -3.41209 -7.98667 0
M  V30 11080 H 79.9696 -2.5837 -6.41742 0
M  V30 11081 H 79.1026 -5.02718 -6.42752 0
M  V30 11082 H 76.4476 -4.11779 -4.09026 0
M  V30 11083 H 76.1676 -2.49661 -6.61772 0
M  V30 11084 H 75.1766 -3.86674 -6.00946 0
M  V30 11085 H 77.0106 -4.29991 -7.97006 0
M  V30 11086 H 77.0826 -1.00589 -5.98303 0
M  V30 11087 H 76.9806 1.22639 -4.93799 0
M  V30 11088 H 76.5926 1.56819 -1.27167 0
M  V30 11089 H 76.7886 2.41062 -2.83063 0
M  V30 11090 P 75.1396 -6.144 -6.45285 0
M  V30 11091 O 74.9196 -7.54673 -6.86199 0
M  V30 11092 O 74.3496 -5.12391 -7.179 0
M  V30 11093 O 74.8896 -5.99158 -4.88404 0
M  V30 11094 C 75.8296 -6.60234 -3.96415 0
M  V30 11095 C 75.0996 -7.08259 -2.72856 0
M  V30 11096 O 74.8896 -5.9427 -1.83651 0
M  V30 11097 C 73.6996 -7.64886 -2.9555 0
M  V30 11098 O 73.3096 -8.53963 -1.90717 0
M  V30 11099 C 72.8196 -6.4116 -2.90739 0
M  V30 11100 C 73.5296 -5.55375 -1.86963 0
M  V30 11101 N 73.4796 -4.09448 -2.16152 0
M  V30 11102 H 76.3186 -7.45574 -4.45629 0
M  V30 11103 H 76.5906 -5.85864 -3.679 0
M  V30 11104 H 75.7226 -7.84412 -2.24479 0
M  V30 11105 H 73.0676 -5.73457 -0.888562 0
M  V30 11106 H 72.7876 -5.90877 -3.88583 0
M  V30 11107 H 71.7966 -6.6596 -2.58858 0
M  V30 11108 H 73.6306 -8.16339 -3.92049 0
M  V30 11109 P 71.7596 -8.7635 -1.60911 0
M  V30 11110 O 71.5396 -10.1388 -1.11561 0
M  V30 11111 O 70.9696 -8.36503 -2.79617 0
M  V30 11112 O 71.5096 -7.71806 -0.42951 0
M  V30 11113 C 72.4496 -7.67148 0.673689 0
M  V30 11114 C 71.7196 -7.33374 1.95559 0
M  V30 11115 O 71.5096 -5.88721 2.00726 0
M  V30 11116 C 70.3196 -7.92526 2.10483 0
M  V30 11117 O 69.9296 -8.02971 3.47653 0
M  V30 11118 C 69.4396 -6.89602 1.41652 0
M  V30 11119 C 70.1496 -5.59201 1.75185 0
M  V30 11120 N 70.0996 -4.58301 0.657969 0
M  V30 11121 H 72.9386 -8.65116 0.777161 0
M  V30 11122 H 73.2106 -6.9022 0.46725 0
M  V30 11123 H 72.3426 -7.66548 2.79458 0
M  V30 11124 H 69.6876 -5.16165 2.65183 0
M  V30 11125 H 69.4076 -7.06433 0.329384 0
M  V30 11126 H 68.4166 -6.90926 1.82021 0
M  V30 11127 H 70.2506 -8.90873 1.62657 0
M  V30 11128 P 68.3796 -8.03563 3.84925 0
M  V30 11129 O 68.1596 -8.85821 5.0569 0
M  V30 11130 O 67.5896 -8.41101 2.65469 0
M  V30 11131 O 68.1296 -6.4965 4.18908 0
M  V30 11132 C 69.0696 -5.81037 5.05421 0
M  V30 11133 C 68.3396 -4.78366 5.89277 0
M  V30 11134 O 68.1296 -3.58302 5.08433 0
M  V30 11135 C 66.9396 -5.17448 6.36119 0
M  V30 11136 O 66.5496 -4.45271 7.53232 0
M  V30 11137 C 66.0596 -4.74639 5.19936 0
M  V30 11138 C 66.7696 -3.49432 4.70418 0
M  V30 11139 N 66.7196 -3.31776 3.22945 0
M  V30 11140 H 69.5586 -6.54213 5.71376 0
M  V30 11141 H 69.8306 -5.30492 4.44033 0
M  V30 11142 H 68.9626 -4.55889 6.76652 0
M  V30 11143 P 64.9996 -4.23843 7.83734 0
M  V30 11144 O 64.7796 -4.19407 9.29784 0
M  V30 11145 O 64.2096 -5.24426 7.09156 0
M  V30 11146 O 64.7496 -2.79386 7.20852 0
M  V30 11147 C 65.6896 -1.7299 7.50419 0
M  V30 11148 C 64.9596 -0.41401 7.5797 0
M  V30 11149 O 64.7496 0.089787 6.22035 0
M  V30 11150 C 63.5596 -0.447224 8.1878 0
M  V30 11151 O 63.1696 0.825159 8.71201 0
M  V30 11152 C 62.6796 -0.783801 6.99623 0
M  V30 11153 C 63.3896 -0.0619192 5.85967 0
M  V30 11154 N 63.3396 -0.7859 4.56281 0
M  V30 11155 C 63.1896 -0.0359258 3.39981 0
M  V30 11156 O 63.0996 1.19723 3.49038 0
M  V30 11157 N 63.1396 -0.869151 2.14025 0
M  V30 11158 C 63.2396 -2.01207 2.14363 0
M  V30 11159 N 63.1896 -2.58978 0.954287 0
M  V30 11160 C 63.3896 -2.80817 3.32215 0
M  V30 11161 C 63.4396 -2.13785 4.50884 0
M  V30 11162 H 66.1796 -1.93401 8.46693 0
M  V30 11163 H 66.4496 -1.68181 6.71046 0
M  V30 11164 H 65.5826 0.289076 8.15488 0
M  V30 11165 H 62.9276 0.927166 5.72947 0
M  V30 11166 H 62.6476 -1.87 6.82132 0
M  V30 11167 H 61.6566 -0.404009 7.13457 0
M  V30 11168 H 63.4906 -1.20599 8.97534 0
M  V30 11169 H 63.5626 -2.70295 5.43162 0
M  V30 11170 H 63.4606 -3.89465 3.27406 0
M  V30 11171 H 63.0726 -2.01616 0.107046 0
M  V30 11172 H 63.2686 -3.61403 0.873101 0
M  V30 11173 P 61.6197 1.17771 8.83182 0
M  V30 11174 O 61.3997 2.07206 9.98732 0
M  V30 11175 O 60.8297 -0.0743816 8.81969 0
M  V30 11176 O 61.3697 1.97652 7.47304 0
M  V30 11177 C 62.3097 3.01133 7.08783 0
M  V30 11178 C 61.5797 4.12613 6.37049 0
M  V30 11179 O 61.3697 3.72827 4.97879 0
M  V30 11180 C 60.1797 4.45085 6.88694 0
M  V30 11181 O 59.7897 5.7877 6.5624 0
M  V30 11182 C 59.2997 3.47817 6.12078 0
M  V30 11183 C 60.0097 3.39414 4.77697 0
M  V30 11184 N 59.9597 2.04615 4.15333 0
M  V30 11185 H 62.7987 3.41248 7.98759 0
M  V30 11186 H 63.0707 2.5837 6.41742 0
M  V30 11187 H 62.2027 5.02657 6.42673 0
M  V30 11188 P 58.2397 6.144 6.45285 0
M  V30 11189 O 58.0197 7.54673 6.86199 0
M  V30 11190 O 57.4497 5.12391 7.179 0
M  V30 11191 O 57.9897 5.99236 4.88467 0
M  V30 11192 C 58.9297 6.60234 3.96415 0
M  V30 11193 C 58.1997 7.08079 2.736 0
M  V30 11194 O 57.9897 5.94365 1.8368 0
M  V30 11195 C 56.7997 7.64886 2.9555 0
M  V30 11196 O 56.4097 8.5406 1.90739 0
M  V30 11197 C 55.9197 6.4116 2.90739 0
M  V30 11198 C 56.6297 5.55375 1.86963 0
M  V30 11199 N 56.5797 4.09664 2.15742 0
M  V30 11200 C 56.4297 3.22231 1.08477 0
M  V30 11201 O 56.3397 3.68951 -0.0600489 0
M  V30 11202 N 56.3797 1.76692 1.48799 0
M  V30 11203 C 56.4797 1.41695 2.57602 0
M  V30 11204 N 56.4297 0.107296 2.75791 0
M  V30 11205 C 56.6297 2.29178 3.69733 0
M  V30 11206 C 56.6797 3.62753 3.42653 0
M  V30 11207 H 59.4197 7.45488 4.45578 0
M  V30 11208 H 59.6897 5.86232 3.67314 0
M  V30 11209 H 58.8227 7.84508 2.24507 0
M  V30 11210 H 56.1677 5.73556 0.888715 0
M  V30 11211 H 55.8877 5.9096 3.88638 0
M  V30 11212 H 54.8967 6.66053 2.58894 0
M  V30 11213 H 56.7307 8.16339 3.92049 0
M  V30 11214 H 56.8027 4.33052 4.24913 0
M  V30 11215 H 56.7007 1.9103 4.71577 0
M  V30 11216 H 56.3127 -0.521221 1.95056 0
M  V30 11217 H 56.5087 -0.286429 3.70695 0
M  V30 11218 P 54.8597 8.7635 1.60911 0
M  V30 11219 O 54.6397 10.1388 1.11561 0
M  V30 11220 O 54.0697 8.36503 2.79617 0
M  V30 11221 O 54.6097 7.71806 0.42951 0
M  V30 11222 C 55.5497 7.67148 -0.673689 0
M  V30 11223 C 54.8197 7.33374 -1.95559 0
M  V30 11224 O 54.6097 5.88721 -2.00726 0
M  V30 11225 C 53.4197 7.92526 -2.10483 0
M  V30 11226 O 53.0297 8.02971 -3.47653 0
M  V30 11227 C 52.5397 6.89602 -1.41652 0
M  V30 11228 C 53.2497 5.59201 -1.75185 0
M  V30 11229 N 53.1997 4.58235 -0.662552 0
M  V30 11230 H 56.0387 8.65116 -0.777161 0
M  V30 11231 H 56.3107 6.90173 -0.474152 0
M  V30 11232 H 55.4427 7.66548 -2.79458 0
M  V30 11233 P 51.4797 8.03563 -3.84925 0
M  V30 11234 O 51.2597 8.85821 -5.0569 0
M  V30 11235 O 50.6897 8.41101 -2.65469 0
M  V30 11236 O 51.2297 6.4965 -4.18908 0
M  V30 11237 C 52.1697 5.81037 -5.05421 0
M  V30 11238 C 51.4397 4.78366 -5.89277 0
M  V30 11239 O 51.2297 3.58302 -5.08433 0
M  V30 11240 C 50.0397 5.17448 -6.36119 0
M  V30 11241 O 49.6497 4.45271 -7.53232 0
M  V30 11242 C 49.1597 4.74639 -5.19936 0
M  V30 11243 C 49.8697 3.49432 -4.70418 0
M  V30 11244 N 49.8197 3.32099 -3.22613 0
M  V30 11245 C 49.8997 4.28245 -2.25527 0
M  V30 11246 N 49.8297 3.80823 -1.04874 0
M  V30 11247 C 49.6797 2.44571 -1.23535 0
M  V30 11248 C 49.5497 1.37068 -0.330675 0
M  V30 11249 N 49.5397 1.51472 0.990824 0
M  V30 11250 N 49.4297 0.138614 -0.848756 0
M  V30 11251 C 49.4397 -0.00675923 -2.16999 0
M  V30 11252 N 49.5597 0.904372 -3.11122 0
M  V30 11253 C 49.6797 2.12707 -2.56212 0
M  V30 11254 H 52.6587 6.54213 -5.71376 0
M  V30 11255 H 52.9307 5.30936 -4.43503 0
M  V30 11256 H 52.0627 4.55889 -6.76652 0
M  V30 11257 H 49.4077 2.61715 -5.17932 0
M  V30 11258 H 49.1277 5.52155 -4.41878 0
M  V30 11259 H 48.1367 4.51981 -5.53374 0
M  V30 11260 H 49.9707 6.25124 -6.55234 0
M  V30 11261 H 50.0117 5.34372 -2.47488 0
M  V30 11262 H 49.6307 2.45153 1.4078 0
M  V30 11263 H 49.4417 0.688422 1.59911 0
M  V30 11264 H 49.3337 -1.02584 -2.52346 0
M  V30 11265 P 48.0997 4.23843 -7.83734 0
M  V30 11266 O 47.8797 4.19407 -9.29784 0
M  V30 11267 O 47.3097 5.24426 -7.09156 0
M  V30 11268 O 47.8497 2.7935 -7.20758 0
M  V30 11269 C 48.7897 1.7299 -7.50419 0
M  V30 11270 C 48.0597 0.406376 -7.57911 0
M  V30 11271 O 47.8497 -0.0897726 -6.21935 0
M  V30 11272 C 46.6597 0.447224 -8.1878 0
M  V30 11273 O 46.2697 -0.825065 -8.71101 0
M  V30 11274 C 45.7797 0.783801 -6.99623 0
M  V30 11275 C 46.4897 0.0619192 -5.85967 0
M  V30 11276 N 46.4397 0.790462 -4.56202 0
M  V30 11277 H 49.2787 1.93423 -8.4679 0
M  V30 11278 H 49.5507 1.68852 -6.70877 0
M  V30 11279 H 48.6827 -0.289041 -8.15388 0
M  V30 11280 H 46.0277 -0.927006 -5.72848 0
M  V30 11281 H 45.7477 1.86973 -6.82036 0
M  V30 11282 H 44.7567 0.403953 -7.13357 0
M  V30 11283 H 46.5907 1.20599 -8.97534 0
M  V30 11284 P 44.7198 -1.17771 -8.83182 0
M  V30 11285 O 44.4998 -2.07206 -9.98732 0
M  V30 11286 O 43.9298 0.0743816 -8.81969 0
M  V30 11287 O 44.4698 -1.97652 -7.47304 0
M  V30 11288 C 45.4098 -3.01133 -7.08783 0
M  V30 11289 C 44.6798 -4.12613 -6.37049 0
M  V30 11290 O 44.4698 -3.72827 -4.97879 0
M  V30 11291 C 43.2798 -4.45085 -6.88694 0
M  V30 11292 O 42.8898 -5.7877 -6.5624 0
M  V30 11293 C 42.3998 -3.47817 -6.12078 0
M  V30 11294 C 43.1098 -3.39414 -4.77697 0
M  V30 11295 N 43.0598 -2.04615 -4.15333 0
M  V30 11296 H 45.8988 -3.41248 -7.98759 0
M  V30 11297 H 46.1708 -2.5837 -6.41742 0
M  V30 11298 H 45.3028 -5.02657 -6.42673 0
M  V30 11299 P 41.3398 -6.144 -6.45285 0
M  V30 11300 O 41.1198 -7.54673 -6.86199 0
M  V30 11301 O 40.5498 -5.12391 -7.179 0
M  V30 11302 O 41.0898 -5.99158 -4.88404 0
M  V30 11303 C 42.0298 -6.60234 -3.96415 0
M  V30 11304 C 41.2998 -7.08259 -2.72856 0
M  V30 11305 O 41.0898 -5.9427 -1.83651 0
M  V30 11306 C 39.8998 -7.64886 -2.9555 0
M  V30 11307 O 39.5098 -8.53963 -1.90717 0
M  V30 11308 C 39.0198 -6.4116 -2.90739 0
M  V30 11309 C 39.7298 -5.55375 -1.86963 0
M  V30 11310 N 39.6798 -4.09664 -2.15742 0
M  V30 11311 H 42.5188 -7.45574 -4.45629 0
M  V30 11312 H 42.7908 -5.86232 -3.67314 0
M  V30 11313 H 41.9228 -7.84412 -2.24479 0
M  V30 11314 P 37.9598 -8.7635 -1.60911 0
M  V30 11315 O 37.7398 -10.1388 -1.11561 0
M  V30 11316 O 37.1698 -8.36503 -2.79617 0
M  V30 11317 O 37.7098 -7.71806 -0.42951 0
M  V30 11318 C 38.6498 -7.67148 0.673689 0
M  V30 11319 C 37.9198 -7.33374 1.95559 0
M  V30 11320 O 37.7098 -5.88721 2.00726 0
M  V30 11321 C 36.5198 -7.92526 2.10483 0
M  V30 11322 O 36.1298 -8.02971 3.47653 0
M  V30 11323 C 35.6398 -6.89602 1.41652 0
M  V30 11324 C 36.3498 -5.59201 1.75185 0
M  V30 11325 N 36.2998 -4.58235 0.662552 0
M  V30 11326 H 39.1388 -8.65116 0.777161 0
M  V30 11327 H 39.4108 -6.90173 0.474152 0
M  V30 11328 H 38.5428 -7.66548 2.79458 0
M  V30 11329 P 34.5798 -8.03563 3.84925 0
M  V30 11330 O 34.3598 -8.85821 5.0569 0
M  V30 11331 O 33.7898 -8.41101 2.65469 0
M  V30 11332 O 34.3298 -6.4965 4.18908 0
M  V30 11333 C 35.2698 -5.81037 5.05421 0
M  V30 11334 C 34.5398 -4.78366 5.89277 0
M  V30 11335 O 34.3298 -3.58302 5.08433 0
M  V30 11336 C 33.1398 -5.17448 6.36119 0
M  V30 11337 O 32.7498 -4.45271 7.53232 0
M  V30 11338 C 32.2598 -4.74639 5.19936 0
M  V30 11339 C 32.9698 -3.49432 4.70418 0
M  V30 11340 N 32.9198 -3.31776 3.22945 0
M  V30 11341 H 35.7588 -6.54213 5.71376 0
M  V30 11342 H 36.0308 -5.30492 4.44033 0
M  V30 11343 H 35.1628 -4.55889 6.76652 0
M  V30 11344 P 31.1998 -4.23843 7.83734 0
M  V30 11345 O 30.9798 -4.19407 9.29784 0
M  V30 11346 O 30.4098 -5.24426 7.09156 0
M  V30 11347 O 30.9498 -2.7935 7.20758 0
M  V30 11348 C 31.8898 -1.7299 7.50419 0
M  V30 11349 C 31.1598 -0.406376 7.57911 0
M  V30 11350 O 30.9498 0.0897726 6.21935 0
M  V30 11351 C 29.7598 -0.447224 8.1878 0
M  V30 11352 O 29.3698 0.825065 8.71101 0
M  V30 11353 C 28.8798 -0.783801 6.99623 0
M  V30 11354 C 29.5898 -0.0619192 5.85967 0
M  V30 11355 N 29.5398 -0.7859 4.56281 0
M  V30 11356 H 32.3788 -1.93423 8.4679 0
M  V30 11357 H 32.6508 -1.68181 6.71046 0
M  V30 11358 H 31.7828 0.289041 8.15388 0
M  V30 11359 P 27.8199 1.17771 8.83182 0
M  V30 11360 O 27.5999 2.07206 9.98732 0
M  V30 11361 O 27.0299 -0.0743816 8.81969 0
M  V30 11362 O 27.5699 1.97652 7.47304 0
M  V30 11363 C 28.5099 3.01133 7.08783 0
M  V30 11364 C 27.7799 4.12613 6.37049 0
M  V30 11365 O 27.5699 3.72827 4.97879 0
M  V30 11366 C 26.3799 4.45085 6.88694 0
M  V30 11367 O 25.9899 5.7877 6.5624 0
M  V30 11368 C 25.4999 3.47817 6.12078 0
M  V30 11369 C 26.2099 3.39414 4.77697 0
M  V30 11370 N 26.1599 2.04615 4.15333 0
M  V30 11371 H 28.9989 3.41248 7.98759 0
M  V30 11372 H 29.2709 2.5837 6.41742 0
M  V30 11373 H 28.4029 5.02657 6.42673 0
M  V30 11374 P 24.4399 6.144 6.45285 0
M  V30 11375 O 24.2199 7.54673 6.86199 0
M  V30 11376 O 23.6499 5.12391 7.179 0
M  V30 11377 O 24.1899 5.99158 4.88404 0
M  V30 11378 C 25.1299 6.60234 3.96415 0
M  V30 11379 C 24.3999 7.08259 2.72856 0
M  V30 11380 O 24.1899 5.9427 1.83651 0
M  V30 11381 C 22.9999 7.64886 2.9555 0
M  V30 11382 O 22.6099 8.53963 1.90717 0
M  V30 11383 C 22.1199 6.4116 2.90739 0
M  V30 11384 C 22.8299 5.55375 1.86963 0
M  V30 11385 N 22.7799 4.09664 2.15742 0
M  V30 11386 H 25.6189 7.45574 4.45629 0
M  V30 11387 H 25.8909 5.86232 3.67314 0
M  V30 11388 H 25.0229 7.84412 2.24479 0
M  V30 11389 P 21.0599 8.7635 1.60911 0
M  V30 11390 O 20.8399 10.1388 1.11561 0
M  V30 11391 O 20.2699 8.36503 2.79617 0
M  V30 11392 O 20.8099 7.71806 0.42951 0
M  V30 11393 C 21.7499 7.67148 -0.673689 0
M  V30 11394 C 21.0199 7.33374 -1.95559 0
M  V30 11395 O 20.8099 5.88721 -2.00726 0
M  V30 11396 C 19.6199 7.92526 -2.10483 0
M  V30 11397 O 19.2299 8.02971 -3.47653 0
M  V30 11398 C 18.7399 6.89602 -1.41652 0
M  V30 11399 C 19.4499 5.59201 -1.75185 0
M  V30 11400 N 19.3999 4.58235 -0.662552 0
M  V30 11401 C 19.4799 4.7683 0.704049 0
M  V30 11402 N 19.3999 3.66233 1.39775 0
M  V30 11403 C 19.2599 2.66526 0.431739 0
M  V30 11404 C 19.1299 1.26394 0.575992 0
M  V30 11405 N 19.0099 0.62859 -0.67177 0
M  V30 11406 C 19.0099 1.27134 -1.89385 0
M  V30 11407 N 18.8799 0.492035 -2.96951 0
M  V30 11408 N 19.1399 2.58978 -2.02907 0
M  V30 11409 C 19.2599 3.22433 -0.832218 0
M  V30 11410 H 22.2389 8.65116 -0.777161 0
M  V30 11411 H 22.5109 6.90173 -0.474152 0
M  V30 11412 H 21.6429 7.66548 -2.79458 0
M  V30 11413 P 17.6799 8.03563 -3.84925 0
M  V30 11414 O 17.4599 8.85821 -5.0569 0
M  V30 11415 O 16.8899 8.41101 -2.65469 0
M  V30 11416 O 17.4299 6.4965 -4.18908 0
M  V30 11417 C 18.3699 5.81037 -5.05421 0
M  V30 11418 C 17.6399 4.78366 -5.89277 0
M  V30 11419 O 17.4299 3.58302 -5.08433 0
M  V30 11420 C 16.2399 5.17448 -6.36119 0
M  V30 11421 O 15.8499 4.45271 -7.53232 0
M  V30 11422 C 15.3599 4.74639 -5.19936 0
M  V30 11423 C 16.0699 3.49432 -4.70418 0
M  V30 11424 N 16.0199 3.31776 -3.22945 0
M  V30 11425 H 18.8589 6.54213 -5.71376 0
M  V30 11426 H 19.1309 5.30492 -4.44033 0
M  V30 11427 H 18.2629 4.55889 -6.76652 0
M  V30 11428 P 14.2999 4.23843 -7.83734 0
M  V30 11429 O 14.0799 4.19407 -9.29784 0
M  V30 11430 O 13.5099 5.24426 -7.09156 0
M  V30 11431 O 14.0499 2.7935 -7.20758 0
M  V30 11432 C 14.9899 1.7299 -7.50419 0
M  V30 11433 C 14.2599 0.406376 -7.57911 0
M  V30 11434 O 14.0499 -0.0897726 -6.21935 0
M  V30 11435 C 12.8599 0.447224 -8.1878 0
M  V30 11436 O 12.4699 -0.825065 -8.71101 0
M  V30 11437 C 11.9799 0.783801 -6.99623 0
M  V30 11438 C 12.6899 0.0619192 -5.85967 0
M  V30 11439 N 12.6399 0.7859 -4.56281 0
M  V30 11440 H 15.4789 1.93423 -8.4679 0
M  V30 11441 H 15.7509 1.68181 -6.71046 0
M  V30 11442 H 14.8829 -0.289041 -8.15388 0
M  V30 11443 P 10.92 -1.17771 -8.83182 0
M  V30 11444 O 10.7 -2.07206 -9.98732 0
M  V30 11445 O 10.13 0.0743816 -8.81969 0
M  V30 11446 O 10.67 -1.97652 -7.47304 0
M  V30 11447 C 11.61 -3.01133 -7.08783 0
M  V30 11448 C 10.88 -4.12613 -6.37049 0
M  V30 11449 O 10.67 -3.72827 -4.97879 0
M  V30 11450 C 9.47996 -4.45085 -6.88694 0
M  V30 11451 O 9.08996 -5.7877 -6.5624 0
M  V30 11452 C 8.59996 -3.47817 -6.12078 0
M  V30 11453 C 9.30996 -3.39414 -4.77697 0
M  V30 11454 N 9.25996 -2.04615 -4.15333 0
M  V30 11455 H 12.099 -3.41248 -7.98759 0
M  V30 11456 H 12.371 -2.5837 -6.41742 0
M  V30 11457 H 11.503 -5.02657 -6.42673 0
M  V30 11458 P 7.53998 -6.144 -6.45285 0
M  V30 11459 O 7.31998 -7.54673 -6.86199 0
M  V30 11460 O 6.74998 -5.12391 -7.179 0
M  V30 11461 O 7.28998 -5.99158 -4.88404 0
M  V30 11462 C 8.22998 -6.60234 -3.96415 0
M  V30 11463 C 7.49998 -7.08259 -2.72856 0
M  V30 11464 O 7.28998 -5.9427 -1.83651 0
M  V30 11465 C 6.09998 -7.64886 -2.9555 0
M  V30 11466 O 5.70998 -8.53963 -1.90717 0
M  V30 11467 C 5.21998 -6.4116 -2.90739 0
M  V30 11468 C 5.92998 -5.55375 -1.86963 0
M  V30 11469 N 5.87998 -4.09664 -2.15742 0
M  V30 11470 H 8.71898 -7.45574 -4.45629 0
M  V30 11471 H 8.99098 -5.86232 -3.67314 0
M  V30 11472 H 8.12298 -7.84412 -2.24479 0
M  V30 11473 P 4.16 -8.7635 -1.60911 0
M  V30 11474 O 3.94 -10.1388 -1.11561 0
M  V30 11475 O 3.37 -8.36503 -2.79617 0
M  V30 11476 O 3.91 -7.71806 -0.42951 0
M  V30 11477 C 4.85 -7.67148 0.673689 0
M  V30 11478 C 4.12 -7.33374 1.95559 0
M  V30 11479 O 3.91 -5.88721 2.00726 0
M  V30 11480 C 2.72 -7.92526 2.10483 0
M  V30 11481 O 2.33 -8.02971 3.47653 0
M  V30 11482 C 1.84 -6.89602 1.41652 0
M  V30 11483 C 2.55 -5.59201 1.75185 0
M  V30 11484 N 2.5 -4.58235 0.662552 0
M  V30 11485 H 5.339 -8.65116 0.777161 0
M  V30 11486 H 5.611 -6.90173 0.474152 0
M  V30 11487 H 4.743 -7.66548 2.79458 0
M  V30 11488 H 1.613 -8.66322 3.55694 0
M  V30 END ATOM
M  V30 BEGIN BOND
M  V30 END BOND
M  V30 END CTAB
M  END
$$$$
