drugbank_target|P62258 14-3-3 protein epsilon (DB01780; DB12695)
 OpenBabel12092120553D

  0  0  0     0  0            999 V3000
M  V30 BEGIN CTAB
M  V30 COUNTS 4047 4075 0 0 0
M  V30 BEGIN ATOM
M  V30 1 H -0.908 1.98254 -0.117106 0
M  V30 2 N 0 1.576 0 0
M  V30 3 C 0.933 2.03868 1.02534 0
M  V30 4 C 1.911 0.928543 1.3348 0
M  V30 5 O 3.095 1.19667 1.45644 0
M  V30 6 C 0.222 2.43627 2.35294 0
M  V30 7 C -0.732 3.65373 2.2001 0
M  V30 8 S 0.101 5.13292 1.52614 0
M  V30 9 C 1.257 5.56322 2.86805 0
M  V30 10 H 1.49 2.90518 0.631377 0
M  V30 11 H -0.977 1.52953 0.210867 0
M  V30 12 H 0.981 2.67203 3.11629 0
M  V30 13 H -0.358 1.57376 2.7183 0
M  V30 14 H -1.165 3.90944 3.18086 0
M  V30 15 H -1.563 3.418 1.51819 0
M  V30 16 H 0.729 5.58782 3.83104 0
M  V30 17 H 1.672 6.56266 2.65933 0
M  V30 18 H 2.08 4.83886 2.90714 0
M  V30 19 N 1.4781 -0.272755 1.55222 0
M  V30 20 C 2.7551 -1.02562 1.66555 0
M  V30 21 C 3.1351 -2.04282 0.532189 0
M  V30 22 O 2.4831 -2.23662 -0.467717 0
M  V30 23 C 2.6931 -1.6822 3.05782 0
M  V30 24 C 4.0411 -2.19373 3.63539 0
M  V30 25 O 5.0651 -1.78206 3.08417 0
M  V30 26 O 3.9241 -2.94883 4.60115 0
M  V30 27 H 1.0181 -0.475755 0.676451 0
M  V30 28 H 3.5641 -0.268593 1.67561 0
M  V30 29 H 2.3361 -0.945112 3.79715 0
M  V30 30 H 1.9591 -2.50609 3.08676 0
M  V30 31 N 2.9562 -1.48159 -0.537278 0
M  V30 32 C 4.2332 -1.46291 -1.29839 0
M  V30 33 C 4.6132 -0.170613 -2.10409 0
M  V30 34 O 3.9612 0.847746 -2.12192 0
M  V30 35 C 4.1712 -2.72055 -2.18603 0
M  V30 36 C 5.5192 -3.20087 -2.7898 0
M  V30 37 O 6.5432 -2.72921 -2.28894 0
M  V30 38 O 5.4022 -4.02138 -3.70064 0
M  V30 39 H 2.4962 -0.583906 -0.585647 0
M  V30 40 H 5.0422 -1.60384 -0.554534 0
M  V30 41 H 3.8142 -3.57628 -1.58801 0
M  V30 42 H 3.4372 -2.60646 -3.00249 0
M  V30 43 N 4.4343 0.785586 -1.36625 0
M  V30 44 C 5.8503 1.08419 -1.17122 0
M  V30 45 C 6.0503 2.015 0.00208491 0
M  V30 46 O 5.1063 2.43551 0.666278 0
M  V30 47 C 6.4193 1.69498 -2.48377 0
M  V30 48 C 7.9673 1.81821 -2.54775 0
M  V30 49 C 8.4423 2.46315 -3.86126 0
M  V30 50 N 9.9333 2.53779 -3.87492 0
M  V30 51 C 10.6683 3.045 -4.85868 0
M  V30 52 N 10.1643 3.55499 -5.94637 0
M  V30 53 N 11.9573 3.03247 -4.73284 0
M  V30 54 H 4.1083 0.167264 -2.1174 0
M  V30 55 H 6.3713 0.13682 -0.938075 0
M  V30 56 H 6.0773 1.08571 -3.34522 0
M  V30 57 H 5.9513 2.6896 -2.64462 0
M  V30 58 H 8.3383 2.41884 -1.69045 0
M  V30 59 H 8.4193 0.811532 -2.42586 0
M  V30 60 H 8.0633 1.86895 -4.72263 0
M  V30 61 H 7.9933 3.47561 -3.95612 0
M  V30 62 H 10.4843 2.17672 -3.08913 0
M  V30 63 H 10.7973 3.92562 -6.65669 0
M  V30 64 H 9.1423 3.5364 -5.98301 0
M  V30 65 H 12.3333 2.62696 -3.87438 0
M  V30 66 H 12.5063 3.42467 -5.50109 0
M  V30 67 N 5.9124 1.20967 1.01018 0
M  V30 68 C 6.8224 0.980157 2.13143 0
M  V30 69 C 7.8384 -0.0660665 1.73875 0
M  V30 70 O 9.0144 0.122821 2.01025 0
M  V30 71 C 6.0794 0.54216 3.42435 0
M  V30 72 C 5.1404 1.65999 3.95908 0
M  V30 73 C 4.3734 1.2428 5.19028 0
M  V30 74 O 4.5964 0.114196 5.70286 0
M  V30 75 O 3.5304 2.05271 5.65816 0
M  V30 76 H 7.3564 1.91913 2.35379 0
M  V30 77 H 4.9414 0.994099 1.11526 0
M  V30 78 H 6.8234 0.30744 4.20277 0
M  V30 79 H 5.4984 -0.36815 3.216 0
M  V30 80 H 4.4054 1.94906 3.19316 0
M  V30 81 H 5.7384 2.54753 4.21143 0
M  V30 82 N 7.3905 -1.2043 1.01659 0
M  V30 83 C 8.6675 -1.8548 0.621004 0
M  V30 84 C 9.0475 -1.9091 -0.900919 0
M  V30 85 O 8.3955 -1.41694 -1.79263 0
M  V30 86 C 8.6055 -3.25119 1.2688 0
M  V30 87 C 9.9535 -4.01403 1.38423 0
M  V30 88 O 10.9775 -3.34473 1.22501 0
M  V30 89 O 9.8365 -5.21265 1.64151 0
M  V30 90 H 6.9305 -0.798761 0.214266 0
M  V30 91 H 9.4765 -1.28019 1.11396 0
M  V30 92 H 8.2485 -3.15932 2.30873 0
M  V30 93 H 7.8715 -3.90212 0.762917 0
M  V30 94 N 8.8686 -0.792821 -1.36206 0
M  V30 95 C 9.7986 -0.207853 -2.32573 0
M  V30 96 C 10.7796 0.659055 -1.56813 0
M  V30 97 O 11.9646 0.592176 -1.84951 0
M  V30 98 C 9.0946 0.655449 -3.41059 0
M  V30 99 C 8.0486 -0.111842 -4.27854 0
M  V30 100 C 7.3746 0.872274 -5.27537 0
M  V30 101 C 8.6746 -1.30299 -5.05786 0
M  V30 102 H 10.3686 -1.01294 -2.81744 0
M  V30 103 H 7.9146 -0.48854 -1.3546 0
M  V30 104 H 9.8676 1.07464 -4.07467 0
M  V30 105 H 8.5916 1.49328 -2.90463 0
M  V30 106 H 7.2506 -0.512053 -3.63006 0
M  V30 107 H 6.8986 1.70523 -4.73214 0
M  V30 108 H 6.5986 0.363291 -5.86476 0
M  V30 109 H 8.1226 1.28996 -5.96818 0
M  V30 110 H 9.5366 -0.959379 -5.65216 0
M  V30 111 H 7.9336 -1.7455 -5.74154 0
M  V30 112 H 9.0036 -2.09663 -4.37229 0
M  V30 113 N 10.3467 1.47872 -0.545128 0
M  V30 114 C 11.5927 2.02793 -0.0166104 0
M  V30 115 C 11.9257 1.41987 1.32489 0
M  V30 116 O 11.2007 0.571045 1.85928 0
M  V30 117 C 11.4837 3.59989 0.0893294 0
M  V30 118 C 11.3367 4.3125 -1.27841 0
M  V30 119 C 12.6557 4.32606 0.808724 0
M  V30 120 H 9.7747 0.736962 -0.00751035 0
M  V30 121 H 12.4167 1.76433 -0.705085 0
M  V30 122 H 10.5667 3.82579 0.675681 0
M  V30 123 H 12.2387 4.20035 -1.90704 0
M  V30 124 H 10.4817 3.92076 -1.85632 0
M  V30 125 H 11.1527 5.39736 -1.15713 0
M  V30 126 H 13.6287 4.14936 0.310992 0
M  V30 127 H 12.5047 5.42251 0.851782 0
M  V30 128 H 12.7657 4.00963 1.86229 0
M  V30 129 N 11.8248 0.280983 1.55075 0
M  V30 130 C 13.0548 -0.336804 2.03836 0
M  V30 131 C 13.4628 -1.49577 1.15859 0
M  V30 132 O 12.8058 -1.82888 0.172503 0
M  V30 133 C 12.8678 -0.874616 3.48699 0
M  V30 134 C 12.5318 0.156478 4.56732 0
M  V30 135 C 13.5288 0.978032 5.10618 0
M  V30 136 C 11.2138 0.292409 5.01448 0
M  V30 137 C 13.2078 1.92165 6.07743 0
M  V30 138 C 10.8948 1.23949 5.98398 0
M  V30 139 C 11.8928 2.05261 6.51427 0
M  V30 140 O 11.5808 2.98367 7.4648 0
M  V30 141 H 11.3128 -0.0800885 0.671239 0
M  V30 142 H 13.8668 0.412589 2.01213 0
M  V30 143 H 12.0968 -1.67418 3.4858 0
M  V30 144 H 13.7858 -1.40612 3.80766 0
M  V30 145 H 14.5518 0.883782 4.7688 0
M  V30 146 H 10.4308 -0.330498 4.59814 0
M  V30 147 H 13.9748 2.55672 6.49059 0
M  V30 148 H 9.8718 1.33454 6.31554 0
M  V30 149 H 10.6398 2.93116 7.64215 0
M  V30 150 N 13.3029 -1.57598 0.00835791 0
M  V30 151 C 14.2349 -2.05811 -1.00868 0
M  V30 152 C 15.2479 -0.977579 -1.30182 0
M  V30 153 O 16.4369 -1.25421 -1.27011 0
M  V30 154 C 13.5369 -2.45016 -2.34137 0
M  V30 155 C 12.7099 -3.75903 -2.23643 0
M  V30 156 C 11.7689 -4.01884 -3.3967 0
M  V30 157 O 10.7949 -4.72433 -3.17483 0
M  V30 158 N 11.9969 -3.50432 -4.62793 0
M  V30 159 H 14.7619 -2.93684 -0.597458 0
M  V30 160 H 12.3229 -1.60909 -0.178852 0
M  V30 161 H 14.3149 -2.59506 -3.10546 0
M  V30 162 H 12.8849 -1.62618 -2.66972 0
M  V30 163 H 12.1049 -3.7141 -1.32091 0
M  V30 164 H 13.3929 -4.61695 -2.13812 0
M  V30 165 H 12.7909 -2.93317 -4.83716 0
M  V30 166 H 11.3479 -3.70236 -5.3644 0
M  V30 167 N 14.781 0.264519 -1.55364 0
M  V30 168 C 15.744 1.31046 -1.88042 0
M  V30 169 C 16.744 1.41943 -0.755569 0
M  V30 170 O 17.934 1.40947 -1.02369 0
M  V30 171 C 15.066 2.69067 -2.09323 0
M  V30 172 H 16.259 1.03297 -2.81549 0
M  V30 173 H 13.812 0.502989 -1.47986 0
M  V30 174 H 14.547 3.01982 -1.18226 0
M  V30 175 H 14.332 2.62542 -2.91229 0
M  V30 176 H 15.822 3.44623 -2.35848 0
M  V30 177 N 16.2591 1.48442 0.529413 0
M  V30 178 C 17.2061 1.63007 1.63394 0
M  V30 179 C 18.1761 0.47212 1.59249 0
M  V30 180 O 19.3611 0.695673 1.77666 0
M  V30 181 C 16.5011 1.6763 3.01653 0
M  V30 182 C 15.6141 2.94535 3.16027 0
M  V30 183 C 14.7491 2.90316 4.44849 0
M  V30 184 C 13.7881 4.11923 4.52754 0
M  V30 185 N 12.9251 4.05777 5.72965 0
M  V30 186 H 17.7651 2.5733 1.50285 0
M  V30 187 H 15.3021 1.27613 0.731656 0
M  V30 188 H 17.2601 1.68292 3.81751 0
M  V30 189 H 15.8901 0.76797 3.13532 0
M  V30 190 H 14.9421 3.03615 2.29177 0
M  V30 191 H 16.2541 3.84512 3.17729 0
M  V30 192 H 15.4081 2.89382 5.33238 0
M  V30 193 H 14.1471 1.98068 4.45668 0
M  V30 194 H 13.1521 4.13131 3.62771 0
M  V30 195 H 14.3771 5.0533 4.53672 0
M  V30 196 H 12.3231 3.16351 5.74681 0
M  V30 197 H 12.2401 4.8946 5.76164 0
M  V30 198 H 13.5081 4.08904 6.6364 0
M  V30 199 N 17.7372 -0.778329 1.37039 0
M  V30 200 C 18.6672 -1.90546 1.34962 0
M  V30 201 C 19.6482 -1.68681 0.219274 0
M  V30 202 O 20.8332 -1.89634 0.418624 0
M  V30 203 C 17.9632 -3.27734 1.14925 0
M  V30 204 C 16.9172 -3.64147 2.24902 0
M  V30 205 C 16.2432 -4.99806 1.89996 0
M  V30 206 C 17.5432 -3.71579 3.67051 0
M  V30 207 H 19.2372 -1.92541 2.29277 0
M  V30 208 H 16.7832 -0.924948 1.10366 0
M  V30 209 H 18.7362 -4.06215 1.12104 0
M  V30 210 H 17.4602 -3.26154 0.170631 0
M  V30 211 H 16.1192 -2.8797 2.26868 0
M  V30 212 H 15.7672 -4.94759 0.906796 0
M  V30 213 H 15.4672 -5.25139 2.63634 0
M  V30 214 H 16.9912 -5.80694 1.88749 0
M  V30 215 H 18.4052 -4.40227 3.67251 0
M  V30 216 H 16.8022 -4.08405 4.39688 0
M  V30 217 H 17.8722 -2.72404 4.01154 0
M  V30 218 N 19.2153 -1.21501 -1.00376 0
M  V30 219 C 20.1783 -0.976927 -2.07337 0
M  V30 220 C 21.1783 0.0525322 -1.60714 0
M  V30 221 O 22.3683 -0.184869 -1.73216 0
M  V30 222 C 19.5003 -0.473423 -3.37597 0
M  V30 223 H 20.6933 -1.92587 -2.29892 0
M  V30 224 H 18.2463 -1.03217 -1.17371 0
M  V30 225 H 18.9813 0.480379 -3.20722 0
M  V30 226 H 18.7663 -1.216 -3.72768 0
M  V30 227 H 20.2563 -0.32675 -4.1632 0
M  V30 228 N 20.6934 1.19889 -1.02296 0
M  V30 229 C 21.6034 2.26571 -0.608508 0
M  V30 230 C 22.6194 1.70299 0.356964 0
M  V30 231 O 23.7954 2.00235 0.216326 0
M  V30 232 C 20.8604 3.46677 0.0402814 0
M  V30 233 C 19.9214 4.18153 -0.97194 0
M  V30 234 C 19.1544 5.32525 -0.354016 0
M  V30 235 O 19.3774 5.64112 0.844604 0
M  V30 236 O 18.3114 5.92242 -1.07391 0
M  V30 237 H 22.1374 2.64251 -1.49684 0
M  V30 238 H 19.7224 1.26629 -0.792809 0
M  V30 239 H 21.6044 4.19475 0.402324 0
M  V30 240 H 20.2794 3.10858 0.902707 0
M  V30 241 H 19.1864 3.47499 -1.38546 0
M  V30 242 H 20.5194 4.57927 -1.80454 0
M  V30 243 N 22.1715 0.800033 1.35784 0
M  V30 244 C 23.1035 0.163596 2.28615 0
M  V30 245 C 24.1165 -0.633317 1.49976 0
M  V30 246 O 25.3055 -0.466754 1.72289 0
M  V30 247 C 22.4055 -0.790958 3.29541 0
M  V30 248 C 21.5785 -0.0418255 4.3738 0
M  V30 249 C 20.6375 -0.91389 5.18203 0
M  V30 250 O 19.6635 -0.367234 5.68014 0
M  V30 251 N 20.8655 -2.23682 5.35674 0
M  V30 252 H 23.6305 0.96105 2.83873 0
M  V30 253 H 21.1915 0.654894 1.48063 0
M  V30 254 H 23.1835 -1.37844 3.80501 0
M  V30 255 H 21.7535 -1.48925 2.74846 0
M  V30 256 H 20.9735 0.726813 3.87442 0
M  V30 257 H 22.2615 0.474719 5.06581 0
M  V30 258 H 21.6595 -2.70497 4.96838 0
M  V30 259 H 20.2165 -2.77369 5.89839 0
M  V30 260 N 23.6496 -1.47581 0.552962 0
M  V30 261 C 24.6126 -2.28439 -0.186605 0
M  V30 262 C 25.6126 -1.36706 -0.84665 0
M  V30 263 O 26.8026 -1.59378 -0.703164 0
M  V30 264 C 23.9346 -3.16264 -1.2724 0
M  V30 265 H 25.1276 -2.95294 0.523609 0
M  V30 266 H 22.6806 -1.532 0.309745 0
M  V30 267 H 23.4156 -2.54091 -2.01514 0
M  V30 268 H 23.2006 -3.83769 -0.803968 0
M  V30 269 H 24.6906 -3.77198 -1.79196 0
M  V30 270 N 25.1277 -0.289203 -1.54924 0
M  V30 271 C 26.0377 0.601863 -2.26748 0
M  V30 272 C 27.0537 1.15834 -1.2984 0
M  V30 273 O 28.2297 1.18564 -1.62802 0
M  V30 274 C 25.2947 1.76299 -2.98529 0
M  V30 275 C 24.3557 1.24178 -4.10948 0
M  V30 276 C 23.5887 2.34757 -4.79296 0
M  V30 277 O 23.8117 3.54411 -4.46933 0
M  V30 278 O 22.7457 2.02115 -5.66951 0
M  V30 279 H 26.5717 0.0195879 -3.03694 0
M  V30 280 H 24.1567 -0.0560868 -1.49295 0
M  V30 281 H 26.0387 2.43973 -3.43592 0
M  V30 282 H 24.7137 2.33209 -2.24488 0
M  V30 283 H 23.6207 0.531104 -3.70311 0
M  V30 284 H 24.9537 0.718252 -4.86931 0
M  V30 285 N 26.6058 1.57591 -0.0167156 0
M  V30 286 C 28.0218 1.55946 0.339557 0
M  V30 287 C 28.2218 1.02109 1.73713 0
M  V30 288 O 27.2778 0.662303 2.43659 0
M  V30 289 C 28.5908 3.00037 0.199499 0
M  V30 290 C 30.1388 3.11805 0.273193 0
M  V30 291 C 30.6138 4.57713 0.162068 0
M  V30 292 N 32.1048 4.6268 0.219444 0
M  V30 293 C 32.8398 5.73185 0.157054 0
M  V30 294 N 32.3358 6.92786 0.0442936 0
M  V30 295 N 34.1288 5.61707 0.21014 0
M  V30 296 H 26.2798 1.90921 -0.930758 0
M  V30 297 H 28.5428 0.877674 -0.358319 0
M  V30 298 H 28.2488 3.4333 -0.76273 0
M  V30 299 H 28.1228 3.64387 0.974786 0
M  V30 300 H 30.5098 2.68433 1.22587 0
M  V30 301 H 30.5908 2.50201 -0.532256 0
M  V30 302 H 30.2348 5.01763 -0.78714 0
M  V30 303 H 30.1648 5.17283 0.986222 0
M  V30 304 H 32.6558 3.76649 0.307246 0
M  V30 305 H 32.9688 7.728 0.00304069 0
M  V30 306 H 31.3138 6.94999 0.00968457 0
M  V30 307 H 34.5048 4.6716 0.296546 0
M  V30 308 H 34.6778 6.47807 0.158054 0
M  V30 309 N 28.0839 -0.256276 1.55502 0
M  V30 310 C 29.3139 -1.00196 1.80677 0
M  V30 311 C 29.7219 -1.79805 0.588797 0
M  V30 312 O 29.0649 -1.78055 -0.451883 0
M  V30 313 C 29.1269 -1.99515 2.99055 0
M  V30 314 C 28.7909 -1.38688 4.35448 0
M  V30 315 C 29.7879 -0.794079 5.138 0
M  V30 316 C 27.4729 -1.40906 4.82132 0
M  V30 317 C 29.4669 -0.231562 6.36979 0
M  V30 318 C 27.1539 -0.842684 6.05262 0
M  V30 319 C 28.1519 -0.254953 6.82524 0
M  V30 320 O 27.8399 0.3027 8.0333 0
M  V30 321 H 27.5719 -0.300919 0.60533 0
M  V30 322 H 30.1259 -0.287307 2.03381 0
M  V30 323 H 28.3559 -2.74785 2.72084 0
M  V30 324 H 30.0449 -2.60349 3.11405 0
M  V30 325 H 30.8109 -0.769519 4.78856 0
M  V30 326 H 26.6899 -1.85591 4.21992 0
M  V30 327 H 30.2339 0.227816 6.97228 0
M  V30 328 H 26.1309 -0.86454 6.39684 0
M  V30 329 H 26.8989 0.193662 8.18271 0
M  V30 330 N 29.562 -1.4872 -0.521534 0
M  V30 331 C 30.839 -1.4766 -1.2828 0
M  V30 332 C 31.219 -0.19292 -2.10217 0
M  V30 333 O 30.567 0.825193 -2.13079 0
M  V30 334 C 30.777 -2.74358 -2.15705 0
M  V30 335 C 32.125 -3.23028 -2.75569 0
M  V30 336 O 33.149 -2.75333 -2.25987 0
M  V30 337 O 32.008 -4.0604 -3.65778 0
M  V30 338 H 29.102 -0.590085 -0.579421 0
M  V30 339 H 31.648 -1.60963 -0.537492 0
M  V30 340 H 30.42 -3.59292 -1.54999 0
M  V30 341 H 30.043 -2.63816 -2.97467 0
M  V30 342 N 31.0401 0.771051 -1.3745 0
M  V30 343 C 31.9501 1.91538 -1.35464 0
M  V30 344 C 32.9661 1.72134 -0.254123 0
M  V30 345 O 34.1421 1.95358 -0.489626 0
M  V30 346 C 31.2071 3.26671 -1.16134 0
M  V30 347 C 30.2681 3.58723 -2.35831 0
M  V30 348 C 29.5011 4.87409 -2.17413 0
M  V30 349 O 29.7241 5.58506 -1.15876 0
M  V30 350 O 28.6581 5.18539 -3.05615 0
M  V30 351 H 32.4841 1.96165 -2.31847 0
M  V30 352 H 30.0691 0.9139 -1.18187 0
M  V30 353 H 31.9511 4.07499 -1.07345 0
M  V30 354 H 30.6261 3.22894 -0.228251 0
M  V30 355 H 29.5331 2.78127 -2.50192 0
M  V30 356 H 30.8661 3.67243 -3.27709 0
M  V30 357 N 32.5182 1.22032 0.997298 0
M  V30 358 C 33.4512 0.929735 2.08401 0
M  V30 359 C 34.4292 -0.125681 1.62114 0
M  V30 360 O 35.6132 0.00495409 1.88499 0
M  V30 361 C 32.7402 0.397488 3.3636 0
M  V30 362 C 31.7862 1.4369 4.01566 0
M  V30 363 S 32.6192 3.00874 4.42984 0
M  V30 364 C 33.7752 2.49276 5.74119 0
M  V30 365 H 34.0082 1.84998 2.32729 0
M  V30 366 H 31.5412 1.0509 1.13117 0
M  V30 367 H 33.4992 0.0969846 4.10385 0
M  V30 368 H 32.1602 -0.501571 3.10069 0
M  V30 369 H 31.3532 1.01427 4.93689 0
M  V30 370 H 30.9552 1.68588 3.33847 0
M  V30 371 H 33.2472 1.90242 6.50242 0
M  V30 372 H 34.1902 3.39872 6.21203 0
M  V30 373 H 34.5982 1.90714 5.31308 0
M  V30 374 N 33.9963 -1.19345 1.0293 0
M  V30 375 C 35.2423 -1.89318 0.727083 0
M  V30 376 C 35.5753 -1.79446 -0.742483 0
M  V30 377 O 34.8503 -1.1871 -1.54072 0
M  V30 378 C 35.1333 -3.40238 1.17942 0
M  V30 379 C 34.9863 -3.58979 2.71024 0
M  V30 380 C 36.3053 -4.33479 0.760548 0
M  V30 381 H 33.4243 -0.687475 0.265606 0
M  V30 382 H 36.0663 -1.40477 1.2793 0
M  V30 383 H 34.2163 -3.81964 0.709608 0
M  V30 384 H 35.8883 -3.26421 3.25955 0
M  V30 385 H 34.1313 -3.02018 3.11396 0
M  V30 386 H 34.8023 -4.64823 2.9773 0
M  V30 387 H 37.2783 -3.99469 1.16464 0
M  V30 388 H 36.1543 -5.37664 1.10493 0
M  V30 389 H 36.4153 -4.40813 -0.337063 0
M  V30 390 N 35.4744 -0.807222 -1.35358 0
M  V30 391 C 36.3844 -0.219594 -2.3357 0
M  V30 392 C 37.4004 0.637734 -1.61892 0
M  V30 393 O 38.5764 0.549336 -1.93763 0
M  V30 394 C 35.6414 0.62158 -3.41083 0
M  V30 395 C 34.7024 -0.256315 -4.28534 0
M  V30 396 C 33.9354 0.544807 -5.30912 0
M  V30 397 O 34.1584 1.77944 -5.41934 0
M  V30 398 O 33.0924 -0.0646478 -6.01865 0
M  V30 399 H 36.9184 -1.03208 -2.85625 0
M  V30 400 H 34.5034 -0.569025 -1.38139 0
M  V30 401 H 36.3854 1.10067 -4.06772 0
M  V30 402 H 35.0604 1.41165 -2.91297 0
M  V30 403 H 33.9674 -0.782559 -3.65823 0
M  V30 404 H 35.3004 -1.01034 -4.81719 0
M  V30 405 N 36.9525 1.47285 -0.560781 0
M  V30 406 C 38.1775 2.07359 -0.0410566 0
M  V30 407 C 38.6025 1.41017 1.24483 0
M  V30 408 O 37.9605 0.486368 1.74654 0
M  V30 409 C 38.0085 3.6035 0.134123 0
M  V30 410 O 37.1125 3.94681 1.19587 0
M  V30 411 H 36.4535 0.661887 -0.0529291 0
M  V30 412 H 38.9835 1.89252 -0.777482 0
M  V30 413 H 38.9935 4.0652 0.347207 0
M  V30 414 H 37.6685 4.08034 -0.805047 0
M  V30 415 H 36.2455 3.60251 0.962987 0
M  V30 416 N 38.4306 0.297415 1.54768 0
M  V30 417 C 39.3636 -0.622188 2.19554 0
M  V30 418 C 40.3416 -1.13558 1.16376 0
M  V30 419 O 41.5256 -1.20444 1.45002 0
M  V30 420 C 38.6526 -1.8509 2.83653 0
M  V30 421 C 37.6986 -1.47106 4.00328 0
M  V30 422 S 38.5316 -0.53006 5.3287 0
M  V30 423 C 39.6876 -1.76665 6.0045 0
M  V30 424 H 39.9206 -0.0717806 2.97213 0
M  V30 425 H 37.4536 0.0815678 1.54184 0
M  V30 426 H 39.4116 -2.55605 3.21211 0
M  V30 427 H 38.0726 -2.37247 2.05846 0
M  V30 428 H 37.2656 -2.38594 4.43947 0
M  V30 429 H 36.8676 -0.845885 3.64309 0
M  V30 430 H 39.1596 -2.7077 6.21039 0
M  V30 431 H 40.1026 -1.37308 6.9466 0
M  V30 432 H 40.5106 -1.94174 5.30054 0
M  V30 433 N 39.9087 -1.5758 0.0250728 0
M  V30 434 C 40.8557 -2.09973 -0.958129 0
M  V30 435 C 41.8257 -1.00085 -1.3256 0
M  V30 436 O 43.0107 -1.27481 -1.41962 0
M  V30 437 C 40.1507 -2.62812 -2.2366 0
M  V30 438 C 39.2637 -3.86693 -1.92594 0
M  V30 439 C 38.3987 -4.27941 -3.14707 0
M  V30 440 C 37.4377 -5.44591 -2.79442 0
M  V30 441 N 36.5747 -5.81014 -3.94167 0
M  V30 442 H 41.4147 -2.937 -0.504428 0
M  V30 443 H 38.9517 -1.45172 -0.237392 0
M  V30 444 H 40.9097 -2.91536 -2.98434 0
M  V30 445 H 39.5397 -1.81922 -2.66654 0
M  V30 446 H 38.5917 -3.64723 -1.0808 0
M  V30 447 H 39.9037 -4.71547 -1.62619 0
M  V30 448 H 39.0577 -4.58079 -3.97804 0
M  V30 449 H 37.7967 -3.41845 -3.4784 0
M  V30 450 H 36.8017 -5.1415 -1.94755 0
M  V30 451 H 38.0267 -6.32382 -2.47528 0
M  V30 452 H 35.9727 -4.97874 -4.2715 0
M  V30 453 H 35.8897 -6.60498 -3.67801 0
M  V30 454 H 37.1577 -6.15756 -4.7798 0
M  V30 455 N 41.3868 0.248026 -1.55636 0
M  V30 456 C 42.3338 1.30707 -1.90222 0
M  V30 457 C 43.3038 1.47881 -0.756332 0
M  V30 458 O 44.4888 1.61883 -1.00988 0
M  V30 459 C 41.6288 2.65769 -2.20138 0
M  V30 460 C 40.7418 2.56612 -3.47526 0
M  V30 461 C 39.8768 3.8402 -3.67017 0
M  V30 462 C 38.9158 3.69476 -4.8801 0
M  V30 463 N 38.0528 4.88774 -5.04029 0
M  V30 464 H 42.8928 1.00512 -2.80538 0
M  V30 465 H 40.4298 0.485055 -1.38873 0
M  V30 466 H 42.3878 3.44386 -2.35487 0
M  V30 467 H 41.0178 2.94115 -1.33027 0
M  V30 468 H 40.0698 1.69571 -3.40514 0
M  V30 469 H 41.3818 2.41774 -4.36287 0
M  V30 470 H 40.5358 4.7108 -3.8232 0
M  V30 471 H 39.2748 4.01754 -2.76487 0
M  V30 472 H 38.2798 2.80799 -4.72686 0
M  V30 473 H 39.5048 3.53238 -5.8 0
M  V30 474 H 37.4508 5.0687 -4.16435 0
M  V30 475 H 37.3678 4.76562 -5.86877 0
M  V30 476 H 38.6358 5.77335 -5.23741 0
M  V30 477 N 42.8649 1.48995 0.513639 0
M  V30 478 C 44.1109 1.58076 1.27042 0
M  V30 479 C 44.4439 0.261026 1.92438 0
M  V30 480 O 43.7189 -0.734393 1.80103 0
M  V30 481 C 44.0019 2.73091 2.34719 0
M  V30 482 C 43.8549 4.14821 1.73907 0
M  V30 483 C 45.1739 2.83796 3.36375 0
M  V30 484 H 42.2929 0.575391 0.460536 0
M  V30 485 H 44.9349 1.81232 0.570516 0
M  V30 486 H 43.0849 2.53479 2.94416 0
M  V30 487 H 44.7569 4.45917 1.18135 0
M  V30 488 H 42.9999 4.21058 1.0437 0
M  V30 489 H 43.6709 4.91147 2.51949 0
M  V30 490 H 46.1469 3.01611 2.86653 0
M  V30 491 H 45.0229 3.65971 4.09093 0
M  V30 492 H 45.2839 1.92624 3.9793 0
M  V30 493 N 44.343 -0.763751 1.37857 0
M  V30 494 C 45.306 -1.85889 1.34081 0
M  V30 495 C 46.306 -1.58949 0.243277 0
M  V30 496 O 47.496 -1.66882 0.499589 0
M  V30 497 C 44.628 -3.23176 1.08489 0
M  V30 498 H 45.821 -1.90648 2.31502 0
M  V30 499 H 43.374 -0.964367 1.23003 0
M  V30 500 H 44.109 -3.24091 0.116318 0
M  V30 501 H 43.894 -3.44124 1.8794 0
M  V30 502 H 45.384 -4.03254 1.08517 0
M  V30 503 N 45.8211 -1.22559 -0.990812 0
M  V30 504 C 47.0691 -1.04933 -1.72724 0
M  V30 505 C 47.3901 0.416158 -1.90508 0
M  V30 506 O 46.6601 1.29918 -1.46622 0
M  V30 507 H 45.2401 -0.385296 -0.639965 0
M  V30 508 H 47.9021 -1.54105 -1.19322 0
M  V30 509 H 46.9981 -1.52886 -2.72089 0
M  V30 510 N 47.2992 1.18797 -1.03562 0
M  V30 511 C 48.2322 2.2105 -0.56676 0
M  V30 512 C 49.2102 1.57704 0.395993 0
M  V30 513 O 50.3942 1.85908 0.311498 0
M  V30 514 C 47.5212 3.38259 0.172704 0
M  V30 515 C 46.5672 4.19987 -0.74252 0
M  V30 516 S 47.4002 4.87199 -2.22254 0
M  V30 517 C 48.5562 6.07813 -1.49379 0
M  V30 518 H 48.7892 2.60478 -1.43312 0
M  V30 519 H 46.3222 1.29151 -0.846133 0
M  V30 520 H 48.2802 4.06191 0.593191 0
M  V30 521 H 46.9412 2.97252 1.01488 0
M  V30 522 H 46.1342 5.03709 -0.171265 0
M  V30 523 H 45.7362 3.57408 -1.10163 0
M  V30 524 H 48.0282 6.72948 -0.784056 0
M  V30 525 H 48.9712 6.69435 -2.30786 0
M  V30 526 H 49.3792 5.55781 -0.988331 0
M  V30 527 N 48.7773 0.814389 1.34928 0
M  V30 528 C 50.0543 0.321363 1.92942 0
M  V30 529 C 50.4343 -1.19014 1.74353 0
M  V30 530 O 49.7823 -1.99328 1.11716 0
M  V30 531 C 49.9923 0.741323 3.41036 0
M  V30 532 C 51.3403 0.735266 4.18185 0
M  V30 533 O 52.3643 0.68336 3.49584 0
M  V30 534 O 51.2233 0.800703 5.40602 0
M  V30 535 H 48.3173 0.0858893 0.822528 0
M  V30 536 H 50.8633 0.898609 1.43955 0
M  V30 537 H 49.6353 1.78276 3.4833 0
M  V30 538 H 49.2583 0.139307 3.97356 0
M  V30 539 N 50.2554 -1.46986 0.568584 0
M  V30 540 C 51.5014 -2.02741 0.0488709 0
M  V30 541 C 51.8344 -1.44077 -1.30214 0
M  V30 542 O 51.1094 -0.600552 -1.84996 0
M  V30 543 C 51.3924 -3.60086 -0.032047 0
M  V30 544 C 51.2454 -4.29162 1.34686 0
M  V30 545 C 52.5644 -4.33838 -0.739798 0
M  V30 546 H 49.6834 -0.736749 0.0192338 0
M  V30 547 H 52.3254 -1.75289 0.733065 0
M  V30 548 H 50.4754 -3.83606 -0.61473 0
M  V30 549 H 52.1474 -4.16948 1.97362 0
M  V30 550 H 50.3904 -3.89073 1.91846 0
M  V30 551 H 51.0614 -5.37826 1.24285 0
M  V30 552 H 53.5374 -4.15378 -0.244939 0
M  V30 553 H 52.4134 -5.43537 -0.765406 0
M  V30 554 H 52.6744 -4.03875 -1.79827 0
M  V30 555 N 51.7335 -0.305618 -1.54608 0
M  V30 556 C 52.6435 0.57778 -2.27374 0
M  V30 557 C 53.6595 1.14451 -1.31061 0
M  V30 558 O 54.8355 1.16831 -1.6405 0
M  V30 559 C 51.9005 1.73123 -3.00382 0
M  V30 560 C 50.9615 1.19812 -4.12242 0
M  V30 561 C 50.1945 2.2966 -4.81759 0
M  V30 562 O 50.4175 3.49651 -4.50666 0
M  V30 563 O 49.3515 1.96091 -5.69062 0
M  V30 564 H 53.1775 -0.012624 -3.03697 0
M  V30 565 H 50.7625 -0.0719184 -1.49227 0
M  V30 566 H 52.6445 2.40315 -3.4616 0
M  V30 567 H 51.3195 2.30815 -2.26949 0
M  V30 568 H 50.2265 0.491798 -3.70853 0
M  V30 569 H 51.5595 0.666566 -4.87666 0
M  V30 570 N 53.2116 1.57565 -0.0334293 0
M  V30 571 C 54.1416 2.13511 0.945265 0
M  V30 572 C 55.1226 1.05231 1.33643 0
M  V30 573 O 56.3076 1.33084 1.41429 0
M  V30 574 C 53.4376 2.6657 2.22616 0
M  V30 575 C 52.3916 3.79676 1.97561 0
M  V30 576 C 51.7176 4.1918 3.31952 0
M  V30 577 C 53.0176 5.0557 1.31135 0
M  V30 578 H 54.7116 2.95538 0.479325 0
M  V30 579 H 52.2576 1.42166 0.229115 0
M  V30 580 H 54.2106 3.04344 2.91466 0
M  V30 581 H 52.9346 1.8171 2.71384 0
M  V30 582 H 51.5936 3.42347 1.31127 0
M  V30 583 H 51.2416 3.31296 3.78487 0
M  V30 584 H 50.9416 4.95402 3.15992 0
M  V30 585 H 52.4656 4.59541 4.02063 0
M  V30 586 H 53.8796 5.40903 1.89992 0
M  V30 587 H 52.2766 5.86818 1.25559 0
M  V30 588 H 53.3466 4.84062 0.284894 0
M  V30 589 N 54.6897 -0.239769 1.55765 0
M  V30 590 C 55.9177 -0.98417 1.81994 0
M  V30 591 C 56.3327 -1.7867 0.610124 0
M  V30 592 O 55.6897 -1.77571 -0.421271 0
M  V30 593 C 55.7407 -1.91635 3.06526 0
M  V30 594 O 55.4617 -1.14629 4.22838 0
M  V30 595 C 56.9627 -2.77616 3.45607 0
M  V30 596 H 54.1827 -0.28928 0.605441 0
M  V30 597 H 56.7267 -0.260499 2.02834 0
M  V30 598 H 54.8817 -2.5942 2.87715 0
M  V30 599 H 55.2957 -1.77745 4.93464 0
M  V30 600 H 56.7697 -3.38759 4.35828 0
M  V30 601 H 57.2467 -3.4909 2.6652 0
M  V30 602 H 57.8527 -2.15271 3.66795 0
M  V30 603 N 56.1678 -1.49265 -0.50573 0
M  V30 604 C 57.4138 -1.58748 -1.26202 0
M  V30 605 C 57.7468 -0.271227 -1.92297 0
M  V30 606 O 57.0218 0.724831 -1.80489 0
M  V30 607 C 57.3048 -2.74332 -2.33268 0
M  V30 608 C 57.1578 -4.15737 -1.71705 0
M  V30 609 C 58.4768 -2.85576 -3.34865 0
M  V30 610 H 55.5958 -0.577826 -0.457478 0
M  V30 611 H 58.2378 -1.81532 -0.560897 0
M  V30 612 H 56.3878 -2.55036 -2.93068 0
M  V30 613 H 58.0598 -4.46537 -1.15769 0
M  V30 614 H 56.3028 -4.21605 -1.02135 0
M  V30 615 H 56.9738 -4.92477 -2.49341 0
M  V30 616 H 59.4498 -3.03127 -2.8505 0
M  V30 617 H 58.3258 -3.68135 -4.07146 0
M  V30 618 H 58.5868 -1.94732 -3.96903 0
M  V30 619 N 57.6459 0.756429 -1.3826 0
M  V30 620 C 58.5559 1.9009 -1.37488 0
M  V30 621 C 59.5719 1.71855 -0.272366 0
M  V30 622 O 60.7479 1.94827 -0.510318 0
M  V30 623 C 57.8129 3.25421 -1.19592 0
M  V30 624 C 56.8739 3.56202 -2.39622 0
M  V30 625 C 56.1069 4.85075 -2.2257 0
M  V30 626 O 56.3299 5.57246 -1.21793 0
M  V30 627 O 55.2639 5.15269 -3.11098 0
M  V30 628 H 59.0899 1.93695 -2.33914 0
M  V30 629 H 56.6749 0.901313 -1.1915 0
M  V30 630 H 58.5569 4.06337 -1.11661 0
M  V30 631 H 57.2319 3.22634 -0.262486 0
M  V30 632 H 56.1389 2.75458 -2.53128 0
M  V30 633 H 57.4719 3.63747 -3.31586 0
M  V30 634 N 59.124 1.23083 0.984299 0
M  V30 635 C 60.034 1.02515 2.11016 0
M  V30 636 C 61.05 -0.0291702 1.73976 0
M  V30 637 O 62.226 0.165434 2.00719 0
M  V30 638 C 59.291 0.614673 3.41208 0
M  V30 639 C 58.352 1.74359 3.92297 0
M  V30 640 C 57.585 1.35261 5.16275 0
M  V30 641 O 57.808 0.235136 5.69915 0
M  V30 642 O 56.742 2.17227 5.61334 0
M  V30 643 H 60.568 1.96862 2.31255 0
M  V30 644 H 58.153 1.01753 1.09392 0
M  V30 645 H 60.035 0.396518 4.1953 0
M  V30 646 H 58.71 -0.299851 3.22308 0
M  V30 647 H 57.617 2.01635 3.1511 0
M  V30 648 H 58.95 2.63629 4.15645 0
M  V30 649 N 60.6021 -1.18246 1.0419 0
M  V30 650 C 62.0181 -1.40269 0.761366 0
M  V30 651 C 62.2181 -1.90777 -0.648578 0
M  V30 652 O 61.2741 -2.0929 -1.41258 0
M  V30 653 C 62.5871 -2.40237 1.8085 0
M  V30 654 C 64.1351 -2.53961 1.82955 0
M  V30 655 C 64.6101 -3.57194 2.86664 0
M  V30 656 N 66.1011 -3.64702 2.85563 0
M  V30 657 C 66.8361 -4.44309 3.6246 0
M  V30 658 N 66.3321 -5.27514 4.49111 0
M  V30 659 N 68.1251 -4.39084 3.50944 0
M  V30 660 H 60.2761 -0.837882 1.95175 0
M  V30 661 H 62.5391 -0.430608 0.84456 0
M  V30 662 H 62.2451 -2.10176 2.81991 0
M  V30 663 H 62.1191 -3.39601 1.64168 0
M  V30 664 H 64.5061 -2.83338 0.824855 0
M  V30 665 H 64.5871 -1.54706 2.03715 0
M  V30 666 H 64.2311 -3.28558 3.87314 0
M  V30 667 H 64.1611 -4.5613 2.6316 0
M  V30 668 H 66.6521 -3.05289 2.22727 0
M  V30 669 H 66.9651 -5.85411 5.04493 0
M  V30 670 H 65.3101 -5.2693 4.53178 0
M  V30 671 H 68.5011 -3.7313 2.82651 0
M  V30 672 H 68.6741 -5.00883 4.11121 0
M  V30 673 N 62.0802 -0.821533 -1.34494 0
M  V30 674 C 63.0282 -0.230702 -2.31453 0
M  V30 675 C 64.0222 0.627793 -1.57338 0
M  V30 676 O 65.2282 0.519288 -1.72347 0
M  V30 677 H 61.6032 -0.0558577 -0.749923 0
M  V30 678 H 63.5742 -1.06332 -2.78812 0
M  V30 679 C 62.3232 0.59391 -3.4259 0
M  V30 680 H 61.6462 -0.0573588 -3.99759 0
M  V30 681 H 63.0862 0.973446 -4.12674 0
M  V30 682 C 61.5452 1.76568 -2.86924 0
M  V30 683 O 62.0752 2.8638 -2.81691 0
M  V30 684 N 60.2812 1.58198 -2.43766 0
M  V30 685 H 59.8282 0.68872 -2.48222 0
M  V30 686 H 59.7862 2.36752 -2.06871 0
M  V30 687 N 63.5583 1.46682 -0.576371 0
M  V30 688 C 64.4883 2.33028 0.148397 0
M  V30 689 C 65.4693 1.44961 0.889956 0
M  V30 690 O 66.6543 1.73789 0.866662 0
M  V30 691 C 63.7843 3.27117 1.1667 0
M  V30 692 C 62.7383 4.24575 0.540386 0
M  V30 693 C 62.0643 5.08126 1.6647 0
M  V30 694 C 63.3643 5.19722 -0.518331 0
M  V30 695 H 65.0583 2.93875 -0.572509 0
M  V30 696 H 62.6043 1.41315 -0.276768 0
M  V30 697 H 64.5573 3.86374 1.68204 0
M  V30 698 H 63.2813 2.64364 1.9178 0
M  V30 699 H 61.9403 3.66571 0.0461769 0
M  V30 700 H 61.5883 4.41762 2.40531 0
M  V30 701 H 61.2883 5.74122 1.25131 0
M  V30 702 H 62.8123 5.70246 2.18293 0
M  V30 703 H 64.2263 5.73232 -0.0883058 0
M  V30 704 H 62.6233 5.94026 -0.851679 0
M  V30 705 H 63.6933 4.64037 -1.40703 0
M  V30 706 N 65.0364 0.313813 1.54444 0
M  V30 707 C 65.9664 -0.549454 2.26943 0
M  V30 708 C 66.9474 -1.12741 1.27372 0
M  V30 709 O 68.1324 -1.15436 1.56167 0
M  V30 710 C 65.2624 -1.71523 3.01989 0
M  V30 711 C 64.2164 -1.26703 4.08816 0
M  V30 712 C 63.5424 -2.51898 4.71647 0
M  V30 713 C 64.8424 -0.388962 5.2085 0
M  V30 714 H 66.5364 0.0552661 2.99349 0
M  V30 715 H 64.0824 0.0280207 1.43973 0
M  V30 716 H 66.0354 -2.32535 3.51433 0
M  V30 717 H 64.7594 -2.34639 2.27183 0
M  V30 718 H 63.4184 -0.679896 3.6024 0
M  V30 719 H 63.0664 -3.13356 3.93468 0
M  V30 720 H 62.7664 -2.22605 5.43802 0
M  V30 721 H 64.2904 -3.1369 5.23861 0
M  V30 722 H 65.7044 -0.905107 5.6611 0
M  V30 723 H 64.1014 -0.18924 5.99802 0
M  V30 724 H 65.1714 0.582699 4.81386 0
M  V30 725 N 66.5145 -1.57545 0.0417849 0
M  V30 726 C 67.7395 -1.97035 -0.647455 0
M  V30 727 C 68.1645 -0.918775 -1.64135 0
M  V30 728 O 67.5225 0.119006 -1.80909 0
M  V30 729 C 67.5705 -3.35609 -1.31905 0
M  V30 730 O 66.6745 -3.3287 -2.43457 0
M  V30 731 H 66.0155 -0.64211 -0.169086 0
M  V30 732 H 68.5455 -2.04318 0.107399 0
M  V30 733 H 68.5555 -3.72126 -1.67291 0
M  V30 734 H 67.2305 -4.11685 -0.590586 0
M  V30 735 H 65.8075 -3.08087 -2.10088 0
M  V30 736 N 67.9926 0.231505 -1.5589 0
M  V30 737 C 69.2386 0.95877 -1.78705 0
M  V30 738 C 69.5716 1.8438 -0.609725 0
M  V30 739 O 68.8466 1.90521 0.391426 0
M  V30 740 C 69.1296 1.8062 -3.11526 0
M  V30 741 C 68.9826 0.948328 -4.39689 0
M  V30 742 C 70.3016 2.78585 -3.40703 0
M  V30 743 H 67.4206 0.347129 -0.650131 0
M  V30 744 H 70.0626 0.228259 -1.88624 0
M  V30 745 H 68.2126 2.42902 -3.03201 0
M  V30 746 H 69.8846 0.343016 -4.60023 0
M  V30 747 H 68.1276 0.253314 -4.3306 0
M  V30 748 H 68.7986 1.57543 -5.29041 0
M  V30 749 H 71.2746 2.26439 -3.49091 0
M  V30 750 H 70.1506 3.34988 -4.34826 0
M  V30 751 H 70.4116 3.55825 -2.62375 0
M  V30 752 N 69.4707 1.49531 0.497807 0
M  V30 753 C 70.4337 1.65916 1.58128 0
M  V30 754 C 71.4337 0.530825 1.51786 0
M  V30 755 O 72.6237 0.797342 1.54881 0
M  V30 756 C 69.7557 1.65951 2.9778 0
M  V30 757 H 70.9487 2.62556 1.44929 0
M  V30 758 H 68.5017 1.38611 0.722275 0
M  V30 759 H 69.2367 0.709065 3.16453 0
M  V30 760 H 69.0217 2.47897 3.03792 0
M  V30 761 H 70.5117 1.80673 3.76493 0
M  V30 762 N 70.9488 -0.749086 1.3866 0
M  V30 763 C 72.1788 -1.53611 1.38157 0
M  V30 764 C 72.5868 -1.89177 -0.0293595 0
M  V30 765 O 71.9298 -1.53606 -1.00752 0
M  V30 766 C 71.9918 -2.86087 2.17702 0
M  V30 767 C 71.6558 -2.73034 3.66472 0
M  V30 768 C 72.6528 -2.42526 4.59866 0
M  V30 769 C 70.3378 -2.90345 4.09884 0
M  V30 770 C 72.3318 -2.29492 5.94653 0
M  V30 771 C 70.0188 -2.7693 5.4475 0
M  V30 772 C 71.0168 -2.46547 6.36949 0
M  V30 773 O 70.7048 -2.33199 7.69333 0
M  V30 774 H 70.4368 -0.481773 0.474205 0
M  V30 775 H 72.9908 -0.934465 1.82912 0
M  V30 776 H 71.2208 -3.48458 1.67672 0
M  V30 777 H 72.9098 -3.47625 2.09551 0
M  V30 778 H 73.6758 -2.28816 4.27631 0
M  V30 779 H 69.5548 -3.1299 3.38464 0
M  V30 780 H 73.0988 -2.05698 6.66584 0
M  V30 781 H 68.9958 -2.90215 5.76581 0
M  V30 782 H 69.7638 -2.48376 7.79905 0
M  V30 783 N 72.4269 -1.23603 -0.977757 0
M  V30 784 C 73.3739 -1.01954 -2.07061 0
M  V30 785 C 74.3439 0.0638697 -1.65977 0
M  V30 786 O 75.5289 -0.0887624 -1.90593 0
M  V30 787 C 72.6689 -0.619658 -3.39491 0
M  V30 788 C 71.7819 -1.77547 -3.93829 0
M  V30 789 C 70.9169 -1.32212 -5.14484 0
M  V30 790 C 69.9559 -2.44852 -5.60994 0
M  V30 791 N 69.0929 -2.00456 -6.72876 0
M  V30 792 H 73.9329 -1.95495 -2.24913 0
M  V30 793 H 71.4699 -0.973861 -1.10247 0
M  V30 794 H 73.4279 -0.368898 -4.15566 0
M  V30 795 H 72.0579 0.278752 -3.21594 0
M  V30 796 H 71.1099 -2.14016 -3.14486 0
M  V30 797 H 72.4219 -2.62219 -4.24314 0
M  V30 798 H 71.5759 -1.02965 -5.97899 0
M  V30 799 H 70.3149 -0.445808 -4.85658 0
M  V30 800 H 69.3199 -2.74871 -4.76157 0
M  V30 801 H 70.5449 -3.33024 -5.91837 0
M  V30 802 H 68.4909 -1.15208 -6.45804 0
M  V30 803 H 68.4079 -2.78687 -7.02759 0
M  V30 804 H 69.6759 -1.7432 -7.59758 0
M  V30 805 N 73.905 1.17692 -1.04816 0
M  V30 806 C 74.853 2.23632 -0.63966 0
M  V30 807 C 75.847 1.6601 0.337219 0
M  V30 808 O 77.053 1.78844 0.203693 0
M  V30 809 H 73.428 0.727949 -0.188665 0
M  V30 810 H 75.399 2.55387 -1.54337 0
M  V30 811 C 74.148 3.4769 -0.0264051 0
M  V30 812 H 73.471 3.92331 -0.769164 0
M  V30 813 H 74.911 4.23418 0.222098 0
M  V30 814 C 73.37 3.13807 1.22584 0
M  V30 815 O 73.9 3.28236 2.31569 0
M  V30 816 N 72.106 2.68065 1.12202 0
M  V30 817 H 71.653 2.56525 0.235133 0
M  V30 818 H 71.611 2.45767 1.96076 0
M  V30 819 N 75.3831 0.828654 1.34056 0
M  V30 820 C 76.6291 0.42008 1.98402 0
M  V30 821 C 76.9621 -1.01564 1.65525 0
M  V30 822 O 76.2371 -1.70834 0.929831 0
M  V30 823 C 76.5201 0.62927 3.54559 0
M  V30 824 C 76.3731 2.11152 3.97159 0
M  V30 825 C 77.6921 0.0688756 4.40046 0
M  V30 826 H 74.8111 0.154104 0.720709 0
M  V30 827 H 77.4531 1.04228 1.5886 0
M  V30 828 H 75.6031 0.0996418 3.88372 0
M  V30 829 H 77.2751 2.70522 3.73651 0
M  V30 830 H 75.5181 2.59985 3.47261 0
M  V30 831 H 76.1891 2.20868 5.05887 0
M  V30 832 H 78.6651 0.521458 4.1282 0
M  V30 833 H 77.5411 0.245006 5.48353 0
M  V30 834 H 77.8021 -1.0266 4.30015 0
M  V30 835 N 76.8612 -1.46375 0.584142 0
M  V30 836 C 78.1102 -2.01585 0.0679741 0
M  V30 837 C 78.4232 -1.46109 -1.30045 0
M  V30 838 O 79.6292 -1.93148 -1.90804 0
M  V30 839 C 78.0852 -3.5983 0.0709207 0
M  V30 840 C 77.6932 -4.24303 1.43775 0
M  V30 841 C 79.4372 -4.22693 -0.391228 0
M  V30 842 C 77.3442 -5.74631 1.39834 0
M  V30 843 H 76.2742 -0.753689 0.0216421 0
M  V30 844 H 78.9252 -1.68093 0.736001 0
M  V30 845 H 77.3072 -3.90405 -0.663299 0
M  V30 846 H 78.4812 -4.05335 2.19181 0
M  V30 847 H 76.7962 -3.73539 1.84004 0
M  V30 848 H 79.3932 -5.3289 -0.439524 0
M  V30 849 H 79.7362 -3.91728 -1.40906 0
M  V30 850 H 80.2692 -3.96749 0.288974 0
M  V30 851 H 77.0082 -6.10258 2.39303 0
M  V30 852 H 76.5282 -5.95858 0.686505 0
M  V30 853 H 78.2072 -6.37375 1.11187 0
M  V30 854 N 78.3393 -0.321999 -1.54275 0
M  V30 855 C 79.5873 0.280489 -2.00144 0
M  V30 856 C 79.9083 1.52777 -1.21178 0
M  V30 857 O 79.1783 1.9338 -0.313187 0
M  V30 858 H 77.7583 0.106632 -0.73935 0
M  V30 859 H 80.4203 -0.438184 -1.8991 0
M  V30 860 H 79.5163 0.537972 -3.07428 0
M  V30 861 N 79.8174 1.5752 -0.0501392 0
M  V30 862 C 80.7804 2.1037 0.909786 0
M  V30 863 C 81.7804 1.02308 1.24056 0
M  V30 864 O 82.9704 1.28385 1.17741 0
M  V30 865 C 80.1024 2.58708 2.21998 0
M  V30 866 H 81.2954 2.96479 0.451665 0
M  V30 867 H 78.8484 1.55038 0.198248 0
M  V30 868 H 79.5834 1.75989 2.72394 0
M  V30 869 H 79.3684 3.37675 1.99295 0
M  V30 870 H 80.8584 2.99747 2.9076 0
M  V30 871 N 81.2955 -0.223234 1.56011 0
M  V30 872 C 82.7115 -0.572856 1.48965 0
M  V30 873 C 82.9115 -1.87225 0.74492 0
M  V30 874 O 81.9675 -2.50899 0.283896 0
M  V30 875 C 83.2805 -0.653646 2.9351 0
M  V30 876 C 84.8285 -0.744386 3.0402 0
M  V30 877 C 85.3035 -0.856535 4.49919 0
M  V30 878 N 86.7945 -0.9208 4.53955 0
M  V30 879 C 87.5295 -1.02726 5.64123 0
M  V30 880 N 87.0255 -1.09777 6.84047 0
M  V30 881 N 88.8185 -1.06226 5.51971 0
M  V30 882 H 80.9695 0.629462 2.02858 0
M  V30 883 H 83.2325 0.220621 0.921971 0
M  V30 884 H 82.9385 0.231518 3.50937 0
M  V30 885 H 82.8125 -1.51781 3.45315 0
M  V30 886 H 85.1995 -1.61999 2.46658 0
M  V30 887 H 85.2805 0.14541 2.55386 0
M  V30 888 H 84.9245 0.0146069 5.07898 0
M  V30 889 H 84.8545 -1.76172 4.96257 0
M  V30 890 H 87.3455 -0.876694 3.6759 0
M  V30 891 H 87.6585 -1.17872 7.63758 0
M  V30 892 H 86.0035 -1.06693 6.86762 0
M  V30 893 H 89.1945 -1.00382 4.5721 0
M  V30 894 H 89.3675 -1.14177 6.37862 0
M  V30 895 N 82.7736 -1.49793 -0.48987 0
M  V30 896 C 84.1896 -1.36803 -0.822022 0
M  V30 897 C 84.3896 -0.409652 -1.97292 0
M  V30 898 O 83.4456 0.154614 -2.52026 0
M  V30 899 C 84.7586 -2.77768 -1.15175 0
M  V30 900 C 86.3066 -2.86549 -1.25931 0
M  V30 901 C 86.7816 -4.28306 -1.62228 0
M  V30 902 N 88.2726 -4.31169 -1.69256 0
M  V30 903 C 89.0076 -5.37832 -1.98807 0
M  V30 904 N 88.5036 -6.54726 -2.26507 0
M  V30 905 N 90.2966 -5.25258 -2.00152 0
M  V30 906 H 82.4476 -2.10691 0.268881 0
M  V30 907 H 84.7106 -0.946241 0.057728 0
M  V30 908 H 84.4166 -3.49648 -0.379335 0
M  V30 909 H 84.2906 -3.13836 -2.09253 0
M  V30 910 H 86.6776 -2.14899 -2.02243 0
M  V30 911 H 86.7586 -2.54049 -0.298776 0
M  V30 912 H 86.4026 -5.00486 -0.864622 0
M  V30 913 H 86.3326 -4.58279 -2.594 0
M  V30 914 H 88.8236 -3.4687 -1.49965 0
M  V30 915 H 89.1366 -7.31833 -2.48276 0
M  V30 916 H 87.4816 -6.57933 -2.23939 0
M  V30 917 H 90.6726 -4.32938 -1.77996 0
M  V30 918 H 90.8456 -6.08476 -2.22848 0
M  V30 919 N 84.2517 0.741722 -1.39055 0
M  V30 920 C 85.2147 1.83733 -1.37021 0
M  V30 921 C 86.2147 1.58542 -0.268534 0
M  V30 922 O 87.4047 1.66067 -0.526076 0
M  V30 923 C 84.5367 3.2141 -1.13617 0
M  V30 924 H 85.7297 1.86941 -2.34506 0
M  V30 925 H 83.2827 0.944676 -1.24521 0
M  V30 926 H 84.0177 3.23865 -0.167863 0
M  V30 927 H 83.8027 3.4109 -1.93391 0
M  V30 928 H 85.2927 4.01477 -1.14918 0
M  V30 929 N 85.7298 1.2412 0.971189 0
M  V30 930 C 86.9548 1.10667 1.75407 0
M  V30 931 C 87.3798 -0.337048 1.85056 0
M  V30 932 O 86.7378 -1.24396 1.31892 0
M  V30 933 C 86.7858 1.74726 3.15441 0
M  V30 934 O 85.8898 1.01566 3.99697 0
M  V30 935 H 85.2308 0.387341 0.539317 0
M  V30 936 H 87.7608 1.64358 1.2185 0
M  V30 937 H 87.7708 1.80341 3.6598 0
M  V30 938 H 86.4458 2.79773 3.07734 0
M  V30 939 H 85.0228 1.03713 3.58187 0
M  V30 940 N 87.2079 -1.17134 1.05439 0
M  V30 941 C 88.4539 -1.87979 0.776872 0
M  V30 942 C 88.8089 -1.7965 -0.688751 0
M  V30 943 O 88.1019 -1.19535 -1.4974 0
M  V30 944 C 88.2959 -3.36833 1.19491 0
M  V30 945 C 88.1249 -3.59653 2.69963 0
M  V30 946 C 86.8949 -3.76234 3.37307 0
M  V30 947 C 89.0929 -3.59091 3.68182 0
M  V30 948 N 87.0749 -3.86922 4.76618 0
M  V30 949 C 88.4459 -3.75659 4.93235 0
M  V30 950 C 90.5009 -3.42255 3.61616 0
M  V30 951 C 89.2039 -3.77133 6.12506 0
M  V30 952 C 91.2299 -3.45018 4.8033 0
M  V30 953 C 90.5919 -3.62096 6.04207 0
M  V30 954 H 86.6909 -0.705876 0.336546 0
M  V30 955 H 89.2749 -1.40602 1.34682 0
M  V30 956 H 87.4459 -3.82873 0.652884 0
M  V30 957 H 89.1779 -3.95305 0.866966 0
M  V30 958 H 85.9329 -3.76193 2.87708 0
M  V30 959 H 86.3569 -3.96055 5.49062 0
M  V30 960 H 90.9989 -3.27986 2.66805 0
M  V30 961 H 88.7169 -3.90186 7.07659 0
M  V30 962 H 92.3029 -3.33246 4.76905 0
M  V30 963 H 91.1829 -3.64142 6.94529 0
M  V30 964 N 88.686 -0.835752 -1.33615 0
M  V30 965 C 90.102 -0.523139 -1.50783 0
M  V30 966 C 90.302 0.950171 -1.77691 0
M  V30 967 O 89.358 1.73411 -1.83534 0
M  V30 968 C 90.671 -1.39378 -2.66448 0
M  V30 969 C 92.219 -1.39223 -2.80332 0
M  V30 970 C 92.694 -2.24765 -3.99055 0
M  V30 971 N 94.185 -2.22458 -4.06284 0
M  V30 972 C 94.92 -2.85386 -4.97336 0
M  V30 973 N 94.416 -3.57354 -5.93523 0
M  V30 974 N 96.209 -2.74872 -4.90308 0
M  V30 975 H 88.36 -1.78952 -1.14411 0
M  V30 976 H 90.623 -0.763297 -0.562212 0
M  V30 977 H 90.329 -2.44061 -2.53234 0
M  V30 978 H 90.203 -1.0676 -3.61776 0
M  V30 979 H 92.59 -0.353136 -2.92979 0
M  V30 980 H 92.671 -1.75846 -1.85773 0
M  V30 981 H 92.315 -3.28732 -3.87167 0
M  V30 982 H 92.245 -1.85485 -4.92852 0
M  V30 983 H 94.736 -1.70119 -3.37443 0
M  V30 984 H 95.049 -4.02584 -6.59656 0
M  V30 985 H 93.394 -3.61461 -5.93608 0
M  V30 986 H 96.585 -2.18213 -4.14126 0
M  V30 987 H 96.758 -3.24199 -5.61069 0
M  V30 988 N 90.1641 1.46063 -0.591896 0
M  V30 989 C 91.4131 2.01547 -0.0786637 0
M  V30 990 C 91.7261 1.46796 1.29268 0
M  V30 991 O 92.9321 1.94157 1.89777 0
M  V30 992 C 91.3881 3.59787 -0.0900024 0
M  V30 993 C 90.9961 4.23534 -1.46023 0
M  V30 994 C 92.7401 4.22895 0.368806 0
M  V30 995 C 90.6471 5.73881 -1.4288 0
M  V30 996 H 89.5771 0.753564 -0.0256388 0
M  V30 997 H 92.2281 1.677 -0.744905 0
M  V30 998 H 90.6101 3.90752 0.642586 0
M  V30 999 H 91.7841 4.04167 -2.21328 0
M  V30 1000 H 90.0991 3.72558 -1.85982 0
M  V30 1001 H 92.6961 5.33116 0.411258 0
M  V30 1002 H 93.0391 3.9247 1.38827 0
M  V30 1003 H 93.5721 3.9659 -0.31001 0
M  V30 1004 H 90.3111 6.0898 -2.42536 0
M  V30 1005 H 89.8311 5.95486 -0.718095 0
M  V30 1006 H 91.5101 6.36776 -1.14565 0
M  V30 1007 N 91.6422 0.330177 1.54103 0
M  V30 1008 C 92.8912 -0.271336 1.99867 0
M  V30 1009 C 93.2042 -1.52723 1.22209 0
M  V30 1010 O 94.4102 -2.20515 1.58383 0
M  V30 1011 C 92.8662 -0.534032 3.55916 0
M  V30 1012 C 92.4742 0.705193 4.42415 0
M  V30 1013 C 94.2182 -1.09514 4.1013 0
M  V30 1014 C 92.1252 0.414035 5.89949 0
M  V30 1015 H 91.0552 -0.105166 0.74663 0
M  V30 1016 H 93.7062 0.443429 1.78062 0
M  V30 1017 H 92.0882 -1.30915 3.73734 0
M  V30 1018 H 93.2622 1.4804 4.36372 0
M  V30 1019 H 91.5772 1.18698 3.99124 0
M  V30 1020 H 94.1742 -1.3277 5.17954 0
M  V30 1021 H 94.5172 -2.04656 3.62521 0
M  V30 1022 H 95.0502 -0.381038 3.95971 0
M  V30 1023 H 91.7892 1.33481 6.41766 0
M  V30 1024 H 91.3092 -0.323336 5.98928 0
M  V30 1025 H 92.9882 0.0263105 6.46995 0
M  V30 1026 N 93.1203 -1.57491 0.0584922 0
M  V30 1027 C 94.3453 -1.97711 -0.62652 0
M  V30 1028 C 94.7703 -0.936132 -1.63151 0
M  V30 1029 O 94.1283 0.099811 -1.81025 0
M  V30 1030 C 94.1763 -3.36989 -1.28338 0
M  V30 1031 O 93.2803 -3.35433 -2.39913 0
M  V30 1032 H 92.6213 -0.643868 -0.162266 0
M  V30 1033 H 95.1513 -2.04193 0.129064 0
M  V30 1034 H 95.1613 -3.73879 -1.63335 0
M  V30 1035 H 93.8363 -4.12289 -0.546889 0
M  V30 1036 H 92.4133 -3.10298 -2.06809 0
M  V30 1037 N 94.5984 0.214957 -1.56127 0
M  V30 1038 C 95.8234 0.95924 -1.83884 0
M  V30 1039 C 96.2484 1.7689 -0.639644 0
M  V30 1040 O 95.6064 1.76566 0.411601 0
M  V30 1041 C 95.6544 1.84723 -3.09693 0
M  V30 1042 O 94.7584 2.94346 -2.8885 0
M  V30 1043 H 94.0994 0.27125 -0.606069 0
M  V30 1044 H 96.6294 0.226276 -2.03345 0
M  V30 1045 H 96.6394 2.25576 -3.39969 0
M  V30 1046 H 95.3144 1.25218 -3.96602 0
M  V30 1047 H 93.8914 2.57391 -2.69823 0
M  V30 1048 N 96.0765 1.50051 0.48192 0
M  V30 1049 C 97.3255 1.59741 1.23149 0
M  V30 1050 C 97.6385 0.298163 1.93314 0
M  V30 1051 O 98.8445 0.273835 2.70116 0
M  V30 1052 C 97.3005 2.81926 2.23708 0
M  V30 1053 C 96.9085 4.18685 1.59396 0
M  V30 1054 C 98.6525 3.00956 2.99375 0
M  V30 1055 C 96.5595 5.3207 2.58178 0
M  V30 1056 H 95.4895 0.594838 0.46334 0
M  V30 1057 H 98.1405 1.76467 0.503169 0
M  V30 1058 H 96.5225 2.58736 2.99786 0
M  V30 1059 H 97.6965 4.52088 0.891811 0
M  V30 1060 H 96.0115 4.05171 0.960503 0
M  V30 1061 H 98.6085 3.82836 3.73283 0
M  V30 1062 H 98.9515 2.12258 3.58123 0
M  V30 1063 H 99.4845 3.24277 2.30411 0
M  V30 1064 H 96.2235 6.22888 2.04184 0
M  V30 1065 H 95.7435 5.03098 3.26577 0
M  V30 1066 H 97.4225 5.62196 3.20225 0
M  V30 1067 N 97.5546 -0.734337 1.39446 0
M  V30 1068 C 98.4646 -1.87879 1.40495 0
M  V30 1069 C 99.4806 -1.714 0.299672 0
M  V30 1070 O 100.657 -1.93991 0.541249 0
M  V30 1071 C 97.7216 -3.23477 1.24754 0
M  V30 1072 C 96.7826 -3.52344 2.45259 0
M  V30 1073 C 96.0156 -4.81473 2.30259 0
M  V30 1074 O 96.2386 -5.55237 1.30643 0
M  V30 1075 O 95.1726 -5.10254 3.19256 0
M  V30 1076 H 98.9986 -1.89949 2.36966 0
M  V30 1077 H 96.5836 -0.882243 1.20569 0
M  V30 1078 H 98.4656 -4.04509 1.18111 0
M  V30 1079 H 97.1406 -3.22176 0.313781 0
M  V30 1080 H 96.0476 -2.71396 2.57478 0
M  V30 1081 H 97.3806 -3.58426 3.37331 0
M  V30 1082 N 99.0327 -1.24633 -0.964593 0
M  V30 1083 C 99.9647 -0.999302 -2.06268 0
M  V30 1084 C 100.978 0.0323226 -1.62768 0
M  V30 1085 O 102.167 -0.205079 -1.77318 0
M  V30 1086 C 99.2667 -0.486816 -3.35385 0
M  V30 1087 C 98.4397 -1.5823 -4.07777 0
M  V30 1088 C 97.4987 -1.07191 -5.15166 0
M  V30 1089 O 96.5247 -1.76426 -5.41168 0
M  V30 1090 N 97.7267 0.0920373 -5.80427 0
M  V30 1091 H 100.492 -1.94477 -2.28033 0
M  V30 1092 H 98.0527 -1.15704 -1.13244 0
M  V30 1093 H 100.045 -0.130066 -4.04491 0
M  V30 1094 H 98.6147 0.364459 -3.10468 0
M  V30 1095 H 97.8347 -2.11109 -3.32906 0
M  V30 1096 H 99.1227 -2.31854 -4.52903 0
M  V30 1097 H 98.5207 0.670784 -5.61709 0
M  V30 1098 H 97.0777 0.389905 -6.50633 0
M  V30 1099 N 100.511 1.16574 -1.06058 0
M  V30 1100 C 101.458 2.20883 -0.669263 0
M  V30 1101 C 102.428 1.62729 0.332918 0
M  V30 1102 O 103.613 1.895 0.222346 0
M  V30 1103 C 100.753 3.45049 -0.0593572 0
M  V30 1104 C 99.8658 4.17458 -1.11143 0
M  V30 1105 C 99.0008 5.29135 -0.467916 0
M  V30 1106 C 98.0398 5.93343 -1.50369 0
M  V30 1107 N 97.1768 6.96516 -0.883706 0
M  V30 1108 H 102.017 2.53709 -1.5632 0
M  V30 1109 H 99.5538 1.24616 -0.781625 0
M  V30 1110 H 101.512 4.16033 0.311771 0
M  V30 1111 H 100.142 3.12781 0.797992 0
M  V30 1112 H 99.1938 3.45101 -1.60029 0
M  V30 1113 H 100.506 4.61307 -1.89731 0
M  V30 1114 H 99.6598 6.06684 -0.0436871 0
M  V30 1115 H 98.3988 4.86443 0.349864 0
M  V30 1116 H 97.4038 5.14517 -1.93784 0
M  V30 1117 H 98.6288 6.38114 -2.32352 0
M  V30 1118 H 96.5748 6.55943 -0.086595 0
M  V30 1119 H 96.4918 7.38723 -1.607 0
M  V30 1120 H 97.7598 7.77993 -0.484543 0
M  V30 1121 N 101.989 0.842826 1.3317 0
M  V30 1122 C 102.899 0.281444 2.32906 0
M  V30 1123 C 103.915 -0.594587 1.63526 0
M  V30 1124 O 105.091 -0.49777 1.95152 0
M  V30 1125 C 102.156 -0.530929 3.42611 0
M  V30 1126 C 101.217 0.369843 4.27704 0
M  V30 1127 C 100.45 -0.403853 5.3217 0
M  V30 1128 O 100.673 -1.63513 5.46461 0
M  V30 1129 O 99.6069 0.224199 6.01482 0
M  V30 1130 H 103.433 1.10744 2.82789 0
M  V30 1131 H 101.018 0.60545 1.36582 0
M  V30 1132 H 102.9 -0.992437 4.09547 0
M  V30 1133 H 101.575 -1.33392 2.94938 0
M  V30 1134 H 100.482 0.879275 3.6362 0
M  V30 1135 H 101.815 1.13771 4.78871 0
M  V30 1136 N 103.467 -1.45747 0.599634 0
M  V30 1137 C 104.377 -2.34262 -0.125888 0
M  V30 1138 C 105.393 -1.50768 -0.868625 0
M  V30 1139 O 106.569 -1.83592 -0.828003 0
M  V30 1140 C 103.634 -3.28252 -1.11587 0
M  V30 1141 C 102.695 -4.27651 -0.375956 0
M  V30 1142 C 101.928 -5.1715 -1.31877 0
M  V30 1143 O 102.151 -5.09916 -2.55621 0
M  V30 1144 O 101.085 -5.96286 -0.820157 0
M  V30 1145 H 104.911 -2.97688 0.601315 0
M  V30 1146 H 102.496 -1.44999 0.359934 0
M  V30 1147 H 104.378 -3.86191 -1.68626 0
M  V30 1148 H 103.053 -2.67401 -1.82424 0
M  V30 1149 H 101.96 -3.7335 0.236698 0
M  V30 1150 H 103.293 -4.91334 0.29177 0
M  V30 1151 N 104.945 -0.338344 -1.53925 0
M  V30 1152 C 105.893 0.536231 -2.26335 0
M  V30 1153 C 106.887 1.1063 -1.28286 0
M  V30 1154 O 108.093 1.05264 -1.46012 0
M  V30 1155 H 104.468 0.191602 -0.727181 0
M  V30 1156 H 106.439 -0.0965747 -2.98244 0
M  V30 1157 C 105.188 1.67803 -3.04528 0
M  V30 1158 H 104.511 1.24864 -3.79801 0
M  V30 1159 H 105.951 2.26526 -3.58416 0
M  V30 1160 C 104.41 2.60439 -2.13712 0
M  V30 1161 O 104.94 3.6255 -1.72975 0
M  V30 1162 N 103.146 2.29006 -1.78898 0
M  V30 1163 H 102.693 1.46011 -2.12223 0
M  V30 1164 H 102.651 2.91248 -1.18416 0
M  V30 1165 N 106.423 1.57458 -0.0668435 0
M  V30 1166 C 107.37 2.12439 0.902122 0
M  V30 1167 C 108.34 1.03565 1.2986 0
M  V30 1168 O 109.525 1.312 1.38532 0
M  V30 1169 C 106.665 2.6865 2.16614 0
M  V30 1170 C 105.778 3.91663 1.82274 0
M  V30 1171 C 104.913 4.36134 3.0325 0
M  V30 1172 C 103.952 5.51808 2.64904 0
M  V30 1173 N 103.089 5.9126 3.78624 0
M  V30 1174 H 107.929 2.94934 0.426382 0
M  V30 1175 H 105.466 1.4575 0.198819 0
M  V30 1176 H 107.424 2.99346 2.90599 0
M  V30 1177 H 106.054 1.88928 2.61737 0
M  V30 1178 H 105.106 3.6746 0.983719 0
M  V30 1179 H 106.418 4.75693 1.50059 0
M  V30 1180 H 105.572 4.68465 3.85519 0
M  V30 1181 H 104.311 3.50948 3.38655 0
M  V30 1182 H 103.316 5.19133 1.81055 0
M  V30 1183 H 104.541 6.38722 2.30675 0
M  V30 1184 H 102.487 5.09024 4.138 0
M  V30 1185 H 102.404 6.70018 3.5016 0
M  V30 1186 H 103.672 6.28212 4.61486 0
M  V30 1187 N 107.901 -0.206675 1.56239 0
M  V30 1188 C 109.149 -0.927007 1.79586 0
M  V30 1189 C 109.47 -1.8427 0.637929 0
M  V30 1190 O 108.74 -1.92849 -0.344398 0
M  V30 1191 H 107.32 -0.345292 0.662407 0
M  V30 1192 H 109.982 -0.21496 1.93711 0
M  V30 1193 H 109.078 -1.52501 2.72305 0
M  V30 1194 N 109.379 -1.50304 -0.473955 0
M  V30 1195 C 110.627 -1.60832 -1.22382 0
M  V30 1196 C 110.948 -0.30939 -1.9253 0
M  V30 1197 O 110.218 0.67296 -1.83978 0
M  V30 1198 H 108.798 -0.592652 -0.454723 0
M  V30 1199 H 111.46 -1.87068 -0.546968 0
M  V30 1200 H 110.556 -2.41803 -1.97327 0
M  V30 1201 N 110.857 0.726932 -1.39834 0
M  V30 1202 C 111.767 1.87131 -1.41489 0
M  V30 1203 C 112.783 1.71239 -0.308757 0
M  V30 1204 O 113.959 1.93701 -0.551529 0
M  V30 1205 C 111.024 3.22811 -1.26468 0
M  V30 1206 C 110.085 3.51039 -2.47124 0
M  V30 1207 C 109.318 4.80245 -2.3281 0
M  V30 1208 O 109.541 5.54537 -1.33585 0
M  V30 1209 O 108.475 5.08554 -3.21957 0
M  V30 1210 H 112.301 1.8869 -2.3797 0
M  V30 1211 H 109.886 0.875837 -1.21035 0
M  V30 1212 H 111.768 4.03877 -1.20255 0
M  V30 1213 H 110.443 3.22005 -0.330862 0
M  V30 1214 H 109.35 2.70027 -2.58914 0
M  V30 1215 H 110.683 3.56632 -3.39227 0
M  V30 1216 N 112.336 1.25143 0.95797 0
M  V30 1217 C 113.613 1.00472 1.67823 0
M  V30 1218 C 113.993 -0.470056 2.058 0
M  V30 1219 O 113.341 -1.44663 1.76875 0
M  V30 1220 C 113.551 1.9372 2.90299 0
M  V30 1221 C 114.899 2.21371 3.62326 0
M  V30 1222 O 115.923 1.91451 3.00375 0
M  V30 1223 O 114.782 2.72231 4.7387 0
M  V30 1224 H 111.876 0.380752 0.734137 0
M  V30 1225 H 114.422 1.36283 1.01119 0
M  V30 1226 H 113.194 2.93316 2.59001 0
M  V30 1227 H 112.817 1.58286 3.64735 0
M  V30 1228 N 113.814 -1.1601 1.06675 0
M  V30 1229 C 114.761 -2.20525 0.680967 0
M  V30 1230 C 115.731 -1.62904 -0.324283 0
M  V30 1231 O 116.916 -1.89615 -0.212294 0
M  V30 1232 C 114.056 -3.45013 0.0776551 0
M  V30 1233 C 113.169 -4.16863 1.13355 0
M  V30 1234 C 112.304 -5.2888 0.49597 0
M  V30 1235 C 111.343 -5.92537 1.53513 0
M  V30 1236 N 110.48 -6.96038 0.920631 0
M  V30 1237 H 115.32 -2.52876 1.57663 0
M  V30 1238 H 112.857 -1.24199 0.788223 0
M  V30 1239 H 114.815 -4.16193 -0.289704 0
M  V30 1240 H 113.445 -3.132 -0.781393 0
M  V30 1241 H 112.497 -3.44248 1.61857 0
M  V30 1242 H 113.809 -4.60294 1.92174 0
M  V30 1243 H 112.963 -6.06653 0.0758604 0
M  V30 1244 H 111.702 -4.86622 -0.324062 0
M  V30 1245 H 110.707 -5.13482 1.9651 0
M  V30 1246 H 111.932 -6.36873 2.35733 0
M  V30 1247 H 109.878 -6.55888 0.12138 0
M  V30 1248 H 109.795 -7.3786 1.64616 0
M  V30 1249 H 111.063 -7.77725 0.525795 0
M  V30 1250 N 115.292 -0.849877 -1.32721 0
M  V30 1251 C 116.222 -0.306308 -2.31482 0
M  V30 1252 C 117.203 0.591952 -1.59468 0
M  V30 1253 O 118.388 0.513199 -1.87296 0
M  V30 1254 C 115.518 0.510204 -3.43532 0
M  V30 1255 C 114.472 -0.293209 -4.26994 0
M  V30 1256 C 113.798 0.647743 -5.30762 0
M  V30 1257 C 115.098 -1.51634 -4.99804 0
M  V30 1258 H 116.792 -1.13153 -2.77195 0
M  V30 1259 H 114.338 -0.545553 -1.33266 0
M  V30 1260 H 116.291 0.900856 -4.11658 0
M  V30 1261 H 115.015 1.36874 -2.96535 0
M  V30 1262 H 113.674 -0.665555 -3.60508 0
M  V30 1263 H 113.322 1.50299 -4.8002 0
M  V30 1264 H 113.022 0.11422 -5.87489 0
M  V30 1265 H 114.546 1.03567 -6.01753 0
M  V30 1266 H 115.96 -1.19824 -5.60638 0
M  V30 1267 H 114.357 -1.98745 -5.66234 0
M  V30 1268 H 115.427 -2.28018 -4.27943 0
M  V30 1269 N 116.77 1.45427 -0.607355 0
M  V30 1270 C 117.717 2.3053 0.111625 0
M  V30 1271 C 118.687 1.4209 0.860216 0
M  V30 1272 O 119.872 1.71019 0.845998 0
M  V30 1273 C 117.012 3.26992 1.10319 0
M  V30 1274 C 116.125 4.30535 0.355493 0
M  V30 1275 C 115.26 5.14105 1.33676 0
M  V30 1276 C 114.299 6.09376 0.576862 0
M  V30 1277 N 113.436 6.85727 1.5074 0
M  V30 1278 H 118.276 2.91477 -0.620093 0
M  V30 1279 H 115.813 1.43631 -0.317594 0
M  V30 1280 H 117.771 3.81385 1.6912 0
M  V30 1281 H 116.401 2.67799 1.80232 0
M  V30 1282 H 115.453 3.78805 -0.348023 0
M  V30 1283 H 116.765 4.98235 -0.237423 0
M  V30 1284 H 115.919 5.72897 1.99684 0
M  V30 1285 H 114.658 4.46423 1.9636 0
M  V30 1286 H 113.663 5.49715 -0.0968519 0
M  V30 1287 H 114.888 6.79085 -0.0449341 0
M  V30 1288 H 112.834 6.20735 2.12189 0
M  V30 1289 H 112.751 7.49778 0.967913 0
M  V30 1290 H 114.019 7.4906 2.15706 0
M  V30 1291 N 118.248 0.346503 1.53744 0
M  V30 1292 C 119.181 -0.552023 2.21423 0
M  V30 1293 C 120.159 -1.09798 1.19929 0
M  V30 1294 O 121.343 -1.1577 1.4876 0
M  V30 1295 C 118.47 -1.75972 2.89398 0
M  V30 1296 C 117.516 -1.34295 4.04805 0
M  V30 1297 S 118.349 -0.360263 5.34287 0
M  V30 1298 C 119.505 -1.57473 6.05767 0
M  V30 1299 H 119.738 0.0228119 2.97291 0
M  V30 1300 H 117.271 0.130579 1.53847 0
M  V30 1301 H 119.229 -2.45256 3.2918 0
M  V30 1302 H 117.89 -2.30578 2.1329 0
M  V30 1303 H 117.083 -2.24349 4.51313 0
M  V30 1304 H 116.685 -0.729555 3.66815 0
M  V30 1305 H 118.977 -2.50875 6.29339 0
M  V30 1306 H 119.92 -1.15138 6.98676 0
M  V30 1307 H 120.328 -1.77212 5.35963 0
M  V30 1308 N 119.726 -1.57421 0.075193 0
M  V30 1309 C 120.975 -1.92794 -0.592731 0
M  V30 1310 C 121.288 -0.957478 -1.70563 0
M  V30 1311 O 122.494 -1.20417 -2.43335 0
M  V30 1312 C 120.95 -3.42495 -1.10569 0
M  V30 1313 C 120.558 -4.47994 -0.0236121 0
M  V30 1314 C 122.302 -3.86864 -1.74748 0
M  V30 1315 C 120.209 -5.88829 -0.550803 0
M  V30 1316 H 119.139 -0.719591 -0.225177 0
M  V30 1317 H 121.79 -1.82902 0.147978 0
M  V30 1318 H 120.172 -3.47471 -1.89947 0
M  V30 1319 H 121.346 -4.54637 0.751099 0
M  V30 1320 H 119.661 -4.13113 0.522159 0
M  V30 1321 H 122.258 -4.8947 -2.15229 0
M  V30 1322 H 122.601 -3.24417 -2.60882 0
M  V30 1323 H 123.134 -3.84504 -1.01986 0
M  V30 1324 H 119.873 -6.54929 0.273457 0
M  V30 1325 H 119.393 -5.85698 -1.29296 0
M  V30 1326 H 121.072 -6.38811 -1.02613 0
M  V30 1327 N 121.204 0.198386 -1.56346 0
M  V30 1328 C 122.62 0.549085 -1.49857 0
M  V30 1329 C 122.82 1.86016 -0.774611 0
M  V30 1330 O 121.876 2.50416 -0.323776 0
M  V30 1331 C 123.189 0.606868 -2.94512 0
M  V30 1332 C 124.737 0.695925 -3.05165 0
M  V30 1333 C 125.212 0.784848 -4.51225 0
M  V30 1334 N 126.703 0.848463 -4.55363 0
M  V30 1335 C 127.438 0.937378 -5.65686 0
M  V30 1336 N 126.934 0.9888 -6.85707 0
M  V30 1337 N 128.727 0.974312 -5.53592 0
M  V30 1338 H 120.878 -0.661655 -2.01831 0
M  V30 1339 H 123.141 -0.235261 -0.918344 0
M  V30 1340 H 122.847 -0.28732 -3.50524 0
M  V30 1341 H 122.721 1.46268 -3.47686 0
M  V30 1342 H 125.108 1.58055 -2.49204 0
M  V30 1343 H 125.189 -0.186022 -2.55123 0
M  V30 1344 H 124.833 -0.0954072 -5.0781 0
M  V30 1345 H 124.763 1.68255 -4.98997 0
M  V30 1346 H 127.254 0.818103 -3.68938 0
M  V30 1347 H 127.567 1.05707 -7.65536 0
M  V30 1348 H 125.912 0.957534 -6.88372 0
M  V30 1349 H 129.103 0.930954 -4.58749 0
M  V30 1350 H 129.276 1.04015 -6.39597 0
M  V30 1351 N 122.682 1.50554 0.465978 0
M  V30 1352 C 123.592 1.72585 1.58907 0
M  V30 1353 C 124.608 0.60911 1.6299 0
M  V30 1354 O 125.784 0.88804 1.80765 0
M  V30 1355 C 122.849 1.81995 2.95091 0
M  V30 1356 C 121.91 3.05751 3.01355 0
M  V30 1357 C 121.143 3.14702 4.31043 0
M  V30 1358 O 121.366 2.30313 5.21835 0
M  V30 1359 O 120.3 4.07468 4.43005 0
M  V30 1360 H 124.126 2.67799 1.43239 0
M  V30 1361 H 121.711 1.34711 0.646013 0
M  V30 1362 H 123.593 1.90335 3.75966 0
M  V30 1363 H 122.268 0.899659 3.10947 0
M  V30 1364 H 121.175 3.02908 2.19539 0
M  V30 1365 H 122.508 3.97375 2.90437 0
M  V30 1366 N 124.16 -0.719506 1.40217 0
M  V30 1367 C 125.39 -1.50646 1.41384 0
M  V30 1368 C 125.798 -1.89197 0.0107743 0
M  V30 1369 O 125.141 -1.55709 -0.974708 0
M  V30 1370 C 125.203 -2.81405 2.23722 0
M  V30 1371 C 124.867 -2.65199 3.72181 0
M  V30 1372 C 125.864 -2.32717 4.64907 0
M  V30 1373 C 123.549 -2.81586 4.1595 0
M  V30 1374 C 125.543 -2.16827 5.99387 0
M  V30 1375 C 123.23 -2.65313 5.50502 0
M  V30 1376 C 124.228 -2.32981 6.42035 0
M  V30 1377 O 123.916 -2.16827 7.74107 0
M  V30 1378 H 123.648 -0.471606 0.484318 0
M  V30 1379 H 126.202 -0.895456 1.84853 0
M  V30 1380 H 124.432 -3.44823 1.75026 0
M  V30 1381 H 126.121 -3.43102 2.16878 0
M  V30 1382 H 126.887 -2.19694 4.32388 0
M  V30 1383 H 122.766 -3.0574 3.45027 0
M  V30 1384 H 126.31 -1.91513 6.70797 0
M  V30 1385 H 122.207 -2.7792 5.82607 0
M  V30 1386 H 122.975 -2.31778 7.84998 0
M  V30 1387 N 125.638 -1.25649 -0.95132 0
M  V30 1388 C 127.054 -1.02542 -1.223 0
M  V30 1389 C 127.254 0.255715 -1.99871 0
M  V30 1390 O 126.31 0.967558 -2.33226 0
M  V30 1391 C 127.623 -2.25065 -1.99415 0
M  V30 1392 C 129.171 -2.29861 -2.12446 0
M  V30 1393 C 129.646 -3.52048 -2.92961 0
M  V30 1394 N 131.137 -3.52465 -3.00538 0
M  V30 1395 C 131.872 -4.43672 -3.63239 0
M  V30 1396 N 131.368 -5.45157 -4.27523 0
M  V30 1397 N 133.161 -4.31346 -3.60412 0
M  V30 1398 H 125.312 -2.07951 -0.432471 0
M  V30 1399 H 127.575 -0.91339 -0.253816 0
M  V30 1400 H 127.281 -3.18194 -1.49817 0
M  V30 1401 H 127.155 -2.28502 -3.00111 0
M  V30 1402 H 129.542 -1.37252 -2.61239 0
M  V30 1403 H 129.623 -2.3044 -1.11044 0
M  V30 1404 H 129.267 -4.44981 -2.44856 0
M  V30 1405 H 129.197 -3.48715 -3.94596 0
M  V30 1406 H 131.688 -2.79056 -2.54826 0
M  V30 1407 H 132.001 -6.10958 -4.73234 0
M  V30 1408 H 130.346 -5.49025 -4.26141 0
M  V30 1409 H 133.537 -3.51288 -3.09377 0
M  V30 1410 H 133.71 -5.02624 -4.0899 0
M  V30 1411 N 127.117 1.15442 -1.07289 0
M  V30 1412 C 128.049 2.19773 -0.650585 0
M  V30 1413 C 129.062 1.60076 0.296572 0
M  V30 1414 O 130.251 1.78293 0.0859905 0
M  V30 1415 C 127.351 3.38838 0.0650398 0
M  V30 1416 C 126.524 4.2808 -0.898141 0
M  V30 1417 C 125.583 5.2574 -0.219926 0
M  V30 1418 O 124.609 5.62654 -0.860773 0
M  V30 1419 N 125.811 5.71205 1.03466 0
M  V30 1420 H 128.576 2.56622 -1.54808 0
M  V30 1421 H 126.137 1.30551 -0.957494 0
M  V30 1422 H 128.129 4.01222 0.529415 0
M  V30 1423 H 126.699 3.00409 0.864466 0
M  V30 1424 H 125.919 3.62804 -1.54165 0
M  V30 1425 H 127.207 4.84577 -1.5512 0
M  V30 1426 H 126.605 5.43325 1.57526 0
M  V30 1427 H 125.162 6.35633 1.44272 0
M  V30 1428 N 128.595 0.856903 1.32268 0
M  V30 1429 C 129.528 0.247937 2.26849 0
M  V30 1430 C 130.506 -0.615382 1.50505 0
M  V30 1431 O 131.69 -0.571689 1.79622 0
M  V30 1432 C 128.817 -0.650093 3.32403 0
M  V30 1433 C 127.863 0.140138 4.2627 0
M  V30 1434 S 128.696 1.51004 5.13769 0
M  V30 1435 C 129.852 0.61778 6.22844 0
M  V30 1436 H 130.085 1.04971 2.78152 0
M  V30 1437 H 127.618 0.654665 1.39834 0
M  V30 1438 H 129.576 -1.16256 3.93694 0
M  V30 1439 H 128.237 -1.4257 2.7988 0
M  V30 1440 H 127.43 -0.543945 5.01056 0
M  V30 1441 H 127.032 0.584267 3.69408 0
M  V30 1442 H 129.324 -0.177053 6.77269 0
M  V30 1443 H 130.267 1.33636 6.95375 0
M  V30 1444 H 130.675 0.191124 5.64176 0
M  V30 1445 N 130.073 -1.45103 0.615059 0
M  V30 1446 C 131.319 -2.02483 0.113347 0
M  V30 1447 C 131.652 -1.48146 -1.25564 0
M  V30 1448 O 130.927 -0.659104 -1.82992 0
M  V30 1449 C 131.21 -3.60005 0.0825278 0
M  V30 1450 C 131.063 -4.2466 1.48271 0
M  V30 1451 C 132.382 -4.35972 -0.601401 0
M  V30 1452 H 129.501 -0.735764 0.0426632 0
M  V30 1453 H 132.143 -1.72868 0.788461 0
M  V30 1454 H 130.293 -3.85367 -0.492378 0
M  V30 1455 H 131.965 -4.10458 2.10527 0
M  V30 1456 H 130.208 -3.82772 2.04127 0
M  V30 1457 H 130.879 -5.336 1.41332 0
M  V30 1458 H 133.355 -4.15947 -0.112666 0
M  V30 1459 H 132.231 -5.45697 -0.592097 0
M  V30 1460 H 132.492 -4.09391 -1.66887 0
M  V30 1461 N 131.551 -0.354651 -1.53558 0
M  V30 1462 C 132.461 0.50515 -2.29097 0
M  V30 1463 C 133.477 1.10223 -1.34636 0
M  V30 1464 O 134.653 1.11553 -1.67684 0
M  V30 1465 C 131.718 1.63479 -3.05738 0
M  V30 1466 C 130.779 1.06636 -4.15845 0
M  V30 1467 C 130.012 2.14217 -4.88822 0
M  V30 1468 O 130.235 3.35137 -4.61562 0
M  V30 1469 O 129.169 1.77887 -5.75013 0
M  V30 1470 H 132.995 -0.109237 -3.03503 0
M  V30 1471 H 130.58 -0.119357 -1.48922 0
M  V30 1472 H 132.462 2.2918 -3.5363 0
M  V30 1473 H 131.137 2.23478 -2.34178 0
M  V30 1474 H 130.044 0.373565 -3.7223 0
M  V30 1475 H 131.377 0.511081 -4.89539 0
M  V30 1476 N 133.029 1.57378 -0.0835403 0
M  V30 1477 C 134.257 1.98263 0.59157 0
M  V30 1478 C 134.672 0.962302 1.62435 0
M  V30 1479 O 134.029 -0.049581 1.82433 0
M  V30 1480 C 134.08 3.39214 1.24965 0
M  V30 1481 O 133.801 4.37339 0.258186 0
M  V30 1482 C 135.302 3.95038 2.01147 0
M  V30 1483 H 132.522 0.651773 0.159477 0
M  V30 1484 H 135.066 2.03878 -0.159415 0
M  V30 1485 H 133.221 3.34649 1.95164 0
M  V30 1486 H 133.635 5.19371 0.731734 0
M  V30 1487 H 135.109 4.95848 2.42567 0
M  V30 1488 H 135.586 3.32222 2.87272 0
M  V30 1489 H 136.192 4.0304 1.35789 0
M  V30 1490 N 134.507 -0.190092 1.56449 0
M  V30 1491 C 135.417 -1.25591 1.98152 0
M  V30 1492 C 136.433 -1.49519 0.889944 0
M  V30 1493 O 137.609 -1.62036 1.19609 0
M  V30 1494 C 134.674 -2.57916 2.3169 0
M  V30 1495 C 133.735 -2.42015 3.5458 0
M  V30 1496 C 132.968 -3.6803 3.8651 0
M  V30 1497 O 133.191 -4.72413 3.1966 0
M  V30 1498 O 132.125 -3.6326 4.79923 0
M  V30 1499 H 135.951 -0.931988 2.89046 0
M  V30 1500 H 133.536 -0.395488 1.4407 0
M  V30 1501 H 135.418 -3.36008 2.54316 0
M  V30 1502 H 134.093 -2.89925 1.43963 0
M  V30 1503 H 133 -1.62017 3.37196 0
M  V30 1504 H 134.333 -2.14937 4.4279 0
M  V30 1505 N 135.985 -1.50799 -0.457987 0
M  V30 1506 C 136.915 -1.73553 -1.5621 0
M  V30 1507 C 137.896 -0.584774 -1.59732 0
M  V30 1508 O 139.081 -0.825314 -1.7579 0
M  V30 1509 C 136.211 -1.84169 -2.94447 0
M  V30 1510 C 135.165 -2.99461 -3.0579 0
M  V30 1511 C 134.491 -2.95235 -4.45803 0
M  V30 1512 C 135.791 -4.39766 -2.81786 0
M  V30 1513 H 137.485 -2.66 -1.37421 0
M  V30 1514 H 135.031 -1.28002 -0.659662 0
M  V30 1515 H 136.984 -1.98672 -3.71628 0
M  V30 1516 H 135.708 -0.883545 -3.14422 0
M  V30 1517 H 134.367 -2.8463 -2.31044 0
M  V30 1518 H 134.015 -1.97239 -4.62715 0
M  V30 1519 H 133.715 -3.72642 -4.54326 0
M  V30 1520 H 135.239 -3.11803 -5.24987 0
M  V30 1521 H 136.653 -4.55054 -3.4871 0
M  V30 1522 H 135.05 -5.18722 -3.0174 0
M  V30 1523 H 136.12 -4.51229 -1.7754 0
M  V30 1524 N 137.463 0.71206 -1.40597 0
M  V30 1525 C 138.41 1.82613 -1.41142 0
M  V30 1526 C 139.38 1.63925 -0.267903 0
M  V30 1527 O 140.565 1.85009 -0.466495 0
M  V30 1528 C 137.705 3.20354 -1.28324 0
M  V30 1529 C 136.818 3.50589 -2.52411 0
M  V30 1530 C 135.953 4.77855 -2.32009 0
M  V30 1531 C 134.992 5.01005 -3.51654 0
M  V30 1532 N 134.129 6.19487 -3.30425 0
M  V30 1533 H 138.969 1.81482 -2.36365 0
M  V30 1534 H 136.506 0.886475 -1.17388 0
M  V30 1535 H 138.464 3.99899 -1.18899 0
M  V30 1536 H 137.094 3.20705 -0.367189 0
M  V30 1537 H 136.146 2.65573 -2.72351 0
M  V30 1538 H 137.458 3.63604 -3.41458 0
M  V30 1539 H 136.612 5.65424 -2.19956 0
M  V30 1540 H 135.351 4.67056 -1.40392 0
M  V30 1541 H 134.356 4.1189 -3.64179 0
M  V30 1542 H 135.581 5.13674 -4.44202 0
M  V30 1543 H 133.527 6.09932 -2.41494 0
M  V30 1544 H 133.444 6.33194 -4.13039 0
M  V30 1545 H 134.712 7.09834 -3.22113 0
M  V30 1546 N 138.941 1.26152 0.944643 0
M  V30 1547 C 139.871 1.09902 2.06019 0
M  V30 1548 C 140.852 0.00519538 1.70099 0
M  V30 1549 O 142.037 0.176583 1.93396 0
M  V30 1550 C 139.167 0.727562 3.39594 0
M  V30 1551 C 138.121 1.77274 3.89561 0
M  V30 1552 C 137.447 1.25569 5.19747 0
M  V30 1553 C 138.747 3.17357 4.14827 0
M  V30 1554 H 140.441 2.03217 2.19871 0
M  V30 1555 H 137.987 0.978452 1.05652 0
M  V30 1556 H 139.94 0.600777 4.17095 0
M  V30 1557 H 138.664 -0.241287 3.25707 0
M  V30 1558 H 137.323 1.88814 3.14237 0
M  V30 1559 H 136.971 0.276783 5.02238 0
M  V30 1560 H 136.671 1.95433 5.54148 0
M  V30 1561 H 138.195 1.1415 5.99835 0
M  V30 1562 H 139.609 3.08914 4.82954 0
M  V30 1563 H 138.006 3.84781 4.60504 0
M  V30 1564 H 139.076 3.63673 3.20734 0
M  V30 1565 N 140.419 -1.14872 1.07899 0
M  V30 1566 C 141.668 -1.85135 0.800499 0
M  V30 1567 C 141.981 -1.83547 -0.676014 0
M  V30 1568 O 143.187 -2.49548 -1.06948 0
M  V30 1569 C 141.643 -3.3231 1.38197 0
M  V30 1570 C 141.251 -3.42329 2.8899 0
M  V30 1571 C 142.995 -4.0772 1.18174 0
M  V30 1572 C 140.902 -4.83684 3.403 0
M  V30 1573 H 139.832 -0.693563 0.29578 0
M  V30 1574 H 142.483 -1.29532 1.29976 0
M  V30 1575 H 140.865 -3.87618 0.810431 0
M  V30 1576 H 142.039 -2.97097 3.52236 0
M  V30 1577 H 140.354 -2.80369 3.07867 0
M  V30 1578 H 142.951 -5.12049 1.5398 0
M  V30 1579 H 143.294 -4.16124 0.12117 0
M  V30 1580 H 143.827 -3.58696 1.71994 0
M  V30 1581 H 140.566 -4.80465 4.45907 0
M  V30 1582 H 140.086 -5.29474 2.81811 0
M  V30 1583 H 141.765 -5.52558 3.36584 0
M  V30 1584 N 141.898 -0.863906 -1.31812 0
M  V30 1585 C 143.138 -0.47825 -1.98726 0
M  V30 1586 C 143.502 0.950397 -1.66828 0
M  V30 1587 O 144.703 1.44109 -2.26905 0
M  V30 1588 C 142.974 -0.721134 -3.50049 0
M  V30 1589 S 144.533 -0.434432 -4.36644 0
M  V30 1590 H 141.351 -0.178773 -0.688158 0
M  V30 1591 H 143.953 -1.11862 -1.60334 0
M  V30 1592 H 142.657 -1.75981 -3.70755 0
M  V30 1593 H 142.188 -0.0675315 -3.93342 0
M  V30 1594 H 144.203 0.735786 -4.90714 0
M  V30 1595 N 143.376 1.44774 -0.622745 0
M  V30 1596 C 144.616 2.04004 -0.127102 0
M  V30 1597 C 144.98 1.47862 1.22478 0
M  V30 1598 O 146.181 1.98541 1.81204 0
M  V30 1599 C 144.452 3.57247 -0.104429 0
M  V30 1600 S 146.011 4.37574 0.327814 0
M  V30 1601 H 142.829 0.708713 -0.0569776 0
M  V30 1602 H 145.431 1.77275 -0.824253 0
M  V30 1603 H 144.135 3.95616 -1.09159 0
M  V30 1604 H 143.666 3.88575 0.614236 0
M  V30 1605 H 145.681 4.70575 1.57395 0
M  V30 1606 N 144.854 0.36279 1.53368 0
M  V30 1607 C 146.131 -0.284021 1.93527 0
M  V30 1608 C 146.511 -1.66628 1.29608 0
M  V30 1609 O 145.859 -2.23942 0.45413 0
M  V30 1610 C 146.069 -0.337028 3.47369 0
M  V30 1611 C 147.417 -0.578708 4.20638 0
M  V30 1612 O 148.441 -0.418352 3.53735 0
M  V30 1613 O 147.3 -0.89074 5.39192 0
M  V30 1614 H 144.394 -0.169743 0.809393 0
M  V30 1615 H 146.94 0.41537 1.64538 0
M  V30 1616 H 145.712 0.632217 3.86159 0
M  V30 1617 H 145.335 -1.08243 3.82582 0
M  V30 1618 N 146.332 -1.57332 0.0918853 0
M  V30 1619 C 147.581 -1.93412 -0.572249 0
M  V30 1620 C 147.894 -0.975515 -1.69538 0
M  V30 1621 O 149.1 -1.22991 -2.42045 0
M  V30 1622 C 147.556 -3.43648 -1.0693 0
M  V30 1623 C 147.164 -4.47994 0.0239049 0
M  V30 1624 C 148.908 -3.88695 -1.70635 0
M  V30 1625 C 146.815 -5.89381 -0.488319 0
M  V30 1626 H 145.745 -0.721939 -0.217532 0
M  V30 1627 H 148.396 -1.82735 0.167369 0
M  V30 1628 H 146.778 -3.49466 -1.8625 0
M  V30 1629 H 147.952 -4.53815 0.799277 0
M  V30 1630 H 146.267 -4.12536 0.565946 0
M  V30 1631 H 148.864 -4.91725 -2.10025 0
M  V30 1632 H 149.207 -3.27166 -2.57426 0
M  V30 1633 H 149.74 -3.85564 -0.979023 0
M  V30 1634 H 146.479 -6.54602 0.342906 0
M  V30 1635 H 145.999 -5.87037 -1.23077 0
M  V30 1636 H 147.678 -6.39863 -0.958317 0
M  V30 1637 N 147.81 0.181792 -1.56548 0
M  V30 1638 C 148.74 1.22765 -1.98623 0
M  V30 1639 C 149.721 1.46747 -0.860189 0
M  V30 1640 O 150.906 1.58259 -1.12551 0
M  V30 1641 C 148.036 2.56894 -2.33715 0
M  V30 1642 C 146.99 2.475 -3.49182 0
M  V30 1643 C 146.316 3.86023 -3.69986 0
M  V30 1644 C 147.616 1.98866 -4.82959 0
M  V30 1645 H 149.31 0.877942 -2.86239 0
M  V30 1646 H 146.856 0.42088 -1.37712 0
M  V30 1647 H 148.809 3.30253 -2.61746 0
M  V30 1648 H 147.533 2.93632 -1.42997 0
M  V30 1649 H 146.192 1.76596 -3.21262 0
M  V30 1650 H 145.84 4.20136 -2.76576 0
M  V30 1651 H 145.54 3.80609 -4.47672 0
M  V30 1652 H 147.064 4.60984 -4.00407 0
M  V30 1653 H 148.478 2.61992 -5.09934 0
M  V30 1654 H 146.875 2.04424 -5.64208 0
M  V30 1655 H 147.945 0.942465 -4.75653 0
M  V30 1656 N 149.288 1.51039 0.449983 0
M  V30 1657 C 150.565 1.53612 1.21089 0
M  V30 1658 C 150.945 0.292997 2.09057 0
M  V30 1659 O 150.293 -0.72259 2.16774 0
M  V30 1660 C 150.503 2.84337 2.0237 0
M  V30 1661 C 151.851 3.35807 2.59843 0
M  V30 1662 O 152.875 2.85802 2.12593 0
M  V30 1663 O 151.734 4.23029 3.45989 0
M  V30 1664 H 148.828 0.617057 0.550608 0
M  V30 1665 H 151.374 1.63344 0.460082 0
M  V30 1666 H 150.146 3.66278 1.37681 0
M  V30 1667 H 149.769 2.77708 2.84542 0
M  V30 1668 N 150.766 -0.704594 1.40972 0
M  V30 1669 C 152.012 -1.46675 1.40051 0
M  V30 1670 C 152.345 -1.94199 0.00641102 0
M  V30 1671 O 151.62 -1.68916 -0.964235 0
M  V30 1672 C 151.903 -2.68505 2.39952 0
M  V30 1673 C 151.756 -2.26805 3.88432 0
M  V30 1674 C 153.075 -3.70686 2.37233 0
M  V30 1675 H 150.194 -0.532015 0.510028 0
M  V30 1676 H 152.836 -0.803255 1.72185 0
M  V30 1677 H 150.986 -3.25114 2.1268 0
M  V30 1678 H 152.658 -1.75592 4.26574 0
M  V30 1679 H 150.901 -1.58685 4.03734 0
M  V30 1680 H 151.572 -3.14181 4.53866 0
M  V30 1681 H 154.048 -3.23731 2.61415 0
M  V30 1682 H 152.924 -4.53553 3.09162 0
M  V30 1683 H 153.185 -4.19754 1.38777 0
M  V30 1684 N 152.244 -1.26651 -0.937939 0
M  V30 1685 C 153.174 -1.10993 -2.05433 0
M  V30 1686 C 154.155 -0.0142161 -1.70094 0
M  V30 1687 O 155.34 -0.186837 -1.93299 0
M  V30 1688 C 152.47 -0.745561 -3.39203 0
M  V30 1689 C 151.424 -1.79337 -3.88616 0
M  V30 1690 C 150.75 -1.28324 -5.19073 0
M  V30 1691 C 152.05 -3.19553 -4.13138 0
M  V30 1692 H 153.744 -2.0438 -2.1879 0
M  V30 1693 H 151.29 -0.984041 -1.05131 0
M  V30 1694 H 153.243 -0.622888 -4.16771 0
M  V30 1695 H 151.967 0.22401 -3.25831 0
M  V30 1696 H 150.626 -1.90477 -3.13231 0
M  V30 1697 H 150.274 -0.303414 -5.02084 0
M  V30 1698 H 149.974 -1.98369 -5.53103 0
M  V30 1699 H 151.498 -1.1733 -5.99221 0
M  V30 1700 H 152.912 -3.11471 -4.81309 0
M  V30 1701 H 151.309 -3.87218 -4.58457 0
M  V30 1702 H 152.379 -3.65368 -3.18801 0
M  V30 1703 N 153.722 1.14298 -1.08507 0
M  V30 1704 C 154.999 1.81544 -0.728088 0
M  V30 1705 C 155.379 1.95838 0.78808 0
M  V30 1706 O 154.727 1.51904 1.70697 0
M  V30 1707 C 154.937 3.17169 -1.45619 0
M  V30 1708 C 156.285 3.9265 -1.61591 0
M  V30 1709 O 157.309 3.26762 -1.41793 0
M  V30 1710 O 156.168 5.10807 -1.94263 0
M  V30 1711 H 153.262 0.78491 -0.260471 0
M  V30 1712 H 155.808 1.21307 -1.18671 0
M  V30 1713 H 154.58 3.01934 -2.489 0
M  V30 1714 H 154.203 3.851 -0.989124 0
M  V30 1715 N 155.201 0.870884 1.31352 0
M  V30 1716 C 156.148 0.325425 2.28494 0
M  V30 1717 C 157.118 -0.576615 1.5577 0
M  V30 1718 O 158.303 -0.508059 1.83911 0
M  V30 1719 C 155.443 -0.466283 3.41935 0
M  V30 1720 C 154.556 0.463378 4.29508 0
M  V30 1721 C 153.691 -0.342544 5.30094 0
M  V30 1722 C 152.73 0.583486 6.09313 0
M  V30 1723 N 151.867 -0.186244 7.01853 0
M  V30 1724 H 156.707 1.15901 2.74538 0
M  V30 1725 H 154.244 0.58294 1.35056 0
M  V30 1726 H 156.202 -0.941085 4.06447 0
M  V30 1727 H 154.832 -1.26456 2.97 0
M  V30 1728 H 153.884 1.05663 3.65431 0
M  V30 1729 H 155.196 1.1734 4.84802 0
M  V30 1730 H 154.35 -0.879816 6.00287 0
M  V30 1731 H 153.089 -1.08585 4.75458 0
M  V30 1732 H 152.094 1.13251 5.3801 0
M  V30 1733 H 153.319 1.32566 6.66035 0
M  V30 1734 H 151.265 -0.912348 6.49625 0
M  V30 1735 H 151.182 0.464422 7.54572 0
M  V30 1736 H 152.45 -0.704716 7.76308 0
M  V30 1737 N 156.679 -1.44442 0.630414 0
M  V30 1738 C 157.629 -2.27794 -0.0968103 0
M  V30 1739 C 158.613 -1.38624 -0.816834 0
M  V30 1740 O 159.805 -1.62438 -0.70306 0
M  V30 1741 C 156.934 -3.25929 -1.07819 0
M  V30 1742 C 156.02 -4.22588 -0.357826 0
M  V30 1743 N 156.411 -5.0207 0.613169 0
M  V30 1744 C 154.709 -4.41914 -0.602365 0
M  V30 1745 C 155.41 -5.72351 1.03871 0
M  V30 1746 N 154.386 -5.42287 0.377642 0
M  V30 1747 H 158.188 -2.86653 0.648621 0
M  V30 1748 H 155.702 -1.55871 0.455862 0
M  V30 1749 H 157.699 -3.84399 -1.61378 0
M  V30 1750 H 156.359 -2.68631 -1.82393 0
M  V30 1751 H 157.37 -5.08331 0.990947 0
M  V30 1752 H 154.047 -3.95714 -1.33103 0
M  V30 1753 H 155.437 -6.4619 1.84086 0
M  V30 1754 N 158.157 -0.370918 -1.53173 0
M  V30 1755 C 159.087 0.464847 -2.28826 0
M  V30 1756 C 160.068 1.07936 -1.31468 0
M  V30 1757 O 161.253 1.0956 -1.60344 0
M  V30 1758 C 158.383 1.60196 -3.08147 0
M  V30 1759 C 157.337 1.11443 -4.13237 0
M  V30 1760 C 156.663 2.3422 -4.80672 0
M  V30 1761 C 157.963 0.195384 -5.21934 0
M  V30 1762 H 159.657 -0.166329 -2.98938 0
M  V30 1763 H 157.203 -0.0814359 -1.4377 0
M  V30 1764 H 159.156 2.19332 -3.59822 0
M  V30 1765 H 157.88 2.26045 -2.35735 0
M  V30 1766 H 156.539 0.545727 -3.62515 0
M  V30 1767 H 156.187 2.98537 -4.04827 0
M  V30 1768 H 155.887 2.02269 -5.51689 0
M  V30 1769 H 157.411 2.94032 -5.35143 0
M  V30 1770 H 158.825 0.694375 -5.69079 0
M  V30 1771 H 157.222 -0.0335027 -6.00091 0
M  V30 1772 H 158.292 -0.760961 -4.78892 0
M  V30 1773 N 159.635 1.57281 -0.100228 0
M  V30 1774 C 160.884 1.93713 0.561984 0
M  V30 1775 C 161.197 0.984492 1.69018 0
M  V30 1776 O 162.403 1.24273 2.41389 0
M  V30 1777 C 160.859 3.4421 1.05106 0
M  V30 1778 C 160.467 4.47975 -0.0476628 0
M  V30 1779 C 162.211 3.89595 1.68571 0
M  V30 1780 C 160.118 5.89631 0.457055 0
M  V30 1781 H 159.048 0.723082 0.2137 0
M  V30 1782 H 161.699 1.82644 -0.177057 0
M  V30 1783 H 160.081 3.50449 1.84395 0
M  V30 1784 H 161.255 4.53385 -0.823333 0
M  V30 1785 H 159.57 4.1223 -0.587816 0
M  V30 1786 H 162.167 4.92832 2.07414 0
M  V30 1787 H 162.51 3.28526 2.55688 0
M  V30 1788 H 163.043 3.86078 0.958562 0
M  V30 1789 H 159.782 6.54411 -0.377616 0
M  V30 1790 H 159.302 5.87681 1.19962 0
M  V30 1791 H 160.981 6.40363 0.92437 0
M  V30 1792 N 161.113 -0.173488 1.56642 0
M  V30 1793 C 162.524 -0.736155 1.71574 0
M  V30 1794 C 162.875 -1.82888 0.710389 0
M  V30 1795 O 162 -2.16017 -0.1287 0
M  V30 1796 C 162.595 -1.34211 3.11083 0
M  V30 1797 C 161.154 -1.85162 3.27707 0
M  V30 1798 C 160.301 -0.729765 2.67525 0
M  V30 1799 H 163.252 0.0518786 1.58615 0
M  V30 1800 H 163.273 -2.21178 3.09613 0
M  V30 1801 H 162.785 -0.546579 3.84232 0
M  V30 1802 H 160.886 -2.67366 2.59512 0
M  V30 1803 H 160.999 -1.99855 4.35425 0
M  V30 1804 H 159.363 -1.14965 2.27278 0
M  V30 1805 H 160.146 0.0538806 3.43258 0
M  V30 1806 N 162.591 -1.51276 -0.441967 0
M  V30 1807 C 163.554 -1.7167 -1.51862 0
M  V30 1808 C 164.554 -0.586793 -1.49711 0
M  V30 1809 O 165.744 -0.854276 -1.51815 0
M  V30 1810 C 162.876 -1.76889 -2.91416 0
M  V30 1811 H 164.069 -2.67754 -1.35084 0
M  V30 1812 H 161.622 -1.41196 -0.670333 0
M  V30 1813 H 162.357 -0.826026 -3.13604 0
M  V30 1814 H 162.142 -2.59001 -2.94382 0
M  V30 1815 H 163.632 -1.94522 -3.69528 0
M  V30 1816 N 164.069 0.697108 -1.41344 0
M  V30 1817 C 165.032 1.79281 -1.42797 0
M  V30 1818 C 166.032 1.57607 -0.318837 0
M  V30 1819 O 167.222 1.64309 -0.578642 0
M  V30 1820 C 164.354 3.17632 -1.23785 0
M  V30 1821 H 165.547 1.79385 -2.40335 0
M  V30 1822 H 163.1 0.904582 -1.27464 0
M  V30 1823 H 163.835 3.23167 -0.270814 0
M  V30 1824 H 163.62 3.34765 -2.04144 0
M  V30 1825 H 165.11 3.97617 -1.27633 0
M  V30 1826 N 165.547 1.27147 0.931209 0
M  V30 1827 C 166.495 1.09398 2.05268 0
M  V30 1828 C 167.489 0.0180591 1.6939 0
M  V30 1829 O 168.695 0.17551 1.79142 0
M  V30 1830 H 165.07 0.336986 0.672268 0
M  V30 1831 H 167.041 2.04416 2.17386 0
M  V30 1832 C 165.79 0.75424 3.39421 0
M  V30 1833 H 165.113 1.57404 3.67511 0
M  V30 1834 H 166.553 0.669903 4.18674 0
M  V30 1835 C 165.012 -0.541197 3.32525 0
M  V30 1836 O 165.542 -1.57664 3.69466 0
M  V30 1837 N 163.748 -0.535517 2.85623 0
M  V30 1838 H 163.295 0.307511 2.55758 0
M  V30 1839 H 163.253 -1.40236 2.81392 0
M  V30 1840 N 167.025 -1.13721 1.09112 0
M  V30 1841 C 168.253 -1.88773 0.846899 0
M  V30 1842 C 168.668 -1.7896 -0.601572 0
M  V30 1843 O 168.025 -1.15394 -1.41388 0
M  V30 1844 C 168.076 -3.3849 1.26913 0
M  V30 1845 O 167.797 -3.48043 2.66079 0
M  V30 1846 C 169.298 -4.30518 1.05682 0
M  V30 1847 H 166.518 -0.59772 0.304914 0
M  V30 1848 H 169.062 -1.43977 1.45227 0
M  V30 1849 H 167.217 -3.80881 0.707723 0
M  V30 1850 H 167.631 -4.4109 2.83795 0
M  V30 1851 H 169.105 -5.3391 1.40156 0
M  V30 1852 H 169.582 -4.392 -0.00563416 0
M  V30 1853 H 170.188 -3.93893 1.60402 0
M  V30 1854 N 168.503 -0.877838 -1.30888 0
M  V30 1855 C 169.751 -0.491723 -1.96027 0
M  V30 1856 C 170.072 0.960827 -1.69685 0
M  V30 1857 O 169.342 1.67462 -1.01654 0
M  V30 1858 H 167.922 -0.17885 -0.725273 0
M  V30 1859 H 170.584 -1.11935 -1.59551 0
M  V30 1860 H 169.68 -0.656016 -3.05128 0
M  V30 1861 N 169.982 1.44106 -0.638065 0
M  V30 1862 C 170.892 2.34513 0.0637334 0
M  V30 1863 C 171.908 1.53018 0.828346 0
M  V30 1864 O 173.084 1.85723 0.779036 0
M  V30 1865 C 170.149 3.31095 1.02844 0
M  V30 1866 C 169.21 4.28497 0.26244 0
M  V30 1867 C 168.443 5.20465 1.1812 0
M  V30 1868 O 168.666 5.16514 2.42011 0
M  V30 1869 O 167.6 5.98251 0.661774 0
M  V30 1870 H 171.426 2.95989 -0.68003 0
M  V30 1871 H 169.011 1.43994 -0.398252 0
M  V30 1872 H 170.893 3.90526 1.58327 0
M  V30 1873 H 169.568 2.72144 1.7527 0
M  V30 1874 H 168.475 3.72592 -0.335602 0
M  V30 1875 H 169.808 4.90388 -0.421936 0
M  V30 1876 N 171.46 0.379036 1.52974 0
M  V30 1877 C 172.685 -0.209353 2.06341 0
M  V30 1878 C 173.11 -1.40583 1.24972 0
M  V30 1879 O 172.468 -1.79246 0.272155 0
M  V30 1880 C 172.516 -0.567786 3.56102 0
M  V30 1881 O 171.62 -1.66318 3.77375 0
M  V30 1882 H 170.961 -0.0272919 0.663439 0
M  V30 1883 H 173.491 0.543536 1.97248 0
M  V30 1884 H 173.501 -0.835003 3.99364 0
M  V30 1885 H 172.176 0.307013 4.14765 0
M  V30 1886 H 170.753 -1.39048 3.46006 0
M  V30 1887 N 172.938 -1.57226 0.108567 0
M  V30 1888 C 173.885 -2.14756 -0.845481 0
M  V30 1889 C 174.855 -1.06971 -1.27068 0
M  V30 1890 O 176.04 -1.34827 -1.35005 0
M  V30 1891 C 173.18 -2.74298 -2.09415 0
M  V30 1892 C 172.293 -3.96358 -1.71826 0
M  V30 1893 C 171.428 -4.44021 -2.9158 0
M  V30 1894 C 170.467 -5.58637 -2.50181 0
M  V30 1895 N 169.604 -6.01091 -3.62814 0
M  V30 1896 H 174.444 -2.95961 -0.348035 0
M  V30 1897 H 171.981 -1.46226 -0.160106 0
M  V30 1898 H 173.939 -3.06945 -2.82561 0
M  V30 1899 H 172.569 -1.95801 -2.56636 0
M  V30 1900 H 171.621 -3.69939 -0.885947 0
M  V30 1901 H 172.933 -4.79504 -1.37394 0
M  V30 1902 H 172.087 -4.78522 -3.72963 0
M  V30 1903 H 170.826 -3.59803 -3.29231 0
M  V30 1904 H 169.831 -5.23751 -1.67228 0
M  V30 1905 H 171.056 -6.44613 -2.13659 0
M  V30 1906 H 169.002 -5.19817 -4.00158 0
M  V30 1907 H 168.919 -6.79066 -3.32273 0
M  V30 1908 H 170.187 -6.40227 -4.44668 0
M  V30 1909 N 174.416 0.165178 -1.56732 0
M  V30 1910 C 175.662 0.882112 -1.82611 0
M  V30 1911 C 175.995 1.81628 -0.687378 0
M  V30 1912 O 175.27 1.92009 0.310267 0
M  V30 1913 C 175.553 1.67245 -3.18906 0
M  V30 1914 C 175.406 0.760987 -4.43316 0
M  V30 1915 C 176.725 2.63884 -3.52212 0
M  V30 1916 H 173.844 0.319242 -0.664269 0
M  V30 1917 H 176.486 0.148052 -1.89422 0
M  V30 1918 H 174.636 2.29824 -3.1323 0
M  V30 1919 H 176.308 0.147596 -4.61064 0
M  V30 1920 H 174.551 0.0694102 -4.33744 0
M  V30 1921 H 175.222 1.34962 -5.35247 0
M  V30 1922 H 177.698 2.11429 -3.58381 0
M  V30 1923 H 176.574 3.16245 -4.48643 0
M  V30 1924 H 176.835 3.44377 -2.77231 0
M  V30 1925 N 175.894 1.51508 0.433938 0
M  V30 1926 C 177.141 1.64345 1.18309 0
M  V30 1927 C 177.469 0.361315 1.91115 0
M  V30 1928 O 176.724 -0.654753 1.84422 0
M  V30 1929 C 177.023 2.79928 2.22205 0
M  V30 1930 C 176.689 4.19078 1.66387 0
M  V30 1931 C 175.351 4.56932 1.50887 0
M  V30 1932 C 177.703 5.05894 1.25381 0
M  V30 1933 C 175.031 5.79305 0.928608 0
M  V30 1934 C 177.383 6.2885 0.687823 0
M  V30 1935 C 176.047 6.65473 0.519755 0
M  V30 1936 H 175.317 0.601381 0.432923 0
M  V30 1937 H 177.964 1.85549 0.473676 0
M  V30 1938 H 176.269 2.52959 2.99197 0
M  V30 1939 H 177.966 2.87059 2.79997 0
M  V30 1940 H 174.556 3.89234 1.79428 0
M  V30 1941 H 178.74 4.77253 1.36175 0
M  V30 1942 H 173.996 6.06324 0.786186 0
M  V30 1943 H 178.17 6.95461 0.361581 0
M  V30 1944 H 175.797 7.6017 0.0679979 0
M  V30 1945 N 177.372 -0.689602 1.41712 0
M  V30 1946 C 178.602 -1.47613 1.44548 0
M  V30 1947 C 179.01 -1.89132 0.0509034 0
M  V30 1948 O 178.353 -1.57741 -0.94146 0
M  V30 1949 C 178.415 -2.76596 2.2964 0
M  V30 1950 C 178.079 -2.57245 3.77722 0
M  V30 1951 C 179.076 -2.22804 4.69739 0
M  V30 1952 C 176.761 -2.727 4.2183 0
M  V30 1953 C 178.755 -2.04064 6.03851 0
M  V30 1954 C 176.442 -2.53576 5.56006 0
M  V30 1955 C 177.44 -2.1931 6.46832 0
M  V30 1956 O 177.128 -2.00359 7.78532 0
M  V30 1957 H 176.86 -0.461227 0.494212 0
M  V30 1958 H 179.414 -0.856045 1.86711 0
M  V30 1959 H 177.644 -3.41033 1.82301 0
M  V30 1960 H 179.333 -3.38424 2.24107 0
M  V30 1961 H 180.099 -2.10473 4.36951 0
M  V30 1962 H 175.978 -2.98353 3.51435 0
M  V30 1963 H 179.522 -1.77241 6.74708 0
M  V30 1964 H 175.419 -2.65499 5.88371 0
M  V30 1965 H 176.187 -2.15075 7.89737 0
M  V30 1966 N 178.85 -1.27639 -0.924453 0
M  V30 1967 C 180.08 -1.16819 -1.70402 0
M  V30 1968 C 180.488 0.277191 -1.87158 0
M  V30 1969 O 179.831 1.20025 -1.39067 0
M  V30 1970 C 179.893 -1.78305 -3.12166 0
M  V30 1971 C 179.557 -3.27502 -3.18734 0
M  V30 1972 C 180.554 -4.2409 -3.00738 0
M  V30 1973 C 178.239 -3.68269 -3.4159 0
M  V30 1974 C 180.233 -5.59422 -3.05492 0
M  V30 1975 C 177.92 -5.0373 -3.45977 0
M  V30 1976 C 178.918 -5.99116 -3.27946 0
M  V30 1977 O 178.606 -7.32108 -3.32074 0
M  V30 1978 H 178.338 -0.406931 -0.539799 0
M  V30 1979 H 180.892 -1.69078 -1.16626 0
M  V30 1980 H 179.122 -1.20528 -3.67437 0
M  V30 1981 H 180.811 -1.62154 -3.72103 0
M  V30 1982 H 181.577 -3.93931 -2.82919 0
M  V30 1983 H 177.456 -2.94496 -3.54673 0
M  V30 1984 H 181 -6.33852 -2.91337 0
M  V30 1985 H 176.897 -5.33543 -3.63321 0
M  V30 1986 H 177.665 -7.40598 -3.48507 0
M  V30 1987 N 180.328 1.1314 -1.09713 0
M  V30 1988 C 181.275 2.18642 -0.739196 0
M  V30 1989 C 182.245 1.63706 0.280978 0
M  V30 1990 O 183.43 1.90111 0.161946 0
M  V30 1991 C 180.57 3.44685 -0.169102 0
M  V30 1992 C 179.683 4.13711 -1.24367 0
M  V30 1993 C 178.818 5.27379 -0.636019 0
M  V30 1994 C 177.857 5.88259 -1.69169 0
M  V30 1995 N 176.994 6.93352 -1.10485 0
M  V30 1996 H 181.834 2.48607 -1.64312 0
M  V30 1997 H 179.371 1.22066 -0.820875 0
M  V30 1998 H 181.329 4.16815 0.179256 0
M  V30 1999 H 179.959 3.15161 0.698079 0
M  V30 2000 H 179.011 3.39835 -1.70927 0
M  V30 2001 H 180.323 4.55037 -2.04311 0
M  V30 2002 H 179.477 6.06238 -0.236677 0
M  V30 2003 H 178.216 4.8731 0.194928 0
M  V30 2004 H 177.221 5.08092 -2.10055 0
M  V30 2005 H 178.446 6.30399 -2.52536 0
M  V30 2006 H 176.392 6.55335 -0.295234 0
M  V30 2007 H 176.309 7.33236 -1.84121 0
M  V30 2008 H 177.577 7.76057 -0.73181 0
M  V30 2009 N 181.806 0.884767 1.30421 0
M  V30 2010 C 182.739 0.295999 2.26272 0
M  V30 2011 C 183.717 -0.58332 1.51777 0
M  V30 2012 O 184.901 -0.53346 1.80794 0
M  V30 2013 C 182.028 -0.57944 3.33707 0
M  V30 2014 C 181.074 0.230525 4.25877 0
M  V30 2015 S 181.907 1.61867 5.1045 0
M  V30 2016 C 183.063 0.749756 6.21393 0
M  V30 2017 H 183.296 1.10848 2.75862 0
M  V30 2018 H 180.829 0.684178 1.38414 0
M  V30 2019 H 182.787 -1.07879 3.96071 0
M  V30 2020 H 181.448 -1.36601 2.82841 0
M  V30 2021 H 180.641 -0.437542 5.02097 0
M  V30 2022 H 180.243 0.662493 3.68086 0
M  V30 2023 H 182.535 -0.0333547 6.77492 0
M  V30 2024 H 183.478 1.48356 6.92384 0
M  V30 2025 H 183.886 0.310751 5.63644 0
M  V30 2026 N 183.284 -1.43765 0.645699 0
M  V30 2027 C 184.231 -2.30745 -0.0504648 0
M  V30 2028 C 185.201 -1.4432 -0.822241 0
M  V30 2029 O 186.386 -1.73202 -0.800358 0
M  V30 2030 C 183.526 -3.29802 -1.0161 0
M  V30 2031 C 182.639 -4.31326 -0.241219 0
M  V30 2032 C 181.774 -5.17469 -1.19998 0
M  V30 2033 C 180.813 -6.10691 -0.415094 0
M  V30 2034 N 179.95 -6.89483 -1.32506 0
M  V30 2035 H 184.79 -2.8973 0.697155 0
M  V30 2036 H 182.327 -1.42738 0.355563 0
M  V30 2037 H 184.285 -3.85734 -1.58949 0
M  V30 2038 H 182.915 -2.72483 -1.73069 0
M  V30 2039 H 181.967 -3.77749 0.448334 0
M  V30 2040 H 183.279 -4.9743 0.369437 0
M  V30 2041 H 182.433 -5.7799 -1.84424 0
M  V30 2042 H 181.172 -4.51473 -1.84455 0
M  V30 2043 H 180.177 -5.49265 0.242565 0
M  V30 2044 H 181.402 -6.78727 0.224966 0
M  V30 2045 H 179.348 -6.26142 -1.95657 0
M  V30 2046 H 179.265 -7.52081 -0.768783 0
M  V30 2047 H 180.533 -7.54516 -1.9577 0
M  V30 2048 N 184.763 -0.387143 -1.52771 0
M  V30 2049 C 186.011 0.195349 -2.01154 0
M  V30 2050 C 186.332 1.475 -1.27549 0
M  V30 2051 O 185.602 1.91878 -0.394924 0
M  V30 2052 H 184.182 0.075178 -0.743207 0
M  V30 2053 H 186.844 -0.518337 -1.87881 0
M  V30 2054 H 185.94 0.407096 -3.09434 0
M  V30 2055 N 186.241 1.57166 -0.116904 0
M  V30 2056 C 187.518 1.86645 0.585049 0
M  V30 2057 C 187.898 1.0177 1.84949 0
M  V30 2058 O 187.246 0.0960379 2.28298 0
M  V30 2059 C 187.456 3.37736 0.879507 0
M  V30 2060 C 188.804 4.06289 1.23348 0
M  V30 2061 O 189.828 3.42743 0.969836 0
M  V30 2062 O 188.687 5.18455 1.7282 0
M  V30 2063 H 185.781 0.772593 0.295007 0
M  V30 2064 H 188.327 1.69025 -0.151249 0
M  V30 2065 H 187.099 3.91296 -0.0166136 0
M  V30 2066 H 186.722 3.6078 1.67103 0
M  V30 2067 N 187.719 -0.156864 1.56817 0
M  V30 2068 C 188.949 -0.885031 1.86684 0
M  V30 2069 C 189.357 -1.75696 0.701954 0
M  V30 2070 O 188.7 -1.80569 -0.337732 0
M  V30 2071 C 188.762 -1.80092 3.11138 0
M  V30 2072 C 188.426 -1.10714 4.43386 0
M  V30 2073 C 189.423 -0.465714 5.1781 0
M  V30 2074 C 187.108 -1.09959 4.90117 0
M  V30 2075 C 189.102 0.174002 6.37162 0
M  V30 2076 C 186.789 -0.456055 6.09396 0
M  V30 2077 C 187.787 0.179622 6.82764 0
M  V30 2078 O 187.475 0.812975 7.99779 0
M  V30 2079 H 187.207 -0.261813 0.623242 0
M  V30 2080 H 189.761 -0.157383 2.04796 0
M  V30 2081 H 187.991 -2.56926 2.89009 0
M  V30 2082 H 189.68 -2.40018 3.27332 0
M  V30 2083 H 190.446 -0.463427 4.82781 0
M  V30 2084 H 186.325 -1.58378 4.3294 0
M  V30 2085 H 189.869 0.670765 6.94368 0
M  V30 2086 H 185.766 -0.455975 6.43888 0
M  V30 2087 H 186.534 0.71366 8.15383 0
M  V30 2088 N 189.197 -1.51736 -0.425897 0
M  V30 2089 C 190.147 -1.70258 -1.51645 0
M  V30 2090 C 191.131 -0.556488 -1.5097 0
M  V30 2091 O 192.323 -0.812879 -1.5723 0
M  V30 2092 C 189.452 -1.84143 -2.89735 0
M  V30 2093 C 188.538 -3.04572 -2.95122 0
M  V30 2094 N 188.929 -4.2756 -2.70233 0
M  V30 2095 C 187.227 -3.04061 -3.26286 0
M  V30 2096 C 187.928 -5.08908 -2.81757 0
M  V30 2097 N 186.904 -4.43797 -3.13919 0
M  V30 2098 H 190.706 -2.63004 -1.31172 0
M  V30 2099 H 188.22 -1.4954 -0.633375 0
M  V30 2100 H 190.217 -1.95525 -3.68206 0
M  V30 2101 H 188.877 -0.925857 -3.1122 0
M  V30 2102 H 189.888 -4.56315 -2.44943 0
M  V30 2103 H 186.565 -2.22179 -3.53473 0
M  V30 2104 H 187.955 -6.16843 -2.66372 0
M  V30 2105 N 190.675 0.682077 -1.42076 0
M  V30 2106 C 192.091 0.994324 -1.24841 0
M  V30 2107 C 192.291 2.0096 -0.147389 0
M  V30 2108 O 191.347 2.47822 0.483782 0
M  V30 2109 C 192.66 1.50607 -2.60265 0
M  V30 2110 C 194.208 1.62421 -2.6756 0
M  V30 2111 C 194.683 2.16994 -4.03333 0
M  V30 2112 N 196.174 2.24337 -4.0525 0
M  V30 2113 C 196.909 2.67621 -5.07116 0
M  V30 2114 N 196.405 3.1041 -6.19368 0
M  V30 2115 N 198.198 2.67305 -4.94474 0
M  V30 2116 H 190.349 0.00973908 -2.12398 0
M  V30 2117 H 192.612 0.0668593 -0.945639 0
M  V30 2118 H 192.318 0.834583 -3.41654 0
M  V30 2119 H 192.192 2.48602 -2.83684 0
M  V30 2120 H 194.579 2.28678 -1.86521 0
M  V30 2121 H 194.66 0.629352 -2.47937 0
M  V30 2122 H 194.304 1.51349 -4.84826 0
M  V30 2123 H 194.234 3.17258 -4.20304 0
M  V30 2124 H 196.725 1.94158 -3.24209 0
M  V30 2125 H 197.038 3.42103 -6.92954 0
M  V30 2126 H 195.383 3.08286 -6.22884 0
M  V30 2127 H 198.574 2.33233 -4.05857 0
M  V30 2128 H 198.747 3.00718 -5.73997 0
M  V30 2129 N 192.153 1.28127 0.917671 0
M  V30 2130 C 193.383 1.17722 1.6978 0
M  V30 2131 C 193.791 -0.267261 1.87303 0
M  V30 2132 O 193.134 -1.19286 1.39702 0
M  V30 2133 C 193.196 1.79958 3.11216 0
M  V30 2134 C 192.86 3.29187 3.16993 0
M  V30 2135 C 193.857 4.25679 2.98485 0
M  V30 2136 C 191.542 3.70075 3.39632 0
M  V30 2137 C 193.536 5.61035 3.02521 0
M  V30 2138 C 191.223 5.05557 3.433 0
M  V30 2139 C 192.221 6.00847 3.24764 0
M  V30 2140 O 191.909 7.33859 3.28187 0
M  V30 2141 H 191.641 0.409788 0.537634 0
M  V30 2142 H 194.195 1.69694 1.15728 0
M  V30 2143 H 192.425 1.22475 3.66793 0
M  V30 2144 H 194.114 1.64125 3.71238 0
M  V30 2145 H 194.88 3.95426 2.80826 0
M  V30 2146 H 190.759 2.96373 3.53106 0
M  V30 2147 H 194.303 6.35388 2.87971 0
M  V30 2148 H 190.2 5.35462 3.60486 0
M  V30 2149 H 190.968 7.42436 3.44575 0
M  V30 2150 N 193.631 -1.12557 1.10312 0
M  V30 2151 C 194.561 -2.20341 0.772798 0
M  V30 2152 C 195.542 -1.68198 -0.25365 0
M  V30 2153 O 196.727 -1.93831 -0.119699 0
M  V30 2154 C 193.857 -3.46709 0.202443 0
M  V30 2155 C 192.811 -4.11996 1.15943 0
M  V30 2156 C 192.137 -5.328 0.450345 0
M  V30 2157 C 193.437 -4.5828 2.50552 0
M  V30 2158 H 195.131 -2.48229 1.674 0
M  V30 2159 H 192.677 -1.19308 0.806326 0
M  V30 2160 H 194.63 -4.2138 -0.0407752 0
M  V30 2161 H 193.354 -3.18245 -0.734001 0
M  V30 2162 H 192.013 -3.39305 1.38808 0
M  V30 2163 H 191.661 -5.00602 -0.490531 0
M  V30 2164 H 191.361 -5.7743 1.08851 0
M  V30 2165 H 192.885 -6.10219 0.215642 0
M  V30 2166 H 194.299 -5.2433 2.31843 0
M  V30 2167 H 192.696 -5.13683 3.10242 0
M  V30 2168 H 193.766 -3.72329 3.10643 0
M  V30 2169 N 195.109 -0.891671 -1.2995 0
M  V30 2170 C 196.072 -0.36828 -2.26222 0
M  V30 2171 C 197.072 0.493014 -1.53056 0
M  V30 2172 O 198.262 0.299213 -1.71611 0
M  V30 2173 C 195.394 0.47442 -3.37583 0
M  V30 2174 H 196.587 -1.21844 -2.74033 0
M  V30 2175 H 194.14 -0.669107 -1.41254 0
M  V30 2176 H 194.875 1.34489 -2.95099 0
M  V30 2177 H 194.66 -0.142615 -3.91841 0
M  V30 2178 H 196.15 0.83218 -4.09224 0
M  V30 2179 N 196.587 1.43421 -0.653314 0
M  V30 2180 C 197.497 2.34568 0.0388565 0
M  V30 2181 C 198.513 1.53888 0.81207 0
M  V30 2182 O 199.689 1.86539 0.759294 0
M  V30 2183 C 196.754 3.32167 0.993269 0
M  V30 2184 C 195.815 4.28751 0.216977 0
M  V30 2185 C 195.048 5.21688 1.12593 0
M  V30 2186 O 195.271 5.19052 2.36519 0
M  V30 2187 O 194.205 5.98919 0.598284 0
M  V30 2188 H 198.031 2.95251 -0.711386 0
M  V30 2189 H 195.616 1.43564 -0.413502 0
M  V30 2190 H 197.498 3.92183 1.54176 0
M  V30 2191 H 196.173 2.73987 1.72374 0
M  V30 2192 H 195.08 3.72215 -0.375101 0
M  V30 2193 H 196.413 4.89913 -0.473924 0
M  V30 2194 N 198.065 0.39524 1.52563 0
M  V30 2195 C 199.312 -0.185044 2.01653 0
M  V30 2196 C 199.64 -1.46317 1.28146 0
M  V30 2197 O 198.895 -1.9213 0.372074 0
M  V30 2198 C 199.194 -0.493444 3.53977 0
M  V30 2199 C 198.86 0.69384 4.4553 0
M  V30 2200 C 197.522 1.01954 4.70275 0
M  V30 2201 C 199.874 1.48785 4.99512 0
M  V30 2202 C 197.202 2.14069 5.46252 0
M  V30 2203 C 199.554 2.59965 5.76716 0
M  V30 2204 C 198.218 2.93037 5.99738 0
M  V30 2205 H 197.488 -0.0677123 0.7379 0
M  V30 2206 H 200.135 0.533807 1.8391 0
M  V30 2207 H 198.44 -1.29369 3.69825 0
M  V30 2208 H 200.137 -0.955163 3.89458 0
M  V30 2209 H 196.727 0.429987 4.26438 0
M  V30 2210 H 200.911 1.24946 4.80315 0
M  V30 2211 H 196.167 2.40056 5.62302 0
M  V30 2212 H 200.341 3.21887 6.17545 0
M  V30 2213 H 197.968 3.8003 6.58393 0
M  V30 2214 N 199.544 -1.57102 0.125237 0
M  V30 2215 C 200.507 -2.14471 -0.80838 0
M  V30 2216 C 201.507 -1.0811 -1.19033 0
M  V30 2217 O 202.697 -1.33856 -1.11482 0
M  V30 2218 C 199.829 -2.69005 -2.09402 0
M  V30 2219 H 201.022 -2.98297 -0.309696 0
M  V30 2220 H 198.575 -1.55807 -0.124051 0
M  V30 2221 H 199.31 -1.88785 -2.63687 0
M  V30 2222 H 199.095 -3.46799 -1.82957 0
M  V30 2223 H 200.585 -3.13278 -2.76128 0
M  V30 2224 N 201.022 0.148545 -1.56898 0
M  V30 2225 C 202.25 0.876389 -1.87422 0
M  V30 2226 C 202.665 1.74809 -0.713256 0
M  V30 2227 O 202.022 1.79725 0.317025 0
M  V30 2228 C 202.073 1.73438 -3.17178 0
M  V30 2229 O 201.794 0.897809 -4.28802 0
M  V30 2230 C 203.295 2.56993 -3.61205 0
M  V30 2231 H 200.515 0.253489 -0.621277 0
M  V30 2232 H 203.059 0.141798 -2.04008 0
M  V30 2233 H 201.214 2.42205 -3.0235 0
M  V30 2234 H 201.628 1.48672 -5.02988 0
M  V30 2235 H 203.102 3.12773 -4.54838 0
M  V30 2236 H 203.579 3.32958 -2.86419 0
M  V30 2237 H 204.185 1.9352 -3.78722 0
M  V30 2238 N 202.5 1.5196 0.417844 0
M  V30 2239 C 203.748 1.65263 1.16329 0
M  V30 2240 C 204.069 0.380634 1.91249 0
M  V30 2241 O 203.339 -0.604214 1.86349 0
M  V30 2242 H 201.919 0.60912 0.432414 0
M  V30 2243 H 204.581 1.88969 0.477162 0
M  V30 2244 H 203.677 2.4896 1.88217 0
M  V30 2245 N 203.978 -0.674533 1.42435 0
M  V30 2246 C 204.926 -1.80934 1.46169 0
M  V30 2247 C 205.92 -1.66006 0.3374 0
M  V30 2248 O 207.126 -1.72611 0.510425 0
M  V30 2249 H 203.501 -0.596594 0.457798 0
M  V30 2250 H 205.472 -1.74903 2.41767 0
M  V30 2251 C 204.221 -3.19088 1.38123 0
M  V30 2252 H 203.544 -3.31203 2.23931 0
M  V30 2253 H 204.984 -3.9851 1.44797 0
M  V30 2254 C 203.443 -3.36763 0.0960517 0
M  V30 2255 O 203.973 -3.92581 -0.851073 0
M  V30 2256 N 202.179 -2.90597 0.0131186 0
M  V30 2257 H 201.726 -2.45359 0.784639 0
M  V30 2258 H 201.684 -3.028 -0.846133 0
M  V30 2259 N 205.456 -1.28612 -0.910864 0
M  V30 2260 C 206.733 -1.06632 -1.63979 0
M  V30 2261 C 207.113 0.393351 -2.07403 0
M  V30 2262 O 206.461 1.37999 -1.82122 0
M  V30 2263 C 206.671 -2.0436 -2.8291 0
M  V30 2264 C 208.019 -2.34666 -3.5386 0
M  V30 2265 O 209.043 -2.02467 -2.93062 0
M  V30 2266 O 207.902 -2.89631 -4.63439 0
M  V30 2267 H 204.996 -0.407737 -0.7195 0
M  V30 2268 H 207.542 -1.39942 -0.959914 0
M  V30 2269 H 206.314 -3.02727 -2.47936 0
M  V30 2270 H 205.937 -1.71714 -3.58609 0
M  V30 2271 N 206.934 1.1197 -1.10907 0
M  V30 2272 C 208.35 1.35591 -0.841852 0
M  V30 2273 C 208.55 1.94233 0.536246 0
M  V30 2274 O 207.606 2.1717 1.28816 0
M  V30 2275 C 208.919 2.29284 -1.94549 0
M  V30 2276 C 210.467 2.42862 -1.97451 0
M  V30 2277 C 210.942 3.39873 -3.07002 0
M  V30 2278 N 212.433 3.47433 -3.06341 0
M  V30 2279 C 213.168 4.22421 -3.87748 0
M  V30 2280 N 212.664 5.00432 -4.79103 0
M  V30 2281 N 214.457 4.17876 -3.75946 0
M  V30 2282 H 206.608 0.722664 -1.99728 0
M  V30 2283 H 208.871 0.380635 -0.868229 0
M  V30 2284 H 208.577 1.93378 -2.93765 0
M  V30 2285 H 208.451 3.29452 -1.83688 0
M  V30 2286 H 210.838 2.78046 -0.988645 0
M  V30 2287 H 210.919 1.42566 -2.12388 0
M  V30 2288 H 210.563 3.05417 -4.05811 0
M  V30 2289 H 210.493 4.40011 -2.89306 0
M  V30 2290 H 212.984 2.91784 -2.40147 0
M  V30 2291 H 213.297 5.55002 -5.37766 0
M  V30 2292 H 211.642 4.99612 -4.83128 0
M  V30 2293 H 214.833 3.56016 -3.03924 0
M  V30 2294 H 215.006 4.76061 -4.39624 0
M  V30 2295 N 208.412 0.89855 1.29475 0
M  V30 2296 C 209.359 0.373819 2.27753 0
M  V30 2297 C 210.329 -0.543444 1.56958 0
M  V30 2298 O 211.514 -0.468934 1.84948 0
M  V30 2299 C 208.654 -0.393648 3.42848 0
M  V30 2300 C 207.767 0.554379 4.28428 0
M  V30 2301 C 206.902 -0.230026 5.30702 0
M  V30 2302 C 205.941 0.712599 6.07938 0
M  V30 2303 N 205.078 -0.0373283 7.0209 0
M  V30 2304 H 209.918 1.21699 2.72017 0
M  V30 2305 H 207.455 0.611456 1.33789 0
M  V30 2306 H 209.413 -0.85466 4.08352 0
M  V30 2307 H 208.043 -1.20128 2.99615 0
M  V30 2308 H 207.095 1.13391 3.63107 0
M  V30 2309 H 208.407 1.27597 4.82204 0
M  V30 2310 H 207.561 -0.752288 6.02018 0
M  V30 2311 H 206.3 -0.984758 4.77654 0
M  V30 2312 H 205.305 1.24637 5.35486 0
M  V30 2313 H 206.53 1.46664 6.63074 0
M  V30 2314 H 204.476 -0.774348 6.51414 0
M  V30 2315 H 204.393 0.624374 7.53417 0
M  V30 2316 H 205.661 -0.539891 7.77628 0
M  V30 2317 N 209.89 -1.43072 0.660911 0
M  V30 2318 C 210.8 -2.34585 -0.0264163 0
M  V30 2319 C 211.816 -1.54316 -0.803898 0
M  V30 2320 O 212.992 -1.86939 -0.749391 0
M  V30 2321 C 210.057 -3.32689 -0.975639 0
M  V30 2322 C 209.118 -4.2886 -0.194236 0
M  V30 2323 C 208.351 -5.22278 -1.09825 0
M  V30 2324 O 208.574 -5.20299 -2.33763 0
M  V30 2325 O 207.508 -5.99228 -0.566513 0
M  V30 2326 H 211.334 -2.94869 0.727034 0
M  V30 2327 H 208.919 -1.43342 0.42111 0
M  V30 2328 H 210.801 -3.92995 -1.52094 0
M  V30 2329 H 209.476 -2.74898 -1.70918 0
M  V30 2330 H 208.383 -3.72011 0.394835 0
M  V30 2331 H 209.716 -4.89655 0.499899 0
M  V30 2332 N 211.368 -0.403325 -1.52352 0
M  V30 2333 C 212.331 0.413051 -2.25447 0
M  V30 2334 C 213.331 0.978513 -1.276 0
M  V30 2335 O 214.521 0.858305 -1.51587 0
M  V30 2336 C 211.653 1.58087 -3.02029 0
M  V30 2337 H 212.846 -0.227094 -2.99039 0
M  V30 2338 H 210.399 -0.155722 -1.55522 0
M  V30 2339 H 211.134 2.25804 -2.32772 0
M  V30 2340 H 210.919 1.18195 -3.73861 0
M  V30 2341 H 212.409 2.1585 -3.57489 0
M  V30 2342 N 212.846 1.57033 -0.133567 0
M  V30 2343 C 213.809 2.14897 0.796995 0
M  V30 2344 C 214.809 1.0874 1.18458 0
M  V30 2345 O 215.999 1.34446 1.1077 0
M  V30 2346 C 213.131 2.70112 2.07973 0
M  V30 2347 H 214.324 2.98457 0.293873 0
M  V30 2348 H 211.877 1.55871 0.115787 0
M  V30 2349 H 212.612 1.9018 2.62682 0
M  V30 2350 H 212.397 3.47764 1.81115 0
M  V30 2351 H 213.887 3.14738 2.74462 0
M  V30 2352 N 214.325 -0.140222 1.56975 0
M  V30 2353 C 215.235 -1.19223 2.02047 0
M  V30 2354 C 216.251 -1.46612 0.937062 0
M  V30 2355 O 217.427 -1.58148 1.24704 0
M  V30 2356 C 214.492 -2.50414 2.39778 0
M  V30 2357 C 213.553 -2.30612 3.621 0
M  V30 2358 C 212.786 -3.55547 3.98023 0
M  V30 2359 O 213.009 -4.62004 3.34528 0
M  V30 2360 O 211.943 -3.47808 4.91237 0
M  V30 2361 H 215.769 -0.839559 2.91865 0
M  V30 2362 H 213.354 -0.349453 1.45256 0
M  V30 2363 H 215.236 -3.27747 2.64877 0
M  V30 2364 H 213.911 -2.85198 1.53114 0
M  V30 2365 H 212.818 -1.51207 3.4218 0
M  V30 2366 H 214.151 -2.00741 4.49404 0
M  V30 2367 N 215.803 -1.52179 -0.40978 0
M  V30 2368 C 216.751 -1.76086 -1.51975 0
M  V30 2369 C 217.745 -0.627964 -1.57331 0
M  V30 2370 O 218.951 -0.809993 -1.60745 0
M  V30 2371 H 215.326 -0.556829 -0.505416 0
M  V30 2372 H 217.297 -2.69077 -1.28996 0
M  V30 2373 C 216.046 -1.92799 -2.8935 0
M  V30 2374 H 215.369 -2.79392 -2.85972 0
M  V30 2375 H 216.809 -2.13527 -3.66309 0
M  V30 2376 C 215.268 -0.694923 -3.29655 0
M  V30 2377 O 215.798 0.13751 -4.01465 0
M  V30 2378 N 214.004 -0.53101 -2.85707 0
M  V30 2379 H 213.551 -1.20952 -2.27439 0
M  V30 2380 H 213.509 0.292718 -3.13034 0
M  V30 2381 N 217.281 0.66697 -1.42791 0
M  V30 2382 C 218.506 1.46004 -1.47301 0
M  V30 2383 C 218.931 1.87894 -0.0880317 0
M  V30 2384 O 218.289 1.56502 0.915253 0
M  V30 2385 C 218.337 2.68031 -2.41229 0
M  V30 2386 O 217.441 3.6659 -1.88906 0
M  V30 2387 H 216.782 0.43832 -0.49877 0
M  V30 2388 H 219.312 0.817391 -1.87563 0
M  V30 2389 H 219.322 3.1601 -2.58073 0
M  V30 2390 H 217.997 2.36883 -3.41847 0
M  V30 2391 H 216.574 3.25661 -1.81656 0
M  V30 2392 N 218.759 1.29093 0.90403 0
M  V30 2393 C 219.689 1.16401 2.02418 0
M  V30 2394 C 220.67 0.0593085 1.69997 0
M  V30 2395 O 221.855 0.238021 1.92736 0
M  V30 2396 C 218.985 0.835233 3.37107 0
M  V30 2397 C 217.939 1.89578 3.83724 0
M  V30 2398 C 217.265 1.42041 5.15489 0
M  V30 2399 C 218.565 3.30394 4.04521 0
M  V30 2400 H 220.259 2.10109 2.13295 0
M  V30 2401 H 217.805 1.01157 1.02486 0
M  V30 2402 H 219.758 0.733169 4.14973 0
M  V30 2403 H 218.482 -0.137543 3.2631 0
M  V30 2404 H 217.141 1.98715 3.08071 0
M  V30 2405 H 216.789 0.436426 5.01103 0
M  V30 2406 H 216.489 2.12964 5.4765 0
M  V30 2407 H 218.013 1.33176 5.959 0
M  V30 2408 H 219.427 3.24123 4.72882 0
M  V30 2409 H 217.824 3.99237 4.48029 0
M  V30 2410 H 218.894 3.73692 3.09002 0
M  V30 2411 N 220.237 -1.11381 1.11499 0
M  V30 2412 C 221.483 -1.83403 0.865512 0
M  V30 2413 C 221.816 -1.84459 -0.607329 0
M  V30 2414 O 221.091 -1.29811 -1.44842 0
M  V30 2415 C 221.374 -3.30552 1.42855 0
M  V30 2416 C 221.227 -3.37886 2.96906 0
M  V30 2417 C 222.546 -4.26643 1.08 0
M  V30 2418 H 219.665 -0.665879 0.31587 0
M  V30 2419 H 222.307 -1.30601 1.37998 0
M  V30 2420 H 220.457 -3.75648 0.990985 0
M  V30 2421 H 222.129 -3.01343 3.49271 0
M  V30 2422 H 220.372 -2.78088 3.32941 0
M  V30 2423 H 221.043 -4.41458 3.31389 0
M  V30 2424 H 223.519 -3.89729 1.45775 0
M  V30 2425 H 222.395 -5.27986 1.50072 0
M  V30 2426 H 222.656 -4.42099 -0.00915037 0
M  V30 2427 N 221.715 -0.905404 -1.28997 0
M  V30 2428 C 222.678 -0.392253 -2.25819 0
M  V30 2429 C 223.678 0.476753 -1.5357 0
M  V30 2430 O 224.868 0.280994 -1.71919 0
M  V30 2431 C 222 0.438588 -3.38067 0
M  V30 2432 H 223.193 -1.24743 -2.72725 0
M  V30 2433 H 220.746 -0.684051 -1.40536 0
M  V30 2434 H 221.481 1.31352 -2.96508 0
M  V30 2435 H 221.266 -0.184167 -3.91667 0
M  V30 2436 H 222.756 0.78873 -4.10084 0
M  V30 2437 N 223.193 1.4272 -0.668489 0
M  V30 2438 C 224.423 2.05668 -0.196063 0
M  V30 2439 C 224.831 1.5028 1.14946 0
M  V30 2440 O 224.174 0.6348 1.72383 0
M  V30 2441 C 224.236 3.59469 -0.0468879 0
M  V30 2442 C 223.9 4.37518 -1.32012 0
M  V30 2443 C 224.897 4.68584 -2.25222 0
M  V30 2444 C 222.582 4.77266 -1.56596 0
M  V30 2445 C 224.576 5.38326 -3.41297 0
M  V30 2446 C 222.263 5.4675 -2.72962 0
M  V30 2447 C 223.261 5.77204 -3.65137 0
M  V30 2448 O 222.949 6.45264 -4.79468 0
M  V30 2449 H 222.681 0.669382 -0.0943599 0
M  V30 2450 H 225.235 1.83954 -0.913788 0
M  V30 2451 H 223.465 3.79817 0.726357 0
M  V30 2452 H 225.154 4.04071 0.384852 0
M  V30 2453 H 225.92 4.38382 -2.07477 0
M  V30 2454 H 221.799 4.52959 -0.857249 0
M  V30 2455 H 225.343 5.62014 -4.13263 0
M  V30 2456 H 221.24 5.76369 -2.90635 0
M  V30 2457 H 222.008 6.63753 -4.78931 0
M  V30 2458 N 224.671 0.411399 1.52136 0
M  V30 2459 C 225.618 -0.412975 2.27075 0
M  V30 2460 C 226.588 -1.03912 1.29582 0
M  V30 2461 O 227.773 -1.06296 1.58448 0
M  V30 2462 C 224.913 -1.52247 3.09701 0
M  V30 2463 C 224.026 -0.917021 4.22155 0
M  V30 2464 C 223.161 -1.9994 4.92135 0
M  V30 2465 C 222.2 -1.37101 5.96548 0
M  V30 2466 N 221.337 -2.39364 6.60038 0
M  V30 2467 H 226.177 0.232499 2.97092 0
M  V30 2468 H 223.714 0.126496 1.46555 0
M  V30 2469 H 225.672 -2.17674 3.55913 0
M  V30 2470 H 224.302 -2.13794 2.41851 0
M  V30 2471 H 223.354 -0.151742 3.80097 0
M  V30 2472 H 224.666 -0.418006 4.97045 0
M  V30 2473 H 223.82 -2.73088 5.41763 0
M  V30 2474 H 222.559 -2.53208 4.16818 0
M  V30 2475 H 221.564 -0.624873 5.46237 0
M  V30 2476 H 222.789 -0.845998 6.7381 0
M  V30 2477 H 220.735 -2.91759 5.87548 0
M  V30 2478 H 220.652 -1.9428 7.3061 0
M  V30 2479 H 221.92 -3.12074 7.14304 0
M  V30 2480 N 226.149 -1.5696 0.141893 0
M  V30 2481 C 227.112 -2.15316 -0.785587 0
M  V30 2482 C 228.112 -1.09366 -1.1788 0
M  V30 2483 O 229.302 -1.35031 -1.10056 0
M  V30 2484 C 226.434 -2.71211 -2.06537 0
M  V30 2485 H 227.627 -2.98608 -0.278041 0
M  V30 2486 H 225.18 -1.5593 -0.107519 0
M  V30 2487 H 225.915 -1.91571 -2.6167 0
M  V30 2488 H 225.7 -3.4872 -1.79268 0
M  V30 2489 H 227.19 -3.16189 -2.72789 0
M  V30 2490 N 227.627 0.131896 -1.57047 0
M  V30 2491 C 228.59 1.14638 -1.98471 0
M  V30 2492 C 229.59 1.35029 -0.873148 0
M  V30 2493 O 230.78 1.31764 -1.13946 0
M  V30 2494 C 227.912 2.50358 -2.31373 0
M  V30 2495 H 229.105 0.79064 -2.8929 0
M  V30 2496 H 226.658 0.375761 -1.51716 0
M  V30 2497 H 227.393 2.90876 -1.43393 0
M  V30 2498 H 227.178 2.36915 -3.12432 0
M  V30 2499 H 228.668 3.23395 -2.64207 0
M  V30 2500 N 229.106 1.52395 0.401703 0
M  V30 2501 C 230.331 1.70972 1.17403 0
M  V30 2502 C 230.756 0.421615 1.83314 0
M  V30 2503 O 230.114 -0.621564 1.70312 0
M  V30 2504 C 230.162 2.85151 2.20728 0
M  V30 2505 O 229.266 2.51238 3.27037 0
M  V30 2506 H 228.607 0.568927 0.342372 0
M  V30 2507 H 231.137 1.99131 0.469891 0
M  V30 2508 H 231.147 3.10279 2.64936 0
M  V30 2509 H 229.822 3.78603 1.7214 0
M  V30 2510 H 228.399 2.36808 2.88057 0
M  V30 2511 N 230.584 -0.659388 1.43143 0
M  V30 2512 C 231.861 -1.41627 1.34912 0
M  V30 2513 C 232.241 -2.11099 -0.00607785 0
M  V30 2514 O 231.589 -2.04353 -1.02236 0
M  V30 2515 C 231.799 -2.40604 2.52805 0
M  V30 2516 C 233.147 -3.04789 2.95616 0
M  V30 2517 O 234.171 -2.50932 2.52807 0
M  V30 2518 O 233.03 -4.02421 3.69756 0
M  V30 2519 H 230.124 -0.63246 0.532844 0
M  V30 2520 H 232.67 -0.686814 1.5518 0
M  V30 2521 H 231.442 -1.88174 3.43083 0
M  V30 2522 H 231.065 -3.21009 2.34604 0
M  V30 2523 N 232.062 -1.29571 -0.897171 0
M  V30 2524 C 233.311 -1.1706 -1.64256 0
M  V30 2525 C 233.624 0.276476 -1.93636 0
M  V30 2526 O 234.83 0.52294 -2.66416 0
M  V30 2527 C 233.286 -2.0475 -2.95982 0
M  V30 2528 C 232.894 -3.54295 -2.74187 0
M  V30 2529 C 234.638 -2.0097 -3.73914 0
M  V30 2530 C 232.545 -4.34081 -4.01656 0
M  V30 2531 H 231.475 -0.43452 -0.616205 0
M  V30 2532 H 234.126 -1.54229 -0.994268 0
M  V30 2533 H 232.508 -1.60452 -3.62038 0
M  V30 2534 H 233.682 -4.06662 -2.1671 0
M  V30 2535 H 231.997 -3.59773 -2.09648 0
M  V30 2536 H 234.594 -2.57838 -4.68427 0
M  V30 2537 H 234.937 -0.990273 -4.0435 0
M  V30 2538 H 235.47 -2.43325 -3.14703 0
M  V30 2539 H 232.209 -5.36671 -3.76384 0
M  V30 2540 H 231.729 -3.86483 -4.58684 0
M  V30 2541 H 233.408 -4.44877 -4.69781 0
M  V30 2542 N 233.54 1.10788 -1.12088 0
M  V30 2543 C 234.503 2.15207 -0.788577 0
M  V30 2544 C 235.503 1.59609 0.195317 0
M  V30 2545 O 236.693 1.74174 -0.0300193 0
M  V30 2546 C 233.825 3.4047 -0.171174 0
M  V30 2547 H 235.018 2.46116 -1.71368 0
M  V30 2548 H 232.571 1.26089 -0.923652 0
M  V30 2549 H 233.306 3.15176 0.763832 0
M  V30 2550 H 233.091 3.82109 -0.879514 0
M  V30 2551 H 234.581 4.17576 0.04496 0
M  V30 2552 N 235.018 0.912232 1.28515 0
M  V30 2553 C 235.951 0.343928 2.25593 0
M  V30 2554 C 236.929 -0.550994 1.5298 0
M  V30 2555 O 238.113 -0.494991 1.81885 0
M  V30 2556 C 235.24 -0.508525 3.34861 0
M  V30 2557 C 234.286 0.320808 4.25292 0
M  V30 2558 S 235.119 1.72658 5.06902 0
M  V30 2559 C 236.275 0.881394 6.19663 0
M  V30 2560 H 236.508 1.16674 2.73449 0
M  V30 2561 H 234.041 0.713384 1.36931 0
M  V30 2562 H 235.999 -0.994539 3.9827 0
M  V30 2563 H 234.66 -1.30571 2.85675 0
M  V30 2564 H 233.853 -0.330941 5.02912 0
M  V30 2565 H 233.455 0.74042 3.66598 0
M  V30 2566 H 235.747 0.110359 6.7741 0
M  V30 2567 H 236.69 1.63009 6.89082 0
M  V30 2568 H 237.098 0.430239 5.62858 0
M  V30 2569 N 236.496 -1.42363 0.676048 0
M  V30 2570 C 237.724 -2.05859 0.207268 0
M  V30 2571 C 238.139 -1.50796 -1.13605 0
M  V30 2572 O 237.496 -0.648265 -1.70598 0
M  V30 2573 C 237.547 -3.61248 0.134975 0
M  V30 2574 O 237.268 -4.1427 1.42521 0
M  V30 2575 C 238.769 -4.41859 -0.357151 0
M  V30 2576 H 235.989 -0.663431 0.100503 0
M  V30 2577 H 238.533 -1.82479 0.923136 0
M  V30 2578 H 236.688 -3.83735 -0.531588 0
M  V30 2579 H 237.102 -5.0815 1.29939 0
M  V30 2580 H 238.576 -5.50847 -0.356641 0
M  V30 2581 H 239.053 -4.16536 -1.39264 0
M  V30 2582 H 239.659 -4.24392 0.27772 0
M  V30 2583 N 237.974 -0.419461 -1.51915 0
M  V30 2584 C 238.884 0.407528 -2.31033 0
M  V30 2585 C 239.9 1.04413 -1.3919 0
M  V30 2586 O 241.076 1.0434 -1.72265 0
M  V30 2587 C 238.141 1.50365 -3.12396 0
M  V30 2588 C 237.202 0.889029 -4.19994 0
M  V30 2589 C 236.435 1.93291 -4.97468 0
M  V30 2590 O 236.658 3.15259 -4.75361 0
M  V30 2591 O 235.592 1.53339 -5.8204 0
M  V30 2592 H 239.418 -0.237865 -3.02767 0
M  V30 2593 H 237.003 -0.182413 -1.48282 0
M  V30 2594 H 238.885 2.13975 -3.63032 0
M  V30 2595 H 237.56 2.13345 -2.43445 0
M  V30 2596 H 236.467 0.215353 -3.7348 0
M  V30 2597 H 237.8 0.302991 -4.91267 0
M  V30 2598 N 239.452 1.56882 -0.150215 0
M  V30 2599 C 240.382 2.19935 0.784284 0
M  V30 2600 C 241.363 1.14854 1.25469 0
M  V30 2601 O 242.548 1.43209 1.31168 0
M  V30 2602 C 239.678 2.82349 2.02229 0
M  V30 2603 C 238.632 3.93285 1.68853 0
M  V30 2604 C 237.958 4.42649 2.99944 0
M  V30 2605 C 239.258 5.13904 0.932714 0
M  V30 2606 H 240.952 2.9828 0.258781 0
M  V30 2607 H 238.498 1.43473 0.123029 0
M  V30 2608 H 240.451 3.25126 2.68088 0
M  V30 2609 H 239.175 2.0134 2.57157 0
M  V30 2610 H 237.834 3.5113 1.05371 0
M  V30 2611 H 237.482 3.58458 3.52869 0
M  V30 2612 H 237.182 5.17476 2.78374 0
M  V30 2613 H 238.706 4.88099 3.66868 0
M  V30 2614 H 240.12 5.53506 1.49345 0
M  V30 2615 H 238.517 5.94515 0.81684 0
M  V30 2616 H 239.587 4.84842 -0.0749568 0
M  V30 2617 N 240.93 -0.123565 1.57115 0
M  V30 2618 C 242.341 -0.681198 1.73829 0
M  V30 2619 C 242.692 -1.80535 0.768214 0
M  V30 2620 O 241.817 -2.16317 -0.0599103 0
M  V30 2621 C 242.412 -1.24246 3.15196 0
M  V30 2622 C 240.971 -1.74643 3.33432 0
M  V30 2623 C 240.118 -0.644284 2.69711 0
M  V30 2624 H 243.069 0.102315 1.5837 0
M  V30 2625 H 243.09 -2.11216 3.16493 0
M  V30 2626 H 242.602 -0.424062 3.85776 0
M  V30 2627 H 240.703 -2.58974 2.67886 0
M  V30 2628 H 240.816 -1.85902 4.41562 0
M  V30 2629 H 239.18 -1.07676 2.3082 0
M  V30 2630 H 239.963 0.163058 3.42913 0
M  V30 2631 N 242.408 -1.52605 -0.393616 0
M  V30 2632 C 243.819 -1.59417 -0.971761 0
M  V30 2633 C 244.17 -0.444173 -1.91106 0
M  V30 2634 O 243.295 0.433382 -2.12016 0
M  V30 2635 C 243.89 -2.88936 -1.76921 0
M  V30 2636 C 242.449 -2.98175 -2.29714 0
M  V30 2637 C 241.596 -2.54491 -1.10135 0
M  V30 2638 H 244.547 -1.57751 -0.173317 0
M  V30 2639 H 244.568 -2.75163 -2.62804 0
M  V30 2640 H 244.08 -3.72616 -1.08532 0
M  V30 2641 H 242.181 -2.19024 -3.01429 0
M  V30 2642 H 242.294 -4.02726 -2.59517 0
M  V30 2643 H 240.658 -2.08702 -1.45999 0
M  V30 2644 H 241.441 -3.4056 -0.432874 0
M  V30 2645 N 243.887 0.651787 -1.4349 0
M  V30 2646 C 245.115 1.43937 -1.48626 0
M  V30 2647 C 245.53 1.8851 -0.104587 0
M  V30 2648 O 244.887 1.5958 0.885464 0
M  V30 2649 C 244.938 2.6734 -2.43334 0
M  V30 2650 O 244.659 2.24631 -3.76128 0
M  V30 2651 C 246.16 3.60683 -2.57726 0
M  V30 2652 H 243.38 0.44213 -0.504739 0
M  V30 2653 H 245.924 0.798944 -1.88248 0
M  V30 2654 H 244.079 3.2752 -2.06904 0
M  V30 2655 H 244.493 3.04485 -4.2707 0
M  V30 2656 H 245.967 4.43933 -3.28067 0
M  V30 2657 H 246.444 4.08126 -1.62265 0
M  V30 2658 H 247.05 3.06384 -2.94973 0
M  V30 2659 N 245.365 1.30045 0.890287 0
M  V30 2660 C 246.315 1.12592 1.9826 0
M  V30 2661 C 247.299 0.0426021 1.60844 0
M  V30 2662 O 248.491 0.265346 1.75 0
M  V30 2663 C 245.62 0.814301 3.33503 0
M  V30 2664 C 244.706 1.93761 3.7725 0
M  V30 2665 N 245.097 3.18232 3.93143 0
M  V30 2666 C 243.395 1.83277 4.06602 0
M  V30 2667 C 244.096 3.9158 4.30163 0
M  V30 2668 N 243.072 3.19591 4.3973 0
M  V30 2669 H 246.874 2.07003 2.08631 0
M  V30 2670 H 244.388 1.21307 1.07974 0
M  V30 2671 H 246.385 0.67029 4.11476 0
M  V30 2672 H 245.045 -0.121797 3.24471 0
M  V30 2673 H 246.056 3.53581 3.78419 0
M  V30 2674 H 242.733 0.97001 4.06075 0
M  V30 2675 H 244.123 4.98744 4.50226 0
M  V30 2676 N 246.843 -1.10192 1.12674 0
M  V30 2677 C 248.254 -1.63707 0.897604 0
M  V30 2678 C 248.605 -1.87812 -0.567546 0
M  V30 2679 O 247.73 -1.62196 -1.43253 0
M  V30 2680 C 248.325 -2.974 1.62292 0
M  V30 2681 C 246.884 -3.47772 1.43986 0
M  V30 2682 C 246.031 -2.22332 1.65722 0
M  V30 2683 H 248.982 -0.936587 1.28116 0
M  V30 2684 H 249.003 -3.64986 1.07541 0
M  V30 2685 H 248.515 -2.79824 2.68924 0
M  V30 2686 H 246.616 -3.70487 0.396206 0
M  V30 2687 H 246.729 -4.25723 2.19765 0
M  V30 2688 H 245.093 -2.30599 1.08149 0
M  V30 2689 H 245.876 -2.07285 2.73657 0
M  V30 2690 N 248.321 -0.919034 -1.28029 0
M  V30 2691 C 249.57 -0.550802 -1.94034 0
M  V30 2692 C 249.883 0.910877 -1.73096 0
M  V30 2693 O 251.089 1.3875 -2.33368 0
M  V30 2694 C 249.545 -0.934249 -3.47563 0
M  V30 2695 C 249.153 -2.41602 -3.7727 0
M  V30 2696 C 250.897 -0.636854 -4.19696 0
M  V30 2697 C 248.804 -2.73932 -5.24133 0
M  V30 2698 H 247.734 -0.202273 -0.726362 0
M  V30 2699 H 250.385 -1.11867 -1.45458 0
M  V30 2700 H 248.767 -0.295115 -3.94899 0
M  V30 2701 H 249.941 -3.10233 -3.40723 0
M  V30 2702 H 248.256 -2.68441 -3.18321 0
M  V30 2703 H 250.853 -0.855005 -5.2782 0
M  V30 2704 H 251.196 0.425575 -4.14119 0
M  V30 2705 H 251.729 -1.23469 -3.78154 0
M  V30 2706 H 248.468 -3.79049 -5.34792 0
M  V30 2707 H 247.988 -2.09942 -5.61858 0
M  V30 2708 H 249.667 -2.61215 -5.91925 0
M  V30 2709 N 249.799 1.42003 -0.683588 0
M  V30 2710 C 251.215 1.55625 -0.353976 0
M  V30 2711 C 251.415 1.66151 1.14 0
M  V30 2712 O 250.471 1.63329 1.92561 0
M  V30 2713 C 251.784 2.80171 -1.092 0
M  V30 2714 C 253.332 2.93954 -1.07518 0
M  V30 2715 C 253.807 4.21372 -1.79471 0
M  V30 2716 N 255.298 4.28303 -1.76381 0
M  V30 2717 C 256.033 5.25729 -2.28904 0
M  V30 2718 N 255.529 6.29254 -2.89846 0
M  V30 2719 N 257.322 5.17586 -2.19228 0
M  V30 2720 H 249.473 1.33415 -1.6527 0
M  V30 2721 H 251.736 0.64282 -0.696769 0
M  V30 2722 H 251.442 2.78561 -2.14701 0
M  V30 2723 H 251.316 3.7133 -0.662862 0
M  V30 2724 H 253.703 2.95086 -0.028475 0
M  V30 2725 H 253.784 2.04002 -1.54328 0
M  V30 2726 H 253.428 4.21001 -2.84114 0
M  V30 2727 H 253.358 5.10275 -1.30104 0
M  V30 2728 H 255.849 3.54119 -1.31939 0
M  V30 2729 H 256.162 6.99964 -3.27522 0
M  V30 2730 H 254.507 6.29791 -2.93919 0
M  V30 2731 H 257.698 4.35631 -1.71299 0
M  V30 2732 H 257.871 5.93348 -2.60466 0
M  V30 2733 N 251.277 0.427512 1.51691 0
M  V30 2734 C 252.207 -0.3796 2.30394 0
M  V30 2735 C 253.188 -1.02982 1.35384 0
M  V30 2736 O 254.373 -1.03534 1.643 0
M  V30 2737 C 251.503 -1.48649 3.1388 0
M  V30 2738 C 250.457 -0.960294 4.17088 0
M  V30 2739 C 249.783 -2.16219 4.89033 0
M  V30 2740 C 251.083 -0.00153679 5.223 0
M  V30 2741 H 252.777 0.277164 2.98114 0
M  V30 2742 H 250.323 0.134739 1.43368 0
M  V30 2743 H 252.276 -2.05826 3.67714 0
M  V30 2744 H 251 -2.1714 2.43962 0
M  V30 2745 H 249.659 -0.410806 3.64291 0
M  V30 2746 H 249.307 -2.83307 4.15628 0
M  V30 2747 H 249.007 -1.81654 5.58816 0
M  V30 2748 H 250.531 -2.73968 5.45687 0
M  V30 2749 H 251.945 -0.482687 5.71264 0
M  V30 2750 H 250.342 0.256199 5.99553 0
M  V30 2751 H 251.412 0.938174 4.75738 0
M  V30 2752 N 252.755 -1.56801 0.158532 0
M  V30 2753 C 254.003 -1.96102 -0.488712 0
M  V30 2754 C 254.324 -1.04498 -1.64636 0
M  V30 2755 O 253.594 -0.108783 -1.95598 0
M  V30 2756 H 252.174 -0.724102 -0.183535 0
M  V30 2757 H 254.836 -1.93457 0.236728 0
M  V30 2758 H 253.932 -3.00097 -0.857219 0
M  V30 2759 N 254.233 0.115231 -1.57178 0
M  V30 2760 C 255.163 1.1423 -2.03651 0
M  V30 2761 C 256.144 1.42967 -0.921655 0
M  V30 2762 O 257.329 1.53343 -1.19162 0
M  V30 2763 C 254.459 2.4675 -2.44401 0
M  V30 2764 C 253.413 2.32467 -3.59365 0
M  V30 2765 C 252.739 3.69984 -3.86026 0
M  V30 2766 C 254.039 1.78203 -4.90959 0
M  V30 2767 H 255.733 0.755749 -2.89705 0
M  V30 2768 H 253.279 0.362093 -1.39373 0
M  V30 2769 H 255.232 3.18854 -2.75517 0
M  V30 2770 H 253.956 2.87302 -1.55322 0
M  V30 2771 H 252.615 1.62811 -3.28463 0
M  V30 2772 H 252.263 4.08028 -2.94147 0
M  V30 2773 H 251.963 3.61279 -4.63412 0
M  V30 2774 H 253.487 4.43587 -4.19599 0
M  V30 2775 H 254.901 2.40128 -5.20587 0
M  V30 2776 H 253.298 1.8031 -5.72371 0
M  V30 2777 H 254.368 0.739876 -4.79222 0
M  V30 2778 N 255.711 1.52812 0.385517 0
M  V30 2779 C 256.674 1.77188 1.45386 0
M  V30 2780 C 257.674 0.641953 1.4743 0
M  V30 2781 O 258.864 0.910033 1.4854 0
M  V30 2782 C 255.996 1.87582 2.8465 0
M  V30 2783 H 257.189 2.72583 1.25054 0
M  V30 2784 H 254.742 1.43586 0.617467 0
M  V30 2785 H 255.477 0.941849 3.10322 0
M  V30 2786 H 255.262 2.69748 2.84567 0
M  V30 2787 H 256.752 2.08102 3.62054 0
M  V30 2788 N 257.189 -0.644168 1.43834 0
M  V30 2789 C 258.119 -1.76814 1.52509 0
M  V30 2790 C 259.1 -1.65823 0.379052 0
M  V30 2791 O 260.285 -1.84781 0.597466 0
M  V30 2792 C 257.415 -3.15288 1.4564 0
M  V30 2793 C 256.369 -3.41053 2.58586 0
M  V30 2794 C 255.695 -4.79421 2.36769 0
M  V30 2795 C 256.995 -3.34902 4.00797 0
M  V30 2796 H 258.689 -1.69812 2.46586 0
M  V30 2797 H 256.235 -0.815542 1.1868 0
M  V30 2798 H 258.188 -3.93681 1.50311 0
M  V30 2799 H 256.912 -3.23043 0.480725 0
M  V30 2800 H 255.571 -2.65035 2.53282 0
M  V30 2801 H 255.219 -4.83863 1.37424 0
M  V30 2802 H 254.919 -4.9762 3.12487 0
M  V30 2803 H 256.443 -5.6006 2.43238 0
M  V30 2804 H 257.857 -4.03218 4.07539 0
M  V30 2805 H 256.254 -3.64637 4.76613 0
M  V30 2806 H 257.324 -2.32928 4.25291 0
M  V30 2807 N 258.668 -1.30515 -0.883378 0
M  V30 2808 C 259.616 -1.16941 -2.01066 0
M  V30 2809 C 260.61 -0.0809148 -1.69207 0
M  V30 2810 O 261.816 -0.241877 -1.78367 0
M  V30 2811 H 258.191 -0.361705 -0.659298 0
M  V30 2812 H 260.162 -2.12344 -2.09649 0
M  V30 2813 C 258.911 -0.879694 -3.36388 0
M  V30 2814 H 258.234 -1.70936 -3.61415 0
M  V30 2815 H 259.674 -0.82483 -4.159 0
M  V30 2816 C 258.133 0.417409 -3.34304 0
M  V30 2817 O 258.663 1.43843 -3.75063 0
M  V30 2818 N 256.869 0.429141 -2.87414 0
M  V30 2819 H 256.416 -0.402222 -2.5444 0
M  V30 2820 H 256.374 1.29696 -2.86403 0
M  V30 2821 N 260.146 1.09593 -1.13257 0
M  V30 2822 C 261.393 1.81734 -0.893257 0
M  V30 2823 C 261.721 1.8563 0.580656 0
M  V30 2824 O 260.976 1.31906 1.44566 0
M  V30 2825 C 261.275 3.27802 -1.42411 0
M  V30 2826 C 260.941 3.44041 -2.91456 0
M  V30 2827 C 259.603 3.48181 -3.3215 0
M  V30 2828 C 261.955 3.48719 -3.87356 0
M  V30 2829 C 259.283 3.54575 -4.67433 0
M  V30 2830 C 261.635 3.56648 -5.2248 0
M  V30 2831 C 260.299 3.59055 -5.62704 0
M  V30 2832 H 259.569 0.665011 -0.326866 0
M  V30 2833 H 262.216 1.2912 -1.41422 0
M  V30 2834 H 260.521 3.83042 -0.823795 0
M  V30 2835 H 262.218 3.82149 -1.21503 0
M  V30 2836 H 258.808 3.41502 -2.58987 0
M  V30 2837 H 262.992 3.44763 -3.57004 0
M  V30 2838 H 258.248 3.54725 -4.97976 0
M  V30 2839 H 262.422 3.59212 -5.96607 0
M  V30 2840 H 260.049 3.63763 -6.67518 0
M  V30 2841 N 261.624 0.925811 1.2754 0
M  V30 2842 C 262.849 0.580924 1.99098 0
M  V30 2843 C 263.274 -0.833555 1.68622 0
M  V30 2844 O 262.632 -1.55903 0.925422 0
M  V30 2845 C 262.68 0.811186 3.51358 0
M  V30 2846 O 261.784 -0.124129 4.12213 0
M  V30 2847 H 261.125 0.223873 0.625122 0
M  V30 2848 H 263.655 1.24455 1.62395 0
M  V30 2849 H 263.665 0.72601 4.01489 0
M  V30 2850 H 262.34 1.84227 3.72872 0
M  V30 2851 H 260.917 0.0108006 3.72898 0
M  V30 2852 N 263.102 -1.41638 0.69111 0
M  V30 2853 C 264.348 -2.01598 0.220519 0
M  V30 2854 C 264.681 -1.54594 -1.17535 0
M  V30 2855 O 263.956 -0.755177 -1.79241 0
M  V30 2856 C 264.239 -3.59062 0.273243 0
M  V30 2857 C 264.092 -4.16203 1.70573 0
M  V30 2858 C 265.411 -4.38546 -0.369457 0
M  V30 2859 H 262.53 -0.732468 0.0816045 0
M  V30 2860 H 265.172 -1.68445 0.878986 0
M  V30 2861 H 263.322 -3.87435 -0.287411 0
M  V30 2862 H 264.994 -3.98722 2.31989 0
M  V30 2863 H 263.237 -3.71414 2.2413 0
M  V30 2864 H 263.908 -5.25358 1.69419 0
M  V30 2865 H 266.384 -4.1596 0.107977 0
M  V30 2866 H 265.26 -5.48069 -0.302002 0
M  V30 2867 H 265.521 -4.17662 -1.44951 0
M  V30 2868 N 264.58 -0.43555 -1.51462 0
M  V30 2869 C 265.827 0.131514 -2.02072 0
M  V30 2870 C 266.155 1.42868 -1.31981 0
M  V30 2871 O 265.41 1.91076 -0.422883 0
M  V30 2872 C 265.709 0.39942 -3.55161 0
M  V30 2873 C 265.375 -0.81172 -4.43533 0
M  V30 2874 C 264.037 -1.14387 -4.67407 0
M  V30 2875 C 266.389 -1.61976 -4.95392 0
M  V30 2876 C 263.717 -2.28477 -5.40384 0
M  V30 2877 C 266.069 -2.75164 -5.6962 0
M  V30 2878 C 264.733 -3.08835 -5.91758 0
M  V30 2879 H 264.003 0.0481244 -0.739436 0
M  V30 2880 H 266.65 -0.58238 -1.8243 0
M  V30 2881 H 264.955 1.19519 -3.73125 0
M  V30 2882 H 266.652 0.85157 -3.91854 0
M  V30 2883 H 263.242 -0.542898 -4.25148 0
M  V30 2884 H 267.426 -1.37637 -4.76833 0
M  V30 2885 H 262.682 -2.5488 -5.55739 0
M  V30 2886 H 266.856 -3.38147 -6.08793 0
M  V30 2887 H 264.483 -3.97353 -6.48086 0
M  V30 2888 N 266.058 1.56714 -0.166846 0
M  V30 2889 C 267.288 2.00828 0.48494 0
M  V30 2890 C 267.696 1.04612 1.57648 0
M  V30 2891 O 267.039 0.0383201 1.8366 0
M  V30 2892 C 267.101 3.4137 1.12723 0
M  V30 2893 C 266.765 4.56654 0.177886 0
M  V30 2894 C 267.762 5.16402 -0.60207 0
M  V30 2895 C 265.447 5.02244 0.0750139 0
M  V30 2896 C 267.441 6.20167 -1.47215 0
M  V30 2897 C 265.128 6.05859 -0.798649 0
M  V30 2898 C 266.126 6.64691 -1.57082 0
M  V30 2899 O 265.814 7.66297 -2.42989 0
M  V30 2900 H 265.546 0.663587 0.128953 0
M  V30 2901 H 268.1 2.03692 -0.264365 0
M  V30 2902 H 266.33 3.35406 1.92457 0
M  V30 2903 H 268.019 3.69466 1.68076 0
M  V30 2904 H 268.785 4.82065 -0.53274 0
M  V30 2905 H 264.664 4.56167 0.665812 0
M  V30 2906 H 268.208 6.66016 -2.07531 0
M  V30 2907 H 264.105 6.39621 -0.869199 0
M  V30 2908 H 264.873 7.83601 -2.36455 0
M  V30 2909 N 267.536 -0.106894 1.57237 0
M  V30 2910 C 268.766 -0.825191 1.89405 0
M  V30 2911 C 269.174 -1.73374 0.757496 0
M  V30 2912 O 268.517 -1.81552 -0.280115 0
M  V30 2913 C 268.579 -1.70102 3.1671 0
M  V30 2914 C 268.243 -0.965523 4.46684 0
M  V30 2915 C 269.24 -0.300741 5.19029 0
M  V30 2916 C 266.925 -0.943105 4.93367 0
M  V30 2917 C 268.919 0.376622 6.36286 0
M  V30 2918 C 266.606 -0.261949 6.10538 0
M  V30 2919 C 267.604 0.396748 6.81847 0
M  V30 2920 O 267.292 1.06701 7.96787 0
M  V30 2921 H 267.024 -0.241852 0.631255 0
M  V30 2922 H 269.578 -0.0921491 2.05193 0
M  V30 2923 H 267.808 -2.47601 2.97036 0
M  V30 2924 H 269.497 -2.29483 3.34802 0
M  V30 2925 H 270.263 -0.309599 4.84011 0
M  V30 2926 H 266.142 -1.44524 4.3776 0
M  V30 2927 H 269.686 0.891334 6.91882 0
M  V30 2928 H 265.583 -0.250896 6.45012 0
M  V30 2929 H 266.351 0.972707 8.127 0
M  V30 2930 N 269.014 -1.53014 -0.377408 0
M  V30 2931 C 269.924 -1.81557 -1.48574 0
M  V30 2932 C 270.94 -0.703102 -1.59162 0
M  V30 2933 O 272.116 -0.99192 -1.75279 0
M  V30 2934 C 269.181 -1.9889 -2.83978 0
M  V30 2935 C 268.242 -3.22801 -2.83016 0
M  V30 2936 C 267.475 -3.39298 -4.11962 0
M  V30 2937 O 267.698 -2.60345 -5.0752 0
M  V30 2938 O 266.632 -4.32604 -4.18494 0
M  V30 2939 H 270.458 -2.75695 -1.27382 0
M  V30 2940 H 268.043 -1.38248 -0.566373 0
M  V30 2941 H 269.925 -2.11931 -3.6423 0
M  V30 2942 H 268.6 -1.07942 -3.05172 0
M  V30 2943 H 267.507 -3.15193 -2.01505 0
M  V30 2944 H 268.84 -4.13632 -2.66775 0
M  V30 2945 N 270.492 0.636531 -1.44174 0
M  V30 2946 C 271.741 1.39213 -1.45954 0
M  V30 2947 C 272.054 1.95374 -0.0939119 0
M  V30 2948 O 273.26 2.71498 0.0107767 0
M  V30 2949 C 271.716 2.52025 -2.56927 0
M  V30 2950 C 271.324 2.024 -3.99673 0
M  V30 2951 C 273.068 3.29269 -2.67922 0
M  V30 2952 C 270.975 3.12521 -5.0208 0
M  V30 2953 H 269.905 0.523132 -0.542999 0
M  V30 2954 H 272.556 0.685349 -1.70221 0
M  V30 2955 H 270.938 3.25253 -2.25891 0
M  V30 2956 H 272.112 1.36073 -4.40251 0
M  V30 2957 H 270.427 1.37987 -3.92872 0
M  V30 2958 H 273.024 4.11352 -3.41605 0
M  V30 2959 H 273.367 3.78397 -1.73555 0
M  V30 2960 H 273.9 2.63129 -2.98342 0
M  V30 2961 H 270.639 2.68343 -5.98057 0
M  V30 2962 H 270.159 3.77507 -4.66099 0
M  V30 2963 H 271.838 3.77385 -5.25538 0
M  V30 2964 N 271.97 1.30982 0.876444 0
M  V30 2965 C 272.9 1.20668 1.99903 0
M  V30 2966 C 273.881 0.095354 1.69833 0
M  V30 2967 O 275.066 0.27885 1.92188 0
M  V30 2968 C 272.196 0.90655 3.3526 0
M  V30 2969 C 271.15 1.97675 3.79617 0
M  V30 2970 C 270.476 1.52943 5.1236 0
M  V30 2971 C 271.776 3.389 3.97422 0
M  V30 2972 H 273.47 2.14586 2.0879 0
M  V30 2973 H 271.016 1.03308 1.00317 0
M  V30 2974 H 272.969 0.821025 4.13324 0
M  V30 2975 H 271.693 -0.0682969 3.26529 0
M  V30 2976 H 270.352 2.05205 3.03787 0
M  V30 2977 H 270 0.54262 5.00065 0
M  V30 2978 H 269.7 2.24532 5.43009 0
M  V30 2979 H 271.224 1.45786 5.92941 0
M  V30 2980 H 272.638 3.34081 4.659 0
M  V30 2981 H 271.035 4.0865 4.3946 0
M  V30 2982 H 272.105 3.80163 3.01006 0
M  V30 2983 N 273.449 -1.08991 1.13837 0
M  V30 2984 C 274.397 -2.17841 0.815347 0
M  V30 2985 C 275.391 -1.68164 -0.204233 0
M  V30 2986 O 276.597 -1.79897 -0.0609304 0
M  V30 2987 H 272.972 -0.710654 0.245915 0
M  V30 2988 H 274.943 -2.42315 1.74143 0
M  V30 2989 C 273.692 -3.46381 0.302614 0
M  V30 2990 H 273.015 -3.84979 1.0785 0
M  V30 2991 H 274.455 -4.23844 0.115074 0
M  V30 2992 C 272.914 -3.22556 -0.972591 0
M  V30 2993 O 273.444 -3.45599 -2.04754 0
M  V30 2994 N 271.65 -2.76134 -0.905455 0
M  V30 2995 H 271.197 -2.57582 -0.0305421 0
M  V30 2996 H 271.155 -2.60571 -1.75926 0
M  V30 2997 N 274.927 -0.932562 -1.27047 0
M  V30 2998 C 276.152 -0.591474 -1.98787 0
M  V30 2999 C 276.577 0.824601 -1.69062 0
M  V30 3000 O 275.935 1.5541 -0.933677 0
M  V30 3001 C 275.983 -0.829808 -3.50922 0
M  V30 3002 O 275.087 0.102266 -4.12273 0
M  V30 3003 H 274.428 -0.227185 -0.623926 0
M  V30 3004 H 276.958 -1.25314 -1.61733 0
M  V30 3005 H 276.968 -0.747292 -4.01098 0
M  V30 3006 H 275.643 -1.86201 -3.7189 0
M  V30 3007 H 274.22 -0.0305761 -3.72887 0
M  V30 3008 N 276.405 1.4127 -0.698611 0
M  V30 3009 C 277.816 1.84187 -0.305289 0
M  V30 3010 C 278.167 1.58449 1.15708 0
M  V30 3011 O 277.292 1.05651 1.88856 0
M  V30 3012 C 277.887 3.3435 -0.547314 0
M  V30 3013 C 276.446 3.75826 -0.207878 0
M  V30 3014 C 275.593 2.64647 -0.828099 0
M  V30 3015 H 278.544 1.30778 -0.89904 0
M  V30 3016 H 278.565 3.8001 0.192998 0
M  V30 3017 H 278.077 3.53051 -1.61172 0
M  V30 3018 H 276.178 3.62725 0.852143 0
M  V30 3019 H 276.291 4.74462 -0.665021 0
M  V30 3020 H 274.655 2.53395 -0.257458 0
M  V30 3021 H 275.438 2.86165 -1.89643 0
M  V30 3022 N 277.883 0.443576 1.51229 0
M  V30 3023 C 279.16 -0.181038 1.9476 0
M  V30 3024 C 279.54 -1.59523 1.38259 0
M  V30 3025 O 278.888 -2.2122 0.572198 0
M  V30 3026 C 279.098 -0.152422 3.48667 0
M  V30 3027 C 280.446 -0.354923 4.23114 0
M  V30 3028 O 281.47 -0.230257 3.55455 0
M  V30 3029 O 280.329 -0.603674 5.43156 0
M  V30 3030 H 277.423 -0.1266 0.817252 0
M  V30 3031 H 279.969 0.502004 1.62105 0
M  V30 3032 H 278.741 0.836022 3.82265 0
M  V30 3033 H 278.364 -0.878107 3.87782 0
M  V30 3034 N 279.361 -1.56624 0.175154 0
M  V30 3035 C 280.777 -1.58571 -0.180966 0
M  V30 3036 C 280.977 -1.19065 -1.6256 0
M  V30 3037 O 280.033 -0.904044 -2.35761 0
M  V30 3038 C 281.346 -3.00522 0.103326 0
M  V30 3039 C 282.894 -3.12972 0.0418426 0
M  V30 3040 C 283.369 -4.57022 0.299175 0
M  V30 3041 N 284.86 -4.62541 0.247086 0
M  V30 3042 C 285.595 -5.71857 0.420318 0
M  V30 3043 N 285.091 -6.89717 0.652816 0
M  V30 3044 N 286.884 -5.60972 0.355957 0
M  V30 3045 H 279.035 -1.80589 1.11809 0
M  V30 3046 H 281.298 -0.837178 0.444788 0
M  V30 3047 H 281.004 -3.33916 1.10422 0
M  V30 3048 H 280.878 -3.72344 -0.603299 0
M  V30 3049 H 283.265 -2.79403 -0.949636 0
M  V30 3050 H 283.346 -2.43578 0.781238 0
M  V30 3051 H 282.99 -4.913 1.28788 0
M  V30 3052 H 282.92 -5.24579 -0.460876 0
M  V30 3053 H 285.411 -3.77829 0.0731895 0
M  V30 3054 H 285.724 -7.68911 0.774347 0
M  V30 3055 H 284.069 -6.91572 0.689476 0
M  V30 3056 H 287.26 -4.67773 0.174882 0
M  V30 3057 H 287.433 -6.46111 0.494388 0
M  V30 3058 N 280.839 0.0985539 -1.57292 0
M  V30 3059 C 281.802 1.10402 -2.00858 0
M  V30 3060 C 282.802 1.33146 -0.901593 0
M  V30 3061 O 283.992 1.29318 -1.16716 0
M  V30 3062 C 281.124 2.45394 -2.36632 0
M  V30 3063 H 282.317 0.729099 -2.90902 0
M  V30 3064 H 279.87 0.343495 -1.52479 0
M  V30 3065 H 280.605 2.87769 -1.49531 0
M  V30 3066 H 280.39 2.30235 -3.17387 0
M  V30 3067 H 281.88 3.17718 -2.71007 0
M  V30 3068 N 282.317 1.53212 0.369288 0
M  V30 3069 C 283.557 1.70915 1.12105 0
M  V30 3070 C 283.921 0.449444 1.86665 0
M  V30 3071 O 285.122 0.503105 2.6405 0
M  V30 3072 C 283.393 2.9222 2.05772 0
M  V30 3073 S 284.952 3.30609 2.88519 0
M  V30 3074 H 281.77 0.601445 0.379189 0
M  V30 3075 H 284.372 1.91306 0.402794 0
M  V30 3076 H 283.076 3.82103 1.49752 0
M  V30 3077 H 282.607 2.7422 2.82076 0
M  V30 3078 H 284.622 2.82333 4.08047 0
M  V30 3079 N 283.795 -0.628877 1.44509 0
M  V30 3080 C 285.211 -0.947305 1.28446 0
M  V30 3081 C 285.411 -2.00275 0.221872 0
M  V30 3082 O 284.467 -2.49447 -0.391471 0
M  V30 3083 C 285.78 -1.40843 2.65676 0
M  V30 3084 C 287.328 -1.52379 2.73404 0
M  V30 3085 C 287.803 -2.01875 4.11109 0
M  V30 3086 N 289.294 -2.09142 4.13296 0
M  V30 3087 C 290.029 -2.48615 5.16699 0
M  V30 3088 N 289.525 -2.87209 6.30462 0
M  V30 3089 N 291.318 -2.48768 5.04054 0
M  V30 3090 H 283.469 0.0690977 2.12288 0
M  V30 3091 H 285.732 -0.0317164 0.947469 0
M  V30 3092 H 285.438 -0.707206 3.44516 0
M  V30 3093 H 285.312 -2.37902 2.92716 0
M  V30 3094 H 287.699 -2.21598 1.9488 0
M  V30 3095 H 287.78 -0.536898 2.50102 0
M  V30 3096 H 287.424 -1.3325 4.90109 0
M  V30 3097 H 287.354 -3.0144 4.31789 0
M  V30 3098 H 289.845 -1.81991 3.31191 0
M  V30 3099 H 290.158 -3.16149 7.05174 0
M  V30 3100 H 288.503 -2.84955 6.33897 0
M  V30 3101 H 291.694 -2.18009 4.14234 0
M  V30 3102 H 291.867 -2.79207 5.84763 0
M  V30 3103 N 285.273 -1.31445 -0.869486 0
M  V30 3104 C 286.203 -1.21727 -1.99261 0
M  V30 3105 C 287.184 -0.104359 -1.6978 0
M  V30 3106 O 288.369 -0.289038 -1.92037 0
M  V30 3107 C 285.499 -0.924317 -3.34774 0
M  V30 3108 C 284.453 -1.99685 -3.78563 0
M  V30 3109 C 283.779 -1.55658 -5.11541 0
M  V30 3110 C 285.079 -3.41003 -3.95619 0
M  V30 3111 H 286.773 -2.1569 -2.07649 0
M  V30 3112 H 284.319 -1.03839 -0.997675 0
M  V30 3113 H 286.272 -0.842934 -4.12883 0
M  V30 3114 H 284.996 0.0509793 -3.2656 0
M  V30 3115 H 283.655 -2.06813 -3.02694 0
M  V30 3116 H 283.303 -0.569132 -4.9977 0
M  V30 3117 H 283.003 -2.27409 -5.41811 0
M  V30 3118 H 284.527 -1.48928 -5.92159 0
M  V30 3119 H 285.941 -3.36547 -4.64122 0
M  V30 3120 H 284.338 -4.10975 -4.37286 0
M  V30 3121 H 285.408 -3.81754 -2.98985 0
M  V30 3122 N 286.751 1.08385 -1.14413 0
M  V30 3123 C 287.714 2.13486 -0.834048 0
M  V30 3124 C 288.714 1.59988 0.161418 0
M  V30 3125 O 289.904 1.74071 -0.0669575 0
M  V30 3126 C 287.036 3.4003 -0.243354 0
M  V30 3127 H 288.229 2.42425 -1.7655 0
M  V30 3128 H 285.782 1.24101 -0.950189 0
M  V30 3129 H 286.517 3.16726 0.696807 0
M  V30 3130 H 286.302 3.80157 -0.960367 0
M  V30 3131 H 287.792 4.17577 -0.0436242 0
M  V30 3132 N 288.23 0.939286 1.26551 0
M  V30 3133 C 289.177 0.446088 2.26448 0
M  V30 3134 C 290.147 -0.493234 1.58608 0
M  V30 3135 O 291.332 -0.409857 1.86346 0
M  V30 3136 C 288.472 -0.284375 3.43926 0
M  V30 3137 C 287.585 0.690399 4.26448 0
M  V30 3138 C 286.72 -0.0610712 5.31165 0
M  V30 3139 C 285.759 0.905649 6.05363 0
M  V30 3140 N 284.896 0.186055 7.01853 0
M  V30 3141 H 289.736 1.30291 2.68008 0
M  V30 3142 H 287.273 0.65371 1.31776 0
M  V30 3143 H 289.231 -0.724313 4.10864 0
M  V30 3144 H 287.861 -1.10535 3.03285 0
M  V30 3145 H 286.913 1.24885 3.59316 0
M  V30 3146 H 288.225 1.42873 4.779 0
M  V30 3147 H 287.379 -0.56038 6.04106 0
M  V30 3148 H 286.118 -0.832297 4.80546 0
M  V30 3149 H 285.123 1.4161 5.3125 0
M  V30 3150 H 286.348 1.67685 6.58072 0
M  V30 3151 H 284.294 -0.566714 6.53548 0
M  V30 3152 H 284.211 0.863752 7.51049 0
M  V30 3153 H 285.479 -0.292221 7.78952 0
M  V30 3154 N 289.708 -1.40897 0.706093 0
M  V30 3155 C 290.671 -2.29131 0.0562841 0
M  V30 3156 C 291.671 -1.44901 -0.697166 0
M  V30 3157 O 292.861 -1.65926 -0.530484 0
M  V30 3158 C 289.993 -3.27957 -0.93043 0
M  V30 3159 H 291.186 -2.88091 0.833284 0
M  V30 3160 H 288.739 -1.4906 0.470192 0
M  V30 3161 H 289.474 -2.73997 -1.73482 0
M  V30 3162 H 289.259 -3.90124 -0.393166 0
M  V30 3163 H 290.749 -3.94049 -1.38256 0
M  V30 3164 N 291.186 -0.45159 -1.50991 0
M  V30 3165 C 292.149 0.341117 -2.26647 0
M  V30 3166 C 293.149 0.937422 -1.30649 0
M  V30 3167 O 294.339 0.809644 -1.54241 0
M  V30 3168 C 291.471 1.48398 -3.06905 0
M  V30 3169 H 292.664 -0.322117 -2.98165 0
M  V30 3170 H 290.217 -0.205122 -1.54948 0
M  V30 3171 H 290.952 2.18284 -2.39838 0
M  V30 3172 H 290.737 1.06241 -3.77432 0
M  V30 3173 H 292.227 2.04367 -3.64176 0
M  V30 3174 N 292.664 1.56529 -0.183458 0
M  V30 3175 C 293.911 1.97244 0.458357 0
M  V30 3176 C 294.239 1.06992 1.62428 0
M  V30 3177 O 293.494 0.106542 1.9541 0
M  V30 3178 C 293.793 3.43939 0.971637 0
M  V30 3179 C 293.459 4.5083 -0.0796784 0
M  V30 3180 C 292.121 4.79786 -0.368584 0
M  V30 3181 C 294.473 5.15138 -0.792638 0
M  V30 3182 C 291.801 5.70345 -1.37563 0
M  V30 3183 C 294.153 6.06784 -1.78875 0
M  V30 3184 C 292.817 6.34102 -2.08497 0
M  V30 3185 H 292.087 0.721768 0.167725 0
M  V30 3186 H 294.734 1.89472 -0.277976 0
M  V30 3187 H 293.039 3.48724 1.78602 0
M  V30 3188 H 294.736 3.72791 1.47744 0
M  V30 3189 H 291.326 4.28317 0.155668 0
M  V30 3190 H 295.51 4.92868 -0.582659 0
M  V30 3191 H 290.766 5.89789 -1.61118 0
M  V30 3192 H 294.94 6.55677 -2.3465 0
M  V30 3193 H 292.567 7.04074 -2.86678 0
M  V30 3194 N 294.142 -0.090211 1.57342 0
M  V30 3195 C 295.419 -0.824761 1.77361 0
M  V30 3196 C 295.799 -1.96698 0.76637 0
M  V30 3197 O 295.147 -2.27586 -0.204179 0
M  V30 3198 C 295.357 -1.31481 3.23286 0
M  V30 3199 C 296.705 -1.75563 3.86604 0
M  V30 3200 O 297.729 -1.41093 3.27065 0
M  V30 3201 O 296.588 -2.39317 4.91314 0
M  V30 3202 H 293.682 -0.393776 0.727234 0
M  V30 3203 H 296.228 -0.0717138 1.69548 0
M  V30 3204 H 295 -0.496671 3.88135 0
M  V30 3205 H 294.623 -2.12973 3.35751 0
M  V30 3206 N 295.62 -1.53406 -0.361157 0
M  V30 3207 C 296.897 -1.60411 -1.11927 0
M  V30 3208 C 297.277 -0.414385 -2.06993 0
M  V30 3209 O 296.625 0.594976 -2.20618 0
M  V30 3210 C 296.835 -2.95652 -1.85448 0
M  V30 3211 C 298.183 -3.50386 -2.39823 0
M  V30 3212 O 299.207 -2.97711 -1.95568 0
M  V30 3213 O 298.066 -4.42482 -3.20737 0
M  V30 3214 H 295.16 -0.64811 -0.513695 0
M  V30 3215 H 297.706 -1.65749 -0.364065 0
M  V30 3216 H 296.478 -3.73682 -1.16091 0
M  V30 3217 H 296.101 -2.93825 -2.67866 0
M  V30 3218 N 297.098 0.621204 -1.44841 0
M  V30 3219 C 298.061 1.71459 -1.521 0
M  V30 3220 C 299.061 1.55696 -0.401933 0
M  V30 3221 O 300.251 1.61011 -0.664925 0
M  V30 3222 C 297.383 3.10624 -1.40447 0
M  V30 3223 H 298.576 1.66394 -2.49506 0
M  V30 3224 H 296.129 0.835745 -1.3208 0
M  V30 3225 H 296.864 3.21277 -0.441737 0
M  V30 3226 H 296.649 3.23473 -2.21602 0
M  V30 3227 H 298.139 3.90293 -1.4853 0
M  V30 3228 N 298.576 1.31904 0.862503 0
M  V30 3229 C 299.825 1.21373 1.61094 0
M  V30 3230 C 300.138 -0.22504 1.94301 0
M  V30 3231 O 301.344 -0.452121 2.67709 0
M  V30 3232 C 299.8 2.12525 2.9045 0
M  V30 3233 C 299.408 3.61441 2.64697 0
M  V30 3234 C 301.152 2.10813 3.68454 0
M  V30 3235 C 299.059 4.44578 3.90006 0
M  V30 3236 H 297.989 0.450705 0.604468 0
M  V30 3237 H 300.64 1.56811 0.953027 0
M  V30 3238 H 299.022 1.69994 3.57656 0
M  V30 3239 H 300.196 4.12264 2.05851 0
M  V30 3240 H 298.511 3.65205 2.00036 0
M  V30 3241 H 301.108 2.70167 4.61426 0
M  V30 3242 H 301.451 1.09713 4.01583 0
M  V30 3243 H 301.984 2.51583 3.08141 0
M  V30 3244 H 298.723 5.46461 3.62023 0
M  V30 3245 H 298.243 3.98508 4.48276 0
M  V30 3246 H 299.922 4.57176 4.5782 0
M  V30 3247 N 300.054 -1.07777 1.14986 0
M  V30 3248 C 301.017 -2.13041 0.845358 0
M  V30 3249 C 302.017 -1.60071 -0.152931 0
M  V30 3250 O 303.207 -1.74033 0.0761879 0
M  V30 3251 C 300.339 -3.39896 0.261383 0
M  V30 3252 H 301.532 -2.41485 1.77834 0
M  V30 3253 H 299.085 -1.23595 0.956757 0
M  V30 3254 H 299.82 -3.17091 -0.68 0
M  V30 3255 H 299.605 -3.79642 0.980514 0
M  V30 3256 H 301.095 -4.17548 0.0657687 0
M  V30 3257 N 301.532 -0.945985 -1.26051 0
M  V30 3258 C 302.442 -0.465633 -2.29933 0
M  V30 3259 C 303.458 0.462761 -1.67733 0
M  V30 3260 O 304.634 0.341118 -1.9849 0
M  V30 3261 C 301.699 0.256994 -3.45746 0
M  V30 3262 C 300.76 -0.708549 -4.23412 0
M  V30 3263 C 299.993 -0.0203135 -5.33696 0
M  V30 3264 O 300.216 1.19571 -5.57726 0
M  V30 3265 O 299.15 -0.701459 -5.97799 0
M  V30 3266 H 302.976 -1.32866 -2.73094 0
M  V30 3267 H 300.561 -0.712071 -1.31339 0
M  V30 3268 H 302.443 0.663852 -4.16138 0
M  V30 3269 H 301.118 1.09533 -3.04605 0
M  V30 3270 H 300.025 -1.16545 -3.55483 0
M  V30 3271 H 301.358 -1.51465 -4.68315 0
M  V30 3272 N 303.011 1.40521 -0.713556 0
M  V30 3273 C 303.941 2.33381 -0.0743864 0
M  V30 3274 C 304.922 1.52784 0.747735 0
M  V30 3275 O 306.107 1.81258 0.697071 0
M  V30 3276 C 303.237 3.36748 0.849598 0
M  V30 3277 C 302.191 4.27793 0.133247 0
M  V30 3278 C 301.517 5.21679 1.17281 0
M  V30 3279 C 302.817 5.12415 -1.01134 0
M  V30 3280 H 304.511 2.87081 -0.850007 0
M  V30 3281 H 302.057 1.38034 -0.410201 0
M  V30 3282 H 304.01 4.00648 1.30612 0
M  V30 3283 H 302.734 2.81439 1.65709 0
M  V30 3284 H 301.393 3.65342 -0.303426 0
M  V30 3285 H 301.041 4.62677 1.9733 0
M  V30 3286 H 300.741 5.83435 0.698397 0
M  V30 3287 H 302.265 5.88456 1.62947 0
M  V30 3288 H 303.679 5.69781 -0.634274 0
M  V30 3289 H 302.076 5.83203 -1.41399 0
M  V30 3290 H 303.146 4.48514 -1.84292 0
M  V30 3291 N 304.489 0.459591 1.5075 0
M  V30 3292 C 305.766 -0.160371 1.94941 0
M  V30 3293 C 306.146 -1.58048 1.39943 0
M  V30 3294 O 305.494 -2.206 0.595629 0
M  V30 3295 C 305.704 -0.115432 3.48809 0
M  V30 3296 C 307.052 -0.310026 4.23467 0
M  V30 3297 O 308.076 -0.192543 3.55679 0
M  V30 3298 O 306.935 -0.546031 5.43765 0
M  V30 3299 H 304.029 -0.117925 0.818549 0
M  V30 3300 H 306.575 0.519169 1.61563 0
M  V30 3301 H 305.347 0.87652 3.81357 0
M  V30 3302 H 304.97 -0.836928 3.88692 0
M  V30 3303 N 305.967 -1.56429 0.191757 0
M  V30 3304 C 307.195 -2.01867 -0.453586 0
M  V30 3305 C 307.61 -1.07191 -1.5542 0
M  V30 3306 O 306.967 -0.0762108 -1.82341 0
M  V30 3307 C 307.018 -3.47017 -1.013 0
M  V30 3308 O 306.739 -4.38078 0.0437005 0
M  V30 3309 C 308.24 -4.07956 -1.73456 0
M  V30 3310 H 305.46 -0.661211 -0.114199 0
M  V30 3311 H 308.004 -2.02295 0.299483 0
M  V30 3312 H 306.159 -3.47298 -1.71647 0
M  V30 3313 H 306.573 -5.23178 -0.372212 0
M  V30 3314 H 308.047 -5.1138 -2.07833 0
M  V30 3315 H 308.524 -3.51222 -2.63704 0
M  V30 3316 H 309.13 -4.11437 -1.07702 0
M  V30 3317 N 307.445 0.0818655 -1.57387 0
M  V30 3318 C 308.375 1.09885 -2.06028 0
M  V30 3319 C 309.356 1.4098 -0.951774 0
M  V30 3320 O 310.541 1.50781 -1.22387 0
M  V30 3321 C 307.671 2.4151 -2.4958 0
M  V30 3322 C 306.625 2.24792 -3.64215 0
M  V30 3323 C 305.951 3.61712 -3.93787 0
M  V30 3324 C 307.251 1.67749 -4.94629 0
M  V30 3325 H 308.945 0.694128 -2.91243 0
M  V30 3326 H 306.491 0.332448 -1.4011 0
M  V30 3327 H 308.444 3.12939 -2.82219 0
M  V30 3328 H 307.168 2.83943 -1.61381 0
M  V30 3329 H 305.827 1.55807 -3.31843 0
M  V30 3330 H 305.475 4.01697 -3.02735 0
M  V30 3331 H 305.175 3.51368 -4.70971 0
M  V30 3332 H 306.699 4.34587 -4.28913 0
M  V30 3333 H 308.113 2.29032 -5.25564 0
M  V30 3334 H 306.51 1.68128 -5.76067 0
M  V30 3335 H 307.58 0.638059 -4.80684 0
M  V30 3336 N 308.923 1.53595 0.353017 0
M  V30 3337 C 310.148 1.7462 1.11904 0
M  V30 3338 C 310.573 0.479721 1.8188 0
M  V30 3339 O 309.931 -0.567066 1.72204 0
M  V30 3340 C 309.979 2.92029 2.11545 0
M  V30 3341 O 309.083 2.61516 3.18878 0
M  V30 3342 H 308.424 0.579531 0.324099 0
M  V30 3343 H 310.954 2.00525 0.406301 0
M  V30 3344 H 310.964 3.18551 2.5493 0
M  V30 3345 H 309.639 3.83888 1.60008 0
M  V30 3346 H 308.216 2.45852 2.80377 0
M  V30 3347 N 310.401 -0.613514 1.45168 0
M  V30 3348 C 311.311 -1.75296 1.55912 0
M  V30 3349 C 312.327 -1.68244 0.443856 0
M  V30 3350 O 313.503 -1.88706 0.70371 0
M  V30 3351 C 310.568 -3.1174 1.5172 0
M  V30 3352 C 309.629 -3.30291 2.74238 0
M  V30 3353 C 308.862 -4.60226 2.70236 0
M  V30 3354 O 309.085 -5.42168 1.77229 0
M  V30 3355 O 308.019 -4.81361 3.61352 0
M  V30 3356 H 311.845 -1.69183 2.52212 0
M  V30 3357 H 309.43 -0.776886 1.27612 0
M  V30 3358 H 311.312 -3.93044 1.51968 0
M  V30 3359 H 309.987 -3.18357 0.585697 0
M  V30 3360 H 308.894 -2.48598 2.79553 0
M  V30 3361 H 310.227 -3.28547 3.66494 0
M  V30 3362 N 311.879 -1.3236 -0.855495 0
M  V30 3363 C 312.789 -1.23221 -1.99634 0
M  V30 3364 C 313.805 -0.145983 -1.73387 0
M  V30 3365 O 314.981 -0.366502 -1.98037 0
M  V30 3366 C 312.046 -0.954782 -3.33294 0
M  V30 3367 C 311.107 -2.12937 -3.72769 0
M  V30 3368 C 310.34 -1.86508 -5.00051 0
M  V30 3369 O 310.563 -0.807231 -5.64659 0
M  V30 3370 O 309.497 -2.72591 -5.36636 0
M  V30 3371 H 313.323 -2.19126 -2.1028 0
M  V30 3372 H 310.908 -1.12241 -0.986018 0
M  V30 3373 H 312.79 -0.816519 -4.13414 0
M  V30 3374 H 311.465 -0.0258854 -3.2369 0
M  V30 3375 H 310.372 -2.3231 -2.93228 0
M  V30 3376 H 311.705 -3.04102 -3.87018 0
M  V30 3377 N 313.357 1.07166 -1.15556 0
M  V30 3378 C 314.582 1.84053 -0.955988 0
M  V30 3379 C 315.007 1.81586 0.490739 0
M  V30 3380 O 314.365 1.21018 1.34997 0
M  V30 3381 C 314.413 3.28957 -1.47714 0
M  V30 3382 O 313.517 4.06795 -0.677593 0
M  V30 3383 H 312.858 0.569842 -0.340847 0
M  V30 3384 H 315.388 1.35178 -1.53584 0
M  V30 3385 H 315.398 3.79788 -1.4908 0
M  V30 3386 H 314.073 3.30068 -2.53037 0
M  V30 3387 H 312.65 3.6561 -0.733721 0
M  V30 3388 N 314.835 0.952656 1.25548 0
M  V30 3389 C 316.065 0.622592 1.96996 0
M  V30 3390 C 316.473 -0.809112 1.71026 0
M  V30 3391 O 315.816 -1.55258 0.981861 0
M  V30 3392 C 315.878 0.798946 3.5051 0
M  V30 3393 C 315.542 2.20744 4.00151 0
M  V30 3394 C 316.539 3.18394 4.11001 0
M  V30 3395 C 314.224 2.5311 4.33867 0
M  V30 3396 C 316.218 4.46504 4.54877 0
M  V30 3397 C 313.905 3.8145 4.7743 0
M  V30 3398 C 314.903 4.77959 4.87897 0
M  V30 3399 O 314.591 6.04012 5.30494 0
M  V30 3400 H 314.323 0.232503 0.634758 0
M  V30 3401 H 316.877 1.2789 1.60728 0
M  V30 3402 H 315.107 0.0854903 3.86605 0
M  V30 3403 H 316.796 0.47023 4.03167 0
M  V30 3404 H 317.562 2.94715 3.85186 0
M  V30 3405 H 313.441 1.78719 4.24948 0
M  V30 3406 H 316.985 5.21835 4.62962 0
M  V30 3407 H 312.882 4.04936 5.0269 0
M  V30 3408 H 313.65 6.0736 5.48685 0
M  V30 3409 N 316.313 -1.40141 0.720998 0
M  V30 3410 C 317.26 -2.30688 0.071919 0
M  V30 3411 C 318.23 -1.48476 -0.744584 0
M  V30 3412 O 319.415 -1.77201 -0.707423 0
M  V30 3413 C 316.555 -3.34724 -0.839855 0
M  V30 3414 C 315.668 -4.31998 -0.0122438 0
M  V30 3415 C 314.803 -5.23102 -0.923995 0
M  V30 3416 C 313.842 -6.12033 -0.0907969 0
M  V30 3417 N 312.979 -6.95537 -0.957718 0
M  V30 3418 H 317.819 -2.85628 0.849755 0
M  V30 3419 H 315.356 -1.40653 0.430726 0
M  V30 3420 H 317.314 -3.93618 -1.38279 0
M  V30 3421 H 315.944 -2.81274 -1.58381 0
M  V30 3422 H 314.996 -3.74841 0.64794 0
M  V30 3423 H 316.308 -4.94772 0.632595 0
M  V30 3424 H 315.462 -5.86953 -1.53527 0
M  V30 3425 H 314.201 -4.60615 -1.60264 0
M  V30 3426 H 313.206 -5.47207 0.533377 0
M  V30 3427 H 314.431 -6.76581 0.584428 0
M  V30 3428 H 312.377 -6.35633 -1.62192 0
M  V30 3429 H 312.294 -7.55099 -0.36904 0
M  V30 3430 H 313.562 -7.63832 -1.555 0
M  V30 3431 N 317.792 -0.46758 -1.50504 0
M  V30 3432 C 319.069 0.15003 -1.95024 0
M  V30 3433 C 319.449 1.57304 -1.40779 0
M  V30 3434 O 318.797 2.20281 -0.607319 0
M  V30 3435 C 319.007 0.0969324 -3.48865 0
M  V30 3436 C 320.355 0.287565 -4.23625 0
M  V30 3437 O 321.379 0.173678 -3.55776 0
M  V30 3438 O 320.238 0.517186 -5.44047 0
M  V30 3439 H 317.332 0.113582 -0.819163 0
M  V30 3440 H 319.878 -0.52773 -1.61286 0
M  V30 3441 H 318.65 -0.896732 -3.80886 0
M  V30 3442 H 318.273 0.816303 -3.8913 0
M  V30 3443 N 319.27 1.56325 -0.20005 0
M  V30 3444 C 320.495 2.02548 0.44597 0
M  V30 3445 C 320.92 1.07922 1.5406 0
M  V30 3446 O 320.278 0.0635775 1.81188 0
M  V30 3447 C 320.326 3.47175 0.974761 0
M  V30 3448 O 319.43 3.55671 2.08739 0
M  V30 3449 H 318.771 0.655862 0.103638 0
M  V30 3450 H 321.301 2.02201 -0.312381 0
M  V30 3451 H 321.311 3.87067 1.2901 0
M  V30 3452 H 319.986 4.15538 0.17347 0
M  V30 3453 H 318.563 3.27657 1.78032 0
M  V30 3454 N 320.748 -0.0735177 1.57428 0
M  V30 3455 C 321.976 -0.785969 1.9139 0
M  V30 3456 C 322.391 -1.71207 0.795847 0
M  V30 3457 O 321.748 -1.81033 -0.230915 0
M  V30 3458 C 321.799 -1.58107 3.25091 0
M  V30 3459 O 321.52 -0.6922 4.32597 0
M  V30 3460 C 323.021 -2.39467 3.73055 0
M  V30 3461 H 320.241 -0.223558 0.632663 0
M  V30 3462 H 322.785 -0.044302 2.04452 0
M  V30 3463 H 320.94 -2.27503 3.13562 0
M  V30 3464 H 321.354 -1.24504 5.09508 0
M  V30 3465 H 322.828 -2.90716 4.69242 0
M  V30 3466 H 323.305 -3.18913 3.01979 0
M  V30 3467 H 323.911 -1.7523 3.87523 0
M  V30 3468 N 322.226 -1.5378 -0.344866 0
M  V30 3469 C 323.156 -1.84662 -1.42906 0
M  V30 3470 C 324.137 -0.701648 -1.54955 0
M  V30 3471 O 325.322 -0.953438 -1.69184 0
M  V30 3472 C 322.452 -2.05503 -2.79974 0
M  V30 3473 C 321.406 -3.21318 -2.82734 0
M  V30 3474 C 320.732 -3.2749 -4.22675 0
M  V30 3475 C 322.032 -4.59456 -2.48389 0
M  V30 3476 H 323.726 -2.75461 -1.17311 0
M  V30 3477 H 321.272 -1.32542 -0.562896 0
M  V30 3478 H 323.225 -2.25691 -3.55867 0
M  V30 3479 H 321.949 -1.11434 -3.07002 0
M  V30 3480 H 320.608 -3.00984 -2.09294 0
M  V30 3481 H 320.256 -2.31019 -4.4681 0
M  V30 3482 H 319.956 -4.05316 -4.25433 0
M  V30 3483 H 321.48 -3.49887 -5.00412 0
M  V30 3484 H 322.894 -4.79667 -3.13995 0
M  V30 3485 H 321.291 -5.39675 -2.62432 0
M  V30 3486 H 322.361 -4.63155 -1.4358 0
M  V30 3487 N 323.704 0.605807 -1.45491 0
M  V30 3488 C 324.953 1.36086 -1.48874 0
M  V30 3489 C 325.266 1.95131 -0.135333 0
M  V30 3490 O 326.472 2.7146 -0.0468144 0
M  V30 3491 C 324.928 2.46518 -2.62215 0
M  V30 3492 C 324.536 1.93877 -4.03876 0
M  V30 3493 C 326.28 3.23512 -2.74846 0
M  V30 3494 C 324.187 3.01801 -5.08596 0
M  V30 3495 H 323.117 0.511497 -0.553974 0
M  V30 3496 H 325.768 0.649089 -1.71636 0
M  V30 3497 H 324.15 3.20388 -2.32739 0
M  V30 3498 H 325.324 1.26704 -4.43038 0
M  V30 3499 H 323.639 1.29622 -3.95711 0
M  V30 3500 H 326.236 4.04013 -3.50253 0
M  V30 3501 H 326.579 3.74631 -1.81542 0
M  V30 3502 H 327.112 2.56742 -3.03856 0
M  V30 3503 H 323.851 2.55597 -6.03614 0
M  V30 3504 H 323.371 3.67535 -4.74002 0
M  V30 3505 H 325.05 3.66152 -5.33424 0
M  V30 3506 N 325.182 1.32811 0.848464 0
M  V30 3507 C 326.115 1.16601 1.96162 0
M  V30 3508 C 327.093 0.0638855 1.62474 0
M  V30 3509 O 328.277 0.224348 1.8716 0
M  V30 3510 C 325.404 0.786333 3.29446 0
M  V30 3511 C 324.45 1.89459 3.8211 0
M  V30 3512 S 325.283 3.50395 4.04949 0
M  V30 3513 C 326.439 3.14413 5.41198 0
M  V30 3514 H 326.672 2.10832 2.09612 0
M  V30 3515 H 324.205 1.17543 1.00115 0
M  V30 3516 H 326.163 0.574044 4.06466 0
M  V30 3517 H 324.824 -0.137218 3.138 0
M  V30 3518 H 324.017 1.58207 4.78526 0
M  V30 3519 H 323.619 2.06304 3.11953 0
M  V30 3520 H 325.911 2.64642 6.23675 0
M  V30 3521 H 326.854 4.09874 5.77416 0
M  V30 3522 H 327.262 2.51266 5.05495 0
M  V30 3523 N 326.66 -1.06551 1.16123 0
M  V30 3524 C 327.592 -2.13908 0.823171 0
M  V30 3525 C 328.605 -1.61926 -0.16843 0
M  V30 3526 O 329.794 -1.78412 0.055962 0
M  V30 3527 C 326.894 -3.38283 0.204424 0
M  V30 3528 C 326.067 -4.19589 1.23548 0
M  V30 3529 C 325.126 -5.2233 0.637011 0
M  V30 3530 O 324.152 -5.54034 1.30516 0
M  V30 3531 N 325.354 -5.77621 -0.577474 0
M  V30 3532 H 328.119 -2.43508 1.74711 0
M  V30 3533 H 325.68 -1.2253 1.05821 0
M  V30 3534 H 327.672 -4.0416 -0.208909 0
M  V30 3535 H 326.242 -3.06329 -0.623012 0
M  V30 3536 H 325.462 -3.49406 1.82507 0
M  V30 3537 H 326.75 -4.70718 1.93137 0
M  V30 3538 H 326.148 -5.54125 -1.13853 0
M  V30 3539 H 324.705 -6.45087 -0.933053 0
M  V30 3540 N 328.138 -0.959301 -1.25041 0
M  V30 3541 C 329.068 -0.501388 -2.28053 0
M  V30 3542 C 330.049 0.454673 -1.63911 0
M  V30 3543 O 331.234 0.352618 -1.90972 0
M  V30 3544 C 328.364 0.217224 -3.4662 0
M  V30 3545 C 327.318 -0.654034 -4.22973 0
M  V30 3546 C 326.644 0.195589 -5.34342 0
M  V30 3547 C 327.944 -1.93447 -4.85155 0
M  V30 3548 H 329.638 -1.36238 -2.66608 0
M  V30 3549 H 327.184 -0.656534 -1.28163 0
M  V30 3550 H 329.137 0.548732 -4.17812 0
M  V30 3551 H 327.861 1.1125 -3.07068 0
M  V30 3552 H 326.52 -0.968693 -3.5357 0
M  V30 3553 H 326.168 1.09076 -4.91031 0
M  V30 3554 H 325.868 -0.384091 -5.86343 0
M  V30 3555 H 327.392 0.521958 -6.08365 0
M  V30 3556 H 328.806 -1.66908 -5.48466 0
M  V30 3557 H 327.203 -2.46018 -5.47353 0
M  V30 3558 H 328.273 -2.63466 -4.07079 0
M  V30 3559 N 329.616 1.39756 -0.72842 0
M  V30 3560 C 330.546 2.33289 -0.0991354 0
M  V30 3561 C 331.527 1.53568 0.731489 0
M  V30 3562 O 332.712 1.81987 0.677807 0
M  V30 3563 C 329.842 3.3763 0.813834 0
M  V30 3564 C 328.796 4.2791 0.0878663 0
M  V30 3565 C 328.122 5.22894 1.11741 0
M  V30 3566 C 329.422 5.11314 -1.06563 0
M  V30 3567 H 331.116 2.86163 -0.880408 0
M  V30 3568 H 328.662 1.37591 -0.424819 0
M  V30 3569 H 330.615 4.0201 1.26355 0
M  V30 3570 H 329.339 2.83181 1.62715 0
M  V30 3571 H 327.998 3.65 -0.342159 0
M  V30 3572 H 327.646 4.64744 1.92412 0
M  V30 3573 H 327.346 5.84143 0.636477 0
M  V30 3574 H 328.87 5.90151 1.56697 0
M  V30 3575 H 330.284 5.69076 -0.694671 0
M  V30 3576 H 328.681 5.81671 -1.47577 0
M  V30 3577 H 329.751 4.46534 -1.89038 0
M  V30 3578 N 331.094 0.475555 1.50254 0
M  V30 3579 C 332.51 0.12997 1.5907 0
M  V30 3580 C 332.71 -1.36385 1.48328 0
M  V30 3581 O 331.766 -2.13754 1.34407 0
M  V30 3582 C 333.079 0.684139 2.92814 0
M  V30 3583 C 334.627 0.647965 3.0622 0
M  V30 3584 C 335.102 1.17975 4.42545 0
M  V30 3585 N 336.593 1.13936 4.48969 0
M  V30 3586 C 337.328 1.52129 5.52851 0
M  V30 3587 N 336.824 1.97793 6.63965 0
M  V30 3588 N 338.617 1.43704 5.4342 0
M  V30 3589 H 330.768 1.44706 1.55479 0
M  V30 3590 H 333.031 0.598691 0.735033 0
M  V30 3591 H 332.737 1.73079 3.06164 0
M  V30 3592 H 332.611 0.130204 3.76975 0
M  V30 3593 H 334.998 -0.38979 2.92514 0
M  V30 3594 H 335.079 1.23876 2.23805 0
M  V30 3595 H 334.723 2.21616 4.57 0
M  V30 3596 H 334.653 0.565138 5.23559 0
M  V30 3597 H 337.144 0.804488 3.69238 0
M  V30 3598 H 337.457 2.25072 7.39299 0
M  V30 3599 H 335.802 2.01749 6.65073 0
M  V30 3600 H 338.993 1.07867 4.55502 0
M  V30 3601 H 339.166 1.73794 6.24259 0
M  V30 3602 N 332.573 -1.56217 0.208337 0
M  V30 3603 C 333.85 -1.89739 -0.475234 0
M  V30 3604 C 334.23 -1.1238 -1.78701 0
M  V30 3605 O 333.578 -0.228979 -2.2735 0
M  V30 3606 C 333.788 -3.42289 -0.681101 0
M  V30 3607 C 335.136 -4.12789 -0.994507 0
M  V30 3608 O 336.16 -3.47814 -0.768357 0
M  V30 3609 O 335.019 -5.27649 -1.42299 0
M  V30 3610 H 332.113 -0.788478 -0.249461 0
M  V30 3611 H 334.659 -1.67855 0.249538 0
M  V30 3612 H 333.431 -3.90534 0.244722 0
M  V30 3613 H 333.054 -3.69909 -1.45785 0
M  V30 3614 N 334.051 0.0651679 -1.57465 0
M  V30 3615 C 334.999 1.09542 -2.05191 0
M  V30 3616 C 335.993 1.39675 -0.958509 0
M  V30 3617 O 337.199 1.39003 -1.14359 0
M  V30 3618 H 333.574 0.370623 -0.654326 0
M  V30 3619 H 335.545 0.666802 -2.90854 0
M  V30 3620 C 334.294 2.39881 -2.51699 0
M  V30 3621 H 333.617 2.17547 -3.3543 0
M  V30 3622 H 335.057 3.104 -2.88839 0
M  V30 3623 C 333.516 3.0631 -1.40271 0
M  V30 3624 O 334.046 3.94664 -0.748523 0
M  V30 3625 N 332.252 2.67041 -1.14618 0
M  V30 3626 H 331.799 1.95281 -1.67997 0
M  V30 3627 H 331.757 3.1181 -0.402688 0
M  V30 3628 N 335.529 1.53961 0.336706 0
M  V30 3629 C 336.459 1.85417 1.41925 0
M  V30 3630 C 337.44 0.709856 1.5458 0
M  V30 3631 O 338.625 0.962396 1.68676 0
M  V30 3632 C 335.755 2.06985 2.78881 0
M  V30 3633 C 334.709 3.22813 2.81026 0
M  V30 3634 C 334.035 3.29727 4.20932 0
M  V30 3635 C 335.335 4.60767 2.45949 0
M  V30 3636 H 337.029 2.76079 1.15848 0
M  V30 3637 H 334.575 1.32839 0.555859 0
M  V30 3638 H 336.528 2.27575 3.54665 0
M  V30 3639 H 335.252 1.13061 3.06406 0
M  V30 3640 H 333.911 3.0209 2.07695 0
M  V30 3641 H 333.559 2.33385 4.45579 0
M  V30 3642 H 333.259 4.07566 4.23277 0
M  V30 3643 H 334.783 3.52536 4.98549 0
M  V30 3644 H 336.197 4.81325 3.11446 0
M  V30 3645 H 334.594 5.4106 2.59566 0
M  V30 3646 H 335.664 4.6391 1.41122 0
M  V30 3647 N 337.007 -0.598083 1.45811 0
M  V30 3648 C 338.235 -1.38322 1.53866 0
M  V30 3649 C 338.65 -1.87992 0.174479 0
M  V30 3650 O 338.007 -1.62756 -0.825627 0
M  V30 3651 C 338.058 -2.58125 2.53089 0
M  V30 3652 O 337.779 -2.10516 3.84206 0
M  V30 3653 C 339.28 -3.50869 2.70935 0
M  V30 3654 H 336.5 -0.423093 0.520801 0
M  V30 3655 H 339.044 -0.728527 1.91083 0
M  V30 3656 H 337.199 -3.19615 2.18917 0
M  V30 3657 H 337.613 -2.88425 4.38077 0
M  V30 3658 H 339.087 -4.31451 3.44317 0
M  V30 3659 H 339.564 -4.01822 1.77301 0
M  V30 3660 H 340.17 -2.95225 3.06141 0
M  V30 3661 N 338.485 -1.33259 -0.841409 0
M  V30 3662 C 339.415 -1.25926 -1.96634 0
M  V30 3663 C 340.396 -0.140349 -1.6952 0
M  V30 3664 O 341.581 -0.329707 -1.91381 0
M  V30 3665 C 338.711 -0.99512 -3.32738 0
M  V30 3666 C 337.665 -2.0767 -3.74242 0
M  V30 3667 C 336.991 -1.66474 -5.08125 0
M  V30 3668 C 338.291 -3.49318 -3.88297 0
M  V30 3669 H 339.985 -2.20046 -2.03027 0
M  V30 3670 H 337.531 -1.05931 -0.975425 0
M  V30 3671 H 339.484 -0.930323 -4.11002 0
M  V30 3672 H 338.208 -0.0183004 -3.26595 0
M  V30 3673 H 336.867 -2.13187 -2.98239 0
M  V30 3674 H 336.515 -0.675012 -4.9845 0
M  V30 3675 H 336.215 -2.3885 -5.36865 0
M  V30 3676 H 337.739 -1.61455 -5.88867 0
M  V30 3677 H 339.153 -3.46316 -4.56879 0
M  V30 3678 H 337.55 -4.20158 -4.28471 0
M  V30 3679 H 338.62 -3.8801 -2.9082 0
M  V30 3680 N 339.963 1.05934 -1.16686 0
M  V30 3681 C 341.209 1.79211 -0.962023 0
M  V30 3682 C 341.564 1.85667 0.504545 0
M  V30 3683 O 340.857 1.33991 1.36956 0
M  V30 3684 C 341.051 3.23105 -1.52767 0
M  V30 3685 C 340.88 3.30673 -3.04771 0
M  V30 3686 C 339.65 3.40395 -3.73442 0
M  V30 3687 C 341.848 3.20234 -4.02436 0
M  V30 3688 N 339.83 3.37015 -5.13122 0
M  V30 3689 C 341.201 3.24138 -5.28521 0
M  V30 3690 C 343.256 3.04143 -3.9421 0
M  V30 3691 C 341.959 3.13607 -6.47336 0
M  V30 3692 C 343.985 2.94951 -5.12599 0
M  V30 3693 C 343.347 2.99481 -6.37566 0
M  V30 3694 H 339.446 0.668442 -0.405844 0
M  V30 3695 H 342.03 1.26341 -1.48142 0
M  V30 3696 H 340.201 3.74364 -1.03471 0
M  V30 3697 H 341.933 3.84579 -1.26021 0
M  V30 3698 H 338.688 3.45344 -3.2409 0
M  V30 3699 H 339.112 3.38815 -5.86117 0
M  V30 3700 H 343.754 2.99484 -2.98445 0
M  V30 3701 H 341.472 3.17022 -7.43319 0
M  V30 3702 H 345.058 2.83583 -5.08008 0
M  V30 3703 H 343.938 2.92431 -7.27636 0
M  V30 3704 N 341.441 0.965919 1.2453 0
M  V30 3705 C 342.669 0.644385 1.96609 0
M  V30 3706 C 343.084 -0.785823 1.71669 0
M  V30 3707 O 342.441 -1.52703 0.999399 0
M  V30 3708 C 342.492 0.907375 3.49927 0
M  V30 3709 O 342.213 2.28136 3.74013 0
M  V30 3710 C 343.714 0.599784 4.39224 0
M  V30 3711 H 340.934 0.240588 0.626385 0
M  V30 3712 H 343.478 1.29337 1.58405 0
M  V30 3713 H 341.633 0.304631 3.862 0
M  V30 3714 H 342.047 2.36002 4.68405 0
M  V30 3715 H 343.521 0.834263 5.45659 0
M  V30 3716 H 343.998 -0.465921 4.36722 0
M  V30 3717 H 344.604 1.18235 4.08535 0
M  V30 3718 N 342.919 -1.39368 0.735821 0
M  V30 3719 C 344.144 -2.05319 0.293052 0
M  V30 3720 C 344.569 -1.55115 -1.064 0
M  V30 3721 O 343.927 -0.695261 -1.67439 0
M  V30 3722 C 343.975 -3.59305 0.305323 0
M  V30 3723 O 343.079 -4.06299 -0.706761 0
M  V30 3724 H 342.42 -0.650529 0.13307 0
M  V30 3725 H 344.95 -1.78386 1.00197 0
M  V30 3726 H 344.96 -4.07724 0.149997 0
M  V30 3727 H 343.635 -3.95207 1.29553 0
M  V30 3728 H 342.212 -3.69292 -0.517504 0
M  V30 3729 N 344.397 -0.483516 -1.5 0
M  V30 3730 C 345.674 0.129337 -1.95172 0
M  V30 3731 C 346.054 1.55802 -1.4244 0
M  V30 3732 O 345.402 2.19625 -0.630649 0
M  V30 3733 C 345.612 0.0599251 -3.48949 0
M  V30 3734 C 346.96 0.242617 -4.23906 0
M  V30 3735 O 347.984 0.135933 -3.55941 0
M  V30 3736 O 346.843 0.459454 -5.44565 0
M  V30 3737 H 343.937 0.104887 -0.820322 0
M  V30 3738 H 346.483 -0.544807 -1.60717 0
M  V30 3739 H 345.255 -0.937079 -3.79914 0
M  V30 3740 H 344.878 0.774984 -3.89974 0
M  V30 3741 N 345.875 1.56104 -0.216619 0
M  V30 3742 C 346.808 2.16026 0.735395 0
M  V30 3743 C 347.786 1.1032 1.1945 0
M  V30 3744 O 348.97 1.38549 1.27814 0
M  V30 3745 C 346.097 2.73656 1.99575 0
M  V30 3746 C 345.143 3.92146 1.67702 0
M  V30 3747 S 345.976 5.29397 0.806145 0
M  V30 3748 C 347.132 5.90463 2.07617 0
M  V30 3749 H 347.365 2.96439 0.226072 0
M  V30 3750 H 344.898 1.544 -0.00136639 0
M  V30 3751 H 346.856 3.075 2.71945 0
M  V30 3752 H 345.517 1.93245 2.47619 0
M  V30 3753 H 344.71 4.30954 2.61332 0
M  V30 3754 H 344.312 3.59423 1.03398 0
M  V30 3755 H 346.604 6.06136 3.02664 0
M  V30 3756 H 347.547 6.86589 1.73207 0
M  V30 3757 H 347.955 5.19252 2.21445 0
M  V30 3758 N 347.353 -0.0568162 1.57498 0
M  V30 3759 C 348.285 -1.09292 2.01464 0
M  V30 3760 C 349.298 -1.34112 0.922913 0
M  V30 3761 O 350.487 -1.32089 1.20062 0
M  V30 3762 C 347.587 -2.44068 2.35125 0
M  V30 3763 C 346.76 -2.38995 3.66333 0
M  V30 3764 C 345.819 -3.55997 3.87495 0
M  V30 3765 O 344.845 -3.36746 4.58901 0
M  V30 3766 N 346.047 -4.76888 3.30996 0
M  V30 3767 H 348.812 -0.718386 2.90963 0
M  V30 3768 H 346.373 -0.245235 1.60032 0
M  V30 3769 H 348.365 -3.21011 2.46443 0
M  V30 3770 H 346.935 -2.73468 1.5144 0
M  V30 3771 H 346.155 -1.47336 3.65631 0
M  V30 3772 H 347.443 -2.3272 4.52458 0
M  V30 3773 H 346.841 -4.95431 2.73065 0
M  V30 3774 H 345.398 -5.51291 3.47738 0
M  V30 3775 N 348.832 -1.54138 -0.328536 0
M  V30 3776 C 350.08 -1.71765 -1.06496 0
M  V30 3777 C 350.401 -0.49149 -1.88704 0
M  V30 3778 O 349.671 0.494539 -1.89555 0
M  V30 3779 H 348.251 -0.633295 -0.396164 0
M  V30 3780 H 350.913 -1.91429 -0.366176 0
M  V30 3781 H 350.009 -2.5951 -1.73381 0
M  V30 3782 N 350.31 0.590341 -1.46126 0
M  V30 3783 C 351.587 1.35029 -1.41515 0
M  V30 3784 C 351.967 2.10888 -0.0946472 0
M  V30 3785 O 351.315 2.08998 0.923693 0
M  V30 3786 C 351.525 2.28269 -2.63997 0
M  V30 3787 C 352.873 2.90338 -3.09821 0
M  V30 3788 O 353.897 2.38585 -2.64492 0
M  V30 3789 O 352.756 3.84321 -3.88535 0
M  V30 3790 H 349.85 0.606317 -0.562413 0
M  V30 3791 H 352.396 0.611994 -1.58281 0
M  V30 3792 H 351.168 1.71591 -3.51671 0
M  V30 3793 H 350.791 3.0945 -2.49652 0
M  V30 3794 N 351.788 1.33704 0.83433 0
M  V30 3795 C 353.036 1.25169 1.58673 0
M  V30 3796 C 353.357 -0.18127 1.94156 0
M  V30 3797 O 352.627 -1.11113 1.6134 0
M  V30 3798 H 351.207 0.4603 0.58833 0
M  V30 3799 H 353.869 1.67478 0.996847 0
M  V30 3800 H 352.965 1.84856 2.51465 0
M  V30 3801 N 353.266 -1.05314 1.17247 0
M  V30 3802 C 354.176 -2.16538 0.90268 0
M  V30 3803 C 355.192 -1.73523 -0.128707 0
M  V30 3804 O 356.368 -2.01337 0.0502701 0
M  V30 3805 C 353.433 -3.44167 0.418356 0
M  V30 3806 C 352.494 -4.01635 1.51618 0
M  V30 3807 C 351.727 -5.23171 1.05487 0
M  V30 3808 O 351.95 -5.70327 -0.0914715 0
M  V30 3809 O 350.884 -5.72848 1.8474 0
M  V30 3810 H 354.71 -2.42145 1.83302 0
M  V30 3811 H 352.295 -1.15037 0.953246 0
M  V30 3812 H 354.177 -4.21112 0.155726 0
M  V30 3813 H 352.852 -3.20063 -0.48385 0
M  V30 3814 H 351.759 -3.26135 1.83268 0
M  V30 3815 H 353.092 -4.30053 2.39405 0
M  V30 3816 N 354.744 -0.972509 -1.24016 0
M  V30 3817 C 355.654 -0.5143 -2.28893 0
M  V30 3818 C 356.67 0.427078 -1.68677 0
M  V30 3819 O 357.846 0.298939 -1.99169 0
M  V30 3820 C 354.911 0.183598 -3.46214 0
M  V30 3821 C 353.972 -0.798202 -4.21814 0
M  V30 3822 C 353.205 -0.133514 -5.33533 0
M  V30 3823 O 353.428 1.07714 -5.60137 0
M  V30 3824 O 352.362 -0.828103 -5.96176 0
M  V30 3825 H 356.188 -1.38629 -2.70214 0
M  V30 3826 H 353.773 -0.739769 -1.29799 0
M  V30 3827 H 355.655 0.575433 -4.17453 0
M  V30 3828 H 354.33 1.03048 -3.0686 0
M  V30 3829 H 353.237 -1.24059 -3.52931 0
M  V30 3830 H 354.57 -1.61364 -4.64997 0
M  V30 3831 N 356.222 1.38976 -0.743202 0
M  V30 3832 C 357.154 2.29096 -0.0689228 0
M  V30 3833 C 358.167 1.47229 0.694791 0
M  V30 3834 O 359.356 1.70212 0.537597 0
M  V30 3835 C 356.456 3.25988 0.926548 0
M  V30 3836 C 355.629 4.36833 0.222647 0
M  V30 3837 C 354.688 5.13981 1.12739 0
M  V30 3838 O 353.714 5.6601 0.601795 0
M  V30 3839 N 354.916 5.25966 2.45641 0
M  V30 3840 H 357.681 2.87604 -0.842846 0
M  V30 3841 H 355.242 1.50645 -0.593109 0
M  V30 3842 H 357.234 3.74476 1.5346 0
M  V30 3843 H 355.804 2.68453 1.60162 0
M  V30 3844 H 355.024 3.90116 -0.565983 0
M  V30 3845 H 356.312 5.0811 -0.264841 0
M  V30 3846 H 355.71 4.85228 2.9081 0
M  V30 3847 H 354.267 5.77865 3.01522 0
M  V30 3848 N 357.7 0.491464 1.49741 0
M  V30 3849 C 358.648 -0.305837 2.30581 0
M  V30 3850 C 359.642 -0.971642 1.38764 0
M  V30 3851 O 360.848 -0.90042 1.5586 0
M  V30 3852 H 357.223 -0.117482 0.742767 0
M  V30 3853 H 359.194 0.396093 2.95759 0
M  V30 3854 C 357.943 -1.36319 3.19863 0
M  V30 3855 H 357.266 -0.860258 3.90435 0
M  V30 3856 H 358.706 -1.89323 3.79385 0
M  V30 3857 C 357.165 -2.37621 2.38826 0
M  V30 3858 O 357.695 -3.43311 2.08567 0
M  V30 3859 N 355.901 -2.09849 2.01026 0
M  V30 3860 H 355.448 -1.23922 2.25834 0
M  V30 3861 H 355.406 -2.77859 1.47112 0
M  V30 3862 N 359.178 -1.55987 0.224894 0
M  V30 3863 C 360.125 -2.20436 -0.68385 0
M  V30 3864 C 361.095 -1.16102 -1.18783 0
M  V30 3865 O 362.28 -1.4447 -1.24632 0
M  V30 3866 C 359.42 -2.89076 -1.88491 0
M  V30 3867 C 358.533 -4.08012 -1.41951 0
M  V30 3868 C 357.668 -4.64426 -2.5784 0
M  V30 3869 C 356.707 -5.75656 -2.08053 0
M  V30 3870 N 355.844 -6.26347 -3.17227 0
M  V30 3871 H 360.684 -2.97727 -0.12754 0
M  V30 3872 H 358.221 -1.47011 -0.0511978 0
M  V30 3873 H 360.179 -3.27059 -2.59014 0
M  V30 3874 H 358.809 -2.14298 -2.41405 0
M  V30 3875 H 357.861 -3.75492 -0.609095 0
M  V30 3876 H 359.173 -4.88375 -1.01447 0
M  V30 3877 H 358.327 -5.04869 -3.3644 0
M  V30 3878 H 357.066 -3.83233 -3.01635 0
M  V30 3879 H 356.071 -5.34712 -1.27916 0
M  V30 3880 H 357.296 -6.58686 -1.65255 0
M  V30 3881 H 355.242 -5.48067 -3.60497 0
M  V30 3882 H 355.159 -7.01843 -2.80986 0
M  V30 3883 H 356.427 -6.71447 -3.95953 0
M  V30 3884 N 360.656 0.0484629 -1.57525 0
M  V30 3885 C 361.566 1.07241 -2.08654 0
M  V30 3886 C 362.582 1.409 -1.02095 0
M  V30 3887 O 363.758 1.50609 -1.33712 0
M  V30 3888 C 360.823 2.36008 -2.5397 0
M  V30 3889 C 359.884 2.09108 -3.7493 0
M  V30 3890 C 359.117 3.31736 -4.18075 0
M  V30 3891 O 359.34 4.41714 -3.60895 0
M  V30 3892 O 358.274 3.18576 -5.10679 0
M  V30 3893 H 362.1 0.667965 -2.96263 0
M  V30 3894 H 359.685 0.26417 -1.47046 0
M  V30 3895 H 361.567 3.11747 -2.83535 0
M  V30 3896 H 360.242 2.75786 -1.69481 0
M  V30 3897 H 359.149 1.31 -3.50414 0
M  V30 3898 H 360.482 1.74198 -4.60343 0
M  V30 3899 N 362.134 1.5431 0.320358 0
M  V30 3900 C 363.097 1.83195 1.3774 0
M  V30 3901 C 364.097 0.703906 1.44575 0
M  V30 3902 O 365.287 0.972214 1.44546 0
M  V30 3903 C 362.419 1.99487 2.76438 0
M  V30 3904 H 363.612 2.77642 1.1338 0
M  V30 3905 H 361.165 1.46076 0.556012 0
M  V30 3906 H 361.9 1.07262 3.06048 0
M  V30 3907 H 361.685 2.81575 2.7287 0
M  V30 3908 H 363.175 2.23271 3.52902 0
M  V30 3909 N 363.613 -0.582584 1.46437 0
M  V30 3910 C 364.543 -1.70187 1.59871 0
M  V30 3911 C 365.524 -1.64066 0.449042 0
M  V30 3912 O 366.709 -1.82081 0.6753 0
M  V30 3913 C 363.839 -3.08827 1.58881 0
M  V30 3914 C 362.793 -3.29779 2.72819 0
M  V30 3915 C 362.119 -4.68947 2.5689 0
M  V30 3916 C 363.419 -3.17601 4.1464 0
M  V30 3917 H 365.113 -1.592 2.53566 0
M  V30 3918 H 362.659 -0.764472 1.22032 0
M  V30 3919 H 364.612 -3.86951 1.66873 0
M  V30 3920 H 363.336 -3.20713 0.617306 0
M  V30 3921 H 361.995 -2.54054 2.64296 0
M  V30 3922 H 361.643 -4.77599 1.57823 0
M  V30 3923 H 361.343 -4.83919 3.33312 0
M  V30 3924 H 362.867 -5.4924 2.66773 0
M  V30 3925 H 364.281 -3.8557 4.24274 0
M  V30 3926 H 362.678 -3.44094 4.9165 0
M  V30 3927 H 363.748 -2.14681 4.34788 0
M  V30 3928 N 365.091 -1.34144 -0.827227 0
M  V30 3929 C 366.023 -1.21206 -1.9453 0
M  V30 3930 C 367.036 -0.140176 -1.62195 0
M  V30 3931 O 368.225 -0.391647 -1.7415 0
M  V30 3932 C 365.325 -0.839141 -3.28347 0
M  V30 3933 C 364.498 -2.0051 -3.88734 0
M  V30 3934 C 363.557 -1.61128 -5.00923 0
M  V30 3935 O 362.583 -2.32726 -5.19449 0
M  V30 3936 N 363.785 -0.522958 -5.7814 0
M  V30 3937 H 366.55 -2.17525 -2.06162 0
M  V30 3938 H 364.111 -1.27043 -1.00358 0
M  V30 3939 H 366.103 -0.557556 -4.00841 0
M  V30 3940 H 364.673 0.0337293 -3.12582 0
M  V30 3941 H 363.893 -2.45166 -3.08686 0
M  V30 3942 H 365.181 -2.78498 -4.25812 0
M  V30 3943 H 364.579 0.0723518 -5.65654 0
M  V30 3944 H 363.136 -0.301089 -6.51104 0
M  V30 3945 N 366.569 1.04691 -1.17803 0
M  V30 3946 C 367.846 1.7472 -0.879328 0
M  V30 3947 C 368.226 2.01812 0.619271 0
M  V30 3948 O 367.574 1.65824 1.57209 0
M  V30 3949 C 367.784 3.03686 -1.71976 0
M  V30 3950 C 369.132 3.77542 -1.94286 0
M  V30 3951 O 370.156 3.13569 -1.68976 0
M  V30 3952 O 369.015 4.92506 -2.36855 0
M  V30 3953 H 366.109 0.760011 -0.326056 0
M  V30 3954 H 368.655 1.10813 -1.28525 0
M  V30 3955 H 367.427 2.79754 -2.73594 0
M  V30 3956 H 367.05 3.75332 -1.31194 0
M  V30 3957 N 368.047 0.979072 1.23499 0
M  V30 3958 C 369.293 0.648178 1.92163 0
M  V30 3959 C 369.626 -0.816049 1.76222 0
M  V30 3960 O 368.901 -1.58849 1.12237 0
M  V30 3961 C 369.184 1.03773 3.44824 0
M  V30 3962 C 369.037 2.55948 3.69879 0
M  V30 3963 C 370.356 0.580653 4.36253 0
M  V30 3964 H 367.475 0.236952 0.69787 0
M  V30 3965 H 370.117 1.22012 1.45647 0
M  V30 3966 H 368.267 0.551058 3.84572 0
M  V30 3967 H 369.939 3.12179 3.3962 0
M  V30 3968 H 368.182 2.98641 3.14636 0
M  V30 3969 H 368.853 2.78255 4.76737 0
M  V30 3970 H 371.329 0.998465 4.03943 0
M  V30 3971 H 370.205 0.881663 5.41773 0
M  V30 3972 H 370.466 -0.519052 4.39042 0
M  V30 3973 N 369.525 -1.3858 0.750561 0
M  V30 3974 C 370.435 -2.34278 0.122825 0
M  V30 3975 C 371.451 -1.59116 -0.704131 0
M  V30 3976 O 372.627 -1.91326 -0.628987 0
M  V30 3977 C 369.692 -3.38221 -0.762086 0
M  V30 3978 C 368.753 -4.29227 0.078896 0
M  V30 3979 C 367.986 -5.28205 -0.763874 0
M  V30 3980 O 368.209 -5.34112 -2.00201 0
M  V30 3981 O 367.143 -6.01618 -0.18428 0
M  V30 3982 H 370.969 -2.89649 0.913088 0
M  V30 3983 H 368.554 -1.40374 0.511417 0
M  V30 3984 H 370.436 -4.01872 -1.26793 0
M  V30 3985 H 369.111 -2.85211 -1.5309 0
M  V30 3986 H 368.018 -3.68747 0.630621 0
M  V30 3987 H 369.351 -4.85484 0.810289 0
M  V30 3988 N 371.003 -0.499398 -1.49478 0
M  V30 3989 C 372.28 0.108629 -1.95298 0
M  V30 3990 C 372.66 1.54282 -1.44084 0
M  V30 3991 O 372.008 2.18944 -0.653908 0
M  V30 3992 C 372.218 0.0229111 -3.48992 0
M  V30 3993 C 373.566 0.197643 -4.2414 0
M  V30 3994 O 374.59 0.0981735 -3.56065 0
M  V30 3995 O 373.449 0.401669 -5.45022 0
M  V30 3996 H 370.543 0.096181 -0.821388 0
M  V30 3997 H 373.089 -0.561822 -1.6013 0
M  V30 3998 H 371.861 -0.977321 -3.78899 0
M  V30 3999 H 371.484 0.733579 -3.90774 0
M  V30 4000 N 372.481 1.55866 -0.233164 0
M  V30 4001 C 373.391 2.24431 0.683217 0
M  V30 4002 C 374.407 1.2558 1.2044 0
M  V30 4003 O 375.583 1.58422 1.24356 0
M  V30 4004 C 372.648 2.91979 1.86947 0
M  V30 4005 C 371.709 4.06204 1.38912 0
M  V30 4006 C 370.942 4.70522 2.51883 0
M  V30 4007 O 371.165 4.33865 3.70293 0
M  V30 4008 O 370.099 5.59296 2.22423 0
M  V30 4009 H 373.925 3.03426 0.129059 0
M  V30 4010 H 371.51 1.494 -0.0022283 0
M  V30 4011 H 373.392 3.34573 2.56201 0
M  V30 4012 H 372.067 2.15935 2.41151 0
M  V30 4013 H 370.974 3.68155 0.664259 0
M  V30 4014 H 372.307 4.84025 0.893328 0
M  V30 4015 N 373.959 -0.0401083 1.57549 0
M  V30 4016 C 374.907 -1.06264 2.06908 0
M  V30 4017 C 375.901 -1.38132 0.980608 0
M  V30 4018 O 377.107 -1.37167 1.16556 0
M  V30 4019 H 373.482 -0.360166 0.660139 0
M  V30 4020 H 375.453 -0.620445 2.91878 0
M  V30 4021 C 374.202 -2.35846 2.55483 0
M  V30 4022 H 373.525 -2.12183 3.38849 0
M  V30 4023 H 374.965 -3.05765 2.93741 0
M  V30 4024 C 373.424 -3.0404 1.45126 0
M  V30 4025 O 373.954 -3.93424 0.811216 0
M  V30 4026 N 372.16 -2.65184 1.18852 0
M  V30 4027 H 371.707 -1.92584 1.71083 0
M  V30 4028 H 371.665 -3.1113 0.452244 0
M  V30 4029 N 375.437 -1.54477 -0.31217 0
M  V30 4030 C 376.369 -1.81011 -1.40598 0
M  V30 4031 C 377.382 -0.692546 -1.47335 0
M  V30 4032 O 378.571 -0.969847 -1.49854 0
M  V30 4033 C 375.671 -1.92307 -2.79054 0
M  V30 4034 C 374.844 -3.22594 -2.95384 0
M  V30 4035 C 373.903 -3.24448 -4.1427 0
M  V30 4036 O 372.929 -3.98035 -4.06887 0
M  V30 4037 N 374.131 -2.49042 -5.24365 0
M  V30 4038 H 376.896 -2.75408 -1.18196 0
M  V30 4039 H 374.457 -1.53914 -0.502202 0
M  V30 4040 H 376.449 -1.90962 -3.56813 0
M  V30 4041 H 375.019 -1.04955 -2.94454 0
M  V30 4042 H 374.239 -3.36806 -2.04831 0
M  V30 4043 H 375.527 -4.08593 -3.03198 0
M  V30 4044 H 374.925 -1.88867 -5.33241 0
M  V30 4045 H 373.482 -2.53463 -6.005 0
M  V30 4046 O 376.954 0.458097 -1.54867 0
M  V30 4047 H 377.645 1.11218 -1.58588 0
M  V30 END ATOM
M  V30 BEGIN BOND
M  V30 END BOND
M  V30 END CTAB
M  END
$$$$
