drugbank_target|O33830 Alpha-glucosidase (DB03323)
 OpenBabel12092120223D

  0  0  0     0  0            999 V3000
M  V30 BEGIN CTAB
M  V30 COUNTS 7779 7868 0 0 0
M  V30 BEGIN ATOM
M  V30 1 H -0.908 1.98254 -0.117106 0
M  V30 2 N 0 1.576 0 0
M  V30 3 C 0.933 2.03868 1.02534 0
M  V30 4 C 1.911 0.928543 1.3348 0
M  V30 5 O 3.095 1.19667 1.45644 0
M  V30 6 C 0.222 2.43627 2.35294 0
M  V30 7 C -0.732 3.65373 2.2001 0
M  V30 8 S 0.101 5.13292 1.52614 0
M  V30 9 C 1.257 5.56322 2.86805 0
M  V30 10 H 1.49 2.90518 0.631377 0
M  V30 11 H -0.977 1.52953 0.210867 0
M  V30 12 H 0.981 2.67203 3.11629 0
M  V30 13 H -0.358 1.57376 2.7183 0
M  V30 14 H -1.165 3.90944 3.18086 0
M  V30 15 H -1.563 3.418 1.51819 0
M  V30 16 H 0.729 5.58782 3.83104 0
M  V30 17 H 1.672 6.56266 2.65933 0
M  V30 18 H 2.08 4.83886 2.90714 0
M  V30 19 N 1.4781 -0.272755 1.55222 0
M  V30 20 C 2.8891 -0.84378 1.66545 0
M  V30 21 C 3.2401 -1.87035 0.592641 0
M  V30 22 O 2.3651 -2.14761 -0.265818 0
M  V30 23 C 2.9601 -1.53723 3.01918 0
M  V30 24 C 1.5191 -2.05628 3.15268 0
M  V30 25 C 0.6661 -0.898424 2.62343 0
M  V30 26 H 3.6171 -0.0490998 1.58624 0
M  V30 27 H 3.6381 -2.40421 2.94921 0
M  V30 28 H 3.1501 -0.78983 3.79978 0
M  V30 29 H 1.2511 -2.83329 2.41983 0
M  V30 30 H 1.3641 -2.27142 4.21833 0
M  V30 31 H -0.2719 -1.29186 2.19506 0
M  V30 32 H 0.5111 -0.164528 3.42906 0
M  V30 33 N 2.9562 -1.48159 -0.537278 0
M  V30 34 C 4.1812 -1.59707 -1.32319 0
M  V30 35 C 4.6062 -0.254859 -1.86365 0
M  V30 36 O 3.9642 0.772378 -1.64024 0
M  V30 37 C 4.0122 -2.6412 -2.45505 0
M  V30 38 O 3.1162 -2.20774 -3.48328 0
M  V30 39 H 2.4572 -0.535791 -0.392204 0
M  V30 40 H 4.9872 -1.94092 -0.647268 0
M  V30 41 H 4.9972 -2.85166 -2.91795 0
M  V30 42 H 3.6722 -3.61567 -2.05528 0
M  V30 43 H 2.2492 -2.09911 -3.08207 0
M  V30 44 N 4.4343 0.785586 -1.36625 0
M  V30 45 C 5.6803 1.54591 -1.31261 0
M  V30 46 C 6.0133 1.93906 0.106823 0
M  V30 47 O 5.2883 1.63007 1.06108 0
M  V30 48 C 5.5713 2.82038 -2.23889 0
M  V30 49 C 5.4243 2.49066 -3.74548 0
M  V30 50 C 6.7433 3.83887 -2.15217 0
M  V30 51 H 3.8623 0.560846 -0.478143 0
M  V30 52 H 6.5043 0.902278 -1.67209 0
M  V30 53 H 4.6543 3.36961 -1.93363 0
M  V30 54 H 6.3263 2.00164 -4.15611 0
M  V30 55 H 4.5693 1.81954 -3.93796 0
M  V30 56 H 5.2403 3.40109 -4.34776 0
M  V30 57 H 7.7163 3.38421 -2.42096 0
M  V30 58 H 6.5923 4.70806 -2.82193 0
M  V30 59 H 6.8533 4.27131 -1.14068 0
M  V30 60 N 5.9124 1.20967 1.01018 0
M  V30 61 C 6.8594 0.964281 2.09691 0
M  V30 62 C 7.8294 -0.107853 1.65749 0
M  V30 63 O 9.0144 0.0381987 1.90762 0
M  V30 64 C 6.1544 0.52943 3.41015 0
M  V30 65 C 5.2674 1.67043 3.98398 0
M  V30 66 C 4.4024 1.18525 5.17808 0
M  V30 67 C 3.4414 2.29892 5.67288 0
M  V30 68 N 2.5784 1.82546 6.77954 0
M  V30 69 H 7.4184 1.89463 2.30017 0
M  V30 70 H 4.9554 0.944289 1.1279 0
M  V30 71 H 6.9134 0.258588 4.16398 0
M  V30 72 H 5.5434 -0.363919 3.20742 0
M  V30 73 H 4.5954 2.05603 3.20049 0
M  V30 74 H 5.9074 2.50877 4.31117 0
M  V30 75 H 5.0614 0.870762 6.00419 0
M  V30 76 H 3.8004 0.316887 4.86669 0
M  V30 77 H 2.8054 2.6215 4.83278 0
M  V30 78 H 4.0304 3.17216 6.00459 0
M  V30 79 H 1.9764 0.980454 6.48632 0
M  V30 80 H 1.8934 2.59956 7.09901 0
M  V30 81 H 3.1614 1.54115 7.64113 0
M  V30 82 N 7.3905 -1.2043 1.01659 0
M  V30 83 C 8.6395 -1.89118 0.701237 0
M  V30 84 C 8.9525 -1.79705 -0.772358 0
M  V30 85 O 10.1585 -2.43528 -1.20026 0
M  V30 86 C 8.6145 -3.39168 1.20388 0
M  V30 87 C 8.2225 -3.57166 2.70438 0
M  V30 88 C 9.9665 -4.1341 0.963953 0
M  V30 89 C 7.8735 -5.01042 3.14183 0
M  V30 90 H 6.8035 -0.708267 0.2586 0
M  V30 91 H 9.4545 -1.36239 1.22927 0
M  V30 92 H 7.8365 -3.91369 0.603824 0
M  V30 93 H 9.0105 -3.15351 3.35992 0
M  V30 94 H 7.3255 -2.96294 2.92572 0
M  V30 95 H 9.9225 -5.19491 1.26621 0
M  V30 96 H 10.2655 -4.16181 -0.099578 0
M  V30 97 H 10.7985 -3.67309 1.52738 0
M  V30 98 H 7.5375 -5.03426 4.19812 0
M  V30 99 H 7.0575 -5.43668 2.53348 0
M  V30 100 H 8.7365 -5.69623 3.0682 0
M  V30 101 N 8.8686 -0.792821 -1.36206 0
M  V30 102 C 10.1166 -0.366062 -1.98757 0
M  V30 103 C 10.4376 1.0668 -1.63231 0
M  V30 104 O 9.7076 1.73587 -0.907978 0
M  V30 105 H 8.2876 -0.132364 -0.735179 0
M  V30 106 H 10.9496 -1.01562 -1.66347 0
M  V30 107 H 10.0456 -0.460638 -3.08682 0
M  V30 108 N 10.3467 1.47872 -0.545128 0
M  V30 109 C 11.5957 2.01695 -0.0145033 0
M  V30 110 C 11.9087 1.42609 1.33873 0
M  V30 111 O 13.1147 1.88021 1.95858 0
M  V30 112 C 11.5707 3.59892 0.0245068 0
M  V30 113 C 11.1787 4.27966 -1.32475 0
M  V30 114 C 12.9227 4.21507 0.50316 0
M  V30 115 C 10.8297 5.78136 -1.2455 0
M  V30 116 H 9.7597 0.753998 -0.00165172 0
M  V30 117 H 12.4107 1.69985 -0.691175 0
M  V30 118 H 10.7927 3.88509 0.766575 0
M  V30 119 H 11.9667 4.11003 -2.08357 0
M  V30 120 H 10.2817 3.78286 -1.74036 0
M  V30 121 H 12.8787 5.31538 0.580656 0
M  V30 122 H 13.2217 3.87855 1.51243 0
M  V30 123 H 13.7547 3.97376 -0.183681 0
M  V30 124 H 10.4937 6.16388 -2.23039 0
M  V30 125 H 10.0137 5.97469 -0.528282 0
M  V30 126 H 11.6927 6.40099 -0.942488 0
M  V30 127 N 11.8248 0.280983 1.55075 0
M  V30 128 C 13.0738 -0.334784 1.98902 0
M  V30 129 C 13.3868 -1.56534 1.17288 0
M  V30 130 O 14.5928 -2.25443 1.51287 0
M  V30 131 C 13.0488 -0.646994 3.54037 0
M  V30 132 C 12.6568 0.564085 4.44435 0
M  V30 133 C 14.4008 -1.22506 4.06439 0
M  V30 134 C 12.3078 0.226137 5.90967 0
M  V30 135 H 11.2378 -0.128866 0.742906 0
M  V30 136 H 13.8888 0.386556 1.79382 0
M  V30 137 H 12.2708 -1.42739 3.6938 0
M  V30 138 H 13.4448 1.34082 4.40861 0
M  V30 139 H 11.7598 1.0594 4.02698 0
M  V30 140 H 14.3568 -1.49182 5.13468 0
M  V30 141 H 14.6998 -2.16085 3.55827 0
M  V30 142 H 15.2328 -0.50682 3.94558 0
M  V30 143 H 11.9718 1.12996 6.45687 0
M  V30 144 H 11.4918 -0.513717 5.97596 0
M  V30 145 H 13.1708 -0.179539 6.46751 0
M  V30 146 N 13.3029 -1.57598 0.00835791 0
M  V30 147 C 14.5509 -1.90551 -0.6734 0
M  V30 148 C 14.8719 -0.883301 -1.73847 0
M  V30 149 O 14.1419 0.0781442 -1.95744 0
M  V30 150 H 12.7219 -0.703312 -0.251717 0
M  V30 151 H 15.3839 -1.94833 0.0512592 0
M  V30 152 H 14.4799 -2.9056 -1.13935 0
M  V30 153 N 14.781 0.264519 -1.55364 0
M  V30 154 C 15.744 1.31046 -1.88042 0
M  V30 155 C 16.744 1.41943 -0.755569 0
M  V30 156 O 17.934 1.40947 -1.02369 0
M  V30 157 C 15.066 2.69067 -2.09323 0
M  V30 158 H 16.259 1.03297 -2.81549 0
M  V30 159 H 13.812 0.502989 -1.47986 0
M  V30 160 H 14.547 3.01982 -1.18226 0
M  V30 161 H 14.332 2.62542 -2.91229 0
M  V30 162 H 15.822 3.44623 -2.35848 0
M  V30 163 N 16.2591 1.48442 0.529413 0
M  V30 164 C 17.5071 1.56179 1.28267 0
M  V30 165 C 17.8281 0.237721 1.93546 0
M  V30 166 O 17.0981 -0.740779 1.81354 0
M  V30 167 H 15.6781 0.575367 0.476405 0
M  V30 168 H 18.3401 1.84909 0.61602 0
M  V30 169 H 17.4361 2.34312 2.06165 0
M  V30 170 N 17.7372 -0.778329 1.37039 0
M  V30 171 C 18.9622 -1.57248 1.35233 0
M  V30 172 C 19.3872 -1.87999 -0.0615568 0
M  V30 173 O 18.7452 -1.48734 -1.03672 0
M  V30 174 C 18.7932 -2.86353 2.19167 0
M  V30 175 O 17.8972 -3.80442 1.59178 0
M  V30 176 H 17.2382 -0.476569 0.462362 0
M  V30 177 H 19.7682 -0.963853 1.80474 0
M  V30 178 H 19.7782 -3.35519 2.32145 0
M  V30 179 H 18.4532 -2.63299 3.21942 0
M  V30 180 H 17.0302 -3.39067 1.55203 0
M  V30 181 N 19.2153 -1.21501 -1.00376 0
M  V30 182 C 20.1783 -0.976927 -2.07337 0
M  V30 183 C 21.1783 0.0525322 -1.60714 0
M  V30 184 O 22.3683 -0.184869 -1.73216 0
M  V30 185 C 19.5003 -0.473423 -3.37597 0
M  V30 186 H 20.6933 -1.92587 -2.29892 0
M  V30 187 H 18.2463 -1.03217 -1.17371 0
M  V30 188 H 18.9813 0.480379 -3.20722 0
M  V30 189 H 18.7663 -1.216 -3.72768 0
M  V30 190 H 20.2563 -0.32675 -4.1632 0
M  V30 191 N 20.6934 1.19889 -1.02296 0
M  V30 192 C 21.9394 1.89701 -0.717033 0
M  V30 193 C 22.2724 1.7905 0.751989 0
M  V30 194 O 21.5474 1.17891 1.547 0
M  V30 195 C 21.8304 3.40858 -1.16136 0
M  V30 196 C 21.6834 3.60411 -2.69117 0
M  V30 197 C 23.0024 4.33876 -0.737549 0
M  V30 198 H 20.1214 0.688874 -0.261957 0
M  V30 199 H 22.7634 1.41154 -1.27183 0
M  V30 200 H 20.9134 3.82335 -0.689342 0
M  V30 201 H 22.5854 3.28145 -3.2422 0
M  V30 202 H 20.8284 3.03665 -3.0979 0
M  V30 203 H 21.4994 4.66396 -2.95261 0
M  V30 204 H 23.9754 4.00081 -1.14344 0
M  V30 205 H 22.8514 5.38242 -1.0764 0
M  V30 206 H 23.1124 4.40628 0.360436 0
M  V30 207 N 22.1715 0.800033 1.35784 0
M  V30 208 C 23.4185 0.377342 1.98953 0
M  V30 209 C 23.7465 -1.05378 1.6348 0
M  V30 210 O 23.0015 -1.74459 0.886707 0
M  V30 211 C 23.3005 0.500276 3.53881 0
M  V30 212 C 22.9665 1.89375 4.09204 0
M  V30 213 C 21.6285 2.27499 4.24025 0
M  V30 214 C 23.9805 2.8057 4.39238 0
M  V30 215 C 21.3085 3.562 4.66195 0
M  V30 216 C 23.6605 4.0871 4.82844 0
M  V30 217 C 22.3245 4.46843 4.95871 0
M  V30 218 H 21.5945 0.138079 0.728021 0
M  V30 219 H 24.2415 1.01955 1.62103 0
M  V30 220 H 22.5465 -0.225405 3.91151 0
M  V30 221 H 24.2435 0.154097 4.00704 0
M  V30 222 H 20.8335 1.58753 3.98115 0
M  V30 223 H 25.0175 2.52367 4.27346 0
M  V30 224 H 20.2735 3.85602 4.74469 0
M  V30 225 H 24.4475 4.79481 5.05046 0
M  V30 226 H 22.0745 5.46623 5.28306 0
M  V30 227 N 23.6496 -1.47581 0.552962 0
M  V30 228 C 24.8746 -2.07378 0.0300593 0
M  V30 229 C 25.2996 -1.40355 -1.25229 0
M  V30 230 O 24.6576 -0.477099 -1.7491 0
M  V30 231 C 24.7056 -3.60274 -0.153231 0
M  V30 232 O 23.8096 -3.94041 -1.21678 0
M  V30 233 H 23.1506 -0.662158 0.0494182 0
M  V30 234 H 25.6806 -1.89662 0.767434 0
M  V30 235 H 25.6906 -4.0633 -0.368761 0
M  V30 236 H 24.3656 -4.08455 0.783397 0
M  V30 237 H 22.9426 -3.59735 -0.982079 0
M  V30 238 N 25.1277 -0.289203 -1.54924 0
M  V30 239 C 26.0577 0.58549 -2.2604 0
M  V30 240 C 27.0387 1.14753 -1.25562 0
M  V30 241 O 28.2237 1.17906 -1.54311 0
M  V30 242 C 25.3537 1.76305 -2.99222 0
M  V30 243 C 24.3077 1.33191 -4.06748 0
M  V30 244 C 23.6337 2.5937 -4.6758 0
M  V30 245 C 24.9337 0.471775 -5.20165 0
M  V30 246 H 26.6277 -0.00763532 -2.99399 0
M  V30 247 H 24.1737 -0.00511229 -1.43999 0
M  V30 248 H 26.1267 2.38097 -3.47689 0
M  V30 249 H 24.8507 2.38223 -2.23422 0
M  V30 250 H 23.5097 0.737121 -3.59113 0
M  V30 251 H 23.1577 3.19576 -3.88433 0
M  V30 252 H 22.8577 2.31228 -5.40192 0
M  V30 253 H 24.3817 3.21985 -5.18804 0
M  V30 254 H 25.7957 0.995056 -5.64599 0
M  V30 255 H 24.1927 0.284639 -5.99425 0
M  V30 256 H 25.2627 -0.506041 -4.82252 0
M  V30 257 N 26.6058 1.57591 -0.0167156 0
M  V30 258 C 28.0218 1.55946 0.339557 0
M  V30 259 C 28.2218 1.02109 1.73713 0
M  V30 260 O 27.2778 0.662303 2.43659 0
M  V30 261 C 28.5908 3.00037 0.199499 0
M  V30 262 C 30.1388 3.11805 0.273193 0
M  V30 263 C 30.6138 4.57713 0.162068 0
M  V30 264 N 32.1048 4.6268 0.219444 0
M  V30 265 C 32.8398 5.73185 0.157054 0
M  V30 266 N 32.3358 6.92786 0.0442936 0
M  V30 267 N 34.1288 5.61707 0.21014 0
M  V30 268 H 26.2798 1.90921 -0.930758 0
M  V30 269 H 28.5428 0.877674 -0.358319 0
M  V30 270 H 28.2488 3.4333 -0.76273 0
M  V30 271 H 28.1228 3.64387 0.974786 0
M  V30 272 H 30.5098 2.68433 1.22587 0
M  V30 273 H 30.5908 2.50201 -0.532256 0
M  V30 274 H 30.2348 5.01763 -0.78714 0
M  V30 275 H 30.1648 5.17283 0.986222 0
M  V30 276 H 32.6558 3.76649 0.307246 0
M  V30 277 H 32.9688 7.728 0.00304069 0
M  V30 278 H 31.3138 6.94999 0.00968457 0
M  V30 279 H 34.5048 4.6716 0.296546 0
M  V30 280 H 34.6778 6.47807 0.158054 0
M  V30 281 N 28.0839 -0.256276 1.55502 0
M  V30 282 C 29.0139 -1.32102 1.92539 0
M  V30 283 C 29.9949 -1.50684 0.789194 0
M  V30 284 O 31.1799 -1.63449 1.04872 0
M  V30 285 C 28.3099 -2.67752 2.21192 0
M  V30 286 C 27.2639 -2.63878 3.36975 0
M  V30 287 C 26.5899 -4.03236 3.51147 0
M  V30 288 C 27.8899 -2.21682 4.72921 0
M  V30 289 H 29.5839 -1.01351 2.81724 0
M  V30 290 H 27.1299 -0.486105 1.35547 0
M  V30 291 H 29.0829 -3.42365 2.45691 0
M  V30 292 H 27.8069 -3.0012 1.28824 0
M  V30 293 H 26.4659 -1.91722 3.12471 0
M  V30 294 H 26.1139 -4.32854 2.56216 0
M  V30 295 H 25.8139 -4.01535 4.29003 0
M  V30 296 H 27.3379 -4.79563 3.77957 0
M  V30 297 H 28.7519 -2.86023 4.96854 0
M  V30 298 H 27.1489 -2.3111 5.53812 0
M  V30 299 H 28.2189 -1.16833 4.70615 0
M  V30 300 N 29.562 -1.4872 -0.521534 0
M  V30 301 C 30.808 -1.574 -1.27879 0
M  V30 302 C 31.141 -0.250817 -1.92573 0
M  V30 303 O 30.416 0.743934 -1.79711 0
M  V30 304 C 30.699 -2.71843 -2.36164 0
M  V30 305 C 30.552 -4.13893 -1.76105 0
M  V30 306 C 31.871 -2.82008 -3.37875 0
M  V30 307 H 28.99 -0.572941 -0.463581 0
M  V30 308 H 31.632 -1.80927 -0.580119 0
M  V30 309 H 29.782 -2.51914 -2.95756 0
M  V30 310 H 31.454 -4.45284 -1.20499 0
M  V30 311 H 29.697 -4.20498 -1.06601 0
M  V30 312 H 30.368 -4.89804 -2.5455 0
M  V30 313 H 32.844 -3.00086 -2.88249 0
M  V30 314 H 31.72 -3.63796 -4.11028 0
M  V30 315 H 31.981 -1.90511 -3.98946 0
M  V30 316 N 31.0401 0.771051 -1.3745 0
M  V30 317 C 32.2651 1.56529 -1.36065 0
M  V30 318 C 32.6901 1.88029 0.0515859 0
M  V30 319 O 32.0481 1.49282 1.02882 0
M  V30 320 C 32.0961 2.85187 -2.20683 0
M  V30 321 O 31.2001 3.79593 -1.61193 0
M  V30 322 H 30.5411 0.47411 -0.464883 0
M  V30 323 H 33.0711 0.954269 -1.80983 0
M  V30 324 H 33.0811 3.34283 -2.33921 0
M  V30 325 H 31.7561 2.61588 -3.23334 0
M  V30 326 H 30.3331 3.38239 -1.56999 0
M  V30 327 N 32.5182 1.22032 0.997298 0
M  V30 328 C 33.7952 0.950823 1.70935 0
M  V30 329 C 34.1752 -0.535292 2.042 0
M  V30 330 O 33.5232 -1.50217 1.72183 0
M  V30 331 C 33.7332 1.84386 2.96315 0
M  V30 332 C 35.0812 2.09732 3.69185 0
M  V30 333 O 36.1052 1.81798 3.06314 0
M  V30 334 O 34.9642 2.57018 4.82291 0
M  V30 335 H 32.0582 0.357204 0.745878 0
M  V30 336 H 34.6042 1.32997 1.05404 0
M  V30 337 H 33.3762 2.84928 2.68201 0
M  V30 338 H 32.9992 1.46602 3.69586 0
M  V30 339 N 33.9963 -1.19345 1.0293 0
M  V30 340 C 34.9263 -2.2481 0.631105 0
M  V30 341 C 35.9073 -1.66245 -0.360104 0
M  V30 342 O 37.0923 -1.92677 -0.242726 0
M  V30 343 C 34.2223 -3.47295 -0.0184607 0
M  V30 344 C 33.1763 -4.18536 0.895073 0
M  V30 345 C 32.5023 -5.34586 0.110592 0
M  V30 346 C 33.8023 -4.73287 2.209 0
M  V30 347 H 35.4963 -2.58372 1.51275 0
M  V30 348 H 33.0423 -1.24194 0.728818 0
M  V30 349 H 34.9953 -4.20268 -0.308675 0
M  V30 350 H 33.7193 -3.12933 -0.934907 0
M  V30 351 H 32.3783 -3.47446 1.16949 0
M  V30 352 H 32.0263 -4.96469 -0.807902 0
M  V30 353 H 31.7263 -5.83183 0.719087 0
M  V30 354 H 33.2503 -6.10355 -0.172871 0
M  V30 355 H 34.6643 -5.38013 1.98028 0
M  V30 356 H 33.0613 -5.32373 2.76946 0
M  V30 357 H 34.1313 -3.91331 2.86336 0
M  V30 358 N 35.4744 -0.807222 -1.35358 0
M  V30 359 C 36.7144 -0.393534 -2.00576 0
M  V30 360 C 37.0784 1.0203 -1.62647 0
M  V30 361 O 38.2794 1.53603 -2.20589 0
M  V30 362 C 36.5504 -0.572017 -3.52793 0
M  V30 363 S 38.1094 -0.248845 -4.38094 0
M  V30 364 H 34.9274 -0.149425 -0.695121 0
M  V30 365 H 37.5294 -1.04961 -1.64935 0
M  V30 366 H 36.2334 -1.60097 -3.77885 0
M  V30 367 H 35.7644 0.099359 -3.93275 0
M  V30 368 H 37.7794 0.943253 -4.87152 0
M  V30 369 N 36.9525 1.47285 -0.560781 0
M  V30 370 C 37.8995 2.30058 0.18491 0
M  V30 371 C 38.8695 1.39281 0.904986 0
M  V30 372 O 40.0545 1.68241 0.899979 0
M  V30 373 C 37.1945 3.23317 1.20666 0
M  V30 374 C 36.3075 4.29186 0.492285 0
M  V30 375 C 35.4425 5.09592 1.49964 0
M  V30 376 C 34.4815 6.07232 0.770439 0
M  V30 377 N 33.6185 6.80584 1.72479 0
M  V30 378 H 38.4585 2.93302 -0.527048 0
M  V30 379 H 35.9955 1.44568 -0.271738 0
M  V30 380 H 37.9535 3.75811 1.81168 0
M  V30 381 H 36.5835 2.61929 1.88661 0
M  V30 382 H 35.6355 3.7972 -0.227333 0
M  V30 383 H 36.9475 4.98738 -0.0787929 0
M  V30 384 H 36.1015 5.66254 2.17809 0
M  V30 385 H 34.8405 4.3995 2.10464 0
M  V30 386 H 33.8455 5.49745 0.0780846 0
M  V30 387 H 35.0705 6.78884 0.171134 0
M  V30 388 H 33.0165 6.1367 2.3183 0
M  V30 389 H 32.9335 7.46319 1.20596 0
M  V30 390 H 34.2015 7.41818 2.39428 0
M  V30 391 N 38.4306 0.297415 1.54768 0
M  V30 392 C 39.6586 -0.315623 2.04478 0
M  V30 393 C 40.0736 -1.47792 1.17486 0
M  V30 394 O 39.4306 -1.81404 0.19971 0
M  V30 395 C 39.4816 -0.7753 3.53088 0
M  V30 396 O 39.2026 0.340732 4.36773 0
M  V30 397 C 40.7036 -1.45386 4.18781 0
M  V30 398 H 37.9236 -0.0690887 0.667434 0
M  V30 399 H 40.4676 0.436003 1.99798 0
M  V30 400 H 38.6226 -1.47696 3.58141 0
M  V30 401 H 39.0366 -0.0165035 5.24497 0
M  V30 402 H 40.5106 -1.72669 5.24299 0
M  V30 403 H 40.9876 -2.39275 3.68299 0
M  V30 404 H 41.5936 -0.795475 4.17795 0
M  V30 405 N 39.9087 -1.5758 0.0250728 0
M  V30 406 C 41.3197 -1.79476 -0.514323 0
M  V30 407 C 41.6707 -0.934956 -1.72491 0
M  V30 408 O 40.7957 -0.144245 -2.15919 0
M  V30 409 C 41.3907 -3.25503 -0.939842 0
M  V30 410 C 39.9497 -3.48408 -1.42438 0
M  V30 411 C 39.0967 -2.74583 -0.387201 0
M  V30 412 H 42.0477 -1.567 0.25113 0
M  V30 413 H 42.0687 -3.34992 -1.80445 0
M  V30 414 H 41.5807 -3.88056 -0.0585628 0
M  V30 415 H 39.6817 -2.91103 -2.32572 0
M  V30 416 H 39.7947 -4.57119 -1.43455 0
M  V30 417 H 38.1587 -2.39942 -0.854409 0
M  V30 418 H 38.9417 -3.39849 0.485543 0
M  V30 419 N 41.3868 0.248026 -1.55636 0
M  V30 420 C 42.6348 0.974295 -1.77065 0
M  V30 421 C 42.9558 1.85897 -0.588849 0
M  V30 422 O 42.2258 1.91868 0.395407 0
M  V30 423 H 40.8058 0.362733 -0.653019 0
M  V30 424 H 43.4678 0.266244 -1.93073 0
M  V30 425 H 42.5638 1.59667 -2.68166 0
M  V30 426 N 42.8649 1.48995 0.513639 0
M  V30 427 C 43.7949 1.67636 1.62544 0
M  V30 428 C 44.7759 0.525087 1.61793 0
M  V30 429 O 45.9609 0.759502 1.78732 0
M  V30 430 C 43.0909 1.73114 3.01079 0
M  V30 431 C 42.0449 2.87905 3.16693 0
M  V30 432 C 41.3709 2.78486 4.56453 0
M  V30 433 C 42.6709 4.29005 2.97913 0
M  V30 434 H 44.3649 2.60716 1.47198 0
M  V30 435 H 41.9109 1.25465 0.706714 0
M  V30 436 H 43.8639 1.84742 3.78746 0
M  V30 437 H 42.5879 0.766241 3.17484 0
M  V30 438 H 41.2469 2.75859 2.41448 0
M  V30 439 H 40.8949 1.7993 4.69717 0
M  V30 440 H 40.5949 3.55523 4.67843 0
M  V30 441 H 42.1189 2.92104 5.36197 0
M  V30 442 H 43.5329 4.41798 3.65359 0
M  V30 443 H 41.9299 5.07166 3.20785 0
M  V30 444 H 42.9999 4.44329 1.94165 0
M  V30 445 N 44.343 -0.763751 1.37857 0
M  V30 446 C 45.568 -1.55805 1.36893 0
M  V30 447 C 45.993 -1.88054 -0.0416135 0
M  V30 448 O 45.351 -1.49825 -1.02089 0
M  V30 449 C 45.399 -2.84012 2.22192 0
M  V30 450 O 44.503 -3.78732 1.63204 0
M  V30 451 H 43.844 -0.471638 0.46739 0
M  V30 452 H 46.374 -0.944657 1.81487 0
M  V30 453 H 46.384 -3.33037 2.35691 0
M  V30 454 H 45.059 -2.59869 3.24716 0
M  V30 455 H 43.636 -3.37402 1.58791 0
M  V30 456 N 45.8211 -1.22559 -0.990812 0
M  V30 457 C 47.0691 -1.04933 -1.72724 0
M  V30 458 C 47.3901 0.416158 -1.90508 0
M  V30 459 O 46.6601 1.29918 -1.46622 0
M  V30 460 H 45.2401 -0.385296 -0.639965 0
M  V30 461 H 47.9021 -1.54105 -1.19322 0
M  V30 462 H 46.9981 -1.52886 -2.72089 0
M  V30 463 N 47.2992 1.18797 -1.03562 0
M  V30 464 C 48.5242 1.9314 -0.755764 0
M  V30 465 C 48.9492 1.7537 0.68022 0
M  V30 466 O 48.3072 1.06046 1.47051 0
M  V30 467 C 48.3552 3.42747 -1.12058 0
M  V30 468 O 47.4592 4.11683 -0.243124 0
M  V30 469 H 46.8002 0.602724 -0.278604 0
M  V30 470 H 49.3302 1.50678 -1.3841 0
M  V30 471 H 49.3402 3.93437 -1.08035 0
M  V30 472 H 48.0152 3.55002 -2.16672 0
M  V30 473 H 46.5922 3.71323 -0.342539 0
M  V30 474 N 48.7773 0.814389 1.34928 0
M  V30 475 C 50.0053 0.411136 2.02774 0
M  V30 476 C 50.4203 -0.980316 1.61354 0
M  V30 477 O 49.7773 -1.63299 0.814847 0
M  V30 478 C 49.8283 0.493865 3.58111 0
M  V30 479 O 49.5493 1.83047 3.98027 0
M  V30 480 C 51.0503 0.0844174 4.4322 0
M  V30 481 H 48.2703 0.166037 0.650133 0
M  V30 482 H 50.8143 1.10018 1.72384 0
M  V30 483 H 48.9693 -0.147006 3.87121 0
M  V30 484 H 49.3833 1.79872 4.92693 0
M  V30 485 H 50.8573 0.193404 5.51661 0
M  V30 486 H 51.3343 -0.97113 4.28329 0
M  V30 487 H 51.9403 0.69875 4.19521 0
M  V30 488 N 50.2554 -1.46986 0.568584 0
M  V30 489 C 51.5014 -2.02741 0.0488709 0
M  V30 490 C 51.8344 -1.44077 -1.30214 0
M  V30 491 O 51.1094 -0.600552 -1.84996 0
M  V30 492 C 51.3924 -3.60086 -0.032047 0
M  V30 493 C 51.2454 -4.29162 1.34686 0
M  V30 494 C 52.5644 -4.33838 -0.739798 0
M  V30 495 H 49.6834 -0.736749 0.0192338 0
M  V30 496 H 52.3254 -1.75289 0.733065 0
M  V30 497 H 50.4754 -3.83606 -0.61473 0
M  V30 498 H 52.1474 -4.16948 1.97362 0
M  V30 499 H 50.3904 -3.89073 1.91846 0
M  V30 500 H 51.0614 -5.37826 1.24285 0
M  V30 501 H 53.5374 -4.15378 -0.244939 0
M  V30 502 H 52.4134 -5.43537 -0.765406 0
M  V30 503 H 52.6744 -4.03875 -1.79827 0
M  V30 504 N 51.7335 -0.305618 -1.54608 0
M  V30 505 C 52.9615 0.304775 -2.04643 0
M  V30 506 C 53.3765 1.47167 -1.18268 0
M  V30 507 O 52.7335 1.81296 -0.209328 0
M  V30 508 C 52.7845 0.756564 -3.53495 0
M  V30 509 O 52.5055 -0.36389 -4.36586 0
M  V30 510 C 54.0065 1.43163 -4.19546 0
M  V30 511 H 51.2265 0.0655481 -0.667791 0
M  V30 512 H 53.7705 -0.446592 -1.99564 0
M  V30 513 H 51.9255 1.45794 -3.58919 0
M  V30 514 H 52.3395 -0.0113121 -5.24499 0
M  V30 515 H 53.8135 1.69886 -5.25207 0
M  V30 516 H 54.2905 2.37318 -3.69563 0
M  V30 517 H 54.8965 0.773307 -4.18211 0
M  V30 518 N 53.2116 1.57565 -0.0334293 0
M  V30 519 C 54.1416 2.13511 0.945265 0
M  V30 520 C 55.1226 1.05231 1.33643 0
M  V30 521 O 56.3076 1.33084 1.41429 0
M  V30 522 C 53.4376 2.6657 2.22616 0
M  V30 523 C 52.3916 3.79676 1.97561 0
M  V30 524 C 51.7176 4.1918 3.31952 0
M  V30 525 C 53.0176 5.0557 1.31135 0
M  V30 526 H 54.7116 2.95538 0.479325 0
M  V30 527 H 52.2576 1.42166 0.229115 0
M  V30 528 H 54.2106 3.04344 2.91466 0
M  V30 529 H 52.9346 1.8171 2.71384 0
M  V30 530 H 51.5936 3.42347 1.31127 0
M  V30 531 H 51.2416 3.31296 3.78487 0
M  V30 532 H 50.9416 4.95402 3.15992 0
M  V30 533 H 52.4656 4.59541 4.02063 0
M  V30 534 H 53.8796 5.40903 1.89992 0
M  V30 535 H 52.2766 5.86818 1.25559 0
M  V30 536 H 53.3466 4.84062 0.284894 0
M  V30 537 N 54.6897 -0.239769 1.55765 0
M  V30 538 C 55.6227 -1.32356 1.85895 0
M  V30 539 C 56.6007 -1.46053 0.714662 0
M  V30 540 O 57.7847 -1.62154 0.961157 0
M  V30 541 C 54.9117 -2.6962 2.04994 0
M  V30 542 C 53.9577 -2.73036 3.27648 0
M  V30 543 S 54.7907 -2.28929 4.84099 0
M  V30 544 C 55.9467 -3.68103 5.06212 0
M  V30 545 H 56.1797 -1.06601 2.77531 0
M  V30 546 H 53.7127 -0.441112 1.47965 0
M  V30 547 H 55.6707 -3.48653 2.16682 0
M  V30 548 H 54.3317 -2.92609 1.14188 0
M  V30 549 H 53.5247 -3.7386 3.38 0
M  V30 550 H 53.1267 -2.02052 3.14723 0
M  V30 551 H 55.4187 -4.63656 4.93993 0
M  V30 552 H 56.3617 -3.6268 6.08168 0
M  V30 553 H 56.7697 -3.60947 4.34025 0
M  V30 554 N 56.1678 -1.49265 -0.50573 0
M  V30 555 C 57.4448 -1.49012 -1.26707 0
M  V30 556 C 57.8248 -0.215205 -2.1 0
M  V30 557 O 57.1728 0.802547 -2.13943 0
M  V30 558 C 57.3828 -2.7663 -2.12783 0
M  V30 559 C 58.7308 -3.25932 -2.72127 0
M  V30 560 O 59.7548 -2.77715 -2.23054 0
M  V30 561 O 58.6138 -4.09897 -3.61451 0
M  V30 562 H 55.7078 -0.596197 -0.57313 0
M  V30 563 H 58.2538 -1.61524 -0.52039 0
M  V30 564 H 57.0258 -3.60916 -1.5118 0
M  V30 565 H 56.6488 -2.66956 -2.94653 0
M  V30 566 N 57.6459 0.756429 -1.3826 0
M  V30 567 C 58.8949 1.51082 -1.3363 0
M  V30 568 C 59.2079 1.95467 0.0720068 0
M  V30 569 O 60.4139 2.7043 0.240834 0
M  V30 570 C 58.8699 2.72893 -2.34644 0
M  V30 571 C 58.4779 2.35544 -3.81081 0
M  V30 572 C 60.2219 3.50791 -2.39052 0
M  V30 573 C 58.1289 3.53948 -4.73787 0
M  V30 574 H 57.0589 0.56727 -0.49671 0
M  V30 575 H 59.7099 0.827147 -1.638 0
M  V30 576 H 58.0919 3.43227 -1.97513 0
M  V30 577 H 59.2659 1.72894 -4.27135 0
M  V30 578 H 57.5809 1.70786 -3.79764 0
M  V30 579 H 60.1779 4.38823 -3.05513 0
M  V30 580 H 60.5209 3.91745 -1.40861 0
M  V30 581 H 61.0539 2.87467 -2.74968 0
M  V30 582 H 57.7929 3.18064 -5.73163 0
M  V30 583 H 57.3129 4.15651 -4.32428 0
M  V30 584 H 58.9919 4.20566 -4.91663 0
M  V30 585 N 59.124 1.23083 0.984299 0
M  V30 586 C 60.401 0.9689 1.69917 0
M  V30 587 C 60.781 -0.513604 2.04757 0
M  V30 588 O 60.129 -1.48383 1.73767 0
M  V30 589 C 60.339 1.87518 2.94343 0
M  V30 590 C 61.687 2.13636 3.6694 0
M  V30 591 O 62.711 1.85036 3.04368 0
M  V30 592 O 61.57 2.62119 4.79537 0
M  V30 593 H 58.664 0.365095 0.742048 0
M  V30 594 H 61.21 1.34107 1.03987 0
M  V30 595 H 59.982 2.87756 2.65164 0
M  V30 596 H 59.605 1.50514 3.6801 0
M  V30 597 N 60.6021 -1.18246 1.0419 0
M  V30 598 C 61.5121 -2.25574 0.644476 0
M  V30 599 C 62.5281 -1.70845 -0.329826 0
M  V30 600 O 63.7041 -2.00554 -0.184443 0
M  V30 601 C 60.7691 -3.46697 0.014877 0
M  V30 602 C 59.8301 -4.16554 1.03834 0
M  V30 603 C 59.0631 -5.31894 0.438692 0
M  V30 604 O 59.2861 -5.65385 -0.754752 0
M  V30 605 O 58.2201 -5.90459 1.168 0
M  V30 606 H 62.0461 -2.61836 1.53869 0
M  V30 607 H 59.6311 -1.25352 0.812854 0
M  V30 608 H 61.5131 -4.20062 -0.335538 0
M  V30 609 H 60.1881 -3.12255 -0.853138 0
M  V30 610 H 59.0951 -3.45251 1.44057 0
M  V30 611 H 60.4281 -4.54998 1.87716 0
M  V30 612 N 62.0802 -0.821533 -1.34494 0
M  V30 613 C 62.9902 -0.244355 -2.33324 0
M  V30 614 C 64.0062 0.620527 -1.62559 0
M  V30 615 O 65.1822 0.528754 -1.94335 0
M  V30 616 C 62.2472 0.585368 -3.41723 0
M  V30 617 C 61.3082 -0.301752 -4.28238 0
M  V30 618 C 60.5412 0.488466 -5.3146 0
M  V30 619 O 60.7642 1.72186 -5.4379 0
M  V30 620 O 59.6982 -0.12848 -6.01763 0
M  V30 621 H 63.5242 -1.06231 -2.84515 0
M  V30 622 H 61.1092 -0.583645 -1.37528 0
M  V30 623 H 62.9912 1.05747 -4.07916 0
M  V30 624 H 61.6662 1.38068 -2.92778 0
M  V30 625 H 60.5732 -0.821315 -3.64973 0
M  V30 626 H 61.9062 -1.06138 -4.8062 0
M  V30 627 N 63.5583 1.46682 -0.576371 0
M  V30 628 C 64.9743 1.57822 -0.237562 0
M  V30 629 C 65.1743 1.57237 1.26011 0
M  V30 630 O 64.2303 1.48596 2.04146 0
M  V30 631 C 65.5433 2.87499 -0.881168 0
M  V30 632 C 67.0913 3.01119 -0.85417 0
M  V30 633 C 67.5663 4.33524 -1.4772 0
M  V30 634 N 69.0573 4.40207 -1.44125 0
M  V30 635 C 69.7923 5.4126 -1.89276 0
M  V30 636 N 69.2883 6.49021 -2.42371 0
M  V30 637 N 71.0813 5.32422 -1.80231 0
M  V30 638 H 63.2323 1.45306 -1.54919 0
M  V30 639 H 65.4953 0.692733 -0.647167 0
M  V30 640 H 65.2013 2.9372 -1.93447 0
M  V30 641 H 65.0753 3.75224 -0.385592 0
M  V30 642 H 67.4623 2.94485 0.190491 0
M  V30 643 H 67.5433 2.14887 -1.3877 0
M  V30 644 H 67.1873 4.40916 -2.52103 0
M  V30 645 H 67.1173 5.1852 -0.918947 0
M  V30 646 H 69.6083 3.62931 -1.05307 0
M  V30 647 H 69.9213 7.2233 -2.74698 0
M  V30 648 H 68.2663 6.49858 -2.46393 0
M  V30 649 H 71.4573 4.47137 -1.38514 0
M  V30 650 H 71.6303 6.11034 -2.15735 0
M  V30 651 N 65.0364 0.313813 1.54444 0
M  V30 652 C 65.9664 -0.549454 2.26943 0
M  V30 653 C 66.9474 -1.12741 1.27372 0
M  V30 654 O 68.1324 -1.15436 1.56167 0
M  V30 655 C 65.2624 -1.71523 3.01989 0
M  V30 656 C 64.2164 -1.26703 4.08816 0
M  V30 657 C 63.5424 -2.51898 4.71647 0
M  V30 658 C 64.8424 -0.388962 5.2085 0
M  V30 659 H 66.5364 0.0552661 2.99349 0
M  V30 660 H 64.0824 0.0280207 1.43973 0
M  V30 661 H 66.0354 -2.32535 3.51433 0
M  V30 662 H 64.7594 -2.34639 2.27183 0
M  V30 663 H 63.4184 -0.679896 3.6024 0
M  V30 664 H 63.0664 -3.13356 3.93468 0
M  V30 665 H 62.7664 -2.22605 5.43802 0
M  V30 666 H 64.2904 -3.1369 5.23861 0
M  V30 667 H 65.7044 -0.905107 5.6611 0
M  V30 668 H 64.1014 -0.18924 5.99802 0
M  V30 669 H 65.1714 0.582699 4.81386 0
M  V30 670 N 66.5145 -1.57545 0.0417849 0
M  V30 671 C 67.7915 -1.83642 -0.673433 0
M  V30 672 C 68.1715 -0.928298 -1.89594 0
M  V30 673 O 67.5195 0.0129955 -2.28496 0
M  V30 674 C 67.7295 -3.33155 -1.03964 0
M  V30 675 C 69.0775 -3.99941 -1.42592 0
M  V30 676 O 70.1015 -3.37725 -1.13226 0
M  V30 677 O 68.9605 -5.09619 -1.9736 0
M  V30 678 H 66.0545 -0.757638 -0.331533 0
M  V30 679 H 68.6005 -1.69554 0.070433 0
M  V30 680 H 67.3725 -3.9093 -0.170098 0
M  V30 681 H 66.9955 -3.52396 -1.84126 0
M  V30 682 N 67.9926 0.231505 -1.5589 0
M  V30 683 C 68.9556 1.27028 -1.90779 0
M  V30 684 C 69.9556 1.40308 -0.785507 0
M  V30 685 O 71.1456 1.38744 -1.05336 0
M  V30 686 C 68.2776 2.64566 -2.14983 0
M  V30 687 H 69.4706 0.973017 -2.83677 0
M  V30 688 H 67.0236 0.471486 -1.49019 0
M  V30 689 H 67.7586 2.99406 -1.24604 0
M  V30 690 H 67.5436 2.56305 -2.96732 0
M  V30 691 H 69.0336 3.39543 -2.43105 0
M  V30 692 N 69.4707 1.49531 0.497807 0
M  V30 693 C 70.7197 1.58426 1.24837 0
M  V30 694 C 71.0327 0.277643 1.93619 0
M  V30 695 O 72.2387 0.24517 2.70391 0
M  V30 696 C 70.6947 2.79538 2.26686 0
M  V30 697 C 70.3027 4.16971 1.63828 0
M  V30 698 C 72.0467 2.97764 3.0255 0
M  V30 699 C 69.9537 5.29301 2.63807 0
M  V30 700 H 68.8837 0.58989 0.469623 0
M  V30 701 H 71.5347 1.75923 0.521857 0
M  V30 702 H 69.9167 2.55542 3.02514 0
M  V30 703 H 71.0907 4.51116 0.939711 0
M  V30 704 H 69.4057 4.04129 1.00342 0
M  V30 705 H 72.0027 3.78856 3.77323 0
M  V30 706 H 72.3457 2.08448 3.60354 0
M  V30 707 H 72.8787 3.21815 2.33838 0
M  V30 708 H 69.6177 6.20687 2.10779 0
M  V30 709 H 69.1377 4.99606 3.31894 0
M  V30 710 H 70.8167 5.58768 3.2617 0
M  V30 711 N 70.9488 -0.749086 1.3866 0
M  V30 712 C 71.8788 -1.8764 1.38973 0
M  V30 713 C 72.8598 -1.68178 0.255004 0
M  V30 714 O 74.0448 -1.88704 0.458754 0
M  V30 715 C 71.1748 -3.25222 1.21851 0
M  V30 716 C 70.1288 -3.59295 2.32575 0
M  V30 717 C 69.4548 -4.95663 2.00555 0
M  V30 718 C 70.7548 -3.63709 3.7485 0
M  V30 719 H 72.4488 -1.87635 2.3331 0
M  V30 720 H 69.9948 -0.901329 1.12303 0
M  V30 721 H 71.9478 -4.03746 1.20695 0
M  V30 722 H 70.6718 -3.25719 0.239775 0
M  V30 723 H 69.3308 -2.83093 2.32925 0
M  V30 724 H 68.9788 -4.92724 1.01154 0
M  V30 725 H 68.6788 -5.19429 2.74714 0
M  V30 726 H 70.2028 -5.7656 2.01024 0
M  V30 727 H 71.6168 -4.32338 3.76506 0
M  V30 728 H 70.0138 -3.98986 4.48252 0
M  V30 729 H 71.0838 -2.63834 4.06841 0
M  V30 730 N 72.4269 -1.23603 -0.977757 0
M  V30 731 C 73.6549 -1.09646 -1.75458 0
M  V30 732 C 74.0699 0.351859 -1.85492 0
M  V30 733 O 73.4269 1.24327 -1.336 0
M  V30 734 C 73.4779 -1.71895 -3.18016 0
M  V30 735 O 73.1989 -3.11063 -3.08498 0
M  V30 736 C 74.6999 -1.63415 -4.12081 0
M  V30 737 H 71.9199 -0.38359 -0.550545 0
M  V30 738 H 74.4639 -1.63507 -1.22824 0
M  V30 739 H 72.6189 -1.22061 -3.67668 0
M  V30 740 H 73.0329 -3.41305 -3.9826 0
M  V30 741 H 74.5069 -2.11669 -5.09804 0
M  V30 742 H 74.9839 -0.593462 -4.35172 0
M  V30 743 H 75.5899 -2.12628 -3.68334 0
M  V30 744 N 73.905 1.17692 -1.04816 0
M  V30 745 C 75.154 1.87192 -0.751132 0
M  V30 746 C 75.467 1.8169 0.724441 0
M  V30 747 O 76.673 2.46625 1.13527 0
M  V30 748 C 75.129 3.35857 -1.29338 0
M  V30 749 C 74.737 3.4987 -2.79812 0
M  V30 750 C 76.481 4.10709 -1.07322 0
M  V30 751 C 74.388 4.92536 -3.27356 0
M  V30 752 H 73.318 0.701162 -0.277288 0
M  V30 753 H 75.969 1.32932 -1.26496 0
M  V30 754 H 74.351 3.89631 -0.707376 0
M  V30 755 H 75.525 3.06332 -3.44235 0
M  V30 756 H 73.84 2.88433 -3.00325 0
M  V30 757 H 76.437 5.15952 -1.4035 0
M  V30 758 H 76.78 4.16299 -0.0108001 0
M  V30 759 H 77.313 3.6313 -1.62423 0
M  V30 760 H 74.052 4.92119 -4.33012 0
M  V30 761 H 73.572 5.3676 -2.67673 0
M  V30 762 H 75.251 5.61288 -3.21815 0
M  V30 763 N 75.3831 0.828654 1.34056 0
M  V30 764 C 76.3461 0.259927 2.27721 0
M  V30 765 C 77.3461 -0.565478 1.50529 0
M  V30 766 O 78.5361 -0.38075 1.69988 0
M  V30 767 C 75.6681 -0.634944 3.34935 0
M  V30 768 H 76.8611 1.0863 2.79534 0
M  V30 769 H 74.4141 0.600951 1.44285 0
M  V30 770 H 75.1491 -1.48416 2.88346 0
M  V30 771 H 74.9341 -0.0444999 3.92075 0
M  V30 772 H 76.4241 -1.02648 4.04788 0
M  V30 773 N 76.8612 -1.46375 0.584142 0
M  V30 774 C 77.8082 -2.30323 -0.148286 0
M  V30 775 C 78.7782 -1.40703 -0.882713 0
M  V30 776 O 79.9632 -1.69651 -0.873099 0
M  V30 777 C 77.1032 -3.25196 -1.15507 0
M  V30 778 C 76.2162 -4.29915 -0.423943 0
M  V30 779 C 75.3512 -5.11914 -1.41838 0
M  V30 780 C 74.3902 -6.08381 -0.673736 0
M  V30 781 N 73.5272 -6.83242 -1.6163 0
M  V30 782 H 78.3672 -2.92427 0.573644 0
M  V30 783 H 75.9042 -1.44118 0.294703 0
M  V30 784 H 77.8622 -3.78646 -1.75166 0
M  V30 785 H 76.4922 -2.64898 -1.8447 0
M  V30 786 H 75.5442 -3.7931 0.287714 0
M  V30 787 H 76.8562 -4.98549 0.158128 0
M  V30 788 H 76.0102 -5.69648 -2.08773 0
M  V30 789 H 74.7492 -4.43243 -2.03438 0
M  V30 790 H 73.7542 -5.49799 0.00938483 0
M  V30 791 H 74.9792 -6.79071 -0.0631082 0
M  V30 792 H 72.9252 -6.1728 -2.22038 0
M  V30 793 H 72.8422 -7.48144 -1.08707 0
M  V30 794 H 74.1102 -7.45534 -2.27596 0
M  V30 795 N 78.3393 -0.321999 -1.54275 0
M  V30 796 C 79.2863 0.544664 -2.24281 0
M  V30 797 C 80.2563 1.1129 -1.23303 0
M  V30 798 O 81.4413 1.15354 -1.51981 0
M  V30 799 C 78.5813 1.70045 -3.00298 0
M  V30 800 C 77.6943 1.16159 -4.1609 0
M  V30 801 C 76.8293 2.28293 -4.79641 0
M  V30 802 C 75.8683 1.71648 -5.8754 0
M  V30 803 N 75.0053 2.77438 -6.44959 0
M  V30 804 H 79.8453 -0.0588907 -2.97942 0
M  V30 805 H 77.3823 -0.0408345 -1.47043 0
M  V30 806 H 79.3403 2.38054 -3.42616 0
M  V30 807 H 77.9703 2.27531 -2.28975 0
M  V30 808 H 77.0223 0.373092 -3.78566 0
M  V30 809 H 78.3343 0.707087 -4.93763 0
M  V30 810 H 77.4883 3.0421 -5.2492 0
M  V30 811 H 76.2273 2.77079 -4.01346 0
M  V30 812 H 75.2323 0.942282 -5.41665 0
M  V30 813 H 76.4573 1.23741 -6.67731 0
M  V30 814 H 74.4033 3.25519 -5.69538 0
M  V30 815 H 74.3203 2.36547 -7.1804 0
M  V30 816 H 75.5883 3.53189 -6.94894 0
M  V30 817 N 79.8174 1.5752 -0.0501392 0
M  V30 818 C 81.0474 1.96678 0.632573 0
M  V30 819 C 81.4554 0.926298 1.64974 0
M  V30 820 O 80.7984 -0.09802 1.83438 0
M  V30 821 C 80.8604 3.32068 1.37735 0
M  V30 822 C 80.5244 4.54076 0.516131 0
M  V30 823 C 81.5214 5.19445 -0.217357 0
M  V30 824 C 79.2064 5.00304 0.44736 0
M  V30 825 C 81.2004 6.29378 -1.00807 0
M  V30 826 C 78.8874 6.10114 -0.347038 0
M  V30 827 C 79.8854 6.74512 -1.07344 0
M  V30 828 O 79.5734 7.82211 -1.85477 0
M  V30 829 H 79.3054 0.652193 0.177821 0
M  V30 830 H 81.8594 2.05091 -0.112543 0
M  V30 831 H 80.0894 3.20206 2.16807 0
M  V30 832 H 81.7784 3.55981 1.95019 0
M  V30 833 H 82.5444 4.84689 -0.173688 0
M  V30 834 H 78.4234 4.49971 1.00235 0
M  V30 835 H 81.9674 6.79575 -1.57556 0
M  V30 836 H 77.8644 6.44307 -0.392349 0
M  V30 837 H 78.6324 7.98982 -1.77678 0
M  V30 838 N 81.2955 -0.223234 1.56011 0
M  V30 839 C 82.5415 -0.949279 1.79211 0
M  V30 840 C 82.8745 -1.84054 0.619494 0
M  V30 841 O 82.1495 -1.90726 -0.381317 0
M  V30 842 C 82.4325 -1.78965 3.12479 0
M  V30 843 C 82.2855 -0.924997 4.40186 0
M  V30 844 C 83.6045 -2.76774 3.42175 0
M  V30 845 H 80.7235 -0.343676 0.651963 0
M  V30 846 H 83.3655 -0.218253 1.88742 0
M  V30 847 H 81.5155 -2.41291 3.04485 0
M  V30 848 H 83.1875 -0.318615 4.60198 0
M  V30 849 H 81.4305 -0.230344 4.33188 0
M  V30 850 H 82.1015 -1.54735 5.29869 0
M  V30 851 H 84.5775 -2.24584 3.50287 0
M  V30 852 H 83.4535 -3.32678 4.36597 0
M  V30 853 H 83.7145 -3.54429 2.64258 0
M  V30 854 N 82.7736 -1.49793 -0.48987 0
M  V30 855 C 83.6836 -1.70036 -1.61632 0
M  V30 856 C 84.6996 -0.583102 -1.63939 0
M  V30 857 O 85.8756 -0.859169 -1.82154 0
M  V30 858 C 82.9406 -1.77277 -2.97949 0
M  V30 859 C 82.0016 -3.00918 -3.06181 0
M  V30 860 C 81.2346 -3.07804 -4.35996 0
M  V30 861 O 81.4576 -2.21982 -5.25433 0
M  V30 862 O 80.3916 -4.00369 -4.49431 0
M  V30 863 H 84.2176 -2.65486 -1.47482 0
M  V30 864 H 81.8026 -1.33666 -0.667362 0
M  V30 865 H 83.6846 -1.84329 -3.78947 0
M  V30 866 H 82.3596 -0.850076 -3.12339 0
M  V30 867 H 81.2666 -2.99377 -2.2433 0
M  V30 868 H 82.5996 -3.92704 -2.96723 0
M  V30 869 N 84.2517 0.741722 -1.39055 0
M  V30 870 C 85.1617 1.88621 -1.39496 0
M  V30 871 C 86.1777 1.71557 -0.290578 0
M  V30 872 O 87.3537 1.94275 -0.530954 0
M  V30 873 C 84.4187 3.24134 -1.23037 0
M  V30 874 C 83.4797 3.5364 -2.43387 0
M  V30 875 C 82.7127 4.82687 -2.27703 0
M  V30 876 O 82.9357 5.55922 -1.27696 0
M  V30 877 O 81.8697 5.1194 -3.16545 0
M  V30 878 H 85.6957 1.91203 -2.35956 0
M  V30 879 H 83.2807 0.888625 -1.20099 0
M  V30 880 H 85.1627 4.0513 -1.15964 0
M  V30 881 H 83.8377 3.22337 -0.296691 0
M  V30 882 H 82.7447 2.72758 -2.56035 0
M  V30 883 H 84.0777 3.60209 -3.35425 0
M  V30 884 N 85.7298 1.2412 0.971189 0
M  V30 885 C 86.9758 1.08041 1.71625 0
M  V30 886 C 87.3088 -0.380407 1.90438 0
M  V30 887 O 86.5838 -1.28127 1.46334 0
M  V30 888 C 86.8668 1.81682 3.10908 0
M  V30 889 C 86.7198 3.35493 2.99608 0
M  V30 890 C 88.0388 1.58671 4.10501 0
M  V30 891 H 85.1578 0.39388 0.622919 0
M  V30 892 H 87.7998 1.52743 1.13003 0
M  V30 893 H 85.9498 1.43684 3.60953 0
M  V30 894 H 87.6218 3.83068 2.57015 0
M  V30 895 H 85.8648 3.64052 2.35899 0
M  V30 896 H 86.5358 3.82217 3.98264 0
M  V30 897 H 89.0118 1.91719 3.69301 0
M  V30 898 H 87.8878 2.1266 5.06031 0
M  V30 899 H 88.1488 0.524161 4.38982 0
M  V30 900 N 87.2079 -1.17134 1.05439 0
M  V30 901 C 88.4559 -1.87085 0.764429 0
M  V30 902 C 88.7769 -1.81584 -0.710787 0
M  V30 903 O 88.0469 -1.24349 -1.51374 0
M  V30 904 H 86.6269 -0.692627 0.279779 0
M  V30 905 H 89.2889 -1.42087 1.33406 0
M  V30 906 H 88.3849 -2.92759 1.0816 0
M  V30 907 N 88.686 -0.835752 -1.33615 0
M  V30 908 C 89.649 -0.272 -2.2758 0
M  V30 909 C 90.649 0.557487 -1.50827 0
M  V30 910 O 91.839 0.37173 -1.70188 0
M  V30 911 C 88.971 0.617173 -3.35267 0
M  V30 912 H 90.164 -1.10111 -2.78954 0
M  V30 913 H 87.717 -0.608594 -1.43965 0
M  V30 914 H 88.452 1.46884 -2.89129 0
M  V30 915 H 88.237 0.0237066 -3.92093 0
M  V30 916 H 89.727 1.005 -4.05326 0
M  V30 917 N 90.1641 1.46063 -0.591896 0
M  V30 918 C 91.4411 1.95595 -0.0137119 0
M  V30 919 C 91.8211 1.5345 1.4497 0
M  V30 920 O 91.1691 0.789543 2.14426 0
M  V30 921 C 91.3791 3.48453 -0.195373 0
M  V30 922 C 92.7271 4.24546 -0.0679765 0
M  V30 923 O 93.7511 3.55982 -0.124681 0
M  V30 924 O 92.6101 5.46467 0.0600579 0
M  V30 925 H 89.7041 0.825795 0.0446279 0
M  V30 926 H 92.2501 1.56303 -0.660859 0
M  V30 927 H 91.0221 3.72045 -1.21235 0
M  V30 928 H 90.6451 3.94597 0.487775 0
M  V30 929 N 91.6422 0.330177 1.54103 0
M  V30 930 C 92.5722 -0.525353 2.27513 0
M  V30 931 C 93.5532 -1.11383 1.2856 0
M  V30 932 O 94.7382 -1.13773 1.57383 0
M  V30 933 C 91.8682 -1.6831 3.03791 0
M  V30 934 C 90.8222 -1.2236 4.10137 0
M  V30 935 C 90.1482 -2.46882 4.74293 0
M  V30 936 C 91.4482 -0.333697 5.21233 0
M  V30 937 H 93.1422 0.087013 2.99274 0
M  V30 938 H 90.6882 0.0432893 1.43935 0
M  V30 939 H 92.6412 -2.28795 3.5388 0
M  V30 940 H 91.3652 -2.32216 2.29659 0
M  V30 941 H 90.0242 -0.64165 3.60941 0
M  V30 942 H 89.6722 -3.09165 3.96769 0
M  V30 943 H 89.3722 -2.16825 5.46133 0
M  V30 944 H 90.8962 -3.08117 5.27159 0
M  V30 945 H 92.3102 -0.845013 5.67038 0
M  V30 946 H 90.7072 -0.125612 5.99969 0
M  V30 947 H 91.7772 0.633724 4.80741 0
M  V30 948 N 93.1203 -1.57491 0.0584922 0
M  V30 949 C 94.0673 -2.11958 -0.913376 0
M  V30 950 C 95.0373 -1.02875 -1.30407 0
M  V30 951 O 96.2223 -1.30464 -1.39226 0
M  V30 952 C 93.3623 -2.67497 -2.18035 0
M  V30 953 C 92.4753 -3.90691 -1.84349 0
M  V30 954 C 91.6103 -4.3452 -3.05559 0
M  V30 955 C 90.6493 -5.50395 -2.67827 0
M  V30 956 N 89.7863 -5.89244 -3.81754 0
M  V30 957 H 94.6263 -2.94704 -0.442017 0
M  V30 958 H 92.1633 -1.45643 -0.206545 0
M  V30 959 H 94.1213 -2.978 -2.92183 0
M  V30 960 H 92.7513 -1.87537 -2.62735 0
M  V30 961 H 91.8033 -3.66934 -1.00319 0
M  V30 962 H 93.1153 -4.7489 -1.5258 0
M  V30 963 H 92.2693 -4.66414 -3.87998 0
M  V30 964 H 91.0083 -3.49147 -3.40511 0
M  V30 965 H 90.0133 -5.18165 -1.83806 0
M  V30 966 H 91.2383 -6.3749 -2.34059 0
M  V30 967 H 89.1843 -5.06823 -4.16493 0
M  V30 968 H 89.1013 -6.68151 -3.53708 0
M  V30 969 H 90.3693 -6.25756 -4.64811 0
M  V30 970 N 94.5984 0.214957 -1.56127 0
M  V30 971 C 95.8454 0.938372 -1.79446 0
M  V30 972 C 96.1734 1.8407 -0.628378 0
M  V30 973 O 95.4284 1.91837 0.386925 0
M  V30 974 C 95.7274 1.80314 -3.0858 0
M  V30 975 C 95.3934 1.05349 -4.3842 0
M  V30 976 C 94.0554 0.846435 -4.73697 0
M  V30 977 C 96.4074 0.524588 -5.18553 0
M  V30 978 C 93.7354 0.098683 -5.86617 0
M  V30 979 C 96.0874 -0.209853 -6.32252 0
M  V30 980 C 94.7514 -0.428102 -6.66126 0
M  V30 981 H 94.0214 0.343375 -0.656639 0
M  V30 982 H 96.6684 0.206077 -1.90388 0
M  V30 983 H 94.9734 2.6035 -2.92789 0
M  V30 984 H 96.6704 2.36513 -3.23825 0
M  V30 985 H 93.2604 1.22486 -4.10725 0
M  V30 986 H 97.4444 0.672008 -4.91729 0
M  V30 987 H 92.7004 -0.0805753 -6.11347 0
M  V30 988 H 96.8744 -0.627157 -6.9357 0
M  V30 989 H 94.5014 -1.00944 -7.53468 0
M  V30 990 N 96.0765 1.50051 0.48192 0
M  V30 991 C 96.9865 1.7089 1.60728 0
M  V30 992 C 98.0025 0.591788 1.63627 0
M  V30 993 O 99.1785 0.868817 1.81696 0
M  V30 994 C 96.2435 1.78855 2.97005 0
M  V30 995 C 95.3045 3.02537 3.04581 0
M  V30 996 C 94.5375 3.10112 4.34357 0
M  V30 997 O 94.7605 2.24765 5.24249 0
M  V30 998 O 93.6945 4.02747 4.47301 0
M  V30 999 H 97.5205 2.66264 1.46072 0
M  V30 1000 H 95.1055 1.34018 0.660264 0
M  V30 1001 H 96.9875 1.86336 3.77964 0
M  V30 1002 H 95.6625 0.866628 3.11883 0
M  V30 1003 H 94.5695 3.00563 2.22739 0
M  V30 1004 H 95.9025 3.94272 2.94636 0
M  V30 1005 N 97.5546 -0.734337 1.39446 0
M  V30 1006 C 98.5016 -1.84835 1.38219 0
M  V30 1007 C 99.4716 -1.64331 0.24179 0
M  V30 1008 O 100.657 -1.85728 0.437002 0
M  V30 1009 C 97.7966 -3.22355 1.23212 0
M  V30 1010 C 96.9096 -3.5456 2.46801 0
M  V30 1011 C 96.0446 -4.81485 2.24377 0
M  V30 1012 C 95.0836 -5.06536 3.43639 0
M  V30 1013 N 94.2206 -6.24665 3.20528 0
M  V30 1014 H 99.0606 -1.85219 2.33448 0
M  V30 1015 H 96.5976 -0.905039 1.15963 0
M  V30 1016 H 98.5556 -4.0174 1.12522 0
M  V30 1017 H 97.1856 -3.21248 0.316121 0
M  V30 1018 H 96.2376 -2.69872 2.68092 0
M  V30 1019 H 97.5496 -3.6899 3.3563 0
M  V30 1020 H 96.7036 -5.68852 2.10933 0
M  V30 1021 H 95.4426 -4.6923 1.32944 0
M  V30 1022 H 94.4476 -4.17632 3.5758 0
M  V30 1023 H 95.6726 -5.20676 4.35974 0
M  V30 1024 H 93.6186 -6.13696 2.3176 0
M  V30 1025 H 93.5356 -6.39685 4.02913 0
M  V30 1026 H 94.8036 -7.14868 3.10779 0
M  V30 1027 N 99.0327 -1.24633 -0.964593 0
M  V30 1028 C 100.261 -1.11501 -1.74285 0
M  V30 1029 C 100.676 0.332165 -1.85855 0
M  V30 1030 O 100.033 1.22903 -1.34911 0
M  V30 1031 C 100.084 -1.75258 -3.16175 0
M  V30 1032 O 99.8047 -3.14318 -3.05182 0
M  V30 1033 C 101.306 -1.67776 -4.10324 0
M  V30 1034 H 98.5257 -0.389407 -0.546446 0
M  V30 1035 H 101.07 -1.64801 -1.21083 0
M  V30 1036 H 99.2247 -1.25954 -3.66353 0
M  V30 1037 H 99.6387 -3.4551 -3.94618 0
M  V30 1038 H 101.113 -2.17064 -5.0753 0
M  V30 1039 H 101.59 -0.639584 -4.34518 0
M  V30 1040 H 102.196 -2.16522 -3.66058 0
M  V30 1041 N 100.511 1.16574 -1.06058 0
M  V30 1042 C 101.444 2.19798 -0.61352 0
M  V30 1043 C 102.422 1.58509 0.362453 0
M  V30 1044 O 103.606 1.86527 0.271994 0
M  V30 1045 C 100.733 3.3855 0.100915 0
M  V30 1046 C 99.7788 4.18317 -0.831438 0
M  V30 1047 S 100.612 4.82375 -2.32539 0
M  V30 1048 C 101.768 6.04508 -1.62238 0
M  V30 1049 H 102.001 2.5738 -1.48805 0
M  V30 1050 H 99.5338 1.27327 -0.873338 0
M  V30 1051 H 101.492 4.07358 0.506898 0
M  V30 1052 H 100.153 2.99338 0.951604 0
M  V30 1053 H 99.3458 5.03232 -0.278071 0
M  V30 1054 H 98.9478 3.5499 -1.17719 0
M  V30 1055 H 101.24 6.71133 -0.926622 0
M  V30 1056 H 102.183 6.64389 -2.44934 0
M  V30 1057 H 102.591 5.53559 -1.106 0
M  V30 1058 N 101.989 0.842826 1.3317 0
M  V30 1059 C 102.937 0.267495 2.31057 0
M  V30 1060 C 103.931 -0.602682 1.58316 0
M  V30 1061 O 105.137 -0.491803 1.73151 0
M  V30 1062 H 101.512 0.0677813 0.748939 0
M  V30 1063 H 103.483 1.10754 2.77085 0
M  V30 1064 C 102.232 -0.539331 3.43492 0
M  V30 1065 H 101.555 0.12095 3.99617 0
M  V30 1066 H 102.995 -0.90767 4.14171 0
M  V30 1067 C 101.454 -1.71981 2.89697 0
M  V30 1068 O 101.984 -2.81862 2.86211 0
M  V30 1069 N 100.19 -1.54299 2.46252 0
M  V30 1070 H 99.7369 -0.649143 2.49287 0
M  V30 1071 H 99.6949 -2.33431 2.10612 0
M  V30 1072 N 103.467 -1.45747 0.599634 0
M  V30 1073 C 104.397 -2.33235 -0.111306 0
M  V30 1074 C 105.378 -1.46359 -0.866781 0
M  V30 1075 O 106.563 -1.75146 -0.838904 0
M  V30 1076 C 103.693 -3.28932 -1.11451 0
M  V30 1077 C 102.647 -4.25381 -0.472772 0
M  V30 1078 C 101.973 -5.1071 -1.58365 0
M  V30 1079 C 103.273 -5.18831 0.600948 0
M  V30 1080 H 104.967 -2.92927 0.61919 0
M  V30 1081 H 102.513 -1.40857 0.299215 0
M  V30 1082 H 104.466 -3.89002 -1.62036 0
M  V30 1083 H 103.19 -2.67381 -1.8755 0
M  V30 1084 H 101.849 -3.66598 0.0121472 0
M  V30 1085 H 101.497 -4.45533 -2.33473 0
M  V30 1086 H 101.197 -5.7604 -1.15982 0
M  V30 1087 H 102.721 -5.73647 -2.09194 0
M  V30 1088 H 104.135 -5.73019 0.179491 0
M  V30 1089 H 102.532 -5.92595 0.946076 0
M  V30 1090 H 103.602 -4.6174 1.48068 0
M  V30 1091 N 104.945 -0.338344 -1.53925 0
M  V30 1092 C 106.222 0.314774 -1.93051 0
M  V30 1093 C 106.602 1.68669 -1.26941 0
M  V30 1094 O 105.95 2.24636 -0.418445 0
M  V30 1095 C 106.16 0.392249 -3.46789 0
M  V30 1096 C 107.508 0.645554 -4.19664 0
M  V30 1097 O 108.532 0.474575 -3.53024 0
M  V30 1098 O 107.391 0.976408 -5.37707 0
M  V30 1099 H 104.485 0.182598 -0.80659 0
M  V30 1100 H 107.031 -0.389141 -1.65178 0
M  V30 1101 H 105.803 -0.570702 -3.87116 0
M  V30 1102 H 105.426 1.14316 -3.80812 0
M  V30 1103 N 106.423 1.57458 -0.0668435 0
M  V30 1104 C 107.7 1.8469 0.644132 0
M  V30 1105 C 108.08 0.958343 1.88093 0
M  V30 1106 O 107.428 0.0233579 2.28488 0
M  V30 1107 C 107.638 3.34767 0.986509 0
M  V30 1108 C 108.986 4.02159 1.36212 0
M  V30 1109 O 110.01 3.39484 1.07839 0
M  V30 1110 O 108.869 5.12694 1.89227 0
M  V30 1111 H 105.963 0.762816 0.319437 0
M  V30 1112 H 108.509 1.6942 -0.0973986 0
M  V30 1113 H 107.281 3.91151 0.107883 0
M  V30 1114 H 106.904 3.55281 1.78497 0
M  V30 1115 N 107.901 -0.206675 1.56239 0
M  V30 1116 C 109.147 -0.930218 1.80208 0
M  V30 1117 C 109.48 -1.83387 0.638981 0
M  V30 1118 O 108.755 -1.91119 -0.361066 0
M  V30 1119 C 109.038 -1.75641 3.1436 0
M  V30 1120 C 108.891 -0.878257 4.41142 0
M  V30 1121 C 110.21 -2.73129 3.45092 0
M  V30 1122 H 107.329 -0.336742 0.655571 0
M  V30 1123 H 109.971 -0.198222 1.88963 0
M  V30 1124 H 108.121 -2.38048 3.07027 0
M  V30 1125 H 109.793 -0.269787 4.6051 0
M  V30 1126 H 108.036 -0.184385 4.33408 0
M  V30 1127 H 108.707 -1.49106 5.3148 0
M  V30 1128 H 111.183 -2.20856 3.52649 0
M  V30 1129 H 110.059 -3.28028 4.40101 0
M  V30 1130 H 110.32 -3.51606 2.68003 0
M  V30 1131 N 109.379 -1.50304 -0.473955 0
M  V30 1132 C 110.628 -1.60392 -1.22301 0
M  V30 1133 C 110.941 -0.308411 -1.93153 0
M  V30 1134 O 112.147 -0.288156 -2.69966 0
M  V30 1135 C 110.603 -2.83109 -2.2221 0
M  V30 1136 C 110.211 -4.19524 -1.57173 0
M  V30 1137 C 111.955 -3.0254 -2.97775 0
M  V30 1138 C 109.862 -5.33431 -2.55353 0
M  V30 1139 H 108.792 -0.597286 -0.460179 0
M  V30 1140 H 111.443 -1.76731 -0.493803 0
M  V30 1141 H 109.825 -2.60322 -2.9841 0
M  V30 1142 H 110.999 -4.52554 -0.867824 0
M  V30 1143 H 109.314 -4.05674 -0.939002 0
M  V30 1144 H 111.911 -3.84811 -3.71248 0
M  V30 1145 H 112.254 -2.14154 -3.56992 0
M  V30 1146 H 112.787 -3.25494 -2.28688 0
M  V30 1147 H 109.526 -6.23962 -2.00878 0
M  V30 1148 H 109.046 -5.04823 -3.23904 0
M  V30 1149 H 110.725 -5.63887 -3.17239 0
M  V30 1150 N 110.857 0.726932 -1.39834 0
M  V30 1151 C 112.106 1.48214 -1.36805 0
M  V30 1152 C 112.419 1.95576 0.0305291 0
M  V30 1153 O 113.625 2.7088 0.183417 0
M  V30 1154 C 112.081 2.67854 -2.40379 0
M  V30 1155 C 111.689 2.27408 -3.85992 0
M  V30 1156 C 113.433 3.45641 -2.46439 0
M  V30 1157 C 111.34 3.43819 -4.81189 0
M  V30 1158 H 110.27 0.556606 -0.508631 0
M  V30 1159 H 112.921 0.792216 -1.65518 0
M  V30 1160 H 111.303 3.3896 -2.04749 0
M  V30 1161 H 112.477 1.63795 -4.30706 0
M  V30 1162 H 110.792 1.62692 -3.83302 0
M  V30 1163 H 113.389 4.32244 -3.14753 0
M  V30 1164 H 113.732 3.88669 -1.49139 0
M  V30 1165 H 114.265 2.8157 -2.81004 0
M  V30 1166 H 111.004 3.05834 -5.79781 0
M  V30 1167 H 110.524 4.06385 -4.41148 0
M  V30 1168 H 112.203 4.10043 -5.00474 0
M  V30 1169 N 112.336 1.25143 0.95797 0
M  V30 1170 C 113.613 1.00472 1.67823 0
M  V30 1171 C 113.993 -0.470056 2.058 0
M  V30 1172 O 113.341 -1.44663 1.76875 0
M  V30 1173 C 113.551 1.9372 2.90299 0
M  V30 1174 C 114.899 2.21371 3.62326 0
M  V30 1175 O 115.923 1.91451 3.00375 0
M  V30 1176 O 114.782 2.72231 4.7387 0
M  V30 1177 H 111.876 0.380752 0.734137 0
M  V30 1178 H 114.422 1.36283 1.01119 0
M  V30 1179 H 113.194 2.93316 2.59001 0
M  V30 1180 H 112.817 1.58286 3.64735 0
M  V30 1181 N 113.814 -1.1601 1.06675 0
M  V30 1182 C 114.777 -2.18724 0.685001 0
M  V30 1183 C 115.777 -1.58496 -0.271246 0
M  V30 1184 O 116.967 -1.74119 -0.0531156 0
M  V30 1185 C 114.099 -3.40899 0.00853648 0
M  V30 1186 H 115.292 -2.54011 1.59431 0
M  V30 1187 H 112.845 -1.30352 0.862441 0
M  V30 1188 H 113.58 -3.11173 -0.913337 0
M  V30 1189 H 113.365 -3.8587 0.696204 0
M  V30 1190 H 114.855 -4.16886 -0.24414 0
M  V30 1191 N 115.292 -0.849877 -1.32721 0
M  V30 1192 C 116.569 -0.372405 -1.92022 0
M  V30 1193 C 116.949 1.1435 -1.77447 0
M  V30 1194 O 116.297 1.96296 -1.16962 0
M  V30 1195 C 116.507 -0.831482 -3.3895 0
M  V30 1196 C 117.855 -0.845882 -4.16089 0
M  V30 1197 O 118.879 -0.775806 -3.47649 0
M  V30 1198 O 117.738 -0.943753 -5.38289 0
M  V30 1199 H 114.832 -0.107667 -0.819961 0
M  V30 1200 H 117.378 -0.93646 -1.41522 0
M  V30 1201 H 116.15 -1.87448 -3.4348 0
M  V30 1202 H 115.773 -0.24461 -3.96847 0
M  V30 1203 N 116.77 1.45427 -0.607355 0
M  V30 1204 C 118.017 2.02241 -0.102455 0
M  V30 1205 C 118.345 1.4758 1.26691 0
M  V30 1206 O 117.6 0.640468 1.84923 0
M  V30 1207 C 117.899 3.57398 -0.0129263 0
M  V30 1208 C 117.565 4.3121 -1.31792 0
M  V30 1209 C 116.227 4.51092 -1.67539 0
M  V30 1210 C 118.579 4.73401 -2.18039 0
M  V30 1211 C 115.907 5.10422 -2.89285 0
M  V30 1212 C 118.259 5.34078 -3.39034 0
M  V30 1213 C 116.923 5.52184 -3.75033 0
M  V30 1214 H 116.193 0.740051 -0.037491 0
M  V30 1215 H 118.84 1.74494 -0.788926 0
M  V30 1216 H 117.145 3.84421 0.756806 0
M  V30 1217 H 118.842 3.99061 0.393881 0
M  V30 1218 H 115.432 4.16047 -1.02968 0
M  V30 1219 H 119.616 4.57774 -1.91721 0
M  V30 1220 H 114.872 5.22629 -3.17283 0
M  V30 1221 H 119.046 5.65724 -4.06115 0
M  V30 1222 H 116.673 5.97925 -4.69457 0
M  V30 1223 N 118.248 0.346503 1.53744 0
M  V30 1224 C 119.494 -0.249473 2.0126 0
M  V30 1225 C 119.827 -1.49965 1.23386 0
M  V30 1226 O 119.102 -1.91811 0.32229 0
M  V30 1227 C 119.385 -0.560643 3.55709 0
M  V30 1228 C 119.238 0.701836 4.44291 0
M  V30 1229 C 120.557 -1.36905 4.18264 0
M  V30 1230 H 117.676 -0.0891987 0.731582 0
M  V30 1231 H 120.318 0.467624 1.84156 0
M  V30 1232 H 118.468 -1.17156 3.70414 0
M  V30 1233 H 120.14 1.33974 4.41417 0
M  V30 1234 H 118.383 1.32612 4.13033 0
M  V30 1235 H 119.054 0.43933 5.50249 0
M  V30 1236 H 121.53 -0.852448 4.07275 0
M  V30 1237 H 120.406 -1.55553 5.26398 0
M  V30 1238 H 120.667 -2.37203 3.73078 0
M  V30 1239 N 119.726 -1.57421 0.075193 0
M  V30 1240 C 120.975 -1.92794 -0.592731 0
M  V30 1241 C 121.288 -0.957478 -1.70563 0
M  V30 1242 O 122.494 -1.20417 -2.43335 0
M  V30 1243 C 120.95 -3.42495 -1.10569 0
M  V30 1244 C 120.558 -4.47994 -0.0236121 0
M  V30 1245 C 122.302 -3.86864 -1.74748 0
M  V30 1246 C 120.209 -5.88829 -0.550803 0
M  V30 1247 H 119.139 -0.719591 -0.225177 0
M  V30 1248 H 121.79 -1.82902 0.147978 0
M  V30 1249 H 120.172 -3.47471 -1.89947 0
M  V30 1250 H 121.346 -4.54637 0.751099 0
M  V30 1251 H 119.661 -4.13113 0.522159 0
M  V30 1252 H 122.258 -4.8947 -2.15229 0
M  V30 1253 H 122.601 -3.24417 -2.60882 0
M  V30 1254 H 123.134 -3.84504 -1.01986 0
M  V30 1255 H 119.873 -6.54929 0.273457 0
M  V30 1256 H 119.393 -5.85698 -1.29296 0
M  V30 1257 H 121.072 -6.38811 -1.02613 0
M  V30 1258 N 121.204 0.198386 -1.56346 0
M  V30 1259 C 122.152 1.26538 -1.95169 0
M  V30 1260 C 123.146 1.47295 -0.836685 0
M  V30 1261 O 124.352 1.48195 -1.02167 0
M  V30 1262 H 120.727 0.424744 -0.620561 0
M  V30 1263 H 122.698 0.910904 -2.84157 0
M  V30 1264 C 121.447 2.6035 -2.30463 0
M  V30 1265 H 120.77 2.45192 -3.15786 0
M  V30 1266 H 122.21 3.33762 -2.61494 0
M  V30 1267 C 120.669 3.17096 -1.13806 0
M  V30 1268 O 121.199 3.99588 -0.41135 0
M  V30 1269 N 119.405 2.75795 -0.915736 0
M  V30 1270 H 118.952 2.08816 -1.50843 0
M  V30 1271 H 118.91 3.14101 -0.136979 0
M  V30 1272 N 122.682 1.50554 0.465978 0
M  V30 1273 C 123.91 1.65563 1.24083 0
M  V30 1274 C 124.325 0.341051 1.85694 0
M  V30 1275 O 123.682 -0.677543 1.69457 0
M  V30 1276 C 123.733 2.75051 2.34583 0
M  V30 1277 O 123.454 4.01413 1.75497 0
M  V30 1278 C 124.955 3.01078 3.25372 0
M  V30 1279 H 122.175 0.55638 0.375077 0
M  V30 1280 H 124.719 1.96807 0.555624 0
M  V30 1281 H 122.874 2.46486 2.9887 0
M  V30 1282 H 123.288 4.62002 2.48303 0
M  V30 1283 H 124.762 3.81339 3.99105 0
M  V30 1284 H 125.239 2.12349 3.84453 0
M  V30 1285 H 125.845 3.31194 2.66816 0
M  V30 1286 N 124.16 -0.719506 1.40217 0
M  V30 1287 C 125.123 -1.8153 1.39927 0
M  V30 1288 C 126.123 -1.58095 0.293723 0
M  V30 1289 O 127.313 -1.65209 0.552429 0
M  V30 1290 C 124.445 -3.19561 1.18716 0
M  V30 1291 H 125.638 -1.83186 2.37451 0
M  V30 1292 H 123.191 -0.924746 1.26008 0
M  V30 1293 H 123.926 -3.23557 0.219366 0
M  V30 1294 H 123.711 -3.3797 1.98793 0
M  V30 1295 H 125.201 -3.99598 1.21291 0
M  V30 1296 N 125.638 -1.25649 -0.95132 0
M  V30 1297 C 126.571 -1.00644 -2.04807 0
M  V30 1298 C 127.549 0.0654271 -1.62468 0
M  V30 1299 O 128.733 -0.074911 -1.88351 0
M  V30 1300 C 125.86 -0.522052 -3.34653 0
M  V30 1301 C 124.906 -1.58495 -3.95957 0
M  V30 1302 S 125.739 -3.17108 -4.31512 0
M  V30 1303 C 126.895 -2.70412 -5.64471 0
M  V30 1304 H 127.128 -1.93508 -2.25703 0
M  V30 1305 H 124.661 -1.09216 -1.09139 0
M  V30 1306 H 126.619 -0.24923 -4.09743 0
M  V30 1307 H 125.28 0.386146 -3.11717 0
M  V30 1308 H 124.473 -1.1968 -4.89584 0
M  V30 1309 H 124.075 -1.80862 -3.2736 0
M  V30 1310 H 126.367 -2.14245 -6.42733 0
M  V30 1311 H 127.31 -3.62693 -6.08161 0
M  V30 1312 H 127.718 -2.10302 -5.23864 0
M  V30 1313 N 127.117 1.15442 -1.07289 0
M  V30 1314 C 128.363 1.86489 -0.796846 0
M  V30 1315 C 128.696 1.82078 0.675371 0
M  V30 1316 O 127.971 1.24346 1.4956 0
M  V30 1317 C 128.254 3.35626 -1.30489 0
M  V30 1318 C 128.107 3.48673 -2.84161 0
M  V30 1319 C 129.426 4.30357 -0.920907 0
M  V30 1320 H 126.545 0.677144 -0.290939 0
M  V30 1321 H 129.187 1.35633 -1.33056 0
M  V30 1322 H 127.337 3.79068 -0.850883 0
M  V30 1323 H 129.009 3.14099 -3.37846 0
M  V30 1324 H 127.252 2.90253 -3.22391 0
M  V30 1325 H 127.923 4.53453 -3.14777 0
M  V30 1326 H 130.399 3.94871 -1.3121 0
M  V30 1327 H 129.275 5.33193 -1.30372 0
M  V30 1328 H 129.536 4.4176 0.173226 0
M  V30 1329 N 128.595 0.856903 1.32268 0
M  V30 1330 C 129.843 0.460474 1.96784 0
M  V30 1331 C 130.164 -0.987701 1.68135 0
M  V30 1332 O 129.434 -1.69058 0.989765 0
M  V30 1333 H 128.014 0.167289 0.728027 0
M  V30 1334 H 130.676 1.09383 1.61312 0
M  V30 1335 H 129.772 0.60739 3.06133 0
M  V30 1336 N 130.073 -1.45103 0.615059 0
M  V30 1337 C 131.321 -2.01784 0.112955 0
M  V30 1338 C 131.642 -1.48504 -1.26378 0
M  V30 1339 O 130.912 -0.682245 -1.83636 0
M  V30 1340 H 129.492 -0.745993 0.0387668 0
M  V30 1341 H 132.154 -1.77808 0.798141 0
M  V30 1342 H 131.25 -3.12025 0.0684069 0
M  V30 1343 N 131.551 -0.354651 -1.53558 0
M  V30 1344 C 132.501 0.513179 -2.2215 0
M  V30 1345 C 133.485 1.05734 -1.21281 0
M  V30 1346 O 134.677 0.989202 -1.46778 0
M  V30 1347 C 131.806 1.65798 -3.00609 0
M  V30 1348 C 130.892 1.12722 -4.08845 0
M  V30 1349 N 131.283 0.318563 -5.04796 0
M  V30 1350 C 129.581 1.40307 -4.23356 0
M  V30 1351 C 130.282 0.0292224 -5.81693 0
M  V30 1352 N 129.258 0.623891 -5.40008 0
M  V30 1353 H 133.06 -0.111586 -2.93688 0
M  V30 1354 H 130.574 -0.162091 -1.61589 0
M  V30 1355 H 132.571 2.29176 -3.48258 0
M  V30 1356 H 131.231 2.28591 -2.306 0
M  V30 1357 H 132.242 -0.0413091 -5.17884 0
M  V30 1358 H 128.919 2.03458 -3.6457 0
M  V30 1359 H 130.309 -0.623808 -6.68998 0
M  V30 1360 N 133.029 1.57378 -0.0835403 0
M  V30 1361 C 134.257 1.98263 0.59157 0
M  V30 1362 C 134.672 0.962302 1.62435 0
M  V30 1363 O 134.029 -0.049581 1.82433 0
M  V30 1364 C 134.08 3.39214 1.24965 0
M  V30 1365 O 133.801 4.37339 0.258186 0
M  V30 1366 C 135.302 3.95038 2.01147 0
M  V30 1367 H 132.522 0.651773 0.159477 0
M  V30 1368 H 135.066 2.03878 -0.159415 0
M  V30 1369 H 133.221 3.34649 1.95164 0
M  V30 1370 H 133.635 5.19371 0.731734 0
M  V30 1371 H 135.109 4.95848 2.42567 0
M  V30 1372 H 135.586 3.32222 2.87272 0
M  V30 1373 H 136.192 4.0304 1.35789 0
M  V30 1374 N 134.507 -0.190092 1.56449 0
M  V30 1375 C 135.737 -0.92443 1.84764 0
M  V30 1376 C 136.145 -1.77146 0.664529 0
M  V30 1377 O 135.488 -1.79812 -0.375957 0
M  V30 1378 C 135.55 -1.86651 3.07248 0
M  V30 1379 C 135.214 -1.20094 4.40938 0
M  V30 1380 C 136.211 -0.575445 5.16706 0
M  V30 1381 C 133.896 -1.2033 4.87674 0
M  V30 1382 C 135.89 0.0388111 6.37388 0
M  V30 1383 C 133.577 -0.585214 6.08291 0
M  V30 1384 C 134.575 0.0347578 6.82991 0
M  V30 1385 O 134.263 0.643147 8.01323 0
M  V30 1386 H 133.995 -0.274974 0.617548 0
M  V30 1387 H 136.549 -0.200788 2.04416 0
M  V30 1388 H 134.779 -2.62998 2.83494 0
M  V30 1389 H 136.468 -2.46907 3.22167 0
M  V30 1390 H 137.234 -0.565728 4.81689 0
M  V30 1391 H 133.113 -1.67526 4.29484 0
M  V30 1392 H 136.657 0.523329 6.95634 0
M  V30 1393 H 132.554 -0.592451 6.42775 0
M  V30 1394 H 133.322 0.540545 8.16713 0
M  V30 1395 N 135.985 -1.50799 -0.457987 0
M  V30 1396 C 136.915 -1.73553 -1.5621 0
M  V30 1397 C 137.896 -0.584774 -1.59732 0
M  V30 1398 O 139.081 -0.825314 -1.7579 0
M  V30 1399 C 136.211 -1.84169 -2.94447 0
M  V30 1400 C 135.165 -2.99461 -3.0579 0
M  V30 1401 C 134.491 -2.95235 -4.45803 0
M  V30 1402 C 135.791 -4.39766 -2.81786 0
M  V30 1403 H 137.485 -2.66 -1.37421 0
M  V30 1404 H 135.031 -1.28002 -0.659662 0
M  V30 1405 H 136.984 -1.98672 -3.71628 0
M  V30 1406 H 135.708 -0.883545 -3.14422 0
M  V30 1407 H 134.367 -2.8463 -2.31044 0
M  V30 1408 H 134.015 -1.97239 -4.62715 0
M  V30 1409 H 133.715 -3.72642 -4.54326 0
M  V30 1410 H 135.239 -3.11803 -5.24987 0
M  V30 1411 H 136.653 -4.55054 -3.4871 0
M  V30 1412 H 135.05 -5.18722 -3.0174 0
M  V30 1413 H 136.12 -4.51229 -1.7754 0
M  V30 1414 N 137.463 0.71206 -1.40597 0
M  V30 1415 C 138.373 1.8562 -1.43466 0
M  V30 1416 C 139.389 1.70902 -0.326902 0
M  V30 1417 O 140.565 1.93105 -0.572043 0
M  V30 1418 C 137.63 3.21451 -1.29884 0
M  V30 1419 C 136.691 3.48398 -2.50833 0
M  V30 1420 C 135.924 4.77749 -2.3789 0
M  V30 1421 O 136.147 5.53089 -1.39459 0
M  V30 1422 O 135.081 5.05111 -3.27333 0
M  V30 1423 H 138.907 1.86155 -2.39958 0
M  V30 1424 H 136.492 0.86295 -1.21957 0
M  V30 1425 H 138.374 4.02579 -1.24531 0
M  V30 1426 H 137.049 3.21636 -0.364997 0
M  V30 1427 H 135.956 2.67265 -2.61763 0
M  V30 1428 H 137.289 3.53014 -3.4299 0
M  V30 1429 N 138.941 1.26152 0.944643 0
M  V30 1430 C 139.888 1.07408 2.04285 0
M  V30 1431 C 140.858 -0.0198413 1.66088 0
M  V30 1432 O 142.043 0.139264 1.90291 0
M  V30 1433 C 139.183 0.70945 3.37729 0
M  V30 1434 C 138.296 1.87926 3.88983 0
M  V30 1435 C 137.431 1.45807 5.10797 0
M  V30 1436 C 136.47 2.5964 5.54305 0
M  V30 1437 N 135.607 2.18226 6.67324 0
M  V30 1438 H 140.447 2.01389 2.1965 0
M  V30 1439 H 137.984 1.00275 1.07626 0
M  V30 1440 H 139.942 0.478948 4.14442 0
M  V30 1441 H 138.572 -0.193389 3.2222 0
M  V30 1442 H 137.624 2.22279 3.08701 0
M  V30 1443 H 138.936 2.73377 4.17213 0
M  V30 1444 H 138.09 1.18781 5.94959 0
M  V30 1445 H 136.829 0.574414 4.84305 0
M  V30 1446 H 135.834 2.87399 4.68702 0
M  V30 1447 H 137.059 3.48599 5.828 0
M  V30 1448 H 135.005 1.3229 6.42523 0
M  V30 1449 H 134.922 2.97221 6.95123 0
M  V30 1450 H 136.19 1.94403 7.54869 0
M  V30 1451 N 140.419 -1.14872 1.07899 0
M  V30 1452 C 141.665 -1.86064 0.806725 0
M  V30 1453 C 141.998 -1.82434 -0.665706 0
M  V30 1454 O 141.273 -1.25138 -1.48899 0
M  V30 1455 C 141.556 -3.34929 1.32267 0
M  V30 1456 C 141.409 -3.47161 2.86006 0
M  V30 1457 C 142.728 -4.29863 0.943717 0
M  V30 1458 H 139.847 -0.675591 0.294526 0
M  V30 1459 H 142.489 -1.34925 1.33773 0
M  V30 1460 H 140.639 -3.78611 0.870974 0
M  V30 1461 H 142.311 -3.12302 3.39507 0
M  V30 1462 H 140.554 -2.88539 3.23925 0
M  V30 1463 H 141.225 -4.51777 3.17177 0
M  V30 1464 H 143.701 -3.9417 1.33302 0
M  V30 1465 H 142.577 -5.32494 1.33198 0
M  V30 1466 H 142.838 -4.41846 -0.149796 0
M  V30 1467 N 141.898 -0.863906 -1.31812 0
M  V30 1468 C 143.314 -0.555004 -1.49639 0
M  V30 1469 C 143.514 0.912266 -1.79666 0
M  V30 1470 O 142.57 1.69479 -1.87171 0
M  V30 1471 C 143.883 -1.44998 -2.63431 0
M  V30 1472 C 145.431 -1.45138 -2.77316 0
M  V30 1473 C 145.906 -2.33179 -3.94197 0
M  V30 1474 N 147.397 -2.31025 -4.01474 0
M  V30 1475 C 148.132 -2.95871 -4.9117 0
M  V30 1476 N 147.628 -3.69863 -5.8581 0
M  V30 1477 N 149.421 -2.85211 -4.84367 0
M  V30 1478 H 141.572 -1.81339 -1.10589 0
M  V30 1479 H 143.835 -0.77505 -0.545895 0
M  V30 1480 H 143.541 -2.49377 -2.48 0
M  V30 1481 H 143.415 -1.14409 -3.59431 0
M  V30 1482 H 145.802 -0.415201 -2.92164 0
M  V30 1483 H 145.883 -1.79747 -1.82001 0
M  V30 1484 H 145.527 -3.3687 -3.80107 0
M  V30 1485 H 145.457 -1.95897 -4.88807 0
M  V30 1486 H 147.948 -1.77238 -3.33759 0
M  V30 1487 H 148.261 -4.16486 -6.50968 0
M  V30 1488 H 146.606 -3.73971 -5.85808 0
M  V30 1489 H 149.797 -2.26948 -4.09405 0
M  V30 1490 H 149.97 -3.36027 -5.54066 0
M  V30 1491 N 143.376 1.44774 -0.622745 0
M  V30 1492 C 144.308 2.28856 0.125485 0
M  V30 1493 C 145.321 1.40811 0.817069 0
M  V30 1494 O 146.51 1.65044 0.679918 0
M  V30 1495 C 143.61 3.16963 1.19949 0
M  V30 1496 C 142.783 4.33374 0.592064 0
M  V30 1497 C 141.842 5.02577 1.55893 0
M  V30 1498 O 140.868 5.58873 1.07933 0
M  V30 1499 N 142.07 5.03256 2.89334 0
M  V30 1500 H 144.835 2.93713 -0.596068 0
M  V30 1501 H 142.396 1.55129 -0.463303 0
M  V30 1502 H 144.388 3.60123 1.84644 0
M  V30 1503 H 142.958 2.53913 1.82337 0
M  V30 1504 H 142.178 3.93509 -0.233322 0
M  V30 1505 H 143.466 5.08527 0.166738 0
M  V30 1506 H 142.864 4.58836 3.30887 0
M  V30 1507 H 141.421 5.50232 3.49412 0
M  V30 1508 N 144.854 0.36279 1.53368 0
M  V30 1509 C 146.103 -0.22888 2.00397 0
M  V30 1510 C 146.416 -1.50096 1.25421 0
M  V30 1511 O 147.622 -2.17106 1.63025 0
M  V30 1512 C 146.078 -0.458417 3.56969 0
M  V30 1513 C 145.686 0.798877 4.4082 0
M  V30 1514 C 147.43 -1.00789 4.12361 0
M  V30 1515 C 145.337 0.539078 5.88938 0
M  V30 1516 H 144.267 -0.089305 0.748693 0
M  V30 1517 H 146.918 0.481099 1.77081 0
M  V30 1518 H 145.3 -1.22959 3.76427 0
M  V30 1519 H 146.474 1.57262 4.33134 0
M  V30 1520 H 144.789 1.27137 3.96516 0
M  V30 1521 H 147.386 -1.21754 5.20653 0
M  V30 1522 H 147.729 -1.9692 3.66781 0
M  V30 1523 H 148.262 -0.296961 3.9669 0
M  V30 1524 H 145.001 1.47064 6.3879 0
M  V30 1525 H 144.521 -0.196222 5.99479 0
M  V30 1526 H 146.2 0.163542 6.46793 0
M  V30 1527 N 146.332 -1.57332 0.0918853 0
M  V30 1528 C 147.58 -1.93853 -0.571446 0
M  V30 1529 C 147.901 -0.974212 -1.6892 0
M  V30 1530 O 147.171 -0.0257254 -1.95883 0
M  V30 1531 H 145.751 -0.715666 -0.214082 0
M  V30 1532 H 148.413 -1.94287 0.154464 0
M  V30 1533 H 147.509 -2.96191 -0.983729 0
M  V30 1534 N 147.81 0.181792 -1.56548 0
M  V30 1535 C 148.72 1.24538 -1.98815 0
M  V30 1536 C 149.736 1.49045 -0.897861 0
M  V30 1537 O 150.912 1.61399 -1.20467 0
M  V30 1538 C 147.977 2.56683 -2.33055 0
M  V30 1539 C 147.038 2.40131 -3.55859 0
M  V30 1540 C 146.271 3.65975 -3.88456 0
M  V30 1541 O 146.494 4.70711 -3.22161 0
M  V30 1542 O 145.428 3.6071 -4.81842 0
M  V30 1543 H 149.254 0.916647 -2.89536 0
M  V30 1544 H 146.839 0.387842 -1.44278 0
M  V30 1545 H 148.721 3.34655 -2.56094 0
M  V30 1546 H 147.396 2.89157 -1.45498 0
M  V30 1547 H 146.303 1.60226 -3.38051 0
M  V30 1548 H 147.636 2.12585 -4.43924 0
M  V30 1549 N 149.288 1.51039 0.449983 0
M  V30 1550 C 150.235 1.71439 1.54523 0
M  V30 1551 C 151.205 0.555871 1.56522 0
M  V30 1552 O 152.39 0.788871 1.73728 0
M  V30 1553 C 149.53 1.83384 2.92343 0
M  V30 1554 C 148.643 3.10873 2.9997 0
M  V30 1555 C 147.778 3.13488 4.28834 0
M  V30 1556 C 146.817 4.35343 4.30282 0
M  V30 1557 N 145.954 4.35579 5.5065 0
M  V30 1558 H 150.794 2.64934 1.36433 0
M  V30 1559 H 148.331 1.31312 0.662982 0
M  V30 1560 H 150.289 1.88291 3.72293 0
M  V30 1561 H 148.919 0.933086 3.0902 0
M  V30 1562 H 147.971 3.15336 2.12761 0
M  V30 1563 H 149.283 4.00814 2.96901 0
M  V30 1564 H 148.437 3.17241 5.17149 0
M  V30 1565 H 147.176 2.21414 4.34543 0
M  V30 1566 H 146.181 4.3178 3.40362 0
M  V30 1567 H 147.406 5.28668 4.26248 0
M  V30 1568 H 145.352 3.46369 5.57104 0
M  V30 1569 H 145.269 5.19313 5.49409 0
M  V30 1570 H 146.537 4.43507 6.41032 0
M  V30 1571 N 150.766 -0.704594 1.40972 0
M  V30 1572 C 151.996 -1.49138 1.42974 0
M  V30 1573 C 152.404 -1.89175 0.0308406 0
M  V30 1574 O 151.747 -1.56734 -0.958138 0
M  V30 1575 C 151.809 -2.79016 2.26694 0
M  V30 1576 C 151.473 -2.61236 3.74973 0
M  V30 1577 C 152.47 -2.27773 4.67349 0
M  V30 1578 C 150.155 -2.77158 4.18914 0
M  V30 1579 C 152.149 -2.10457 6.01653 0
M  V30 1580 C 149.836 -2.59459 5.53285 0
M  V30 1581 C 150.834 -2.26158 6.4447 0
M  V30 1582 O 150.522 -2.08605 7.76363 0
M  V30 1583 H 150.254 -0.466443 0.489292 0
M  V30 1584 H 152.808 -0.8758 1.85793 0
M  V30 1585 H 151.038 -3.42947 1.78673 0
M  V30 1586 H 152.727 -3.40782 2.20504 0
M  V30 1587 H 153.493 -2.15095 4.34694 0
M  V30 1588 H 149.372 -3.02064 3.48251 0
M  V30 1589 H 152.916 -1.84387 6.72791 0
M  V30 1590 H 148.813 -2.71725 5.85522 0
M  V30 1591 H 149.581 -2.23439 7.87412 0
M  V30 1592 N 152.244 -1.26651 -0.937939 0
M  V30 1593 C 153.492 -1.12165 -1.68118 0
M  V30 1594 C 153.813 0.334983 -1.92101 0
M  V30 1595 O 153.083 1.23583 -1.52 0
M  V30 1596 H 151.663 -0.412093 -0.623048 0
M  V30 1597 H 154.325 -1.59027 -1.12678 0
M  V30 1598 H 153.421 -1.64289 -2.6536 0
M  V30 1599 N 153.722 1.14298 -1.08507 0
M  V30 1600 C 154.952 1.88945 -0.835663 0
M  V30 1601 C 155.36 1.78894 0.615928 0
M  V30 1602 O 154.703 1.1468 1.43506 0
M  V30 1603 C 154.765 3.39585 -1.17994 0
M  V30 1604 C 154.429 3.7342 -2.63451 0
M  V30 1605 C 155.426 3.73454 -3.61702 0
M  V30 1606 C 153.111 4.03368 -2.99332 0
M  V30 1607 C 155.105 4.02961 -4.93864 0
M  V30 1608 C 152.792 4.32538 -4.31687 0
M  V30 1609 C 153.79 4.32318 -5.28763 0
M  V30 1610 O 153.478 4.6078 -6.58739 0
M  V30 1611 H 153.21 0.605307 -0.300965 0
M  V30 1612 H 155.764 1.45673 -1.44806 0
M  V30 1613 H 153.994 3.83315 -0.51055 0
M  V30 1614 H 155.683 3.9554 -0.911182 0
M  V30 1615 H 156.449 3.50403 -3.35325 0
M  V30 1616 H 152.328 4.02692 -2.24411 0
M  V30 1617 H 155.872 4.02704 -5.69627 0
M  V30 1618 H 151.769 4.55059 -4.57812 0
M  V30 1619 H 152.537 4.78492 -6.64069 0
M  V30 1620 N 155.201 0.870884 1.31352 0
M  V30 1621 C 156.431 0.496049 2.00557 0
M  V30 1622 C 156.839 -0.916241 1.65534 0
M  V30 1623 O 156.182 -1.61188 0.881134 0
M  V30 1624 C 156.244 0.574418 3.54881 0
M  V30 1625 C 155.908 1.94849 4.1338 0
M  V30 1626 C 156.905 2.91611 4.30417 0
M  V30 1627 C 154.59 2.25005 4.49086 0
M  V30 1628 C 156.584 4.16672 4.82352 0
M  V30 1629 C 154.271 3.50315 5.00722 0
M  V30 1630 C 155.269 4.45964 5.17306 0
M  V30 1631 O 154.957 5.69052 5.67833 0
M  V30 1632 H 154.689 0.191664 0.64826 0
M  V30 1633 H 157.243 1.17409 1.68536 0
M  V30 1634 H 155.473 -0.160549 3.86367 0
M  V30 1635 H 157.162 0.212879 4.05341 0
M  V30 1636 H 157.928 2.69622 4.03149 0
M  V30 1637 H 153.807 1.51332 4.35453 0
M  V30 1638 H 157.351 4.91336 4.95211 0
M  V30 1639 H 153.248 3.72147 5.27424 0
M  V30 1640 H 154.016 5.71236 5.86201 0
M  V30 1641 N 156.679 -1.44442 0.630414 0
M  V30 1642 C 158.095 -1.56832 0.295973 0
M  V30 1643 C 158.295 -1.61806 -1.20088 0
M  V30 1644 O 157.351 -1.5607 -1.9849 0
M  V30 1645 C 158.664 -2.84031 0.987264 0
M  V30 1646 C 160.212 -2.97742 0.96534 0
M  V30 1647 C 160.687 -4.27743 1.63708 0
M  V30 1648 N 162.178 -4.34555 1.60364 0
M  V30 1649 C 162.913 -5.33862 2.09234 0
M  V30 1650 N 162.409 -6.39578 2.66292 0
M  V30 1651 N 164.202 -5.25366 1.99867 0
M  V30 1652 H 156.353 -1.39457 1.60205 0
M  V30 1653 H 158.616 -0.668237 0.672431 0
M  V30 1654 H 158.322 -2.86338 2.04215 0
M  V30 1655 H 158.196 -3.73534 0.524588 0
M  V30 1656 H 160.583 -2.94989 -0.0810639 0
M  V30 1657 H 160.664 -2.09589 1.4665 0
M  V30 1658 H 160.308 -4.31255 2.68293 0
M  V30 1659 H 160.238 -5.14752 1.11076 0
M  V30 1660 H 162.729 -3.58772 1.18705 0
M  V30 1661 H 163.042 -7.11637 3.01317 0
M  V30 1662 H 161.387 -6.40265 2.70343 0
M  V30 1663 H 164.578 -4.41688 1.55013 0
M  V30 1664 H 164.751 -6.02606 2.38265 0
M  V30 1665 N 158.157 -0.370918 -1.53173 0
M  V30 1666 C 159.405 0.216673 -2.00935 0
M  V30 1667 C 159.726 1.48845 -1.25977 0
M  V30 1668 O 158.996 1.92286 -0.374551 0
M  V30 1669 H 157.576 0.0830565 -0.742368 0
M  V30 1670 H 160.238 -0.49838 -1.8842 0
M  V30 1671 H 159.334 0.439893 -3.08984 0
M  V30 1672 N 159.635 1.57281 -0.100228 0
M  V30 1673 C 160.884 1.93713 0.561984 0
M  V30 1674 C 161.197 0.984492 1.69018 0
M  V30 1675 O 162.403 1.24273 2.41389 0
M  V30 1676 C 160.859 3.4421 1.05106 0
M  V30 1677 C 160.467 4.47975 -0.0476628 0
M  V30 1678 C 162.211 3.89595 1.68571 0
M  V30 1679 C 160.118 5.89631 0.457055 0
M  V30 1680 H 159.048 0.723082 0.2137 0
M  V30 1681 H 161.699 1.82644 -0.177057 0
M  V30 1682 H 160.081 3.50449 1.84395 0
M  V30 1683 H 161.255 4.53385 -0.823333 0
M  V30 1684 H 159.57 4.1223 -0.587816 0
M  V30 1685 H 162.167 4.92832 2.07414 0
M  V30 1686 H 162.51 3.28526 2.55688 0
M  V30 1687 H 163.043 3.86078 0.958562 0
M  V30 1688 H 159.782 6.54411 -0.377616 0
M  V30 1689 H 159.302 5.87681 1.19962 0
M  V30 1690 H 160.981 6.40363 0.92437 0
M  V30 1691 N 161.113 -0.173488 1.56642 0
M  V30 1692 C 162.39 -0.917617 1.7274 0
M  V30 1693 C 162.77 -2.00484 0.661027 0
M  V30 1694 O 162.118 -2.26184 -0.32453 0
M  V30 1695 C 162.328 -1.48433 3.15862 0
M  V30 1696 C 163.676 -1.95809 3.76754 0
M  V30 1697 O 164.7 -1.58231 3.19126 0
M  V30 1698 O 163.559 -2.65024 4.77938 0
M  V30 1699 H 160.653 -0.431772 0.705338 0
M  V30 1700 H 163.199 -0.161487 1.6893 0
M  V30 1701 H 161.971 -0.701715 3.84957 0
M  V30 1702 H 161.594 -2.30471 3.23989 0
M  V30 1703 N 162.591 -1.51276 -0.441967 0
M  V30 1704 C 163.554 -1.7167 -1.51862 0
M  V30 1705 C 164.554 -0.586793 -1.49711 0
M  V30 1706 O 165.744 -0.854276 -1.51815 0
M  V30 1707 C 162.876 -1.76889 -2.91416 0
M  V30 1708 H 164.069 -2.67754 -1.35084 0
M  V30 1709 H 161.622 -1.41196 -0.670333 0
M  V30 1710 H 162.357 -0.826026 -3.13604 0
M  V30 1711 H 162.142 -2.59001 -2.94382 0
M  V30 1712 H 163.632 -1.94522 -3.69528 0
M  V30 1713 N 164.069 0.697108 -1.41344 0
M  V30 1714 C 165.001 1.8224 -1.39001 0
M  V30 1715 C 166.014 1.60152 -0.292428 0
M  V30 1716 O 167.203 1.69684 -0.554048 0
M  V30 1717 C 164.303 3.18976 -1.14489 0
M  V30 1718 C 163.476 3.68105 -2.36258 0
M  V30 1719 C 162.535 4.83506 -2.07625 0
M  V30 1720 O 161.561 4.95201 -2.8065 0
M  V30 1721 N 162.763 5.70637 -1.06555 0
M  V30 1722 H 165.528 1.84742 -2.35988 0
M  V30 1723 H 163.089 0.87937 -1.35936 0
M  V30 1724 H 165.081 3.93801 -0.932885 0
M  V30 1725 H 163.651 3.11508 -0.261043 0
M  V30 1726 H 162.871 2.84204 -2.7317 0
M  V30 1727 H 164.159 3.97667 -3.17393 0
M  V30 1728 H 163.557 5.63817 -0.461125 0
M  V30 1729 H 162.114 6.45368 -0.913444 0
M  V30 1730 N 165.547 1.27147 0.931209 0
M  V30 1731 C 166.457 1.11372 2.06478 0
M  V30 1732 C 167.473 0.044645 1.73943 0
M  V30 1733 O 168.649 0.250417 1.99837 0
M  V30 1734 C 165.714 0.758838 3.38294 0
M  V30 1735 C 164.775 1.90841 3.84549 0
M  V30 1736 C 164.008 1.57036 5.10074 0
M  V30 1737 O 164.231 0.476645 5.68405 0
M  V30 1738 O 163.165 2.40839 5.51616 0
M  V30 1739 H 166.991 2.06493 2.22698 0
M  V30 1740 H 164.576 1.06301 1.04978 0
M  V30 1741 H 166.458 0.574098 4.17471 0
M  V30 1742 H 165.133 -0.162879 3.2329 0
M  V30 1743 H 164.04 2.14819 3.06274 0
M  V30 1744 H 165.373 2.81021 4.04089 0
M  V30 1745 N 167.025 -1.13721 1.09112 0
M  V30 1746 C 168.272 -1.84924 0.825192 0
M  V30 1747 C 168.6 -1.83347 -0.649151 0
M  V30 1748 O 167.855 -1.26449 -1.49362 0
M  V30 1749 C 168.154 -3.32861 1.30146 0
M  V30 1750 C 167.82 -3.54621 2.78486 0
M  V30 1751 C 166.482 -3.60268 3.18999 0
M  V30 1752 C 168.834 -3.62855 3.74146 0
M  V30 1753 C 166.162 -3.71679 4.53951 0
M  V30 1754 C 168.514 -3.75793 5.08883 0
M  V30 1755 C 167.178 -3.79692 5.4899 0
M  V30 1756 H 166.448 -0.676684 0.301959 0
M  V30 1757 H 169.095 -1.3428 1.36533 0
M  V30 1758 H 167.4 -3.85835 0.681064 0
M  V30 1759 H 169.097 -3.86395 1.07236 0
M  V30 1760 H 165.687 -3.50879 2.46134 0
M  V30 1761 H 169.871 -3.57775 3.43963 0
M  V30 1762 H 165.127 -3.72963 4.84467 0
M  V30 1763 H 169.301 -3.81107 5.82864 0
M  V30 1764 H 166.928 -3.88287 6.53558 0
M  V30 1765 N 168.503 -0.877838 -1.30888 0
M  V30 1766 C 169.451 -0.328662 -2.30266 0
M  V30 1767 C 170.445 0.560496 -1.59859 0
M  V30 1768 O 171.651 0.445722 -1.74394 0
M  V30 1769 H 168.026 -0.0876142 -0.746879 0
M  V30 1770 H 169.997 -1.18061 -2.74051 0
M  V30 1771 C 168.746 0.448071 -3.44801 0
M  V30 1772 H 168.069 -0.226859 -3.99156 0
M  V30 1773 H 169.509 0.797541 -4.16432 0
M  V30 1774 C 167.968 1.64239 -2.94155 0
M  V30 1775 O 168.498 2.74175 -2.93583 0
M  V30 1776 N 166.704 1.47716 -2.50256 0
M  V30 1777 H 166.251 0.582821 -2.5092 0
M  V30 1778 H 166.209 2.27765 -2.16727 0
M  V30 1779 N 169.982 1.44106 -0.638065 0
M  V30 1780 C 170.915 2.27924 0.112161 0
M  V30 1781 C 171.893 1.38945 0.844574 0
M  V30 1782 O 173.077 1.68386 0.847248 0
M  V30 1783 C 170.204 3.18029 1.16512 0
M  V30 1784 C 169.25 4.23163 0.532458 0
M  V30 1785 S 170.083 5.31131 -0.682666 0
M  V30 1786 C 171.239 6.24805 0.37013 0
M  V30 1787 H 171.472 2.91205 -0.598887 0
M  V30 1788 H 169.005 1.48394 -0.426441 0
M  V30 1789 H 170.963 3.70492 1.76766 0
M  V30 1790 H 169.624 2.53955 1.8484 0
M  V30 1791 H 168.817 4.86252 1.32571 0
M  V30 1792 H 168.419 3.74 0.00437644 0
M  V30 1793 H 170.711 6.66042 1.24071 0
M  V30 1794 H 171.654 7.07741 -0.225349 0
M  V30 1795 H 172.062 5.60154 0.699141 0
M  V30 1796 N 171.46 0.379036 1.52974 0
M  V30 1797 C 172.706 -0.206727 2.01744 0
M  V30 1798 C 173.039 -1.47314 1.26539 0
M  V30 1799 O 172.314 -1.91084 0.362903 0
M  V30 1800 C 172.597 -0.485066 3.56818 0
M  V30 1801 C 172.45 0.795919 4.42702 0
M  V30 1802 C 173.769 -1.28003 4.21074 0
M  V30 1803 H 170.888 -0.0736607 0.73331 0
M  V30 1804 H 173.53 0.506581 1.83122 0
M  V30 1805 H 171.68 -1.09272 3.72816 0
M  V30 1806 H 173.352 1.43307 4.38476 0
M  V30 1807 H 171.595 1.41344 4.10127 0
M  V30 1808 H 172.266 0.555947 5.49193 0
M  V30 1809 H 174.742 -0.765867 4.08991 0
M  V30 1810 H 173.618 -1.44352 5.29579 0
M  V30 1811 H 173.879 -2.29236 3.78026 0
M  V30 1812 N 172.938 -1.57226 0.108567 0
M  V30 1813 C 174.163 -1.99604 -0.563303 0
M  V30 1814 C 174.588 -0.987563 -1.6009 0
M  V30 1815 O 173.946 0.0421687 -1.81251 0
M  V30 1816 C 173.994 -3.40902 -1.17552 0
M  V30 1817 O 173.098 -3.42896 -2.2912 0
M  V30 1818 H 172.439 -0.648704 -0.1417 0
M  V30 1819 H 174.969 -2.03679 0.193961 0
M  V30 1820 H 174.979 -3.78886 -1.51357 0
M  V30 1821 H 173.654 -4.1382 -0.415445 0
M  V30 1822 H 172.231 -3.1672 -1.96832 0
M  V30 1823 N 174.416 0.165178 -1.56732 0
M  V30 1824 C 175.693 0.908443 -1.73224 0
M  V30 1825 C 176.073 2.0013 -0.67165 0
M  V30 1826 O 175.421 2.26353 0.31253 0
M  V30 1827 C 175.631 1.46756 -3.16644 0
M  V30 1828 C 176.979 1.93809 -3.77787 0
M  V30 1829 O 178.003 1.56537 -3.1996 0
M  V30 1830 O 176.862 2.62486 -4.79336 0
M  V30 1831 H 173.956 0.428025 -0.707618 0
M  V30 1832 H 176.502 0.152526 -1.69013 0
M  V30 1833 H 175.274 0.68129 -3.85323 0
M  V30 1834 H 174.897 2.28749 -3.25207 0
M  V30 1835 N 175.894 1.51508 0.433938 0
M  V30 1836 C 177.124 1.67914 1.20369 0
M  V30 1837 C 177.532 0.377461 1.85397 0
M  V30 1838 O 176.875 -0.654255 1.71654 0
M  V30 1839 C 176.937 2.74045 2.32679 0
M  V30 1840 C 176.601 4.16543 1.87991 0
M  V30 1841 C 177.598 5.01211 1.38145 0
M  V30 1842 C 175.283 4.6266 1.95579 0
M  V30 1843 C 177.277 6.30056 0.964774 0
M  V30 1844 C 174.964 5.91501 1.53523 0
M  V30 1845 C 175.962 6.75027 1.04055 0
M  V30 1846 O 175.65 8.01459 0.625964 0
M  V30 1847 H 175.382 0.566578 0.368735 0
M  V30 1848 H 177.936 1.98709 0.51999 0
M  V30 1849 H 176.166 2.38572 3.04336 0
M  V30 1850 H 177.855 2.79295 2.94532 0
M  V30 1851 H 178.621 4.66783 1.31675 0
M  V30 1852 H 174.5 3.97767 2.33029 0
M  V30 1853 H 178.044 6.95202 0.57796 0
M  V30 1854 H 173.941 6.25442 1.59665 0
M  V30 1855 H 174.709 8.15043 0.751509 0
M  V30 1856 N 177.372 -0.689602 1.41712 0
M  V30 1857 C 178.602 -1.47613 1.44548 0
M  V30 1858 C 179.01 -1.89132 0.0509034 0
M  V30 1859 O 178.353 -1.57741 -0.94146 0
M  V30 1860 C 178.415 -2.76596 2.2964 0
M  V30 1861 C 178.079 -2.57245 3.77722 0
M  V30 1862 C 179.076 -2.22804 4.69739 0
M  V30 1863 C 176.761 -2.727 4.2183 0
M  V30 1864 C 178.755 -2.04064 6.03851 0
M  V30 1865 C 176.442 -2.53576 5.56006 0
M  V30 1866 C 177.44 -2.1931 6.46832 0
M  V30 1867 O 177.128 -2.00359 7.78532 0
M  V30 1868 H 176.86 -0.461227 0.494212 0
M  V30 1869 H 179.414 -0.856045 1.86711 0
M  V30 1870 H 177.644 -3.41033 1.82301 0
M  V30 1871 H 179.333 -3.38424 2.24107 0
M  V30 1872 H 180.099 -2.10473 4.36951 0
M  V30 1873 H 175.978 -2.98353 3.51435 0
M  V30 1874 H 179.522 -1.77241 6.74708 0
M  V30 1875 H 175.419 -2.65499 5.88371 0
M  V30 1876 H 176.187 -2.15075 7.89737 0
M  V30 1877 N 178.85 -1.27639 -0.924453 0
M  V30 1878 C 180.078 -1.16989 -1.70649 0
M  V30 1879 C 180.493 0.272869 -1.86818 0
M  V30 1880 O 179.85 1.18549 -1.38753 0
M  V30 1881 C 179.901 -1.85229 -3.10439 0
M  V30 1882 O 179.622 -3.23868 -2.95028 0
M  V30 1883 C 181.123 -1.80746 -4.04779 0
M  V30 1884 H 178.343 -0.406595 -0.53378 0
M  V30 1885 H 180.887 -1.68569 -1.15778 0
M  V30 1886 H 179.042 -1.37545 -3.6216 0
M  V30 1887 H 179.456 -3.57889 -3.83426 0
M  V30 1888 H 180.93 -2.33101 -5.00368 0
M  V30 1889 H 181.407 -0.777499 -4.32263 0
M  V30 1890 H 182.013 -2.28059 -3.58984 0
M  V30 1891 N 180.328 1.1314 -1.09713 0
M  V30 1892 C 181.575 1.84484 -0.834987 0
M  V30 1893 C 181.903 1.83689 0.639418 0
M  V30 1894 O 181.158 1.2724 1.4869 0
M  V30 1895 C 181.457 3.32167 -1.3191 0
M  V30 1896 C 181.123 3.53139 -2.80363 0
M  V30 1897 C 179.785 3.58571 -3.20905 0
M  V30 1898 C 182.137 3.60866 -3.76065 0
M  V30 1899 C 179.465 3.69267 -4.55916 0
M  V30 1900 C 181.817 3.73089 -5.10869 0
M  V30 1901 C 180.481 3.76775 -5.50996 0
M  V30 1902 H 179.751 0.675073 -0.305544 0
M  V30 1903 H 182.398 1.33554 -1.37243 0
M  V30 1904 H 180.703 3.85469 -0.701517 0
M  V30 1905 H 182.4 3.85821 -1.09284 0
M  V30 1906 H 178.99 3.49569 -2.47991 0
M  V30 1907 H 183.174 3.55946 -3.45855 0
M  V30 1908 H 178.43 3.70388 -4.86438 0
M  V30 1909 H 182.604 3.78011 -5.84877 0
M  V30 1910 H 180.231 3.84815 -6.55608 0
M  V30 1911 N 181.806 0.884767 1.30421 0
M  V30 1912 C 183.031 0.517288 2.00845 0
M  V30 1913 C 183.456 -0.886779 1.65885 0
M  V30 1914 O 182.814 -1.58768 0.875354 0
M  V30 1915 C 182.862 0.698994 3.5376 0
M  V30 1916 O 181.966 -0.255208 4.1161 0
M  V30 1917 H 181.307 0.203872 0.631927 0
M  V30 1918 H 183.837 1.19225 1.66272 0
M  V30 1919 H 183.847 0.597912 4.03595 0
M  V30 1920 H 182.522 1.72271 3.78544 0
M  V30 1921 H 181.099 -0.10784 3.72744 0
M  V30 1922 N 183.284 -1.43765 0.645699 0
M  V30 1923 C 184.232 -2.32516 -0.0624849 0
M  V30 1924 C 185.226 -1.48183 -0.820855 0
M  V30 1925 O 186.432 -1.64439 -0.732106 0
M  V30 1926 H 182.807 -0.750989 -0.0389864 0
M  V30 1927 H 184.778 -2.89979 0.703892 0
M  V30 1928 C 183.527 -3.32389 -1.02044 0
M  V30 1929 H 182.85 -3.97301 -0.446312 0
M  V30 1930 H 184.29 -3.97138 -1.48517 0
M  V30 1931 C 182.749 -2.62416 -2.11281 0
M  V30 1932 O 183.279 -2.434 -3.19561 0
M  V30 1933 N 181.485 -2.21913 -1.87624 0
M  V30 1934 H 181.032 -2.37578 -0.995703 0
M  V30 1935 H 180.99 -1.75424 -2.6091 0
M  V30 1936 N 184.763 -0.387143 -1.52771 0
M  V30 1937 C 185.993 0.195585 -2.05672 0
M  V30 1938 C 186.401 1.41241 -1.25887 0
M  V30 1939 O 185.744 1.81265 -0.298081 0
M  V30 1940 C 185.806 0.632327 -3.53895 0
M  V30 1941 C 185.47 -0.470739 -4.54569 0
M  V30 1942 C 186.467 -1.32746 -5.02667 0
M  V30 1943 C 184.152 -0.637151 -4.98243 0
M  V30 1944 C 186.146 -2.33574 -5.93061 0
M  V30 1945 C 183.833 -1.64877 -5.88438 0
M  V30 1946 C 184.831 -2.49649 -6.35739 0
M  V30 1947 O 184.519 -3.49082 -7.24153 0
M  V30 1948 H 184.251 0.033658 -0.675162 0
M  V30 1949 H 186.805 -0.550221 -1.97893 0
M  V30 1950 H 185.035 1.43008 -3.59285 0
M  V30 1951 H 186.724 1.14048 -3.89548 0
M  V30 1952 H 187.49 -1.21019 -4.69659 0
M  V30 1953 H 183.369 0.0129567 -4.60998 0
M  V30 1954 H 186.913 -2.99777 -6.29904 0
M  V30 1955 H 182.81 -1.76643 -6.2086 0
M  V30 1956 H 183.578 -3.45065 -7.42208 0
M  V30 1957 N 186.241 1.57166 -0.116904 0
M  V30 1958 C 187.189 2.16457 0.851418 0
M  V30 1959 C 188.183 1.11323 1.27686 0
M  V30 1960 O 189.389 1.2963 1.24884 0
M  V30 1961 H 185.764 0.69271 0.292672 0
M  V30 1962 H 187.735 2.96605 0.32685 0
M  V30 1963 C 186.484 2.77689 2.09246 0
M  V30 1964 H 185.807 3.58285 1.77402 0
M  V30 1965 H 187.247 3.22716 2.7501 0
M  V30 1966 C 185.706 1.74667 2.88085 0
M  V30 1967 O 186.236 1.19877 3.83396 0
M  V30 1968 N 184.442 1.44656 2.52038 0
M  V30 1969 H 183.989 1.89402 1.74599 0
M  V30 1970 H 183.947 0.759675 3.05084 0
M  V30 1971 N 187.719 -0.156864 1.56817 0
M  V30 1972 C 188.651 -1.21883 1.94106 0
M  V30 1973 C 189.664 -1.3971 0.835754 0
M  V30 1974 O 190.853 -1.39457 1.11418 0
M  V30 1975 C 187.953 -2.58527 2.19127 0
M  V30 1976 C 187.126 -2.61809 3.50393 0
M  V30 1977 C 186.185 -3.7992 3.64071 0
M  V30 1978 O 185.211 -3.65249 4.36557 0
M  V30 1979 N 186.413 -4.96973 2.99997 0
M  V30 1980 H 189.178 -0.901974 2.85805 0
M  V30 1981 H 186.739 -0.346513 1.58148 0
M  V30 1982 H 188.731 -3.36034 2.25529 0
M  V30 1983 H 187.301 -2.82545 1.33742 0
M  V30 1984 H 186.521 -1.7029 3.5552 0
M  V30 1985 H 187.809 -2.61024 4.36742 0
M  V30 1986 H 187.207 -5.11794 2.41004 0
M  V30 1987 H 185.764 -5.7229 3.11974 0
M  V30 1988 N 189.197 -1.51736 -0.425897 0
M  V30 1989 C 190.127 -1.76827 -1.52494 0
M  V30 1990 C 191.108 -0.618524 -1.58456 0
M  V30 1991 O 192.293 -0.862416 -1.74 0
M  V30 1992 C 189.423 -1.90374 -2.90474 0
M  V30 1993 C 188.377 -3.0588 -2.99369 0
M  V30 1994 C 187.703 -3.04625 -4.3944 0
M  V30 1995 C 189.003 -4.45644 -2.72394 0
M  V30 1996 H 190.697 -2.68855 -1.31748 0
M  V30 1997 H 188.243 -1.29372 -0.632362 0
M  V30 1998 H 190.196 -2.0651 -3.6733 0
M  V30 1999 H 188.92 -0.95004 -3.12477 0
M  V30 2000 H 187.579 -2.89467 -2.24954 0
M  V30 2001 H 187.227 -2.0701 -4.58428 0
M  V30 2002 H 186.927 -3.82195 -4.46319 0
M  V30 2003 H 188.451 -3.22869 -5.18255 0
M  V30 2004 H 189.865 -4.62348 -3.38979 0
M  V30 2005 H 188.262 -5.25006 -2.9067 0
M  V30 2006 H 189.332 -4.54893 -1.67929 0
M  V30 2007 N 190.675 0.682077 -1.42076 0
M  V30 2008 C 191.622 1.79578 -1.44984 0
M  V30 2009 C 192.592 1.6332 -0.302614 0
M  V30 2010 O 193.777 1.83978 -0.505633 0
M  V30 2011 C 190.917 3.1756 -1.35091 0
M  V30 2012 C 190.03 3.45156 -2.59791 0
M  V30 2013 C 189.165 4.72826 -2.42093 0
M  V30 2014 C 188.204 4.93433 -3.62202 0
M  V30 2015 N 187.341 6.12338 -3.43491 0
M  V30 2016 H 192.181 1.76427 -2.40161 0
M  V30 2017 H 189.718 0.861376 -1.19242 0
M  V30 2018 H 191.676 3.97287 -1.27354 0
M  V30 2019 H 190.306 3.19854 -0.435133 0
M  V30 2020 H 189.358 2.59736 -2.77923 0
M  V30 2021 H 190.67 3.5628 -3.49094 0
M  V30 2022 H 189.824 5.60631 -2.319 0
M  V30 2023 H 188.563 4.63973 -1.50268 0
M  V30 2024 H 187.568 4.04073 -3.72834 0
M  V30 2025 H 188.793 5.04136 -4.54998 0
M  V30 2026 H 186.739 6.04672 -2.54377 0
M  V30 2027 H 186.656 6.2429 -4.26377 0
M  V30 2028 H 187.924 7.02841 -3.37097 0
M  V30 2029 N 192.153 1.28127 0.917671 0
M  V30 2030 C 193.383 1.17722 1.6978 0
M  V30 2031 C 193.791 -0.267261 1.87303 0
M  V30 2032 O 193.134 -1.19286 1.39702 0
M  V30 2033 C 193.196 1.79958 3.11216 0
M  V30 2034 C 192.86 3.29187 3.16993 0
M  V30 2035 C 193.857 4.25679 2.98485 0
M  V30 2036 C 191.542 3.70075 3.39632 0
M  V30 2037 C 193.536 5.61035 3.02521 0
M  V30 2038 C 191.223 5.05557 3.433 0
M  V30 2039 C 192.221 6.00847 3.24764 0
M  V30 2040 O 191.909 7.33859 3.28187 0
M  V30 2041 H 191.641 0.409788 0.537634 0
M  V30 2042 H 194.195 1.69694 1.15728 0
M  V30 2043 H 192.425 1.22475 3.66793 0
M  V30 2044 H 194.114 1.64125 3.71238 0
M  V30 2045 H 194.88 3.95426 2.80826 0
M  V30 2046 H 190.759 2.96373 3.53106 0
M  V30 2047 H 194.303 6.35388 2.87971 0
M  V30 2048 H 190.2 5.35462 3.60486 0
M  V30 2049 H 190.968 7.42436 3.44575 0
M  V30 2050 N 193.631 -1.12557 1.10312 0
M  V30 2051 C 194.878 -1.84038 0.844759 0
M  V30 2052 C 195.206 -1.84026 -0.629668 0
M  V30 2053 O 194.461 -1.28026 -1.48013 0
M  V30 2054 C 194.76 -3.31462 1.33669 0
M  V30 2055 C 194.426 -3.51647 2.82232 0
M  V30 2056 C 193.088 -3.56864 3.22802 0
M  V30 2057 C 195.44 -3.58867 3.77974 0
M  V30 2058 C 192.768 -3.66844 4.57867 0
M  V30 2059 C 195.12 -3.70375 5.1284 0
M  V30 2060 C 193.784 -3.73848 5.52986 0
M  V30 2061 H 193.054 -0.673444 0.309119 0
M  V30 2062 H 195.701 -1.32824 1.37949 0
M  V30 2063 H 194.006 -3.85091 0.721949 0
M  V30 2064 H 195.703 -3.85236 1.11329 0
M  V30 2065 H 192.293 -3.48249 2.49842 0
M  V30 2066 H 196.477 -3.54107 3.47738 0
M  V30 2067 H 191.733 -3.67804 4.88396 0
M  V30 2068 H 195.907 -3.74904 5.86873 0
M  V30 2069 H 193.534 -3.81333 6.57639 0
M  V30 2070 N 195.109 -0.891671 -1.2995 0
M  V30 2071 C 196.355 -0.514261 -1.96171 0
M  V30 2072 C 196.688 0.935506 -1.70182 0
M  V30 2073 O 195.963 1.66204 -1.01028 0
M  V30 2074 C 196.246 -0.797719 -3.51153 0
M  V30 2075 C 196.099 -2.2986 -3.86632 0
M  V30 2076 C 197.418 -0.278749 -4.39216 0
M  V30 2077 H 194.537 -0.188314 -0.712535 0
M  V30 2078 H 197.179 -1.11689 -1.53706 0
M  V30 2079 H 195.329 -0.284826 -3.87455 0
M  V30 2080 H 197.001 -2.88042 -3.60319 0
M  V30 2081 H 195.244 -2.76257 -3.34462 0
M  V30 2082 H 195.915 -2.44753 -4.94773 0
M  V30 2083 H 198.391 -0.717825 -4.09862 0
M  V30 2084 H 197.267 -0.506353 -5.46559 0
M  V30 2085 H 197.528 0.820266 -4.34424 0
M  V30 2086 N 196.587 1.43421 -0.653314 0
M  V30 2087 C 197.864 1.95361 -0.0966581 0
M  V30 2088 C 198.244 1.59461 1.38331 0
M  V30 2089 O 197.592 0.879777 2.10884 0
M  V30 2090 C 197.802 3.47311 -0.342988 0
M  V30 2091 C 199.15 4.23875 -0.24798 0
M  V30 2092 O 200.174 3.55133 -0.275553 0
M  V30 2093 O 199.033 5.4623 -0.171771 0
M  V30 2094 H 196.127 0.826945 0.00956291 0
M  V30 2095 H 198.673 1.5336 -0.726558 0
M  V30 2096 H 197.445 3.66569 -1.36906 0
M  V30 2097 H 197.068 3.9631 0.319975 0
M  V30 2098 N 198.065 0.39524 1.52563 0
M  V30 2099 C 199.314 -0.186321 2.00838 0
M  V30 2100 C 199.627 -1.47402 1.28577 0
M  V30 2101 O 200.833 -2.13599 1.67593 0
M  V30 2102 C 199.289 -0.382595 3.57861 0
M  V30 2103 C 198.897 0.892202 4.39026 0
M  V30 2104 C 200.641 -0.9202 4.14406 0
M  V30 2105 C 198.548 0.66388 5.87662 0
M  V30 2106 H 197.478 -0.0734041 0.750418 0
M  V30 2107 H 200.129 0.518552 1.76021 0
M  V30 2108 H 198.511 -1.14946 3.7895 0
M  V30 2109 H 199.685 1.66414 4.29701 0
M  V30 2110 H 198 1.35519 3.9373 0
M  V30 2111 H 200.597 -1.10683 5.23119 0
M  V30 2112 H 200.94 -1.89096 3.70875 0
M  V30 2113 H 201.473 -0.212751 3.97231 0
M  V30 2114 H 198.212 1.6058 6.35527 0
M  V30 2115 H 197.732 -0.0690193 5.9976 0
M  V30 2116 H 199.411 0.300699 6.46301 0
M  V30 2117 N 199.544 -1.57102 0.125237 0
M  V30 2118 C 200.507 -2.14471 -0.80838 0
M  V30 2119 C 201.507 -1.0811 -1.19033 0
M  V30 2120 O 202.697 -1.33856 -1.11482 0
M  V30 2121 C 199.829 -2.69005 -2.09402 0
M  V30 2122 H 201.022 -2.98297 -0.309696 0
M  V30 2123 H 198.575 -1.55807 -0.124051 0
M  V30 2124 H 199.31 -1.88785 -2.63687 0
M  V30 2125 H 199.095 -3.46799 -1.82957 0
M  V30 2126 H 200.585 -3.13278 -2.76128 0
M  V30 2127 N 201.022 0.148545 -1.56898 0
M  V30 2128 C 202.438 0.501131 -1.51528 0
M  V30 2129 C 202.638 1.83458 -0.833399 0
M  V30 2130 O 201.694 2.49259 -0.40328 0
M  V30 2131 C 203.007 0.512864 -2.96294 0
M  V30 2132 C 204.555 0.598487 -3.07225 0
M  V30 2133 C 205.03 0.640897 -4.53494 0
M  V30 2134 N 206.521 0.703163 -4.57832 0
M  V30 2135 C 207.256 0.756935 -5.68382 0
M  V30 2136 N 206.752 0.770147 -6.88506 0
M  V30 2137 N 208.545 0.797698 -5.56411 0
M  V30 2138 H 200.696 -0.725532 -1.99624 0
M  V30 2139 H 202.959 -0.264358 -0.910395 0
M  V30 2140 H 202.665 -0.398691 -3.49433 0
M  V30 2141 H 202.539 1.35133 -3.52163 0
M  V30 2142 H 204.926 1.50046 -2.54106 0
M  V30 2143 H 205.007 -0.267093 -2.54402 0
M  V30 2144 H 204.651 -0.256915 -5.0725 0
M  V30 2145 H 204.581 1.52295 -5.04097 0
M  V30 2146 H 207.072 0.700314 -3.71354 0
M  V30 2147 H 207.385 0.812983 -7.68512 0
M  V30 2148 H 205.73 0.738049 -6.9107 0
M  V30 2149 H 208.921 0.784535 -4.61479 0
M  V30 2150 H 209.094 0.83614 -6.42583 0
M  V30 2151 N 202.5 1.5196 0.417844 0
M  V30 2152 C 203.447 1.74678 1.50852 0
M  V30 2153 C 204.417 0.588947 1.55308 0
M  V30 2154 O 205.602 0.825544 1.72016 0
M  V30 2155 C 202.742 1.89544 2.88387 0
M  V30 2156 C 201.855 3.17166 2.93309 0
M  V30 2157 C 200.99 3.22513 4.22088 0
M  V30 2158 C 200.029 4.44372 4.20951 0
M  V30 2159 N 199.166 4.47161 5.41287 0
M  V30 2160 H 204.006 2.67768 1.30783 0
M  V30 2161 H 201.543 1.32689 0.63498 0
M  V30 2162 H 203.501 1.96146 3.68216 0
M  V30 2163 H 202.131 0.998424 3.06971 0
M  V30 2164 H 201.183 3.19778 2.06024 0
M  V30 2165 H 202.495 4.07021 2.88332 0
M  V30 2166 H 201.649 3.28139 5.10303 0
M  V30 2167 H 200.388 2.30581 4.29748 0
M  V30 2168 H 199.393 4.38902 3.31127 0
M  V30 2169 H 200.618 5.3759 4.14938 0
M  V30 2170 H 198.564 3.58108 5.49632 0
M  V30 2171 H 198.481 5.3085 5.3827 0
M  V30 2172 H 199.749 4.57005 6.3148 0
M  V30 2173 N 203.978 -0.674533 1.42435 0
M  V30 2174 C 205.227 -1.43034 1.42212 0
M  V30 2175 C 205.54 -1.95555 0.0420788 0
M  V30 2176 O 206.746 -2.71374 -0.0827558 0
M  V30 2177 C 205.202 -2.58748 2.50155 0
M  V30 2178 C 204.81 -2.12925 3.94166 0
M  V30 2179 C 206.554 -3.36257 2.59098 0
M  V30 2180 C 204.461 -3.25723 4.93618 0
M  V30 2181 H 203.391 -0.537345 0.528939 0
M  V30 2182 H 206.042 -0.73024 1.68344 0
M  V30 2183 H 204.424 -3.31128 2.17188 0
M  V30 2184 H 205.598 -1.47697 4.36488 0
M  V30 2185 H 203.913 -1.48354 3.89076 0
M  V30 2186 H 206.51 -4.20264 3.30578 0
M  V30 2187 H 206.853 -3.82866 1.63461 0
M  V30 2188 H 207.386 -2.70947 2.9126 0
M  V30 2189 H 204.125 -2.84105 5.90732 0
M  V30 2190 H 203.645 -3.89732 4.55926 0
M  V30 2191 H 205.324 -3.91186 5.15347 0
M  V30 2192 N 205.456 -1.28612 -0.910864 0
M  V30 2193 C 206.366 -1.14643 -2.0468 0
M  V30 2194 C 207.382 -0.0723121 -1.7385 0
M  V30 2195 O 208.558 -0.282178 -1.99413 0
M  V30 2196 C 205.623 -0.812561 -3.37044 0
M  V30 2197 C 204.684 -1.96935 -3.81465 0
M  V30 2198 C 203.917 -1.65131 -5.07511 0
M  V30 2199 O 204.14 -0.567013 -5.67575 0
M  V30 2200 O 203.074 -2.49585 -5.47714 0
M  V30 2201 H 206.9 -2.1001 -2.19384 0
M  V30 2202 H 204.485 -1.07958 -1.03274 0
M  V30 2203 H 206.367 -0.640441 -4.16505 0
M  V30 2204 H 205.042 0.111426 -3.23508 0
M  V30 2205 H 203.949 -2.19664 -3.02818 0
M  V30 2206 H 205.282 -2.87414 -3.99567 0
M  V30 2207 N 206.934 1.1197 -1.10907 0
M  V30 2208 C 207.881 2.17846 -0.762345 0
M  V30 2209 C 208.851 1.63995 0.263599 0
M  V30 2210 O 210.036 1.90273 0.141773 0
M  V30 2211 C 207.176 3.44487 -0.205651 0
M  V30 2212 C 206.289 4.12369 -1.28748 0
M  V30 2213 C 205.424 5.26674 -0.691919 0
M  V30 2214 C 204.463 5.86431 -1.75399 0
M  V30 2215 N 203.6 6.92142 -1.17833 0
M  V30 2216 H 208.44 2.46851 -1.6694 0
M  V30 2217 H 205.977 1.21188 -0.833776 0
M  V30 2218 H 207.935 4.16981 0.135037 0
M  V30 2219 H 206.565 3.15884 0.664613 0
M  V30 2220 H 205.617 3.38003 -1.74522 0
M  V30 2221 H 206.929 4.52844 -2.09125 0
M  V30 2222 H 206.083 6.05953 -0.300963 0
M  V30 2223 H 204.822 4.8749 0.143232 0
M  V30 2224 H 203.827 5.05835 -2.15432 0
M  V30 2225 H 205.052 6.27685 -2.59208 0
M  V30 2226 H 202.998 6.54985 -0.364725 0
M  V30 2227 H 202.915 7.31242 -1.91887 0
M  V30 2228 H 204.183 7.75237 -0.81408 0
M  V30 2229 N 208.412 0.89855 1.29475 0
M  V30 2230 C 209.342 0.39201 2.30186 0
M  V30 2231 C 210.323 -0.532359 1.61555 0
M  V30 2232 O 211.508 -0.443331 1.89072 0
M  V30 2233 C 208.638 -0.382353 3.45189 0
M  V30 2234 C 207.592 0.451483 4.25612 0
M  V30 2235 C 206.918 -0.450307 5.328 0
M  V30 2236 C 208.218 1.70079 4.93832 0
M  V30 2237 H 209.912 1.23362 2.72804 0
M  V30 2238 H 207.458 0.594638 1.31149 0
M  V30 2239 H 209.411 -0.747451 4.14718 0
M  V30 2240 H 208.135 -1.25774 3.01411 0
M  V30 2241 H 206.794 0.798897 3.57789 0
M  V30 2242 H 206.442 -1.32379 4.85268 0
M  V30 2243 H 206.142 0.103902 5.87508 0
M  V30 2244 H 207.666 -0.811623 6.05182 0
M  V30 2245 H 209.08 1.40549 5.55805 0
M  V30 2246 H 207.477 2.19623 5.58467 0
M  V30 2247 H 208.547 2.43744 4.19186 0
M  V30 2248 N 209.89 -1.43072 0.660911 0
M  V30 2249 C 211.115 -2.06584 0.183805 0
M  V30 2250 C 211.54 -1.49257 -1.14472 0
M  V30 2251 O 210.898 -0.605528 -1.70889 0
M  V30 2252 C 210.946 -3.60418 0.114434 0
M  V30 2253 O 210.05 -4.01981 -0.921137 0
M  V30 2254 H 209.391 -0.656669 0.0983994 0
M  V30 2255 H 211.921 -1.83447 0.906006 0
M  V30 2256 H 211.931 -4.07946 -0.0663394 0
M  V30 2257 H 210.606 -4.01519 1.08422 0
M  V30 2258 H 209.183 -3.66029 -0.71253 0
M  V30 2259 N 211.368 -0.403325 -1.52352 0
M  V30 2260 C 212.779 0.0675782 -1.86578 0
M  V30 2261 C 213.13 1.44941 -1.32236 0
M  V30 2262 O 212.255 2.06112 -0.659307 0
M  V30 2263 C 212.85 0.129404 -3.38553 0
M  V30 2264 C 211.409 0.544629 -3.72439 0
M  V30 2265 C 210.556 -0.284551 -2.75836 0
M  V30 2266 H 213.507 -0.620631 -1.46061 0
M  V30 2267 H 213.528 0.94581 -3.68558 0
M  V30 2268 H 213.04 -0.87645 -3.78074 0
M  V30 2269 H 211.141 1.55734 -3.38493 0
M  V30 2270 H 211.254 0.293046 -4.78203 0
M  V30 2271 H 209.618 0.252258 -2.53448 0
M  V30 2272 H 210.401 -1.28865 -3.18196 0
M  V30 2273 N 212.846 1.57033 -0.133567 0
M  V30 2274 C 213.793 2.16074 0.811208 0
M  V30 2275 C 214.763 1.08979 1.2535 0
M  V30 2276 O 215.948 1.36958 1.32843 0
M  V30 2277 C 213.088 2.77595 2.05024 0
M  V30 2278 C 212.201 3.99042 1.65498 0
M  V30 2279 C 211.336 4.48603 2.84479 0
M  V30 2280 C 210.375 5.62547 2.41262 0
M  V30 2281 N 209.512 6.06787 3.53206 0
M  V30 2282 H 214.352 2.96477 0.300906 0
M  V30 2283 H 211.889 1.46462 0.136822 0
M  V30 2284 H 213.847 3.11402 2.77642 0
M  V30 2285 H 212.477 1.99859 2.53488 0
M  V30 2286 H 211.529 3.71302 0.826981 0
M  V30 2287 H 212.841 4.81629 1.29748 0
M  V30 2288 H 211.995 4.84395 3.65303 0
M  V30 2289 H 210.734 3.64995 3.23465 0
M  V30 2290 H 209.739 5.26345 1.58874 0
M  V30 2291 H 210.964 6.47931 2.03377 0
M  V30 2292 H 208.91 5.26117 3.91838 0
M  V30 2293 H 208.827 6.84266 3.21427 0
M  V30 2294 H 210.095 6.4722 4.34427 0
M  V30 2295 N 214.325 -0.140222 1.56975 0
M  V30 2296 C 215.288 -1.15689 1.97861 0
M  V30 2297 C 216.288 -1.3549 0.865974 0
M  V30 2298 O 217.478 -1.32367 1.13246 0
M  V30 2299 C 214.61 -2.51582 2.30042 0
M  V30 2300 H 215.803 -0.805971 2.88867 0
M  V30 2301 H 213.356 -0.383801 1.51515 0
M  V30 2302 H 214.091 -2.91632 1.41849 0
M  V30 2303 H 213.876 -2.38569 3.11171 0
M  V30 2304 H 215.366 -3.24792 2.62488 0
M  V30 2305 N 215.803 -1.52179 -0.40978 0
M  V30 2306 C 217.049 -1.67408 -1.15525 0
M  V30 2307 C 217.404 -0.398746 -1.88223 0
M  V30 2308 O 216.697 0.60678 -1.81738 0
M  V30 2309 C 216.891 -2.83428 -2.17723 0
M  V30 2310 C 216.72 -4.22121 -1.55061 0
M  V30 2311 C 215.49 -4.87657 -1.3236 0
M  V30 2312 C 217.688 -5.04248 -1.01185 0
M  V30 2313 N 215.67 -6.10387 -0.655834 0
M  V30 2314 C 217.041 -6.18209 -0.470963 0
M  V30 2315 C 219.096 -4.89583 -0.906252 0
M  V30 2316 C 217.799 -7.1911 0.165172 0
M  V30 2317 C 219.825 -5.90718 -0.28397 0
M  V30 2318 C 219.187 -7.03969 0.246243 0
M  V30 2319 H 215.286 -0.666251 -0.409431 0
M  V30 2320 H 217.87 -1.89482 -0.447729 0
M  V30 2321 H 216.041 -2.6297 -2.85834 0
M  V30 2322 H 217.773 -2.87697 -2.84627 0
M  V30 2323 H 214.528 -4.46007 -1.59294 0
M  V30 2324 H 214.952 -6.76153 -0.338596 0
M  V30 2325 H 219.594 -4.02253 -1.302 0
M  V30 2326 H 217.312 -8.06066 0.572986 0
M  V30 2327 H 220.898 -5.81443 -0.203792 0
M  V30 2328 H 219.778 -7.80886 0.720173 0
M  V30 2329 N 217.281 0.66697 -1.42791 0
M  V30 2330 C 218.511 1.45294 -1.46878 0
M  V30 2331 C 218.919 1.89027 -0.0809861 0
M  V30 2332 O 218.262 1.59219 0.916246 0
M  V30 2333 C 218.324 2.72908 -2.34012 0
M  V30 2334 C 217.988 2.51203 -3.81767 0
M  V30 2335 C 218.985 2.15302 -4.73224 0
M  V30 2336 C 216.67 2.65954 -4.26115 0
M  V30 2337 C 218.664 1.94431 -6.07022 0
M  V30 2338 C 216.351 2.44699 -5.59969 0
M  V30 2339 C 217.349 2.08992 -6.5024 0
M  V30 2340 O 217.037 1.87948 -7.81621 0
M  V30 2341 H 216.769 0.453306 -0.501487 0
M  V30 2342 H 219.323 0.826232 -1.88049 0
M  V30 2343 H 217.553 3.38089 -1.87703 0
M  V30 2344 H 219.242 3.34816 -2.29462 0
M  V30 2345 H 220.008 2.03495 -4.40244 0
M  V30 2346 H 215.887 2.92724 -3.56137 0
M  V30 2347 H 219.431 1.66484 -6.77443 0
M  V30 2348 H 215.328 2.56105 -5.9252 0
M  V30 2349 H 216.096 2.02483 -7.93059 0
M  V30 2350 N 218.759 1.29093 0.90403 0
M  V30 2351 C 219.689 1.16401 2.02418 0
M  V30 2352 C 220.67 0.0593085 1.69997 0
M  V30 2353 O 221.855 0.238021 1.92736 0
M  V30 2354 C 218.985 0.835233 3.37107 0
M  V30 2355 C 217.939 1.89578 3.83724 0
M  V30 2356 C 217.265 1.42041 5.15489 0
M  V30 2357 C 218.565 3.30394 4.04521 0
M  V30 2358 H 220.259 2.10109 2.13295 0
M  V30 2359 H 217.805 1.01157 1.02486 0
M  V30 2360 H 219.758 0.733169 4.14973 0
M  V30 2361 H 218.482 -0.137543 3.2631 0
M  V30 2362 H 217.141 1.98715 3.08071 0
M  V30 2363 H 216.789 0.436426 5.01103 0
M  V30 2364 H 216.489 2.12964 5.4765 0
M  V30 2365 H 218.013 1.33176 5.959 0
M  V30 2366 H 219.427 3.24123 4.72882 0
M  V30 2367 H 217.824 3.99237 4.48029 0
M  V30 2368 H 218.894 3.73692 3.09002 0
M  V30 2369 N 220.237 -1.11381 1.11499 0
M  V30 2370 C 221.169 -2.17207 0.731704 0
M  V30 2371 C 222.182 -1.61066 -0.236957 0
M  V30 2372 O 223.371 -1.78489 -0.0197591 0
M  V30 2373 C 220.471 -3.38846 0.0607624 0
M  V30 2374 C 219.644 -4.24451 1.0564 0
M  V30 2375 C 218.703 -5.24562 0.4149 0
M  V30 2376 O 217.729 -5.59071 1.069 0
M  V30 2377 N 218.931 -5.74651 -0.821943 0
M  V30 2378 H 221.696 -2.50699 1.64225 0
M  V30 2379 H 219.257 -1.26908 1.00529 0
M  V30 2380 H 221.249 -4.02911 -0.380139 0
M  V30 2381 H 219.819 -3.03411 -0.752376 0
M  V30 2382 H 219.039 -3.56833 1.67524 0
M  V30 2383 H 220.327 -4.78486 1.72998 0
M  V30 2384 H 219.725 -5.48797 -1.37252 0
M  V30 2385 H 218.282 -6.40549 -1.20582 0
M  V30 2386 N 221.715 -0.905404 -1.28997 0
M  V30 2387 C 222.678 -0.392253 -2.25819 0
M  V30 2388 C 223.678 0.476753 -1.5357 0
M  V30 2389 O 224.868 0.280994 -1.71919 0
M  V30 2390 C 222 0.438588 -3.38067 0
M  V30 2391 H 223.193 -1.24743 -2.72725 0
M  V30 2392 H 220.746 -0.684051 -1.40536 0
M  V30 2393 H 221.481 1.31352 -2.96508 0
M  V30 2394 H 221.266 -0.184167 -3.91667 0
M  V30 2395 H 222.756 0.78873 -4.10084 0
M  V30 2396 N 223.193 1.4272 -0.668489 0
M  V30 2397 C 224.156 2.292 0.00448567 0
M  V30 2398 C 225.156 1.43001 0.735339 0
M  V30 2399 O 226.346 1.64461 0.57429 0
M  V30 2400 C 223.478 3.25375 1.01705 0
M  V30 2401 H 224.671 2.90199 -0.756608 0
M  V30 2402 H 222.224 1.50254 -0.430506 0
M  V30 2403 H 222.959 2.69301 1.80686 0
M  V30 2404 H 222.744 3.88944 0.496463 0
M  V30 2405 H 224.234 3.90245 1.48655 0
M  V30 2406 N 224.671 0.411399 1.52136 0
M  V30 2407 C 225.619 -0.427633 2.28635 0
M  V30 2408 C 226.613 -1.04383 1.33419 0
M  V30 2409 O 227.819 -0.981772 1.50868 0
M  V30 2410 H 224.194 -0.156689 0.735495 0
M  V30 2411 H 226.165 0.238761 2.97443 0
M  V30 2412 C 224.914 -1.53082 3.12188 0
M  V30 2413 H 224.237 -1.06601 3.85326 0
M  V30 2414 H 225.677 -2.09167 3.68816 0
M  V30 2415 C 224.136 -2.49946 2.25895 0
M  V30 2416 O 224.666 -3.53884 1.90076 0
M  V30 2417 N 222.872 -2.2021 1.8962 0
M  V30 2418 H 222.419 -1.35719 2.18948 0
M  V30 2419 H 222.377 -2.85266 1.32176 0
M  V30 2420 N 226.149 -1.5696 0.141893 0
M  V30 2421 C 227.56 -1.82797 -0.379776 0
M  V30 2422 C 227.911 -1.06033 -1.6508 0
M  V30 2423 O 227.036 -0.304011 -2.14254 0
M  V30 2424 C 227.631 -3.31578 -0.695802 0
M  V30 2425 C 226.19 -3.58014 -1.16201 0
M  V30 2426 C 225.337 -2.76699 -0.182455 0
M  V30 2427 H 228.288 -1.54406 0.366675 0
M  V30 2428 H 228.309 -3.47454 -1.55099 0
M  V30 2429 H 227.821 -3.87421 0.229449 0
M  V30 2430 H 225.922 -3.07553 -2.10338 0
M  V30 2431 H 226.035 -4.66501 -1.09151 0
M  V30 2432 H 224.399 -2.45618 -0.674072 0
M  V30 2433 H 225.182 -3.35311 0.736297 0
M  V30 2434 N 227.627 0.131896 -1.57047 0
M  V30 2435 C 228.876 0.84044 -1.83356 0
M  V30 2436 C 229.189 1.81646 -0.725535 0
M  V30 2437 O 230.395 2.57025 -0.874659 0
M  V30 2438 C 228.851 1.54528 -3.25037 0
M  V30 2439 C 228.459 0.610902 -4.43815 0
M  V30 2440 C 230.203 2.23972 -3.60606 0
M  V30 2441 C 228.11 1.31823 -5.76521 0
M  V30 2442 H 227.04 0.317599 -0.683847 0
M  V30 2443 H 229.691 0.0931561 -1.83263 0
M  V30 2444 H 228.073 2.33873 -3.19561 0
M  V30 2445 H 229.247 -0.148407 -4.60561 0
M  V30 2446 H 227.562 0.0241016 -4.16393 0
M  V30 2447 H 230.159 2.77558 -4.57018 0
M  V30 2448 H 230.502 3.01173 -2.87403 0
M  V30 2449 H 231.035 1.51529 -3.6781 0
M  V30 2450 H 227.774 0.587771 -6.52859 0
M  V30 2451 H 227.294 2.04987 -5.63685 0
M  V30 2452 H 228.973 1.855 -6.19838 0
M  V30 2453 N 229.106 1.52395 0.401703 0
M  V30 2454 C 230.353 1.66817 1.14796 0
M  V30 2455 C 230.681 0.401772 1.90305 0
M  V30 2456 O 229.936 -0.615487 1.85769 0
M  V30 2457 C 230.235 2.84578 2.16217 0
M  V30 2458 C 229.901 4.22513 1.5746 0
M  V30 2459 C 228.563 4.60029 1.41161 0
M  V30 2460 C 230.915 5.0844 1.14622 0
M  V30 2461 C 228.243 5.81144 0.80552 0
M  V30 2462 C 230.595 6.30167 0.55428 0
M  V30 2463 C 229.259 6.66426 0.378482 0
M  V30 2464 H 228.529 0.610428 0.420069 0
M  V30 2465 H 231.176 1.86512 0.434212 0
M  V30 2466 H 229.481 2.59248 2.93764 0
M  V30 2467 H 231.178 2.92933 2.73845 0
M  V30 2468 H 227.768 3.92953 1.71132 0
M  V30 2469 H 231.952 4.80034 1.26021 0
M  V30 2470 H 227.208 6.07855 0.657399 0
M  V30 2471 H 231.382 6.96071 0.213983 0
M  V30 2472 H 229.009 7.60143 -0.0932606 0
M  V30 2473 N 230.584 -0.659388 1.43143 0
M  V30 2474 C 231.494 -1.80167 1.50256 0
M  V30 2475 C 232.51 -1.69571 0.390106 0
M  V30 2476 O 233.686 -1.90849 0.643319 0
M  V30 2477 C 230.751 -3.16409 1.41725 0
M  V30 2478 C 229.812 -3.38848 2.63591 0
M  V30 2479 C 229.045 -4.68591 2.55458 0
M  V30 2480 O 229.268 -5.47532 1.59891 0
M  V30 2481 O 228.202 -4.92614 3.45854 0
M  V30 2482 H 232.028 -1.77121 2.46702 0
M  V30 2483 H 229.613 -0.817092 1.25076 0
M  V30 2484 H 231.495 -3.9768 1.39387 0
M  V30 2485 H 230.17 -3.20059 0.484118 0
M  V30 2486 H 229.077 -2.57366 2.71502 0
M  V30 2487 H 230.41 -3.4004 3.55856 0
M  V30 2488 N 232.062 -1.29571 -0.897171 0
M  V30 2489 C 233.31 -1.17456 -1.64464 0
M  V30 2490 C 233.631 0.273698 -1.9307 0
M  V30 2491 O 232.901 1.18684 -1.55855 0
M  V30 2492 H 231.481 -0.431706 -0.609622 0
M  V30 2493 H 234.143 -1.62531 -1.07562 0
M  V30 2494 H 233.239 -1.72648 -2.59998 0
M  V30 2495 N 233.54 1.10788 -1.12088 0
M  V30 2496 C 234.768 1.86461 -0.896651 0
M  V30 2497 C 235.183 1.80492 0.553912 0
M  V30 2498 O 234.54 1.19102 1.38278 0
M  V30 2499 C 234.591 3.35006 -1.35843 0
M  V30 2500 O 234.312 3.40866 -2.75213 0
M  V30 2501 C 235.813 4.27565 -1.1706 0
M  V30 2502 H 233.033 0.589425 -0.320654 0
M  V30 2503 H 235.577 1.40076 -1.48993 0
M  V30 2504 H 233.732 3.7887 -0.808458 0
M  V30 2505 H 234.146 4.33411 -2.9539 0
M  V30 2506 H 235.62 5.30007 -1.54263 0
M  V30 2507 H 236.097 4.3906 -0.110814 0
M  V30 2508 H 236.703 3.89501 -1.70789 0
M  V30 2509 N 235.018 0.912232 1.28515 0
M  V30 2510 C 236.246 0.560416 1.99166 0
M  V30 2511 C 236.661 -0.857927 1.68182 0
M  V30 2512 O 236.018 -1.56805 0.933733 0
M  V30 2513 C 236.069 0.758142 3.53461 0
M  V30 2514 O 235.79 2.12067 3.83352 0
M  V30 2515 C 237.291 0.412954 4.41372 0
M  V30 2516 H 234.511 0.213805 0.636026 0
M  V30 2517 H 237.055 1.22502 1.63749 0
M  V30 2518 H 235.21 0.140556 3.87145 0
M  V30 2519 H 235.624 2.15923 4.77993 0
M  V30 2520 H 237.098 0.60208 5.48707 0
M  V30 2521 H 237.575 -0.65073 4.34353 0
M  V30 2522 H 238.181 1.00802 4.13182 0
M  V30 2523 N 236.496 -1.42363 0.676048 0
M  V30 2524 C 237.426 -2.33497 0.0124832 0
M  V30 2525 C 238.407 -1.50748 -0.787981 0
M  V30 2526 O 239.592 -1.79346 -0.744884 0
M  V30 2527 C 236.722 -3.34377 -0.938582 0
M  V30 2528 C 235.676 -4.27289 -0.246622 0
M  V30 2529 C 235.002 -5.18386 -1.31071 0
M  V30 2530 C 236.302 -5.14916 0.875125 0
M  V30 2531 H 237.996 -2.89233 0.773593 0
M  V30 2532 H 235.542 -1.39073 0.37346 0
M  V30 2533 H 237.495 -3.97044 -1.41188 0
M  V30 2534 H 236.219 -2.76947 -1.73113 0
M  V30 2535 H 234.878 -3.66018 0.206456 0
M  V30 2536 H 234.526 -4.57282 -2.09528 0
M  V30 2537 H 234.226 -5.81378 -0.852839 0
M  V30 2538 H 235.75 -5.83929 -1.78492 0
M  V30 2539 H 237.164 -5.71262 0.482983 0
M  V30 2540 H 235.561 -5.86747 1.25887 0
M  V30 2541 H 236.631 -4.53242 1.72335 0
M  V30 2542 N 237.974 -0.419461 -1.51915 0
M  V30 2543 C 239.22 0.153166 -2.02221 0
M  V30 2544 C 239.553 1.43907 -1.30401 0
M  V30 2545 O 238.828 1.90055 -0.413438 0
M  V30 2546 C 239.111 0.390291 -3.57979 0
M  V30 2547 C 238.964 -0.913014 -4.40436 0
M  V30 2548 C 240.283 1.16794 -4.2432 0
M  V30 2549 H 237.402 0.0541924 -0.735005 0
M  V30 2550 H 240.044 -0.554955 -1.81715 0
M  V30 2551 H 238.194 0.993491 -3.75582 0
M  V30 2552 H 239.866 -1.54882 -4.34522 0
M  V30 2553 H 238.109 -1.52168 -4.06236 0
M  V30 2554 H 238.78 -0.701361 -5.47526 0
M  V30 2555 H 241.256 0.657161 -4.10878 0
M  V30 2556 H 240.132 1.3026 -5.3322 0
M  V30 2557 H 240.393 2.19132 -3.83971 0
M  V30 2558 N 239.452 1.56882 -0.150215 0
M  V30 2559 C 240.68 2.00593 0.506948 0
M  V30 2560 C 241.095 1.03033 1.58208 0
M  V30 2561 O 240.452 0.0278396 1.82479 0
M  V30 2562 C 240.503 3.44209 1.10465 0
M  V30 2563 O 240.224 4.3804 0.0724636 0
M  V30 2564 C 241.725 4.03214 1.84211 0
M  V30 2565 H 238.945 0.65795 0.13169 0
M  V30 2566 H 241.489 2.03018 -0.245743 0
M  V30 2567 H 239.644 3.42625 1.80795 0
M  V30 2568 H 240.058 5.22007 0.510793 0
M  V30 2569 H 241.532 5.0569 2.21318 0
M  V30 2570 H 242.009 3.44107 2.72923 0
M  V30 2571 H 242.615 4.08437 1.18572 0
M  V30 2572 N 240.93 -0.123565 1.57115 0
M  V30 2573 C 242.346 -0.476961 1.52306 0
M  V30 2574 C 242.546 -1.82109 0.86248 0
M  V30 2575 O 241.602 -2.48586 0.442884 0
M  V30 2576 C 242.915 -0.465661 2.97073 0
M  V30 2577 C 244.463 -0.549534 3.08138 0
M  V30 2578 C 244.938 -0.568669 4.54456 0
M  V30 2579 N 246.429 -0.630237 4.58892 0
M  V30 2580 C 247.164 -0.666415 5.69514 0
M  V30 2581 N 246.66 -0.660514 6.89644 0
M  V30 2582 N 248.453 -0.709077 5.5761 0
M  V30 2583 H 240.604 0.757198 1.98445 0
M  V30 2584 H 242.867 0.278808 0.906074 0
M  V30 2585 H 242.573 0.454232 3.48754 0
M  V30 2586 H 242.447 -1.29513 3.54269 0
M  V30 2587 H 244.834 -1.45985 2.56461 0
M  V30 2588 H 244.915 0.307532 2.53945 0
M  V30 2589 H 244.559 0.337581 5.06777 0
M  V30 2590 H 244.489 -1.44256 5.06456 0
M  V30 2591 H 246.98 -0.641146 3.72421 0
M  V30 2592 H 247.293 -0.690616 7.69708 0
M  V30 2593 H 245.638 -0.628012 6.92157 0
M  V30 2594 H 248.829 -0.711019 4.62668 0
M  V30 2595 H 249.002 -0.733804 6.43832 0
M  V30 2596 N 242.408 -1.52605 -0.393616 0
M  V30 2597 C 243.636 -1.71294 -1.16043 0
M  V30 2598 C 244.051 -0.429259 -1.83855 0
M  V30 2599 O 243.408 0.595921 -1.72496 0
M  V30 2600 C 243.459 -2.8593 -2.21193 0
M  V30 2601 O 243.18 -4.09329 -1.56146 0
M  V30 2602 C 244.681 -3.16259 -3.10636 0
M  V30 2603 H 241.901 -0.573641 -0.348104 0
M  V30 2604 H 244.445 -1.99234 -0.461092 0
M  V30 2605 H 242.6 -2.60465 -2.86769 0
M  V30 2606 H 243.014 -4.73323 -2.25978 0
M  V30 2607 H 244.488 -3.99946 -3.80456 0
M  V30 2608 H 244.965 -2.3045 -3.73884 0
M  V30 2609 H 245.571 -3.43547 -2.50711 0
M  V30 2610 N 243.887 0.651787 -1.4349 0
M  V30 2611 C 245.133 1.41376 -1.45398 0
M  V30 2612 C 245.466 1.94041 -0.0784823 0
M  V30 2613 O 244.741 1.72379 0.900878 0
M  V30 2614 C 245.024 2.59414 -2.49752 0
M  V30 2615 C 244.877 2.12232 -3.96582 0
M  V30 2616 C 246.196 3.61626 -2.50827 0
M  V30 2617 H 243.315 0.512719 -0.529422 0
M  V30 2618 H 245.957 0.738796 -1.75048 0
M  V30 2619 H 244.107 3.16997 -2.246 0
M  V30 2620 H 245.779 1.59639 -4.32797 0
M  V30 2621 H 244.022 1.43592 -4.09346 0
M  V30 2622 H 244.693 2.9712 -4.65214 0
M  V30 2623 H 247.169 3.13805 -2.7325 0
M  V30 2624 H 246.045 4.41766 -3.25783 0
M  V30 2625 H 246.306 4.14314 -1.5426 0
M  V30 2626 N 245.365 1.30045 0.890287 0
M  V30 2627 C 246.776 1.16738 1.45702 0
M  V30 2628 C 247.127 -0.233939 1.948 0
M  V30 2629 O 246.252 -1.13021 1.84541 0
M  V30 2630 C 246.847 2.11313 2.64825 0
M  V30 2631 C 245.406 2.02001 3.17604 0
M  V30 2632 C 244.553 2.01699 1.90296 0
M  V30 2633 H 247.504 1.42392 0.700726 0
M  V30 2634 H 247.525 1.69086 3.40867 0
M  V30 2635 H 247.037 3.13294 2.2906 0
M  V30 2636 H 245.138 1.03142 3.5804 0
M  V30 2637 H 245.251 2.90128 3.81264 0
M  V30 2638 H 243.615 1.46427 2.08402 0
M  V30 2639 H 244.398 3.05402 1.56795 0
M  V30 2640 N 246.843 -1.10192 1.12674 0
M  V30 2641 C 248.092 -1.81573 0.8783 0
M  V30 2642 C 248.405 -1.86249 -0.597557 0
M  V30 2643 O 249.611 -2.5386 -0.962681 0
M  V30 2644 C 248.067 -3.26149 1.52167 0
M  V30 2645 C 247.675 -3.29763 3.03249 0
M  V30 2646 C 249.419 -4.0234 1.3536 0
M  V30 2647 C 247.326 -4.68815 3.60508 0
M  V30 2648 H 246.256 -0.680394 0.324931 0
M  V30 2649 H 248.907 -1.23902 1.35353 0
M  V30 2650 H 247.289 -3.83832 0.974104 0
M  V30 2651 H 248.463 -2.8189 3.6452 0
M  V30 2652 H 246.778 -2.67059 3.19481 0
M  V30 2653 H 249.375 -5.05058 1.75559 0
M  V30 2654 H 249.718 -4.15235 0.297554 0
M  V30 2655 H 250.251 -3.51079 1.87052 0
M  V30 2656 H 246.99 -4.61121 4.65884 0
M  V30 2657 H 246.51 -5.17045 3.04014 0
M  V30 2658 H 248.189 -5.37785 3.59717 0
M  V30 2659 N 248.321 -0.919034 -1.28029 0
M  V30 2660 C 249.268 -0.410005 -2.27129 0
M  V30 2661 C 250.238 0.518405 -1.57803 0
M  V30 2662 O 251.423 0.439451 -1.8567 0
M  V30 2663 C 248.563 0.339054 -3.4343 0
M  V30 2664 C 247.676 -0.622468 -4.27492 0
M  V30 2665 C 246.811 0.145567 -5.31001 0
M  V30 2666 C 245.85 -0.809226 -6.06727 0
M  V30 2667 N 244.987 -0.0743728 -7.02061 0
M  V30 2668 H 249.827 -1.26011 -2.70047 0
M  V30 2669 H 247.364 -0.632663 -1.328 0
M  V30 2670 H 249.322 0.789586 -4.0966 0
M  V30 2671 H 247.952 1.15346 -3.01488 0
M  V30 2672 H 247.004 -1.19153 -3.61257 0
M  V30 2673 H 248.316 -1.35252 -4.80113 0
M  V30 2674 H 247.47 0.656417 -6.03139 0
M  V30 2675 H 246.209 0.908643 -4.79161 0
M  V30 2676 H 245.214 -1.3314 -5.33436 0
M  V30 2677 H 246.439 -1.57194 -6.60656 0
M  V30 2678 H 244.385 0.670616 -6.52563 0
M  V30 2679 H 244.302 -0.744157 -7.52329 0
M  V30 2680 H 245.57 0.416109 -7.78389 0
M  V30 2681 N 249.799 1.42003 -0.683588 0
M  V30 2682 C 250.762 2.29191 -0.0198243 0
M  V30 2683 C 251.762 1.43773 0.72013 0
M  V30 2684 O 252.952 1.65061 0.556815 0
M  V30 2685 C 250.084 3.26435 0.982487 0
M  V30 2686 H 251.277 2.8938 -0.787345 0
M  V30 2687 H 248.83 1.49789 -0.446418 0
M  V30 2688 H 249.565 2.71203 1.77819 0
M  V30 2689 H 249.35 3.89449 0.455182 0
M  V30 2690 H 250.84 3.918 1.44508 0
M  V30 2691 N 251.277 0.427512 1.51691 0
M  V30 2692 C 252.523 -0.142439 2.02299 0
M  V30 2693 C 252.856 -1.43214 1.31162 0
M  V30 2694 O 252.131 -1.89833 0.423511 0
M  V30 2695 C 252.414 -0.371301 3.58181 0
M  V30 2696 C 252.267 0.936358 4.39946 0
M  V30 2697 C 253.586 -1.14542 4.24933 0
M  V30 2698 H 250.705 -0.0502937 0.735282 0
M  V30 2699 H 253.347 0.564584 1.81418 0
M  V30 2700 H 251.497 -0.973559 3.76104 0
M  V30 2701 H 253.169 1.57184 4.33694 0
M  V30 2702 H 251.412 1.5432 4.05423 0
M  V30 2703 H 252.083 0.730388 5.47147 0
M  V30 2704 H 254.559 -0.635362 4.11221 0
M  V30 2705 H 253.435 -1.27431 5.33903 0
M  V30 2706 H 253.696 -2.17093 3.85127 0
M  V30 2707 N 252.755 -1.56801 0.158532 0
M  V30 2708 C 254.003 -1.96102 -0.488712 0
M  V30 2709 C 254.324 -1.04498 -1.64636 0
M  V30 2710 O 253.594 -0.108783 -1.95598 0
M  V30 2711 H 252.174 -0.724102 -0.183535 0
M  V30 2712 H 254.836 -1.93457 0.236728 0
M  V30 2713 H 253.932 -3.00097 -0.857219 0
M  V30 2714 N 254.233 0.115231 -1.57178 0
M  V30 2715 C 255.48 0.822351 -1.8505 0
M  V30 2716 C 255.808 1.79701 -0.744168 0
M  V30 2717 O 255.063 1.93909 0.26414 0
M  V30 2718 C 255.362 1.60324 -3.19423 0
M  V30 2719 C 255.028 0.772536 -4.44233 0
M  V30 2720 C 253.69 0.543468 -4.78121 0
M  V30 2721 C 256.042 0.193746 -5.2084 0
M  V30 2722 C 253.37 -0.274583 -5.86057 0
M  V30 2723 C 255.722 -0.611517 -6.29637 0
M  V30 2724 C 254.386 -0.850867 -6.62055 0
M  V30 2725 H 253.656 0.30092 -0.677147 0
M  V30 2726 H 256.303 0.0845802 -1.91313 0
M  V30 2727 H 254.608 2.41203 -3.08753 0
M  V30 2728 H 256.305 2.1544 -3.38211 0
M  V30 2729 H 252.895 0.96117 -4.17683 0
M  V30 2730 H 257.079 0.357926 -4.95008 0
M  V30 2731 H 252.335 -0.469206 -6.09597 0
M  V30 2732 H 256.509 -1.06697 -6.88178 0
M  V30 2733 H 254.136 -1.48657 -7.45523 0
M  V30 2734 N 255.711 1.52812 0.385517 0
M  V30 2735 C 256.951 1.69716 1.13911 0
M  V30 2736 C 257.315 0.42962 1.87132 0
M  V30 2737 O 258.516 0.475071 2.64569 0
M  V30 2738 C 256.787 2.90021 2.0886 0
M  V30 2739 S 258.346 3.27531 2.92009 0
M  V30 2740 H 255.164 0.59739 0.385547 0
M  V30 2741 H 257.766 1.90868 0.423061 0
M  V30 2742 H 256.47 3.80493 1.53797 0
M  V30 2743 H 256.001 2.71213 2.84969 0
M  V30 2744 H 258.016 2.77989 4.11019 0
M  V30 2745 N 257.189 -0.644168 1.43834 0
M  V30 2746 C 258.139 -1.7501 1.46135 0
M  V30 2747 C 259.123 -1.57507 0.328685 0
M  V30 2748 O 260.315 -1.67465 0.5731 0
M  V30 2749 C 257.444 -3.13641 1.39585 0
M  V30 2750 C 256.53 -3.3666 2.57916 0
M  V30 2751 N 256.921 -3.30107 3.83227 0
M  V30 2752 C 255.219 -3.67411 2.52834 0
M  V30 2753 C 255.92 -3.53456 4.61999 0
M  V30 2754 N 254.896 -3.75705 3.9287 0
M  V30 2755 H 258.698 -1.68382 2.40883 0
M  V30 2756 H 256.212 -0.846169 1.38614 0
M  V30 2757 H 258.209 -3.92933 1.39317 0
M  V30 2758 H 256.869 -3.21444 0.45865 0
M  V30 2759 H 257.88 -3.09316 4.15384 0
M  V30 2760 H 254.557 -3.82275 1.67845 0
M  V30 2761 H 255.947 -3.54093 5.71024 0
M  V30 2762 N 258.668 -1.30515 -0.883378 0
M  V30 2763 C 259.916 -1.19194 -1.63209 0
M  V30 2764 C 260.237 0.253205 -1.93349 0
M  V30 2765 O 259.507 1.17025 -1.57105 0
M  V30 2766 H 258.087 -0.438148 -0.605009 0
M  V30 2767 H 260.749 -1.63663 -1.05832 0
M  V30 2768 H 259.845 -1.75396 -2.58153 0
M  V30 2769 N 260.146 1.09593 -1.13257 0
M  V30 2770 C 261.096 2.14345 -0.777179 0
M  V30 2771 C 262.08 1.59277 0.227966 0
M  V30 2772 O 263.272 1.76971 0.0321413 0
M  V30 2773 C 260.401 3.42439 -0.242991 0
M  V30 2774 C 259.487 4.04419 -1.27694 0
M  V30 2775 N 259.878 4.40979 -2.47732 0
M  V30 2776 C 258.176 4.31596 -1.12432 0
M  V30 2777 C 258.877 4.89784 -3.13826 0
M  V30 2778 N 257.853 4.87133 -2.41252 0
M  V30 2779 H 261.655 2.40415 -1.69049 0
M  V30 2780 H 259.169 1.26803 -1.01463 0
M  V30 2781 H 261.166 4.16889 0.0298496 0
M  V30 2782 H 259.826 3.17824 0.66467 0
M  V30 2783 H 260.837 4.32396 -2.85051 0
M  V30 2784 H 257.514 4.16595 -0.274684 0
M  V30 2785 H 258.904 5.2755 -4.16102 0
M  V30 2786 N 261.624 0.925811 1.2754 0
M  V30 2787 C 262.854 0.580666 1.98272 0
M  V30 2788 C 263.262 -0.845207 1.69272 0
M  V30 2789 O 262.605 -1.57306 0.948707 0
M  V30 2790 C 262.667 0.724418 3.52126 0
M  V30 2791 C 262.331 2.12206 4.04744 0
M  V30 2792 C 263.328 3.09604 4.17662 0
M  V30 2793 C 261.013 2.4385 4.39138 0
M  V30 2794 C 263.007 4.36755 4.64246 0
M  V30 2795 C 260.694 3.71237 4.85414 0
M  V30 2796 C 261.692 4.67503 4.97926 0
M  V30 2797 O 261.38 5.92624 5.43187 0
M  V30 2798 H 261.112 0.218987 0.639547 0
M  V30 2799 H 263.666 1.24452 1.63404 0
M  V30 2800 H 261.896 0.0034663 3.867 0
M  V30 2801 H 263.585 0.384607 4.04074 0
M  V30 2802 H 264.351 2.86478 3.91351 0
M  V30 2803 H 260.23 1.69665 4.28643 0
M  V30 2804 H 263.774 5.11898 4.73927 0
M  V30 2805 H 259.671 3.94182 5.11166 0
M  V30 2806 H 260.439 5.95585 5.61445 0
M  V30 2807 N 263.102 -1.41638 0.69111 0
M  V30 2808 C 264.35 -2.00902 0.219758 0
M  V30 2809 C 264.671 -1.54994 -1.18329 0
M  V30 2810 O 263.941 -0.778628 -1.79762 0
M  V30 2811 H 262.521 -0.74289 0.0782558 0
M  V30 2812 H 265.183 -1.73327 0.891271 0
M  V30 2813 H 264.279 -3.11224 0.233708 0
M  V30 2814 N 264.58 -0.43555 -1.51462 0
M  V30 2815 C 265.826 0.131709 -2.02372 0
M  V30 2816 C 266.159 1.42516 -1.3192 0
M  V30 2817 O 265.434 1.89606 -0.433573 0
M  V30 2818 C 265.717 0.352301 -3.58373 0
M  V30 2819 C 265.57 -0.959676 -4.39443 0
M  V30 2820 C 266.889 1.12286 -4.25535 0
M  V30 2821 H 264.008 0.0463936 -0.735538 0
M  V30 2822 H 266.65 -0.574197 -1.81116 0
M  V30 2823 H 264.8 0.9536 -3.76615 0
M  V30 2824 H 266.472 -1.59482 -4.32855 0
M  V30 2825 H 264.715 -1.56468 -4.04599 0
M  V30 2826 H 265.386 -0.759394 -5.46752 0
M  V30 2827 H 267.862 0.613545 -4.11552 0
M  V30 2828 H 266.738 1.24598 -5.34571 0
M  V30 2829 H 266.999 2.15048 -3.86273 0
M  V30 2830 N 266.058 1.56714 -0.166846 0
M  V30 2831 C 266.991 2.13577 0.80375 0
M  V30 2832 C 267.969 1.06464 1.22899 0
M  V30 2833 O 269.153 1.34413 1.32157 0
M  V30 2834 C 266.28 2.67168 2.0818 0
M  V30 2835 C 265.326 3.86612 1.80093 0
M  V30 2836 S 266.159 5.26565 0.97416 0
M  V30 2837 C 267.315 5.83558 2.26297 0
M  V30 2838 H 267.548 2.9557 0.320267 0
M  V30 2839 H 265.081 1.54326 0.0477555 0
M  V30 2840 H 267.039 2.98692 2.8159 0
M  V30 2841 H 265.7 1.85269 2.53642 0
M  V30 2842 H 264.893 4.22422 2.7491 0
M  V30 2843 H 264.495 3.55951 1.14781 0
M  V30 2844 H 266.787 5.962 3.21795 0
M  V30 2845 H 267.73 6.80731 1.94962 0
M  V30 2846 H 268.138 5.11944 2.37853 0
M  V30 2847 N 267.536 -0.106894 1.57237 0
M  V30 2848 C 268.446 -1.14911 2.0453 0
M  V30 2849 C 269.462 -1.44592 0.96795 0
M  V30 2850 O 270.638 -1.55468 1.2803 0
M  V30 2851 C 267.703 -2.45272 2.45036 0
M  V30 2852 C 266.764 -2.22879 3.66911 0
M  V30 2853 C 265.997 -3.47024 4.05475 0
M  V30 2854 O 266.22 -4.54804 3.44252 0
M  V30 2855 O 265.154 -3.3731 4.98504 0
M  V30 2856 H 268.98 -0.777461 2.9358 0
M  V30 2857 H 266.565 -0.318563 1.45964 0
M  V30 2858 H 268.447 -3.22055 2.71769 0
M  V30 2859 H 267.122 -2.81886 1.59129 0
M  V30 2860 H 266.029 -1.43915 3.45311 0
M  V30 2861 H 267.362 -1.91163 4.53561 0
M  V30 2862 N 269.014 -1.53014 -0.377408 0
M  V30 2863 C 270.263 -1.67845 -1.11853 0
M  V30 2864 C 270.576 -0.430625 -1.90801 0
M  V30 2865 O 271.782 -0.459261 -2.67587 0
M  V30 2866 C 270.238 -2.96668 -2.03756 0
M  V30 2867 C 269.846 -4.28671 -1.30175 0
M  V30 2868 C 271.59 -3.20865 -2.77932 0
M  V30 2869 C 269.497 -5.48591 -2.20911 0
M  V30 2870 H 268.427 -0.625343 -0.421263 0
M  V30 2871 H 271.078 -1.79514 -0.380409 0
M  V30 2872 H 269.46 -2.78773 -2.8125 0
M  V30 2873 H 270.634 -4.57157 -0.578259 0
M  V30 2874 H 268.949 -4.10825 -0.679108 0
M  V30 2875 H 271.546 -4.07642 -3.46024 0
M  V30 2876 H 271.889 -2.36424 -3.4265 0
M  V30 2877 H 272.422 -3.39379 -2.07525 0
M  V30 2878 H 269.161 -6.35474 -1.6079 0
M  V30 2879 H 268.681 -5.244 -2.91144 0
M  V30 2880 H 270.36 -5.8292 -2.80736 0
M  V30 2881 N 270.492 0.636531 -1.44174 0
M  V30 2882 C 271.738 1.39826 -1.4689 0
M  V30 2883 C 272.071 1.93947 -0.0990585 0
M  V30 2884 O 271.346 1.73325 0.882544 0
M  V30 2885 C 271.629 2.56751 -2.5249 0
M  V30 2886 C 271.482 2.08014 -3.98811 0
M  V30 2887 C 272.801 3.58946 -2.54649 0
M  V30 2888 H 269.92 0.507075 -0.53483 0
M  V30 2889 H 272.562 0.720188 -1.75822 0
M  V30 2890 H 270.712 3.14597 -2.2795 0
M  V30 2891 H 272.384 1.5504 -4.34466 0
M  V30 2892 H 270.627 1.39242 -4.10846 0
M  V30 2893 H 271.298 2.92169 -4.68339 0
M  V30 2894 H 273.774 3.1089 -2.76563 0
M  V30 2895 H 272.65 4.38286 -3.3045 0
M  V30 2896 H 272.911 4.12655 -1.58646 0
M  V30 2897 N 271.97 1.30982 0.876444 0
M  V30 2898 C 272.88 1.2003 2.01569 0
M  V30 2899 C 273.896 0.11838 1.73597 0
M  V30 2900 O 275.072 0.33495 1.98595 0
M  V30 2901 C 272.137 0.901637 3.34771 0
M  V30 2902 C 271.198 2.06979 3.76109 0
M  V30 2903 C 270.431 1.78529 5.02954 0
M  V30 2904 O 270.654 0.717296 5.65872 0
M  V30 2905 O 269.588 2.64019 5.40905 0
M  V30 2906 H 273.414 2.15753 2.13739 0
M  V30 2907 H 270.999 1.10658 1.00375 0
M  V30 2908 H 272.881 0.750645 4.1466 0
M  V30 2909 H 271.556 -0.0256141 3.2369 0
M  V30 2910 H 270.463 2.27616 2.96887 0
M  V30 2911 H 271.796 2.97907 3.91807 0
M  V30 2912 N 273.449 -1.08991 1.13837 0
M  V30 2913 C 274.396 -2.15748 0.819835 0
M  V30 2914 C 275.366 -1.64636 -0.220026 0
M  V30 2915 O 276.551 -1.90582 -0.0912757 0
M  V30 2916 C 273.691 -3.4382 0.296913 0
M  V30 2917 C 272.804 -4.0881 1.39636 0
M  V30 2918 C 271.939 -5.24655 0.831314 0
M  V30 2919 C 270.978 -5.81575 1.90886 0
M  V30 2920 N 270.115 -6.88774 1.36142 0
M  V30 2921 H 274.955 -2.42338 1.73426 0
M  V30 2922 H 272.492 -1.18935 0.865613 0
M  V30 2923 H 274.45 -4.17193 -0.0244339 0
M  V30 2924 H 273.08 -3.17535 -0.580628 0
M  V30 2925 H 272.132 -3.33258 1.83422 0
M  V30 2926 H 273.444 -4.47141 2.21058 0
M  V30 2927 H 272.598 -6.04942 0.461515 0
M  V30 2928 H 271.337 -4.87698 -0.013932 0
M  V30 2929 H 270.342 -4.99946 2.28767 0
M  V30 2930 H 271.567 -6.20592 2.75758 0
M  V30 2931 H 269.513 -6.53788 0.538254 0
M  V30 2932 H 269.43 -7.25898 2.11208 0
M  V30 2933 H 270.698 -7.72806 1.01933 0
M  V30 2934 N 274.927 -0.932562 -1.27047 0
M  V30 2935 C 275.857 -0.452902 -2.29066 0
M  V30 2936 C 276.838 0.489338 -1.62909 0
M  V30 2937 O 278.023 0.393046 -1.90181 0
M  V30 2938 C 275.153 0.290698 -3.46081 0
M  V30 2939 C 274.107 -0.564168 -4.24265 0
M  V30 2940 C 273.433 0.308886 -5.33807 0
M  V30 2941 C 274.733 -1.83112 -4.89149 0
M  V30 2942 H 276.427 -1.30552 -2.69437 0
M  V30 2943 H 273.973 -0.629201 -1.29526 0
M  V30 2944 H 275.926 0.637233 -4.16554 0
M  V30 2945 H 274.65 1.17738 -3.0464 0
M  V30 2946 H 273.309 -0.893477 -3.55545 0
M  V30 2947 H 272.957 1.19467 -4.88607 0
M  V30 2948 H 272.657 -0.259633 -5.87026 0
M  V30 2949 H 274.181 0.650884 -6.07121 0
M  V30 2950 H 275.595 -1.55236 -5.51883 0
M  V30 2951 H 273.992 -2.34353 -5.52448 0
M  V30 2952 H 275.062 -2.54772 -4.12576 0
M  V30 2953 N 276.405 1.4127 -0.698611 0
M  V30 2954 C 277.653 2.00782 -0.230409 0
M  V30 2955 C 277.974 1.5562 1.17505 0
M  V30 2956 O 277.244 0.78815 1.79346 0
M  V30 2957 H 275.824 0.742464 -0.0821944 0
M  V30 2958 H 278.486 1.72852 -0.90045 0
M  V30 2959 H 277.582 3.11095 -0.25021 0
M  V30 2960 N 277.883 0.443576 1.51229 0
M  V30 2961 C 278.813 -0.355142 2.30783 0
M  V30 2962 C 279.794 -1.0154 1.36468 0
M  V30 2963 O 280.979 -1.01785 1.65389 0
M  V30 2964 C 278.109 -1.45312 3.15439 0
M  V30 2965 C 277.063 -0.916002 4.18083 0
M  V30 2966 C 276.389 -2.1102 4.91299 0
M  V30 2967 C 277.689 0.0538602 5.22272 0
M  V30 2968 H 279.383 0.308767 2.97804 0
M  V30 2969 H 276.929 0.149937 1.43217 0
M  V30 2970 H 278.882 -2.01914 3.69876 0
M  V30 2971 H 277.606 -2.14541 2.46252 0
M  V30 2972 H 276.265 -0.372145 3.64706 0
M  V30 2973 H 275.913 -2.78882 4.18609 0
M  V30 2974 H 275.613 -1.75717 5.60712 0
M  V30 2975 H 277.137 -2.68164 5.48562 0
M  V30 2976 H 278.551 -0.422069 5.71744 0
M  V30 2977 H 276.948 0.319776 5.99247 0
M  V30 2978 H 278.018 0.98858 4.74716 0
M  V30 2979 N 279.361 -1.56624 0.175154 0
M  V30 2980 C 280.271 -2.21741 -0.766042 0
M  V30 2981 C 281.287 -1.21023 -1.25018 0
M  V30 2982 O 282.463 -1.53697 -1.3015 0
M  V30 2983 C 279.528 -2.84839 -1.97655 0
M  V30 2984 C 278.589 -4.00769 -1.53892 0
M  V30 2985 C 277.822 -4.60849 -2.69173 0
M  V30 2986 O 278.045 -4.19823 -3.86141 0
M  V30 2987 O 276.979 -5.50655 -2.43028 0
M  V30 2988 H 280.805 -3.02738 -0.241585 0
M  V30 2989 H 278.39 -1.49305 -0.053222 0
M  V30 2990 H 280.272 -3.24834 -2.68442 0
M  V30 2991 H 278.947 -2.06836 -2.48999 0
M  V30 2992 H 277.854 -3.65436 -0.80044 0
M  V30 2993 H 279.187 -4.80376 -1.07236 0
M  V30 2994 N 280.839 0.0985539 -1.57292 0
M  V30 2995 C 281.749 1.13824 -2.05137 0
M  V30 2996 C 282.765 1.44076 -0.975604 0
M  V30 2997 O 283.941 1.54786 -1.28853 0
M  V30 2998 C 281.006 2.43969 -2.46333 0
M  V30 2999 C 280.067 2.2093 -3.68087 0
M  V30 3000 C 279.3 3.44869 -4.0731 0
M  V30 3001 O 279.523 4.52972 -3.46659 0
M  V30 3002 O 278.457 3.34661 -5.00285 0
M  V30 3003 H 282.283 0.761881 -2.93988 0
M  V30 3004 H 279.868 0.310818 -1.46131 0
M  V30 3005 H 281.75 3.20609 -2.73473 0
M  V30 3006 H 280.425 2.81038 -1.60621 0
M  V30 3007 H 279.332 1.42081 -3.46069 0
M  V30 3008 H 280.665 1.88755 -4.54568 0
M  V30 3009 N 282.317 1.53212 0.369288 0
M  V30 3010 C 283.227 1.82342 1.47609 0
M  V30 3011 C 284.243 0.711532 1.58787 0
M  V30 3012 O 285.419 1.0012 1.74751 0
M  V30 3013 C 282.484 2.00393 2.8292 0
M  V30 3014 C 281.545 3.24297 2.81301 0
M  V30 3015 C 280.778 3.41478 4.10157 0
M  V30 3016 O 281.001 2.63033 5.06132 0
M  V30 3017 O 279.935 4.34817 4.16194 0
M  V30 3018 H 283.761 2.76366 1.25918 0
M  V30 3019 H 281.346 1.38547 0.559034 0
M  V30 3020 H 283.228 2.13859 3.63101 0
M  V30 3021 H 281.903 1.09559 3.04596 0
M  V30 3022 H 280.81 3.16257 1.99831 0
M  V30 3023 H 282.143 4.15041 2.64578 0
M  V30 3024 N 283.795 -0.628877 1.44509 0
M  V30 3025 C 284.742 -1.74074 1.51549 0
M  V30 3026 C 285.712 -1.62084 0.363021 0
M  V30 3027 O 286.897 -1.81975 0.573567 0
M  V30 3028 C 284.037 -3.12328 1.46784 0
M  V30 3029 C 283.15 -3.35277 2.72422 0
M  V30 3030 C 282.285 -4.63515 2.59475 0
M  V30 3031 C 281.324 -4.7965 3.80266 0
M  V30 3032 N 280.461 -5.99168 3.65981 0
M  V30 3033 H 285.301 -1.67392 2.46544 0
M  V30 3034 H 282.838 -0.816527 1.22357 0
M  V30 3035 H 284.796 -3.92286 1.42012 0
M  V30 3036 H 283.426 -3.18018 0.553544 0
M  V30 3037 H 282.478 -2.49242 2.87372 0
M  V30 3038 H 283.79 -3.43078 3.62076 0
M  V30 3039 H 282.944 -5.51638 2.52548 0
M  V30 3040 H 281.683 -4.58076 1.67384 0
M  V30 3041 H 280.688 -3.89957 3.87574 0
M  V30 3042 H 281.913 -4.86902 4.73395 0
M  V30 3043 H 279.859 -5.94814 2.76644 0
M  V30 3044 H 279.776 -6.08035 4.49254 0
M  V30 3045 H 281.044 -6.89846 3.6295 0
M  V30 3046 N 285.273 -1.31445 -0.869486 0
M  V30 3047 C 286.519 -1.21337 -1.62496 0
M  V30 3048 C 286.852 0.227872 -1.92858 0
M  V30 3049 O 286.127 1.16094 -1.56053 0
M  V30 3050 C 286.41 -2.05814 -2.95487 0
M  V30 3051 C 286.263 -3.5824 -2.72 0
M  V30 3052 C 287.582 -1.9079 -3.96594 0
M  V30 3053 H 284.701 -0.442135 -0.589649 0
M  V30 3054 H 287.343 -1.6124 -1.00507 0
M  V30 3055 H 285.493 -1.71913 -3.48394 0
M  V30 3056 H 287.165 -4.0228 -2.25762 0
M  V30 3057 H 285.408 -3.81647 -2.06224 0
M  V30 3058 H 286.079 -4.12657 -3.66631 0
M  V30 3059 H 288.555 -2.20459 -3.52898 0
M  V30 3060 H 287.431 -2.52199 -4.87531 0
M  V30 3061 H 287.692 -0.871341 -4.33428 0
M  V30 3062 N 286.751 1.08385 -1.14413 0
M  V30 3063 C 288.028 1.77429 -0.823297 0
M  V30 3064 C 288.408 1.9974 0.683163 0
M  V30 3065 O 287.756 1.60739 1.62405 0
M  V30 3066 C 287.966 3.09004 -1.62227 0
M  V30 3067 C 289.314 3.83532 -1.82177 0
M  V30 3068 O 290.338 3.18786 -1.58915 0
M  V30 3069 O 289.197 4.99792 -2.21067 0
M  V30 3070 H 286.291 0.769999 -0.301712 0
M  V30 3071 H 288.837 1.14846 -1.24934 0
M  V30 3072 H 287.609 2.88316 -2.64555 0
M  V30 3073 H 287.232 3.79316 -1.19187 0
M  V30 3074 N 288.23 0.939286 1.26551 0
M  V30 3075 C 289.476 0.596234 1.94465 0
M  V30 3076 C 289.831 -0.855013 1.72358 0
M  V30 3077 O 289.124 -1.6034 1.04889 0
M  V30 3078 C 289.318 0.872106 3.46596 0
M  V30 3079 C 289.147 2.34862 3.83497 0
M  V30 3080 C 287.917 3.00344 4.06352 0
M  V30 3081 C 290.115 3.32697 3.92195 0
M  V30 3082 N 288.097 4.38027 4.30123 0
M  V30 3083 C 289.468 4.55631 4.20476 0
M  V30 3084 C 291.523 3.27747 3.74815 0
M  V30 3085 C 290.226 5.74233 4.33185 0
M  V30 3086 C 292.252 4.45672 3.88755 0
M  V30 3087 C 291.614 5.67388 4.17433 0
M  V30 3088 H 287.713 0.268515 0.734455 0
M  V30 3089 H 290.297 1.2083 1.5267 0
M  V30 3090 H 288.468 0.289102 3.87323 0
M  V30 3091 H 290.2 0.490513 4.01716 0
M  V30 3092 H 286.955 2.50969 4.01636 0
M  V30 3093 H 287.379 5.09288 4.46044 0
M  V30 3094 H 292.021 2.34703 3.51673 0
M  V30 3095 H 289.739 6.67731 4.55149 0
M  V30 3096 H 293.325 4.43372 3.76713 0
M  V30 3097 H 292.205 6.57115 4.27983 0
M  V30 3098 N 289.708 -1.40897 0.706093 0
M  V30 3099 C 290.64 -2.29199 0.00815776 0
M  V30 3100 C 291.653 -1.45336 -0.733582 0
M  V30 3101 O 292.842 -1.68727 -0.582537 0
M  V30 3102 C 289.942 -3.23417 -1.01265 0
M  V30 3103 C 289.115 -4.36089 -0.338387 0
M  V30 3104 C 288.174 -5.10811 -1.26326 0
M  V30 3105 O 287.2 -5.64215 -0.751651 0
M  V30 3106 N 288.402 -5.19269 -2.595 0
M  V30 3107 H 291.167 -2.89738 0.766297 0
M  V30 3108 H 288.728 -1.52164 0.55296 0
M  V30 3109 H 290.72 -3.70276 -1.63334 0
M  V30 3110 H 289.29 -2.64112 -1.67223 0
M  V30 3111 H 288.51 -3.91479 0.462352 0
M  V30 3112 H 289.798 -5.08634 0.130031 0
M  V30 3113 H 289.196 -4.77347 -3.03573 0
M  V30 3114 H 287.753 -5.69667 -3.16737 0
M  V30 3115 N 291.186 -0.45159 -1.50991 0
M  V30 3116 C 292.432 0.110237 -2.025 0
M  V30 3117 C 292.765 1.41109 -1.33424 0
M  V30 3118 O 292.04 1.89135 -0.453659 0
M  V30 3119 C 292.323 0.314271 -3.58726 0
M  V30 3120 C 292.176 -1.00623 -4.38401 0
M  V30 3121 C 293.495 1.07767 -4.26702 0
M  V30 3122 H 290.614 0.0385897 -0.735989 0
M  V30 3123 H 293.256 -0.593374 -1.80497 0
M  V30 3124 H 291.406 0.913601 -3.77605 0
M  V30 3125 H 293.078 -1.64064 -4.31139 0
M  V30 3126 H 291.321 -1.6075 -4.02917 0
M  V30 3127 H 291.992 -0.817341 -5.45915 0
M  V30 3128 H 294.468 0.56986 -4.12179 0
M  V30 3129 H 293.344 1.18921 -5.35863 0
M  V30 3130 H 293.605 2.10939 -3.88532 0
M  V30 3131 N 292.664 1.56529 -0.183458 0
M  V30 3132 C 293.627 2.17324 0.728223 0
M  V30 3133 C 294.627 1.12453 1.14939 0
M  V30 3134 O 295.817 1.37902 1.06437 0
M  V30 3135 C 292.949 2.76591 1.99274 0
M  V30 3136 H 294.142 2.99241 0.198772 0
M  V30 3137 H 291.695 1.5616 0.0661391 0
M  V30 3138 H 292.43 1.98441 2.56499 0
M  V30 3139 H 292.215 3.5335 1.69959 0
M  V30 3140 H 293.705 3.23311 2.6431 0
M  V30 3141 N 294.142 -0.090211 1.57342 0
M  V30 3142 C 295.39 -0.791241 1.85967 0
M  V30 3143 C 295.711 -1.7903 0.772859 0
M  V30 3144 O 294.981 -1.94872 -0.200398 0
M  V30 3145 H 293.561 -0.295205 0.686195 0
M  V30 3146 H 296.223 -0.0706782 1.94772 0
M  V30 3147 H 295.319 -1.31882 2.82867 0
M  V30 3148 N 295.62 -1.53406 -0.361157 0
M  V30 3149 C 296.866 -1.70054 -1.10496 0
M  V30 3150 C 297.199 -0.453278 -1.88836 0
M  V30 3151 O 296.474 0.5495 -1.86576 0
M  V30 3152 C 296.757 -2.95317 -2.06058 0
M  V30 3153 C 296.61 -4.3021 -1.31298 0
M  V30 3154 C 297.929 -3.16193 -3.06121 0
M  V30 3155 H 295.048 -0.618799 -0.400321 0
M  V30 3156 H 297.69 -1.86052 -0.385318 0
M  V30 3157 H 295.84 -2.81809 -2.67425 0
M  V30 3158 H 297.512 -4.55538 -0.726807 0
M  V30 3159 H 295.755 -4.29421 -0.614853 0
M  V30 3160 H 296.426 -5.14 -2.01265 0
M  V30 3161 H 298.902 -3.28916 -2.5486 0
M  V30 3162 H 297.778 -4.05266 -3.70204 0
M  V30 3163 H 298.039 -2.31676 -3.76535 0
M  V30 3164 N 297.098 0.621204 -1.44841 0
M  V30 3165 C 298.046 1.75385 -1.52784 0
M  V30 3166 C 299.04 1.64639 -0.398779 0
M  V30 3167 O 300.246 1.70598 -0.574137 0
M  V30 3168 H 296.621 0.579193 -0.479625 0
M  V30 3169 H 298.592 1.6581 -2.48092 0
M  V30 3170 C 297.341 3.13742 -1.4987 0
M  V30 3171 H 296.664 3.22663 -2.36069 0
M  V30 3172 H 298.104 3.92861 -1.59487 0
M  V30 3173 C 296.563 3.36175 -0.220973 0
M  V30 3174 O 297.093 3.95469 0.704782 0
M  V30 3175 N 295.299 2.90348 -0.120963 0
M  V30 3176 H 294.846 2.42278 -0.875162 0
M  V30 3177 H 294.804 3.05732 0.733168 0
M  V30 3178 N 298.576 1.31904 0.862503 0
M  V30 3179 C 299.526 1.16772 1.95827 0
M  V30 3180 C 300.51 0.0767098 1.60717 0
M  V30 3181 O 301.702 0.302407 1.74398 0
M  V30 3182 C 298.831 0.884858 3.317 0
M  V30 3183 C 297.917 2.0172 3.73055 0
M  V30 3184 N 298.308 3.265 3.86305 0
M  V30 3185 C 296.606 1.91861 4.02623 0
M  V30 3186 C 297.307 4.00616 4.2176 0
M  V30 3187 N 296.283 3.28847 4.32852 0
M  V30 3188 H 300.085 2.11382 2.04193 0
M  V30 3189 H 297.599 1.2357 1.05377 0
M  V30 3190 H 299.596 0.757419 4.09962 0
M  V30 3191 H 298.256 -0.0529448 3.24657 0
M  V30 3192 H 299.267 3.61529 3.70833 0
M  V30 3193 H 295.944 1.05593 4.03926 0
M  V30 3194 H 297.334 5.08182 4.39546 0
M  V30 3195 N 300.054 -1.07777 1.14986 0
M  V30 3196 C 301.302 -1.79934 0.920235 0
M  V30 3197 C 301.623 -1.86955 -0.554336 0
M  V30 3198 O 300.893 -1.36731 -1.40291 0
M  V30 3199 H 299.473 -0.666424 0.337473 0
M  V30 3200 H 302.135 -1.3027 1.44968 0
M  V30 3201 H 301.231 -2.82539 1.32583 0
M  V30 3202 N 301.532 -0.945985 -1.26051 0
M  V30 3203 C 302.781 -0.591836 -1.92822 0
M  V30 3204 C 303.094 0.873956 -1.7499 0
M  V30 3205 O 304.3 1.33769 -2.36259 0
M  V30 3206 C 302.756 -1.00776 -3.45503 0
M  V30 3207 C 302.364 -2.4955 -3.7206 0
M  V30 3208 C 304.108 -0.725735 -4.1825 0
M  V30 3209 C 302.015 -2.84988 -5.18205 0
M  V30 3210 H 300.945 -0.217635 -0.721908 0
M  V30 3211 H 303.596 -1.14927 -1.43052 0
M  V30 3212 H 301.978 -0.378812 -3.94184 0
M  V30 3213 H 303.152 -3.1739 -3.34066 0
M  V30 3214 H 301.467 -2.75133 -3.12555 0
M  V30 3215 H 304.064 -0.966771 -5.25887 0
M  V30 3216 H 304.407 0.337639 -4.14929 0
M  V30 3217 H 304.94 -1.31463 -3.7545 0
M  V30 3218 H 301.679 -3.90307 -5.26631 0
M  V30 3219 H 301.199 -2.21813 -5.57278 0
M  V30 3220 H 302.878 -2.73712 -5.86252 0
M  V30 3221 N 303.011 1.40521 -0.713556 0
M  V30 3222 C 304.257 2.01714 -0.261382 0
M  V30 3223 C 304.612 1.55562 1.13217 0
M  V30 3224 O 303.905 0.764893 1.7567 0
M  V30 3225 C 304.099 3.56317 -0.278 0
M  V30 3226 C 303.928 4.17476 -1.67163 0
M  V30 3227 C 302.698 4.50998 -2.2788 0
M  V30 3228 C 304.896 4.42472 -2.6215 0
M  V30 3229 N 302.878 4.9754 -3.5962 0
M  V30 3230 C 304.249 4.90985 -3.78594 0
M  V30 3231 C 306.304 4.24508 -2.60188 0
M  V30 3232 C 305.007 5.2342 -4.9338 0
M  V30 3233 C 307.033 4.58043 -3.741 0
M  V30 3234 C 306.395 5.06743 -4.89276 0
M  V30 3235 H 302.494 0.769104 -0.141434 0
M  V30 3236 H 305.078 1.70785 -0.934915 0
M  V30 3237 H 303.249 3.8668 0.36509 0
M  V30 3238 H 304.981 4.0425 0.190695 0
M  V30 3239 H 301.736 4.38062 -1.79997 0
M  V30 3240 H 302.16 5.25196 -4.27198 0
M  V30 3241 H 306.802 3.86078 -1.72348 0
M  V30 3242 H 304.52 5.60765 -5.81866 0
M  V30 3243 H 308.106 4.45785 -3.73854 0
M  V30 3244 H 306.986 5.32204 -5.75959 0
M  V30 3245 N 304.489 0.459591 1.5075 0
M  V30 3246 C 305.419 -0.330644 2.31147 0
M  V30 3247 C 306.4 -1.00087 1.37538 0
M  V30 3248 O 307.585 -1.00025 1.66459 0
M  V30 3249 C 304.715 -1.41958 3.16962 0
M  V30 3250 C 303.669 -0.871608 4.19031 0
M  V30 3251 C 302.995 -2.05797 4.9351 0
M  V30 3252 C 304.295 0.109251 5.22186 0
M  V30 3253 H 305.989 0.340336 2.97459 0
M  V30 3254 H 303.535 0.165119 1.4305 0
M  V30 3255 H 305.488 -1.9798 3.71997 0
M  V30 3256 H 304.212 -2.11917 2.48513 0
M  V30 3257 H 302.871 -0.333442 3.6508 0
M  V30 3258 H 302.519 -2.74427 4.21544 0
M  V30 3259 H 302.219 -1.6976 5.62544 0
M  V30 3260 H 303.743 -2.62331 5.51375 0
M  V30 3261 H 305.157 -0.361405 5.7216 0
M  V30 3262 H 303.554 0.383316 5.98875 0
M  V30 3263 H 304.624 1.03887 4.73641 0
M  V30 3264 N 305.967 -1.56429 0.191757 0
M  V30 3265 C 306.915 -2.20273 -0.747174 0
M  V30 3266 C 307.909 -1.17288 -1.22229 0
M  V30 3267 O 309.115 -1.35441 -1.18557 0
M  V30 3268 H 305.49 -0.705885 -0.259289 0
M  V30 3269 H 307.461 -2.97826 -0.184963 0
M  V30 3270 C 306.21 -2.87356 -1.95759 0
M  V30 3271 H 305.533 -3.66341 -1.60106 0
M  V30 3272 H 306.973 -3.3547 -2.59299 0
M  V30 3273 C 305.432 -1.88213 -2.79423 0
M  V30 3274 O 305.962 -1.38033 -3.7724 0
M  V30 3275 N 304.168 -1.56516 -2.44849 0
M  V30 3276 H 303.715 -1.97516 -1.65364 0
M  V30 3277 H 303.673 -0.904369 -3.01112 0
M  V30 3278 N 307.445 0.0818655 -1.57387 0
M  V30 3279 C 308.861 0.436412 -1.53517 0
M  V30 3280 C 309.061 1.79758 -0.910459 0
M  V30 3281 O 308.117 2.47324 -0.508636 0
M  V30 3282 C 309.43 0.386734 -2.98203 0
M  V30 3283 C 310.978 0.467644 -3.09487 0
M  V30 3284 C 311.453 0.447978 -4.55804 0
M  V30 3285 N 312.944 0.508348 -4.60402 0
M  V30 3286 C 313.679 0.515184 -5.71081 0
M  V30 3287 N 313.175 0.477435 -6.91153 0
M  V30 3288 N 314.968 0.560988 -5.59294 0
M  V30 3289 H 307.119 -0.809546 -1.96367 0
M  V30 3290 H 309.382 -0.302733 -0.898363 0
M  V30 3291 H 309.088 -0.546539 -3.47427 0
M  V30 3292 H 308.962 1.20075 -3.57578 0
M  V30 3293 H 311.349 1.39134 -2.60242 0
M  V30 3294 H 311.43 -0.374753 -2.5304 0
M  V30 3295 H 311.074 -0.471826 -5.05704 0
M  V30 3296 H 311.004 1.30777 -5.10103 0
M  V30 3297 H 313.495 0.54218 -3.7399 0
M  V30 3298 H 313.808 0.486299 -7.71268 0
M  V30 3299 H 312.153 0.444278 -6.93579 0
M  V30 3300 H 315.344 0.5881 -4.64391 0
M  V30 3301 H 315.517 0.562846 -6.45551 0
M  V30 3302 N 308.923 1.53595 0.353017 0
M  V30 3303 C 310.17 1.70385 1.09431 0
M  V30 3304 C 310.498 0.462113 1.88931 0
M  V30 3305 O 309.753 -0.556074 1.87633 0
M  V30 3306 C 310.052 2.91313 2.07054 0
M  V30 3307 C 309.718 4.27308 1.43939 0
M  V30 3308 C 308.38 4.64287 1.26454 0
M  V30 3309 C 310.732 5.11829 0.983883 0
M  V30 3310 C 308.06 5.83412 0.620226 0
M  V30 3311 C 310.412 6.31611 0.353516 0
M  V30 3312 C 309.076 6.67293 0.166272 0
M  V30 3313 H 308.346 0.623484 0.400436 0
M  V30 3314 H 310.993 1.87799 0.374655 0
M  V30 3315 H 309.298 2.68463 2.85368 0
M  V30 3316 H 310.995 3.01497 2.64387 0
M  V30 3317 H 307.585 3.98198 1.58543 0
M  V30 3318 H 311.769 4.838 1.10685 0
M  V30 3319 H 307.025 6.09639 0.463681 0
M  V30 3320 H 311.199 6.964 -0.00757555 0
M  V30 3321 H 308.826 7.59461 -0.335047 0
M  V30 3322 N 310.401 -0.613514 1.45168 0
M  V30 3323 C 311.817 -0.933629 1.29443 0
M  V30 3324 C 312.017 -2.00028 0.243101 0
M  V30 3325 O 311.073 -2.49848 -0.364992 0
M  V30 3326 C 312.386 -1.38018 2.67155 0
M  V30 3327 C 313.934 -1.49471 2.75004 0
M  V30 3328 C 314.409 -1.97503 4.13227 0
M  V30 3329 N 315.9 -2.04746 4.15491 0
M  V30 3330 C 316.635 -2.43121 5.19307 0
M  V30 3331 N 316.131 -2.80506 6.33473 0
M  V30 3332 N 317.924 -2.43408 5.06664 0
M  V30 3333 H 310.075 0.0916097 2.12202 0
M  V30 3334 H 312.338 -0.0216655 0.947752 0
M  V30 3335 H 312.044 -0.670625 3.45247 0
M  V30 3336 H 311.918 -2.34784 2.95222 0
M  V30 3337 H 314.305 -2.19519 1.9722 0
M  V30 3338 H 314.386 -0.510342 2.50657 0
M  V30 3339 H 314.03 -1.28045 4.91495 0
M  V30 3340 H 313.96 -2.96843 4.34962 0
M  V30 3341 H 316.451 -1.78468 3.33103 0
M  V30 3342 H 316.764 -3.08652 7.08487 0
M  V30 3343 H 315.109 -2.78216 6.36884 0
M  V30 3344 H 318.3 -2.13604 4.16523 0
M  V30 3345 H 318.473 -2.72989 5.87691 0
M  V30 3346 N 311.879 -1.3236 -0.855495 0
M  V30 3347 C 313.109 -1.25688 -1.6397 0
M  V30 3348 C 313.517 0.177592 -1.88365 0
M  V30 3349 O 312.86 1.12485 -1.45234 0
M  V30 3350 C 312.922 -1.94602 -3.02275 0
M  V30 3351 C 312.586 -3.43937 -3.00926 0
M  V30 3352 C 313.583 -4.39435 -2.77835 0
M  V30 3353 C 311.268 -3.85858 -3.21588 0
M  V30 3354 C 313.262 -5.74829 -2.75409 0
M  V30 3355 C 310.949 -5.21361 -3.18789 0
M  V30 3356 C 311.947 -6.15658 -2.95727 0
M  V30 3357 O 311.635 -7.48681 -2.928 0
M  V30 3358 H 311.367 -0.434972 -0.51747 0
M  V30 3359 H 313.921 -1.75023 -1.075 0
M  V30 3360 H 312.151 -1.39836 -3.60531 0
M  V30 3361 H 313.84 -1.81651 -3.62985 0
M  V30 3362 H 314.606 -4.08374 -2.6164 0
M  V30 3363 H 310.485 -3.12883 -3.38564 0
M  V30 3364 H 314.029 -6.48404 -2.57328 0
M  V30 3365 H 309.926 -5.52052 -3.34528 0
M  V30 3366 H 310.694 -7.5803 -3.0876 0
M  V30 3367 N 313.357 1.07166 -1.15556 0
M  V30 3368 C 314.305 2.16517 -0.8499 0
M  V30 3369 C 315.299 1.68468 0.177454 0
M  V30 3370 O 316.505 1.79971 0.0323026 0
M  V30 3371 H 312.88 0.706652 -0.25719 0
M  V30 3372 H 314.851 2.39514 -1.77976 0
M  V30 3373 C 313.6 3.45855 -0.357682 0
M  V30 3374 H 312.923 3.83214 -1.13961 0
M  V30 3375 H 314.363 4.23607 -0.182489 0
M  V30 3376 C 312.822 3.24062 0.921152 0
M  V30 3377 O 313.352 3.48813 1.9923 0
M  V30 3378 N 311.558 2.77539 0.86141 0
M  V30 3379 H 311.105 2.57598 -0.0104408 0
M  V30 3380 H 311.063 2.63337 1.71758 0
M  V30 3381 N 314.835 0.952656 1.25548 0
M  V30 3382 C 316.083 0.605176 1.92826 0
M  V30 3383 C 316.404 -0.860261 1.74999 0
M  V30 3384 O 315.674 -1.6125 1.11244 0
M  V30 3385 H 314.254 0.220832 0.713612 0
M  V30 3386 H 316.916 1.21047 1.52754 0
M  V30 3387 H 316.012 0.832798 3.00784 0
M  V30 3388 N 316.313 -1.40141 0.720998 0
M  V30 3389 C 317.561 -2.0039 0.262323 0
M  V30 3390 C 317.882 -1.57469 -1.15015 0
M  V30 3391 O 317.152 -0.816582 -1.78069 0
M  V30 3392 H 315.732 -0.741063 0.093996 0
M  V30 3393 H 318.394 -1.71398 0.927835 0
M  V30 3394 H 317.49 -3.10658 0.299671 0
M  V30 3395 N 317.792 -0.46758 -1.50504 0
M  V30 3396 C 318.74 0.342482 -2.30065 0
M  V30 3397 C 319.734 0.993596 -1.37201 0
M  V30 3398 O 320.94 0.925102 -1.54408 0
M  V30 3399 H 317.315 0.129283 -0.740803 0
M  V30 3400 H 319.286 -0.34899 -2.96352 0
M  V30 3401 C 318.035 1.4139 -3.17654 0
M  V30 3402 H 317.358 0.922264 -3.89017 0
M  V30 3403 H 318.798 1.95335 -3.76325 0
M  V30 3404 C 317.257 2.4139 -2.35016 0
M  V30 3405 O 317.787 3.46586 -2.03079 0
M  V30 3406 N 315.993 2.13021 -1.97662 0
M  V30 3407 H 315.54 1.27499 -2.23834 0
M  V30 3408 H 315.498 2.80164 -1.42673 0
M  V30 3409 N 319.27 1.56325 -0.20005 0
M  V30 3410 C 320.233 2.18084 0.705132 0
M  V30 3411 C 321.233 1.13666 1.1374 0
M  V30 3412 O 322.423 1.39023 1.04968 0
M  V30 3413 C 319.555 2.78689 1.96329 0
M  V30 3414 H 320.748 2.99435 0.167023 0
M  V30 3415 H 318.301 1.56221 0.0495725 0
M  V30 3416 H 319.036 2.0115 2.5438 0
M  V30 3417 H 318.821 3.55133 1.66202 0
M  V30 3418 H 320.311 3.26096 2.60866 0
M  V30 3419 N 320.748 -0.0735177 1.57428 0
M  V30 3420 C 321.978 -0.78483 1.91112 0
M  V30 3421 C 322.386 -1.71729 0.7941 0
M  V30 3422 O 321.729 -1.82105 -0.241542 0
M  V30 3423 C 321.791 -1.63346 3.20247 0
M  V30 3424 C 321.455 -0.870557 4.48632 0
M  V30 3425 C 322.452 -0.19058 5.19551 0
M  V30 3426 C 320.137 -0.838242 4.95256 0
M  V30 3427 C 322.131 0.511503 6.35344 0
M  V30 3428 C 319.818 -0.132386 6.10957 0
M  V30 3429 C 320.816 0.541288 6.80852 0
M  V30 3430 O 320.504 1.23578 7.94345 0
M  V30 3431 H 320.236 -0.228408 0.636244 0
M  V30 3432 H 322.79 -0.0486039 2.05342 0
M  V30 3433 H 321.02 -2.41245 3.02222 0
M  V30 3434 H 322.709 -2.22329 3.39595 0
M  V30 3435 H 323.475 -0.206864 4.84559 0
M  V30 3436 H 319.354 -1.35206 4.40727 0
M  V30 3437 H 322.898 1.03789 6.89836 0
M  V30 3438 H 318.795 -0.114023 6.45399 0
M  V30 3439 H 319.563 1.14487 8.10454 0
M  V30 3440 N 322.226 -1.5378 -0.344866 0
M  V30 3441 C 323.637 -1.62428 -0.920552 0
M  V30 3442 C 323.988 -0.504747 -1.89596 0
M  V30 3443 O 323.113 0.365711 -2.13287 0
M  V30 3444 C 323.708 -2.94419 -1.67639 0
M  V30 3445 C 322.267 -3.05333 -2.20111 0
M  V30 3446 C 321.414 -2.57866 -1.01982 0
M  V30 3447 H 324.365 -1.58222 -0.123042 0
M  V30 3448 H 324.386 -2.83384 -2.53917 0
M  V30 3449 H 323.898 -3.7588 -0.966224 0
M  V30 3450 H 321.999 -2.28502 -2.94308 0
M  V30 3451 H 322.112 -4.10778 -2.46573 0
M  V30 3452 H 320.476 -2.13241 -1.39285 0
M  V30 3453 H 321.259 -3.41765 -0.324308 0
M  V30 3454 N 323.704 0.605807 -1.45491 0
M  V30 3455 C 324.634 1.72709 -1.57143 0
M  V30 3456 C 325.615 1.6476 -0.422884 0
M  V30 3457 O 326.8 1.83132 -0.646247 0
M  V30 3458 C 323.93 3.11316 -1.53948 0
M  V30 3459 C 322.884 3.34077 -2.67537 0
M  V30 3460 C 322.21 4.72975 -2.49397 0
M  V30 3461 C 323.51 3.24158 -4.09535 0
M  V30 3462 H 325.204 1.63214 -2.51001 0
M  V30 3463 H 322.75 0.78379 -1.208 0
M  V30 3464 H 324.703 3.89557 -1.60696 0
M  V30 3465 H 323.427 3.21655 -0.566205 0
M  V30 3466 H 322.086 2.58227 -2.6022 0
M  V30 3467 H 321.734 4.8005 -1.50205 0
M  V30 3468 H 321.434 4.8916 -3.25571 0
M  V30 3469 H 322.958 5.53414 -2.58002 0
M  V30 3470 H 324.372 3.92271 -4.18086 0
M  V30 3471 H 322.769 3.51872 -4.86113 0
M  V30 3472 H 323.839 2.2157 -4.31317 0
M  V30 3473 N 325.182 1.32811 0.848464 0
M  V30 3474 C 326.112 1.24882 1.97299 0
M  V30 3475 C 327.093 0.131357 1.69592 0
M  V30 3476 O 328.278 0.319553 1.91553 0
M  V30 3477 C 325.408 0.97746 3.33261 0
M  V30 3478 C 324.362 2.05682 3.75338 0
M  V30 3479 C 323.688 1.63777 5.09 0
M  V30 3480 C 324.988 3.47254 3.90144 0
M  V30 3481 H 326.682 2.18966 2.04191 0
M  V30 3482 H 324.228 1.05413 0.981029 0
M  V30 3483 H 326.181 0.908513 4.1149 0
M  V30 3484 H 324.905 0.000980011 3.266 0
M  V30 3485 H 323.564 2.11603 2.99366 0
M  V30 3486 H 323.212 0.648569 4.98801 0
M  V30 3487 H 322.912 2.36 5.38124 0
M  V30 3488 H 324.436 1.5833 5.89715 0
M  V30 3489 H 325.85 3.43888 4.58709 0
M  V30 3490 H 324.247 4.1788 4.30693 0
M  V30 3491 H 325.317 3.86462 2.92874 0
M  V30 3492 N 326.66 -1.06551 1.16123 0
M  V30 3493 C 327.937 -1.76097 0.85142 0
M  V30 3494 C 328.317 -2.00802 -0.6513 0
M  V30 3495 O 327.665 -1.63302 -1.59827 0
M  V30 3496 C 327.875 -3.06384 1.67122 0
M  V30 3497 C 329.223 -3.80585 1.88255 0
M  V30 3498 O 330.247 -3.16218 1.63966 0
M  V30 3499 O 329.106 -4.96212 2.2899 0
M  V30 3500 H 326.2 -0.765102 0.313923 0
M  V30 3501 H 328.746 -1.12844 1.26745 0
M  V30 3502 H 327.518 -2.84071 2.69108 0
M  V30 3503 H 327.141 -3.77371 1.25206 0
M  V30 3504 N 328.138 -0.959301 -1.25041 0
M  V30 3505 C 329.085 -0.482057 -2.2571 0
M  V30 3506 C 330.055 0.467939 -1.59372 0
M  V30 3507 O 331.24 0.380159 -1.86974 0
M  V30 3508 C 328.38 0.229623 -3.44335 0
M  V30 3509 C 327.493 -0.758156 -4.25295 0
M  V30 3510 C 326.628 -0.0234403 -5.31195 0
M  V30 3511 C 325.667 -1.00184 -6.03846 0
M  V30 3512 N 324.804 -0.29769 -7.01469 0
M  V30 3513 H 329.644 -1.34538 -2.65901 0
M  V30 3514 H 327.181 -0.674592 -1.3072 0
M  V30 3515 H 329.139 0.658856 -4.11965 0
M  V30 3516 H 327.769 1.05696 -3.05005 0
M  V30 3517 H 326.821 -1.30586 -3.57284 0
M  V30 3518 H 328.133 -1.50458 -4.75567 0
M  V30 3519 H 327.287 0.464201 -6.04922 0
M  V30 3520 H 326.026 0.755741 -4.81809 0
M  V30 3521 H 325.031 -1.50044 -5.2893 0
M  V30 3522 H 326.256 -1.78133 -6.55321 0
M  V30 3523 H 324.202 0.462668 -6.54366 0
M  V30 3524 H 324.119 -0.983128 -7.4958 0
M  V30 3525 H 325.387 0.16826 -7.79318 0
M  V30 3526 N 329.616 1.39756 -0.72842 0
M  V30 3527 C 330.862 2.01425 -0.282761 0
M  V30 3528 C 331.217 1.56754 1.11561 0
M  V30 3529 O 330.51 0.783482 1.74849 0
M  V30 3530 C 330.704 3.56002 -0.315776 0
M  V30 3531 C 330.533 4.1568 -1.71582 0
M  V30 3532 C 329.303 4.48555 -2.32651 0
M  V30 3533 C 331.501 4.39667 -2.66829 0
M  V30 3534 N 329.483 4.93698 -3.64877 0
M  V30 3535 C 330.854 4.86942 -3.8378 0
M  V30 3536 C 332.909 4.21724 -2.64675 0
M  V30 3537 C 331.612 5.18158 -4.98904 0
M  V30 3538 C 333.638 4.54049 -3.78937 0
M  V30 3539 C 333 5.01525 -4.94623 0
M  V30 3540 H 329.099 0.76756 -0.149583 0
M  V30 3541 H 331.683 1.69784 -0.952976 0
M  V30 3542 H 329.854 3.87046 0.324057 0
M  V30 3543 H 331.586 4.0443 0.147808 0
M  V30 3544 H 328.341 4.36128 -1.84633 0
M  V30 3545 H 328.765 5.20635 -4.32744 0
M  V30 3546 H 333.407 3.84228 -1.76433 0
M  V30 3547 H 331.125 5.54562 -5.87781 0
M  V30 3548 H 334.711 4.41795 -3.78561 0
M  V30 3549 H 333.591 5.26065 -5.81572 0
M  V30 3550 N 331.094 0.475555 1.50254 0
M  V30 3551 C 332.343 -0.0795996 2.01543 0
M  V30 3552 C 332.656 -1.4038 1.36209 0
M  V30 3553 O 333.862 -2.04415 1.7868 0
M  V30 3554 C 332.318 -0.192363 3.59386 0
M  V30 3555 C 331.926 1.12367 4.33679 0
M  V30 3556 C 333.67 -0.699238 4.18701 0
M  V30 3557 C 331.577 0.974453 5.83317 0
M  V30 3558 H 330.507 -0.0335228 0.753254 0
M  V30 3559 H 333.158 0.611128 1.73025 0
M  V30 3560 H 331.54 -0.946974 3.84511 0
M  V30 3561 H 332.714 1.88958 4.20276 0
M  V30 3562 H 331.029 1.562 3.85993 0
M  V30 3563 H 333.626 -0.827978 5.28251 0
M  V30 3564 H 333.969 -1.69171 3.80377 0
M  V30 3565 H 334.502 -0.00188807 3.978 0
M  V30 3566 H 331.241 1.94042 6.26121 0
M  V30 3567 H 330.761 0.248998 5.99283 0
M  V30 3568 H 332.44 0.642867 6.43798 0
M  V30 3569 N 332.573 -1.56217 0.208337 0
M  V30 3570 C 333.483 -2.23316 -0.718836 0
M  V30 3571 C 334.499 -1.23648 -1.22422 0
M  V30 3572 O 335.675 -1.56423 -1.26861 0
M  V30 3573 C 332.74 -2.88968 -1.91568 0
M  V30 3574 C 331.801 -4.03943 -1.45357 0
M  V30 3575 C 331.034 -4.66455 -2.59337 0
M  V30 3576 O 331.257 -4.27919 -3.77149 0
M  V30 3577 O 330.191 -5.55686 -2.31293 0
M  V30 3578 H 334.017 -3.03182 -0.177315 0
M  V30 3579 H 331.602 -1.49384 -0.0215402 0
M  V30 3580 H 333.484 -3.30455 -2.61491 0
M  V30 3581 H 332.159 -2.12071 -2.44556 0
M  V30 3582 H 331.066 -3.67052 -0.722746 0
M  V30 3583 H 332.399 -4.82543 -0.970219 0
M  V30 3584 N 334.051 0.0651679 -1.57465 0
M  V30 3585 C 334.961 1.09448 -2.07505 0
M  V30 3586 C 335.977 1.41974 -1.00595 0
M  V30 3587 O 337.153 1.52018 -1.32107 0
M  V30 3588 C 334.218 2.38689 -2.51453 0
M  V30 3589 C 333.279 2.13073 -3.72691 0
M  V30 3590 C 332.512 3.36152 -4.14533 0
M  V30 3591 O 332.735 4.45517 -3.56189 0
M  V30 3592 O 331.669 3.23974 -5.07272 0
M  V30 3593 H 335.495 0.69935 -2.95538 0
M  V30 3594 H 333.08 0.279752 -1.46757 0
M  V30 3595 H 334.962 3.14736 -2.80212 0
M  V30 3596 H 333.637 2.77568 -1.66546 0
M  V30 3597 H 332.544 1.34709 -3.49005 0
M  V30 3598 H 333.877 1.79071 -4.5847 0
M  V30 3599 N 335.529 1.53961 0.336706 0
M  V30 3600 C 336.476 1.82428 1.41381 0
M  V30 3601 C 337.446 0.670444 1.51968 0
M  V30 3602 O 338.631 0.915565 1.67398 0
M  V30 3603 C 335.771 2.04564 2.77934 0
M  V30 3604 C 334.884 3.32267 2.76084 0
M  V30 3605 C 334.019 3.44434 4.04399 0
M  V30 3606 C 333.058 4.66061 3.96804 0
M  V30 3607 N 332.195 4.75224 5.16823 0
M  V30 3608 H 337.035 2.74324 1.16405 0
M  V30 3609 H 334.572 1.35869 0.563752 0
M  V30 3610 H 336.53 2.15388 3.57301 0
M  V30 3611 H 335.16 1.15974 3.01247 0
M  V30 3612 H 334.212 3.3025 1.88784 0
M  V30 3613 H 335.524 4.21733 2.66351 0
M  V30 3614 H 334.678 3.54728 4.92192 0
M  V30 3615 H 333.417 2.53037 4.16921 0
M  V30 3616 H 332.422 4.55838 3.07396 0
M  V30 3617 H 333.647 5.58829 3.85858 0
M  V30 3618 H 331.593 3.86739 5.29876 0
M  V30 3619 H 331.51 5.58636 5.09374 0
M  V30 3620 H 332.778 4.89835 6.06367 0
M  V30 3621 N 337.007 -0.598083 1.45811 0
M  V30 3622 C 338.232 -1.3881 1.54099 0
M  V30 3623 C 338.657 -1.8726 0.177578 0
M  V30 3624 O 338.015 -1.6069 -0.839541 0
M  V30 3625 C 338.063 -2.56217 2.53743 0
M  V30 3626 O 337.167 -3.5716 2.06182 0
M  V30 3627 H 336.508 -0.414024 0.519115 0
M  V30 3628 H 339.038 -0.726971 1.91249 0
M  V30 3629 H 339.048 -3.03337 2.72856 0
M  V30 3630 H 337.723 -2.20303 3.5276 0
M  V30 3631 H 336.3 -3.16624 1.96987 0
M  V30 3632 N 338.485 -1.33259 -0.841409 0
M  V30 3633 C 339.432 -1.23302 -1.95103 0
M  V30 3634 C 340.402 -0.112204 -1.65721 0
M  V30 3635 O 341.587 -0.290038 -1.88583 0
M  V30 3636 C 338.727 -0.975583 -3.31023 0
M  V30 3637 C 337.84 -2.18243 -3.72819 0
M  V30 3638 C 336.975 -1.85936 -4.97595 0
M  V30 3639 C 336.014 -3.02866 -5.3192 0
M  V30 3640 N 335.151 -2.70565 -6.47873 0
M  V30 3641 H 339.991 -2.18207 -2.02952 0
M  V30 3642 H 337.528 -1.0851 -0.993173 0
M  V30 3643 H 339.486 -0.80677 -4.09325 0
M  V30 3644 H 338.116 -0.0632755 -3.22738 0
M  V30 3645 H 337.168 -2.46107 -2.90061 0
M  V30 3646 H 338.48 -3.05666 -3.94169 0
M  V30 3647 H 337.634 -1.65684 -5.83638 0
M  V30 3648 H 336.373 -0.957452 -4.78209 0
M  V30 3649 H 335.378 -3.23736 -4.44382 0
M  V30 3650 H 336.603 -3.93809 -5.53255 0
M  V30 3651 H 334.549 -1.8293 -6.29978 0
M  V30 3652 H 334.466 -3.51519 -6.69306 0
M  V30 3653 H 335.734 -2.53774 -7.37034 0
M  V30 3654 N 339.963 1.05934 -1.16686 0
M  V30 3655 C 341.24 1.75643 -0.860747 0
M  V30 3656 C 341.62 2.01144 0.640641 0
M  V30 3657 O 340.968 1.64147 1.58959 0
M  V30 3658 C 341.178 3.05493 -1.68745 0
M  V30 3659 C 342.526 3.79581 -1.90271 0
M  V30 3660 O 343.55 3.15344 -1.65641 0
M  V30 3661 O 342.409 4.9499 -2.31618 0
M  V30 3662 H 339.503 0.763426 -0.317977 0
M  V30 3663 H 342.049 1.1217 -1.27342 0
M  V30 3664 H 340.821 2.8264 -2.70611 0
M  V30 3665 H 340.444 3.76702 -1.27206 0
M  V30 3666 N 341.441 0.965919 1.2453 0
M  V30 3667 C 342.687 0.637349 1.93156 0
M  V30 3668 C 343.042 -0.818261 1.74133 0
M  V30 3669 O 342.335 -1.58079 1.08266 0
M  V30 3670 C 342.529 0.945428 3.44669 0
M  V30 3671 C 342.358 2.42944 3.78429 0
M  V30 3672 C 341.128 3.08895 3.9989 0
M  V30 3673 C 343.326 3.40941 3.8505 0
M  V30 3674 N 341.308 4.47052 4.20735 0
M  V30 3675 C 342.679 4.64448 4.10717 0
M  V30 3676 C 344.734 3.35624 3.67779 0
M  V30 3677 C 343.437 5.83292 4.20907 0
M  V30 3678 C 345.463 4.53818 3.79214 0
M  V30 3679 C 344.825 5.76114 4.05304 0
M  V30 3680 H 340.924 0.284034 0.728594 0
M  V30 3681 H 343.508 1.24041 1.50073 0
M  V30 3682 H 341.679 0.371193 3.86622 0
M  V30 3683 H 343.411 0.575613 4.00586 0
M  V30 3684 H 340.166 2.59432 3.96222 0
M  V30 3685 H 340.59 5.18634 4.35141 0
M  V30 3686 H 345.232 2.4211 3.46616 0
M  V30 3687 H 342.95 6.77236 4.40883 0
M  V30 3688 H 346.536 4.51263 3.67224 0
M  V30 3689 H 345.416 6.66045 4.13949 0
M  V30 3690 N 342.919 -1.39368 0.735821 0
M  V30 3691 C 343.866 -2.30599 0.0963825 0
M  V30 3692 C 344.836 -1.49257 -0.728794 0
M  V30 3693 O 346.021 -1.77941 -0.688588 0
M  V30 3694 C 343.161 -3.35596 -0.804305 0
M  V30 3695 C 342.274 -4.31987 0.0335761 0
M  V30 3696 C 341.409 -5.24053 -0.868461 0
M  V30 3697 C 340.448 -6.12095 -0.0258776 0
M  V30 3698 N 339.585 -6.96514 -0.883893 0
M  V30 3699 H 344.425 -2.8471 0.880002 0
M  V30 3700 H 341.962 -1.40188 0.445619 0
M  V30 3701 H 343.92 -3.95062 -1.34096 0
M  V30 3702 H 342.55 -2.82938 -1.55389 0
M  V30 3703 H 341.602 -3.74133 0.68766 0
M  V30 3704 H 342.914 -4.94074 0.685036 0
M  V30 3705 H 342.068 -5.88549 -1.47293 0
M  V30 3706 H 340.807 -4.62289 -1.5537 0
M  V30 3707 H 339.812 -5.4661 0.591386 0
M  V30 3708 H 341.037 -6.75923 0.656156 0
M  V30 3709 H 338.983 -6.37318 -1.55441 0
M  V30 3710 H 338.9 -7.55448 -0.288931 0
M  V30 3711 H 340.168 -7.65439 -1.4739 0
M  V30 3712 N 344.397 -0.483516 -1.5 0
M  V30 3713 C 345.808 -0.0314176 -1.86674 0
M  V30 3714 C 346.159 1.37728 -1.39733 0
M  V30 3715 O 345.284 2.02327 -0.767635 0
M  V30 3716 C 345.879 -0.0502376 -3.38763 0
M  V30 3717 C 344.438 0.346442 -3.74802 0
M  V30 3718 C 343.585 -0.430366 -2.7394 0
M  V30 3719 H 346.536 -0.697182 -1.42566 0
M  V30 3720 H 346.557 0.749116 -3.73053 0
M  V30 3721 H 346.069 -1.07563 -3.72897 0
M  V30 3722 H 344.17 1.37572 -3.46273 0
M  V30 3723 H 344.283 0.0391486 -4.79084 0
M  V30 3724 H 342.647 0.117557 -2.54429 0
M  V30 3725 H 343.43 -1.4555 -3.10918 0
M  V30 3726 N 345.875 1.56104 -0.216619 0
M  V30 3727 C 346.785 2.23694 0.706982 0
M  V30 3728 C 347.801 1.24295 1.21765 0
M  V30 3729 O 348.977 1.57094 1.2603 0
M  V30 3730 C 346.042 2.8998 1.90033 0
M  V30 3731 C 345.103 4.04708 1.43213 0
M  V30 3732 C 344.336 4.67824 2.56859 0
M  V30 3733 O 344.559 4.29913 3.74874 0
M  V30 3734 O 343.493 5.56905 2.28343 0
M  V30 3735 H 347.319 3.03272 0.161235 0
M  V30 3736 H 344.904 1.49394 0.0136177 0
M  V30 3737 H 346.786 3.31837 2.59735 0
M  V30 3738 H 345.461 2.13365 2.43428 0
M  V30 3739 H 344.368 3.6743 0.70327 0
M  V30 3740 H 345.701 4.83051 0.944615 0
M  V30 3741 N 347.353 -0.0568162 1.57498 0
M  V30 3742 C 348.301 -1.08452 2.05769 0
M  V30 3743 C 349.295 -1.39164 0.965903 0
M  V30 3744 O 350.501 -1.38395 1.15095 0
M  V30 3745 H 346.876 -0.367148 0.656282 0
M  V30 3746 H 348.847 -0.651368 2.91204 0
M  V30 3747 C 347.596 -2.38543 2.52968 0
M  V30 3748 H 346.919 -2.15765 3.36579 0
M  V30 3749 H 348.359 -3.08863 2.90481 0
M  V30 3750 C 346.818 -3.05562 1.41893 0
M  V30 3751 O 347.348 -3.94262 0.769442 0
M  V30 3752 N 345.554 -2.6643 1.16032 0
M  V30 3753 H 345.101 -1.94387 1.6903 0
M  V30 3754 H 345.059 -3.11593 0.419219 0
M  V30 3755 N 348.832 -1.54138 -0.328536 0
M  V30 3756 C 350.243 -1.63395 -0.903272 0
M  V30 3757 C 350.594 -0.524828 -1.8905 0
M  V30 3758 O 349.719 0.343068 -2.13663 0
M  V30 3759 C 350.314 -2.9618 -1.64507 0
M  V30 3760 C 348.873 -3.0765 -2.1686 0
M  V30 3761 C 348.02 -2.58933 -0.992416 0
M  V30 3762 H 350.971 -1.58344 -0.106253 0
M  V30 3763 H 350.992 -2.86061 -2.50897 0
M  V30 3764 H 350.504 -3.76884 -0.926302 0
M  V30 3765 H 348.605 -2.31611 -2.91868 0
M  V30 3766 H 348.718 -4.1337 -2.42202 0
M  V30 3767 H 347.082 -2.14706 -1.37016 0
M  V30 3768 H 347.865 -3.42089 -0.288041 0
M  V30 3769 N 350.31 0.590341 -1.46126 0
M  V30 3770 C 351.557 1.34882 -1.5104 0
M  V30 3771 C 351.885 1.93849 -0.159021 0
M  V30 3772 O 351.14 1.76544 0.844436 0
M  V30 3773 C 351.439 2.5032 -2.55097 0
M  V30 3774 C 351.105 2.09394 -3.99331 0
M  V30 3775 C 349.767 1.97947 -4.38601 0
M  V30 3776 C 352.119 1.77712 -4.89967 0
M  V30 3777 C 349.447 1.53065 -5.66381 0
M  V30 3778 C 351.799 1.34312 -6.18177 0
M  V30 3779 C 350.463 1.21436 -6.56361 0
M  V30 3780 H 349.733 0.493568 -0.552695 0
M  V30 3781 H 352.38 0.665539 -1.79563 0
M  V30 3782 H 350.685 3.24062 -2.20207 0
M  V30 3783 H 352.382 3.08541 -2.56132 0
M  V30 3784 H 348.972 2.19235 -3.68285 0
M  V30 3785 H 353.156 1.85445 -4.60352 0
M  V30 3786 H 348.412 1.41733 -5.94745 0
M  V30 3787 H 352.586 1.08849 -6.87841 0
M  V30 3788 H 350.213 0.864345 -7.5527 0
M  V30 3789 N 351.788 1.33704 0.83433 0
M  V30 3790 C 352.736 1.24323 1.96587 0
M  V30 3791 C 353.73 0.143659 1.6879 0
M  V30 3792 O 354.936 0.30791 1.77347 0
M  V30 3793 H 351.311 0.385925 0.645419 0
M  V30 3794 H 353.282 2.19978 2.01624 0
M  V30 3795 C 352.031 1.00394 3.32891 0
M  V30 3796 H 351.354 1.84231 3.54822 0
M  V30 3797 H 352.794 0.97862 4.12552 0
M  V30 3798 C 351.253 -0.293047 3.35623 0
M  V30 3799 O 351.783 -1.29823 3.80143 0
M  V30 3800 N 349.989 -0.322174 2.88809 0
M  V30 3801 H 349.536 0.496379 2.52772 0
M  V30 3802 H 349.494 -1.18977 2.91019 0
M  V30 3803 N 353.266 -1.05314 1.17247 0
M  V30 3804 C 354.543 -1.75184 0.87005 0
M  V30 3805 C 354.923 -2.01481 -0.629965 0
M  V30 3806 O 354.271 -1.64988 -1.58086 0
M  V30 3807 C 354.481 -3.04594 1.70363 0
M  V30 3808 C 355.829 -3.78567 1.92281 0
M  V30 3809 O 356.853 -3.14461 1.67311 0
M  V30 3810 O 355.712 -4.93755 2.3424 0
M  V30 3811 H 352.806 -0.761729 0.322021 0
M  V30 3812 H 355.352 -1.11493 1.27935 0
M  V30 3813 H 354.124 -2.81201 2.72106 0
M  V30 3814 H 353.747 -3.76022 1.29202 0
M  V30 3815 N 354.744 -0.972509 -1.24016 0
M  V30 3816 C 355.676 -0.464375 -2.24446 0
M  V30 3817 C 356.689 0.4295 -1.57032 0
M  V30 3818 O 357.878 0.234902 -1.76948 0
M  V30 3819 C 354.978 0.348385 -3.37105 0
M  V30 3820 C 354.151 -0.53673 -4.34094 0
M  V30 3821 C 353.21 0.220838 -5.25736 0
M  V30 3822 O 352.236 -0.386867 -5.67884 0
M  V30 3823 N 353.438 1.50907 -5.60542 0
M  V30 3824 H 356.203 -1.32788 -2.68677 0
M  V30 3825 H 353.764 -0.844877 -1.38107 0
M  V30 3826 H 355.756 0.863341 -3.95384 0
M  V30 3827 H 354.326 1.11285 -2.92121 0
M  V30 3828 H 353.546 -1.23261 -3.74433 0
M  V30 3829 H 354.834 -1.14022 -4.95859 0
M  V30 3830 H 354.232 2.02444 -5.28236 0
M  V30 3831 H 352.789 1.96962 -6.21329 0
M  V30 3832 N 356.222 1.38976 -0.743202 0
M  V30 3833 C 357.152 2.33171 -0.123873 0
M  V30 3834 C 358.133 1.54336 0.71516 0
M  V30 3835 O 359.318 1.82696 0.658467 0
M  V30 3836 C 356.448 3.38474 0.777978 0
M  V30 3837 C 355.402 4.27979 0.0424758 0
M  V30 3838 C 354.728 5.2405 1.06189 0
M  V30 3839 C 356.028 5.10155 -1.1198 0
M  V30 3840 H 357.722 2.85213 -0.910709 0
M  V30 3841 H 355.268 1.37133 -0.439388 0
M  V30 3842 H 357.221 4.03328 1.22084 0
M  V30 3843 H 355.945 2.84891 1.59702 0
M  V30 3844 H 354.604 3.64616 -0.380853 0
M  V30 3845 H 354.252 4.66758 1.87472 0
M  V30 3846 H 353.952 5.84785 0.574485 0
M  V30 3847 H 355.476 5.9178 1.50428 0
M  V30 3848 H 356.89 5.68307 -0.75499 0
M  V30 3849 H 355.287 5.80073 -1.53738 0
M  V30 3850 H 356.357 4.44504 -1.93764 0
M  V30 3851 N 357.7 0.491464 1.49741 0
M  V30 3852 C 358.925 -0.0557177 2.07325 0
M  V30 3853 C 359.35 -1.30925 1.35056 0
M  V30 3854 O 358.708 -1.76733 0.404365 0
M  V30 3855 C 358.756 -0.302074 3.59333 0
M  V30 3856 O 357.86 -1.37868 3.88672 0
M  V30 3857 H 357.201 0.0219956 0.663636 0
M  V30 3858 H 359.731 0.688352 1.92673 0
M  V30 3859 H 359.741 -0.536464 4.04458 0
M  V30 3860 H 358.416 0.61383 4.11345 0
M  V30 3861 H 356.993 -1.12999 3.55367 0
M  V30 3862 N 359.178 -1.55987 0.224894 0
M  V30 3863 C 360.589 -1.84553 -0.282345 0
M  V30 3864 C 360.94 -1.14634 -1.59227 0
M  V30 3865 O 360.065 -0.417155 -2.12341 0
M  V30 3866 C 360.66 -3.348 -0.519062 0
M  V30 3867 C 359.219 -3.63671 -0.970604 0
M  V30 3868 C 358.366 -2.77277 -0.0355261 0
M  V30 3869 H 361.317 -1.52245 0.448006 0
M  V30 3870 H 361.338 -3.55187 -1.36463 0
M  V30 3871 H 360.85 -3.8566 0.43449 0
M  V30 3872 H 358.951 -3.1827 -1.9374 0
M  V30 3873 H 359.064 -4.71631 -0.842698 0
M  V30 3874 H 357.428 -2.48846 -0.542927 0
M  V30 3875 H 358.211 -3.30937 0.913003 0
M  V30 3876 N 360.656 0.0484629 -1.57525 0
M  V30 3877 C 361.619 1.03956 -2.04269 0
M  V30 3878 C 362.619 1.30211 -0.943496 0
M  V30 3879 O 363.809 1.25539 -1.20771 0
M  V30 3880 C 360.941 2.37742 -2.44319 0
M  V30 3881 H 362.134 0.636182 -2.93075 0
M  V30 3882 H 359.687 0.294811 -1.53494 0
M  V30 3883 H 360.422 2.82866 -1.5861 0
M  V30 3884 H 360.207 2.20021 -3.24551 0
M  V30 3885 H 361.697 3.08936 -2.80978 0
M  V30 3886 N 362.134 1.5431 0.320358 0
M  V30 3887 C 363.097 1.83195 1.3774 0
M  V30 3888 C 364.097 0.703906 1.44575 0
M  V30 3889 O 365.287 0.972214 1.44546 0
M  V30 3890 C 362.419 1.99487 2.76438 0
M  V30 3891 H 363.612 2.77642 1.1338 0
M  V30 3892 H 361.165 1.46076 0.556012 0
M  V30 3893 H 361.9 1.07262 3.06048 0
M  V30 3894 H 361.685 2.81575 2.7287 0
M  V30 3895 H 363.175 2.23271 3.52902 0
M  V30 3896 N 363.613 -0.582584 1.46437 0
M  V30 3897 C 364.862 -1.337 1.5102 0
M  V30 3898 C 365.175 -1.94891 0.166359 0
M  V30 3899 O 366.381 -2.71351 0.0899954 0
M  V30 3900 C 364.837 -2.42315 2.66104 0
M  V30 3901 C 364.445 -1.87427 4.06909 0
M  V30 3902 C 366.189 -3.19099 2.79958 0
M  V30 3903 C 364.096 -2.93672 5.13333 0
M  V30 3904 H 363.026 -0.502619 0.562041 0
M  V30 3905 H 365.677 -0.621701 1.72647 0
M  V30 3906 H 364.059 -3.16645 2.37807 0
M  V30 3907 H 365.233 -1.19639 4.44998 0
M  V30 3908 H 363.548 -1.2331 3.97723 0
M  V30 3909 H 366.145 -3.9839 3.56636 0
M  V30 3910 H 366.488 -3.71695 1.87479 0
M  V30 3911 H 367.021 -2.51875 3.07902 0
M  V30 3912 H 363.76 -2.45962 6.07604 0
M  V30 3913 H 363.28 -3.59948 4.79789 0
M  V30 3914 H 364.959 -3.5762 5.39182 0
M  V30 3915 N 365.091 -1.34144 -0.827227 0
M  V30 3916 C 366.368 -1.16844 -1.56865 0
M  V30 3917 C 366.748 0.260654 -2.09485 0
M  V30 3918 O 366.096 1.26138 -1.9053 0
M  V30 3919 C 366.306 -2.21939 -2.6934 0
M  V30 3920 C 367.654 -2.56695 -3.3822 0
M  V30 3921 O 368.678 -2.20695 -2.79593 0
M  V30 3922 O 367.537 -3.18518 -4.44082 0
M  V30 3923 H 364.631 -0.452669 -0.692112 0
M  V30 3924 H 367.177 -1.45763 -0.868973 0
M  V30 3925 H 365.949 -3.17882 -2.28182 0
M  V30 3926 H 365.572 -1.94172 -3.46962 0
M  V30 3927 N 366.569 1.04691 -1.17803 0
M  V30 3928 C 367.502 2.12068 -0.842765 0
M  V30 3929 C 368.48 1.61455 0.192608 0
M  V30 3930 O 369.664 1.88359 0.072995 0
M  V30 3931 C 366.791 3.37715 -0.258063 0
M  V30 3932 C 365.837 4.07164 -1.26962 0
M  V30 3933 S 366.67 4.55047 -2.82299 0
M  V30 3934 C 367.826 5.83935 -2.25323 0
M  V30 3935 H 368.059 2.4018 -1.75217 0
M  V30 3936 H 365.592 1.17366 -1.00323 0
M  V30 3937 H 367.55 4.10435 0.0727935 0
M  V30 3938 H 366.211 3.0773 0.629357 0
M  V30 3939 H 365.404 4.9746 -0.809263 0
M  V30 3940 H 365.006 3.40533 -1.54639 0
M  V30 3941 H 367.298 6.57552 -1.63192 0
M  V30 3942 H 368.241 6.34725 -3.13894 0
M  V30 3943 H 368.649 5.3874 -1.68582 0
M  V30 3944 N 368.047 0.979072 1.23499 0
M  V30 3945 C 369.277 0.664237 1.95631 0
M  V30 3946 C 369.685 -0.772653 1.72704 0
M  V30 3947 O 369.028 -1.53141 1.01457 0
M  V30 3948 C 369.09 0.873115 3.48736 0
M  V30 3949 C 368.754 2.29182 3.95379 0
M  V30 3950 C 369.751 3.2704 4.04155 0
M  V30 3951 C 367.436 2.62256 4.28401 0
M  V30 3952 C 369.43 4.56052 4.45304 0
M  V30 3953 C 367.117 3.91491 4.69231 0
M  V30 3954 C 368.115 4.88201 4.77649 0
M  V30 3955 O 367.803 6.15129 5.17563 0
M  V30 3956 H 367.535 0.245915 0.629684 0
M  V30 3957 H 370.089 1.3127 1.57979 0
M  V30 3958 H 368.319 0.167476 3.86337 0
M  V30 3959 H 370.008 0.555642 4.02079 0
M  V30 3960 H 370.774 3.02819 3.78848 0
M  V30 3961 H 366.653 1.87692 4.21061 0
M  V30 3962 H 370.197 5.31538 4.51789 0
M  V30 3963 H 366.094 4.15508 4.93987 0
M  V30 3964 H 366.862 6.18862 5.35679 0
M  V30 3965 N 369.525 -1.3858 0.750561 0
M  V30 3966 C 370.941 -1.53759 0.427824 0
M  V30 3967 C 371.141 -1.71401 -1.05943 0
M  V30 3968 O 370.197 -1.72331 -1.84549 0
M  V30 3969 C 371.51 -2.74642 1.22443 0
M  V30 3970 C 373.058 -2.88489 1.2142 0
M  V30 3971 C 373.533 -4.12329 1.9937 0
M  V30 3972 N 375.024 -4.194 1.96616 0
M  V30 3973 C 375.759 -5.14209 2.53727 0
M  V30 3974 N 375.255 -6.14709 3.19539 0
M  V30 3975 N 377.048 -5.06537 2.43673 0
M  V30 3976 H 369.199 -1.25377 1.71447 0
M  V30 3977 H 371.462 -0.608844 0.726645 0
M  V30 3978 H 371.168 -2.68 2.27747 0
M  V30 3979 H 371.042 -3.67745 0.839273 0
M  V30 3980 H 373.429 -2.94614 0.169232 0
M  V30 3981 H 373.51 -1.96406 1.63885 0
M  V30 3982 H 373.154 -4.06966 3.03877 0
M  V30 3983 H 373.084 -5.03486 1.54302 0
M  V30 3984 H 375.575 -3.47421 1.48684 0
M  V30 3985 H 375.888 -6.8354 3.60545 0
M  V30 3986 H 374.233 -6.1505 3.23633 0
M  V30 3987 H 377.424 -4.26962 1.91889 0
M  V30 3988 H 377.597 -5.80245 2.88479 0
M  V30 3989 N 371.003 -0.499398 -1.49478 0
M  V30 3990 C 372.25 0.0456899 -2.02448 0
M  V30 3991 C 372.578 1.37142 -1.37921 0
M  V30 3992 O 371.833 1.89111 -0.503544 0
M  V30 3993 C 372.132 0.248424 -3.56536 0
M  V30 3994 C 371.798 -0.999107 -4.39692 0
M  V30 3995 C 370.46 -1.34108 -4.62135 0
M  V30 3996 C 372.812 -1.82842 -4.88076 0
M  V30 3997 C 370.14 -2.51191 -5.30208 0
M  V30 3998 C 372.492 -2.99076 -5.57437 0
M  V30 3999 C 371.156 -3.33655 -5.78127 0
M  V30 4000 H 370.426 0.0167191 -0.740811 0
M  V30 4001 H 373.073 -0.65923 -1.79795 0
M  V30 4002 H 371.378 1.03586 -3.77859 0
M  V30 4003 H 373.075 0.684605 -3.95113 0
M  V30 4004 H 369.665 -0.722729 -4.22463 0
M  V30 4005 H 373.849 -1.57737 -4.70566 0
M  V30 4006 H 369.105 -2.78221 -5.44429 0
M  V30 4007 H 373.279 -3.63664 -5.93904 0
M  V30 4008 H 370.906 -4.24483 -6.30649 0
M  V30 4009 N 372.481 1.55866 -0.233164 0
M  V30 4010 C 373.711 2.02704 0.399325 0
M  V30 4011 C 374.119 1.11204 1.53069 0
M  V30 4012 O 373.462 0.116182 1.83332 0
M  V30 4013 C 373.524 3.45844 0.981429 0
M  V30 4014 C 373.188 4.56997 -0.0159561 0
M  V30 4015 C 374.185 5.13384 -0.820552 0
M  V30 4016 C 371.87 5.0211 -0.138072 0
M  V30 4017 C 373.864 6.13365 -1.73386 0
M  V30 4018 C 371.551 6.01926 -1.0549 0
M  V30 4019 C 372.549 6.57431 -1.85132 0
M  V30 4020 O 372.237 7.55302 -2.75272 0
M  V30 4021 H 371.969 0.668459 0.100692 0
M  V30 4022 H 374.523 2.02387 -0.35052 0
M  V30 4023 H 372.753 3.43267 1.78058 0
M  V30 4024 H 374.442 3.76262 1.52255 0
M  V30 4025 H 375.208 4.79372 -0.736721 0
M  V30 4026 H 371.087 4.5858 0.471737 0
M  V30 4027 H 374.631 6.56614 -2.35592 0
M  V30 4028 H 370.528 6.35359 -1.1397 0
M  V30 4029 H 371.296 7.72867 -2.69477 0
M  V30 4030 N 373.959 -0.0401083 1.57549 0
M  V30 4031 C 375.207 -0.731677 1.8839 0
M  V30 4032 C 375.528 -1.76481 0.829425 0
M  V30 4033 O 374.798 -1.95411 -0.1383 0
M  V30 4034 H 373.378 -0.273225 0.695239 0
M  V30 4035 H 376.04 -0.00867725 1.94898 0
M  V30 4036 H 375.136 -1.22816 2.86919 0
M  V30 4037 N 375.437 -1.54477 -0.31217 0
M  V30 4038 C 376.683 -1.73483 -1.0503 0
M  V30 4039 C 377.016 -0.513125 -1.87298 0
M  V30 4040 O 376.291 0.489864 -1.8823 0
M  V30 4041 C 376.574 -3.01723 -1.96558 0
M  V30 4042 C 376.427 -4.3417 -1.17545 0
M  V30 4043 C 377.746 -3.25772 -2.95907 0
M  V30 4044 H 374.865 -0.631222 -0.380432 0
M  V30 4045 H 377.507 -1.87184 -0.325932 0
M  V30 4046 H 375.657 -2.90174 -2.58324 0
M  V30 4047 H 377.329 -4.5762 -0.581513 0
M  V30 4048 H 375.572 -4.31159 -0.477925 0
M  V30 4049 H 376.243 -5.20143 -1.84811 0
M  V30 4050 H 378.719 -3.36857 -2.44267 0
M  V30 4051 H 377.595 -4.16838 -3.57123 0
M  V30 4052 H 377.856 -2.43537 -3.68974 0
M  V30 4053 N 376.915 0.57481 -1.46744 0
M  V30 4054 C 377.848 1.69827 -1.52427 0
M  V30 4055 C 378.826 1.58151 -0.377744 0
M  V30 4056 O 380.01 1.79257 -0.58303 0
M  V30 4057 C 377.137 3.07943 -1.41027 0
M  V30 4058 C 376.183 3.38116 -2.59961 0
M  V30 4059 S 377.016 3.29313 -4.22272 0
M  V30 4060 C 378.172 4.69953 -4.13394 0
M  V30 4061 H 378.405 1.64748 -2.47478 0
M  V30 4062 H 375.938 0.754203 -1.34726 0
M  V30 4063 H 377.896 3.87619 -1.35137 0
M  V30 4064 H 376.557 3.10504 -0.473909 0
M  V30 4065 H 375.75 4.38762 -2.47999 0
M  V30 4066 H 375.352 2.66024 -2.62882 0
M  V30 4067 H 377.644 5.60517 -3.80562 0
M  V30 4068 H 378.587 4.86972 -5.14066 0
M  V30 4069 H 378.995 4.47174 -3.44522 0
M  V30 4070 N 378.394 1.34581 0.820102 0
M  V30 4071 C 379.805 1.24298 1.39309 0
M  V30 4072 C 380.156 -0.130351 1.95767 0
M  V30 4073 O 379.281 -1.0308 1.90272 0
M  V30 4074 C 379.876 2.25054 2.53251 0
M  V30 4075 C 378.435 2.18552 3.0645 0
M  V30 4076 C 377.582 2.11503 1.79337 0
M  V30 4077 H 380.533 1.45906 0.624262 0
M  V30 4078 H 380.554 1.86917 3.31425 0
M  V30 4079 H 380.066 3.24996 2.1213 0
M  V30 4080 H 378.167 1.21976 3.52069 0
M  V30 4081 H 378.28 3.0993 3.65349 0
M  V30 4082 H 376.644 1.57268 2.00347 0
M  V30 4083 H 377.427 3.13284 1.40386 0
M  V30 4084 N 379.872 -1.04064 1.18357 0
M  V30 4085 C 381.121 -1.76662 0.973313 0
M  V30 4086 C 381.434 -1.89154 -0.497991 0
M  V30 4087 O 382.64 -2.58606 -0.826762 0
M  V30 4088 C 381.096 -3.17624 1.69242 0
M  V30 4089 C 380.704 -3.13225 3.20303 0
M  V30 4090 C 382.448 -3.946 1.56497 0
M  V30 4091 C 380.355 -4.49046 3.84853 0
M  V30 4092 H 379.285 -0.662214 0.36054 0
M  V30 4093 H 381.936 -1.16553 1.41731 0
M  V30 4094 H 380.318 -3.78129 1.1762 0
M  V30 4095 H 381.492 -2.62172 3.78949 0
M  V30 4096 H 379.807 -2.49749 3.33189 0
M  V30 4097 H 382.404 -4.95042 2.02084 0
M  V30 4098 H 382.747 -4.13074 0.517243 0
M  V30 4099 H 383.28 -3.4067 2.05399 0
M  V30 4100 H 380.019 -4.35777 4.89672 0
M  V30 4101 H 379.539 -5.00203 3.30994 0
M  V30 4102 H 381.218 -5.17961 3.87718 0
M  V30 4103 N 381.35 -0.985608 -1.22978 0
M  V30 4104 C 382.598 -0.656087 -1.91154 0
M  V30 4105 C 382.919 0.813561 -1.77218 0
M  V30 4106 O 382.189 1.58244 -1.1548 0
M  V30 4107 H 380.769 -0.239674 -0.707506 0
M  V30 4108 H 383.431 -1.25054 -1.49491 0
M  V30 4109 H 382.527 -0.912253 -2.9847 0
M  V30 4110 N 382.828 1.3818 -0.7579 0
M  V30 4111 C 384.105 1.94106 -0.241306 0
M  V30 4112 C 384.485 1.69282 1.26122 0
M  V30 4113 O 383.833 1.03378 2.03777 0
M  V30 4114 C 384.043 3.43809 -0.59967 0
M  V30 4115 C 385.391 4.20868 -0.561717 0
M  V30 4116 O 386.415 3.5211 -0.538222 0
M  V30 4117 O 385.274 5.43451 -0.576478 0
M  V30 4118 H 382.368 0.825376 -0.0518042 0
M  V30 4119 H 384.914 1.47548 -0.838315 0
M  V30 4120 H 383.686 3.55403 -1.6372 0
M  V30 4121 H 383.309 3.97592 0.0251197 0
M  V30 4122 N 384.306 0.507319 1.49211 0
M  V30 4123 C 385.534 -0.0315749 2.06876 0
M  V30 4124 C 385.949 -1.30241 1.36685 0
M  V30 4125 O 385.306 -1.76937 0.447152 0
M  V30 4126 C 385.357 -0.282627 3.60393 0
M  V30 4127 O 385.078 0.937835 4.27944 0
M  V30 4128 C 386.579 -0.864453 4.3479 0
M  V30 4129 H 383.799 0.0233048 0.670595 0
M  V30 4130 H 386.343 0.706484 1.91909 0
M  V30 4131 H 384.498 -0.97068 3.75042 0
M  V30 4132 H 384.912 0.704567 5.19746 0
M  V30 4133 H 386.386 -0.989664 5.43056 0
M  V30 4134 H 386.863 -1.86382 3.97692 0
M  V30 4135 H 387.469 -0.213672 4.24763 0
M  V30 4136 N 385.784 -1.5574 0.241426 0
M  V30 4137 C 387.03 -1.99104 -0.385406 0
M  V30 4138 C 387.363 -1.1293 -1.57988 0
M  V30 4139 O 386.638 -0.191449 -1.93555 0
M  V30 4140 C 386.921 -3.51087 -0.800616 0
M  V30 4141 C 386.774 -4.48028 0.398874 0
M  V30 4142 C 388.093 -4.08015 -1.64959 0
M  V30 4143 H 385.212 -0.723848 -0.138614 0
M  V30 4144 H 387.854 -1.86903 0.341642 0
M  V30 4145 H 386.004 -3.61615 -1.4201 0
M  V30 4146 H 387.676 -4.49487 1.03726 0
M  V30 4147 H 385.919 -4.21077 1.04293 0
M  V30 4148 H 386.59 -5.51962 0.0651056 0
M  V30 4149 H 389.066 -4.00555 -1.12672 0
M  V30 4150 H 387.942 -5.14635 -1.90898 0
M  V30 4151 H 388.203 -3.56131 -2.61961 0
M  V30 4152 N 387.262 0.0317525 -1.57568 0
M  V30 4153 C 388.678 0.38735 -1.54828 0
M  V30 4154 C 388.878 1.7677 -0.967187 0
M  V30 4155 O 387.934 2.45581 -0.587063 0
M  V30 4156 C 389.247 0.291667 -2.99282 0
M  V30 4157 C 390.795 0.368946 -3.10818 0
M  V30 4158 C 391.27 0.302741 -4.56998 0
M  V30 4159 N 392.761 0.361617 -4.61786 0
M  V30 4160 C 393.496 0.333238 -5.72431 0
M  V30 4161 N 392.992 0.257308 -6.92322 0
M  V30 4162 N 394.785 0.382769 -5.60795 0
M  V30 4163 H 386.936 -0.871609 -1.93692 0
M  V30 4164 H 389.199 -0.331161 -0.888277 0
M  V30 4165 H 388.905 -0.656794 -3.45513 0
M  V30 4166 H 388.779 1.08638 -3.61217 0
M  V30 4167 H 391.166 1.30784 -2.64536 0
M  V30 4168 H 391.247 -0.455066 -2.5172 0
M  V30 4169 H 390.891 -0.632473 -5.03947 0
M  V30 4170 H 390.821 1.14482 -5.14005 0
M  V30 4171 H 393.312 0.422923 -3.75526 0
M  V30 4172 H 393.625 0.24068 -7.72425 0
M  V30 4173 H 391.97 0.223396 -6.94641 0
M  V30 4174 H 395.161 0.44006 -4.66027 0
M  V30 4175 H 395.334 0.357184 -6.47015 0
M  V30 4176 N 388.74 1.54641 0.303973 0
M  V30 4177 C 389.688 1.86137 1.39484 0
M  V30 4178 C 390.682 0.734854 1.52631 0
M  V30 4179 O 391.888 0.918803 1.54784 0
M  V30 4180 H 388.263 0.590324 0.465856 0
M  V30 4181 H 390.234 2.77324 1.10154 0
M  V30 4182 C 388.983 2.12274 2.75382 0
M  V30 4183 H 388.306 2.98429 2.66046 0
M  V30 4184 H 389.746 2.38254 3.5073 0
M  V30 4185 C 388.205 0.920365 3.24085 0
M  V30 4186 O 388.735 0.139377 4.01458 0
M  V30 4187 N 386.941 0.726566 2.81371 0
M  V30 4188 H 386.488 1.36332 2.18567 0
M  V30 4189 H 386.446 -0.0763799 3.14307 0
M  V30 4190 N 390.218 -0.567019 1.47046 0
M  V30 4191 C 391.443 -1.3551 1.57009 0
M  V30 4192 C 391.868 -1.86841 0.217259 0
M  V30 4193 O 391.226 -1.62435 -0.805268 0
M  V30 4194 C 391.274 -2.50777 2.5912 0
M  V30 4195 O 390.378 -3.52706 2.13711 0
M  V30 4196 H 389.719 -0.402919 0.52778 0
M  V30 4197 H 392.249 -0.686241 1.92748 0
M  V30 4198 H 392.259 -2.97481 2.79229 0
M  V30 4199 H 390.934 -2.12771 3.57353 0
M  V30 4200 H 389.511 -3.12374 2.03659 0
M  V30 4201 N 391.696 -1.35014 -0.812953 0
M  V30 4202 C 392.921 -1.31187 -1.60639 0
M  V30 4203 C 393.346 0.109382 -1.87782 0
M  V30 4204 O 392.704 1.07424 -1.46047 0
M  V30 4205 C 392.752 -2.11809 -2.91838 0
M  V30 4206 O 391.856 -1.49444 -3.8437 0
M  V30 4207 H 391.197 -0.450084 -0.488181 0
M  V30 4208 H 393.727 -1.77963 -1.00947 0
M  V30 4209 H 393.737 -2.23531 -3.41318 0
M  V30 4210 H 392.412 -3.15137 -2.71407 0
M  V30 4211 H 390.989 -1.46524 -3.42907 0
M  V30 4212 N 393.175 1.03435 -1.18907 0
M  V30 4213 C 394.421 1.7713 -0.99982 0
M  V30 4214 C 394.776 1.86695 0.465049 0
M  V30 4215 O 394.069 1.36866 1.34083 0
M  V30 4216 C 394.263 3.19792 -1.59586 0
M  V30 4217 C 394.092 3.24134 -3.11717 0
M  V30 4218 C 392.862 3.32398 -3.80578 0
M  V30 4219 C 395.06 3.11625 -4.09138 0
M  V30 4220 N 393.042 3.26055 -5.20155 0
M  V30 4221 C 394.413 3.12855 -5.35277 0
M  V30 4222 C 396.468 2.95713 -4.00572 0
M  V30 4223 C 395.171 2.99805 -6.53842 0
M  V30 4224 C 397.197 2.84011 -5.1874 0
M  V30 4225 C 396.559 2.8589 -6.43775 0
M  V30 4226 H 392.658 0.659683 -0.419931 0
M  V30 4227 H 395.242 1.2317 -1.50789 0
M  V30 4228 H 393.413 3.72085 -1.11389 0
M  V30 4229 H 395.145 3.81819 -1.3415 0
M  V30 4230 H 391.9 3.38392 -3.31342 0
M  V30 4231 H 392.324 3.26307 -5.93172 0
M  V30 4232 H 396.966 2.93086 -3.0473 0
M  V30 4233 H 394.684 3.01184 -7.49876 0
M  V30 4234 H 398.27 2.72744 -5.13909 0
M  V30 4235 H 397.15 2.76931 -7.33675 0
M  V30 4236 N 394.653 0.992116 1.22453 0
M  V30 4237 C 396.069 0.702713 1.43297 0
M  V30 4238 C 396.269 -0.726909 1.87932 0
M  V30 4239 O 395.325 -1.49792 2.0327 0
M  V30 4240 C 396.638 1.70762 2.47509 0
M  V30 4241 C 398.186 1.72298 2.61309 0
M  V30 4242 C 398.661 2.71649 3.68742 0
M  V30 4243 N 400.152 2.70239 3.76199 0
M  V30 4244 C 400.887 3.43778 4.58917 0
M  V30 4245 N 400.383 4.26914 5.45633 0
M  V30 4246 N 402.176 3.32487 4.5322 0
M  V30 4247 H 394.327 1.91543 0.917871 0
M  V30 4248 H 396.59 0.826031 0.465162 0
M  V30 4249 H 396.296 2.73059 2.21657 0
M  V30 4250 H 396.17 1.49985 3.46099 0
M  V30 4251 H 398.557 0.706989 2.86506 0
M  V30 4252 H 398.638 1.97143 1.62997 0
M  V30 4253 H 398.282 3.73397 3.44292 0
M  V30 4254 H 398.212 2.44074 4.66622 0
M  V30 4255 H 400.703 2.09912 3.14237 0
M  V30 4256 H 401.016 4.79855 6.05771 0
M  V30 4257 H 399.361 4.31002 5.45218 0
M  V30 4258 H 402.552 2.6698 3.84499 0
M  V30 4259 H 402.725 3.90058 5.17454 0
M  V30 4260 N 396.131 -1.37776 0.765217 0
M  V30 4261 C 397.361 -2.03828 0.337277 0
M  V30 4262 C 397.769 -1.57841 -1.04321 0
M  V30 4263 O 397.112 -0.752043 -1.67601 0
M  V30 4264 C 397.174 -3.58292 0.294407 0
M  V30 4265 C 396.838 -4.27384 1.61838 0
M  V30 4266 C 397.835 -4.51956 2.56967 0
M  V30 4267 C 395.52 -4.65345 1.89102 0
M  V30 4268 C 397.514 -5.13536 3.77571 0
M  V30 4269 C 395.201 -5.26647 3.09978 0
M  V30 4270 C 396.199 -5.50679 4.04032 0
M  V30 4271 O 395.887 -6.10702 5.2278 0
M  V30 4272 H 395.619 -0.661292 0.140248 0
M  V30 4273 H 398.173 -1.77222 1.03834 0
M  V30 4274 H 396.403 -3.83918 -0.462983 0
M  V30 4275 H 398.092 -4.05763 -0.105581 0
M  V30 4276 H 398.858 -4.23048 2.37183 0
M  V30 4277 H 394.737 -4.45978 1.16725 0
M  V30 4278 H 398.281 -5.3221 4.50997 0
M  V30 4279 H 394.178 -5.54979 3.29649 0
M  V30 4280 H 394.946 -6.29183 5.23517 0
M  V30 4281 N 397.609 -0.515225 -1.4894 0
M  V30 4282 C 398.559 0.275113 -2.26334 0
M  V30 4283 C 399.543 0.923007 -1.31793 0
M  V30 4284 O 400.735 0.828254 -1.56426 0
M  V30 4285 C 397.864 1.33041 -3.16473 0
M  V30 4286 C 396.95 0.688051 -4.18481 0
M  V30 4287 N 397.341 -0.217638 -5.05332 0
M  V30 4288 C 395.639 0.94699 -4.3583 0
M  V30 4289 C 396.34 -0.58676 -5.78733 0
M  V30 4290 N 395.316 0.0486966 -5.43578 0
M  V30 4291 H 399.118 -0.421876 -2.90856 0
M  V30 4292 H 396.632 -0.332249 -1.58965 0
M  V30 4293 H 398.629 1.9102 -3.70563 0
M  V30 4294 H 397.289 2.02894 -2.53504 0
M  V30 4295 H 398.3 -0.589343 -5.14536 0
M  V30 4296 H 394.977 1.63719 -3.8406 0
M  V30 4297 H 396.367 -1.32855 -6.58634 0
M  V30 4298 N 399.087 1.5561 -0.249682 0
M  V30 4299 C 400.503 1.59254 0.105103 0
M  V30 4300 C 400.703 1.26685 1.56694 0
M  V30 4301 O 399.759 1.0155 2.31179 0
M  V30 4302 C 401.072 2.99687 -0.246592 0
M  V30 4303 C 402.62 3.12416 -0.191118 0
M  V30 4304 C 403.095 4.55074 -0.516885 0
M  V30 4305 N 404.586 4.60835 -0.467489 0
M  V30 4306 C 405.321 5.69201 -0.69268 0
M  V30 4307 N 404.817 6.85817 -0.981146 0
M  V30 4308 N 406.61 5.58635 -0.623198 0
M  V30 4309 H 398.761 1.75049 -1.20298 0
M  V30 4310 H 401.024 0.815003 -0.484225 0
M  V30 4311 H 400.73 3.28267 -1.26228 0
M  V30 4312 H 400.604 3.74798 0.424962 0
M  V30 4313 H 402.991 2.83615 0.815247 0
M  V30 4314 H 403.072 2.39573 -0.896563 0
M  V30 4315 H 402.716 4.84596 -1.52082 0
M  V30 4316 H 402.646 5.26181 0.210068 0
M  V30 4317 H 405.137 3.7705 -0.253373 0
M  V30 4318 H 405.45 7.64341 -1.14032 0
M  V30 4319 H 403.795 6.87494 -1.01865 0
M  V30 4320 H 406.986 4.66406 -0.397863 0
M  V30 4321 H 407.159 6.43017 -0.802093 0
M  V30 4322 N 400.565 -0.0233959 1.57583 0
M  V30 4323 C 401.842 -0.748794 1.807 0
M  V30 4324 C 402.222 -1.9327 0.849106 0
M  V30 4325 O 401.57 -2.28247 -0.107468 0
M  V30 4326 C 401.78 -1.17651 3.28571 0
M  V30 4327 C 403.128 -1.59008 3.93702 0
M  V30 4328 O 404.152 -1.27094 3.32755 0
M  V30 4329 O 403.011 -2.18264 5.01022 0
M  V30 4330 H 400.105 -0.362578 0.743281 0
M  V30 4331 H 402.651 0.000261958 1.697 0
M  V30 4332 H 401.423 -0.331603 3.89892 0
M  V30 4333 H 401.046 -1.98541 3.44481 0
M  V30 4334 N 402.043 -1.548 -0.295768 0
M  V30 4335 C 402.973 -1.89115 -1.36959 0
M  V30 4336 C 403.954 -0.75059 -1.52644 0
M  V30 4337 O 405.139 -1.00678 -1.66065 0
M  V30 4338 C 402.269 -2.14307 -2.73295 0
M  V30 4339 C 401.223 -3.30151 -2.72368 0
M  V30 4340 C 400.549 -3.40772 -4.12042 0
M  V30 4341 C 401.849 -4.67126 -2.33646 0
M  V30 4342 H 403.543 -2.79053 -1.08488 0
M  V30 4343 H 401.089 -1.34266 -0.520443 0
M  V30 4344 H 403.042 -2.36898 -3.48507 0
M  V30 4345 H 401.766 -1.21145 -3.03301 0
M  V30 4346 H 400.425 -3.0749 -1.99613 0
M  V30 4347 H 400.073 -2.45117 -4.39234 0
M  V30 4348 H 399.773 -4.18645 -4.12322 0
M  V30 4349 H 401.297 -3.6563 -4.89027 0
M  V30 4350 H 402.711 -4.89414 -2.98575 0
M  V30 4351 H 401.108 -5.47751 -2.45129 0
M  V30 4352 H 402.178 -4.67489 -1.28772 0
M  V30 4353 N 403.521 0.559213 -1.47345 0
M  V30 4354 C 404.431 1.69388 -1.62311 0
M  V30 4355 C 405.447 1.6648 -0.505993 0
M  V30 4356 O 406.623 1.85964 -0.773262 0
M  V30 4357 C 403.688 3.05894 -1.63185 0
M  V30 4358 C 402.749 3.19885 -2.86307 0
M  V30 4359 C 401.982 4.49879 -2.87131 0
M  V30 4360 O 402.205 5.35217 -1.97229 0
M  V30 4361 O 401.139 4.67618 -3.78968 0
M  V30 4362 H 404.965 1.59706 -2.58317 0
M  V30 4363 H 402.55 0.728989 -1.30407 0
M  V30 4364 H 404.432 3.87133 -1.66451 0
M  V30 4365 H 403.107 3.15964 -0.70345 0
M  V30 4366 H 402.014 2.38052 -2.88587 0
M  V30 4367 H 403.347 3.14718 -3.78435 0
M  V30 4368 N 404.999 1.35443 0.805782 0
M  V30 4369 C 406.227 1.31878 1.59423 0
M  V30 4370 C 406.642 -0.103562 1.88516 0
M  V30 4371 O 405.999 -1.05575 1.48863 0
M  V30 4372 C 406.05 2.12426 2.92502 0
M  V30 4373 O 405.771 3.49115 2.6467 0
M  V30 4374 C 407.272 2.16455 3.86862 0
M  V30 4375 H 404.492 0.453002 0.495005 0
M  V30 4376 H 407.036 1.78309 1.00131 0
M  V30 4377 H 405.191 1.69593 3.48306 0
M  V30 4378 H 405.605 3.90957 3.49647 0
M  V30 4379 H 407.079 2.77204 4.77349 0
M  V30 4380 H 407.556 1.16352 4.23508 0
M  V30 4381 H 408.162 2.59453 3.36993 0
M  V30 4382 N 406.477 -1.02803 1.19454 0
M  V30 4383 C 407.424 -2.11099 0.933046 0
M  V30 4384 C 408.394 -1.65571 -0.132447 0
M  V30 4385 O 409.579 -1.90797 0.00987576 0
M  V30 4386 C 406.719 -3.41763 0.478747 0
M  V30 4387 C 405.832 -4.00833 1.6111 0
M  V30 4388 C 404.967 -5.19511 1.10825 0
M  V30 4389 C 404.006 -5.70639 2.21445 0
M  V30 4390 N 403.143 -6.80589 1.72461 0
M  V30 4391 H 407.983 -2.32804 1.86028 0
M  V30 4392 H 405.52 -1.14179 0.927441 0
M  V30 4393 H 407.478 -4.16736 0.196745 0
M  V30 4394 H 406.108 -3.20166 -0.411493 0
M  V30 4395 H 405.16 -3.23066 2.00829 0
M  V30 4396 H 406.472 -4.34794 2.4445 0
M  V30 4397 H 405.626 -6.01645 0.781533 0
M  V30 4398 H 404.365 -4.87086 0.244606 0
M  V30 4399 H 403.37 -4.87116 2.54947 0
M  V30 4400 H 404.595 -6.05102 3.08267 0
M  V30 4401 H 402.541 -6.50016 0.884056 0
M  V30 4402 H 402.458 -7.13681 2.49389 0
M  V30 4403 H 403.726 -7.66317 1.42755 0
M  V30 4404 N 407.956 -0.998596 -1.21925 0
M  V30 4405 C 408.903 -0.553621 -2.24062 0
M  V30 4406 C 409.873 0.416999 -1.6078 0
M  V30 4407 O 411.058 0.320482 -1.88089 0
M  V30 4408 C 408.198 0.119959 -3.44891 0
M  V30 4409 C 407.311 -0.893077 -4.22668 0
M  V30 4410 C 406.446 -0.192424 -5.30851 0
M  V30 4411 C 405.485 -1.19344 -6.00353 0
M  V30 4412 N 404.622 -0.520707 -7.00166 0
M  V30 4413 H 409.462 -1.4293 -2.61486 0
M  V30 4414 H 406.999 -0.715838 -1.28507 0
M  V30 4415 H 408.957 0.527459 -4.13852 0
M  V30 4416 H 407.587 0.959389 -3.08214 0
M  V30 4417 H 406.639 -1.41886 -3.52948 0
M  V30 4418 H 407.951 -1.65512 -4.70539 0
M  V30 4419 H 407.105 0.271515 -6.06092 0
M  V30 4420 H 405.844 0.602075 -4.83969 0
M  V30 4421 H 404.849 -1.66795 -5.23889 0
M  V30 4422 H 406.074 -1.98891 -6.49322 0
M  V30 4423 H 404.02 0.254252 -6.55507 0
M  V30 4424 H 403.937 -1.2211 -7.46073 0
M  V30 4425 H 405.205 -0.0797596 -7.79459 0
M  V30 4426 N 409.434 1.37368 -0.772513 0
M  V30 4427 C 410.381 2.30262 -0.157488 0
M  V30 4428 C 411.351 1.51137 0.688965 0
M  V30 4429 O 412.536 1.79704 0.641168 0
M  V30 4430 C 409.676 3.37611 0.715045 0
M  V30 4431 C 408.789 4.31746 -0.148098 0
M  V30 4432 C 407.924 5.26171 0.729213 0
M  V30 4433 C 406.963 6.11948 -0.136418 0
M  V30 4434 N 406.1 6.98613 0.698914 0
M  V30 4435 H 410.94 2.82277 -0.955179 0
M  V30 4436 H 408.477 1.38957 -0.482631 0
M  V30 4437 H 410.435 3.98479 1.23575 0
M  V30 4438 H 409.065 2.86959 1.47833 0
M  V30 4439 H 408.117 3.72178 -0.786613 0
M  V30 4440 H 409.429 4.92084 -0.81579 0
M  V30 4441 H 408.583 5.92247 1.31637 0
M  V30 4442 H 407.322 4.66246 1.43059 0
M  V30 4443 H 406.327 5.4485 -0.736102 0
M  V30 4444 H 407.552 6.73945 -0.835134 0
M  V30 4445 H 405.498 6.41215 1.38489 0
M  V30 4446 H 405.415 7.55948 0.0885358 0
M  V30 4447 H 406.683 7.69077 1.27044 0
M  V30 4448 N 410.912 0.523116 1.48665 0
M  V30 4449 C 412.158 -0.00540031 2.03399 0
M  V30 4450 C 412.513 -1.3264 1.39372 0
M  V30 4451 O 411.806 -1.84184 0.527916 0
M  V30 4452 C 412 -0.191671 3.56886 0
M  V30 4453 C 411.829 1.10972 4.35793 0
M  V30 4454 C 410.599 1.66769 4.76987 0
M  V30 4455 C 412.797 2.01861 4.73029 0
M  V30 4456 N 410.779 2.91268 5.40404 0
M  V30 4457 C 412.15 3.10937 5.36394 0
M  V30 4458 C 414.205 2.02271 4.54962 0
M  V30 4459 C 412.908 4.20478 5.83601 0
M  V30 4460 C 414.934 3.10802 5.03146 0
M  V30 4461 C 414.296 4.18597 5.6653 0
M  V30 4462 H 410.395 0.0393531 0.781009 0
M  V30 4463 H 412.979 0.702876 1.8157 0
M  V30 4464 H 411.15 -0.869025 3.78553 0
M  V30 4465 H 412.882 -0.719177 3.98259 0
M  V30 4466 H 409.637 1.20996 4.57883 0
M  V30 4467 H 410.061 3.54635 5.76683 0
M  V30 4468 H 414.703 1.2023 4.05345 0
M  V30 4469 H 412.421 5.03303 6.32228 0
M  V30 4470 H 416.007 3.12166 4.90962 0
M  V30 4471 H 414.887 5.01193 6.03138 0
M  V30 4472 N 412.39 -1.55475 0.257931 0
M  V30 4473 C 413.62 -2.03314 -0.367026 0
M  V30 4474 C 414.028 -1.13625 -1.51281 0
M  V30 4475 O 413.371 -0.145334 -1.83124 0
M  V30 4476 C 413.433 -3.47362 -0.926284 0
M  V30 4477 C 413.097 -4.56914 0.0886584 0
M  V30 4478 C 414.094 -5.12013 0.902123 0
M  V30 4479 C 411.779 -5.01827 0.217936 0
M  V30 4480 C 413.773 -6.10529 1.83122 0
M  V30 4481 C 411.46 -6.00172 1.15052 0
M  V30 4482 C 412.458 -6.54402 1.95568 0
M  V30 4483 O 412.146 -7.50827 2.87253 0
M  V30 4484 H 411.878 -0.669976 -0.0900443 0
M  V30 4485 H 414.432 -2.01804 0.382673 0
M  V30 4486 H 412.662 -3.46056 -1.72575 0
M  V30 4487 H 414.351 -3.78637 -1.46249 0
M  V30 4488 H 415.117 -4.78139 0.812891 0
M  V30 4489 H 410.996 -4.59272 -0.398721 0
M  V30 4490 H 414.54 -6.52783 2.46008 0
M  V30 4491 H 410.437 -6.33465 1.24064 0
M  V30 4492 H 411.205 -7.68483 2.81739 0
M  V30 4493 N 413.868 0.0150385 -1.57593 0
M  V30 4494 C 415.116 0.701613 -1.8953 0
M  V30 4495 C 415.437 1.75139 -0.857396 0
M  V30 4496 O 414.707 1.95607 0.107194 0
M  V30 4497 H 413.287 0.26213 -0.699498 0
M  V30 4498 H 415.949 -0.0223304 -1.94887 0
M  V30 4499 H 415.045 1.18236 -2.88837 0
M  V30 4500 N 415.346 1.54954 0.287554 0
M  V30 4501 C 416.256 1.8991 1.37736 0
M  V30 4502 C 417.272 0.794701 1.54792 0
M  V30 4503 O 418.448 1.09243 1.69198 0
M  V30 4504 C 415.513 2.15108 2.71899 0
M  V30 4505 C 414.574 3.38752 2.63715 0
M  V30 4506 C 413.807 3.62739 3.91479 0
M  V30 4507 O 414.03 2.89492 4.91478 0
M  V30 4508 O 412.964 4.56267 3.92561 0
M  V30 4509 H 416.79 2.82652 1.11092 0
M  V30 4510 H 414.375 1.41315 0.484807 0
M  V30 4511 H 416.257 2.32806 3.51254 0
M  V30 4512 H 414.932 1.25551 2.9836 0
M  V30 4513 H 413.839 3.26405 1.82786 0
M  V30 4514 H 415.172 4.28483 2.42205 0
M  V30 4515 N 416.824 -0.551391 1.4764 0
M  V30 4516 C 418.235 -1.13349 1.48354 0
M  V30 4517 C 418.586 -1.94709 0.241432 0
M  V30 4518 O 417.711 -2.06306 -0.653205 0
M  V30 4519 C 418.306 -2.0623 2.68802 0
M  V30 4520 C 416.865 -2.597 2.72457 0
M  V30 4521 C 416.012 -1.36201 2.41546 0
M  V30 4522 H 418.963 -0.337698 1.55065 0
M  V30 4523 H 418.984 -2.90196 2.46103 0
M  V30 4524 H 418.496 -1.46987 3.59188 0
M  V30 4525 H 416.597 -3.22724 1.86225 0
M  V30 4526 H 416.71 -3.00296 3.73308 0
M  V30 4527 H 415.074 -1.67068 1.9225 0
M  V30 4528 H 415.857 -0.787425 3.34147 0
M  V30 4529 N 418.302 -1.35869 -0.798587 0
M  V30 4530 C 419.548 -1.30788 -1.55775 0
M  V30 4531 C 419.903 0.114558 -1.92059 0
M  V30 4532 O 419.196 1.06691 -1.59147 0
M  V30 4533 C 419.39 -2.1556 -2.85077 0
M  V30 4534 C 419.219 -3.65904 -2.61428 0
M  V30 4535 C 417.989 -4.35112 -2.56915 0
M  V30 4536 C 420.187 -4.59375 -2.31255 0
M  V30 4537 N 418.169 -5.71155 -2.25068 0
M  V30 4538 C 419.54 -5.83598 -2.09316 0
M  V30 4539 C 421.595 -4.48035 -2.17185 0
M  V30 4540 C 420.298 -6.97755 -1.74731 0
M  V30 4541 C 422.324 -5.62049 -1.83998 0
M  V30 4542 C 421.686 -6.85305 -1.629 0
M  V30 4543 H 417.785 -0.533855 -0.571422 0
M  V30 4544 H 420.369 -1.7083 -0.934079 0
M  V30 4545 H 418.54 -1.77776 -3.45326 0
M  V30 4546 H 420.272 -2.01938 -3.50718 0
M  V30 4547 H 417.027 -3.87812 -2.71843 0
M  V30 4548 H 417.451 -6.42978 -2.11916 0
M  V30 4549 H 422.093 -3.53338 -2.3219 0
M  V30 4550 H 419.811 -7.92411 -1.58464 0
M  V30 4551 H 423.397 -5.55232 -1.73808 0
M  V30 4552 H 422.277 -7.72034 -1.37596 0
M  V30 4553 N 419.78 1.02168 -1.19998 0
M  V30 4554 C 421.028 1.75338 -1.00504 0
M  V30 4555 C 421.349 1.89387 0.464506 0
M  V30 4556 O 420.619 1.43268 1.33608 0
M  V30 4557 H 419.199 0.649564 -0.368885 0
M  V30 4558 H 421.861 1.23205 -1.51018 0
M  V30 4559 H 420.957 2.75892 -1.45912 0
M  V30 4560 N 421.258 1.00505 1.21394 0
M  V30 4561 C 422.506 0.686415 1.90086 0
M  V30 4562 C 422.827 -0.785264 1.7849 0
M  V30 4563 O 422.097 -1.56387 1.17983 0
M  V30 4564 H 420.677 0.2509 0.703604 0
M  V30 4565 H 423.339 1.27417 1.47482 0
M  V30 4566 H 422.435 0.959621 2.96981 0
M  V30 4567 N 422.737 -1.36956 0.779787 0
M  V30 4568 C 423.7 -2.2851 0.177662 0
M  V30 4569 C 424.7 -1.48393 -0.619377 0
M  V30 4570 O 425.89 -1.68505 -0.441785 0
M  V30 4571 C 423.022 -3.32428 -0.755279 0
M  V30 4572 H 424.215 -2.83269 0.984823 0
M  V30 4573 H 421.768 -1.46358 0.548544 0
M  V30 4574 H 422.503 -2.82808 -1.58714 0
M  V30 4575 H 422.288 -3.91659 -0.185817 0
M  V30 4576 H 423.778 -4.00824 -1.17174 0
M  V30 4577 N 424.215 -0.530993 -1.48385 0
M  V30 4578 C 425.492 0.0671788 -1.95485 0
M  V30 4579 C 425.872 1.51191 -1.47324 0
M  V30 4580 O 425.22 2.17507 -0.700202 0
M  V30 4581 C 425.43 -0.0511206 -3.48963 0
M  V30 4582 C 426.778 0.107632 -4.24464 0
M  V30 4583 O 427.802 0.0226248 -3.56193 0
M  V30 4584 O 426.661 0.285972 -5.45751 0
M  V30 4585 H 423.755 0.0787365 -0.823243 0
M  V30 4586 H 426.301 -0.595662 -1.58902 0
M  V30 4587 H 425.073 -1.05747 -3.7674 0
M  V30 4588 H 424.696 0.650525 -3.92242 0
M  V30 4589 N 425.693 1.55336 -0.266172 0
M  V30 4590 C 426.918 2.04258 0.359661 0
M  V30 4591 C 427.343 1.14359 1.49344 0
M  V30 4592 O 426.701 0.140369 1.80756 0
M  V30 4593 C 426.749 3.50997 0.826635 0
M  V30 4594 O 425.853 3.64204 1.93466 0
M  V30 4595 H 425.194 0.659668 0.075727 0
M  V30 4596 H 427.724 2.00694 -0.39786 0
M  V30 4597 H 427.734 3.9219 1.12477 0
M  V30 4598 H 426.409 4.159 -0.00293032 0
M  V30 4599 H 424.986 3.34913 1.63974 0
M  V30 4600 N 427.171 -0.0066808 1.57599 0
M  V30 4601 C 428.081 -1.01671 2.11424 0
M  V30 4602 C 429.097 -1.38143 1.05795 0
M  V30 4603 O 430.273 -1.47011 1.37658 0
M  V30 4604 C 427.338 -2.29192 2.60139 0
M  V30 4605 C 426.399 -1.99094 3.80342 0
M  V30 4606 C 425.632 -3.20535 4.26724 0
M  V30 4607 O 425.855 -4.3199 3.72479 0
M  V30 4608 O 424.789 -3.04924 5.18946 0
M  V30 4609 H 428.615 -0.589181 2.9793 0
M  V30 4610 H 426.2 -0.225091 1.47695 0
M  V30 4611 H 428.082 -3.0412 2.917 0
M  V30 4612 H 426.757 -2.71195 1.76733 0
M  V30 4613 H 425.664 -1.21663 3.53764 0
M  V30 4614 H 426.997 -1.61931 4.648 0
M  V30 4615 N 428.649 -1.55105 -0.279332 0
M  V30 4616 C 429.898 -1.74618 -1.00952 0
M  V30 4617 C 430.211 -0.551096 -1.87676 0
M  V30 4618 O 431.417 -0.628507 -2.64125 0
M  V30 4619 C 429.873 -3.09025 -1.84476 0
M  V30 4620 C 429.481 -4.36081 -1.0265 0
M  V30 4621 C 431.225 -3.37891 -2.56963 0
M  V30 4622 C 429.132 -5.6153 -1.85576 0
M  V30 4623 H 428.062 -0.650868 -0.38064 0
M  V30 4624 H 430.713 -1.81569 -0.265475 0
M  V30 4625 H 429.095 -2.96095 -2.62952 0
M  V30 4626 H 430.269 -4.59909 -0.286354 0
M  V30 4627 H 428.584 -4.14312 -0.416464 0
M  V30 4628 H 431.181 -4.28822 -3.19399 0
M  V30 4629 H 431.524 -2.57737 -3.26921 0
M  V30 4630 H 432.057 -3.5189 -1.85522 0
M  V30 4631 H 428.796 -6.44413 -1.2005 0
M  V30 4632 H 428.316 -5.41854 -2.57204 0
M  V30 4633 H 429.995 -5.99594 -2.43096 0
M  V30 4634 N 430.127 0.543554 -1.4793 0
M  V30 4635 C 431.375 1.29752 -1.54948 0
M  V30 4636 C 431.696 1.93764 -0.219242 0
M  V30 4637 O 430.966 1.80639 0.75805 0
M  V30 4638 H 429.546 0.481874 -0.570795 0
M  V30 4639 H 432.208 0.633636 -1.84312 0
M  V30 4640 H 431.304 2.08392 -2.32334 0
M  V30 4641 N 431.605 1.3629 0.791371 0
M  V30 4642 C 432.851 1.31613 1.5508 0
M  V30 4643 C 433.206 -0.104372 1.92117 0
M  V30 4644 O 432.499 -1.05845 1.5971 0
M  V30 4645 C 432.693 2.17068 2.8393 0
M  V30 4646 C 432.522 3.67285 2.59484 0
M  V30 4647 C 431.292 4.36469 2.54604 0
M  V30 4648 C 433.49 4.60595 2.28816 0
M  V30 4649 N 431.472 5.7234 2.22036 0
M  V30 4650 C 432.843 5.847 2.06218 0
M  V30 4651 C 434.898 4.4918 2.14806 0
M  V30 4652 C 433.601 6.98671 1.71028 0
M  V30 4653 C 435.627 5.63017 1.81014 0
M  V30 4654 C 434.989 6.86159 1.59263 0
M  V30 4655 H 431.088 0.536878 0.568582 0
M  V30 4656 H 433.672 1.71323 0.925007 0
M  V30 4657 H 431.843 1.79605 3.44378 0
M  V30 4658 H 433.575 2.03795 3.49642 0
M  V30 4659 H 430.33 3.89249 2.69782 0
M  V30 4660 H 430.754 6.44093 2.08503 0
M  V30 4661 H 435.396 3.54564 2.30313 0
M  V30 4662 H 433.114 7.9324 1.54259 0
M  V30 4663 H 436.7 5.56146 1.70861 0
M  V30 4664 H 435.58 7.72753 1.335 0
M  V30 4665 N 433.083 -1.0153 1.20538 0
M  V30 4666 C 434.03 -2.10098 0.955383 0
M  V30 4667 C 435 -1.65702 -0.114878 0
M  V30 4668 O 436.185 -1.90776 0.0301118 0
M  V30 4669 C 433.325 -3.41236 0.514969 0
M  V30 4670 C 432.438 -3.99102 1.65353 0
M  V30 4671 C 431.573 -5.18306 1.16329 0
M  V30 4672 C 430.612 -5.68258 2.27485 0
M  V30 4673 N 429.749 -6.78722 1.7967 0
M  V30 4674 H 434.589 -2.30818 1.88486 0
M  V30 4675 H 432.126 -1.13189 0.939499 0
M  V30 4676 H 434.084 -4.16504 0.240935 0
M  V30 4677 H 432.714 -3.20585 -0.377512 0
M  V30 4678 H 431.766 -3.20918 2.04245 0
M  V30 4679 H 433.078 -4.32177 2.49047 0
M  V30 4680 H 432.232 -6.00782 0.845302 0
M  V30 4681 H 430.971 -4.86799 0.296254 0
M  V30 4682 H 429.976 -4.84385 2.60099 0
M  V30 4683 H 431.201 -6.01798 3.14667 0
M  V30 4684 H 429.147 -6.49042 0.95295 0
M  V30 4685 H 429.064 -7.10996 2.56944 0
M  V30 4686 H 430.332 -7.64759 1.50875 0
M  V30 4687 N 434.561 -1.01147 -1.20859 0
M  V30 4688 C 435.807 -0.708598 -1.90658 0
M  V30 4689 C 436.162 0.753069 -1.7705 0
M  V30 4690 O 435.455 1.53952 -1.14059 0
M  V30 4691 C 435.649 -1.0727 -3.40922 0
M  V30 4692 C 435.478 -2.56821 -3.69152 0
M  V30 4693 C 434.248 -3.23524 -3.8815 0
M  V30 4694 C 436.446 -3.54997 -3.72131 0
M  V30 4695 N 434.428 -4.62359 -4.03853 0
M  V30 4696 C 435.799 -4.79371 -3.93196 0
M  V30 4697 C 437.854 -3.49042 -3.55069 0
M  V30 4698 C 436.557 -5.98512 -3.98969 0
M  V30 4699 C 438.583 -4.67579 -3.6211 0
M  V30 4700 C 437.945 -5.9076 -3.83643 0
M  V30 4701 H 434.044 -0.31088 -0.71755 0
M  V30 4702 H 436.628 -1.29526 -1.45366 0
M  V30 4703 H 434.799 -0.51443 -3.84978 0
M  V30 4704 H 436.531 -0.723891 -3.98173 0
M  V30 4705 H 433.286 -2.73958 -3.86321 0
M  V30 4706 H 433.71 -5.34427 -4.15592 0
M  V30 4707 H 438.352 -2.54808 -3.37391 0
M  V30 4708 H 436.07 -6.93132 -4.15444 0
M  V30 4709 H 439.656 -4.64581 -3.50222 0
M  V30 4710 H 438.536 -6.8095 -3.88944 0
M  V30 4711 N 436.039 1.36541 -0.78704 0
M  V30 4712 C 437.269 2.03266 -0.369662 0
M  V30 4713 C 437.677 1.59481 1.01796 0
M  V30 4714 O 437.02 0.778612 1.66383 0
M  V30 4715 C 437.082 3.57779 -0.351371 0
M  V30 4716 C 436.746 4.24756 -1.68617 0
M  V30 4717 C 437.743 4.47811 -2.64124 0
M  V30 4718 C 435.428 4.62277 -1.96481 0
M  V30 4719 C 437.422 5.07464 -3.85693 0
M  V30 4720 C 435.109 5.21649 -3.18317 0
M  V30 4721 C 436.107 5.44182 -4.12741 0
M  V30 4722 O 435.795 6.02307 -5.32429 0
M  V30 4723 H 435.527 0.658977 -0.150751 0
M  V30 4724 H 438.081 1.75548 -1.0664 0
M  V30 4725 H 436.311 3.84606 0.401847 0
M  V30 4726 H 438 4.05879 0.0410147 0
M  V30 4727 H 438.766 4.19221 -2.43883 0
M  V30 4728 H 434.645 4.44065 -1.23805 0
M  V30 4729 H 438.189 5.24968 -4.59407 0
M  V30 4730 H 434.086 5.49664 -3.38437 0
M  V30 4731 H 434.854 6.20775 -5.33461 0
M  V30 4732 N 437.518 0.538854 1.48102 0
M  V30 4733 C 438.45 -0.256278 2.27763 0
M  V30 4734 C 439.463 -0.89633 1.35904 0
M  V30 4735 O 440.652 -0.773275 1.60881 0
M  V30 4736 C 437.752 -1.37896 3.09577 0
M  V30 4737 C 436.925 -0.839159 4.29275 0
M  V30 4738 C 435.984 -1.84405 4.9283 0
M  V30 4739 O 435.01 -1.39746 5.51779 0
M  V30 4740 N 436.212 -3.17666 4.85869 0
M  V30 4741 H 438.977 0.426968 2.96643 0
M  V30 4742 H 436.538 0.373747 1.57527 0
M  V30 4743 H 438.53 -2.04955 3.48963 0
M  V30 4744 H 437.1 -1.96572 2.4306 0
M  V30 4745 H 436.32 0.00769287 3.94199 0
M  V30 4746 H 437.608 -0.457548 5.06739 0
M  V30 4747 H 437.006 -3.56609 4.39143 0
M  V30 4748 H 435.563 -3.80334 5.29329 0
M  V30 4749 N 438.996 -1.55193 0.274407 0
M  V30 4750 C 440.273 -1.91584 -0.394331 0
M  V30 4751 C 440.653 -1.19858 -1.73774 0
M  V30 4752 O 440.001 -0.3252 -2.26174 0
M  V30 4753 C 440.211 -3.4487 -0.535311 0
M  V30 4754 C 441.559 -4.16636 -0.818534 0
M  V30 4755 O 442.583 -3.5076 -0.620146 0
M  V30 4756 O 441.442 -5.33209 -1.19792 0
M  V30 4757 H 438.536 -0.798349 -0.215794 0
M  V30 4758 H 441.082 -1.66646 0.320507 0
M  V30 4759 H 439.854 -3.89145 0.410141 0
M  V30 4760 H 439.477 -3.75759 -1.29964 0
M  V30 4761 N 440.474 -0.00167713 -1.576 0
M  V30 4762 C 441.702 0.693759 -1.94922 0
M  V30 4763 C 442.117 1.67215 -0.876626 0
M  V30 4764 O 441.474 1.81929 0.144279 0
M  V30 4765 C 441.525 1.42416 -3.32265 0
M  V30 4766 O 441.246 0.485014 -4.35407 0
M  V30 4767 C 442.747 2.21395 -3.84056 0
M  V30 4768 H 439.967 0.193118 -0.642609 0
M  V30 4769 H 442.511 -0.0532952 -2.04431 0
M  V30 4770 H 440.666 2.12284 -3.24059 0
M  V30 4771 H 441.08 1.00053 -5.14868 0
M  V30 4772 H 442.554 2.67996 -4.82578 0
M  V30 4773 H 443.031 3.04142 -3.16851 0
M  V30 4774 H 443.637 1.56542 -3.95443 0
M  V30 4775 N 441.952 1.55251 0.271103 0
M  V30 4776 C 442.882 1.9127 1.33933 0
M  V30 4777 C 443.863 0.77478 1.5143 0
M  V30 4778 O 445.048 1.03307 1.64442 0
M  V30 4779 C 442.178 2.18627 2.69851 0
M  V30 4780 C 441.132 3.34442 2.67081 0
M  V30 4781 C 440.458 3.47284 4.06569 0
M  V30 4782 C 441.758 4.70784 2.26185 0
M  V30 4783 H 443.452 2.80744 1.04035 0
M  V30 4784 H 440.998 1.35077 0.499017 0
M  V30 4785 H 442.951 2.42413 3.44694 0
M  V30 4786 H 441.675 1.25955 3.01335 0
M  V30 4787 H 440.334 3.10627 1.94695 0
M  V30 4788 H 439.982 2.52074 4.35279 0
M  V30 4789 H 439.682 4.25152 4.0561 0
M  V30 4790 H 441.206 3.73363 4.83148 0
M  V30 4791 H 442.62 4.94102 2.90751 0
M  V30 4792 H 441.017 5.51582 2.36384 0
M  V30 4793 H 442.087 4.69478 1.21319 0
M  V30 4794 N 443.43 -0.535701 1.48216 0
M  V30 4795 C 444.678 -1.28928 1.55634 0
M  V30 4796 C 444.999 -1.93645 0.229514 0
M  V30 4797 O 444.269 -1.81038 -0.74846 0
M  V30 4798 H 442.849 -0.47884 0.573342 0
M  V30 4799 H 445.511 -0.623853 1.84646 0
M  V30 4800 H 444.607 -2.07157 2.33436 0
M  V30 4801 N 444.908 -1.36708 -0.784132 0
M  V30 4802 C 445.855 -1.31466 -1.89698 0
M  V30 4803 C 446.825 -0.18239 -1.65096 0
M  V30 4804 O 448.01 -0.369762 -1.87183 0
M  V30 4805 C 445.15 -1.1151 -3.26588 0
M  V30 4806 C 444.263 -2.33859 -3.63227 0
M  V30 4807 C 443.398 -2.06873 -4.89262 0
M  V30 4808 C 442.437 -3.25154 -5.18595 0
M  V30 4809 N 441.574 -2.978 -6.35814 0
M  V30 4810 H 446.414 -2.26619 -1.93515 0
M  V30 4811 H 443.951 -1.12625 -0.946256 0
M  V30 4812 H 445.909 -0.979653 -4.05535 0
M  V30 4813 H 444.539 -0.200103 -3.22179 0
M  V30 4814 H 443.591 -2.58188 -2.79362 0
M  V30 4815 H 444.903 -3.22109 -3.8085 0
M  V30 4816 H 444.057 -1.90289 -5.76086 0
M  V30 4817 H 442.796 -1.15942 -4.73718 0
M  V30 4818 H 441.801 -3.42292 -4.30251 0
M  V30 4819 H 443.026 -4.1692 -5.36055 0
M  V30 4820 H 440.972 -2.09485 -6.21653 0
M  V30 4821 H 440.889 -3.7959 -6.53794 0
M  V30 4822 H 442.157 -2.84805 -7.25607 0
M  V30 4823 N 446.386 1.0089 -1.21074 0
M  V30 4824 C 447.632 1.74866 -1.02712 0
M  V30 4825 C 447.965 1.89178 0.438787 0
M  V30 4826 O 447.24 1.42325 1.32567 0
M  V30 4827 C 447.523 3.16347 -1.72036 0
M  V30 4828 C 447.376 3.09782 -3.26121 0
M  V30 4829 C 448.695 4.15187 -1.45973 0
M  V30 4830 H 445.814 0.634736 -0.374539 0
M  V30 4831 H 448.456 1.17646 -1.49196 0
M  V30 4832 H 446.606 3.65201 -1.32517 0
M  V30 4833 H 448.278 2.68673 -3.74983 0
M  V30 4834 H 446.521 2.46982 -3.56626 0
M  V30 4835 H 447.192 4.09829 -3.6979 0
M  V30 4836 H 449.668 3.75022 -1.80272 0
M  V30 4837 H 448.544 5.12331 -1.96999 0
M  V30 4838 H 448.805 4.40386 -0.388924 0
M  V30 4839 N 447.864 1.01787 1.20321 0
M  V30 4840 C 449.092 0.727194 1.937 0
M  V30 4841 C 449.507 -0.712305 1.74848 0
M  V30 4842 O 448.864 -1.48327 1.06327 0
M  V30 4843 C 448.915 1.05497 3.45764 0
M  V30 4844 O 448.636 2.43794 3.64 0
M  V30 4845 C 450.137 0.785534 4.36285 0
M  V30 4846 H 447.357 0.266939 0.615617 0
M  V30 4847 H 449.901 1.35939 1.52777 0
M  V30 4848 H 448.056 0.468158 3.84561 0
M  V30 4849 H 448.47 2.55656 4.57974 0
M  V30 4850 H 449.944 1.06495 5.4163 0
M  V30 4851 H 450.421 -0.280273 4.38305 0
M  V30 4852 H 451.027 1.35456 4.03152 0
M  V30 4853 N 449.342 -1.36122 0.79427 0
M  V30 4854 C 450.252 -2.33769 0.197296 0
M  V30 4855 C 451.268 -1.61276 -0.653153 0
M  V30 4856 O 452.444 -1.9323 -0.5678 0
M  V30 4857 C 449.509 -3.40474 -0.654098 0
M  V30 4858 C 448.57 -4.28759 0.215411 0
M  V30 4859 C 447.803 -5.30368 -0.595443 0
M  V30 4860 O 448.026 -5.40211 -1.83107 0
M  V30 4861 O 446.96 -6.019 0.00721351 0
M  V30 4862 H 450.786 -2.86597 1.00478 0
M  V30 4863 H 448.371 -1.38676 0.555818 0
M  V30 4864 H 450.253 -4.05703 -1.13944 0
M  V30 4865 H 448.928 -2.89937 -1.43938 0
M  V30 4866 H 447.835 -3.66554 0.747615 0
M  V30 4867 H 449.168 -4.82661 0.964332 0
M  V30 4868 N 450.82 -0.546701 -1.47814 0
M  V30 4869 C 452.069 -0.0166497 -2.01693 0
M  V30 4870 C 452.382 1.33721 -1.42752 0
M  V30 4871 O 453.588 1.95658 -1.8823 0
M  V30 4872 C 452.044 0.0206769 -3.59894 0
M  V30 4873 C 451.652 -1.3293 -4.27824 0
M  V30 4874 C 453.396 0.498674 -4.21561 0
M  V30 4875 C 451.303 -1.25165 -5.78003 0
M  V30 4876 H 450.233 -0.0024541 -0.753996 0
M  V30 4877 H 452.884 -0.692984 -1.69912 0
M  V30 4878 H 451.266 0.76244 -3.88591 0
M  V30 4879 H 452.44 -2.08795 -4.10781 0
M  V30 4880 H 450.755 -1.74438 -3.78101 0
M  V30 4881 H 453.352 0.575 -5.31599 0
M  V30 4882 H 453.695 1.5083 -3.88016 0
M  V30 4883 H 454.228 -0.18791 -3.97356 0
M  V30 4884 H 450.967 -2.23695 -6.1615 0
M  V30 4885 H 450.487 -0.53464 -5.97412 0
M  V30 4886 H 452.166 -0.949299 -6.39998 0
M  V30 4887 N 452.299 1.55045 -0.282633 0
M  V30 4888 C 453.527 2.04168 0.33512 0
M  V30 4889 C 453.942 1.16071 1.48906 0
M  V30 4890 O 453.299 0.182391 1.81586 0
M  V30 4891 C 453.35 3.52332 0.808957 0
M  V30 4892 O 453.071 4.37078 -0.299038 0
M  V30 4893 C 454.572 4.17375 1.49375 0
M  V30 4894 H 451.792 0.666744 0.0754543 0
M  V30 4895 H 454.336 2.00205 -0.416918 0
M  V30 4896 H 452.491 3.56715 1.51106 0
M  V30 4897 H 452.905 5.24458 0.0665514 0
M  V30 4898 H 454.379 5.22627 1.77664 0
M  V30 4899 H 454.856 3.65999 2.42778 0
M  V30 4900 H 455.462 4.17016 0.835305 0
M  V30 4901 N 453.777 0.010035 1.57597 0
M  V30 4902 C 454.724 -0.978122 2.09049 0
M  V30 4903 C 455.694 -1.33509 0.988159 0
M  V30 4904 O 456.879 -1.43172 1.26121 0
M  V30 4905 C 454.019 -2.26158 2.60666 0
M  V30 4906 C 453.132 -1.96275 3.84838 0
M  V30 4907 C 452.267 -3.18776 4.24918 0
M  V30 4908 C 451.306 -2.84625 5.41899 0
M  V30 4909 N 450.443 -3.99693 5.77226 0
M  V30 4910 H 455.283 -0.532431 2.93205 0
M  V30 4911 H 452.82 -0.251234 1.44939 0
M  V30 4912 H 454.778 -3.01202 2.88675 0
M  V30 4913 H 453.408 -2.68378 1.79369 0
M  V30 4914 H 452.46 -1.11555 3.63675 0
M  V30 4915 H 453.772 -1.67111 4.69974 0
M  V30 4916 H 452.926 -4.02157 4.54262 0
M  V30 4917 H 451.665 -3.51087 3.38511 0
M  V30 4918 H 450.67 -1.99653 5.12268 0
M  V30 4919 H 451.895 -2.53551 6.29991 0
M  V30 4920 H 449.841 -4.31882 4.93776 0
M  V30 4921 H 449.758 -3.74087 6.56959 0
M  V30 4922 H 451.026 -4.83834 6.11167 0
M  V30 4923 N 455.255 -1.55392 -0.262866 0
M  V30 4924 C 456.202 -1.88966 -1.32516 0
M  V30 4925 C 457.172 -0.742187 -1.48596 0
M  V30 4926 O 458.357 -0.99439 -1.62839 0
M  V30 4927 C 455.497 -2.17592 -2.67858 0
M  V30 4928 C 454.61 -3.45061 -2.59917 0
M  V30 4929 C 453.745 -3.63336 -3.87505 0
M  V30 4930 C 452.784 -4.84462 -3.74116 0
M  V30 4931 N 451.921 -4.99342 -4.93561 0
M  V30 4932 H 456.761 -2.79566 -1.03184 0
M  V30 4933 H 454.298 -1.38404 -0.498285 0
M  V30 4934 H 456.256 -2.3219 -3.46617 0
M  V30 4935 H 454.886 -1.30215 -2.95371 0
M  V30 4936 H 453.938 -3.38881 -1.72812 0
M  V30 4937 H 455.25 -4.3396 -2.45926 0
M  V30 4938 H 454.404 -3.77807 -4.74707 0
M  V30 4939 H 453.143 -2.72641 -4.04374 0
M  V30 4940 H 452.148 -4.69985 -2.85297 0
M  V30 4941 H 453.373 -5.76603 -3.58757 0
M  V30 4942 H 451.319 -4.1158 -5.10821 0
M  V30 4943 H 451.236 -5.82303 -4.82141 0
M  V30 4944 H 452.504 -5.18208 -5.82306 0
M  V30 4945 N 456.733 0.527833 -1.48498 0
M  V30 4946 C 457.979 1.28545 -1.56857 0
M  V30 4947 C 458.312 1.92678 -0.242651 0
M  V30 4948 O 457.587 1.79394 0.751545 0
M  V30 4949 C 457.87 2.37314 -2.70839 0
M  V30 4950 C 457.723 1.77858 -4.13142 0
M  V30 4951 C 459.042 3.39068 -2.80573 0
M  V30 4952 H 456.161 0.466006 -0.570971 0
M  V30 4953 H 458.803 0.587784 -1.8068 0
M  V30 4954 H 456.953 2.96821 -2.50658 0
M  V30 4955 H 458.625 1.22385 -4.44769 0
M  V30 4956 H 456.868 1.08383 -4.20042 0
M  V30 4957 H 457.539 2.56624 -4.88721 0
M  V30 4958 H 460.015 2.89518 -2.98862 0
M  V30 4959 H 458.891 4.12566 -3.6205 0
M  V30 4960 H 459.152 3.9975 -1.88818 0
M  V30 4961 N 458.211 1.37122 0.776871 0
M  V30 4962 C 459.174 1.32301 1.8716 0
M  V30 4963 C 460.174 0.228099 1.59174 0
M  V30 4964 O 461.364 0.483642 1.67352 0
M  V30 4965 C 458.496 1.054 3.24197 0
M  V30 4966 H 459.689 2.29673 1.92848 0
M  V30 4967 H 457.242 1.22077 0.97606 0
M  V30 4968 H 457.977 0.0853872 3.24188 0
M  V30 4969 H 457.762 1.84648 3.45901 0
M  V30 4970 H 459.252 1.04664 4.04271 0
M  V30 4971 N 459.689 -1.00246 1.21608 0
M  V30 4972 C 460.636 -2.09073 0.977613 0
M  V30 4973 C 461.606 -1.65815 -0.097297 0
M  V30 4974 O 462.791 -1.90734 0.0503445 0
M  V30 4975 C 459.931 -3.40671 0.551133 0
M  V30 4976 C 459.044 -3.97326 1.69576 0
M  V30 4977 C 458.179 -5.17043 1.2182 0
M  V30 4978 C 457.218 -5.65813 2.335 0
M  V30 4979 N 456.355 -6.76778 1.86859 0
M  V30 4980 H 461.195 -2.28806 1.90924 0
M  V30 4981 H 458.732 -1.12186 0.951452 0
M  V30 4982 H 460.69 -4.16225 0.285097 0
M  V30 4983 H 459.32 -3.20967 -0.343489 0
M  V30 4984 H 458.372 -3.18734 2.07637 0
M  V30 4985 H 459.684 -4.29511 2.53617 0
M  V30 4986 H 458.838 -5.99852 0.908975 0
M  V30 4987 H 457.577 -4.86458 0.347869 0
M  V30 4988 H 456.582 -4.81599 2.65222 0
M  V30 4989 H 457.807 -5.98427 3.21033 0
M  V30 4990 H 455.753 -6.47994 1.02174 0
M  V30 4991 H 455.67 -7.08231 2.64471 0
M  V30 4992 H 456.938 -7.63116 1.58978 0
M  V30 4993 N 461.167 -1.02423 -1.1978 0
M  V30 4994 C 462.414 -0.717988 -1.89344 0
M  V30 4995 C 462.742 0.753036 -1.79331 0
M  V30 4996 O 461.997 1.56355 -1.17692 0
M  V30 4997 C 462.296 -1.1088 -3.39765 0
M  V30 4998 C 461.962 -2.57731 -3.6998 0
M  V30 4999 C 460.624 -2.97854 -3.77937 0
M  V30 5000 C 462.976 -3.52763 -3.83677 0
M  V30 5001 C 460.304 -4.31931 -3.97054 0
M  V30 5002 C 462.656 -4.86538 -4.04306 0
M  V30 5003 C 461.32 -5.26356 -4.10494 0
M  V30 5004 H 460.59 -0.26273 -0.692859 0
M  V30 5005 H 463.237 -1.28623 -1.41875 0
M  V30 5006 H 461.542 -0.459094 -3.89101 0
M  V30 5007 H 463.239 -0.849432 -3.919 0
M  V30 5008 H 459.829 -2.25646 -3.64393 0
M  V30 5009 H 464.013 -3.2292 -3.76877 0
M  V30 5010 H 459.269 -4.62324 -4.00083 0
M  V30 5011 H 463.443 -5.60093 -4.13846 0
M  V30 5012 H 461.07 -6.3026 -4.2506 0
M  V30 5013 N 462.645 1.35699 -0.801477 0
M  V30 5014 C 463.894 1.98165 -0.375979 0
M  V30 5015 C 464.207 1.64306 1.06127 0
M  V30 5016 O 465.413 2.20097 1.58964 0
M  V30 5017 C 463.869 3.54497 -0.621305 0
M  V30 5018 C 463.477 3.9727 -2.07076 0
M  V30 5019 C 465.221 4.23697 -0.26091 0
M  V30 5020 C 463.128 5.46427 -2.26211 0
M  V30 5021 H 462.058 0.741478 -0.136844 0
M  V30 5022 H 464.709 1.54834 -0.984814 0
M  V30 5023 H 463.091 3.95958 0.0574112 0
M  V30 5024 H 464.265 3.66974 -2.78687 0
M  V30 5025 H 462.58 3.40943 -2.39054 0
M  V30 5026 H 465.177 5.33334 -0.381994 0
M  V30 5027 H 465.52 4.0869 0.792344 0
M  V30 5028 H 466.053 3.87639 -0.893339 0
M  V30 5029 H 462.792 5.66396 -3.29963 0
M  V30 5030 H 462.312 5.78309 -1.59119 0
M  V30 5031 H 463.991 6.12819 -2.07513 0
M  V30 5032 N 464.123 0.554532 1.47522 0
M  V30 5033 C 465.07 -0.19466 2.29978 0
M  V30 5034 C 466.04 -0.910882 1.38896 0
M  V30 5035 O 467.225 -0.907102 1.67858 0
M  V30 5036 C 464.365 -1.22035 3.22802 0
M  V30 5037 C 463.478 -0.510474 4.28973 0
M  V30 5038 C 462.613 -1.52123 5.08952 0
M  V30 5039 C 461.652 -0.796173 6.069 0
M  V30 5040 N 460.789 -1.75363 6.79847 0
M  V30 5041 H 465.629 0.51461 2.93523 0
M  V30 5042 H 463.166 0.265607 1.44682 0
M  V30 5043 H 465.124 -1.8276 3.7504 0
M  V30 5044 H 463.754 -1.89769 2.61127 0
M  V30 5045 H 462.806 0.211234 3.79813 0
M  V30 5046 H 464.118 0.0576503 4.98767 0
M  V30 5047 H 463.272 -2.20207 5.65326 0
M  V30 5048 H 462.011 -2.12327 4.39054 0
M  V30 5049 H 461.016 -0.101388 5.49707 0
M  V30 5050 H 462.241 -0.199911 6.78806 0
M  V30 5051 H 460.187 -2.3443 6.12682 0
M  V30 5052 H 460.104 -1.23759 7.45801 0
M  V30 5053 H 461.372 -2.4257 7.40797 0
M  V30 5054 N 465.601 -1.54893 0.290851 0
M  V30 5055 C 466.511 -2.26812 -0.59945 0
M  V30 5056 C 467.527 -1.29963 -1.15696 0
M  V30 5057 O 468.703 -1.62928 -1.18391 0
M  V30 5058 C 465.768 -2.98716 -1.75982 0
M  V30 5059 C 464.829 -4.1108 -1.2374 0
M  V30 5060 C 464.062 -4.79546 -2.34246 0
M  V30 5061 O 464.285 -4.47309 -3.53936 0
M  V30 5062 O 463.219 -5.67165 -2.01512 0
M  V30 5063 H 467.045 -3.03696 -0.0163561 0
M  V30 5064 H 464.63 -1.49289 0.0576755 0
M  V30 5065 H 466.512 -3.43851 -2.43607 0
M  V30 5066 H 465.187 -2.24737 -2.3297 0
M  V30 5067 H 464.094 -3.70367 -0.527163 0
M  V30 5068 H 465.427 -4.87007 -0.71307 0
M  V30 5069 N 467.08 -0.0183926 -1.57589 0
M  V30 5070 C 468.028 0.985111 -2.10709 0
M  V30 5071 C 469.022 1.34397 -1.0312 0
M  V30 5072 O 470.228 1.32746 -1.21567 0
M  V30 5073 H 466.603 0.335418 -0.673052 0
M  V30 5074 H 468.574 0.511689 -2.9398 0
M  V30 5075 C 467.323 2.26202 -2.64061 0
M  V30 5076 H 466.646 1.9946 -3.4649 0
M  V30 5077 H 468.086 2.94652 -3.04887 0
M  V30 5078 C 466.545 2.98444 -1.5631 0
M  V30 5079 O 467.075 3.90142 -0.956674 0
M  V30 5080 N 465.281 2.6059 -1.28612 0
M  V30 5081 H 464.828 1.86101 -1.78112 0
M  V30 5082 H 464.786 3.09238 -0.567406 0
M  V30 5083 N 468.558 1.5553 0.254621 0
M  V30 5084 C 469.969 1.67518 0.824286 0
M  V30 5085 C 470.32 0.614429 1.86331 0
M  V30 5086 O 469.445 -0.240736 2.15057 0
M  V30 5087 C 470.04 3.03692 1.50189 0
M  V30 5088 C 468.599 3.17646 2.01935 0
M  V30 5089 C 467.746 2.63373 0.867746 0
M  V30 5090 H 470.697 1.58671 0.0305843 0
M  V30 5091 H 470.718 2.97706 2.36962 0
M  V30 5092 H 470.23 3.80874 0.745431 0
M  V30 5093 H 468.331 2.45273 2.80485 0
M  V30 5094 H 468.444 4.24455 2.22204 0
M  V30 5095 H 466.808 2.20999 1.26616 0
M  V30 5096 H 467.591 3.43074 0.124498 0
M  V30 5097 N 470.036 -0.519951 1.48776 0
M  V30 5098 C 471.261 -1.30447 1.6124 0
M  V30 5099 C 471.686 -1.86055 0.276591 0
M  V30 5100 O 471.044 -1.64915 -0.753183 0
M  V30 5101 C 471.092 -2.42406 2.66967 0
M  V30 5102 O 470.196 -3.45728 2.24824 0
M  V30 5103 H 469.537 -0.385924 0.540332 0
M  V30 5104 H 472.067 -0.624572 1.94834 0
M  V30 5105 H 472.077 -2.88447 2.88552 0
M  V30 5106 H 470.752 -2.01294 3.63941 0
M  V30 5107 H 469.329 -3.05737 2.13494 0
M  V30 5108 N 471.514 -1.37532 -0.769588 0
M  V30 5109 C 472.76 -1.33057 -1.53048 0
M  V30 5110 C 473.093 0.0841865 -1.94017 0
M  V30 5111 O 472.368 1.04198 -1.64235 0
M  V30 5112 C 472.651 -2.27166 -2.79406 0
M  V30 5113 C 472.504 -3.77429 -2.44677 0
M  V30 5114 C 473.823 -2.19683 -3.81349 0
M  V30 5115 H 470.942 -0.484655 -0.555228 0
M  V30 5116 H 473.584 -1.68251 -0.882702 0
M  V30 5117 H 471.734 -1.97283 -3.34682 0
M  V30 5118 H 473.406 -4.17918 -1.953 0
M  V30 5119 H 471.649 -3.95892 -1.77346 0
M  V30 5120 H 472.32 -4.38716 -3.35011 0
M  V30 5121 H 474.796 -2.46029 -3.35573 0
M  V30 5122 H 473.672 -2.87668 -4.67481 0
M  V30 5123 H 473.933 -1.19045 -4.25771 0
M  V30 5124 N 472.992 0.995999 -1.22138 0
M  V30 5125 C 474.408 1.25917 -0.980667 0
M  V30 5126 C 474.608 1.98819 0.327604 0
M  V30 5127 O 473.664 2.29587 1.05101 0
M  V30 5128 C 474.977 2.07399 -2.17729 0
M  V30 5129 C 476.525 2.20594 -2.22052 0
M  V30 5130 C 477 3.05462 -3.41258 0
M  V30 5131 N 478.491 3.13049 -3.41401 0
M  V30 5132 C 479.226 3.78997 -4.30289 0
M  V30 5133 N 478.722 4.46899 -5.2939 0
M  V30 5134 N 480.515 3.75728 -4.18073 0
M  V30 5135 H 472.666 0.507158 -2.06256 0
M  V30 5136 H 474.929 0.28658 -0.903646 0
M  V30 5137 H 474.635 1.61191 -3.12586 0
M  V30 5138 H 474.509 3.08154 -2.17534 0
M  V30 5139 H 476.896 2.66017 -1.27745 0
M  V30 5140 H 476.977 1.1928 -2.26287 0
M  V30 5141 H 476.621 2.60739 -4.35864 0
M  V30 5142 H 476.551 4.06911 -3.34262 0
M  V30 5143 H 479.042 2.64721 -2.69688 0
M  V30 5144 H 479.355 4.94952 -5.935 0
M  V30 5145 H 477.7 4.45657 -5.33306 0
M  V30 5146 H 480.891 3.2184 -3.39907 0
M  V30 5147 H 481.064 4.26845 -4.87553 0
M  V30 5148 N 474.47 1.03057 1.19235 0
M  V30 5149 C 475.4 0.633497 2.24742 0
M  V30 5150 C 476.381 -0.358335 1.66283 0
M  V30 5151 O 477.566 -0.240676 1.92703 0
M  V30 5152 C 474.696 -0.0147648 3.47297 0
M  V30 5153 C 473.65 0.899527 4.18441 0
M  V30 5154 C 472.976 0.116281 5.34574 0
M  V30 5155 C 474.276 2.21404 4.73051 0
M  V30 5156 H 475.97 1.5155 2.58211 0
M  V30 5157 H 473.516 0.73014 1.24117 0
M  V30 5158 H 475.469 -0.304202 4.20301 0
M  V30 5159 H 474.193 -0.931577 3.13032 0
M  V30 5160 H 472.852 1.17319 3.47321 0
M  V30 5161 H 472.5 -0.802619 4.96555 0
M  V30 5162 H 472.2 0.725293 5.83107 0
M  V30 5163 H 473.724 -0.166376 6.10373 0
M  V30 5164 H 475.138 1.98601 5.37802 0
M  V30 5165 H 473.535 2.77512 5.32078 0
M  V30 5166 H 474.605 2.86752 3.91026 0
M  V30 5167 N 475.948 -1.35272 0.808662 0
M  V30 5168 C 477.173 -2.03477 0.401475 0
M  V30 5169 C 477.598 -1.60537 -0.980279 0
M  V30 5170 O 476.956 -0.78304 -1.63518 0
M  V30 5171 C 477.004 -3.57181 0.495354 0
M  V30 5172 O 476.108 -4.09474 -0.490397 0
M  V30 5173 H 475.449 -0.642561 0.167366 0
M  V30 5174 H 477.979 -1.72824 1.09512 0
M  V30 5175 H 477.989 -4.06356 0.365912 0
M  V30 5176 H 476.664 -3.87784 1.5032 0
M  V30 5177 H 475.241 -3.71516 -0.321023 0
M  V30 5178 N 477.426 -0.562348 -1.47226 0
M  V30 5179 C 478.703 0.0256985 -1.95583 0
M  V30 5180 C 479.083 1.48032 -1.50498 0
M  V30 5181 O 478.431 2.15973 -0.746181 0
M  V30 5182 C 478.641 -0.125129 -3.48776 0
M  V30 5183 C 479.989 0.0175728 -4.24596 0
M  V30 5184 O 481.013 -0.0529341 -3.56161 0
M  V30 5185 O 479.872 0.170145 -5.46235 0
M  V30 5186 H 476.966 0.0612565 -0.824728 0
M  V30 5187 H 479.512 -0.629233 -1.57603 0
M  V30 5188 H 478.284 -1.13715 -3.74412 0
M  V30 5189 H 477.907 0.567178 -3.93534 0
M  V30 5190 N 478.904 1.54736 -0.299062 0
M  V30 5191 C 479.834 2.26409 0.571085 0
M  V30 5192 C 480.815 1.2629 1.13951 0
M  V30 5193 O 482 1.55059 1.16921 0
M  V30 5194 C 479.13 3.00338 1.74396 0
M  V30 5195 C 478.084 4.07588 1.30599 0
M  V30 5196 C 477.41 4.69222 2.56387 0
M  V30 5197 C 478.71 5.20455 0.438645 0
M  V30 5198 H 480.404 2.99388 -0.0266991 0
M  V30 5199 H 477.95 1.43993 -0.0142812 0
M  V30 5200 H 479.903 3.49198 2.35878 0
M  V30 5201 H 478.627 2.24934 2.36796 0
M  V30 5202 H 477.286 3.59575 0.71424 0
M  V30 5203 H 476.934 3.9046 3.17097 0
M  V30 5204 H 476.634 5.41653 2.27784 0
M  V30 5205 H 478.158 5.20844 3.18675 0
M  V30 5206 H 479.572 5.65221 0.959085 0
M  V30 5207 H 477.969 5.99594 0.246466 0
M  V30 5208 H 479.039 4.8192 -0.536738 0
M  V30 5209 N 480.382 0.0267497 1.57577 0
M  V30 5210 C 481.63 -0.651116 1.91324 0
M  V30 5211 C 481.951 -1.72804 0.90353 0
M  V30 5212 O 481.221 -1.95822 -0.0552946 0
M  V30 5213 H 479.801 -0.243491 0.706202 0
M  V30 5214 H 482.463 0.0739935 1.94759 0
M  V30 5215 H 481.559 -1.10536 2.9187 0
M  V30 5216 N 481.861 -1.55662 -0.24637 0
M  V30 5217 C 483.086 -1.81914 -0.996093 0
M  V30 5218 C 483.511 -0.603875 -1.78143 0
M  V30 5219 O 482.869 0.447091 -1.75701 0
M  V30 5220 C 482.917 -3.05908 -1.90925 0
M  V30 5221 O 482.021 -2.82861 -3.00105 0
M  V30 5222 H 481.362 -0.600481 -0.283406 0
M  V30 5223 H 483.892 -2.02848 -0.267199 0
M  V30 5224 H 483.902 -3.35356 -2.3238 0
M  V30 5225 H 482.577 -3.93999 -1.33183 0
M  V30 5226 H 481.154 -2.64583 -2.62775 0
M  V30 5227 N 483.339 0.512053 -1.4905 0
M  V30 5228 C 484.585 1.26874 -1.58212 0
M  V30 5229 C 484.918 1.9241 -0.263073 0
M  V30 5230 O 484.193 1.80181 0.732476 0
M  V30 5231 C 484.476 2.34428 -2.73341 0
M  V30 5232 C 484.329 1.73466 -4.15006 0
M  V30 5233 C 485.648 3.36073 -2.84154 0
M  V30 5234 H 482.767 0.459924 -0.575881 0
M  V30 5235 H 485.409 0.568587 -1.81293 0
M  V30 5236 H 483.559 2.94146 -2.53792 0
M  V30 5237 H 485.231 1.17661 -4.46042 0
M  V30 5238 H 483.474 1.03921 -4.21168 0
M  V30 5239 H 484.145 2.51426 -4.91415 0
M  V30 5240 H 486.621 2.86332 -3.01916 0
M  V30 5241 H 485.497 4.08703 -3.66406 0
M  V30 5242 H 485.758 3.97725 -1.93048 0
M  V30 5243 N 484.817 1.37938 0.762283 0
M  V30 5244 C 485.747 1.37176 1.88958 0
M  V30 5245 C 486.728 0.238945 1.68413 0
M  V30 5246 O 487.913 0.440726 1.89133 0
M  V30 5247 C 485.043 1.18742 3.2637 0
M  V30 5248 C 483.997 2.29136 3.61498 0
M  V30 5249 C 483.323 1.95816 4.97554 0
M  V30 5250 C 484.623 3.71363 3.6727 0
M  V30 5251 H 486.317 2.31509 1.89853 0
M  V30 5252 H 483.863 1.11438 0.912005 0
M  V30 5253 H 485.816 1.16837 4.04879 0
M  V30 5254 H 484.54 0.208683 3.25933 0
M  V30 5255 H 483.199 2.30213 2.85303 0
M  V30 5256 H 482.847 0.964475 4.93667 0
M  V30 5257 H 482.547 2.69745 5.22026 0
M  V30 5258 H 484.071 1.95513 5.78452 0
M  V30 5259 H 485.485 3.72364 4.35911 0
M  V30 5260 H 483.882 4.44425 4.03245 0
M  V30 5261 H 484.952 4.04305 2.67704 0
M  V30 5262 N 486.295 -0.989507 1.22664 0
M  V30 5263 C 487.543 -1.72612 1.05117 0
M  V30 5264 C 487.864 -1.90552 -0.414131 0
M  V30 5265 O 487.134 -1.4676 -1.29762 0
M  V30 5266 H 485.714 -0.639555 0.385977 0
M  V30 5267 H 488.376 -1.19158 1.54232 0
M  V30 5268 H 487.472 -2.71926 1.53175 0
M  V30 5269 N 487.773 -1.03688 -1.18687 0
M  V30 5270 C 488.72 -0.624624 -2.22187 0
M  V30 5271 C 489.69 0.365636 -1.62026 0
M  V30 5272 O 490.875 0.260481 -1.89014 0
M  V30 5273 C 488.015 0.0101738 -3.45099 0
M  V30 5274 C 487.128 -1.02709 -4.19613 0
M  V30 5275 C 486.263 -0.361213 -5.2997 0
M  V30 5276 C 485.302 -1.38384 -5.96252 0
M  V30 5277 N 484.439 -0.743196 -6.98155 0
M  V30 5278 H 489.279 -1.51176 -2.56807 0
M  V30 5279 H 486.816 -0.75636 -1.26165 0
M  V30 5280 H 488.774 0.395528 -4.15321 0
M  V30 5281 H 487.404 0.860848 -3.1111 0
M  V30 5282 H 486.456 -1.53043 -3.48256 0
M  V30 5283 H 487.768 -1.80398 -4.65036 0
M  V30 5284 H 486.922 0.0785537 -6.06649 0
M  V30 5285 H 485.661 0.447799 -4.8564 0
M  V30 5286 H 484.666 -1.83378 -5.18317 0
M  V30 5287 H 485.891 -2.19448 -6.42666 0
M  V30 5288 H 483.837 0.0455789 -6.55984 0
M  V30 5289 H 483.754 -1.45784 -7.41811 0
M  V30 5290 H 485.022 -0.327698 -7.78811 0
M  V30 5291 N 489.251 1.34841 -0.815825 0
M  V30 5292 C 490.528 1.92908 -0.323416 0
M  V30 5293 C 490.908 1.74479 1.18828 0
M  V30 5294 O 490.256 1.11928 1.99209 0
M  V30 5295 C 490.466 3.40957 -0.744952 0
M  V30 5296 C 491.814 4.18107 -0.739716 0
M  V30 5297 O 492.838 3.49511 -0.68708 0
M  V30 5298 O 491.697 5.40517 -0.806456 0
M  V30 5299 H 488.791 0.822436 -0.0867646 0
M  V30 5300 H 491.337 1.4386 -0.90014 0
M  V30 5301 H 490.109 3.4814 -1.78646 0
M  V30 5302 H 489.732 3.97341 -0.143535 0
M  V30 5303 N 490.729 0.570148 1.46925 0
M  V30 5304 C 491.659 -0.158274 2.32963 0
M  V30 5305 C 492.64 -0.896093 1.44583 0
M  V30 5306 O 493.825 -0.874022 1.7342 0
M  V30 5307 C 490.955 -1.18055 3.26619 0
M  V30 5308 C 489.909 -0.558379 4.24342 0
M  V30 5309 C 489.235 -1.68623 5.07415 0
M  V30 5310 C 490.535 0.496295 5.19937 0
M  V30 5311 H 492.229 0.560046 2.94115 0
M  V30 5312 H 489.775 0.270775 1.41431 0
M  V30 5313 H 491.728 -1.69841 3.85658 0
M  V30 5314 H 490.452 -1.92899 2.63548 0
M  V30 5315 H 489.111 -0.0617157 3.66548 0
M  V30 5316 H 488.759 -2.42402 4.40738 0
M  V30 5317 H 488.459 -1.27564 5.73586 0
M  V30 5318 H 489.983 -2.20709 5.69315 0
M  V30 5319 H 491.397 0.0640052 5.73264 0
M  V30 5320 H 489.794 0.82649 5.94381 0
M  V30 5321 H 490.864 1.38735 4.6463 0
M  V30 5322 N 492.207 -1.54576 0.307264 0
M  V30 5323 C 493.432 -2.05139 -0.305379 0
M  V30 5324 C 493.857 -1.18278 -1.46259 0
M  V30 5325 O 493.215 -0.188243 -1.8032 0
M  V30 5326 C 493.263 -3.53066 -0.733283 0
M  V30 5327 O 492.367 -3.69206 -1.83741 0
M  V30 5328 H 491.708 -0.661444 -0.0582105 0
M  V30 5329 H 494.238 -1.99569 0.450931 0
M  V30 5330 H 494.248 -3.95034 -1.02039 0
M  V30 5331 H 492.923 -4.15746 0.113198 0
M  V30 5332 H 491.5 -3.39143 -1.55037 0
M  V30 5333 N 493.685 -0.035106 -1.57561 0
M  V30 5334 C 494.595 0.960295 -2.14046 0
M  V30 5335 C 495.611 1.3529 -1.0942 0
M  V30 5336 O 496.787 1.43309 -1.41508 0
M  V30 5337 C 493.852 2.22214 -2.66124 0
M  V30 5338 C 492.913 1.8894 -3.85487 0
M  V30 5339 C 492.146 3.09109 -4.35072 0
M  V30 5340 O 492.369 4.21963 -3.83802 0
M  V30 5341 O 491.303 2.91058 -5.26848 0
M  V30 5342 H 495.129 0.509983 -2.99387 0
M  V30 5343 H 492.714 0.185853 -1.48239 0
M  V30 5344 H 494.596 2.96279 -2.99661 0
M  V30 5345 H 493.271 2.66414 -1.83862 0
M  V30 5346 H 492.178 1.12241 -3.56865 0
M  V30 5347 H 493.511 1.49551 -4.6893 0
M  V30 5348 N 495.163 1.55791 0.238111 0
M  V30 5349 C 496.11 1.9105 1.29493 0
M  V30 5350 C 497.08 0.765733 1.47397 0
M  V30 5351 O 498.265 1.02017 1.61236 0
M  V30 5352 C 495.405 2.21826 2.64362 0
M  V30 5353 C 494.518 3.49153 2.54394 0
M  V30 5354 C 493.653 3.69455 3.81676 0
M  V30 5355 C 492.692 4.90353 3.66361 0
M  V30 5356 N 491.829 5.07131 4.85554 0
M  V30 5357 H 496.669 2.81172 0.987233 0
M  V30 5358 H 494.206 1.39179 0.476203 0
M  V30 5359 H 496.164 2.37675 3.4288 0
M  V30 5360 H 494.794 1.34897 2.93262 0
M  V30 5361 H 493.846 3.41587 1.67399 0
M  V30 5362 H 495.158 4.37818 2.38991 0
M  V30 5363 H 494.312 3.85311 4.68636 0
M  V30 5364 H 493.051 2.7904 3.99985 0
M  V30 5365 H 492.056 4.74464 2.77784 0
M  V30 5366 H 493.281 5.82237 3.49538 0
M  V30 5367 H 491.227 4.19654 5.04209 0
M  V30 5368 H 491.144 5.89899 4.72816 0
M  V30 5369 H 492.412 5.27407 5.73988 0
M  V30 5370 N 496.642 -0.504142 1.49319 0
M  V30 5371 C 497.574 -1.62265 1.61872 0
M  V30 5372 C 498.587 -1.54881 0.501573 0
M  V30 5373 O 499.776 -1.6087 0.773497 0
M  V30 5374 C 496.876 -3.01042 1.55651 0
M  V30 5375 C 496.049 -3.33642 2.82845 0
M  V30 5376 C 495.108 -4.51816 2.69719 0
M  V30 5377 O 494.134 -4.53755 3.4365 0
M  V30 5378 N 495.336 -5.51543 1.81055 0
M  V30 5379 H 498.101 -1.51924 2.58339 0
M  V30 5380 H 495.662 -0.691954 1.46368 0
M  V30 5381 H 497.654 -3.78013 1.44528 0
M  V30 5382 H 496.224 -3.05323 0.670546 0
M  V30 5383 H 495.444 -2.45598 3.08343 0
M  V30 5384 H 496.732 -3.5222 3.67177 0
M  V30 5385 H 496.13 -5.52774 1.20241 0
M  V30 5386 H 494.687 -6.27629 1.75856 0
M  V30 5387 N 498.12 -1.38341 -0.754957 0
M  V30 5388 C 499.367 -1.34473 -1.51404 0
M  V30 5389 C 499.695 0.0656458 -1.94389 0
M  V30 5390 O 498.95 1.04244 -1.65625 0
M  V30 5391 C 499.249 -2.2452 -2.78075 0
M  V30 5392 C 498.915 -3.72512 -2.54059 0
M  V30 5393 C 497.577 -4.1284 -2.47218 0
M  V30 5394 C 499.929 -4.66197 -2.33044 0
M  V30 5395 C 497.257 -5.44945 -2.17376 0
M  V30 5396 C 499.609 -5.98558 -2.04723 0
M  V30 5397 C 498.273 -6.37972 -1.96337 0
M  V30 5398 H 497.543 -0.492072 -0.554027 0
M  V30 5399 H 500.19 -1.70687 -0.868223 0
M  V30 5400 H 498.495 -1.81357 -3.473 0
M  V30 5401 H 500.192 -2.18832 -3.36026 0
M  V30 5402 H 496.782 -3.40538 -2.60253 0
M  V30 5403 H 500.966 -4.35888 -2.37309 0
M  V30 5404 H 496.222 -5.74426 -2.09391 0
M  V30 5405 H 500.396 -6.70693 -1.87465 0
M  V30 5406 H 498.023 -7.40258 -1.72978 0
M  V30 5407 N 499.598 0.982988 -1.23187 0
M  V30 5408 C 500.844 1.72648 -1.06398 0
M  V30 5409 C 501.177 1.90066 0.398561 0
M  V30 5410 O 500.452 1.45105 1.29518 0
M  V30 5411 C 500.735 3.12627 -1.78707 0
M  V30 5412 C 500.588 3.02795 -3.32618 0
M  V30 5413 C 501.907 4.11997 -1.54747 0
M  V30 5414 H 499.026 0.626649 -0.387918 0
M  V30 5415 H 501.668 1.14455 -1.51658 0
M  V30 5416 H 499.818 3.62308 -1.40234 0
M  V30 5417 H 501.49 2.60659 -3.80598 0
M  V30 5418 H 499.733 2.39362 -3.61785 0
M  V30 5419 H 500.404 4.01893 -3.78399 0
M  V30 5420 H 502.88 3.71114 -1.88186 0
M  V30 5421 H 501.756 5.08037 -2.07821 0
M  V30 5422 H 502.017 4.39462 -0.482249 0
M  V30 5423 N 501.076 1.04316 1.18135 0
M  V30 5424 C 502.006 0.657299 2.24058 0
M  V30 5425 C 502.987 -0.340678 1.66654 0
M  V30 5426 O 504.172 -0.220223 1.92947 0
M  V30 5427 C 501.302 0.0220715 3.47293 0
M  V30 5428 C 500.256 0.943857 4.17463 0
M  V30 5429 C 499.582 0.172973 5.3442 0
M  V30 5430 C 500.882 2.26409 4.70677 0
M  V30 5431 H 502.576 1.5428 2.56589 0
M  V30 5432 H 500.122 0.743263 1.23335 0
M  V30 5433 H 502.075 -0.259607 4.206 0
M  V30 5434 H 500.799 -0.898323 3.14003 0
M  V30 5435 H 499.458 1.20996 3.46057 0
M  V30 5436 H 499.106 -0.749907 4.97379 0
M  V30 5437 H 498.806 0.787098 5.82304 0
M  V30 5438 H 500.33 -0.101628 6.10515 0
M  V30 5439 H 501.744 2.04294 5.35665 0
M  V30 5440 H 500.141 2.8314 5.29105 0
M  V30 5441 H 501.211 2.90883 3.87962 0
M  V30 5442 N 502.554 -1.34406 0.822964 0
M  V30 5443 C 503.464 -2.33298 0.246838 0
M  V30 5444 C 504.48 -1.62625 -0.618797 0
M  V30 5445 O 505.656 -1.94391 -0.526685 0
M  V30 5446 C 502.721 -3.41785 -0.581731 0
M  V30 5447 C 501.782 -4.28206 0.306309 0
M  V30 5448 C 501.015 -5.31512 -0.48281 0
M  V30 5449 O 501.238 -5.43973 -1.71607 0
M  V30 5450 O 500.172 -6.01749 0.134884 0
M  V30 5451 H 503.998 -2.84401 1.06534 0
M  V30 5452 H 501.583 -1.37466 0.585108 0
M  V30 5453 H 503.465 -4.08028 -1.05313 0
M  V30 5454 H 502.14 -2.92925 -1.37756 0
M  V30 5455 H 501.047 -3.64885 0.825199 0
M  V30 5456 H 502.38 -4.80507 1.06649 0
M  V30 5457 N 504.032 -0.577932 -1.46621 0
M  V30 5458 C 505.278 -0.0617793 -2.02706 0
M  V30 5459 C 505.611 1.29294 -1.44903 0
M  V30 5460 O 504.886 1.8461 -0.61232 0
M  V30 5461 C 505.169 0.00911824 -3.60099 0
M  V30 5462 C 505.022 -1.37416 -4.28295 0
M  V30 5463 C 506.341 0.712159 -4.343 0
M  V30 5464 H 503.46 -0.0239246 -0.736612 0
M  V30 5465 H 506.102 -0.744211 -1.74818 0
M  V30 5466 H 504.252 0.590292 -3.83989 0
M  V30 5467 H 505.924 -2.00013 -4.15683 0
M  V30 5468 H 504.167 -1.94319 -3.87843 0
M  V30 5469 H 504.838 -1.27707 -5.37024 0
M  V30 5470 H 507.314 0.218486 -4.15526 0
M  V30 5471 H 506.19 0.730782 -5.44014 0
M  V30 5472 H 506.451 1.77251 -4.05012 0
M  V30 5473 N 505.51 1.54411 -0.315457 0
M  V30 5474 C 506.42 2.27737 0.56329 0
M  V30 5475 C 507.436 1.31787 1.13614 0
M  V30 5476 O 508.612 1.64791 1.15784 0
M  V30 5477 C 505.677 3.01478 1.71207 0
M  V30 5478 C 504.738 4.12997 1.17185 0
M  V30 5479 C 503.971 4.83212 2.26588 0
M  V30 5480 O 504.194 4.52884 3.46775 0
M  V30 5481 O 503.128 5.70299 1.92463 0
M  V30 5482 H 506.954 3.03683 -0.0319614 0
M  V30 5483 H 504.539 1.49178 -0.0814188 0
M  V30 5484 H 506.421 3.47683 2.38106 0
M  V30 5485 H 505.096 2.28414 2.29366 0
M  V30 5486 H 504.003 3.71159 0.468174 0
M  V30 5487 H 505.336 4.8808 0.635501 0
M  V30 5488 N 506.988 0.0434614 1.5754 0
M  V30 5489 C 507.935 -0.93356 2.11077 0
M  V30 5490 C 508.905 -1.31383 1.01626 0
M  V30 5491 O 510.09 -1.40465 1.29129 0
M  V30 5492 C 507.23 -2.20578 2.65404 0
M  V30 5493 C 506.343 -1.88068 3.88914 0
M  V30 5494 C 505.478 -3.09691 4.31584 0
M  V30 5495 C 504.517 -2.73067 5.47815 0
M  V30 5496 N 503.654 -3.87359 5.85574 0
M  V30 5497 H 508.494 -0.470118 2.94268 0
M  V30 5498 H 506.031 -0.220434 1.45439 0
M  V30 5499 H 507.989 -2.95011 2.94999 0
M  V30 5500 H 506.619 -2.64513 1.85021 0
M  V30 5501 H 505.671 -1.03816 3.6596 0
M  V30 5502 H 506.983 -1.57104 4.73413 0
M  V30 5503 H 506.137 -3.92431 4.62691 0
M  V30 5504 H 504.876 -3.43827 3.45882 0
M  V30 5505 H 503.881 -1.88742 5.16388 0
M  V30 5506 H 505.106 -2.40131 6.35227 0
M  V30 5507 H 503.052 -4.21311 5.02825 0
M  V30 5508 H 502.969 -3.60068 6.64746 0
M  V30 5509 H 504.237 -4.70761 6.21292 0
M  V30 5510 N 508.466 -1.55915 -0.229846 0
M  V30 5511 C 509.715 -1.77742 -0.953455 0
M  V30 5512 C 510.028 -0.610524 -1.85828 0
M  V30 5513 O 511.234 -0.712219 -2.61992 0
M  V30 5514 C 509.69 -3.14738 -1.74551 0
M  V30 5515 C 509.298 -4.39126 -0.887242 0
M  V30 5516 C 511.042 -3.45895 -2.46084 0
M  V30 5517 C 508.949 -5.67149 -1.67617 0
M  V30 5518 H 507.879 -0.662648 -0.359741 0
M  V30 5519 H 510.53 -1.82322 -0.207576 0
M  V30 5520 H 508.912 -3.04311 -2.53399 0
M  V30 5521 H 510.086 -4.60588 -0.139892 0
M  V30 5522 H 508.401 -4.15427 -0.284443 0
M  V30 5523 H 510.998 -4.38767 -3.05594 0
M  V30 5524 H 511.341 -2.68007 -3.18556 0
M  V30 5525 H 511.874 -3.57614 -1.74233 0
M  V30 5526 H 508.613 -6.47906 -0.994881 0
M  V30 5527 H 508.133 -5.49763 -2.39836 0
M  V30 5528 H 509.812 -6.07025 -2.23898 0
M  V30 5529 N 509.944 0.496216 -1.49584 0
M  V30 5530 C 510.874 1.60576 -1.69521 0
M  V30 5531 C 511.855 1.61169 -0.543933 0
M  V30 5532 O 513.04 1.77834 -0.78031 0
M  V30 5533 C 510.17 2.99038 -1.76616 0
M  V30 5534 C 509.124 3.13312 -2.91581 0
M  V30 5535 C 508.45 4.53172 -2.83794 0
M  V30 5536 C 509.75 2.92886 -4.32452 0
M  V30 5537 H 511.444 1.44146 -2.62416 0
M  V30 5538 H 508.99 0.692024 -1.26282 0
M  V30 5539 H 510.943 3.76564 -1.8915 0
M  V30 5540 H 509.667 3.16568 -0.80324 0
M  V30 5541 H 508.326 2.38213 -2.78658 0
M  V30 5542 H 507.974 4.67585 -1.854 0
M  V30 5543 H 507.674 4.63662 -3.60958 0
M  V30 5544 H 509.198 5.32752 -2.98342 0
M  V30 5545 H 510.612 3.60178 -4.46032 0
M  V30 5546 H 509.009 3.14844 -5.10875 0
M  V30 5547 H 510.079 1.88966 -4.46565 0
M  V30 5548 N 511.423 1.38739 0.74761 0
M  V30 5549 C 512.7 1.25791 1.49786 0
M  V30 5550 C 513.08 -0.138075 2.10648 0
M  V30 5551 O 512.428 -1.14815 1.9756 0
M  V30 5552 C 512.638 2.37265 2.55942 0
M  V30 5553 C 513.986 2.75978 3.22679 0
M  V30 5554 O 515.01 2.36621 2.6625 0
M  V30 5555 O 513.869 3.43867 4.24756 0
M  V30 5556 H 510.963 0.492251 0.664543 0
M  V30 5557 H 513.509 1.50582 0.782511 0
M  V30 5558 H 512.281 3.30644 2.0926 0
M  V30 5559 H 511.904 2.14071 3.35051 0
M  V30 5560 N 512.901 -0.976442 1.23707 0
M  V30 5561 C 514.312 -1.53284 1.06587 0
M  V30 5562 C 514.663 -1.92765 -0.365526 0
M  V30 5563 O 513.788 -1.7645 -1.25277 0
M  V30 5564 C 514.383 -2.78548 1.92864 0
M  V30 5565 C 512.942 -3.30574 1.79994 0
M  V30 5566 C 512.089 -2.03538 1.88328 0
M  V30 5567 H 515.04 -0.795692 1.37311 0
M  V30 5568 H 515.061 -3.5155 1.45577 0
M  V30 5569 H 514.573 -2.49782 2.97037 0
M  V30 5570 H 512.674 -3.64211 0.786202 0
M  V30 5571 H 512.787 -4.00065 2.636 0
M  V30 5572 H 511.151 -2.17853 1.31954 0
M  V30 5573 H 511.934 -1.77149 2.94063 0
M  V30 5574 N 514.379 -1.04941 -1.1758 0
M  V30 5575 C 515.289 -0.658826 -2.25159 0
M  V30 5576 C 516.305 0.318941 -1.71052 0
M  V30 5577 O 517.481 0.171669 -2.00667 0
M  V30 5578 C 514.546 -0.0369522 -3.4668 0
M  V30 5579 C 513.607 -1.06484 -4.15884 0
M  V30 5580 C 512.84 -0.472551 -5.31604 0
M  V30 5581 O 513.063 0.718736 -5.65854 0
M  V30 5582 O 511.997 -1.20557 -5.89703 0
M  V30 5583 H 515.823 -1.55533 -2.60851 0
M  V30 5584 H 513.408 -0.820819 -1.24832 0
M  V30 5585 H 515.29 0.308784 -4.20267 0
M  V30 5586 H 513.965 0.833238 -3.12792 0
M  V30 5587 H 512.872 -1.46253 -3.44327 0
M  V30 5588 H 514.205 -1.9061 -4.53794 0
M  V30 5589 N 515.857 1.33968 -0.830081 0
M  V30 5590 C 517.273 1.51003 -0.516742 0
M  V30 5591 C 517.473 1.77286 0.957694 0
M  V30 5592 O 516.529 1.82797 1.74188 0
M  V30 5593 C 517.842 2.67036 -1.38247 0
M  V30 5594 C 519.39 2.80919 -1.38034 0
M  V30 5595 C 519.865 4.00004 -2.23071 0
M  V30 5596 N 521.356 4.07224 -2.20733 0
M  V30 5597 C 522.091 4.98541 -2.83275 0
M  V30 5598 N 521.587 5.95033 -3.54835 0
M  V30 5599 N 523.38 4.91469 -2.72791 0
M  V30 5600 H 515.531 1.15168 -1.78466 0
M  V30 5601 H 517.794 0.565443 -0.760906 0
M  V30 5602 H 517.5 2.54266 -2.42985 0
M  V30 5603 H 517.374 3.62226 -1.05225 0
M  V30 5604 H 519.761 2.93127 -0.340713 0
M  V30 5605 H 519.842 1.86517 -1.75057 0
M  V30 5606 H 519.486 3.88557 -3.27087 0
M  V30 5607 H 519.416 4.93634 -1.83394 0
M  V30 5608 H 521.907 3.38162 -1.68687 0
M  V30 5609 H 522.22 6.61357 -3.99784 0
M  V30 5610 H 520.565 5.95135 -3.58942 0
M  V30 5611 H 523.756 4.15048 -2.16456 0
M  V30 5612 H 523.929 5.62439 -3.21818 0
M  V30 5613 N 517.335 0.585699 1.46312 0
M  V30 5614 C 518.282 -0.145835 2.30339 0
M  V30 5615 C 519.252 -0.881215 1.40797 0
M  V30 5616 O 520.437 -0.871293 1.69744 0
M  V30 5617 C 517.577 -1.15161 3.25318 0
M  V30 5618 C 516.69 -0.419367 4.2996 0
M  V30 5619 C 515.825 -1.41293 5.12064 0
M  V30 5620 C 514.864 -0.667261 6.08452 0
M  V30 5621 N 514.001 -1.60903 6.83414 0
M  V30 5622 H 518.841 0.576755 2.92365 0
M  V30 5623 H 516.378 0.296237 1.44086 0
M  V30 5624 H 518.336 -1.74763 3.78832 0
M  V30 5625 H 516.966 -1.84188 2.65094 0
M  V30 5626 H 516.018 0.291751 3.7928 0
M  V30 5627 H 517.33 0.163433 4.98532 0
M  V30 5628 H 516.484 -2.08167 5.6987 0
M  V30 5629 H 515.223 -2.02966 4.43459 0
M  V30 5630 H 514.228 0.0152356 5.49798 0
M  V30 5631 H 515.453 -0.0558817 6.79077 0
M  V30 5632 H 513.399 -2.21381 6.17516 0
M  V30 5633 H 513.316 -1.07911 7.48259 0
M  V30 5634 H 514.584 -2.26802 7.45775 0
M  V30 5635 N 518.813 -1.54241 0.323641 0
M  V30 5636 C 520.038 -2.05452 -0.283605 0
M  V30 5637 C 520.463 -1.19823 -1.44997 0
M  V30 5638 O 519.821 -0.207358 -1.8011 0
M  V30 5639 C 519.869 -3.53823 -0.695795 0
M  V30 5640 O 518.973 -3.71134 -1.79815 0
M  V30 5641 H 518.314 -0.662024 -0.0511917 0
M  V30 5642 H 520.844 -1.99079 0.472073 0
M  V30 5643 H 520.854 -3.96094 -0.978434 0
M  V30 5644 H 519.529 -4.15602 0.157287 0
M  V30 5645 H 518.106 -3.40768 -1.51431 0
M  V30 5646 N 520.291 -0.0518155 -1.57515 0
M  V30 5647 C 521.539 0.620595 -1.92336 0
M  V30 5648 C 521.86 1.71345 -0.930907 0
M  V30 5649 O 521.13 1.95885 0.0241341 0
M  V30 5650 H 519.71 0.232226 -0.709986 0
M  V30 5651 H 522.372 -0.104969 -1.94617 0
M  V30 5652 H 521.468 1.05879 -2.93592 0
M  V30 5653 N 521.769 1.56035 0.221574 0
M  V30 5654 C 522.679 1.95581 1.29558 0
M  V30 5655 C 523.695 0.859639 1.51282 0
M  V30 5656 O 524.871 1.16321 1.64413 0
M  V30 5657 C 521.936 2.26447 2.62531 0
M  V30 5658 C 520.997 3.49632 2.4911 0
M  V30 5659 C 520.23 3.79017 3.75742 0
M  V30 5660 O 520.453 3.10077 4.78757 0
M  V30 5661 O 519.387 4.72507 3.72855 0
M  V30 5662 H 523.213 2.8711 0.990035 0
M  V30 5663 H 520.798 1.43244 0.424434 0
M  V30 5664 H 522.68 2.47494 3.41064 0
M  V30 5665 H 521.355 1.38092 2.92766 0
M  V30 5666 H 520.262 3.33864 1.68777 0
M  V30 5667 H 521.595 4.3837 2.23814 0
M  V30 5668 N 523.247 -0.488276 1.49845 0
M  V30 5669 C 524.179 -1.60539 1.63584 0
M  V30 5670 C 525.192 -1.5434 0.517972 0
M  V30 5671 O 526.381 -1.60041 0.790516 0
M  V30 5672 C 523.481 -2.99374 1.58835 0
M  V30 5673 C 522.654 -3.30624 2.86368 0
M  V30 5674 C 521.713 -4.4893 2.74496 0
M  V30 5675 O 520.739 -4.50085 3.48443 0
M  V30 5676 N 521.941 -5.49591 1.86894 0
M  V30 5677 H 524.706 -1.49176 2.59936 0
M  V30 5678 H 522.267 -0.67639 1.47094 0
M  V30 5679 H 524.259 -3.76459 1.48529 0
M  V30 5680 H 522.829 -3.04595 0.702892 0
M  V30 5681 H 522.049 -2.42314 3.1093 0
M  V30 5682 H 523.337 -3.48305 3.70892 0
M  V30 5683 H 522.735 -5.51467 1.26097 0
M  V30 5684 H 521.292 -6.25728 1.82503 0
M  V30 5685 N 524.725 -1.39134 -0.740242 0
M  V30 5686 C 525.675 -1.33928 -1.84519 0
M  V30 5687 C 526.659 -0.221097 -1.59374 0
M  V30 5688 O 527.851 -0.458195 -1.70967 0
M  V30 5689 C 524.98 -1.17991 -3.22387 0
M  V30 5690 C 524.066 -2.34488 -3.53378 0
M  V30 5691 N 524.457 -3.59954 -3.5534 0
M  V30 5692 C 522.755 -2.27331 -3.83714 0
M  V30 5693 C 523.456 -4.36962 -3.83978 0
M  V30 5694 N 522.432 -3.66482 -4.01487 0
M  V30 5695 H 526.234 -2.28907 -1.84333 0
M  V30 5696 H 523.748 -1.32555 -0.938237 0
M  V30 5697 H 525.745 -1.12345 -4.01478 0
M  V30 5698 H 524.405 -0.23957 -3.23815 0
M  V30 5699 H 525.416 -3.93448 -3.36778 0
M  V30 5700 H 522.093 -1.41531 -3.92779 0
M  V30 5701 H 523.483 -5.45692 -3.92008 0
M  V30 5702 N 526.204 0.969867 -1.24223 0
M  V30 5703 C 527.453 1.70687 -1.07466 0
M  V30 5704 C 527.766 1.91736 0.386861 0
M  V30 5705 O 528.972 2.62986 0.674581 0
M  V30 5706 C 527.428 3.07217 -1.87472 0
M  V30 5707 C 527.036 2.94018 -3.3802 0
M  V30 5708 C 528.78 3.84804 -1.79237 0
M  V30 5709 C 526.687 4.25844 -4.10379 0
M  V30 5710 H 525.617 0.640067 -0.398536 0
M  V30 5711 H 528.268 1.08092 -1.48285 0
M  V30 5712 H 526.65 3.70628 -1.39466 0
M  V30 5713 H 527.824 2.39632 -3.9359 0
M  V30 5714 H 526.139 2.29898 -3.47183 0
M  V30 5715 H 528.736 4.82417 -2.30603 0
M  V30 5716 H 529.079 4.09356 -0.757197 0
M  V30 5717 H 529.612 3.28115 -2.24912 0
M  V30 5718 H 526.351 4.06486 -5.14246 0
M  V30 5719 H 525.871 4.80054 -3.59594 0
M  V30 5720 H 527.55 4.94475 -4.17257 0
M  V30 5721 N 527.682 1.05563 1.17022 0
M  V30 5722 C 529.093 0.793475 1.69 0
M  V30 5723 C 529.444 -0.683882 1.83895 0
M  V30 5724 O 528.569 -1.53116 1.5292 0
M  V30 5725 C 529.164 1.43376 3.06967 0
M  V30 5726 C 527.723 1.21956 3.56095 0
M  V30 5727 C 526.87 1.51494 2.3226 0
M  V30 5728 H 529.821 1.22008 1.01487 0
M  V30 5729 H 529.842 0.845068 3.70997 0
M  V30 5730 H 529.354 2.50899 2.96093 0
M  V30 5731 H 527.455 0.163749 3.7224 0
M  V30 5732 H 527.568 1.92713 4.38633 0
M  V30 5733 H 525.932 0.935175 2.3691 0
M  V30 5734 H 526.715 2.60159 2.23992 0
M  V30 5735 N 529.16 -1.33526 0.837174 0
M  V30 5736 C 530.407 -1.97837 0.432064 0
M  V30 5737 C 530.735 -1.66324 -1.00829 0
M  V30 5738 O 529.99 -0.93448 -1.71948 0
M  V30 5739 C 530.289 -3.52367 0.597675 0
M  V30 5740 C 529.955 -4.03826 2.00587 0
M  V30 5741 C 528.617 -4.1759 2.39106 0
M  V30 5742 C 530.969 -4.31333 2.92576 0
M  V30 5743 C 528.297 -4.56195 3.68921 0
M  V30 5744 C 530.649 -4.7139 4.2187 0
M  V30 5745 C 529.313 -4.8336 4.60347 0
M  V30 5746 H 528.583 -0.723937 0.158104 0
M  V30 5747 H 531.23 -1.5923 1.06387 0
M  V30 5748 H 529.535 -3.91624 -0.117452 0
M  V30 5749 H 531.232 -4.00126 0.26454 0
M  V30 5750 H 527.822 -3.93586 1.69671 0
M  V30 5751 H 532.006 -4.20224 2.64056 0
M  V30 5752 H 527.262 -4.63655 3.9854 0
M  V30 5753 H 531.436 -4.91631 4.93226 0
M  V30 5754 H 529.063 -5.1303 5.60985 0
M  V30 5755 N 530.638 -0.59345 -1.46 0
M  V30 5756 C 531.887 -0.0808084 -2.01538 0
M  V30 5757 C 532.2 1.29112 -1.46934 0
M  V30 5758 O 533.406 1.8957 -1.94359 0
M  V30 5759 C 531.862 -0.0938311 -3.59778 0
M  V30 5760 C 531.47 -1.46474 -4.23379 0
M  V30 5761 C 533.214 0.364306 -4.22934 0
M  V30 5762 C 531.121 -1.4349 -5.73729 0
M  V30 5763 H 530.051 -0.0264407 -0.753536 0
M  V30 5764 H 532.702 -0.746689 -1.67621 0
M  V30 5765 H 531.084 0.638427 -3.9082 0
M  V30 5766 H 532.258 -2.21758 -4.03931 0
M  V30 5767 H 530.573 -1.86379 -3.7236 0
M  V30 5768 H 533.17 0.405584 -5.3316 0
M  V30 5769 H 533.513 1.38409 -3.92618 0
M  V30 5770 H 534.046 -0.31423 -3.96557 0
M  V30 5771 H 530.785 -2.43184 -6.08722 0
M  V30 5772 H 530.305 -0.724431 -5.95409 0
M  V30 5773 H 531.984 -1.15243 -6.36654 0
M  V30 5774 N 532.116 1.54067 -0.331816 0
M  V30 5775 C 533.393 1.92915 0.322955 0
M  V30 5776 C 533.773 1.26225 1.69205 0
M  V30 5777 O 533.121 0.408919 2.24811 0
M  V30 5778 C 533.331 3.46619 0.406946 0
M  V30 5779 C 534.679 4.19386 0.663339 0
M  V30 5780 O 535.703 3.5282 0.489536 0
M  V30 5781 O 534.562 5.37288 0.999193 0
M  V30 5782 H 531.656 0.805808 0.186016 0
M  V30 5783 H 534.202 1.65342 -0.382135 0
M  V30 5784 H 532.974 3.87354 -0.554287 0
M  V30 5785 H 532.597 3.80324 1.15929 0
M  V30 5786 N 533.594 0.0601682 1.57485 0
M  V30 5787 C 534.557 -0.896373 2.10945 0
M  V30 5788 C 535.557 -1.23402 1.03095 0
M  V30 5789 O 536.747 -1.16921 1.29132 0
M  V30 5790 C 533.879 -2.20346 2.60116 0
M  V30 5791 H 535.072 -0.432778 2.96761 0
M  V30 5792 H 532.625 -0.188372 1.55161 0
M  V30 5793 H 533.36 -2.71268 1.7772 0
M  V30 5794 H 533.145 -1.9714 3.38937 0
M  V30 5795 H 534.635 -2.88846 3.01592 0
M  V30 5796 N 535.072 -1.5615 -0.213296 0
M  V30 5797 C 536.002 -1.96109 -1.26742 0
M  V30 5798 C 536.983 -0.830448 -1.48451 0
M  V30 5799 O 538.168 -1.09339 -1.60495 0
M  V30 5800 C 535.298 -2.28492 -2.61551 0
M  V30 5801 C 534.252 -3.44124 -2.54485 0
M  V30 5802 C 533.578 -3.62134 -3.93399 0
M  V30 5803 C 534.878 -4.78855 -2.08556 0
M  V30 5804 H 536.572 -2.84412 -0.935434 0
M  V30 5805 H 534.118 -1.36836 -0.44854 0
M  V30 5806 H 536.071 -2.55039 -3.3546 0
M  V30 5807 H 534.795 -1.37052 -2.96453 0
M  V30 5808 H 533.454 -3.17639 -1.83033 0
M  V30 5809 H 533.102 -2.68055 -4.25623 0
M  V30 5810 H 532.802 -4.39913 -3.89551 0
M  V30 5811 H 534.326 -3.91038 -4.68958 0
M  V30 5812 H 535.74 -5.04552 -2.72213 0
M  V30 5813 H 534.137 -5.59975 -2.1575 0
M  V30 5814 H 535.207 -4.73657 -1.03811 0
M  V30 5815 N 536.55 0.480323 -1.50102 0
M  V30 5816 C 537.48 1.58769 -1.71215 0
M  V30 5817 C 538.461 1.60583 -0.560997 0
M  V30 5818 O 539.646 1.76996 -0.799127 0
M  V30 5819 C 536.776 2.97148 -1.79778 0
M  V30 5820 C 535.73 3.10201 -2.94888 0
M  V30 5821 C 535.056 4.50137 -2.88584 0
M  V30 5822 C 536.356 2.88283 -4.35534 0
M  V30 5823 H 538.05 1.41354 -2.6393 0
M  V30 5824 H 535.596 0.678591 -1.27008 0
M  V30 5825 H 537.549 3.74536 -1.93133 0
M  V30 5826 H 536.273 3.15699 -0.836772 0
M  V30 5827 H 534.932 2.35244 -2.81169 0
M  V30 5828 H 534.58 4.65593 -1.90349 0
M  V30 5829 H 534.28 4.59808 -3.65856 0
M  V30 5830 H 535.804 5.29558 -3.03976 0
M  V30 5831 H 537.218 3.55427 -4.49827 0
M  V30 5832 H 535.615 3.09408 -5.14186 0
M  V30 5833 H 536.685 1.84219 -4.48544 0
M  V30 5834 N 538.028 1.39524 0.732853 0
M  V30 5835 C 538.976 1.38563 1.86824 0
M  V30 5836 C 539.97 0.268467 1.67259 0
M  V30 5837 O 541.176 0.438613 1.74574 0
M  V30 5838 H 537.551 0.432737 0.615014 0
M  V30 5839 H 539.522 2.34328 1.84751 0
M  V30 5840 C 538.271 1.2481 3.24527 0
M  V30 5841 H 537.594 2.10044 3.40179 0
M  V30 5842 H 539.034 1.28194 4.04156 0
M  V30 5843 C 537.493 -0.0432825 3.36872 0
M  V30 5844 O 538.023 -1.01268 3.88726 0
M  V30 5845 N 536.229 -0.107055 2.90403 0
M  V30 5846 H 535.776 0.682512 2.48394 0
M  V30 5847 H 535.734 -0.970618 2.99042 0
M  V30 5848 N 539.506 -0.963266 1.24736 0
M  V30 5849 C 540.783 -1.68248 0.9976 0
M  V30 5850 C 541.163 -2.05599 -0.478776 0
M  V30 5851 O 540.511 -1.7626 -1.45412 0
M  V30 5852 C 540.721 -2.91118 1.92487 0
M  V30 5853 C 542.069 -3.63261 2.19833 0
M  V30 5854 O 543.093 -3.01184 1.90176 0
M  V30 5855 O 541.952 -4.75019 2.7022 0
M  V30 5856 H 539.046 -0.735744 0.377637 0
M  V30 5857 H 541.592 -1.01696 1.35853 0
M  V30 5858 H 540.364 -2.60242 2.92215 0
M  V30 5859 H 539.987 -3.65402 1.56738 0
M  V30 5860 N 540.985 -1.06182 -1.16461 0
M  V30 5861 C 541.933 -0.665716 -2.2287 0
M  V30 5862 C 542.927 0.317822 -1.66392 0
M  V30 5863 O 544.133 0.182807 -1.79069 0
M  V30 5864 H 540.508 -0.197148 -0.725697 0
M  V30 5865 H 542.479 -1.57307 -2.53569 0
M  V30 5866 C 541.228 -0.0669803 -3.47635 0
M  V30 5867 H 540.551 -0.814899 -3.91407 0
M  V30 5868 H 541.991 0.172669 -4.23648 0
M  V30 5869 C 540.45 1.18913 -3.15216 0
M  V30 5870 O 540.98 2.27723 -3.30916 0
M  V30 5871 N 539.186 1.09066 -2.69357 0
M  V30 5872 H 538.733 0.20518 -2.56782 0
M  V30 5873 H 538.691 1.93195 -2.48039 0
M  V30 5874 N 542.463 1.3308 -0.844243 0
M  V30 5875 C 543.41 2.29104 -0.279323 0
M  V30 5876 C 544.38 1.54577 0.607882 0
M  V30 5877 O 545.565 1.8285 0.545009 0
M  V30 5878 C 542.705 3.40927 0.53508 0
M  V30 5879 C 541.818 4.30354 -0.376749 0
M  V30 5880 C 540.953 5.29297 0.449276 0
M  V30 5881 C 539.992 6.10365 -0.460606 0
M  V30 5882 N 539.129 7.01335 0.327612 0
M  V30 5883 H 543.969 2.76817 -1.10346 0
M  V30 5884 H 541.506 1.36203 -0.555611 0
M  V30 5885 H 543.464 4.04469 1.02278 0
M  V30 5886 H 542.094 2.94391 1.32414 0
M  V30 5887 H 541.146 3.67485 -0.982791 0
M  V30 5888 H 542.458 4.87067 -1.07549 0
M  V30 5889 H 541.612 5.98392 1.00058 0
M  V30 5890 H 540.351 4.73174 1.18143 0
M  V30 5891 H 539.356 5.40182 -1.02388 0
M  V30 5892 H 540.581 6.68571 -1.1912 0
M  V30 5893 H 538.527 6.47655 1.04305 0
M  V30 5894 H 538.444 7.55355 -0.3123 0
M  V30 5895 H 539.712 7.74731 0.86098 0
M  V30 5896 N 543.941 0.601185 1.45683 0
M  V30 5897 C 544.904 -0.111398 2.28929 0
M  V30 5898 C 545.904 -0.801246 1.39416 0
M  V30 5899 O 547.094 -0.650383 1.61603 0
M  V30 5900 C 544.226 -1.16773 3.20276 0
M  V30 5901 H 545.419 0.620412 2.93413 0
M  V30 5902 H 542.972 0.359946 1.52099 0
M  V30 5903 H 543.707 -1.93051 2.60579 0
M  V30 5904 H 543.492 -0.677358 3.86205 0
M  V30 5905 H 544.982 -1.66698 3.82886 0
M  V30 5906 N 545.419 -1.53889 0.339982 0
M  V30 5907 C 546.835 -1.59595 -0.0120752 0
M  V30 5908 C 547.035 -1.35605 -1.49042 0
M  V30 5909 O 546.091 -1.14856 -2.24865 0
M  V30 5910 C 547.404 -2.9774 0.420898 0
M  V30 5911 C 548.952 -3.1077 0.37294 0
M  V30 5912 C 549.427 -4.51286 0.781327 0
M  V30 5913 N 550.918 -4.57325 0.735374 0
M  V30 5914 C 551.653 -5.64194 1.02336 0
M  V30 5915 N 551.149 -6.7893 1.37933 0
M  V30 5916 N 552.942 -5.54051 0.947838 0
M  V30 5917 H 545.093 -1.67738 1.30299 0
M  V30 5918 H 547.356 -0.785385 0.530918 0
M  V30 5919 H 547.062 -3.20349 1.45152 0
M  V30 5920 H 546.936 -3.76639 -0.205721 0
M  V30 5921 H 549.323 -2.87886 -0.648505 0
M  V30 5922 H 549.404 -2.33939 1.03472 0
M  V30 5923 H 549.048 -4.74905 1.80077 0
M  V30 5924 H 548.978 -5.26511 0.0970679 0
M  V30 5925 H 551.469 -3.74931 0.472773 0
M  V30 5926 H 551.782 -7.56392 1.58402 0
M  V30 5927 H 550.127 -6.80386 1.41774 0
M  V30 5928 H 553.318 -4.63293 0.669115 0
M  V30 5929 H 553.491 -6.37246 1.17563 0
M  V30 5930 N 546.897 -0.0685191 -1.57451 0
M  V30 5931 C 548.144 0.601348 -1.93365 0
M  V30 5932 C 548.472 1.69816 -0.948294 0
M  V30 5933 O 547.727 1.95666 0.0366199 0
M  V30 5934 C 548.026 1.22051 -3.35914 0
M  V30 5935 C 547.692 0.250165 -4.50205 0
M  V30 5936 C 546.354 -0.0167954 -4.81197 0
M  V30 5937 C 548.706 -0.413867 -5.19554 0
M  V30 5938 C 546.034 -0.95493 -5.78876 0
M  V30 5939 C 548.386 -1.3403 -6.18238 0
M  V30 5940 C 547.05 -1.61576 -6.47649 0
M  V30 5941 H 546.32 0.220049 -0.707573 0
M  V30 5942 H 548.967 -0.138697 -1.90997 0
M  V30 5943 H 547.272 2.03622 -3.34732 0
M  V30 5944 H 548.969 1.74605 -3.6099 0
M  V30 5945 H 545.559 0.468421 -4.26033 0
M  V30 5946 H 549.743 -0.220733 -4.95809 0
M  V30 5947 H 544.999 -1.17563 -5.99991 0
M  V30 5948 H 549.173 -1.86081 -6.71079 0
M  V30 5949 H 546.8 -2.34431 -7.2315 0
M  V30 5950 N 548.375 1.56261 0.205012 0
M  V30 5951 C 549.621 1.80306 0.9283 0
M  V30 5952 C 549.954 0.640932 1.83319 0
M  V30 5953 O 549.229 -0.359032 1.91158 0
M  V30 5954 C 549.512 3.14547 1.75306 0
M  V30 5955 C 549.365 4.41236 0.873562 0
M  V30 5956 C 550.684 3.45382 2.72762 0
M  V30 5957 H 547.803 0.655929 0.336044 0
M  V30 5958 H 550.445 1.88984 0.196211 0
M  V30 5959 H 548.595 3.0728 2.37721 0
M  V30 5960 H 550.267 4.60539 0.264887 0
M  V30 5961 H 548.51 4.33427 0.179773 0
M  V30 5962 H 549.181 5.31639 1.48541 0
M  V30 5963 H 551.657 3.52884 2.20481 0
M  V30 5964 H 550.533 4.40449 3.2756 0
M  V30 5965 H 550.794 2.68377 3.51321 0
M  V30 5966 N 549.853 -0.472356 1.50355 0
M  V30 5967 C 551.099 -1.22634 1.6152 0
M  V30 5968 C 551.432 -1.91645 0.313995 0
M  V30 5969 O 550.707 -1.82059 -0.684446 0
M  V30 5970 C 550.99 -2.27099 2.7946 0
M  V30 5971 C 550.843 -1.62402 4.19459 0
M  V30 5972 C 552.162 -3.28421 2.92964 0
M  V30 5973 H 549.281 -0.444494 0.587873 0
M  V30 5974 H 551.923 -0.520321 1.82737 0
M  V30 5975 H 550.073 -2.87314 2.61501 0
M  V30 5976 H 551.745 -1.05793 4.49005 0
M  V30 5977 H 549.988 -0.927184 4.23776 0
M  V30 5978 H 550.659 -2.38309 4.97909 0
M  V30 5979 H 553.135 -2.78227 3.09401 0
M  V30 5980 H 552.011 -3.98845 3.77113 0
M  V30 5981 H 552.272 -3.92467 2.03525 0
M  V30 5982 N 551.331 -1.39911 -0.725443 0
M  V30 5983 C 552.279 -1.39552 -1.86086 0
M  V30 5984 C 553.273 -0.277334 -1.67114 0
M  V30 5985 O 554.479 -0.447865 -1.74339 0
M  V30 5986 H 550.854 -0.435993 -0.612711 0
M  V30 5987 H 552.825 -2.35305 -1.83505 0
M  V30 5988 C 551.574 -1.26529 -3.2386 0
M  V30 5989 H 550.897 -2.11845 -3.3906 0
M  V30 5990 H 552.337 -1.30336 -4.03471 0
M  V30 5991 C 550.796 0.0254168 -3.3689 0
M  V30 5992 O 551.326 0.992048 -3.89257 0
M  V30 5993 N 549.532 0.0916528 -2.90455 0
M  V30 5994 H 549.079 -0.695675 -2.48028 0
M  V30 5995 H 549.037 0.954745 -2.99553 0
M  V30 5996 N 552.809 0.956637 -1.25245 0
M  V30 5997 C 554.058 1.69537 -1.0927 0
M  V30 5998 C 554.371 1.92136 0.366503 0
M  V30 5999 O 555.577 2.63687 0.64665 0
M  V30 6000 C 554.033 3.05211 -1.9072 0
M  V30 6001 C 553.641 2.90416 -3.41119 0
M  V30 6002 C 555.385 3.82882 -1.83308 0
M  V30 6003 C 553.292 4.21468 -4.14872 0
M  V30 6004 H 552.222 0.635804 -0.405302 0
M  V30 6005 H 554.873 1.06513 -1.49423 0
M  V30 6006 H 553.255 3.69128 -1.43389 0
M  V30 6007 H 554.429 2.35444 -3.9611 0
M  V30 6008 H 552.744 2.26203 -3.49602 0
M  V30 6009 H 555.341 4.79944 -2.35706 0
M  V30 6010 H 555.684 4.0853 -0.800572 0
M  V30 6011 H 556.217 3.25711 -2.28379 0
M  V30 6012 H 552.956 4.01009 -5.18529 0
M  V30 6013 H 552.476 4.76213 -3.64665 0
M  V30 6014 H 554.155 4.90022 -4.22478 0
M  V30 6015 N 554.287 1.06798 1.15896 0
M  V30 6016 C 555.698 0.811355 1.68149 0
M  V30 6017 C 556.049 -0.664339 1.8461 0
M  V30 6018 O 555.174 -1.51485 1.54535 0
M  V30 6019 C 555.769 1.46624 3.05429 0
M  V30 6020 C 554.328 1.25726 3.54781 0
M  V30 6021 C 553.475 1.53949 2.3064 0
M  V30 6022 H 556.426 1.23078 1.00187 0
M  V30 6023 H 556.447 0.88437 3.7008 0
M  V30 6024 H 555.959 2.54025 2.93416 0
M  V30 6025 H 554.06 0.20322 3.72045 0
M  V30 6026 H 554.173 1.97354 4.36564 0
M  V30 6027 H 552.537 0.96025 2.35905 0
M  V30 6028 H 553.32 2.6252 2.2122 0
M  V30 6029 N 555.766 -1.3263 0.851289 0
M  V30 6030 C 556.714 -2.30882 0.282202 0
M  V30 6031 C 557.708 -1.58697 -0.592589 0
M  V30 6032 O 558.914 -1.73461 -0.480768 0
M  V30 6033 H 555.289 -0.748492 0.0725487 0
M  V30 6034 H 557.26 -2.76374 1.12516 0
M  V30 6035 C 556.009 -3.43828 -0.517449 0
M  V30 6036 H 555.332 -3.99532 0.146392 0
M  V30 6037 H 556.772 -4.1474 -0.88128 0
M  V30 6038 C 555.231 -2.90786 -1.70133 0
M  V30 6039 O 555.761 -2.88 -2.80034 0
M  V30 6040 N 553.967 -2.4723 -1.52728 0
M  V30 6041 H 553.514 -2.49695 -0.633257 0
M  V30 6042 H 553.472 -2.12094 -2.32085 0
M  V30 6043 N 557.244 -0.608902 -1.45362 0
M  V30 6044 C 558.191 0.109172 -2.30542 0
M  V30 6045 C 559.161 0.858704 -1.42181 0
M  V30 6046 O 560.346 0.844178 -1.71109 0
M  V30 6047 C 557.486 1.09971 -3.27109 0
M  V30 6048 C 556.599 0.350911 -4.30572 0
M  V30 6049 C 555.734 1.33129 -5.14247 0
M  V30 6050 C 554.773 0.570377 -6.09437 0
M  V30 6051 N 553.91 1.5001 -6.85887 0
M  V30 6052 H 558.75 -0.623195 -2.91411 0
M  V30 6053 H 556.287 -0.319122 -1.43597 0
M  V30 6054 H 558.245 1.68714 -3.81564 0
M  V30 6055 H 556.875 1.79947 -2.67991 0
M  V30 6056 H 555.927 -0.352054 -3.78767 0
M  V30 6057 H 557.239 -0.242725 -4.98209 0
M  V30 6058 H 556.393 1.99074 -5.73109 0
M  V30 6059 H 555.132 1.95885 -4.46632 0
M  V30 6060 H 554.137 -0.102702 -5.49704 0
M  V30 6061 H 555.362 -0.0521607 -6.7908 0
M  V30 6062 H 553.308 2.11529 -6.2096 0
M  V30 6063 H 553.225 0.959934 -7.49881 0
M  V30 6064 H 554.493 2.14909 -7.49289 0
M  V30 6065 N 558.722 1.53707 -0.348139 0
M  V30 6066 C 559.97 2.00591 0.246478 0
M  V30 6067 C 560.291 1.23753 1.50699 0
M  V30 6068 O 559.561 0.345964 1.92821 0
M  V30 6069 H 558.141 0.741053 0.0940679 0
M  V30 6070 H 560.803 1.89139 -0.470354 0
M  V30 6071 H 559.899 3.08297 0.485714 0
M  V30 6072 N 560.2 0.0768682 1.57412 0
M  V30 6073 C 561.449 -0.590679 1.92857 0
M  V30 6074 C 561.762 -1.70461 0.959293 0
M  V30 6075 O 562.968 -2.43207 1.20675 0
M  V30 6076 C 561.424 -1.10204 3.42612 0
M  V30 6077 C 561.032 -0.0188447 4.47996 0
M  V30 6078 C 562.776 -1.74336 3.87049 0
M  V30 6079 C 560.683 -0.544536 5.88888 0
M  V30 6080 H 559.613 -0.224411 0.71983 0
M  V30 6081 H 562.264 0.149924 1.82887 0
M  V30 6082 H 560.646 -1.89577 3.47673 0
M  V30 6083 H 561.82 0.755936 4.54557 0
M  V30 6084 H 560.135 0.526555 4.13057 0
M  V30 6085 H 562.732 -2.14708 4.89699 0
M  V30 6086 H 563.075 -2.60537 3.24694 0
M  V30 6087 H 563.608 -1.01577 3.84613 0
M  V30 6088 H 560.347 0.280426 6.549 0
M  V30 6089 H 559.867 -1.28673 5.85836 0
M  V30 6090 H 561.546 -1.01933 6.3892 0
M  V30 6091 N 561.678 -1.56367 -0.196722 0
M  V30 6092 C 562.927 -1.79724 -0.915539 0
M  V30 6093 C 563.24 -0.649804 -1.84491 0
M  V30 6094 O 564.446 -0.767631 -2.60422 0
M  V30 6095 C 562.902 -3.18369 -1.67836 0
M  V30 6096 C 562.51 -4.4091 -0.793897 0
M  V30 6097 C 564.254 -3.51037 -2.38691 0
M  V30 6098 C 562.161 -5.70577 -1.55549 0
M  V30 6099 H 561.091 -0.67013 -0.345604 0
M  V30 6100 H 563.742 -1.82721 -0.168856 0
M  V30 6101 H 562.124 -3.09617 -2.46887 0
M  V30 6102 H 563.298 -4.60781 -0.042163 0
M  V30 6103 H 561.613 -4.15937 -0.19626 0
M  V30 6104 H 564.21 -4.4515 -2.96219 0
M  V30 6105 H 564.553 -2.74704 -3.12799 0
M  V30 6106 H 565.086 -3.61229 -1.66608 0
M  V30 6107 H 561.825 -6.49871 -0.857226 0
M  V30 6108 H 561.345 -5.54726 -2.2812 0
M  V30 6109 H 563.024 -6.11637 -2.10971 0
M  V30 6110 N 563.156 0.464375 -1.50603 0
M  V30 6111 C 564.106 1.55929 -1.66343 0
M  V30 6112 C 565.09 1.52338 -0.517887 0
M  V30 6113 O 566.282 1.59248 -0.772601 0
M  V30 6114 C 563.411 2.94327 -1.7671 0
M  V30 6115 C 562.497 3.02777 -2.96962 0
M  V30 6116 N 562.888 2.81026 -4.20545 0
M  V30 6117 C 561.186 3.33919 -2.95659 0
M  V30 6118 C 561.887 2.94618 -5.01573 0
M  V30 6119 N 560.863 3.25112 -4.35664 0
M  V30 6120 H 564.665 1.37822 -2.59581 0
M  V30 6121 H 562.179 0.671227 -1.47879 0
M  V30 6122 H 564.176 3.73063 -1.86091 0
M  V30 6123 H 562.836 3.13476 -0.846353 0
M  V30 6124 H 563.847 2.56477 -4.49933 0
M  V30 6125 H 560.524 3.59013 -2.13111 0
M  V30 6126 H 561.914 2.81984 -6.09865 0
M  V30 6127 N 564.634 1.40294 0.718013 0
M  V30 6128 C 565.882 1.38167 1.47494 0
M  V30 6129 C 566.203 -0.01607 1.94993 0
M  V30 6130 O 565.473 -0.970396 1.70177 0
M  V30 6131 H 564.053 0.508505 0.547203 0
M  V30 6132 H 566.715 1.75324 0.851322 0
M  V30 6133 H 565.811 2.05503 2.34894 0
M  V30 6134 N 566.112 -0.949982 1.2575 0
M  V30 6135 C 567.361 -1.68956 1.10168 0
M  V30 6136 C 567.674 -1.92327 -0.356309 0
M  V30 6137 O 568.88 -2.64026 -0.632657 0
M  V30 6138 C 567.336 -3.04196 1.92336 0
M  V30 6139 C 566.944 -2.88603 3.42655 0
M  V30 6140 C 568.688 -3.81904 1.85336 0
M  V30 6141 C 566.595 -4.19262 4.17101 0
M  V30 6142 H 565.525 -0.633645 0.408668 0
M  V30 6143 H 568.176 -1.05719 1.49986 0
M  V30 6144 H 566.558 -3.68363 1.45344 0
M  V30 6145 H 567.732 -2.3334 3.97353 0
M  V30 6146 H 566.047 -2.24345 3.50796 0
M  V30 6147 H 568.644 -4.78688 2.38248 0
M  V30 6148 H 568.987 -4.08099 0.822226 0
M  V30 6149 H 569.52 -3.24495 2.30104 0
M  V30 6150 H 566.259 -3.98254 5.20648 0
M  V30 6151 H 565.779 -4.74273 3.67186 0
M  V30 6152 H 567.458 -4.87775 4.25071 0
M  V30 6153 N 567.59 -1.07411 -1.15328 0
M  V30 6154 C 568.867 -0.710732 -1.82231 0
M  V30 6155 C 569.247 0.806732 -1.95077 0
M  V30 6156 O 568.595 1.72139 -1.50268 0
M  V30 6157 C 568.805 -1.42586 -3.18544 0
M  V30 6158 C 570.153 -1.57836 -3.94174 0
M  V30 6159 O 571.177 -1.38669 -3.281 0
M  V30 6160 O 570.036 -1.8938 -5.12638 0
M  V30 6161 H 567.13 -0.25297 -0.78736 0
M  V30 6162 H 569.676 -1.17508 -1.22434 0
M  V30 6163 H 568.448 -2.46008 -3.04296 0
M  V30 6164 H 568.071 -0.952332 -3.86026 0
M  V30 6165 N 569.068 1.32177 -0.85831 0
M  V30 6166 C 570.345 1.91781 -0.384624 0
M  V30 6167 C 570.725 1.78171 1.13217 0
M  V30 6168 O 570.073 1.18209 1.95548 0
M  V30 6169 C 570.283 3.38414 -0.853047 0
M  V30 6170 C 571.631 4.15542 -0.872359 0
M  V30 6171 O 572.655 3.47148 -0.797926 0
M  V30 6172 O 571.514 5.37678 -0.978009 0
M  V30 6173 H 568.608 0.819259 -0.112886 0
M  V30 6174 H 571.154 1.40923 -0.945453 0
M  V30 6175 H 569.926 3.4228 -1.89632 0
M  V30 6176 H 569.549 3.96683 -0.269874 0
M  V30 6177 N 570.547 0.616602 1.45037 0
M  V30 6178 C 571.824 0.0469086 1.95544 0
M  V30 6179 C 572.204 -1.42345 1.55888 0
M  V30 6180 O 571.552 -2.13055 0.825824 0
M  V30 6181 C 571.762 0.254489 3.48071 0
M  V30 6182 C 573.11 0.140025 4.24369 0
M  V30 6183 O 574.134 0.185084 3.55719 0
M  V30 6184 O 572.993 0.0327034 5.4649 0
M  V30 6185 H 570.087 -0.0306051 0.826433 0
M  V30 6186 H 572.633 0.687293 1.55159 0
M  V30 6187 H 571.405 1.27532 3.69934 0
M  V30 6188 H 571.028 -0.42073 3.95368 0
M  V30 6189 N 572.025 -1.5352 0.356285 0
M  V30 6190 C 573.271 -2.01414 -0.236653 0
M  V30 6191 C 573.604 -1.24339 -1.49176 0
M  V30 6192 O 572.879 -0.334496 -1.91602 0
M  V30 6193 C 573.162 -3.56059 -0.537982 0
M  V30 6194 C 573.015 -4.43835 0.730112 0
M  V30 6195 C 574.334 -4.19127 -1.34239 0
M  V30 6196 H 571.453 -0.732135 -0.0845386 0
M  V30 6197 H 574.095 -1.83854 0.479341 0
M  V30 6198 H 572.245 -3.71153 -1.14795 0
M  V30 6199 H 573.917 -4.40555 1.36782 0
M  V30 6200 H 572.16 -4.1218 1.3524 0
M  V30 6201 H 572.831 -5.49958 0.474358 0
M  V30 6202 H 575.307 -4.07809 -0.826498 0
M  V30 6203 H 574.183 -5.27378 -1.52198 0
M  V30 6204 H 574.444 -3.74581 -2.34822 0
M  V30 6205 N 573.503 -0.0852151 -1.57369 0
M  V30 6206 C 574.749 0.581666 -1.94279 0
M  V30 6207 C 575.082 1.68444 -0.966446 0
M  V30 6208 O 574.357 1.945 0.00215277 0
M  V30 6209 C 574.64 1.14609 -3.41375 0
M  V30 6210 C 574.493 0.0490414 -4.49773 0
M  V30 6211 C 575.812 2.04751 -3.8957 0
M  V30 6212 H 572.931 0.209972 -0.706456 0
M  V30 6213 H 575.573 -0.153915 -1.89376 0
M  V30 6214 H 573.723 1.77297 -3.45685 0
M  V30 6215 H 575.395 -0.584721 -4.57579 0
M  V30 6216 H 573.638 -0.618638 -4.29366 0
M  V30 6217 H 574.309 0.484601 -5.49869 0
M  V30 6218 H 576.785 1.51981 -3.87351 0
M  V30 6219 H 575.661 2.41173 -4.93079 0
M  V30 6220 H 575.922 2.96107 -3.28288 0
M  V30 6221 N 574.981 1.5647 0.188427 0
M  V30 6222 C 576.227 1.81281 0.909124 0
M  V30 6223 C 576.56 0.66034 1.82628 0
M  V30 6224 O 575.835 -0.338737 1.91528 0
M  V30 6225 C 576.118 3.16388 1.7196 0
M  V30 6226 C 575.971 4.42137 0.826714 0
M  V30 6227 C 577.29 3.48256 2.69083 0
M  V30 6228 H 574.409 0.659457 0.329068 0
M  V30 6229 H 577.051 1.89182 0.176156 0
M  V30 6230 H 575.201 3.09784 2.34448 0
M  V30 6231 H 576.873 4.60794 0.216025 0
M  V30 6232 H 575.116 4.33594 0.133792 0
M  V30 6233 H 575.787 5.33184 1.42893 0
M  V30 6234 H 578.263 3.55203 2.16726 0
M  V30 6235 H 577.139 4.43899 3.2287 0
M  V30 6236 H 577.4 2.72088 3.48455 0
M  V30 6237 N 576.459 -0.456382 1.50847 0
M  V30 6238 C 577.369 -1.57805 1.73594 0
M  V30 6239 C 578.385 -1.62599 0.619476 0
M  V30 6240 O 579.561 -1.80195 0.899532 0
M  V30 6241 C 576.626 -2.93926 1.8387 0
M  V30 6242 C 575.687 -2.99402 3.07663 0
M  V30 6243 C 574.92 -4.29031 3.1744 0
M  V30 6244 O 575.143 -5.20358 2.33631 0
M  V30 6245 O 574.077 -4.40401 4.10281 0
M  V30 6246 H 577.903 -1.41531 2.68705 0
M  V30 6247 H 575.488 -0.637422 1.3512 0
M  V30 6248 H 577.37 -3.74747 1.92725 0
M  V30 6249 H 576.045 -3.10368 0.91944 0
M  V30 6250 H 574.952 -2.17606 3.043 0
M  V30 6251 H 576.285 -2.87901 3.99216 0
M  V30 6252 N 577.937 -1.40673 -0.710563 0
M  V30 6253 C 579.183 -1.39428 -1.47267 0
M  V30 6254 C 579.516 0.00182129 -1.942 0
M  V30 6255 O 578.791 0.971387 -1.68506 0
M  V30 6256 C 579.074 -2.38812 -2.6952 0
M  V30 6257 C 578.927 -3.87467 -2.28449 0
M  V30 6258 C 580.246 -2.3566 -3.71689 0
M  V30 6259 H 577.365 -0.507768 -0.534173 0
M  V30 6260 H 580.007 -1.71843 -0.810547 0
M  V30 6261 H 578.157 -2.113 -3.26013 0
M  V30 6262 H 579.829 -4.25825 -1.77399 0
M  V30 6263 H 578.072 -4.03058 -1.60395 0
M  V30 6264 H 578.743 -4.5253 -3.16103 0
M  V30 6265 H 581.219 -2.6004 -3.24836 0
M  V30 6266 H 580.095 -3.07237 -4.54859 0
M  V30 6267 H 580.356 -1.36996 -4.20339 0
M  V30 6268 N 579.415 0.9433 -1.26252 0
M  V30 6269 C 580.826 1.50404 -1.10614 0
M  V30 6270 C 581.177 1.93666 0.31429 0
M  V30 6271 O 580.302 1.79709 1.20555 0
M  V30 6272 C 580.897 2.73336 -2.00182 0
M  V30 6273 C 579.456 3.25686 -1.88695 0
M  V30 6274 C 578.603 1.98474 -1.93658 0
M  V30 6275 H 581.554 0.759006 -1.39373 0
M  V30 6276 H 581.575 3.47567 -1.54847 0
M  V30 6277 H 581.087 2.41818 -3.03555 0
M  V30 6278 H 579.188 3.61998 -0.882489 0
M  V30 6279 H 579.301 3.92935 -2.74115 0
M  V30 6280 H 577.665 2.14278 -1.37684 0
M  V30 6281 H 578.448 1.6929 -2.98657 0
M  V30 6282 N 580.893 1.08022 1.14757 0
M  V30 6283 C 581.856 0.71048 2.1791 0
M  V30 6284 C 582.856 -0.252731 1.58801 0
M  V30 6285 O 584.046 -0.0327915 1.74169 0
M  V30 6286 C 581.178 0.0483203 3.40866 0
M  V30 6287 H 582.371 1.62384 2.52134 0
M  V30 6288 H 579.924 0.877595 1.29337 0
M  V30 6289 H 580.659 -0.876959 3.12218 0
M  V30 6290 H 580.444 0.741189 3.85031 0
M  V30 6291 H 581.934 -0.195471 4.17142 0
M  V30 6292 N 582.371 -1.3172 0.865308 0
M  V30 6293 C 583.301 -2.31109 0.333302 0
M  V30 6294 C 584.282 -1.60148 -0.573301 0
M  V30 6295 O 585.467 -1.87882 -0.491305 0
M  V30 6296 C 582.597 -3.44104 -0.470078 0
M  V30 6297 C 581.551 -4.26623 0.343021 0
M  V30 6298 C 580.877 -5.31482 -0.585756 0
M  V30 6299 C 582.177 -4.98001 1.57456 0
M  V30 6300 H 583.871 -2.75855 1.1638 0
M  V30 6301 H 581.417 -1.3262 0.561069 0
M  V30 6302 H 583.37 -4.12682 -0.852752 0
M  V30 6303 H 582.094 -2.98112 -1.33404 0
M  V30 6304 H 580.753 -3.59707 0.707583 0
M  V30 6305 H 580.401 -4.81741 -1.44686 0
M  V30 6306 H 580.101 -5.87582 -0.0456494 0
M  V30 6307 H 581.625 -6.0292 -0.965375 0
M  V30 6308 H 583.039 -5.59201 1.26359 0
M  V30 6309 H 581.436 -5.63876 2.05339 0
M  V30 6310 H 582.506 -4.25253 2.32997 0
M  V30 6311 N 583.85 -0.624285 -1.44708 0
M  V30 6312 C 585.096 -0.126237 -2.02407 0
M  V30 6313 C 585.428 1.24618 -1.48943 0
M  V30 6314 O 584.704 1.82569 -0.670742 0
M  V30 6315 C 584.986 -0.105449 -3.59946 0
M  V30 6316 C 584.84 -1.50972 -4.23707 0
M  V30 6317 C 586.159 0.573629 -4.36346 0
M  V30 6318 H 583.278 -0.0473472 -0.735478 0
M  V30 6319 H 585.92 -0.799452 -1.72362 0
M  V30 6320 H 584.07 0.46783 -3.85673 0
M  V30 6321 H 585.742 -2.13136 -4.0911 0
M  V30 6322 H 583.985 -2.0656 -3.81465 0
M  V30 6323 H 584.656 -1.44727 -5.32689 0
M  V30 6324 H 587.132 0.0861787 -4.16011 0
M  V30 6325 H 586.008 0.557338 -5.46063 0
M  V30 6326 H 586.269 1.64276 -4.10446 0
M  V30 6327 N 585.328 1.53329 -0.364422 0
M  V30 6328 C 586.605 1.93557 0.281962 0
M  V30 6329 C 586.985 1.29786 1.6649 0
M  V30 6330 O 586.333 0.456512 2.23893 0
M  V30 6331 C 586.543 3.47405 0.333331 0
M  V30 6332 C 587.891 4.20699 0.574231 0
M  V30 6333 O 588.915 3.53779 0.414588 0
M  V30 6334 O 587.774 5.39287 0.885002 0
M  V30 6335 H 584.868 0.809573 0.168881 0
M  V30 6336 H 587.414 1.64494 -0.417121 0
M  V30 6337 H 586.186 3.86091 -0.636326 0
M  V30 6338 H 585.809 3.82697 1.07836 0
M  V30 6339 N 586.806 0.0935595 1.57322 0
M  V30 6340 C 587.753 -0.865935 2.1394 0
M  V30 6341 C 588.723 -1.28083 1.05754 0
M  V30 6342 O 589.908 -1.36285 1.33533 0
M  V30 6343 C 587.048 -2.12023 2.72287 0
M  V30 6344 C 586.161 -1.756 3.94701 0
M  V30 6345 C 585.296 -2.95804 4.41218 0
M  V30 6346 C 584.335 -2.555 5.56225 0
M  V30 6347 N 583.472 -3.68534 5.97601 0
M  V30 6348 H 588.312 -0.376261 2.95615 0
M  V30 6349 H 585.849 -0.174052 1.46067 0
M  V30 6350 H 587.807 -2.85477 3.04235 0
M  V30 6351 H 586.437 -2.58492 1.93343 0
M  V30 6352 H 585.489 -0.921208 3.69077 0
M  V30 6353 H 586.801 -1.41964 4.78171 0
M  V30 6354 H 585.955 -3.77513 4.74941 0
M  V30 6355 H 584.694 -3.32649 3.56645 0
M  V30 6356 H 583.699 -1.72218 5.22131 0
M  V30 6357 H 584.924 -2.19801 6.42545 0
M  V30 6358 H 582.87 -4.051 5.15974 0
M  V30 6359 H 582.787 -3.38737 6.75865 0
M  V30 6360 H 584.055 -4.50757 6.35955 0
M  V30 6361 N 588.284 -1.56567 -0.180126 0
M  V30 6362 C 589.232 -1.96632 -1.24251 0
M  V30 6363 C 590.226 -0.853818 -1.46309 0
M  V30 6364 O 591.432 -1.0389 -1.46993 0
M  V30 6365 H 587.807 -0.625476 -0.417473 0
M  V30 6366 H 589.778 -2.85201 -0.877679 0
M  V30 6367 C 588.527 -2.33486 -2.57642 0
M  V30 6368 H 587.85 -3.18626 -2.4149 0
M  V30 6369 H 589.29 -2.65371 -3.30688 0
M  V30 6370 C 587.749 -1.17499 -3.15746 0
M  V30 6371 O 588.279 -0.457956 -3.99081 0
M  V30 6372 N 586.485 -0.94786 -2.74707 0
M  V30 6373 H 586.032 -1.53269 -2.07042 0
M  V30 6374 H 585.99 -0.173626 -3.1392 0
M  V30 6375 N 589.762 0.448376 -1.51087 0
M  V30 6376 C 591.01 1.19635 -1.62886 0
M  V30 6377 C 591.331 1.91977 -0.342024 0
M  V30 6378 O 590.601 1.85094 0.641636 0
M  V30 6379 H 589.181 0.444598 -0.600285 0
M  V30 6380 H 591.843 0.515138 -1.87969 0
M  V30 6381 H 590.939 1.93194 -2.45117 0
M  V30 6382 N 591.24 1.41047 0.703093 0
M  V30 6383 C 592.489 1.39301 1.4587 0
M  V30 6384 C 592.802 0.00267077 1.956 0
M  V30 6385 O 594.008 -0.137414 2.71152 0
M  V30 6386 C 592.464 2.44891 2.63735 0
M  V30 6387 C 592.072 3.89796 2.20824 0
M  V30 6388 C 593.816 2.5227 3.41409 0
M  V30 6389 C 591.723 4.86955 3.35602 0
M  V30 6390 H 590.653 0.518005 0.547893 0
M  V30 6391 H 593.304 1.66839 0.764009 0
M  V30 6392 H 591.686 2.10472 3.35436 0
M  V30 6393 H 592.86 4.33424 1.56461 0
M  V30 6394 H 591.175 3.86008 1.56163 0
M  V30 6395 H 593.772 3.22044 4.26839 0
M  V30 6396 H 594.115 1.55714 3.86081 0
M  V30 6397 H 594.648 2.85742 2.7676 0
M  V30 6398 H 591.387 5.84888 2.9595 0
M  V30 6399 H 590.907 4.47982 3.98839 0
M  V30 6400 H 592.586 5.07361 4.01489 0
M  V30 6401 N 592.718 -0.936591 1.26751 0
M  V30 6402 C 593.668 -2.0219 1.05371 0
M  V30 6403 C 594.652 -1.60893 -0.0154112 0
M  V30 6404 O 595.844 -1.75843 0.202085 0
M  V30 6405 C 592.973 -3.36222 0.693541 0
M  V30 6406 C 592.059 -3.8399 1.80035 0
M  V30 6407 N 592.45 -4.0436 3.03852 0
M  V30 6408 C 590.748 -4.12945 1.685 0
M  V30 6409 C 591.449 -4.44 3.75818 0
M  V30 6410 N 590.425 -4.50966 3.03531 0
M  V30 6411 H 594.227 -2.15958 1.99347 0
M  V30 6412 H 591.741 -1.12277 1.17335 0
M  V30 6413 H 593.738 -4.13625 0.521513 0
M  V30 6414 H 592.398 -3.23821 -0.238693 0
M  V30 6415 H 593.409 -3.9092 3.39709 0
M  V30 6416 H 590.086 -4.09308 0.822986 0
M  V30 6417 H 591.476 -4.67914 4.82189 0
M  V30 6418 N 594.196 -1.08629 -1.14182 0
M  V30 6419 C 595.607 -0.838003 -1.66836 0
M  V30 6420 C 595.958 0.634885 -1.85644 0
M  V30 6421 O 595.083 1.49008 -1.56926 0
M  V30 6422 C 595.678 -1.51465 -3.03058 0
M  V30 6423 C 594.237 -1.31355 -3.52736 0
M  V30 6424 C 593.384 -1.57599 -2.28162 0
M  V30 6425 H 596.335 -1.24656 -0.982165 0
M  V30 6426 H 596.356 -0.943134 -3.68626 0
M  V30 6427 H 595.868 -2.58661 -2.89337 0
M  V30 6428 H 593.969 -0.262384 -3.71675 0
M  V30 6429 H 594.082 -2.04275 -4.33369 0
M  V30 6430 H 592.446 -0.997659 -2.34348 0
M  V30 6431 H 593.229 -2.66006 -2.17015 0
M  V30 6432 N 595.674 1.31259 -0.872281 0
M  V30 6433 C 596.584 2.32221 -0.333255 0
M  V30 6434 C 597.6 1.6481 0.558013 0
M  V30 6435 O 598.776 1.96212 0.454175 0
M  V30 6436 C 595.841 3.43708 0.454479 0
M  V30 6437 C 594.902 4.26774 -0.465024 0
M  V30 6438 C 594.135 5.32937 0.28521 0
M  V30 6439 O 594.358 5.49968 1.513 0
M  V30 6440 O 593.292 6.00834 -0.358126 0
M  V30 6441 H 597.118 2.80252 -1.17016 0
M  V30 6442 H 594.703 1.352 -0.635724 0
M  V30 6443 H 596.585 4.11656 0.900963 0
M  V30 6444 H 595.26 2.97836 1.26789 0
M  V30 6445 H 594.167 3.61571 -0.960055 0
M  V30 6446 H 595.5 4.76217 -1.2441 0
M  V30 6447 N 597.152 0.631951 1.44375 0
M  V30 6448 C 598.099 -0.0724807 2.30686 0
M  V30 6449 C 599.069 -0.835975 1.43529 0
M  V30 6450 O 600.254 -0.816849 1.7243 0
M  V30 6451 C 597.394 -1.04753 3.28817 0
M  V30 6452 C 596.507 -0.282367 4.31076 0
M  V30 6453 C 595.642 -1.2493 5.163 0
M  V30 6454 C 594.681 -0.473349 6.10267 0
M  V30 6455 N 593.818 -1.39079 6.88187 0
M  V30 6456 H 598.658 0.669477 2.90383 0
M  V30 6457 H 596.195 0.341927 1.43071 0
M  V30 6458 H 598.153 -1.62623 3.842 0
M  V30 6459 H 596.783 -1.75661 2.70819 0
M  V30 6460 H 595.835 0.412268 3.78159 0
M  V30 6461 H 597.147 0.321955 4.9776 0
M  V30 6462 H 596.301 -1.89931 5.76204 0
M  V30 6463 H 595.04 -1.88755 4.49692 0
M  V30 6464 H 594.045 0.190142 5.49471 0
M  V30 6465 H 595.27 0.16019 6.78911 0
M  V30 6466 H 593.216 -2.01623 6.24247 0
M  V30 6467 H 593.133 -0.840513 7.51313 0
M  V30 6468 H 594.401 -2.02961 7.52613 0
M  V30 6469 N 598.631 -1.53133 0.372548 0
M  V30 6470 C 599.88 -2.00539 -0.216115 0
M  V30 6471 C 600.193 -1.26374 -1.49295 0
M  V30 6472 O 601.399 -1.64404 -2.16064 0
M  V30 6473 C 599.855 -3.57253 -0.435678 0
M  V30 6474 C 599.463 -4.40302 0.82693 0
M  V30 6475 C 601.207 -4.12995 -0.981618 0
M  V30 6476 C 599.114 -5.88583 0.576567 0
M  V30 6477 H 598.044 -0.749246 -0.084536 0
M  V30 6478 H 600.695 -1.76771 0.492364 0
M  V30 6479 H 599.077 -3.77202 -1.20559 0
M  V30 6480 H 600.251 -4.32124 1.60017 0
M  V30 6481 H 598.566 -3.95699 1.29659 0
M  V30 6482 H 601.163 -5.21418 -1.18436 0
M  V30 6483 H 601.506 -3.68027 -1.94581 0
M  V30 6484 H 602.039 -3.96871 -0.271696 0
M  V30 6485 H 598.778 -6.37841 1.51128 0
M  V30 6486 H 598.298 -5.99592 -0.158047 0
M  V30 6487 H 599.977 -6.46676 0.204722 0
M  V30 6488 N 600.109 -0.101901 -1.5727 0
M  V30 6489 C 601.019 0.868647 -2.17926 0
M  V30 6490 C 602.035 1.30527 -1.1506 0
M  V30 6491 O 603.211 1.37178 -1.47459 0
M  V30 6492 C 600.276 2.10727 -2.75309 0
M  V30 6493 C 599.337 1.7242 -3.93154 0
M  V30 6494 C 598.57 2.90377 -4.47791 0
M  V30 6495 O 598.793 4.05305 -4.01353 0
M  V30 6496 O 597.727 2.6845 -5.38719 0
M  V30 6497 H 601.553 0.382544 -3.01281 0
M  V30 6498 H 599.138 0.122812 -1.48894 0
M  V30 6499 H 601.02 2.83303 -3.11958 0
M  V30 6500 H 599.695 2.58376 -1.94996 0
M  V30 6501 H 598.602 0.970039 -3.61305 0
M  V30 6502 H 599.935 1.29528 -4.74851 0
M  V30 6503 N 601.587 1.56661 0.17182 0
M  V30 6504 C 602.998 1.71652 0.734329 0
M  V30 6505 C 603.349 0.712335 1.82812 0
M  V30 6506 O 602.474 -0.126401 2.16031 0
M  V30 6507 C 603.069 3.11226 1.3388 0
M  V30 6508 C 601.628 3.27904 1.84813 0
M  V30 6509 C 600.775 2.67603 0.726917 0
M  V30 6510 H 603.726 1.5861 -0.0535665 0
M  V30 6511 H 603.747 3.09849 2.20849 0
M  V30 6512 H 603.259 3.8429 0.54249 0
M  V30 6513 H 601.36 2.59796 2.6709 0
M  V30 6514 H 601.473 4.35637 1.99392 0
M  V30 6515 H 599.837 2.274 1.14723 0
M  V30 6516 H 600.62 3.43252 -0.0575334 0
M  V30 6517 N 603.065 -0.440357 1.51323 0
M  V30 6518 C 604.476 -1.02032 1.56353 0
M  V30 6519 C 604.827 -1.92382 0.385197 0
M  V30 6520 O 603.952 -2.10583 -0.498373 0
M  V30 6521 C 604.547 -1.85723 2.83359 0
M  V30 6522 C 603.106 -2.38774 2.90971 0
M  V30 6523 C 602.253 -1.17908 2.50984 0
M  V30 6524 H 605.204 -0.221744 1.57143 0
M  V30 6525 H 605.225 -2.71141 2.66951 0
M  V30 6526 H 604.737 -1.19939 3.69102 0
M  V30 6527 H 602.838 -3.08021 2.09651 0
M  V30 6528 H 602.951 -2.71778 3.94555 0
M  V30 6529 H 601.315 -1.52347 2.04114 0
M  V30 6530 H 602.098 -0.537393 3.39068 0
M  V30 6531 N 604.543 -1.41418 -0.695603 0
M  V30 6532 C 605.473 -1.46035 -1.82197 0
M  V30 6533 C 606.454 -0.319025 -1.67082 0
M  V30 6534 O 607.639 -0.530462 -1.86815 0
M  V30 6535 C 604.769 -1.34179 -3.20333 0
M  V30 6536 C 603.723 -2.46123 -3.50154 0
M  V30 6537 C 603.049 -2.19332 -4.87645 0
M  V30 6538 C 604.349 -3.88463 -3.49133 0
M  V30 6539 H 606.043 -2.40303 -1.78591 0
M  V30 6540 H 603.589 -1.15663 -0.857797 0
M  V30 6541 H 605.542 -1.36021 -3.98844 0
M  V30 6542 H 604.266 -0.363952 -3.24566 0
M  V30 6543 H 602.925 -2.43563 -2.73994 0
M  V30 6544 H 602.573 -1.19891 -4.88503 0
M  V30 6545 H 602.273 -2.94344 -5.08562 0
M  V30 6546 H 603.797 -2.22889 -5.68465 0
M  V30 6547 H 605.211 -3.92738 -4.17648 0
M  V30 6548 H 603.608 -4.63158 -3.81582 0
M  V30 6549 H 604.678 -4.16617 -2.48109 0
M  V30 6550 N 606.021 0.929856 -1.27246 0
M  V30 6551 C 607.432 1.49223 -1.12203 0
M  V30 6552 C 607.783 1.93989 0.293731 0
M  V30 6553 O 606.908 1.80978 1.18642 0
M  V30 6554 C 607.503 2.71198 -2.0307 0
M  V30 6555 C 606.062 3.23666 -1.92139 0
M  V30 6556 C 605.209 1.96409 -1.95752 0
M  V30 6557 H 608.16 0.744181 -1.4017 0
M  V30 6558 H 608.181 3.45905 -1.58524 0
M  V30 6559 H 607.693 2.38585 -3.06102 0
M  V30 6560 H 605.794 3.61042 -0.920834 0
M  V30 6561 H 605.907 3.90006 -2.78267 0
M  V30 6562 H 604.271 2.12806 -1.39949 0
M  V30 6563 H 605.054 1.66113 -3.00436 0
M  V30 6564 N 607.499 1.09233 1.13605 0
M  V30 6565 C 608.776 0.739633 1.81077 0
M  V30 6566 C 609.156 -0.775595 1.96336 0
M  V30 6567 O 608.504 -1.69726 1.52988 0
M  V30 6568 C 608.714 1.47636 3.16235 0
M  V30 6569 C 610.062 1.64087 3.91613 0
M  V30 6570 O 611.086 1.43871 3.25852 0
M  V30 6571 O 609.945 1.97511 5.0956 0
M  V30 6572 H 607.039 0.265464 0.783236 0
M  V30 6573 H 609.585 1.19441 1.20549 0
M  V30 6574 H 608.357 2.50818 3.00344 0
M  V30 6575 H 607.98 1.01362 3.84462 0
M  V30 6576 N 608.977 -1.30795 0.87923 0
M  V30 6577 C 610.393 -1.48981 0.57243 0
M  V30 6578 C 610.593 -1.80719 -0.891236 0
M  V30 6579 O 609.649 -1.89136 -1.67283 0
M  V30 6580 C 610.962 -2.61721 1.48063 0
M  V30 6581 C 612.51 -2.75603 1.48365 0
M  V30 6582 C 612.985 -3.91449 2.37763 0
M  V30 6583 N 614.476 -3.98751 2.35695 0
M  V30 6584 C 615.211 -4.87684 3.01583 0
M  V30 6585 N 614.707 -5.81454 3.76674 0
M  V30 6586 N 616.5 -4.81005 2.90844 0
M  V30 6587 H 608.651 -1.08465 1.82617 0
M  V30 6588 H 610.914 -0.536813 0.781368 0
M  V30 6589 H 610.62 -2.45073 2.52254 0
M  V30 6590 H 610.494 -3.58071 1.18596 0
M  V30 6591 H 612.881 -2.9166 0.44927 0
M  V30 6592 H 612.962 -1.79891 1.81859 0
M  V30 6593 H 612.606 -3.76149 3.41283 0
M  V30 6594 H 612.536 -4.86487 2.01589 0
M  V30 6595 H 615.027 -3.31668 1.81121 0
M  V30 6596 H 615.34 -6.46063 4.24054 0
M  V30 6597 H 613.685 -5.81403 3.80782 0
M  V30 6598 H 616.876 -4.06728 2.31711 0
M  V30 6599 H 617.049 -5.50107 3.42471 0
M  V30 6600 N 610.455 -0.639598 -1.44038 0
M  V30 6601 C 611.701 -0.147698 -2.02261 0
M  V30 6602 C 612.034 1.23031 -1.50256 0
M  V30 6603 O 611.309 1.81847 -0.690068 0
M  V30 6604 C 611.592 -0.14362 -3.59813 0
M  V30 6605 C 611.445 -1.55458 -4.22082 0
M  V30 6606 C 612.764 0.527317 -4.36929 0
M  V30 6607 H 609.883 -0.0551453 -0.734934 0
M  V30 6608 H 612.525 -0.817688 -1.71505 0
M  V30 6609 H 610.675 0.426898 -3.86147 0
M  V30 6610 H 612.347 -2.17464 -4.06826 0
M  V30 6611 H 610.59 -2.10594 -3.79253 0
M  V30 6612 H 611.261 -1.50369 -5.31124 0
M  V30 6613 H 613.737 0.0420504 -4.16079 0
M  V30 6614 H 612.613 0.499389 -5.46624 0
M  V30 6615 H 612.874 1.59914 -4.12165 0
M  V30 6616 N 611.933 1.52934 -0.380664 0
M  V30 6617 C 613.179 2.01765 0.20458 0
M  V30 6618 C 613.512 1.26696 1.47179 0
M  V30 6619 O 612.787 0.364936 1.91046 0
M  V30 6620 C 613.07 3.56869 0.481269 0
M  V30 6621 C 612.923 4.42617 -0.800629 0
M  V30 6622 C 614.242 4.2121 1.27554 0
M  V30 6623 H 611.361 0.733388 0.0728803 0
M  V30 6624 H 614.003 1.83068 -0.50853 0
M  V30 6625 H 612.153 3.72932 1.08875 0
M  V30 6626 H 613.825 4.38323 -1.43773 0
M  V30 6627 H 612.068 4.09977 -1.4178 0
M  V30 6628 H 612.739 5.49134 -0.561791 0
M  V30 6629 H 615.215 4.09072 0.761514 0
M  V30 6630 H 614.091 5.29732 1.43788 0
M  V30 6631 H 614.352 3.78269 2.28833 0
M  V30 6632 N 613.412 0.11024 1.57214 0
M  V30 6633 C 614.359 -0.843195 2.14846 0
M  V30 6634 C 615.329 -1.26954 1.07107 0
M  V30 6635 O 616.514 -1.34861 1.34971 0
M  V30 6636 C 613.654 -2.09123 2.74521 0
M  V30 6637 C 612.767 -1.71404 3.96541 0
M  V30 6638 C 611.902 -2.91107 4.44331 0
M  V30 6639 C 610.941 -2.49586 5.58903 0
M  V30 6640 N 610.078 -3.62175 6.01477 0
M  V30 6641 H 614.918 -0.344886 2.95998 0
M  V30 6642 H 612.455 -0.15855 1.46243 0
M  V30 6643 H 614.413 -2.82234 3.07246 0
M  V30 6644 H 613.043 -2.56427 1.96074 0
M  V30 6645 H 612.095 -0.88201 3.70033 0
M  V30 6646 H 613.407 -1.36884 4.7965 0
M  V30 6647 H 612.561 -3.72454 4.78919 0
M  V30 6648 H 611.3 -3.28848 3.60153 0
M  V30 6649 H 610.305 -1.6667 5.23929 0
M  V30 6650 H 611.53 -2.12973 6.4484 0
M  V30 6651 H 609.476 -3.99605 5.20242 0
M  V30 6652 H 609.393 -3.3155 6.79419 0
M  V30 6653 H 610.661 -4.43987 6.407 0
M  V30 6654 N 614.89 -1.56749 -0.16351 0
M  V30 6655 C 616.12 -1.86307 -0.892936 0
M  V30 6656 C 616.528 -0.6945 -1.75992 0
M  V30 6657 O 615.871 0.345384 -1.80424 0
M  V30 6658 C 615.933 -3.10372 -1.81409 0
M  V30 6659 C 615.597 -4.42913 -1.12593 0
M  V30 6660 C 616.594 -5.17608 -0.487661 0
M  V30 6661 C 614.279 -4.89646 -1.12035 0
M  V30 6662 C 616.273 -6.3723 0.14699 0
M  V30 6663 C 613.96 -6.09197 -0.481883 0
M  V30 6664 C 614.958 -6.82834 0.150678 0
M  V30 6665 O 614.646 -8.00116 0.779065 0
M  V30 6666 H 614.378 -0.622126 -0.264452 0
M  V30 6667 H 616.932 -2.04728 -0.166063 0
M  V30 6668 H 615.162 -2.87917 -2.58148 0
M  V30 6669 H 616.851 -3.26312 -2.41403 0
M  V30 6670 H 617.617 -4.8258 -0.483888 0
M  V30 6671 H 613.496 -4.32265 -1.60212 0
M  V30 6672 H 617.04 -6.94646 0.641325 0
M  V30 6673 H 612.937 -6.43688 -0.483266 0
M  V30 6674 H 613.705 -8.15678 0.679089 0
M  V30 6675 N 616.368 0.432326 -1.51554 0
M  V30 6676 C 617.598 1.2019 -1.68042 0
M  V30 6677 C 618.006 1.85356 -0.379434 0
M  V30 6678 O 617.349 1.71724 0.652427 0
M  V30 6679 C 617.411 2.32387 -2.74292 0
M  V30 6680 C 617.075 1.87548 -4.16743 0
M  V30 6681 C 618.072 1.37611 -5.01357 0
M  V30 6682 C 615.757 1.95087 -4.62868 0
M  V30 6683 C 617.751 0.958069 -6.30159 0
M  V30 6684 C 615.438 1.52894 -5.91664 0
M  V30 6685 C 616.436 1.03336 -6.75137 0
M  V30 6686 O 616.124 0.617435 -8.01525 0
M  V30 6687 H 615.856 0.368132 -0.56697 0
M  V30 6688 H 618.41 0.517875 -1.98764 0
M  V30 6689 H 616.64 3.04082 -2.38895 0
M  V30 6690 H 618.329 2.94235 -2.79608 0
M  V30 6691 H 619.095 1.31178 -4.66923 0
M  V30 6692 H 614.974 2.32606 -3.98015 0
M  V30 6693 H 618.518 0.570562 -6.95263 0
M  V30 6694 H 614.415 1.58999 -6.25611 0
M  V30 6695 H 615.183 0.742835 -8.15122 0
M  V30 6696 N 617.846 1.41785 0.688094 0
M  V30 6697 C 618.776 1.47 1.8142 0
M  V30 6698 C 619.757 0.327881 1.6691 0
M  V30 6699 O 620.942 0.540362 1.86531 0
M  V30 6700 C 618.072 1.35876 3.19617 0
M  V30 6701 C 617.026 2.47976 3.48844 0
M  V30 6702 C 616.352 2.21915 4.86475 0
M  V30 6703 C 617.652 3.90309 3.47068 0
M  V30 6704 H 619.346 2.41247 1.77314 0
M  V30 6705 H 616.892 1.16116 0.851651 0
M  V30 6706 H 618.845 1.38134 3.98117 0
M  V30 6707 H 617.569 0.38116 3.24368 0
M  V30 6708 H 616.228 2.45013 2.72698 0
M  V30 6709 H 615.876 1.2248 4.8786 0
M  V30 6710 H 615.576 2.97037 5.06994 0
M  V30 6711 H 617.1 2.25901 5.67275 0
M  V30 6712 H 618.514 3.94947 4.1556 0
M  V30 6713 H 616.911 4.65175 3.7912 0
M  V30 6714 H 617.981 4.17927 2.45896 0
M  V30 6715 N 619.324 -0.923095 1.27737 0
M  V30 6716 C 620.74 -1.19985 1.05241 0
M  V30 6717 C 620.94 -2.00391 -0.21113 0
M  V30 6718 O 619.996 -2.35324 -0.915366 0
M  V30 6719 C 621.309 -1.94352 2.29451 0
M  V30 6720 C 622.857 -2.07273 2.34536 0
M  V30 6721 C 623.332 -2.85046 3.58487 0
M  V30 6722 N 624.823 -2.92612 3.59072 0
M  V30 6723 C 625.558 -3.53266 4.51654 0
M  V30 6724 N 625.054 -4.15274 5.54545 0
M  V30 6725 N 626.847 -3.50714 4.39268 0
M  V30 6726 H 618.998 -0.386042 2.08862 0
M  V30 6727 H 621.261 -0.233407 0.918817 0
M  V30 6728 H 620.967 -1.42692 3.21453 0
M  V30 6729 H 620.841 -2.94947 2.3513 0
M  V30 6730 H 623.228 -2.58117 1.43037 0
M  V30 6731 H 623.309 -1.05884 2.32857 0
M  V30 6732 H 622.953 -2.34884 4.50324 0
M  V30 6733 H 622.883 -3.8673 3.57418 0
M  V30 6734 H 625.374 -2.48547 2.84663 0
M  V30 6735 H 625.687 -4.59507 6.21348 0
M  V30 6736 H 624.032 -4.13806 5.58382 0
M  V30 6737 H 627.223 -3.01475 3.58093 0
M  V30 6738 H 627.396 -3.97693 5.1161 0
M  V30 6739 N 620.802 -1.09834 -1.13024 0
M  V30 6740 C 622.213 -0.855651 -1.65938 0
M  V30 6741 C 622.564 0.615159 -1.86307 0
M  V30 6742 O 621.689 1.47335 -1.58497 0
M  V30 6743 C 622.284 -1.5467 -3.01434 0
M  V30 6744 C 620.843 -1.35088 -3.51323 0
M  V30 6745 C 619.99 -1.6001 -2.26478 0
M  V30 6746 H 622.941 -1.25691 -0.968889 0
M  V30 6747 H 622.962 -0.982179 -3.67605 0
M  V30 6748 H 622.474 -2.61715 -2.86578 0
M  V30 6749 H 620.575 -0.30179 -3.71376 0
M  V30 6750 H 620.688 -2.0886 -4.31178 0
M  V30 6751 H 619.052 -1.02246 -2.33276 0
M  V30 6752 H 619.835 -2.68293 -2.14182 0
M  V30 6753 N 622.28 1.30327 -0.886154 0
M  V30 6754 C 623.696 1.48676 -0.580323 0
M  V30 6755 C 623.896 1.81189 0.881639 0
M  V30 6756 O 622.952 1.90021 1.66278 0
M  V30 6757 C 624.265 2.60932 -1.49449 0
M  V30 6758 C 625.813 2.74812 -1.49824 0
M  V30 6759 C 626.288 3.90183 -2.39836 0
M  V30 6760 N 627.779 3.97495 -2.37806 0
M  V30 6761 C 628.514 4.86078 -3.04165 0
M  V30 6762 N 628.01 5.79448 -3.79753 0
M  V30 6763 N 629.803 4.79456 -2.93391 0
M  V30 6764 H 621.954 1.07495 -1.8319 0
M  V30 6765 H 624.217 0.532661 -0.784204 0
M  V30 6766 H 623.923 2.43731 -2.5355 0
M  V30 6767 H 623.797 3.57437 -1.20494 0
M  V30 6768 H 626.184 2.91418 -0.464731 0
M  V30 6769 H 626.265 1.78924 -1.82811 0
M  V30 6770 H 625.909 3.74334 -3.43273 0
M  V30 6771 H 625.839 4.85411 -2.04166 0
M  V30 6772 H 628.33 3.30703 -1.82877 0
M  V30 6773 H 628.643 6.43805 -4.27475 0
M  V30 6774 H 626.988 5.79376 -3.8386 0
M  V30 6775 H 630.179 4.05494 -2.33864 0
M  V30 6776 H 630.352 5.48283 -3.45383 0
M  V30 6777 N 623.758 0.647228 1.43697 0
M  V30 6778 C 625.007 0.155552 2.01099 0
M  V30 6779 C 625.32 -1.23569 1.51624 0
M  V30 6780 O 626.526 -1.82226 2.01261 0
M  V30 6781 C 624.982 0.227296 3.59182 0
M  V30 6782 C 624.59 1.62086 4.17651 0
M  V30 6783 C 626.334 -0.207085 4.23995 0
M  V30 6784 C 624.241 1.64685 5.68008 0
M  V30 6785 H 623.171 0.0543895 0.752036 0
M  V30 6786 H 625.822 0.808386 1.64734 0
M  V30 6787 H 624.204 -0.492937 3.9292 0
M  V30 6788 H 625.378 2.36597 3.95422 0
M  V30 6789 H 623.693 2.0007 3.65186 0
M  V30 6790 H 626.29 -0.207426 5.34298 0
M  V30 6791 H 626.633 -1.23742 3.97484 0
M  V30 6792 H 627.166 0.461193 3.95118 0
M  V30 6793 H 623.905 2.65608 5.99277 0
M  V30 6794 H 623.425 0.944914 5.9231 0
M  V30 6795 H 625.104 1.38792 6.31938 0
M  V30 6796 N 625.236 -1.5273 0.388769 0
M  V30 6797 C 626.169 -2.22861 -0.490752 0
M  V30 6798 C 627.147 -1.22912 -1.06449 0
M  V30 6799 O 628.331 -1.51896 -1.11624 0
M  V30 6800 C 625.458 -2.94141 -1.67925 0
M  V30 6801 C 624.504 -4.08355 -1.23081 0
M  V30 6802 S 625.337 -5.35077 -0.212786 0
M  V30 6803 C 626.493 -6.09879 -1.40708 0
M  V30 6804 H 626.726 -2.97115 0.104787 0
M  V30 6805 H 624.259 -1.53428 0.172956 0
M  V30 6806 H 626.217 -3.35818 -2.36085 0
M  V30 6807 H 624.878 -2.19568 -2.24608 0
M  V30 6808 H 624.071 -4.57328 -2.11818 0
M  V30 6809 H 623.673 -3.68688 -0.628121 0
M  V30 6810 H 625.965 -6.36018 -2.33424 0
M  V30 6811 H 626.908 -7.01586 -0.958271 0
M  V30 6812 H 627.316 -5.40646 -1.62364 0
M  V30 6813 N 626.714 -0.118576 -1.57153 0
M  V30 6814 C 628.13 0.238014 -1.57815 0
M  V30 6815 C 628.33 1.66747 -1.13127 0
M  V30 6816 O 627.386 2.38867 -0.818462 0
M  V30 6817 C 628.699 0.00508207 -3.007 0
M  V30 6818 C 630.247 0.0710139 -3.12919 0
M  V30 6819 C 630.722 -0.13422 -4.57803 0
M  V30 6820 N 632.213 -0.0801755 -4.63131 0
M  V30 6821 C 632.948 -0.213885 -5.73001 0
M  V30 6822 N 632.444 -0.403742 -6.91623 0
M  V30 6823 N 634.237 -0.15349 -5.6189 0
M  V30 6824 H 626.388 -1.05226 -1.84503 0
M  V30 6825 H 628.651 -0.414318 -0.852669 0
M  V30 6826 H 628.357 -0.983125 -3.3768 0
M  V30 6827 H 628.231 0.73714 -3.69927 0
M  V30 6828 H 630.618 1.04975 -2.75798 0
M  V30 6829 H 630.699 -0.692918 -2.46236 0
M  V30 6830 H 630.343 -1.10992 -4.95624 0
M  V30 6831 H 630.273 0.649692 -5.22577 0
M  V30 6832 H 632.764 0.0630689 -3.77847 0
M  V30 6833 H 633.077 -0.496645 -7.71202 0
M  V30 6834 H 631.422 -0.43971 -6.93608 0
M  V30 6835 H 634.613 -0.00613174 -4.681 0
M  V30 6836 H 634.786 -0.261138 -6.47474 0
M  V30 6837 N 628.193 1.56834 0.155195 0
M  V30 6838 C 629.126 1.9278 1.22111 0
M  V30 6839 C 630.104 0.792588 1.41975 0
M  V30 6840 O 631.288 1.04743 1.5672 0
M  V30 6841 C 628.415 2.19273 2.58142 0
M  V30 6842 C 627.461 3.41932 2.54921 0
M  V30 6843 S 628.294 4.95769 2.02418 0
M  V30 6844 C 629.45 5.25375 3.40194 0
M  V30 6845 H 629.683 2.82889 0.914393 0
M  V30 6846 H 627.216 1.50133 0.360461 0
M  V30 6847 H 629.174 2.35217 3.36427 0
M  V30 6848 H 627.835 1.29843 2.86007 0
M  V30 6849 H 627.028 3.57721 3.55038 0
M  V30 6850 H 626.63 3.25188 1.8474 0
M  V30 6851 H 628.922 5.1834 4.36268 0
M  V30 6852 H 629.865 6.26889 3.29266 0
M  V30 6853 H 630.273 4.52906 3.36951 0
M  V30 6854 N 629.671 -0.424282 1.51781 0
M  V30 6855 C 630.581 -1.54087 1.76902 0
M  V30 6856 C 631.597 -1.61249 0.653826 0
M  V30 6857 O 632.773 -1.78247 0.937552 0
M  V30 6858 C 629.838 -2.8996 1.90063 0
M  V30 6859 C 628.899 -2.92809 3.13945 0
M  V30 6860 C 628.132 -4.22201 3.26469 0
M  V30 6861 O 628.355 -5.15286 2.44616 0
M  V30 6862 O 627.289 -4.31599 4.1953 0
M  V30 6863 H 631.115 -1.358 2.71647 0
M  V30 6864 H 628.7 -0.608618 1.36441 0
M  V30 6865 H 630.582 -3.70575 2.0063 0
M  V30 6866 H 629.257 -3.08347 0.985067 0
M  V30 6867 H 628.164 -2.11102 3.08847 0
M  V30 6868 H 629.497 -2.79369 4.05233 0
M  V30 6869 N 631.149 -1.42148 -0.680565 0
M  V30 6870 C 632.082 -1.39602 -1.80517 0
M  V30 6871 C 633.06 -0.261098 -1.6049 0
M  V30 6872 O 634.244 -0.450404 -1.8304 0
M  V30 6873 C 631.371 -1.18134 -3.1743 0
M  V30 6874 C 630.417 -2.34543 -3.56219 0
M  V30 6875 S 631.25 -3.97063 -3.59306 0
M  V30 6876 C 632.406 -3.77926 -4.98921 0
M  V30 6877 H 632.639 -2.3477 -1.82402 0
M  V30 6878 H 630.172 -1.28851 -0.850691 0
M  V30 6879 H 632.13 -1.06434 -3.96462 0
M  V30 6880 H 630.791 -0.245611 -3.13138 0
M  V30 6881 H 629.984 -2.15255 -4.55721 0
M  V30 6882 H 629.586 -2.42728 -2.84533 0
M  V30 6883 H 631.878 -3.3856 -5.86842 0
M  V30 6884 H 632.821 -4.77084 -5.23256 0
M  V30 6885 H 633.229 -3.10904 -4.71167 0
M  V30 6886 N 632.627 0.916307 -1.28225 0
M  V30 6887 C 633.59 1.99996 -1.11957 0
M  V30 6888 C 634.59 1.60688 -0.0600152 0
M  V30 6889 O 635.78 1.71499 -0.30558 0
M  V30 6890 C 632.912 3.33458 -0.708411 0
M  V30 6891 H 634.105 2.15858 -2.08196 0
M  V30 6892 H 631.658 1.09863 -1.11175 0
M  V30 6893 H 632.393 3.23297 0.254859 0
M  V30 6894 H 632.178 3.63349 -1.47377 0
M  V30 6895 H 633.668 4.13014 -0.617164 0
M  V30 6896 N 634.105 1.10431 1.1244 0
M  V30 6897 C 635.035 0.775143 2.20258 0
M  V30 6898 C 636.016 -0.25186 1.68225 0
M  V30 6899 O 637.201 -0.117637 1.93843 0
M  V30 6900 C 634.331 0.206133 3.46688 0
M  V30 6901 C 633.285 1.16382 4.11873 0
M  V30 6902 C 632.611 0.456014 5.32752 0
M  V30 6903 C 633.911 2.5104 4.58013 0
M  V30 6904 H 635.605 1.67665 2.4805 0
M  V30 6905 H 633.151 0.807595 1.19222 0
M  V30 6906 H 635.104 -0.036291 4.21384 0
M  V30 6907 H 633.828 -0.730614 3.18323 0
M  V30 6908 H 632.487 1.39169 3.39157 0
M  V30 6909 H 632.135 -0.485203 5.00654 0
M  V30 6910 H 631.835 1.09466 5.77314 0
M  V30 6911 H 633.359 0.222135 6.10196 0
M  V30 6912 H 634.773 2.32401 5.24083 0
M  V30 6913 H 633.17 3.10789 5.13352 0
M  V30 6914 H 634.24 3.11039 3.71998 0
M  V30 6915 N 635.583 -1.29855 0.893053 0
M  V30 6916 C 636.493 -2.31661 0.370157 0
M  V30 6917 C 637.509 -1.65677 -0.531723 0
M  V30 6918 O 638.685 -1.9691 -0.422902 0
M  V30 6919 C 635.75 -3.44388 -0.399741 0
M  V30 6920 C 634.811 -4.2598 0.532861 0
M  V30 6921 C 634.044 -5.33324 -0.200388 0
M  V30 6922 O 634.267 -5.52305 -1.42531 0
M  V30 6923 O 633.201 -6.00188 0.453668 0
M  V30 6924 H 637.027 -2.78354 1.2146 0
M  V30 6925 H 634.612 -1.34171 0.657153 0
M  V30 6926 H 636.494 -4.13037 -0.835358 0
M  V30 6927 H 635.169 -2.99815 -1.22035 0
M  V30 6928 H 634.076 -3.59998 1.01746 0
M  V30 6929 H 635.409 -4.74178 1.3197 0
M  V30 6930 N 637.061 -0.65484 -1.43351 0
M  V30 6931 C 638.024 0.0263562 -2.29185 0
M  V30 6932 C 639.024 0.748951 -1.42293 0
M  V30 6933 O 640.214 0.589957 -1.63906 0
M  V30 6934 C 637.346 1.04806 -3.2439 0
M  V30 6935 H 638.539 -0.728883 -2.90908 0
M  V30 6936 H 636.092 -0.416149 -1.50658 0
M  V30 6937 H 636.827 1.83247 -2.67565 0
M  V30 6938 H 636.612 0.533554 -3.88453 0
M  V30 6939 H 638.102 1.52372 -3.88809 0
M  V30 6940 N 638.539 1.52521 -0.396863 0
M  V30 6941 C 639.786 2.01672 0.182898 0
M  V30 6942 C 640.114 1.28302 1.46181 0
M  V30 6943 O 639.369 0.374118 1.92091 0
M  V30 6944 C 639.668 3.5403 0.489677 0
M  V30 6945 C 639.334 4.45456 -0.698581 0
M  V30 6946 C 637.996 4.70166 -1.02454 0
M  V30 6947 C 640.348 4.99354 -1.49316 0
M  V30 6948 C 637.676 5.46024 -2.1465 0
M  V30 6949 C 640.028 5.76439 -2.60579 0
M  V30 6950 C 638.692 5.99426 -2.93675 0
M  V30 6951 H 637.962 0.737971 0.066927 0
M  V30 6952 H 640.609 1.83853 -0.535764 0
M  V30 6953 H 638.914 3.69963 1.28976 0
M  V30 6954 H 640.611 3.8956 0.951018 0
M  V30 6955 H 637.201 4.26392 -0.434525 0
M  V30 6956 H 641.385 4.80182 -1.25457 0
M  V30 6957 H 636.641 5.62046 -2.40654 0
M  V30 6958 H 640.815 6.17202 -3.22544 0
M  V30 6959 H 638.442 6.57988 -3.80731 0
M  V30 6960 N 640.017 0.126909 1.57088 0
M  V30 6961 C 640.947 -0.816847 2.18746 0
M  V30 6962 C 641.928 -1.27161 1.12979 0
M  V30 6963 O 643.113 -1.33279 1.41246 0
M  V30 6964 C 640.243 -2.06398 2.79315 0
M  V30 6965 C 639.197 -1.74673 3.90735 0
M  V30 6966 C 638.523 -3.06482 4.38147 0
M  V30 6967 C 639.823 -1.0089 5.12463 0
M  V30 6968 H 641.517 -0.303032 2.97863 0
M  V30 6969 H 639.063 -0.144314 1.43275 0
M  V30 6970 H 641.016 -2.72885 3.2111 0
M  V30 6971 H 639.74 -2.60118 1.975 0
M  V30 6972 H 638.399 -1.10572 3.49527 0
M  V30 6973 H 638.047 -3.58152 3.5318 0
M  V30 6974 H 637.747 -2.86025 5.13287 0
M  V30 6975 H 639.271 -3.74073 4.82599 0
M  V30 6976 H 640.685 -1.57546 5.51228 0
M  V30 6977 H 639.082 -0.905006 5.93237 0
M  V30 6978 H 640.152 0.00297335 4.849 0
M  V30 6979 N 641.495 -1.56914 -0.146875 0
M  V30 6980 C 642.723 -1.87515 -0.874394 0
M  V30 6981 C 643.138 -0.715116 -1.74733 0
M  V30 6982 O 642.495 0.315113 -1.79759 0
M  V30 6983 C 642.546 -3.17362 -1.731 0
M  V30 6984 O 642.267 -4.28897 -0.893245 0
M  V30 6985 C 643.768 -3.61479 -2.56609 0
M  V30 6986 H 640.988 -0.621546 -0.252827 0
M  V30 6987 H 643.532 -2.04023 -0.139627 0
M  V30 6988 H 641.687 -3.02608 -2.41883 0
M  V30 6989 H 642.101 -5.03146 -1.48137 0
M  V30 6990 H 643.575 -4.5517 -3.12289 0
M  V30 6991 H 644.052 -2.86773 -3.32653 0
M  V30 6992 H 644.658 -3.78927 -1.93117 0
M  V30 6993 N 642.974 0.416227 -1.52004 0
M  V30 6994 C 644.222 1.16153 -1.65387 0
M  V30 6995 C 644.543 1.91208 -0.382669 0
M  V30 6996 O 643.813 1.86413 0.602231 0
M  V30 6997 H 642.393 0.431765 -0.60958 0
M  V30 6998 H 645.055 0.475151 -1.89019 0
M  V30 6999 H 644.151 1.87952 -2.4916 0
M  V30 7000 N 644.452 1.42507 0.673017 0
M  V30 7001 C 645.729 1.33554 1.42908 0
M  V30 7002 C 646.109 -0.0262211 2.11084 0
M  V30 7003 O 645.457 -1.04181 2.03368 0
M  V30 7004 C 645.667 2.50498 2.43006 0
M  V30 7005 C 647.015 2.92694 3.07596 0
M  V30 7006 O 648.039 2.50401 2.53333 0
M  V30 7007 O 646.898 3.65899 4.05931 0
M  V30 7008 H 643.992 0.526785 0.637516 0
M  V30 7009 H 646.538 1.54518 0.701591 0
M  V30 7010 H 645.31 3.41272 1.9144 0
M  V30 7011 H 644.933 2.3153 3.23233 0
M  V30 7012 N 645.93 -0.909495 1.28709 0
M  V30 7013 C 647.179 -1.65365 1.15487 0
M  V30 7014 C 647.492 -1.93364 -0.294941 0
M  V30 7015 O 648.698 -2.65905 -0.548338 0
M  V30 7016 C 647.154 -2.97923 2.01916 0
M  V30 7017 C 646.762 -2.77556 3.51663 0
M  V30 7018 C 648.506 -3.75814 1.97393 0
M  V30 7019 C 646.413 -4.0578 4.30229 0
M  V30 7020 H 645.343 -0.620323 0.42862 0
M  V30 7021 H 647.994 -1.00894 1.53273 0
M  V30 7022 H 646.376 -3.63552 1.5699 0
M  V30 7023 H 647.55 -2.2058 4.04575 0
M  V30 7024 H 645.865 -2.13072 3.57756 0
M  V30 7025 H 648.462 -4.70866 2.53357 0
M  V30 7026 H 648.805 -4.05277 0.951643 0
M  V30 7027 H 649.338 -3.1701 2.40311 0
M  V30 7028 H 646.077 -3.81488 5.33055 0
M  V30 7029 H 645.597 -4.62351 3.82089 0
M  V30 7030 H 647.276 -4.74004 4.40374 0
M  V30 7031 N 647.408 -1.11026 -1.11852 0
M  V30 7032 C 648.824 -0.843294 -1.35502 0
M  V30 7033 C 649.024 0.534179 -1.9429 0
M  V30 7034 O 648.08 1.28585 -2.17307 0
M  V30 7035 C 649.393 -1.94793 -2.29077 0
M  V30 7036 C 650.941 -1.97709 -2.42652 0
M  V30 7037 C 651.416 -3.07364 -3.39546 0
M  V30 7038 N 652.907 -3.0671 -3.47107 0
M  V30 7039 C 653.642 -3.88197 -4.22008 0
M  V30 7040 N 653.138 -4.79635 -4.99922 0
M  V30 7041 N 654.931 -3.76391 -4.17476 0
M  V30 7042 H 647.082 -1.99805 -0.720538 0
M  V30 7043 H 649.345 -0.868633 -0.379711 0
M  V30 7044 H 649.051 -2.93971 -1.93065 0
M  V30 7045 H 648.925 -1.84039 -3.29256 0
M  V30 7046 H 651.312 -0.991604 -2.77941 0
M  V30 7047 H 651.393 -2.1254 -1.4234 0
M  V30 7048 H 651.037 -4.06136 -3.04985 0
M  V30 7049 H 650.967 -2.89774 -4.39703 0
M  V30 7050 H 653.458 -2.40457 -2.91528 0
M  V30 7051 H 653.771 -5.38357 -5.54429 0
M  V30 7052 H 652.116 -4.8366 -4.99097 0
M  V30 7053 H 655.307 -3.04303 -3.55693 0
M  V30 7054 H 655.48 -4.40131 -4.75593 0
M  V30 7055 N 648.886 1.2938 -0.899927 0
M  V30 7056 C 650.135 1.9483 -0.521937 0
M  V30 7057 C 650.448 1.71725 0.936473 0
M  V30 7058 O 651.654 2.31282 1.42199 0
M  V30 7059 C 650.11 3.48911 -0.88255 0
M  V30 7060 C 649.718 3.80815 -2.35974 0
M  V30 7061 C 651.462 4.20595 -0.57448 0
M  V30 7062 C 649.369 5.28142 -2.66121 0
M  V30 7063 H 648.299 0.729285 -0.191468 0
M  V30 7064 H 650.95 1.47103 -1.09695 0
M  V30 7065 H 649.332 3.95293 -0.236459 0
M  V30 7066 H 650.506 3.45291 -3.05141 0
M  V30 7067 H 648.821 3.22271 -2.63686 0
M  V30 7068 H 651.418 5.29031 -0.776556 0
M  V30 7069 H 651.761 4.13442 0.487005 0
M  V30 7070 H 652.294 3.79945 -1.17842 0
M  V30 7071 H 649.033 5.4036 -3.71068 0
M  V30 7072 H 648.553 5.64913 -2.01578 0
M  V30 7073 H 650.232 5.95738 -2.52399 0
M  V30 7074 N 650.364 0.662433 1.43002 0
M  V30 7075 C 651.613 0.176873 2.00923 0
M  V30 7076 C 651.926 -1.21954 1.52927 0
M  V30 7077 O 653.132 -1.80081 2.03182 0
M  V30 7078 C 651.588 0.265379 3.5892 0
M  V30 7079 C 651.196 1.66507 4.15908 0
M  V30 7080 C 652.94 -0.162103 4.2419 0
M  V30 7081 C 650.847 1.707 5.66229 0
M  V30 7082 H 649.777 0.0623627 0.751417 0
M  V30 7083 H 652.428 0.825813 1.63868 0
M  V30 7084 H 650.81 -0.451235 3.93421 0
M  V30 7085 H 651.984 2.40777 3.92891 0
M  V30 7086 H 650.299 2.03932 3.63044 0
M  V30 7087 H 652.896 -0.150745 5.34487 0
M  V30 7088 H 653.239 -1.19519 3.98774 0
M  V30 7089 H 653.772 0.503075 3.94606 0
M  V30 7090 H 650.511 2.7195 5.96426 0
M  V30 7091 H 650.031 1.00768 5.91275 0
M  V30 7092 H 651.71 1.45487 6.3043 0
M  V30 7093 N 651.842 -1.52309 0.404946 0
M  V30 7094 C 652.789 -2.26898 -0.422597 0
M  V30 7095 C 653.759 -1.2914 -1.04461 0
M  V30 7096 O 654.944 -1.57996 -1.06967 0
M  V30 7097 C 652.084 -3.09053 -1.53559 0
M  V30 7098 C 651.197 -4.21762 -0.934908 0
M  V30 7099 C 650.332 -4.91283 -2.02025 0
M  V30 7100 C 649.371 -5.95962 -1.39628 0
M  V30 7101 N 648.508 -6.59017 -2.42159 0
M  V30 7102 H 653.348 -2.97188 0.219903 0
M  V30 7103 H 650.885 -1.46607 0.120282 0
M  V30 7104 H 652.843 -3.54987 -2.19181 0
M  V30 7105 H 651.473 -2.40942 -2.14818 0
M  V30 7106 H 650.525 -3.80029 -0.167854 0
M  V30 7107 H 651.837 -4.96864 -0.439073 0
M  V30 7108 H 650.991 -5.40601 -2.75383 0
M  V30 7109 H 649.73 -4.15741 -2.54973 0
M  V30 7110 H 648.735 -5.45968 -0.648023 0
M  V30 7111 H 649.96 -6.73445 -0.874553 0
M  V30 7112 H 647.906 -5.86306 -2.94247 0
M  V30 7113 H 647.823 -7.2978 -1.97376 0
M  V30 7114 H 649.091 -7.12974 -3.15099 0
M  V30 7115 N 653.32 -0.135238 -1.57019 0
M  V30 7116 C 654.23 0.822226 -2.19719 0
M  V30 7117 C 655.246 1.28057 -1.17802 0
M  V30 7118 O 656.422 1.3402 -1.50335 0
M  V30 7119 C 653.487 2.0484 -2.79717 0
M  V30 7120 C 652.548 1.64042 -3.96723 0
M  V30 7121 C 651.781 2.80814 -4.53849 0
M  V30 7122 O 652.004 3.967 -4.0986 0
M  V30 7123 O 650.938 2.56963 -5.44292 0
M  V30 7124 H 654.764 0.318552 -3.02025 0
M  V30 7125 H 652.349 0.0912021 -1.49121 0
M  V30 7126 H 654.231 2.76622 -3.17897 0
M  V30 7127 H 652.906 2.54182 -2.00432 0
M  V30 7128 H 651.813 0.893182 -3.63281 0
M  V30 7129 H 653.146 1.19426 -4.77492 0
M  V30 7130 N 654.798 1.5699 0.138552 0
M  V30 7131 C 655.728 2.01933 1.17241 0
M  V30 7132 C 656.709 0.90033 1.44319 0
M  V30 7133 O 657.894 1.16872 1.55095 0
M  V30 7134 C 655.024 2.40711 2.50351 0
M  V30 7135 C 653.978 3.55874 2.37776 0
M  V30 7136 C 653.304 3.80491 3.75674 0
M  V30 7137 C 654.604 4.8826 1.85472 0
M  V30 7138 H 656.298 2.88551 0.798672 0
M  V30 7139 H 653.844 1.3882 0.382743 0
M  V30 7140 H 655.797 2.70754 3.22909 0
M  V30 7141 H 654.521 1.5104 2.89576 0
M  V30 7142 H 653.18 3.2601 1.67669 0
M  V30 7143 H 652.828 2.88057 4.12349 0
M  V30 7144 H 652.528 4.57998 3.68119 0
M  V30 7145 H 654.052 4.12967 4.49767 0
M  V30 7146 H 655.466 5.16965 2.4783 0
M  V30 7147 H 653.863 5.69631 1.88787 0
M  V30 7148 H 654.933 4.78071 0.810935 0
M  V30 7149 N 656.276 -0.40816 1.52223 0
M  V30 7150 C 657.206 -1.5042 1.78595 0
M  V30 7151 C 658.187 -1.57723 0.636974 0
M  V30 7152 O 659.372 -1.72982 0.882664 0
M  V30 7153 C 656.502 -2.88232 1.93751 0
M  V30 7154 C 655.456 -2.95779 3.09352 0
M  V30 7155 C 654.782 -4.35855 3.09732 0
M  V30 7156 C 656.082 -2.67175 4.48793 0
M  V30 7157 H 657.776 -1.28601 2.70374 0
M  V30 7158 H 655.322 -0.617221 1.30101 0
M  V30 7159 H 657.275 -3.64895 2.10783 0
M  V30 7160 H 655.999 -3.11347 0.986443 0
M  V30 7161 H 654.658 -2.21561 2.92072 0
M  V30 7162 H 654.306 -4.55981 2.12346 0
M  V30 7163 H 654.006 -4.41829 3.87377 0
M  V30 7164 H 655.53 -5.14451 3.28895 0
M  V30 7165 H 656.944 -3.3356 4.66273 0
M  V30 7166 H 655.341 -2.84523 5.28362 0
M  V30 7167 H 656.411 -1.62609 4.56822 0
M  V30 7168 N 657.755 -1.42862 -0.66545 0
M  V30 7169 C 658.985 -1.47032 -1.45138 0
M  V30 7170 C 659.393 -0.0829977 -1.89018 0
M  V30 7171 O 658.736 0.914551 -1.59316 0
M  V30 7172 C 658.798 -2.34302 -2.72659 0
M  V30 7173 C 658.462 -3.82034 -2.50796 0
M  V30 7174 C 659.459 -4.73453 -2.14799 0
M  V30 7175 C 657.144 -4.26397 -2.655 0
M  V30 7176 C 659.138 -6.07228 -1.93785 0
M  V30 7177 C 656.825 -5.6023 -2.44103 0
M  V30 7178 C 657.823 -6.50462 -2.08299 0
M  V30 7179 O 657.511 -7.8182 -1.87116 0
M  V30 7180 H 657.243 -0.501969 -0.452772 0
M  V30 7181 H 659.797 -1.88137 -0.82423 0
M  V30 7182 H 658.027 -1.88063 -3.37889 0
M  V30 7183 H 659.716 -2.29818 -3.34572 0
M  V30 7184 H 660.482 -4.4046 -2.03026 0
M  V30 7185 H 656.361 -3.56448 -2.92345 0
M  V30 7186 H 659.905 -6.7762 -1.65763 0
M  V30 7187 H 655.802 -5.92793 -2.55475 0
M  V30 7188 H 656.57 -7.93274 -2.01639 0
M  V30 7189 N 659.233 0.902656 -1.29189 0
M  V30 7190 C 660.649 1.18296 -1.07137 0
M  V30 7191 C 660.849 2.00701 0.179223 0
M  V30 7192 O 659.905 2.3675 0.877812 0
M  V30 7193 C 661.218 1.90677 -2.32514 0
M  V30 7194 C 662.766 2.03515 -2.37804 0
M  V30 7195 C 663.241 2.79307 -3.62976 0
M  V30 7196 N 664.732 2.86862 -3.63681 0
M  V30 7197 C 665.467 3.46035 -4.57217 0
M  V30 7198 N 664.963 4.06399 -5.61081 0
M  V30 7199 N 666.756 3.43681 -4.44792 0
M  V30 7200 H 658.907 0.352765 -2.0945 0
M  V30 7201 H 661.17 0.21876 -0.922414 0
M  V30 7202 H 660.876 1.3756 -3.23682 0
M  V30 7203 H 660.75 2.91169 -2.39793 0
M  V30 7204 H 663.137 2.55809 -1.47125 0
M  V30 7205 H 663.218 1.02166 -2.34512 0
M  V30 7206 H 662.862 2.2769 -4.54004 0
M  V30 7207 H 662.792 3.80995 -3.63525 0
M  V30 7208 H 665.283 2.43987 -2.88581 0
M  V30 7209 H 665.596 4.49564 -6.2858 0
M  V30 7210 H 663.941 4.0487 -5.64894 0
M  V30 7211 H 667.132 2.9574 -3.62843 0
M  V30 7212 H 667.305 3.89503 -5.17872 0
M  V30 7213 N 660.711 1.11618 1.11262 0
M  V30 7214 C 661.988 0.777876 1.79467 0
M  V30 7215 C 662.368 -0.733774 1.97937 0
M  V30 7216 O 661.716 -1.66443 1.56554 0
M  V30 7217 C 661.926 1.5431 3.13032 0
M  V30 7218 C 663.274 1.72357 3.88044 0
M  V30 7219 O 664.298 1.5075 3.22727 0
M  V30 7220 O 663.157 2.08276 5.05256 0
M  V30 7221 H 660.251 0.282018 0.777428 0
M  V30 7222 H 662.797 1.21971 1.17988 0
M  V30 7223 H 661.569 2.57132 2.94956 0
M  V30 7224 H 661.192 1.09495 3.82226 0
M  V30 7225 N 662.189 -1.289 0.906776 0
M  V30 7226 C 663.6 -1.77336 0.58384 0
M  V30 7227 C 663.951 -1.74304 -0.900697 0
M  V30 7228 O 663.076 -1.33335 -1.70443 0
M  V30 7229 C 663.671 -3.22019 1.05304 0
M  V30 7230 C 662.23 -3.68205 0.781148 0
M  V30 7231 C 661.377 -2.48837 1.22373 0
M  V30 7232 H 664.328 -1.15462 1.08877 0
M  V30 7233 H 664.349 -3.78481 0.391414 0
M  V30 7234 H 663.861 -3.24194 2.13353 0
M  V30 7235 H 661.962 -3.71497 -0.28643 0
M  V30 7236 H 662.075 -4.58675 1.384 0
M  V30 7237 H 660.439 -2.46461 0.642594 0
M  V30 7238 H 661.222 -2.53736 2.31242 0
M  V30 7239 N 663.667 -0.670007 -1.42649 0
M  V30 7240 C 665.083 -0.33911 -1.55956 0
M  V30 7241 C 665.283 1.1558 -1.65056 0
M  V30 7242 O 664.339 1.94111 -1.61485 0
M  V30 7243 C 665.652 -1.06522 -2.812 0
M  V30 7244 C 667.2 -1.04708 -2.94966 0
M  V30 7245 C 667.675 -1.75442 -4.23065 0
M  V30 7246 N 669.166 -1.72286 -4.29967 0
M  V30 7247 C 669.901 -2.23877 -5.27889 0
M  V30 7248 N 669.397 -2.83829 -6.31991 0
M  V30 7249 N 671.19 -2.14279 -5.19654 0
M  V30 7250 H 663.341 -1.6399 -1.34986 0
M  V30 7251 H 665.604 -0.690603 -0.649439 0
M  V30 7252 H 665.31 -2.12033 -2.80597 0
M  V30 7253 H 665.184 -0.627398 -3.71946 0
M  V30 7254 H 667.571 -0.000315966 -2.951 0
M  V30 7255 H 667.652 -1.52374 -2.05465 0
M  V30 7256 H 667.296 -2.80084 -4.23693 0
M  V30 7257 H 667.226 -1.25229 -5.11493 0
M  V30 7258 H 669.717 -1.28554 -3.55362 0
M  V30 7259 H 670.03 -3.20827 -7.03057 0
M  V30 7260 H 668.375 -2.87896 -6.32567 0
M  V30 7261 H 671.566 -1.67135 -4.37245 0
M  V30 7262 H 671.739 -2.54792 -5.95806 0
M  V30 7263 N 665.145 1.52092 -0.413018 0
M  V30 7264 C 666.373 2.06274 0.160881 0
M  V30 7265 C 666.788 1.28273 1.38533 0
M  V30 7266 O 666.145 0.33563 1.79387 0
M  V30 7267 C 666.196 3.57921 0.507443 0
M  V30 7268 O 665.917 4.32971 -0.668388 0
M  V30 7269 C 667.418 4.28533 1.13465 0
M  V30 7270 H 664.638 0.67074 0.0186759 0
M  V30 7271 H 667.182 1.95951 -0.585092 0
M  V30 7272 H 665.337 3.68238 1.20331 0
M  V30 7273 H 665.751 5.23135 -0.378169 0
M  V30 7274 H 667.225 5.35804 1.32732 0
M  V30 7275 H 667.702 3.85258 2.10886 0
M  V30 7276 H 668.308 4.22595 0.478876 0
M  V30 7277 N 666.623 0.143563 1.56945 0
M  V30 7278 C 667.57 -0.797433 2.16586 0
M  V30 7279 C 668.54 -1.24654 1.09775 0
M  V30 7280 O 669.725 -1.31968 1.37801 0
M  V30 7281 C 666.865 -2.03253 2.78895 0
M  V30 7282 C 665.978 -1.62954 4.00087 0
M  V30 7283 C 665.113 -2.81617 4.50406 0
M  V30 7284 C 664.152 -2.37675 5.64072 0
M  V30 7285 N 663.289 -3.49335 6.09023 0
M  V30 7286 H 668.129 -0.282023 2.96662 0
M  V30 7287 H 665.666 -0.127494 1.46546 0
M  V30 7288 H 667.624 -2.75653 3.13163 0
M  V30 7289 H 666.254 -2.52211 2.01469 0
M  V30 7290 H 665.306 -0.803322 3.71821 0
M  V30 7291 H 666.618 -1.26679 4.82446 0
M  V30 7292 H 665.772 -3.62212 4.86711 0
M  V30 7293 H 664.511 -3.21134 3.67048 0
M  V30 7294 H 663.516 -1.55519 5.27346 0
M  V30 7295 H 664.741 -1.99247 6.49213 0
M  V30 7296 H 662.687 -3.8848 5.28601 0
M  V30 7297 H 662.604 -3.17064 6.86299 0
M  V30 7298 H 663.872 -4.30297 6.49973 0
M  V30 7299 N 668.101 -1.57061 -0.130224 0
M  V30 7300 C 669.326 -1.88802 -0.858409 0
M  V30 7301 C 669.751 -0.734353 -1.73173 0
M  V30 7302 O 669.109 0.315529 -1.78533 0
M  V30 7303 C 669.157 -3.19228 -1.67708 0
M  V30 7304 O 668.261 -3.04343 -2.78297 0
M  V30 7305 H 667.602 -0.619849 -0.238083 0
M  V30 7306 H 670.132 -2.04271 -0.115995 0
M  V30 7307 H 670.142 -3.51669 -2.06864 0
M  V30 7308 H 668.817 -4.02793 -1.0359 0
M  V30 7309 H 667.394 -2.83346 -2.42425 0
M  V30 7310 N 669.579 0.400081 -1.52437 0
M  V30 7311 C 670.856 1.15973 -1.57511 0
M  V30 7312 C 671.236 2.0798 -0.361572 0
M  V30 7313 O 670.584 2.19032 0.650929 0
M  V30 7314 C 670.794 1.92912 -2.90837 0
M  V30 7315 C 672.142 2.48662 -3.44169 0
M  V30 7316 O 673.166 2.03081 -2.92637 0
M  V30 7317 O 672.025 3.31894 -4.34176 0
M  V30 7318 H 669.119 0.530023 -0.634827 0
M  V30 7319 H 671.665 0.40613 -1.64769 0
M  V30 7320 H 670.437 1.25564 -3.70607 0
M  V30 7321 H 670.06 2.75257 -2.86913 0
M  V30 7322 N 671.057 1.43213 0.657864 0
M  V30 7323 C 671.967 1.50448 1.80007 0
M  V30 7324 C 672.983 0.39191 1.69529 0
M  V30 7325 O 674.159 0.645349 1.90781 0
M  V30 7326 C 671.224 1.42062 3.16258 0
M  V30 7327 C 670.285 2.63951 3.38568 0
M  V30 7328 C 669.518 2.55956 4.68318 0
M  V30 7329 O 669.741 1.60473 5.47361 0
M  V30 7330 O 668.675 3.46378 4.92245 0
M  V30 7331 H 672.501 2.4689 1.76858 0
M  V30 7332 H 670.086 1.25163 0.81576 0
M  V30 7333 H 671.968 1.3981 3.97531 0
M  V30 7334 H 670.643 0.487524 3.20008 0
M  V30 7335 H 669.55 2.71776 2.57077 0
M  V30 7336 H 670.883 3.56217 3.39662 0
M  V30 7337 N 672.536 -0.895792 1.29666 0
M  V30 7338 C 673.468 -2.00563 1.10937 0
M  V30 7339 C 674.481 -1.62705 0.055734 0
M  V30 7340 O 675.67 -1.7595 0.300656 0
M  V30 7341 C 672.77 -3.32262 0.667448 0
M  V30 7342 C 671.943 -3.98625 1.80047 0
M  V30 7343 C 671.002 -5.08617 1.3489 0
M  V30 7344 O 670.028 -5.30837 2.05429 0
M  V30 7345 N 671.23 -5.80076 0.221937 0
M  V30 7346 H 673.995 -2.17184 2.06522 0
M  V30 7347 H 671.556 -1.06822 1.21658 0
M  V30 7348 H 673.548 -4.03196 0.348586 0
M  V30 7349 H 672.118 -3.11985 -0.196055 0
M  V30 7350 H 671.338 -3.21005 2.28801 0
M  V30 7351 H 672.626 -4.39704 2.56003 0
M  V30 7352 H 672.024 -5.64514 -0.366084 0
M  V30 7353 H 670.581 -6.51789 -0.0375346 0
M  V30 7354 N 674.014 -1.12206 -1.10668 0
M  V30 7355 C 675.26 -0.877172 -1.82848 0
M  V30 7356 C 675.593 0.595571 -1.84842 0
M  V30 7357 O 674.868 1.44013 -1.30731 0
M  V30 7358 C 675.151 -1.44957 -3.29635 0
M  V30 7359 C 675.004 -2.99051 -3.35989 0
M  V30 7360 C 676.323 -1.10714 -4.25946 0
M  V30 7361 H 673.442 -0.320103 -0.663854 0
M  V30 7362 H 676.084 -1.38827 -1.2972 0
M  V30 7363 H 674.234 -1.01488 -3.7501 0
M  V30 7364 H 675.906 -3.51182 -2.99113 0
M  V30 7365 H 674.149 -3.34705 -2.75962 0
M  V30 7366 H 674.82 -3.34194 -4.39339 0
M  V30 7367 H 677.296 -1.48254 -3.88793 0
M  V30 7368 H 676.172 -1.5343 -5.2702 0
M  V30 7369 H 676.433 -0.019 -4.42096 0
M  V30 7370 N 675.492 1.28418 -0.913599 0
M  V30 7371 C 676.402 2.31043 -0.406965 0
M  V30 7372 C 677.418 1.66501 0.505298 0
M  V30 7373 O 678.594 1.97558 0.391522 0
M  V30 7374 C 675.659 3.4498 0.344901 0
M  V30 7375 C 674.72 4.25078 -0.600563 0
M  V30 7376 C 673.953 5.33575 0.115516 0
M  V30 7377 O 674.176 5.54503 1.33727 0
M  V30 7378 O 673.11 5.9939 -0.549095 0
M  V30 7379 H 676.936 2.76387 -1.25873 0
M  V30 7380 H 674.521 1.33109 -0.678415 0
M  V30 7381 H 676.403 4.14314 0.769542 0
M  V30 7382 H 675.078 3.01719 1.1725 0
M  V30 7383 H 673.985 3.58334 -1.0746 0
M  V30 7384 H 675.318 4.72018 -1.39497 0
M  V30 7385 N 676.97 0.677563 1.42291 0
M  V30 7386 C 677.917 0.000947061 2.308 0
M  V30 7387 C 678.887 -0.789889 1.46116 0
M  V30 7388 O 680.072 -0.761578 1.74942 0
M  V30 7389 C 677.212 -0.942387 3.31984 0
M  V30 7390 C 676.325 -0.14508 4.31756 0
M  V30 7391 C 675.46 -1.08442 5.20013 0
M  V30 7392 C 674.499 -0.278958 6.11464 0
M  V30 7393 N 673.636 -1.17115 6.92263 0
M  V30 7394 H 678.476 0.761521 2.88106 0
M  V30 7395 H 676.013 0.38727 1.41911 0
M  V30 7396 H 677.971 -1.50317 3.89179 0
M  V30 7397 H 676.601 -1.66956 2.76271 0
M  V30 7398 H 675.653 0.532368 3.76656 0
M  V30 7399 H 676.965 0.48015 4.96484 0
M  V30 7400 H 676.119 -1.71504 5.81955 0
M  V30 7401 H 674.858 -1.74353 4.55469 0
M  V30 7402 H 673.863 0.364856 5.48588 0
M  V30 7403 H 675.088 0.376099 6.78058 0
M  V30 7404 H 673.034 -1.81661 6.30345 0
M  V30 7405 H 672.951 -0.601063 7.53607 0
M  V30 7406 H 674.219 -1.78915 7.58689 0
M  V30 7407 N 678.448 -1.51871 0.421078 0
M  V30 7408 C 679.694 -2.02237 -0.151014 0
M  V30 7409 C 680.027 -1.30554 -1.43768 0
M  V30 7410 O 679.302 -0.41546 -1.90011 0
M  V30 7411 C 679.585 -3.5802 -0.386482 0
M  V30 7412 C 679.438 -4.40339 0.9177 0
M  V30 7413 C 680.757 -4.24444 -1.16342 0
M  V30 7414 H 677.876 -0.735062 -0.0534102 0
M  V30 7415 H 680.518 -1.81656 0.556888 0
M  V30 7416 H 678.668 -3.75688 -0.989494 0
M  V30 7417 H 680.34 -4.34357 1.55344 0
M  V30 7418 H 678.583 -4.06073 1.526 0
M  V30 7419 H 679.254 -5.47451 0.707187 0
M  V30 7420 H 681.73 -4.10948 -0.652788 0
M  V30 7421 H 680.606 -5.33358 -1.29693 0
M  V30 7422 H 680.867 -3.84204 -2.18724 0
M  V30 7423 N 679.926 -0.151884 -1.56866 0
M  V30 7424 C 681.175 0.497992 -1.95456 0
M  V30 7425 C 681.488 1.6569 -1.03953 0
M  V30 7426 O 682.694 2.37173 -1.32142 0
M  V30 7427 C 681.15 0.93732 -3.4748 0
M  V30 7428 C 680.758 -0.194921 -4.47576 0
M  V30 7429 C 682.502 1.55671 -3.94926 0
M  V30 7430 C 680.409 0.26295 -5.90815 0
M  V30 7431 H 679.339 0.189811 -0.729717 0
M  V30 7432 H 681.99 -0.237011 -1.81963 0
M  V30 7433 H 680.372 1.72773 -3.56322 0
M  V30 7434 H 681.546 -0.971951 -4.50433 0
M  V30 7435 H 679.861 -0.72303 -4.10075 0
M  V30 7436 H 682.458 1.91099 -4.99385 0
M  V30 7437 H 682.801 2.44748 -3.36755 0
M  V30 7438 H 683.334 0.831109 -3.89021 0
M  V30 7439 H 680.073 -0.592568 -6.52816 0
M  V30 7440 H 679.593 1.00575 -5.91308 0
M  V30 7441 H 681.272 0.713333 -6.43056 0
M  V30 7442 N 681.404 1.57128 0.121893 0
M  V30 7443 C 682.314 2.03425 1.16857 0
M  V30 7444 C 683.33 0.954108 1.45509 0
M  V30 7445 O 684.506 1.26541 1.56682 0
M  V30 7446 C 681.571 2.42685 2.47599 0
M  V30 7447 C 680.632 3.64767 2.2637 0
M  V30 7448 C 679.865 4.02145 3.50878 0
M  V30 7449 O 680.088 3.39897 4.58068 0
M  V30 7450 O 679.022 4.95262 3.42051 0
M  V30 7451 H 682.848 2.92825 0.80544 0
M  V30 7452 H 680.433 1.45654 0.332477 0
M  V30 7453 H 682.315 2.68684 3.24634 0
M  V30 7454 H 680.99 1.56432 2.83392 0
M  V30 7455 H 679.897 3.43922 1.47203 0
M  V30 7456 H 681.23 4.51716 1.95482 0
M  V30 7457 N 682.882 -0.391992 1.52647 0
M  V30 7458 C 683.792 -1.503 1.80131 0
M  V30 7459 C 684.808 -1.59825 0.687882 0
M  V30 7460 O 685.984 -1.76218 0.975149 0
M  V30 7461 C 683.049 -2.85863 1.96171 0
M  V30 7462 C 682.11 -2.86084 3.20085 0
M  V30 7463 C 681.343 -4.15181 3.35351 0
M  V30 7464 O 681.566 -5.09981 2.55491 0
M  V30 7465 O 680.5 -4.22603 4.28591 0
M  V30 7466 H 684.326 -1.30007 2.74466 0
M  V30 7467 H 681.911 -0.579539 1.37701 0
M  V30 7468 H 683.793 -3.66236 2.08445 0
M  V30 7469 H 682.468 -3.06189 1.05025 0
M  V30 7470 H 681.375 -2.04504 3.13256 0
M  V30 7471 H 682.708 -2.7071 4.11068 0
M  V30 7472 N 684.36 -1.4356 -0.65026 0
M  V30 7473 C 685.609 -1.44619 -1.406 0
M  V30 7474 C 685.922 -0.0752645 -1.95455 0
M  V30 7475 O 687.128 0.0366832 -2.71475 0
M  V30 7476 C 685.584 -2.54511 -2.54465 0
M  V30 7477 C 685.192 -3.97723 -2.06204 0
M  V30 7478 C 686.936 -2.64768 -3.31811 0
M  V30 7479 C 684.843 -4.99075 -3.17298 0
M  V30 7480 H 683.773 -0.537983 -0.52829 0
M  V30 7481 H 686.424 -1.69559 -0.701561 0
M  V30 7482 H 684.806 -2.22777 -3.27393 0
M  V30 7483 H 685.98 -4.38932 -1.40267 0
M  V30 7484 H 684.295 -3.91538 -1.41729 0
M  V30 7485 H 686.892 -3.37664 -4.14593 0
M  V30 7486 H 687.235 -1.69936 -3.80036 0
M  V30 7487 H 687.768 -2.95817 -2.65964 0
M  V30 7488 H 684.507 -5.95469 -2.74038 0
M  V30 7489 H 684.027 -4.62476 -3.81937 0
M  V30 7490 H 685.706 -5.21913 -3.82382 0
M  V30 7491 N 685.838 0.888903 -1.30139 0
M  V30 7492 C 686.768 2.01046 -1.18755 0
M  V30 7493 C 687.749 1.69916 -0.0791438 0
M  V30 7494 O 688.934 1.92445 -0.260498 0
M  V30 7495 C 686.064 3.36109 -0.874518 0
M  V30 7496 C 685.018 3.81486 -1.94043 0
M  V30 7497 C 684.344 5.13796 -1.48047 0
M  V30 7498 C 685.644 4.00637 -3.35093 0
M  V30 7499 H 687.338 2.10828 -2.12584 0
M  V30 7500 H 684.884 1.01298 -1.02346 0
M  V30 7501 H 686.837 4.14089 -0.781548 0
M  V30 7502 H 685.561 3.26449 0.0994519 0
M  V30 7503 H 684.22 3.05731 -2.02297 0
M  V30 7504 H 683.868 5.0056 -0.494878 0
M  V30 7505 H 683.568 5.45127 -2.19341 0
M  V30 7506 H 685.092 5.94305 -1.40121 0
M  V30 7507 H 686.506 4.69067 -3.2962 0
M  V30 7508 H 684.903 4.43339 -4.04438 0
M  V30 7509 H 685.973 3.0462 -3.77273 0
M  V30 7510 N 687.317 1.12792 1.10072 0
M  V30 7511 C 688.28 0.802264 2.14701 0
M  V30 7512 C 689.28 -0.18515 1.59731 0
M  V30 7513 O 690.47 0.041109 1.74151 0
M  V30 7514 C 687.602 0.19285 3.40354 0
M  V30 7515 H 688.795 1.72932 2.45019 0
M  V30 7516 H 686.348 0.931662 1.25498 0
M  V30 7517 H 687.083 -0.743748 3.15656 0
M  V30 7518 H 686.868 0.903827 3.81541 0
M  V30 7519 H 688.358 -0.0183704 4.17596 0
M  V30 7520 N 688.795 -1.27931 0.920396 0
M  V30 7521 C 689.725 -2.29487 0.431024 0
M  V30 7522 C 690.706 -1.62435 -0.504861 0
M  V30 7523 O 691.891 -1.89797 -0.411176 0
M  V30 7524 C 689.021 -3.45788 -0.323709 0
M  V30 7525 C 687.975 -4.24784 0.523658 0
M  V30 7526 C 687.301 -5.33488 -0.359809 0
M  V30 7527 C 688.601 -4.90874 1.78437 0
M  V30 7528 H 690.295 -2.70671 1.27975 0
M  V30 7529 H 687.841 -1.30121 0.616813 0
M  V30 7530 H 689.794 -4.15927 -0.676952 0
M  V30 7531 H 688.518 -3.03502 -1.2064 0
M  V30 7532 H 687.177 -3.56382 0.85951 0
M  V30 7533 H 686.825 -4.87445 -1.24124 0
M  V30 7534 H 686.525 -5.87247 0.203605 0
M  V30 7535 H 688.049 -6.06472 -0.708787 0
M  V30 7536 H 689.463 -5.53339 1.49963 0
M  V30 7537 H 687.86 -5.54659 2.29071 0
M  V30 7538 H 688.93 -4.14988 2.50824 0
M  V30 7539 N 690.273 -0.685099 -1.4193 0
M  V30 7540 C 691.684 -0.287699 -1.8447 0
M  V30 7541 C 692.035 1.17215 -1.57338 0
M  V30 7542 O 691.16 1.89856 -1.03845 0
M  V30 7543 C 691.755 -0.515385 -3.34857 0
M  V30 7544 C 690.314 -0.172006 -3.76007 0
M  V30 7545 C 689.461 -0.802808 -2.65425 0
M  V30 7546 H 692.412 -0.88652 -1.3163 0
M  V30 7547 H 692.433 0.229251 -3.79809 0
M  V30 7548 H 691.945 -1.57796 -3.54573 0
M  V30 7549 H 690.046 0.886716 -3.61895 0
M  V30 7550 H 690.159 -0.619717 -4.75075 0
M  V30 7551 H 688.523 -0.233267 -2.5363 0
M  V30 7552 H 689.306 -1.86904 -2.87961 0
M  V30 7553 N 691.751 1.51645 -0.429126 0
M  V30 7554 C 692.661 2.31288 0.392809 0
M  V30 7555 C 693.677 1.39852 1.03525 0
M  V30 7556 O 694.853 1.72926 1.03241 0
M  V30 7557 C 691.918 3.13347 1.48372 0
M  V30 7558 C 690.979 4.20551 0.862268 0
M  V30 7559 C 690.212 4.98688 1.9012 0
M  V30 7560 O 690.435 4.77359 3.12225 0
M  V30 7561 O 689.369 5.83005 1.4963 0
M  V30 7562 H 693.195 3.02609 -0.257138 0
M  V30 7563 H 690.78 1.48163 -0.191851 0
M  V30 7564 H 692.662 3.64387 2.1166 0
M  V30 7565 H 691.337 2.44799 2.1179 0
M  V30 7566 H 690.244 3.73609 0.191568 0
M  V30 7567 H 691.577 4.91449 0.271704 0
M  V30 7568 N 693.229 0.160201 1.56784 0
M  V30 7569 C 694.177 -0.791402 2.18723 0
M  V30 7570 C 695.171 -1.24567 1.14801 0
M  V30 7571 O 696.377 -1.21262 1.33025 0
M  V30 7572 H 692.752 -0.273458 0.700517 0
M  V30 7573 H 694.723 -0.244931 2.97393 0
M  V30 7574 C 693.472 -2.01509 2.83354 0
M  V30 7575 H 692.795 -1.67454 3.63041 0
M  V30 7576 H 694.235 -2.66006 3.30177 0
M  V30 7577 C 692.694 -2.83159 1.82545 0
M  V30 7578 O 693.224 -3.79944 1.30405 0
M  V30 7579 N 691.43 -2.47953 1.51552 0
M  V30 7580 H 690.977 -1.69309 1.94144 0
M  V30 7581 H 690.935 -3.02873 0.843519 0
M  V30 7582 N 694.707 -1.5719 -0.113559 0
M  V30 7583 C 695.617 -2.04041 -1.15777 0
M  V30 7584 C 696.633 -0.961812 -1.45001 0
M  V30 7585 O 697.809 -1.2737 -1.56009 0
M  V30 7586 C 694.874 -2.43994 -2.46308 0
M  V30 7587 C 693.935 -3.65962 -2.24433 0
M  V30 7588 C 693.168 -4.04 -3.4874 0
M  V30 7589 O 693.391 -3.42321 -4.56259 0
M  V30 7590 O 692.325 -4.97069 -3.3942 0
M  V30 7591 H 696.151 -2.93248 -0.789899 0
M  V30 7592 H 693.736 -1.45828 -0.324748 0
M  V30 7593 H 695.618 -2.70401 -3.23204 0
M  V30 7594 H 694.293 -1.57932 -2.82558 0
M  V30 7595 H 693.2 -3.44697 -1.45377 0
M  V30 7596 H 694.533 -4.52746 -1.93084 0
M  V30 7597 N 696.185 0.383891 -1.52853 0
M  V30 7598 C 697.095 1.49343 -1.80925 0
M  V30 7599 C 698.111 1.59458 -0.696348 0
M  V30 7600 O 699.287 1.75698 -0.984481 0
M  V30 7601 C 696.352 2.84819 -1.97684 0
M  V30 7602 C 695.413 2.84382 -3.21598 0
M  V30 7603 C 694.646 4.13397 -3.37548 0
M  V30 7604 O 694.869 5.08619 -2.58192 0
M  V30 7605 O 693.803 4.20325 -4.30826 0
M  V30 7606 H 697.629 1.2855 -2.75152 0
M  V30 7607 H 695.214 0.572229 -1.38007 0
M  V30 7608 H 697.096 3.65125 -2.10385 0
M  V30 7609 H 695.771 3.05627 -1.06647 0
M  V30 7610 H 694.678 2.0284 -3.14336 0
M  V30 7611 H 696.011 2.68526 -4.12498 0
M  V30 7612 N 697.663 1.43903 0.642637 0
M  V30 7613 C 698.596 1.44339 1.76753 0
M  V30 7614 C 699.574 0.303558 1.59741 0
M  V30 7615 O 700.758 0.498775 1.81781 0
M  V30 7616 C 697.885 1.26508 3.14187 0
M  V30 7617 C 696.931 2.43905 3.49875 0
M  V30 7618 S 697.764 4.0645 3.48653 0
M  V30 7619 C 698.92 3.91021 4.88726 0
M  V30 7620 H 699.153 2.39523 1.76113 0
M  V30 7621 H 696.686 1.31061 0.81623 0
M  V30 7622 H 698.644 1.16908 3.93501 0
M  V30 7623 H 697.305 0.328548 3.12377 0
M  V30 7624 H 696.498 2.27262 4.49853 0
M  V30 7625 H 696.1 2.50186 2.77998 0
M  V30 7626 H 698.392 3.54 5.77659 0
M  V30 7627 H 699.335 4.9079 5.10423 0
M  V30 7628 H 699.743 3.23287 4.62759 0
M  V30 7629 N 699.141 -0.881989 1.30609 0
M  V30 7630 C 700.557 -1.16576 1.09005 0
M  V30 7631 C 700.757 -2.00961 -0.14727 0
M  V30 7632 O 699.813 -2.38117 -0.840036 0
M  V30 7633 C 701.126 -1.86954 2.35518 0
M  V30 7634 C 702.674 -1.99706 2.41011 0
M  V30 7635 C 703.149 -2.73497 3.67374 0
M  V30 7636 N 704.64 -2.8104 3.68199 0
M  V30 7637 C 705.375 -3.38718 4.62664 0
M  V30 7638 N 704.871 -3.97421 5.67475 0
M  V30 7639 N 706.664 -3.36561 4.50203 0
M  V30 7640 H 698.815 -0.319398 2.09985 0
M  V30 7641 H 701.078 -0.204058 0.925778 0
M  V30 7642 H 700.784 -1.32393 3.2583 0
M  V30 7643 H 700.658 -2.87317 2.44395 0
M  V30 7644 H 703.045 -2.53436 1.51176 0
M  V30 7645 H 703.126 -0.984218 2.36108 0
M  V30 7646 H 702.77 -2.20438 4.57569 0
M  V30 7647 H 702.7 -3.75163 3.6954 0
M  V30 7648 H 705.191 -2.39365 2.92426 0
M  V30 7649 H 705.504 -4.39507 6.35652 0
M  V30 7650 H 703.849 -3.95832 5.71264 0
M  V30 7651 H 707.04 -2.8993 3.67503 0
M  V30 7652 H 707.213 -3.81215 5.24003 0
M  V30 7653 N 700.619 -1.13374 -1.09472 0
M  V30 7654 C 701.566 -0.810682 -2.16094 0
M  V30 7655 C 702.536 0.227003 -1.64541 0
M  V30 7656 O 703.721 0.0993538 -1.90541 0
M  V30 7657 C 700.861 -0.282336 -3.43943 0
M  V30 7658 C 699.974 -1.37902 -4.09398 0
M  V30 7659 C 699.109 -0.809066 -5.25002 0
M  V30 7660 C 698.148 -1.88419 -5.82379 0
M  V30 7661 N 697.285 -1.33221 -6.89345 0
M  V30 7662 H 702.125 -1.72397 -2.43071 0
M  V30 7663 H 699.662 -0.860564 -1.19301 0
M  V30 7664 H 701.62 0.0421189 -4.17179 0
M  V30 7665 H 700.25 0.594083 -3.17286 0
M  V30 7666 H 699.302 -1.82008 -3.34032 0
M  V30 7667 H 700.614 -2.19161 -4.48074 0
M  V30 7668 H 699.768 -0.435867 -6.05132 0
M  V30 7669 H 698.507 0.0346058 -4.87688 0
M  V30 7670 H 697.512 -2.26646 -5.00911 0
M  V30 7671 H 698.737 -2.73125 -6.21755 0
M  V30 7672 H 696.683 -0.510535 -6.5401 0
M  V30 7673 H 696.6 -2.08129 -7.26786 0
M  V30 7674 H 697.868 -0.986565 -7.73232 0
M  V30 7675 N 702.098 1.27442 -0.927168 0
M  V30 7676 C 703.048 2.24519 -0.396878 0
M  V30 7677 C 704.032 1.52981 0.498555 0
M  V30 7678 O 705.224 1.7378 0.336087 0
M  V30 7679 C 702.353 3.41514 0.349694 0
M  V30 7680 C 701.439 4.20357 -0.562226 0
M  V30 7681 N 701.83 4.7702 -1.68182 0
M  V30 7682 C 700.128 4.44503 -0.365135 0
M  V30 7683 C 700.829 5.36467 -2.24895 0
M  V30 7684 N 699.805 5.21371 -1.5386 0
M  V30 7685 H 703.607 2.65911 -1.25173 0
M  V30 7686 H 701.121 1.42366 -0.78138 0
M  V30 7687 H 703.118 4.10161 0.746536 0
M  V30 7688 H 701.778 3.01653 1.20148 0
M  V30 7689 H 702.789 4.74985 -2.06421 0
M  V30 7690 H 699.466 4.15111 0.446037 0
M  V30 7691 H 700.856 5.91264 -3.1915 0
M  V30 7692 N 703.576 0.692616 1.41565 0
M  V30 7693 C 704.806 0.230943 2.05305 0
M  V30 7694 C 705.214 -1.12379 1.52209 0
M  V30 7695 O 704.557 -1.71281 0.663968 0
M  V30 7696 C 704.619 0.107894 3.59338 0
M  V30 7697 C 704.283 1.39419 4.35214 0
M  V30 7698 C 705.28 2.33143 4.64694 0
M  V30 7699 C 702.965 1.64674 4.74539 0
M  V30 7700 C 704.959 3.50385 5.32456 0
M  V30 7701 C 702.646 2.82202 5.42038 0
M  V30 7702 C 703.644 3.74881 5.70923 0
M  V30 7703 O 703.332 4.90351 6.37033 0
M  V30 7704 H 703.064 0.105708 0.667684 0
M  V30 7705 H 705.618 0.94488 1.82376 0
M  V30 7706 H 703.848 -0.661785 3.80995 0
M  V30 7707 H 705.537 -0.316213 4.04666 0
M  V30 7708 H 706.303 2.14887 4.34797 0
M  V30 7709 H 702.182 0.934007 4.51439 0
M  V30 7710 H 705.726 4.22743 5.54918 0
M  V30 7711 H 701.623 3.00376 5.71353 0
M  V30 7712 H 702.391 4.90128 6.55528 0
M  V30 7713 N 705.054 -1.51416 0.437162 0
M  V30 7714 C 705.984 -2.30631 -0.364922 0
M  V30 7715 C 706.965 -1.36037 -1.02118 0
M  V30 7716 O 708.15 -1.64956 -1.02485 0
M  V30 7717 C 705.28 -3.1482 -1.46648 0
M  V30 7718 C 704.234 -4.17691 -0.933717 0
M  V30 7719 C 703.56 -4.904 -2.13101 0
M  V30 7720 C 704.86 -5.2229 0.0317201 0
M  V30 7721 H 706.554 -2.97932 0.29614 0
M  V30 7722 H 704.1 -1.4328 0.143865 0
M  V30 7723 H 706.053 -3.69017 -2.03481 0
M  V30 7724 H 704.777 -2.4534 -2.15583 0
M  V30 7725 H 703.436 -3.64545 -0.387602 0
M  V30 7726 H 703.084 -4.17423 -2.80654 0
M  V30 7727 H 702.784 -5.59962 -1.78092 0
M  V30 7728 H 704.308 -5.4742 -2.70487 0
M  V30 7729 H 705.722 -5.7156 -0.446302 0
M  V30 7730 H 704.119 -5.99378 0.29437 0
M  V30 7731 H 705.189 -4.75131 0.968447 0
M  V30 7732 N 706.532 -0.168513 -1.56696 0
M  V30 7733 C 707.479 0.762875 -2.17828 0
M  V30 7734 C 708.449 1.22892 -1.11745 0
M  V30 7735 O 709.634 1.29759 -1.39883 0
M  V30 7736 C 706.774 1.9879 -2.82093 0
M  V30 7737 C 705.887 1.56568 -4.02629 0
M  V30 7738 C 705.022 2.74416 -4.54829 0
M  V30 7739 C 704.061 2.28671 -5.67782 0
M  V30 7740 N 703.198 3.39602 -6.14504 0
M  V30 7741 H 708.038 0.23479 -2.97074 0
M  V30 7742 H 705.575 0.104163 -1.46731 0
M  V30 7743 H 707.533 2.70636 -3.17509 0
M  V30 7744 H 706.163 2.48973 -2.05456 0
M  V30 7745 H 705.215 0.744067 -3.73052 0
M  V30 7746 H 706.527 1.18988 -4.844 0
M  V30 7747 H 705.681 3.54423 -4.92412 0
M  V30 7748 H 704.42 3.15254 -3.7211 0
M  V30 7749 H 703.425 1.4711 -5.29753 0
M  V30 7750 H 704.65 1.88894 -6.52301 0
M  V30 7751 H 702.596 3.80021 -5.34715 0
M  V30 7752 H 702.513 3.06105 -6.91257 0
M  V30 7753 H 703.781 4.19902 -6.56737 0
M  V30 7754 N 708.01 1.57248 0.105221 0
M  V30 7755 C 709.426 1.52853 0.459153 0
M  V30 7756 C 709.626 0.883674 1.8109 0
M  V30 7757 O 708.682 0.471864 2.48052 0
M  V30 7758 C 709.995 2.97596 0.43096 0
M  V30 7759 C 711.543 3.08758 0.513536 0
M  V30 7760 C 712.018 4.55089 0.515593 0
M  V30 7761 N 713.509 4.59597 0.576639 0
M  V30 7762 C 714.244 5.70253 0.599904 0
M  V30 7763 N 713.74 6.90368 0.579985 0
M  V30 7764 N 715.533 5.58399 0.643953 0
M  V30 7765 H 707.684 1.97547 -0.780306 0
M  V30 7766 H 709.947 0.902758 -0.289363 0
M  V30 7767 H 709.653 3.48201 -0.494903 0
M  V30 7768 H 709.527 3.55756 1.2537 0
M  V30 7769 H 711.914 2.58148 1.42982 0
M  V30 7770 H 711.995 2.53568 -0.337148 0
M  V30 7771 H 711.639 5.06348 -0.396701 0
M  V30 7772 H 711.569 5.08105 1.38335 0
M  V30 7773 H 714.06 3.73144 0.597639 0
M  V30 7774 H 714.373 7.70462 0.600741 0
M  V30 7775 H 712.718 6.92843 0.547191 0
M  V30 7776 H 715.909 4.63467 0.656975 0
M  V30 7777 H 716.082 6.44644 0.658616 0
M  V30 7778 O 709.527 -0.249352 1.59563 0
M  V30 7779 H 710.218 -0.892778 1.71899 0
M  V30 END ATOM
M  V30 BEGIN BOND
M  V30 END BOND
M  V30 END CTAB
M  END
$$$$
