drugbank_target|P67910 ADP-L-glycero-D-manno-heptose-6-epimerase (DB01774; DB03461)
 OpenBabel12092119523D

  0  0  0     0  0            999 V3000
M  V30 BEGIN CTAB
M  V30 COUNTS 4825 4883 0 0 0
M  V30 BEGIN ATOM
M  V30 1 H -0.908 1.98254 -0.117106 0
M  V30 2 N 0 1.576 0 0
M  V30 3 C 0.933 2.03868 1.02534 0
M  V30 4 C 1.911 0.928543 1.3348 0
M  V30 5 O 3.095 1.19667 1.45644 0
M  V30 6 C 0.222 2.43627 2.35294 0
M  V30 7 C -0.732 3.65373 2.2001 0
M  V30 8 S 0.101 5.13292 1.52614 0
M  V30 9 C 1.257 5.56322 2.86805 0
M  V30 10 H 1.49 2.90518 0.631377 0
M  V30 11 H -0.977 1.52953 0.210867 0
M  V30 12 H 0.981 2.67203 3.11629 0
M  V30 13 H -0.358 1.57376 2.7183 0
M  V30 14 H -1.165 3.90944 3.18086 0
M  V30 15 H -1.563 3.418 1.51819 0
M  V30 16 H 0.729 5.58782 3.83104 0
M  V30 17 H 1.672 6.56266 2.65933 0
M  V30 18 H 2.08 4.83886 2.90714 0
M  V30 19 N 1.4781 -0.272755 1.55222 0
M  V30 20 C 2.7271 -1.00211 1.75045 0
M  V30 21 C 3.0401 -1.87441 0.559046 0
M  V30 22 O 4.2461 -2.63856 0.639698 0
M  V30 23 C 2.7021 -1.83165 3.09804 0
M  V30 24 C 2.3101 -1.008 4.36513 0
M  V30 25 C 4.0541 -2.55529 3.38977 0
M  V30 26 C 1.9611 -1.83194 5.62311 0
M  V30 27 H 0.8911 -0.377878 0.652476 0
M  V30 28 H 3.5421 -0.257776 1.8168 0
M  V30 29 H 1.9241 -2.61694 2.97207 0
M  V30 30 H 3.0981 -0.266855 4.60027 0
M  V30 31 H 1.4131 -0.398897 4.14485 0
M  V30 32 H 4.0101 -3.17578 4.30172 0
M  V30 33 H 4.3531 -3.25825 2.59121 0
M  V30 34 H 4.8861 -1.84029 3.52673 0
M  V30 35 H 1.6251 -1.17318 6.44916 0
M  V30 36 H 1.1451 -2.54905 5.4294 0
M  V30 37 H 2.8241 -2.40552 6.00619 0
M  V30 38 N 2.9562 -1.48159 -0.537278 0
M  V30 39 C 4.2052 -1.5506 -1.28993 0
M  V30 40 C 4.5182 -0.226211 -1.94288 0
M  V30 41 O 5.7242 -0.173395 -2.70946 0
M  V30 42 C 4.1802 -2.73429 -2.34018 0
M  V30 43 C 3.7882 -4.1248 -1.74825 0
M  V30 44 C 5.5322 -2.89638 -3.10339 0
M  V30 45 C 3.4392 -5.22121 -2.77747 0
M  V30 46 H 2.3692 -0.577231 -0.485098 0
M  V30 47 H 5.0202 -1.74478 -0.568317 0
M  V30 48 H 3.4022 -2.47431 -3.09182 0
M  V30 49 H 4.5762 -4.48466 -1.05899 0
M  V30 50 H 2.8912 -4.01327 -1.11022 0
M  V30 51 H 5.4882 -3.68718 -3.87235 0
M  V30 52 H 5.8312 -1.9882 -3.65754 0
M  V30 53 H 6.3642 -3.15502 -2.42288 0
M  V30 54 H 3.1032 -6.1488 -2.27161 0
M  V30 55 H 2.6232 -4.90631 -3.45024 0
M  V30 56 H 4.3022 -5.49924 -3.4087 0
M  V30 57 N 4.4343 0.785586 -1.36625 0
M  V30 58 C 5.6803 1.54591 -1.31261 0
M  V30 59 C 6.0133 1.93906 0.106823 0
M  V30 60 O 5.2883 1.63007 1.06108 0
M  V30 61 C 5.5713 2.82038 -2.23889 0
M  V30 62 C 5.4243 2.49066 -3.74548 0
M  V30 63 C 6.7433 3.83887 -2.15217 0
M  V30 64 H 3.8623 0.560846 -0.478143 0
M  V30 65 H 6.5043 0.902278 -1.67209 0
M  V30 66 H 4.6543 3.36961 -1.93363 0
M  V30 67 H 6.3263 2.00164 -4.15611 0
M  V30 68 H 4.5693 1.81954 -3.93796 0
M  V30 69 H 5.2403 3.40109 -4.34776 0
M  V30 70 H 7.7163 3.38421 -2.42096 0
M  V30 71 H 6.5923 4.70806 -2.82193 0
M  V30 72 H 6.8533 4.27131 -1.14068 0
M  V30 73 N 5.9124 1.20967 1.01018 0
M  V30 74 C 7.1404 1.04956 1.78303 0
M  V30 75 C 7.5554 -0.400915 1.84494 0
M  V30 76 O 6.9124 -1.27826 1.30257 0
M  V30 77 C 6.9634 1.63403 3.22462 0
M  V30 78 O 6.6844 3.02775 3.16637 0
M  V30 79 C 8.1854 1.52432 4.16268 0
M  V30 80 H 5.4054 0.368858 0.560522 0
M  V30 81 H 7.9494 1.60193 1.27116 0
M  V30 82 H 6.1044 1.1227 3.70775 0
M  V30 83 H 6.5184 3.30626 4.07169 0
M  V30 84 H 7.9924 1.98078 5.15237 0
M  V30 85 H 8.4694 0.477875 4.36592 0
M  V30 86 H 9.0754 2.02787 3.73841 0
M  V30 87 N 7.3905 -1.2043 1.01659 0
M  V30 88 C 8.6385 -1.89423 0.704522 0
M  V30 89 C 8.9595 -1.79231 -0.768197 0
M  V30 90 O 8.2295 -1.1947 -1.55254 0
M  V30 91 H 6.8095 -0.701178 0.257602 0
M  V30 92 H 9.4715 -1.4626 1.28818 0
M  V30 93 H 8.5675 -2.96052 0.987916 0
M  V30 94 N 8.8686 -0.792821 -1.36206 0
M  V30 95 C 10.1166 -0.366062 -1.98757 0
M  V30 96 C 10.4376 1.0668 -1.63231 0
M  V30 97 O 9.7076 1.73587 -0.907978 0
M  V30 98 H 8.2876 -0.132364 -0.735179 0
M  V30 99 H 10.9496 -1.01562 -1.66347 0
M  V30 100 H 10.0456 -0.460638 -3.08682 0
M  V30 101 N 10.3467 1.47872 -0.545128 0
M  V30 102 C 11.3097 2.28337 0.198717 0
M  V30 103 C 12.3097 1.36255 0.853888 0
M  V30 104 O 13.4997 1.59003 0.711606 0
M  V30 105 C 10.6317 3.15585 1.28915 0
M  V30 106 H 11.8247 2.95567 -0.507941 0
M  V30 107 H 9.3777 1.53362 -0.301616 0
M  V30 108 H 10.1127 2.53019 2.02859 0
M  V30 109 H 9.8977 3.83337 0.824309 0
M  V30 110 H 11.3877 3.76243 1.81194 0
M  V30 111 N 11.8248 0.280983 1.55075 0
M  V30 112 C 13.0728 -0.333455 1.9933 0
M  V30 113 C 13.3938 -1.55937 1.17085 0
M  V30 114 O 12.6638 -1.94143 0.261805 0
M  V30 115 H 11.2438 -0.126197 0.736263 0
M  V30 116 H 13.9058 0.387678 1.91005 0
M  V30 117 H 13.0018 -0.619292 3.05894 0
M  V30 118 N 13.3029 -1.57598 0.00835791 0
M  V30 119 C 14.5499 -1.90928 -0.674732 0
M  V30 120 C 14.8779 -0.88277 -1.73313 0
M  V30 121 O 14.1329 0.111294 -1.95383 0
M  V30 122 C 14.4319 -3.3101 -1.34787 0
M  V30 123 C 14.0979 -4.48922 -0.421861 0
M  V30 124 C 12.7599 -4.8091 -0.166927 0
M  V30 125 C 15.1119 -5.20755 0.215211 0
M  V30 126 C 12.4399 -5.821 0.733232 0
M  V30 127 C 14.7919 -6.22905 1.1033 0
M  V30 128 C 13.4559 -6.53346 1.36733 0
M  V30 129 H 12.7259 -0.698656 -0.246902 0
M  V30 130 H 15.3729 -1.91387 0.0656779 0
M  V30 131 H 13.6779 -3.26714 -2.16253 0
M  V30 132 H 15.3749 -3.54061 -1.8826 0
M  V30 133 H 11.9649 -4.23934 -0.630729 0
M  V30 134 H 16.1489 -4.9629 0.0312829 0
M  V30 135 H 11.4049 -6.04042 0.945712 0
M  V30 136 H 15.5789 -6.77694 1.60325 0
M  V30 137 H 13.2059 -7.31573 2.06652 0
M  V30 138 N 14.781 0.264519 -1.55364 0
M  V30 139 C 16.03 0.992812 -1.75574 0
M  V30 140 C 16.343 1.87142 -0.568979 0
M  V30 141 O 17.549 2.63513 -0.653682 0
M  V30 142 C 16.005 1.81519 -3.10771 0
M  V30 143 C 15.613 0.984839 -4.37041 0
M  V30 144 C 17.357 2.53727 -3.40327 0
M  V30 145 C 15.264 1.80209 -5.63275 0
M  V30 146 H 14.194 0.374412 -0.65447 0
M  V30 147 H 16.845 0.248138 -1.81815 0
M  V30 148 H 15.227 2.60115 -2.98591 0
M  V30 149 H 16.401 0.242455 -4.60162 0
M  V30 150 H 14.716 0.37691 -4.14691 0
M  V30 151 H 17.313 3.15292 -4.3185 0
M  V30 152 H 17.656 3.24447 -2.60845 0
M  V30 153 H 18.189 1.82156 -3.53644 0
M  V30 154 H 14.928 1.13896 -6.45529 0
M  V30 155 H 14.448 2.52022 -5.44284 0
M  V30 156 H 16.127 2.37364 -6.01887 0
M  V30 157 N 16.2591 1.48442 0.529413 0
M  V30 158 C 17.5071 1.56179 1.28267 0
M  V30 159 C 17.8281 0.237721 1.93546 0
M  V30 160 O 17.0981 -0.740779 1.81354 0
M  V30 161 H 15.6781 0.575367 0.476405 0
M  V30 162 H 18.3401 1.84909 0.61602 0
M  V30 163 H 17.4361 2.34312 2.06165 0
M  V30 164 N 17.7372 -0.778329 1.37039 0
M  V30 165 C 18.9622 -1.57248 1.35233 0
M  V30 166 C 19.3872 -1.87999 -0.0615568 0
M  V30 167 O 18.7452 -1.48734 -1.03672 0
M  V30 168 C 18.7932 -2.86353 2.19167 0
M  V30 169 O 17.8972 -3.80442 1.59178 0
M  V30 170 H 17.2382 -0.476569 0.462362 0
M  V30 171 H 19.7682 -0.963853 1.80474 0
M  V30 172 H 19.7782 -3.35519 2.32145 0
M  V30 173 H 18.4532 -2.63299 3.21942 0
M  V30 174 H 17.0302 -3.39067 1.55203 0
M  V30 175 N 19.2153 -1.21501 -1.00376 0
M  V30 176 C 20.1633 -0.972442 -2.11297 0
M  V30 177 C 21.1573 0.080731 -1.69208 0
M  V30 178 O 22.3633 -0.0707666 -1.79861 0
M  V30 179 H 18.7383 -0.297218 -0.690772 0
M  V30 180 H 20.7093 -1.91394 -2.28934 0
M  V30 181 C 19.4583 -0.555065 -3.43241 0
M  V30 182 H 18.7813 -1.35709 -3.76062 0
M  V30 183 H 20.2213 -0.424664 -4.21868 0
M  V30 184 C 18.6803 0.734147 -3.28804 0
M  V30 185 O 19.2103 1.78937 -3.59645 0
M  V30 186 N 17.4163 0.701133 -2.82015 0
M  V30 187 H 16.9633 -0.157874 -2.57116 0
M  V30 188 H 16.9213 1.56403 -2.72737 0
M  V30 189 N 20.6934 1.19889 -1.02296 0
M  V30 190 C 21.9424 1.88743 -0.711257 0
M  V30 191 C 22.2554 1.80112 0.762817 0
M  V30 192 O 23.4614 2.44161 1.18733 0
M  V30 193 C 21.9174 3.38525 -1.22185 0
M  V30 194 C 21.5254 3.55727 -2.72328 0
M  V30 195 C 23.2694 4.12893 -0.985864 0
M  V30 196 C 21.1764 4.99369 -3.16835 0
M  V30 197 H 20.1064 0.706885 -0.262353 0
M  V30 198 H 22.7574 1.35586 -1.23648 0
M  V30 199 H 21.1394 3.91044 -0.624571 0
M  V30 200 H 22.3134 3.13564 -3.3766 0
M  V30 201 H 20.6284 2.94739 -2.9414 0
M  V30 202 H 23.2254 5.18813 -1.29374 0
M  V30 203 H 23.5684 4.16228 0.0775055 0
M  V30 204 H 24.1014 3.66494 -1.54684 0
M  V30 205 H 20.8404 5.01193 -4.22476 0
M  V30 206 H 20.3604 5.42317 -2.56228 0
M  V30 207 H 22.0394 5.67988 -3.09837 0
M  V30 208 N 22.1715 0.800033 1.35784 0
M  V30 209 C 23.4175 0.377901 1.99248 0
M  V30 210 C 23.7505 -1.05052 1.63333 0
M  V30 211 O 23.0255 -1.72768 0.893385 0
M  V30 212 C 23.3085 0.553922 3.55814 0
M  V30 213 C 23.1615 2.0268 4.01548 0
M  V30 214 C 24.4805 -0.0244802 4.40093 0
M  V30 215 H 21.5995 0.138782 0.723815 0
M  V30 216 H 24.2415 1.00835 1.61035 0
M  V30 217 H 22.3915 0.0172398 3.88496 0
M  V30 218 H 24.0635 2.62536 3.79305 0
M  V30 219 H 22.3065 2.5256 3.52698 0
M  V30 220 H 22.9775 2.10087 5.10458 0
M  V30 221 H 25.4535 0.433775 4.13833 0
M  V30 222 H 24.3295 0.128637 5.48749 0
M  V30 223 H 24.5905 -1.11758 4.27741 0
M  V30 224 N 23.6496 -1.47581 0.552962 0
M  V30 225 C 24.5966 -2.29957 -0.197108 0
M  V30 226 C 25.5666 -1.38799 -0.912359 0
M  V30 227 O 26.7516 -1.67761 -0.908888 0
M  V30 228 C 23.8916 -3.22672 -1.22379 0
M  V30 229 C 23.0046 -4.28919 -0.515038 0
M  V30 230 C 22.1396 -5.0879 -1.52664 0
M  V30 231 C 21.1786 -6.06815 -0.802631 0
M  V30 232 N 20.3156 -6.7966 -1.76086 0
M  V30 233 H 25.1556 -2.93578 0.511486 0
M  V30 234 H 22.6926 -1.4471 0.264067 0
M  V30 235 H 24.6506 -3.74845 -1.83159 0
M  V30 236 H 23.2806 -2.60925 -1.90047 0
M  V30 237 H 22.3326 -3.79835 0.207192 0
M  V30 238 H 23.6446 -4.98773 0.0523425 0
M  V30 239 H 22.7986 -5.65091 -2.20809 0
M  V30 240 H 21.5376 -4.38828 -2.12794 0
M  V30 241 H 20.5426 -5.49695 -0.107238 0
M  V30 242 H 21.7676 -6.78784 -0.207135 0
M  V30 243 H 19.7136 -6.12432 -2.35081 0
M  V30 244 H 19.6306 -7.45669 -1.24552 0
M  V30 245 H 20.8986 -7.40538 -2.43359 0
M  V30 246 N 25.1277 -0.289203 -1.54924 0
M  V30 247 C 26.0907 0.579144 -2.21762 0
M  V30 248 C 27.0907 1.07047 -1.1999 0
M  V30 249 O 28.2807 0.968384 -1.44803 0
M  V30 250 C 25.4127 1.80055 -2.8947 0
M  V30 251 H 26.6057 -0.00464908 -2.999 0
M  V30 252 H 24.1587 -0.0399306 -1.56249 0
M  V30 253 H 24.8937 2.42449 -2.15381 0
M  V30 254 H 24.6787 1.45602 -3.64064 0
M  V30 255 H 26.1687 2.41773 -3.40493 0
M  V30 256 N 26.6058 1.57591 -0.0167156 0
M  V30 257 C 27.5358 2.12496 0.967858 0
M  V30 258 C 28.5168 1.03807 1.34752 0
M  V30 259 O 29.7018 1.31577 1.42833 0
M  V30 260 C 26.8318 2.64194 2.25431 0
M  V30 261 C 25.7858 3.77559 2.01576 0
M  V30 262 C 25.1118 4.15636 3.36379 0
M  V30 263 C 26.4118 5.04151 1.36489 0
M  V30 264 H 28.1058 2.95013 0.510643 0
M  V30 265 H 25.6518 1.41915 0.244181 0
M  V30 266 H 27.6048 3.01236 2.94678 0
M  V30 267 H 26.3288 1.78821 2.73296 0
M  V30 268 H 24.9878 3.40937 1.34751 0
M  V30 269 H 24.6358 3.27263 3.81979 0
M  V30 270 H 24.3358 4.92022 3.21229 0
M  V30 271 H 25.8598 4.5525 4.06915 0
M  V30 272 H 27.2738 5.38857 1.95718 0
M  V30 273 H 25.6708 5.85453 1.31776 0
M  V30 274 H 26.7408 4.83733 0.336219 0
M  V30 275 N 28.0839 -0.256276 1.55502 0
M  V30 276 C 29.0319 -1.33694 1.90338 0
M  V30 277 C 30.0259 -1.50299 0.781441 0
M  V30 278 O 31.2319 -1.51885 0.965966 0
M  V30 279 H 27.6069 -0.447483 0.60437 0
M  V30 280 H 29.5779 -1.01574 2.8058 0
M  V30 281 C 28.3269 -2.68724 2.20642 0
M  V30 282 H 27.6499 -2.56743 3.06469 0
M  V30 283 H 29.0899 -3.43237 2.48926 0
M  V30 284 C 27.5489 -3.21101 1.01959 0
M  V30 285 O 28.0789 -4.0084 0.262762 0
M  V30 286 N 26.2849 -2.79003 0.812746 0
M  V30 287 H 25.8319 -2.14271 1.42989 0
M  V30 288 H 25.7899 -3.14393 0.0203076 0
M  V30 289 N 29.562 -1.4872 -0.521534 0
M  V30 290 C 30.839 -1.4766 -1.2828 0
M  V30 291 C 31.219 -0.19292 -2.10217 0
M  V30 292 O 30.567 0.825193 -2.13079 0
M  V30 293 C 30.777 -2.74358 -2.15705 0
M  V30 294 C 32.125 -3.23028 -2.75569 0
M  V30 295 O 33.149 -2.75333 -2.25987 0
M  V30 296 O 32.008 -4.0604 -3.65778 0
M  V30 297 H 29.102 -0.590085 -0.579421 0
M  V30 298 H 31.648 -1.60963 -0.537492 0
M  V30 299 H 30.42 -3.59292 -1.54999 0
M  V30 300 H 30.043 -2.63816 -2.97467 0
M  V30 301 N 31.0401 0.771051 -1.3745 0
M  V30 302 C 31.9871 1.88435 -1.3327 0
M  V30 303 C 32.9571 1.64914 -0.198136 0
M  V30 304 O 34.1421 1.86821 -0.387606 0
M  V30 305 C 31.2821 3.25509 -1.14622 0
M  V30 306 C 30.3951 3.60979 -2.37314 0
M  V30 307 C 29.5301 4.87265 -2.11533 0
M  V30 308 C 28.5691 5.15469 -3.30088 0
M  V30 309 N 27.7061 6.32944 -3.03853 0
M  V30 310 H 32.5461 1.91344 -2.28455 0
M  V30 311 H 30.0831 0.935466 -1.13523 0
M  V30 312 H 32.0411 4.04582 -1.01831 0
M  V30 313 H 30.6711 3.21974 -0.230837 0
M  V30 314 H 29.7231 2.76885 -2.60842 0
M  V30 315 H 31.0351 3.77759 -3.25729 0
M  V30 316 H 30.1891 5.74244 -1.95777 0
M  V30 317 H 28.9281 4.7259 -1.20457 0
M  V30 318 H 27.9331 4.26966 -3.46382 0
M  V30 319 H 29.1581 5.32052 -4.22016 0
M  V30 320 H 27.1041 6.19625 -2.15407 0
M  V30 321 H 27.0211 6.50143 -3.85812 0
M  V30 322 H 28.2891 7.22857 -2.91716 0
M  V30 323 N 32.5182 1.22032 0.997298 0
M  V30 324 C 33.7662 1.04016 1.73278 0
M  V30 325 C 34.0872 -0.426255 1.90284 0
M  V30 326 O 33.3572 -1.30694 1.45931 0
M  V30 327 H 31.9372 0.381897 0.642 0
M  V30 328 H 34.5992 1.5347 1.20137 0
M  V30 329 H 33.6952 1.51441 2.72896 0
M  V30 330 N 33.9963 -1.19345 1.0293 0
M  V30 331 C 35.2453 -1.88363 0.721256 0
M  V30 332 C 35.5583 -1.80514 -0.753254 0
M  V30 333 O 36.7643 -2.44788 -1.17436 0
M  V30 334 C 35.2203 -3.37872 1.23978 0
M  V30 335 C 34.8283 -3.54278 2.74211 0
M  V30 336 C 36.5723 -4.12365 1.00775 0
M  V30 337 C 34.4793 -4.97682 3.19479 0
M  V30 338 H 33.4093 -0.705484 0.266098 0
M  V30 339 H 36.0603 -1.34928 1.24365 0
M  V30 340 H 34.4423 -3.90707 0.6453 0
M  V30 341 H 35.6163 -3.11769 3.39318 0
M  V30 342 H 33.9313 -2.93174 2.95699 0
M  V30 343 H 36.5283 -5.18119 1.32123 0
M  V30 344 H 36.8713 -4.16263 -0.0554308 0
M  V30 345 H 37.4043 -3.65668 1.56625 0
M  V30 346 H 34.1433 -4.98945 4.25128 0
M  V30 347 H 33.6633 -5.4095 2.591 0
M  V30 348 H 35.3423 -5.66337 3.12845 0
M  V30 349 N 35.4744 -0.807222 -1.35358 0
M  V30 350 C 36.7024 -0.400377 -2.02989 0
M  V30 351 C 37.1174 0.988859 -1.60832 0
M  V30 352 O 36.4744 1.63729 -0.806175 0
M  V30 353 C 36.5254 -0.474867 -3.58368 0
M  V30 354 O 36.2464 -1.80933 -3.98992 0
M  V30 355 C 37.7474 -0.0609112 -4.43258 0
M  V30 356 H 34.9674 -0.162587 -0.651004 0
M  V30 357 H 37.5114 -1.09102 -1.72965 0
M  V30 358 H 35.6664 0.167534 -3.87038 0
M  V30 359 H 36.0804 -1.77256 -4.9364 0
M  V30 360 H 37.5544 -0.164145 -5.51756 0
M  V30 361 H 38.0314 0.993831 -4.27808 0
M  V30 362 H 38.6374 -0.676492 -4.19885 0
M  V30 363 N 36.9525 1.47285 -0.560781 0
M  V30 364 C 38.2295 1.9558 0.0277798 0
M  V30 365 C 38.6095 1.5034 1.48192 0
M  V30 366 O 37.9575 0.743882 2.16052 0
M  V30 367 C 38.1675 3.48789 -0.121418 0
M  V30 368 C 39.5155 4.24594 0.0220912 0
M  V30 369 O 40.5395 3.56166 -0.0491439 0
M  V30 370 O 39.3985 5.46217 0.175958 0
M  V30 371 H 36.4925 0.824663 0.0621342 0
M  V30 372 H 39.0385 1.5767 -0.627556 0
M  V30 373 H 37.8105 3.74533 -1.13316 0
M  V30 374 H 37.4335 3.93473 0.571366 0
M  V30 375 N 38.4306 0.297415 1.54768 0
M  V30 376 C 39.6796 -0.313669 1.99246 0
M  V30 377 C 39.9926 -1.55281 1.18942 0
M  V30 378 O 41.1986 -2.23825 1.5367 0
M  V30 379 C 39.6546 -0.609407 3.54703 0
M  V30 380 C 39.2626 0.611192 4.43811 0
M  V30 381 C 41.0066 -1.18188 4.07715 0
M  V30 382 C 38.9136 0.288805 5.90694 0
M  V30 383 H 37.8436 -0.120979 0.744231 0
M  V30 384 H 40.4946 0.40556 1.78962 0
M  V30 385 H 38.8766 -1.38813 3.70873 0
M  V30 386 H 40.0506 1.3875 4.39414 0
M  V30 387 H 38.3656 1.10205 4.01552 0
M  V30 388 H 40.9626 -1.43727 5.15021 0
M  V30 389 H 41.3056 -2.12299 3.58099 0
M  V30 390 H 41.8386 -0.464944 3.95074 0
M  V30 391 H 38.5776 1.19838 6.44453 0
M  V30 392 H 38.0976 -0.450305 5.98107 0
M  V30 393 H 39.7766 -0.110933 6.46905 0
M  V30 394 N 39.9087 -1.5758 0.0250728 0
M  V30 395 C 40.8387 -2.13007 -0.956575 0
M  V30 396 C 41.8197 -1.0452 -1.342 0
M  V30 397 O 43.0047 -1.32332 -1.42133 0
M  V30 398 C 40.1347 -2.65386 -2.24026 0
M  V30 399 C 39.0887 -3.78623 -1.99571 0
M  V30 400 C 38.4147 -4.17414 -3.3417 0
M  V30 401 C 39.7147 -5.04867 -1.33814 0
M  V30 402 H 41.4087 -2.9528 -0.494991 0
M  V30 403 H 38.9547 -1.42042 -0.236651 0
M  V30 404 H 40.9077 -3.02794 -2.93076 0
M  V30 405 H 39.6317 -1.80268 -2.72343 0
M  V30 406 H 38.2907 -3.41646 -1.32941 0
M  V30 407 H 37.9387 -3.29284 -3.80238 0
M  V30 408 H 37.6387 -4.93719 -3.18615 0
M  V30 409 H 39.1627 -4.57402 -4.04495 0
M  V30 410 H 40.5767 -5.39888 -1.92857 0
M  V30 411 H 38.9737 -5.86144 -1.28669 0
M  V30 412 H 40.0437 -4.83904 -0.310561 0
M  V30 413 N 41.3868 0.248026 -1.55636 0
M  V30 414 C 42.6328 0.97767 -1.77678 0
M  V30 415 C 42.9658 1.85016 -0.590135 0
M  V30 416 O 42.2408 1.90095 0.411611 0
M  V30 417 C 42.5238 1.83914 -3.09593 0
M  V30 418 C 42.3768 0.99491 -4.38659 0
M  V30 419 C 43.6958 2.82183 -3.37729 0
M  V30 420 H 40.8148 0.354005 -0.646413 0
M  V30 421 H 43.4568 0.248253 -1.88371 0
M  V30 422 H 41.6068 2.46104 -3.00608 0
M  V30 423 H 43.2788 0.391789 -4.59633 0
M  V30 424 H 41.5218 0.299231 -4.32767 0
M  V30 425 H 42.1928 1.63145 -5.2734 0
M  V30 426 H 44.6688 2.30129 -3.4667 0
M  V30 427 H 43.5448 3.39582 -4.31249 0
M  V30 428 H 43.8058 3.58588 -2.58586 0
M  V30 429 N 42.8649 1.48995 0.513639 0
M  V30 430 C 44.1109 1.58076 1.27042 0
M  V30 431 C 44.4439 0.261026 1.92438 0
M  V30 432 O 43.7189 -0.734393 1.80103 0
M  V30 433 C 44.0019 2.73091 2.34719 0
M  V30 434 C 43.8549 4.14821 1.73907 0
M  V30 435 C 45.1739 2.83796 3.36375 0
M  V30 436 H 42.2929 0.575391 0.460536 0
M  V30 437 H 44.9349 1.81232 0.570516 0
M  V30 438 H 43.0849 2.53479 2.94416 0
M  V30 439 H 44.7569 4.45917 1.18135 0
M  V30 440 H 42.9999 4.21058 1.0437 0
M  V30 441 H 43.6709 4.91147 2.51949 0
M  V30 442 H 46.1469 3.01611 2.86653 0
M  V30 443 H 45.0229 3.65971 4.09093 0
M  V30 444 H 45.2839 1.92624 3.9793 0
M  V30 445 N 44.343 -0.763751 1.37857 0
M  V30 446 C 45.62 -1.51244 1.24035 0
M  V30 447 C 46 -2.10472 -0.162649 0
M  V30 448 O 45.348 -1.96206 -1.17112 0
M  V30 449 C 45.558 -2.58694 2.34261 0
M  V30 450 C 46.906 -3.25878 2.72193 0
M  V30 451 O 47.93 -2.68993 2.33497 0
M  V30 452 O 46.789 -4.2874 3.38887 0
M  V30 453 H 43.883 -0.670243 0.484462 0
M  V30 454 H 46.429 -0.800031 1.49658 0
M  V30 455 H 45.201 -2.13105 3.2818 0
M  V30 456 H 44.824 -3.37527 2.10146 0
M  V30 457 N 45.8211 -1.22559 -0.990812 0
M  V30 458 C 46.7691 -0.994798 -2.10253 0
M  V30 459 C 47.7631 0.0627798 -1.69284 0
M  V30 460 O 48.9691 -0.0898392 -1.79776 0
M  V30 461 H 45.3441 -0.304527 -0.687581 0
M  V30 462 H 47.3151 -1.93812 -2.26891 0
M  V30 463 C 46.0641 -0.591439 -3.42633 0
M  V30 464 H 45.3871 -1.3969 -3.74602 0
M  V30 465 H 46.8271 -0.469385 -4.21394 0
M  V30 466 C 45.2861 0.699232 -3.29564 0
M  V30 467 O 45.8161 1.75112 -3.61523 0
M  V30 468 N 44.0221 0.671182 -2.82743 0
M  V30 469 H 43.5691 -0.185136 -2.56934 0
M  V30 470 H 43.5271 1.53502 -2.7438 0
M  V30 471 N 47.2992 1.18797 -1.03562 0
M  V30 472 C 48.2292 2.24472 -0.643019 0
M  V30 473 C 49.2102 1.66433 0.351283 0
M  V30 474 O 50.3952 1.92803 0.232505 0
M  V30 475 C 47.5252 3.473 4.24935e-05 0
M  V30 476 C 46.4792 4.18055 -0.917257 0
M  V30 477 C 45.8052 5.34519 -0.138941 0
M  V30 478 C 47.1052 4.72109 -2.23407 0
M  V30 479 H 48.7992 2.57566 -1.52643 0
M  V30 480 H 46.3452 1.23806 -0.735394 0
M  V30 481 H 48.2982 4.20426 0.286383 0
M  V30 482 H 47.0222 3.13424 0.918299 0
M  V30 483 H 45.6812 3.46821 -1.1879 0
M  V30 484 H 45.3292 4.96891 0.781562 0
M  V30 485 H 45.0292 5.82794 -0.750005 0
M  V30 486 H 46.5532 6.10438 0.1405 0
M  V30 487 H 47.9672 5.36955 -2.00879 0
M  V30 488 H 46.3642 5.30897 -2.79765 0
M  V30 489 H 47.4342 3.89807 -2.88407 0
M  V30 490 N 48.7773 0.814389 1.34928 0
M  V30 491 C 49.7243 0.22822 2.29669 0
M  V30 492 C 50.6943 -0.642164 1.53184 0
M  V30 493 O 51.8793 -0.585605 1.81591 0
M  V30 494 C 49.0193 -0.61089 3.3965 0
M  V30 495 C 48.1323 0.280792 4.31086 0
M  V30 496 C 47.2673 -0.567067 5.28165 0
M  V30 497 C 46.3063 0.324531 6.11239 0
M  V30 498 N 45.4433 -0.483756 7.00431 0
M  V30 499 H 50.2833 1.04153 2.79206 0
M  V30 500 H 47.8203 0.525133 1.37407 0
M  V30 501 H 49.7783 -1.11263 4.0209 0
M  V30 502 H 48.4083 -1.38939 2.91369 0
M  V30 503 H 47.4603 0.900688 3.69583 0
M  V30 504 H 48.7723 0.966723 4.89342 0
M  V30 505 H 47.9263 -1.13363 5.96015 0
M  V30 506 H 46.6653 -1.28654 4.70425 0
M  V30 507 H 45.6703 0.903298 5.42329 0
M  V30 508 H 46.8953 1.04198 6.71059 0
M  V30 509 H 44.8413 -1.18706 6.45171 0
M  V30 510 H 44.7583 0.143965 7.55863 0
M  V30 511 H 46.0263 -1.03334 7.7262 0
M  V30 512 N 50.2554 -1.46986 0.568584 0
M  V30 513 C 51.5324 -1.95592 -0.0174074 0
M  V30 514 C 51.9124 -1.51124 -1.47393 0
M  V30 515 O 51.2604 -0.755329 -2.15655 0
M  V30 516 C 51.4704 -3.48719 0.139913 0
M  V30 517 C 52.8184 -4.246 0.000426376 0
M  V30 518 O 53.8424 -3.56135 0.0680316 0
M  V30 519 O 52.7014 -5.46302 -0.146988 0
M  V30 520 H 49.7954 -0.82498 -0.0577599 0
M  V30 521 H 52.3414 -1.57335 0.635909 0
M  V30 522 H 51.1134 -3.73927 1.15301 0
M  V30 523 H 50.7364 -3.93771 -0.550491 0
M  V30 524 N 51.7335 -0.305618 -1.54608 0
M  V30 525 C 52.9815 0.301701 -1.99835 0
M  V30 526 C 53.3025 1.54054 -1.19551 0
M  V30 527 O 52.5725 1.93702 -0.292658 0
M  V30 528 H 51.1525 0.114468 -0.738178 0
M  V30 529 H 53.8145 -0.418016 -1.90364 0
M  V30 530 H 52.9105 0.570548 -3.06841 0
M  V30 531 N 53.2116 1.57565 -0.0334293 0
M  V30 532 C 54.4396 1.9628 0.654347 0
M  V30 533 C 54.8546 0.910138 1.65414 0
M  V30 534 O 54.2116 -0.107595 1.82183 0
M  V30 535 C 54.2626 3.35067 1.35693 0
M  V30 536 O 53.9836 4.36296 0.397191 0
M  V30 537 C 55.4846 3.88439 2.13613 0
M  V30 538 H 52.7046 0.646369 0.180132 0
M  V30 539 H 55.2486 2.04282 -0.0944721 0
M  V30 540 H 53.4036 3.2827 2.05712 0
M  V30 541 H 53.8176 5.1678 0.896597 0
M  V30 542 H 55.2916 4.8788 2.58219 0
M  V30 543 H 55.7686 3.22914 2.97696 0
M  V30 544 H 56.3746 3.98516 1.48543 0
M  V30 545 N 54.6897 -0.239769 1.55765 0
M  V30 546 C 55.6367 -1.29696 1.90913 0
M  V30 547 C 56.6067 -1.47478 0.764164 0
M  V30 548 O 57.7917 -1.61345 1.01845 0
M  V30 549 C 54.9317 -2.64598 2.21544 0
M  V30 550 C 54.0447 -2.54765 3.48882 0
M  V30 551 C 53.1797 -3.82069 3.69049 0
M  V30 552 C 52.2187 -3.66883 4.89963 0
M  V30 553 N 51.3557 -4.86094 5.06614 0
M  V30 554 H 56.1957 -0.990224 2.81067 0
M  V30 555 H 53.7327 -0.477684 1.39128 0
M  V30 556 H 55.6907 -3.43132 2.3731 0
M  V30 557 H 54.3207 -2.93405 1.34585 0
M  V30 558 H 53.3727 -1.67763 3.41409 0
M  V30 559 H 54.6847 -2.39457 4.37563 0
M  V30 560 H 53.8387 -4.69046 3.84812 0
M  V30 561 H 52.5777 -4.00282 2.78614 0
M  V30 562 H 51.5827 -2.78289 4.74168 0
M  V30 563 H 52.8077 -3.50157 5.81865 0
M  V30 564 H 50.7537 -5.04655 4.19117 0
M  V30 565 H 50.6707 -4.73443 5.89396 0
M  V30 566 H 51.9387 -5.74549 5.26795 0
M  V30 567 N 56.1678 -1.49265 -0.50573 0
M  V30 568 C 57.4148 -1.58513 -1.26015 0
M  V30 569 C 57.7428 -0.26972 -1.92621 0
M  V30 570 O 56.9978 0.741997 -1.81088 0
M  V30 571 C 57.2968 -2.69008 -2.35308 0
M  V30 572 C 56.9628 -4.10662 -1.86192 0
M  V30 573 C 55.6248 -4.49212 -1.72516 0
M  V30 574 C 57.9768 -4.99336 -1.49375 0
M  V30 575 C 55.3048 -5.74214 -1.20394 0
M  V30 576 C 57.6568 -6.24852 -0.987072 0
M  V30 577 C 56.3208 -6.62236 -0.836669 0
M  V30 578 H 55.5908 -0.580041 -0.461122 0
M  V30 579 H 58.2378 -1.83078 -0.561665 0
M  V30 580 H 56.5428 -2.38396 -3.10926 0
M  V30 581 H 58.2398 -2.73373 -2.93374 0
M  V30 582 H 54.8298 -3.8023 -1.97795 0
M  V30 583 H 59.0138 -4.70212 -1.5879 0
M  V30 584 H 54.2698 -6.01883 -1.07458 0
M  V30 585 H 58.4438 -6.92944 -0.692983 0
M  V30 586 H 56.0708 -7.58979 -0.430607 0
M  V30 587 N 57.6459 0.756429 -1.3826 0
M  V30 588 C 58.8919 1.51772 -1.34511 0
M  V30 589 C 59.2249 1.94089 0.0656691 0
M  V30 590 O 58.4999 1.65221 1.02626 0
M  V30 591 C 58.7829 2.77226 -2.29821 0
M  V30 592 C 58.6359 2.41065 -3.79747 0
M  V30 593 C 59.9549 3.79236 -2.23312 0
M  V30 594 H 57.0739 0.550578 -0.489931 0
M  V30 595 H 59.7159 0.866607 -1.69086 0
M  V30 596 H 57.8659 3.32784 -2.00467 0
M  V30 597 H 59.5379 1.91303 -4.19763 0
M  V30 598 H 57.7809 1.7356 -3.97567 0
M  V30 599 H 58.4519 3.3081 -4.41892 0
M  V30 600 H 60.9279 3.3321 -2.49219 0
M  V30 601 H 59.8039 4.64714 -2.92116 0
M  V30 602 H 60.0649 4.24615 -1.23102 0
M  V30 603 N 59.124 1.23083 0.984299 0
M  V30 604 C 60.072 1.00593 2.09723 0
M  V30 605 C 61.066 -0.0538014 1.69315 0
M  V30 606 O 62.272 0.0993719 1.79725 0
M  V30 607 H 58.647 0.30817 0.685956 0
M  V30 608 H 60.618 1.95012 2.2586 0
M  V30 609 C 59.367 0.609601 3.42314 0
M  V30 610 H 58.69 1.41675 3.73856 0
M  V30 611 H 60.13 0.491726 4.21139 0
M  V30 612 C 58.589 -0.681745 3.2993 0
M  V30 613 O 59.119 -1.73192 3.62446 0
M  V30 614 N 57.325 -0.656178 2.83095 0
M  V30 615 H 56.872 0.198759 2.56832 0
M  V30 616 H 56.83 -1.52044 2.75191 0
M  V30 617 N 60.6021 -1.18246 1.0419 0
M  V30 618 C 61.5321 -2.24127 0.654914 0
M  V30 619 C 62.5131 -1.66617 -0.342451 0
M  V30 620 O 63.6981 -1.92924 -0.222277 0
M  V30 621 C 60.8281 -3.47295 0.0183757 0
M  V30 622 C 59.7821 -4.17563 0.939414 0
M  V30 623 C 59.1081 -5.34438 0.167286 0
M  V30 624 C 60.4081 -4.70917 2.25908 0
M  V30 625 H 62.1021 -2.56753 1.54007 0
M  V30 626 H 59.6481 -1.23414 0.74195 0
M  V30 627 H 61.6011 -4.20572 -0.264082 0
M  V30 628 H 60.3251 -3.13907 -0.901664 0
M  V30 629 H 58.9841 -3.46186 1.20628 0
M  V30 630 H 58.6321 -4.97298 -0.7552 0
M  V30 631 H 58.3321 -5.82388 0.780901 0
M  V30 632 H 59.8561 -6.10504 -0.108125 0
M  V30 633 H 61.2701 -5.35882 2.03724 0
M  V30 634 H 59.6671 -5.29406 2.82577 0
M  V30 635 H 60.7371 -3.88272 2.9047 0
M  V30 636 N 62.0802 -0.821533 -1.34494 0
M  V30 637 C 63.3262 -0.409552 -1.98622 0
M  V30 638 C 63.6592 1.0244 -1.64984 0
M  V30 639 O 62.9342 1.71325 -0.920758 0
M  V30 640 C 63.2172 -0.610458 -3.54888 0
M  V30 641 C 63.0702 -2.09043 -3.98273 0
M  V30 642 C 64.3892 -0.0455379 -4.40076 0
M  V30 643 H 61.5082 -0.15028 -0.721516 0
M  V30 644 H 64.1502 -1.03384 -1.59411 0
M  V30 645 H 62.3002 -0.079044 -3.8842 0
M  V30 646 H 63.9722 -2.68537 -3.75081 0
M  V30 647 H 62.2152 -2.58139 -3.48635 0
M  V30 648 H 62.8862 -2.18182 -5.07051 0
M  V30 649 H 65.3622 -0.499557 -4.1309 0
M  V30 650 H 64.2382 -0.215922 -5.48475 0
M  V30 651 H 64.4992 1.04939 -4.29465 0
M  V30 652 N 63.5583 1.46682 -0.576371 0
M  V30 653 C 64.8353 1.95599 0.00703437 0
M  V30 654 C 65.2153 1.51904 1.46589 0
M  V30 655 O 64.5633 0.766755 2.15251 0
M  V30 656 C 64.7733 3.4864 -0.158404 0
M  V30 657 C 66.1213 4.24594 -0.0229439 0
M  V30 658 O 67.1453 3.56094 -0.0869173 0
M  V30 659 O 66.0043 5.46373 0.118015 0
M  V30 660 H 63.0983 0.825275 0.053384 0
M  V30 661 H 65.6443 1.56996 -0.644244 0
M  V30 662 H 64.4163 3.7331 -1.17282 0
M  V30 663 H 64.0393 3.94057 0.5296 0
M  V30 664 N 65.0364 0.313813 1.54444 0
M  V30 665 C 65.9664 -0.549454 2.26943 0
M  V30 666 C 66.9474 -1.12741 1.27372 0
M  V30 667 O 68.1324 -1.15436 1.56167 0
M  V30 668 C 65.2624 -1.71523 3.01989 0
M  V30 669 C 64.2164 -1.26703 4.08816 0
M  V30 670 C 63.5424 -2.51898 4.71647 0
M  V30 671 C 64.8424 -0.388962 5.2085 0
M  V30 672 H 66.5364 0.0552661 2.99349 0
M  V30 673 H 64.0824 0.0280207 1.43973 0
M  V30 674 H 66.0354 -2.32535 3.51433 0
M  V30 675 H 64.7594 -2.34639 2.27183 0
M  V30 676 H 63.4184 -0.679896 3.6024 0
M  V30 677 H 63.0664 -3.13356 3.93468 0
M  V30 678 H 62.7664 -2.22605 5.43802 0
M  V30 679 H 64.2904 -3.1369 5.23861 0
M  V30 680 H 65.7044 -0.905107 5.6611 0
M  V30 681 H 64.1014 -0.18924 5.99802 0
M  V30 682 H 65.1714 0.582699 4.81386 0
M  V30 683 N 66.5145 -1.57545 0.0417849 0
M  V30 684 C 67.4625 -2.12148 -0.953723 0
M  V30 685 C 68.4565 -1.05104 -1.32852 0
M  V30 686 O 69.6625 -1.23524 -1.30927 0
M  V30 687 H 66.0375 -0.677957 -0.325389 0
M  V30 688 H 68.0085 -2.94707 -0.467991 0
M  V30 689 C 66.7575 -2.6739 -2.22257 0
M  V30 690 H 66.0805 -3.49413 -1.94295 0
M  V30 691 H 67.5205 -3.09227 -2.90094 0
M  V30 692 C 65.9795 -1.60723 -2.96091 0
M  V30 693 O 66.5095 -1.01449 -3.88679 0
M  V30 694 N 64.7155 -1.32466 -2.58652 0
M  V30 695 H 64.2625 -1.80856 -1.83437 0
M  V30 696 H 64.2205 -0.61325 -3.08361 0
M  V30 697 N 67.9926 0.231505 -1.5589 0
M  V30 698 C 69.2416 0.955346 -1.7764 0
M  V30 699 C 69.5546 1.85893 -0.608546 0
M  V30 700 O 70.7606 2.62067 -0.70943 0
M  V30 701 C 69.2166 1.74886 -3.14552 0
M  V30 702 C 68.8246 0.891915 -4.39032 0
M  V30 703 C 70.5686 2.46452 -3.45633 0
M  V30 704 C 68.4756 1.68221 -5.66971 0
M  V30 705 H 67.4056 0.360446 -0.662265 0
M  V30 706 H 70.0566 0.209516 -1.823 0
M  V30 707 H 68.4386 2.53723 -3.04041 0
M  V30 708 H 69.6126 0.144793 -4.60572 0
M  V30 709 H 67.9276 0.288863 -4.15397 0
M  V30 710 H 70.5246 3.06061 -4.38441 0
M  V30 711 H 70.8676 3.18841 -2.67668 0
M  V30 712 H 71.4006 1.74613 -3.57428 0
M  V30 713 H 68.1396 1.00178 -6.478 0
M  V30 714 H 67.6596 2.4042 -5.49507 0
M  V30 715 H 69.3386 2.24544 -6.06786 0
M  V30 716 N 69.4707 1.49531 0.497807 0
M  V30 717 C 70.4337 1.65916 1.58128 0
M  V30 718 C 71.4337 0.530825 1.51786 0
M  V30 719 O 72.6237 0.797342 1.54881 0
M  V30 720 C 69.7557 1.65951 2.9778 0
M  V30 721 H 70.9487 2.62556 1.44929 0
M  V30 722 H 68.5017 1.38611 0.722275 0
M  V30 723 H 69.2367 0.709065 3.16453 0
M  V30 724 H 69.0217 2.47897 3.03792 0
M  V30 725 H 70.5117 1.80673 3.76493 0
M  V30 726 N 70.9488 -0.749086 1.3866 0
M  V30 727 C 72.2258 -1.4992 1.25632 0
M  V30 728 C 72.6058 -2.10633 -0.140317 0
M  V30 729 O 71.9538 -1.97437 -1.15025 0
M  V30 730 C 72.1638 -2.56195 2.36992 0
M  V30 731 C 73.5118 -3.22972 2.75634 0
M  V30 732 O 74.5358 -2.66502 2.36337 0
M  V30 733 O 73.3948 -4.25122 3.43415 0
M  V30 734 H 70.4888 -0.665067 0.491544 0
M  V30 735 H 73.0348 -0.784113 1.50498 0
M  V30 736 H 71.8068 -2.09612 3.30422 0
M  V30 737 H 71.4298 -3.35279 2.13714 0
M  V30 738 N 72.4269 -1.23603 -0.977757 0
M  V30 739 C 73.6569 -1.09487 -1.75203 0
M  V30 740 C 74.0649 0.356321 -1.85814 0
M  V30 741 O 73.4079 1.25816 -1.33851 0
M  V30 742 C 73.4699 -1.64905 -3.19447 0
M  V30 743 C 73.1339 -3.13688 -3.32338 0
M  V30 744 C 74.1309 -4.10953 -3.18455 0
M  V30 745 C 71.8159 -3.53449 -3.56902 0
M  V30 746 C 73.8099 -5.45962 -3.28944 0
M  V30 747 C 71.4969 -4.88602 -3.6703 0
M  V30 748 C 72.4949 -5.84668 -3.53062 0
M  V30 749 O 72.1829 -7.17365 -3.62826 0
M  V30 750 H 71.9149 -0.38367 -0.556573 0
M  V30 751 H 74.4689 -1.6398 -1.23693 0
M  V30 752 H 72.6989 -1.04835 -3.72218 0
M  V30 753 H 74.3879 -1.46226 -3.78646 0
M  V30 754 H 75.1539 -3.81577 -2.99372 0
M  V30 755 H 71.0329 -2.79188 -3.66844 0
M  V30 756 H 74.5769 -6.20925 -3.17958 0
M  V30 757 H 70.4739 -5.17653 -3.85623 0
M  V30 758 H 71.2419 -7.2515 -3.79605 0
M  V30 759 N 73.905 1.17692 -1.04816 0
M  V30 760 C 74.838 2.20436 -0.590173 0
M  V30 761 C 75.816 1.58115 0.379244 0
M  V30 762 O 77 1.86228 0.291762 0
M  V30 763 C 74.127 3.38424 0.136817 0
M  V30 764 C 73.173 4.19176 -0.787023 0
M  V30 765 S 74.006 4.84815 -2.27409 0
M  V30 766 C 75.162 6.06195 -1.55817 0
M  V30 767 H 75.395 2.58944 -1.46067 0
M  V30 768 H 72.928 1.28246 -0.859784 0
M  V30 769 H 74.886 4.06798 0.550076 0
M  V30 770 H 73.547 2.98312 0.983299 0
M  V30 771 H 72.74 5.03499 -0.224681 0
M  V30 772 H 72.342 3.56219 -1.13947 0
M  V30 773 H 74.634 6.72078 -0.855387 0
M  V30 774 H 75.577 6.6695 -2.37873 0
M  V30 775 H 75.985 5.54701 -1.04722 0
M  V30 776 N 75.3831 0.828654 1.34056 0
M  V30 777 C 76.6601 0.341809 1.9259 0
M  V30 778 C 77.0401 -1.17158 1.75605 0
M  V30 779 O 76.3881 -1.98132 1.13824 0
M  V30 780 C 76.5981 0.777453 3.4023 0
M  V30 781 C 77.9461 0.779579 4.17382 0
M  V30 782 O 78.9701 0.7204 3.48839 0
M  V30 783 O 77.8291 0.857996 5.39723 0
M  V30 784 H 74.9231 0.0946085 0.821571 0
M  V30 785 H 77.4691 0.913827 1.42994 0
M  V30 786 H 76.2411 1.8196 3.46419 0
M  V30 787 H 75.8641 0.181444 3.97186 0
M  V30 788 N 76.8612 -1.46375 0.584142 0
M  V30 789 C 77.8082 -2.30323 -0.148286 0
M  V30 790 C 78.7782 -1.40703 -0.882713 0
M  V30 791 O 79.9632 -1.69651 -0.873099 0
M  V30 792 C 77.1032 -3.25196 -1.15507 0
M  V30 793 C 76.2162 -4.29915 -0.423943 0
M  V30 794 C 75.3512 -5.11914 -1.41838 0
M  V30 795 C 74.3902 -6.08381 -0.673736 0
M  V30 796 N 73.5272 -6.83242 -1.6163 0
M  V30 797 H 78.3672 -2.92427 0.573644 0
M  V30 798 H 75.9042 -1.44118 0.294703 0
M  V30 799 H 77.8622 -3.78646 -1.75166 0
M  V30 800 H 76.4922 -2.64898 -1.8447 0
M  V30 801 H 75.5442 -3.7931 0.287714 0
M  V30 802 H 76.8562 -4.98549 0.158128 0
M  V30 803 H 76.0102 -5.69648 -2.08773 0
M  V30 804 H 74.7492 -4.43243 -2.03438 0
M  V30 805 H 73.7542 -5.49799 0.00938483 0
M  V30 806 H 74.9792 -6.79071 -0.0631082 0
M  V30 807 H 72.9252 -6.1728 -2.22038 0
M  V30 808 H 72.8422 -7.48144 -1.08707 0
M  V30 809 H 74.1102 -7.45534 -2.27596 0
M  V30 810 N 78.3393 -0.321999 -1.54275 0
M  V30 811 C 79.2493 0.553631 -2.27974 0
M  V30 812 C 80.2653 1.13054 -1.32268 0
M  V30 813 O 81.4413 1.15084 -1.6528 0
M  V30 814 C 78.5063 1.69927 -3.02201 0
M  V30 815 C 77.5673 1.15433 -4.1349 0
M  V30 816 C 76.8003 2.24537 -4.84168 0
M  V30 817 O 77.0233 3.44852 -4.5435 0
M  V30 818 O 75.9573 1.90044 -5.7111 0
M  V30 819 H 79.7833 -0.0448345 -3.03667 0
M  V30 820 H 77.3683 -0.0877418 -1.49142 0
M  V30 821 H 79.2503 2.3663 -3.48689 0
M  V30 822 H 77.9253 2.28395 -2.29385 0
M  V30 823 H 76.8323 0.452436 -3.71354 0
M  V30 824 H 78.1653 0.614805 -4.88345 0
M  V30 825 N 79.8174 1.5752 -0.0501392 0
M  V30 826 C 81.0944 1.83996 0.663685 0
M  V30 827 C 81.4744 0.938339 1.89099 0
M  V30 828 O 80.8224 -0.00087759 2.285 0
M  V30 829 C 81.0324 3.33702 1.02196 0
M  V30 830 C 82.3804 4.00691 1.40469 0
M  V30 831 O 83.4044 3.38321 1.11433 0
M  V30 832 O 82.2634 5.10658 1.94654 0
M  V30 833 H 79.3574 0.759385 0.32751 0
M  V30 834 H 81.9034 1.69514 -0.0794238 0
M  V30 835 H 80.6754 3.91015 0.149364 0
M  V30 836 H 80.2984 3.53368 1.82255 0
M  V30 837 N 81.2955 -0.223234 1.56011 0
M  V30 838 C 82.5425 -0.947875 1.78946 0
M  V30 839 C 82.8705 -1.844 0.618608 0
M  V30 840 O 82.1255 -1.91629 -0.397093 0
M  V30 841 C 82.4245 -1.81948 3.0762 0
M  V30 842 C 82.0905 -1.07672 4.37856 0
M  V30 843 C 80.7525 -0.871544 4.73242 0
M  V30 844 C 83.1045 -0.552081 5.18268 0
M  V30 845 C 80.4325 -0.129791 5.86556 0
M  V30 846 C 82.7845 0.17632 6.32354 0
M  V30 847 C 81.4485 0.39277 6.66343 0
M  V30 848 H 80.7185 -0.346852 0.654809 0
M  V30 849 H 83.3655 -0.216171 1.90276 0
M  V30 850 H 81.6705 -2.61899 2.91404 0
M  V30 851 H 83.3675 -2.38227 3.22566 0
M  V30 852 H 79.9575 -1.24662 4.1007 0
M  V30 853 H 84.1415 -0.698076 4.91366 0
M  V30 854 H 79.3975 0.048153 6.11381 0
M  V30 855 H 83.5715 0.590367 6.93893 0
M  V30 856 H 81.1985 0.969466 7.53993 0
M  V30 857 N 82.7736 -1.49793 -0.48987 0
M  V30 858 C 83.7036 -1.70201 -1.59856 0
M  V30 859 C 84.6846 -0.55076 -1.60937 0
M  V30 860 O 85.8696 -0.787841 -1.77501 0
M  V30 861 C 82.9996 -1.77882 -2.98287 0
M  V30 862 C 81.9536 -2.92907 -3.12073 0
M  V30 863 C 81.2796 -2.85712 -4.51965 0
M  V30 864 C 82.5796 -4.3369 -2.91051 0
M  V30 865 H 84.2736 -2.63025 -1.43032 0
M  V30 866 H 81.8196 -1.26574 -0.686664 0
M  V30 867 H 83.7726 -1.90744 -3.75759 0
M  V30 868 H 82.4966 -0.816653 -3.16225 0
M  V30 869 H 81.1556 -2.79665 -2.37029 0
M  V30 870 H 80.8036 -1.8738 -4.66795 0
M  V30 871 H 80.5036 -3.62921 -4.62128 0
M  V30 872 H 82.0276 -3.00598 -5.31482 0
M  V30 873 H 83.4416 -4.47555 -3.58284 0
M  V30 874 H 81.8386 -5.12205 -3.12675 0
M  V30 875 H 82.9086 -4.47362 -1.87071 0
M  V30 876 N 84.2517 0.741722 -1.39055 0
M  V30 877 C 85.5007 1.49656 -1.35225 0
M  V30 878 C 85.8137 1.95533 0.0512708 0
M  V30 879 O 87.0197 2.7067 0.212138 0
M  V30 880 C 85.4757 2.70389 -2.37525 0
M  V30 881 C 85.0837 2.31489 -3.83558 0
M  V30 882 C 86.8277 3.48236 -2.42759 0
M  V30 883 C 84.7347 3.48903 -4.77515 0
M  V30 884 H 83.6647 0.56197 -0.502699 0
M  V30 885 H 86.3157 0.809727 -1.64668 0
M  V30 886 H 84.6977 3.41113 -2.01142 0
M  V30 887 H 85.8717 1.68354 -4.28945 0
M  V30 888 H 84.1867 1.66749 -3.81554 0
M  V30 889 H 86.7837 4.35558 -3.1015 0
M  V30 890 H 87.1267 3.90229 -1.45008 0
M  V30 891 H 87.6597 2.84535 -2.78002 0
M  V30 892 H 84.3987 3.11966 -5.76504 0
M  V30 893 H 83.9187 4.11041 -4.36813 0
M  V30 894 H 85.5977 4.15328 -4.96096 0
M  V30 895 N 85.7298 1.2412 0.971189 0
M  V30 896 C 86.6618 0.988349 2.06795 0
M  V30 897 C 87.6748 -0.0409541 1.62748 0
M  V30 898 O 88.8638 0.195673 1.77424 0
M  V30 899 C 85.9638 0.469023 3.35639 0
M  V30 900 C 85.1368 1.56065 4.08611 0
M  V30 901 C 84.1958 1.04458 5.15728 0
M  V30 902 O 83.2218 1.73553 5.42096 0
M  V30 903 N 84.4238 -0.122817 5.8037 0
M  V30 904 H 87.1888 1.93265 2.29061 0
M  V30 905 H 84.7498 1.15102 1.13856 0
M  V30 906 H 86.7418 0.108613 4.04554 0
M  V30 907 H 85.3118 -0.380919 3.1027 0
M  V30 908 H 84.5318 2.09341 3.34021 0
M  V30 909 H 85.8198 2.29449 4.54126 0
M  V30 910 H 85.2178 -0.700563 5.61345 0
M  V30 911 H 83.7748 -0.424404 6.50417 0
M  V30 912 N 87.2079 -1.17134 1.05439 0
M  V30 913 C 88.4569 -1.86791 0.761049 0
M  V30 914 C 88.7699 -1.82072 -0.714795 0
M  V30 915 O 89.9759 -2.47223 -1.12218 0
M  V30 916 C 88.4319 -3.35166 1.31117 0
M  V30 917 C 88.0399 -3.48381 2.81664 0
M  V30 918 C 89.7839 -4.10134 1.09499 0
M  V30 919 C 87.6909 -4.90793 3.29964 0
M  V30 920 H 86.6209 -0.699681 0.281002 0
M  V30 921 H 89.2719 -1.3226 1.27199 0
M  V30 922 H 87.6539 -3.8925 0.72803 0
M  V30 923 H 88.8279 -3.04502 3.45855 0
M  V30 924 H 87.1429 -2.86836 3.01851 0
M  V30 925 H 89.7399 -5.152 1.43084 0
M  V30 926 H 90.0829 -4.16287 0.0328772 0
M  V30 927 H 90.6159 -3.62264 1.64346 0
M  V30 928 H 87.3549 -4.89816 4.35616 0
M  V30 929 H 86.8749 -5.35333 2.70516 0
M  V30 930 H 88.5539 -5.59573 3.24787 0
M  V30 931 N 88.686 -0.835752 -1.33615 0
M  V30 932 C 89.619 -0.211815 -2.27215 0
M  V30 933 C 90.597 0.639249 -1.49507 0
M  V30 934 O 91.781 0.600193 -1.78689 0
M  V30 935 C 88.908 0.702893 -3.31326 0
M  V30 936 C 87.954 -0.0723049 -4.26439 0
M  V30 937 S 88.787 -1.42811 -5.16106 0
M  V30 938 C 89.943 -0.518613 -6.23748 0
M  V30 939 H 90.176 -1.00533 -2.79786 0
M  V30 940 H 87.709 -0.632336 -1.40858 0
M  V30 941 H 89.667 1.22505 -3.91794 0
M  V30 942 H 88.328 1.47004 -2.77576 0
M  V30 943 H 87.521 0.62359 -5.00127 0
M  V30 944 H 87.123 -0.525424 -3.70291 0
M  V30 945 H 89.415 0.284778 -6.76901 0
M  V30 946 H 90.358 -1.22556 -6.97413 0
M  V30 947 H 90.766 -0.101344 -5.64409 0
M  V30 948 N 90.1641 1.46063 -0.591896 0
M  V30 949 C 91.1271 2.28854 0.125973 0
M  V30 950 C 92.1271 1.38903 0.810107 0
M  V30 951 O 93.3171 1.61186 0.66066 0
M  V30 952 C 90.4491 3.19526 1.1881 0
M  V30 953 H 91.6421 2.93802 -0.601717 0
M  V30 954 H 89.1951 1.52325 -0.350254 0
M  V30 955 H 89.9301 2.59345 1.94707 0
M  V30 956 H 89.7151 3.85766 0.701936 0
M  V30 957 H 91.2051 3.81817 1.69132 0
M  V30 958 N 91.6422 0.330177 1.54103 0
M  V30 959 C 92.8902 -0.269871 2.0029 0
M  V30 960 C 93.2112 -1.52133 1.21986 0
M  V30 961 O 92.4812 -1.93212 0.323438 0
M  V30 962 H 91.0612 -0.10271 0.739905 0
M  V30 963 H 93.7232 0.448249 1.89675 0
M  V30 964 H 92.8192 -0.52166 3.07709 0
M  V30 965 N 93.1203 -1.57491 0.0584922 0
M  V30 966 C 94.0303 -2.15448 -0.928414 0
M  V30 967 C 95.0463 -1.11416 -1.3365 0
M  V30 968 O 96.2223 -1.4362 -1.41193 0
M  V30 969 C 93.2873 -2.69393 -2.18239 0
M  V30 970 C 92.3483 -3.88249 -1.83196 0
M  V30 971 C 91.5813 -4.39613 -3.02616 0
M  V30 972 O 91.8043 -3.90023 -4.16219 0
M  V30 973 O 90.7383 -5.31111 -2.83204 0
M  V30 974 H 94.5643 -3.00112 -0.465483 0
M  V30 975 H 92.1493 -1.48499 -0.163826 0
M  V30 976 H 94.0313 -3.04026 -2.91798 0
M  V30 977 H 92.7063 -1.87796 -2.63656 0
M  V30 978 H 91.6133 -3.58492 -1.06931 0
M  V30 979 H 92.9463 -4.71098 -1.42573 0
M  V30 980 N 94.5984 0.214957 -1.56127 0
M  V30 981 C 95.5084 1.28727 -1.96129 0
M  V30 982 C 96.5244 1.50916 -0.866044 0
M  V30 983 O 97.7004 1.63918 -1.17016 0
M  V30 984 C 94.7654 2.61569 -2.27558 0
M  V30 985 C 93.8264 2.47625 -3.50685 0
M  V30 986 C 93.0594 3.74132 -3.80606 0
M  V30 987 O 93.2824 4.77438 -3.12104 0
M  V30 988 O 92.2164 3.70849 -4.74083 0
M  V30 989 H 96.0424 0.977855 -2.87527 0
M  V30 990 H 93.6274 0.418358 -1.43423 0
M  V30 991 H 95.5094 3.40012 -2.48938 0
M  V30 992 H 94.1844 2.92178 -1.39332 0
M  V30 993 H 93.0914 1.67361 -3.34576 0
M  V30 994 H 94.4244 2.21954 -4.39315 0
M  V30 995 N 96.0765 1.50051 0.48192 0
M  V30 996 C 97.3235 1.60498 1.23477 0
M  V30 997 C 97.6515 0.300331 1.92167 0
M  V30 998 O 96.9065 -0.713094 1.82246 0
M  V30 999 C 97.2055 2.72717 2.30998 0
M  V30 1000 C 96.8715 4.13572 1.79636 0
M  V30 1001 C 95.5335 4.519 1.65348 0
M  V30 1002 C 97.8855 5.01649 1.41412 0
M  V30 1003 C 95.2135 5.76057 1.11244 0
M  V30 1004 C 97.5655 6.26343 0.887538 0
M  V30 1005 C 96.2295 6.63483 0.731207 0
M  V30 1006 H 95.4995 0.587303 0.451836 0
M  V30 1007 H 98.1465 1.83948 0.532468 0
M  V30 1008 H 96.4515 2.43312 3.07094 0
M  V30 1009 H 98.1485 2.78006 2.88988 0
M  V30 1010 H 94.7385 3.83329 1.91721 0
M  V30 1011 H 98.9225 4.72679 1.51289 0
M  V30 1012 H 94.1785 6.03516 0.978686 0
M  V30 1013 H 98.3525 6.93958 0.582654 0
M  V30 1014 H 95.9795 7.59568 0.309806 0
M  V30 1015 N 97.5546 -0.734337 1.39446 0
M  V30 1016 C 98.8026 -1.49096 1.36436 0
M  V30 1017 C 99.1236 -1.94961 -0.0388255 0
M  V30 1018 O 98.3936 -1.69033 -0.990191 0
M  V30 1019 H 96.9736 -0.5531 0.502085 0
M  V30 1020 H 99.6356 -0.871725 1.74319 0
M  V30 1021 H 98.7316 -2.37276 2.02747 0
M  V30 1022 N 99.0327 -1.24633 -0.964593 0
M  V30 1023 C 100.31 -0.995809 -1.68354 0
M  V30 1024 C 100.69 0.480964 -2.05548 0
M  V30 1025 O 100.038 1.45599 -1.76105 0
M  V30 1026 C 100.248 -1.92177 -2.91323 0
M  V30 1027 C 101.596 -2.19446 -3.63495 0
M  V30 1028 O 102.62 -1.89855 -3.01386 0
M  V30 1029 O 101.479 -2.69714 -4.75307 0
M  V30 1030 H 98.5727 -0.376854 -0.736146 0
M  V30 1031 H 101.119 -1.35745 -1.0184 0
M  V30 1032 H 99.8907 -2.91938 -2.60553 0
M  V30 1033 H 99.5137 -1.56349 -3.65569 0
M  V30 1034 N 100.511 1.16574 -1.06058 0
M  V30 1035 C 101.757 1.87324 -0.777022 0
M  V30 1036 C 102.09 1.81351 0.694645 0
M  V30 1037 O 101.365 1.22753 1.50871 0
M  V30 1038 C 101.648 3.36991 -1.26922 0
M  V30 1039 C 101.501 3.51667 -2.80447 0
M  V30 1040 C 102.82 4.3131 -0.87521 0
M  V30 1041 H 99.9388 0.680191 -0.28374 0
M  V30 1042 H 102.581 1.37036 -1.3161 0
M  V30 1043 H 100.731 3.79949 -0.81063 0
M  V30 1044 H 102.403 3.17664 -3.34495 0
M  V30 1045 H 100.646 2.93656 -3.19294 0
M  V30 1046 H 101.317 4.56766 -3.0995 0
M  V30 1047 H 103.793 3.9624 -1.27014 0
M  V30 1048 H 102.669 5.34545 -1.2471 0
M  V30 1049 H 102.93 4.41552 0.220071 0
M  V30 1050 N 101.989 0.842826 1.3317 0
M  V30 1051 C 102.899 0.281444 2.32906 0
M  V30 1052 C 103.915 -0.594587 1.63526 0
M  V30 1053 O 105.091 -0.49777 1.95152 0
M  V30 1054 C 102.156 -0.530929 3.42611 0
M  V30 1055 C 101.217 0.369843 4.27704 0
M  V30 1056 C 100.45 -0.403853 5.3217 0
M  V30 1057 O 100.673 -1.63513 5.46461 0
M  V30 1058 O 99.6069 0.224199 6.01482 0
M  V30 1059 H 103.433 1.10744 2.82789 0
M  V30 1060 H 101.018 0.60545 1.36582 0
M  V30 1061 H 102.9 -0.992437 4.09547 0
M  V30 1062 H 101.575 -1.33392 2.94938 0
M  V30 1063 H 100.482 0.879275 3.6362 0
M  V30 1064 H 101.815 1.13771 4.78871 0
M  V30 1065 N 103.467 -1.45747 0.599634 0
M  V30 1066 C 104.43 -2.28917 -0.113835 0
M  V30 1067 C 105.43 -1.3933 -0.802729 0
M  V30 1068 O 106.62 -1.61534 -0.652103 0
M  V30 1069 C 103.752 -3.20152 -1.17114 0
M  V30 1070 H 104.945 -2.93478 0.617289 0
M  V30 1071 H 102.498 -1.52137 0.358327 0
M  V30 1072 H 103.233 -2.60374 -1.93329 0
M  V30 1073 H 103.018 -3.86133 -0.681468 0
M  V30 1074 H 104.508 -3.82708 -1.67105 0
M  V30 1075 N 104.945 -0.338344 -1.53925 0
M  V30 1076 C 106.194 0.260732 -2.00008 0
M  V30 1077 C 106.507 1.52073 -1.23017 0
M  V30 1078 O 107.713 2.19672 -1.5955 0
M  V30 1079 C 106.169 0.51515 -3.56194 0
M  V30 1080 C 105.777 -0.728645 -4.42035 0
M  V30 1081 C 107.521 1.07337 -4.10706 0
M  V30 1082 C 105.428 -0.445315 -5.89721 0
M  V30 1083 H 104.358 0.101205 -0.747177 0
M  V30 1084 H 107.009 -0.452866 -1.77824 0
M  V30 1085 H 105.391 1.28932 -3.74423 0
M  V30 1086 H 106.565 -1.50352 -4.35581 0
M  V30 1087 H 104.88 -1.20813 -3.98489 0
M  V30 1088 H 107.477 1.30022 -5.18651 0
M  V30 1089 H 107.82 2.0273 -3.63602 0
M  V30 1090 H 108.353 0.360034 -3.96167 0
M  V30 1091 H 105.092 -1.36883 -6.41049 0
M  V30 1092 H 104.612 0.291569 -5.99091 0
M  V30 1093 H 106.291 -0.0606218 -6.46972 0
M  V30 1094 N 106.423 1.57458 -0.0668435 0
M  V30 1095 C 107.67 1.93301 0.603406 0
M  V30 1096 C 107.998 0.946486 1.69917 0
M  V30 1097 O 107.253 -0.0387021 1.95662 0
M  V30 1098 C 107.552 3.35784 1.22409 0
M  V30 1099 C 107.218 4.50179 0.254955 0
M  V30 1100 C 105.88 4.81199 -0.0116746 0
M  V30 1101 C 108.232 5.19598 -0.408338 0
M  V30 1102 C 105.56 5.78978 -0.94877 0
M  V30 1103 C 107.912 6.18381 -1.33372 0
M  V30 1104 C 106.576 6.47821 -1.60887 0
M  V30 1105 H 105.846 0.707338 0.220802 0
M  V30 1106 H 108.493 1.91012 -0.136665 0
M  V30 1107 H 106.798 3.34515 2.03978 0
M  V30 1108 H 108.495 3.60804 1.74989 0
M  V30 1109 H 105.085 4.25983 0.472954 0
M  V30 1110 H 109.269 4.95832 -0.215456 0
M  V30 1111 H 104.525 6.00115 -1.16925 0
M  V30 1112 H 108.699 6.71277 -1.85367 0
M  V30 1113 H 106.326 7.23399 -2.33661 0
M  V30 1114 N 107.901 -0.206675 1.56239 0
M  V30 1115 C 108.851 -1.26 1.90021 0
M  V30 1116 C 109.835 -1.41566 0.764721 0
M  V30 1117 O 111.027 -1.44131 1.02739 0
M  V30 1118 C 108.156 -2.6073 2.23326 0
M  V30 1119 C 107.242 -2.49005 3.43304 0
M  V30 1120 N 107.633 -2.06946 4.61527 0
M  V30 1121 C 105.931 -2.79927 3.47213 0
M  V30 1122 C 106.632 -2.06832 5.43687 0
M  V30 1123 N 105.608 -2.47892 4.83788 0
M  V30 1124 H 109.41 -0.925955 2.78932 0
M  V30 1125 H 106.924 -0.415172 1.57003 0
M  V30 1126 H 108.921 -3.36798 2.45708 0
M  V30 1127 H 107.581 -2.94968 1.35735 0
M  V30 1128 H 108.592 -1.77839 4.86409 0
M  V30 1129 H 105.269 -3.18438 2.70006 0
M  V30 1130 H 106.659 -1.76312 6.48354 0
M  V30 1131 N 109.379 -1.50304 -0.473955 0
M  V30 1132 C 110.289 -1.7174 -1.5982 0
M  V30 1133 C 111.305 -0.600457 -1.63311 0
M  V30 1134 O 112.481 -0.878441 -1.81233 0
M  V30 1135 C 109.546 -1.80427 -2.96052 0
M  V30 1136 C 108.607 -3.04148 -3.02972 0
M  V30 1137 C 107.84 -3.12411 -4.32706 0
M  V30 1138 O 108.063 -2.27542 -5.23049 0
M  V30 1139 O 106.997 -4.05113 -4.45159 0
M  V30 1140 H 110.823 -2.67035 -1.44657 0
M  V30 1141 H 108.408 -1.34366 -0.653148 0
M  V30 1142 H 110.29 -1.88338 -3.7697 0
M  V30 1143 H 108.965 -0.883156 -3.11419 0
M  V30 1144 H 107.872 -3.0174 -2.21142 0
M  V30 1145 H 109.205 -3.95829 -2.92541 0
M  V30 1146 N 110.857 0.726932 -1.39834 0
M  V30 1147 C 112.105 1.4837 -1.37225 0
M  V30 1148 C 112.426 1.94979 0.0284857 0
M  V30 1149 O 111.696 1.69555 0.981213 0
M  V30 1150 H 110.276 0.55043 -0.505011 0
M  V30 1151 H 112.938 0.862468 -1.74778 0
M  V30 1152 H 112.034 2.36198 -2.04003 0
M  V30 1153 N 112.336 1.25143 0.95797 0
M  V30 1154 C 113.299 1.05321 2.03569 0
M  V30 1155 C 114.299 0.007152 1.60798 0
M  V30 1156 O 115.489 0.24903 1.72411 0
M  V30 1157 C 112.621 0.598394 3.35607 0
M  V30 1158 H 113.814 2.00986 2.22586 0
M  V30 1159 H 111.367 1.07502 1.13459 0
M  V30 1160 H 112.102 -0.361014 3.22284 0
M  V30 1161 H 111.887 1.35351 3.67998 0
M  V30 1162 H 113.377 0.48104 4.1482 0
M  V30 1163 N 113.814 -1.1601 1.06675 0
M  V30 1164 C 115.054 -1.88304 0.795037 0
M  V30 1165 C 115.418 -1.80062 -0.666466 0
M  V30 1166 O 116.619 -2.47319 -1.05293 0
M  V30 1167 C 114.89 -3.33664 1.28076 0
M  V30 1168 S 116.449 -4.23768 1.13868 0
M  V30 1169 H 113.267 -0.649928 0.288296 0
M  V30 1170 H 115.869 -1.4001 1.36445 0
M  V30 1171 H 114.573 -3.37203 2.33927 0
M  V30 1172 H 114.104 -3.87009 0.706253 0
M  V30 1173 H 116.119 -4.96148 0.0719668 0
M  V30 1174 N 115.292 -0.849877 -1.32721 0
M  V30 1175 C 116.517 -0.463856 -2.02146 0
M  V30 1176 C 116.942 0.930449 -1.63476 0
M  V30 1177 O 116.3 1.61033 -0.832952 0
M  V30 1178 C 116.348 -0.604955 -3.55489 0
M  V30 1179 O 115.452 0.36425 -4.10788 0
M  V30 1180 H 114.793 -0.187046 -0.637111 0
M  V30 1181 H 117.323 -1.14775 -1.69375 0
M  V30 1182 H 117.333 -0.490696 -4.05038 0
M  V30 1183 H 116.008 -1.62174 -3.82978 0
M  V30 1184 H 114.585 0.206628 -3.72327 0
M  V30 1185 N 116.77 1.45427 -0.607355 0
M  V30 1186 C 117.995 2.07124 -0.107006 0
M  V30 1187 C 118.42 1.44906 1.19933 0
M  V30 1188 O 117.778 0.541687 1.73019 0
M  V30 1189 C 117.826 3.60595 0.0194119 0
M  V30 1190 O 116.93 3.98285 1.0697 0
M  V30 1191 H 116.271 0.659868 -0.0739597 0
M  V30 1192 H 118.801 1.86683 -0.837297 0
M  V30 1193 H 118.811 4.07419 0.2177 0
M  V30 1194 H 117.486 4.05266 -0.934453 0
M  V30 1195 H 116.063 3.63133 0.847889 0
M  V30 1196 N 118.248 0.346503 1.53744 0
M  V30 1197 C 119.476 -0.25041 2.05379 0
M  V30 1198 C 119.891 -1.43979 1.22129 0
M  V30 1199 O 119.248 -1.80677 0.257321 0
M  V30 1200 C 119.299 -0.662575 3.55376 0
M  V30 1201 O 119.02 0.479515 4.35468 0
M  V30 1202 C 120.521 -1.31989 4.23195 0
M  V30 1203 H 117.741 -0.0478198 0.669294 0
M  V30 1204 H 120.285 0.499346 1.9831 0
M  V30 1205 H 118.44 -1.36227 3.62658 0
M  V30 1206 H 118.854 0.15037 5.24284 0
M  V30 1207 H 120.328 -1.55902 5.29527 0
M  V30 1208 H 120.805 -2.27436 3.75725 0
M  V30 1209 H 121.411 -0.662154 4.20114 0
M  V30 1210 N 119.726 -1.57421 0.075193 0
M  V30 1211 C 120.954 -1.97946 -0.602076 0
M  V30 1212 C 121.369 -0.953674 -1.62943 0
M  V30 1213 O 120.726 0.0592551 -1.82404 0
M  V30 1214 C 120.777 -3.38546 -1.26762 0
M  V30 1215 O 120.498 -4.37195 -0.281376 0
M  V30 1216 C 121.999 -3.93966 -2.03239 0
M  V30 1217 H 119.219 -0.650918 -0.162931 0
M  V30 1218 H 121.763 -2.03959 0.148601 0
M  V30 1219 H 119.918 -3.33609 -1.96936 0
M  V30 1220 H 120.332 -5.18975 -0.759267 0
M  V30 1221 H 121.806 -4.94555 -2.45193 0
M  V30 1222 H 122.283 -3.30693 -2.8903 0
M  V30 1223 H 122.889 -4.02315 -1.37924 0
M  V30 1224 N 121.204 0.198386 -1.56346 0
M  V30 1225 C 122.114 1.2664 -1.97483 0
M  V30 1226 C 123.13 1.49989 -0.882002 0
M  V30 1227 O 124.306 1.62668 -1.18748 0
M  V30 1228 C 121.371 2.59141 -2.30319 0
M  V30 1229 C 120.432 2.43892 -3.53292 0
M  V30 1230 C 119.665 3.70074 -3.84553 0
M  V30 1231 O 119.888 4.74101 -3.1715 0
M  V30 1232 O 118.822 3.658 -4.7799 0
M  V30 1233 H 122.648 0.947304 -2.88548 0
M  V30 1234 H 120.233 0.403123 -1.43859 0
M  V30 1235 H 122.115 3.37352 -2.5253 0
M  V30 1236 H 120.79 2.90684 -1.42423 0
M  V30 1237 H 119.697 1.63803 -3.36332 0
M  V30 1238 H 121.03 2.17282 -4.41644 0
M  V30 1239 N 122.682 1.50554 0.465978 0
M  V30 1240 C 123.928 1.63006 1.21658 0
M  V30 1241 C 124.283 0.328613 1.89573 0
M  V30 1242 O 123.576 -0.673813 1.79361 0
M  V30 1243 C 123.77 2.75152 2.28093 0
M  V30 1244 C 123.599 4.16075 1.7062 0
M  V30 1245 C 122.369 4.82408 1.50368 0
M  V30 1246 C 124.567 5.00145 1.1983 0
M  V30 1247 N 122.549 6.07532 0.881924 0
M  V30 1248 C 123.92 6.16035 0.700083 0
M  V30 1249 C 125.975 4.85882 1.08733 0
M  V30 1250 C 124.678 7.19228 0.101835 0
M  V30 1251 C 126.704 5.89257 0.503016 0
M  V30 1252 C 126.066 7.04398 0.0152005 0
M  V30 1253 H 122.165 0.650596 0.433877 0
M  V30 1254 H 124.749 1.8769 0.517746 0
M  V30 1255 H 122.92 2.52181 2.95397 0
M  V30 1256 H 124.652 2.76935 2.95109 0
M  V30 1257 H 121.407 4.39788 1.75737 0
M  V30 1258 H 121.831 6.7443 0.589312 0
M  V30 1259 H 126.473 3.97144 1.4504 0
M  V30 1260 H 124.191 8.07637 -0.273426 0
M  V30 1261 H 127.777 5.80286 0.419451 0
M  V30 1262 H 126.657 7.83021 -0.429856 0
M  V30 1263 N 124.16 -0.719506 1.40217 0
M  V30 1264 C 125.437 -1.47221 1.28784 0
M  V30 1265 C 125.817 -2.10883 -0.0956067 0
M  V30 1266 O 125.165 -1.99833 -1.10811 0
M  V30 1267 C 125.375 -2.5111 2.42373 0
M  V30 1268 C 126.723 -3.17053 2.82423 0
M  V30 1269 O 127.747 -2.61429 2.41937 0
M  V30 1270 O 126.606 -4.17742 3.52355 0
M  V30 1271 H 123.7 -0.654491 0.50554 0
M  V30 1272 H 126.246 -0.752014 1.52128 0
M  V30 1273 H 125.018 -2.02556 3.34793 0
M  V30 1274 H 124.641 -3.3067 2.20778 0
M  V30 1275 N 125.638 -1.25649 -0.95132 0
M  V30 1276 C 126.886 -1.10375 -1.69298 0
M  V30 1277 C 127.207 0.355339 -1.91735 0
M  V30 1278 O 126.477 1.25188 -1.50681 0
M  V30 1279 H 125.057 -0.405461 -0.627384 0
M  V30 1280 H 127.719 -1.57823 -1.14358 0
M  V30 1281 H 126.815 -1.61465 -2.67087 0
M  V30 1282 N 127.117 1.15442 -1.07289 0
M  V30 1283 C 128.064 2.20161 -0.692653 0
M  V30 1284 C 129.034 1.63073 0.31564 0
M  V30 1285 O 130.219 1.89725 0.202235 0
M  V30 1286 C 127.359 3.44967 -0.0959509 0
M  V30 1287 C 126.472 4.16256 -1.15564 0
M  V30 1288 C 125.607 5.28609 -0.524011 0
M  V30 1289 C 124.646 5.91715 -1.56653 0
M  V30 1290 N 123.783 6.9554 -0.957531 0
M  V30 1291 H 128.623 2.52037 -1.59002 0
M  V30 1292 H 126.16 1.2378 -0.794798 0
M  V30 1293 H 128.118 4.16341 0.267628 0
M  V30 1294 H 126.748 3.1361 0.764772 0
M  V30 1295 H 125.8 3.43385 -1.6368 0
M  V30 1296 H 127.112 4.59268 -1.94613 0
M  V30 1297 H 126.266 6.06604 -0.108032 0
M  V30 1298 H 125.005 4.86787 0.29825 0
M  V30 1299 H 124.01 5.12433 -1.9923 0
M  V30 1300 H 125.235 6.35614 -2.39107 0
M  V30 1301 H 123.181 6.55814 -0.156162 0
M  V30 1302 H 123.098 7.36977 -1.68526 0
M  V30 1303 H 124.366 7.77435 -0.567032 0
M  V30 1304 N 128.595 0.856903 1.32268 0
M  V30 1305 C 129.825 0.47475 2.01071 0
M  V30 1306 C 130.233 -0.933746 1.64553 0
M  V30 1307 O 129.576 -1.62114 0.863989 0
M  V30 1308 C 129.638 0.536746 3.55471 0
M  V30 1309 C 129.302 1.90453 4.15423 0
M  V30 1310 C 130.299 2.87029 4.33486 0
M  V30 1311 C 127.984 2.20229 4.51447 0
M  V30 1312 C 129.978 4.11532 4.86744 0
M  V30 1313 C 127.665 3.44984 5.0441 0
M  V30 1314 C 128.663 4.40452 5.22007 0
M  V30 1315 O 128.351 5.62998 5.73837 0
M  V30 1316 H 128.083 0.184778 0.650256 0
M  V30 1317 H 130.637 1.15615 1.69771 0
M  V30 1318 H 128.867 -0.20152 3.86175 0
M  V30 1319 H 130.556 0.169875 4.05544 0
M  V30 1320 H 131.322 2.6533 4.05986 0
M  V30 1321 H 127.201 1.46705 4.37034 0
M  V30 1322 H 130.745 4.86056 5.00395 0
M  V30 1323 H 126.642 3.66532 5.31342 0
M  V30 1324 H 127.41 5.64987 5.92226 0
M  V30 1325 N 130.073 -1.45103 0.615059 0
M  V30 1326 C 131.006 -2.27717 -0.148408 0
M  V30 1327 C 131.984 -1.37584 -0.866572 0
M  V30 1328 O 133.168 -1.67017 -0.87393 0
M  V30 1329 C 130.295 -3.16136 -1.21557 0
M  V30 1330 C 129.341 -4.22263 -0.599712 0
M  V30 1331 S 130.174 -5.3215 0.598081 0
M  V30 1332 C 131.33 -6.24137 -0.469484 0
M  V30 1333 H 131.563 -2.92121 0.552483 0
M  V30 1334 H 129.096 -1.49054 0.402778 0
M  V30 1335 H 131.054 -3.67633 -1.82638 0
M  V30 1336 H 129.715 -2.50982 -1.88857 0
M  V30 1337 H 128.908 -4.84081 -1.4029 0
M  V30 1338 H 128.51 -3.73945 -0.063876 0
M  V30 1339 H 130.802 -6.63984 -1.34652 0
M  V30 1340 H 131.745 -7.0801 0.112725 0
M  V30 1341 H 132.153 -5.58971 -0.788168 0
M  V30 1342 N 131.551 -0.354651 -1.53558 0
M  V30 1343 C 132.484 0.540273 -2.21712 0
M  V30 1344 C 133.462 1.09161 -1.2051 0
M  V30 1345 O 134.646 1.14979 -1.49372 0
M  V30 1346 C 131.773 1.74435 -2.90328 0
M  V30 1347 C 130.819 1.32146 -4.05512 0
M  V30 1348 S 131.652 0.331924 -5.3447 0
M  V30 1349 C 132.808 1.54258 -6.06593 0
M  V30 1350 H 133.041 -0.0385776 -2.97275 0
M  V30 1351 H 130.574 -0.138736 -1.53775 0
M  V30 1352 H 132.532 2.43507 -3.30476 0
M  V30 1353 H 131.193 2.29444 -2.1451 0
M  V30 1354 H 130.386 2.21952 -4.52497 0
M  V30 1355 H 129.988 0.710091 -3.67197 0
M  V30 1356 H 132.28 2.47534 -6.30661 0
M  V30 1357 H 133.223 1.11431 -6.99277 0
M  V30 1358 H 133.631 1.74367 -5.36895 0
M  V30 1359 N 133.029 1.57378 -0.0835403 0
M  V30 1360 C 134.306 1.85363 0.624507 0
M  V30 1361 C 134.686 0.978239 1.87066 0
M  V30 1362 O 134.034 0.0475908 2.2845 0
M  V30 1363 C 134.244 3.35795 0.950947 0
M  V30 1364 C 135.592 4.03581 1.31939 0
M  V30 1365 O 136.616 3.40609 1.04232 0
M  V30 1366 O 135.475 5.14672 1.83779 0
M  V30 1367 H 132.569 0.766162 0.311329 0
M  V30 1368 H 135.115 1.69307 -0.115362 0
M  V30 1369 H 133.887 3.91244 0.0663899 0
M  V30 1370 H 133.51 3.57154 1.74719 0
M  V30 1371 N 134.507 -0.190092 1.56449 0
M  V30 1372 C 135.455 -1.25501 1.95837 0
M  V30 1373 C 136.449 -1.4685 0.844485 0
M  V30 1374 O 137.655 -1.47651 1.02952 0
M  V30 1375 H 134.03 -0.421447 0.622805 0
M  V30 1376 H 136.001 -0.895821 2.84636 0
M  V30 1377 C 134.75 -2.59124 2.31841 0
M  V30 1378 H 134.073 -2.43514 3.17082 0
M  V30 1379 H 135.513 -3.32371 2.6326 0
M  V30 1380 C 133.972 -3.16488 1.15486 0
M  V30 1381 O 134.502 -3.99365 0.432535 0
M  V30 1382 N 132.708 -2.75305 0.930349 0
M  V30 1383 H 132.255 -2.08013 1.51948 0
M  V30 1384 H 132.213 -3.14024 0.153634 0
M  V30 1385 N 135.985 -1.50799 -0.457987 0
M  V30 1386 C 136.933 -1.71162 -1.575 0
M  V30 1387 C 137.927 -0.577592 -1.59249 0
M  V30 1388 O 139.133 -0.758443 -1.63241 0
M  V30 1389 H 135.508 -0.540468 -0.522875 0
M  V30 1390 H 137.479 -2.64837 -1.37492 0
M  V30 1391 C 136.228 -1.83496 -2.95338 0
M  V30 1392 H 135.551 -2.70153 -2.94716 0
M  V30 1393 H 136.991 -2.01765 -3.72917 0
M  V30 1394 C 135.45 -0.589694 -3.31699 0
M  V30 1395 O 135.98 0.265163 -4.00824 0
M  V30 1396 N 134.186 -0.439845 -2.87252 0
M  V30 1397 H 133.733 -1.13655 -2.31172 0
M  V30 1398 H 133.691 0.392159 -3.11945 0
M  V30 1399 N 137.463 0.71206 -1.40597 0
M  V30 1400 C 138.693 1.49894 -1.42181 0
M  V30 1401 C 139.101 1.89189 -0.0208078 0
M  V30 1402 O 138.444 1.56223 0.966436 0
M  V30 1403 C 138.506 2.80215 -2.25211 0
M  V30 1404 C 138.17 2.63221 -3.73582 0
M  V30 1405 C 139.167 2.30249 -4.66135 0
M  V30 1406 C 136.852 2.79376 -4.17438 0
M  V30 1407 C 138.846 2.13645 -6.00529 0
M  V30 1408 C 136.533 2.6239 -5.51901 0
M  V30 1409 C 137.531 2.29573 -6.43262 0
M  V30 1410 O 137.219 2.12719 -7.75246 0
M  V30 1411 H 136.951 0.469031 -0.486812 0
M  V30 1412 H 139.505 0.88564 -1.85326 0
M  V30 1413 H 137.735 3.4389 -1.76852 0
M  V30 1414 H 139.424 3.41947 -2.18694 0
M  V30 1415 H 140.19 2.17398 -4.33547 0
M  V30 1416 H 136.069 3.03906 -3.46644 0
M  V30 1417 H 139.613 1.87953 -6.71803 0
M  V30 1418 H 135.51 2.74826 -5.84073 0
M  V30 1419 H 136.278 2.27611 -7.86216 0
M  V30 1420 N 138.941 1.26152 0.944643 0
M  V30 1421 C 139.873 1.03199 2.04652 0
M  V30 1422 C 140.886 -0.00642356 1.62799 0
M  V30 1423 O 142.075 0.233263 1.76969 0
M  V30 1424 C 139.175 0.540111 3.34568 0
M  V30 1425 C 138.348 1.64697 4.05208 0
M  V30 1426 C 137.407 1.15374 5.13396 0
M  V30 1427 O 136.433 1.85013 5.38293 0
M  V30 1428 N 137.635 0.00031529 5.805 0
M  V30 1429 H 140.4 1.9808 2.2491 0
M  V30 1430 H 137.961 1.17491 1.11389 0
M  V30 1431 H 139.953 0.194401 4.04233 0
M  V30 1432 H 138.523 -0.315021 3.11009 0
M  V30 1433 H 137.743 2.16379 3.29506 0
M  V30 1434 H 139.031 2.3903 4.49157 0
M  V30 1435 H 138.429 -0.581336 5.62705 0
M  V30 1436 H 136.986 -0.286346 6.51171 0
M  V30 1437 N 140.419 -1.14872 1.07899 0
M  V30 1438 C 141.649 -1.89386 0.825631 0
M  V30 1439 C 142.057 -1.78565 -0.625406 0
M  V30 1440 O 141.4 -1.13918 -1.44113 0
M  V30 1441 C 141.462 -3.40206 1.16191 0
M  V30 1442 C 141.126 -3.74812 2.61467 0
M  V30 1443 C 142.123 -3.75367 3.59716 0
M  V30 1444 C 139.808 -4.0495 2.97189 0
M  V30 1445 C 141.802 -4.05574 4.9172 0
M  V30 1446 C 139.489 -4.34821 4.29388 0
M  V30 1447 C 140.487 -4.35116 5.26463 0
M  V30 1448 O 140.175 -4.64267 6.56286 0
M  V30 1449 H 139.907 -0.606894 0.297751 0
M  V30 1450 H 142.461 -1.46438 1.44031 0
M  V30 1451 H 140.691 -3.8358 0.490214 0
M  V30 1452 H 142.38 -3.96018 0.890193 0
M  V30 1453 H 143.146 -3.52176 3.33462 0
M  V30 1454 H 139.025 -4.03876 2.22273 0
M  V30 1455 H 142.569 -4.05719 5.67484 0
M  V30 1456 H 138.466 -4.5748 4.55392 0
M  V30 1457 H 139.234 -4.82007 6.61522 0
M  V30 1458 N 141.898 -0.863906 -1.31812 0
M  V30 1459 C 143.123 -0.48527 -2.01643 0
M  V30 1460 C 143.548 0.913058 -1.64453 0
M  V30 1461 O 142.906 1.6014 -0.849985 0
M  V30 1462 C 142.954 -0.642625 -3.54828 0
M  V30 1463 O 142.058 0.320659 -4.11151 0
M  V30 1464 H 141.399 -0.193793 -0.635091 0
M  V30 1465 H 143.929 -1.16565 -1.68148 0
M  V30 1466 H 143.939 -0.533628 -4.04495 0
M  V30 1467 H 142.614 -1.66227 -3.81237 0
M  V30 1468 H 141.191 0.167126 -3.72525 0
M  V30 1469 N 143.376 1.44774 -0.622745 0
M  V30 1470 C 144.323 2.30635 0.0871679 0
M  V30 1471 C 145.293 1.42994 0.845097 0
M  V30 1472 O 146.478 1.71907 0.827812 0
M  V30 1473 C 143.618 3.28144 1.06844 0
M  V30 1474 C 142.731 4.30888 0.309809 0
M  V30 1475 C 141.866 5.15494 1.28215 0
M  V30 1476 C 140.905 6.09953 0.512198 0
M  V30 1477 N 140.042 6.87287 1.43458 0
M  V30 1478 H 144.882 2.90803 -0.650974 0
M  V30 1479 H 142.419 1.43286 -0.33281 0
M  V30 1480 H 144.377 3.83157 1.65066 0
M  V30 1481 H 143.007 2.69695 1.77382 0
M  V30 1482 H 142.059 3.78414 -0.388181 0
M  V30 1483 H 143.371 4.97955 -0.290254 0
M  V30 1484 H 142.525 5.74983 1.93596 0
M  V30 1485 H 141.264 4.48481 1.91614 0
M  V30 1486 H 140.269 5.49581 -0.155151 0
M  V30 1487 H 141.494 6.78999 -0.116958 0
M  V30 1488 H 139.44 6.2295 2.05594 0
M  V30 1489 H 139.357 7.50763 0.888335 0
M  V30 1490 H 140.625 7.51306 2.07749 0
M  V30 1491 N 144.854 0.36279 1.53368 0
M  V30 1492 C 145.764 -0.492994 2.29362 0
M  V30 1493 C 146.78 -1.09507 1.35219 0
M  V30 1494 O 147.956 -1.10662 1.68273 0
M  V30 1495 C 145.021 -1.61855 3.066 0
M  V30 1496 C 144.082 -1.04429 4.16405 0
M  V30 1497 C 143.315 -2.11621 4.89951 0
M  V30 1498 O 143.538 -3.32684 4.63333 0
M  V30 1499 O 142.472 -1.74835 5.75948 0
M  V30 1500 H 146.298 0.125331 3.03441 0
M  V30 1501 H 143.883 0.127253 1.48857 0
M  V30 1502 H 145.765 -2.27302 3.54841 0
M  V30 1503 H 144.44 -2.22233 2.3536 0
M  V30 1504 H 143.347 -0.353819 3.72423 0
M  V30 1505 H 144.68 -0.485113 4.89804 0
M  V30 1506 N 146.332 -1.57332 0.0918853 0
M  V30 1507 C 147.262 -2.16872 -0.865371 0
M  V30 1508 C 148.243 -1.10118 -1.29646 0
M  V30 1509 O 149.428 -1.38242 -1.36392 0
M  V30 1510 C 146.558 -2.74649 -2.12569 0
M  V30 1511 C 145.512 -3.86747 -1.83333 0
M  V30 1512 C 144.838 -4.31212 -3.16166 0
M  V30 1513 C 146.138 -5.10089 -1.1228 0
M  V30 1514 H 147.832 -2.97114 -0.369307 0
M  V30 1515 H 145.378 -1.42918 -0.176194 0
M  V30 1516 H 147.331 -3.14952 -2.7997 0
M  V30 1517 H 146.055 -1.91657 -2.64452 0
M  V30 1518 H 144.714 -3.46978 -1.18331 0
M  V30 1519 H 144.362 -3.45115 -3.6593 0
M  V30 1520 H 144.062 -5.06788 -2.97388 0
M  V30 1521 H 145.586 -4.74146 -3.84731 0
M  V30 1522 H 147 -5.47582 -1.69785 0
M  V30 1523 H 145.397 -5.91073 -1.03693 0
M  V30 1524 H 146.467 -4.84786 -0.105041 0
M  V30 1525 N 147.81 0.181792 -1.56548 0
M  V30 1526 C 148.74 1.22765 -1.98623 0
M  V30 1527 C 149.721 1.46747 -0.860189 0
M  V30 1528 O 150.906 1.58259 -1.12551 0
M  V30 1529 C 148.036 2.56894 -2.33715 0
M  V30 1530 C 146.99 2.475 -3.49182 0
M  V30 1531 C 146.316 3.86023 -3.69986 0
M  V30 1532 C 147.616 1.98866 -4.82959 0
M  V30 1533 H 149.31 0.877942 -2.86239 0
M  V30 1534 H 146.856 0.42088 -1.37712 0
M  V30 1535 H 148.809 3.30253 -2.61746 0
M  V30 1536 H 147.533 2.93632 -1.42997 0
M  V30 1537 H 146.192 1.76596 -3.21262 0
M  V30 1538 H 145.84 4.20136 -2.76576 0
M  V30 1539 H 145.54 3.80609 -4.47672 0
M  V30 1540 H 147.064 4.60984 -4.00407 0
M  V30 1541 H 148.478 2.61992 -5.09934 0
M  V30 1542 H 146.875 2.04424 -5.64208 0
M  V30 1543 H 147.945 0.942465 -4.75653 0
M  V30 1544 N 149.288 1.51039 0.449983 0
M  V30 1545 C 150.238 1.67824 1.54335 0
M  V30 1546 C 151.222 0.5324 1.51836 0
M  V30 1547 O 152.414 0.787762 1.58503 0
M  V30 1548 C 149.543 1.7951 2.92628 0
M  V30 1549 C 148.629 2.99838 2.9993 0
M  V30 1550 N 149.02 4.23207 2.77001 0
M  V30 1551 C 147.318 2.98832 3.31082 0
M  V30 1552 C 148.019 5.04361 2.89818 0
M  V30 1553 N 146.995 4.38746 3.2094 0
M  V30 1554 H 150.797 2.60884 1.35339 0
M  V30 1555 H 148.311 1.48513 0.657085 0
M  V30 1556 H 150.308 1.89642 3.7127 0
M  V30 1557 H 148.968 0.876227 3.12654 0
M  V30 1558 H 149.979 4.5236 2.52172 0
M  V30 1559 H 146.656 2.16527 3.56963 0
M  V30 1560 H 148.046 6.12528 2.76151 0
M  V30 1561 N 150.766 -0.704594 1.40972 0
M  V30 1562 C 151.996 -1.49138 1.42974 0
M  V30 1563 C 152.404 -1.89175 0.0308406 0
M  V30 1564 O 151.747 -1.56734 -0.958138 0
M  V30 1565 C 151.809 -2.79016 2.26694 0
M  V30 1566 C 151.473 -2.61236 3.74973 0
M  V30 1567 C 152.47 -2.27773 4.67349 0
M  V30 1568 C 150.155 -2.77158 4.18914 0
M  V30 1569 C 152.149 -2.10457 6.01653 0
M  V30 1570 C 149.836 -2.59459 5.53285 0
M  V30 1571 C 150.834 -2.26158 6.4447 0
M  V30 1572 O 150.522 -2.08605 7.76363 0
M  V30 1573 H 150.254 -0.466443 0.489292 0
M  V30 1574 H 152.808 -0.8758 1.85793 0
M  V30 1575 H 151.038 -3.42947 1.78673 0
M  V30 1576 H 152.727 -3.40782 2.20504 0
M  V30 1577 H 153.493 -2.15095 4.34694 0
M  V30 1578 H 149.372 -3.02064 3.48251 0
M  V30 1579 H 152.916 -1.84387 6.72791 0
M  V30 1580 H 148.813 -2.71725 5.85522 0
M  V30 1581 H 149.581 -2.23439 7.87412 0
M  V30 1582 N 152.244 -1.26651 -0.937939 0
M  V30 1583 C 153.484 -1.13611 -1.69917 0
M  V30 1584 C 153.848 0.314687 -1.89404 0
M  V30 1585 O 155.049 0.567285 -2.62746 0
M  V30 1586 C 153.32 -1.88742 -3.03498 0
M  V30 1587 S 154.879 -1.91794 -3.94665 0
M  V30 1588 H 151.697 -0.405767 -0.583844 0
M  V30 1589 H 154.299 -1.60416 -1.11745 0
M  V30 1590 H 153.003 -2.9336 -2.86999 0
M  V30 1591 H 152.534 -1.42391 -3.66727 0
M  V30 1592 H 154.549 -1.00698 -4.85875 0
M  V30 1593 N 153.722 1.14298 -1.08507 0
M  V30 1594 C 154.652 2.21542 -0.737646 0
M  V30 1595 C 155.633 1.67773 0.280377 0
M  V30 1596 O 156.818 1.93616 0.150521 0
M  V30 1597 C 153.948 3.46988 -0.147259 0
M  V30 1598 C 152.902 4.13789 -1.09374 0
M  V30 1599 C 152.228 5.33449 -0.365524 0
M  V30 1600 C 153.528 4.62208 -2.4323 0
M  V30 1601 H 155.222 2.5086 -1.6343 0
M  V30 1602 H 152.768 1.20576 -0.787243 0
M  V30 1603 H 154.721 4.21262 0.107808 0
M  V30 1604 H 153.445 3.17037 0.784538 0
M  V30 1605 H 152.104 3.4147 -1.33393 0
M  V30 1606 H 151.752 4.99759 0.57011 0
M  V30 1607 H 151.452 5.79088 -0.996512 0
M  V30 1608 H 152.976 6.10485 -0.118534 0
M  V30 1609 H 154.39 5.27952 -2.23472 0
M  V30 1610 H 152.787 5.18553 -3.02031 0
M  V30 1611 H 153.857 3.77224 -3.04681 0
M  V30 1612 N 155.201 0.870884 1.31352 0
M  V30 1613 C 156.111 0.330783 2.32256 0
M  V30 1614 C 157.127 -0.559767 1.6475 0
M  V30 1615 O 158.303 -0.456263 1.96164 0
M  V30 1616 C 155.368 -0.458137 3.4366 0
M  V30 1617 C 154.429 0.460482 4.26823 0
M  V30 1618 C 153.662 -0.290881 5.32907 0
M  V30 1619 O 153.885 -1.51885 5.49806 0
M  V30 1620 O 152.819 0.351732 6.00871 0
M  V30 1621 H 156.645 1.16718 2.80376 0
M  V30 1622 H 154.23 0.634285 1.35267 0
M  V30 1623 H 156.112 -0.905343 4.1156 0
M  V30 1624 H 154.787 -1.27106 2.97701 0
M  V30 1625 H 153.694 0.956207 3.61673 0
M  V30 1626 H 155.027 1.23903 4.7635 0
M  V30 1627 N 156.679 -1.44442 0.630414 0
M  V30 1628 C 158.095 -1.56832 0.295973 0
M  V30 1629 C 158.295 -1.61806 -1.20088 0
M  V30 1630 O 157.351 -1.5607 -1.9849 0
M  V30 1631 C 158.664 -2.84031 0.987264 0
M  V30 1632 C 160.212 -2.97742 0.96534 0
M  V30 1633 C 160.687 -4.27743 1.63708 0
M  V30 1634 N 162.178 -4.34555 1.60364 0
M  V30 1635 C 162.913 -5.33862 2.09234 0
M  V30 1636 N 162.409 -6.39578 2.66292 0
M  V30 1637 N 164.202 -5.25366 1.99867 0
M  V30 1638 H 156.353 -1.39457 1.60205 0
M  V30 1639 H 158.616 -0.668237 0.672431 0
M  V30 1640 H 158.322 -2.86338 2.04215 0
M  V30 1641 H 158.196 -3.73534 0.524588 0
M  V30 1642 H 160.583 -2.94989 -0.0810639 0
M  V30 1643 H 160.664 -2.09589 1.4665 0
M  V30 1644 H 160.308 -4.31255 2.68293 0
M  V30 1645 H 160.238 -5.14752 1.11076 0
M  V30 1646 H 162.729 -3.58772 1.18705 0
M  V30 1647 H 163.042 -7.11637 3.01317 0
M  V30 1648 H 161.387 -6.40265 2.70343 0
M  V30 1649 H 164.578 -4.41688 1.55013 0
M  V30 1650 H 164.751 -6.02606 2.38265 0
M  V30 1651 N 158.157 -0.370918 -1.53173 0
M  V30 1652 C 159.067 0.480823 -2.2962 0
M  V30 1653 C 160.083 1.08789 -1.35798 0
M  V30 1654 O 161.259 1.09768 -1.68858 0
M  V30 1655 C 158.324 1.60227 -3.07454 0
M  V30 1656 C 157.385 1.0222 -4.16953 0
M  V30 1657 C 156.618 2.0902 -4.91066 0
M  V30 1658 O 156.841 3.30222 -4.65091 0
M  V30 1659 O 155.775 1.71778 -5.76867 0
M  V30 1660 H 159.601 -0.141421 -3.03371 0
M  V30 1661 H 157.186 -0.135146 -1.48787 0
M  V30 1662 H 159.068 2.25417 -3.56041 0
M  V30 1663 H 157.743 2.20982 -2.36535 0
M  V30 1664 H 156.65 0.334064 -3.72605 0
M  V30 1665 H 157.983 0.459131 -4.90054 0
M  V30 1666 N 159.635 1.57281 -0.100228 0
M  V30 1667 C 160.884 1.93713 0.561984 0
M  V30 1668 C 161.197 0.984492 1.69018 0
M  V30 1669 O 162.403 1.24273 2.41389 0
M  V30 1670 C 160.859 3.4421 1.05106 0
M  V30 1671 C 160.467 4.47975 -0.0476628 0
M  V30 1672 C 162.211 3.89595 1.68571 0
M  V30 1673 C 160.118 5.89631 0.457055 0
M  V30 1674 H 159.048 0.723082 0.2137 0
M  V30 1675 H 161.699 1.82644 -0.177057 0
M  V30 1676 H 160.081 3.50449 1.84395 0
M  V30 1677 H 161.255 4.53385 -0.823333 0
M  V30 1678 H 159.57 4.1223 -0.587816 0
M  V30 1679 H 162.167 4.92832 2.07414 0
M  V30 1680 H 162.51 3.28526 2.55688 0
M  V30 1681 H 163.043 3.86078 0.958562 0
M  V30 1682 H 159.782 6.54411 -0.377616 0
M  V30 1683 H 159.302 5.87681 1.19962 0
M  V30 1684 H 160.981 6.40363 0.92437 0
M  V30 1685 N 161.113 -0.173488 1.56642 0
M  V30 1686 C 162.524 -0.736155 1.71574 0
M  V30 1687 C 162.875 -1.82888 0.710389 0
M  V30 1688 O 162 -2.16017 -0.1287 0
M  V30 1689 C 162.595 -1.34211 3.11083 0
M  V30 1690 C 161.154 -1.85162 3.27707 0
M  V30 1691 C 160.301 -0.729765 2.67525 0
M  V30 1692 H 163.252 0.0518786 1.58615 0
M  V30 1693 H 163.273 -2.21178 3.09613 0
M  V30 1694 H 162.785 -0.546579 3.84232 0
M  V30 1695 H 160.886 -2.67366 2.59512 0
M  V30 1696 H 160.999 -1.99855 4.35425 0
M  V30 1697 H 159.363 -1.14965 2.27278 0
M  V30 1698 H 160.146 0.0538806 3.43258 0
M  V30 1699 N 162.591 -1.51276 -0.441967 0
M  V30 1700 C 163.838 -1.63715 -1.19179 0
M  V30 1701 C 164.166 -0.351175 -1.91303 0
M  V30 1702 O 163.421 0.664524 -1.84072 0
M  V30 1703 C 163.72 -2.78746 -2.23686 0
M  V30 1704 C 163.386 -4.18189 -1.68607 0
M  V30 1705 C 162.048 -4.56125 -1.53308 0
M  V30 1706 C 164.4 -5.05222 -1.28062 0
M  V30 1707 C 161.728 -5.78804 -0.959317 0
M  V30 1708 C 164.08 -6.28476 -0.721162 0
M  V30 1709 C 162.744 -6.65188 -0.55504 0
M  V30 1710 H 162.014 -0.599076 -0.436106 0
M  V30 1711 H 164.661 -1.85296 -0.48351 0
M  V30 1712 H 162.966 -2.51369 -3.00535 0
M  V30 1713 H 164.663 -2.8557 -2.81515 0
M  V30 1714 H 161.253 -3.88277 -1.8149 0
M  V30 1715 H 165.437 -4.76524 -1.38704 0
M  V30 1716 H 160.693 -6.05899 -0.81833 0
M  V30 1717 H 164.867 -6.95259 -0.398458 0
M  V30 1718 H 162.494 -7.60123 -0.108311 0
M  V30 1719 N 164.069 0.697108 -1.41344 0
M  V30 1720 C 164.999 1.82353 -1.45841 0
M  V30 1721 C 165.98 1.67115 -0.317247 0
M  V30 1722 O 167.165 1.86871 -0.528474 0
M  V30 1723 C 164.295 3.20476 -1.33838 0
M  V30 1724 C 163.249 3.50415 -2.4575 0
M  V30 1725 C 162.575 4.87878 -2.18813 0
M  V30 1726 C 163.875 3.49546 -3.88091 0
M  V30 1727 H 165.569 1.78846 -2.40113 0
M  V30 1728 H 163.115 0.859028 -1.15571 0
M  V30 1729 H 165.068 3.98988 -1.35596 0
M  V30 1730 H 163.792 3.24604 -0.360498 0
M  V30 1731 H 162.451 2.74253 -2.43271 0
M  V30 1732 H 162.099 4.8863 -1.19371 0
M  V30 1733 H 161.799 5.08875 -2.93803 0
M  V30 1734 H 163.323 5.68702 -2.22284 0
M  V30 1735 H 164.737 4.18066 -3.92293 0
M  V30 1736 H 163.134 3.82075 -4.62751 0
M  V30 1737 H 164.204 2.48552 -4.16353 0
M  V30 1738 N 165.547 1.27147 0.931209 0
M  V30 1739 C 166.777 1.15914 1.71019 0
M  V30 1740 C 167.185 -0.287112 1.87009 0
M  V30 1741 O 166.528 -1.20761 1.38429 0
M  V30 1742 C 166.59 1.76647 3.13107 0
M  V30 1743 C 166.254 3.25807 3.20467 0
M  V30 1744 C 167.251 4.22489 3.02983 0
M  V30 1745 C 164.936 3.66452 3.43538 0
M  V30 1746 C 166.93 5.57794 3.08454 0
M  V30 1747 C 164.617 5.01888 3.48643 0
M  V30 1748 C 165.615 5.97369 3.31119 0
M  V30 1749 O 165.303 7.30337 3.35952 0
M  V30 1750 H 165.035 0.404062 0.54195 0
M  V30 1751 H 167.589 1.68457 1.17521 0
M  V30 1752 H 165.819 1.18578 3.68071 0
M  V30 1753 H 167.508 1.60179 3.72958 0
M  V30 1754 H 168.274 3.92425 2.85004 0
M  V30 1755 H 164.153 2.92611 3.5623 0
M  V30 1756 H 167.697 6.32298 2.94694 0
M  V30 1757 H 163.594 5.31609 3.66145 0
M  V30 1758 H 164.362 7.38739 3.5243 0
M  V30 1759 N 167.025 -1.13721 1.09112 0
M  V30 1760 C 167.988 -2.17222 0.731241 0
M  V30 1761 C 168.988 -1.59035 -0.237566 0
M  V30 1762 O 170.178 -1.74192 -0.0161704 0
M  V30 1763 C 167.31 -3.40804 0.0808443 0
M  V30 1764 H 168.503 -2.50573 1.64783 0
M  V30 1765 H 166.056 -1.28493 0.889897 0
M  V30 1766 H 166.791 -3.1304 -0.847127 0
M  V30 1767 H 166.576 -3.84306 0.777896 0
M  V30 1768 H 168.066 -4.1731 -0.155657 0
M  V30 1769 N 168.503 -0.877838 -1.30888 0
M  V30 1770 C 169.728 -0.506629 -2.01117 0
M  V30 1771 C 170.153 0.895564 -1.65412 0
M  V30 1772 O 169.511 1.5923 -0.866922 0
M  V30 1773 C 169.559 -0.680223 -3.54126 0
M  V30 1774 O 168.663 0.277033 -4.11468 0
M  V30 1775 H 168.004 -0.200518 -0.633 0
M  V30 1776 H 170.534 -1.18342 -1.66902 0
M  V30 1777 H 170.544 -0.5765 -4.03907 0
M  V30 1778 H 169.219 -1.70261 -3.79452 0
M  V30 1779 H 167.796 0.127606 -3.72682 0
M  V30 1780 N 169.982 1.44106 -0.638065 0
M  V30 1781 C 171.207 2.0685 -0.150916 0
M  V30 1782 C 171.632 1.47417 1.16833 0
M  V30 1783 O 170.99 0.578264 1.71831 0
M  V30 1784 C 171.038 3.60555 -0.05708 0
M  V30 1785 O 170.142 4.00465 0.984972 0
M  V30 1786 H 169.483 0.658151 -0.0879399 0
M  V30 1787 H 172.013 1.84865 -0.876707 0
M  V30 1788 H 172.023 4.07789 0.131232 0
M  V30 1789 H 170.698 4.03193 -1.02021 0
M  V30 1790 H 169.275 3.64849 0.770672 0
M  V30 1791 N 171.46 0.379036 1.52974 0
M  V30 1792 C 172.423 -0.448865 2.24762 0
M  V30 1793 C 173.423 -0.998689 1.26027 0
M  V30 1794 O 174.613 -0.882313 1.50203 0
M  V30 1795 C 171.745 -1.62872 2.99476 0
M  V30 1796 H 172.938 0.179491 2.99362 0
M  V30 1797 H 170.491 0.13096 1.5575 0
M  V30 1798 H 171.226 -2.29479 2.29151 0
M  V30 1799 H 171.011 -1.24128 3.71934 0
M  V30 1800 H 172.501 -2.2151 3.5401 0
M  V30 1801 N 172.938 -1.57226 0.108567 0
M  V30 1802 C 173.901 -2.13602 -0.831082 0
M  V30 1803 C 174.901 -1.06841 -1.20173 0
M  V30 1804 O 176.091 -1.32666 -1.12895 0
M  V30 1805 C 173.223 -2.66769 -2.12243 0
M  V30 1806 H 174.416 -2.97951 -0.341317 0
M  V30 1807 H 171.969 -1.55667 -0.14057 0
M  V30 1808 H 172.704 -1.85977 -2.65675 0
M  V30 1809 H 172.489 -3.44839 -1.86625 0
M  V30 1810 H 173.979 -3.10332 -2.79435 0
M  V30 1811 N 174.416 0.165178 -1.56732 0
M  V30 1812 C 175.644 0.896218 -1.86482 0
M  V30 1813 C 176.059 1.75555 -0.694675 0
M  V30 1814 O 175.416 1.79379 0.33607 0
M  V30 1815 C 175.467 1.76792 -3.1532 0
M  V30 1816 O 175.188 0.943239 -4.27825 0
M  V30 1817 C 176.689 2.6081 -3.58459 0
M  V30 1818 H 173.909 0.260064 -0.618553 0
M  V30 1819 H 176.453 0.163428 -2.03846 0
M  V30 1820 H 174.608 2.45398 -2.99764 0
M  V30 1821 H 175.022 1.53998 -5.01383 0
M  V30 1822 H 176.496 3.17579 -4.51495 0
M  V30 1823 H 176.973 3.35977 -2.82872 0
M  V30 1824 H 177.579 1.97526 -3.76648 0
M  V30 1825 N 175.894 1.51508 0.433938 0
M  V30 1826 C 177.124 1.67914 1.20369 0
M  V30 1827 C 177.532 0.377461 1.85397 0
M  V30 1828 O 176.875 -0.654255 1.71654 0
M  V30 1829 C 176.937 2.74045 2.32679 0
M  V30 1830 C 176.601 4.16543 1.87991 0
M  V30 1831 C 177.598 5.01211 1.38145 0
M  V30 1832 C 175.283 4.6266 1.95579 0
M  V30 1833 C 177.277 6.30056 0.964774 0
M  V30 1834 C 174.964 5.91501 1.53523 0
M  V30 1835 C 175.962 6.75027 1.04055 0
M  V30 1836 O 175.65 8.01459 0.625964 0
M  V30 1837 H 175.382 0.566578 0.368735 0
M  V30 1838 H 177.936 1.98709 0.51999 0
M  V30 1839 H 176.166 2.38572 3.04336 0
M  V30 1840 H 177.855 2.79295 2.94532 0
M  V30 1841 H 178.621 4.66783 1.31675 0
M  V30 1842 H 174.5 3.97767 2.33029 0
M  V30 1843 H 178.044 6.95202 0.57796 0
M  V30 1844 H 173.941 6.25442 1.59665 0
M  V30 1845 H 174.709 8.15043 0.751509 0
M  V30 1846 N 177.372 -0.689602 1.41712 0
M  V30 1847 C 178.62 -1.4468 1.4111 0
M  V30 1848 C 178.941 -1.94986 0.0232196 0
M  V30 1849 O 178.211 -1.72097 -0.935913 0
M  V30 1850 H 176.791 -0.536847 0.519427 0
M  V30 1851 H 179.453 -0.815825 1.77004 0
M  V30 1852 H 178.549 -2.30706 2.10193 0
M  V30 1853 N 178.85 -1.27639 -0.924453 0
M  V30 1854 C 180.098 -1.13941 -1.66918 0
M  V30 1855 C 180.419 0.314589 -1.92446 0
M  V30 1856 O 179.689 1.21964 -1.53303 0
M  V30 1857 H 178.269 -0.418678 -0.618642 0
M  V30 1858 H 180.931 -1.60213 -1.10985 0
M  V30 1859 H 180.027 -1.67094 -2.63602 0
M  V30 1860 N 180.328 1.1314 -1.09713 0
M  V30 1861 C 181.744 1.36477 -0.827423 0
M  V30 1862 C 181.944 1.93654 0.556817 0
M  V30 1863 O 181 2.15791 1.31112 0
M  V30 1864 C 182.313 2.31334 -1.92106 0
M  V30 1865 C 183.861 2.44943 -1.94864 0
M  V30 1866 C 184.336 3.4311 -3.0338 0
M  V30 1867 N 185.827 3.50662 -3.02639 0
M  V30 1868 C 186.562 4.2651 -3.83246 0
M  V30 1869 N 186.058 5.05485 -4.73768 0
M  V30 1870 N 187.851 4.2184 -3.71493 0
M  V30 1871 H 180.002 0.743807 -1.9895 0
M  V30 1872 H 182.265 0.389823 -0.864143 0
M  V30 1873 H 181.971 1.96483 -2.91698 0
M  V30 1874 H 181.845 3.31381 -1.80184 0
M  V30 1875 H 184.232 2.79079 -0.959099 0
M  V30 1876 H 184.313 1.4481 -2.10864 0
M  V30 1877 H 183.957 3.09704 -4.02549 0
M  V30 1878 H 183.887 4.43055 -2.84622 0
M  V30 1879 H 186.378 2.94315 -2.37039 0
M  V30 1880 H 186.691 5.60675 -5.3185 0
M  V30 1881 H 185.036 5.04708 -4.77802 0
M  V30 1882 H 188.227 3.5922 -3.00131 0
M  V30 1883 H 188.4 4.80697 -4.3455 0
M  V30 1884 N 181.806 0.884767 1.30421 0
M  V30 1885 C 183.034 0.518044 2.0031 0
M  V30 1886 C 183.449 -0.893408 1.66324 0
M  V30 1887 O 182.806 -1.5875 0.900262 0
M  V30 1888 C 182.857 0.682997 3.54989 0
M  V30 1889 O 182.578 2.03888 3.87764 0
M  V30 1890 C 184.079 0.31924 4.42149 0
M  V30 1891 H 181.299 0.200265 0.640418 0
M  V30 1892 H 183.843 1.19001 1.6631 0
M  V30 1893 H 181.998 0.0584052 3.87356 0
M  V30 1894 H 182.412 2.05735 4.82466 0
M  V30 1895 H 183.886 0.485555 5.4986 0
M  V30 1896 H 184.363 -0.742717 4.32875 0
M  V30 1897 H 184.969 0.920147 4.15227 0
M  V30 1898 N 183.284 -1.43765 0.645699 0
M  V30 1899 C 184.509 -2.06767 0.161883 0
M  V30 1900 C 184.934 -1.48034 -1.16049 0
M  V30 1901 O 184.292 -0.587369 -1.71522 0
M  V30 1902 C 184.34 -3.60519 0.0762003 0
M  V30 1903 O 183.444 -4.00982 -0.963721 0
M  V30 1904 H 182.785 -0.657675 0.091429 0
M  V30 1905 H 185.315 -1.84397 0.886499 0
M  V30 1906 H 185.325 -4.07853 -0.109604 0
M  V30 1907 H 184 -4.02646 1.04157 0
M  V30 1908 H 182.577 -3.65253 -0.751312 0
M  V30 1909 N 184.763 -0.387143 -1.52771 0
M  V30 1910 C 186.04 0.253197 -1.93954 0
M  V30 1911 C 186.42 1.64545 -1.32243 0
M  V30 1912 O 185.768 2.23191 -0.489699 0
M  V30 1913 C 185.978 0.281722 -3.47861 0
M  V30 1914 C 187.326 0.511715 -4.21505 0
M  V30 1915 O 188.35 0.362023 -3.54356 0
M  V30 1916 O 187.209 0.804847 -5.40541 0
M  V30 1917 H 184.303 0.156845 -0.811991 0
M  V30 1918 H 186.849 -0.441494 -1.63856 0
M  V30 1919 H 185.621 -0.693571 -3.85104 0
M  V30 1920 H 185.244 1.02142 -3.84256 0
M  V30 1921 N 186.241 1.57166 -0.116904 0
M  V30 1922 C 187.488 1.95123 0.541603 0
M  V30 1923 C 187.816 1.00006 1.6682 0
M  V30 1924 O 187.071 0.0235658 1.95686 0
M  V30 1925 C 187.37 3.39508 1.11664 0
M  V30 1926 C 187.036 4.50762 0.111606 0
M  V30 1927 C 185.698 4.80918 -0.164758 0
M  V30 1928 C 188.05 5.18036 -0.573438 0
M  V30 1929 C 185.378 5.75666 -1.13249 0
M  V30 1930 C 187.73 6.13824 -1.52978 0
M  V30 1931 C 186.394 6.42374 -1.81415 0
M  V30 1932 H 185.664 0.714005 0.198187 0
M  V30 1933 H 188.311 1.9048 -0.197365 0
M  V30 1934 H 186.616 3.40835 1.93232 0
M  V30 1935 H 188.313 3.66189 1.63422 0
M  V30 1936 H 184.903 4.27272 0.337192 0
M  V30 1937 H 189.087 4.94896 -0.373092 0
M  V30 1938 H 184.343 5.96092 -1.35958 0
M  V30 1939 H 188.517 6.65039 -2.06629 0
M  V30 1940 H 186.144 7.15599 -2.56557 0
M  V30 1941 N 187.719 -0.156864 1.56817 0
M  V30 1942 C 188.968 -0.869504 1.81996 0
M  V30 1943 C 189.281 -1.82777 0.696545 0
M  V30 1944 O 190.487 -2.58384 0.833658 0
M  V30 1945 C 188.943 -1.59679 3.22538 0
M  V30 1946 C 188.551 -0.681431 4.42787 0
M  V30 1947 C 190.295 -2.2968 3.56997 0
M  V30 1948 C 188.202 -1.40978 5.74351 0
M  V30 1949 H 187.132 -0.328438 0.678708 0
M  V30 1950 H 189.783 -0.1223 1.83092 0
M  V30 1951 H 188.165 -2.38927 3.158 0
M  V30 1952 H 189.339 0.0751166 4.60739 0
M  V30 1953 H 187.654 -0.0903431 4.16302 0
M  V30 1954 H 190.251 -2.84794 4.52544 0
M  V30 1955 H 190.594 -3.05707 2.82576 0
M  V30 1956 H 191.127 -1.57361 3.65352 0
M  V30 1957 H 187.866 -0.691561 6.51842 0
M  V30 1958 H 187.386 -2.13929 5.60352 0
M  V30 1959 H 189.065 -1.95337 6.16808 0
M  V30 1960 N 189.197 -1.51736 -0.425897 0
M  V30 1961 C 190.107 -1.76738 -1.54275 0
M  V30 1962 C 191.123 -0.65211 -1.61318 0
M  V30 1963 O 192.299 -0.935654 -1.78346 0
M  V30 1964 C 189.364 -1.89755 -2.90162 0
M  V30 1965 C 188.425 -3.13633 -2.93143 0
M  V30 1966 C 187.658 -3.2602 -4.22548 0
M  V30 1967 O 187.881 -2.44067 -5.15546 0
M  V30 1968 O 186.815 -4.19071 -4.32046 0
M  V30 1969 H 190.641 -2.71502 -1.36089 0
M  V30 1970 H 188.226 -1.36376 -0.610069 0
M  V30 1971 H 190.108 -2.00236 -3.70788 0
M  V30 1972 H 188.783 -0.981785 -3.08452 0
M  V30 1973 H 187.69 -3.08622 -2.11431 0
M  V30 1974 H 189.023 -4.04936 -2.798 0
M  V30 1975 N 190.675 0.682077 -1.42076 0
M  V30 1976 C 191.9 1.47558 -1.45744 0
M  V30 1977 C 192.325 1.87977 -0.0680981 0
M  V30 1978 O 191.683 1.55522 0.9318 0
M  V30 1979 C 191.731 2.70575 -2.38373 0
M  V30 1980 O 190.835 3.68573 -1.85007 0
M  V30 1981 H 190.176 0.443585 -0.494093 0
M  V30 1982 H 192.706 0.837238 -1.86686 0
M  V30 1983 H 192.716 3.18729 -2.54707 0
M  V30 1984 H 191.391 2.40495 -3.39315 0
M  V30 1985 H 189.968 3.2757 -1.78192 0
M  V30 1986 N 192.153 1.28127 0.917671 0
M  V30 1987 C 193.569 1.05749 1.19538 0
M  V30 1988 C 193.769 -0.202633 2.00479 0
M  V30 1989 O 192.825 -0.905382 2.3571 0
M  V30 1990 C 194.138 2.30273 1.93378 0
M  V30 1991 C 195.686 2.35412 2.06277 0
M  V30 1992 C 196.161 3.59692 2.83524 0
M  V30 1993 N 197.652 3.60309 2.91087 0
M  V30 1994 C 198.387 4.53147 3.51348 0
M  V30 1995 N 197.883 5.563 4.12919 0
M  V30 1996 N 199.676 4.40751 3.48849 0
M  V30 1997 H 191.827 2.09024 0.377184 0
M  V30 1998 H 194.09 0.919798 0.22951 0
M  V30 1999 H 193.796 3.22055 1.41328 0
M  V30 2000 H 193.67 2.36378 2.93947 0
M  V30 2001 H 196.057 1.4413 2.57508 0
M  V30 2002 H 196.138 2.33304 1.04895 0
M  V30 2003 H 195.782 4.51316 2.32973 0
M  V30 2004 H 195.712 3.59054 3.85211 0
M  V30 2005 H 198.203 2.85714 2.47338 0
M  V30 2006 H 198.516 6.2329 4.56869 0
M  V30 2007 H 196.861 5.60131 4.11435 0
M  V30 2008 H 200.052 3.59367 2.99955 0
M  V30 2009 H 200.225 5.13291 3.9552 0
M  V30 2010 N 193.631 -1.12557 1.10312 0
M  V30 2011 C 194.541 -2.21841 0.763142 0
M  V30 2012 C 195.557 -1.72354 -0.238801 0
M  V30 2013 O 196.733 -2.01249 -0.0778746 0
M  V30 2014 C 193.798 -3.46131 0.198632 0
M  V30 2015 C 192.859 -4.10464 1.25769 0
M  V30 2016 C 192.092 -5.28821 0.72002 0
M  V30 2017 O 192.315 -5.6859 -0.453993 0
M  V30 2018 O 191.249 -5.83437 1.47935 0
M  V30 2019 H 195.075 -2.53312 1.67532 0
M  V30 2020 H 192.66 -1.20867 0.878157 0
M  V30 2021 H 194.542 -4.2125 -0.112401 0
M  V30 2022 H 193.217 -3.16338 -0.686419 0
M  V30 2023 H 192.124 -3.3713 1.62156 0
M  V30 2024 H 193.457 -4.44408 2.11571 0
M  V30 2025 N 195.109 -0.891671 -1.2995 0
M  V30 2026 C 196.339 -0.527893 -1.99742 0
M  V30 2027 C 196.747 0.88979 -1.66971 0
M  V30 2028 O 196.09 1.59766 -0.906667 0
M  V30 2029 C 196.152 -0.630804 -3.53922 0
M  V30 2030 C 195.816 -2.01401 -4.10228 0
M  V30 2031 C 196.813 -2.98422 -4.25724 0
M  V30 2032 C 194.498 -2.32121 -4.45449 0
M  V30 2033 C 196.492 -4.24293 -4.75662 0
M  V30 2034 C 194.179 -3.58237 -4.95086 0
M  V30 2035 C 195.177 -4.54137 -5.10146 0
M  V30 2036 O 194.865 -5.78014 -5.58708 0
M  V30 2037 H 194.597 -0.201953 -0.645129 0
M  V30 2038 H 197.151 -1.20076 -1.66646 0
M  V30 2039 H 195.381 0.0990616 -3.86573 0
M  V30 2040 H 197.07 -0.277338 -4.04951 0
M  V30 2041 H 197.836 -2.76001 -3.98809 0
M  V30 2042 H 193.715 -1.5824 -4.32991 0
M  V30 2043 H 197.259 -4.99153 -4.87332 0
M  V30 2044 H 193.156 -3.80491 -5.21437 0
M  V30 2045 H 193.924 -5.8049 -5.77039 0
M  V30 2046 N 196.587 1.43421 -0.653314 0
M  V30 2047 C 197.497 2.34568 0.0388565 0
M  V30 2048 C 198.513 1.53888 0.81207 0
M  V30 2049 O 199.689 1.86539 0.759294 0
M  V30 2050 C 196.754 3.32167 0.993269 0
M  V30 2051 C 195.815 4.28751 0.216977 0
M  V30 2052 C 195.048 5.21688 1.12593 0
M  V30 2053 O 195.271 5.19052 2.36519 0
M  V30 2054 O 194.205 5.98919 0.598284 0
M  V30 2055 H 198.031 2.95251 -0.711386 0
M  V30 2056 H 195.616 1.43564 -0.413502 0
M  V30 2057 H 197.498 3.92183 1.54176 0
M  V30 2058 H 196.173 2.73987 1.72374 0
M  V30 2059 H 195.08 3.72215 -0.375101 0
M  V30 2060 H 196.413 4.89913 -0.473924 0
M  V30 2061 N 198.065 0.39524 1.52563 0
M  V30 2062 C 199.012 -0.437036 2.26624 0
M  V30 2063 C 199.982 -1.05281 1.28472 0
M  V30 2064 O 201.167 -1.07971 1.57311 0
M  V30 2065 C 198.307 -1.55524 3.08069 0
M  V30 2066 C 197.42 -0.961745 4.21158 0
M  V30 2067 C 196.555 -2.05149 4.89987 0
M  V30 2068 C 195.594 -1.4342 5.95061 0
M  V30 2069 N 194.731 -2.46351 6.57462 0
M  V30 2070 H 199.571 0.200976 2.97322 0
M  V30 2071 H 197.108 0.110944 1.46681 0
M  V30 2072 H 199.066 -2.21437 3.53584 0
M  V30 2073 H 197.696 -2.16348 2.3957 0
M  V30 2074 H 196.748 -0.192048 3.79915 0
M  V30 2075 H 198.06 -0.470701 4.96574 0
M  V30 2076 H 197.214 -2.78819 5.38837 0
M  V30 2077 H 195.953 -2.57615 4.14109 0
M  V30 2078 H 194.958 -0.682774 5.45544 0
M  V30 2079 H 196.183 -0.917416 6.72875 0
M  V30 2080 H 194.129 -2.97975 5.8442 0
M  V30 2081 H 194.046 -2.02019 7.28508 0
M  V30 2082 H 195.314 -3.19633 7.10954 0
M  V30 2083 N 199.544 -1.57102 0.125237 0
M  V30 2084 C 200.955 -1.82384 -0.399142 0
M  V30 2085 C 201.306 -1.04276 -1.66195 0
M  V30 2086 O 200.431 -0.281269 -2.14564 0
M  V30 2087 C 201.026 -3.30821 -0.730932 0
M  V30 2088 C 199.585 -3.56762 -1.19992 0
M  V30 2089 C 198.732 -2.7649 -0.211792 0
M  V30 2090 H 201.683 -1.54786 0.350277 0
M  V30 2091 H 201.704 -3.4579 -1.58775 0
M  V30 2092 H 201.216 -3.87643 0.188345 0
M  V30 2093 H 199.317 -3.05305 -2.13588 0
M  V30 2094 H 199.43 -4.65317 -1.14093 0
M  V30 2095 H 197.794 -2.4489 -0.700085 0
M  V30 2096 H 198.577 -3.36073 0.700691 0
M  V30 2097 N 201.022 0.148545 -1.56898 0
M  V30 2098 C 201.952 1.18524 -2.01182 0
M  V30 2099 C 202.933 1.4489 -0.891123 0
M  V30 2100 O 204.118 1.55836 -1.15882 0
M  V30 2101 C 201.248 2.51879 -2.39112 0
M  V30 2102 C 200.202 2.40038 -3.54353 0
M  V30 2103 C 199.528 3.78089 -3.78091 0
M  V30 2104 C 200.828 1.88577 -4.87069 0
M  V30 2105 H 202.522 0.817029 -2.88036 0
M  V30 2106 H 200.068 0.391575 -1.38574 0
M  V30 2107 H 202.021 3.24627 -2.68692 0
M  V30 2108 H 200.745 2.90532 -1.49193 0
M  V30 2109 H 199.404 1.69742 -3.24936 0
M  V30 2110 H 199.052 4.14175 -2.85426 0
M  V30 2111 H 198.752 3.71028 -4.55645 0
M  V30 2112 H 200.276 4.52387 -4.10095 0
M  V30 2113 H 201.69 2.51117 -5.15377 0
M  V30 2114 H 200.087 1.9241 -5.68417 0
M  V30 2115 H 201.157 0.84136 -4.77545 0
M  V30 2116 N 202.5 1.5196 0.417844 0
M  V30 2117 C 203.448 1.75278 1.52907 0
M  V30 2118 C 204.442 0.619611 1.57662 0
M  V30 2119 O 205.648 0.801457 1.61173 0
M  V30 2120 H 202.023 0.554141 0.508362 0
M  V30 2121 H 203.994 2.68389 1.30422 0
M  V30 2122 C 202.743 1.91262 2.90369 0
M  V30 2123 H 202.066 2.77872 2.8745 0
M  V30 2124 H 203.506 2.11581 3.67436 0
M  V30 2125 C 201.965 0.677431 3.30019 0
M  V30 2126 O 202.495 -0.158799 4.01386 0
M  V30 2127 N 200.701 0.515851 2.85985 0
M  V30 2128 H 200.248 1.19744 2.28077 0
M  V30 2129 H 200.206 -0.309315 3.12875 0
M  V30 2130 N 203.978 -0.674533 1.42435 0
M  V30 2131 C 205.224 -1.43671 1.43131 0
M  V30 2132 C 205.557 -1.94142 0.0476021 0
M  V30 2133 O 204.832 -1.70924 -0.928188 0
M  V30 2134 C 205.115 -2.63355 2.45594 0
M  V30 2135 C 204.968 -2.18514 3.93156 0
M  V30 2136 C 206.287 -3.65571 2.45043 0
M  V30 2137 H 203.406 -0.521077 0.521198 0
M  V30 2138 H 206.048 -0.766551 1.7385 0
M  V30 2139 H 204.198 -3.2053 2.19528 0
M  V30 2140 H 205.87 -1.66504 4.30202 0
M  V30 2141 H 204.113 -1.50086 4.07009 0
M  V30 2142 H 204.784 -3.04484 4.60428 0
M  V30 2143 H 207.26 -3.18113 2.68223 0
M  V30 2144 H 206.136 -4.46893 3.18713 0
M  V30 2145 H 206.397 -4.16716 1.47649 0
M  V30 2146 N 205.456 -1.28612 -0.910864 0
M  V30 2147 C 206.686 -1.1862 -1.69153 0
M  V30 2148 C 207.094 0.257324 -1.87442 0
M  V30 2149 O 206.437 1.18543 -1.40332 0
M  V30 2150 C 206.499 -1.81606 -3.10257 0
M  V30 2151 C 206.163 -3.30864 -3.15243 0
M  V30 2152 C 207.16 -4.27256 -2.96223 0
M  V30 2153 C 204.845 -3.71871 -3.37664 0
M  V30 2154 C 206.839 -5.62631 -2.99541 0
M  V30 2155 C 204.526 -5.07371 -3.40614 0
M  V30 2156 C 205.524 -6.02561 -3.21573 0
M  V30 2157 O 205.212 -7.35589 -3.2429 0
M  V30 2158 H 204.944 -0.412633 -0.535453 0
M  V30 2159 H 207.498 -1.70306 -1.14827 0
M  V30 2160 H 205.728 -1.24418 -3.66138 0
M  V30 2161 H 207.417 -1.66092 -3.70362 0
M  V30 2162 H 208.183 -3.9691 -2.78725 0
M  V30 2163 H 204.062 -2.98241 -3.5153 0
M  V30 2164 H 207.606 -6.36907 -2.84597 0
M  V30 2165 H 203.503 -5.37366 -3.57642 0
M  V30 2166 H 204.271 -7.44252 -3.40633 0
M  V30 2167 N 206.934 1.1197 -1.10907 0
M  V30 2168 C 208.182 1.83225 -0.852819 0
M  V30 2169 C 208.503 1.84769 0.623341 0
M  V30 2170 O 207.773 1.3143 1.45269 0
M  V30 2171 H 206.353 0.67849 -0.312507 0
M  V30 2172 H 209.015 1.3556 -1.40033 0
M  V30 2173 H 208.111 2.87265 -1.22005 0
M  V30 2174 N 208.412 0.89855 1.29475 0
M  V30 2175 C 209.642 0.538479 1.99459 0
M  V30 2176 C 210.05 -0.880922 1.67441 0
M  V30 2177 O 209.393 -1.59283 0.915127 0
M  V30 2178 C 209.455 0.649564 3.53583 0
M  V30 2179 C 209.119 2.03573 4.09154 0
M  V30 2180 C 210.116 3.00675 4.24135 0
M  V30 2181 C 207.801 2.3448 4.44212 0
M  V30 2182 C 209.795 4.26809 4.73405 0
M  V30 2183 C 207.482 3.60857 4.93179 0
M  V30 2184 C 208.48 4.56836 5.0773 0
M  V30 2185 O 208.168 5.80969 5.55635 0
M  V30 2186 H 207.9 0.205372 0.644048 0
M  V30 2187 H 210.454 1.20958 1.66007 0
M  V30 2188 H 208.684 -0.0785592 3.8662 0
M  V30 2189 H 210.373 0.29881 4.04799 0
M  V30 2190 H 211.139 2.78112 3.97339 0
M  V30 2191 H 207.018 1.60534 4.32145 0
M  V30 2192 H 210.562 5.0173 4.84678 0
M  V30 2193 H 206.459 3.83251 5.19412 0
M  V30 2194 H 207.227 5.83542 5.73952 0
M  V30 2195 N 209.89 -1.43072 0.660911 0
M  V30 2196 C 211.115 -2.06584 0.183805 0
M  V30 2197 C 211.54 -1.49257 -1.14472 0
M  V30 2198 O 210.898 -0.605528 -1.70889 0
M  V30 2199 C 210.946 -3.60418 0.114434 0
M  V30 2200 O 210.05 -4.01981 -0.921137 0
M  V30 2201 H 209.391 -0.656669 0.0983994 0
M  V30 2202 H 211.921 -1.83447 0.906006 0
M  V30 2203 H 211.931 -4.07946 -0.0663394 0
M  V30 2204 H 210.606 -4.01519 1.08422 0
M  V30 2205 H 209.183 -3.66029 -0.71253 0
M  V30 2206 N 211.368 -0.403325 -1.52352 0
M  V30 2207 C 212.315 0.425011 -2.26853 0
M  V30 2208 C 213.285 1.04598 -1.29029 0
M  V30 2209 O 214.47 1.07135 -1.57882 0
M  V30 2210 C 211.61 1.53888 -3.08889 0
M  V30 2211 C 210.723 0.939396 -4.21663 0
M  V30 2212 C 209.858 2.02547 -4.91068 0
M  V30 2213 C 208.897 1.40263 -5.95813 0
M  V30 2214 N 208.034 2.4286 -6.58759 0
M  V30 2215 H 212.874 -0.21674 -2.97211 0
M  V30 2216 H 210.411 -0.118722 -1.4662 0
M  V30 2217 H 212.369 2.19558 -3.54753 0
M  V30 2218 H 210.999 2.15074 -2.40714 0
M  V30 2219 H 210.051 0.171898 -3.80011 0
M  V30 2220 H 211.363 0.44436 -4.96817 0
M  V30 2221 H 210.517 2.75958 -5.40308 0
M  V30 2222 H 209.256 2.55415 -4.15469 0
M  V30 2223 H 208.261 0.653833 -5.45898 0
M  V30 2224 H 209.486 0.881719 -6.73352 0
M  V30 2225 H 207.432 2.94871 -5.85992 0
M  V30 2226 H 207.349 1.98152 -7.2957 0
M  V30 2227 H 208.617 3.15858 -7.12639 0
M  V30 2228 N 212.846 1.57033 -0.133567 0
M  V30 2229 C 214.093 1.95686 0.520877 0
M  V30 2230 C 214.421 1.0177 1.6575 0
M  V30 2231 O 213.676 0.0443195 1.9565 0
M  V30 2232 C 213.975 3.40674 1.08057 0
M  V30 2233 C 213.641 4.50855 0.0637899 0
M  V30 2234 C 212.303 4.80716 -0.215757 0
M  V30 2235 C 214.655 5.17398 -0.62835 0
M  V30 2236 C 211.983 5.74433 -1.19348 0
M  V30 2237 C 214.335 6.12167 -1.5948 0
M  V30 2238 C 212.999 6.40414 -1.88218 0
M  V30 2239 H 212.269 0.716067 0.190602 0
M  V30 2240 H 214.916 1.9026 -0.217556 0
M  V30 2241 H 213.221 3.42865 1.89606 0
M  V30 2242 H 214.918 3.67902 1.59529 0
M  V30 2243 H 211.508 4.27605 0.291855 0
M  V30 2244 H 215.692 4.94472 -0.425562 0
M  V30 2245 H 210.948 5.94616 -1.42272 0
M  V30 2246 H 215.122 6.6281 -2.13671 0
M  V30 2247 H 212.749 7.12838 -2.64133 0
M  V30 2248 N 214.325 -0.140222 1.56975 0
M  V30 2249 C 215.255 -1.17456 2.01808 0
M  V30 2250 C 216.236 -1.44415 0.898794 0
M  V30 2251 O 217.421 -1.5522 1.16707 0
M  V30 2252 C 214.551 -2.50607 2.40444 0
M  V30 2253 C 213.505 -2.38155 3.55621 0
M  V30 2254 C 212.831 -3.76078 3.80091 0
M  V30 2255 C 214.131 -1.85991 4.88062 0
M  V30 2256 H 215.825 -0.801743 2.88466 0
M  V30 2257 H 213.371 -0.38422 1.38779 0
M  V30 2258 H 215.324 -3.23197 2.7041 0
M  V30 2259 H 214.048 -2.89737 1.50732 0
M  V30 2260 H 212.707 -1.68016 3.25832 0
M  V30 2261 H 212.355 -4.12656 2.87618 0
M  V30 2262 H 212.055 -3.68606 4.57606 0
M  V30 2263 H 213.579 -4.50206 4.12488 0
M  V30 2264 H 214.993 -2.4838 5.16701 0
M  V30 2265 H 213.39 -1.89393 5.6943 0
M  V30 2266 H 214.46 -0.816023 4.77984 0
M  V30 2267 N 215.803 -1.52179 -0.40978 0
M  V30 2268 C 217.05 -1.66206 -1.15679 0
M  V30 2269 C 217.378 -0.391674 -1.90516 0
M  V30 2270 O 216.633 0.62533 -1.8544 0
M  V30 2271 C 216.932 -2.83428 -2.17723 0
M  V30 2272 C 216.598 -4.21672 -1.59699 0
M  V30 2273 C 215.26 -4.59274 -1.43599 0
M  V30 2274 C 217.612 -5.07825 -1.17317 0
M  V30 2275 C 214.94 -5.80709 -0.836328 0
M  V30 2276 C 217.292 -6.29864 -0.587691 0
M  V30 2277 C 215.956 -6.66216 -0.413818 0
M  V30 2278 H 215.226 -0.608192 -0.423301 0
M  V30 2279 H 217.873 -1.86279 -0.444097 0
M  V30 2280 H 216.178 -2.57687 -2.95135 0
M  V30 2281 H 217.875 -2.91477 -2.75394 0
M  V30 2282 H 214.465 -3.9204 -1.73213 0
M  V30 2283 H 218.649 -4.79359 -1.28565 0
M  V30 2284 H 213.905 -6.07498 -0.689626 0
M  V30 2285 H 218.079 -6.95948 -0.250894 0
M  V30 2286 H 215.706 -7.60182 0.0529471 0
M  V30 2287 N 217.281 0.66697 -1.42791 0
M  V30 2288 C 218.558 1.4234 -1.34159 0
M  V30 2289 C 218.938 2.11093 0.0172729 0
M  V30 2290 O 218.286 2.03808 1.03318 0
M  V30 2291 C 218.496 2.41942 -2.51526 0
M  V30 2292 C 219.844 3.06353 -2.93995 0
M  V30 2293 O 220.868 2.52269 -2.51473 0
M  V30 2294 O 219.727 4.04376 -3.67617 0
M  V30 2295 H 216.821 0.635277 -0.529483 0
M  V30 2296 H 219.367 0.695034 -1.54814 0
M  V30 2297 H 218.139 1.89991 -3.42081 0
M  V30 2298 H 217.762 3.22249 -2.32898 0
M  V30 2299 N 218.759 1.29093 0.90403 0
M  V30 2300 C 219.669 1.15727 2.0407 0
M  V30 2301 C 220.685 0.0815308 1.73809 0
M  V30 2302 O 221.861 0.292749 1.99261 0
M  V30 2303 C 218.926 0.830424 3.36608 0
M  V30 2304 C 217.987 1.98955 3.80415 0
M  V30 2305 C 217.22 1.6782 5.06628 0
M  V30 2306 O 217.443 0.597105 5.67266 0
M  V30 2307 O 216.377 2.52486 5.46383 0
M  V30 2308 H 220.203 2.11171 2.18267 0
M  V30 2309 H 217.788 1.08504 1.027 0
M  V30 2310 H 219.67 0.662521 4.16159 0
M  V30 2311 H 218.345 -0.0942678 3.23563 0
M  V30 2312 H 217.252 2.21267 3.01648 0
M  V30 2313 H 218.585 2.89529 3.98037 0
M  V30 2314 N 220.237 -1.11381 1.11499 0
M  V30 2315 C 221.467 -1.86663 0.885464 0
M  V30 2316 C 221.875 -1.80464 -0.568281 0
M  V30 2317 O 221.218 -1.18445 -1.40415 0
M  V30 2318 C 221.28 -3.36337 1.26956 0
M  V30 2319 C 220.944 -3.66304 2.73259 0
M  V30 2320 C 221.941 -3.63733 3.71476 0
M  V30 2321 C 219.626 -3.9529 3.09921 0
M  V30 2322 C 221.62 -3.89725 5.04374 0
M  V30 2323 C 219.307 -4.20941 4.43004 0
M  V30 2324 C 220.305 -4.18147 5.40039 0
M  V30 2325 O 219.993 -4.43153 6.70724 0
M  V30 2326 H 219.725 -0.597114 0.316908 0
M  V30 2327 H 222.279 -1.41782 1.48617 0
M  V30 2328 H 220.509 -3.81826 0.611999 0
M  V30 2329 H 222.198 -3.92986 1.01573 0
M  V30 2330 H 222.964 -3.41389 3.44498 0
M  V30 2331 H 218.843 -3.966 2.35009 0
M  V30 2332 H 222.387 -3.8746 5.80104 0
M  V30 2333 H 218.284 -4.42761 4.69716 0
M  V30 2334 H 219.052 -4.60717 6.76522 0
M  V30 2335 N 221.715 -0.905404 -1.28997 0
M  V30 2336 C 222.961 -0.535039 -1.95615 0
M  V30 2337 C 223.294 0.917404 -1.71165 0
M  V30 2338 O 222.569 1.65123 -1.02785 0
M  V30 2339 C 222.852 -0.834918 -3.50287 0
M  V30 2340 C 222.705 -2.33948 -3.84172 0
M  V30 2341 C 224.024 -0.325318 -4.38896 0
M  V30 2342 H 221.143 -0.195861 -0.710498 0
M  V30 2343 H 223.785 -1.13313 -1.52513 0
M  V30 2344 H 221.935 -0.325904 -3.87131 0
M  V30 2345 H 223.607 -2.91847 -3.57243 0
M  V30 2346 H 221.85 -2.79789 -3.31513 0
M  V30 2347 H 222.521 -2.49987 -4.92149 0
M  V30 2348 H 224.997 -0.761256 -4.09077 0
M  V30 2349 H 223.873 -0.564295 -5.45992 0
M  V30 2350 H 224.134 0.774144 -4.35269 0
M  V30 2351 N 223.193 1.4272 -0.668489 0
M  V30 2352 C 224.609 1.55992 -0.33745 0
M  V30 2353 C 224.809 1.64933 1.15756 0
M  V30 2354 O 223.865 1.61278 1.94282 0
M  V30 2355 C 225.178 2.81314 -1.06222 0
M  V30 2356 C 226.726 2.95078 -1.04394 0
M  V30 2357 C 227.201 4.23252 -1.74991 0
M  V30 2358 N 228.692 4.3015 -1.71829 0
M  V30 2359 C 229.427 5.28127 -2.23315 0
M  V30 2360 N 228.923 6.32293 -2.83156 0
M  V30 2361 N 230.716 5.19882 -2.13726 0
M  V30 2362 H 222.867 1.3516 -1.63846 0
M  V30 2363 H 225.13 0.650174 -0.689912 0
M  V30 2364 H 224.836 2.80823 -2.11734 0
M  V30 2365 H 224.71 3.72012 -0.62344 0
M  V30 2366 H 227.097 2.951 0.0028244 0
M  V30 2367 H 227.178 2.05627 -1.52155 0
M  V30 2368 H 226.822 4.2399 -2.79633 0
M  V30 2369 H 226.752 5.11626 -1.24685 0
M  V30 2370 H 229.243 3.55499 -1.28175 0
M  V30 2371 H 229.556 7.03398 -3.20079 0
M  V30 2372 H 227.901 6.32873 -2.87223 0
M  V30 2373 H 231.092 4.37423 -1.66669 0
M  V30 2374 H 231.265 5.96077 -2.54158 0
M  V30 2375 N 224.671 0.411399 1.52136 0
M  V30 2376 C 225.603 -0.448386 2.24771 0
M  V30 2377 C 226.616 -1.00828 1.27818 0
M  V30 2378 O 227.805 -0.906841 1.53749 0
M  V30 2379 C 224.905 -1.63636 2.96777 0
M  V30 2380 C 224.078 -1.19995 4.20618 0
M  V30 2381 C 223.137 -2.25509 4.75428 0
M  V30 2382 O 222.163 -1.86007 5.3795 0
M  V30 2383 N 223.365 -3.577 4.57199 0
M  V30 2384 H 226.13 0.174025 2.99194 0
M  V30 2385 H 223.691 0.238897 1.60128 0
M  V30 2386 H 225.683 -2.33793 3.30338 0
M  V30 2387 H 224.253 -2.16465 2.25526 0
M  V30 2388 H 223.473 -0.326421 3.92846 0
M  V30 2389 H 224.761 -0.885365 5.01038 0
M  V30 2390 H 224.159 -3.92543 4.07341 0
M  V30 2391 H 222.716 -4.23827 4.95191 0
M  V30 2392 N 226.149 -1.5696 0.141893 0
M  V30 2393 C 227.398 -1.95135 -0.510427 0
M  V30 2394 C 227.711 -1.02896 -1.66348 0
M  V30 2395 O 228.917 -1.30629 -2.38009 0
M  V30 2396 C 227.373 -3.46876 -0.959427 0
M  V30 2397 C 226.981 -4.47691 0.166419 0
M  V30 2398 C 228.725 -3.93927 -1.58183 0
M  V30 2399 C 226.632 -5.90636 -0.300565 0
M  V30 2400 H 225.562 -0.728494 -0.194454 0
M  V30 2401 H 228.213 -1.8211 0.22542 0
M  V30 2402 H 226.595 -3.55215 -1.75038 0
M  V30 2403 H 227.769 -4.51043 0.94325 0
M  V30 2404 H 226.084 -4.10527 0.696905 0
M  V30 2405 H 228.681 -4.98158 -1.94275 0
M  V30 2406 H 229.024 -3.3519 -2.46888 0
M  V30 2407 H 229.557 -3.88484 -0.855863 0
M  V30 2408 H 226.296 -6.5318 0.550989 0
M  V30 2409 H 225.816 -5.90655 -1.04338 0
M  V30 2410 H 227.495 -6.42588 -0.754265 0
M  V30 2411 N 227.627 0.131896 -1.57047 0
M  V30 2412 C 228.557 1.16384 -2.02428 0
M  V30 2413 C 229.538 1.43936 -0.90644 0
M  V30 2414 O 230.723 1.54599 -1.17528 0
M  V30 2415 C 227.853 2.49328 -2.4177 0
M  V30 2416 C 226.807 2.36266 -3.56879 0
M  V30 2417 C 226.133 3.74057 -3.8208 0
M  V30 2418 C 227.433 1.834 -4.89042 0
M  V30 2419 H 229.127 0.786433 -2.88887 0
M  V30 2420 H 226.673 0.376855 -1.38981 0
M  V30 2421 H 228.626 3.21759 -2.7212 0
M  V30 2422 H 227.35 2.88934 -1.52266 0
M  V30 2423 H 226.009 1.66286 -3.26718 0
M  V30 2424 H 225.657 4.11125 -2.89803 0
M  V30 2425 H 225.357 3.66174 -4.59554 0
M  V30 2426 H 226.881 4.48012 -4.1487 0
M  V30 2427 H 228.295 2.45636 -5.18011 0
M  V30 2428 H 226.692 1.8637 -5.70426 0
M  V30 2429 H 227.762 0.790662 -4.7841 0
M  V30 2430 N 229.106 1.52395 0.401703 0
M  V30 2431 C 230.517 1.58899 0.980202 0
M  V30 2432 C 230.868 0.434032 1.91339 0
M  V30 2433 O 229.993 -0.444619 2.11783 0
M  V30 2434 C 230.588 2.87994 1.78451 0
M  V30 2435 C 229.147 2.96953 2.31292 0
M  V30 2436 C 228.294 2.53903 1.11483 0
M  V30 2437 H 231.245 1.57657 0.18168 0
M  V30 2438 H 231.266 2.73765 2.64259 0
M  V30 2439 H 230.778 3.72035 1.10506 0
M  V30 2440 H 228.879 2.17422 3.02586 0
M  V30 2441 H 228.992 4.01344 2.61649 0
M  V30 2442 H 227.356 2.07925 1.47104 0
M  V30 2443 H 228.139 3.40326 0.450928 0
M  V30 2444 N 230.584 -0.659388 1.43143 0
M  V30 2445 C 231.494 -1.80167 1.50256 0
M  V30 2446 C 232.51 -1.69571 0.390106 0
M  V30 2447 O 233.686 -1.90849 0.643319 0
M  V30 2448 C 230.751 -3.16409 1.41725 0
M  V30 2449 C 229.812 -3.38848 2.63591 0
M  V30 2450 C 229.045 -4.68591 2.55458 0
M  V30 2451 O 229.268 -5.47532 1.59891 0
M  V30 2452 O 228.202 -4.92614 3.45854 0
M  V30 2453 H 232.028 -1.77121 2.46702 0
M  V30 2454 H 229.613 -0.817092 1.25076 0
M  V30 2455 H 231.495 -3.9768 1.39387 0
M  V30 2456 H 230.17 -3.20059 0.484118 0
M  V30 2457 H 229.077 -2.57366 2.71502 0
M  V30 2458 H 230.41 -3.4004 3.55856 0
M  V30 2459 N 232.062 -1.29571 -0.897171 0
M  V30 2460 C 233.025 -1.14913 -1.98312 0
M  V30 2461 C 234.025 -0.0838629 -1.60581 0
M  V30 2462 O 235.215 -0.331006 -1.71026 0
M  V30 2463 C 232.347 -0.757835 -3.3237 0
M  V30 2464 H 233.54 -2.11377 -2.12743 0
M  V30 2465 H 231.093 -1.12793 -1.08201 0
M  V30 2466 H 231.828 0.206837 -3.2364 0
M  V30 2467 H 231.613 -1.52755 -3.61121 0
M  V30 2468 H 233.103 -0.678408 -4.12053 0
M  V30 2469 N 233.54 1.10788 -1.12088 0
M  V30 2470 C 234.488 2.19111 -0.780587 0
M  V30 2471 C 235.482 1.67818 0.230961 0
M  V30 2472 O 236.688 1.79777 0.0895427 0
M  V30 2473 H 233.063 0.714477 -0.234578 0
M  V30 2474 H 235.034 2.45055 -1.70266 0
M  V30 2475 C 233.783 3.46818 -0.24747 0
M  V30 2476 H 233.106 3.86646 -1.01712 0
M  V30 2477 H 234.546 4.23973 -0.0476291 0
M  V30 2478 C 233.005 3.20968 1.02378 0
M  V30 2479 O 233.535 3.42298 2.10226 0
M  V30 2480 N 231.741 2.74658 0.949271 0
M  V30 2481 H 231.288 2.57501 0.0715173 0
M  V30 2482 H 231.246 2.57739 1.80049 0
M  V30 2483 N 235.018 0.912232 1.28515 0
M  V30 2484 C 236.243 0.559774 1.99703 0
M  V30 2485 C 236.668 -0.851393 1.67729 0
M  V30 2486 O 236.026 -1.56875 0.908834 0
M  V30 2487 C 236.074 0.773874 3.52198 0
M  V30 2488 O 235.178 -0.167842 4.12058 0
M  V30 2489 H 234.519 0.21723 0.627461 0
M  V30 2490 H 237.049 1.22725 1.63706 0
M  V30 2491 H 237.059 0.683386 4.02236 0
M  V30 2492 H 235.734 1.80261 3.74805 0
M  V30 2493 H 234.311 -0.0287509 3.72889 0
M  V30 2494 N 236.496 -1.42363 0.676048 0
M  V30 2495 C 237.428 -2.29164 -0.0404605 0
M  V30 2496 C 238.441 -1.43747 -0.764245 0
M  V30 2497 O 239.63 -1.67453 -0.618195 0
M  V30 2498 C 236.73 -3.21196 -1.08103 0
M  V30 2499 C 235.903 -4.35273 -0.430812 0
M  V30 2500 C 234.962 -5.08017 -1.37133 0
M  V30 2501 O 233.988 -5.62494 -0.87116 0
M  V30 2502 N 235.19 -5.13647 -2.70456 0
M  V30 2503 H 237.955 -2.91298 0.704667 0
M  V30 2504 H 235.516 -1.53303 0.520559 0
M  V30 2505 H 237.508 -3.66728 -1.71152 0
M  V30 2506 H 236.078 -2.60505 -1.72788 0
M  V30 2507 H 235.298 -3.92372 0.379209 0
M  V30 2508 H 236.586 -5.08795 0.0221132 0
M  V30 2509 H 235.984 -4.708 -3.1363 0
M  V30 2510 H 234.541 -5.62821 -3.28749 0
M  V30 2511 N 237.974 -0.419461 -1.51915 0
M  V30 2512 C 239.223 0.154346 -2.01109 0
M  V30 2513 C 239.536 1.45338 -1.30905 0
M  V30 2514 O 240.742 2.10906 -1.7097 0
M  V30 2515 C 239.198 0.325615 -3.58424 0
M  V30 2516 C 238.806 -0.961934 -4.37551 0
M  V30 2517 C 240.55 0.854155 -4.15818 0
M  V30 2518 C 238.457 -0.757287 -5.86531 0
M  V30 2519 H 237.387 0.0614563 -0.751491 0
M  V30 2520 H 240.038 -0.54649 -1.75173 0
M  V30 2521 H 238.42 1.08903 -3.80731 0
M  V30 2522 H 239.594 -1.7323 -4.26999 0
M  V30 2523 H 237.909 -1.41766 -3.91524 0
M  V30 2524 H 240.506 1.02346 -5.24814 0
M  V30 2525 H 240.849 1.83172 -3.73837 0
M  V30 2526 H 241.382 0.149528 -3.97519 0
M  V30 2527 H 238.121 -1.70671 -6.32892 0
M  V30 2528 H 237.641 -0.0264061 -5.99794 0
M  V30 2529 H 239.32 -0.403482 -6.45741 0
M  V30 2530 N 239.452 1.56882 -0.150215 0
M  V30 2531 C 240.698 1.96518 0.500834 0
M  V30 2532 C 241.031 1.03527 1.64304 0
M  V30 2533 O 240.306 0.0782751 1.94342 0
M  V30 2534 C 240.589 3.45822 1.00395 0
M  V30 2535 C 240.442 4.49591 -0.136983 0
M  V30 2536 C 241.761 3.97704 1.88467 0
M  V30 2537 H 238.88 0.714535 0.18058 0
M  V30 2538 H 241.522 1.88577 -0.232091 0
M  V30 2539 H 239.672 3.5272 1.62851 0
M  V30 2540 H 241.344 4.5477 -0.77343 0
M  V30 2541 H 239.587 4.26441 -0.795652 0
M  V30 2542 H 240.258 5.51402 0.256815 0
M  V30 2543 H 242.734 3.93304 1.35834 0
M  V30 2544 H 241.61 5.0263 2.20578 0
M  V30 2545 H 241.871 3.40252 2.82279 0
M  V30 2546 N 240.93 -0.123565 1.57115 0
M  V30 2547 C 242.178 -0.83051 1.84247 0
M  V30 2548 C 242.499 -1.80629 0.73471 0
M  V30 2549 O 241.769 -1.94403 -0.241688 0
M  V30 2550 H 240.349 -0.309694 0.679778 0
M  V30 2551 H 243.011 -0.111976 1.94578 0
M  V30 2552 H 242.107 -1.37852 2.80006 0
M  V30 2553 N 242.408 -1.52605 -0.393616 0
M  V30 2554 C 243.655 -1.67424 -1.1391 0
M  V30 2555 C 243.983 -0.411859 -1.90089 0
M  V30 2556 O 243.238 0.605626 -1.86093 0
M  V30 2557 C 243.537 -2.85721 -2.14705 0
M  V30 2558 C 243.203 -4.23342 -1.55218 0
M  V30 2559 C 241.865 -4.60771 -1.3872 0
M  V30 2560 C 244.217 -5.09041 -1.11924 0
M  V30 2561 C 241.545 -5.81563 -0.774689 0
M  V30 2562 C 243.897 -6.30452 -0.520853 0
M  V30 2563 C 242.561 -6.66617 -0.343134 0
M  V30 2564 H 241.831 -0.612648 -0.416826 0
M  V30 2565 H 244.478 -1.8674 -0.424315 0
M  V30 2566 H 242.783 -2.60803 -2.92385 0
M  V30 2567 H 244.48 -2.94382 -2.72288 0
M  V30 2568 H 241.07 -3.93855 -1.69045 0
M  V30 2569 H 245.254 -4.80695 -1.23473 0
M  V30 2570 H 240.51 -6.08196 -0.625154 0
M  V30 2571 H 244.684 -6.96175 -0.177065 0
M  V30 2572 H 242.311 -7.60083 0.133571 0
M  V30 2573 N 243.887 0.651787 -1.4349 0
M  V30 2574 C 245.303 0.96762 -1.26922 0
M  V30 2575 C 245.503 2.00602 -0.189982 0
M  V30 2576 O 244.559 2.48793 0.431107 0
M  V30 2577 C 245.872 1.45052 -2.63401 0
M  V30 2578 C 247.42 1.5671 -2.70945 0
M  V30 2579 C 247.895 2.0839 -4.07845 0
M  V30 2580 N 249.386 2.1569 -4.09917 0
M  V30 2581 C 250.121 2.56804 -5.12679 0
M  V30 2582 N 249.617 2.97203 -6.25813 0
M  V30 2583 N 251.41 2.56756 -5.00033 0
M  V30 2584 H 243.561 -0.0353158 -2.12371 0
M  V30 2585 H 245.824 0.0467858 -0.946845 0
M  V30 2586 H 245.53 0.761926 -3.43348 0
M  V30 2587 H 245.404 2.42529 -2.88894 0
M  V30 2588 H 247.791 2.2467 -1.9133 0
M  V30 2589 H 247.872 0.57662 -2.49216 0
M  V30 2590 H 247.516 1.41031 -4.87927 0
M  V30 2591 H 247.446 3.08271 -4.26938 0
M  V30 2592 H 249.937 1.87237 -3.28254 0
M  V30 2593 H 250.25 3.27328 -7.00055 0
M  V30 2594 H 248.595 2.95004 -6.29283 0
M  V30 2595 H 251.786 2.24572 -4.10713 0
M  V30 2596 H 251.959 2.88475 -5.80247 0
M  V30 2597 N 245.365 1.30045 0.890287 0
M  V30 2598 C 246.595 1.21296 1.67245 0
M  V30 2599 C 247.003 -0.227471 1.87828 0
M  V30 2600 O 246.346 -1.16296 1.422 0
M  V30 2601 C 246.408 1.86519 3.07329 0
M  V30 2602 C 246.072 3.35837 3.09939 0
M  V30 2603 C 247.069 4.31915 2.89389 0
M  V30 2604 C 244.754 3.77196 3.31706 0
M  V30 2605 C 246.748 5.67325 2.90552 0
M  V30 2606 C 244.435 5.12725 3.32499 0
M  V30 2607 C 245.433 6.076 3.11947 0
M  V30 2608 O 245.121 7.40655 3.12547 0
M  V30 2609 H 244.853 0.4211 0.528821 0
M  V30 2610 H 247.407 1.72111 1.12103 0
M  V30 2611 H 245.637 1.30228 3.64112 0
M  V30 2612 H 247.326 1.71963 3.67673 0
M  V30 2613 H 248.092 4.01294 2.72375 0
M  V30 2614 H 243.971 3.03796 3.4674 0
M  V30 2615 H 247.515 6.41354 2.74429 0
M  V30 2616 H 243.412 5.42988 3.49047 0
M  V30 2617 H 244.18 7.49577 3.28749 0
M  V30 2618 N 246.843 -1.10192 1.12674 0
M  V30 2619 C 248.09 -1.82205 0.883606 0
M  V30 2620 C 248.418 -1.8532 -0.590492 0
M  V30 2621 O 247.673 -1.31137 -1.45264 0
M  V30 2622 C 247.972 -3.28552 1.4067 0
M  V30 2623 C 247.638 -3.45582 2.89627 0
M  V30 2624 C 246.3 -3.49937 3.30299 0
M  V30 2625 C 248.652 -3.50768 3.85501 0
M  V30 2626 C 245.98 -3.57049 4.65546 0
M  V30 2627 C 248.332 -3.59414 5.20581 0
M  V30 2628 C 246.996 -3.62034 5.60792 0
M  V30 2629 H 246.266 -0.666735 0.323334 0
M  V30 2630 H 248.913 -1.29868 1.40736 0
M  V30 2631 H 247.218 -3.83473 0.80347 0
M  V30 2632 H 248.915 -3.82788 1.19475 0
M  V30 2633 H 245.505 -3.42871 2.57172 0
M  V30 2634 H 249.689 -3.46651 3.55171 0
M  V30 2635 H 244.945 -3.57361 4.96088 0
M  V30 2636 H 249.119 -3.62371 5.94693 0
M  V30 2637 H 246.746 -3.67298 6.6558 0
M  V30 2638 N 248.321 -0.919034 -1.28029 0
M  V30 2639 C 249.269 -0.401753 -2.29104 0
M  V30 2640 C 250.263 0.509354 -1.61561 0
M  V30 2641 O 251.469 0.390014 -1.75724 0
M  V30 2642 H 247.844 -0.111331 -0.743713 0
M  V30 2643 H 249.815 -1.2672 -2.70156 0
M  V30 2644 C 248.564 0.338148 -3.46052 0
M  V30 2645 H 247.887 -0.353732 -3.98232 0
M  V30 2646 H 249.327 0.664653 -4.18758 0
M  V30 2647 C 247.786 1.54798 -2.99231 0
M  V30 2648 O 248.316 2.64696 -3.02157 0
M  V30 2649 N 246.522 1.3968 -2.54829 0
M  V30 2650 H 246.069 0.502698 -2.52647 0
M  V30 2651 H 246.027 2.20755 -2.23863 0
M  V30 2652 N 249.799 1.42003 -0.683588 0
M  V30 2653 C 251.045 2.01712 -0.209825 0
M  V30 2654 C 251.378 1.53968 1.18353 0
M  V30 2655 O 250.653 0.745661 1.79639 0
M  V30 2656 C 250.936 3.59202 -0.254197 0
M  V30 2657 C 250.789 4.17102 -1.68363 0
M  V30 2658 C 252.108 4.38344 0.392709 0
M  V30 2659 H 249.227 0.732891 -0.0777189 0
M  V30 2660 H 251.869 1.68909 -0.87004 0
M  V30 2661 H 250.019 3.87278 0.307954 0
M  V30 2662 H 251.691 3.99946 -2.29871 0
M  V30 2663 H 249.934 3.72597 -2.22157 0
M  V30 2664 H 250.605 5.26249 -1.6663 0
M  V30 2665 H 253.081 4.16011 -0.0859162 0
M  V30 2666 H 251.957 5.47901 0.331063 0
M  V30 2667 H 252.218 4.16887 1.47164 0
M  V30 2668 N 251.277 0.427512 1.51691 0
M  V30 2669 C 252.507 -0.140986 2.06118 0
M  V30 2670 C 252.915 -1.37854 1.29588 0
M  V30 2671 O 252.258 -1.80411 0.346036 0
M  V30 2672 C 252.32 -0.538276 3.55447 0
M  V30 2673 C 251.984 0.591095 4.53161 0
M  V30 2674 C 252.981 1.46027 4.98971 0
M  V30 2675 C 250.666 0.769028 4.96378 0
M  V30 2676 C 252.66 2.49216 5.8666 0
M  V30 2677 C 250.347 1.80421 5.83859 0
M  V30 2678 C 251.345 2.66417 6.28897 0
M  V30 2679 O 251.033 3.68159 7.14643 0
M  V30 2680 H 250.765 -0.0157455 0.675817 0
M  V30 2681 H 253.319 0.602495 1.96365 0
M  V30 2682 H 251.549 -1.33432 3.6295 0
M  V30 2683 H 253.238 -1.0368 3.92435 0
M  V30 2684 H 254.004 1.33429 4.66285 0
M  V30 2685 H 249.883 0.109273 4.6087 0
M  V30 2686 H 253.427 3.16372 6.21735 0
M  V30 2687 H 249.324 1.93042 6.15959 0
M  V30 2688 H 250.092 3.64622 7.32798 0
M  V30 2689 N 252.755 -1.56801 0.158532 0
M  V30 2690 C 254.003 -1.96102 -0.488712 0
M  V30 2691 C 254.324 -1.04498 -1.64636 0
M  V30 2692 O 253.594 -0.108783 -1.95598 0
M  V30 2693 H 252.174 -0.724102 -0.183535 0
M  V30 2694 H 254.836 -1.93457 0.236728 0
M  V30 2695 H 253.932 -3.00097 -0.857219 0
M  V30 2696 N 254.233 0.115231 -1.57178 0
M  V30 2697 C 255.644 0.67197 -1.74188 0
M  V30 2698 C 255.995 1.80125 -0.777777 0
M  V30 2699 O 255.12 2.16346 0.0484376 0
M  V30 2700 C 255.715 1.22573 -3.1585 0
M  V30 2701 C 254.274 1.72872 -3.34353 0
M  V30 2702 C 253.421 0.629972 -2.70049 0
M  V30 2703 H 256.372 -0.110712 -1.58313 0
M  V30 2704 H 256.393 2.09535 -3.17609 0
M  V30 2705 H 255.905 0.403598 -3.85996 0
M  V30 2706 H 254.006 2.5755 -2.69256 0
M  V30 2707 H 254.119 1.83557 -4.42542 0
M  V30 2708 H 252.483 1.0645 -2.31388 0
M  V30 2709 H 253.266 -0.181241 -3.42821 0
M  V30 2710 N 255.711 1.52812 0.385517 0
M  V30 2711 C 257.127 1.4214 0.725829 0
M  V30 2712 C 257.327 0.544589 1.94001 0
M  V30 2713 O 256.383 0.0193693 2.52493 0
M  V30 2714 C 257.696 2.85042 0.957668 0
M  V30 2715 C 259.244 2.94543 1.05892 0
M  V30 2716 C 259.719 4.38464 1.32337 0
M  V30 2717 N 261.21 4.41804 1.39151 0
M  V30 2718 C 261.945 5.5025 1.61285 0
M  V30 2719 N 261.441 6.68775 1.80866 0
M  V30 2720 N 263.234 5.37798 1.63492 0
M  V30 2721 H 255.385 2.08338 -0.413383 0
M  V30 2722 H 257.648 0.940016 -0.122775 0
M  V30 2723 H 257.354 3.51431 0.137568 0
M  V30 2724 H 257.228 3.27505 1.87137 0
M  V30 2725 H 259.615 2.28321 1.86959 0
M  V30 2726 H 259.696 2.55504 0.123057 0
M  V30 2727 H 259.34 5.05254 0.517793 0
M  V30 2728 H 259.27 4.75059 2.27214 0
M  V30 2729 H 261.761 3.56377 1.25713 0
M  V30 2730 H 262.074 7.47197 1.97271 0
M  V30 2731 H 260.419 6.71797 1.78083 0
M  V30 2732 H 263.61 4.44171 1.47749 0
M  V30 2733 H 263.783 6.22382 1.80402 0
M  V30 2734 N 257.189 -0.644168 1.43834 0
M  V30 2735 C 258.099 -1.78563 1.52159 0
M  V30 2736 C 259.115 -1.69147 0.408069 0
M  V30 2737 O 260.291 -1.90156 0.663524 0
M  V30 2738 C 257.356 -3.14888 1.45073 0
M  V30 2739 C 256.417 -3.36034 2.6717 0
M  V30 2740 C 255.65 -4.65855 2.60413 0
M  V30 2741 O 255.873 -5.45805 1.65689 0
M  V30 2742 O 254.807 -4.88918 3.5106 0
M  V30 2743 H 258.633 -1.74494 2.48567 0
M  V30 2744 H 256.218 -0.80378 1.25935 0
M  V30 2745 H 258.1 -3.96179 1.43597 0
M  V30 2746 H 256.775 -3.19528 0.518037 0
M  V30 2747 H 255.682 -2.54472 2.74217 0
M  V30 2748 H 257.015 -3.36247 3.59442 0
M  V30 2749 N 258.668 -1.30515 -0.883378 0
M  V30 2750 C 259.916 -1.19194 -1.63209 0
M  V30 2751 C 260.237 0.253205 -1.93349 0
M  V30 2752 O 259.507 1.17025 -1.57105 0
M  V30 2753 H 258.087 -0.438148 -0.605009 0
M  V30 2754 H 260.749 -1.63663 -1.05832 0
M  V30 2755 H 259.845 -1.75396 -2.58153 0
M  V30 2756 N 260.146 1.09593 -1.13257 0
M  V30 2757 C 261.096 2.14345 -0.777179 0
M  V30 2758 C 262.08 1.59277 0.227966 0
M  V30 2759 O 263.272 1.76971 0.0321413 0
M  V30 2760 C 260.401 3.42439 -0.242991 0
M  V30 2761 C 259.487 4.04419 -1.27694 0
M  V30 2762 N 259.878 4.40979 -2.47732 0
M  V30 2763 C 258.176 4.31596 -1.12432 0
M  V30 2764 C 258.877 4.89784 -3.13826 0
M  V30 2765 N 257.853 4.87133 -2.41252 0
M  V30 2766 H 261.655 2.40415 -1.69049 0
M  V30 2767 H 259.169 1.26803 -1.01463 0
M  V30 2768 H 261.166 4.16889 0.0298496 0
M  V30 2769 H 259.826 3.17824 0.66467 0
M  V30 2770 H 260.837 4.32396 -2.85051 0
M  V30 2771 H 257.514 4.16595 -0.274684 0
M  V30 2772 H 258.904 5.2755 -4.16102 0
M  V30 2773 N 261.624 0.925811 1.2754 0
M  V30 2774 C 262.571 0.422045 2.26908 0
M  V30 2775 C 263.541 -0.510029 1.58076 0
M  V30 2776 O 264.726 -0.429599 1.85901 0
M  V30 2777 C 261.866 -0.320837 3.43605 0
M  V30 2778 C 260.979 0.64513 4.27156 0
M  V30 2779 C 260.114 -0.117405 5.3107 0
M  V30 2780 C 259.153 0.841391 6.0629 0
M  V30 2781 N 258.29 0.111604 7.02011 0
M  V30 2782 H 263.13 1.27441 2.69375 0
M  V30 2783 H 260.667 0.639697 1.32462 0
M  V30 2784 H 262.625 -0.76785 4.10073 0
M  V30 2785 H 261.255 -1.13745 3.02096 0
M  V30 2786 H 260.307 1.21067 3.6062 0
M  V30 2787 H 261.619 1.37797 4.79389 0
M  V30 2788 H 260.773 -0.624422 6.03478 0
M  V30 2789 H 259.512 -0.883219 4.79636 0
M  V30 2790 H 258.517 1.35967 5.32722 0
M  V30 2791 H 259.742 1.60696 6.59813 0
M  V30 2792 H 257.688 -0.635999 6.5291 0
M  V30 2793 H 257.605 0.784044 7.51923 0
M  V30 2794 H 258.873 -0.374823 7.78598 0
M  V30 2795 N 263.102 -1.41638 0.69111 0
M  V30 2796 C 264.35 -2.00902 0.219758 0
M  V30 2797 C 264.671 -1.54994 -1.18329 0
M  V30 2798 O 263.941 -0.778628 -1.79762 0
M  V30 2799 H 262.521 -0.74289 0.0782558 0
M  V30 2800 H 265.183 -1.73327 0.891271 0
M  V30 2801 H 264.279 -3.11224 0.233708 0
M  V30 2802 N 264.58 -0.43555 -1.51462 0
M  V30 2803 C 265.805 0.132627 -2.06976 0
M  V30 2804 C 266.23 1.35848 -1.30104 0
M  V30 2805 O 265.588 1.78112 -0.338493 0
M  V30 2806 C 265.636 0.43523 -3.57964 0
M  V30 2807 O 264.74 1.52198 -3.83288 0
M  V30 2808 H 264.081 0.00265 -0.663995 0
M  V30 2809 H 266.611 -0.616369 -1.95095 0
M  V30 2810 H 266.621 0.686206 -4.02188 0
M  V30 2811 H 265.296 -0.460739 -4.1334 0
M  V30 2812 H 263.873 1.2611 -3.50928 0
M  V30 2813 N 266.058 1.56714 -0.166846 0
M  V30 2814 C 266.991 2.13577 0.80375 0
M  V30 2815 C 267.969 1.06464 1.22899 0
M  V30 2816 O 269.153 1.34413 1.32157 0
M  V30 2817 C 266.28 2.67168 2.0818 0
M  V30 2818 C 265.326 3.86612 1.80093 0
M  V30 2819 S 266.159 5.26565 0.97416 0
M  V30 2820 C 267.315 5.83558 2.26297 0
M  V30 2821 H 267.548 2.9557 0.320267 0
M  V30 2822 H 265.081 1.54326 0.0477555 0
M  V30 2823 H 267.039 2.98692 2.8159 0
M  V30 2824 H 265.7 1.85269 2.53642 0
M  V30 2825 H 264.893 4.22422 2.7491 0
M  V30 2826 H 264.495 3.55951 1.14781 0
M  V30 2827 H 266.787 5.962 3.21795 0
M  V30 2828 H 267.73 6.80731 1.94962 0
M  V30 2829 H 268.138 5.11944 2.37853 0
M  V30 2830 N 267.536 -0.106894 1.57237 0
M  V30 2831 C 268.499 -1.11466 2.0027 0
M  V30 2832 C 269.499 -1.33623 0.894519 0
M  V30 2833 O 270.689 -1.29935 1.16028 0
M  V30 2834 C 267.821 -2.46646 2.35327 0
M  V30 2835 H 269.014 -0.744516 2.90512 0
M  V30 2836 H 266.567 -0.351576 1.52295 0
M  V30 2837 H 267.302 -2.88558 1.48003 0
M  V30 2838 H 267.087 -2.31915 3.16161 0
M  V30 2839 H 268.577 -3.19151 2.69318 0
M  V30 2840 N 269.014 -1.53014 -0.377408 0
M  V30 2841 C 270.239 -1.72818 -1.14668 0
M  V30 2842 C 270.664 -0.450725 -1.8262 0
M  V30 2843 O 270.022 0.59439 -1.7128 0
M  V30 2844 C 270.07 -2.88627 -2.16164 0
M  V30 2845 O 269.174 -2.56409 -3.22998 0
M  V30 2846 H 268.515 -0.574301 -0.333278 0
M  V30 2847 H 271.045 -1.99853 -0.438152 0
M  V30 2848 H 271.055 -3.14455 -2.59966 0
M  V30 2849 H 269.73 -3.81294 -1.66095 0
M  V30 2850 H 268.307 -2.4136 -2.84253 0
M  V30 2851 N 270.492 0.636531 -1.44174 0
M  V30 2852 C 271.738 1.39826 -1.4689 0
M  V30 2853 C 272.071 1.93947 -0.0990585 0
M  V30 2854 O 271.346 1.73325 0.882544 0
M  V30 2855 C 271.629 2.56751 -2.5249 0
M  V30 2856 C 271.482 2.08014 -3.98811 0
M  V30 2857 C 272.801 3.58946 -2.54649 0
M  V30 2858 H 269.92 0.507075 -0.53483 0
M  V30 2859 H 272.562 0.720188 -1.75822 0
M  V30 2860 H 270.712 3.14597 -2.2795 0
M  V30 2861 H 272.384 1.5504 -4.34466 0
M  V30 2862 H 270.627 1.39242 -4.10846 0
M  V30 2863 H 271.298 2.92169 -4.68339 0
M  V30 2864 H 273.774 3.1089 -2.76563 0
M  V30 2865 H 272.65 4.38286 -3.3045 0
M  V30 2866 H 272.911 4.12655 -1.58646 0
M  V30 2867 N 271.97 1.30982 0.876444 0
M  V30 2868 C 272.933 1.18054 1.96459 0
M  V30 2869 C 273.933 0.109399 1.60427 0
M  V30 2870 O 275.123 0.358173 1.70478 0
M  V30 2871 C 272.255 0.810616 3.31122 0
M  V30 2872 H 273.448 2.14735 2.09354 0
M  V30 2873 H 271.001 1.145 1.06392 0
M  V30 2874 H 271.736 -0.155322 3.23928 0
M  V30 2875 H 271.521 1.58481 3.58645 0
M  V30 2876 H 273.011 0.743876 4.10921 0
M  V30 2877 N 273.449 -1.08991 1.13837 0
M  V30 2878 C 274.696 -1.81258 0.902882 0
M  V30 2879 C 275.024 -1.85936 -0.570803 0
M  V30 2880 O 274.279 -1.3267 -1.43865 0
M  V30 2881 C 274.578 -3.27042 1.44147 0
M  V30 2882 C 274.244 -3.4249 2.93276 0
M  V30 2883 C 272.906 -3.46414 3.33992 0
M  V30 2884 C 275.258 -3.4666 3.892 0
M  V30 2885 C 272.586 -3.52091 4.69307 0
M  V30 2886 C 274.938 -3.53872 5.24364 0
M  V30 2887 C 273.602 -3.56066 5.646 0
M  V30 2888 H 272.872 -0.663268 0.330388 0
M  V30 2889 H 275.519 -1.28368 1.42105 0
M  V30 2890 H 273.824 -3.82599 0.844097 0
M  V30 2891 H 275.521 -3.81499 1.23528 0
M  V30 2892 H 272.111 -3.40124 2.60794 0
M  V30 2893 H 276.295 -3.42865 3.58828 0
M  V30 2894 H 271.551 -3.52079 4.9985 0
M  V30 2895 H 275.725 -3.56043 5.98503 0
M  V30 2896 H 273.352 -3.60218 6.69438 0
M  V30 2897 N 274.927 -0.932562 -1.27047 0
M  V30 2898 C 275.877 -0.406392 -2.24349 0
M  V30 2899 C 276.861 0.492066 -1.53191 0
M  V30 2900 O 278.053 0.328717 -1.73921 0
M  V30 2901 C 275.182 0.335214 -3.41659 0
M  V30 2902 C 274.268 -0.58004 -4.20115 0
M  V30 2903 N 274.659 -1.70203 -4.76303 0
M  V30 2904 C 272.957 -0.383974 -4.44344 0
M  V30 2905 C 273.658 -2.27167 -5.35509 0
M  V30 2906 N 272.634 -1.56068 -5.20715 0
M  V30 2907 H 276.436 -1.26299 -2.65378 0
M  V30 2908 H 273.95 -0.787408 -1.42034 0
M  V30 2909 H 275.947 0.729142 -4.10474 0
M  V30 2910 H 274.607 1.18868 -3.0216 0
M  V30 2911 H 275.618 -2.08433 -4.74106 0
M  V30 2912 H 272.295 0.428436 -4.15296 0
M  V30 2913 H 273.685 -3.21654 -5.89905 0
M  V30 2914 N 276.405 1.4127 -0.698611 0
M  V30 2915 C 277.335 2.33447 -0.049629 0
M  V30 2916 C 278.316 1.51982 0.763898 0
M  V30 2917 O 279.501 1.80509 0.716257 0
M  V30 2918 C 276.631 3.35828 0.885267 0
M  V30 2919 C 275.585 4.27627 0.178613 0
M  V30 2920 C 274.911 5.20406 1.22807 0
M  V30 2921 C 276.211 5.13459 -0.956933 0
M  V30 2922 H 277.905 2.87966 -0.81951 0
M  V30 2923 H 275.451 1.38461 -0.395538 0
M  V30 2924 H 277.404 3.9924 1.34854 0
M  V30 2925 H 276.128 2.79666 1.68685 0
M  V30 2926 H 274.787 3.65643 -0.26466 0
M  V30 2927 H 274.435 4.60558 2.02226 0
M  V30 2928 H 274.135 5.82661 0.760239 0
M  V30 2929 H 275.659 5.86695 1.69179 0
M  V30 2930 H 277.073 5.70421 -0.573805 0
M  V30 2931 H 275.47 5.8467 -1.35205 0
M  V30 2932 H 276.54 4.50443 -1.79524 0
M  V30 2933 N 277.883 0.443576 1.51229 0
M  V30 2934 C 278.831 -0.37904 2.29491 0
M  V30 2935 C 279.825 -1.0153 1.35603 0
M  V30 2936 O 281.031 -0.94955 1.52917 0
M  V30 2937 H 277.406 -0.141053 0.738653 0
M  V30 2938 H 279.377 0.301799 2.9687 0
M  V30 2939 C 278.126 -1.46426 3.15364 0
M  V30 2940 H 277.449 -0.984037 3.87501 0
M  V30 2941 H 278.889 -2.01297 3.7317 0
M  V30 2942 C 277.348 -2.45099 2.31146 0
M  V30 2943 O 277.878 -3.49773 1.9754 0
M  V30 2944 N 276.084 -2.16139 1.94249 0
M  V30 2945 H 275.631 -1.31044 2.21777 0
M  V30 2946 H 275.589 -2.82398 1.38198 0
M  V30 2947 N 279.361 -1.56624 0.175154 0
M  V30 2948 C 280.589 -2.01374 -0.474971 0
M  V30 2949 C 281.004 -1.05537 -1.56548 0
M  V30 2950 O 280.361 -0.0568668 -1.82411 0
M  V30 2951 C 280.412 -3.45923 -1.04975 0
M  V30 2952 O 280.133 -4.381 -0.00276605 0
M  V30 2953 C 281.634 -4.06093 -1.77773 0
M  V30 2954 H 278.854 -0.659962 -0.121206 0
M  V30 2955 H 281.398 -2.02601 0.27801 0
M  V30 2956 H 279.553 -3.45458 -1.75321 0
M  V30 2957 H 279.967 -5.22753 -0.427681 0
M  V30 2958 H 281.441 -5.09147 -2.13245 0
M  V30 2959 H 281.918 -3.48405 -2.67414 0
M  V30 2960 H 282.524 -4.10272 -1.12059 0
M  V30 2961 N 280.839 0.0985539 -1.57292 0
M  V30 2962 C 281.771 1.14595 -1.98496 0
M  V30 2963 C 282.784 1.36512 -0.887031 0
M  V30 2964 O 283.973 1.35225 -1.16518 0
M  V30 2965 C 281.073 2.50216 -2.28572 0
M  V30 2966 C 280.246 2.48624 -3.59868 0
M  V30 2967 C 279.305 3.66146 -3.7792 0
M  V30 2968 O 278.331 3.48795 -4.49812 0
M  V30 2969 N 279.533 4.85496 -3.18235 0
M  V30 2970 H 282.298 0.795277 -2.88956 0
M  V30 2971 H 279.859 0.287579 -1.59325 0
M  V30 2972 H 281.851 3.27432 -2.37845 0
M  V30 2973 H 280.421 2.77387 -1.44136 0
M  V30 2974 H 279.641 1.56978 -3.61596 0
M  V30 2975 H 280.929 2.44635 -4.46129 0
M  V30 2976 H 280.327 5.02497 -2.59833 0
M  V30 2977 H 278.884 5.60317 -3.32999 0
M  V30 2978 N 282.317 1.53212 0.369288 0
M  V30 2979 C 283.247 1.82365 1.45826 0
M  V30 2980 C 284.228 0.676907 1.56051 0
M  V30 2981 O 285.413 0.926401 1.70679 0
M  V30 2982 C 282.543 2.01023 2.83208 0
M  V30 2983 C 281.497 3.1678 2.8781 0
M  V30 2984 C 280.823 3.20724 4.27832 0
M  V30 2985 C 282.123 4.55447 2.55667 0
M  V30 2986 H 283.817 2.73559 1.21678 0
M  V30 2987 H 281.363 1.3163 0.583911 0
M  V30 2988 H 283.316 2.20001 3.59413 0
M  V30 2989 H 282.04 1.06536 3.08736 0
M  V30 2990 H 280.699 2.97616 2.14056 0
M  V30 2991 H 280.347 2.23882 4.50429 0
M  V30 2992 H 280.047 3.98496 4.31827 0
M  V30 2993 H 281.571 3.41881 5.05915 0
M  V30 2994 H 282.985 4.74611 3.21586 0
M  V30 2995 H 281.382 5.35432 2.70984 0
M  V30 2996 H 282.452 4.60812 1.5093 0
M  V30 2997 N 283.795 -0.628877 1.44509 0
M  V30 2998 C 284.743 -1.76193 1.51852 0
M  V30 2999 C 285.737 -1.64849 0.390042 0
M  V30 3000 O 286.943 -1.709 0.565082 0
M  V30 3001 H 283.318 -0.581728 0.476547 0
M  V30 3002 H 285.289 -1.67123 2.47209 0
M  V30 3003 C 284.038 -3.14533 1.48204 0
M  V30 3004 H 283.361 -3.23911 2.34354 0
M  V30 3005 H 284.801 -3.93701 1.57402 0
M  V30 3006 C 283.26 -3.36287 0.203142 0
M  V30 3007 O 283.79 -3.9509 -0.725745 0
M  V30 3008 N 281.996 -2.90408 0.105563 0
M  V30 3009 H 281.543 -2.42739 0.862301 0
M  V30 3010 H 281.501 -3.05339 -0.749371 0
M  V30 3011 N 285.273 -1.31445 -0.869486 0
M  V30 3012 C 286.221 -1.19067 -1.99814 0
M  V30 3013 C 287.215 -0.0988569 -1.69111 0
M  V30 3014 O 288.421 -0.260781 -1.78101 0
M  V30 3015 H 284.796 -0.368677 -0.655425 0
M  V30 3016 H 286.767 -2.14555 -2.07385 0
M  V30 3017 C 285.516 -0.915323 -3.35436 0
M  V30 3018 H 284.839 -1.74759 -3.59582 0
M  V30 3019 H 286.279 -0.868895 -4.15001 0
M  V30 3020 C 284.738 0.381928 -3.34728 0
M  V30 3021 O 285.268 1.39857 -3.76567 0
M  V30 3022 N 283.474 0.398633 -2.87853 0
M  V30 3023 H 283.021 -0.429186 -2.54 0
M  V30 3024 H 282.979 1.26651 -2.87762 0
M  V30 3025 N 286.751 1.08385 -1.14413 0
M  V30 3026 C 287.999 1.80419 -0.910679 0
M  V30 3027 C 288.32 1.86658 0.564243 0
M  V30 3028 O 287.59 1.35985 1.41014 0
M  V30 3029 H 286.17 0.668204 -0.333934 0
M  V30 3030 H 288.832 1.31037 -1.44275 0
M  V30 3031 H 287.928 2.83238 -1.31082 0
M  V30 3032 N 288.23 0.939286 1.26551 0
M  V30 3033 C 289.14 0.453432 2.30176 0
M  V30 3034 C 290.156 -0.471649 1.67486 0
M  V30 3035 O 291.332 -0.35164 1.98306 0
M  V30 3036 C 288.397 -0.275326 3.45605 0
M  V30 3037 C 287.458 0.686084 4.23782 0
M  V30 3038 C 286.691 -0.00798994 5.33699 0
M  V30 3039 O 286.914 -1.22528 5.57085 0
M  V30 3040 O 285.848 0.669746 5.98162 0
M  V30 3041 H 289.674 1.31416 2.73795 0
M  V30 3042 H 287.259 0.705095 1.31715 0
M  V30 3043 H 289.141 -0.685911 4.1578 0
M  V30 3044 H 287.816 -1.11147 3.0402 0
M  V30 3045 H 286.723 1.14658 3.56096 0
M  V30 3046 H 288.056 1.48979 4.69112 0
M  V30 3047 N 289.708 -1.40897 0.706093 0
M  V30 3048 C 290.933 -2.05895 0.249435 0
M  V30 3049 C 291.358 -1.52823 -1.09666 0
M  V30 3050 O 290.716 -0.659589 -1.68876 0
M  V30 3051 C 290.764 -3.59872 0.22904 0
M  V30 3052 O 289.868 -4.04708 -0.792784 0
M  V30 3053 H 289.209 -0.653206 0.119241 0
M  V30 3054 H 291.739 -1.80471 0.96391 0
M  V30 3055 H 291.749 -4.07951 0.0634791 0
M  V30 3056 H 290.424 -3.97866 1.21141 0
M  V30 3057 H 289.001 -3.68111 -0.59572 0
M  V30 3058 N 291.186 -0.45159 -1.50991 0
M  V30 3059 C 292.597 0.00818571 -1.86698 0
M  V30 3060 C 292.948 1.40661 -1.3678 0
M  V30 3061 O 292.073 2.0391 -0.724546 0
M  V30 3062 C 292.668 0.0216303 -3.38793 0
M  V30 3063 C 291.227 0.425865 -3.73983 0
M  V30 3064 C 290.374 -0.372163 -2.74791 0
M  V30 3065 H 293.325 -0.666785 -1.44013 0
M  V30 3066 H 293.346 0.828078 -3.7138 0
M  V30 3067 H 292.858 -0.996288 -3.75094 0
M  V30 3068 H 290.959 1.44886 -3.43277 0
M  V30 3069 H 291.072 0.140761 -4.78893 0
M  V30 3070 H 289.436 0.171498 -2.54122 0
M  V30 3071 H 290.219 -1.38922 -3.13935 0
M  V30 3072 N 292.664 1.56529 -0.183458 0
M  V30 3073 C 293.611 2.18546 0.742055 0
M  V30 3074 C 294.581 1.12912 1.2182 0
M  V30 3075 O 295.766 1.41115 1.28418 0
M  V30 3076 C 292.906 2.83977 1.96089 0
M  V30 3077 C 292.019 4.04105 1.52719 0
M  V30 3078 C 291.154 4.57427 2.70063 0
M  V30 3079 C 290.193 5.69938 2.23243 0
M  V30 3080 N 289.33 6.17717 3.33722 0
M  V30 3081 H 294.17 2.97284 0.206432 0
M  V30 3082 H 291.707 1.46823 0.0901571 0
M  V30 3083 H 293.665 3.20077 2.67594 0
M  V30 3084 H 292.295 2.07822 2.47002 0
M  V30 3085 H 291.347 3.73745 0.708436 0
M  V30 3086 H 292.659 4.85513 1.1436 0
M  V30 3087 H 291.813 4.95772 3.49708 0
M  V30 3088 H 290.552 3.75101 3.11689 0
M  V30 3089 H 289.557 5.31133 1.42048 0
M  V30 3090 H 290.782 6.54073 1.82661 0
M  V30 3091 H 288.728 5.38317 3.74902 0
M  V30 3092 H 288.645 6.94146 2.99495 0
M  V30 3093 H 289.913 6.60713 4.13616 0
M  V30 3094 N 294.142 -0.090211 1.57342 0
M  V30 3095 C 295.072 -1.10976 2.05443 0
M  V30 3096 C 296.053 -1.41482 0.944284 0
M  V30 3097 O 297.238 -1.51428 1.21586 0
M  V30 3098 C 294.368 -2.42831 2.48295 0
M  V30 3099 C 293.322 -2.26721 3.63018 0
M  V30 3100 C 292.648 -3.63796 3.91863 0
M  V30 3101 C 293.948 -1.7037 4.93732 0
M  V30 3102 H 295.642 -0.709564 2.9087 0
M  V30 3103 H 293.188 -0.339874 1.39932 0
M  V30 3104 H 295.141 -3.14431 2.80555 0
M  V30 3105 H 293.865 -2.84795 1.59873 0
M  V30 3106 H 292.524 -1.57565 3.31012 0
M  V30 3107 H 292.172 -4.03297 3.00601 0
M  V30 3108 H 291.872 -3.53861 4.69101 0
M  V30 3109 H 293.396 -4.36855 4.26603 0
M  V30 3110 H 294.81 -2.31816 5.24342 0
M  V30 3111 H 293.207 -1.71181 5.75167 0
M  V30 3112 H 294.277 -0.663542 4.80339 0
M  V30 3113 N 295.62 -1.53406 -0.361157 0
M  V30 3114 C 296.867 -1.69802 -1.10333 0
M  V30 3115 C 297.195 -0.452087 -1.89173 0
M  V30 3116 O 296.45 0.566017 -1.87336 0
M  V30 3117 C 296.749 -2.90211 -2.08596 0
M  V30 3118 C 296.415 -4.26539 -1.46203 0
M  V30 3119 C 295.077 -4.6361 -1.28915 0
M  V30 3120 C 297.429 -5.113 -1.01101 0
M  V30 3121 C 294.757 -5.83075 -0.651157 0
M  V30 3122 C 297.109 -6.31415 -0.387007 0
M  V30 3123 C 295.773 -6.67195 -0.201657 0
M  V30 3124 H 295.043 -0.621351 -0.403737 0
M  V30 3125 H 297.69 -1.87598 -0.384609 0
M  V30 3126 H 295.995 -2.66946 -2.86788 0
M  V30 3127 H 297.692 -3.00091 -2.65982 0
M  V30 3128 H 294.282 -3.97352 -1.60653 0
M  V30 3129 H 298.466 -4.83206 -1.13249 0
M  V30 3130 H 293.722 -6.09385 -0.496006 0
M  V30 3131 H 297.896 -6.96394 -0.0293563 0
M  V30 3132 H 295.523 -7.59628 0.294766 0
M  V30 3133 N 297.098 0.621204 -1.44841 0
M  V30 3134 C 298.008 1.7612 -1.5498 0
M  V30 3135 C 299.024 1.68477 -0.434927 0
M  V30 3136 O 300.2 1.89076 -0.693693 0
M  V30 3137 C 297.265 3.1254 -1.50065 0
M  V30 3138 C 296.326 3.31741 -2.72482 0
M  V30 3139 C 295.559 4.61653 -2.67792 0
M  V30 3140 O 295.782 5.431 -1.74352 0
M  V30 3141 O 294.716 4.83271 -3.58794 0
M  V30 3142 H 298.542 1.70518 -2.51311 0
M  V30 3143 H 296.127 0.783643 -1.27198 0
M  V30 3144 H 298.009 3.93844 -1.49882 0
M  V30 3145 H 296.684 3.18663 -0.568806 0
M  V30 3146 H 295.591 2.50077 -2.7823 0
M  V30 3147 H 296.924 3.30486 -3.64746 0
M  V30 3148 N 298.576 1.31904 0.862503 0
M  V30 3149 C 299.824 1.21776 1.61292 0
M  V30 3150 C 300.145 -0.222413 1.93727 0
M  V30 3151 O 299.415 -1.1451 1.58947 0
M  V30 3152 H 297.995 0.447717 0.597962 0
M  V30 3153 H 300.657 1.65326 1.03215 0
M  V30 3154 H 299.753 1.7948 2.5533 0
M  V30 3155 N 300.054 -1.07777 1.14986 0
M  V30 3156 C 301.279 -1.84558 0.946213 0
M  V30 3157 C 301.704 -1.81323 -0.500362 0
M  V30 3158 O 301.062 -1.20301 -1.35637 0
M  V30 3159 C 301.11 -3.29736 1.45968 0
M  V30 3160 O 300.214 -4.07149 0.65601 0
M  V30 3161 H 299.555 -0.571641 0.33782 0
M  V30 3162 H 302.085 -1.35991 1.52865 0
M  V30 3163 H 302.095 -3.80574 1.47063 0
M  V30 3164 H 300.77 -3.31406 2.51283 0
M  V30 3165 H 299.347 -3.65994 0.714322 0
M  V30 3166 N 301.532 -0.945985 -1.26051 0
M  V30 3167 C 302.442 -0.465633 -2.29933 0
M  V30 3168 C 303.458 0.462761 -1.67733 0
M  V30 3169 O 304.634 0.341118 -1.9849 0
M  V30 3170 C 301.699 0.256994 -3.45746 0
M  V30 3171 C 300.76 -0.708549 -4.23412 0
M  V30 3172 C 299.993 -0.0203135 -5.33696 0
M  V30 3173 O 300.216 1.19571 -5.57726 0
M  V30 3174 O 299.15 -0.701459 -5.97799 0
M  V30 3175 H 302.976 -1.32866 -2.73094 0
M  V30 3176 H 300.561 -0.712071 -1.31339 0
M  V30 3177 H 302.443 0.663852 -4.16138 0
M  V30 3178 H 301.118 1.09533 -3.04605 0
M  V30 3179 H 300.025 -1.16545 -3.55483 0
M  V30 3180 H 301.358 -1.51465 -4.68315 0
M  V30 3181 N 303.011 1.40521 -0.713556 0
M  V30 3182 C 303.959 2.32549 -0.0485227 0
M  V30 3183 C 304.953 1.51931 0.74922 0
M  V30 3184 O 306.159 1.67745 0.652816 0
M  V30 3185 H 302.534 0.751994 0.00311138 0
M  V30 3186 H 304.505 2.86291 -0.841443 0
M  V30 3187 C 303.254 3.36879 0.860687 0
M  V30 3188 H 302.577 3.98978 0.256246 0
M  V30 3189 H 304.017 4.03772 1.294 0
M  V30 3190 C 302.476 2.72197 1.9852 0
M  V30 3191 O 303.006 2.5837 3.07584 0
M  V30 3192 N 301.212 2.30612 1.76823 0
M  V30 3193 H 300.759 2.42059 0.881217 0
M  V30 3194 H 300.717 1.87672 2.52243 0
M  V30 3195 N 304.489 0.459591 1.5075 0
M  V30 3196 C 305.736 -0.0993495 2.02256 0
M  V30 3197 C 306.064 -1.40751 1.34237 0
M  V30 3198 O 305.319 -1.90379 0.453228 0
M  V30 3199 C 305.618 -0.342866 3.55752 0
M  V30 3200 C 305.284 0.88218 4.42186 0
M  V30 3201 C 303.946 1.21808 4.65528 0
M  V30 3202 C 306.298 1.69837 4.92752 0
M  V30 3203 C 303.626 2.37045 5.36681 0
M  V30 3204 C 305.978 2.84192 5.65171 0
M  V30 3205 C 304.642 3.1821 5.8677 0
M  V30 3206 H 303.912 -0.0363545 0.740108 0
M  V30 3207 H 306.559 0.611329 1.8148 0
M  V30 3208 H 304.864 -1.13567 3.7498 0
M  V30 3209 H 306.561 -0.789121 3.93159 0
M  V30 3210 H 303.151 0.610467 4.2423 0
M  V30 3211 H 307.335 1.45205 4.74583 0
M  V30 3212 H 302.591 2.63689 5.51614 0
M  V30 3213 H 306.765 3.4779 6.03337 0
M  V30 3214 H 304.392 4.07613 6.41682 0
M  V30 3215 N 305.967 -1.56429 0.191757 0
M  V30 3216 C 306.914 -2.18936 -0.730454 0
M  V30 3217 C 307.884 -1.13557 -1.21219 0
M  V30 3218 O 309.069 -1.41794 -1.27668 0
M  V30 3219 C 306.209 -2.85013 -1.9458 0
M  V30 3220 C 305.322 -4.04909 -1.50574 0
M  V30 3221 C 304.457 -4.58853 -2.67634 0
M  V30 3222 C 303.496 -5.71114 -2.20217 0
M  V30 3223 N 302.633 -6.19478 -3.30442 0
M  V30 3224 H 307.473 -2.97389 -0.190664 0
M  V30 3225 H 305.01 -1.46869 -0.0823694 0
M  V30 3226 H 306.968 -3.21492 -2.65893 0
M  V30 3227 H 305.598 -2.09129 -2.45896 0
M  V30 3228 H 304.65 -3.74115 -0.688605 0
M  V30 3229 H 305.962 -4.86113 -1.11784 0
M  V30 3230 H 305.116 -4.97619 -3.47074 0
M  V30 3231 H 303.855 -3.76749 -3.09696 0
M  V30 3232 H 302.86 -5.31879 -1.3923 0
M  V30 3233 H 304.085 -6.55033 -1.79189 0
M  V30 3234 H 302.031 -5.40297 -3.72041 0
M  V30 3235 H 301.948 -6.95725 -2.9581 0
M  V30 3236 H 303.216 -6.62898 -4.10106 0
M  V30 3237 N 307.445 0.0818655 -1.57387 0
M  V30 3238 C 308.861 0.436412 -1.53517 0
M  V30 3239 C 309.061 1.79758 -0.910459 0
M  V30 3240 O 308.117 2.47324 -0.508636 0
M  V30 3241 C 309.43 0.386734 -2.98203 0
M  V30 3242 C 310.978 0.467644 -3.09487 0
M  V30 3243 C 311.453 0.447978 -4.55804 0
M  V30 3244 N 312.944 0.508348 -4.60402 0
M  V30 3245 C 313.679 0.515184 -5.71081 0
M  V30 3246 N 313.175 0.477435 -6.91153 0
M  V30 3247 N 314.968 0.560988 -5.59294 0
M  V30 3248 H 307.119 -0.809546 -1.96367 0
M  V30 3249 H 309.382 -0.302733 -0.898363 0
M  V30 3250 H 309.088 -0.546539 -3.47427 0
M  V30 3251 H 308.962 1.20075 -3.57578 0
M  V30 3252 H 311.349 1.39134 -2.60242 0
M  V30 3253 H 311.43 -0.374753 -2.5304 0
M  V30 3254 H 311.074 -0.471826 -5.05704 0
M  V30 3255 H 311.004 1.30777 -5.10103 0
M  V30 3256 H 313.495 0.54218 -3.7399 0
M  V30 3257 H 313.808 0.486299 -7.71268 0
M  V30 3258 H 312.153 0.444278 -6.93579 0
M  V30 3259 H 315.344 0.5881 -4.64391 0
M  V30 3260 H 315.517 0.562846 -6.45551 0
M  V30 3261 N 308.923 1.53595 0.353017 0
M  V30 3262 C 310.2 1.61002 1.11075 0
M  V30 3263 C 310.58 0.425356 2.0677 0
M  V30 3264 O 309.928 -0.583267 2.2093 0
M  V30 3265 C 310.138 2.96631 1.83877 0
M  V30 3266 C 311.486 3.51653 2.37961 0
M  V30 3267 O 312.51 2.98743 1.93987 0
M  V30 3268 O 311.369 4.44177 3.18386 0
M  V30 3269 H 308.463 0.650825 0.510251 0
M  V30 3270 H 311.009 1.6594 0.35527 0
M  V30 3271 H 309.781 3.74293 1.14108 0
M  V30 3272 H 309.404 2.95242 2.66304 0
M  V30 3273 N 310.401 -0.613514 1.45168 0
M  V30 3274 C 311.648 -1.37268 1.48875 0
M  V30 3275 C 311.976 -1.94077 0.128161 0
M  V30 3276 O 311.231 -1.75178 -0.872416 0
M  V30 3277 C 311.53 -2.54347 2.51083 0
M  V30 3278 C 311.196 -2.1572 3.95949 0
M  V30 3279 C 309.858 -2.04899 4.35396 0
M  V30 3280 C 312.21 -1.85485 4.87078 0
M  V30 3281 C 309.538 -1.62057 5.63875 0
M  V30 3282 C 311.89 -1.4413 6.15962 0
M  V30 3283 C 310.554 -1.31863 6.54346 0
M  V30 3284 H 309.824 -0.502299 0.544773 0
M  V30 3285 H 312.471 -0.694021 1.78481 0
M  V30 3286 H 310.776 -3.27524 2.15024 0
M  V30 3287 H 312.473 -3.12577 2.51191 0
M  V30 3288 H 309.063 -2.25066 3.64751 0
M  V30 3289 H 313.247 -1.92745 4.57343 0
M  V30 3290 H 308.503 -1.51177 5.92415 0
M  V30 3291 H 312.677 -1.19778 6.86022 0
M  V30 3292 H 310.304 -0.984392 7.538 0
M  V30 3293 N 311.879 -1.3236 -0.855495 0
M  V30 3294 C 313.125 -1.23054 -1.612 0
M  V30 3295 C 313.458 0.207404 -1.93089 0
M  V30 3296 O 312.733 1.14432 -1.57275 0
M  V30 3297 C 313.016 -2.08937 -2.93287 0
M  V30 3298 C 312.869 -3.61105 -2.68185 0
M  V30 3299 C 314.188 -1.94986 -3.94549 0
M  V30 3300 H 311.307 -0.448364 -0.584926 0
M  V30 3301 H 313.949 -1.62297 -0.987917 0
M  V30 3302 H 312.099 -1.75599 -3.46551 0
M  V30 3303 H 313.771 -4.04652 -2.21483 0
M  V30 3304 H 312.014 -3.83813 -2.02164 0
M  V30 3305 H 312.685 -4.16522 -3.62234 0
M  V30 3306 H 315.161 -2.24189 -3.5054 0
M  V30 3307 H 314.037 -2.57356 -4.84829 0
M  V30 3308 H 314.298 -0.917263 -4.3248 0
M  V30 3309 N 313.357 1.07166 -1.15556 0
M  V30 3310 C 314.587 1.83248 -0.954133 0
M  V30 3311 C 314.995 1.82449 0.500911 0
M  V30 3312 O 314.338 1.23575 1.35923 0
M  V30 3313 C 314.4 3.31393 -1.39351 0
M  V30 3314 C 314.064 3.5591 -2.86666 0
M  V30 3315 C 315.061 3.49695 -3.8472 0
M  V30 3316 C 312.746 3.83515 -3.24379 0
M  V30 3317 C 314.74 3.70737 -5.18491 0
M  V30 3318 C 312.427 4.04209 -4.58321 0
M  V30 3319 C 313.425 3.97815 -5.55186 0
M  V30 3320 O 313.113 4.17954 -6.86709 0
M  V30 3321 H 312.845 0.584941 -0.338851 0
M  V30 3322 H 315.399 1.36169 -1.53777 0
M  V30 3323 H 313.629 3.79292 -0.75329 0
M  V30 3324 H 315.318 3.88945 -1.16089 0
M  V30 3325 H 316.084 3.28368 -3.56931 0
M  V30 3326 H 311.963 3.87605 -2.49567 0
M  V30 3327 H 315.507 3.65663 -5.94085 0
M  V30 3328 H 311.404 4.25023 -4.85825 0
M  V30 3329 H 312.172 4.35291 -6.93155 0
M  V30 3330 N 314.835 0.952656 1.25548 0
M  V30 3331 C 316.081 0.607272 1.93494 0
M  V30 3332 C 316.414 -0.853245 1.74452 0
M  V30 3333 O 315.689 -1.61194 1.08843 0
M  V30 3334 C 315.972 0.96435 3.46947 0
M  V30 3335 C 315.825 2.48045 3.75225 0
M  V30 3336 C 317.144 0.487987 4.37386 0
M  V30 3337 H 314.263 0.222096 0.702739 0
M  V30 3338 H 316.905 1.18895 1.48203 0
M  V30 3339 H 315.055 0.469361 3.85654 0
M  V30 3340 H 316.727 3.04905 3.46166 0
M  V30 3341 H 314.97 2.919 3.209 0
M  V30 3342 H 315.641 2.6808 4.82532 0
M  V30 3343 H 318.117 0.912558 4.0597 0
M  V30 3344 H 316.993 0.766547 5.43521 0
M  V30 3345 H 317.254 -0.612063 4.37843 0
M  V30 3346 N 316.313 -1.40141 0.720998 0
M  V30 3347 C 317.561 -2.0039 0.262323 0
M  V30 3348 C 317.882 -1.57469 -1.15015 0
M  V30 3349 O 317.152 -0.816582 -1.78069 0
M  V30 3350 H 315.732 -0.741063 0.093996 0
M  V30 3351 H 318.394 -1.71398 0.927835 0
M  V30 3352 H 317.49 -3.10658 0.299671 0
M  V30 3353 N 317.792 -0.46758 -1.50504 0
M  V30 3354 C 319.069 0.15003 -1.95024 0
M  V30 3355 C 319.449 1.57304 -1.40779 0
M  V30 3356 O 318.797 2.20281 -0.607319 0
M  V30 3357 C 319.007 0.0969324 -3.48865 0
M  V30 3358 C 320.355 0.287565 -4.23625 0
M  V30 3359 O 321.379 0.173678 -3.55776 0
M  V30 3360 O 320.238 0.517186 -5.44047 0
M  V30 3361 H 317.332 0.113582 -0.819163 0
M  V30 3362 H 319.878 -0.52773 -1.61286 0
M  V30 3363 H 318.65 -0.896732 -3.80886 0
M  V30 3364 H 318.273 0.816303 -3.8913 0
M  V30 3365 N 319.27 1.56325 -0.20005 0
M  V30 3366 C 320.516 1.98012 0.438059 0
M  V30 3367 C 320.849 1.08702 1.60927 0
M  V30 3368 O 320.124 0.140064 1.93995 0
M  V30 3369 C 320.407 3.48841 0.893419 0
M  V30 3370 C 320.26 4.48928 -0.279947 0
M  V30 3371 C 321.579 4.03498 1.75719 0
M  V30 3372 H 318.698 0.719918 0.157757 0
M  V30 3373 H 321.34 1.87743 -0.291968 0
M  V30 3374 H 319.49 3.57723 1.51547 0
M  V30 3375 H 321.162 4.52079 -0.91772 0
M  V30 3376 H 319.405 4.23694 -0.930919 0
M  V30 3377 H 320.076 5.5194 0.0812601 0
M  V30 3378 H 322.552 3.97427 1.23253 0
M  V30 3379 H 321.428 5.09393 2.04476 0
M  V30 3380 H 321.689 3.4906 2.71311 0
M  V30 3381 N 320.748 -0.0735177 1.57428 0
M  V30 3382 C 321.711 -1.07192 2.02589 0
M  V30 3383 C 322.711 -1.31695 0.922661 0
M  V30 3384 O 323.901 -1.27445 1.18758 0
M  V30 3385 C 321.033 -2.41599 2.40506 0
M  V30 3386 H 322.226 -0.682727 2.92025 0
M  V30 3387 H 319.779 -0.319193 1.53006 0
M  V30 3388 H 320.514 -2.85354 1.5409 0
M  V30 3389 H 320.299 -2.25156 3.21009 0
M  V30 3390 H 321.789 -3.13367 2.76027 0
M  V30 3391 N 322.226 -1.5378 -0.344866 0
M  V30 3392 C 323.503 -1.61589 -1.10219 0
M  V30 3393 C 323.883 -0.436316 -2.06542 0
M  V30 3394 O 323.231 0.571543 -2.21237 0
M  V30 3395 C 323.441 -2.97602 -1.82301 0
M  V30 3396 C 324.789 -3.5291 -2.36093 0
M  V30 3397 O 325.813 -2.99768 -1.924 0
M  V30 3398 O 324.672 -4.45859 -3.16026 0
M  V30 3399 H 321.766 -0.653522 -0.506792 0
M  V30 3400 H 324.312 -1.66126 -0.346465 0
M  V30 3401 H 323.084 -3.74893 -1.12121 0
M  V30 3402 H 322.707 -2.9665 -2.64735 0
M  V30 3403 N 323.704 0.605807 -1.45491 0
M  V30 3404 C 324.95 1.36679 -1.49823 0
M  V30 3405 C 325.283 1.93693 -0.140175 0
M  V30 3406 O 324.558 1.75158 0.845581 0
M  V30 3407 C 324.841 2.51337 -2.57879 0
M  V30 3408 C 324.694 1.99508 -4.03134 0
M  V30 3409 C 326.013 3.53463 -2.62205 0
M  V30 3410 H 323.132 0.495617 -0.545466 0
M  V30 3411 H 325.774 0.682732 -1.7731 0
M  V30 3412 H 323.924 3.09691 -2.34571 0
M  V30 3413 H 325.596 1.45789 -4.37656 0
M  V30 3414 H 323.839 1.30496 -4.13707 0
M  V30 3415 H 324.51 2.82169 -4.74431 0
M  V30 3416 H 326.986 3.04953 -2.83095 0
M  V30 3417 H 325.862 4.31178 -3.39672 0
M  V30 3418 H 326.123 4.09197 -1.67363 0
M  V30 3419 N 325.182 1.32811 0.848464 0
M  V30 3420 C 326.13 1.22231 1.97895 0
M  V30 3421 C 327.124 0.125749 1.68933 0
M  V30 3422 O 328.33 0.289083 1.77663 0
M  V30 3423 H 324.705 0.379058 0.649476 0
M  V30 3424 H 326.676 2.17828 2.03945 0
M  V30 3425 C 325.425 0.968572 3.33937 0
M  V30 3426 H 324.748 1.80458 3.56756 0
M  V30 3427 H 326.188 0.934808 4.13567 0
M  V30 3428 C 324.647 -0.328628 3.35293 0
M  V30 3429 O 325.177 -1.33848 3.78745 0
M  V30 3430 N 323.383 -0.352788 2.88451 0
M  V30 3431 H 322.93 0.469541 2.53285 0
M  V30 3432 H 322.888 -1.22057 2.89741 0
M  V30 3433 N 326.66 -1.06551 1.16123 0
M  V30 3434 C 327.59 -2.15935 0.88851 0
M  V30 3435 C 328.571 -1.69306 -0.164135 0
M  V30 3436 O 329.756 -1.94193 -0.0167857 0
M  V30 3437 C 326.886 -3.45149 0.385942 0
M  V30 3438 C 325.84 -4.05271 1.3762 0
M  V30 3439 C 325.166 -5.29664 0.732137 0
M  V30 3440 C 326.466 -4.44355 2.74493 0
M  V30 3441 H 328.16 -2.39006 1.80323 0
M  V30 3442 H 325.706 -1.14866 0.868435 0
M  V30 3443 H 327.659 -4.21004 0.182647 0
M  V30 3444 H 326.383 -3.21689 -0.564274 0
M  V30 3445 H 325.042 -3.3147 1.56599 0
M  V30 3446 H 324.69 -5.02499 -0.224483 0
M  V30 3447 H 324.39 -5.70848 1.39307 0
M  V30 3448 H 325.914 -6.08218 0.538802 0
M  V30 3449 H 327.328 -5.11303 2.59311 0
M  V30 3450 H 325.725 -4.96515 3.37035 0
M  V30 3451 H 326.795 -3.55339 3.29943 0
M  V30 3452 N 328.138 -0.959301 -1.25041 0
M  V30 3453 C 329.384 -0.627096 -1.93492 0
M  V30 3454 C 329.739 0.827484 -1.73696 0
M  V30 3455 O 329.032 1.58651 -1.07427 0
M  V30 3456 C 329.226 -0.927136 -3.45165 0
M  V30 3457 C 329.055 -2.40933 -3.79712 0
M  V30 3458 C 327.825 -3.0677 -4.01522 0
M  V30 3459 C 330.023 -3.38894 -3.86853 0
M  V30 3460 N 328.005 -4.44815 -4.231 0
M  V30 3461 C 329.376 -4.62263 -4.13174 0
M  V30 3462 C 331.431 -3.33668 -3.69554 0
M  V30 3463 C 330.134 -5.81052 -4.23995 0
M  V30 3464 C 332.16 -4.518 -3.81616 0
M  V30 3465 C 331.522 -5.73957 -4.08354 0
M  V30 3466 H 327.621 -0.280166 -0.73009 0
M  V30 3467 H 330.205 -1.23244 -1.50729 0
M  V30 3468 H 328.376 -0.350685 -3.86814 0
M  V30 3469 H 330.108 -0.554361 -4.00885 0
M  V30 3470 H 326.863 -2.57327 -3.97593 0
M  V30 3471 H 327.287 -5.16319 -4.37885 0
M  V30 3472 H 331.929 -2.40268 -3.47895 0
M  V30 3473 H 329.647 -6.74888 -4.44468 0
M  V30 3474 H 333.233 -4.49309 -3.69612 0
M  V30 3475 H 332.113 -6.6384 -4.17475 0
M  V30 3476 N 329.616 1.39756 -0.72842 0
M  V30 3477 C 330.863 2.00645 -0.273487 0
M  V30 3478 C 331.191 1.57786 1.13727 0
M  V30 3479 O 330.446 0.794886 1.7883 0
M  V30 3480 C 330.745 3.56002 -0.315776 0
M  V30 3481 C 330.411 4.18489 -1.67863 0
M  V30 3482 C 329.073 4.3527 -2.05166 0
M  V30 3483 C 331.425 4.53219 -2.57375 0
M  V30 3484 C 328.753 4.84069 -3.31503 0
M  V30 3485 C 331.105 5.03423 -3.83077 0
M  V30 3486 C 329.769 5.18413 -4.20481 0
M  V30 3487 H 329.039 0.734211 -0.100076 0
M  V30 3488 H 331.686 1.6718 -0.933972 0
M  V30 3489 H 329.991 3.89452 0.428285 0
M  V30 3490 H 331.688 4.00963 0.0542575 0
M  V30 3491 H 328.278 4.05824 -1.37858 0
M  V30 3492 H 332.462 4.39878 -2.29827 0
M  V30 3493 H 327.718 4.93859 -3.60435 0
M  V30 3494 H 331.892 5.2927 -4.52599 0
M  V30 3495 H 329.519 5.55987 -5.18443 0
M  V30 3496 N 331.094 0.475555 1.50254 0
M  V30 3497 C 332.024 -0.30611 2.31485 0
M  V30 3498 C 333.005 -0.986228 1.38591 0
M  V30 3499 O 334.19 -0.982541 1.67511 0
M  V30 3500 C 331.32 -1.38588 3.1845 0
M  V30 3501 C 330.274 -0.827115 4.19932 0
M  V30 3502 C 329.6 -2.00551 4.95665 0
M  V30 3503 C 330.9 0.16463 5.2204 0
M  V30 3504 H 332.594 0.371866 2.97082 0
M  V30 3505 H 330.14 0.180282 1.42867 0
M  V30 3506 H 332.093 -1.94023 3.74076 0
M  V30 3507 H 330.817 -2.09269 2.50747 0
M  V30 3508 H 329.476 -0.294702 3.65414 0
M  V30 3509 H 329.124 -2.6994 4.2443 0
M  V30 3510 H 328.824 -1.63784 5.64313 0
M  V30 3511 H 330.348 -2.56468 5.54127 0
M  V30 3512 H 331.762 -0.300699 5.72511 0
M  V30 3513 H 330.159 0.446813 5.98434 0
M  V30 3514 H 331.229 1.08905 4.72512 0
M  V30 3515 N 332.573 -1.56217 0.208337 0
M  V30 3516 C 333.483 -2.23316 -0.718836 0
M  V30 3517 C 334.499 -1.23648 -1.22422 0
M  V30 3518 O 335.675 -1.56423 -1.26861 0
M  V30 3519 C 332.74 -2.88968 -1.91568 0
M  V30 3520 C 331.801 -4.03943 -1.45357 0
M  V30 3521 C 331.034 -4.66455 -2.59337 0
M  V30 3522 O 331.257 -4.27919 -3.77149 0
M  V30 3523 O 330.191 -5.55686 -2.31293 0
M  V30 3524 H 334.017 -3.03182 -0.177315 0
M  V30 3525 H 331.602 -1.49384 -0.0215402 0
M  V30 3526 H 333.484 -3.30455 -2.61491 0
M  V30 3527 H 332.159 -2.12071 -2.44556 0
M  V30 3528 H 331.066 -3.67052 -0.722746 0
M  V30 3529 H 332.399 -4.82543 -0.970219 0
M  V30 3530 N 334.051 0.0651679 -1.57465 0
M  V30 3531 C 334.999 1.09542 -2.05191 0
M  V30 3532 C 335.993 1.39675 -0.958509 0
M  V30 3533 O 337.199 1.39003 -1.14359 0
M  V30 3534 H 333.574 0.370623 -0.654326 0
M  V30 3535 H 335.545 0.666802 -2.90854 0
M  V30 3536 C 334.294 2.39881 -2.51699 0
M  V30 3537 H 333.617 2.17547 -3.3543 0
M  V30 3538 H 335.057 3.104 -2.88839 0
M  V30 3539 C 333.516 3.0631 -1.40271 0
M  V30 3540 O 334.046 3.94664 -0.748523 0
M  V30 3541 N 332.252 2.67041 -1.14618 0
M  V30 3542 H 331.799 1.95281 -1.67997 0
M  V30 3543 H 331.757 3.1181 -0.402688 0
M  V30 3544 N 335.529 1.53961 0.336706 0
M  V30 3545 C 336.777 1.71197 1.07405 0
M  V30 3546 C 337.098 0.481475 1.88962 0
M  V30 3547 O 336.368 -0.504585 1.8929 0
M  V30 3548 H 334.948 0.631185 0.399517 0
M  V30 3549 H 337.61 1.91232 0.376323 0
M  V30 3550 H 336.706 2.58587 1.74755 0
M  V30 3551 N 337.007 -0.598083 1.45811 0
M  V30 3552 C 338.253 -1.35882 1.50545 0
M  V30 3553 C 338.586 -1.93616 0.150445 0
M  V30 3554 O 337.861 -1.75604 -0.83628 0
M  V30 3555 C 338.144 -2.49966 2.59208 0
M  V30 3556 C 337.997 -1.97367 4.04186 0
M  V30 3557 C 339.316 -3.52068 2.64076 0
M  V30 3558 H 336.435 -0.492717 0.548087 0
M  V30 3559 H 339.077 -0.673319 1.77669 0
M  V30 3560 H 337.227 -3.08443 2.3621 0
M  V30 3561 H 338.899 -1.43466 4.38423 0
M  V30 3562 H 337.142 -1.283 4.14393 0
M  V30 3563 H 337.813 -2.79649 4.75921 0
M  V30 3564 H 340.289 -3.03448 2.84708 0
M  V30 3565 H 339.165 -4.2937 3.41954 0
M  V30 3566 H 339.426 -4.08304 1.69531 0
M  V30 3567 N 338.485 -1.33259 -0.841409 0
M  V30 3568 C 339.71 -1.2775 -1.63385 0
M  V30 3569 C 340.135 0.149188 -1.87507 0
M  V30 3570 O 339.493 1.10498 -1.43736 0
M  V30 3571 C 339.541 -2.05571 -2.96265 0
M  V30 3572 O 338.645 -1.41257 -3.87453 0
M  V30 3573 H 337.986 -0.439627 -0.497618 0
M  V30 3574 H 340.516 -1.75782 -1.04699 0
M  V30 3575 H 340.526 -2.16241 -3.45982 0
M  V30 3576 H 339.201 -3.09309 -2.7803 0
M  V30 3577 H 337.778 -1.39217 -3.45938 0
M  V30 3578 N 339.963 1.05934 -1.16686 0
M  V30 3579 C 341.211 1.78447 -0.948744 0
M  V30 3580 C 341.532 1.87813 0.524523 0
M  V30 3581 O 340.802 1.38945 1.38098 0
M  V30 3582 H 339.382 0.660971 -0.348033 0
M  V30 3583 H 342.044 1.27947 -1.47022 0
M  V30 3584 H 341.14 2.80394 -1.37061 0
M  V30 3585 N 341.441 0.965919 1.2453 0
M  V30 3586 C 342.69 0.622437 1.91856 0
M  V30 3587 C 343.003 -0.846006 1.76358 0
M  V30 3588 O 344.209 -1.29993 2.38357 0
M  V30 3589 C 342.665 1.0626 3.43856 0
M  V30 3590 C 342.273 2.55437 3.68043 0
M  V30 3591 C 344.017 0.792183 4.17043 0
M  V30 3592 C 341.924 2.93196 5.13605 0
M  V30 3593 H 340.854 0.229092 0.718354 0
M  V30 3594 H 343.505 1.17189 1.41206 0
M  V30 3595 H 341.887 0.441476 3.93531 0
M  V30 3596 H 343.061 3.22665 3.28974 0
M  V30 3597 H 341.376 2.8007 3.08139 0
M  V30 3598 H 343.973 1.05031 5.24283 0
M  V30 3599 H 344.316 -0.271584 4.15413 0
M  V30 3600 H 344.849 1.37419 3.73311 0
M  V30 3601 H 341.588 3.98636 5.20355 0
M  V30 3602 H 341.108 2.30651 5.53679 0
M  V30 3603 H 342.787 2.83004 5.81823 0
M  V30 3604 N 342.919 -1.39368 0.735821 0
M  V30 3605 C 344.166 -2.00497 0.284123 0
M  V30 3606 C 344.494 -1.58387 -1.12889 0
M  V30 3607 O 343.749 -0.804359 -1.78406 0
M  V30 3608 C 344.048 -3.5583 0.334651 0
M  V30 3609 C 343.714 -4.17593 1.7008 0
M  V30 3610 C 342.376 -4.34176 2.07472 0
M  V30 3611 C 344.728 -4.51848 2.59775 0
M  V30 3612 C 342.056 -4.82304 3.34065 0
M  V30 3613 C 344.408 -5.01384 3.85741 0
M  V30 3614 C 343.072 -5.16175 4.23225 0
M  V30 3615 H 342.342 -0.73367 0.103968 0
M  V30 3616 H 344.989 -1.66683 0.942825 0
M  V30 3617 H 343.294 -3.89674 -0.407625 0
M  V30 3618 H 344.991 -4.00986 -0.0329927 0
M  V30 3619 H 341.581 -4.05087 1.40008 0
M  V30 3620 H 345.765 -4.38653 2.32157 0
M  V30 3621 H 341.021 -4.91941 3.63049 0
M  V30 3622 H 345.195 -5.26863 4.55399 0
M  V30 3623 H 342.822 -5.5323 5.21384 0
M  V30 3624 N 344.397 -0.483516 -1.5 0
M  V30 3625 C 345.345 0.318061 -2.30415 0
M  V30 3626 C 346.339 0.978988 -1.38247 0
M  V30 3627 O 347.545 0.908673 -1.55381 0
M  V30 3628 H 343.92 0.121419 -0.742133 0
M  V30 3629 H 345.891 -0.380403 -2.95965 0
M  V30 3630 C 344.64 1.38013 -3.19136 0
M  V30 3631 H 343.963 0.880952 -3.89973 0
M  V30 3632 H 345.403 1.91332 -3.78375 0
M  V30 3633 C 343.862 2.38884 -2.37563 0
M  V30 3634 O 344.392 3.44412 -2.06744 0
M  V30 3635 N 342.598 2.10912 -1.99911 0
M  V30 3636 H 342.145 1.25118 -2.25174 0
M  V30 3637 H 342.103 2.78635 -1.45636 0
M  V30 3638 N 345.875 1.56104 -0.216619 0
M  V30 3639 C 346.805 2.23063 0.690296 0
M  V30 3640 C 347.786 1.20072 1.20485 0
M  V30 3641 O 348.971 1.48643 1.24976 0
M  V30 3642 C 346.101 2.90672 1.90072 0
M  V30 3643 C 345.055 4.00092 1.5202 0
M  V30 3644 C 344.381 4.54972 2.80899 0
M  V30 3645 C 345.681 5.17398 0.71391 0
M  V30 3646 H 347.375 2.99109 0.132038 0
M  V30 3647 H 344.921 1.43866 0.0620664 0
M  V30 3648 H 346.874 3.36204 2.54057 0
M  V30 3649 H 345.598 2.12066 2.48386 0
M  V30 3650 H 344.257 3.55283 0.903839 0
M  V30 3651 H 343.905 3.73102 3.37348 0
M  V30 3652 H 343.605 5.28817 2.56176 0
M  V30 3653 H 345.129 5.0322 3.45836 0
M  V30 3654 H 346.543 5.59342 1.25735 0
M  V30 3655 H 344.94 5.97444 0.563951 0
M  V30 3656 H 346.01 4.84088 -0.280527 0
M  V30 3657 N 347.353 -0.0568162 1.57498 0
M  V30 3658 C 348.601 -0.751617 1.87604 0
M  V30 3659 C 348.922 -1.77351 0.81066 0
M  V30 3660 O 348.192 -1.95254 -0.159018 0
M  V30 3661 H 346.772 -0.280583 0.692302 0
M  V30 3662 H 349.434 -0.0293483 1.94878 0
M  V30 3663 H 348.53 -1.25852 2.856 0
M  V30 3664 N 348.832 -1.54138 -0.328536 0
M  V30 3665 C 350.06 -1.76062 -1.08673 0
M  V30 3666 C 350.475 -0.506852 -1.81869 0
M  V30 3667 O 349.832 0.522223 -1.74869 0
M  V30 3668 C 349.883 -2.95054 -2.08866 0
M  V30 3669 O 349.604 -4.15583 -1.38644 0
M  V30 3670 C 351.105 -3.2915 -2.96943 0
M  V30 3671 H 348.325 -0.587889 -0.323461 0
M  V30 3672 H 350.869 -2.0101 -0.376175 0
M  V30 3673 H 349.024 -2.72394 -2.75464 0
M  V30 3674 H 349.438 -4.82481 -2.05699 0
M  V30 3675 H 350.912 -4.15723 -3.63151 0
M  V30 3676 H 351.389 -2.461 -3.63774 0
M  V30 3677 H 351.995 -3.53871 -2.35914 0
M  V30 3678 N 350.31 0.590341 -1.46126 0
M  V30 3679 C 351.558 1.34616 -1.50742 0
M  V30 3680 C 351.879 1.94363 -0.157486 0
M  V30 3681 O 351.149 1.78136 0.815136 0
M  V30 3682 H 349.729 0.499789 -0.555175 0
M  V30 3683 H 352.391 0.691953 -1.82203 0
M  V30 3684 H 351.487 2.15678 -2.25587 0
M  V30 3685 N 351.788 1.33704 0.83433 0
M  V30 3686 C 353.204 1.13137 1.12571 0
M  V30 3687 C 353.404 -0.0747261 2.01361 0
M  V30 3688 O 352.46 -0.753647 2.4099 0
M  V30 3689 C 353.773 2.42105 1.78342 0
M  V30 3690 C 355.321 2.48054 1.90888 0
M  V30 3691 C 355.796 3.76995 2.60075 0
M  V30 3692 N 357.287 3.78092 2.67584 0
M  V30 3693 C 358.022 4.74574 3.21818 0
M  V30 3694 N 357.518 5.81434 3.76705 0
M  V30 3695 N 359.311 4.62044 3.20112 0
M  V30 3696 H 351.462 2.11 0.243489 0
M  V30 3697 H 353.725 0.932532 0.17055 0
M  V30 3698 H 353.431 3.30391 1.20561 0
M  V30 3699 H 353.305 2.54594 2.7832 0
M  V30 3700 H 355.692 1.60215 2.47821 0
M  V30 3701 H 355.773 2.39502 0.898459 0
M  V30 3702 H 355.417 4.65219 2.03799 0
M  V30 3703 H 355.347 3.82825 3.61597 0
M  V30 3704 H 357.838 3.00865 2.28667 0
M  V30 3705 H 358.151 6.51084 4.16305 0
M  V30 3706 H 356.496 5.85163 3.7498 0
M  V30 3707 H 359.687 3.77716 2.76493 0
M  V30 3708 H 359.86 5.37406 3.62076 0
M  V30 3709 N 353.266 -1.05314 1.17247 0
M  V30 3710 C 354.229 -2.112 0.890357 0
M  V30 3711 C 355.229 -1.60359 -0.118943 0
M  V30 3712 O 356.419 -1.73833 0.113086 0
M  V30 3713 C 353.551 -3.39266 0.333422 0
M  V30 3714 H 354.744 -2.37659 1.82916 0
M  V30 3715 H 352.297 -1.21538 0.982758 0
M  V30 3716 H 353.032 -3.18462 -0.612587 0
M  V30 3717 H 352.817 -3.77477 1.06082 0
M  V30 3718 H 354.307 -4.17315 0.154322 0
M  V30 3719 N 354.744 -0.972509 -1.24016 0
M  V30 3720 C 355.654 -0.5143 -2.28893 0
M  V30 3721 C 356.67 0.427078 -1.68677 0
M  V30 3722 O 357.846 0.298939 -1.99169 0
M  V30 3723 C 354.911 0.183598 -3.46214 0
M  V30 3724 C 353.972 -0.798202 -4.21814 0
M  V30 3725 C 353.205 -0.133514 -5.33533 0
M  V30 3726 O 353.428 1.07714 -5.60137 0
M  V30 3727 O 352.362 -0.828103 -5.96176 0
M  V30 3728 H 356.188 -1.38629 -2.70214 0
M  V30 3729 H 353.773 -0.739769 -1.29799 0
M  V30 3730 H 355.655 0.575433 -4.17453 0
M  V30 3731 H 354.33 1.03048 -3.0686 0
M  V30 3732 H 353.237 -1.24059 -3.52931 0
M  V30 3733 H 354.57 -1.61364 -4.64997 0
M  V30 3734 N 356.222 1.38976 -0.743202 0
M  V30 3735 C 357.447 2.05161 -0.303936 0
M  V30 3736 C 357.872 1.55677 1.05576 0
M  V30 3737 O 357.23 0.704131 1.67068 0
M  V30 3738 C 357.278 3.59138 -0.324373 0
M  V30 3739 O 356.382 4.06668 0.685204 0
M  V30 3740 H 355.723 0.649815 -0.136518 0
M  V30 3741 H 358.253 1.77852 -1.01142 0
M  V30 3742 H 358.263 4.07639 -0.171618 0
M  V30 3743 H 356.938 3.94515 -1.31647 0
M  V30 3744 H 355.515 3.69561 0.497913 0
M  V30 3745 N 357.7 0.491464 1.49741 0
M  V30 3746 C 358.947 -0.0564256 2.02421 0
M  V30 3747 C 359.275 -1.37872 1.37192 0
M  V30 3748 O 358.53 -1.89375 0.493508 0
M  V30 3749 C 358.829 -0.267329 3.56399 0
M  V30 3750 C 358.495 0.975775 4.40215 0
M  V30 3751 C 357.157 1.31655 4.62839 0
M  V30 3752 C 359.509 1.80251 4.89039 0
M  V30 3753 C 356.837 2.48375 5.31532 0
M  V30 3754 C 359.189 2.96116 5.59015 0
M  V30 3755 C 357.853 3.30585 5.79888 0
M  V30 3756 H 357.123 -0.0206476 0.740712 0
M  V30 3757 H 359.77 0.649686 1.80143 0
M  V30 3758 H 358.075 -1.05588 3.77304 0
M  V30 3759 H 359.772 -0.705549 3.94744 0
M  V30 3760 H 356.362 0.700315 4.2284 0
M  V30 3761 H 360.546 1.55239 4.71396 0
M  V30 3762 H 355.802 2.7533 5.45897 0
M  V30 3763 H 359.976 3.60509 5.95824 0
M  V30 3764 H 357.603 4.21132 6.32892 0
M  V30 3765 N 359.178 -1.55987 0.224894 0
M  V30 3766 C 360.11 -2.17722 -0.716224 0
M  V30 3767 C 361.123 -1.14723 -1.15509 0
M  V30 3768 O 362.312 -1.41688 -1.08567 0
M  V30 3769 C 359.412 -2.74873 -1.98238 0
M  V30 3770 C 358.585 -4.03074 -1.69853 0
M  V30 3771 C 357.644 -4.44757 -2.81208 0
M  V30 3772 O 356.67 -5.11587 -2.49534 0
M  V30 3773 N 357.872 -4.10716 -4.10235 0
M  V30 3774 H 360.637 -2.99109 -0.188123 0
M  V30 3775 H 358.198 -1.6184 0.0440123 0
M  V30 3776 H 360.19 -2.99727 -2.7193 0
M  V30 3777 H 358.76 -1.9777 -2.42086 0
M  V30 3778 H 357.98 -3.86041 -0.797875 0
M  V30 3779 H 359.268 -4.86701 -1.48324 0
M  V30 3780 H 358.666 -3.57019 -4.38809 0
M  V30 3781 H 357.223 -4.40455 -4.80461 0
M  V30 3782 N 360.656 0.0484629 -1.57525 0
M  V30 3783 C 361.619 1.03956 -2.04269 0
M  V30 3784 C 362.619 1.30211 -0.943496 0
M  V30 3785 O 363.809 1.25539 -1.20771 0
M  V30 3786 C 360.941 2.37742 -2.44319 0
M  V30 3787 H 362.134 0.636182 -2.93075 0
M  V30 3788 H 359.687 0.294811 -1.53494 0
M  V30 3789 H 360.422 2.82866 -1.5861 0
M  V30 3790 H 360.207 2.20021 -3.24551 0
M  V30 3791 H 361.697 3.08936 -2.80978 0
M  V30 3792 N 362.134 1.5431 0.320358 0
M  V30 3793 C 363.38 1.72924 1.05949 0
M  V30 3794 C 363.713 0.503185 1.87568 0
M  V30 3795 O 362.988 -0.499839 1.87968 0
M  V30 3796 C 363.271 3.00676 1.98156 0
M  V30 3797 C 363.124 4.3354 1.19845 0
M  V30 3798 C 364.443 3.24198 2.9763 0
M  V30 3799 H 361.562 0.629195 0.383774 0
M  V30 3800 H 364.204 1.87008 0.335854 0
M  V30 3801 H 362.354 2.888 2.59859 0
M  V30 3802 H 364.026 4.57305 0.605773 0
M  V30 3803 H 362.269 4.309 0.500784 0
M  V30 3804 H 362.94 5.19156 1.87567 0
M  V30 3805 H 365.416 3.35557 2.4605 0
M  V30 3806 H 364.292 4.14938 3.59329 0
M  V30 3807 H 364.553 2.41577 3.7026 0
M  V30 3808 N 363.613 -0.582584 1.46437 0
M  V30 3809 C 364.576 -1.67366 1.56592 0
M  V30 3810 C 365.576 -1.54575 0.443072 0
M  V30 3811 O 366.766 -1.59191 0.707381 0
M  V30 3812 C 363.898 -3.06791 1.48634 0
M  V30 3813 H 365.091 -1.5972 2.5383 0
M  V30 3814 H 362.644 -0.800432 1.34249 0
M  V30 3815 H 363.379 -3.19993 0.526763 0
M  V30 3816 H 363.164 -3.17484 2.30101 0
M  V30 3817 H 364.654 -3.86218 1.58826 0
M  V30 3818 N 365.091 -1.34144 -0.827227 0
M  V30 3819 C 366.368 -1.16844 -1.56865 0
M  V30 3820 C 366.748 0.260654 -2.09485 0
M  V30 3821 O 366.096 1.26138 -1.9053 0
M  V30 3822 C 366.306 -2.21939 -2.6934 0
M  V30 3823 C 367.654 -2.56695 -3.3822 0
M  V30 3824 O 368.678 -2.20695 -2.79593 0
M  V30 3825 O 367.537 -3.18518 -4.44082 0
M  V30 3826 H 364.631 -0.452669 -0.692112 0
M  V30 3827 H 367.177 -1.45763 -0.868973 0
M  V30 3828 H 365.949 -3.17882 -2.28182 0
M  V30 3829 H 365.572 -1.94172 -3.46962 0
M  V30 3830 N 366.569 1.04691 -1.17803 0
M  V30 3831 C 367.532 2.10724 -0.901545 0
M  V30 3832 C 368.532 1.6042 0.110437 0
M  V30 3833 O 369.722 1.7377 -0.122303 0
M  V30 3834 C 366.854 3.39084 -0.351409 0
M  V30 3835 H 368.047 2.36686 -1.84174 0
M  V30 3836 H 365.6 1.21015 -0.98919 0
M  V30 3837 H 366.335 3.18782 0.59569 0
M  V30 3838 H 366.12 3.76909 -1.08083 0
M  V30 3839 H 367.61 4.17227 -0.176451 0
M  V30 3840 N 368.047 0.979072 1.23499 0
M  V30 3841 C 369.275 0.665202 1.95915 0
M  V30 3842 C 369.69 -0.767571 1.72493 0
M  V30 3843 O 369.047 -1.51635 1.01554 0
M  V30 3844 C 369.098 0.944438 3.48945 0
M  V30 3845 O 368.819 2.3209 3.71572 0
M  V30 3846 C 370.32 0.646336 4.38563 0
M  V30 3847 H 367.54 0.247218 0.623798 0
M  V30 3848 H 370.084 1.31009 1.57025 0
M  V30 3849 H 368.239 0.345575 3.85856 0
M  V30 3850 H 368.653 2.40957 4.65876 0
M  V30 3851 H 370.127 0.892091 5.44744 0
M  V30 3852 H 370.604 -0.419575 4.37191 0
M  V30 3853 H 371.21 1.22562 4.07258 0
M  V30 3854 N 369.525 -1.3858 0.750561 0
M  V30 3855 C 370.455 -2.33102 0.136237 0
M  V30 3856 C 371.436 -1.54713 -0.706965 0
M  V30 3857 O 372.621 -1.83043 -0.648769 0
M  V30 3858 C 369.751 -3.38882 -0.760017 0
M  V30 3859 C 368.705 -4.27995 -0.0197785 0
M  V30 3860 C 368.031 -5.24605 -1.03408 0
M  V30 3861 C 369.331 -5.09554 1.14684 0
M  V30 3862 H 371.025 -2.84726 0.925822 0
M  V30 3863 H 368.571 -1.36898 0.446654 0
M  V30 3864 H 370.524 -4.0397 -1.19943 0
M  V30 3865 H 369.248 -2.85734 -1.58189 0
M  V30 3866 H 367.907 -3.64409 0.400184 0
M  V30 3867 H 367.555 -4.67746 -1.84994 0
M  V30 3868 H 367.255 -5.85081 -0.543464 0
M  V30 3869 H 368.779 -5.9257 -1.47288 0
M  V30 3870 H 370.193 -5.67899 0.785118 0
M  V30 3871 H 368.59 -5.7925 1.56812 0
M  V30 3872 H 369.66 -4.4347 1.96118 0
M  V30 3873 N 371.003 -0.499398 -1.49478 0
M  V30 3874 C 371.966 0.268838 -2.27618 0
M  V30 3875 C 372.966 0.895383 -1.33565 0
M  V30 3876 O 374.156 0.760164 -1.56739 0
M  V30 3877 C 371.288 1.38559 -3.11471 0
M  V30 3878 H 372.481 -0.416812 -2.96989 0
M  V30 3879 H 370.034 -0.254313 -1.54217 0
M  V30 3880 H 370.769 2.10544 -2.46661 0
M  V30 3881 H 370.554 0.941797 -3.80621 0
M  V30 3882 H 372.044 1.92678 -3.70493 0
M  V30 3883 N 372.481 1.55866 -0.233164 0
M  V30 3884 C 373.711 2.02704 0.399325 0
M  V30 3885 C 374.119 1.11204 1.53069 0
M  V30 3886 O 373.462 0.116182 1.83332 0
M  V30 3887 C 373.524 3.45844 0.981429 0
M  V30 3888 C 373.188 4.56997 -0.0159561 0
M  V30 3889 C 374.185 5.13384 -0.820552 0
M  V30 3890 C 371.87 5.0211 -0.138072 0
M  V30 3891 C 373.864 6.13365 -1.73386 0
M  V30 3892 C 371.551 6.01926 -1.0549 0
M  V30 3893 C 372.549 6.57431 -1.85132 0
M  V30 3894 O 372.237 7.55302 -2.75272 0
M  V30 3895 H 371.969 0.668459 0.100692 0
M  V30 3896 H 374.523 2.02387 -0.35052 0
M  V30 3897 H 372.753 3.43267 1.78058 0
M  V30 3898 H 374.442 3.76262 1.52255 0
M  V30 3899 H 375.208 4.79372 -0.736721 0
M  V30 3900 H 371.087 4.5858 0.471737 0
M  V30 3901 H 374.631 6.56614 -2.35592 0
M  V30 3902 H 370.528 6.35359 -1.1397 0
M  V30 3903 H 371.296 7.72867 -2.69477 0
M  V30 3904 N 373.959 -0.0401083 1.57549 0
M  V30 3905 C 374.909 -1.05175 2.02292 0
M  V30 3906 C 375.893 -1.32674 0.910294 0
M  V30 3907 O 377.085 -1.32444 1.17421 0
M  V30 3908 C 374.214 -2.35622 2.49674 0
M  V30 3909 C 373.3 -2.11261 3.67736 0
M  V30 3910 N 373.691 -1.56923 4.80842 0
M  V30 3911 C 371.989 -2.41596 3.74897 0
M  V30 3912 C 372.69 -1.48111 5.62528 0
M  V30 3913 N 371.666 -1.95282 5.07312 0
M  V30 3914 H 375.468 -0.625455 2.87168 0
M  V30 3915 H 372.982 -0.246624 1.60516 0
M  V30 3916 H 374.979 -3.08893 2.79983 0
M  V30 3917 H 373.639 -2.7894 1.662 0
M  V30 3918 H 374.65 -1.25345 5.02503 0
M  V30 3919 H 371.327 -2.88064 3.02201 0
M  V30 3920 H 372.717 -1.06683 6.63377 0
M  V30 3921 N 375.437 -1.54477 -0.31217 0
M  V30 3922 C 376.384 -1.84655 -1.38461 0
M  V30 3923 C 377.354 -0.694536 -1.50882 0
M  V30 3924 O 378.539 -0.942081 -1.6592 0
M  V30 3925 C 375.679 -2.0896 -2.74645 0
M  V30 3926 C 374.792 -3.36618 -2.70763 0
M  V30 3927 C 373.927 -3.50824 -3.98868 0
M  V30 3928 C 372.966 -4.72315 -3.89339 0
M  V30 3929 N 372.103 -4.83387 -5.09197 0
M  V30 3930 H 376.943 -2.76142 -1.12026 0
M  V30 3931 H 374.48 -1.36748 -0.542065 0
M  V30 3932 H 376.438 -2.21045 -3.53829 0
M  V30 3933 H 375.068 -1.20752 -2.99364 0
M  V30 3934 H 374.12 -3.33211 -1.83506 0
M  V30 3935 H 375.432 -4.25917 -2.59608 0
M  V30 3936 H 374.586 -3.62513 -4.86486 0
M  V30 3937 H 373.325 -2.59638 -4.12843 0
M  V30 3938 H 372.33 -4.6067 -3.00105 0
M  V30 3939 H 373.555 -5.64897 -3.76919 0
M  V30 3940 H 371.501 -3.9512 -5.23657 0
M  V30 3941 H 371.418 -5.66669 -5.00422 0
M  V30 3942 H 372.686 -4.9942 -5.98498 0
M  V30 3943 N 376.915 0.57481 -1.46744 0
M  V30 3944 C 377.862 1.68329 -1.57905 0
M  V30 3945 C 378.832 1.60625 -0.422927 0
M  V30 3946 O 380.017 1.79721 -0.640711 0
M  V30 3947 C 377.157 3.06665 -1.58274 0
M  V30 3948 C 376.27 3.24935 -2.84678 0
M  V30 3949 C 375.405 4.53566 -2.76499 0
M  V30 3950 C 374.444 4.65207 -3.97806 0
M  V30 3951 N 373.581 5.85172 -3.87967 0
M  V30 3952 H 378.421 1.58127 -2.52587 0
M  V30 3953 H 375.958 0.770552 -1.25303 0
M  V30 3954 H 377.916 3.86745 -1.56473 0
M  V30 3955 H 376.546 3.15745 -0.671194 0
M  V30 3956 H 375.598 2.38405 -2.96424 0
M  V30 3957 H 376.91 3.29403 -3.7456 0
M  V30 3958 H 376.064 5.41885 -2.72848 0
M  V30 3959 H 374.803 4.51548 -1.8427 0
M  V30 3960 H 373.808 3.75304 -4.0178 0
M  V30 3961 H 375.033 4.68997 -4.9114 0
M  V30 3962 H 372.979 5.84137 -2.98529 0
M  V30 3963 H 372.896 5.90943 -4.71511 0
M  V30 3964 H 374.164 6.759 -3.88303 0
M  V30 3965 N 378.394 1.34581 0.820102 0
M  V30 3966 C 379.642 1.26845 1.57336 0
M  V30 3967 C 379.963 -0.160667 1.94337 0
M  V30 3968 O 379.233 -1.09396 1.6251 0
M  V30 3969 H 377.813 0.466514 0.583415 0
M  V30 3970 H 380.475 1.68526 0.979027 0
M  V30 3971 H 379.571 1.87513 2.4949 0
M  V30 3972 N 379.872 -1.04064 1.18357 0
M  V30 3973 C 380.804 -2.12114 0.868358 0
M  V30 3974 C 381.817 -1.62247 -0.134045 0
M  V30 3975 O 383.006 -1.78253 0.0937933 0
M  V30 3976 C 380.106 -3.37773 0.276132 0
M  V30 3977 C 379.279 -4.16874 1.3242 0
M  V30 3978 C 378.338 -5.20861 0.747662 0
M  V30 3979 O 377.364 -5.51141 1.42239 0
M  V30 3980 N 378.566 -5.78715 -0.454823 0
M  V30 3981 H 381.331 -2.39748 1.79836 0
M  V30 3982 H 378.892 -1.20258 1.08396 0
M  V30 3983 H 380.884 -4.04513 -0.123133 0
M  V30 3984 H 379.454 -3.07581 -0.557895 0
M  V30 3985 H 378.674 -3.45456 1.89878 0
M  V30 3986 H 379.962 -4.66516 2.03078 0
M  V30 3987 H 379.36 -5.56415 -1.02073 0
M  V30 3988 H 377.917 -6.46921 -0.79601 0
M  V30 3989 N 381.35 -0.985608 -1.22978 0
M  V30 3990 C 382.599 -0.652881 -1.90841 0
M  V30 3991 C 382.912 0.817842 -1.77681 0
M  V30 3992 O 384.118 1.26185 -2.40395 0
M  V30 3993 C 382.574 -1.11717 -3.42122 0
M  V30 3994 C 382.182 -2.6126 -3.63933 0
M  V30 3995 C 383.926 -0.85843 -4.1573 0
M  V30 3996 C 381.833 -3.0133 -5.08876 0
M  V30 3997 H 380.763 -0.240491 -0.714619 0
M  V30 3998 H 383.414 -1.1942 -1.39324 0
M  V30 3999 H 381.796 -0.504027 -3.92779 0
M  V30 4000 H 382.97 -3.27858 -3.23799 0
M  V30 4001 H 381.285 -2.84937 -3.03644 0
M  V30 4002 H 383.882 -1.13359 -5.22546 0
M  V30 4003 H 384.225 0.205461 -4.15793 0
M  V30 4004 H 384.758 -1.43341 -3.71077 0
M  V30 4005 H 381.497 -4.06864 -5.13947 0
M  V30 4006 H 381.017 -2.3943 -5.49939 0
M  V30 4007 H 382.696 -2.92224 -5.77247 0
M  V30 4008 N 382.828 1.3818 -0.7579 0
M  V30 4009 C 383.738 2.3421 -0.135247 0
M  V30 4010 C 384.754 1.59487 0.695683 0
M  V30 4011 O 385.93 1.91657 0.618832 0
M  V30 4012 C 382.995 3.3862 0.744139 0
M  V30 4013 C 382.056 4.2918 -0.101658 0
M  V30 4014 C 381.289 5.28603 0.735851 0
M  V30 4015 O 381.512 5.35166 1.97366 0
M  V30 4016 O 380.446 6.01707 0.152372 0
M  V30 4017 H 384.272 2.8916 -0.928436 0
M  V30 4018 H 381.857 1.40101 -0.518855 0
M  V30 4019 H 383.739 4.02539 1.2466 0
M  V30 4020 H 382.414 2.86019 1.51575 0
M  V30 4021 H 381.321 3.68407 -0.650167 0
M  V30 4022 H 382.654 4.85048 -0.836024 0
M  V30 4023 N 384.306 0.507319 1.49211 0
M  V30 4024 C 385.536 -0.0315292 2.06576 0
M  V30 4025 C 385.944 -1.30791 1.36713 0
M  V30 4026 O 385.287 -1.78324 0.441181 0
M  V30 4027 C 385.349 -0.349104 3.57801 0
M  V30 4028 C 385.013 0.830475 4.49391 0
M  V30 4029 C 386.01 1.72271 4.90529 0
M  V30 4030 C 383.695 1.03107 4.91604 0
M  V30 4031 C 385.689 2.79964 5.72625 0
M  V30 4032 C 383.376 2.11116 5.73475 0
M  V30 4033 C 384.374 2.99379 6.1389 0
M  V30 4034 O 384.062 4.05523 6.94123 0
M  V30 4035 H 383.794 0.0201002 0.675701 0
M  V30 4036 H 386.348 0.705737 1.92895 0
M  V30 4037 H 384.578 -1.14005 3.69513 0
M  V30 4038 H 386.267 -0.827319 3.97379 0
M  V30 4039 H 387.033 1.57958 4.58557 0
M  V30 4040 H 382.912 0.353417 4.59643 0
M  V30 4041 H 386.456 3.48884 6.04091 0
M  V30 4042 H 382.353 2.25421 6.0486 0
M  V30 4043 H 383.121 4.02953 7.1244 0
M  V30 4044 N 385.784 -1.5574 0.241426 0
M  V30 4045 C 387.033 -1.97986 -0.385295 0
M  V30 4046 C 387.346 -1.13267 -1.59468 0
M  V30 4047 O 388.552 -1.45501 -2.2922 0
M  V30 4048 C 387.008 -3.52275 -0.736884 0
M  V30 4049 C 386.616 -4.45726 0.450796 0
M  V30 4050 C 388.36 -4.03189 -1.3281 0
M  V30 4051 C 386.267 -5.91352 0.0756662 0
M  V30 4052 H 385.197 -0.739386 -0.147731 0
M  V30 4053 H 387.848 -1.80308 0.340779 0
M  V30 4054 H 386.23 -3.65628 -1.52094 0
M  V30 4055 H 387.404 -4.44131 1.22819 0
M  V30 4056 H 385.719 -4.05264 0.956573 0
M  V30 4057 H 388.316 -5.09505 -1.62201 0
M  V30 4058 H 388.659 -3.50212 -2.25071 0
M  V30 4059 H 389.192 -3.93141 -0.607069 0
M  V30 4060 H 385.931 -6.48354 0.965272 0
M  V30 4061 H 385.451 -5.96095 -0.665635 0
M  V30 4062 H 387.13 -6.46084 -0.344075 0
M  V30 4063 N 387.262 0.0317525 -1.57568 0
M  V30 4064 C 388.673 0.578692 -1.77505 0
M  V30 4065 C 389.024 1.75749 -0.872164 0
M  V30 4066 O 388.149 2.16298 -0.0663106 0
M  V30 4067 C 388.744 1.05658 -3.21904 0
M  V30 4068 C 387.303 1.54906 -3.43047 0
M  V30 4069 C 386.45 0.485939 -2.73009 0
M  V30 4070 H 389.401 -0.194475 -1.57504 0
M  V30 4071 H 389.422 1.92404 -3.28269 0
M  V30 4072 H 388.934 0.198422 -3.87592 0
M  V30 4073 H 387.035 2.42915 -2.82529 0
M  V30 4074 H 387.148 1.59841 -4.5165 0
M  V30 4075 H 385.512 0.940354 -2.36705 0
M  V30 4076 H 386.295 -0.362709 -3.41379 0
M  V30 4077 N 388.74 1.54641 0.303973 0
M  V30 4078 C 389.987 1.7378 1.03955 0
M  V30 4079 C 390.315 0.521986 1.87365 0
M  V30 4080 O 389.57 -0.496099 1.89308 0
M  V30 4081 C 389.869 2.97753 1.97681 0
M  V30 4082 C 389.535 4.31671 1.30271 0
M  V30 4083 C 388.197 4.68075 1.11619 0
M  V30 4084 C 390.549 5.147 0.82055 0
M  V30 4085 C 387.877 5.8509 0.434304 0
M  V30 4086 C 390.229 6.32416 0.152395 0
M  V30 4087 C 388.893 6.67484 -0.0461067 0
M  V30 4088 H 388.163 0.635908 0.380398 0
M  V30 4089 H 390.81 1.88896 0.314718 0
M  V30 4090 H 389.115 2.77406 2.76682 0
M  V30 4091 H 390.812 3.09756 2.54661 0
M  V30 4092 H 387.402 4.03041 1.45795 0
M  V30 4093 H 391.586 4.87077 0.952374 0
M  V30 4094 H 386.842 6.10806 0.269495 0
M  V30 4095 H 391.016 6.96023 -0.229126 0
M  V30 4096 H 388.643 7.58011 -0.576494 0
M  V30 4097 N 390.218 -0.567019 1.47046 0
M  V30 4098 C 391.629 -1.14916 1.47143 0
M  V30 4099 C 391.98 -1.94954 0.220767 0
M  V30 4100 O 391.105 -2.05602 -0.67505 0
M  V30 4101 C 391.7 -2.09069 2.666 0
M  V30 4102 C 390.259 -2.62575 2.69687 0
M  V30 4103 C 389.406 -1.38755 2.40088 0
M  V30 4104 H 392.357 -0.354126 1.54699 0
M  V30 4105 H 392.378 -2.92789 2.43011 0
M  V30 4106 H 391.89 -1.50789 3.57609 0
M  V30 4107 H 389.991 -3.24681 1.82792 0
M  V30 4108 H 390.104 -3.04239 3.70102 0
M  V30 4109 H 388.468 -1.69098 1.90468 0
M  V30 4110 H 389.251 -0.822822 3.33293 0
M  V30 4111 N 391.696 -1.35014 -0.812953 0
M  V30 4112 C 392.973 -1.18502 -1.55617 0
M  V30 4113 C 393.353 0.238421 -2.09749 0
M  V30 4114 O 392.701 1.2411 -1.91857 0
M  V30 4115 C 392.911 -2.24783 -2.66971 0
M  V30 4116 C 394.259 -2.60268 -3.35478 0
M  V30 4117 O 395.283 -2.23648 -2.77236 0
M  V30 4118 O 394.142 -3.2321 -4.40678 0
M  V30 4119 H 391.236 -0.459984 -0.687272 0
M  V30 4120 H 393.782 -1.46677 -0.853464 0
M  V30 4121 H 392.554 -3.20284 -2.24798 0
M  V30 4122 H 392.177 -1.97841 -3.44884 0
M  V30 4123 N 393.175 1.03435 -1.18907 0
M  V30 4124 C 394.122 2.11591 -0.921837 0
M  V30 4125 C 395.092 1.65499 0.141226 0
M  V30 4126 O 396.277 1.908 0.000242829 0
M  V30 4127 C 393.417 3.42012 -0.460616 0
M  V30 4128 C 392.53 4.01682 -1.58982 0
M  V30 4129 C 391.665 5.20091 -1.08069 0
M  V30 4130 C 390.704 5.71805 -2.18416 0
M  V30 4131 N 389.841 6.81494 -1.68849 0
M  V30 4132 H 394.681 2.33787 -1.8479 0
M  V30 4133 H 392.218 1.1467 -0.921373 0
M  V30 4134 H 394.176 4.16834 -0.174642 0
M  V30 4135 H 392.806 3.19944 0.428467 0
M  V30 4136 H 391.858 3.24127 -1.99113 0
M  V30 4137 H 393.17 4.36084 -2.4214 0
M  V30 4138 H 392.324 6.02051 -0.749615 0
M  V30 4139 H 391.063 4.87209 -0.218771 0
M  V30 4140 H 390.068 4.88461 -2.5236 0
M  V30 4141 H 391.293 6.06728 -3.05054 0
M  V30 4142 H 389.239 6.50475 -0.849572 0
M  V30 4143 H 389.156 7.14994 -2.45601 0
M  V30 4144 H 390.424 7.67063 -1.38689 0
M  V30 4145 N 394.653 0.992116 1.22453 0
M  V30 4146 C 395.583 0.561677 2.26644 0
M  V30 4147 C 396.564 -0.411055 1.65059 0
M  V30 4148 O 397.749 -0.301861 1.9184 0
M  V30 4149 C 394.879 -0.125247 3.47074 0
M  V30 4150 C 393.833 0.765948 4.21091 0
M  V30 4151 C 393.159 -0.0538484 5.34673 0
M  V30 4152 C 394.459 2.06242 4.79856 0
M  V30 4153 H 396.153 1.43259 2.62902 0
M  V30 4154 H 393.699 0.690283 1.26377 0
M  V30 4155 H 395.652 -0.437764 4.1912 0
M  V30 4156 H 394.376 -1.03069 3.0991 0
M  V30 4157 H 393.035 1.0621 3.50878 0
M  V30 4158 H 392.683 -0.960188 4.9375 0
M  V30 4159 H 392.383 0.539415 5.85119 0
M  V30 4160 H 393.907 -0.360477 6.09535 0
M  V30 4161 H 395.321 1.8139 5.43848 0
M  V30 4162 H 393.718 2.60444 5.40638 0
M  V30 4163 H 394.788 2.74167 3.99951 0
M  V30 4164 N 396.131 -1.37776 0.765217 0
M  V30 4165 C 397.078 -2.30342 0.145274 0
M  V30 4166 C 398.048 -1.5077 -0.696971 0
M  V30 4167 O 399.233 -1.79362 -0.650689 0
M  V30 4168 C 396.373 -3.37227 -0.732939 0
M  V30 4169 C 395.486 -4.31819 0.125199 0
M  V30 4170 C 394.621 -5.25777 -0.757107 0
M  V30 4171 C 393.66 -6.12012 0.103963 0
M  V30 4172 N 392.797 -6.98232 -0.735953 0
M  V30 4173 H 397.637 -2.8278 0.940195 0
M  V30 4174 H 395.174 -1.39211 0.475255 0
M  V30 4175 H 397.132 -3.97818 -1.25686 0
M  V30 4176 H 395.762 -2.86171 -1.49353 0
M  V30 4177 H 394.814 -3.7259 0.766865 0
M  V30 4178 H 396.126 -4.92509 0.789683 0
M  V30 4179 H 395.28 -5.91541 -1.34776 0
M  V30 4180 H 394.019 -4.65481 -1.45529 0
M  V30 4181 H 393.024 -5.45233 0.707197 0
M  V30 4182 H 394.249 -6.74379 0.799381 0
M  V30 4183 H 392.195 -6.40472 -1.41887 0
M  V30 4184 H 392.112 -7.55891 -0.128624 0
M  V30 4185 H 393.38 -7.68393 -1.31121 0
M  V30 4186 N 397.609 -0.515225 -1.4894 0
M  V30 4187 C 398.857 0.0241671 -2.02086 0
M  V30 4188 C 399.178 1.3616 -1.3959 0
M  V30 4189 O 398.448 1.87841 -0.556121 0
M  V30 4190 H 397.028 0.0119203 -0.746905 0
M  V30 4191 H 399.69 -0.675702 -1.82812 0
M  V30 4192 H 398.786 0.143385 -3.1177 0
M  V30 4193 N 399.087 1.5561 -0.249682 0
M  V30 4194 C 400.503 1.59254 0.105103 0
M  V30 4195 C 400.703 1.26685 1.56694 0
M  V30 4196 O 399.759 1.0155 2.31179 0
M  V30 4197 C 401.072 2.99687 -0.246592 0
M  V30 4198 C 402.62 3.12416 -0.191118 0
M  V30 4199 C 403.095 4.55074 -0.516885 0
M  V30 4200 N 404.586 4.60835 -0.467489 0
M  V30 4201 C 405.321 5.69201 -0.69268 0
M  V30 4202 N 404.817 6.85817 -0.981146 0
M  V30 4203 N 406.61 5.58635 -0.623198 0
M  V30 4204 H 398.761 1.75049 -1.20298 0
M  V30 4205 H 401.024 0.815003 -0.484225 0
M  V30 4206 H 400.73 3.28267 -1.26228 0
M  V30 4207 H 400.604 3.74798 0.424962 0
M  V30 4208 H 402.991 2.83615 0.815247 0
M  V30 4209 H 403.072 2.39573 -0.896563 0
M  V30 4210 H 402.716 4.84596 -1.52082 0
M  V30 4211 H 402.646 5.26181 0.210068 0
M  V30 4212 H 405.137 3.7705 -0.253373 0
M  V30 4213 H 405.45 7.64341 -1.14032 0
M  V30 4214 H 403.795 6.87494 -1.01865 0
M  V30 4215 H 406.986 4.66406 -0.397863 0
M  V30 4216 H 407.159 6.43017 -0.802093 0
M  V30 4217 N 400.565 -0.0233959 1.57583 0
M  V30 4218 C 401.795 -0.723631 1.93513 0
M  V30 4219 C 402.203 -1.69115 0.848333 0
M  V30 4220 O 401.546 -1.82781 -0.183484 0
M  V30 4221 C 401.608 -1.53075 3.25282 0
M  V30 4222 C 401.272 -0.727388 4.51174 0
M  V30 4223 C 402.269 -0.0251924 5.19894 0
M  V30 4224 C 399.954 -0.680256 4.97672 0
M  V30 4225 C 401.948 0.713374 6.33395 0
M  V30 4226 C 399.635 0.0620523 6.11068 0
M  V30 4227 C 400.633 0.757622 6.78785 0
M  V30 4228 O 400.321 1.48787 7.90011 0
M  V30 4229 H 400.053 -0.208051 0.643188 0
M  V30 4230 H 402.607 0.0167489 2.05393 0
M  V30 4231 H 400.837 -2.31508 3.09744 0
M  V30 4232 H 402.526 -2.11413 3.46496 0
M  V30 4233 H 403.292 -0.0526003 4.84971 0
M  V30 4234 H 399.171 -1.21116 4.44805 0
M  V30 4235 H 402.715 1.25683 6.86185 0
M  V30 4236 H 398.612 0.0913634 6.45435 0
M  V30 4237 H 399.38 1.40213 8.06401 0
M  V30 4238 N 402.043 -1.548 -0.295768 0
M  V30 4239 C 402.975 -1.82492 -1.3867 0
M  V30 4240 C 403.988 -0.708134 -1.46592 0
M  V30 4241 O 405.177 -0.985686 -1.48817 0
M  V30 4242 C 402.277 -1.95256 -2.76999 0
M  V30 4243 C 401.45 -3.25709 -2.91946 0
M  V30 4244 C 400.509 -3.28824 -4.10806 0
M  V30 4245 O 399.535 -4.02328 -4.02643 0
M  V30 4246 N 400.737 -2.5459 -5.21694 0
M  V30 4247 H 403.502 -2.76646 -1.15269 0
M  V30 4248 H 401.063 -1.54438 -0.485849 0
M  V30 4249 H 403.055 -1.94736 -3.54768 0
M  V30 4250 H 401.625 -1.08072 -2.93324 0
M  V30 4251 H 400.845 -3.38959 -2.01247 0
M  V30 4252 H 402.133 -4.11786 -2.98847 0
M  V30 4253 H 401.531 -1.94512 -5.31208 0
M  V30 4254 H 400.088 -2.59818 -5.97778 0
M  V30 4255 N 403.521 0.559213 -1.47345 0
M  V30 4256 C 404.484 1.64854 -1.59235 0
M  V30 4257 C 405.484 1.53851 -0.467607 0
M  V30 4258 O 406.674 1.58045 -0.732617 0
M  V30 4259 C 403.806 3.04388 -1.53496 0
M  V30 4260 H 404.999 1.55662 -2.56339 0
M  V30 4261 H 402.552 0.778973 -1.35505 0
M  V30 4262 H 403.287 3.19115 -0.577604 0
M  V30 4263 H 403.072 3.13783 -2.35123 0
M  V30 4264 H 404.562 3.83642 -1.6495 0
M  V30 4265 N 404.999 1.35443 0.805782 0
M  V30 4266 C 406.246 1.28761 1.56291 0
M  V30 4267 C 406.574 -0.137747 1.94012 0
M  V30 4268 O 405.829 -1.1032 1.61642 0
M  V30 4269 C 406.128 2.14045 2.86216 0
M  V30 4270 C 405.794 3.62826 2.67709 0
M  V30 4271 C 404.456 4.0338 2.6237 0
M  V30 4272 C 406.808 4.57227 2.50186 0
M  V30 4273 C 404.136 5.36501 2.37451 0
M  V30 4274 C 406.488 5.90547 2.26797 0
M  V30 4275 C 405.152 6.30245 2.1988 0
M  V30 4276 H 404.422 0.471171 0.571908 0
M  V30 4277 H 407.069 1.67347 0.930974 0
M  V30 4278 H 405.374 1.68342 3.53791 0
M  V30 4279 H 407.071 2.0621 3.43917 0
M  V30 4280 H 403.661 3.30644 2.72713 0
M  V30 4281 H 407.845 4.2678 2.53323 0
M  V30 4282 H 403.101 5.66259 2.30567 0
M  V30 4283 H 407.275 6.63274 2.12228 0
M  V30 4284 H 404.902 7.33328 2.00333 0
M  V30 4285 N 406.477 -1.02803 1.19454 0
M  V30 4286 C 407.705 -1.79841 1.02297 0
M  V30 4287 C 408.12 -1.83879 -0.428259 0
M  V30 4288 O 407.477 -1.28345 -1.29745 0
M  V30 4289 C 407.528 -3.24852 1.58598 0
M  V30 4290 O 407.249 -3.21097 2.98041 0
M  V30 4291 C 408.75 -4.18485 1.46236 0
M  V30 4292 H 405.97 -0.565936 0.360496 0
M  V30 4293 H 408.514 -1.2948 1.58288 0
M  V30 4294 H 406.669 -3.72401 1.06753 0
M  V30 4295 H 407.083 -4.12033 3.24545 0
M  V30 4296 H 408.557 -5.18121 1.90407 0
M  V30 4297 H 409.034 -4.37254 0.41301 0
M  V30 4298 H 409.64 -3.76811 1.97215 0
M  V30 4299 N 407.956 -0.998596 -1.21925 0
M  V30 4300 C 408.888 -0.511879 -2.23411 0
M  V30 4301 C 409.901 0.396094 -1.57908 0
M  V30 4302 O 411.09 0.197316 -1.77406 0
M  V30 4303 C 408.19 0.276802 -3.37768 0
M  V30 4304 C 407.363 -0.628687 -4.32858 0
M  V30 4305 C 406.422 0.109272 -5.26087 0
M  V30 4306 O 405.448 -0.507237 -5.66935 0
M  V30 4307 N 406.65 1.38983 -5.63617 0
M  V30 4308 H 409.415 -1.38457 -2.658 0
M  V30 4309 H 406.976 -0.873981 -1.36283 0
M  V30 4310 H 408.968 0.77928 -3.97126 0
M  V30 4311 H 407.538 1.05063 -2.94415 0
M  V30 4312 H 406.758 -1.31175 -3.71735 0
M  V30 4313 H 408.046 -1.24514 -4.93329 0
M  V30 4314 H 407.444 1.91194 -5.32411 0
M  V30 4315 H 406.001 1.83739 -6.25367 0
M  V30 4316 N 409.434 1.37368 -0.772513 0
M  V30 4317 C 410.397 2.28601 -0.165541 0
M  V30 4318 C 411.397 1.48062 0.627238 0
M  V30 4319 O 412.587 1.68268 0.450715 0
M  V30 4320 C 409.719 3.32023 0.772897 0
M  V30 4321 H 410.912 2.83787 -0.969787 0
M  V30 4322 H 408.465 1.46647 -0.540775 0
M  V30 4323 H 409.2 2.81962 1.60212 0
M  V30 4324 H 408.985 3.91555 0.206585 0
M  V30 4325 H 410.475 4.00197 1.19298 0
M  V30 4326 N 410.912 0.523116 1.48665 0
M  V30 4327 C 412.189 -0.0775449 1.95446 0
M  V30 4328 C 412.569 -1.5197 1.4652 0
M  V30 4329 O 411.917 -2.17876 0.688657 0
M  V30 4330 C 412.127 0.0326135 3.48985 0
M  V30 4331 C 413.475 -0.130141 4.24401 0
M  V30 4332 O 414.499 -0.0415142 3.56176 0
M  V30 4333 O 413.358 -0.31491 5.45592 0
M  V30 4334 H 410.452 -0.0831012 0.822814 0
M  V30 4335 H 412.998 0.587227 1.59216 0
M  V30 4336 H 411.77 1.03748 3.77296 0
M  V30 4337 H 411.393 -0.671317 3.91892 0
M  V30 4338 N 412.39 -1.55475 0.257931 0
M  V30 4339 C 413.32 -2.24815 -0.630912 0
M  V30 4340 C 414.301 -1.23224 -1.17259 0
M  V30 4341 O 415.486 -1.51904 -1.20991 0
M  V30 4342 C 412.616 -2.95609 -1.82298 0
M  V30 4343 C 411.57 -4.03982 -1.41359 0
M  V30 4344 C 410.896 -4.6226 -2.68738 0
M  V30 4345 C 412.196 -5.19109 -0.57648 0
M  V30 4346 H 413.89 -2.99354 -0.0526878 0
M  V30 4347 H 411.436 -1.4398 -0.023901 0
M  V30 4348 H 413.389 -3.42822 -2.45054 0
M  V30 4349 H 412.113 -2.18577 -2.42676 0
M  V30 4350 H 410.772 -3.57555 -0.809324 0
M  V30 4351 H 410.42 -3.81915 -3.27338 0
M  V30 4352 H 410.12 -5.35424 -2.42065 0
M  V30 4353 H 411.644 -5.12212 -3.32372 0
M  V30 4354 H 413.058 -5.62479 -1.10861 0
M  V30 4355 H 411.455 -5.98729 -0.405351 0
M  V30 4356 H 412.525 -4.83174 0.408776 0
M  V30 4357 N 413.868 0.0150385 -1.57593 0
M  V30 4358 C 415.096 0.714395 -1.94175 0
M  V30 4359 C 415.511 1.68135 -0.858841 0
M  V30 4360 O 414.868 1.81766 0.163567 0
M  V30 4361 C 414.919 1.45933 -3.30735 0
M  V30 4362 O 414.64 0.531167 -4.34868 0
M  V30 4363 C 416.141 2.25456 -3.81686 0
M  V30 4364 H 413.361 0.199923 -0.640525 0
M  V30 4365 H 415.905 -0.0316096 -2.04476 0
M  V30 4366 H 414.06 2.15709 -3.21789 0
M  V30 4367 H 414.474 1.05509 -5.13778 0
M  V30 4368 H 415.948 2.731 -4.79709 0
M  V30 4369 H 416.425 3.07485 -3.13607 0
M  V30 4370 H 417.031 1.60727 -3.9376 0
M  V30 4371 N 415.346 1.54954 0.287554 0
M  V30 4372 C 416.294 1.87606 1.37502 0
M  V30 4373 C 417.288 0.751001 1.51843 0
M  V30 4374 O 418.494 0.935169 1.53801 0
M  V30 4375 H 414.869 0.595231 0.459569 0
M  V30 4376 H 416.84 2.78477 1.07206 0
M  V30 4377 C 415.589 2.15183 2.73115 0
M  V30 4378 H 414.912 3.01234 2.62866 0
M  V30 4379 H 416.352 2.4196 3.48183 0
M  V30 4380 C 414.811 0.954686 3.2309 0
M  V30 4381 O 415.341 0.181949 4.01288 0
M  V30 4382 N 413.547 0.756368 2.80584 0
M  V30 4383 H 413.094 1.38643 2.17108 0
M  V30 4384 H 413.052 -0.0430391 3.14371 0
M  V30 4385 N 416.824 -0.551391 1.4764 0
M  V30 4386 C 417.754 -1.66757 1.63445 0
M  V30 4387 C 418.735 -1.63077 0.483742 0
M  V30 4388 O 419.92 -1.80607 0.71377 0
M  V30 4389 C 417.05 -3.05387 1.65396 0
M  V30 4390 C 416.004 -3.23918 2.79752 0
M  V30 4391 C 415.33 -4.63393 2.66779 0
M  V30 4392 C 416.63 -3.08735 4.21284 0
M  V30 4393 H 418.324 -1.53786 2.56886 0
M  V30 4394 H 415.87 -0.738415 1.23626 0
M  V30 4395 H 417.823 -3.83325 1.75043 0
M  V30 4396 H 416.547 -3.19332 0.685195 0
M  V30 4397 H 415.206 -2.48391 2.69625 0
M  V30 4398 H 414.854 -4.74144 1.67918 0
M  V30 4399 H 414.554 -4.7674 3.43501 0
M  V30 4400 H 416.078 -5.43458 2.78364 0
M  V30 4401 H 417.492 -3.76484 4.32357 0
M  V30 4402 H 415.889 -3.33588 4.98838 0
M  V30 4403 H 416.959 -2.0541 4.39243 0
M  V30 4404 N 418.302 -1.35869 -0.798587 0
M  V30 4405 C 419.718 -1.16082 -1.09532 0
M  V30 4406 C 419.918 0.0213124 -2.01489 0
M  V30 4407 O 418.974 0.689488 -2.42904 0
M  V30 4408 C 420.287 -2.46748 -1.7186 0
M  V30 4409 C 421.835 -2.53028 -1.84244 0
M  V30 4410 C 422.31 -3.83758 -2.49988 0
M  V30 4411 N 423.801 -3.85053 -2.57465 0
M  V30 4412 C 424.536 -4.8294 -3.09122 0
M  V30 4413 N 424.032 -5.91217 -3.61157 0
M  V30 4414 N 425.825 -4.70369 -3.0775 0
M  V30 4415 H 417.976 -2.11571 -0.187461 0
M  V30 4416 H 420.239 -0.936726 -0.145765 0
M  V30 4417 H 419.945 -3.33471 -1.11759 0
M  V30 4418 H 419.819 -2.61883 -2.71472 0
M  V30 4419 H 422.206 -1.66729 -2.43486 0
M  V30 4420 H 422.287 -2.418 -0.834643 0
M  V30 4421 H 421.931 -4.70459 -1.91393 0
M  V30 4422 H 421.861 -3.92278 -3.5132 0
M  V30 4423 H 424.352 -3.06822 -2.20609 0
M  V30 4424 H 424.665 -6.61892 -3.98896 0
M  V30 4425 H 423.01 -5.94899 -3.59333 0
M  V30 4426 H 426.201 -3.84914 -2.66381 0
M  V30 4427 H 426.374 -5.46816 -3.47701 0
M  V30 4428 N 419.78 1.02168 -1.19998 0
M  V30 4429 C 420.743 2.08765 -0.94604 0
M  V30 4430 C 421.743 1.60618 0.0763846 0
M  V30 4431 O 422.933 1.73472 -0.159135 0
M  V30 4432 C 420.065 3.38262 -0.423255 0
M  V30 4433 H 421.258 2.32726 -1.89153 0
M  V30 4434 H 418.811 1.1889 -1.01464 0
M  V30 4435 H 419.546 3.19974 0.527938 0
M  V30 4436 H 419.331 3.74532 -1.16053 0
M  V30 4437 H 420.821 4.16759 -0.264911 0
M  V30 4438 N 421.258 1.00505 1.21394 0
M  V30 4439 C 422.221 0.570459 2.21987 0
M  V30 4440 C 423.221 -0.353211 1.56873 0
M  V30 4441 O 424.411 -0.14349 1.73608 0
M  V30 4442 C 421.543 -0.168555 3.40483 0
M  V30 4443 H 422.736 1.46021 2.6195 0
M  V30 4444 H 420.289 0.793565 1.34656 0
M  V30 4445 H 421.024 -1.07374 3.06009 0
M  V30 4446 H 420.809 0.494823 3.88965 0
M  V30 4447 H 422.299 -0.460362 4.15055 0
M  V30 4448 N 422.737 -1.36956 0.779787 0
M  V30 4449 C 423.985 -1.99097 0.347079 0
M  V30 4450 C 424.306 -1.62206 -1.08232 0
M  V30 4451 O 423.576 -0.891373 -1.74446 0
M  V30 4452 H 422.156 -0.736409 0.125342 0
M  V30 4453 H 424.818 -1.67308 0.999696 0
M  V30 4454 H 423.914 -3.09107 0.431162 0
M  V30 4455 N 424.215 -0.530993 -1.48385 0
M  V30 4456 C 425.445 -0.00133928 -2.066 0
M  V30 4457 C 425.853 1.28599 -1.38777 0
M  V30 4458 O 425.196 1.77599 -0.469495 0
M  V30 4459 C 425.258 0.292137 -3.58311 0
M  V30 4460 C 424.922 -0.901864 -4.48013 0
M  V30 4461 C 425.919 -1.80053 -4.87726 0
M  V30 4462 C 423.604 -1.10915 -4.89901 0
M  V30 4463 C 425.598 -2.89038 -5.68098 0
M  V30 4464 C 423.285 -2.20213 -5.70043 0
M  V30 4465 C 424.283 -3.09107 -6.0905 0
M  V30 4466 O 423.971 -4.16514 -6.87583 0
M  V30 4467 H 423.703 -0.0308475 -0.675296 0
M  V30 4468 H 426.257 -0.736335 -1.91748 0
M  V30 4469 H 424.487 1.08112 -3.7128 0
M  V30 4470 H 426.176 0.763994 -3.98645 0
M  V30 4471 H 426.942 -1.65234 -4.55986 0
M  V30 4472 H 422.821 -0.426498 -4.59023 0
M  V30 4473 H 426.365 -3.58451 -5.98464 0
M  V30 4474 H 422.262 -2.35016 -6.01197 0
M  V30 4475 H 423.03 -4.14237 -7.05939 0
M  V30 4476 N 425.693 1.55336 -0.266172 0
M  V30 4477 C 426.97 1.91372 0.404486 0
M  V30 4478 C 427.35 1.18935 1.74407 0
M  V30 4479 O 426.698 0.3132 2.26343 0
M  V30 4480 C 426.908 3.44581 0.553593 0
M  V30 4481 C 428.256 4.16196 0.840618 0
M  V30 4482 O 429.28 3.50426 0.638739 0
M  V30 4483 O 428.139 5.32567 1.22618 0
M  V30 4484 H 425.233 0.797194 0.220025 0
M  V30 4485 H 427.779 1.66813 -0.311664 0
M  V30 4486 H 426.551 3.89357 -0.389498 0
M  V30 4487 H 426.174 3.75065 1.31955 0
M  V30 4488 N 427.171 -0.0066808 1.57599 0
M  V30 4489 C 428.118 -1.00024 2.08 0
M  V30 4490 C 429.088 -1.34549 0.973943 0
M  V30 4491 O 430.273 -1.44502 1.24595 0
M  V30 4492 C 427.413 -2.2891 2.58252 0
M  V30 4493 C 426.526 -2.00346 3.82734 0
M  V30 4494 C 425.661 -3.23265 4.21513 0
M  V30 4495 C 424.7 -2.90357 5.3885 0
M  V30 4496 N 423.837 -4.05793 5.72954 0
M  V30 4497 H 428.677 -0.563499 2.92624 0
M  V30 4498 H 426.214 -0.266592 1.44664 0
M  V30 4499 H 428.172 -3.04247 2.85464 0
M  V30 4500 H 426.802 -2.70265 1.76512 0
M  V30 4501 H 425.854 -1.15406 3.62471 0
M  V30 4502 H 427.166 -1.72086 4.68175 0
M  V30 4503 H 426.32 -4.06953 4.49971 0
M  V30 4504 H 425.059 -3.54657 3.34768 0
M  V30 4505 H 424.064 -2.05075 5.10122 0
M  V30 4506 H 425.289 -2.60219 6.27266 0
M  V30 4507 H 423.235 -4.37094 4.89167 0
M  V30 4508 H 423.152 -3.81034 6.52954 0
M  V30 4509 H 424.42 -4.90289 6.06001 0
M  V30 4510 N 428.649 -1.55105 -0.279332 0
M  V30 4511 C 430.06 -1.66186 -0.850832 0
M  V30 4512 C 430.411 -0.584707 -1.87285 0
M  V30 4513 O 429.536 0.274919 -2.14647 0
M  V30 4514 C 430.131 -3.01264 -1.55001 0
M  V30 4515 C 428.69 -3.14394 -2.06963 0
M  V30 4516 C 427.837 -2.61959 -0.909536 0
M  V30 4517 H 430.788 -1.58602 -0.0558235 0
M  V30 4518 H 430.809 -2.93899 -2.41669 0
M  V30 4519 H 430.321 -3.7964 -0.805931 0
M  V30 4520 H 428.422 -2.4078 -2.84352 0
M  V30 4521 H 428.535 -4.20867 -2.28928 0
M  V30 4522 H 426.899 -2.18957 -1.30116 0
M  V30 4523 H 427.682 -3.42833 -0.179062 0
M  V30 4524 N 430.127 0.543554 -1.4793 0
M  V30 4525 C 431.374 1.30008 -1.55255 0
M  V30 4526 C 431.702 1.93245 -0.220612 0
M  V30 4527 O 430.957 1.79141 0.787843 0
M  V30 4528 C 431.256 2.42078 -2.62932 0
M  V30 4529 C 430.922 1.96583 -4.0579 0
M  V30 4530 C 429.584 1.83893 -4.44676 0
M  V30 4531 C 431.936 1.62034 -4.95373 0
M  V30 4532 C 429.264 1.34969 -5.70964 0
M  V30 4533 C 431.616 1.14577 -6.22137 0
M  V30 4534 C 430.28 1.00493 -6.59892 0
M  V30 4535 H 429.55 0.475735 -0.568117 0
M  V30 4536 H 432.197 0.608075 -1.81589 0
M  V30 4537 H 430.502 3.16892 -2.30406 0
M  V30 4538 H 432.199 3.00236 -2.65818 0
M  V30 4539 H 428.789 2.07407 -3.75074 0
M  V30 4540 H 432.973 1.70705 -4.66019 0
M  V30 4541 H 428.229 1.2274 -5.98953 0
M  V30 4542 H 432.403 0.869109 -6.90955 0
M  V30 4543 H 430.03 0.623624 -7.57638 0
M  V30 4544 N 431.605 1.3629 0.791371 0
M  V30 4545 C 432.552 1.30458 1.90393 0
M  V30 4546 C 433.522 0.173632 1.6519 0
M  V30 4547 O 434.707 0.35983 1.87376 0
M  V30 4548 C 431.847 1.09777 3.27174 0
M  V30 4549 C 430.96 2.31929 3.64462 0
M  V30 4550 C 430.095 2.04276 4.90352 0
M  V30 4551 C 429.134 3.224 5.20312 0
M  V30 4552 N 428.271 2.94424 6.37385 0
M  V30 4553 H 433.111 2.25589 1.94714 0
M  V30 4554 H 430.648 1.12122 0.952216 0
M  V30 4555 H 432.606 0.958133 4.06049 0
M  V30 4556 H 431.236 0.183014 3.22281 0
M  V30 4557 H 430.288 2.56703 2.80727 0
M  V30 4558 H 431.6 3.20085 3.82553 0
M  V30 4559 H 430.754 1.87231 5.77087 0
M  V30 4560 H 429.493 1.13428 4.74326 0
M  V30 4561 H 428.498 3.40005 4.32061 0
M  V30 4562 H 429.723 4.14071 5.38258 0
M  V30 4563 H 427.669 2.06185 6.22755 0
M  V30 4564 H 427.586 3.76118 6.55798 0
M  V30 4565 H 428.854 2.80953 7.27108 0
M  V30 4566 N 433.083 -1.0153 1.20538 0
M  V30 4567 C 434.311 -1.78746 1.04199 0
M  V30 4568 C 434.726 -1.84323 -0.408733 0
M  V30 4569 O 434.083 -1.29714 -1.28377 0
M  V30 4570 C 434.134 -3.23152 1.62035 0
M  V30 4571 O 433.855 -3.17918 3.0143 0
M  V30 4572 C 435.356 -4.16911 1.50666 0
M  V30 4573 H 432.576 -0.56208 0.366479 0
M  V30 4574 H 435.12 -1.27794 1.59653 0
M  V30 4575 H 433.275 -3.71248 1.10697 0
M  V30 4576 H 433.689 -4.08567 3.28897 0
M  V30 4577 H 435.163 -5.16072 1.95892 0
M  V30 4578 H 435.64 -4.36791 0.459363 0
M  V30 4579 H 436.246 -3.74698 2.01201 0
M  V30 4580 N 434.561 -1.01147 -1.20859 0
M  V30 4581 C 435.807 -0.698899 -1.90377 0
M  V30 4582 C 436.14 0.76904 -1.78324 0
M  V30 4583 O 435.415 1.55817 -1.16409 0
M  V30 4584 C 435.698 -1.12878 -3.41951 0
M  V30 4585 C 435.551 -2.65665 -3.62963 0
M  V30 4586 C 436.87 -0.696114 -4.3456 0
M  V30 4587 H 433.989 -0.255372 -0.691342 0
M  V30 4588 H 436.631 -1.25831 -1.42361 0
M  V30 4589 H 434.781 -0.652827 -3.82976 0
M  V30 4590 H 436.453 -3.21074 -3.31224 0
M  V30 4591 H 434.696 -3.06878 -3.06608 0
M  V30 4592 H 435.367 -2.90797 -4.69192 0
M  V30 4593 H 437.843 -1.10521 -4.01154 0
M  V30 4594 H 436.719 -1.025 -5.39245 0
M  V30 4595 H 436.98 0.402465 -4.40264 0
M  V30 4596 N 436.039 1.36541 -0.78704 0
M  V30 4597 C 437.002 2.28413 -0.189778 0
M  V30 4598 C 438.002 1.48719 0.611499 0
M  V30 4599 O 439.192 1.68737 0.432842 0
M  V30 4600 C 436.324 3.32824 0.737638 0
M  V30 4601 H 437.517 2.82743 -0.999831 0
M  V30 4602 H 435.07 1.46065 -0.556298 0
M  V30 4603 H 435.805 2.83646 1.57212 0
M  V30 4604 H 435.59 3.91752 0.165044 0
M  V30 4605 H 437.08 4.0144 1.15047 0
M  V30 4606 N 437.518 0.538854 1.48102 0
M  V30 4607 C 438.428 -0.222648 2.33541 0
M  V30 4608 C 439.444 -0.930225 1.47047 0
M  V30 4609 O 440.62 -0.903211 1.80011 0
M  V30 4610 C 437.685 -1.25064 3.23357 0
M  V30 4611 C 436.746 -0.552469 4.2573 0
M  V30 4612 C 435.979 -1.53149 5.11254 0
M  V30 4613 O 436.202 -2.76487 4.9891 0
M  V30 4614 O 435.136 -1.06602 5.92385 0
M  V30 4615 H 438.962 0.477707 2.99919 0
M  V30 4616 H 436.547 0.299669 1.46364 0
M  V30 4617 H 438.429 -1.8445 3.78888 0
M  V30 4618 H 437.104 -1.93325 2.59629 0
M  V30 4619 H 436.011 0.082114 3.7401 0
M  V30 4620 H 437.344 0.0883526 4.92121 0
M  V30 4621 N 438.996 -1.55193 0.274407 0
M  V30 4622 C 440.244 -1.99187 -0.341902 0
M  V30 4623 C 440.565 -1.16422 -1.56431 0
M  V30 4624 O 439.835 -0.253573 -1.94252 0
M  V30 4625 H 438.415 -0.735721 -0.129317 0
M  V30 4626 H 441.077 -1.91168 0.379578 0
M  V30 4627 H 440.173 -3.05629 -0.632253 0
M  V30 4628 N 440.474 -0.00167713 -1.576 0
M  V30 4629 C 441.72 0.683832 -1.90923 0
M  V30 4630 C 442.053 1.7333 -0.875799 0
M  V30 4631 O 441.328 1.94215 0.10525 0
M  V30 4632 C 441.611 1.32543 -3.3482 0
M  V30 4633 C 441.464 0.287387 -4.48881 0
M  V30 4634 C 442.783 2.25114 -3.78169 0
M  V30 4635 H 439.902 0.247125 -0.694333 0
M  V30 4636 H 442.544 -0.0533149 -1.89925 0
M  V30 4637 H 440.694 1.95372 -3.35801 0
M  V30 4638 H 442.366 -0.341346 -4.60035 0
M  V30 4639 H 440.609 -0.39017 -4.32042 0
M  V30 4640 H 441.28 0.775393 -5.46527 0
M  V30 4641 H 443.756 1.723 -3.7875 0
M  V30 4642 H 442.632 2.66971 -4.79602 0
M  V30 4643 H 442.893 3.13092 -3.12131 0
M  V30 4644 N 441.952 1.55251 0.271103 0
M  V30 4645 C 443.18 1.79974 1.02064 0
M  V30 4646 C 443.595 0.574003 1.79863 0
M  V30 4647 O 442.952 -0.456962 1.76686 0
M  V30 4648 C 443.003 3.02603 1.97772 0
M  V30 4649 O 442.724 4.20443 1.23124 0
M  V30 4650 C 444.225 3.39944 2.84522 0
M  V30 4651 H 441.445 0.599489 0.301419 0
M  V30 4652 H 443.989 2.02268 0.301313 0
M  V30 4653 H 442.144 2.8243 2.65165 0
M  V30 4654 H 442.558 4.89783 1.87651 0
M  V30 4655 H 444.032 4.28915 3.47471 0
M  V30 4656 H 444.509 2.59432 3.54389 0
M  V30 4657 H 445.115 3.62383 2.22618 0
M  V30 4658 N 443.43 -0.535701 1.48216 0
M  V30 4659 C 444.34 -1.66785 1.64985 0
M  V30 4660 C 445.356 -1.65654 0.532414 0
M  V30 4661 O 446.532 -1.8471 0.80275 0
M  V30 4662 C 443.597 -3.0326 1.68031 0
M  V30 4663 C 442.658 -3.1529 2.9136 0
M  V30 4664 C 441.891 -4.45255 2.94252 0
M  V30 4665 O 442.114 -5.32011 2.05719 0
M  V30 4666 O 441.048 -4.6153 3.86359 0
M  V30 4667 H 444.874 -1.55576 2.60825 0
M  V30 4668 H 442.459 -0.70815 1.31551 0
M  V30 4669 H 444.341 -3.84436 1.72589 0
M  V30 4670 H 443.016 -3.14805 0.753628 0
M  V30 4671 H 441.923 -2.3343 2.92337 0
M  V30 4672 H 443.256 -3.08658 3.83394 0
M  V30 4673 N 444.908 -1.36708 -0.784132 0
M  V30 4674 C 446.138 -1.34203 -1.57077 0
M  V30 4675 C 446.546 0.0774945 -1.89041 0
M  V30 4676 O 445.889 1.04628 -1.50992 0
M  V30 4677 C 445.951 -2.10351 -2.91535 0
M  V30 4678 C 445.615 -3.59405 -2.82272 0
M  V30 4679 C 446.612 -4.53545 -2.54151 0
M  V30 4680 C 444.297 -4.02362 -3.00683 0
M  V30 4681 C 446.291 -5.8862 -2.44551 0
M  V30 4682 C 443.978 -5.37526 -2.90704 0
M  V30 4683 C 444.976 -6.30468 -2.62677 0
M  V30 4684 O 444.664 -7.63149 -2.52702 0
M  V30 4685 H 444.396 -0.461791 -0.493685 0
M  V30 4686 H 446.95 -1.80475 -0.980712 0
M  V30 4687 H 445.18 -1.5875 -3.52612 0
M  V30 4688 H 446.869 -2.00636 -3.52845 0
M  V30 4689 H 447.635 -4.21669 -2.39625 0
M  V30 4690 H 443.514 -3.30389 -3.21503 0
M  V30 4691 H 447.058 -6.61133 -2.22596 0
M  V30 4692 H 442.955 -5.69008 -3.04795 0
M  V30 4693 H 443.723 -7.73331 -2.68144 0
M  V30 4694 N 446.386 1.0089 -1.21074 0
M  V30 4695 C 447.319 2.09279 -0.909806 0
M  V30 4696 C 448.297 1.61986 0.141145 0
M  V30 4697 O 449.481 1.88495 0.0130332 0
M  V30 4698 C 446.608 3.36723 -0.365374 0
M  V30 4699 C 445.654 4.02919 -1.39852 0
M  V30 4700 S 446.487 4.45835 -2.96633 0
M  V30 4701 C 447.643 5.76471 -2.43786 0
M  V30 4702 H 447.876 2.34484 -1.82769 0
M  V30 4703 H 445.409 1.14115 -1.04006 0
M  V30 4704 H 447.367 4.10459 -0.0578203 0
M  V30 4705 H 446.028 3.09577 0.531136 0
M  V30 4706 H 445.221 4.94634 -0.967117 0
M  V30 4707 H 444.823 3.35441 -1.65395 0
M  V30 4708 H 447.115 6.52027 -1.84029 0
M  V30 4709 H 448.058 6.24418 -3.33928 0
M  V30 4710 H 448.466 5.33104 -1.85636 0
M  V30 4711 N 447.864 1.01787 1.20321 0
M  V30 4712 C 448.827 0.593972 2.2137 0
M  V30 4713 C 449.827 -0.336553 1.57239 0
M  V30 4714 O 451.017 -0.125069 1.7375 0
M  V30 4715 C 448.149 -0.132433 3.40643 0
M  V30 4716 H 449.342 1.48791 2.60387 0
M  V30 4717 H 446.895 0.807803 1.33807 0
M  V30 4718 H 447.63 -1.04123 3.0713 0
M  V30 4719 H 447.415 0.53605 3.88418 0
M  V30 4720 H 448.905 -0.416314 4.1552 0
M  V30 4721 N 449.342 -1.36122 0.79427 0
M  V30 4722 C 450.588 -1.99846 0.378542 0
M  V30 4723 C 450.943 -1.61898 -1.03955 0
M  V30 4724 O 450.236 -0.866013 -1.70912 0
M  V30 4725 C 450.43 -3.5409 0.48527 0
M  V30 4726 C 450.259 -4.0702 1.91219 0
M  V30 4727 C 449.029 -4.36944 2.53787 0
M  V30 4728 C 451.227 -4.26435 2.87502 0
M  V30 4729 N 449.209 -4.75727 3.88017 0
M  V30 4730 C 450.58 -4.68077 4.06576 0
M  V30 4731 C 452.635 -4.08616 2.84495 0
M  V30 4732 C 451.338 -4.93765 5.23057 0
M  V30 4733 C 453.364 -4.35453 4.00169 0
M  V30 4734 C 452.726 -4.77355 5.17988 0
M  V30 4735 H 448.825 -0.759549 0.186034 0
M  V30 4736 H 451.409 -1.65043 1.0329 0
M  V30 4737 H 449.58 -3.88151 -0.139023 0
M  V30 4738 H 451.312 -4.04675 0.0453192 0
M  V30 4739 H 448.067 -4.26822 2.05231 0
M  V30 4740 H 448.491 -4.99396 4.57092 0
M  V30 4741 H 453.133 -3.75373 1.94564 0
M  V30 4742 H 450.851 -5.25887 6.1357 0
M  V30 4743 H 454.437 -4.2323 3.99208 0
M  V30 4744 H 453.317 -4.97718 6.06008 0
M  V30 4745 N 450.82 -0.546701 -1.47814 0
M  V30 4746 C 451.75 0.195317 -2.32682 0
M  V30 4747 C 452.731 0.918981 -1.43139 0
M  V30 4748 O 453.916 0.901501 -1.72008 0
M  V30 4749 C 451.046 1.23237 -3.247 0
M  V30 4750 C 450 0.625818 -4.234 0
M  V30 4751 C 449.326 1.76674 -5.04669 0
M  V30 4752 C 450.626 -0.413515 -5.2066 0
M  V30 4753 H 452.32 -0.513184 -2.94969 0
M  V30 4754 H 449.866 -0.248241 -1.41844 0
M  V30 4755 H 451.819 1.75955 -3.82907 0
M  V30 4756 H 450.543 1.97067 -2.60446 0
M  V30 4757 H 449.202 0.120023 -3.66403 0
M  V30 4758 H 448.85 2.49383 -4.36826 0
M  V30 4759 H 448.55 1.36673 -5.71484 0
M  V30 4760 H 450.074 2.29738 -5.65732 0
M  V30 4761 H 451.488 0.0272042 -5.73294 0
M  V30 4762 H 449.885 -0.731825 -5.95621 0
M  V30 4763 H 450.955 -1.31325 -4.66778 0
M  V30 4764 N 452.299 1.55045 -0.282633 0
M  V30 4765 C 453.247 2.24254 0.617478 0
M  V30 4766 C 454.241 1.24215 1.15183 0
M  V30 4767 O 455.447 1.42123 1.10459 0
M  V30 4768 H 451.822 0.719801 0.217693 0
M  V30 4769 H 453.793 2.98398 0.0110076 0
M  V30 4770 C 452.542 2.98281 1.78672 0
M  V30 4771 H 451.865 3.75053 1.38475 0
M  V30 4772 H 453.305 3.50017 2.393 0
M  V30 4773 C 451.764 2.04184 2.67975 0
M  V30 4774 O 452.294 1.59792 3.6855 0
M  V30 4775 N 450.5 1.70526 2.35307 0
M  V30 4776 H 450.047 2.06821 1.53567 0
M  V30 4777 H 450.005 1.07839 2.95327 0
M  V30 4778 N 453.777 0.010035 1.57597 0
M  V30 4779 C 455.193 -0.346164 1.55801 0
M  V30 4780 C 455.393 -1.74144 1.01371 0
M  V30 4781 O 454.449 -2.43938 0.651968 0
M  V30 4782 C 455.762 -0.212216 2.9995 0
M  V30 4783 C 457.31 -0.286409 3.11687 0
M  V30 4784 C 457.785 -0.18147 4.5764 0
M  V30 4785 N 459.276 -0.239056 4.62583 0
M  V30 4786 C 460.011 -0.181351 5.73113 0
M  V30 4787 N 459.507 -0.073661 6.92761 0
M  V30 4788 N 461.3 -0.233949 5.61613 0
M  V30 4789 H 453.451 0.922657 1.91313 0
M  V30 4790 H 455.714 0.354595 0.879185 0
M  V30 4791 H 455.42 0.748169 3.4365 0
M  V30 4792 H 455.294 -0.990224 3.6397 0
M  V30 4793 H 457.681 -1.23724 2.67911 0
M  V30 4794 H 457.762 0.521645 2.50425 0
M  V30 4795 H 457.406 0.765863 5.02093 0
M  V30 4796 H 457.336 -1.00814 5.1686 0
M  V30 4797 H 459.827 -0.32321 3.76515 0
M  V30 4798 H 460.14 -0.0358003 7.72792 0
M  V30 4799 H 458.485 -0.0391461 6.94989 0
M  V30 4800 H 461.676 -0.316347 4.6703 0
M  V30 4801 H 461.849 -0.185514 6.47734 0
M  V30 4802 N 455.255 -1.55392 -0.262866 0
M  V30 4803 C 456.532 -1.67204 -1.01499 0
M  V30 4804 C 456.912 -0.545186 -2.03939 0
M  V30 4805 O 456.26 0.453467 -2.23955 0
M  V30 4806 C 456.47 -3.06847 -1.6627 0
M  V30 4807 C 457.818 -3.64928 -2.17054 0
M  V30 4808 O 458.842 -3.09545 -1.76239 0
M  V30 4809 O 457.701 -4.61984 -2.91947 0
M  V30 4810 H 454.795 -0.679467 -0.471438 0
M  V30 4811 H 457.341 -1.67729 -0.257918 0
M  V30 4812 H 456.113 -3.80309 -0.920915 0
M  V30 4813 H 455.736 -3.10266 -2.48638 0
M  V30 4814 N 456.733 0.527833 -1.48498 0
M  V30 4815 C 457.696 1.61439 -1.62696 0
M  V30 4816 C 458.696 1.52824 -0.500136 0
M  V30 4817 O 459.886 1.56456 -0.765976 0
M  V30 4818 C 457.018 3.01063 -1.59918 0
M  V30 4819 H 458.211 1.50189 -2.59583 0
M  V30 4820 H 455.764 0.750055 -1.37127 0
M  V30 4821 H 456.499 3.17818 -0.645163 0
M  V30 4822 H 456.284 3.08725 -2.41726 0
M  V30 4823 H 457.774 3.80057 -1.73051 0
M  V30 4824 O 458.25 1.46817 0.672841 0
M  V30 4825 H 458.941 1.41236 1.3256 0
M  V30 END ATOM
M  V30 BEGIN BOND
M  V30 END BOND
M  V30 END CTAB
M  END
$$$$
