drugbank_drug|DB00040 Glucagon for Injection Sequence
 OpenBabel12092119123D

471477  0  0  0  0  0  0  0  0999 V2000
   -0.9080    1.9825   -0.1171 H   0  0  0  0  0 15  0  0  0  0  0  0
    0.0000    1.5760    0.0000 N   0  0  0  0  0 15  0  0  0  0  0  0
    0.9500    2.0490    0.9999 C   0  0  0  0  0 15  0  0  0  0  0  0
    1.9340    0.9438    1.3031 C   0  0  0  0  0 15  0  0  0  0  0  0
    3.1260    1.2075    1.2941 O   0  0  0  0  0 15  0  0  0  0  0  0
    0.2550    2.5559    2.2919 C   0  0  0  0  0 15  0  0  0  0  0  0
   -0.6590    3.7299    2.0183 C   0  0  0  0  0 15  0  0  0  0  0  0
   -0.2680    4.8468    1.4463 N   0  0  0  0  0 15  0  0  0  0  0  0
   -1.9700    3.8092    2.3198 C   0  0  0  0  0 15  0  0  0  0  0  0
   -1.2690    5.6612    1.3375 C   0  0  0  0  0 15  0  0  0  0  0  0
   -2.2930    5.1212    1.8231 N   0  0  0  0  0 15  0  0  0  0  0  0
    1.5090    2.8867    0.5522 H   0  0  0  0  0 15  0  0  0  0  0  0
   -0.9770    1.6109    0.2057 H   0  0  0  0  0 15  0  0  0  0  0  0
    1.0200    2.8775    3.0167 H   0  0  0  0  0 15  0  0  0  0  0  0
   -0.3200    1.7324    2.7462 H   0  0  0  0  0 15  0  0  0  0  0  0
    0.6910    5.0553    1.1252 H   0  0  0  0  0 15  0  0  0  0  0  0
   -2.6320    3.0943    2.8028 H   0  0  0  0  0 15  0  0  0  0  0  0
   -1.2420    6.6588    0.8977 H   0  0  0  0  0 15  0  0  0  0  0  0
    1.4781   -0.2728    1.5522 N   0  0  0  0  0 15  0  0  0  0  0  0
    2.7031   -1.0268    1.8020 C   0  0  0  0  0 15  0  0  0  0  0  0
    3.1281   -1.7914    0.5736 C   0  0  0  0  0 15  0  0  0  0  0  0
    2.4861   -1.7492   -0.4768 O   0  0  0  0  0 15  0  0  0  0  0  0
    2.5341   -1.9609    3.0262 C   0  0  0  0  0 15  0  0  0  0  0  0
    1.6381   -3.0486    2.7773 O   0  0  0  0  0 15  0  0  0  0  0  0
    0.9791   -0.2936    0.5956 H   0  0  0  0  0 15  0  0  0  0  0  0
    3.5091   -0.3016    2.0237 H   0  0  0  0  0 15  0  0  0  0  0  0
    3.5191   -2.3804    3.3136 H   0  0  0  0  0 15  0  0  0  0  0  0
    2.1941   -1.3985    3.9168 H   0  0  0  0  0 15  0  0  0  0  0  0
    0.7711   -2.6723    2.6008 H   0  0  0  0  0 15  0  0  0  0  0  0
    2.9562   -1.4816   -0.5373 N   0  0  0  0  0 15  0  0  0  0  0  0
    3.8882   -1.5822   -1.6583 C   0  0  0  0  0 15  0  0  0  0  0  0
    4.9012   -0.4669   -1.5596 C   0  0  0  0  0 15  0  0  0  0  0  0
    6.0902   -0.7375   -1.6255 O   0  0  0  0  0 15  0  0  0  0  0  0
    3.1902   -1.4891   -3.0443 C   0  0  0  0  0 15  0  0  0  0  0  0
    2.3632   -2.7534   -3.3986 C   0  0  0  0  0 15  0  0  0  0  0  0
    1.4222   -2.5959   -4.5771 C   0  0  0  0  0 15  0  0  0  0  0  0
    0.4482   -3.3346   -4.6130 O   0  0  0  0  0 15  0  0  0  0  0  0
    1.6502   -1.6872   -5.5544 N   0  0  0  0  0 15  0  0  0  0  0  0
    4.4152   -2.5489   -1.5764 H   0  0  0  0  0 15  0  0  0  0  0  0
    1.9762   -1.4479   -0.7244 H   0  0  0  0  0 15  0  0  0  0  0  0
    3.9682   -1.3607   -3.8114 H   0  0  0  0  0 15  0  0  0  0  0  0
    2.5382   -0.6024   -3.0674 H   0  0  0  0  0 15  0  0  0  0  0  0
    1.7582   -3.0280   -2.5241 H   0  0  0  0  0 15  0  0  0  0  0  0
    3.0462   -3.5924   -3.6031 H   0  0  0  0  0 15  0  0  0  0  0  0
    2.4442   -1.0790   -5.5531 H   0  0  0  0  0 15  0  0  0  0  0  0
    1.0012   -1.6183   -6.3139 H   0  0  0  0  0 15  0  0  0  0  0  0
    4.4343    0.7856   -1.3662 N   0  0  0  0  0 15  0  0  0  0  0  0
    5.6823    1.5406   -1.3081 C   0  0  0  0  0 15  0  0  0  0  0  0
    6.0033    1.9468    0.1112 C   0  0  0  0  0 15  0  0  0  0  0  0
    5.2733    1.6524    1.0522 O   0  0  0  0  0 15  0  0  0  0  0  0
    3.8533    0.5714   -0.4812 H   0  0  0  0  0 15  0  0  0  0  0  0
    6.5153    0.9358   -1.7096 H   0  0  0  0  0 15  0  0  0  0  0  0
    5.6113    2.4464   -1.9380 H   0  0  0  0  0 15  0  0  0  0  0  0
    5.9124    1.2097    1.0102 N   0  0  0  0  0 15  0  0  0  0  0  0
    7.1404    1.0496    1.7830 C   0  0  0  0  0 15  0  0  0  0  0  0
    7.5554   -0.4009    1.8449 C   0  0  0  0  0 15  0  0  0  0  0  0
    6.9124   -1.2783    1.3026 O   0  0  0  0  0 15  0  0  0  0  0  0
    6.9634    1.6340    3.2246 C   0  0  0  0  0 15  0  0  0  0  0  0
    6.6844    3.0277    3.1664 O   0  0  0  0  0 15  0  0  0  0  0  0
    8.1854    1.5243    4.1627 C   0  0  0  0  0 15  0  0  0  0  0  0
    5.4054    0.3689    0.5605 H   0  0  0  0  0 15  0  0  0  0  0  0
    7.9494    1.6019    1.2712 H   0  0  0  0  0 15  0  0  0  0  0  0
    6.1044    1.1227    3.7078 H   0  0  0  0  0 15  0  0  0  0  0  0
    6.5184    3.3063    4.0717 H   0  0  0  0  0 15  0  0  0  0  0  0
    7.9924    1.9808    5.1524 H   0  0  0  0  0 15  0  0  0  0  0  0
    8.4694    0.4779    4.3659 H   0  0  0  0  0 15  0  0  0  0  0  0
    9.0754    2.0279    3.7384 H   0  0  0  0  0 15  0  0  0  0  0  0
    7.3905   -1.2043    1.0166 N   0  0  0  0  0 15  0  0  0  0  0  0
    8.6375   -1.8980    0.7059 C   0  0  0  0  0 15  0  0  0  0  0  0
    8.9655   -1.7885   -0.7644 C   0  0  0  0  0 15  0  0  0  0  0  0
    8.2205   -1.1669   -1.5710 O   0  0  0  0  0 15  0  0  0  0  0  0
    8.5195   -3.4046    1.0871 C   0  0  0  0  0 15  0  0  0  0  0  0
    8.1855   -3.7161    2.5537 C   0  0  0  0  0 15  0  0  0  0  0  0
    6.8475   -3.7983    2.9544 C   0  0  0  0  0 15  0  0  0  0  0  0
    9.1995   -3.8592    3.5031 C   0  0  0  0  0 15  0  0  0  0  0  0
    6.5275   -3.9980    4.2939 C   0  0  0  0  0 15  0  0  0  0  0  0
    8.8795   -4.0740    4.8395 C   0  0  0  0  0 15  0  0  0  0  0  0
    7.5435   -4.1384    5.2373 C   0  0  0  0  0 15  0  0  0  0  0  0
    6.8135   -0.6945    0.2583 H   0  0  0  0  0 15  0  0  0  0  0  0
    9.4605   -1.4269    1.2772 H   0  0  0  0  0 15  0  0  0  0  0  0
    7.7655   -3.8939    0.4343 H   0  0  0  0  0 15  0  0  0  0  0  0
    9.4625   -3.9243    0.8245 H   0  0  0  0  0 15  0  0  0  0  0  0
    6.0525   -3.6582    2.2332 H   0  0  0  0  0 15  0  0  0  0  0  0
   10.2365   -3.7893    3.2051 H   0  0  0  0  0 15  0  0  0  0  0  0
    5.4925   -4.0302    4.5977 H   0  0  0  0  0 15  0  0  0  0  0  0
    9.6665   -4.1740    5.5745 H   0  0  0  0  0 15  0  0  0  0  0  0
    7.2935   -4.2906    6.2754 H   0  0  0  0  0 15  0  0  0  0  0  0
    8.8686   -0.7928   -1.3621 N   0  0  0  0  0 15  0  0  0  0  0  0
   10.0966   -0.3788   -2.0340 C   0  0  0  0  0 15  0  0  0  0  0  0
   10.5116    1.0059   -1.5977 C   0  0  0  0  0 15  0  0  0  0  0  0
    9.8686    1.6457   -0.7888 O   0  0  0  0  0 15  0  0  0  0  0  0
    9.9196   -0.4368   -3.5885 C   0  0  0  0  0 15  0  0  0  0  0  0
    9.6406   -1.7669   -4.0089 O   0  0  0  0  0 15  0  0  0  0  0  0
   11.1416   -0.0139   -4.4330 C   0  0  0  0  0 15  0  0  0  0  0  0
    8.3616   -0.1557   -0.6527 H   0  0  0  0  0 15  0  0  0  0  0  0
   10.9056   -1.0726   -1.7411 H   0  0  0  0  0 15  0  0  0  0  0  0
    9.0606    0.2086   -3.8684 H   0  0  0  0  0 15  0  0  0  0  0  0
    9.4746   -1.7201   -4.9549 H   0  0  0  0  0 15  0  0  0  0  0  0
   10.9486   -0.1056   -5.5190 H   0  0  0  0  0 15  0  0  0  0  0  0
   11.4256    1.0392   -4.2673 H   0  0  0  0  0 15  0  0  0  0  0  0
   12.0316   -0.6319   -4.2058 H   0  0  0  0  0 15  0  0  0  0  0  0
   10.3467    1.4787   -0.5451 N   0  0  0  0  0 15  0  0  0  0  0  0
   11.5717    2.0739   -0.0191 C   0  0  0  0  0 15  0  0  0  0  0  0
   11.9967    1.3969    1.2597 C   0  0  0  0  0 15  0  0  0  0  0  0
   11.3547    0.4678    1.7516 O   0  0  0  0  0 15  0  0  0  0  0  0
   11.4027    3.6019    0.1723 C   0  0  0  0  0 15  0  0  0  0  0  0
   10.5067    3.9339    1.2377 O   0  0  0  0  0 15  0  0  0  0  0  0
    9.8477    0.6624   -0.0459 H   0  0  0  0  0 15  0  0  0  0  0  0
   12.3777    1.9007   -0.7574 H   0  0  0  0  0 15  0  0  0  0  0  0
   12.3877    4.0613    0.3903 H   0  0  0  0  0 15  0  0  0  0  0  0
   11.0627    4.0886   -0.7617 H   0  0  0  0  0 15  0  0  0  0  0  0
    9.6397    3.5921    1.0011 H   0  0  0  0  0 15  0  0  0  0  0  0
   11.8248    0.2810    1.5507 N   0  0  0  0  0 15  0  0  0  0  0  0
   13.1018   -0.3862    1.9175 C   0  0  0  0  0 15  0  0  0  0  0  0
   13.4818   -1.7326    1.2059 C   0  0  0  0  0 15  0  0  0  0  0  0
   12.8298   -2.2603    0.3348 O   0  0  0  0  0 15  0  0  0  0  0  0
   13.0398   -0.5207    3.4509 C   0  0  0  0  0 15  0  0  0  0  0  0
   14.3878   -0.8009    4.1698 C   0  0  0  0  0 15  0  0  0  0  0  0
   15.4118   -0.6053    3.5102 O   0  0  0  0  0 15  0  0  0  0  0  0
   14.2708   -1.1753    5.3371 O   0  0  0  0  0 15  0  0  0  0  0  0
   11.3648   -0.2124    0.7993 H   0  0  0  0  0 15  0  0  0  0  0  0
   13.9108    0.3276    1.6651 H   0  0  0  0  0 15  0  0  0  0  0  0
   12.6828    0.4266    3.8897 H   0  0  0  0  0 15  0  0  0  0  0  0
   12.3058   -1.2837    3.7631 H   0  0  0  0  0 15  0  0  0  0  0  0
   13.3029   -1.5760    0.0084 N   0  0  0  0  0 15  0  0  0  0  0  0
   14.5329   -1.9493   -0.6845 C   0  0  0  0  0 15  0  0  0  0  0  0
   14.9409   -0.8822   -1.6737 C   0  0  0  0  0 15  0  0  0  0  0  0
   14.2839    0.1466   -1.8311 O   0  0  0  0  0 15  0  0  0  0  0  0
   14.3459   -3.2830   -1.4649 C   0  0  0  0  0 15  0  0  0  0  0  0
   14.0099   -4.5255   -0.6363 C   0  0  0  0  0 15  0  0  0  0  0  0
   15.0069   -5.1984    0.0796 C   0  0  0  0  0 15  0  0  0  0  0  0
   12.6919   -4.9894   -0.5798 C   0  0  0  0  0 15  0  0  0  0  0  0
   14.6859   -6.3183    0.8408 C   0  0  0  0  0 15  0  0  0  0  0  0
   12.3729   -6.1082    0.1852 C   0  0  0  0  0 15  0  0  0  0  0  0
   13.3709   -6.7712    0.8942 C   0  0  0  0  0 15  0  0  0  0  0  0
   13.0589   -7.8685    1.6467 O   0  0  0  0  0 15  0  0  0  0  0  0
   12.7909   -0.6472   -0.1950 H   0  0  0  0  0 15  0  0  0  0  0  0
   15.3449   -2.0532    0.0581 H   0  0  0  0  0 15  0  0  0  0  0  0
   13.5749   -3.1435   -2.2522 H   0  0  0  0  0 15  0  0  0  0  0  0
   15.2639   -3.5069   -2.0439 H   0  0  0  0  0 15  0  0  0  0  0  0
   16.0299   -4.8498    0.0451 H   0  0  0  0  0 15  0  0  0  0  0  0
   11.9089   -4.4716   -1.1213 H   0  0  0  0  0 15  0  0  0  0  0  0
   15.4529   -6.8351    1.3948 H   0  0  0  0  0 15  0  0  0  0  0  0
   11.3499   -6.4512    0.2214 H   0  0  0  0  0 15  0  0  0  0  0  0
   12.1179   -8.0341    1.5643 H   0  0  0  0  0 15  0  0  0  0  0  0
   14.7810    0.2645   -1.5536 N   0  0  0  0  0 15  0  0  0  0  0  0
   16.0060    1.0173   -1.8074 C   0  0  0  0  0 15  0  0  0  0  0  0
   16.4310    1.7884   -0.5830 C   0  0  0  0  0 15  0  0  0  0  0  0
   15.7890    1.7517    0.4676 O   0  0  0  0  0 15  0  0  0  0  0  0
   15.8370    1.9448   -3.0366 C   0  0  0  0  0 15  0  0  0  0  0  0
   14.9410    3.0339   -2.7934 O   0  0  0  0  0 15  0  0  0  0  0  0
   14.2820    0.2904   -0.5971 H   0  0  0  0  0 15  0  0  0  0  0  0
   16.8120    0.2909   -2.0252 H   0  0  0  0  0 15  0  0  0  0  0  0
   16.8220    2.3628   -3.3262 H   0  0  0  0  0 15  0  0  0  0  0  0
   15.4970    1.3777   -3.9242 H   0  0  0  0  0 15  0  0  0  0  0  0
   14.0740    2.6584   -2.6150 H   0  0  0  0  0 15  0  0  0  0  0  0
   16.2591    1.4844    0.5294 N   0  0  0  0  0 15  0  0  0  0  0  0
   17.2061    1.6301    1.6339 C   0  0  0  0  0 15  0  0  0  0  0  0
   18.1761    0.4721    1.5925 C   0  0  0  0  0 15  0  0  0  0  0  0
   19.3611    0.6957    1.7767 O   0  0  0  0  0 15  0  0  0  0  0  0
   16.5011    1.6763    3.0165 C   0  0  0  0  0 15  0  0  0  0  0  0
   15.6141    2.9454    3.1603 C   0  0  0  0  0 15  0  0  0  0  0  0
   14.7491    2.9032    4.4485 C   0  0  0  0  0 15  0  0  0  0  0  0
   13.7881    4.1192    4.5275 C   0  0  0  0  0 15  0  0  0  0  0  0
   12.9251    4.0578    5.7297 N   0  0  0  0  0 15  0  0  0  0  0  0
   17.7651    2.5733    1.5028 H   0  0  0  0  0 15  0  0  0  0  0  0
   15.3021    1.2761    0.7317 H   0  0  0  0  0 15  0  0  0  0  0  0
   17.2601    1.6829    3.8175 H   0  0  0  0  0 15  0  0  0  0  0  0
   15.8901    0.7680    3.1353 H   0  0  0  0  0 15  0  0  0  0  0  0
   14.9421    3.0361    2.2918 H   0  0  0  0  0 15  0  0  0  0  0  0
   16.2541    3.8451    3.1773 H   0  0  0  0  0 15  0  0  0  0  0  0
   15.4081    2.8938    5.3324 H   0  0  0  0  0 15  0  0  0  0  0  0
   14.1471    1.9807    4.4567 H   0  0  0  0  0 15  0  0  0  0  0  0
   13.1521    4.1313    3.6277 H   0  0  0  0  0 15  0  0  0  0  0  0
   14.3771    5.0533    4.5367 H   0  0  0  0  0 15  0  0  0  0  0  0
   12.3231    3.1635    5.7468 H   0  0  0  0  0 15  0  0  0  0  0  0
   12.2401    4.8946    5.7616 H   0  0  0  0  0 15  0  0  0  0  0  0
   13.5081    4.0890    6.6364 H   0  0  0  0  0 15  0  0  0  0  0  0
   17.7372   -0.7783    1.3704 N   0  0  0  0  0 15  0  0  0  0  0  0
   18.9672   -1.5651    1.3487 C   0  0  0  0  0 15  0  0  0  0  0  0
   19.3752   -1.8907   -0.0695 C   0  0  0  0  0 15  0  0  0  0  0  0
   18.7182   -1.5143   -1.0399 O   0  0  0  0  0 15  0  0  0  0  0  0
   18.7802   -2.9064    2.1159 C   0  0  0  0  0 15  0  0  0  0  0  0
   18.4442   -2.8075    3.6060 C   0  0  0  0  0 15  0  0  0  0  0  0
   19.4412   -2.5223    4.5462 C   0  0  0  0  0 15  0  0  0  0  0  0
   17.1262   -2.9897    4.0363 C   0  0  0  0  0 15  0  0  0  0  0  0
   19.1202   -2.4205    5.8965 C   0  0  0  0  0 15  0  0  0  0  0  0
   16.8072   -2.8842    5.3875 C   0  0  0  0  0 15  0  0  0  0  0  0
   17.8052   -2.6000    6.3158 C   0  0  0  0  0 15  0  0  0  0  0  0
   17.4932   -2.4946    7.6421 O   0  0  0  0  0 15  0  0  0  0  0  0
   17.2252   -0.4917    0.4639 H   0  0  0  0  0 15  0  0  0  0  0  0
   19.7792   -0.9731    1.8089 H   0  0  0  0  0 15  0  0  0  0  0  0
   18.0092   -3.5194    1.6024 H   0  0  0  0  0 15  0  0  0  0  0  0
   19.6982   -3.5199    2.0213 H   0  0  0  0  0 15  0  0  0  0  0  0
   20.4642   -2.3784    4.2268 H   0  0  0  0  0 15  0  0  0  0  0  0
   16.3432   -3.2010    3.3175 H   0  0  0  0  0 15  0  0  0  0  0  0
   19.8872   -2.1979    6.6207 H   0  0  0  0  0 15  0  0  0  0  0  0
   15.7842   -3.0238    5.7030 H   0  0  0  0  0 15  0  0  0  0  0  0
   16.5522   -2.6486    7.7446 H   0  0  0  0  0 15  0  0  0  0  0  0
   19.2153   -1.2150   -1.0038 N   0  0  0  0  0 15  0  0  0  0  0  0
   20.1453   -0.9995   -2.1103 C   0  0  0  0  0 15  0  0  0  0  0  0
   21.1263    0.0760   -1.6993 C   0  0  0  0  0 15  0  0  0  0  0  0
   22.3113   -0.0841   -1.9402 O   0  0  0  0  0 15  0  0  0  0  0  0
   19.4413   -0.5647   -3.4268 C   0  0  0  0  0 15  0  0  0  0  0  0
   18.3953   -1.5849   -3.9758 C   0  0  0  0  0 15  0  0  0  0  0  0
   17.7213   -1.0063   -5.2515 C   0  0  0  0  0 15  0  0  0  0  0  0
   19.0213   -2.9720   -4.2950 C   0  0  0  0  0 15  0  0  0  0  0  0
   20.7153   -1.9249   -2.2932 H   0  0  0  0  0 15  0  0  0  0  0  0
   18.2613   -0.9269   -1.1020 H   0  0  0  0  0 15  0  0  0  0  0  0
   20.2143   -0.4011   -4.1949 H   0  0  0  0  0 15  0  0  0  0  0  0
   18.9383    0.3964   -3.2419 H   0  0  0  0  0 15  0  0  0  0  0  0
   17.5973   -1.7361   -3.2289 H   0  0  0  0  0 15  0  0  0  0  0  0
   17.2453   -0.0368   -5.0299 H   0  0  0  0  0 15  0  0  0  0  0  0
   16.9453   -1.6877   -5.6284 H   0  0  0  0  0 15  0  0  0  0  0  0
   18.4693   -0.8540   -6.0460 H   0  0  0  0  0 15  0  0  0  0  0  0
   19.8833   -2.8552   -4.9714 H   0  0  0  0  0 15  0  0  0  0  0  0
   18.2803   -3.6237   -4.7834 H   0  0  0  0  0 15  0  0  0  0  0  0
   19.3503   -3.4796   -3.3772 H   0  0  0  0  0 15  0  0  0  0  0  0
   20.6934    1.1989   -1.0230 N   0  0  0  0  0 15  0  0  0  0  0  0
   21.9704    1.8515   -0.6308 C   0  0  0  0  0 15  0  0  0  0  0  0
   22.3504    1.9139    0.8908 C   0  0  0  0  0 15  0  0  0  0  0  0
   21.6984    1.4264    1.7851 O   0  0  0  0  0 15  0  0  0  0  0  0
   21.9084    3.2444   -1.2860 C   0  0  0  0  0 15  0  0  0  0  0  0
   23.2564    4.0066   -1.4055 C   0  0  0  0  0 15  0  0  0  0  0  0
   24.2804    3.3382   -1.2427 O   0  0  0  0  0 15  0  0  0  0  0  0
   23.1394    5.2039   -1.6691 O   0  0  0  0  0 15  0  0  0  0  0  0
   20.2334    0.7976   -0.2185 H   0  0  0  0  0 15  0  0  0  0  0  0
   22.7794    1.2743   -1.1207 H   0  0  0  0  0 15  0  0  0  0  0  0
   21.5514    3.1470   -2.3255 H   0  0  0  0  0 15  0  0  0  0  0  0
   21.1744    3.8980   -0.7836 H   0  0  0  0  0 15  0  0  0  0  0  0
   22.1715    0.8000    1.3578 N   0  0  0  0  0 15  0  0  0  0  0  0
   23.3965    0.3885    2.0373 C   0  0  0  0  0 15  0  0  0  0  0  0
   23.8215   -0.9905    1.5991 C   0  0  0  0  0 15  0  0  0  0  0  0
   23.1795   -1.6401    0.7726 O   0  0  0  0  0 15  0  0  0  0  0  0
   23.2275    0.4726    3.5749 C   0  0  0  0  0 15  0  0  0  0  0  0
   22.3315   -0.5165    4.0915 O   0  0  0  0  0 15  0  0  0  0  0  0
   21.6725    0.1633    0.6436 H   0  0  0  0  0 15  0  0  0  0  0  0
   24.2025    1.0841    1.7352 H   0  0  0  0  0 15  0  0  0  0  0  0
   24.2125    0.3400    4.0658 H   0  0  0  0  0 15  0  0  0  0  0  0
   22.8875    1.4785    3.8873 H   0  0  0  0  0 15  0  0  0  0  0  0
   21.4645   -0.3447    3.7130 H   0  0  0  0  0 15  0  0  0  0  0  0
   23.6496   -1.4758    0.5530 N   0  0  0  0  0 15  0  0  0  0  0  0
   25.0656   -1.5818    0.2124 C   0  0  0  0  0 15  0  0  0  0  0  0
   25.2656   -1.5521   -1.2850 C   0  0  0  0  0 15  0  0  0  0  0  0
   24.3216   -1.4533   -2.0648 O   0  0  0  0  0 15  0  0  0  0  0  0
   25.6346   -2.8886    0.8353 C   0  0  0  0  0 15  0  0  0  0  0  0
   27.1826   -3.0244    0.8062 C   0  0  0  0  0 15  0  0  0  0  0  0
   27.6576   -4.3582    1.4080 C   0  0  0  0  0 15  0  0  0  0  0  0
   29.1486   -4.4244    1.3710 N   0  0  0  0  0 15  0  0  0  0  0  0
   29.8836   -5.4420    1.8064 C   0  0  0  0  0 15  0  0  0  0  0  0
   29.3796   -6.5279    2.3202 N   0  0  0  0  0 15  0  0  0  0  0  0
   31.1726   -5.3522    1.7174 N   0  0  0  0  0 15  0  0  0  0  0  0
   23.3236   -1.4775    1.5259 H   0  0  0  0  0 15  0  0  0  0  0  0
   25.5866   -0.7029    0.6361 H   0  0  0  0  0 15  0  0  0  0  0  0
   25.2926   -2.9676    1.8875 H   0  0  0  0  0 15  0  0  0  0  0  0
   25.1666   -3.7579    0.3258 H   0  0  0  0  0 15  0  0  0  0  0  0
   27.5536   -2.9414   -0.2373 H   0  0  0  0  0 15  0  0  0  0  0  0
   27.6346   -2.1707    1.3533 H   0  0  0  0  0 15  0  0  0  0  0  0
   27.2786   -4.4487    2.4506 H   0  0  0  0  0 15  0  0  0  0  0  0
   27.2086   -5.1992    0.8363 H   0  0  0  0  0 15  0  0  0  0  0  0
   29.6996   -3.6456    0.9952 H   0  0  0  0  0 15  0  0  0  0  0  0
   30.0126   -7.2661    2.6317 H   0  0  0  0  0 15  0  0  0  0  0  0
   28.3576   -6.5370    2.3602 H   0  0  0  0  0 15  0  0  0  0  0  0
   31.5486   -4.4928    1.3138 H   0  0  0  0  0 15  0  0  0  0  0  0
   31.7216   -6.1439    2.0599 H   0  0  0  0  0 15  0  0  0  0  0  0
   25.1277   -0.2892   -1.5492 N   0  0  0  0  0 15  0  0  0  0  0  0
   26.5437    0.0645   -1.5947 C   0  0  0  0  0 15  0  0  0  0  0  0
   26.7437    1.5342   -1.3063 C   0  0  0  0  0 15  0  0  0  0  0  0
   25.7997    2.2852   -1.0740 O   0  0  0  0  0 15  0  0  0  0  0  0
   27.1127   -0.3228   -2.9896 C   0  0  0  0  0 15  0  0  0  0  0  0
   28.6607   -0.2706   -3.1183 C   0  0  0  0  0 15  0  0  0  0  0  0
   29.1357   -0.6325   -4.5361 C   0  0  0  0  0 15  0  0  0  0  0  0
   30.6267   -0.5846   -4.5950 N   0  0  0  0  0 15  0  0  0  0  0  0
   31.3617   -0.8373   -5.6725 C   0  0  0  0  0 15  0  0  0  0  0  0
   30.8577   -1.1554   -6.8310 N   0  0  0  0  0 15  0  0  0  0  0  0
   32.6507   -0.7652   -5.5687 N   0  0  0  0  0 15  0  0  0  0  0  0
   24.8017   -1.2471   -1.7193 H   0  0  0  0  0 15  0  0  0  0  0  0
   27.0647   -0.5048   -0.8024 H   0  0  0  0  0 15  0  0  0  0  0  0
   26.7707   -1.3454   -3.2495 H   0  0  0  0  0 15  0  0  0  0  0  0
   26.6447    0.3294   -3.7576 H   0  0  0  0  0 15  0  0  0  0  0  0
   29.0317    0.7428   -2.8560 H   0  0  0  0  0 15  0  0  0  0  0  0
   29.1127   -0.9572   -2.3721 H   0  0  0  0  0 15  0  0  0  0  0  0
   28.7567   -1.6437   -4.8057 H   0  0  0  0  0 15  0  0  0  0  0  0
   28.6867    0.0761   -5.2655 H   0  0  0  0  0 15  0  0  0  0  0  0
   31.1777   -0.3492   -3.7628 H   0  0  0  0  0 15  0  0  0  0  0  0
   31.4907   -1.3345   -7.6119 H   0  0  0  0  0 15  0  0  0  0  0  0
   29.8357   -1.1933   -6.8468 H   0  0  0  0  0 15  0  0  0  0  0  0
   33.0267   -0.5164   -4.6524 H   0  0  0  0  0 15  0  0  0  0  0  0
   33.1997   -0.9655   -6.4077 H   0  0  0  0  0 15  0  0  0  0  0  0
   26.6058    1.5759   -0.0167 N   0  0  0  0  0 15  0  0  0  0  0  0
   27.5688    2.0839    0.9542 C   0  0  0  0  0 15  0  0  0  0  0  0
   28.5688    0.9965    1.2620 C   0  0  0  0  0 15  0  0  0  0  0  0
   29.7588    1.2586    1.2044 O   0  0  0  0  0 15  0  0  0  0  0  0
   26.8908    2.5394    2.2744 C   0  0  0  0  0 15  0  0  0  0  0  0
   28.0838    2.9545    0.5145 H   0  0  0  0  0 15  0  0  0  0  0  0
   25.6368    1.5458    0.2311 H   0  0  0  0  0 15  0  0  0  0  0  0
   26.3718    1.7017    2.7607 H   0  0  0  0  0 15  0  0  0  0  0  0
   26.1568    3.3337    2.0641 H   0  0  0  0  0 15  0  0  0  0  0  0
   27.6468    2.9351    2.9705 H   0  0  0  0  0 15  0  0  0  0  0  0
   28.0839   -0.2563    1.5550 N   0  0  0  0  0 15  0  0  0  0  0  0
   29.0159   -1.3398    1.8596 C   0  0  0  0  0 15  0  0  0  0  0  0
   30.0289   -1.4474    0.7452 C   0  0  0  0  0 15  0  0  0  0  0  0
   31.2179   -1.4626    1.0232 O   0  0  0  0  0 15  0  0  0  0  0  0
   28.3179   -2.7194    2.0224 C   0  0  0  0  0 15  0  0  0  0  0  0
   27.4909   -2.8356    3.3303 C   0  0  0  0  0 15  0  0  0  0  0  0
   26.5499   -4.0230    3.3917 C   0  0  0  0  0 15  0  0  0  0  0  0
   25.5759   -3.9227    4.1244 O   0  0  0  0  0 15  0  0  0  0  0  0
   26.7779   -5.1505    2.6778 N   0  0  0  0  0 15  0  0  0  0  0  0
   29.5429   -1.0819    2.7949 H   0  0  0  0  0 15  0  0  0  0  0  0
   27.1039   -0.4464    1.5562 H   0  0  0  0  0 15  0  0  0  0  0  0
   29.0959   -3.4970    2.0370 H   0  0  0  0  0 15  0  0  0  0  0  0
   27.6659   -2.9048    1.1550 H   0  0  0  0  0 15  0  0  0  0  0  0
   26.8859   -1.9256    3.4397 H   0  0  0  0  0 15  0  0  0  0  0  0
   28.1739   -2.8827    4.1926 H   0  0  0  0  0 15  0  0  0  0  0  0
   27.5719   -5.2609    2.0797 H   0  0  0  0  0 15  0  0  0  0  0  0
   26.1289   -5.9097    2.7495 H   0  0  0  0  0 15  0  0  0  0  0  0
   29.5620   -1.4872   -0.5215 N   0  0  0  0  0 15  0  0  0  0  0  0
   30.8390   -1.4766   -1.2828 C   0  0  0  0  0 15  0  0  0  0  0  0
   31.2190   -0.1929   -2.1022 C   0  0  0  0  0 15  0  0  0  0  0  0
   30.5670    0.8252   -2.1308 O   0  0  0  0  0 15  0  0  0  0  0  0
   30.7770   -2.7436   -2.1571 C   0  0  0  0  0 15  0  0  0  0  0  0
   32.1250   -3.2303   -2.7557 C   0  0  0  0  0 15  0  0  0  0  0  0
   33.1490   -2.7533   -2.2599 O   0  0  0  0  0 15  0  0  0  0  0  0
   32.0080   -4.0604   -3.6578 O   0  0  0  0  0 15  0  0  0  0  0  0
   29.1020   -0.5901   -0.5794 H   0  0  0  0  0 15  0  0  0  0  0  0
   31.6480   -1.6096   -0.5375 H   0  0  0  0  0 15  0  0  0  0  0  0
   30.4200   -3.5929   -1.5500 H   0  0  0  0  0 15  0  0  0  0  0  0
   30.0430   -2.6382   -2.9747 H   0  0  0  0  0 15  0  0  0  0  0  0
   31.0401    0.7711   -1.3745 N   0  0  0  0  0 15  0  0  0  0  0  0
   32.2871    1.5296   -1.3270 C   0  0  0  0  0 15  0  0  0  0  0  0
   32.6151    1.9430    0.0883 C   0  0  0  0  0 15  0  0  0  0  0  0
   31.8701    1.6440    1.0617 O   0  0  0  0  0 15  0  0  0  0  0  0
   32.1691    2.8068   -2.2126 C   0  0  0  0  0 15  0  0  0  0  0  0
   31.8351    2.5839   -3.6952 C   0  0  0  0  0 15  0  0  0  0  0  0
   30.4971    2.5202   -4.0993 C   0  0  0  0  0 15  0  0  0  0  0  0
   32.8491    2.3847   -4.6345 C   0  0  0  0  0 15  0  0  0  0  0  0
   30.1771    2.2372   -5.4237 C   0  0  0  0  0 15  0  0  0  0  0  0
   32.5291    2.1169   -5.9613 C   0  0  0  0  0 15  0  0  0  0  0  0
   31.1931    2.0377   -6.3564 C   0  0  0  0  0 15  0  0  0  0  0  0
   30.4631    0.5597   -0.4856 H   0  0  0  0  0 15  0  0  0  0  0  0
   33.1101    0.8881   -1.6966 H   0  0  0  0  0 15  0  0  0  0  0  0
   31.4151    3.4939   -1.7729 H   0  0  0  0  0 15  0  0  0  0  0  0
   33.1121    3.3856   -2.1490 H   0  0  0  0  0 15  0  0  0  0  0  0
   29.7021    2.6421   -3.3748 H   0  0  0  0  0 15  0  0  0  0  0  0
   33.8861    2.4238   -4.3309 H   0  0  0  0  0 15  0  0  0  0  0  0
   29.1421    2.1608   -5.7194 H   0  0  0  0  0 15  0  0  0  0  0  0
   33.3161    1.9528   -6.6846 H   0  0  0  0  0 15  0  0  0  0  0  0
   30.9431    1.8161   -7.3819 H   0  0  0  0  0 15  0  0  0  0  0  0
   32.5182    1.2203    0.9973 N   0  0  0  0  0 15  0  0  0  0  0  0
   33.7642    1.0438    1.7388 C   0  0  0  0  0 15  0  0  0  0  0  0
   34.0972   -0.4207    1.8959 C   0  0  0  0  0 15  0  0  0  0  0  0
   33.3722   -1.3120    1.4358 O   0  0  0  0  0 15  0  0  0  0  0  0
   33.6552    1.7505    3.1469 C   0  0  0  0  0 15  0  0  0  0  0  0
   33.5082    3.2906    3.0666 C   0  0  0  0  0 15  0  0  0  0  0  0
   34.8272    1.4993    4.1377 C   0  0  0  0  0 15  0  0  0  0  0  0
   31.9462    0.3806    0.6311 H   0  0  0  0  0 15  0  0  0  0  0  0
   34.5882    1.5031    1.1622 H   0  0  0  0  0 15  0  0  0  0  0  0
   32.7382    1.3600    3.6392 H   0  0  0  0  0 15  0  0  0  0  0  0
   34.4102    3.7753    2.6508 H   0  0  0  0  0 15  0  0  0  0  0  0
   32.6532    3.5897    2.4357 H   0  0  0  0  0 15  0  0  0  0  0  0
   33.3242    3.7368    4.0628 H   0  0  0  0  0 15  0  0  0  0  0  0
   35.8002    1.8384    3.7328 H   0  0  0  0  0 15  0  0  0  0  0  0
   34.6762    2.0188    5.1043 H   0  0  0  0  0 15  0  0  0  0  0  0
   34.9372    0.4309    4.3999 H   0  0  0  0  0 15  0  0  0  0  0  0
   33.9963   -1.1934    1.0293 N   0  0  0  0  0 15  0  0  0  0  0  0
   34.9283   -2.2204    0.5686 C   0  0  0  0  0 15  0  0  0  0  0  0
   35.9413   -1.5886   -0.3558 C   0  0  0  0  0 15  0  0  0  0  0  0
   37.1303   -1.7785   -0.1521 O   0  0  0  0  0 15  0  0  0  0  0  0
   34.2303   -3.3836   -0.1908 C   0  0  0  0  0 15  0  0  0  0  0  0
   33.4033   -4.3112    0.7386 C   0  0  0  0  0 15  0  0  0  0  0  0
   32.4623   -5.2619    0.0246 C   0  0  0  0  0 15  0  0  0  0  0  0
   31.4883   -5.6546    0.6514 O   0  0  0  0  0 15  0  0  0  0  0  0
   32.6903   -5.6697   -1.2459 N   0  0  0  0  0 15  0  0  0  0  0  0
   35.4553   -2.6219    1.4518 H   0  0  0  0  0 15  0  0  0  0  0  0
   33.0163   -1.3402    0.9084 H   0  0  0  0  0 15  0  0  0  0  0  0
   35.0083   -3.9898   -0.6780 H   0  0  0  0  0 15  0  0  0  0  0  0
   33.5783   -2.9699   -0.9754 H   0  0  0  0  0 15  0  0  0  0  0  0
   32.7983   -3.6828    1.4059 H   0  0  0  0  0 15  0  0  0  0  0  0
   34.0863   -4.9000    1.3703 H   0  0  0  0  0 15  0  0  0  0  0  0
   33.4843   -5.3710   -1.7758 H   0  0  0  0  0 15  0  0  0  0  0  0
   32.0413   -6.2984   -1.6776 H   0  0  0  0  0 15  0  0  0  0  0  0
   35.4744   -0.8072   -1.3536 N   0  0  0  0  0 15  0  0  0  0  0  0
   36.7204   -0.3976   -1.9948 C   0  0  0  0  0 15  0  0  0  0  0  0
   37.0754    1.0241   -1.6288 C   0  0  0  0  0 15  0  0  0  0  0  0
   36.3684    1.7008   -0.8823 O   0  0  0  0  0 15  0  0  0  0  0  0
   36.5624   -0.5190   -3.5361 C   0  0  0  0  0 15  0  0  0  0  0  0
   36.3914   -1.9509   -4.0518 C   0  0  0  0  0 15  0  0  0  0  0  0
   35.1614   -2.5794   -4.3450 C   0  0  0  0  0 15  0  0  0  0  0  0
   37.3594   -2.9156   -4.2367 C   0  0  0  0  0 15  0  0  0  0  0  0
   35.3414   -3.9254   -4.7200 N   0  0  0  0  0 15  0  0  0  0  0  0
   36.7124   -4.1102   -4.6418 C   0  0  0  0  0 15  0  0  0  0  0  0
   38.7674   -2.8838   -4.0588 C   0  0  0  0  0 15  0  0  0  0  0  0
   37.4704   -5.2775   -4.8875 C   0  0  0  0  0 15  0  0  0  0  0  0
   39.4964   -4.0431   -4.3161 C   0  0  0  0  0 15  0  0  0  0  0  0
   38.8584   -5.2252   -4.7239 C   0  0  0  0  0 15  0  0  0  0  0  0
   34.9574   -0.1933   -0.7577 H   0  0  0  0  0 15  0  0  0  0  0  0
   37.5414   -1.0486   -1.6405 H   0  0  0  0  0 15  0  0  0  0  0  0
   35.7124    0.1020   -3.8827 H   0  0  0  0  0 15  0  0  0  0  0  0
   37.4444   -0.0839   -4.0461 H   0  0  0  0  0 15  0  0  0  0  0  0
   34.1994   -2.0929   -4.2484 H   0  0  0  0  0 15  0  0  0  0  0  0
   34.6234   -4.6184   -4.9501 H   0  0  0  0  0 15  0  0  0  0  0  0
   39.2654   -1.9814   -3.7350 H   0  0  0  0  0 15  0  0  0  0  0  0
   36.9834   -6.1856   -5.2001 H   0  0  0  0  0 15  0  0  0  0  0  0
   40.5694   -4.0323   -4.1940 H   0  0  0  0  0 15  0  0  0  0  0  0
   39.4494   -6.1073   -4.9191 H   0  0  0  0  0 15  0  0  0  0  0  0
   36.9525    1.4729   -0.5608 N   0  0  0  0  0 15  0  0  0  0  0  0
   37.8825    2.3286    0.1731 C   0  0  0  0  0 15  0  0  0  0  0  0
   38.8635    1.4401    0.9053 C   0  0  0  0  0 15  0  0  0  0  0  0
   40.0485    1.7286    0.8850 O   0  0  0  0  0 15  0  0  0  0  0  0
   37.1785    3.2586    1.2013 C   0  0  0  0  0 15  0  0  0  0  0  0
   36.1325    4.2398    0.5854 C   0  0  0  0  0 15  0  0  0  0  0  0
   35.4585    5.0633    1.7185 C   0  0  0  0  0 15  0  0  0  0  0  0
   36.7585    5.2024   -0.4632 C   0  0  0  0  0 15  0  0  0  0  0  0
   38.4525    2.9447   -0.5413 H   0  0  0  0  0 15  0  0  0  0  0  0
   35.9985    1.4160   -0.2618 H   0  0  0  0  0 15  0  0  0  0  0  0
   37.9515    3.8457    1.7229 H   0  0  0  0  0 15  0  0  0  0  0  0
   36.6755    2.6231    1.9457 H   0  0  0  0  0 15  0  0  0  0  0  0
   35.3345    3.6650    0.0851 H   0  0  0  0  0 15  0  0  0  0  0  0
   34.9825    4.3919    2.4520 H   0  0  0  0  0 15  0  0  0  0  0  0
   34.6825    5.7276    1.3121 H   0  0  0  0  0 15  0  0  0  0  0  0
   36.2065    5.6790    2.2433 H   0  0  0  0  0 15  0  0  0  0  0  0
   37.6205    5.7329   -0.0275 H   0  0  0  0  0 15  0  0  0  0  0  0
   36.0175    5.9490   -0.7886 H   0  0  0  0  0 15  0  0  0  0  0  0
   37.0875    4.6550   -1.3577 H   0  0  0  0  0 15  0  0  0  0  0  0
   38.4306    0.2974    1.5477 N   0  0  0  0  0 15  0  0  0  0  0  0
   39.3636   -0.6222    2.1955 C   0  0  0  0  0 15  0  0  0  0  0  0
   40.3416   -1.1356    1.1638 C   0  0  0  0  0 15  0  0  0  0  0  0
   41.5256   -1.2044    1.4500 O   0  0  0  0  0 15  0  0  0  0  0  0
   38.6526   -1.8509    2.8365 C   0  0  0  0  0 15  0  0  0  0  0  0
   37.6986   -1.4711    4.0033 C   0  0  0  0  0 15  0  0  0  0  0  0
   38.5316   -0.5301    5.3287 S   0  0  0  0  0 15  0  0  0  0  0  0
   39.6876   -1.7666    6.0045 C   0  0  0  0  0 15  0  0  0  0  0  0
   39.9206   -0.0718    2.9721 H   0  0  0  0  0 15  0  0  0  0  0  0
   37.4536    0.0816    1.5418 H   0  0  0  0  0 15  0  0  0  0  0  0
   39.4116   -2.5560    3.2121 H   0  0  0  0  0 15  0  0  0  0  0  0
   38.0726   -2.3725    2.0585 H   0  0  0  0  0 15  0  0  0  0  0  0
   37.2656   -2.3859    4.4395 H   0  0  0  0  0 15  0  0  0  0  0  0
   36.8676   -0.8459    3.6431 H   0  0  0  0  0 15  0  0  0  0  0  0
   39.1596   -2.7077    6.2104 H   0  0  0  0  0 15  0  0  0  0  0  0
   40.1026   -1.3731    6.9466 H   0  0  0  0  0 15  0  0  0  0  0  0
   40.5106   -1.9417    5.3005 H   0  0  0  0  0 15  0  0  0  0  0  0
   39.9087   -1.5758    0.0251 N   0  0  0  0  0 15  0  0  0  0  0  0
   40.8567   -2.1112   -0.9762 C   0  0  0  0  0 15  0  0  0  0  0  0
   41.8507   -1.0369   -1.3396 C   0  0  0  0  0 15  0  0  0  0  0  0
   43.0567   -1.2213   -1.3223 O   0  0  0  0  0 15  0  0  0  0  0  0
   39.4317   -0.6745   -0.3326 H   0  0  0  0  0 15  0  0  0  0  0  0
   41.4027   -2.9419   -0.4992 H   0  0  0  0  0 15  0  0  0  0  0  0
   40.1517   -2.6502   -2.2508 C   0  0  0  0  0 15  0  0  0  0  0  0
   39.4747   -3.4733   -1.9799 H   0  0  0  0  0 15  0  0  0  0  0  0
   40.9147   -3.0613   -2.9336 H   0  0  0  0  0 15  0  0  0  0  0  0
   39.3737   -1.5757   -2.9778 C   0  0  0  0  0 15  0  0  0  0  0  0
   39.9037   -0.9732   -3.8973 O   0  0  0  0  0 15  0  0  0  0  0  0
   38.1097   -1.2972   -2.6004 N   0  0  0  0  0 15  0  0  0  0  0  0
   37.6567   -1.7890   -1.8534 H   0  0  0  0  0 15  0  0  0  0  0  0
   37.6147   -0.5805   -3.0899 H   0  0  0  0  0 15  0  0  0  0  0  0
   41.3868    0.2480   -1.5564 N   0  0  0  0  0 15  0  0  0  0  0  0
   42.6148    0.9938   -1.8147 C   0  0  0  0  0 15  0  0  0  0  0  0
   43.0298    1.7899   -0.6006 C   0  0  0  0  0 15  0  0  0  0  0  0
   42.3868    1.7735    0.4307 O   0  0  0  0  0 15  0  0  0  0  0  0
   42.4378    1.9326   -3.0551 C   0  0  0  0  0 15  0  0  0  0  0  0
   42.1588    1.1687   -4.2222 O   0  0  0  0  0 15  0  0  0  0  0  0
   43.6598    2.7944   -3.4413 C   0  0  0  0  0 15  0  0  0  0  0  0
   40.8798    0.2925   -0.6039 H   0  0  0  0  0 15  0  0  0  0  0  0
   43.4238    0.2713   -2.0269 H   0  0  0  0  0 15  0  0  0  0  0  0
   41.5788    2.6094   -2.8633 H   0  0  0  0  0 15  0  0  0  0  0  0
   41.9928    1.8036   -4.9251 H   0  0  0  0  0 15  0  0  0  0  0  0
   43.4668    3.4107   -4.3403 H   0  0  0  0  0 15  0  0  0  0  0  0
   43.9438    3.5050   -2.6466 H   0  0  0  0  0 15  0  0  0  0  0  0
   44.5498    2.1721   -3.6565 H   0  0  0  0  0 15  0  0  0  0  0  0
   42.9038    1.5663    0.3937 O   0  0  0  0  0 15  0  0  0  0  0  0
   43.5948    1.6305    1.0457 H   0  0  0  0  0 15  0  0  0  0  0  0
M  END
$$$$
