drugbank_target|Q16270 Insulin-like growth factor-binding protein 7 (DB00071)
 OpenBabel12092120063D

  0  0  0     0  0            999 V3000
M  V30 BEGIN CTAB
M  V30 COUNTS 4063 4101 0 0 0
M  V30 BEGIN ATOM
M  V30 1 H -0.908 1.98254 -0.117106 0
M  V30 2 N 0 1.576 0 0
M  V30 3 C 0.933 2.03868 1.02534 0
M  V30 4 C 1.911 0.928543 1.3348 0
M  V30 5 O 3.095 1.19667 1.45644 0
M  V30 6 C 0.222 2.43627 2.35294 0
M  V30 7 C -0.732 3.65373 2.2001 0
M  V30 8 S 0.101 5.13292 1.52614 0
M  V30 9 C 1.257 5.56322 2.86805 0
M  V30 10 H 1.49 2.90518 0.631377 0
M  V30 11 H -0.977 1.52953 0.210867 0
M  V30 12 H 0.981 2.67203 3.11629 0
M  V30 13 H -0.358 1.57376 2.7183 0
M  V30 14 H -1.165 3.90944 3.18086 0
M  V30 15 H -1.563 3.418 1.51819 0
M  V30 16 H 0.729 5.58782 3.83104 0
M  V30 17 H 1.672 6.56266 2.65933 0
M  V30 18 H 2.08 4.83886 2.90714 0
M  V30 19 N 1.4781 -0.272755 1.55222 0
M  V30 20 C 2.3881 -1.35918 1.91216 0
M  V30 21 C 3.4041 -1.54026 0.809436 0
M  V30 22 O 4.5801 -1.68148 1.10852 0
M  V30 23 C 1.6451 -2.69834 2.17693 0
M  V30 24 C 0.7061 -2.6047 3.41253 0
M  V30 25 C -0.0609 -3.88 3.66458 0
M  V30 26 O 0.1621 -4.88693 2.94169 0
M  V30 27 O -0.9039 -3.88189 4.59992 0
M  V30 28 H 2.9221 -1.0839 2.83699 0
M  V30 29 H 0.5071 -0.471301 1.41771 0
M  V30 30 H 2.3891 -3.49017 2.36147 0
M  V30 31 H 1.0641 -2.97148 1.28392 0
M  V30 32 H -0.0289 -1.79663 3.28134 0
M  V30 33 H 1.3041 -2.38106 4.30774 0
M  V30 34 N 2.9562 -1.48159 -0.537278 0
M  V30 35 C 4.3722 -1.34118 -0.865129 0
M  V30 36 C 4.5722 -0.346678 -1.98495 0
M  V30 37 O 3.6282 0.234715 -2.51407 0
M  V30 38 C 4.9412 -2.73963 -1.23954 0
M  V30 39 C 6.4892 -2.82397 -1.34984 0
M  V30 40 C 6.9642 -4.22928 -1.75772 0
M  V30 41 N 8.4552 -4.25566 -1.82887 0
M  V30 42 C 9.1902 -5.31235 -2.15817 0
M  V30 43 N 8.6862 -6.47189 -2.47222 0
M  V30 44 N 10.4792 -5.18624 -2.16761 0
M  V30 45 H 2.6302 -2.1144 0.201715 0
M  V30 46 H 4.8932 -0.947598 0.0275949 0
M  V30 47 H 4.5992 -3.48264 -0.490381 0
M  V30 48 H 4.4732 -3.0702 -2.19132 0
M  V30 49 H 6.8602 -2.08356 -2.08978 0
M  V30 50 H 6.9412 -2.5297 -0.379448 0
M  V30 51 H 6.5852 -4.97482 -1.02341 0
M  V30 52 H 6.5152 -4.49794 -2.73848 0
M  V30 53 H 9.0062 -3.41924 -1.60924 0
M  V30 54 H 9.3192 -7.23564 -2.71433 0
M  V30 55 H 7.6642 -6.50476 -2.44757 0
M  V30 56 H 10.8552 -4.27056 -1.91679 0
M  V30 57 H 11.0282 -6.01078 -2.42093 0
M  V30 58 N 4.4343 0.785586 -1.36625 0
M  V30 59 C 5.8453 1.36101 -1.27803 0
M  V30 60 C 6.1963 1.96035 0.0804875 0
M  V30 61 O 5.3213 1.92834 0.982042 0
M  V30 62 C 5.9163 2.47442 -2.31426 0
M  V30 63 C 4.4753 3.00789 -2.26281 0
M  V30 64 C 3.6223 1.73896 -2.15999 0
M  V30 65 H 6.5733 0.586928 -1.47448 0
M  V30 66 H 6.5943 3.2656 -1.95291 0
M  V30 67 H 6.1063 2.03791 -3.30289 0
M  V30 68 H 4.2073 3.48851 -1.30896 0
M  V30 69 H 4.3203 3.57343 -3.19128 0
M  V30 70 H 2.6843 1.9628 -1.62316 0
M  V30 71 H 3.4673 1.32368 -3.16755 0
M  V30 72 N 5.9124 1.20967 1.01018 0
M  V30 73 C 7.1374 1.0503 1.78839 0
M  V30 74 C 7.5624 -0.395752 1.8389 0
M  V30 75 O 6.9204 -1.28529 1.27867 0
M  V30 76 C 6.9684 1.64602 3.2084 0
M  V30 77 O 6.0724 0.887988 4.02726 0
M  V30 78 H 5.4134 0.369987 0.551367 0
M  V30 79 H 7.9434 1.60399 1.27018 0
M  V30 80 H 7.9534 1.68607 3.71532 0
M  V30 81 H 6.6284 2.69841 3.16479 0
M  V30 82 H 5.2054 0.922648 3.61305 0
M  V30 83 N 7.3905 -1.2043 1.01659 0
M  V30 84 C 8.3205 -2.25466 0.607226 0
M  V30 85 C 9.3015 -1.65853 -0.377716 0
M  V30 86 O 10.4865 -1.92409 -0.263149 0
M  V30 87 C 7.6165 -3.47256 -0.0552949 0
M  V30 88 C 6.5705 -4.19462 0.850632 0
M  V30 89 C 5.8965 -5.34673 0.0538859 0
M  V30 90 C 7.1965 -4.75603 2.15868 0
M  V30 91 H 8.8905 -2.59962 1.48526 0
M  V30 92 H 6.4365 -1.2496 0.715605 0
M  V30 93 H 8.3895 -4.19917 -0.353233 0
M  V30 94 H 7.1135 -3.11924 -0.968045 0
M  V30 95 H 5.7725 -3.48667 1.13257 0
M  V30 96 H 5.4205 -4.95585 -0.860514 0
M  V30 97 H 5.1205 -5.83913 0.657192 0
M  V30 98 H 6.6445 -6.10138 -0.237598 0
M  V30 99 H 8.0585 -5.40083 1.92311 0
M  V30 100 H 6.4555 -5.3528 2.71284 0
M  V30 101 H 7.5255 -3.94346 2.82169 0
M  V30 102 N 8.8686 -0.792821 -1.36206 0
M  V30 103 C 10.2846 -0.474903 -1.52371 0
M  V30 104 C 10.4846 1.00622 -1.74578 0
M  V30 105 O 9.5406 1.79162 -1.77924 0
M  V30 106 C 10.8536 -1.3083 -2.70747 0
M  V30 107 C 12.4016 -1.30234 -2.84619 0
M  V30 108 C 12.8766 -2.11956 -4.06004 0
M  V30 109 N 14.3676 -2.09419 -4.13156 0
M  V30 110 C 15.1026 -2.69419 -5.06163 0
M  V30 111 N 14.5986 -3.3829 -6.04592 0
M  V30 112 N 16.3916 -2.59134 -4.98804 0
M  V30 113 H 8.5426 -1.75222 -1.20046 0
M  V30 114 H 10.8056 -0.745024 -0.586211 0
M  V30 115 H 10.5116 -2.35881 -2.6087 0
M  V30 116 H 10.3856 -0.95196 -3.6499 0
M  V30 117 H 12.7726 -0.259748 -2.93955 0
M  V30 118 H 12.8536 -1.69847 -1.91274 0
M  V30 119 H 12.4976 -3.16248 -3.97429 0
M  V30 120 H 12.4276 -1.69711 -4.98503 0
M  V30 121 H 14.9186 -1.59297 -3.42685 0
M  V30 122 H 15.2316 -3.81394 -6.7213 0
M  V30 123 H 13.5766 -3.42393 -6.04807 0
M  V30 124 H 16.7676 -2.04927 -4.20859 0
M  V30 125 H 16.9406 -3.06185 -5.711 0
M  V30 126 N 10.3467 1.47872 -0.545128 0
M  V30 127 C 11.3097 2.28337 0.198717 0
M  V30 128 C 12.3097 1.36255 0.853888 0
M  V30 129 O 13.4997 1.59003 0.711606 0
M  V30 130 C 10.6317 3.15585 1.28915 0
M  V30 131 H 11.8247 2.95567 -0.507941 0
M  V30 132 H 9.3777 1.53362 -0.301616 0
M  V30 133 H 10.1127 2.53019 2.02859 0
M  V30 134 H 9.8977 3.83337 0.824309 0
M  V30 135 H 11.3877 3.76243 1.81194 0
M  V30 136 N 11.8248 0.280983 1.55075 0
M  V30 137 C 12.7548 -0.597469 2.25727 0
M  V30 138 C 13.7358 -1.15417 1.24952 0
M  V30 139 O 14.9208 -1.18722 1.53684 0
M  V30 140 C 12.0508 -1.7789 2.98283 0
M  V30 141 C 11.0048 -1.35347 4.06036 0
M  V30 142 C 10.3308 -2.61846 4.66198 0
M  V30 143 C 11.6308 -0.499354 5.19907 0
M  V30 144 H 13.3248 -0.00824265 2.99399 0
M  V30 145 H 10.8708 -0.0025244 1.44 0
M  V30 146 H 12.8238 -2.39937 3.46422 0
M  V30 147 H 11.5478 -2.39405 2.22155 0
M  V30 148 H 10.2068 -0.756156 3.58717 0
M  V30 149 H 9.8548 -3.21632 3.86732 0
M  V30 150 H 9.5548 -2.3409 5.38958 0
M  V30 151 H 11.0788 -3.24732 5.1709 0
M  V30 152 H 12.4928 -1.02498 5.64063 0
M  V30 153 H 10.8898 -0.316424 5.99265 0
M  V30 154 H 11.9598 0.480459 4.82514 0
M  V30 155 N 13.3029 -1.57598 0.00835791 0
M  V30 156 C 14.2329 -2.1198 -0.979113 0
M  V30 157 C 15.2139 -1.03091 -1.35301 0
M  V30 158 O 16.3989 -1.30818 -1.43528 0
M  V30 159 C 13.5289 -2.62995 -2.26828 0
M  V30 160 C 12.4829 -3.76485 -2.03576 0
M  V30 161 C 11.8089 -4.13846 -3.38579 0
M  V30 162 C 13.1089 -5.0342 -1.39161 0
M  V30 163 H 14.8029 -2.94738 -0.526281 0
M  V30 164 H 12.3489 -1.41783 -0.251704 0
M  V30 165 H 14.3019 -2.99669 -2.96271 0
M  V30 166 H 13.0259 -1.7737 -2.7424 0
M  V30 167 H 11.6849 -3.40217 -1.36557 0
M  V30 168 H 11.3329 -3.25232 -3.83709 0
M  V30 169 H 11.0329 -4.90312 -3.23834 0
M  V30 170 H 12.5569 -4.53086 -4.09323 0
M  V30 171 H 13.9709 -5.37812 -1.98573 0
M  V30 172 H 12.3679 -5.84746 -1.34878 0
M  V30 173 H 13.4379 -4.83548 -0.361868 0
M  V30 174 N 14.781 0.264519 -1.55364 0
M  V30 175 C 15.711 1.33121 -1.91836 0
M  V30 176 C 16.692 1.51101 -0.781192 0
M  V30 177 O 17.877 1.64003 -1.04003 0
M  V30 178 C 15.007 2.68921 -2.19769 0
M  V30 179 C 13.961 2.65661 -3.35571 0
M  V30 180 C 13.287 4.05093 -3.49004 0
M  V30 181 C 14.587 2.24187 -4.71739 0
M  V30 182 H 16.281 1.02844 -2.81182 0
M  V30 183 H 13.827 0.493286 -1.35287 0
M  V30 184 H 15.78 3.43663 -2.43872 0
M  V30 185 H 14.504 3.00799 -1.27231 0
M  V30 186 H 13.163 1.93377 -3.1145 0
M  V30 187 H 12.811 4.34206 -2.53917 0
M  V30 188 H 12.511 4.03804 -4.26868 0
M  V30 189 H 14.035 4.81561 -3.75408 0
M  V30 190 H 15.449 2.88654 -4.9533 0
M  V30 191 H 13.846 2.34044 -5.52579 0
M  V30 192 H 14.916 1.19327 -4.69988 0
M  V30 193 N 16.2591 1.48442 0.529413 0
M  V30 194 C 17.5071 1.56179 1.28267 0
M  V30 195 C 17.8281 0.237721 1.93546 0
M  V30 196 O 17.0981 -0.740779 1.81354 0
M  V30 197 H 15.6781 0.575367 0.476405 0
M  V30 198 H 18.3401 1.84909 0.61602 0
M  V30 199 H 17.4361 2.34312 2.06165 0
M  V30 200 N 17.7372 -0.778329 1.37039 0
M  V30 201 C 18.7002 -1.87301 1.32102 0
M  V30 202 C 19.7002 -1.59198 0.226405 0
M  V30 203 O 20.8902 -1.67403 0.481861 0
M  V30 204 C 18.0222 -3.24309 1.05055 0
M  V30 205 H 19.2152 -1.93093 2.29467 0
M  V30 206 H 16.7682 -0.977358 1.21973 0
M  V30 207 H 17.5032 -3.24196 0.0819373 0
M  V30 208 H 17.2882 -3.46098 1.84279 0
M  V30 209 H 18.7782 -4.04382 1.04234 0
M  V30 210 N 19.2153 -1.21501 -1.00376 0
M  V30 211 C 20.1783 -0.976927 -2.07337 0
M  V30 212 C 21.1783 0.0525322 -1.60714 0
M  V30 213 O 22.3683 -0.184869 -1.73216 0
M  V30 214 C 19.5003 -0.473423 -3.37597 0
M  V30 215 H 20.6933 -1.92587 -2.29892 0
M  V30 216 H 18.2463 -1.03217 -1.17371 0
M  V30 217 H 18.9813 0.480379 -3.20722 0
M  V30 218 H 18.7663 -1.216 -3.72768 0
M  V30 219 H 20.2563 -0.32675 -4.1632 0
M  V30 220 N 20.6934 1.19889 -1.02296 0
M  V30 221 C 21.9414 1.89046 -0.714558 0
M  V30 222 C 22.2624 1.79636 0.758681 0
M  V30 223 O 21.5324 1.20292 1.54618 0
M  V30 224 H 20.1124 0.699802 -0.261317 0
M  V30 225 H 22.7744 1.45574 -1.29592 0
M  V30 226 H 21.8704 2.95524 -1.0036 0
M  V30 227 N 22.1715 0.800033 1.35784 0
M  V30 228 C 23.1015 0.220184 2.3246 0
M  V30 229 C 24.0825 -0.65073 1.57161 0
M  V30 230 O 25.2675 -0.582359 1.85263 0
M  V30 231 C 22.3975 -0.637353 3.41402 0
M  V30 232 C 21.3515 0.134531 4.27789 0
M  V30 233 C 20.6775 -0.844285 5.27992 0
M  V30 234 C 21.9775 1.32979 5.05088 0
M  V30 235 H 23.6715 1.02787 2.81203 0
M  V30 236 H 21.2175 0.495717 1.35199 0
M  V30 237 H 23.1705 -1.05302 4.08031 0
M  V30 238 H 21.8945 -1.47785 2.91251 0
M  V30 239 H 20.5535 0.531296 3.6273 0
M  V30 240 H 20.2015 -1.68011 4.74111 0
M  V30 241 H 19.9015 -0.332184 5.8666 0
M  V30 242 H 21.4255 -1.2583 5.97494 0
M  V30 243 H 22.8395 0.98934 5.64699 0
M  V30 244 H 21.2365 1.77593 5.7322 0
M  V30 245 H 22.3065 2.11978 4.36111 0
M  V30 246 N 23.6496 -1.47581 0.552962 0
M  V30 247 C 24.5796 -2.32762 -0.185451 0
M  V30 248 C 25.5606 -1.43527 -0.912905 0
M  V30 249 O 26.7456 -1.72388 -0.894201 0
M  V30 250 C 23.8756 -3.25219 -1.21859 0
M  V30 251 C 22.8296 -4.23661 -0.607864 0
M  V30 252 C 22.1556 -5.05413 -1.74533 0
M  V30 253 C 23.4556 -5.20481 0.435582 0
M  V30 254 H 25.1496 -2.94749 0.525684 0
M  V30 255 H 22.6956 -1.41738 0.254251 0
M  V30 256 H 24.6486 -3.8365 -1.7433 0
M  V30 257 H 23.3726 -2.61279 -1.95961 0
M  V30 258 H 22.0316 -3.66451 -0.104489 0
M  V30 259 H 21.6796 -4.3788 -2.47529 0
M  V30 260 H 21.3796 -5.72059 -1.34249 0
M  V30 261 H 22.9036 -5.66701 -2.27338 0
M  V30 262 H 24.3176 -5.733 -0.00290157 0
M  V30 263 H 22.7146 -5.95305 0.757067 0
M  V30 264 H 23.7846 -4.66217 1.33303 0
M  V30 265 N 25.1277 -0.289203 -1.54924 0
M  V30 266 C 26.0577 0.58549 -2.2604 0
M  V30 267 C 27.0387 1.14753 -1.25562 0
M  V30 268 O 28.2237 1.17906 -1.54311 0
M  V30 269 C 25.3537 1.76305 -2.99222 0
M  V30 270 C 24.3077 1.33191 -4.06748 0
M  V30 271 C 23.6337 2.5937 -4.6758 0
M  V30 272 C 24.9337 0.471775 -5.20165 0
M  V30 273 H 26.6277 -0.00763532 -2.99399 0
M  V30 274 H 24.1737 -0.00511229 -1.43999 0
M  V30 275 H 26.1267 2.38097 -3.47689 0
M  V30 276 H 24.8507 2.38223 -2.23422 0
M  V30 277 H 23.5097 0.737121 -3.59113 0
M  V30 278 H 23.1577 3.19576 -3.88433 0
M  V30 279 H 22.8577 2.31228 -5.40192 0
M  V30 280 H 24.3817 3.21985 -5.18804 0
M  V30 281 H 25.7957 0.995056 -5.64599 0
M  V30 282 H 24.1927 0.284639 -5.99425 0
M  V30 283 H 25.2627 -0.506041 -4.82252 0
M  V30 284 N 26.6058 1.57591 -0.0167156 0
M  V30 285 C 27.5358 2.12496 0.967858 0
M  V30 286 C 28.5168 1.03807 1.34752 0
M  V30 287 O 29.7018 1.31577 1.42833 0
M  V30 288 C 26.8318 2.64194 2.25431 0
M  V30 289 C 25.7858 3.77559 2.01576 0
M  V30 290 C 25.1118 4.15636 3.36379 0
M  V30 291 C 26.4118 5.04151 1.36489 0
M  V30 292 H 28.1058 2.95013 0.510643 0
M  V30 293 H 25.6518 1.41915 0.244181 0
M  V30 294 H 27.6048 3.01236 2.94678 0
M  V30 295 H 26.3288 1.78821 2.73296 0
M  V30 296 H 24.9878 3.40937 1.34751 0
M  V30 297 H 24.6358 3.27263 3.81979 0
M  V30 298 H 24.3358 4.92022 3.21229 0
M  V30 299 H 25.8598 4.5525 4.06915 0
M  V30 300 H 27.2738 5.38857 1.95718 0
M  V30 301 H 25.6708 5.85453 1.31776 0
M  V30 302 H 26.7408 4.83733 0.336219 0
M  V30 303 N 28.0839 -0.256276 1.55502 0
M  V30 304 C 29.0139 -1.32102 1.92539 0
M  V30 305 C 29.9949 -1.50684 0.789194 0
M  V30 306 O 31.1799 -1.63449 1.04872 0
M  V30 307 C 28.3099 -2.67752 2.21192 0
M  V30 308 C 27.2639 -2.63878 3.36975 0
M  V30 309 C 26.5899 -4.03236 3.51147 0
M  V30 310 C 27.8899 -2.21682 4.72921 0
M  V30 311 H 29.5839 -1.01351 2.81724 0
M  V30 312 H 27.1299 -0.486105 1.35547 0
M  V30 313 H 29.0829 -3.42365 2.45691 0
M  V30 314 H 27.8069 -3.0012 1.28824 0
M  V30 315 H 26.4659 -1.91722 3.12471 0
M  V30 316 H 26.1139 -4.32854 2.56216 0
M  V30 317 H 25.8139 -4.01535 4.29003 0
M  V30 318 H 27.3379 -4.79563 3.77957 0
M  V30 319 H 28.7519 -2.86023 4.96854 0
M  V30 320 H 27.1489 -2.3111 5.53812 0
M  V30 321 H 28.2189 -1.16833 4.70615 0
M  V30 322 N 29.562 -1.4872 -0.521534 0
M  V30 323 C 30.492 -1.66771 -1.63431 0
M  V30 324 C 31.473 -0.516499 -1.62069 0
M  V30 325 O 32.658 -0.750013 -1.79132 0
M  V30 326 C 29.788 -1.71515 -3.01993 0
M  V30 327 C 28.742 -2.86222 -3.18216 0
M  V30 328 C 28.068 -2.76061 -4.57924 0
M  V30 329 C 29.368 -4.27419 -3.00184 0
M  V30 330 H 31.062 -2.59932 -1.48579 0
M  V30 331 H 28.608 -1.25089 -0.713358 0
M  V30 332 H 30.561 -1.82731 -3.7972 0
M  V30 333 H 29.285 -0.749393 -3.17886 0
M  V30 334 H 27.944 -2.74575 -2.42908 0
M  V30 335 H 27.592 -1.77437 -4.70665 0
M  V30 336 H 27.292 -3.53037 -4.69722 0
M  V30 337 H 28.816 -2.89256 -5.37739 0
M  V30 338 H 30.23 -4.39855 -3.67697 0
M  V30 339 H 28.627 -5.05458 -3.2347 0
M  V30 340 H 29.697 -4.43293 -1.96518 0
M  V30 341 N 31.0401 0.771051 -1.3745 0
M  V30 342 C 32.4511 1.34737 -1.29239 0
M  V30 343 C 32.8021 1.96109 0.0596908 0
M  V30 344 O 31.9271 1.93865 0.961534 0
M  V30 345 C 32.5221 2.44973 -2.34037 0
M  V30 346 C 31.0811 2.98372 -2.29458 0
M  V30 347 C 30.2281 1.71595 -2.17831 0
M  V30 348 H 33.1791 0.571256 -1.48062 0
M  V30 349 H 33.2001 3.24471 -1.98744 0
M  V30 350 H 32.7121 2.00276 -3.32432 0
M  V30 351 H 30.8131 3.47443 -1.34589 0
M  V30 352 H 30.9261 3.53939 -3.229 0
M  V30 353 H 29.2901 1.94547 -1.64388 0
M  V30 354 H 30.0731 1.29001 -3.18141 0
M  V30 355 N 32.5182 1.22032 0.997298 0
M  V30 356 C 33.4482 1.01065 2.10495 0
M  V30 357 C 34.4292 -0.0669542 1.69968 0
M  V30 358 O 35.6142 0.0943987 1.9397 0
M  V30 359 C 32.7442 0.582874 3.42374 0
M  V30 360 C 31.6982 1.60592 3.96729 0
M  V30 361 C 31.0242 1.03412 5.24605 0
M  V30 362 C 32.3242 2.99478 4.27914 0
M  V30 363 H 34.0182 1.93708 2.28292 0
M  V30 364 H 31.5642 0.932761 1.09707 0
M  V30 365 H 33.5172 0.423332 4.19268 0
M  V30 366 H 32.2412 -0.379213 3.24391 0
M  V30 367 H 30.9002 1.75316 3.21963 0
M  V30 368 H 30.5482 0.063518 5.0296 0
M  V30 369 H 30.2482 1.71754 5.61938 0
M  V30 370 H 31.7722 0.886066 6.04137 0
M  V30 371 H 33.1862 2.88153 4.95622 0
M  V30 372 H 31.5832 3.64903 4.76409 0
M  V30 373 H 32.6532 3.49742 3.3587 0
M  V30 374 N 33.9963 -1.19345 1.0293 0
M  V30 375 C 35.2213 -1.93538 0.745511 0
M  V30 376 C 35.6463 -1.75007 -0.689511 0
M  V30 377 O 35.0043 -1.05265 -1.47611 0
M  V30 378 C 35.0523 -3.43336 1.10239 0
M  V30 379 O 34.1563 -4.11806 0.221289 0
M  V30 380 H 33.4973 -0.604193 0.275404 0
M  V30 381 H 36.0273 -1.5141 1.37609 0
M  V30 382 H 36.0373 -3.94004 1.05947 0
M  V30 383 H 34.7123 -3.56146 2.14786 0
M  V30 384 H 33.2893 -3.715 0.322842 0
M  V30 385 N 35.4744 -0.807222 -1.35358 0
M  V30 386 C 36.6994 -0.399309 -2.0352 0
M  V30 387 C 37.1244 0.981986 -1.60433 0
M  V30 388 O 36.4824 1.63601 -0.781299 0
M  V30 389 C 36.5304 -0.491552 -3.57234 0
M  V30 390 O 35.6344 0.494754 -4.09421 0
M  V30 391 H 34.9754 -0.166682 -0.642739 0
M  V30 392 H 37.5054 -1.09328 -1.72941 0
M  V30 393 H 37.5154 -0.361588 -4.06395 0
M  V30 394 H 36.1904 -1.49907 -3.87944 0
M  V30 395 H 34.7674 0.324977 -3.71481 0
M  V30 396 N 36.9525 1.47285 -0.560781 0
M  V30 397 C 38.1775 2.07359 -0.0410566 0
M  V30 398 C 38.6025 1.41017 1.24483 0
M  V30 399 O 37.9605 0.486368 1.74654 0
M  V30 400 C 38.0085 3.6035 0.134123 0
M  V30 401 O 37.1125 3.94681 1.19587 0
M  V30 402 H 36.4535 0.661887 -0.0529291 0
M  V30 403 H 38.9835 1.89252 -0.777482 0
M  V30 404 H 38.9935 4.0652 0.347207 0
M  V30 405 H 37.6685 4.08034 -0.805047 0
M  V30 406 H 36.2455 3.60251 0.962987 0
M  V30 407 N 38.4306 0.297415 1.54768 0
M  V30 408 C 39.6556 -0.318435 2.04941 0
M  V30 409 C 40.0806 -1.4701 1.17345 0
M  V30 410 O 39.4386 -1.80436 0.176758 0
M  V30 411 C 39.4866 -0.755749 3.52592 0
M  V30 412 O 38.5906 -1.86088 3.68028 0
M  V30 413 H 37.9316 -0.062421 0.661059 0
M  V30 414 H 40.4616 0.438215 1.99852 0
M  V30 415 H 40.4716 -1.04552 3.94376 0
M  V30 416 H 39.1466 0.0867233 4.1581 0
M  V30 417 H 37.7236 -1.57193 3.38149 0
M  V30 418 N 39.9087 -1.5758 0.0250728 0
M  V30 419 C 41.1337 -1.96337 -0.668317 0
M  V30 420 C 41.5587 -0.901314 -1.651 0
M  V30 421 O 40.9167 0.138187 -1.80773 0
M  V30 422 C 40.9647 -3.34191 -1.35457 0
M  V30 423 O 40.0687 -3.30269 -2.46974 0
M  V30 424 H 39.4097 -0.640281 -0.175887 0
M  V30 425 H 41.9397 -2.0442 0.0857224 0
M  V30 426 H 41.9497 -3.70331 -1.71228 0
M  V30 427 H 40.6247 -4.11036 -0.634218 0
M  V30 428 H 39.2017 -3.05841 -2.13344 0
M  V30 429 N 41.3868 0.248026 -1.55636 0
M  V30 430 C 42.6118 0.998028 -1.81808 0
M  V30 431 C 43.0368 1.78207 -0.601979 0
M  V30 432 O 42.3948 1.75653 0.448961 0
M  V30 433 C 42.4428 1.9125 -3.05705 0
M  V30 434 O 41.5468 3.00406 -2.82542 0
M  V30 435 H 40.8878 0.284045 -0.600179 0
M  V30 436 H 43.4178 0.269357 -2.02819 0
M  V30 437 H 43.4278 2.32737 -3.35108 0
M  V30 438 H 42.1028 1.33602 -3.93857 0
M  V30 439 H 40.6798 2.63056 -2.64303 0
M  V30 440 N 42.8649 1.48995 0.513639 0
M  V30 441 C 44.1419 1.48338 1.27495 0
M  V30 442 C 44.5219 0.204065 2.10111 0
M  V30 443 O 43.8699 -0.813881 2.13514 0
M  V30 444 C 44.0799 2.75498 2.14247 0
M  V30 445 C 45.4279 3.24484 2.73852 0
M  V30 446 O 46.4519 2.76528 2.24523 0
M  V30 447 O 45.3109 4.07974 3.6362 0
M  V30 448 H 42.4049 0.593149 0.576284 0
M  V30 449 H 44.9509 1.61246 0.528948 0
M  V30 450 H 43.7229 3.60109 1.53092 0
M  V30 451 H 43.3459 2.6539 2.96064 0
M  V30 452 N 44.343 -0.763751 1.37857 0
M  V30 453 C 45.571 -1.55293 1.36718 0
M  V30 454 C 45.986 -1.88745 -0.0455434 0
M  V30 455 O 45.343 -1.52039 -1.00947 0
M  V30 456 C 45.394 -2.85831 2.2132 0
M  V30 457 O 45.115 -2.5381 3.57089 0
M  V30 458 C 46.616 -3.80023 2.28249 0
M  V30 459 H 43.836 -0.480841 0.468009 0
M  V30 460 H 46.38 -0.946009 1.81303 0
M  V30 461 H 44.535 -3.42926 1.80223 0
M  V30 462 H 44.949 -3.37459 4.01524 0
M  V30 463 H 46.423 -4.68599 2.91752 0
M  V30 464 H 46.9 -4.1973 1.2932 0
M  V30 465 H 47.506 -3.28855 2.69693 0
M  V30 466 N 45.8211 -1.22559 -0.990812 0
M  V30 467 C 47.0611 -1.06302 -1.74583 0
M  V30 468 C 47.4251 0.394737 -1.87898 0
M  V30 469 O 48.6261 0.678214 -2.60103 0
M  V30 470 C 46.8971 -1.75699 -3.11231 0
M  V30 471 S 48.4561 -1.74882 -4.02445 0
M  V30 472 H 45.2741 -0.380639 -0.600529 0
M  V30 473 H 47.8761 -1.55532 -1.18449 0
M  V30 474 H 46.5801 -2.80923 -2.99183 0
M  V30 475 H 46.1111 -1.26708 -3.72436 0
M  V30 476 H 48.1261 -0.799997 -4.89709 0
M  V30 477 N 47.2992 1.18797 -1.03562 0
M  V30 478 C 48.5472 1.88278 -0.734569 0
M  V30 479 C 48.8682 1.8043 0.739586 0
M  V30 480 O 48.1382 1.21925 1.53333 0
M  V30 481 H 46.7182 0.696991 -0.268725 0
M  V30 482 H 49.3802 1.44192 -1.31129 0
M  V30 483 H 48.4762 2.94443 -1.03489 0
M  V30 484 N 48.7773 0.814389 1.34928 0
M  V30 485 C 50.1883 0.458364 1.80986 0
M  V30 486 C 50.5393 -1.02042 1.67577 0
M  V30 487 O 49.6643 -1.79352 1.21086 0
M  V30 488 C 50.2593 0.825212 3.28597 0
M  V30 489 C 48.8183 0.521677 3.72767 0
M  V30 490 C 47.9653 1.04668 2.56788 0
M  V30 491 H 50.9163 1.00533 1.22795 0
M  V30 492 H 50.9373 0.12571 3.80292 0
M  V30 493 H 50.4493 1.90154 3.38324 0
M  V30 494 H 48.5503 -0.545589 3.68584 0
M  V30 495 H 48.6633 1.05977 4.67232 0
M  V30 496 H 47.0273 0.468622 2.50352 0
M  V30 497 H 47.8103 2.12927 2.6929 0
M  V30 498 N 50.2554 -1.46986 0.568584 0
M  V30 499 C 51.4954 -2.04336 0.0512999 0
M  V30 500 C 51.8594 -1.43214 -1.27881 0
M  V30 501 O 53.0604 -1.91679 -1.88448 0
M  V30 502 C 51.3314 -3.57389 -0.0282328 0
M  V30 503 S 52.8904 -4.36056 -0.489991 0
M  V30 504 H 49.7084 -0.71034 0.0306349 0
M  V30 505 H 52.3104 -1.80212 0.757891 0
M  V30 506 H 51.0144 -3.99395 0.944011 0
M  V30 507 H 50.5454 -3.86028 -0.75803 0
M  V30 508 H 52.5604 -4.6441 -1.74752 0
M  V30 509 N 51.7335 -0.305618 -1.54608 0
M  V30 510 C 52.6435 0.57778 -2.27374 0
M  V30 511 C 53.6595 1.14451 -1.31061 0
M  V30 512 O 54.8355 1.16831 -1.6405 0
M  V30 513 C 51.9005 1.73123 -3.00382 0
M  V30 514 C 50.9615 1.19812 -4.12242 0
M  V30 515 C 50.1945 2.2966 -4.81759 0
M  V30 516 O 50.4175 3.49651 -4.50666 0
M  V30 517 O 49.3515 1.96091 -5.69062 0
M  V30 518 H 53.1775 -0.012624 -3.03697 0
M  V30 519 H 50.7625 -0.0719184 -1.49227 0
M  V30 520 H 52.6445 2.40315 -3.4616 0
M  V30 521 H 51.3195 2.30815 -2.26949 0
M  V30 522 H 50.2265 0.491798 -3.70853 0
M  V30 523 H 51.5595 0.666566 -4.87666 0
M  V30 524 N 53.2116 1.57565 -0.0334293 0
M  V30 525 C 54.6226 1.79746 0.504798 0
M  V30 526 C 54.9736 0.944091 1.71992 0
M  V30 527 O 54.0986 0.155694 2.15839 0
M  V30 528 C 54.6936 3.25997 0.922567 0
M  V30 529 C 53.2526 3.49159 1.40588 0
M  V30 530 C 52.3996 2.74785 0.372633 0
M  V30 531 H 55.3506 1.56565 -0.259436 0
M  V30 532 H 55.3716 3.35945 1.78666 0
M  V30 533 H 54.8836 3.88081 0.0379825 0
M  V30 534 H 52.9846 2.92332 2.31025 0
M  V30 535 H 53.0976 4.57873 1.41028 0
M  V30 536 H 51.4616 2.40391 0.841672 0
M  V30 537 H 52.2446 3.39587 -0.503559 0
M  V30 538 N 54.6897 -0.239769 1.55765 0
M  V30 539 C 55.6527 -1.28038 1.90103 0
M  V30 540 C 56.6527 -1.40723 0.778055 0
M  V30 541 O 57.8427 -1.39301 1.04599 0
M  V30 542 C 54.9747 -2.65702 2.13577 0
M  V30 543 H 56.1677 -0.988048 2.83157 0
M  V30 544 H 53.7207 -0.479382 1.48767 0
M  V30 545 H 54.4557 -3.00063 1.23015 0
M  V30 546 H 54.2407 -2.57875 2.95369 0
M  V30 547 H 55.7307 -3.40828 2.41301 0
M  V30 548 N 56.1678 -1.49265 -0.50573 0
M  V30 549 C 57.3928 -1.62478 -1.28902 0
M  V30 550 C 57.8178 -0.294332 -1.85783 0
M  V30 551 O 57.1758 0.737412 -1.65626 0
M  V30 552 C 57.2238 -2.69268 -2.39848 0
M  V30 553 O 56.3278 -2.28113 -3.43567 0
M  V30 554 H 55.6688 -0.54399 -0.380751 0
M  V30 555 H 58.1988 -1.95421 -0.605952 0
M  V30 556 H 58.2088 -2.91291 -2.85681 0
M  V30 557 H 56.8838 -3.65846 -1.97812 0
M  V30 558 H 55.4608 -2.16401 -3.03685 0
M  V30 559 N 57.6459 0.756429 -1.3826 0
M  V30 560 C 58.8859 1.52833 -1.35725 0
M  V30 561 C 59.2499 1.91926 0.0534106 0
M  V30 562 O 60.4509 2.68028 0.203613 0
M  V30 563 C 58.7219 2.74919 -2.28373 0
M  V30 564 S 60.2809 3.64817 -2.43832 0
M  V30 565 H 57.0989 0.523043 -0.481608 0
M  V30 566 H 59.7009 0.888212 -1.74158 0
M  V30 567 H 58.4049 2.44304 -3.29763 0
M  V30 568 H 57.9359 3.43878 -1.91079 0
M  V30 569 H 59.9509 4.676 -1.66027 0
M  V30 570 N 59.124 1.23083 0.984299 0
M  V30 571 C 60.535 1.05609 1.5396 0
M  V30 572 C 60.886 -0.377793 1.92528 0
M  V30 573 O 60.011 -1.26398 1.75649 0
M  V30 574 C 60.606 1.91087 2.7977 0
M  V30 575 C 59.165 1.77885 3.31713 0
M  V30 576 C 58.312 1.87028 2.04733 0
M  V30 577 H 61.263 1.36802 0.804419 0
M  V30 578 H 61.284 1.43336 3.5247 0
M  V30 579 H 60.796 2.9544 2.51668 0
M  V30 580 H 58.897 0.762995 3.64704 0
M  V30 581 H 59.01 2.61047 4.01735 0
M  V30 582 H 57.374 1.30565 2.18689 0
M  V30 583 H 58.157 2.92929 1.79017 0
M  V30 584 N 60.6021 -1.18246 1.0419 0
M  V30 585 C 62.0131 -1.69914 0.773698 0
M  V30 586 C 62.3641 -1.83085 -0.705297 0
M  V30 587 O 61.4891 -1.51123 -1.5489 0
M  V30 588 C 62.0841 -3.08619 1.39784 0
M  V30 589 C 60.6431 -3.57494 1.17792 0
M  V30 590 C 59.7901 -2.34013 1.48773 0
M  V30 591 H 62.7411 -1.02904 1.20816 0
M  V30 592 H 62.7621 -3.71958 0.801714 0
M  V30 593 H 62.2741 -2.99001 2.47426 0
M  V30 594 H 60.3751 -3.72406 0.120295 0
M  V30 595 H 60.4881 -4.40852 1.87581 0
M  V30 596 H 58.8521 -2.37986 0.907463 0
M  V30 597 H 59.6351 -2.27013 2.57527 0
M  V30 598 N 62.0802 -0.821533 -1.34494 0
M  V30 599 C 63.0102 -0.257138 -2.3208 0
M  V30 600 C 63.9912 0.625645 -1.58176 0
M  V30 601 O 65.1762 0.552811 -1.86166 0
M  V30 602 C 62.3062 0.582958 -3.42372 0
M  V30 603 C 61.2602 -0.202571 -4.2752 0
M  V30 604 C 60.5862 0.760179 -5.29269 0
M  V30 605 C 61.8862 -1.40998 -5.02908 0
M  V30 606 H 63.5802 -1.07247 -2.79532 0
M  V30 607 H 61.1262 -0.517163 -1.34393 0
M  V30 608 H 63.0792 0.987972 -4.09655 0
M  V30 609 H 61.8032 1.43133 -2.93565 0
M  V30 610 H 60.4622 -0.588936 -3.61838 0
M  V30 611 H 60.1102 1.60447 -4.76724 0
M  V30 612 H 59.8102 0.238809 -5.87115 0
M  V30 613 H 61.3342 1.16308 -5.9942 0
M  V30 614 H 62.7482 -1.07905 -5.63054 0
M  V30 615 H 61.1452 -1.86689 -5.70322 0
M  V30 616 H 62.2152 -2.1889 -4.32684 0
M  V30 617 N 63.5583 1.46682 -0.576371 0
M  V30 618 C 64.9693 1.86112 -0.148091 0
M  V30 619 C 65.3203 1.48073 1.2872 0
M  V30 620 O 64.4453 0.892656 1.97131 0
M  V30 621 C 65.0403 3.37786 -0.261982 0
M  V30 622 C 63.5993 3.76235 0.111384 0
M  V30 623 C 62.7463 2.70713 -0.60083 0
M  V30 624 H 65.6973 1.37927 -0.78497 0
M  V30 625 H 65.7183 3.77007 0.514364 0
M  V30 626 H 65.2303 3.6544 -1.30671 0
M  V30 627 H 63.3313 3.54198 1.15649 0
M  V30 628 H 63.4443 4.78391 -0.26052 0
M  V30 629 H 61.8083 2.54666 -0.0417783 0
M  V30 630 H 62.5913 3.01208 -1.64708 0
M  V30 631 N 65.0364 0.313813 1.54444 0
M  V30 632 C 66.4474 -0.176243 1.85866 0
M  V30 633 C 66.7984 -1.52405 1.23561 0
M  V30 634 O 65.9234 -2.09605 0.538016 0
M  V30 635 C 66.5184 -0.32657 3.37222 0
M  V30 636 C 65.0774 -0.760846 3.6863 0
M  V30 637 C 64.2244 0.123247 2.77026 0
M  V30 638 H 67.1754 0.534418 1.49431 0
M  V30 639 H 67.1964 -1.15908 3.62416 0
M  V30 640 H 66.7084 0.654531 3.82541 0
M  V30 641 H 64.8094 -1.75204 3.28838 0
M  V30 642 H 64.9224 -0.571353 4.75681 0
M  V30 643 H 63.2864 -0.399597 2.51546 0
M  V30 644 H 64.0694 1.10094 3.25168 0
M  V30 645 N 66.5145 -1.57545 0.0417849 0
M  V30 646 C 67.4445 -2.14009 -0.933929 0
M  V30 647 C 68.4255 -1.05938 -1.33083 0
M  V30 648 O 69.6105 -1.33833 -1.40721 0
M  V30 649 C 66.7405 -2.67747 -2.21199 0
M  V30 650 C 65.6945 -3.80718 -1.95544 0
M  V30 651 C 65.0205 -4.20935 -3.29724 0
M  V30 652 C 66.3205 -5.06258 -1.28452 0
M  V30 653 H 68.0145 -2.95788 -0.463645 0
M  V30 654 H 65.5605 -1.42285 -0.221573 0
M  V30 655 H 67.5135 -3.05886 -2.89848 0
M  V30 656 H 66.2375 -1.83147 -2.70416 0
M  V30 657 H 64.8965 -3.43037 -1.2931 0
M  V30 658 H 64.5445 -3.33298 -3.76724 0
M  V30 659 H 64.2445 -4.9707 -3.13361 0
M  V30 660 H 65.7685 -4.61666 -3.9962 0
M  V30 661 H 67.1825 -5.41903 -1.8712 0
M  V30 662 H 65.5795 -5.87475 -1.22445 0
M  V30 663 H 66.6495 -4.84207 -0.259219 0
M  V30 664 N 67.9926 0.231505 -1.5589 0
M  V30 665 C 69.2406 0.955461 -1.78088 0
M  V30 666 C 69.5616 1.85262 -0.608533 0
M  V30 667 O 68.8316 1.92277 0.375035 0
M  V30 668 H 67.4116 0.355787 -0.656829 0
M  V30 669 H 70.0736 0.245751 -1.93344 0
M  V30 670 H 69.1696 1.56814 -2.69844 0
M  V30 671 N 69.4707 1.49531 0.497807 0
M  V30 672 C 70.7107 1.60799 1.26187 0
M  V30 673 C 71.0747 0.289627 1.89803 0
M  V30 674 O 72.2757 0.277512 2.67364 0
M  V30 675 C 70.5467 2.73729 2.29798 0
M  V30 676 S 72.1057 3.04968 3.155 0
M  V30 677 H 68.9237 0.567145 0.428798 0
M  V30 678 H 71.5257 1.87204 0.563477 0
M  V30 679 H 70.2297 3.68036 1.81597 0
M  V30 680 H 69.7607 2.49328 3.04301 0
M  V30 681 H 71.7757 2.46735 4.30507 0
M  V30 682 N 70.9488 -0.749086 1.3866 0
M  V30 683 C 71.8788 -1.8764 1.38973 0
M  V30 684 C 72.8598 -1.68178 0.255004 0
M  V30 685 O 74.0448 -1.88704 0.458754 0
M  V30 686 C 71.1748 -3.25222 1.21851 0
M  V30 687 C 70.1288 -3.59295 2.32575 0
M  V30 688 C 69.4548 -4.95663 2.00555 0
M  V30 689 C 70.7548 -3.63709 3.7485 0
M  V30 690 H 72.4488 -1.87635 2.3331 0
M  V30 691 H 69.9948 -0.901329 1.12303 0
M  V30 692 H 71.9478 -4.03746 1.20695 0
M  V30 693 H 70.6718 -3.25719 0.239775 0
M  V30 694 H 69.3308 -2.83093 2.32925 0
M  V30 695 H 68.9788 -4.92724 1.01154 0
M  V30 696 H 68.6788 -5.19429 2.74714 0
M  V30 697 H 70.2028 -5.7656 2.01024 0
M  V30 698 H 71.6168 -4.32338 3.76506 0
M  V30 699 H 70.0138 -3.98986 4.48252 0
M  V30 700 H 71.0838 -2.63834 4.06841 0
M  V30 701 N 72.4269 -1.23603 -0.977757 0
M  V30 702 C 73.3569 -1.04401 -2.0886 0
M  V30 703 C 74.3379 0.0399052 -1.70053 0
M  V30 704 O 75.5229 -0.125246 -1.93796 0
M  V30 705 C 72.6529 -0.637269 -3.41403 0
M  V30 706 C 71.6069 -1.66883 -3.94124 0
M  V30 707 C 70.9329 -1.11745 -5.22893 0
M  V30 708 C 72.2329 -3.06247 -4.23096 0
M  V30 709 H 73.9269 -1.97316 -2.25182 0
M  V30 710 H 71.4729 -0.950096 -1.08209 0
M  V30 711 H 73.4259 -0.48998 -4.18542 0
M  V30 712 H 72.1499 0.327557 -3.24953 0
M  V30 713 H 70.8089 -1.80416 -3.19133 0
M  V30 714 H 70.4569 -0.143527 -5.02795 0
M  V30 715 H 70.1569 -1.80672 -5.59134 0
M  V30 716 H 71.6809 -0.982067 -6.02651 0
M  V30 717 H 73.0949 -2.96001 -4.90975 0
M  V30 718 H 71.4919 -3.72436 -4.70544 0
M  V30 719 H 72.5619 -3.55041 -3.30263 0
M  V30 720 N 73.905 1.17692 -1.04816 0
M  V30 721 C 75.153 1.87488 -0.754497 0
M  V30 722 C 75.474 1.81205 0.720407 0
M  V30 723 O 74.744 1.23544 1.52032 0
M  V30 724 H 73.324 0.694101 -0.276102 0
M  V30 725 H 75.986 1.42793 -1.32651 0
M  V30 726 H 75.082 2.93328 -1.06606 0
M  V30 727 N 75.3831 0.828654 1.34056 0
M  V30 728 C 76.2931 0.256725 2.33191 0
M  V30 729 C 77.3091 -0.611898 1.62886 0
M  V30 730 O 78.4851 -0.51844 1.94613 0
M  V30 731 C 75.5501 -0.567238 3.42028 0
M  V30 732 C 74.6111 0.324458 4.28072 0
M  V30 733 C 73.8441 -0.460274 5.31712 0
M  V30 734 O 74.0671 -1.693 5.44696 0
M  V30 735 O 73.0011 0.160391 6.01686 0
M  V30 736 H 76.8271 1.07739 2.83947 0
M  V30 737 H 74.4121 0.59093 1.37217 0
M  V30 738 H 76.2941 -1.03582 4.08471 0
M  V30 739 H 74.9691 -1.36513 2.93506 0
M  V30 740 H 73.8761 0.840659 3.64532 0
M  V30 741 H 75.2091 1.08685 4.8005 0
M  V30 742 N 76.8612 -1.46375 0.584142 0
M  V30 743 C 78.0892 -2.06761 0.0759296 0
M  V30 744 C 78.5042 -1.43266 -1.22965 0
M  V30 745 O 77.8612 -0.538458 -1.74376 0
M  V30 746 C 77.9122 -3.61375 -0.0950384 0
M  V30 747 O 77.6332 -4.22495 1.15887 0
M  V30 748 C 79.1342 -4.38693 -0.637434 0
M  V30 749 H 76.3542 -0.668479 0.0581075 0
M  V30 750 H 78.8982 -1.8798 0.805218 0
M  V30 751 H 77.0532 -3.79578 -0.774554 0
M  V30 752 H 77.4672 -5.15385 0.973598 0
M  V30 753 H 78.9412 -5.47464 -0.706237 0
M  V30 754 H 79.4182 -4.06836 -1.65472 0
M  V30 755 H 80.0242 -4.25299 0.00725967 0
M  V30 756 N 78.3393 -0.321999 -1.54275 0
M  V30 757 C 79.7553 0.0306999 -1.5957 0
M  V30 758 C 79.9553 1.50614 -1.33857 0
M  V30 759 O 79.0113 2.2619 -1.12223 0
M  V30 760 C 80.3243 -0.386122 -2.98211 0
M  V30 761 C 81.8723 -0.336647 -3.11184 0
M  V30 762 C 82.3473 -0.728607 -4.52167 0
M  V30 763 N 83.8383 -0.681952 -4.58152 0
M  V30 764 C 84.5733 -0.957449 -5.6535 0
M  V30 765 N 84.0693 -1.3 -6.80494 0
M  V30 766 N 85.8623 -0.883113 -5.55119 0
M  V30 767 H 78.0133 -1.28332 -1.69247 0
M  V30 768 H 80.2763 -0.521716 -0.791528 0
M  V30 769 H 79.9823 -1.41404 -3.22022 0
M  V30 770 H 79.8563 0.249662 -3.76373 0
M  V30 771 H 82.2433 0.682058 -2.8711 0
M  V30 772 H 82.3243 -1.00734 -2.3513 0
M  V30 773 H 81.9683 -1.74522 -4.76974 0
M  V30 774 H 81.8983 -0.0356152 -5.26588 0
M  V30 775 H 84.3893 -0.428985 -3.75457 0
M  V30 776 H 84.7023 -1.49563 -7.58189 0
M  V30 777 H 83.0473 -1.33824 -6.81994 0
M  V30 778 H 86.2383 -0.615001 -4.64042 0
M  V30 779 H 86.4113 -1.10118 -6.38575 0
M  V30 780 N 79.8174 1.5752 -0.0501392 0
M  V30 781 C 81.0944 1.83996 0.663685 0
M  V30 782 C 81.4744 0.938339 1.89099 0
M  V30 783 O 80.8224 -0.00087759 2.285 0
M  V30 784 C 81.0324 3.33702 1.02196 0
M  V30 785 C 82.3804 4.00691 1.40469 0
M  V30 786 O 83.4044 3.38321 1.11433 0
M  V30 787 O 82.2634 5.10658 1.94654 0
M  V30 788 H 79.3574 0.759385 0.32751 0
M  V30 789 H 81.9034 1.69514 -0.0794238 0
M  V30 790 H 80.6754 3.91015 0.149364 0
M  V30 791 H 80.2984 3.53368 1.82255 0
M  V30 792 N 81.2955 -0.223234 1.56011 0
M  V30 793 C 82.2585 -1.26014 1.9145 0
M  V30 794 C 83.2585 -1.3989 0.792937 0
M  V30 795 O 84.4485 -1.38184 1.0607 0
M  V30 796 C 81.5805 -2.63422 2.16383 0
M  V30 797 H 82.7735 -0.95796 2.84189 0
M  V30 798 H 80.3265 -0.463576 1.49267 0
M  V30 799 H 81.0615 -2.98741 1.2619 0
M  V30 800 H 80.8465 -2.54728 2.98088 0
M  V30 801 H 82.3365 -3.38249 2.44903 0
M  V30 802 N 82.7736 -1.49793 -0.48987 0
M  V30 803 C 84.0136 -1.61466 -1.25332 0
M  V30 804 C 84.3776 -0.299688 -1.89647 0
M  V30 805 O 85.5786 -0.291687 -2.67213 0
M  V30 806 C 83.8496 -2.74944 -2.28343 0
M  V30 807 S 85.4086 -3.06637 -3.13878 0
M  V30 808 H 82.2266 -0.569411 -0.425784 0
M  V30 809 H 84.8286 -1.875 -0.553541 0
M  V30 810 H 83.5326 -3.68994 -1.79643 0
M  V30 811 H 83.0636 -2.50938 -3.02975 0
M  V30 812 H 85.0786 -2.49015 -4.29192 0
M  V30 813 N 84.2517 0.741722 -1.39055 0
M  V30 814 C 85.4997 1.49818 -1.35643 0
M  V30 815 C 85.8207 1.94938 0.0491642 0
M  V30 816 O 85.0907 1.68505 0.999141 0
M  V30 817 H 83.6707 0.555755 -0.499144 0
M  V30 818 H 86.3327 0.880957 -1.73854 0
M  V30 819 H 85.4287 2.38348 -2.01486 0
M  V30 820 N 85.7298 1.2412 0.971189 0
M  V30 821 C 86.9698 1.09066 1.7287 0
M  V30 822 C 87.3338 -0.364794 1.88503 0
M  V30 823 O 88.5348 -0.636748 2.61149 0
M  V30 824 C 86.8058 1.80629 3.08396 0
M  V30 825 S 88.3648 1.81263 3.99611 0
M  V30 826 H 85.1828 0.390145 0.594397 0
M  V30 827 H 87.7848 1.57397 1.15959 0
M  V30 828 H 86.4888 2.85647 2.94676 0
M  V30 829 H 86.0198 1.32617 3.70373 0
M  V30 830 H 88.0348 0.877804 4.88374 0
M  V30 831 N 87.2079 -1.17134 1.05439 0
M  V30 832 C 88.4479 -1.89137 0.77502 0
M  V30 833 C 88.8119 -1.79345 -0.685526 0
M  V30 834 O 90.0129 -2.46188 -1.0791 0
M  V30 835 C 88.2839 -3.35003 1.2453 0
M  V30 836 S 89.8429 -4.24952 1.09367 0
M  V30 837 H 86.6609 -0.652949 0.281387 0
M  V30 838 H 89.2629 -1.4145 1.34953 0
M  V30 839 H 87.9669 -3.39666 2.30338 0
M  V30 840 H 87.4979 -3.87736 0.665166 0
M  V30 841 H 89.5129 -4.96196 0.0193397 0
M  V30 842 N 88.686 -0.835752 -1.33615 0
M  V30 843 C 90.097 -0.487099 -1.80234 0
M  V30 844 C 90.448 0.993627 -1.69179 0
M  V30 845 O 89.573 1.77403 -1.23924 0
M  V30 846 C 90.168 -0.877385 -3.27242 0
M  V30 847 C 88.727 -0.580915 -3.7189 0
M  V30 848 C 87.874 -1.0874 -2.5509 0
M  V30 849 H 90.825 -1.02474 -1.2118 0
M  V30 850 H 90.846 -0.186195 -3.80044 0
M  V30 851 H 90.358 -1.95512 -3.35256 0
M  V30 852 H 88.459 0.486881 -3.69405 0
M  V30 853 H 88.572 -1.13396 -4.65487 0
M  V30 854 H 86.936 -0.508392 -2.49575 0
M  V30 855 H 87.719 -2.17184 -2.65868 0
M  V30 856 N 90.1641 1.46063 -0.591896 0
M  V30 857 C 91.0971 2.27452 0.184617 0
M  V30 858 C 92.0751 1.36188 0.888351 0
M  V30 859 O 93.2591 1.65606 0.90039 0
M  V30 860 C 90.3861 3.14162 1.26571 0
M  V30 861 C 89.4321 4.21255 0.666814 0
M  V30 862 S 90.2651 5.33034 -0.513345 0
M  V30 863 C 91.4211 6.23311 0.56872 0
M  V30 864 H 91.6541 2.92963 -0.505939 0
M  V30 865 H 89.1871 1.49676 -0.379014 0
M  V30 866 H 91.1451 3.6468 1.88463 0
M  V30 867 H 89.8061 2.47946 1.92826 0
M  V30 868 H 88.9991 4.81788 1.47974 0
M  V30 869 H 88.6011 3.73797 0.123359 0
M  V30 870 H 90.8931 6.61758 1.45198 0
M  V30 871 H 91.8361 7.081 -7.23824e-05 0
M  V30 872 H 92.2441 5.57646 0.876996 0
M  V30 873 N 91.6422 0.330177 1.54103 0
M  V30 874 C 92.8822 -0.270916 2.02597 0
M  V30 875 C 93.2462 -1.48826 1.21304 0
M  V30 876 O 94.4472 -2.16266 1.59633 0
M  V30 877 C 92.7182 -0.590328 3.52491 0
M  V30 878 S 94.2772 -1.17014 4.2291 0
M  V30 879 H 91.0952 -0.0815379 0.706309 0
M  V30 880 H 93.6972 0.464835 1.89893 0
M  V30 881 H 92.4012 0.303691 4.09275 0
M  V30 882 H 91.9322 -1.3561 3.69288 0
M  V30 883 H 93.9472 -2.45662 4.3112 0
M  V30 884 N 93.1203 -1.57491 0.0584922 0
M  V30 885 C 94.0833 -2.1085 -0.898617 0
M  V30 886 C 95.0833 -1.02964 -1.23511 0
M  V30 887 O 96.2733 -1.29007 -1.17059 0
M  V30 888 C 93.4053 -2.59881 -2.20623 0
M  V30 889 H 94.5983 -2.96715 -0.435936 0
M  V30 890 H 92.1513 -1.55141 -0.190023 0
M  V30 891 H 92.8863 -1.77431 -2.71457 0
M  V30 892 H 92.6713 -3.38727 -1.97501 0
M  V30 893 H 94.1613 -3.01285 -2.89166 0
M  V30 894 N 94.5984 0.214957 -1.56127 0
M  V30 895 C 96.0144 0.564948 -1.49267 0
M  V30 896 C 96.2144 1.86827 -0.754838 0
M  V30 897 O 95.2704 2.50745 -0.297198 0
M  V30 898 C 96.5834 0.638071 -2.93852 0
M  V30 899 C 98.1314 0.728253 -3.0441 0
M  V30 900 C 98.6064 0.832663 -4.50367 0
M  V30 901 N 100.097 0.896712 -4.54437 0
M  V30 902 C 100.832 0.997324 -5.6466 0
M  V30 903 N 100.328 1.06147 -6.8462 0
M  V30 904 N 102.121 1.03297 -5.52527 0
M  V30 905 H 94.2724 -0.640211 -2.02522 0
M  V30 906 H 96.5354 -0.225507 -0.920788 0
M  V30 907 H 96.2414 -0.250126 -3.50809 0
M  V30 908 H 96.1154 1.49947 -3.46115 0
M  V30 909 H 98.5024 1.60689 -2.47514 0
M  V30 910 H 98.5834 -0.158952 -2.55306 0
M  V30 911 H 98.2274 -0.0415417 -5.07883 0
M  V30 912 H 98.1574 1.73538 -4.97184 0
M  V30 913 H 100.648 0.857188 -3.6805 0
M  V30 914 H 100.961 1.1382 -7.64372 0
M  V30 915 H 99.3064 1.03049 -6.87318 0
M  V30 916 H 102.497 0.979558 -4.57736 0
M  V30 917 H 102.67 1.10793 -6.38458 0
M  V30 918 N 96.0765 1.50051 0.48192 0
M  V30 919 C 97.3245 1.60181 1.23234 0
M  V30 920 C 97.6455 0.299176 1.92691 0
M  V30 921 O 96.9155 -0.682708 1.83619 0
M  V30 922 H 95.4955 0.590232 0.457859 0
M  V30 923 H 98.1575 1.86775 0.556881 0
M  V30 924 H 97.2535 2.40753 1.98607 0
M  V30 925 N 97.5546 -0.734337 1.39446 0
M  V30 926 C 98.4646 -1.87879 1.40495 0
M  V30 927 C 99.4806 -1.714 0.299672 0
M  V30 928 O 100.657 -1.93991 0.541249 0
M  V30 929 C 97.7216 -3.23477 1.24754 0
M  V30 930 C 96.7826 -3.52344 2.45259 0
M  V30 931 C 96.0156 -4.81473 2.30259 0
M  V30 932 O 96.2386 -5.55237 1.30643 0
M  V30 933 O 95.1726 -5.10254 3.19256 0
M  V30 934 H 98.9986 -1.89949 2.36966 0
M  V30 935 H 96.5836 -0.882243 1.20569 0
M  V30 936 H 98.4656 -4.04509 1.18111 0
M  V30 937 H 97.1406 -3.22176 0.313781 0
M  V30 938 H 96.0476 -2.71396 2.57478 0
M  V30 939 H 97.3806 -3.58426 3.37331 0
M  V30 940 N 99.0327 -1.24633 -0.964593 0
M  V30 941 C 100.281 -1.08573 -1.70459 0
M  V30 942 C 100.602 0.375655 -1.91347 0
M  V30 943 O 99.8717 1.26779 -1.49345 0
M  V30 944 H 98.4517 -0.398784 -0.631649 0
M  V30 945 H 101.114 -1.56601 -1.16026 0
M  V30 946 H 100.21 -1.58623 -2.68785 0
M  V30 947 N 100.511 1.16574 -1.06058 0
M  V30 948 C 101.421 2.2452 -0.680282 0
M  V30 949 C 102.437 1.71348 0.302604 0
M  V30 950 O 103.613 2.00822 0.152513 0
M  V30 951 C 100.678 3.46629 -0.0700315 0
M  V30 952 C 99.7388 4.14849 -1.10448 0
M  V30 953 C 98.9718 5.31129 -0.523256 0
M  V30 954 O 99.1948 5.66514 0.664709 0
M  V30 955 O 98.1288 5.88526 -1.26179 0
M  V30 956 H 101.955 2.59355 -1.58015 0
M  V30 957 H 99.5398 1.24043 -0.832694 0
M  V30 958 H 101.422 4.20543 0.268667 0
M  V30 959 H 100.097 3.13573 0.803353 0
M  V30 960 H 99.0038 3.42916 -1.49532 0
M  V30 961 H 100.337 4.51954 -1.94931 0
M  V30 962 N 101.989 0.842826 1.3317 0
M  V30 963 C 103.4 0.496651 1.79973 0
M  V30 964 C 103.751 -0.984641 1.69703 0
M  V30 965 O 102.876 -1.76743 1.24863 0
M  V30 966 C 103.471 0.894727 3.26772 0
M  V30 967 C 102.03 0.600629 3.71577 0
M  V30 968 C 101.177 1.10091 2.5451 0
M  V30 969 H 104.128 1.03116 1.20635 0
M  V30 970 H 104.149 0.206347 3.7994 0
M  V30 971 H 103.661 1.97287 3.34215 0
M  V30 972 H 101.762 -0.467284 3.69658 0
M  V30 973 H 101.875 1.15863 4.64879 0
M  V30 974 H 100.239 0.52162 2.49301 0
M  V30 975 H 101.022 2.18591 2.64713 0
M  V30 976 N 103.467 -1.45747 0.599634 0
M  V30 977 C 104.707 -2.04181 0.0946309 0
M  V30 978 C 105.071 -1.45895 -1.24815 0
M  V30 979 O 106.272 -1.95633 -1.8434 0
M  V30 980 C 104.543 -3.57368 0.047581 0
M  V30 981 S 106.102 -4.36997 -0.397387 0
M  V30 982 H 102.92 -0.70953 0.0456954 0
M  V30 983 H 105.522 -1.78564 0.795946 0
M  V30 984 H 104.226 -3.97303 1.02852 0
M  V30 985 H 103.757 -3.87549 -0.675977 0
M  V30 986 H 105.772 -4.68012 -1.64862 0
M  V30 987 N 104.945 -0.338344 -1.53925 0
M  V30 988 C 106.193 0.259245 -2.0043 0
M  V30 989 C 106.514 1.51484 -1.22791 0
M  V30 990 O 105.784 1.93037 -0.33368 0
M  V30 991 H 104.364 0.0987845 -0.740439 0
M  V30 992 H 107.026 -0.458302 -1.89435 0
M  V30 993 H 106.122 0.505334 -3.07982 0
M  V30 994 N 106.423 1.57458 -0.0668435 0
M  V30 995 C 107.671 1.92919 0.602214 0
M  V30 996 C 107.992 0.947215 1.70449 0
M  V30 997 O 107.262 -0.00544117 1.95899 0
M  V30 998 H 105.842 0.71217 0.22544 0
M  V30 999 H 108.504 1.94508 -0.123535 0
M  V30 1000 H 107.6 2.94589 1.03073 0
M  V30 1001 N 107.901 -0.206675 1.56239 0
M  V30 1002 C 109.149 -0.927007 1.79586 0
M  V30 1003 C 109.47 -1.8427 0.637929 0
M  V30 1004 O 108.74 -1.92849 -0.344398 0
M  V30 1005 H 107.32 -0.345292 0.662407 0
M  V30 1006 H 109.982 -0.21496 1.93711 0
M  V30 1007 H 109.078 -1.52501 2.72305 0
M  V30 1008 N 109.379 -1.50304 -0.473955 0
M  V30 1009 C 110.627 -1.60832 -1.22382 0
M  V30 1010 C 110.948 -0.30939 -1.9253 0
M  V30 1011 O 110.218 0.67296 -1.83978 0
M  V30 1012 H 108.798 -0.592652 -0.454723 0
M  V30 1013 H 111.46 -1.87068 -0.546968 0
M  V30 1014 H 110.556 -2.41803 -1.97327 0
M  V30 1015 N 110.857 0.726932 -1.39834 0
M  V30 1016 C 111.82 1.82269 -1.38962 0
M  V30 1017 C 112.82 1.58248 -0.285334 0
M  V30 1018 O 114.01 1.65499 -0.54366 0
M  V30 1019 C 111.142 3.20186 -1.17019 0
M  V30 1020 H 112.335 1.84443 -2.36476 0
M  V30 1021 H 109.888 0.931416 -1.25516 0
M  V30 1022 H 110.623 3.23669 -0.202204 0
M  V30 1023 H 110.408 3.3902 -1.96998 0
M  V30 1024 H 111.898 4.00235 -1.1917 0
M  V30 1025 N 112.336 1.25143 0.95797 0
M  V30 1026 C 113.584 1.09476 1.69881 0
M  V30 1027 C 113.905 -0.365502 1.91544 0
M  V30 1028 O 113.175 -1.25985 1.50015 0
M  V30 1029 H 111.755 0.402128 0.629525 0
M  V30 1030 H 114.417 1.57214 1.15194 0
M  V30 1031 H 113.513 1.60046 2.6794 0
M  V30 1032 N 113.814 -1.1601 1.06675 0
M  V30 1033 C 115.23 -1.38622 0.790948 0
M  V30 1034 C 115.43 -1.92109 -0.607965 0
M  V30 1035 O 114.486 -2.12239 -1.36787 0
M  V30 1036 C 115.799 -2.36347 1.85905 0
M  V30 1037 C 117.347 -2.50023 1.88301 0
M  V30 1038 C 117.822 -3.51033 2.94176 0
M  V30 1039 N 119.313 -3.58563 2.93235 0
M  V30 1040 C 120.048 -4.36521 3.71803 0
M  V30 1041 N 119.544 -5.17869 4.602 0
M  V30 1042 N 121.337 -4.31541 3.60178 0
M  V30 1043 H 113.488 -0.796294 1.96908 0
M  V30 1044 H 115.751 -0.412597 0.853503 0
M  V30 1045 H 115.457 -2.04147 2.86386 0
M  V30 1046 H 115.331 -3.36042 1.71334 0
M  V30 1047 H 117.718 -2.81524 0.884769 0
M  V30 1048 H 117.799 -1.5035 2.06951 0
M  V30 1049 H 117.443 -3.20268 3.94196 0
M  V30 1050 H 117.373 -4.50445 2.72776 0
M  V30 1051 H 119.864 -3.00496 2.29152 0
M  V30 1052 H 120.177 -5.74578 5.16797 0
M  V30 1053 H 118.522 -5.17199 4.64253 0
M  V30 1054 H 121.713 -3.67051 2.90502 0
M  V30 1055 H 121.886 -4.9205 4.21653 0
M  V30 1056 N 115.292 -0.849877 -1.32721 0
M  V30 1057 C 116.54 -0.450032 -1.97026 0
M  V30 1058 C 116.861 0.996604 -1.67609 0
M  V30 1059 O 116.131 1.6958 -0.980786 0
M  V30 1060 H 114.711 -0.163426 -0.728904 0
M  V30 1061 H 117.373 -1.08526 -1.6189 0
M  V30 1062 H 116.469 -0.591146 -3.0645 0
M  V30 1063 N 116.77 1.45427 -0.607355 0
M  V30 1064 C 118 2.06314 -0.108656 0
M  V30 1065 C 118.408 1.45269 1.21217 0
M  V30 1066 O 117.751 0.561115 1.74921 0
M  V30 1067 C 117.813 3.59345 0.105618 0
M  V30 1068 C 117.477 4.42723 -1.13337 0
M  V30 1069 C 118.474 4.77715 -2.05145 0
M  V30 1070 C 116.159 4.83478 -1.36213 0
M  V30 1071 C 118.153 5.52317 -3.18158 0
M  V30 1072 C 115.84 5.57835 -2.49527 0
M  V30 1073 C 116.838 5.92171 -3.40327 0
M  V30 1074 O 116.526 6.65019 -4.51669 0
M  V30 1075 H 116.258 0.672782 -0.0658842 0
M  V30 1076 H 118.812 1.87664 -0.834945 0
M  V30 1077 H 117.042 3.76394 0.886796 0
M  V30 1078 H 118.731 4.02076 0.555886 0
M  V30 1079 H 119.497 4.46787 -1.88697 0
M  V30 1080 H 115.376 4.56188 -0.664362 0
M  V30 1081 H 118.92 5.79036 -3.89054 0
M  V30 1082 H 114.817 5.88177 -2.65928 0
M  V30 1083 H 115.585 6.83469 -4.50348 0
M  V30 1084 N 118.248 0.346503 1.53744 0
M  V30 1085 C 119.488 -0.249413 2.02873 0
M  V30 1086 C 119.852 -1.47532 1.22876 0
M  V30 1087 O 121.053 -2.1456 1.61918 0
M  V30 1088 C 119.324 -0.552909 3.53097 0
M  V30 1089 S 120.883 -1.12521 4.24128 0
M  V30 1090 H 117.701 -0.074042 0.707134 0
M  V30 1091 H 120.303 0.48495 1.8939 0
M  V30 1092 H 119.007 0.347083 4.0893 0
M  V30 1093 H 118.538 -1.31686 3.70705 0
M  V30 1094 H 120.553 -2.41075 4.33702 0
M  V30 1095 N 119.726 -1.57421 0.075193 0
M  V30 1096 C 120.689 -2.11791 -0.876203 0
M  V30 1097 C 121.689 -1.04268 -1.22412 0
M  V30 1098 O 122.879 -1.30242 -1.15684 0
M  V30 1099 C 120.011 -2.62207 -2.17854 0
M  V30 1100 H 121.204 -2.9716 -0.40444 0
M  V30 1101 H 118.757 -1.55333 -0.173557 0
M  V30 1102 H 119.492 -1.803 -2.6956 0
M  V30 1103 H 119.277 -3.40802 -1.93897 0
M  V30 1104 H 120.767 -3.04335 -2.85955 0
M  V30 1105 N 121.204 0.198386 -1.56346 0
M  V30 1106 C 122.615 0.763358 -1.70381 0
M  V30 1107 C 122.966 1.83995 -0.681203 0
M  V30 1108 O 122.091 2.15785 0.16305 0
M  V30 1109 C 122.686 1.39143 -3.08909 0
M  V30 1110 C 121.245 1.90352 -3.2472 0
M  V30 1111 C 120.392 0.772233 -2.6633 0
M  V30 1112 H 123.343 -0.0266377 -1.58678 0
M  V30 1113 H 123.364 2.26076 -3.06055 0
M  V30 1114 H 122.876 0.607638 -3.83314 0
M  V30 1115 H 120.977 2.71461 -2.55225 0
M  V30 1116 H 121.09 2.06757 -4.3219 0
M  V30 1117 H 119.454 1.18566 -2.2542 0
M  V30 1118 H 120.237 0.00073556 -3.433 0
M  V30 1119 N 122.682 1.50554 0.465978 0
M  V30 1120 C 123.93 1.61479 1.21528 0
M  V30 1121 C 124.251 0.319596 1.92363 0
M  V30 1122 O 123.521 -0.663194 1.84333 0
M  V30 1123 H 122.101 0.595055 0.451573 0
M  V30 1124 H 124.763 1.87355 0.53704 0
M  V30 1125 H 123.859 2.42846 1.96042 0
M  V30 1126 N 124.16 -0.719506 1.40217 0
M  V30 1127 C 125.093 -1.84298 1.34571 0
M  V30 1128 C 126.071 -1.61149 0.216741 0
M  V30 1129 O 127.255 -1.84212 0.399756 0
M  V30 1130 C 124.382 -3.20568 1.09335 0
M  V30 1131 C 123.428 -3.62551 2.24631 0
M  V30 1132 S 124.261 -3.7012 3.87004 0
M  V30 1133 C 125.417 -5.09154 3.64024 0
M  V30 1134 H 125.65 -1.88807 2.2965 0
M  V30 1135 H 123.183 -0.885901 1.26456 0
M  V30 1136 H 125.141 -3.99246 0.954602 0
M  V30 1137 H 123.802 -3.13696 0.159164 0
M  V30 1138 H 122.995 -4.61483 2.02606 0
M  V30 1139 H 122.597 -2.91119 2.34789 0
M  V30 1140 H 124.889 -5.95955 3.22248 0
M  V30 1141 H 125.832 -5.36213 4.62473 0
M  V30 1142 H 126.24 -4.79562 2.97793 0
M  V30 1143 N 125.638 -1.25649 -0.95132 0
M  V30 1144 C 126.548 -1.08073 -2.08224 0
M  V30 1145 C 127.564 -0.0169666 -1.73992 0
M  V30 1146 O 128.74 -0.218593 -2.0021 0
M  V30 1147 C 125.805 -0.704922 -3.39458 0
M  V30 1148 C 124.866 -1.84699 -3.87537 0
M  V30 1149 C 124.099 -1.48902 -5.12508 0
M  V30 1150 O 124.322 -0.386156 -5.69091 0
M  V30 1151 O 123.256 -2.32033 -5.55378 0
M  V30 1152 H 127.082 -2.02924 -2.25954 0
M  V30 1153 H 124.667 -1.04618 -1.06656 0
M  V30 1154 H 126.549 -0.507609 -4.18332 0
M  V30 1155 H 125.224 0.214291 -3.2299 0
M  V30 1156 H 124.131 -2.09919 -3.09653 0
M  V30 1157 H 125.464 -2.74557 -4.08509 0
M  V30 1158 N 127.117 1.15442 -1.07289 0
M  V30 1159 C 128.357 1.8788 -0.805012 0
M  V30 1160 C 128.721 1.80413 0.656907 0
M  V30 1161 O 129.922 2.47874 1.0398 0
M  V30 1162 C 128.193 3.3298 -1.29843 0
M  V30 1163 S 129.752 4.23158 -1.16114 0
M  V30 1164 H 126.57 0.64839 -0.291739 0
M  V30 1165 H 129.172 1.39285 -1.37186 0
M  V30 1166 H 127.876 3.35958 -2.35712 0
M  V30 1167 H 127.407 3.86629 -0.726767 0
M  V30 1168 H 129.422 4.96103 -0.0982778 0
M  V30 1169 N 128.595 0.856903 1.32268 0
M  V30 1170 C 129.841 0.462069 1.97466 0
M  V30 1171 C 130.174 -0.980298 1.67642 0
M  V30 1172 O 129.449 -1.68824 0.965858 0
M  V30 1173 C 129.732 0.704336 3.53145 0
M  V30 1174 C 129.585 2.19529 3.9259 0
M  V30 1175 C 130.904 0.1622 4.39801 0
M  V30 1176 H 128.023 0.169357 0.717278 0
M  V30 1177 H 130.665 1.07574 1.56614 0
M  V30 1178 H 128.815 0.181999 3.88073 0
M  V30 1179 H 130.487 2.78387 3.67829 0
M  V30 1180 H 128.73 2.67292 3.41668 0
M  V30 1181 H 129.401 2.31549 5.01088 0
M  V30 1182 H 131.877 0.608905 4.11621 0
M  V30 1183 H 130.753 0.361265 5.4771 0
M  V30 1184 H 131.014 -0.935158 4.32096 0
M  V30 1185 N 130.073 -1.45103 0.615059 0
M  V30 1186 C 131.02 -2.30586 -0.0993978 0
M  V30 1187 C 131.99 -1.42544 -0.852669 0
M  V30 1188 O 133.175 -1.71465 -0.836917 0
M  V30 1189 C 130.315 -3.27572 -1.08583 0
M  V30 1190 C 129.428 -4.30717 -0.332656 0
M  V30 1191 C 128.563 -5.14807 -1.30947 0
M  V30 1192 C 127.602 -6.09673 -0.544538 0
M  V30 1193 N 126.739 -6.86517 -1.47101 0
M  V30 1194 H 131.579 -2.91144 0.635542 0
M  V30 1195 H 129.116 -1.4346 0.325206 0
M  V30 1196 H 131.074 -3.82276 -1.67095 0
M  V30 1197 H 129.704 -2.68751 -1.78809 0
M  V30 1198 H 128.756 -3.78615 0.368107 0
M  V30 1199 H 130.068 -4.98102 0.263842 0
M  V30 1200 H 129.222 -5.73948 -1.96643 0
M  V30 1201 H 127.961 -4.47458 -1.9399 0
M  V30 1202 H 126.966 -5.49656 0.126003 0
M  V30 1203 H 128.191 -6.79052 0.080947 0
M  V30 1204 H 126.137 -6.21851 -2.08895 0
M  V30 1205 H 126.054 -7.50281 -0.928137 0
M  V30 1206 H 127.322 -7.50194 -2.11731 0
M  V30 1207 N 131.551 -0.354651 -1.53558 0
M  V30 1208 C 132.776 0.242153 -2.05981 0
M  V30 1209 C 133.201 1.42553 -1.2272 0
M  V30 1210 O 132.559 1.79656 -0.243604 0
M  V30 1211 C 132.607 0.624367 -3.55154 0
M  V30 1212 O 131.711 1.72301 -3.74681 0
M  V30 1213 H 131.052 0.0378432 -0.662921 0
M  V30 1214 H 133.582 -0.512087 -1.98088 0
M  V30 1215 H 133.592 0.898433 -3.97985 0
M  V30 1216 H 132.267 -0.240989 -4.15201 0
M  V30 1217 H 130.844 1.44535 -3.4375 0
M  V30 1218 N 133.029 1.57378 -0.0835403 0
M  V30 1219 C 134.445 1.57246 0.273109 0
M  V30 1220 C 134.645 1.09385 1.69225 0
M  V30 1221 O 133.701 0.765051 2.40631 0
M  V30 1222 C 135.014 3.00614 0.0720628 0
M  V30 1223 C 136.562 3.12684 0.1407 0
M  V30 1224 C 137.037 4.57989 -0.0322094 0
M  V30 1225 N 138.528 4.63194 0.0230085 0
M  V30 1226 C 139.263 5.73335 -0.0861941 0
M  V30 1227 N 138.759 6.9235 -0.24958 0
M  V30 1228 N 140.552 5.62093 -0.0282886 0
M  V30 1229 H 132.703 1.86801 -1.0109 0
M  V30 1230 H 134.966 0.861687 -0.395222 0
M  V30 1231 H 134.672 3.39786 -0.907662 0
M  V30 1232 H 134.546 3.68193 0.81936 0
M  V30 1233 H 136.933 2.73391 1.11092 0
M  V30 1234 H 137.014 2.47719 -0.637896 0
M  V30 1235 H 136.658 4.97973 -0.999247 0
M  V30 1236 H 136.588 5.21 0.765937 0
M  V30 1237 H 139.079 3.77613 0.14722 0
M  V30 1238 H 139.392 7.72117 -0.324733 0
M  V30 1239 H 137.737 6.94415 -0.285097 0
M  V30 1240 H 140.928 4.67997 0.0981408 0
M  V30 1241 H 141.101 6.47895 -0.116845 0
M  V30 1242 N 134.507 -0.190092 1.56449 0
M  V30 1243 C 135.454 -1.23557 1.94942 0
M  V30 1244 C 136.424 -1.44972 0.810696 0
M  V30 1245 O 137.609 -1.58023 1.06927 0
M  V30 1246 C 134.749 -2.57416 2.2985 0
M  V30 1247 C 133.862 -2.43537 3.5681 0
M  V30 1248 C 132.997 -3.70134 3.81017 0
M  V30 1249 C 132.036 -3.51109 5.01387 0
M  V30 1250 N 131.173 -4.6973 5.21822 0
M  V30 1251 H 136.013 -0.900304 2.84075 0
M  V30 1252 H 133.55 -0.43318 1.40577 0
M  V30 1253 H 135.508 -3.35409 2.48106 0
M  V30 1254 H 134.138 -2.88975 1.43852 0
M  V30 1255 H 133.19 -1.56816 3.46573 0
M  V30 1256 H 134.502 -2.25415 4.4496 0
M  V30 1257 H 133.656 -4.56566 3.9954 0
M  V30 1258 H 132.395 -3.91215 2.91207 0
M  V30 1259 H 131.4 -2.63063 4.82782 0
M  V30 1260 H 132.625 -3.31468 5.9271 0
M  V30 1261 H 130.571 -4.91065 4.34961 0
M  V30 1262 H 130.488 -4.54452 6.0416 0
M  V30 1263 H 131.756 -5.57499 5.44808 0
M  V30 1264 N 135.985 -1.50799 -0.457987 0
M  V30 1265 C 137.401 -1.38515 -0.792819 0
M  V30 1266 C 137.601 -0.451409 -1.96379 0
M  V30 1267 O 136.657 0.10112 -2.52297 0
M  V30 1268 C 137.97 -2.80149 -1.09258 0
M  V30 1269 C 139.518 -2.89156 -1.19825 0
M  V30 1270 C 139.993 -4.31651 -1.53106 0
M  V30 1271 N 141.484 -4.34662 -1.60072 0
M  V30 1272 C 142.219 -5.41928 -1.87354 0
M  V30 1273 N 141.715 -6.59384 -2.12568 0
M  V30 1274 N 143.508 -5.29385 -1.88965 0
M  V30 1275 H 135.659 -2.10073 0.313511 0
M  V30 1276 H 137.922 -0.944803 0.0777862 0
M  V30 1277 H 137.628 -3.50374 -0.305084 0
M  V30 1278 H 137.502 -3.18204 -2.02549 0
M  V30 1279 H 139.889 -2.19141 -1.97639 0
M  V30 1280 H 139.97 -2.54626 -0.244821 0
M  V30 1281 H 139.614 -5.02208 -0.758266 0
M  V30 1282 H 139.544 -4.63678 -2.49621 0
M  V30 1283 H 142.035 -3.49973 -1.42573 0
M  V30 1284 H 142.348 -7.36934 -2.32696 0
M  V30 1285 H 140.693 -6.62535 -2.09933 0
M  V30 1286 H 143.884 -4.36616 -1.68772 0
M  V30 1287 H 144.057 -6.13066 -2.09891 0
M  V30 1288 N 137.463 0.71206 -1.40597 0
M  V30 1289 C 138.879 1.02058 -1.22704 0
M  V30 1290 C 139.079 2.01228 -0.104729 0
M  V30 1291 O 138.135 2.4674 0.53624 0
M  V30 1292 C 139.448 1.56094 -2.57012 0
M  V30 1293 C 140.996 1.6806 -2.64054 0
M  V30 1294 C 141.471 2.25501 -3.9864 0
M  V30 1295 N 142.962 2.32882 -4.004 0
M  V30 1296 C 143.697 2.78317 -5.01325 0
M  V30 1297 N 143.193 3.23478 -6.12645 0
M  V30 1298 N 144.986 2.77733 -4.88693 0
M  V30 1299 H 137.137 0.0547896 -2.12329 0
M  V30 1300 H 139.4 0.0869027 -0.944008 0
M  V30 1301 H 139.106 0.906865 -3.39807 0
M  V30 1302 H 138.98 2.54564 -2.78347 0
M  V30 1303 H 141.367 2.32583 -1.81629 0
M  V30 1304 H 141.448 0.681802 -2.46546 0
M  V30 1305 H 141.092 1.61598 -4.81506 0
M  V30 1306 H 141.022 3.26102 -4.13479 0
M  V30 1307 H 143.513 2.00991 -3.20017 0
M  V30 1308 H 143.826 3.56725 -6.85542 0
M  V30 1309 H 142.171 3.21429 -6.16205 0
M  V30 1310 H 145.362 2.4179 -4.00818 0
M  V30 1311 H 145.535 3.12826 -5.67489 0
M  V30 1312 N 138.941 1.26152 0.944643 0
M  V30 1313 C 139.888 1.07408 2.04285 0
M  V30 1314 C 140.858 -0.0198413 1.66088 0
M  V30 1315 O 142.043 0.139264 1.90291 0
M  V30 1316 C 139.183 0.70945 3.37729 0
M  V30 1317 C 138.296 1.87926 3.88983 0
M  V30 1318 C 137.431 1.45807 5.10797 0
M  V30 1319 C 136.47 2.5964 5.54305 0
M  V30 1320 N 135.607 2.18226 6.67324 0
M  V30 1321 H 140.447 2.01389 2.1965 0
M  V30 1322 H 137.984 1.00275 1.07626 0
M  V30 1323 H 139.942 0.478948 4.14442 0
M  V30 1324 H 138.572 -0.193389 3.2222 0
M  V30 1325 H 137.624 2.22279 3.08701 0
M  V30 1326 H 138.936 2.73377 4.17213 0
M  V30 1327 H 138.09 1.18781 5.94959 0
M  V30 1328 H 136.829 0.574414 4.84305 0
M  V30 1329 H 135.834 2.87399 4.68702 0
M  V30 1330 H 137.059 3.48599 5.828 0
M  V30 1331 H 135.005 1.3229 6.42523 0
M  V30 1332 H 134.922 2.97221 6.95123 0
M  V30 1333 H 136.19 1.94403 7.54869 0
M  V30 1334 N 140.419 -1.14872 1.07899 0
M  V30 1335 C 141.667 -1.85422 0.803941 0
M  V30 1336 C 141.988 -1.83051 -0.67211 0
M  V30 1337 O 141.258 -1.27532 -1.48703 0
M  V30 1338 H 139.838 -0.686537 0.294408 0
M  V30 1339 H 142.5 -1.39226 1.3639 0
M  V30 1340 H 141.596 -2.90399 1.14346 0
M  V30 1341 N 141.898 -0.863906 -1.31812 0
M  V30 1342 C 142.845 -0.313303 -2.28664 0
M  V30 1343 C 143.815 0.584868 -1.55462 0
M  V30 1344 O 145 0.517805 -1.83639 0
M  V30 1345 C 142.14 0.48441 -3.41683 0
M  V30 1346 C 141.253 -0.440594 -4.29747 0
M  V30 1347 C 140.388 0.370652 -5.29905 0
M  V30 1348 C 139.427 -0.551164 -6.09613 0
M  V30 1349 N 138.564 0.223462 -7.01744 0
M  V30 1350 H 143.404 -1.14444 -2.75148 0
M  V30 1351 H 140.941 -0.575769 -1.35364 0
M  V30 1352 H 142.899 0.962627 -4.05943 0
M  V30 1353 H 141.529 1.28029 -2.96325 0
M  V30 1354 H 140.581 -1.03724 -3.65986 0
M  V30 1355 H 141.893 -1.14767 -4.85417 0
M  V30 1356 H 141.047 0.911638 -5.99812 0
M  V30 1357 H 139.786 1.11105 -4.74876 0
M  V30 1358 H 138.791 -1.10396 -5.38603 0
M  V30 1359 H 140.016 -1.29032 -6.66729 0
M  V30 1360 H 137.962 0.946787 -6.49132 0
M  V30 1361 H 137.879 -0.424399 -7.54808 0
M  V30 1362 H 139.147 0.745876 -7.75923 0
M  V30 1363 N 143.376 1.44774 -0.622745 0
M  V30 1364 C 144.339 2.29069 0.0774015 0
M  V30 1365 C 145.339 1.4059 0.780461 0
M  V30 1366 O 146.529 1.62551 0.626322 0
M  V30 1367 C 143.661 3.21974 1.12006 0
M  V30 1368 H 144.854 2.92459 -0.663901 0
M  V30 1369 H 142.407 1.51548 -0.382486 0
M  V30 1370 H 143.142 2.63417 1.89162 0
M  V30 1371 H 142.927 3.87168 0.619951 0
M  V30 1372 H 144.417 3.85318 1.60995 0
M  V30 1373 N 144.854 0.36279 1.53368 0
M  V30 1374 C 146.102 -0.227326 2.00817 0
M  V30 1375 C 146.423 -1.49511 1.25186 0
M  V30 1376 O 145.693 -1.92482 0.364348 0
M  V30 1377 H 144.273 -0.0869923 0.741917 0
M  V30 1378 H 146.935 0.488381 1.88682 0
M  V30 1379 H 146.031 -0.456273 3.08747 0
M  V30 1380 N 146.332 -1.57332 0.0918853 0
M  V30 1381 C 147.295 -2.12708 -0.85369 0
M  V30 1382 C 148.295 -1.05561 -1.213 0
M  V30 1383 O 149.485 -1.31461 -1.14296 0
M  V30 1384 C 146.617 -2.64503 -2.15061 0
M  V30 1385 H 147.81 -2.97573 -0.3729 0
M  V30 1386 H 145.363 -1.55509 -0.157072 0
M  V30 1387 H 146.098 -1.83149 -2.67632 0
M  V30 1388 H 145.883 -3.4284 -1.90272 0
M  V30 1389 H 147.373 -3.07351 -2.82711 0
M  V30 1390 N 147.81 0.181792 -1.56548 0
M  V30 1391 C 148.773 1.20894 -1.94724 0
M  V30 1392 C 149.773 1.37738 -0.829747 0
M  V30 1393 O 150.963 1.35323 -1.09697 0
M  V30 1394 C 148.095 2.57593 -2.23291 0
M  V30 1395 H 149.288 0.882275 -2.86629 0
M  V30 1396 H 146.841 0.423838 -1.50444 0
M  V30 1397 H 147.576 2.95291 -1.34067 0
M  V30 1398 H 147.361 2.46735 -3.04736 0
M  V30 1399 H 148.851 3.31637 -2.53785 0
M  V30 1400 N 149.288 1.51039 0.449983 0
M  V30 1401 C 150.251 1.70863 1.5277 0
M  V30 1402 C 151.251 0.578846 1.5002 0
M  V30 1403 O 152.441 0.846213 1.52266 0
M  V30 1404 C 149.573 1.75341 2.9235 0
M  V30 1405 H 150.766 2.67034 1.36502 0
M  V30 1406 H 148.319 1.40838 0.677812 0
M  V30 1407 H 149.054 0.809383 3.14037 0
M  V30 1408 H 148.839 2.57436 2.95752 0
M  V30 1409 H 150.329 1.92559 3.70555 0
M  V30 1410 N 150.766 -0.704594 1.40972 0
M  V30 1411 C 152.014 -1.46169 1.39568 0
M  V30 1412 C 152.335 -1.95 0.00253745 0
M  V30 1413 O 151.605 -1.71095 -0.954114 0
M  V30 1414 H 150.185 -0.542326 0.513704 0
M  V30 1415 H 152.847 -0.834553 1.76128 0
M  V30 1416 H 151.943 -2.32922 2.07735 0
M  V30 1417 N 152.244 -1.26651 -0.937939 0
M  V30 1418 C 153.492 -1.12165 -1.68118 0
M  V30 1419 C 153.813 0.334983 -1.92101 0
M  V30 1420 O 153.083 1.23583 -1.52 0
M  V30 1421 H 151.663 -0.412093 -0.623048 0
M  V30 1422 H 154.325 -1.59027 -1.12678 0
M  V30 1423 H 153.421 -1.64289 -2.6536 0
M  V30 1424 N 153.722 1.14298 -1.08507 0
M  V30 1425 C 155.133 1.66926 -0.836227 0
M  V30 1426 C 155.484 1.85576 0.63686 0
M  V30 1427 O 154.609 1.56767 1.49175 0
M  V30 1428 C 155.204 3.03219 -1.51142 0
M  V30 1429 C 153.763 3.52876 -1.30979 0
M  V30 1430 C 152.91 2.2833 -1.57356 0
M  V30 1431 H 155.861 0.983491 -1.24552 0
M  V30 1432 H 155.882 3.68726 -0.939211 0
M  V30 1433 H 155.394 2.89612 -2.58353 0
M  V30 1434 H 153.495 3.71703 -0.258429 0
M  V30 1435 H 153.608 4.33586 -2.03814 0
M  V30 1436 H 151.972 2.34454 -0.995164 0
M  V30 1437 H 152.755 2.17298 -2.65775 0
M  V30 1438 N 155.201 0.870884 1.31352 0
M  V30 1439 C 156.449 0.48132 1.96285 0
M  V30 1440 C 156.77 -0.969813 1.69173 0
M  V30 1441 O 156.04 -1.67998 1.00764 0
M  V30 1442 H 154.62 0.175002 0.726212 0
M  V30 1443 H 157.282 1.11087 1.60143 0
M  V30 1444 H 156.378 0.639825 3.05471 0
M  V30 1445 N 156.679 -1.44442 0.630414 0
M  V30 1446 C 157.925 -2.02351 0.134816 0
M  V30 1447 C 158.258 -1.4947 -1.23986 0
M  V30 1448 O 157.533 -0.678475 -1.82283 0
M  V30 1449 C 157.816 -3.59898 0.120707 0
M  V30 1450 C 157.669 -4.23063 1.52767 0
M  V30 1451 C 158.988 -4.36585 -0.555127 0
M  V30 1452 H 156.107 -0.73527 0.0504646 0
M  V30 1453 H 158.749 -1.72022 0.806751 0
M  V30 1454 H 156.899 -3.85868 -0.451477 0
M  V30 1455 H 158.571 -4.08202 2.14869 0
M  V30 1456 H 156.814 -3.80586 2.08175 0
M  V30 1457 H 157.485 -5.32071 1.46984 0
M  V30 1458 H 159.961 -4.16044 -0.0685429 0
M  V30 1459 H 158.837 -5.46294 -0.534185 0
M  V30 1460 H 159.098 -4.11138 -1.62535 0
M  V30 1461 N 158.157 -0.370918 -1.53173 0
M  V30 1462 C 159.382 0.220293 -2.06227 0
M  V30 1463 C 159.807 1.41243 -1.24225 0
M  V30 1464 O 159.165 1.79387 -0.262645 0
M  V30 1465 C 159.213 0.586663 -3.55796 0
M  V30 1466 O 158.317 1.68317 -3.76488 0
M  V30 1467 H 157.658 0.0308099 -0.663285 0
M  V30 1468 H 160.188 -0.533068 -1.97534 0
M  V30 1469 H 160.198 0.85617 -3.98916 0
M  V30 1470 H 158.873 -0.285013 -4.14922 0
M  V30 1471 H 157.45 1.40881 -3.45264 0
M  V30 1472 N 159.635 1.57281 -0.100228 0
M  V30 1473 C 160.883 1.94153 0.561157 0
M  V30 1474 C 161.204 0.983157 1.68401 0
M  V30 1475 O 160.474 0.0361132 1.95867 0
M  V30 1476 H 159.054 0.716791 0.210283 0
M  V30 1477 H 161.716 1.94202 -0.164765 0
M  V30 1478 H 160.812 2.96709 0.968008 0
M  V30 1479 N 161.113 -0.173488 1.56642 0
M  V30 1480 C 162.359 -0.891784 1.8214 0
M  V30 1481 C 162.692 -1.8199 0.677736 0
M  V30 1482 O 161.967 -1.91842 -0.320446 0
M  V30 1483 C 162.25 -1.68933 3.18015 0
M  V30 1484 C 162.103 -0.784487 4.42906 0
M  V30 1485 C 163.422 -2.65748 3.50808 0
M  V30 1486 H 160.541 -0.322761 0.662567 0
M  V30 1487 H 163.183 -0.158095 1.89341 0
M  V30 1488 H 161.333 -2.31482 3.12007 0
M  V30 1489 H 163.005 -0.172046 4.60979 0
M  V30 1490 H 161.248 -0.0924117 4.33702 0
M  V30 1491 H 161.919 -1.37799 5.34524 0
M  V30 1492 H 164.395 -2.13327 3.57255 0
M  V30 1493 H 163.271 -3.18619 4.4696 0
M  V30 1494 H 163.532 -3.45842 2.75401 0
M  V30 1495 N 162.591 -1.51276 -0.441967 0
M  V30 1496 C 163.831 -1.65372 -1.20132 0
M  V30 1497 C 164.195 -0.359871 -1.88597 0
M  V30 1498 O 165.396 -0.376551 -2.66149 0
M  V30 1499 C 163.667 -2.8207 -2.1948 0
M  V30 1500 S 165.226 -3.16467 -3.03964 0
M  V30 1501 H 162.044 -0.582669 -0.407453 0
M  V30 1502 H 164.646 -1.89166 -0.493609 0
M  V30 1503 H 163.35 -3.74523 -1.67812 0
M  V30 1504 H 162.881 -2.6045 -2.94838 0
M  V30 1505 H 164.896 -2.62543 -4.21053 0
M  V30 1506 N 164.069 0.697108 -1.41344 0
M  V30 1507 C 165.315 1.4593 -1.40827 0
M  V30 1508 C 165.648 1.94193 -0.0167098 0
M  V30 1509 O 164.923 1.69425 0.955263 0
M  V30 1510 C 165.206 2.67229 -2.41373 0
M  V30 1511 C 165.059 2.24741 -3.8963 0
M  V30 1512 C 166.378 3.69423 -2.39196 0
M  V30 1513 H 163.497 0.529303 -0.512842 0
M  V30 1514 H 166.139 0.794112 -1.72609 0
M  V30 1515 H 164.289 3.23982 -2.14401 0
M  V30 1516 H 165.961 1.73327 -4.27499 0
M  V30 1517 H 164.204 1.56542 -4.0457 0
M  V30 1518 H 164.875 3.1177 -4.55525 0
M  V30 1519 H 167.351 3.2234 -2.63128 0
M  V30 1520 H 166.227 4.51907 -3.11563 0
M  V30 1521 H 166.488 4.19012 -1.41001 0
M  V30 1522 N 165.547 1.27147 0.931209 0
M  V30 1523 C 166.787 1.14511 1.69312 0
M  V30 1524 C 167.151 -0.304638 1.89568 0
M  V30 1525 O 168.352 -0.553343 2.63043 0
M  V30 1526 C 166.623 1.90349 3.02493 0
M  V30 1527 S 168.182 1.93884 3.93642 0
M  V30 1528 H 165 0.408858 0.581684 0
M  V30 1529 H 167.602 1.61006 1.10893 0
M  V30 1530 H 166.306 2.94877 2.85439 0
M  V30 1531 H 165.837 1.44333 3.65966 0
M  V30 1532 H 167.852 1.03273 4.85334 0
M  V30 1533 N 167.025 -1.13721 1.09112 0
M  V30 1534 C 167.972 -2.19031 0.727591 0
M  V30 1535 C 168.942 -1.63555 -0.289656 0
M  V30 1536 O 170.127 -1.90023 -0.172026 0
M  V30 1537 C 167.267 -3.4477 0.15082 0
M  V30 1538 C 166.38 -4.14365 1.22172 0
M  V30 1539 C 165.515 -5.27709 0.608042 0
M  V30 1540 C 164.554 -5.89147 1.66047 0
M  V30 1541 N 163.691 -6.93929 1.06806 0
M  V30 1542 H 168.531 -2.49475 1.62991 0
M  V30 1543 H 166.068 -1.22499 0.81439 0
M  V30 1544 H 168.026 -4.16714 -0.201358 0
M  V30 1545 H 166.656 -3.14787 -0.714783 0
M  V30 1546 H 165.708 -3.40737 1.69122 0
M  V30 1547 H 167.02 -4.56114 2.01895 0
M  V30 1548 H 166.174 -6.06355 0.204523 0
M  V30 1549 H 164.913 -4.872 -0.220769 0
M  V30 1550 H 163.918 -5.09198 2.07357 0
M  V30 1551 H 165.143 -6.31729 2.49189 0
M  V30 1552 H 163.089 -6.55483 0.260476 0
M  V30 1553 H 163.006 -7.34202 1.8023 0
M  V30 1554 H 164.274 -7.76434 0.690644 0
M  V30 1555 N 168.503 -0.877838 -1.30888 0
M  V30 1556 C 169.728 -0.506629 -2.01117 0
M  V30 1557 C 170.153 0.895564 -1.65412 0
M  V30 1558 O 169.511 1.5923 -0.866922 0
M  V30 1559 C 169.559 -0.680223 -3.54126 0
M  V30 1560 O 168.663 0.277033 -4.11468 0
M  V30 1561 H 168.004 -0.200518 -0.633 0
M  V30 1562 H 170.534 -1.18342 -1.66902 0
M  V30 1563 H 170.544 -0.5765 -4.03907 0
M  V30 1564 H 169.219 -1.70261 -3.79452 0
M  V30 1565 H 167.796 0.127606 -3.72682 0
M  V30 1566 N 169.982 1.44106 -0.638065 0
M  V30 1567 C 171.398 1.56672 -0.304286 0
M  V30 1568 C 171.598 1.6244 1.19228 0
M  V30 1569 O 170.654 1.57121 1.9766 0
M  V30 1570 C 171.967 2.83503 -1.00231 0
M  V30 1571 C 173.515 2.97226 -0.981116 0
M  V30 1572 C 173.99 4.26868 -1.65974 0
M  V30 1573 N 175.481 4.33698 -1.62666 0
M  V30 1574 C 176.216 5.32745 -2.12063 0
M  V30 1575 N 175.712 6.38157 -2.6968 0
M  V30 1576 N 177.505 5.24299 -2.02651 0
M  V30 1577 H 169.656 1.38605 -1.60942 0
M  V30 1578 H 171.919 0.664661 -0.675965 0
M  V30 1579 H 171.625 2.85251 -2.0573 0
M  V30 1580 H 171.499 3.73251 -0.54439 0
M  V30 1581 H 173.886 2.95027 0.0654188 0
M  V30 1582 H 173.967 2.08808 -1.47759 0
M  V30 1583 H 173.611 4.29826 -2.70576 0
M  V30 1584 H 173.541 5.14156 -1.13804 0
M  V30 1585 H 176.032 3.58138 -1.20606 0
M  V30 1586 H 176.345 7.10029 -3.05087 0
M  V30 1587 H 174.69 6.38823 -2.73734 0
M  V30 1588 H 177.881 4.4086 -1.57353 0
M  V30 1589 H 178.054 6.01334 -2.41457 0
M  V30 1590 N 171.46 0.379036 1.52974 0
M  V30 1591 C 172.69 -0.20649 2.05566 0
M  V30 1592 C 173.098 -1.41906 1.25137 0
M  V30 1593 O 172.441 -1.81421 0.288464 0
M  V30 1594 C 172.503 -0.651086 3.53555 0
M  V30 1595 C 172.167 0.446626 4.54812 0
M  V30 1596 C 173.164 1.30079 5.03364 0
M  V30 1597 C 170.849 0.610719 4.98573 0
M  V30 1598 C 172.843 2.30426 5.94292 0
M  V30 1599 C 170.53 1.61754 5.89304 0
M  V30 1600 C 171.528 2.46274 6.37054 0
M  V30 1601 O 171.216 3.45237 7.25994 0
M  V30 1602 H 170.948 -0.0372381 0.674974 0
M  V30 1603 H 173.502 0.539718 1.98182 0
M  V30 1604 H 171.732 -1.44911 3.58522 0
M  V30 1605 H 173.421 -1.16112 3.88938 0
M  V30 1606 H 174.187 1.18527 4.70294 0
M  V30 1607 H 170.066 -0.0374044 4.60985 0
M  V30 1608 H 173.61 2.96432 6.31485 0
M  V30 1609 H 169.507 1.73348 6.21788 0
M  V30 1610 H 170.275 3.41124 7.44027 0
M  V30 1611 N 172.938 -1.57226 0.108567 0
M  V30 1612 C 174.349 -1.8195 -0.418464 0
M  V30 1613 C 174.7 -1.02508 -1.67292 0
M  V30 1614 O 173.825 -0.258496 -2.14851 0
M  V30 1615 C 174.42 -3.30028 -0.765979 0
M  V30 1616 C 172.979 -3.55469 -1.23769 0
M  V30 1617 C 172.126 -2.7625 -0.241106 0
M  V30 1618 H 175.077 -1.55149 0.33384 0
M  V30 1619 H 175.098 -3.44086 -1.62434 0
M  V30 1620 H 174.61 -3.87821 0.147219 0
M  V30 1621 H 172.711 -3.03022 -2.16814 0
M  V30 1622 H 172.824 -4.6408 -1.19022 0
M  V30 1623 H 171.188 -2.44133 -0.72602 0
M  V30 1624 H 171.971 -3.36797 0.665007 0
M  V30 1625 N 174.416 0.165178 -1.56732 0
M  V30 1626 C 175.662 0.882112 -1.82611 0
M  V30 1627 C 175.995 1.81628 -0.687378 0
M  V30 1628 O 175.27 1.92009 0.310267 0
M  V30 1629 C 175.553 1.67245 -3.18906 0
M  V30 1630 C 175.406 0.760987 -4.43316 0
M  V30 1631 C 176.725 2.63884 -3.52212 0
M  V30 1632 H 173.844 0.319242 -0.664269 0
M  V30 1633 H 176.486 0.148052 -1.89422 0
M  V30 1634 H 174.636 2.29824 -3.1323 0
M  V30 1635 H 176.308 0.147596 -4.61064 0
M  V30 1636 H 174.551 0.0694102 -4.33744 0
M  V30 1637 H 175.222 1.34962 -5.35247 0
M  V30 1638 H 177.698 2.11429 -3.58381 0
M  V30 1639 H 176.574 3.16245 -4.48643 0
M  V30 1640 H 176.835 3.44377 -2.77231 0
M  V30 1641 N 175.894 1.51508 0.433938 0
M  V30 1642 C 177.134 1.66006 1.19253 0
M  V30 1643 C 177.498 0.369868 1.88404 0
M  V30 1644 O 178.699 0.39066 2.65946 0
M  V30 1645 C 176.97 2.83229 2.17981 0
M  V30 1646 S 178.529 3.18075 3.02281 0
M  V30 1647 H 175.347 0.584821 0.404358 0
M  V30 1648 H 177.949 1.89425 0.48357 0
M  V30 1649 H 176.653 3.75407 1.65824 0
M  V30 1650 H 176.184 2.6201 2.93453 0
M  V30 1651 H 178.199 2.64772 4.19655 0
M  V30 1652 N 177.372 -0.689602 1.41712 0
M  V30 1653 C 178.62 -1.4468 1.4111 0
M  V30 1654 C 178.941 -1.94986 0.0232196 0
M  V30 1655 O 178.211 -1.72097 -0.935913 0
M  V30 1656 H 176.791 -0.536847 0.519427 0
M  V30 1657 H 179.453 -0.815825 1.77004 0
M  V30 1658 H 178.549 -2.30706 2.10193 0
M  V30 1659 N 178.85 -1.27639 -0.924453 0
M  V30 1660 C 180.075 -1.17101 -1.71179 0
M  V30 1661 C 180.5 0.268134 -1.86179 0
M  V30 1662 O 179.858 1.19415 -1.36418 0
M  V30 1663 C 179.906 -1.86313 -3.08739 0
M  V30 1664 O 179.01 -1.16331 -3.95652 0
M  V30 1665 H 178.351 -0.407091 -0.524569 0
M  V30 1666 H 180.881 -1.68767 -1.15666 0
M  V30 1667 H 180.891 -1.938 -3.59034 0
M  V30 1668 H 179.566 -2.91001 -2.97138 0
M  V30 1669 H 178.143 -1.16935 -3.54091 0
M  V30 1670 N 180.328 1.1314 -1.09713 0
M  V30 1671 C 181.605 1.80762 -0.747302 0
M  V30 1672 C 181.985 1.96663 0.767265 0
M  V30 1673 O 181.333 1.53706 1.69076 0
M  V30 1674 C 181.543 3.15606 -1.48975 0
M  V30 1675 C 182.891 3.90914 -1.65746 0
M  V30 1676 O 183.915 3.25239 -1.45251 0
M  V30 1677 O 182.774 5.08718 -1.9967 0
M  V30 1678 H 179.868 0.782103 -0.268782 0
M  V30 1679 H 182.414 1.20041 -1.19951 0
M  V30 1680 H 181.186 2.99278 -2.52088 0
M  V30 1681 H 180.809 3.84029 -1.02991 0
M  V30 1682 N 181.806 0.884767 1.30421 0
M  V30 1683 C 183.054 0.502112 1.95763 0
M  V30 1684 C 183.375 -0.951815 1.70192 0
M  V30 1685 O 182.645 -1.6692 1.0254 0
M  V30 1686 H 181.225 0.182694 0.724315 0
M  V30 1687 H 183.887 1.1278 1.58955 0
M  V30 1688 H 182.983 0.672188 3.04775 0
M  V30 1689 N 183.284 -1.43765 0.645699 0
M  V30 1690 C 184.512 -2.06253 0.163556 0
M  V30 1691 C 184.927 -1.48352 -1.16778 0
M  V30 1692 O 184.284 -0.611932 -1.71935 0
M  V30 1693 C 184.335 -3.61453 0.0583186 0
M  V30 1694 O 184.056 -4.172 1.33702 0
M  V30 1695 C 185.557 -4.41002 -0.450795 0
M  V30 1696 H 182.777 -0.665413 0.0864077 0
M  V30 1697 H 185.321 -1.84396 0.884222 0
M  V30 1698 H 183.476 -3.82522 -0.612865 0
M  V30 1699 H 183.89 -5.10791 1.19131 0
M  V30 1700 H 185.364 -5.49966 -0.473403 0
M  V30 1701 H 185.841 -4.13488 -1.48068 0
M  V30 1702 H 186.447 -4.24886 0.187637 0
M  V30 1703 N 184.763 -0.387143 -1.52771 0
M  V30 1704 C 185.991 0.195869 -2.05971 0
M  V30 1705 C 186.406 1.40691 -1.25903 0
M  V30 1706 O 185.763 1.79931 -0.305134 0
M  V30 1707 C 185.814 0.56812 -3.57008 0
M  V30 1708 O 185.535 -0.594803 -4.34043 0
M  V30 1709 C 187.036 1.20723 -4.26545 0
M  V30 1710 H 184.256 0.0300578 -0.670326 0
M  V30 1711 H 186.8 -0.551749 -1.96916 0
M  V30 1712 H 184.955 1.26564 -3.66143 0
M  V30 1713 H 185.369 -0.289322 -5.23701 0
M  V30 1714 H 186.843 1.41807 -5.33474 0
M  V30 1715 H 187.32 2.17395 -3.81623 0
M  V30 1716 H 187.926 0.550535 -4.21722 0
M  V30 1717 N 186.241 1.57166 -0.116904 0
M  V30 1718 C 187.471 1.99184 0.548586 0
M  V30 1719 C 187.879 0.995436 1.60897 0
M  V30 1720 O 187.222 -0.0201293 1.83689 0
M  V30 1721 C 187.284 3.37611 1.23526 0
M  V30 1722 C 186.948 4.55857 0.323077 0
M  V30 1723 C 187.945 5.18056 -0.437476 0
M  V30 1724 C 185.63 5.01751 0.234761 0
M  V30 1725 C 187.624 6.24536 -1.2741 0
M  V30 1726 C 185.311 6.08093 -0.605496 0
M  V30 1727 C 186.309 6.69352 -1.35856 0
M  V30 1728 O 185.997 7.7364 -2.18487 0
M  V30 1729 H 185.729 0.659148 0.149999 0
M  V30 1730 H 188.283 2.0443 -0.199428 0
M  V30 1731 H 186.513 3.29113 2.0303 0
M  V30 1732 H 188.202 3.63932 1.79745 0
M  V30 1733 H 188.968 4.83516 -0.379105 0
M  V30 1734 H 184.847 4.53817 0.810601 0
M  V30 1735 H 188.391 6.72281 -1.86237 0
M  V30 1736 H 184.288 6.42063 -0.665268 0
M  V30 1737 H 185.056 7.90727 -2.11406 0
M  V30 1738 N 187.719 -0.156864 1.56817 0
M  V30 1739 C 189.13 -0.717916 1.72345 0
M  V30 1740 C 189.481 -1.82124 0.729747 0
M  V30 1741 O 188.606 -2.16141 -0.105781 0
M  V30 1742 C 189.201 -1.30904 3.12489 0
M  V30 1743 C 187.76 -1.81676 3.29653 0
M  V30 1744 C 186.907 -0.701349 2.68284 0
M  V30 1745 H 189.858 0.0686989 1.58551 0
M  V30 1746 H 189.879 -2.17882 3.11942 0
M  V30 1747 H 189.391 -0.505796 3.8479 0
M  V30 1748 H 187.492 -2.64598 2.62333 0
M  V30 1749 H 187.605 -1.95226 4.3752 0
M  V30 1750 H 185.969 -1.12548 2.28484 0
M  V30 1751 H 186.752 0.0902846 3.43181 0
M  V30 1752 N 189.197 -1.51736 -0.425897 0
M  V30 1753 C 190.422 -1.69082 -1.20108 0
M  V30 1754 C 190.847 -0.392398 -1.83962 0
M  V30 1755 O 190.205 0.64858 -1.69302 0
M  V30 1756 C 190.253 -2.81604 -2.25237 0
M  V30 1757 O 189.357 -2.46004 -3.30992 0
M  V30 1758 H 188.698 -0.563408 -0.35138 0
M  V30 1759 H 191.228 -1.98358 -0.501512 0
M  V30 1760 H 191.238 -3.06025 -2.69838 0
M  V30 1761 H 189.913 -3.75817 -1.78142 0
M  V30 1762 H 188.49 -2.32195 -2.91787 0
M  V30 1763 N 190.675 0.682077 -1.42076 0
M  V30 1764 C 191.923 1.4393 -1.41876 0
M  V30 1765 C 192.244 1.94971 -0.0335599 0
M  V30 1766 O 191.514 1.72591 0.926773 0
M  V30 1767 H 190.094 0.534085 -0.522267 0
M  V30 1768 H 192.756 0.806427 -1.77434 0
M  V30 1769 H 191.852 2.29588 -2.11414 0
M  V30 1770 N 192.153 1.28127 0.917671 0
M  V30 1771 C 193.393 1.163 1.68088 0
M  V30 1772 C 193.757 -0.284515 1.8988 0
M  V30 1773 O 194.958 -0.525413 2.63615 0
M  V30 1774 C 193.229 1.93546 3.00457 0
M  V30 1775 S 194.788 1.98048 3.91564 0
M  V30 1776 H 191.606 0.415005 0.577315 0
M  V30 1777 H 194.208 1.62173 1.09179 0
M  V30 1778 H 192.912 2.97888 2.82295 0
M  V30 1779 H 192.443 1.48207 3.64415 0
M  V30 1780 H 194.458 1.08415 4.84211 0
M  V30 1781 N 193.631 -1.12557 1.10312 0
M  V30 1782 C 194.563 -2.17971 0.708625 0
M  V30 1783 C 195.576 -1.60806 -0.254027 0
M  V30 1784 O 196.765 -1.78458 -0.0386891 0
M  V30 1785 C 193.865 -3.38891 0.0248198 0
M  V30 1786 C 193.038 -4.25548 1.01132 0
M  V30 1787 C 192.097 -5.24972 0.35924 0
M  V30 1788 O 191.123 -5.60174 1.00965 0
M  V30 1789 N 192.325 -5.73747 -0.882847 0
M  V30 1790 H 195.09 -2.52427 1.61557 0
M  V30 1791 H 192.651 -1.27967 0.991771 0
M  V30 1792 H 194.643 -4.02485 -0.422852 0
M  V30 1793 H 193.213 -3.02596 -0.784514 0
M  V30 1794 H 192.433 -3.58589 1.6373 0
M  V30 1795 H 193.721 -4.80294 1.67914 0
M  V30 1796 H 193.119 -5.4731 -1.43065 0
M  V30 1797 H 191.676 -6.39234 -1.27369 0
M  V30 1798 N 195.109 -0.891671 -1.2995 0
M  V30 1799 C 196.039 -0.379797 -2.30391 0
M  V30 1800 C 197.02 0.540919 -1.6127 0
M  V30 1801 O 198.205 0.453352 -1.88834 0
M  V30 1802 C 195.335 0.400654 -3.44981 0
M  V30 1803 C 194.289 -0.428905 -4.25846 0
M  V30 1804 C 193.615 0.478557 -5.32554 0
M  V30 1805 C 194.915 -1.67458 -4.94727 0
M  V30 1806 H 196.609 -1.21914 -2.73454 0
M  V30 1807 H 194.155 -0.587675 -1.31462 0
M  V30 1808 H 196.108 0.769434 -4.14316 0
M  V30 1809 H 194.832 1.27371 -3.0074 0
M  V30 1810 H 193.491 -0.779911 -3.58208 0
M  V30 1811 H 193.139 1.34951 -4.84559 0
M  V30 1812 H 192.839 -0.0727433 -5.87555 0
M  V30 1813 H 194.363 0.843705 -6.04743 0
M  V30 1814 H 195.777 -1.376 -5.56542 0
M  V30 1815 H 194.174 -2.16659 -5.59624 0
M  V30 1816 H 195.244 -2.41518 -4.20473 0
M  V30 1817 N 196.587 1.43421 -0.653314 0
M  V30 1818 C 198.003 1.56341 -0.320886 0
M  V30 1819 C 198.203 1.63696 1.17499 0
M  V30 1820 O 197.259 1.59208 1.95982 0
M  V30 1821 C 198.572 2.82424 -1.03233 0
M  V30 1822 C 200.12 2.96168 -1.01259 0
M  V30 1823 C 200.595 4.25084 -1.70492 0
M  V30 1824 N 202.086 4.31948 -1.67257 0
M  V30 1825 C 202.821 5.30466 -2.17701 0
M  V30 1826 N 202.317 6.35261 -2.76434 0
M  V30 1827 N 204.11 5.2212 -2.082 0
M  V30 1828 H 196.261 1.3689 -1.62403 0
M  V30 1829 H 198.524 0.657455 -0.682977 0
M  V30 1830 H 198.23 2.83053 -2.08744 0
M  V30 1831 H 198.104 3.72653 -0.583948 0
M  V30 1832 H 200.491 2.9508 0.0341235 0
M  V30 1833 H 200.572 2.07229 -1.49966 0
M  V30 1834 H 200.216 4.26932 -2.7512 0
M  V30 1835 H 200.146 5.1292 -1.19251 0
M  V30 1836 H 202.637 3.56838 -1.24398 0
M  V30 1837 H 202.95 7.06754 -3.12601 0
M  V30 1838 H 201.295 6.35884 -2.80495 0
M  V30 1839 H 204.486 4.39166 -1.62021 0
M  V30 1840 H 204.659 5.98739 -2.47822 0
M  V30 1841 N 198.065 0.39524 1.52563 0
M  V30 1842 C 199.028 -0.425001 2.25225 0
M  V30 1843 C 200.028 -0.985266 1.27079 0
M  V30 1844 O 201.218 -0.866332 1.5113 0
M  V30 1845 C 198.35 -1.59686 3.01186 0
M  V30 1846 H 199.543 0.211233 2.99155 0
M  V30 1847 H 197.096 0.147472 1.55603 0
M  V30 1848 H 197.831 -2.27035 2.31572 0
M  V30 1849 H 197.616 -1.20176 3.73229 0
M  V30 1850 H 199.106 -2.17743 3.5634 0
M  V30 1851 N 199.544 -1.57102 0.125237 0
M  V30 1852 C 200.507 -2.14471 -0.80838 0
M  V30 1853 C 201.507 -1.0811 -1.19033 0
M  V30 1854 O 202.697 -1.33856 -1.11482 0
M  V30 1855 C 199.829 -2.69005 -2.09402 0
M  V30 1856 H 201.022 -2.98297 -0.309696 0
M  V30 1857 H 198.575 -1.55807 -0.124051 0
M  V30 1858 H 199.31 -1.88785 -2.63687 0
M  V30 1859 H 199.095 -3.46799 -1.82957 0
M  V30 1860 H 200.585 -3.13278 -2.76128 0
M  V30 1861 N 201.022 0.148545 -1.56898 0
M  V30 1862 C 202.247 0.880385 -1.87787 0
M  V30 1863 C 202.672 1.74018 -0.714093 0
M  V30 1864 O 202.03 1.78153 0.336343 0
M  V30 1865 C 202.078 1.71422 -3.17249 0
M  V30 1866 O 201.182 2.8183 -3.01074 0
M  V30 1867 H 200.523 0.245301 -0.617028 0
M  V30 1868 H 203.053 0.139826 -2.04122 0
M  V30 1869 H 203.063 2.10954 -3.49231 0
M  V30 1870 H 201.738 1.08284 -4.01556 0
M  V30 1871 H 200.315 2.45715 -2.80497 0
M  V30 1872 N 202.5 1.5196 0.417844 0
M  V30 1873 C 203.432 1.70895 1.52733 0
M  V30 1874 C 204.445 0.589405 1.51756 0
M  V30 1875 O 205.634 0.864312 1.56179 0
M  V30 1876 C 202.734 1.72627 2.91639 0
M  V30 1877 C 201.907 3.01479 3.16905 0
M  V30 1878 C 200.966 2.95139 4.35637 0
M  V30 1879 O 199.992 3.69059 4.3334 0
M  V30 1880 N 201.194 2.12328 5.40275 0
M  V30 1881 H 203.959 2.66612 1.36888 0
M  V30 1882 H 201.52 1.50089 0.607037 0
M  V30 1883 H 203.512 1.65928 3.6912 0
M  V30 1884 H 202.082 0.844216 3.00985 0
M  V30 1885 H 201.302 3.21895 2.27546 0
M  V30 1886 H 202.59 3.86736 3.30625 0
M  V30 1887 H 201.988 1.51685 5.44985 0
M  V30 1888 H 200.545 2.11494 6.16534 0
M  V30 1889 N 203.978 -0.674533 1.42435 0
M  V30 1890 C 205.394 -0.98769 1.25367 0
M  V30 1891 C 205.594 -2.00879 0.158044 0
M  V30 1892 O 204.65 -2.48075 -0.470633 0
M  V30 1893 C 205.963 -1.49224 2.6106 0
M  V30 1894 C 207.511 -1.61 2.68417 0
M  V30 1895 C 207.986 -2.14852 4.04478 0
M  V30 1896 N 209.477 -2.22185 4.06434 0
M  V30 1897 C 210.212 -2.64928 5.08528 0
M  V30 1898 N 209.708 -3.07121 6.21006 0
M  V30 1899 N 211.501 -2.64679 4.95885 0
M  V30 1900 H 203.652 0.00152503 2.124 0
M  V30 1901 H 205.915 -0.0618434 0.945981 0
M  V30 1902 H 205.621 -0.816453 3.42092 0
M  V30 1903 H 205.495 -2.47094 2.84999 0
M  V30 1904 H 207.882 -2.27686 1.87732 0
M  V30 1905 H 207.963 -0.616195 2.48267 0
M  V30 1906 H 207.607 -1.48775 4.85622 0
M  V30 1907 H 207.537 -3.15024 4.2198 0
M  V30 1908 H 210.028 -1.92435 3.25234 0
M  V30 1909 H 210.341 -3.38423 6.94759 0
M  V30 1910 H 208.686 -3.04978 6.24511 0
M  V30 1911 H 211.877 -2.31078 4.07088 0
M  V30 1912 H 212.05 -2.9767 5.75584 0
M  V30 1913 N 205.456 -1.28612 -0.910864 0
M  V30 1914 C 206.419 -1.12803 -1.9952 0
M  V30 1915 C 207.419 -0.0668264 -1.60661 0
M  V30 1916 O 208.609 -0.312847 -1.71368 0
M  V30 1917 C 205.741 -0.72254 -3.33155 0
M  V30 1918 H 206.934 -2.09109 -2.14973 0
M  V30 1919 H 204.487 -1.11639 -1.09391 0
M  V30 1920 H 205.222 0.241152 -3.23402 0
M  V30 1921 H 205.007 -1.48916 -3.62721 0
M  V30 1922 H 206.497 -0.634666 -4.12749 0
M  V30 1923 N 206.934 1.1197 -1.10907 0
M  V30 1924 C 207.844 2.21433 -0.774896 0
M  V30 1925 C 208.86 1.72478 0.229657 0
M  V30 1926 O 210.036 2.01288 0.0672008 0
M  V30 1927 C 207.101 3.4602 -0.216986 0
M  V30 1928 C 206.162 4.09791 -1.27944 0
M  V30 1929 C 205.395 5.28431 -0.748055 0
M  V30 1930 O 205.618 5.68823 0.423833 0
M  V30 1931 O 204.552 5.82644 -1.51027 0
M  V30 1932 H 208.378 2.5242 -1.68873 0
M  V30 1933 H 205.963 1.20399 -0.884555 0
M  V30 1934 H 207.845 4.21304 0.090059 0
M  V30 1935 H 206.52 3.16698 0.669633 0
M  V30 1936 H 205.427 3.36265 -1.63941 0
M  V30 1937 H 206.76 4.4328 -2.13925 0
M  V30 1938 N 208.412 0.89855 1.29475 0
M  V30 1939 C 209.637 0.538561 2.00285 0
M  V30 1940 C 210.062 -0.869135 1.66816 0
M  V30 1941 O 209.42 -1.57831 0.892145 0
M  V30 1942 C 209.468 0.736475 3.52999 0
M  V30 1943 O 208.572 -0.211537 4.11857 0
M  V30 1944 H 207.913 0.210563 0.62973 0
M  V30 1945 H 210.443 1.20982 1.64998 0
M  V30 1946 H 210.453 0.640685 4.02938 0
M  V30 1947 H 209.128 1.76276 3.76696 0
M  V30 1948 H 207.705 -0.0682991 3.72837 0
M  V30 1949 N 209.89 -1.43072 0.660911 0
M  V30 1950 C 211.306 -1.56169 0.329173 0
M  V30 1951 C 211.506 -1.64317 -1.16629 0
M  V30 1952 O 210.562 -1.60245 -1.95135 0
M  V30 1953 C 211.875 -2.81873 1.04729 0
M  V30 1954 C 213.423 -2.95627 1.02828 0
M  V30 1955 C 213.898 -4.24174 1.72744 0
M  V30 1956 N 215.389 -4.31055 1.69545 0
M  V30 1957 C 216.124 -5.29304 2.20511 0
M  V30 1958 N 215.62 -6.33786 2.79799 0
M  V30 1959 N 217.413 -5.21008 2.10966 0
M  V30 1960 H 209.564 -1.36027 1.63127 0
M  V30 1961 H 211.827 -0.653823 0.686454 0
M  V30 1962 H 211.533 -2.81942 2.10242 0
M  V30 1963 H 211.407 -3.72338 0.603702 0
M  V30 1964 H 213.794 -2.95094 -0.0184742 0
M  V30 1965 H 213.875 -2.06431 1.51063 0
M  V30 1966 H 213.519 -4.25467 2.7738 0
M  V30 1967 H 213.449 -5.1228 1.2197 0
M  V30 1968 H 215.94 -3.56174 1.26288 0
M  V30 1969 H 216.253 -7.05086 3.16344 0
M  V30 1970 H 214.598 -6.34387 2.83863 0
M  V30 1971 H 217.789 -4.38301 1.64347 0
M  V30 1972 H 217.962 -5.97416 2.50993 0
M  V30 1973 N 211.368 -0.403325 -1.52352 0
M  V30 1974 C 212.616 0.174003 -2.0135 0
M  V30 1975 C 212.937 1.46139 -1.29106 0
M  V30 1976 O 212.207 1.91448 -0.415253 0
M  V30 1977 H 210.787 0.0672911 -0.743963 0
M  V30 1978 H 213.449 -0.538235 -1.87321 0
M  V30 1979 H 212.545 0.374254 -3.09848 0
M  V30 1980 N 212.846 1.57033 -0.133567 0
M  V30 1981 C 213.756 2.19632 0.824564 0
M  V30 1982 C 214.772 1.17666 1.28182 0
M  V30 1983 O 215.948 1.50193 1.3418 0
M  V30 1984 C 213.013 2.79499 2.05137 0
M  V30 1985 C 212.074 3.96548 1.64464 0
M  V30 1986 C 211.307 4.5355 2.81297 0
M  V30 1987 O 211.53 4.09438 3.97136 0
M  V30 1988 O 210.464 5.44018 2.57542 0
M  V30 1989 H 214.29 3.01991 0.321766 0
M  V30 1990 H 211.875 1.49112 0.0927889 0
M  V30 1991 H 213.757 3.17602 2.7696 0
M  V30 1992 H 212.432 2.00162 2.54395 0
M  V30 1993 H 211.339 3.63186 0.897048 0
M  V30 1994 H 212.672 4.77364 1.19934 0
M  V30 1995 N 214.325 -0.140222 1.56975 0
M  V30 1996 C 215.272 -1.17292 1.98774 0
M  V30 1997 C 216.242 -1.4232 0.856408 0
M  V30 1998 O 217.427 -1.54541 1.119 0
M  V30 1999 C 214.567 -2.49973 2.37923 0
M  V30 2000 C 213.68 -2.32062 3.64378 0
M  V30 2001 C 212.815 -3.57825 3.926 0
M  V30 2002 C 211.854 -3.3498 5.12303 0
M  V30 2003 N 210.991 -4.52891 5.36502 0
M  V30 2004 H 215.831 -0.809472 2.86795 0
M  V30 2005 H 213.368 -0.388237 1.41884 0
M  V30 2006 H 215.326 -3.27346 2.58652 0
M  V30 2007 H 213.956 -2.84252 1.52972 0
M  V30 2008 H 213.008 -1.45711 3.51387 0
M  V30 2009 H 214.32 -2.11145 4.51906 0
M  V30 2010 H 213.474 -4.43624 4.13863 0
M  V30 2011 H 212.213 -3.81753 3.03506 0
M  V30 2012 H 211.218 -2.4757 4.90906 0
M  V30 2013 H 212.443 -3.12444 6.02956 0
M  V30 2014 H 210.389 -4.76979 4.50363 0
M  V30 2015 H 210.306 -4.35001 6.18312 0
M  V30 2016 H 211.574 -5.39884 5.62268 0
M  V30 2017 N 215.803 -1.52179 -0.40978 0
M  V30 2018 C 216.766 -1.74853 -1.48186 0
M  V30 2019 C 217.766 -0.618417 -1.48433 0
M  V30 2020 O 218.956 -0.886286 -1.49969 0
M  V30 2021 C 216.088 -1.8303 -2.87598 0
M  V30 2022 H 217.281 -2.70559 -1.29374 0
M  V30 2023 H 214.834 -1.42586 -0.640233 0
M  V30 2024 H 215.569 -0.89236 -3.11781 0
M  V30 2025 H 215.354 -2.65187 -2.88822 0
M  V30 2026 H 216.844 -2.02316 -3.65319 0
M  V30 2027 N 217.281 0.66697 -1.42791 0
M  V30 2028 C 218.53 1.42278 -1.42968 0
M  V30 2029 C 218.843 1.9553 -0.0524489 0
M  V30 2030 O 220.049 2.71414 0.068363 0
M  V30 2031 C 218.505 2.57418 -2.51524 0
M  V30 2032 C 218.113 2.10832 -3.9529 0
M  V30 2033 C 219.857 3.34878 -2.60877 0
M  V30 2034 C 217.764 3.23101 -4.95338 0
M  V30 2035 H 216.694 0.534533 -0.531781 0
M  V30 2036 H 219.345 0.721302 -1.68729 0
M  V30 2037 H 217.727 3.29971 -2.18941 0
M  V30 2038 H 218.901 1.4538 -4.37266 0
M  V30 2039 H 217.216 1.46289 -3.89857 0
M  V30 2040 H 219.813 4.18505 -3.32802 0
M  V30 2041 H 220.156 3.81993 -1.6549 0
M  V30 2042 H 220.689 2.69398 -2.92693 0
M  V30 2043 H 217.428 2.80969 -5.9223 0
M  V30 2044 H 216.948 3.87309 -4.57987 0
M  V30 2045 H 218.627 3.88447 -5.17415 0
M  V30 2046 N 218.759 1.29093 0.90403 0
M  V30 2047 C 219.987 1.19689 1.68766 0
M  V30 2048 C 220.402 -0.243113 1.87228 0
M  V30 2049 O 219.759 -1.16326 1.40621 0
M  V30 2050 C 219.81 1.90144 3.07453 0
M  V30 2051 O 219.531 3.2852 2.89838 0
M  V30 2052 C 221.032 1.87162 4.01852 0
M  V30 2053 H 218.252 0.415035 0.527244 0
M  V30 2054 H 220.796 1.7039 1.13082 0
M  V30 2055 H 218.951 1.43289 3.59926 0
M  V30 2056 H 219.365 3.63944 3.77684 0
M  V30 2057 H 220.839 2.41032 4.96596 0
M  V30 2058 H 221.316 0.84617 4.30972 0
M  V30 2059 H 221.922 2.33741 3.5531 0
M  V30 2060 N 220.237 -1.11381 1.11499 0
M  V30 2061 C 221.169 -2.17207 0.731704 0
M  V30 2062 C 222.182 -1.61066 -0.236957 0
M  V30 2063 O 223.371 -1.78489 -0.0197591 0
M  V30 2064 C 220.471 -3.38846 0.0607624 0
M  V30 2065 C 219.644 -4.24451 1.0564 0
M  V30 2066 C 218.703 -5.24562 0.4149 0
M  V30 2067 O 217.729 -5.59071 1.069 0
M  V30 2068 N 218.931 -5.74651 -0.821943 0
M  V30 2069 H 221.696 -2.50699 1.64225 0
M  V30 2070 H 219.257 -1.26908 1.00529 0
M  V30 2071 H 221.249 -4.02911 -0.380139 0
M  V30 2072 H 219.819 -3.03411 -0.752376 0
M  V30 2073 H 219.039 -3.56833 1.67524 0
M  V30 2074 H 220.327 -4.78486 1.72998 0
M  V30 2075 H 219.725 -5.48797 -1.37252 0
M  V30 2076 H 218.282 -6.40549 -1.20582 0
M  V30 2077 N 221.715 -0.905404 -1.28997 0
M  V30 2078 C 222.961 -0.535039 -1.95615 0
M  V30 2079 C 223.294 0.917404 -1.71165 0
M  V30 2080 O 222.569 1.65123 -1.02785 0
M  V30 2081 C 222.852 -0.834918 -3.50287 0
M  V30 2082 C 222.705 -2.33948 -3.84172 0
M  V30 2083 C 224.024 -0.325318 -4.38896 0
M  V30 2084 H 221.143 -0.195861 -0.710498 0
M  V30 2085 H 223.785 -1.13313 -1.52513 0
M  V30 2086 H 221.935 -0.325904 -3.87131 0
M  V30 2087 H 223.607 -2.91847 -3.57243 0
M  V30 2088 H 221.85 -2.79789 -3.31513 0
M  V30 2089 H 222.521 -2.49987 -4.92149 0
M  V30 2090 H 224.997 -0.761256 -4.09077 0
M  V30 2091 H 223.873 -0.564295 -5.45992 0
M  V30 2092 H 224.134 0.774144 -4.35269 0
M  V30 2093 N 223.193 1.4272 -0.668489 0
M  V30 2094 C 224.418 2.06484 -0.194758 0
M  V30 2095 C 224.843 1.49862 1.13679 0
M  V30 2096 O 224.201 0.614582 1.70565 0
M  V30 2097 C 224.249 3.60353 -0.133546 0
M  V30 2098 O 223.353 4.02464 0.899806 0
M  V30 2099 H 222.694 0.656137 -0.10188 0
M  V30 2100 H 225.224 1.82964 -0.915722 0
M  V30 2101 H 225.234 4.07976 0.0447041 0
M  V30 2102 H 223.909 4.00938 -1.1055 0
M  V30 2103 H 222.486 3.66402 0.693109 0
M  V30 2104 N 224.671 0.411399 1.52136 0
M  V30 2105 C 225.618 -0.412975 2.27075 0
M  V30 2106 C 226.588 -1.03912 1.29582 0
M  V30 2107 O 227.773 -1.06296 1.58448 0
M  V30 2108 C 224.913 -1.52247 3.09701 0
M  V30 2109 C 224.026 -0.917021 4.22155 0
M  V30 2110 C 223.161 -1.9994 4.92135 0
M  V30 2111 C 222.2 -1.37101 5.96548 0
M  V30 2112 N 221.337 -2.39364 6.60038 0
M  V30 2113 H 226.177 0.232499 2.97092 0
M  V30 2114 H 223.714 0.126496 1.46555 0
M  V30 2115 H 225.672 -2.17674 3.55913 0
M  V30 2116 H 224.302 -2.13794 2.41851 0
M  V30 2117 H 223.354 -0.151742 3.80097 0
M  V30 2118 H 224.666 -0.418006 4.97045 0
M  V30 2119 H 223.82 -2.73088 5.41763 0
M  V30 2120 H 222.559 -2.53208 4.16818 0
M  V30 2121 H 221.564 -0.624873 5.46237 0
M  V30 2122 H 222.789 -0.845998 6.7381 0
M  V30 2123 H 220.735 -2.91759 5.87548 0
M  V30 2124 H 220.652 -1.9428 7.3061 0
M  V30 2125 H 221.92 -3.12074 7.14304 0
M  V30 2126 N 226.149 -1.5696 0.141893 0
M  V30 2127 C 227.397 -1.95573 -0.509484 0
M  V30 2128 C 227.718 -1.02746 -1.65736 0
M  V30 2129 O 226.988 -0.0880311 -1.95702 0
M  V30 2130 H 225.568 -0.722115 -0.191205 0
M  V30 2131 H 228.23 -1.93697 0.216196 0
M  V30 2132 H 227.326 -2.99171 -0.889 0
M  V30 2133 N 227.627 0.131896 -1.57047 0
M  V30 2134 C 228.855 0.856461 -1.88341 0
M  V30 2135 C 229.27 1.74042 -0.731757 0
M  V30 2136 O 228.627 1.80051 0.297945 0
M  V30 2137 C 228.678 1.70064 -3.18999 0
M  V30 2138 O 228.399 0.852278 -4.2973 0
M  V30 2139 C 229.9 2.53148 -3.63911 0
M  V30 2140 H 227.12 0.246885 -0.62393 0
M  V30 2141 H 229.664 0.120152 -2.04147 0
M  V30 2142 H 227.819 2.38984 -3.04902 0
M  V30 2143 H 228.233 1.43329 -5.04537 0
M  V30 2144 H 229.707 3.07931 -4.58129 0
M  V30 2145 H 230.184 3.29901 -2.89935 0
M  V30 2146 H 230.79 1.89492 -3.80753 0
M  V30 2147 N 229.106 1.52395 0.401703 0
M  V30 2148 C 230.346 1.68498 1.15705 0
M  V30 2149 C 230.71 0.409748 1.87577 0
M  V30 2150 O 231.911 0.446983 2.65058 0
M  V30 2151 C 230.182 2.87789 2.11924 0
M  V30 2152 S 231.741 3.24415 2.95466 0
M  V30 2153 H 228.559 0.593267 0.391862 0
M  V30 2154 H 231.161 1.90408 0.443282 0
M  V30 2155 H 229.865 3.7884 1.57824 0
M  V30 2156 H 229.396 2.68175 2.87829 0
M  V30 2157 H 231.411 2.73614 4.13944 0
M  V30 2158 N 230.584 -0.659388 1.43143 0
M  V30 2159 C 231.494 -1.80167 1.50256 0
M  V30 2160 C 232.51 -1.69571 0.390106 0
M  V30 2161 O 233.686 -1.90849 0.643319 0
M  V30 2162 C 230.751 -3.16409 1.41725 0
M  V30 2163 C 229.812 -3.38848 2.63591 0
M  V30 2164 C 229.045 -4.68591 2.55458 0
M  V30 2165 O 229.268 -5.47532 1.59891 0
M  V30 2166 O 228.202 -4.92614 3.45854 0
M  V30 2167 H 232.028 -1.77121 2.46702 0
M  V30 2168 H 229.613 -0.817092 1.25076 0
M  V30 2169 H 231.495 -3.9768 1.39387 0
M  V30 2170 H 230.17 -3.20059 0.484118 0
M  V30 2171 H 229.077 -2.57366 2.71502 0
M  V30 2172 H 230.41 -3.4004 3.55856 0
M  V30 2173 N 232.062 -1.29571 -0.897171 0
M  V30 2174 C 232.994 -1.10724 -2.00681 0
M  V30 2175 C 234.007 -0.0540026 -1.6271 0
M  V30 2176 O 235.196 -0.298783 -1.75982 0
M  V30 2177 C 232.296 -0.663912 -3.32333 0
M  V30 2178 C 231.469 -1.79622 -3.98816 0
M  V30 2179 C 230.528 -1.34349 -5.0876 0
M  V30 2180 O 229.554 -2.04864 -5.31055 0
M  V30 2181 N 230.756 -0.215764 -5.80099 0
M  V30 2182 H 233.521 -2.06291 -2.17403 0
M  V30 2183 H 231.082 -1.21544 -1.06951 0
M  V30 2184 H 233.074 -0.344295 -4.03233 0
M  V30 2185 H 231.644 0.199375 -3.11964 0
M  V30 2186 H 230.864 -2.28459 -3.21248 0
M  V30 2187 H 232.152 -2.55535 -4.39976 0
M  V30 2188 H 231.55 0.372091 -5.64475 0
M  V30 2189 H 230.107 0.0444707 -6.51785 0
M  V30 2190 N 233.54 1.10788 -1.12088 0
M  V30 2191 C 234.788 1.8231 -0.872205 0
M  V30 2192 C 235.109 1.85419 0.603709 0
M  V30 2193 O 234.379 1.32963 1.43867 0
M  V30 2194 H 232.959 0.675137 -0.319686 0
M  V30 2195 H 235.621 1.34068 -1.41463 0
M  V30 2196 H 234.717 2.85955 -1.25045 0
M  V30 2197 N 235.018 0.912232 1.28515 0
M  V30 2198 C 236.429 0.591352 1.77087 0
M  V30 2199 C 236.78 -0.8933 1.74684 0
M  V30 2200 O 235.905 -1.69876 1.34056 0
M  V30 2201 C 236.5 1.06668 3.2157 0
M  V30 2202 C 235.059 0.79675 3.67871 0
M  V30 2203 C 234.206 1.23427 2.48316 0
M  V30 2204 H 237.157 1.09365 1.15 0
M  V30 2205 H 237.178 0.407455 3.78312 0
M  V30 2206 H 236.69 2.14726 3.23287 0
M  V30 2207 H 234.791 -0.270679 3.71616 0
M  V30 2208 H 234.904 1.40343 4.58084 0
M  V30 2209 H 233.268 0.653036 2.46186 0
M  V30 2210 H 234.051 2.32316 2.52753 0
M  V30 2211 N 236.496 -1.42363 0.676048 0
M  V30 2212 C 237.721 -2.06377 0.205705 0
M  V30 2213 C 238.146 -1.50463 -1.12883 0
M  V30 2214 O 237.504 -0.623619 -1.70237 0
M  V30 2215 C 237.552 -3.60277 0.152655 0
M  V30 2216 O 236.656 -4.02935 -0.87845 0
M  V30 2217 H 235.997 -0.655588 0.105359 0
M  V30 2218 H 238.527 -1.82475 0.925412 0
M  V30 2219 H 238.537 -4.07993 -0.0230675 0
M  V30 2220 H 237.212 -4.00346 1.12675 0
M  V30 2221 H 235.789 -3.66764 -0.673668 0
M  V30 2222 N 237.974 -0.419461 -1.51915 0
M  V30 2223 C 239.223 0.154346 -2.01109 0
M  V30 2224 C 239.536 1.45338 -1.30905 0
M  V30 2225 O 240.742 2.10906 -1.7097 0
M  V30 2226 C 239.198 0.325615 -3.58424 0
M  V30 2227 C 238.806 -0.961934 -4.37551 0
M  V30 2228 C 240.55 0.854155 -4.15818 0
M  V30 2229 C 238.457 -0.757287 -5.86531 0
M  V30 2230 H 237.387 0.0614563 -0.751491 0
M  V30 2231 H 240.038 -0.54649 -1.75173 0
M  V30 2232 H 238.42 1.08903 -3.80731 0
M  V30 2233 H 239.594 -1.7323 -4.26999 0
M  V30 2234 H 237.909 -1.41766 -3.91524 0
M  V30 2235 H 240.506 1.02346 -5.24814 0
M  V30 2236 H 240.849 1.83172 -3.73837 0
M  V30 2237 H 241.382 0.149528 -3.97519 0
M  V30 2238 H 238.121 -1.70671 -6.32892 0
M  V30 2239 H 237.641 -0.0264061 -5.99794 0
M  V30 2240 H 239.32 -0.403482 -6.45741 0
M  V30 2241 N 239.452 1.56882 -0.150215 0
M  V30 2242 C 240.698 1.96518 0.500834 0
M  V30 2243 C 241.031 1.03527 1.64304 0
M  V30 2244 O 240.306 0.0782751 1.94342 0
M  V30 2245 C 240.589 3.45822 1.00395 0
M  V30 2246 C 240.442 4.49591 -0.136983 0
M  V30 2247 C 241.761 3.97704 1.88467 0
M  V30 2248 H 238.88 0.714535 0.18058 0
M  V30 2249 H 241.522 1.88577 -0.232091 0
M  V30 2250 H 239.672 3.5272 1.62851 0
M  V30 2251 H 241.344 4.5477 -0.77343 0
M  V30 2252 H 239.587 4.26441 -0.795652 0
M  V30 2253 H 240.258 5.51402 0.256815 0
M  V30 2254 H 242.734 3.93304 1.35834 0
M  V30 2255 H 241.61 5.0263 2.20578 0
M  V30 2256 H 241.871 3.40252 2.82279 0
M  V30 2257 N 240.93 -0.123565 1.57115 0
M  V30 2258 C 242.158 -0.846461 1.88793 0
M  V30 2259 C 242.573 -1.73652 0.740976 0
M  V30 2260 O 241.93 -1.80207 -0.288393 0
M  V30 2261 C 241.981 -1.6837 3.19897 0
M  V30 2262 O 241.702 -0.829477 4.30176 0
M  V30 2263 C 243.203 -2.51214 3.65248 0
M  V30 2264 H 240.423 -0.243573 0.625231 0
M  V30 2265 H 242.967 -0.109324 2.04208 0
M  V30 2266 H 241.122 -2.37364 3.06165 0
M  V30 2267 H 241.536 -1.40651 5.0529 0
M  V30 2268 H 243.01 -3.05497 4.59756 0
M  V30 2269 H 243.487 -3.28359 2.9168 0
M  V30 2270 H 244.093 -1.8747 3.81752 0
M  V30 2271 N 242.408 -1.52605 -0.393616 0
M  V30 2272 C 243.819 -1.59417 -0.971761 0
M  V30 2273 C 244.17 -0.444173 -1.91106 0
M  V30 2274 O 243.295 0.433382 -2.12016 0
M  V30 2275 C 243.89 -2.88936 -1.76921 0
M  V30 2276 C 242.449 -2.98175 -2.29714 0
M  V30 2277 C 241.596 -2.54491 -1.10135 0
M  V30 2278 H 244.547 -1.57751 -0.173317 0
M  V30 2279 H 244.568 -2.75163 -2.62804 0
M  V30 2280 H 244.08 -3.72616 -1.08532 0
M  V30 2281 H 242.181 -2.19024 -3.01429 0
M  V30 2282 H 242.294 -4.02726 -2.59517 0
M  V30 2283 H 240.658 -2.08702 -1.45999 0
M  V30 2284 H 241.441 -3.4056 -0.432874 0
M  V30 2285 N 243.887 0.651787 -1.4349 0
M  V30 2286 C 245.298 1.233 -1.40193 0
M  V30 2287 C 245.649 1.9591 -0.106727 0
M  V30 2288 O 244.774 2.01316 0.793773 0
M  V30 2289 C 245.369 2.24257 -2.53957 0
M  V30 2290 C 243.928 2.77852 -2.5392 0
M  V30 2291 C 243.075 1.52517 -2.3159 0
M  V30 2292 H 246.026 0.443717 -1.52371 0
M  V30 2293 H 246.047 3.0646 -2.25528 0
M  V30 2294 H 245.559 1.71382 -3.4821 0
M  V30 2295 H 243.66 3.34786 -1.63551 0
M  V30 2296 H 243.773 3.25299 -3.51735 0
M  V30 2297 H 242.137 1.79915 -1.80285 0
M  V30 2298 H 242.92 1.01574 -3.27929 0
M  V30 2299 N 245.365 1.30045 0.890287 0
M  V30 2300 C 246.312 1.15976 1.99545 0
M  V30 2301 C 247.282 0.0506202 1.66023 0
M  V30 2302 O 248.467 0.219847 1.89529 0
M  V30 2303 C 245.607 0.852054 3.34416 0
M  V30 2304 C 244.72 2.04255 3.80662 0
M  V30 2305 C 243.855 1.6734 5.04154 0
M  V30 2306 C 242.894 2.82916 5.42794 0
M  V30 2307 N 242.031 2.46333 6.57468 0
M  V30 2308 H 246.871 2.10524 2.10911 0
M  V30 2309 H 244.408 1.04749 1.03276 0
M  V30 2310 H 246.366 0.654296 4.12037 0
M  V30 2311 H 244.996 -0.0565502 3.2275 0
M  V30 2312 H 244.048 2.35172 2.98995 0
M  V30 2313 H 245.36 2.90826 4.05242 0
M  V30 2314 H 244.514 1.43908 5.89386 0
M  V30 2315 H 243.253 0.779308 4.81433 0
M  V30 2316 H 242.258 3.0702 4.56091 0
M  V30 2317 H 243.483 3.73004 5.6749 0
M  V30 2318 H 241.429 1.59423 6.36334 0
M  V30 2319 H 241.346 3.26436 6.81891 0
M  V30 2320 H 242.614 2.26244 7.45945 0
M  V30 2321 N 246.843 -1.10192 1.12674 0
M  V30 2322 C 248.12 -1.78717 0.794965 0
M  V30 2323 C 248.5 -1.98628 -0.714853 0
M  V30 2324 O 247.848 -1.58135 -1.64941 0
M  V30 2325 C 248.058 -3.11546 1.5729 0
M  V30 2326 C 249.406 -3.86382 1.76052 0
M  V30 2327 O 250.43 -3.21274 1.53823 0
M  V30 2328 O 249.289 -5.03246 2.13087 0
M  V30 2329 H 246.383 -0.774702 0.289423 0
M  V30 2330 H 248.929 -1.16819 1.23091 0
M  V30 2331 H 247.701 -2.92489 2.59935 0
M  V30 2332 H 247.324 -3.81164 1.13137 0
M  V30 2333 N 248.321 -0.919034 -1.28029 0
M  V30 2334 C 249.57 -0.550802 -1.94034 0
M  V30 2335 C 249.883 0.910877 -1.73096 0
M  V30 2336 O 251.089 1.3875 -2.33368 0
M  V30 2337 C 249.545 -0.934249 -3.47563 0
M  V30 2338 C 249.153 -2.41602 -3.7727 0
M  V30 2339 C 250.897 -0.636854 -4.19696 0
M  V30 2340 C 248.804 -2.73932 -5.24133 0
M  V30 2341 H 247.734 -0.202273 -0.726362 0
M  V30 2342 H 250.385 -1.11867 -1.45458 0
M  V30 2343 H 248.767 -0.295115 -3.94899 0
M  V30 2344 H 249.941 -3.10233 -3.40723 0
M  V30 2345 H 248.256 -2.68441 -3.18321 0
M  V30 2346 H 250.853 -0.855005 -5.2782 0
M  V30 2347 H 251.196 0.425575 -4.14119 0
M  V30 2348 H 251.729 -1.23469 -3.78154 0
M  V30 2349 H 248.468 -3.79049 -5.34792 0
M  V30 2350 H 247.988 -2.09942 -5.61858 0
M  V30 2351 H 249.667 -2.61215 -5.91925 0
M  V30 2352 N 249.799 1.42003 -0.683588 0
M  V30 2353 C 251.045 2.02223 -0.218536 0
M  V30 2354 C 251.4 1.53126 1.16492 0
M  V30 2355 O 250.693 0.727459 1.77253 0
M  V30 2356 C 250.887 3.56827 -0.202357 0
M  V30 2357 C 250.716 4.20928 -1.5827 0
M  V30 2358 C 249.486 4.5573 -2.18262 0
M  V30 2359 C 251.684 4.47933 -2.52706 0
M  V30 2360 N 249.666 5.05056 -3.48986 0
M  V30 2361 C 251.037 4.98906 -3.68094 0
M  V30 2362 C 253.092 4.29931 -2.51125 0
M  V30 2363 C 251.795 5.33768 -4.82166 0
M  V30 2364 C 253.821 4.65875 -3.643 0
M  V30 2365 C 253.183 5.17008 -4.78417 0
M  V30 2366 H 249.282 0.771931 -0.125088 0
M  V30 2367 H 251.866 1.72729 -0.898479 0
M  V30 2368 H 250.037 3.85819 0.447029 0
M  V30 2369 H 251.769 4.03755 0.276399 0
M  V30 2370 H 248.524 4.41781 -1.70665 0
M  V30 2371 H 248.948 5.34139 -4.15962 0
M  V30 2372 H 253.59 3.89647 -1.6412 0
M  V30 2373 H 251.308 5.72981 -5.6984 0
M  V30 2374 H 254.894 4.53615 -3.64314 0
M  V30 2375 H 253.774 5.44301 -5.64541 0
M  V30 2376 N 251.277 0.427512 1.51691 0
M  V30 2377 C 252.225 -0.403359 2.29076 0
M  V30 2378 C 253.219 -1.02962 1.34518 0
M  V30 2379 O 254.425 -0.965715 1.51901 0
M  V30 2380 H 250.8 -0.148879 0.737115 0
M  V30 2381 H 252.771 0.270295 2.97173 0
M  V30 2382 C 251.52 -1.49763 3.13794 0
M  V30 2383 H 250.843 -1.02508 3.86435 0
M  V30 2384 H 252.283 -2.05244 3.71014 0
M  V30 2385 C 250.742 -2.47536 2.28533 0
M  V30 2386 O 251.272 -3.51848 1.93819 0
M  V30 2387 N 249.478 -2.18187 1.91945 0
M  V30 2388 H 249.025 -1.33389 2.20375 0
M  V30 2389 H 248.983 -2.83848 1.35195 0
M  V30 2390 N 252.755 -1.56801 0.158532 0
M  V30 2391 C 254.001 -1.96781 -0.490405 0
M  V30 2392 C 254.334 -1.04397 -1.63753 0
M  V30 2393 O 253.609 -0.0885805 -1.94298 0
M  V30 2394 C 253.892 -3.4635 -0.985594 0
M  V30 2395 C 253.745 -4.49512 0.160824 0
M  V30 2396 C 255.064 -3.98697 -1.86355 0
M  V30 2397 H 252.183 -0.715482 -0.176788 0
M  V30 2398 H 254.825 -1.88451 0.242088 0
M  V30 2399 H 252.975 -3.53579 -1.60978 0
M  V30 2400 H 254.647 -4.54353 0.797537 0
M  V30 2401 H 252.89 -4.26013 0.818256 0
M  V30 2402 H 253.561 -5.51531 -0.227569 0
M  V30 2403 H 256.037 -3.94019 -1.33746 0
M  V30 2404 H 254.913 -5.03792 -2.17909 0
M  V30 2405 H 255.174 -3.41744 -2.8047 0
M  V30 2406 N 254.233 0.115231 -1.57178 0
M  V30 2407 C 255.461 0.836437 -1.89239 0
M  V30 2408 C 255.876 1.73256 -0.750175 0
M  V30 2409 O 255.233 1.80357 0.278832 0
M  V30 2410 C 255.284 1.66671 -3.20785 0
M  V30 2411 O 255.005 0.806652 -4.3061 0
M  V30 2412 C 256.506 2.49274 -3.66575 0
M  V30 2413 H 253.726 0.240253 -0.626514 0
M  V30 2414 H 256.27 0.0984932 -2.04263 0
M  V30 2415 H 254.425 2.35737 -3.0742 0
M  V30 2416 H 254.839 1.37969 -5.06028 0
M  V30 2417 H 256.313 3.03055 -4.6137 0
M  V30 2418 H 256.79 3.26807 -2.93417 0
M  V30 2419 H 257.396 1.85443 -3.82741 0
M  V30 2420 N 255.711 1.52812 0.385517 0
M  V30 2421 C 256.959 1.67694 1.12797 0
M  V30 2422 C 257.28 0.421115 1.90399 0
M  V30 2423 O 256.55 -0.564551 1.87589 0
M  V30 2424 H 255.13 0.618155 0.419396 0
M  V30 2425 H 257.792 1.89938 0.436972 0
M  V30 2426 H 256.888 2.52896 1.82894 0
M  V30 2427 N 257.189 -0.644168 1.43834 0
M  V30 2428 C 258.152 -1.73857 1.49353 0
M  V30 2429 C 259.152 -1.56315 0.377112 0
M  V30 2430 O 260.342 -1.62048 0.639226 0
M  V30 2431 C 257.474 -3.12819 1.35488 0
M  V30 2432 H 258.667 -1.70342 2.46827 0
M  V30 2433 H 256.22 -0.856652 1.30733 0
M  V30 2434 H 256.955 -3.2194 0.390569 0
M  V30 2435 H 256.74 -3.26958 2.16428 0
M  V30 2436 H 258.23 -3.92606 1.42302 0
M  V30 2437 N 258.668 -1.30515 -0.883378 0
M  V30 2438 C 259.6 -1.12846 -1.99496 0
M  V30 2439 C 260.613 -0.0712571 -1.62644 0
M  V30 2440 O 261.802 -0.317432 -1.75655 0
M  V30 2441 C 258.902 -0.699123 -3.3161 0
M  V30 2442 C 258.075 -1.83842 -3.96889 0
M  V30 2443 C 257.134 -1.39737 -5.07307 0
M  V30 2444 O 256.16 -2.10485 -5.28852 0
M  V30 2445 N 257.362 -0.277279 -5.79837 0
M  V30 2446 H 260.127 -2.08585 -2.15203 0
M  V30 2447 H 257.688 -1.22672 -1.05656 0
M  V30 2448 H 259.68 -0.387044 -4.02845 0
M  V30 2449 H 258.25 0.166276 -3.12157 0
M  V30 2450 H 257.47 -2.31853 -3.18807 0
M  V30 2451 H 258.758 -2.60187 -4.37241 0
M  V30 2452 H 258.156 0.3122 -5.64838 0
M  V30 2453 H 256.713 -0.0246623 -6.51795 0
M  V30 2454 N 260.146 1.09593 -1.13257 0
M  V30 2455 C 261.392 1.82003 -0.89458 0
M  V30 2456 C 261.725 1.85402 0.577906 0
M  V30 2457 O 261 1.32099 1.42759 0
M  V30 2458 C 261.283 3.28237 -1.48096 0
M  V30 2459 C 261.136 3.3312 -3.02244 0
M  V30 2460 C 262.455 4.24871 -1.14774 0
M  V30 2461 H 259.574 0.66077 -0.326424 0
M  V30 2462 H 262.216 1.28389 -1.40058 0
M  V30 2463 H 260.366 3.74024 -1.05062 0
M  V30 2464 H 262.038 2.95748 -3.54021 0
M  V30 2465 H 260.281 2.72756 -3.37323 0
M  V30 2466 H 260.952 4.3613 -3.38371 0
M  V30 2467 H 263.428 3.87361 -1.51957 0
M  V30 2468 H 262.304 5.25532 -1.58452 0
M  V30 2469 H 262.565 4.42058 -0.0611849 0
M  V30 2470 N 261.624 0.925811 1.2754 0
M  V30 2471 C 262.854 0.580666 1.98272 0
M  V30 2472 C 263.262 -0.845207 1.69272 0
M  V30 2473 O 262.605 -1.57306 0.948707 0
M  V30 2474 C 262.667 0.724418 3.52126 0
M  V30 2475 C 262.331 2.12206 4.04744 0
M  V30 2476 C 263.328 3.09604 4.17662 0
M  V30 2477 C 261.013 2.4385 4.39138 0
M  V30 2478 C 263.007 4.36755 4.64246 0
M  V30 2479 C 260.694 3.71237 4.85414 0
M  V30 2480 C 261.692 4.67503 4.97926 0
M  V30 2481 O 261.38 5.92624 5.43187 0
M  V30 2482 H 261.112 0.218987 0.639547 0
M  V30 2483 H 263.666 1.24452 1.63404 0
M  V30 2484 H 261.896 0.0034663 3.867 0
M  V30 2485 H 263.585 0.384607 4.04074 0
M  V30 2486 H 264.351 2.86478 3.91351 0
M  V30 2487 H 260.23 1.69665 4.28643 0
M  V30 2488 H 263.774 5.11898 4.73927 0
M  V30 2489 H 259.671 3.94182 5.11166 0
M  V30 2490 H 260.439 5.95585 5.61445 0
M  V30 2491 N 263.102 -1.41638 0.69111 0
M  V30 2492 C 264.032 -2.3347 0.037248 0
M  V30 2493 C 265.013 -1.51575 -0.771947 0
M  V30 2494 O 266.198 -1.80126 -0.72582 0
M  V30 2495 C 263.328 -3.35354 -0.903064 0
M  V30 2496 C 262.282 -4.27526 -0.201288 0
M  V30 2497 C 261.608 -5.19747 -1.25565 0
M  V30 2498 C 262.908 -5.13959 0.929689 0
M  V30 2499 H 264.602 -2.88397 0.804227 0
M  V30 2500 H 262.148 -1.38669 0.388189 0
M  V30 2501 H 264.101 -3.98519 -1.36969 0
M  V30 2502 H 262.825 -2.78767 -1.70166 0
M  V30 2503 H 261.484 -3.65779 0.245265 0
M  V30 2504 H 261.132 -4.59479 -2.04666 0
M  V30 2505 H 260.832 -5.8225 -0.791128 0
M  V30 2506 H 262.356 -5.85789 -1.72288 0
M  V30 2507 H 263.77 -5.70718 0.543546 0
M  V30 2508 H 262.167 -5.85379 1.32103 0
M  V30 2509 H 263.237 -4.51389 1.77133 0
M  V30 2510 N 264.58 -0.43555 -1.51462 0
M  V30 2511 C 265.805 0.132627 -2.06976 0
M  V30 2512 C 266.23 1.35848 -1.30104 0
M  V30 2513 O 265.588 1.78112 -0.338493 0
M  V30 2514 C 265.636 0.43523 -3.57964 0
M  V30 2515 O 264.74 1.52198 -3.83288 0
M  V30 2516 H 264.081 0.00265 -0.663995 0
M  V30 2517 H 266.611 -0.616369 -1.95095 0
M  V30 2518 H 266.621 0.686206 -4.02188 0
M  V30 2519 H 265.296 -0.460739 -4.1334 0
M  V30 2520 H 263.873 1.2611 -3.50928 0
M  V30 2521 N 266.058 1.56714 -0.166846 0
M  V30 2522 C 267.298 1.98641 0.481763 0
M  V30 2523 C 267.662 1.05038 1.6072 0
M  V30 2524 O 268.863 1.36087 2.31805 0
M  V30 2525 C 267.134 3.44362 0.956517 0
M  V30 2526 S 268.693 4.08317 1.60694 0
M  V30 2527 H 265.511 0.693873 0.155116 0
M  V30 2528 H 268.113 1.93719 -0.263251 0
M  V30 2529 H 266.817 4.10204 0.126936 0
M  V30 2530 H 266.348 3.53041 1.73568 0
M  V30 2531 H 268.363 4.02999 2.89494 0
M  V30 2532 N 267.536 -0.106894 1.57237 0
M  V30 2533 C 268.446 -1.14911 2.0453 0
M  V30 2534 C 269.462 -1.44592 0.96795 0
M  V30 2535 O 270.638 -1.55468 1.2803 0
M  V30 2536 C 267.703 -2.45272 2.45036 0
M  V30 2537 C 266.764 -2.22879 3.66911 0
M  V30 2538 C 265.997 -3.47024 4.05475 0
M  V30 2539 O 266.22 -4.54804 3.44252 0
M  V30 2540 O 265.154 -3.3731 4.98504 0
M  V30 2541 H 268.98 -0.777461 2.9358 0
M  V30 2542 H 266.565 -0.318563 1.45964 0
M  V30 2543 H 268.447 -3.22055 2.71769 0
M  V30 2544 H 267.122 -2.81886 1.59129 0
M  V30 2545 H 266.029 -1.43915 3.45311 0
M  V30 2546 H 267.362 -1.91163 4.53561 0
M  V30 2547 N 269.014 -1.53014 -0.377408 0
M  V30 2548 C 270.26 -1.68872 -1.12294 0
M  V30 2549 C 270.593 -0.433224 -1.89306 0
M  V30 2550 O 269.868 0.569258 -1.85983 0
M  V30 2551 C 270.151 -2.93115 -2.09179 0
M  V30 2552 C 270.004 -4.28794 -1.35853 0
M  V30 2553 C 271.323 -3.12928 -3.09458 0
M  V30 2554 H 268.442 -0.614518 -0.406862 0
M  V30 2555 H 271.084 -1.85633 -0.40503 0
M  V30 2556 H 269.234 -2.78956 -2.70399 0
M  V30 2557 H 270.906 -4.54742 -0.775082 0
M  V30 2558 H 269.149 -4.28744 -0.660364 0
M  V30 2559 H 269.82 -5.11837 -2.06706 0
M  V30 2560 H 272.296 -3.26194 -2.58334 0
M  V30 2561 H 271.172 -4.01316 -3.74482 0
M  V30 2562 H 271.433 -2.27669 -3.78971 0
M  V30 2563 N 270.492 0.636531 -1.44174 0
M  V30 2564 C 271.741 1.39213 -1.45954 0
M  V30 2565 C 272.054 1.95374 -0.0939119 0
M  V30 2566 O 273.26 2.71498 0.0107767 0
M  V30 2567 C 271.716 2.52025 -2.56927 0
M  V30 2568 C 271.324 2.024 -3.99673 0
M  V30 2569 C 273.068 3.29269 -2.67922 0
M  V30 2570 C 270.975 3.12521 -5.0208 0
M  V30 2571 H 269.905 0.523132 -0.542999 0
M  V30 2572 H 272.556 0.685349 -1.70221 0
M  V30 2573 H 270.938 3.25253 -2.25891 0
M  V30 2574 H 272.112 1.36073 -4.40251 0
M  V30 2575 H 270.427 1.37987 -3.92872 0
M  V30 2576 H 273.024 4.11352 -3.41605 0
M  V30 2577 H 273.367 3.78397 -1.73555 0
M  V30 2578 H 273.9 2.63129 -2.98342 0
M  V30 2579 H 270.639 2.68343 -5.98057 0
M  V30 2580 H 270.159 3.77507 -4.66099 0
M  V30 2581 H 271.838 3.77385 -5.25538 0
M  V30 2582 N 271.97 1.30982 0.876444 0
M  V30 2583 C 273.218 1.20058 1.62575 0
M  V30 2584 C 273.539 -0.242947 1.93481 0
M  V30 2585 O 272.809 -1.1619 1.57724 0
M  V30 2586 H 271.389 0.44135 0.602677 0
M  V30 2587 H 274.051 1.64222 1.04962 0
M  V30 2588 H 273.147 1.76762 2.57219 0
M  V30 2589 N 273.449 -1.08991 1.13837 0
M  V30 2590 C 274.698 -1.80631 0.897509 0
M  V30 2591 C 275.011 -1.86872 -0.57777 0
M  V30 2592 O 276.217 -2.54866 -0.935701 0
M  V30 2593 C 274.673 -3.24517 1.55618 0
M  V30 2594 C 274.281 -3.26529 3.0673 0
M  V30 2595 C 276.025 -4.00882 1.3962 0
M  V30 2596 C 273.932 -4.64965 3.65461 0
M  V30 2597 H 272.862 -0.67691 0.332129 0
M  V30 2598 H 275.513 -1.2246 1.3666 0
M  V30 2599 H 273.895 -3.82778 1.01476 0
M  V30 2600 H 275.069 -2.78008 3.67489 0
M  V30 2601 H 273.384 -2.63656 3.22296 0
M  V30 2602 H 275.981 -5.03167 1.80906 0
M  V30 2603 H 276.324 -4.14896 0.341578 0
M  V30 2604 H 276.857 -3.49075 1.90766 0
M  V30 2605 H 273.596 -4.56153 4.70749 0
M  V30 2606 H 273.116 -5.13792 3.09481 0
M  V30 2607 H 274.795 -5.3394 3.654 0
M  V30 2608 N 274.927 -0.932562 -1.27047 0
M  V30 2609 C 276.338 -0.619451 -1.76124 0
M  V30 2610 C 276.689 0.865397 -1.76083 0
M  V30 2611 O 275.814 1.67722 -1.36742 0
M  V30 2612 C 276.409 -1.11771 -3.19832 0
M  V30 2613 C 274.968 -0.855174 -3.66557 0
M  V30 2614 C 274.115 -1.27362 -2.46321 0
M  V30 2615 H 277.066 -1.11181 -1.13245 0
M  V30 2616 H 277.087 -0.46759 -3.77616 0
M  V30 2617 H 276.599 -2.19842 -3.1983 0
M  V30 2618 H 274.7 0.211524 -3.71999 0
M  V30 2619 H 274.813 -1.47613 -4.55793 0
M  V30 2620 H 273.177 -0.692119 -2.45116 0
M  V30 2621 H 273.96 -2.36307 -2.49025 0
M  V30 2622 N 276.405 1.4127 -0.698611 0
M  V30 2623 C 277.633 2.05503 -0.239992 0
M  V30 2624 C 278.048 1.52584 1.11191 0
M  V30 2625 O 277.405 0.675323 1.69545 0
M  V30 2626 C 277.456 3.60987 -0.192429 0
M  V30 2627 O 277.177 4.1195 -1.49094 0
M  V30 2628 C 278.678 4.42371 0.28681 0
M  V30 2629 H 275.898 0.661748 -0.111045 0
M  V30 2630 H 278.442 1.80987 -0.95205 0
M  V30 2631 H 276.597 3.84533 0.470472 0
M  V30 2632 H 277.011 5.06018 -1.38007 0
M  V30 2633 H 278.485 5.51344 0.26896 0
M  V30 2634 H 278.962 4.18699 1.32619 0
M  V30 2635 H 279.568 4.23897 -0.345201 0
M  V30 2636 N 277.883 0.443576 1.51229 0
M  V30 2637 C 279.294 -0.0180867 1.86691 0
M  V30 2638 C 279.645 -1.41384 1.36033 0
M  V30 2639 O 278.77 -2.04291 0.713722 0
M  V30 2640 C 279.365 -0.039597 3.38777 0
M  V30 2641 C 277.924 -0.445692 3.73752 0
M  V30 2642 C 277.071 0.357584 2.74985 0
M  V30 2643 H 280.022 0.659138 1.44364 0
M  V30 2644 H 280.043 -0.847761 3.70936 0
M  V30 2645 H 279.555 0.976382 3.75617 0
M  V30 2646 H 277.656 -1.46704 3.42503 0
M  V30 2647 H 277.769 -0.166155 4.78812 0
M  V30 2648 H 276.133 -0.184973 2.54027 0
M  V30 2649 H 276.916 1.37256 3.14668 0
M  V30 2650 N 279.361 -1.56624 0.175154 0
M  V30 2651 C 280.607 -1.9729 -0.469506 0
M  V30 2652 C 280.94 -1.06128 -1.62636 0
M  V30 2653 O 280.215 -0.109183 -1.94193 0
M  V30 2654 C 280.498 -3.47375 -0.948804 0
M  V30 2655 C 280.351 -4.49317 0.208491 0
M  V30 2656 C 281.67 -4.00652 -1.82116 0
M  V30 2657 H 278.789 -0.717317 -0.16919 0
M  V30 2658 H 281.431 -1.88184 0.262062 0
M  V30 2659 H 279.581 -3.55267 -1.57219 0
M  V30 2660 H 281.253 -4.53482 0.845682 0
M  V30 2661 H 279.496 -4.25121 0.863395 0
M  V30 2662 H 280.167 -5.51741 -0.169059 0
M  V30 2663 H 282.643 -3.95416 -1.2956 0
M  V30 2664 H 281.519 -5.06075 -2.12554 0
M  V30 2665 H 281.78 -3.44699 -2.7683 0
M  V30 2666 N 280.839 0.0985539 -1.57292 0
M  V30 2667 C 281.769 1.12064 -2.04851 0
M  V30 2668 C 282.75 1.41981 -0.936767 0
M  V30 2669 O 283.935 1.52071 -1.20781 0
M  V30 2670 C 281.065 2.44144 -2.47004 0
M  V30 2671 C 280.019 2.28643 -3.6181 0
M  V30 2672 C 279.345 3.65869 -3.89929 0
M  V30 2673 C 280.645 1.72986 -4.92822 0
M  V30 2674 H 282.339 0.724979 -2.9049 0
M  V30 2675 H 279.885 0.34729 -1.39749 0
M  V30 2676 H 281.838 3.15914 -2.78884 0
M  V30 2677 H 280.562 2.85639 -1.5836 0
M  V30 2678 H 279.221 1.59318 -3.30172 0
M  V30 2679 H 278.869 4.04885 -2.98458 0
M  V30 2680 H 278.569 3.56344 -4.67218 0
M  V30 2681 H 280.093 4.39112 -4.2428 0
M  V30 2682 H 281.507 2.34593 -5.23105 0
M  V30 2683 H 279.904 1.74229 -5.74251 0
M  V30 2684 H 280.974 0.689007 -4.7998 0
M  V30 2685 N 282.317 1.53212 0.369288 0
M  V30 2686 C 283.566 1.68436 1.10961 0
M  V30 2687 C 283.879 0.440738 1.9057 0
M  V30 2688 O 285.085 0.473446 2.6734 0
M  V30 2689 C 283.541 2.97744 2.0218 0
M  V30 2690 C 283.149 4.29355 1.279 0
M  V30 2691 C 284.893 3.22334 2.76226 0
M  V30 2692 C 282.8 5.49755 2.17999 0
M  V30 2693 H 281.73 0.627568 0.41794 0
M  V30 2694 H 284.381 1.79713 0.370884 0
M  V30 2695 H 282.763 2.8026 2.79768 0
M  V30 2696 H 283.937 4.57458 0.554007 0
M  V30 2697 H 282.252 4.11179 0.657311 0
M  V30 2698 H 284.849 4.09471 3.43857 0
M  V30 2699 H 285.192 2.38238 3.41392 0
M  V30 2700 H 285.725 3.40475 2.05723 0
M  V30 2701 H 282.464 6.36318 1.57417 0
M  V30 2702 H 281.984 5.25937 2.88359 0
M  V30 2703 H 283.663 5.84401 2.77641 0
M  V30 2704 N 283.795 -0.628877 1.44509 0
M  V30 2705 C 285.041 -1.38863 1.48623 0
M  V30 2706 C 285.396 -1.92038 0.117933 0
M  V30 2707 O 284.689 -1.70853 -0.86716 0
M  V30 2708 C 284.883 -2.56995 2.48371 0
M  V30 2709 C 284.712 -2.15385 3.94765 0
M  V30 2710 C 283.482 -2.02558 4.62924 0
M  V30 2711 C 285.68 -1.74158 4.83915 0
M  V30 2712 N 283.662 -1.54534 5.94132 0
M  V30 2713 C 285.033 -1.37396 6.04584 0
M  V30 2714 C 287.088 -1.61559 4.7096 0
M  V30 2715 C 285.791 -0.892948 7.13736 0
M  V30 2716 C 287.817 -1.14862 5.80139 0
M  V30 2717 C 287.179 -0.790516 6.9995 0
M  V30 2718 H 283.278 -0.502858 0.59888 0
M  V30 2719 H 285.862 -0.72121 1.8085 0
M  V30 2720 H 284.033 -3.21362 2.1813 0
M  V30 2721 H 285.765 -3.23801 2.42766 0
M  V30 2722 H 282.52 -2.23082 4.1777 0
M  V30 2723 H 282.944 -1.32815 6.63844 0
M  V30 2724 H 287.586 -1.87876 3.78764 0
M  V30 2725 H 285.304 -0.617291 8.05739 0
M  V30 2726 H 288.89 -1.05569 5.72142 0
M  V30 2727 H 287.77 -0.434713 7.82994 0
M  V30 2728 N 285.273 -1.31445 -0.869486 0
M  V30 2729 C 286.221 -1.19067 -1.99814 0
M  V30 2730 C 287.215 -0.0988569 -1.69111 0
M  V30 2731 O 288.421 -0.260781 -1.78101 0
M  V30 2732 H 284.796 -0.368677 -0.655425 0
M  V30 2733 H 286.767 -2.14555 -2.07385 0
M  V30 2734 C 285.516 -0.915323 -3.35436 0
M  V30 2735 H 284.839 -1.74759 -3.59582 0
M  V30 2736 H 286.279 -0.868895 -4.15001 0
M  V30 2737 C 284.738 0.381928 -3.34728 0
M  V30 2738 O 285.268 1.39857 -3.76567 0
M  V30 2739 N 283.474 0.398633 -2.87853 0
M  V30 2740 H 283.021 -0.429186 -2.54 0
M  V30 2741 H 282.979 1.26651 -2.87762 0
M  V30 2742 N 286.751 1.08385 -1.14413 0
M  V30 2743 C 287.698 2.15311 -0.831265 0
M  V30 2744 C 288.668 1.64751 0.211292 0
M  V30 2745 O 289.853 1.90627 0.0811674 0
M  V30 2746 C 286.993 3.43658 -0.315143 0
M  V30 2747 C 286.106 4.08064 -1.41802 0
M  V30 2748 C 285.241 5.24207 -0.859126 0
M  V30 2749 C 284.28 5.80554 -1.93967 0
M  V30 2750 N 283.417 6.88042 -1.39793 0
M  V30 2751 H 288.257 2.41415 -1.74708 0
M  V30 2752 H 285.794 1.18474 -0.871909 0
M  V30 2753 H 287.752 4.172 0.00230884 0
M  V30 2754 H 286.382 3.17839 0.56378 0
M  V30 2755 H 285.434 3.3228 -1.85187 0
M  V30 2756 H 286.746 4.45962 -2.23427 0
M  V30 2757 H 285.9 6.04689 -0.49359 0
M  V30 2758 H 284.639 4.87699 -0.011932 0
M  V30 2759 H 283.644 4.98725 -2.31415 0
M  V30 2760 H 284.869 6.19121 -2.79046 0
M  V30 2761 H 282.815 6.53493 -0.572919 0
M  V30 2762 H 282.732 7.24767 -2.15054 0
M  V30 2763 H 284 7.72255 -1.0603 0
M  V30 2764 N 288.23 0.939286 1.26551 0
M  V30 2765 C 289.476 0.586715 1.94128 0
M  V30 2766 C 289.809 -0.8717 1.73537 0
M  V30 2767 O 289.084 -1.62339 1.07127 0
M  V30 2768 C 289.367 0.927497 3.4795 0
M  V30 2769 C 289.22 2.44052 3.77834 0
M  V30 2770 C 290.539 0.441569 4.37879 0
M  V30 2771 H 287.658 0.21463 0.705055 0
M  V30 2772 H 290.3 1.17316 1.49455 0
M  V30 2773 H 288.45 0.428431 3.8613 0
M  V30 2774 H 290.122 3.01216 3.4938 0
M  V30 2775 H 288.365 2.8848 3.23978 0
M  V30 2776 H 289.036 2.62947 4.85348 0
M  V30 2777 H 291.512 0.869448 4.06915 0
M  V30 2778 H 290.388 0.708856 5.44304 0
M  V30 2779 H 290.649 -0.658467 4.37169 0
M  V30 2780 N 289.708 -1.40897 0.706093 0
M  V30 2781 C 290.655 -2.30751 0.0474474 0
M  V30 2782 C 291.625 -1.47678 -0.76029 0
M  V30 2783 O 292.81 -1.76441 -0.726177 0
M  V30 2784 C 289.95 -3.33815 -0.875309 0
M  V30 2785 C 289.063 -4.31961 -0.0580623 0
M  V30 2786 C 288.198 -5.22093 -0.979425 0
M  V30 2787 C 287.237 -6.11902 -0.155706 0
M  V30 2788 N 286.374 -6.94482 -1.03144 0
M  V30 2789 H 291.214 -2.86513 0.819413 0
M  V30 2790 H 288.751 -1.41102 0.415783 0
M  V30 2791 H 290.709 -3.92129 -1.42446 0
M  V30 2792 H 289.339 -2.79579 -1.61356 0
M  V30 2793 H 288.391 -3.75507 0.608147 0
M  V30 2794 H 289.703 -4.95415 0.580082 0
M  V30 2795 H 288.857 -5.85292 -1.59744 0
M  V30 2796 H 287.596 -4.5889 -1.65141 0
M  V30 2797 H 286.601 -5.47742 0.475309 0
M  V30 2798 H 287.826 -6.77162 0.512635 0
M  V30 2799 H 285.772 -6.33877 -1.68924 0
M  V30 2800 H 285.689 -7.54665 -0.449108 0
M  V30 2801 H 286.957 -7.6214 -1.63593 0
M  V30 2802 N 291.186 -0.45159 -1.50991 0
M  V30 2803 C 292.602 -0.104647 -1.59257 0
M  V30 2804 C 292.802 1.38728 -1.4614 0
M  V30 2805 O 291.858 2.15866 -1.30989 0
M  V30 2806 C 293.171 -0.637468 -2.93865 0
M  V30 2807 C 294.719 -0.599166 -3.07212 0
M  V30 2808 C 295.194 -1.1092 -4.44366 0
M  V30 2809 N 296.685 -1.06778 -4.50725 0
M  V30 2810 C 297.42 -1.43314 -5.55201 0
M  V30 2811 N 296.916 -1.87204 -6.67028 0
M  V30 2812 N 298.709 -1.3504 -5.45638 0
M  V30 2813 H 290.86 -1.42214 -1.57762 0
M  V30 2814 H 293.123 -0.586921 -0.744465 0
M  V30 2815 H 292.829 -1.68187 -3.08879 0
M  V30 2816 H 292.703 -0.0702139 -3.77135 0
M  V30 2817 H 295.09 0.436277 -2.91857 0
M  V30 2818 H 295.171 -1.20299 -2.25747 0
M  V30 2819 H 294.815 -2.14318 -4.60467 0
M  V30 2820 H 294.745 -0.481773 -5.24392 0
M  V30 2821 H 297.236 -0.745643 -3.70471 0
M  V30 2822 H 297.549 -2.13282 -7.42786 0
M  V30 2823 H 295.894 -1.91142 -6.68199 0
M  V30 2824 H 299.085 -1.00607 -4.57161 0
M  V30 2825 H 299.258 -1.63841 -6.26945 0
M  V30 2826 N 292.664 1.56529 -0.183458 0
M  V30 2827 C 293.912 1.96855 0.457452 0
M  V30 2828 C 294.233 1.07104 1.62953 0
M  V30 2829 O 293.503 0.139887 1.954 0
M  V30 2830 H 292.083 0.72693 0.171992 0
M  V30 2831 H 294.745 1.93056 -0.267476 0
M  V30 2832 H 293.841 3.01423 0.809368 0
M  V30 2833 N 294.142 -0.090211 1.57342 0
M  V30 2834 C 295.092 -1.11557 1.98844 0
M  V30 2835 C 296.076 -1.35503 0.867624 0
M  V30 2836 O 297.268 -1.36113 1.13148 0
M  V30 2837 C 294.397 -2.43446 2.42051 0
M  V30 2838 C 293.483 -2.22853 3.60828 0
M  V30 2839 N 293.874 -1.72141 4.75606 0
M  V30 2840 C 292.172 -2.53401 3.67021 0
M  V30 2841 C 292.873 -1.65932 5.57531 0
M  V30 2842 N 291.849 -2.11323 5.00843 0
M  V30 2843 H 295.651 -0.716499 2.85032 0
M  V30 2844 H 293.165 -0.297567 1.59651 0
M  V30 2845 H 295.162 -3.17644 2.70014 0
M  V30 2846 H 293.822 -2.84087 1.57241 0
M  V30 2847 H 294.833 -1.41268 4.98261 0
M  V30 2848 H 291.51 -2.97532 2.92884 0
M  V30 2849 H 292.9 -1.27733 6.59647 0
M  V30 2850 N 295.62 -1.53406 -0.361157 0
M  V30 2851 C 296.85 -1.73465 -1.1222 0
M  V30 2852 C 297.258 -0.465486 -1.83384 0
M  V30 2853 O 296.601 0.571611 -1.7458 0
M  V30 2854 C 296.663 -2.84834 -2.19339 0
M  V30 2855 C 296.327 -4.25038 -1.67903 0
M  V30 2856 C 297.324 -5.07231 -1.14074 0
M  V30 2857 C 295.009 -4.71464 -1.73282 0
M  V30 2858 C 297.003 -6.33942 -0.663068 0
M  V30 2859 C 294.69 -5.98153 -1.25127 0
M  V30 2860 C 295.688 -6.79223 -0.717296 0
M  V30 2861 O 295.376 -8.03533 -0.242865 0
M  V30 2862 H 295.108 -0.583526 -0.341283 0
M  V30 2863 H 297.662 -2.00964 -0.424591 0
M  V30 2864 H 295.892 -2.5282 -2.92607 0
M  V30 2865 H 297.581 -2.9303 -2.80871 0
M  V30 2866 H 298.347 -4.72534 -1.09254 0
M  V30 2867 H 294.226 -4.08432 -2.13786 0
M  V30 2868 H 297.77 -6.97167 -0.245612 0
M  V30 2869 H 293.667 -6.32347 -1.29642 0
M  V30 2870 H 294.435 -8.177 -0.361786 0
M  V30 2871 N 297.098 0.621204 -1.44841 0
M  V30 2872 C 298.346 1.37783 -1.47852 0
M  V30 2873 C 298.667 1.94653 -0.116224 0
M  V30 2874 O 297.937 1.76367 0.852737 0
M  V30 2875 H 296.517 0.511453 -0.544449 0
M  V30 2876 H 299.179 0.730446 -1.80694 0
M  V30 2877 H 298.275 2.20414 -2.20961 0
M  V30 2878 N 298.576 1.31904 0.862503 0
M  V30 2879 C 299.822 1.22197 1.61851 0
M  V30 2880 C 300.155 -0.217641 1.92977 0
M  V30 2881 O 299.43 -1.15264 1.56666 0
M  V30 2882 C 299.713 2.07378 2.94391 0
M  V30 2883 C 299.566 3.59678 2.70096 0
M  V30 2884 C 300.885 1.92891 3.95577 0
M  V30 2885 H 298.004 0.445255 0.587296 0
M  V30 2886 H 300.646 1.6177 0.99651 0
M  V30 2887 H 298.796 1.73758 3.47477 0
M  V30 2888 H 300.468 4.03472 2.23625 0
M  V30 2889 H 298.711 3.82735 2.04197 0
M  V30 2890 H 299.382 4.14595 3.64438 0
M  V30 2891 H 301.858 2.22327 3.51724 0
M  V30 2892 H 300.734 2.54781 4.86187 0
M  V30 2893 H 300.995 0.894315 4.3296 0
M  V30 2894 N 300.054 -1.07777 1.14986 0
M  V30 2895 C 300.986 -2.14769 0.800436 0
M  V30 2896 C 301.999 -1.61739 -0.185595 0
M  V30 2897 O 303.188 -1.78462 0.0370358 0
M  V30 2898 C 300.288 -3.38481 0.168533 0
M  V30 2899 C 299.461 -4.20876 1.1909 0
M  V30 2900 C 298.52 -5.22976 0.581575 0
M  V30 2901 O 297.546 -5.55388 1.24633 0
M  V30 2902 N 298.748 -5.76976 -0.638706 0
M  V30 2903 H 301.513 -2.45348 1.72118 0
M  V30 2904 H 299.074 -1.23645 1.04515 0
M  V30 2905 H 301.066 -4.03916 -0.251764 0
M  V30 2906 H 299.636 -3.05651 -0.655467 0
M  V30 2907 H 298.856 -3.51322 1.78791 0
M  V30 2908 H 300.144 -4.7274 1.88133 0
M  V30 2909 H 299.542 -5.52886 -1.19723 0
M  V30 2910 H 298.099 -6.44061 -1.00142 0
M  V30 2911 N 301.532 -0.945985 -1.26051 0
M  V30 2912 C 302.948 -0.649045 -1.45807 0
M  V30 2913 C 303.148 0.796158 -1.85104 0
M  V30 2914 O 302.204 1.57233 -1.97571 0
M  V30 2915 C 303.517 -1.61458 -2.53677 0
M  V30 2916 C 305.065 -1.62481 -2.67524 0
M  V30 2917 C 305.54 -2.57776 -3.7857 0
M  V30 2918 N 307.031 -2.5609 -3.85969 0
M  V30 2919 C 307.766 -3.26508 -4.7136 0
M  V30 2920 N 307.262 -4.0637 -5.61102 0
M  V30 2921 N 309.055 -3.15437 -4.65248 0
M  V30 2922 H 301.206 -1.88005 -0.988328 0
M  V30 2923 H 303.469 -0.808198 -0.4955 0
M  V30 2924 H 303.175 -2.64644 -2.31638 0
M  V30 2925 H 303.049 -1.37036 -3.51427 0
M  V30 2926 H 305.436 -0.600167 -2.88933 0
M  V30 2927 H 305.517 -1.90958 -1.70202 0
M  V30 2928 H 305.161 -3.60361 -3.57913 0
M  V30 2929 H 305.091 -2.26587 -4.75359 0
M  V30 2930 H 307.582 -1.98105 -3.21812 0
M  V30 2931 H 307.895 -4.57042 -6.23164 0
M  V30 2932 H 306.24 -4.10469 -5.60839 0
M  V30 2933 H 309.431 -2.52525 -3.94143 0
M  V30 2934 H 309.604 -3.70584 -5.31575 0
M  V30 2935 N 303.011 1.40521 -0.713556 0
M  V30 2936 C 304.239 2.05237 -0.261775 0
M  V30 2937 C 304.654 1.53755 1.09567 0
M  V30 2938 O 304.011 0.693268 1.6882 0
M  V30 2939 C 304.062 3.60763 -0.230706 0
M  V30 2940 O 303.783 4.10345 -1.53455 0
M  V30 2941 C 305.284 4.42651 0.239874 0
M  V30 2942 H 302.504 0.660533 -0.118057 0
M  V30 2943 H 305.048 1.79967 -0.971192 0
M  V30 2944 H 303.203 3.8501 0.429661 0
M  V30 2945 H 303.617 5.04526 -1.43366 0
M  V30 2946 H 305.091 5.51599 0.210468 0
M  V30 2947 H 305.568 4.20082 1.28171 0
M  V30 2948 H 306.174 4.23507 -0.390142 0
M  V30 2949 N 304.489 0.459591 1.5075 0
M  V30 2950 C 305.399 -0.34613 2.32033 0
M  V30 2951 C 306.415 -1.00686 1.41909 0
M  V30 2952 O 307.591 -0.997361 1.7497 0
M  V30 2953 C 304.656 -1.42029 3.16273 0
M  V30 2954 C 303.717 -0.777362 4.22203 0
M  V30 2955 C 302.95 -1.80034 5.02418 0
M  V30 2956 O 303.173 -3.02544 4.83553 0
M  V30 2957 O 302.107 -1.37853 5.85901 0
M  V30 2958 H 305.933 0.318054 3.0203 0
M  V30 2959 H 303.518 0.221663 1.47746 0
M  V30 2960 H 305.4 -2.04275 3.68578 0
M  V30 2961 H 304.075 -2.06815 2.49016 0
M  V30 2962 H 302.982 -0.116256 3.73919 0
M  V30 2963 H 304.315 -0.172634 4.91897 0
M  V30 2964 N 305.967 -1.56429 0.191757 0
M  V30 2965 C 306.897 -2.21937 -0.725696 0
M  V30 2966 C 307.878 -1.1814 -1.2238 0
M  V30 2967 O 309.063 -1.46636 -1.27325 0
M  V30 2968 C 306.193 -2.87611 -1.94672 0
M  V30 2969 C 305.147 -3.97623 -1.58366 0
M  V30 2970 C 304.473 -4.50446 -2.88102 0
M  V30 2971 C 305.773 -5.16197 -0.796133 0
M  V30 2972 H 307.467 -2.98861 -0.179606 0
M  V30 2973 H 305.013 -1.43749 -0.0849464 0
M  V30 2974 H 306.966 -3.3212 -2.59373 0
M  V30 2975 H 305.69 -2.08087 -2.51728 0
M  V30 2976 H 304.349 -3.53801 -0.960247 0
M  V30 2977 H 303.997 -3.67688 -3.43241 0
M  V30 2978 H 303.697 -5.24675 -2.64556 0
M  V30 2979 H 305.221 -4.97654 -3.53798 0
M  V30 2980 H 306.635 -5.57271 -1.34618 0
M  V30 2981 H 305.032 -5.96471 -0.658928 0
M  V30 2982 H 306.102 -4.84473 0.203478 0
M  V30 2983 N 307.445 0.0818655 -1.57387 0
M  V30 2984 C 308.375 1.09885 -2.06028 0
M  V30 2985 C 309.356 1.4098 -0.951774 0
M  V30 2986 O 310.541 1.50781 -1.22387 0
M  V30 2987 C 307.671 2.4151 -2.4958 0
M  V30 2988 C 306.625 2.24792 -3.64215 0
M  V30 2989 C 305.951 3.61712 -3.93787 0
M  V30 2990 C 307.251 1.67749 -4.94629 0
M  V30 2991 H 308.945 0.694128 -2.91243 0
M  V30 2992 H 306.491 0.332448 -1.4011 0
M  V30 2993 H 308.444 3.12939 -2.82219 0
M  V30 2994 H 307.168 2.83943 -1.61381 0
M  V30 2995 H 305.827 1.55807 -3.31843 0
M  V30 2996 H 305.475 4.01697 -3.02735 0
M  V30 2997 H 305.175 3.51368 -4.70971 0
M  V30 2998 H 306.699 4.34587 -4.28913 0
M  V30 2999 H 308.113 2.29032 -5.25564 0
M  V30 3000 H 306.51 1.68128 -5.76067 0
M  V30 3001 H 307.58 0.638059 -4.80684 0
M  V30 3002 N 308.923 1.53595 0.353017 0
M  V30 3003 C 310.334 1.61937 0.929153 0
M  V30 3004 C 310.685 0.494686 1.89861 0
M  V30 3005 O 309.81 -0.377017 2.1309 0
M  V30 3006 C 310.405 2.93526 1.69199 0
M  V30 3007 C 308.964 3.04161 2.21727 0
M  V30 3008 C 308.111 2.57322 1.03348 0
M  V30 3009 H 311.062 1.58155 0.131431 0
M  V30 3010 H 311.083 2.82034 2.55416 0
M  V30 3011 H 310.595 3.75362 0.986144 0
M  V30 3012 H 308.696 2.26938 2.95516 0
M  V30 3013 H 308.809 4.09465 2.48748 0
M  V30 3014 H 307.173 2.12499 1.40414 0
M  V30 3015 H 307.956 3.41588 0.342428 0
M  V30 3016 N 310.401 -0.613514 1.45168 0
M  V30 3017 C 311.649 -1.36997 1.48581 0
M  V30 3018 C 311.97 -1.94589 0.126545 0
M  V30 3019 O 311.24 -1.76816 -0.843372 0
M  V30 3020 H 309.82 -0.508558 0.547154 0
M  V30 3021 H 312.482 -0.720853 1.81079 0
M  V30 3022 H 311.578 -2.1924 2.22127 0
M  V30 3023 N 311.879 -1.3236 -0.855495 0
M  V30 3024 C 313.156 -1.13491 -1.59309 0
M  V30 3025 C 313.536 0.30503 -2.08885 0
M  V30 3026 O 312.884 1.30151 -1.87811 0
M  V30 3027 C 313.094 -2.16176 -2.73987 0
M  V30 3028 C 314.442 -2.49463 -3.43589 0
M  V30 3029 O 315.466 -2.14715 -2.84211 0
M  V30 3030 O 314.325 -3.09027 -4.50738 0
M  V30 3031 H 311.419 -0.437887 -0.701559 0
M  V30 3032 H 313.965 -1.43887 -0.899696 0
M  V30 3033 H 312.737 -3.1297 -2.34873 0
M  V30 3034 H 312.36 -1.86769 -3.51003 0
M  V30 3035 N 313.357 1.07166 -1.15556 0
M  V30 3036 C 314.773 1.31899 -0.898603 0
M  V30 3037 C 314.973 1.96333 0.453383 0
M  V30 3038 O 314.029 2.22438 1.19489 0
M  V30 3039 C 315.342 2.20826 -2.04099 0
M  V30 3040 C 316.89 2.34269 -2.07574 0
M  V30 3041 C 317.365 3.26546 -3.21141 0
M  V30 3042 N 318.856 3.34127 -3.20801 0
M  V30 3043 C 319.591 4.05595 -4.05315 0
M  V30 3044 N 319.087 4.79661 -4.99897 0
M  V30 3045 N 320.88 4.01555 -3.93332 0
M  V30 3046 H 313.031 0.637302 -2.02613 0
M  V30 3047 H 315.294 0.343468 -0.883591 0
M  V30 3048 H 315 1.80744 -3.01703 0
M  V30 3049 H 314.874 3.21364 -1.97496 0
M  V30 3050 H 317.261 2.73603 -1.10568 0
M  V30 3051 H 317.342 1.33429 -2.18244 0
M  V30 3052 H 316.986 2.87931 -4.184 0
M  V30 3053 H 316.916 4.27345 -3.07708 0
M  V30 3054 H 319.407 2.81336 -2.52306 0
M  V30 3055 H 319.72 5.31694 -5.60822 0
M  V30 3056 H 318.065 4.78671 -5.03884 0
M  V30 3057 H 321.256 3.42806 -3.18751 0
M  V30 3058 H 321.429 4.56987 -4.5942 0
M  V30 3059 N 314.835 0.952656 1.25548 0
M  V30 3060 C 316.112 0.523818 1.88456 0
M  V30 3061 C 316.492 -0.998871 1.85973 0
M  V30 3062 O 315.84 -1.86381 1.3219 0
M  V30 3063 C 316.05 1.0982 3.31271 0
M  V30 3064 C 317.398 1.17385 4.08051 0
M  V30 3065 O 318.422 1.04961 3.40384 0
M  V30 3066 O 317.281 1.36852 5.29088 0
M  V30 3067 H 314.375 0.172485 0.808813 0
M  V30 3068 H 316.921 1.04596 1.33633 0
M  V30 3069 H 315.693 2.1415 3.27499 0
M  V30 3070 H 315.316 0.559191 3.93648 0
M  V30 3071 N 316.313 -1.40141 0.720998 0
M  V30 3072 C 317.261 -2.3252 0.0608547 0
M  V30 3073 C 318.255 -1.52326 -0.741152 0
M  V30 3074 O 319.461 -1.68089 -0.643911 0
M  V30 3075 H 315.836 -0.751999 0.000876664 0
M  V30 3076 H 317.807 -2.8584 0.856614 0
M  V30 3077 C 316.556 -3.37331 -0.842809 0
M  V30 3078 H 315.879 -3.99108 -0.235084 0
M  V30 3079 H 317.319 -4.04452 -1.27257 0
M  V30 3080 C 315.778 -2.73246 -1.97074 0
M  V30 3081 O 316.308 -2.59998 -3.06209 0
M  V30 3082 N 314.514 -2.31547 -1.75597 0
M  V30 3083 H 314.061 -2.42522 -0.868368 0
M  V30 3084 H 314.019 -1.89007 -2.51244 0
M  V30 3085 N 317.792 -0.46758 -1.50504 0
M  V30 3086 C 318.722 0.318381 -2.31319 0
M  V30 3087 C 319.703 0.993564 -1.38066 0
M  V30 3088 O 320.888 0.991411 -1.66987 0
M  V30 3089 C 318.018 1.40275 -3.17711 0
M  V30 3090 C 316.972 0.849373 -4.19487 0
M  V30 3091 C 316.298 2.03177 -4.94594 0
M  V30 3092 C 317.598 -0.136942 -5.2212 0
M  V30 3093 H 319.292 -0.356106 -2.97275 0
M  V30 3094 H 316.838 -0.172703 -1.42961 0
M  V30 3095 H 318.791 1.96004 -3.73042 0
M  V30 3096 H 317.515 2.10596 -2.49634 0
M  V30 3097 H 316.174 0.314076 -3.65252 0
M  V30 3098 H 315.822 2.72187 -4.22993 0
M  V30 3099 H 315.522 1.66774 -5.63436 0
M  V30 3100 H 317.046 2.59403 -5.52759 0
M  V30 3101 H 318.46 0.331056 -5.72343 0
M  V30 3102 H 316.857 -0.41507 -5.98663 0
M  V30 3103 H 317.927 -1.06398 -4.73083 0
M  V30 3104 N 319.27 1.56325 -0.20005 0
M  V30 3105 C 320.233 2.18084 0.705132 0
M  V30 3106 C 321.233 1.13666 1.1374 0
M  V30 3107 O 322.423 1.39023 1.04968 0
M  V30 3108 C 319.555 2.78689 1.96329 0
M  V30 3109 H 320.748 2.99435 0.167023 0
M  V30 3110 H 318.301 1.56221 0.0495725 0
M  V30 3111 H 319.036 2.0115 2.5438 0
M  V30 3112 H 318.821 3.55133 1.66202 0
M  V30 3113 H 320.311 3.26096 2.60866 0
M  V30 3114 N 320.748 -0.0735177 1.57428 0
M  V30 3115 C 321.997 -0.771809 1.86349 0
M  V30 3116 C 322.31 -1.78828 0.792452 0
M  V30 3117 O 323.516 -2.53602 0.96945 0
M  V30 3118 C 321.972 -1.42358 3.30548 0
M  V30 3119 C 321.58 -0.445761 4.45777 0
M  V30 3120 C 323.324 -2.10434 3.6867 0
M  V30 3121 C 321.231 -1.10335 5.81016 0
M  V30 3122 H 320.161 -0.291999 0.695164 0
M  V30 3123 H 322.812 -0.0250749 1.83483 0
M  V30 3124 H 321.194 -2.21852 3.28021 0
M  V30 3125 H 322.368 0.319239 4.59693 0
M  V30 3126 H 320.683 0.130457 4.16196 0
M  V30 3127 H 323.28 -2.60405 4.67004 0
M  V30 3128 H 323.623 -2.90298 2.98383 0
M  V30 3129 H 324.156 -1.37773 3.7318 0
M  V30 3130 H 320.895 -0.345061 6.54591 0
M  V30 3131 H 320.415 -1.83925 5.70904 0
M  V30 3132 H 322.094 -1.62367 6.26295 0
M  V30 3133 N 322.226 -1.5378 -0.344866 0
M  V30 3134 C 323.158 -1.77988 -1.44406 0
M  V30 3135 C 324.171 -0.661138 -1.48771 0
M  V30 3136 O 325.36 -0.937842 -1.51877 0
M  V30 3137 C 322.46 -1.86345 -2.8307 0
M  V30 3138 C 321.633 -3.16256 -3.0216 0
M  V30 3139 C 320.692 -3.15588 -4.21059 0
M  V30 3140 O 319.718 -3.89314 -4.15239 0
M  V30 3141 N 320.92 -2.37864 -5.29529 0
M  V30 3142 H 323.685 -2.72839 -1.24012 0
M  V30 3143 H 321.246 -1.52814 -0.534737 0
M  V30 3144 H 323.238 -1.83351 -3.60783 0
M  V30 3145 H 321.808 -0.986858 -2.96614 0
M  V30 3146 H 321.028 -3.32385 -2.11929 0
M  V30 3147 H 322.316 -4.0207 -3.11797 0
M  V30 3148 H 321.714 -1.77514 -5.37127 0
M  V30 3149 H 320.271 -2.40668 -6.05741 0
M  V30 3150 N 323.704 0.605807 -1.45491 0
M  V30 3151 C 324.932 1.39136 -1.5313 0
M  V30 3152 C 325.347 1.88082 -0.164507 0
M  V30 3153 O 324.704 1.62316 0.834247 0
M  V30 3154 C 324.755 2.59463 -2.51716 0
M  V30 3155 O 324.476 2.12551 -3.83084 0
M  V30 3156 C 325.977 3.52301 -2.6907 0
M  V30 3157 H 323.197 0.425849 -0.51855 0
M  V30 3158 H 325.741 0.73865 -1.90694 0
M  V30 3159 H 323.896 3.20772 -2.17219 0
M  V30 3160 H 324.31 2.90744 -4.36541 0
M  V30 3161 H 325.784 4.33271 -3.42024 0
M  V30 3162 H 326.261 4.02757 -1.75167 0
M  V30 3163 H 326.867 2.96845 -3.04571 0
M  V30 3164 N 325.182 1.32811 0.848464 0
M  V30 3165 C 326.598 1.11937 1.13764 0
M  V30 3166 C 326.798 -0.0960789 2.01271 0
M  V30 3167 O 325.854 -0.779165 2.40178 0
M  V30 3168 C 327.167 2.402 1.809 0
M  V30 3169 C 328.715 2.46016 1.93508 0
M  V30 3170 C 329.19 3.74215 2.64059 0
M  V30 3171 N 330.681 3.75232 2.71579 0
M  V30 3172 C 331.416 4.71134 3.26833 0
M  V30 3173 N 330.912 5.77406 3.8285 0
M  V30 3174 N 332.705 4.58623 3.24995 0
M  V30 3175 H 324.856 2.1073 0.265855 0
M  V30 3176 H 327.119 0.930671 0.180431 0
M  V30 3177 H 326.825 3.29093 1.24058 0
M  V30 3178 H 326.699 2.51628 2.81004 0
M  V30 3179 H 329.086 1.57577 2.49506 0
M  V30 3180 H 329.167 2.38536 0.923811 0
M  V30 3181 H 328.811 4.63031 2.08722 0
M  V30 3182 H 328.741 3.78968 3.65637 0
M  V30 3183 H 331.232 2.98423 2.31845 0
M  V30 3184 H 331.545 6.46632 4.23187 0
M  V30 3185 H 329.89 5.81152 3.81165 0
M  V30 3186 H 333.081 3.74762 2.80484 0
M  V30 3187 H 333.254 5.33535 3.67756 0
M  V30 3188 N 326.66 -1.06551 1.16123 0
M  V30 3189 C 327.908 -1.78947 0.939267 0
M  V30 3190 C 328.229 -1.87532 -0.534476 0
M  V30 3191 O 327.499 -1.38211 -1.38833 0
M  V30 3192 H 326.079 -0.662807 0.344523 0
M  V30 3193 H 328.741 -1.28725 1.46342 0
M  V30 3194 H 327.837 -2.81117 1.35572 0
M  V30 3195 N 328.138 -0.959301 -1.25041 0
M  V30 3196 C 329.386 -0.615393 -1.92503 0
M  V30 3197 C 329.707 0.850969 -1.75452 0
M  V30 3198 O 328.977 1.60658 -1.12098 0
M  V30 3199 H 327.557 -0.224613 -0.712431 0
M  V30 3200 H 330.219 -1.21855 -1.5211 0
M  V30 3201 H 329.315 -0.848738 -3.00338 0
M  V30 3202 N 329.616 1.39756 -0.72842 0
M  V30 3203 C 331.027 1.83498 -0.344289 0
M  V30 3204 C 331.378 1.60868 1.12321 0
M  V30 3205 O 330.503 1.09634 1.86573 0
M  V30 3206 C 331.098 3.33114 -0.618112 0
M  V30 3207 C 329.657 3.753 -0.287549 0
M  V30 3208 C 328.804 2.62831 -0.884048 0
M  V30 3209 H 331.755 1.28842 -0.926578 0
M  V30 3210 H 331.776 3.80334 0.112349 0
M  V30 3211 H 331.288 3.49553 -1.68625 0
M  V30 3212 H 329.389 3.64451 0.775012 0
M  V30 3213 H 329.502 4.72945 -0.765512 0
M  V30 3214 H 327.866 2.52792 -0.311149 0
M  V30 3215 H 328.649 2.82078 -1.95671 0
M  V30 3216 N 331.094 0.475555 1.50254 0
M  V30 3217 C 332.004 -0.321501 2.32387 0
M  V30 3218 C 333.02 -0.991755 1.42969 0
M  V30 3219 O 334.196 -0.978747 1.76018 0
M  V30 3220 C 331.261 -1.38667 3.17762 0
M  V30 3221 C 330.322 -0.732538 4.23004 0
M  V30 3222 C 329.555 -1.74695 5.04299 0
M  V30 3223 O 329.778 -2.97399 4.86734 0
M  V30 3224 O 328.712 -1.31631 5.8733 0
M  V30 3225 H 332.538 0.350071 3.01676 0
M  V30 3226 H 330.123 0.237321 1.47503 0
M  V30 3227 H 332.005 -2.00354 3.70724 0
M  V30 3228 H 330.68 -2.04163 2.51196 0
M  V30 3229 H 329.587 -0.0765902 3.74022 0
M  V30 3230 H 330.92 -0.120452 4.92053 0
M  V30 3231 N 332.573 -1.56217 0.208337 0
M  V30 3232 C 333.52 -2.19699 -0.707192 0
M  V30 3233 C 334.49 -1.14836 -1.20008 0
M  V30 3234 O 335.675 -1.4314 -1.26157 0
M  V30 3235 C 332.815 -2.87061 -1.91546 0
M  V30 3236 C 331.928 -4.06483 -1.46271 0
M  V30 3237 C 331.063 -4.61665 -2.62752 0
M  V30 3238 C 330.102 -5.73417 -2.14147 0
M  V30 3239 N 329.239 -6.22948 -3.23853 0
M  V30 3240 H 334.079 -2.97575 -0.159111 0
M  V30 3241 H 331.616 -1.46948 -0.0667874 0
M  V30 3242 H 333.574 -3.24294 -2.62468 0
M  V30 3243 H 332.204 -2.11725 -2.43664 0
M  V30 3244 H 331.256 -3.74825 -0.648886 0
M  V30 3245 H 332.568 -4.87271 -1.06622 0
M  V30 3246 H 331.722 -5.01272 -3.41776 0
M  V30 3247 H 330.461 -3.80013 -3.05682 0
M  V30 3248 H 329.466 -5.33326 -1.33581 0
M  V30 3249 H 330.691 -6.56897 -1.72232 0
M  V30 3250 H 328.637 -5.44213 -3.6629 0
M  V30 3251 H 328.554 -6.98823 -2.88414 0
M  V30 3252 H 329.822 -6.6721 -4.03052 0
M  V30 3253 N 334.051 0.0651679 -1.57465 0
M  V30 3254 C 335.001 1.0838 -2.00594 0
M  V30 3255 C 335.985 1.34106 -0.889071 0
M  V30 3256 O 337.177 1.34295 -1.15299 0
M  V30 3257 C 334.306 2.39565 -2.45894 0
M  V30 3258 C 333.392 2.17085 -3.64328 0
M  V30 3259 N 333.783 1.64553 -4.78285 0
M  V30 3260 C 332.081 2.4753 -3.71006 0
M  V30 3261 C 332.782 1.57042 -5.60101 0
M  V30 3262 N 331.758 2.03328 -5.04141 0
M  V30 3263 H 335.56 0.671062 -2.86136 0
M  V30 3264 H 333.074 0.27213 -1.60104 0
M  V30 3265 H 335.071 3.13308 -2.75034 0
M  V30 3266 H 333.731 2.81549 -1.61741 0
M  V30 3267 H 334.742 1.33323 -5.00445 0
M  V30 3268 H 331.419 2.92835 -2.9758 0
M  V30 3269 H 332.809 1.17223 -6.61595 0
M  V30 3270 N 335.529 1.53961 0.336706 0
M  V30 3271 C 336.439 1.85432 1.43708 0
M  V30 3272 C 337.455 0.745053 1.57242 0
M  V30 3273 O 338.631 1.03804 1.72588 0
M  V30 3274 C 335.696 2.06349 2.78605 0
M  V30 3275 C 334.757 3.30191 2.74358 0
M  V30 3276 C 333.99 3.50101 4.02822 0
M  V30 3277 O 334.213 2.7371 5.00439 0
M  V30 3278 O 333.147 4.43547 4.06878 0
M  V30 3279 H 336.973 2.78975 1.20028 0
M  V30 3280 H 334.558 1.39701 0.52952 0
M  V30 3281 H 336.44 2.21513 3.58483 0
M  V30 3282 H 335.115 1.15995 3.02203 0
M  V30 3283 H 334.022 3.20425 1.93078 0
M  V30 3284 H 335.355 4.2056 2.55715 0
M  V30 3285 N 337.007 -0.598083 1.45811 0
M  V30 3286 C 338.253 -1.35882 1.50545 0
M  V30 3287 C 338.586 -1.93616 0.150445 0
M  V30 3288 O 337.861 -1.75604 -0.83628 0
M  V30 3289 C 338.144 -2.49966 2.59208 0
M  V30 3290 C 337.997 -1.97367 4.04186 0
M  V30 3291 C 339.316 -3.52068 2.64076 0
M  V30 3292 H 336.435 -0.492717 0.548087 0
M  V30 3293 H 339.077 -0.673319 1.77669 0
M  V30 3294 H 337.227 -3.08443 2.3621 0
M  V30 3295 H 338.899 -1.43466 4.38423 0
M  V30 3296 H 337.142 -1.283 4.14393 0
M  V30 3297 H 337.813 -2.79649 4.75921 0
M  V30 3298 H 340.289 -3.03448 2.84708 0
M  V30 3299 H 339.165 -4.2937 3.41954 0
M  V30 3300 H 339.426 -4.08304 1.69531 0
M  V30 3301 N 338.485 -1.33259 -0.841409 0
M  V30 3302 C 339.713 -1.27605 -1.62864 0
M  V30 3303 C 340.128 0.153507 -1.88175 0
M  V30 3304 O 339.485 1.09485 -1.46011 0
M  V30 3305 C 339.536 -2.04596 -2.98031 0
M  V30 3306 O 339.257 -3.41975 -2.73834 0
M  V30 3307 C 340.758 -2.06122 -3.92465 0
M  V30 3308 H 337.978 -0.439718 -0.506842 0
M  V30 3309 H 340.522 -1.75591 -1.04824 0
M  V30 3310 H 338.677 -1.60299 -3.5268 0
M  V30 3311 H 339.091 -3.81549 -3.59889 0
M  V30 3312 H 340.565 -2.64451 -4.84531 0
M  V30 3313 H 341.042 -1.05083 -4.26444 0
M  V30 3314 H 341.648 -2.50427 -3.43753 0
M  V30 3315 N 339.963 1.05934 -1.16686 0
M  V30 3316 C 341.211 1.78447 -0.948744 0
M  V30 3317 C 341.532 1.87813 0.524523 0
M  V30 3318 O 340.802 1.38945 1.38098 0
M  V30 3319 H 339.382 0.660971 -0.348033 0
M  V30 3320 H 342.044 1.27947 -1.47022 0
M  V30 3321 H 341.14 2.80394 -1.37061 0
M  V30 3322 N 341.441 0.965919 1.2453 0
M  V30 3323 C 342.687 0.637349 1.93156 0
M  V30 3324 C 343.042 -0.818261 1.74133 0
M  V30 3325 O 342.335 -1.58079 1.08266 0
M  V30 3326 C 342.529 0.945428 3.44669 0
M  V30 3327 C 342.358 2.42944 3.78429 0
M  V30 3328 C 341.128 3.08895 3.9989 0
M  V30 3329 C 343.326 3.40941 3.8505 0
M  V30 3330 N 341.308 4.47052 4.20735 0
M  V30 3331 C 342.679 4.64448 4.10717 0
M  V30 3332 C 344.734 3.35624 3.67779 0
M  V30 3333 C 343.437 5.83292 4.20907 0
M  V30 3334 C 345.463 4.53818 3.79214 0
M  V30 3335 C 344.825 5.76114 4.05304 0
M  V30 3336 H 340.924 0.284034 0.728594 0
M  V30 3337 H 343.508 1.24041 1.50073 0
M  V30 3338 H 341.679 0.371193 3.86622 0
M  V30 3339 H 343.411 0.575613 4.00586 0
M  V30 3340 H 340.166 2.59432 3.96222 0
M  V30 3341 H 340.59 5.18634 4.35141 0
M  V30 3342 H 345.232 2.4211 3.46616 0
M  V30 3343 H 342.95 6.77236 4.40883 0
M  V30 3344 H 346.536 4.51263 3.67224 0
M  V30 3345 H 345.416 6.66045 4.13949 0
M  V30 3346 N 342.919 -1.39368 0.735821 0
M  V30 3347 C 344.165 -2.00794 0.284544 0
M  V30 3348 C 344.498 -1.58255 -1.12557 0
M  V30 3349 O 343.773 -0.811819 -1.76748 0
M  V30 3350 C 344.056 -3.58011 0.387337 0
M  V30 3351 C 343.909 -4.10566 1.83728 0
M  V30 3352 C 345.228 -4.395 -0.22975 0
M  V30 3353 H 342.347 -0.729501 0.104866 0
M  V30 3354 H 344.989 -1.65564 0.93213 0
M  V30 3355 H 343.139 -3.88154 -0.164006 0
M  V30 3356 H 344.811 -3.91139 2.44556 0
M  V30 3357 H 343.054 -3.64095 2.35833 0
M  V30 3358 H 343.725 -5.19702 1.86047 0
M  V30 3359 H 346.201 -4.15406 0.240257 0
M  V30 3360 H 345.077 -5.48752 -0.127485 0
M  V30 3361 H 345.338 -4.22062 -1.3159 0
M  V30 3362 N 344.397 -0.483516 -1.5 0
M  V30 3363 C 345.327 0.293829 -2.31644 0
M  V30 3364 C 346.308 0.978864 -1.39112 0
M  V30 3365 O 347.493 0.973644 -1.68029 0
M  V30 3366 C 344.623 1.36897 -3.19181 0
M  V30 3367 C 343.577 0.804833 -4.20365 0
M  V30 3368 C 342.903 1.9792 -4.96721 0
M  V30 3369 C 344.203 -0.192313 -5.21946 0
M  V30 3370 H 345.897 -0.387616 -2.9688 0
M  V30 3371 H 343.443 -0.187856 -1.42769 0
M  V30 3372 H 345.396 1.92037 -3.751 0
M  V30 3373 H 344.12 2.07936 -2.51853 0
M  V30 3374 H 342.779 0.275319 -3.65565 0
M  V30 3375 H 342.427 2.67686 -4.25856 0
M  V30 3376 H 342.127 1.60789 -5.65173 0
M  V30 3377 H 343.651 2.53526 -5.55479 0
M  V30 3378 H 345.065 0.270333 -5.72662 0
M  V30 3379 H 343.462 -0.478543 -5.98189 0
M  V30 3380 H 344.532 -1.11409 -4.71928 0
M  V30 3381 N 345.875 1.56104 -0.216619 0
M  V30 3382 C 347.121 1.98466 0.417033 0
M  V30 3383 C 347.454 1.10403 1.59765 0
M  V30 3384 O 346.729 0.160632 1.93836 0
M  V30 3385 C 347.012 3.49769 0.85637 0
M  V30 3386 C 346.865 4.48606 -0.327546 0
M  V30 3387 C 348.184 4.05339 1.7143 0
M  V30 3388 H 345.303 0.721551 0.150112 0
M  V30 3389 H 347.945 1.87423 -0.311864 0
M  V30 3390 H 346.095 3.5931 1.47745 0
M  V30 3391 H 347.767 4.5108 -0.965618 0
M  V30 3392 H 346.01 4.22682 -0.975805 0
M  V30 3393 H 346.681 5.51995 0.0227149 0
M  V30 3394 H 349.157 3.98712 1.19031 0
M  V30 3395 H 348.033 5.11533 1.99061 0
M  V30 3396 H 348.294 3.51918 2.67593 0
M  V30 3397 N 347.353 -0.0568162 1.57498 0
M  V30 3398 C 348.578 -0.769402 1.92601 0
M  V30 3399 C 349.003 -1.69559 0.814336 0
M  V30 3400 O 348.361 -1.79811 -0.231903 0
M  V30 3401 C 348.409 -1.52634 3.26704 0
M  V30 3402 O 347.513 -2.63797 3.16994 0
M  V30 3403 H 346.854 -0.208909 0.63028 0
M  V30 3404 H 349.384 -0.0205798 2.0459 0
M  V30 3405 H 349.394 -1.90234 3.60936 0
M  V30 3406 H 348.069 -0.846875 4.07186 0
M  V30 3407 H 346.646 -2.28943 2.94346 0
M  V30 3408 N 348.832 -1.54138 -0.328536 0
M  V30 3409 C 350.243 -1.63395 -0.903272 0
M  V30 3410 C 350.594 -0.524828 -1.8905 0
M  V30 3411 O 349.719 0.343068 -2.13663 0
M  V30 3412 C 350.314 -2.9618 -1.64507 0
M  V30 3413 C 348.873 -3.0765 -2.1686 0
M  V30 3414 C 348.02 -2.58933 -0.992416 0
M  V30 3415 H 350.971 -1.58344 -0.106253 0
M  V30 3416 H 350.992 -2.86061 -2.50897 0
M  V30 3417 H 350.504 -3.76884 -0.926302 0
M  V30 3418 H 348.605 -2.31611 -2.91868 0
M  V30 3419 H 348.718 -4.1337 -2.42202 0
M  V30 3420 H 347.082 -2.14706 -1.37016 0
M  V30 3421 H 347.865 -3.42089 -0.288041 0
M  V30 3422 N 350.31 0.590341 -1.46126 0
M  V30 3423 C 351.24 1.71032 -1.58966 0
M  V30 3424 C 352.221 1.64302 -0.440335 0
M  V30 3425 O 353.406 1.82436 -0.665634 0
M  V30 3426 C 350.536 3.09665 -1.57241 0
M  V30 3427 C 349.49 3.31221 -2.71066 0
M  V30 3428 C 348.816 4.70303 -2.54399 0
M  V30 3429 C 350.116 3.19796 -4.1295 0
M  V30 3430 H 351.81 1.60543 -2.52718 0
M  V30 3431 H 349.356 0.770933 -1.21625 0
M  V30 3432 H 351.309 3.87831 -1.64819 0
M  V30 3433 H 350.033 3.21036 -0.600289 0
M  V30 3434 H 348.692 2.55452 -2.62944 0
M  V30 3435 H 348.34 4.78429 -1.55288 0
M  V30 3436 H 348.04 4.85679 -3.30741 0
M  V30 3437 H 349.564 5.50647 -2.63857 0
M  V30 3438 H 350.978 3.87815 -4.22223 0
M  V30 3439 H 349.375 3.46696 -4.89818 0
M  V30 3440 H 350.445 2.16983 -4.33643 0
M  V30 3441 N 351.788 1.33704 0.83433 0
M  V30 3442 C 353.013 1.28615 1.62705 0
M  V30 3443 C 353.438 -0.139242 1.87584 0
M  V30 3444 O 352.796 -1.09734 1.4432 0
M  V30 3445 C 352.844 2.07139 2.95171 0
M  V30 3446 O 351.948 1.4331 3.86699 0
M  V30 3447 H 351.289 0.44226 0.49528 0
M  V30 3448 H 353.819 1.76335 1.03766 0
M  V30 3449 H 353.829 2.18073 3.44831 0
M  V30 3450 H 352.504 3.10779 2.76386 0
M  V30 3451 H 351.081 1.4105 3.45195 0
M  V30 3452 N 353.266 -1.05314 1.17247 0
M  V30 3453 C 354.213 -2.13031 0.888058 0
M  V30 3454 C 355.183 -1.65253 -0.167537 0
M  V30 3455 O 356.368 -1.90775 -0.0305974 0
M  V30 3456 C 353.508 -3.42702 0.406147 0
M  V30 3457 C 352.621 -4.04161 1.52572 0
M  V30 3458 C 351.756 -5.21744 0.997808 0
M  V30 3459 C 350.795 -5.75207 2.09291 0
M  V30 3460 N 349.932 -6.84094 1.57986 0
M  V30 3461 H 354.772 -2.36698 1.81048 0
M  V30 3462 H 352.309 -1.16121 0.903013 0
M  V30 3463 H 354.267 -4.17059 0.108305 0
M  V30 3464 H 352.897 -3.19222 -0.479313 0
M  V30 3465 H 351.949 -3.27253 1.93931 0
M  V30 3466 H 353.261 -4.39881 2.35172 0
M  V30 3467 H 352.415 -6.03168 0.653739 0
M  V30 3468 H 351.154 -4.87495 0.141232 0
M  V30 3469 H 350.159 -4.92414 2.44557 0
M  V30 3470 H 351.384 -6.11505 2.95362 0
M  V30 3471 H 349.33 -6.51745 0.74598 0
M  V30 3472 H 349.247 -7.18811 2.34195 0
M  V30 3473 H 350.515 -7.69172 1.26468 0
M  V30 3474 N 354.744 -0.972509 -1.24016 0
M  V30 3475 C 355.654 -0.5143 -2.28893 0
M  V30 3476 C 356.67 0.427078 -1.68677 0
M  V30 3477 O 357.846 0.298939 -1.99169 0
M  V30 3478 C 354.911 0.183598 -3.46214 0
M  V30 3479 C 353.972 -0.798202 -4.21814 0
M  V30 3480 C 353.205 -0.133514 -5.33533 0
M  V30 3481 O 353.428 1.07714 -5.60137 0
M  V30 3482 O 352.362 -0.828103 -5.96176 0
M  V30 3483 H 356.188 -1.38629 -2.70214 0
M  V30 3484 H 353.773 -0.739769 -1.29799 0
M  V30 3485 H 355.655 0.575433 -4.17453 0
M  V30 3486 H 354.33 1.03048 -3.0686 0
M  V30 3487 H 353.237 -1.24059 -3.52931 0
M  V30 3488 H 354.57 -1.61364 -4.64997 0
M  V30 3489 N 356.222 1.38976 -0.743202 0
M  V30 3490 C 357.499 1.94351 -0.220705 0
M  V30 3491 C 357.879 1.67935 1.2791 0
M  V30 3492 O 357.227 1.01211 2.04862 0
M  V30 3493 C 357.437 3.44426 -0.563171 0
M  V30 3494 C 358.785 4.2144 -0.517046 0
M  V30 3495 O 359.809 3.52661 -0.500846 0
M  V30 3496 O 358.668 5.44032 -0.518806 0
M  V30 3497 H 355.762 0.825879 -0.043047 0
M  V30 3498 H 358.308 1.48429 -0.822618 0
M  V30 3499 H 357.08 3.5712 -1.59941 0
M  V30 3500 H 356.703 3.97543 0.0672883 0
M  V30 3501 N 357.7 0.491464 1.49741 0
M  V30 3502 C 358.663 -0.280906 2.27472 0
M  V30 3503 C 359.663 -0.902454 1.33088 0
M  V30 3504 O 360.853 -0.768465 1.56334 0
M  V30 3505 C 357.985 -1.40209 3.10732 0
M  V30 3506 H 359.178 0.401056 2.97206 0
M  V30 3507 H 356.731 0.246131 1.5435 0
M  V30 3508 H 357.466 -2.11849 2.45541 0
M  V30 3509 H 357.251 -0.961969 3.80117 0
M  V30 3510 H 358.741 -1.9464 3.69466 0
M  V30 3511 N 359.178 -1.55987 0.224894 0
M  V30 3512 C 360.426 -1.97998 -0.405099 0
M  V30 3513 C 360.747 -1.11387 -1.60056 0
M  V30 3514 O 360.017 -0.191645 -1.9496 0
M  V30 3515 H 358.597 -0.731235 -0.152658 0
M  V30 3516 H 361.259 -1.92279 0.318567 0
M  V30 3517 H 360.355 -3.03463 -0.729167 0
M  V30 3518 N 360.656 0.0484629 -1.57525 0
M  V30 3519 C 361.566 1.07241 -2.08654 0
M  V30 3520 C 362.582 1.409 -1.02095 0
M  V30 3521 O 363.758 1.50609 -1.33712 0
M  V30 3522 C 360.823 2.36008 -2.5397 0
M  V30 3523 C 359.884 2.09108 -3.7493 0
M  V30 3524 C 359.117 3.31736 -4.18075 0
M  V30 3525 O 359.34 4.41714 -3.60895 0
M  V30 3526 O 358.274 3.18576 -5.10679 0
M  V30 3527 H 362.1 0.667965 -2.96263 0
M  V30 3528 H 359.685 0.26417 -1.47046 0
M  V30 3529 H 361.567 3.11747 -2.83535 0
M  V30 3530 H 360.242 2.75786 -1.69481 0
M  V30 3531 H 359.149 1.31 -3.50414 0
M  V30 3532 H 360.482 1.74198 -4.60343 0
M  V30 3533 N 362.134 1.5431 0.320358 0
M  V30 3534 C 363.364 1.7638 1.07582 0
M  V30 3535 C 363.772 0.513944 1.82086 0
M  V30 3536 O 363.115 -0.525123 1.76035 0
M  V30 3537 C 363.177 2.9055 2.1171 0
M  V30 3538 C 362.841 4.2934 1.56575 0
M  V30 3539 C 363.838 5.10077 1.00586 0
M  V30 3540 C 361.523 4.75893 1.60722 0
M  V30 3541 C 363.517 6.35477 0.494756 0
M  V30 3542 C 361.204 6.0126 1.09224 0
M  V30 3543 C 362.202 6.80886 0.53696 0
M  V30 3544 O 361.89 8.03894 0.0297371 0
M  V30 3545 H 361.622 0.592369 0.325692 0
M  V30 3546 H 364.176 2.02019 0.37116 0
M  V30 3547 H 362.406 2.60489 2.85801 0
M  V30 3548 H 364.095 3.00373 2.73003 0
M  V30 3549 H 364.861 4.75265 0.966869 0
M  V30 3550 H 360.74 4.13957 2.02882 0
M  V30 3551 H 364.284 6.97574 0.0606842 0
M  V30 3552 H 360.181 6.35562 1.12831 0
M  V30 3553 H 360.949 8.18372 0.14486 0
M  V30 3554 N 363.613 -0.582584 1.46437 0
M  V30 3555 C 364.523 -1.71949 1.59595 0
M  V30 3556 C 365.539 -1.67264 0.479443 0
M  V30 3557 O 366.715 -1.87171 0.743579 0
M  V30 3558 C 363.78 -3.08452 1.58298 0
M  V30 3559 C 362.841 -3.244 2.81182 0
M  V30 3560 C 362.074 -4.54391 2.79937 0
M  V30 3561 O 362.297 -5.38287 1.8869 0
M  V30 3562 O 361.231 -4.73588 3.71481 0
M  V30 3563 H 365.057 -1.63795 2.55744 0
M  V30 3564 H 362.642 -0.749643 1.29231 0
M  V30 3565 H 364.524 -3.89732 1.60271 0
M  V30 3566 H 363.199 -3.17043 0.653094 0
M  V30 3567 H 362.106 -2.42613 2.84763 0
M  V30 3568 H 363.439 -3.20699 3.7338 0
M  V30 3569 N 365.091 -1.34144 -0.827227 0
M  V30 3570 C 366.331 -1.27603 -1.59677 0
M  V30 3571 C 366.695 0.153035 -1.91389 0
M  V30 3572 O 367.896 0.342566 -2.66608 0
M  V30 3573 C 366.167 -2.13784 -2.86411 0
M  V30 3574 S 367.726 -2.24552 -3.76991 0
M  V30 3575 H 364.544 -0.453789 -0.547354 0
M  V30 3576 H 367.146 -1.69309 -0.977479 0
M  V30 3577 H 365.85 -3.16627 -2.61104 0
M  V30 3578 H 365.381 -1.72959 -3.5334 0
M  V30 3579 H 367.396 -1.41514 -4.75593 0
M  V30 3580 N 366.569 1.04691 -1.17803 0
M  V30 3581 C 367.519 2.10856 -0.867391 0
M  V30 3582 C 368.503 1.601 0.160206 0
M  V30 3583 O 369.695 1.76948 -0.042947 0
M  V30 3584 C 366.824 3.411 -0.388012 0
M  V30 3585 C 365.91 3.9864 -1.44732 0
M  V30 3586 N 366.301 4.30075 -2.66212 0
M  V30 3587 C 364.599 4.26439 -1.30637 0
M  V30 3588 C 365.3 4.76033 -3.34317 0
M  V30 3589 N 364.276 4.76462 -2.61696 0
M  V30 3590 H 368.078 2.33029 -1.79094 0
M  V30 3591 H 365.592 1.22386 -1.0675 0
M  V30 3592 H 367.589 4.16641 -0.146994 0
M  V30 3593 H 366.249 3.20357 0.529271 0
M  V30 3594 H 367.26 4.19917 -3.03134 0
M  V30 3595 H 363.937 4.15056 -0.451129 0
M  V30 3596 H 365.327 5.09427 -4.38103 0
M  V30 3597 N 368.047 0.979072 1.23499 0
M  V30 3598 C 369.01 0.523244 2.23147 0
M  V30 3599 C 370.01 -0.386406 1.56088 0
M  V30 3600 O 371.2 -0.180283 1.73265 0
M  V30 3601 C 368.332 -0.240739 3.40049 0
M  V30 3602 H 369.525 1.40432 2.64989 0
M  V30 3603 H 367.078 0.764824 1.36309 0
M  V30 3604 H 367.813 -1.13841 3.03662 0
M  V30 3605 H 367.598 0.412207 3.89927 0
M  V30 3606 H 369.088 -0.548297 4.13985 0
M  V30 3607 N 369.525 -1.3858 0.750561 0
M  V30 3608 C 370.75 -2.04997 0.314812 0
M  V30 3609 C 371.175 -1.56235 -1.04749 0
M  V30 3610 O 370.533 -0.712981 -1.66692 0
M  V30 3611 C 370.581 -3.58961 0.343415 0
M  V30 3612 O 369.685 -4.07025 -0.663628 0
M  V30 3613 H 369.026 -0.649081 0.139962 0
M  V30 3614 H 371.556 -1.77313 1.02084 0
M  V30 3615 H 371.566 -4.07542 0.193233 0
M  V30 3616 H 370.241 -3.93811 1.33738 0
M  V30 3617 H 368.818 -3.6982 -0.478307 0
M  V30 3618 N 371.003 -0.499398 -1.49478 0
M  V30 3619 C 371.951 0.293604 -2.3074 0
M  V30 3620 C 372.945 0.96427 -1.39277 0
M  V30 3621 O 374.151 0.892141 -1.56336 0
M  V30 3622 H 370.526 0.113541 -0.743379 0
M  V30 3623 H 372.497 -0.411772 -2.95545 0
M  V30 3624 C 371.246 1.3462 -3.20582 0
M  V30 3625 H 370.569 0.83954 -3.90886 0
M  V30 3626 H 372.009 1.87308 -3.80384 0
M  V30 3627 C 370.468 2.36351 -2.40083 0
M  V30 3628 O 370.998 3.422 -2.10385 0
M  V30 3629 N 369.204 2.0878 -2.02137 0
M  V30 3630 H 368.751 1.22723 -2.26488 0
M  V30 3631 H 368.709 2.77075 -1.48583 0
M  V30 3632 N 372.481 1.55866 -0.233164 0
M  V30 3633 C 373.706 2.03449 0.402906 0
M  V30 3634 C 374.131 1.11166 1.51736 0
M  V30 3635 O 373.489 0.101996 1.81013 0
M  V30 3636 C 373.537 3.49165 0.9009 0
M  V30 3637 O 372.641 3.60019 2.01147 0
M  V30 3638 H 371.982 0.657913 0.0897025 0
M  V30 3639 H 374.512 2.01493 -0.355201 0
M  V30 3640 H 374.522 3.89716 1.2077 0
M  V30 3641 H 373.197 4.15813 0.0852889 0
M  V30 3642 H 371.774 3.3136 1.71042 0
M  V30 3643 N 373.959 -0.0401083 1.57549 0
M  V30 3644 C 374.891 -1.07149 2.02612 0
M  V30 3645 C 375.904 -1.33126 0.937085 0
M  V30 3646 O 377.093 -1.30808 1.21456 0
M  V30 3647 C 374.193 -2.41561 2.37701 0
M  V30 3648 C 373.366 -2.35096 3.68848 0
M  V30 3649 C 372.425 -3.51867 3.91249 0
M  V30 3650 O 371.451 -3.3186 4.62447 0
M  V30 3651 N 372.653 -4.73351 3.36035 0
M  V30 3652 H 375.418 -0.687485 2.91708 0
M  V30 3653 H 372.979 -0.228248 1.60283 0
M  V30 3654 H 374.971 -3.18379 2.49833 0
M  V30 3655 H 373.541 -2.71846 1.54332 0
M  V30 3656 H 372.761 -1.4345 3.67173 0
M  V30 3657 H 374.049 -2.27908 4.54901 0
M  V30 3658 H 373.447 -4.92507 2.78304 0
M  V30 3659 H 372.004 -5.47572 3.53565 0
M  V30 3660 N 375.437 -1.54477 -0.31217 0
M  V30 3661 C 376.685 -1.72884 -1.04668 0
M  V30 3662 C 377.006 -0.511477 -1.88173 0
M  V30 3663 O 376.276 0.474407 -1.90069 0
M  V30 3664 H 374.856 -0.637461 -0.389425 0
M  V30 3665 H 377.518 -1.91807 -0.345852 0
M  V30 3666 H 376.614 -2.61334 -1.70619 0
M  V30 3667 N 376.915 0.57481 -1.46744 0
M  V30 3668 C 377.847 1.69804 -1.53946 0
M  V30 3669 C 378.86 1.57098 -0.427106 0
M  V30 3670 O 380.049 1.64378 -0.695863 0
M  V30 3671 C 377.149 3.08125 -1.4111 0
M  V30 3672 C 376.322 3.46757 -2.66605 0
M  V30 3673 C 375.381 4.6417 -2.47855 0
M  V30 3674 O 374.407 4.69634 -3.21609 0
M  V30 3675 N 375.609 5.59553 -1.54534 0
M  V30 3676 H 378.374 1.64077 -2.50796 0
M  V30 3677 H 375.935 0.761 -1.429 0
M  V30 3678 H 377.927 3.84478 -1.26328 0
M  V30 3679 H 376.497 3.08175 -0.524109 0
M  V30 3680 H 375.717 2.6003 -2.96274 0
M  V30 3681 H 377.005 3.69337 -3.49954 0
M  V30 3682 H 376.403 5.57881 -0.937304 0
M  V30 3683 H 374.96 6.35304 -1.45711 0
M  V30 3684 N 378.394 1.34581 0.820102 0
M  V30 3685 C 379.357 1.2628 1.91275 0
M  V30 3686 C 380.357 0.177344 1.59819 0
M  V30 3687 O 381.547 0.430156 1.68806 0
M  V30 3688 C 378.679 0.950327 3.27386 0
M  V30 3689 H 379.872 2.23421 2.00057 0
M  V30 3690 H 377.425 1.1891 1.0144 0
M  V30 3691 H 378.16 -0.0177938 3.24295 0
M  V30 3692 H 377.945 1.73549 3.51601 0
M  V30 3693 H 379.435 0.917492 4.07396 0
M  V30 3694 N 379.872 -1.04064 1.18357 0
M  V30 3695 C 381.097 -1.81454 1.00445 0
M  V30 3696 C 381.522 -1.82823 -0.442423 0
M  V30 3697 O 380.88 -1.24555 -1.31741 0
M  V30 3698 C 380.928 -3.24925 1.56384 0
M  V30 3699 O 380.032 -4.04856 0.785209 0
M  V30 3700 H 379.373 -0.560604 0.355835 0
M  V30 3701 H 381.903 -1.31059 1.57114 0
M  V30 3702 H 381.913 -3.75702 1.59097 0
M  V30 3703 H 380.588 -3.23244 2.61699 0
M  V30 3704 H 379.165 -3.63537 0.830399 0
M  V30 3705 N 381.35 -0.985608 -1.22978 0
M  V30 3706 C 382.313 -0.535071 -2.22867 0
M  V30 3707 C 383.313 0.378123 -1.56291 0
M  V30 3708 O 384.503 0.171092 -1.73358 0
M  V30 3709 C 381.635 0.222702 -3.40172 0
M  V30 3710 H 382.828 -1.41835 -2.6424 0
M  V30 3711 H 380.381 -0.772042 -1.35901 0
M  V30 3712 H 381.116 1.12229 -3.04262 0
M  V30 3713 H 380.901 -0.43288 -3.89703 0
M  V30 3714 H 382.391 0.526335 -4.1427 0
M  V30 3715 N 382.828 1.3818 -0.7579 0
M  V30 3716 C 384.053 2.04827 -0.325679 0
M  V30 3717 C 384.478 1.56788 1.03919 0
M  V30 3718 O 383.836 0.721811 1.66312 0
M  V30 3719 C 383.884 3.58774 -0.362447 0
M  V30 3720 O 382.988 4.07372 0.642033 0
M  V30 3721 H 382.329 0.64833 -0.143402 0
M  V30 3722 H 384.859 1.7677 -1.03023 0
M  V30 3723 H 384.869 4.07434 -0.214844 0
M  V30 3724 H 383.544 3.93096 -1.35824 0
M  V30 3725 H 382.121 3.70068 0.458688 0
M  V30 3726 N 384.306 0.507319 1.49211 0
M  V30 3727 C 385.269 -0.256763 2.27757 0
M  V30 3728 C 386.269 -0.888287 1.34038 0
M  V30 3729 O 387.459 -0.751841 1.5714 0
M  V30 3730 C 384.591 -1.36905 3.12202 0
M  V30 3731 H 385.784 0.432557 2.96764 0
M  V30 3732 H 383.337 0.262488 1.5408 0
M  V30 3733 H 384.072 -2.09233 2.47775 0
M  V30 3734 H 383.857 -0.921599 3.81115 0
M  V30 3735 H 385.347 -1.9071 3.7151 0
M  V30 3736 N 385.784 -1.5574 0.241426 0
M  V30 3737 C 386.731 -2.21149 -0.660432 0
M  V30 3738 C 387.701 -1.17356 -1.17545 0
M  V30 3739 O 388.886 -1.45784 -1.23093 0
M  V30 3740 C 386.026 -2.91059 -1.85414 0
M  V30 3741 C 385.139 -4.09495 -1.37616 0
M  V30 3742 C 384.274 -4.67135 -2.529 0
M  V30 3743 C 383.313 -5.77831 -2.01936 0
M  V30 3744 N 382.45 -6.29677 -3.10566 0
M  V30 3745 H 387.29 -2.97845 -0.095955 0
M  V30 3746 H 384.827 -1.47057 -0.0356024 0
M  V30 3747 H 386.785 -3.29788 -2.5553 0
M  V30 3748 H 385.415 -2.16846 -2.39118 0
M  V30 3749 H 384.467 -3.76117 -0.569235 0
M  V30 3750 H 385.779 -4.89423 -0.962618 0
M  V30 3751 H 384.933 -5.08409 -3.31067 0
M  V30 3752 H 383.672 -3.86411 -2.97553 0
M  V30 3753 H 382.677 -5.36039 -1.22238 0
M  V30 3754 H 383.902 -6.60402 -1.58259 0
M  V30 3755 H 381.848 -5.5186 -3.54664 0
M  V30 3756 H 381.765 -7.04783 -2.73526 0
M  V30 3757 H 383.033 -6.75609 -3.88809 0
M  V30 3758 N 387.262 0.0317525 -1.57568 0
M  V30 3759 C 388.511 0.722131 -1.8833 0
M  V30 3760 C 388.824 1.76664 -0.839587 0
M  V30 3761 O 390.03 2.50942 -1.03635 0
M  V30 3762 C 388.486 1.33544 -3.34207 0
M  V30 3763 C 388.094 0.327415 -4.46802 0
M  V30 3764 C 389.838 2.00585 -3.7412 0
M  V30 3765 C 387.745 0.948915 -5.83738 0
M  V30 3766 H 386.675 0.273466 -0.702661 0
M  V30 3767 H 389.326 -0.0235811 -1.83485 0
M  V30 3768 H 387.708 2.13077 -3.33788 0
M  V30 3769 H 388.882 -0.441006 -4.58685 0
M  V30 3770 H 387.197 -0.240758 -4.15703 0
M  V30 3771 H 389.794 2.47932 -4.73744 0
M  V30 3772 H 390.137 2.82285 -3.05975 0
M  V30 3773 H 390.67 1.27831 -3.76702 0
M  V30 3774 H 387.409 0.171387 -6.55276 0
M  V30 3775 H 386.929 1.68724 -5.7558 0
M  V30 3776 H 388.608 1.45705 -6.3038 0
M  V30 3777 N 388.74 1.54641 0.303973 0
M  V30 3778 C 389.968 1.77768 1.05858 0
M  V30 3779 C 390.383 0.535722 1.8104 0
M  V30 3780 O 389.74 -0.494337 1.75677 0
M  V30 3781 C 389.791 2.9834 2.04146 0
M  V30 3782 O 389.512 4.17736 1.32015 0
M  V30 3783 C 391.013 3.33832 2.91669 0
M  V30 3784 H 388.233 0.592961 0.314067 0
M  V30 3785 H 390.777 2.01583 0.344149 0
M  V30 3786 H 388.932 2.76742 2.71096 0
M  V30 3787 H 389.346 4.85693 1.97998 0
M  V30 3788 H 390.82 4.21448 3.56491 0
M  V30 3789 H 391.297 2.51857 3.59812 0
M  V30 3790 H 391.903 3.57579 2.30254 0
M  V30 3791 N 390.218 -0.567019 1.47046 0
M  V30 3792 C 391.464 -1.32658 1.53394 0
M  V30 3793 C 391.797 -1.93254 0.19148 0
M  V30 3794 O 391.072 -1.77338 -0.798844 0
M  V30 3795 C 391.355 -2.44412 2.64452 0
M  V30 3796 C 391.208 -1.88749 4.08282 0
M  V30 3797 C 392.527 -3.46387 2.71485 0
M  V30 3798 H 389.646 -0.48098 0.558415 0
M  V30 3799 H 392.288 -0.635481 1.79058 0
M  V30 3800 H 390.438 -3.03363 2.427 0
M  V30 3801 H 392.11 -1.34134 4.41368 0
M  V30 3802 H 390.353 -1.19481 4.17021 0
M  V30 3803 H 391.024 -2.69491 4.81745 0
M  V30 3804 H 393.5 -2.9734 2.91081 0
M  V30 3805 H 392.376 -4.2202 3.50985 0
M  V30 3806 H 392.637 -4.04616 1.78153 0
M  V30 3807 N 391.696 -1.35014 -0.812953 0
M  V30 3808 C 392.942 -1.2812 -1.57204 0
M  V30 3809 C 393.275 0.145869 -1.93651 0
M  V30 3810 O 392.55 1.0937 -1.60836 0
M  V30 3811 C 392.833 -2.18162 -2.86492 0
M  V30 3812 C 392.686 -3.69454 -2.56561 0
M  V30 3813 C 394.005 -2.07439 -3.88145 0
M  V30 3814 H 391.124 -0.466746 -0.570366 0
M  V30 3815 H 393.766 -1.65357 -0.935783 0
M  V30 3816 H 391.916 -1.86535 -3.40789 0
M  V30 3817 H 393.588 -4.11493 -2.08497 0
M  V30 3818 H 391.831 -3.9005 -1.89851 0
M  V30 3819 H 392.502 -4.27835 -3.48799 0
M  V30 3820 H 394.978 -2.35228 -3.4323 0
M  V30 3821 H 393.854 -2.7265 -4.76396 0
M  V30 3822 H 394.115 -1.05439 -4.29343 0
M  V30 3823 N 393.175 1.03435 -1.18907 0
M  V30 3824 C 394.452 1.73778 -0.89781 0
M  V30 3825 C 394.832 2.02458 0.597832 0
M  V30 3826 O 394.18 1.67482 1.55441 0
M  V30 3827 C 394.39 3.01845 -1.75187 0
M  V30 3828 C 395.738 3.7546 -1.9828 0
M  V30 3829 O 396.762 3.11759 -1.72293 0
M  V30 3830 O 395.621 4.89966 -2.42065 0
M  V30 3831 H 392.715 0.75651 -0.334098 0
M  V30 3832 H 395.261 1.09444 -1.29693 0
M  V30 3833 H 394.033 2.76836 -2.76545 0
M  V30 3834 H 393.656 3.73919 -1.35167 0
M  V30 3835 N 394.653 0.992116 1.22453 0
M  V30 3836 C 395.616 0.546883 2.2258 0
M  V30 3837 C 396.616 -0.369829 1.56489 0
M  V30 3838 O 397.806 -0.161896 1.73446 0
M  V30 3839 C 394.938 -0.204659 3.40285 0
M  V30 3840 H 396.131 1.43234 2.63484 0
M  V30 3841 H 393.684 0.779239 1.3549 0
M  V30 3842 H 394.419 -1.10614 3.04853 0
M  V30 3843 H 394.204 0.45354 3.89468 0
M  V30 3844 H 395.694 -0.504358 4.14543 0
M  V30 3845 N 396.131 -1.37776 0.765217 0
M  V30 3846 C 397.061 -2.32945 0.160953 0
M  V30 3847 C 398.042 -1.55454 -0.690516 0
M  V30 3848 O 399.227 -1.83721 -0.629318 0
M  V30 3849 C 396.357 -3.39669 -0.724031 0
M  V30 3850 C 395.311 -4.27992 0.0256173 0
M  V30 3851 C 394.637 -5.25673 -0.978383 0
M  V30 3852 C 395.937 -5.08309 1.20082 0
M  V30 3853 H 397.631 -2.83728 0.955969 0
M  V30 3854 H 395.177 -1.36416 0.461149 0
M  V30 3855 H 397.13 -4.05219 -1.15652 0
M  V30 3856 H 395.854 -2.87396 -1.5515 0
M  V30 3857 H 394.513 -3.63964 0.438812 0
M  V30 3858 H 394.161 -4.69682 -1.80022 0
M  V30 3859 H 393.861 -5.85625 -0.481378 0
M  V30 3860 H 395.385 -5.94098 -1.40995 0
M  V30 3861 H 396.799 -5.67034 0.845307 0
M  V30 3862 H 395.196 -5.77554 1.62947 0
M  V30 3863 H 396.266 -4.41365 2.00811 0
M  V30 3864 N 397.609 -0.515225 -1.4894 0
M  V30 3865 C 398.559 0.275113 -2.26334 0
M  V30 3866 C 399.543 0.923007 -1.31793 0
M  V30 3867 O 400.735 0.828254 -1.56426 0
M  V30 3868 C 397.864 1.33041 -3.16473 0
M  V30 3869 C 396.95 0.688051 -4.18481 0
M  V30 3870 N 397.341 -0.217638 -5.05332 0
M  V30 3871 C 395.639 0.94699 -4.3583 0
M  V30 3872 C 396.34 -0.58676 -5.78733 0
M  V30 3873 N 395.316 0.0486966 -5.43578 0
M  V30 3874 H 399.118 -0.421876 -2.90856 0
M  V30 3875 H 396.632 -0.332249 -1.58965 0
M  V30 3876 H 398.629 1.9102 -3.70563 0
M  V30 3877 H 397.289 2.02894 -2.53504 0
M  V30 3878 H 398.3 -0.589343 -5.14536 0
M  V30 3879 H 394.977 1.63719 -3.8406 0
M  V30 3880 H 396.367 -1.32855 -6.58634 0
M  V30 3881 N 399.087 1.5561 -0.249682 0
M  V30 3882 C 399.997 2.25143 0.659375 0
M  V30 3883 C 401.013 1.2685 1.19101 0
M  V30 3884 O 402.189 1.59732 1.22669 0
M  V30 3885 C 399.254 2.93945 1.8384 0
M  V30 3886 C 398.315 4.07655 1.34596 0
M  V30 3887 C 397.548 4.73167 2.46878 0
M  V30 3888 O 397.771 4.37768 3.65671 0
M  V30 3889 O 396.705 5.61623 2.16478 0
M  V30 3890 H 400.531 3.03545 0.0968698 0
M  V30 3891 H 398.116 1.49389 -0.018074 0
M  V30 3892 H 399.998 3.37271 2.52638 0
M  V30 3893 H 398.673 2.18481 2.38847 0
M  V30 3894 H 397.58 3.68839 0.625174 0
M  V30 3895 H 398.913 4.84946 0.841941 0
M  V30 3896 N 400.565 -0.0233959 1.57583 0
M  V30 3897 C 401.814 -0.712133 1.8871 0
M  V30 3898 C 402.127 -1.76217 0.848944 0
M  V30 3899 O 403.333 -2.50389 1.04964 0
M  V30 3900 C 401.789 -1.3177 3.3491 0
M  V30 3901 C 401.397 -0.303715 4.46969 0
M  V30 3902 C 403.141 -1.98598 3.75179 0
M  V30 3903 C 401.048 -0.917945 5.84233 0
M  V30 3904 H 399.978 -0.269735 0.704101 0
M  V30 3905 H 402.629 0.0333114 1.8347 0
M  V30 3906 H 401.011 -2.11304 3.34913 0
M  V30 3907 H 402.185 0.465325 4.58445 0
M  V30 3908 H 400.5 0.2628 4.1557 0
M  V30 3909 H 403.097 -2.45416 4.75053 0
M  V30 3910 H 403.44 -2.80659 3.07468 0
M  V30 3911 H 403.973 -1.25831 3.77374 0
M  V30 3912 H 400.712 -0.136633 6.55358 0
M  V30 3913 H 400.232 -1.65669 5.76467 0
M  V30 3914 H 401.911 -1.4236 6.31144 0
M  V30 3915 N 402.043 -1.548 -0.295768 0
M  V30 3916 C 403.454 -1.65274 -0.868411 0
M  V30 3917 C 403.805 -0.56481 -1.87894 0
M  V30 3918 O 402.93 0.29767 -2.14343 0
M  V30 3919 C 403.525 -2.99603 -1.58188 0
M  V30 3920 C 402.084 -3.12181 -2.10286 0
M  V30 3921 C 401.231 -2.6098 -0.93727 0
M  V30 3922 H 404.182 -1.58534 -0.0726422 0
M  V30 3923 H 404.203 -2.91319 -2.44772 0
M  V30 3924 H 403.715 -3.78764 -0.846151 0
M  V30 3925 H 401.816 -2.3775 -2.8689 0
M  V30 3926 H 401.929 -4.18415 -2.33379 0
M  V30 3927 H 400.293 -2.17564 -1.32431 0
M  V30 3928 H 401.076 -3.42623 -0.215414 0
M  V30 3929 N 403.521 0.559213 -1.47345 0
M  V30 3930 C 404.767 1.31843 -1.54095 0
M  V30 3931 C 405.1 1.93149 -0.201726 0
M  V30 3932 O 404.375 1.77759 0.789428 0
M  V30 3933 C 404.658 2.43006 -2.65744 0
M  V30 3934 C 404.511 1.86581 -4.09277 0
M  V30 3935 C 405.83 3.44943 -2.73318 0
M  V30 3936 H 402.949 0.478012 -0.560957 0
M  V30 3937 H 405.591 0.625977 -1.79392 0
M  V30 3938 H 403.741 3.02072 -2.44305 0
M  V30 3939 H 405.413 1.31792 -4.42073 0
M  V30 3940 H 403.656 1.17268 -4.17649 0
M  V30 3941 H 404.327 2.66933 -4.83168 0
M  V30 3942 H 406.803 2.95793 -2.92653 0
M  V30 3943 H 405.679 4.20153 -3.53218 0
M  V30 3944 H 405.94 4.03665 -1.80296 0
M  V30 3945 N 404.999 1.35443 0.805782 0
M  V30 3946 C 405.946 1.28431 1.91766 0
M  V30 3947 C 406.916 0.156102 1.65365 0
M  V30 3948 O 408.101 0.339936 1.87747 0
M  V30 3949 C 405.241 1.06301 3.2832 0
M  V30 3950 C 404.354 2.2805 3.66902 0
M  V30 3951 C 403.489 1.99064 4.92491 0
M  V30 3952 C 402.528 3.16863 5.23703 0
M  V30 3953 N 401.665 2.87647 6.40471 0
M  V30 3954 H 406.505 2.23511 1.97096 0
M  V30 3955 H 404.042 1.11105 0.964054 0
M  V30 3956 H 406 0.915012 4.07042 0
M  V30 3957 H 404.63 0.148822 3.22457 0
M  V30 3958 H 403.682 2.53711 2.83434 0
M  V30 3959 H 404.994 3.1601 3.85927 0
M  V30 3960 H 404.148 1.81099 5.7904 0
M  V30 3961 H 402.887 1.0839 4.75503 0
M  V30 3962 H 401.892 3.35404 4.35642 0
M  V30 3963 H 403.117 4.08339 5.4262 0
M  V30 3964 H 401.063 1.99568 6.24907 0
M  V30 3965 H 400.98 3.69141 6.59751 0
M  V30 3966 H 402.248 2.73226 7.30047 0
M  V30 3967 N 406.477 -1.02803 1.19454 0
M  V30 3968 C 407.424 -2.11099 0.933046 0
M  V30 3969 C 408.394 -1.65571 -0.132447 0
M  V30 3970 O 409.579 -1.90797 0.00987576 0
M  V30 3971 C 406.719 -3.41763 0.478747 0
M  V30 3972 C 405.832 -4.00833 1.6111 0
M  V30 3973 C 404.967 -5.19511 1.10825 0
M  V30 3974 C 404.006 -5.70639 2.21445 0
M  V30 3975 N 403.143 -6.80589 1.72461 0
M  V30 3976 H 407.983 -2.32804 1.86028 0
M  V30 3977 H 405.52 -1.14179 0.927441 0
M  V30 3978 H 407.478 -4.16736 0.196745 0
M  V30 3979 H 406.108 -3.20166 -0.411493 0
M  V30 3980 H 405.16 -3.23066 2.00829 0
M  V30 3981 H 406.472 -4.34794 2.4445 0
M  V30 3982 H 405.626 -6.01645 0.781533 0
M  V30 3983 H 404.365 -4.87086 0.244606 0
M  V30 3984 H 403.37 -4.87116 2.54947 0
M  V30 3985 H 404.595 -6.05102 3.08267 0
M  V30 3986 H 402.541 -6.50016 0.884056 0
M  V30 3987 H 402.458 -7.13681 2.49389 0
M  V30 3988 H 403.726 -7.66317 1.42755 0
M  V30 3989 N 407.956 -0.998596 -1.21925 0
M  V30 3990 C 409.204 -0.676325 -1.90448 0
M  V30 3991 C 409.525 0.794719 -1.78071 0
M  V30 3992 O 408.795 1.5701 -1.17152 0
M  V30 3993 H 407.375 -0.247165 -0.704925 0
M  V30 3994 H 410.037 -1.26633 -1.48156 0
M  V30 3995 H 409.133 -0.943858 -2.97486 0
M  V30 3996 N 409.434 1.37368 -0.772513 0
M  V30 3997 C 410.344 2.34053 -0.160081 0
M  V30 3998 C 411.36 1.60216 0.678728 0
M  V30 3999 O 412.536 1.92303 0.59847 0
M  V30 4000 C 409.601 3.3939 0.708182 0
M  V30 4001 C 408.662 4.29048 -0.147172 0
M  V30 4002 C 407.895 5.29354 0.679744 0
M  V30 4003 O 408.118 5.3723 1.91678 0
M  V30 4004 O 407.052 6.01835 0.0885444 0
M  V30 4005 H 410.878 2.88159 -0.959053 0
M  V30 4006 H 408.463 1.39543 -0.533685 0
M  V30 4007 H 410.345 4.03839 1.20384 0
M  V30 4008 H 409.02 2.8761 1.48533 0
M  V30 4009 H 407.927 3.67697 -0.689205 0
M  V30 4010 H 409.26 4.84134 -0.887423 0
M  V30 4011 N 410.912 0.523116 1.48665 0
M  V30 4012 C 412.16 -0.0134497 2.02096 0
M  V30 4013 C 412.481 -1.35418 1.40311 0
M  V30 4014 O 411.751 -1.87543 0.566074 0
M  V30 4015 H 410.331 -0.00795915 0.746958 0
M  V30 4016 H 412.993 0.685388 1.82451 0
M  V30 4017 H 412.089 -0.126849 3.11842 0
M  V30 4018 N 412.39 -1.55475 0.257931 0
M  V30 4019 C 413.353 -2.20551 -0.623706 0
M  V30 4020 C 414.353 -1.17809 -1.09443 0
M  V30 4021 O 415.543 -1.42823 -0.997362 0
M  V30 4022 C 412.675 -2.85784 -1.8585 0
M  V30 4023 H 413.868 -2.99848 -0.0557743 0
M  V30 4024 H 411.421 -1.56298 0.0084422 0
M  V30 4025 H 412.156 -2.10453 -2.46739 0
M  V30 4026 H 411.941 -3.61057 -1.52907 0
M  V30 4027 H 413.431 -3.35553 -2.48584 0
M  V30 4028 N 413.868 0.0150385 -1.57593 0
M  V30 4029 C 414.778 1.02791 -2.10882 0
M  V30 4030 C 415.794 1.38702 -1.0506 0
M  V30 4031 O 416.97 1.47739 -1.36877 0
M  V30 4032 C 414.035 2.30568 -2.58919 0
M  V30 4033 C 413.096 2.01108 -3.79281 0
M  V30 4034 C 412.329 3.22794 -4.25018 0
M  V30 4035 O 412.552 4.33959 -3.70183 0
M  V30 4036 O 411.486 3.07672 -5.17322 0
M  V30 4037 H 415.312 0.604973 -2.97613 0
M  V30 4038 H 412.897 0.23292 -1.47573 0
M  V30 4039 H 414.779 3.05662 -2.90084 0
M  V30 4040 H 413.454 2.72129 -1.75293 0
M  V30 4041 H 412.361 1.23537 -3.53114 0
M  V30 4042 H 413.694 1.64394 -4.63935 0
M  V30 4043 N 415.346 1.54954 0.287554 0
M  V30 4044 C 416.276 1.89839 1.35954 0
M  V30 4045 C 417.257 0.758675 1.52244 0
M  V30 4046 O 418.442 1.01557 1.65529 0
M  V30 4047 C 415.572 2.15753 2.72154 0
M  V30 4048 C 414.526 3.3159 2.70614 0
M  V30 4049 C 413.852 3.42952 4.10229 0
M  V30 4050 C 415.152 4.68359 2.31165 0
M  V30 4051 H 416.846 2.79625 1.07007 0
M  V30 4052 H 414.392 1.3454 0.513316 0
M  V30 4053 H 416.345 2.38743 3.47246 0
M  V30 4054 H 415.069 1.22752 3.02654 0
M  V30 4055 H 413.728 3.08545 1.97979 0
M  V30 4056 H 413.376 2.47443 4.37928 0
M  V30 4057 H 413.076 4.20826 4.10097 0
M  V30 4058 H 414.6 3.68218 4.87081 0
M  V30 4059 H 416.014 4.9099 2.95976 0
M  V30 4060 H 414.411 5.49044 2.42221 0
M  V30 4061 H 415.481 4.68165 1.26291 0
M  V30 4062 O 416.863 -0.433401 1.55576 0
M  V30 4063 H 417.554 -1.08681 1.60337 0
M  V30 END ATOM
M  V30 BEGIN BOND
M  V30 END BOND
M  V30 END CTAB
M  END
$$$$
