drugbank_drug|DB11580 Heavy Chain
 OpenBabel12092119123D

  0  0  0     0  0            999 V3000
M  V30 BEGIN CTAB
M  V30 COUNTS 6872 6968 0 0 0
M  V30 BEGIN ATOM
M  V30 1 H -0.908 1.98254 -0.117106 0
M  V30 2 N 0 1.576 0 0
M  V30 3 C 0.932 2.05273 1.01958 0
M  V30 4 C 1.945 0.970662 1.30698 0
M  V30 5 O 3.134 1.24746 1.27674 0
M  V30 6 C 0.234 2.43771 2.35433 0
M  V30 7 C -0.593 3.74711 2.25633 0
M  V30 8 C -1.534 4.00077 3.41796 0
M  V30 9 O -2.508 4.70743 3.19984 0
M  V30 10 N -1.306 3.47973 4.64645 0
M  V30 11 H 1.459 2.93363 0.613025 0
M  V30 12 H -0.98 1.60812 0.187383 0
M  V30 13 H 1.012 2.57855 3.11918 0
M  V30 14 H -0.418 1.612 2.67831 0
M  V30 15 H -1.198 3.70705 1.34059 0
M  V30 16 H 0.09 4.60554 2.16258 0
M  V30 17 H -0.512 2.90748 4.85265 0
M  V30 18 H -1.955 3.67386 5.38396 0
M  V30 19 N 1.4781 -0.272755 1.55222 0
M  V30 20 C 2.7241 -1.00581 1.761 0
M  V30 21 C 3.0571 -1.85932 0.560625 0
M  V30 22 O 2.3321 -1.89416 -0.441801 0
M  V30 23 C 2.6151 -1.88816 3.06628 0
M  V30 24 C 2.4681 -1.06457 4.37021 0
M  V30 25 C 3.7871 -2.8752 3.33197 0
M  V30 26 H 0.9061 -0.364244 0.640699 0
M  V30 27 H 3.5481 -0.278189 1.87952 0
M  V30 28 H 1.6981 -2.50856 2.96654 0
M  V30 29 H 3.3701 -0.464863 4.58952 0
M  V30 30 H 1.6131 -0.368043 4.32236 0
M  V30 31 H 2.2841 -1.71514 5.24678 0
M  V30 32 H 4.7601 -2.35615 3.42965 0
M  V30 33 H 3.6361 -3.46399 4.25792 0
M  V30 34 H 3.8971 -3.62657 2.52849 0
M  V30 35 N 2.9562 -1.48159 -0.537278 0
M  V30 36 C 3.8882 -1.58218 -1.65831 0
M  V30 37 C 4.9012 -0.466948 -1.5596 0
M  V30 38 O 6.0902 -0.73747 -1.62553 0
M  V30 39 C 3.1902 -1.48906 -3.04434 0
M  V30 40 C 2.3632 -2.75343 -3.3986 0
M  V30 41 C 1.4222 -2.59588 -4.57712 0
M  V30 42 O 0.4482 -3.33457 -4.61297 0
M  V30 43 N 1.6502 -1.68724 -5.55439 0
M  V30 44 H 4.4152 -2.54891 -1.57641 0
M  V30 45 H 1.9762 -1.4479 -0.724386 0
M  V30 46 H 3.9682 -1.36072 -3.81139 0
M  V30 47 H 2.5382 -0.602368 -3.06741 0
M  V30 48 H 1.7582 -3.02795 -2.52406 0
M  V30 49 H 3.0462 -3.5924 -3.60311 0
M  V30 50 H 2.4442 -1.07898 -5.55315 0
M  V30 51 H 1.0012 -1.61832 -6.3139 0
M  V30 52 N 4.4343 0.785586 -1.36625 0
M  V30 53 C 5.3643 1.91259 -1.33949 0
M  V30 54 C 6.3453 1.68795 -0.210325 0
M  V30 55 O 7.5303 1.89854 -0.408561 0
M  V30 56 C 4.6603 3.28339 -1.13186 0
M  V30 57 C 3.6143 3.65335 -2.22967 0
M  V30 58 C 2.9403 5.00806 -1.87342 0
M  V30 59 C 4.2403 3.7352 -3.65075 0
M  V30 60 H 5.9343 1.93755 -2.28253 0
M  V30 61 H 3.4803 0.930788 -1.09874 0
M  V30 62 H 5.4333 4.06804 -1.09948 0
M  V30 63 H 4.1573 3.2624 -0.153332 0
M  V30 64 H 2.8163 2.89169 -2.25337 0
M  V30 65 H 2.4643 4.95233 -0.880545 0
M  V30 66 H 2.1643 5.26529 -2.60846 0
M  V30 67 H 3.6883 5.81687 -1.85667 0
M  V30 68 H 5.1023 4.42168 -3.64911 0
M  V30 69 H 3.4993 4.10731 -4.37516 0
M  V30 70 H 4.5693 2.74527 -3.99703 0
M  V30 71 N 5.9124 1.20967 1.01018 0
M  V30 72 C 7.1584 1.02526 1.74975 0
M  V30 73 C 7.4914 -0.4408 1.89131 0
M  V30 74 O 6.7664 -1.32718 1.42184 0
M  V30 75 C 7.0494 1.71699 3.1653 0
M  V30 76 C 6.9024 3.25791 3.10129 0
M  V30 77 C 8.2214 1.45531 4.15342 0
M  V30 78 H 5.3404 0.373863 0.635134 0
M  V30 79 H 7.9824 1.49071 1.17805 0
M  V30 80 H 6.1324 1.32128 3.65341 0
M  V30 81 H 7.8044 3.74697 2.69072 0
M  V30 82 H 6.0474 3.56363 2.47362 0
M  V30 83 H 6.7184 3.69353 4.10222 0
M  V30 84 H 9.1944 1.79872 3.75213 0
M  V30 85 H 8.0704 1.96453 5.1254 0
M  V30 86 H 8.3314 0.384237 4.40427 0
M  V30 87 N 7.3905 -1.2043 1.01659 0
M  V30 88 C 8.3225 -2.22626 0.544988 0
M  V30 89 C 9.3355 -1.58479 -0.372609 0
M  V30 90 O 10.5245 -1.77679 -0.170958 0
M  V30 91 C 7.6245 -3.38141 -0.22663 0
M  V30 92 C 6.7975 -4.31877 0.692876 0
M  V30 93 C 5.8565 -5.26191 -0.0311616 0
M  V30 94 O 4.8825 -5.6612 0.591343 0
M  V30 95 N 6.0845 -5.65618 -1.30601 0
M  V30 96 H 8.8495 -2.63716 1.42388 0
M  V30 97 H 6.4105 -1.34971 0.894116 0
M  V30 98 H 8.4025 -3.98239 -0.72024 0
M  V30 99 H 6.9725 -2.95943 -1.00681 0
M  V30 100 H 6.1925 -3.69746 1.36679 0
M  V30 101 H 7.4805 -4.91426 1.31824 0
M  V30 102 H 6.8785 -5.3519 -1.83269 0
M  V30 103 H 5.4355 -6.28025 -1.74435 0
M  V30 104 N 8.8686 -0.792821 -1.36206 0
M  V30 105 C 10.0936 -0.377701 -2.03932 0
M  V30 106 C 10.5186 0.998947 -1.59382 0
M  V30 107 O 9.8766 1.64421 -0.763903 0
M  V30 108 C 9.9246 -0.453635 -3.57735 0
M  V30 109 O 9.0286 0.538151 -4.08874 0
M  V30 110 H 8.3696 -0.159855 -0.644471 0
M  V30 111 H 10.8996 -1.07488 -1.7409 0
M  V30 112 H 10.9096 -0.318464 -4.06755 0
M  V30 113 H 9.5846 -1.45784 -3.89512 0
M  V30 114 H 8.1616 0.364359 -3.71116 0
M  V30 115 N 10.3467 1.47872 -0.545128 0
M  V30 116 C 11.5947 2.02093 -0.016553 0
M  V30 117 C 11.9157 1.42305 1.3332 0
M  V30 118 O 11.1857 0.593853 1.86682 0
M  V30 119 H 9.7657 0.746993 -0.00313038 0
M  V30 120 H 12.4277 1.81414 -0.712397 0
M  V30 121 H 11.5237 3.11996 0.0805422 0
M  V30 122 N 11.8248 0.280983 1.55075 0
M  V30 123 C 12.7878 -0.590896 2.21452 0
M  V30 124 C 13.7878 -1.07682 1.19421 0
M  V30 125 O 14.9778 -0.97605 1.44288 0
M  V30 126 C 12.1098 -1.81587 2.88511 0
M  V30 127 H 13.3028 -0.0112554 2.99898 0
M  V30 128 H 10.8558 0.0316438 1.56268 0
M  V30 129 H 11.5908 -2.43587 2.14093 0
M  V30 130 H 11.3758 -1.4753 3.63287 0
M  V30 131 H 12.8658 -2.43575 3.39206 0
M  V30 132 N 13.3029 -1.57598 0.00835791 0
M  V30 133 C 14.2129 -2.12385 -0.996487 0
M  V30 134 C 15.2289 -1.07108 -1.37127 0
M  V30 135 O 16.4049 -1.39055 -1.4569 0
M  V30 136 C 13.4699 -2.62314 -2.26699 0
M  V30 137 C 12.5309 -3.82225 -1.95456 0
M  V30 138 C 11.7639 -4.29763 -3.16449 0
M  V30 139 O 11.9869 -3.76584 -4.28416 0
M  V30 140 O 10.9209 -5.21832 -2.99958 0
M  V30 141 H 14.7469 -2.98479 -0.560725 0
M  V30 142 H 12.3319 -1.47903 -0.210987 0
M  V30 143 H 14.2139 -2.94589 -3.01322 0
M  V30 144 H 12.8889 -1.79313 -2.69497 0
M  V30 145 H 11.7959 -3.54909 -1.18282 0
M  V30 146 H 13.1289 -4.66324 -1.57489 0
M  V30 147 N 14.781 0.264519 -1.55364 0
M  V30 148 C 16.027 0.99646 -1.76631 0
M  V30 149 C 16.36 1.85632 -0.570478 0
M  V30 150 O 15.635 1.89647 0.43175 0
M  V30 151 C 15.918 1.87187 -3.07625 0
M  V30 152 C 15.771 1.04138 -4.37579 0
M  V30 153 C 17.09 2.85749 -3.34717 0
M  V30 154 H 14.209 0.360841 -0.642622 0
M  V30 155 H 16.851 0.268218 -1.88097 0
M  V30 156 H 15.001 2.49279 -2.9798 0
M  V30 157 H 16.673 0.440517 -4.59192 0
M  V30 158 H 14.916 0.345115 -4.32425 0
M  V30 159 H 15.587 1.68729 -5.2558 0
M  V30 160 H 18.063 2.33793 -3.4421 0
M  V30 161 H 16.939 3.44136 -4.27623 0
M  V30 162 H 17.2 3.61311 -2.54768 0
M  V30 163 N 16.2591 1.48442 0.529413 0
M  V30 164 C 17.2061 1.63007 1.63394 0
M  V30 165 C 18.1761 0.47212 1.59249 0
M  V30 166 O 19.3611 0.695673 1.77666 0
M  V30 167 C 16.5011 1.6763 3.01653 0
M  V30 168 C 15.6141 2.94535 3.16027 0
M  V30 169 C 14.7491 2.90316 4.44849 0
M  V30 170 C 13.7881 4.11923 4.52754 0
M  V30 171 N 12.9251 4.05777 5.72965 0
M  V30 172 H 17.7651 2.5733 1.50285 0
M  V30 173 H 15.3021 1.27613 0.731656 0
M  V30 174 H 17.2601 1.68292 3.81751 0
M  V30 175 H 15.8901 0.76797 3.13532 0
M  V30 176 H 14.9421 3.03615 2.29177 0
M  V30 177 H 16.2541 3.84512 3.17729 0
M  V30 178 H 15.4081 2.89382 5.33238 0
M  V30 179 H 14.1471 1.98068 4.45668 0
M  V30 180 H 13.1521 4.13131 3.62771 0
M  V30 181 H 14.3771 5.0533 4.53672 0
M  V30 182 H 12.3231 3.16351 5.74681 0
M  V30 183 H 12.2401 4.8946 5.76164 0
M  V30 184 H 13.5081 4.08904 6.6364 0
M  V30 185 N 17.7372 -0.778329 1.37039 0
M  V30 186 C 18.6842 -1.89139 1.32269 0
M  V30 187 C 19.6542 -1.65017 0.189387 0
M  V30 188 O 20.8392 -1.87024 0.377693 0
M  V30 189 C 17.9792 -3.26112 1.12894 0
M  V30 190 C 17.0922 -3.62233 2.35396 0
M  V30 191 C 16.2272 -4.8838 2.08946 0
M  V30 192 C 15.2662 -5.17212 3.2735 0
M  V30 193 N 14.4032 -6.34546 3.00492 0
M  V30 194 H 19.2432 -1.92552 2.27437 0
M  V30 195 H 16.7802 -0.941473 1.13025 0
M  V30 196 H 18.7382 -4.05116 0.996835 0
M  V30 197 H 17.3682 -3.22091 0.213758 0
M  V30 198 H 16.4202 -2.78265 2.5937 0
M  V30 199 H 17.7322 -3.79481 3.23721 0
M  V30 200 H 16.8862 -5.75274 1.92729 0
M  V30 201 H 15.6252 -4.73222 1.17949 0
M  V30 202 H 14.6302 -4.28796 3.44113 0
M  V30 203 H 15.8552 -5.34283 4.19188 0
M  V30 204 H 13.8012 -6.20759 2.12118 0
M  V30 205 H 13.7182 -6.52179 3.82358 0
M  V30 206 H 14.9862 -7.24394 2.87879 0
M  V30 207 N 19.2153 -1.21501 -1.00376 0
M  V30 208 C 20.6263 -1.03146 -1.55621 0
M  V30 209 C 20.9773 0.408375 -1.91903 0
M  V30 210 O 20.1023 1.29177 -1.73616 0
M  V30 211 C 20.6973 -1.86612 -2.82775 0
M  V30 212 C 19.2563 -1.72586 -3.34501 0
M  V30 213 C 18.4033 -1.83747 -2.07683 0
M  V30 214 H 21.3543 -1.35505 -0.826081 0
M  V30 215 H 21.3753 -1.3771 -3.54706 0
M  V30 216 H 20.8873 -2.91399 -2.56336 0
M  V30 217 H 18.9883 -0.704877 -3.65872 0
M  V30 218 H 19.1013 -2.54623 -4.05837 0
M  V30 219 H 17.4653 -1.27069 -2.20739 0
M  V30 220 H 18.2483 -2.90044 -1.83655 0
M  V30 221 N 20.6934 1.19889 -1.02296 0
M  V30 222 C 21.9414 1.89046 -0.714558 0
M  V30 223 C 22.2624 1.79636 0.758681 0
M  V30 224 O 21.5324 1.20292 1.54618 0
M  V30 225 H 20.1124 0.699802 -0.261317 0
M  V30 226 H 22.7744 1.45574 -1.29592 0
M  V30 227 H 21.8704 2.95524 -1.0036 0
M  V30 228 N 22.1715 0.800033 1.35784 0
M  V30 229 C 23.1345 0.211565 2.28221 0
M  V30 230 C 24.1345 -0.59728 1.49296 0
M  V30 231 O 25.3245 -0.416721 1.69142 0
M  V30 232 C 22.4565 -0.705846 3.33513 0
M  V30 233 H 23.6495 1.02677 2.81776 0
M  V30 234 H 21.2025 0.570211 1.45528 0
M  V30 235 H 21.9375 -1.54498 2.85133 0
M  V30 236 H 21.7225 -0.127655 3.91892 0
M  V30 237 H 23.2125 -1.11211 4.02519 0
M  V30 238 N 23.6496 -1.47581 0.552962 0
M  V30 239 C 24.8746 -2.07378 0.0300593 0
M  V30 240 C 25.2996 -1.40355 -1.25229 0
M  V30 241 O 24.6576 -0.477099 -1.7491 0
M  V30 242 C 24.7056 -3.60274 -0.153231 0
M  V30 243 O 23.8096 -3.94041 -1.21678 0
M  V30 244 H 23.1506 -0.662158 0.0494182 0
M  V30 245 H 25.6806 -1.89662 0.767434 0
M  V30 246 H 25.6906 -4.0633 -0.368761 0
M  V30 247 H 24.3656 -4.08455 0.783397 0
M  V30 248 H 22.9426 -3.59735 -0.982079 0
M  V30 249 N 25.1277 -0.289203 -1.54924 0
M  V30 250 C 26.3737 0.323998 -2.00195 0
M  V30 251 C 26.7067 1.54441 -1.17735 0
M  V30 252 O 25.9817 1.92875 -0.250878 0
M  V30 253 C 26.2647 0.692276 -3.53383 0
M  V30 254 C 26.1177 -0.536457 -4.46589 0
M  V30 255 C 27.4367 1.52335 -4.12895 0
M  V30 256 H 24.5557 0.116289 -0.727768 0
M  V30 257 H 27.1977 -0.398954 -1.85764 0
M  V30 258 H 25.3477 1.30822 -3.65811 0
M  V30 259 H 27.0197 -1.17499 -4.46085 0
M  V30 260 H 25.2627 -1.17192 -4.1767 0
M  V30 261 H 25.9337 -0.234806 -5.515 0
M  V30 262 H 28.4097 1.00302 -4.0383 0
M  V30 263 H 27.2857 1.74982 -5.20262 0
M  V30 264 H 27.5467 2.50886 -3.64018 0
M  V30 265 N 26.6058 1.57591 -0.0167156 0
M  V30 266 C 27.5528 2.09462 0.969251 0
M  V30 267 C 28.5228 0.99381 1.33089 0
M  V30 268 O 29.7078 1.26726 1.42636 0
M  V30 269 C 26.8478 2.61622 2.25051 0
M  V30 270 C 25.9608 3.85666 1.94642 0
M  V30 271 C 25.0958 4.26266 3.16972 0
M  V30 272 C 24.1348 5.43101 2.82326 0
M  V30 273 N 23.2718 5.78915 3.97243 0
M  V30 274 H 28.1118 2.93428 0.519997 0
M  V30 275 H 25.6488 1.45044 0.245087 0
M  V30 276 H 27.6068 2.89949 2.99976 0
M  V30 277 H 26.2368 1.80505 2.67615 0
M  V30 278 H 25.2888 3.64145 1.10013 0
M  V30 279 H 26.6008 4.70678 1.65117 0
M  V30 280 H 25.7548 4.55963 4.00228 0
M  V30 281 H 24.4938 3.39996 3.49648 0
M  V30 282 H 23.4988 5.1311 1.97479 0
M  V30 283 H 24.7238 6.3106 2.50879 0
M  V30 284 H 22.6698 4.95602 4.29785 0
M  V30 285 H 22.5868 6.58539 3.71299 0
M  V30 286 H 23.8548 6.13212 4.81239 0
M  V30 287 N 28.0839 -0.256276 1.55502 0
M  V30 288 C 29.3299 -0.987079 1.77157 0
M  V30 289 C 29.6629 -1.85327 0.580315 0
M  V30 290 O 28.9379 -1.89874 -0.421686 0
M  V30 291 C 29.2209 -1.85553 3.08613 0
M  V30 292 C 29.0739 -1.01816 4.38125 0
M  V30 293 C 30.3929 -2.8397 3.36228 0
M  V30 294 H 27.5119 -0.357428 0.644526 0
M  V30 295 H 30.1539 -0.258239 1.88237 0
M  V30 296 H 28.3039 -2.47695 2.99298 0
M  V30 297 H 29.9759 -0.416159 4.59419 0
M  V30 298 H 28.2189 -0.322178 4.32602 0
M  V30 299 H 28.8899 -1.65939 5.26468 0
M  V30 300 H 31.3659 -2.31964 3.45445 0
M  V30 301 H 30.2419 -3.41864 4.29442 0
M  V30 302 H 30.5029 -3.59955 2.56681 0
M  V30 303 N 29.562 -1.4872 -0.521534 0
M  V30 304 C 30.787 -1.61101 -1.30618 0
M  V30 305 C 31.212 -0.274611 -1.86085 0
M  V30 306 O 30.57 0.754937 -1.64834 0
M  V30 307 C 30.618 -2.66709 -2.4269 0
M  V30 308 O 29.722 -2.24456 -3.45967 0
M  V30 309 H 29.063 -0.539921 -0.386499 0
M  V30 310 H 31.593 -1.94767 -0.626645 0
M  V30 311 H 31.603 -2.88245 -2.88754 0
M  V30 312 H 30.278 -3.63727 -2.01682 0
M  V30 313 H 28.855 -2.13168 -3.05964 0
M  V30 314 N 31.0401 0.771051 -1.3745 0
M  V30 315 C 32.2801 1.54264 -1.34096 0
M  V30 316 C 32.6441 1.91858 0.0737639 0
M  V30 317 O 33.8451 2.67797 0.23203 0
M  V30 318 C 32.1161 2.77326 -2.25445 0
M  V30 319 S 33.6751 3.67383 -2.39948 0
M  V30 320 H 30.4931 0.528122 -0.476034 0
M  V30 321 H 33.0951 0.906633 -1.73206 0
M  V30 322 H 31.7991 2.47788 -3.27153 0
M  V30 323 H 31.3301 3.45886 -1.87421 0
M  V30 324 H 33.3451 4.69334 -1.61059 0
M  V30 325 N 32.5182 1.22032 0.997298 0
M  V30 326 C 33.4652 0.986467 2.08656 0
M  V30 327 C 34.4352 -0.0902671 1.65855 0
M  V30 328 O 35.6202 0.0584294 1.90711 0
M  V30 329 C 32.7602 0.565569 3.40434 0
M  V30 330 C 31.8732 1.71259 3.96604 0
M  V30 331 C 31.0082 1.24011 5.16522 0
M  V30 332 C 30.0472 2.35896 5.64818 0
M  V30 333 N 29.1842 1.89726 6.7598 0
M  V30 334 H 34.0242 1.91892 2.27994 0
M  V30 335 H 31.5612 0.956199 1.11782 0
M  V30 336 H 33.5192 0.302738 4.161 0
M  V30 337 H 32.1492 -0.329879 3.2111 0
M  V30 338 H 31.2012 2.08986 3.17851 0
M  V30 339 H 32.5132 2.55436 4.28432 0
M  V30 340 H 31.6672 0.934395 5.99461 0
M  V30 341 H 30.4062 0.368487 4.86306 0
M  V30 342 H 29.4112 2.67261 4.8047 0
M  V30 343 H 30.6362 3.23567 5.97061 0
M  V30 344 H 28.5822 1.0492 6.47555 0
M  V30 345 H 28.4992 2.67471 7.07103 0
M  V30 346 H 29.7672 1.62211 7.62435 0
M  V30 347 N 33.9963 -1.19345 1.0293 0
M  V30 348 C 34.9593 -2.20793 0.615069 0
M  V30 349 C 35.9593 -1.57553 -0.321533 0
M  V30 350 O 37.1493 -1.73862 -0.108483 0
M  V30 351 C 34.2813 -3.40754 -0.0999222 0
M  V30 352 H 35.4743 -2.58955 1.51269 0
M  V30 353 H 33.0273 -1.3303 0.820534 0
M  V30 354 H 33.7623 -3.0811 -1.01187 0
M  V30 355 H 33.5473 -3.87889 0.57309 0
M  V30 356 H 35.0373 -4.15898 -0.376645 0
M  V30 357 N 35.4744 -0.807222 -1.35358 0
M  V30 358 C 36.6994 -0.399309 -2.0352 0
M  V30 359 C 37.1244 0.981986 -1.60433 0
M  V30 360 O 36.4824 1.63601 -0.781299 0
M  V30 361 C 36.5304 -0.491552 -3.57234 0
M  V30 362 O 35.6344 0.494754 -4.09421 0
M  V30 363 H 34.9754 -0.166682 -0.642739 0
M  V30 364 H 37.5054 -1.09328 -1.72941 0
M  V30 365 H 37.5154 -0.361588 -4.06395 0
M  V30 366 H 36.1904 -1.49907 -3.87944 0
M  V30 367 H 34.7674 0.324977 -3.71481 0
M  V30 368 N 36.9525 1.47285 -0.560781 0
M  V30 369 C 38.2005 2.02064 -0.0379868 0
M  V30 370 C 38.5215 1.43711 1.31803 0
M  V30 371 O 37.7915 0.61362 1.86042 0
M  V30 372 H 36.3715 0.746918 -0.0110531 0
M  V30 373 H 39.0335 1.80648 -0.731598 0
M  V30 374 H 38.1295 3.12064 0.0474463 0
M  V30 375 N 38.4306 0.297415 1.54768 0
M  V30 376 C 39.3806 -0.595275 2.20092 0
M  V30 377 C 40.3646 -1.10163 1.17273 0
M  V30 378 O 41.5566 -1.043 1.43006 0
M  V30 379 C 38.6856 -1.7684 2.94249 0
M  V30 380 C 37.7716 -1.27818 4.0438 0
M  V30 381 N 38.1626 -0.505695 5.03266 0
M  V30 382 C 36.4606 -1.55923 4.17857 0
M  V30 383 C 37.1616 -0.245094 5.81183 0
M  V30 384 N 36.1376 -0.823881 5.3732 0
M  V30 385 H 39.9396 0.00250837 2.939 0
M  V30 386 H 37.4536 0.102007 1.62079 0
M  V30 387 H 39.4506 -2.41944 3.39513 0
M  V30 388 H 38.1106 -2.36992 2.21957 0
M  V30 389 H 39.1216 -0.150928 5.1768 0
M  V30 390 H 35.7986 -2.16849 3.56767 0
M  V30 391 H 37.1886 0.375084 6.70852 0
M  V30 392 N 39.9087 -1.5758 0.0250728 0
M  V30 393 C 41.1577 -1.90811 -0.653767 0
M  V30 394 C 41.4707 -0.90273 -1.73523 0
M  V30 395 O 42.6767 -1.12614 -2.47043 0
M  V30 396 C 41.1327 -3.38804 -1.21409 0
M  V30 397 C 40.7407 -4.47692 -0.166126 0
M  V30 398 C 42.4847 -3.81108 -1.86967 0
M  V30 399 C 40.3917 -5.86779 -0.737856 0
M  V30 400 H 39.3217 -0.712063 -0.247956 0
M  V30 401 H 41.9727 -1.83281 0.0897137 0
M  V30 402 H 40.3547 -3.41252 -2.00905 0
M  V30 403 H 41.5287 -4.56797 0.606079 0
M  V30 404 H 39.8437 -4.14565 0.390466 0
M  V30 405 H 42.4407 -4.82375 -2.30692 0
M  V30 406 H 42.7837 -3.15953 -2.71071 0
M  V30 407 H 43.3167 -3.81065 -1.14167 0
M  V30 408 H 40.0557 -6.55468 0.0649577 0
M  V30 409 H 39.5757 -5.81288 -1.47864 0
M  V30 410 H 41.2547 -6.35223 -1.22884 0
M  V30 411 N 41.3868 0.248026 -1.55636 0
M  V30 412 C 42.6338 0.976224 -1.77415 0
M  V30 413 C 42.9618 1.85361 -0.589193 0
M  V30 414 O 42.2168 1.90973 0.427529 0
M  V30 415 C 42.5158 1.86819 -3.04686 0
M  V30 416 C 42.1818 1.14625 -4.36087 0
M  V30 417 C 40.8438 0.946723 -4.71795 0
M  V30 418 C 43.1958 0.634463 -5.17324 0
M  V30 419 C 40.5238 0.223091 -5.86276 0
M  V30 420 C 42.8758 -0.0756959 -6.32555 0
M  V30 421 C 41.5398 -0.286711 -6.66884 0
M  V30 422 H 40.8098 0.357226 -0.649208 0
M  V30 423 H 43.4568 0.246415 -1.89908 0
M  V30 424 H 41.7618 2.66502 -2.872 0
M  V30 425 H 43.4588 2.43329 -3.18735 0
M  V30 426 H 40.0488 1.3117 -4.08035 0
M  V30 427 H 44.2328 0.77616 -4.90193 0
M  V30 428 H 39.4888 0.0491185 -6.1138 0
M  V30 429 H 43.6628 -0.479899 -6.94745 0
M  V30 430 H 41.2898 -0.849389 -7.5544 0
M  V30 431 N 42.8649 1.48995 0.513639 0
M  V30 432 C 44.0899 1.61792 1.29762 0
M  V30 433 C 44.5149 0.284475 1.85936 0
M  V30 434 O 43.8729 -0.746185 1.65232 0
M  V30 435 C 43.9209 2.67993 2.41272 0
M  V30 436 O 43.0249 2.26287 3.44772 0
M  V30 437 H 42.3659 0.541963 0.38363 0
M  V30 438 H 44.8959 1.95097 0.616307 0
M  V30 439 H 44.9059 2.89772 2.87221 0
M  V30 440 H 43.5809 3.64791 1.9975 0
M  V30 441 H 42.1579 2.14788 3.04829 0
M  V30 442 N 44.343 -0.763751 1.37857 0
M  V30 443 C 45.291 -1.89864 1.34367 0
M  V30 444 C 46.285 -1.67816 0.231143 0
M  V30 445 O 47.491 -1.75508 0.399617 0
M  V30 446 H 43.866 -0.624501 0.41893 0
M  V30 447 H 45.837 -1.89925 2.30155 0
M  V30 448 C 44.586 -3.27227 1.1755 0
M  V30 449 H 43.909 -3.44773 2.02414 0
M  V30 450 H 45.349 -4.06911 1.1916 0
M  V30 451 C 43.808 -3.36692 -0.118311 0
M  V30 452 O 44.338 -3.86374 -1.09902 0
M  V30 453 N 42.544 -2.90092 -0.171717 0
M  V30 454 H 42.091 -2.49853 0.627012 0
M  V30 455 H 42.049 -2.96806 -1.03699 0
M  V30 456 N 45.8211 -1.22559 -0.990812 0
M  V30 457 C 47.0511 -1.07623 -1.76355 0
M  V30 458 C 47.4591 0.37601 -1.85426 0
M  V30 459 O 46.8021 1.27228 -1.32509 0
M  V30 460 C 46.8641 -1.61507 -3.21179 0
M  V30 461 C 46.5281 -3.10146 -3.35646 0
M  V30 462 C 47.5251 -4.07553 -3.22796 0
M  V30 463 C 45.2101 -3.49644 -3.60631 0
M  V30 464 C 47.2041 -5.42442 -3.34716 0
M  V30 465 C 44.8911 -4.84682 -3.72192 0
M  V30 466 C 45.8891 -5.8089 -3.59243 0
M  V30 467 O 45.5771 -7.13476 -3.70415 0
M  V30 468 H 45.3091 -0.377745 -0.560611 0
M  V30 469 H 47.8631 -1.62658 -1.25425 0
M  V30 470 H 46.0931 -1.00881 -3.73309 0
M  V30 471 H 47.7821 -1.42202 -3.80175 0
M  V30 472 H 48.5481 -3.78381 -3.03403 0
M  V30 473 H 44.4271 -2.75282 -3.69785 0
M  V30 474 H 47.9711 -6.17518 -3.24526 0
M  V30 475 H 43.8681 -5.13534 -3.91092 0
M  V30 476 H 44.6361 -7.21083 -3.87275 0
M  V30 477 N 47.2992 1.18797 -1.03562 0
M  V30 478 C 48.5452 1.89192 -0.746867 0
M  V30 479 C 48.9002 1.78531 0.717245 0
M  V30 480 O 48.1932 1.17137 1.51622 0
M  V30 481 C 48.3872 3.38692 -1.14117 0
M  V30 482 C 48.2162 3.63902 -2.64207 0
M  V30 483 C 46.9862 3.81553 -3.31279 0
M  V30 484 C 49.1842 3.64903 -3.62423 0
M  V30 485 N 47.1662 3.94455 -4.70402 0
M  V30 486 C 48.5372 3.83458 -4.87196 0
M  V30 487 C 50.5922 3.47965 -3.56125 0
M  V30 488 C 49.2952 3.86829 -6.06429 0
M  V30 489 C 51.3212 3.52616 -4.7478 0
M  V30 490 C 50.6832 3.71663 -5.9837 0
M  V30 491 H 46.7822 0.711141 -0.325273 0
M  V30 492 H 49.3662 1.42727 -1.32428 0
M  V30 493 H 47.5372 3.83864 -0.591889 0
M  V30 494 H 49.2692 3.96634 -0.803966 0
M  V30 495 H 46.0242 3.80723 -2.81686 0
M  V30 496 H 46.4482 4.0474 -5.42692 0
M  V30 497 H 51.0902 3.32189 -2.61553 0
M  V30 498 H 48.8082 4.01395 -7.01362 0
M  V30 499 H 52.3942 3.40791 -4.71543 0
M  V30 500 H 51.2742 3.75145 -6.88648 0
M  V30 501 N 48.7773 0.814389 1.34928 0
M  V30 502 C 50.0263 0.394871 1.97797 0
M  V30 503 C 50.3393 -1.04555 1.65311 0
M  V30 504 O 51.5453 -1.56856 2.21604 0
M  V30 505 C 50.0013 0.655103 3.53888 0
M  V30 506 C 49.6093 2.10858 3.95276 0
M  V30 507 C 51.3533 0.301329 4.23429 0
M  V30 508 C 49.2603 2.31415 5.44244 0
M  V30 509 H 48.1903 0.143913 0.740139 0
M  V30 510 H 50.8413 0.999544 1.53888 0
M  V30 511 H 49.2233 -0.0196253 3.95995 0
M  V30 512 H 50.3973 2.82176 3.64298 0
M  V30 513 H 48.7123 2.42297 3.38646 0
M  V30 514 H 51.3093 0.432869 5.32945 0
M  V30 515 H 51.6523 -0.75331 4.09428 0
M  V30 516 H 52.1853 0.930288 3.86769 0
M  V30 517 H 48.9243 3.35353 5.63222 0
M  V30 518 H 48.4443 1.6463 5.76764 0
M  V30 519 H 50.1233 2.13352 6.10811 0
M  V30 520 N 50.2554 -1.46986 0.568584 0
M  V30 521 C 51.1874 -2.28233 -0.210337 0
M  V30 522 C 52.2004 -1.37682 -0.868767 0
M  V30 523 O 53.3894 -1.62406 -0.740705 0
M  V30 524 C 50.4894 -3.12293 -1.3163 0
M  V30 525 C 49.6624 -4.30878 -0.7525 0
M  V30 526 C 48.7214 -4.96445 -1.74439 0
M  V30 527 O 47.7474 -5.54482 -1.286 0
M  V30 528 N 48.9494 -4.92171 -3.07812 0
M  V30 529 H 51.7144 -2.95723 0.486648 0
M  V30 530 H 49.2754 -1.56742 0.405409 0
M  V30 531 H 51.2674 -3.53022 -1.97883 0
M  V30 532 H 49.8374 -2.46971 -1.91636 0
M  V30 533 H 49.0574 -3.94104 0.0871128 0
M  V30 534 H 50.3454 -5.07558 -0.35536 0
M  V30 535 H 49.7434 -4.46239 -3.47688 0
M  V30 536 H 48.3004 -5.36884 -3.69592 0
M  V30 537 N 51.7335 -0.305618 -1.54608 0
M  V30 538 C 52.9795 0.295595 -2.01241 0
M  V30 539 C 53.3345 1.51171 -1.19018 0
M  V30 540 O 52.6275 1.89832 -0.259684 0
M  V30 541 C 52.8215 0.698983 -3.50498 0
M  V30 542 C 52.6505 -0.476491 -4.47168 0
M  V30 543 C 51.4205 -0.969963 -4.95903 0
M  V30 544 C 53.6185 -1.32294 -4.96994 0
M  V30 545 N 51.6005 -2.11172 -5.76437 0
M  V30 546 C 52.9715 -2.31212 -5.75275 0
M  V30 547 C 55.0265 -1.35278 -4.7917 0
M  V30 548 C 53.7295 -3.32896 -6.37631 0
M  V30 549 C 55.7555 -2.35823 -5.42348 0
M  V30 550 C 55.1175 -3.33469 -6.20466 0
M  V30 551 H 51.2165 0.0724992 -0.778632 0
M  V30 552 H 53.8005 -0.436583 -1.89742 0
M  V30 553 H 51.9715 1.40032 -3.62278 0
M  V30 554 H 53.7035 1.28013 -3.8392 0
M  V30 555 H 50.4585 -0.544178 -4.70463 0
M  V30 556 H 50.8825 -2.68714 -6.21387 0
M  V30 557 H 55.5245 -0.61157 -4.18354 0
M  V30 558 H 53.2425 -4.07933 -6.97579 0
M  V30 559 H 56.8285 -2.38911 -5.30484 0
M  V30 560 H 55.7085 -4.09996 -6.68485 0
M  V30 561 N 53.2116 1.57565 -0.0334293 0
M  V30 562 C 54.4576 1.92262 0.645226 0
M  V30 563 C 54.7906 0.910543 1.71531 0
M  V30 564 O 54.0656 -0.066099 1.94388 0
M  V30 565 C 54.3486 3.37422 1.2577 0
M  V30 566 C 54.2016 4.49369 0.196891 0
M  V30 567 C 55.5206 3.82628 2.17449 0
M  V30 568 H 52.6396 0.699171 0.233085 0
M  V30 569 H 55.2816 1.89779 -0.0915694 0
M  V30 570 H 53.4316 3.39669 1.88566 0
M  V30 571 H 55.1036 4.59254 -0.433962 0
M  V30 572 H 53.3466 4.31168 -0.477137 0
M  V30 573 H 54.0176 5.47978 0.665124 0
M  V30 574 H 56.4936 3.82145 1.64634 0
M  V30 575 H 55.3696 4.84883 2.57254 0
M  V30 576 H 55.6306 3.18376 3.0674 0
M  V30 577 N 54.6897 -0.239769 1.55765 0
M  V30 578 C 56.1057 -0.588624 1.48349 0
M  V30 579 C 56.3057 -1.88005 0.72502 0
M  V30 580 O 55.3617 -2.51186 0.257269 0
M  V30 581 C 56.6747 -0.68474 2.928 0
M  V30 582 C 58.2227 -0.77659 3.03213 0
M  V30 583 C 58.6977 -0.904207 4.48986 0
M  V30 584 N 60.1887 -0.968896 4.52953 0
M  V30 585 C 60.9237 -1.08703 5.63002 0
M  V30 586 N 60.4197 -1.17026 6.82845 0
M  V30 587 N 62.2127 -1.12074 5.50814 0
M  V30 588 H 54.3637 0.607911 2.03515 0
M  V30 589 H 56.6267 0.21083 0.924259 0
M  V30 590 H 56.3327 0.194284 3.51163 0
M  V30 591 H 56.2067 -1.55435 3.43686 0
M  V30 592 H 58.5937 -1.64606 2.44926 0
M  V30 593 H 58.6747 0.118315 2.55526 0
M  V30 594 H 58.3187 -0.0392633 5.07885 0
M  V30 595 H 58.2487 -1.81426 4.9436 0
M  V30 596 H 60.7397 -0.915633 3.6664 0
M  V30 597 H 61.0527 -1.25966 7.62465 0
M  V30 598 H 59.3977 -1.13971 6.85591 0
M  V30 599 H 62.5887 -1.05226 4.5612 0
M  V30 600 H 62.7617 -1.20936 6.36615 0
M  V30 601 N 56.1678 -1.49265 -0.50573 0
M  V30 602 C 57.0998 -1.617 -1.62437 0
M  V30 603 C 58.1128 -0.499924 -1.54934 0
M  V30 604 O 59.3018 -0.771785 -1.60953 0
M  V30 605 C 56.4018 -1.5533 -3.01207 0
M  V30 606 C 55.5748 -2.8249 -3.33943 0
M  V30 607 C 54.6338 -2.69238 -4.52103 0
M  V30 608 O 53.6598 -3.43167 -4.5412 0
M  V30 609 N 54.8618 -1.80468 -5.51735 0
M  V30 610 H 57.6268 -2.58177 -1.52199 0
M  V30 611 H 55.1878 -1.46294 -0.693511 0
M  V30 612 H 57.1798 -1.44125 -3.78167 0
M  V30 613 H 55.7498 -0.667297 -3.05395 0
M  V30 614 H 54.9698 -3.08081 -2.45926 0
M  V30 615 H 56.2578 -3.66802 -3.5261 0
M  V30 616 H 55.6558 -1.19653 -5.52901 0
M  V30 617 H 54.2128 -1.75188 -6.27816 0
M  V30 618 N 57.6459 0.756429 -1.3826 0
M  V30 619 C 58.6089 1.85176 -1.35065 0
M  V30 620 C 59.6089 1.58818 -0.251703 0
M  V30 621 O 60.7989 1.66615 -0.508433 0
M  V30 622 C 57.9309 3.22596 -1.10201 0
M  V30 623 H 59.1239 1.89417 -2.3251 0
M  V30 624 H 56.6769 0.95783 -1.23512 0
M  V30 625 H 57.4119 3.24025 -0.133504 0
M  V30 626 H 57.1969 3.43122 -1.89762 0
M  V30 627 H 58.6869 4.02673 -1.10654 0
M  V30 628 N 59.124 1.23083 0.984299 0
M  V30 629 C 60.535 1.05609 1.5396 0
M  V30 630 C 60.886 -0.377793 1.92528 0
M  V30 631 O 60.011 -1.26398 1.75649 0
M  V30 632 C 60.606 1.91087 2.7977 0
M  V30 633 C 59.165 1.77885 3.31713 0
M  V30 634 C 58.312 1.87028 2.04733 0
M  V30 635 H 61.263 1.36802 0.804419 0
M  V30 636 H 61.284 1.43336 3.5247 0
M  V30 637 H 60.796 2.9544 2.51668 0
M  V30 638 H 58.897 0.762995 3.64704 0
M  V30 639 H 59.01 2.61047 4.01735 0
M  V30 640 H 57.374 1.30565 2.18689 0
M  V30 641 H 58.157 2.92929 1.79017 0
M  V30 642 N 60.6021 -1.18246 1.0419 0
M  V30 643 C 61.8501 -1.87886 0.744543 0
M  V30 644 C 62.1711 -1.8082 -0.730006 0
M  V30 645 O 61.4411 -1.22736 -1.52685 0
M  V30 646 H 60.0211 -0.695556 0.272417 0
M  V30 647 H 62.6831 -1.43494 1.31892 0
M  V30 648 H 61.7791 -2.9389 1.05049 0
M  V30 649 N 62.0802 -0.821533 -1.34494 0
M  V30 650 C 63.0122 -0.199946 -2.28326 0
M  V30 651 C 64.0252 0.609377 -1.50965 0
M  V30 652 O 65.2142 0.439285 -1.7301 0
M  V30 653 C 62.3142 0.738431 -3.30757 0
M  V30 654 C 61.4872 -0.0277632 -4.37391 0
M  V30 655 C 60.5462 0.831332 -5.19591 0
M  V30 656 O 59.5722 0.276822 -5.68526 0
M  V30 657 N 60.7742 2.15132 -5.39165 0
M  V30 658 H 63.5392 -1.00609 -2.82308 0
M  V30 659 H 61.1002 -0.678366 -1.47003 0
M  V30 660 H 63.0922 1.31773 -3.82646 0
M  V30 661 H 61.6622 1.44533 -2.7718 0
M  V30 662 H 60.8822 -0.788359 -3.86236 0
M  V30 663 H 62.1702 -0.555251 -5.05761 0
M  V30 664 H 61.5682 2.62559 -5.01078 0
M  V30 665 H 60.1252 2.6795 -5.94177 0
M  V30 666 N 63.5583 1.46682 -0.576371 0
M  V30 667 C 64.8063 2.02013 -0.0594163 0
M  V30 668 C 65.1273 1.45101 1.30271 0
M  V30 669 O 64.3973 0.633317 1.8538 0
M  V30 670 H 62.9773 0.746759 -0.0189745 0
M  V30 671 H 65.6393 1.79862 -0.750717 0
M  V30 672 H 64.7353 3.12097 0.014345 0
M  V30 673 N 65.0364 0.313813 1.54444 0
M  V30 674 C 65.9664 -0.549454 2.26943 0
M  V30 675 C 66.9474 -1.12741 1.27372 0
M  V30 676 O 68.1324 -1.15436 1.56167 0
M  V30 677 C 65.2624 -1.71523 3.01989 0
M  V30 678 C 64.2164 -1.26703 4.08816 0
M  V30 679 C 63.5424 -2.51898 4.71647 0
M  V30 680 C 64.8424 -0.388962 5.2085 0
M  V30 681 H 66.5364 0.0552661 2.99349 0
M  V30 682 H 64.0824 0.0280207 1.43973 0
M  V30 683 H 66.0354 -2.32535 3.51433 0
M  V30 684 H 64.7594 -2.34639 2.27183 0
M  V30 685 H 63.4184 -0.679896 3.6024 0
M  V30 686 H 63.0664 -3.13356 3.93468 0
M  V30 687 H 62.7664 -2.22605 5.43802 0
M  V30 688 H 64.2904 -3.1369 5.23861 0
M  V30 689 H 65.7044 -0.905107 5.6611 0
M  V30 690 H 64.1014 -0.18924 5.99802 0
M  V30 691 H 65.1714 0.582699 4.81386 0
M  V30 692 N 66.5145 -1.57545 0.0417849 0
M  V30 693 C 67.4245 -2.14451 -0.951213 0
M  V30 694 C 68.4405 -1.09992 -1.34825 0
M  V30 695 O 69.6165 -1.42114 -1.42708 0
M  V30 696 C 66.6815 -2.67063 -2.21084 0
M  V30 697 C 65.7425 -3.86284 -1.87304 0
M  V30 698 C 64.9755 -4.36378 -3.07261 0
M  V30 699 O 65.1985 -3.85587 -4.20332 0
M  V30 700 O 64.1325 -5.28077 -2.88822 0
M  V30 701 H 67.9585 -2.99601 -0.497287 0
M  V30 702 H 65.5435 -1.48317 -0.179567 0
M  V30 703 H 67.4255 -3.00914 -2.95006 0
M  V30 704 H 66.1005 -1.84989 -2.65633 0
M  V30 705 H 65.0075 -3.57338 -1.10727 0
M  V30 706 H 66.3405 -4.6956 -1.47562 0
M  V30 707 N 67.9926 0.231505 -1.5589 0
M  V30 708 C 69.2386 0.954429 -1.79617 0
M  V30 709 C 69.5936 1.82367 -0.613199 0
M  V30 710 O 68.8866 1.87524 0.393094 0
M  V30 711 C 69.0806 1.83577 -3.0665 0
M  V30 712 C 68.9096 1.05334 -4.3719 0
M  V30 713 C 67.6796 0.75225 -4.99669 0
M  V30 714 C 69.8776 0.423444 -5.12554 0
M  V30 715 N 67.8596 -0.052627 -6.13877 0
M  V30 716 C 69.2306 -0.245287 -6.19515 0
M  V30 717 C 71.2856 0.335466 -4.96769 0
M  V30 718 C 69.9886 -0.993566 -7.12405 0
M  V30 719 C 72.0146 -0.399321 -5.9005 0
M  V30 720 C 71.3766 -1.05663 -6.9643 0
M  V30 721 H 67.4756 0.329846 -0.709031 0
M  V30 722 H 70.0596 0.226172 -1.93382 0
M  V30 723 H 68.2306 2.53592 -2.94186 0
M  V30 724 H 69.9626 2.49541 -3.18608 0
M  V30 725 H 66.7176 1.06783 -4.61405 0
M  V30 726 H 67.1416 -0.443609 -6.75545 0
M  V30 727 H 71.7836 0.829311 -4.14587 0
M  V30 728 H 69.5016 -1.49896 -7.94076 0
M  V30 729 H 73.0876 -0.468265 -5.79913 0
M  V30 730 H 71.9676 -1.61612 -7.67366 0
M  V30 731 N 69.4707 1.49531 0.497807 0
M  V30 732 C 70.4037 1.61043 1.6168 0
M  V30 733 C 71.3817 0.459386 1.55976 0
M  V30 734 O 72.5657 0.675358 1.75986 0
M  V30 735 C 69.6927 1.56833 3.00202 0
M  V30 736 C 68.7387 2.77173 3.24156 0
M  V30 737 S 69.5717 4.38808 3.06933 0
M  V30 738 C 70.7277 4.37248 4.47845 0
M  V30 739 H 70.9607 2.55702 1.51671 0
M  V30 740 H 68.4937 1.38462 0.683201 0
M  V30 741 H 70.4517 1.55089 3.80076 0
M  V30 742 H 69.1127 0.634561 3.07623 0
M  V30 743 H 68.3057 2.70456 4.25288 0
M  V30 744 H 67.9077 2.76346 2.5201 0
M  V30 745 H 70.1997 4.09164 5.39992 0
M  V30 746 H 71.1427 5.38668 4.59612 0
M  V30 747 H 71.5507 3.67286 4.28674 0
M  V30 748 N 70.9488 -0.749086 1.3866 0
M  V30 749 C 72.1968 -1.50535 1.34847 0
M  V30 750 C 72.5178 -1.94909 -0.0595016 0
M  V30 751 O 71.7878 -1.67973 -1.00806 0
M  V30 752 H 70.3678 -0.558395 0.49619 0
M  V30 753 H 73.0298 -0.890165 1.73384 0
M  V30 754 H 72.1258 -2.39413 2.00219 0
M  V30 755 N 72.4269 -1.23603 -0.977757 0
M  V30 756 C 73.3369 -1.03632 -2.1047 0
M  V30 757 C 74.3529 0.0199435 -1.73989 0
M  V30 758 O 75.5289 -0.176076 -2.00629 0
M  V30 759 C 72.5939 -0.63276 -3.40877 0
M  V30 760 C 71.6549 -1.76437 -3.91367 0
M  V30 761 C 70.8879 -1.37997 -5.15551 0
M  V30 762 O 71.1109 -0.265357 -5.69782 0
M  V30 763 O 70.0449 -2.20201 -5.60174 0
M  V30 764 H 73.8709 -1.98086 -2.30208 0
M  V30 765 H 71.4559 -1.02332 -1.08851 0
M  V30 766 H 73.3379 -0.418761 -4.19314 0
M  V30 767 H 72.0129 0.282754 -3.22463 0
M  V30 768 H 70.9199 -2.03304 -3.14036 0
M  V30 769 H 72.2529 -2.6583 -4.14241 0
M  V30 770 N 73.905 1.17692 -1.04816 0
M  V30 771 C 75.154 1.87192 -0.751132 0
M  V30 772 C 75.467 1.8169 0.724441 0
M  V30 773 O 76.673 2.46625 1.13527 0
M  V30 774 C 75.129 3.35857 -1.29338 0
M  V30 775 C 74.737 3.4987 -2.79812 0
M  V30 776 C 76.481 4.10709 -1.07322 0
M  V30 777 C 74.388 4.92536 -3.27356 0
M  V30 778 H 73.318 0.701162 -0.277288 0
M  V30 779 H 75.969 1.32932 -1.26496 0
M  V30 780 H 74.351 3.89631 -0.707376 0
M  V30 781 H 75.525 3.06332 -3.44235 0
M  V30 782 H 73.84 2.88433 -3.00325 0
M  V30 783 H 76.437 5.15952 -1.4035 0
M  V30 784 H 76.78 4.16299 -0.0108001 0
M  V30 785 H 77.313 3.6313 -1.62423 0
M  V30 786 H 74.052 4.92119 -4.33012 0
M  V30 787 H 73.572 5.3676 -2.67673 0
M  V30 788 H 75.251 5.61288 -3.21815 0
M  V30 789 N 75.3831 0.828654 1.34056 0
M  V30 790 C 76.3131 0.269443 2.3194 0
M  V30 791 C 77.2941 -0.617247 1.58506 0
M  V30 792 O 78.4791 -0.542931 1.86456 0
M  V30 793 C 75.6091 -0.564793 3.42677 0
M  V30 794 C 74.5631 0.225241 4.27407 0
M  V30 795 C 73.8891 -0.7321 5.29664 0
M  V30 796 C 75.1891 1.43663 5.02154 0
M  V30 797 H 76.8831 1.08728 2.7896 0
M  V30 798 H 74.4291 0.524283 1.34117 0
M  V30 799 H 76.3821 -0.966233 4.10173 0
M  V30 800 H 75.1061 -1.41574 2.9432 0
M  V30 801 H 73.7651 0.608117 3.61521 0
M  V30 802 H 73.4131 -1.57916 4.77568 0
M  V30 803 H 73.1131 -0.20767 5.87233 0
M  V30 804 H 74.6371 -1.13128 6.00029 0
M  V30 805 H 76.0511 1.1089 5.62473 0
M  V30 806 H 74.4481 1.89711 5.69324 0
M  V30 807 H 75.5181 2.21181 4.31517 0
M  V30 808 N 76.8612 -1.46375 0.584142 0
M  V30 809 C 78.2722 -1.86031 0.157959 0
M  V30 810 C 78.6232 -1.48753 -1.27933 0
M  V30 811 O 77.7482 -0.903098 -1.96655 0
M  V30 812 C 78.3432 -3.37642 0.279892 0
M  V30 813 C 76.9022 -3.76289 -0.09143 0
M  V30 814 C 76.0492 -2.7039 0.615178 0
M  V30 815 H 79.0002 -1.37509 0.792274 0
M  V30 816 H 79.0212 -3.77275 -0.494364 0
M  V30 817 H 78.5332 -3.64742 1.32607 0
M  V30 818 H 76.6342 -3.54806 -1.13769 0
M  V30 819 H 76.7472 -4.78246 0.285886 0
M  V30 820 H 75.1112 -2.5464 0.0552833 0
M  V30 821 H 75.8942 -3.0033 1.66303 0
M  V30 822 N 78.3393 -0.321999 -1.54275 0
M  V30 823 C 79.5873 0.280489 -2.00144 0
M  V30 824 C 79.9083 1.52777 -1.21178 0
M  V30 825 O 79.1783 1.9338 -0.313187 0
M  V30 826 H 77.7583 0.106632 -0.73935 0
M  V30 827 H 80.4203 -0.438184 -1.8991 0
M  V30 828 H 79.5163 0.537972 -3.07428 0
M  V30 829 N 79.8174 1.5752 -0.0501392 0
M  V30 830 C 81.0424 1.97376 0.636997 0
M  V30 831 C 81.4674 0.927466 1.63645 0
M  V30 832 O 80.8254 -0.10941 1.8097 0
M  V30 833 C 80.8734 3.36304 1.30123 0
M  V30 834 O 79.9774 3.34156 2.41689 0
M  V30 835 H 79.3184 0.642998 0.165679 0
M  V30 836 H 81.8484 2.04258 -0.118233 0
M  V30 837 H 81.8584 3.73008 1.65315 0
M  V30 838 H 80.5334 4.11993 0.568746 0
M  V30 839 H 79.1104 3.09196 2.08451 0
M  V30 840 N 81.2955 -0.223234 1.56011 0
M  V30 841 C 82.5435 -0.946003 1.78592 0
M  V30 842 C 82.8645 -1.84936 0.618349 0
M  V30 843 O 82.1345 -1.92473 -0.364833 0
M  V30 844 H 80.7145 -0.352298 0.658707 0
M  V30 845 H 83.3765 -0.235494 1.93472 0
M  V30 846 H 82.4725 -1.55381 2.70672 0
M  V30 847 N 82.7736 -1.49793 -0.48987 0
M  V30 848 C 83.7236 -1.63673 -1.5873 0
M  V30 849 C 84.7076 -0.491956 -1.53195 0
M  V30 850 O 85.8996 -0.745461 -1.60536 0
M  V30 851 C 83.0286 -1.71689 -2.97284 0
M  V30 852 C 82.1146 -2.91781 -3.07774 0
M  V30 853 N 82.5056 -4.15714 -2.88124 0
M  V30 854 C 80.8036 -2.89949 -3.38889 0
M  V30 855 C 81.5046 -4.965 -3.03088 0
M  V30 856 N 80.4806 -4.30083 -3.3246 0
M  V30 857 H 84.2826 -2.57204 -1.42208 0
M  V30 858 H 81.7966 -1.46719 -0.69623 0
M  V30 859 H 83.7936 -1.79732 -3.76168 0
M  V30 860 H 82.4536 -0.793024 -3.14867 0
M  V30 861 H 83.4646 -4.45515 -2.64077 0
M  V30 862 H 80.1416 -2.06987 -3.62578 0
M  V30 863 H 81.5316 -6.04991 -2.92294 0
M  V30 864 N 84.2517 0.741722 -1.39055 0
M  V30 865 C 85.4797 1.53098 -1.39171 0
M  V30 866 C 85.8947 1.88794 0.0155099 0
M  V30 867 O 85.2517 1.53626 0.985159 0
M  V30 868 C 85.3027 2.82274 -2.2584 0
M  V30 869 O 85.0237 2.48097 -3.61081 0
M  V30 870 C 86.5247 3.76343 -2.34266 0
M  V30 871 H 83.7447 0.473335 -0.4756 0
M  V30 872 H 86.2887 0.917045 -1.82785 0
M  V30 873 H 84.4437 3.40015 -1.85656 0
M  V30 874 H 84.8577 3.31029 -4.06842 0
M  V30 875 H 86.3317 4.63898 -2.9917 0
M  V30 876 H 86.8087 4.17619 -1.35982 0
M  V30 877 H 87.4147 3.24523 -2.74891 0
M  V30 878 N 85.7298 1.2412 0.971189 0
M  V30 879 C 86.6398 1.04747 2.09917 0
M  V30 880 C 87.6558 -0.0107162 1.73997 0
M  V30 881 O 88.8318 0.186714 2.00533 0
M  V30 882 C 85.8968 0.650828 3.40537 0
M  V30 883 C 84.9578 1.7851 3.90426 0
M  V30 884 C 84.1908 1.40729 5.14812 0
M  V30 885 O 84.4138 0.29557 5.69634 0
M  V30 886 O 83.3478 2.23168 5.58999 0
M  V30 887 H 87.1738 1.99304 2.29154 0
M  V30 888 H 84.7588 1.02908 1.08307 0
M  V30 889 H 86.6408 0.440992 4.19086 0
M  V30 890 H 85.3158 -0.265649 3.22608 0
M  V30 891 H 84.2228 2.04966 3.12953 0
M  V30 892 H 85.5558 2.68023 4.12825 0
M  V30 893 N 87.2079 -1.17134 1.05439 0
M  V30 894 C 88.4379 -1.91094 0.785274 0
M  V30 895 C 88.8459 -1.77198 -0.663142 0
M  V30 896 O 88.1889 -1.10835 -1.46497 0
M  V30 897 C 88.2509 -3.42594 1.08949 0
M  V30 898 C 87.9149 -3.80274 2.53458 0
M  V30 899 C 88.9119 -3.82912 3.51673 0
M  V30 900 C 86.5969 -4.11162 2.88532 0
M  V30 901 C 88.5909 -4.15913 4.83006 0
M  V30 902 C 86.2779 -4.43831 4.20068 0
M  V30 903 C 87.2759 -4.46185 5.17115 0
M  V30 904 O 86.9639 -4.78083 6.46291 0
M  V30 905 H 86.6959 -0.613073 0.284811 0
M  V30 906 H 89.2499 -1.49461 1.40893 0
M  V30 907 H 87.4799 -3.84534 0.408741 0
M  V30 908 H 89.1689 -3.97817 0.805991 0
M  V30 909 H 89.9349 -3.5917 3.25917 0
M  V30 910 H 85.8139 -4.085 2.13656 0
M  V30 911 H 89.3579 -4.17665 5.5875 0
M  V30 912 H 85.2549 -4.67037 4.45586 0
M  V30 913 H 86.0229 -4.9593 6.51149 0
M  V30 914 N 88.686 -0.835752 -1.33615 0
M  V30 915 C 89.914 -0.443344 -2.02094 0
M  V30 916 C 90.329 0.954522 -1.62894 0
M  V30 917 O 89.686 1.61982 -0.840723 0
M  V30 918 C 89.737 -0.550775 -3.5728 0
M  V30 919 O 89.458 -1.89356 -3.95065 0
M  V30 920 C 90.959 -0.154919 -4.43029 0
M  V30 921 H 88.179 -0.176359 -0.647409 0
M  V30 922 H 90.723 -1.12746 -1.70612 0
M  V30 923 H 88.878 0.0853997 -3.87306 0
M  V30 924 H 89.292 -1.87687 -4.89769 0
M  V30 925 H 90.766 -0.281144 -5.51284 0
M  V30 926 H 91.243 0.902863 -4.2982 0
M  V30 927 H 91.849 -0.765404 -4.18356 0
M  V30 928 N 90.1641 1.46063 -0.591896 0
M  V30 929 C 91.0741 2.34192 0.13831 0
M  V30 930 C 92.0901 1.50305 0.876608 0
M  V30 931 O 93.2661 1.8315 0.837728 0
M  V30 932 C 90.3311 3.27656 1.13326 0
M  V30 933 C 89.3921 4.27445 0.39863 0
M  V30 934 C 88.6251 5.16443 1.34618 0
M  V30 935 O 88.8481 5.08553 2.58321 0
M  V30 936 O 87.7821 5.95843 0.851768 0
M  V30 937 H 91.6081 2.98002 -0.58552 0
M  V30 938 H 89.1931 1.45188 -0.352239 0
M  V30 939 H 91.0751 3.85291 1.70671 0
M  V30 940 H 89.7501 2.6643 1.83839 0
M  V30 941 H 88.6571 3.73471 -0.216895 0
M  V30 942 H 89.9901 4.91482 -0.265709 0
M  V30 943 N 91.6422 0.330177 1.54103 0
M  V30 944 C 92.5902 -0.548226 2.26047 0
M  V30 945 C 93.5842 -1.11309 1.27698 0
M  V30 946 O 94.7902 -1.06036 1.45452 0
M  V30 947 H 91.1652 -0.195456 0.726155 0
M  V30 948 H 93.1362 0.0807567 2.98291 0
M  V30 949 C 91.8852 -1.69415 3.03634 0
M  V30 950 H 91.2082 -1.26876 3.79134 0
M  V30 951 H 92.6482 -2.28423 3.5721 0
M  V30 952 C 91.1072 -2.61569 2.12328 0
M  V30 953 O 91.6372 -3.63462 1.7105 0
M  V30 954 N 89.8432 -2.29952 1.77681 0
M  V30 955 H 89.3902 -1.47134 2.11446 0
M  V30 956 H 89.3482 -2.91871 1.16869 0
M  V30 957 N 93.1203 -1.57491 0.0584922 0
M  V30 958 C 94.3673 -1.92978 -0.613648 0
M  V30 959 C 94.6953 -0.937461 -1.70417 0
M  V30 960 O 93.9503 0.049078 -1.95638 0
M  V30 961 C 94.2493 -3.3513 -1.24188 0
M  V30 962 C 93.9153 -4.50037 -0.278826 0
M  V30 963 C 92.5773 -4.81198 -0.0138447 0
M  V30 964 C 94.9293 -5.19807 0.380777 0
M  V30 965 C 92.2573 -5.79473 0.918052 0
M  V30 966 C 94.6093 -6.19079 1.30091 0
M  V30 967 C 93.2733 -6.48665 1.57449 0
M  V30 968 H 92.5433 -0.706157 -0.22455 0
M  V30 969 H 95.1903 -1.91082 0.126533 0
M  V30 970 H 93.4953 -3.33429 -2.05749 0
M  V30 971 H 95.1923 -3.59871 -1.769 0
M  V30 972 H 91.7823 -4.25726 -0.495539 0
M  V30 973 H 95.9663 -4.95939 0.189158 0
M  V30 974 H 91.2223 -6.00727 1.1374 0
M  V30 975 H 95.3963 -6.7225 1.81804 0
M  V30 976 H 93.0233 -7.24628 2.29822 0
M  V30 977 N 94.5984 0.214957 -1.56127 0
M  V30 978 C 95.5454 1.26642 -1.92952 0
M  V30 979 C 96.5154 1.46244 -0.78753 0
M  V30 980 O 97.7004 1.59704 -1.04399 0
M  V30 981 C 94.8404 2.6104 -2.25726 0
M  V30 982 C 93.9534 2.49183 -3.52891 0
M  V30 983 C 93.0884 3.76149 -3.7508 0
M  V30 984 C 92.1274 3.59041 -4.95738 0
M  V30 985 N 91.2644 4.77972 -5.14283 0
M  V30 986 H 96.1044 0.945384 -2.82607 0
M  V30 987 H 93.6414 0.455489 -1.3987 0
M  V30 988 H 95.5994 3.39313 -2.42739 0
M  V30 989 H 94.2294 2.91227 -1.39236 0
M  V30 990 H 93.2814 1.6231 -3.44034 0
M  V30 991 H 94.5934 2.32466 -4.41318 0
M  V30 992 H 93.7474 4.62865 -3.92226 0
M  V30 993 H 92.4864 3.95799 -2.84947 0
M  V30 994 H 91.4914 2.7071 -4.78535 0
M  V30 995 H 92.7164 3.40856 -5.87362 0
M  V30 996 H 90.6624 4.97923 -4.27093 0
M  V30 997 H 90.5794 4.64006 -5.96853 0
M  V30 998 H 91.8474 5.66096 -5.35869 0
M  V30 999 N 96.0765 1.50051 0.48192 0
M  V30 1000 C 97.3535 1.51009 1.2432 0
M  V30 1001 C 97.7335 0.248587 2.09631 0
M  V30 1002 O 97.0815 -0.768409 2.15192 0
M  V30 1003 C 97.2915 2.79981 2.08355 0
M  V30 1004 C 98.6395 3.3022 2.66908 0
M  V30 1005 O 99.6635 2.81228 2.18607 0
M  V30 1006 O 98.5225 4.15595 3.54884 0
M  V30 1007 H 95.6165 0.605239 0.563573 0
M  V30 1008 H 98.1625 1.62332 0.494627 0
M  V30 1009 H 96.9345 3.63275 1.45419 0
M  V30 1010 H 96.5575 2.7161 2.90368 0
M  V30 1011 N 97.5546 -0.734337 1.39446 0
M  V30 1012 C 98.9706 -1.03997 1.21065 0
M  V30 1013 C 99.1706 -2.01369 0.0727019 0
M  V30 1014 O 98.2266 -2.45856 -0.575426 0
M  V30 1015 C 99.5396 -1.60163 2.54496 0
M  V30 1016 C 101.088 -1.7224 2.61347 0
M  V30 1017 C 101.563 -2.31814 3.95002 0
M  V30 1018 N 103.054 -2.39223 3.96644 0
M  V30 1019 C 103.789 -2.86258 4.96834 0
M  V30 1020 N 103.285 -3.33184 6.07421 0
M  V30 1021 N 105.078 -2.85473 4.84213 0
M  V30 1022 H 97.2286 -0.0885624 2.12215 0
M  V30 1023 H 99.4916 -0.10191 0.942506 0
M  V30 1024 H 99.1976 -0.960811 3.38321 0
M  V30 1025 H 99.0716 -2.5896 2.74262 0
M  V30 1026 H 101.459 -2.35443 1.77906 0
M  V30 1027 H 101.54 -0.720939 2.4543 0
M  V30 1028 H 101.184 -1.69238 4.78875 0
M  V30 1029 H 101.114 -3.32638 4.08239 0
M  V30 1030 H 103.605 -2.06057 3.16779 0
M  V30 1031 H 103.918 -3.67586 6.7978 0
M  V30 1032 H 102.263 -3.31191 6.11013 0
M  V30 1033 H 105.454 -2.48136 3.96921 0
M  V30 1034 H 105.627 -3.21814 5.62441 0
M  V30 1035 N 99.0327 -1.24633 -0.964593 0
M  V30 1036 C 100.279 -1.08949 -1.71049 0
M  V30 1037 C 100.612 0.370302 -1.90637 0
M  V30 1038 O 99.8867 1.27349 -1.47011 0
M  V30 1039 C 100.17 -1.83329 -3.0994 0
M  V30 1040 C 100.023 -3.37077 -2.97824 0
M  V30 1041 C 101.342 -1.60846 -4.09654 0
M  V30 1042 H 98.4607 -0.397178 -0.620821 0
M  V30 1043 H 101.103 -1.5334 -1.12191 0
M  V30 1044 H 99.2527 -1.45597 -3.60186 0
M  V30 1045 H 100.925 -3.84425 -2.5498 0
M  V30 1046 H 99.1677 -3.65298 -2.33965 0
M  V30 1047 H 99.8387 -3.84324 -3.96231 0
M  V30 1048 H 102.315 -1.93674 -3.68279 0
M  V30 1049 H 101.191 -2.1534 -5.04896 0
M  V30 1050 H 101.452 -0.547434 -4.38698 0
M  V30 1051 N 100.511 1.16574 -1.06058 0
M  V30 1052 C 101.739 1.90952 -0.796552 0
M  V30 1053 C 102.154 1.77302 0.648808 0
M  V30 1054 O 101.511 1.11605 1.44397 0
M  V30 1055 C 101.562 3.41736 -1.17894 0
M  V30 1056 O 101.283 3.54975 -2.56758 0
M  V30 1057 C 102.784 4.33169 -0.942308 0
M  V30 1058 H 100.004 0.605594 -0.288959 0
M  V30 1059 H 102.548 1.47777 -1.41358 0
M  V30 1060 H 100.703 3.82623 -0.606491 0
M  V30 1061 H 101.117 4.4846 -2.72 0
M  V30 1062 H 102.591 5.37439 -1.25952 0
M  V30 1063 H 103.068 4.3903 0.122078 0
M  V30 1064 H 103.674 3.98007 -1.49902 0
M  V30 1065 N 101.989 0.842826 1.3317 0
M  V30 1066 C 102.922 0.223862 2.27099 0
M  V30 1067 C 103.9 -0.631311 1.49844 0
M  V30 1068 O 105.084 -0.590708 1.79005 0
M  V30 1069 C 102.211 -0.685313 3.31694 0
M  V30 1070 C 101.257 0.094919 4.26394 0
M  V30 1071 S 102.09 1.45546 5.15341 0
M  V30 1072 C 103.246 0.551685 6.23464 0
M  V30 1073 H 103.479 1.02015 2.79249 0
M  V30 1074 H 101.012 0.639797 1.4052 0
M  V30 1075 H 102.97 -1.20426 3.92438 0
M  V30 1076 H 101.631 -1.4553 2.78352 0
M  V30 1077 H 100.824 -0.597059 5.00451 0
M  V30 1078 H 100.426 0.545054 3.70007 0
M  V30 1079 H 102.718 -0.248877 6.77043 0
M  V30 1080 H 103.661 1.26253 6.96754 0
M  V30 1081 H 104.069 0.131275 5.64347 0
M  V30 1082 N 103.467 -1.45747 0.599634 0
M  V30 1083 C 104.695 -2.06668 0.0978551 0
M  V30 1084 C 105.11 -1.44562 -1.21439 0
M  V30 1085 O 104.467 -0.556923 -1.73795 0
M  V30 1086 C 104.518 -3.61456 -0.0567044 0
M  V30 1087 O 104.239 -4.21242 1.20361 0
M  V30 1088 C 105.74 -4.39345 -0.590869 0
M  V30 1089 H 102.96 -0.667825 0.0651943 0
M  V30 1090 H 105.504 -1.87115 0.82511 0
M  V30 1091 H 103.659 -3.80378 -0.734251 0
M  V30 1092 H 104.073 -5.14323 1.02821 0
M  V30 1093 H 105.547 -5.48182 -0.648131 0
M  V30 1094 H 106.024 -4.08568 -1.61147 0
M  V30 1095 H 106.63 -4.25268 0.0523679 0
M  V30 1096 N 104.945 -0.338344 -1.53925 0
M  V30 1097 C 106.361 0.0137736 -1.59594 0
M  V30 1098 C 106.561 1.49186 -1.35447 0
M  V30 1099 O 105.617 2.24987 -1.14616 0
M  V30 1100 C 106.93 -0.41773 -2.97784 0
M  V30 1101 C 108.478 -0.369633 -3.1081 0
M  V30 1102 C 108.953 -0.776524 -4.51369 0
M  V30 1103 N 110.444 -0.730506 -4.57403 0
M  V30 1104 C 111.179 -1.01736 -5.64303 0
M  V30 1105 N 110.675 -1.3721 -6.79077 0
M  V30 1106 N 112.468 -0.941942 -5.54151 0
M  V30 1107 H 104.619 -1.3012 -1.67876 0
M  V30 1108 H 106.882 -0.530082 -0.78595 0
M  V30 1109 H 106.588 -1.44811 -3.20504 0
M  V30 1110 H 106.462 0.209729 -3.76616 0
M  V30 1111 H 108.849 0.651568 -2.87817 0
M  V30 1112 H 108.93 -1.03223 -2.34049 0
M  V30 1113 H 108.574 -1.79571 -4.75096 0
M  V30 1114 H 108.504 -0.0914649 -5.26521 0
M  V30 1115 H 110.995 -0.468783 -3.74981 0
M  V30 1116 H 111.308 -1.57597 -7.5656 0
M  V30 1117 H 109.653 -1.4105 -6.80536 0
M  V30 1118 H 112.844 -0.664184 -4.63364 0
M  V30 1119 H 113.017 -1.16884 -6.37371 0
M  V30 1120 N 106.423 1.57458 -0.0668435 0
M  V30 1121 C 107.7 1.8469 0.644132 0
M  V30 1122 C 108.08 0.958343 1.88093 0
M  V30 1123 O 107.428 0.0233579 2.28488 0
M  V30 1124 C 107.638 3.34767 0.986509 0
M  V30 1125 C 108.986 4.02159 1.36212 0
M  V30 1126 O 110.01 3.39484 1.07839 0
M  V30 1127 O 108.869 5.12694 1.89227 0
M  V30 1128 H 105.963 0.762816 0.319437 0
M  V30 1129 H 108.509 1.6942 -0.0973986 0
M  V30 1130 H 107.281 3.91151 0.107883 0
M  V30 1131 H 106.904 3.55281 1.78497 0
M  V30 1132 N 107.901 -0.206675 1.56239 0
M  V30 1133 C 109.129 -0.945345 1.8404 0
M  V30 1134 C 109.544 -1.77336 0.647885 0
M  V30 1135 O 108.901 -1.78425 -0.383511 0
M  V30 1136 C 108.952 -1.8509 3.10522 0
M  V30 1137 O 108.673 -1.05634 4.25174 0
M  V30 1138 C 110.174 -2.70222 3.51418 0
M  V30 1139 H 107.394 -0.276372 0.61144 0
M  V30 1140 H 109.938 -0.217417 2.03341 0
M  V30 1141 H 108.093 -2.53259 2.93153 0
M  V30 1142 H 108.507 -1.67238 4.97124 0
M  V30 1143 H 109.981 -3.29438 4.42916 0
M  V30 1144 H 110.458 -3.43358 2.73864 0
M  V30 1145 H 111.064 -2.07443 3.71278 0
M  V30 1146 N 109.379 -1.50304 -0.473955 0
M  V30 1147 C 110.604 -1.65175 -1.25427 0
M  V30 1148 C 111.029 -0.333673 -1.85117 0
M  V30 1149 O 110.387 0.702114 -1.67153 0
M  V30 1150 C 110.435 -2.74295 -2.34082 0
M  V30 1151 O 109.539 -2.35349 -3.38651 0
M  V30 1152 H 108.88 -0.551944 -0.369126 0
M  V30 1153 H 111.41 -1.96662 -0.564364 0
M  V30 1154 H 111.42 -2.97285 -2.79438 0
M  V30 1155 H 110.095 -3.69959 -1.90008 0
M  V30 1156 H 108.672 -2.22794 -2.99027 0
M  V30 1157 N 110.857 0.726932 -1.39834 0
M  V30 1158 C 112.085 1.51613 -1.40787 0
M  V30 1159 C 112.5 1.88799 -0.00451505 0
M  V30 1160 O 111.857 1.54662 0.968809 0
M  V30 1161 C 111.908 2.79863 -2.28821 0
M  V30 1162 O 111.629 2.44253 -3.63692 0
M  V30 1163 C 113.13 3.73837 -2.38245 0
M  V30 1164 H 110.35 0.468264 -0.480593 0
M  V30 1165 H 112.894 0.897607 -1.83748 0
M  V30 1166 H 111.049 3.38027 -1.89252 0
M  V30 1167 H 111.463 3.26695 -4.1033 0
M  V30 1168 H 112.937 4.60699 -3.04073 0
M  V30 1169 H 113.414 4.16153 -1.40403 0
M  V30 1170 H 114.02 3.21589 -2.78317 0
M  V30 1171 N 112.336 1.25143 0.95797 0
M  V30 1172 C 113.561 1.12521 1.74223 0
M  V30 1173 C 113.986 -0.317402 1.85403 0
M  V30 1174 O 113.344 -1.2299 1.33204 0
M  V30 1175 C 113.392 1.78062 3.1357 0
M  V30 1176 O 112.496 1.058 3.98598 0
M  V30 1177 H 111.837 0.39304 0.535178 0
M  V30 1178 H 114.367 1.65641 1.201 0
M  V30 1179 H 114.377 1.84213 3.64046 0
M  V30 1180 H 113.052 2.83021 3.04749 0
M  V30 1181 H 111.629 1.07506 3.57067 0
M  V30 1182 N 113.814 -1.1601 1.06675 0
M  V30 1183 C 115.042 -1.90527 0.806667 0
M  V30 1184 C 115.457 -1.77643 -0.639396 0
M  V30 1185 O 114.814 -1.12369 -1.43803 0
M  V30 1186 C 114.865 -3.41106 1.19705 0
M  V30 1187 O 114.586 -3.53608 2.58636 0
M  V30 1188 C 116.087 -4.32663 0.965266 0
M  V30 1189 H 113.307 -0.604053 0.292166 0
M  V30 1190 H 115.851 -1.47026 1.4214 0
M  V30 1191 H 114.006 -3.82296 0.626774 0
M  V30 1192 H 114.42 -4.47011 2.74375 0
M  V30 1193 H 115.894 -5.36763 1.288 0
M  V30 1194 H 116.371 -4.39089 -0.0987936 0
M  V30 1195 H 116.977 -3.97206 1.52011 0
M  V30 1196 N 115.292 -0.849877 -1.32721 0
M  V30 1197 C 116.538 -0.451591 -1.97708 0
M  V30 1198 C 116.871 0.989175 -1.6712 0
M  V30 1199 O 116.146 1.69334 -0.956891 0
M  V30 1200 C 116.429 -0.685598 -3.53513 0
M  V30 1201 C 116.282 -2.17444 -3.93749 0
M  V30 1202 C 117.601 -0.138874 -4.39881 0
M  V30 1203 H 114.72 -0.16555 -0.718166 0
M  V30 1204 H 117.362 -1.06742 -1.57182 0
M  V30 1205 H 115.512 -0.161416 -3.88165 0
M  V30 1206 H 117.184 -2.76433 -3.693 0
M  V30 1207 H 115.427 -2.65476 -3.43081 0
M  V30 1208 H 116.098 -2.28888 -5.02309 0
M  V30 1209 H 118.574 -0.587068 -4.11938 0
M  V30 1210 H 117.45 -0.332213 -5.47894 0
M  V30 1211 H 117.711 0.95806 -4.31594 0
M  V30 1212 N 116.77 1.45427 -0.607355 0
M  V30 1213 C 118 2.06314 -0.108656 0
M  V30 1214 C 118.408 1.45269 1.21217 0
M  V30 1215 O 117.751 0.561115 1.74921 0
M  V30 1216 C 117.813 3.59345 0.105618 0
M  V30 1217 C 117.477 4.42723 -1.13337 0
M  V30 1218 C 118.474 4.77715 -2.05145 0
M  V30 1219 C 116.159 4.83478 -1.36213 0
M  V30 1220 C 118.153 5.52317 -3.18158 0
M  V30 1221 C 115.84 5.57835 -2.49527 0
M  V30 1222 C 116.838 5.92171 -3.40327 0
M  V30 1223 O 116.526 6.65019 -4.51669 0
M  V30 1224 H 116.258 0.672782 -0.0658842 0
M  V30 1225 H 118.812 1.87664 -0.834945 0
M  V30 1226 H 117.042 3.76394 0.886796 0
M  V30 1227 H 118.731 4.02076 0.555886 0
M  V30 1228 H 119.497 4.46787 -1.88697 0
M  V30 1229 H 115.376 4.56188 -0.664362 0
M  V30 1230 H 118.92 5.79036 -3.89054 0
M  V30 1231 H 114.817 5.88177 -2.65928 0
M  V30 1232 H 115.585 6.83469 -4.50348 0
M  V30 1233 N 118.248 0.346503 1.53744 0
M  V30 1234 C 119.181 -0.552023 2.21423 0
M  V30 1235 C 120.159 -1.09798 1.19929 0
M  V30 1236 O 121.343 -1.1577 1.4876 0
M  V30 1237 C 118.47 -1.75972 2.89398 0
M  V30 1238 C 117.516 -1.34295 4.04805 0
M  V30 1239 S 118.349 -0.360263 5.34287 0
M  V30 1240 C 119.505 -1.57473 6.05767 0
M  V30 1241 H 119.738 0.0228119 2.97291 0
M  V30 1242 H 117.271 0.130579 1.53847 0
M  V30 1243 H 119.229 -2.45256 3.2918 0
M  V30 1244 H 117.89 -2.30578 2.1329 0
M  V30 1245 H 117.083 -2.24349 4.51313 0
M  V30 1246 H 116.685 -0.729555 3.66815 0
M  V30 1247 H 118.977 -2.50875 6.29339 0
M  V30 1248 H 119.92 -1.15138 6.98676 0
M  V30 1249 H 120.328 -1.77212 5.35963 0
M  V30 1250 N 119.726 -1.57421 0.075193 0
M  V30 1251 C 120.636 -2.1642 -0.905511 0
M  V30 1252 C 121.652 -1.12828 -1.32461 0
M  V30 1253 O 122.828 -1.45109 -1.39661 0
M  V30 1254 C 119.893 -2.71693 -2.15369 0
M  V30 1255 C 118.954 -3.90171 -1.79068 0
M  V30 1256 C 118.187 -4.42798 -2.97936 0
M  V30 1257 O 118.41 -3.94416 -4.12058 0
M  V30 1258 O 117.344 -5.34085 -2.77555 0
M  V30 1259 H 121.17 -3.00588 -0.433626 0
M  V30 1260 H 118.755 -1.48664 -0.148067 0
M  V30 1261 H 120.637 -3.07104 -2.88557 0
M  V30 1262 H 119.312 -1.90582 -2.61649 0
M  V30 1263 H 118.219 -3.59606 -1.03122 0
M  V30 1264 H 119.552 -4.72584 -1.37569 0
M  V30 1265 N 121.204 0.198386 -1.56346 0
M  V30 1266 C 122.134 1.24865 -1.9731 0
M  V30 1267 C 123.115 1.47651 -0.844576 0
M  V30 1268 O 124.3 1.59444 -1.10866 0
M  V30 1269 C 121.43 2.59358 -2.30977 0
M  V30 1270 C 120.384 2.5119 -3.46537 0
M  V30 1271 C 119.71 3.89926 -3.65871 0
M  V30 1272 C 121.01 2.03977 -4.80823 0
M  V30 1273 H 122.704 0.908252 -2.85291 0
M  V30 1274 H 120.25 0.435462 -1.37258 0
M  V30 1275 H 122.203 3.33011 -2.58228 0
M  V30 1276 H 120.927 2.95132 -1.39874 0
M  V30 1277 H 119.586 1.79993 -3.19371 0
M  V30 1278 H 119.234 4.23046 -2.72105 0
M  V30 1279 H 118.934 3.85336 -4.4361 0
M  V30 1280 H 120.458 4.65205 -3.95495 0
M  V30 1281 H 121.872 2.67386 -5.07127 0
M  V30 1282 H 120.269 2.10397 -5.62008 0
M  V30 1283 H 121.339 0.992861 -4.74626 0
M  V30 1284 N 122.682 1.50554 0.465978 0
M  V30 1285 C 123.907 1.65838 1.24549 0
M  V30 1286 C 124.332 0.343486 1.84937 0
M  V30 1287 O 123.69 -0.69324 1.67523 0
M  V30 1288 C 123.738 2.75533 2.32624 0
M  V30 1289 O 122.842 2.37142 3.37398 0
M  V30 1290 H 122.183 0.553893 0.366194 0
M  V30 1291 H 124.713 1.96959 0.553927 0
M  V30 1292 H 124.723 2.98763 2.77857 0
M  V30 1293 H 123.398 3.70962 1.88043 0
M  V30 1294 H 121.975 2.24377 2.97841 0
M  V30 1295 N 124.16 -0.719506 1.40217 0
M  V30 1296 C 125.385 -1.51371 1.4178 0
M  V30 1297 C 125.81 -1.88091 0.0182355 0
M  V30 1298 O 125.168 -1.52997 -0.972707 0
M  V30 1299 C 125.216 -2.768 2.31115 0
M  V30 1300 O 124.32 -3.73349 1.7517 0
M  V30 1301 H 123.661 -0.456529 0.482159 0
M  V30 1302 H 126.191 -0.88644 1.844 0
M  V30 1303 H 126.201 -3.25371 2.46167 0
M  V30 1304 H 124.876 -2.49407 3.3282 0
M  V30 1305 H 123.453 -3.32179 1.69444 0
M  V30 1306 N 125.638 -1.25649 -0.95132 0
M  V30 1307 C 126.568 -1.08808 -2.06599 0
M  V30 1308 C 127.549 0.00382547 -1.701 0
M  V30 1309 O 128.734 -0.166325 -1.93486 0
M  V30 1310 C 125.864 -0.709542 -3.39975 0
M  V30 1311 C 124.818 -1.75206 -3.90496 0
M  V30 1312 C 124.144 -1.22811 -5.20405 0
M  V30 1313 C 125.444 -3.15153 -4.16504 0
M  V30 1314 H 127.138 -2.02048 -2.20946 0
M  V30 1315 H 124.684 -0.972835 -1.06169 0
M  V30 1316 H 126.637 -0.578649 -4.17408 0
M  V30 1317 H 125.361 0.258556 -3.25575 0
M  V30 1318 H 124.02 -1.87145 -3.15234 0
M  V30 1319 H 123.668 -0.250145 -5.02378 0
M  V30 1320 H 123.368 -1.92492 -5.55176 0
M  V30 1321 H 124.892 -1.10968 -6.00432 0
M  V30 1322 H 126.306 -3.06349 -4.84586 0
M  V30 1323 H 124.703 -3.82333 -4.62538 0
M  V30 1324 H 125.773 -3.61966 -3.22658 0
M  V30 1325 N 127.117 1.15442 -1.07289 0
M  V30 1326 C 128.533 1.38201 -0.798288 0
M  V30 1327 C 128.733 1.92429 0.597769 0
M  V30 1328 O 127.789 2.12962 1.3566 0
M  V30 1329 C 129.102 2.35357 -1.87156 0
M  V30 1330 C 130.65 2.49021 -1.89624 0
M  V30 1331 C 131.125 3.49468 -2.96034 0
M  V30 1332 N 132.616 3.57003 -2.95132 0
M  V30 1333 C 133.351 4.34543 -3.74112 0
M  V30 1334 N 132.847 5.15421 -4.6294 0
M  V30 1335 N 134.64 4.29625 -3.62462 0
M  V30 1336 H 126.791 0.78584 -1.97328 0
M  V30 1337 H 129.054 0.408065 -0.855679 0
M  V30 1338 H 128.76 2.02626 -2.87464 0
M  V30 1339 H 128.634 3.35129 -1.73114 0
M  V30 1340 H 131.021 2.81051 -0.899687 0
M  V30 1341 H 131.102 1.4925 -2.07745 0
M  V30 1342 H 130.746 3.18173 -3.95889 0
M  V30 1343 H 130.676 4.48992 -2.75161 0
M  V30 1344 H 133.167 2.99276 -2.30743 0
M  V30 1345 H 133.48 5.7183 -5.19837 0
M  V30 1346 H 131.825 5.14729 -4.66989 0
M  V30 1347 H 135.016 3.65505 -2.92444 0
M  V30 1348 H 135.189 4.89807 -4.24256 0
M  V30 1349 N 128.595 0.856903 1.32268 0
M  V30 1350 C 129.82 0.474569 2.01897 0
M  V30 1351 C 130.245 -0.921766 1.63967 0
M  V30 1352 O 129.603 -1.60589 0.84148 0
M  V30 1353 C 129.651 0.623799 3.55164 0
M  V30 1354 O 128.755 -0.342459 4.10976 0
M  V30 1355 H 128.096 0.190422 0.63611 0
M  V30 1356 H 130.626 1.15672 1.68764 0
M  V30 1357 H 130.636 0.512169 4.04773 0
M  V30 1358 H 129.311 1.64202 3.82113 0
M  V30 1359 H 127.888 -0.18688 3.72431 0
M  V30 1360 N 130.073 -1.45103 0.615059 0
M  V30 1361 C 130.983 -2.34382 -0.101034 0
M  V30 1362 C 131.999 -1.51681 -0.852585 0
M  V30 1363 O 133.175 -1.8446 -0.808484 0
M  V30 1364 C 130.24 -3.29417 -1.08099 0
M  V30 1365 C 129.301 -4.28025 -0.330577 0
M  V30 1366 C 128.534 -5.1852 -1.26385 0
M  V30 1367 O 128.757 -5.12598 -2.50198 0
M  V30 1368 O 127.691 -5.97122 -0.756866 0
M  V30 1369 H 131.517 -2.97033 0.632855 0
M  V30 1370 H 129.102 -1.4461 0.375293 0
M  V30 1371 H 130.984 -3.87958 -1.6452 0
M  V30 1372 H 129.659 -2.69321 -1.79577 0
M  V30 1373 H 128.566 -3.73078 0.276283 0
M  V30 1374 H 129.899 -4.90997 0.343866 0
M  V30 1375 N 131.551 -0.354651 -1.53558 0
M  V30 1376 C 132.828 0.294281 -1.93374 0
M  V30 1377 C 133.208 1.67313 -1.28723 0
M  V30 1378 O 132.556 2.24179 -0.442247 0
M  V30 1379 C 132.766 0.355445 -3.47185 0
M  V30 1380 C 134.114 0.601007 -4.20325 0
M  V30 1381 O 135.138 0.437106 -3.53508 0
M  V30 1382 O 133.997 0.919322 -5.38712 0
M  V30 1383 H 131.091 0.174033 -0.808481 0
M  V30 1384 H 133.637 -0.406638 -1.64756 0
M  V30 1385 H 132.409 -0.611729 -3.86489 0
M  V30 1386 H 132.032 1.1027 -3.82003 0
M  V30 1387 N 133.029 1.57378 -0.0835403 0
M  V30 1388 C 134.257 1.98263 0.59157 0
M  V30 1389 C 134.672 0.962302 1.62435 0
M  V30 1390 O 134.029 -0.049581 1.82433 0
M  V30 1391 C 134.08 3.39214 1.24965 0
M  V30 1392 O 133.801 4.37339 0.258186 0
M  V30 1393 C 135.302 3.95038 2.01147 0
M  V30 1394 H 132.522 0.651773 0.159477 0
M  V30 1395 H 135.066 2.03878 -0.159415 0
M  V30 1396 H 133.221 3.34649 1.95164 0
M  V30 1397 H 133.635 5.19371 0.731734 0
M  V30 1398 H 135.109 4.95848 2.42567 0
M  V30 1399 H 135.586 3.32222 2.87272 0
M  V30 1400 H 136.192 4.0304 1.35789 0
M  V30 1401 N 134.507 -0.190092 1.56449 0
M  V30 1402 C 135.47 -1.21925 1.9408 0
M  V30 1403 C 136.47 -1.38176 0.822431 0
M  V30 1404 O 137.66 -1.35903 1.08977 0
M  V30 1405 C 134.792 -2.58773 2.21922 0
M  V30 1406 H 135.985 -0.897464 2.86157 0
M  V30 1407 H 133.538 -0.43181 1.50217 0
M  V30 1408 H 134.273 -2.95998 1.32499 0
M  V30 1409 H 134.058 -2.48348 3.03424 0
M  V30 1410 H 135.548 -3.32978 2.52022 0
M  V30 1411 N 135.985 -1.50799 -0.457987 0
M  V30 1412 C 137.231 -1.62683 -1.21088 0
M  V30 1413 C 137.564 -0.332268 -1.91336 0
M  V30 1414 O 136.839 0.667043 -1.82704 0
M  V30 1415 C 137.122 -2.81615 -2.24422 0
M  V30 1416 C 136.975 -4.20989 -1.58392 0
M  V30 1417 C 138.294 -2.96085 -3.2561 0
M  V30 1418 H 135.413 -0.592087 -0.438864 0
M  V30 1419 H 138.055 -1.83225 -0.50286 0
M  V30 1420 H 136.205 -2.64231 -2.84806 0
M  V30 1421 H 137.877 -4.49994 -1.01504 0
M  V30 1422 H 136.12 -4.24641 -0.886704 0
M  V30 1423 H 136.791 -5.0016 -2.33547 0
M  V30 1424 H 139.267 -3.12042 -2.75262 0
M  V30 1425 H 138.143 -3.80902 -3.95228 0
M  V30 1426 H 138.404 -2.0726 -3.90507 0
M  V30 1427 N 137.463 0.71206 -1.40597 0
M  V30 1428 C 138.693 1.49894 -1.42181 0
M  V30 1429 C 139.101 1.89189 -0.0208078 0
M  V30 1430 O 138.444 1.56223 0.966436 0
M  V30 1431 C 138.506 2.80215 -2.25211 0
M  V30 1432 C 138.17 2.63221 -3.73582 0
M  V30 1433 C 139.167 2.30249 -4.66135 0
M  V30 1434 C 136.852 2.79376 -4.17438 0
M  V30 1435 C 138.846 2.13645 -6.00529 0
M  V30 1436 C 136.533 2.6239 -5.51901 0
M  V30 1437 C 137.531 2.29573 -6.43262 0
M  V30 1438 O 137.219 2.12719 -7.75246 0
M  V30 1439 H 136.951 0.469031 -0.486812 0
M  V30 1440 H 139.505 0.88564 -1.85326 0
M  V30 1441 H 137.735 3.4389 -1.76852 0
M  V30 1442 H 139.424 3.41947 -2.18694 0
M  V30 1443 H 140.19 2.17398 -4.33547 0
M  V30 1444 H 136.069 3.03906 -3.46644 0
M  V30 1445 H 139.613 1.87953 -6.71803 0
M  V30 1446 H 135.51 2.74826 -5.84073 0
M  V30 1447 H 136.278 2.27611 -7.86216 0
M  V30 1448 N 138.941 1.26152 0.944643 0
M  V30 1449 C 140.171 1.14094 1.72239 0
M  V30 1450 C 140.579 -0.306931 1.86694 0
M  V30 1451 O 139.922 -1.22222 1.3714 0
M  V30 1452 C 139.984 1.73316 3.14963 0
M  V30 1453 C 139.648 3.2239 3.23904 0
M  V30 1454 C 140.645 4.19252 3.07447 0
M  V30 1455 C 138.33 3.62788 3.47405 0
M  V30 1456 C 140.324 5.54491 3.14353 0
M  V30 1457 C 138.011 4.98162 3.53947 0
M  V30 1458 C 139.009 5.93823 3.37436 0
M  V30 1459 O 138.697 7.26732 3.43679 0
M  V30 1460 H 138.429 0.398292 0.546205 0
M  V30 1461 H 140.983 1.67201 1.19301 0
M  V30 1462 H 139.213 1.14667 3.69308 0
M  V30 1463 H 140.902 1.56214 3.74636 0
M  V30 1464 H 141.668 3.8938 2.8915 0
M  V30 1465 H 137.547 2.88816 3.59313 0
M  V30 1466 H 141.091 6.29137 3.01384 0
M  V30 1467 H 136.988 5.27695 3.71763 0
M  V30 1468 H 137.756 7.3496 3.60245 0
M  V30 1469 N 140.419 -1.14872 1.07899 0
M  V30 1470 C 141.659 -1.8745 0.814965 0
M  V30 1471 C 142.023 -1.80758 -0.64733 0
M  V30 1472 O 143.224 -2.48422 -1.02664 0
M  V30 1473 C 141.495 -3.32286 1.31607 0
M  V30 1474 S 143.054 -4.22537 1.18357 0
M  V30 1475 H 139.872 -0.646833 0.295174 0
M  V30 1476 H 142.474 -1.38555 1.37923 0
M  V30 1477 H 141.178 -3.34703 2.37491 0
M  V30 1478 H 140.709 -3.86238 0.747261 0
M  V30 1479 H 142.724 -4.96044 0.124586 0
M  V30 1480 N 141.898 -0.863906 -1.31812 0
M  V30 1481 C 142.861 -0.320212 -2.26952 0
M  V30 1482 C 143.861 0.525369 -1.51975 0
M  V30 1483 O 145.051 0.335547 -1.70938 0
M  V30 1484 C 142.183 0.545919 -3.365 0
M  V30 1485 H 143.376 -1.16004 -2.76556 0
M  V30 1486 H 140.929 -0.638995 -1.42641 0
M  V30 1487 H 141.664 1.40718 -2.92179 0
M  V30 1488 H 141.449 -0.0594674 -3.92055 0
M  V30 1489 H 142.939 0.918796 -4.07367 0
M  V30 1490 N 143.376 1.44774 -0.622745 0
M  V30 1491 C 144.792 1.56986 -0.287652 0
M  V30 1492 C 144.992 1.61167 1.20944 0
M  V30 1493 O 144.048 1.55015 1.99315 0
M  V30 1494 C 145.361 2.84551 -0.972188 0
M  V30 1495 C 146.909 2.9825 -0.949536 0
M  V30 1496 C 147.384 4.28605 -1.61437 0
M  V30 1497 N 148.875 4.35399 -1.58057 0
M  V30 1498 C 149.61 5.34964 -2.064 0
M  V30 1499 N 149.106 6.40981 -2.62897 0
M  V30 1500 N 150.899 5.26419 -1.97078 0
M  V30 1501 H 143.05 1.40304 -1.59463 0
M  V30 1502 H 145.313 0.671794 -0.668878 0
M  V30 1503 H 145.019 2.87417 -2.02693 0
M  V30 1504 H 144.893 3.73807 -0.504771 0
M  V30 1505 H 147.28 2.94941 0.0967067 0
M  V30 1506 H 147.361 2.10364 -1.45536 0
M  V30 1507 H 147.005 4.32672 -2.66002 0
M  V30 1508 H 146.935 5.15334 -1.08344 0
M  V30 1509 H 149.426 3.59397 -1.16801 0
M  V30 1510 H 149.739 7.13225 -2.97539 0
M  V30 1511 H 148.084 6.4169 -2.66943 0
M  V30 1512 H 151.275 4.42504 -1.52669 0
M  V30 1513 H 151.448 6.03861 -2.35066 0
M  V30 1514 N 144.854 0.36279 1.53368 0
M  V30 1515 C 146.084 -0.228281 2.05335 0
M  V30 1516 C 146.492 -1.43226 1.23625 0
M  V30 1517 O 145.835 -1.81717 0.269206 0
M  V30 1518 C 145.897 -0.688549 3.52845 0
M  V30 1519 C 145.561 0.398362 4.5526 0
M  V30 1520 C 146.558 1.24732 5.04716 0
M  V30 1521 C 144.243 0.557805 4.99193 0
M  V30 1522 C 146.237 2.2411 5.96702 0
M  V30 1523 C 143.924 1.55495 5.90986 0
M  V30 1524 C 144.922 2.39503 6.39631 0
M  V30 1525 O 144.61 3.37517 7.29615 0
M  V30 1526 H 144.342 -0.044395 0.674541 0
M  V30 1527 H 146.896 0.518668 1.98744 0
M  V30 1528 H 145.126 -1.48706 3.56964 0
M  V30 1529 H 146.815 -1.20231 3.87685 0
M  V30 1530 H 147.581 1.13532 4.71525 0
M  V30 1531 H 143.46 -0.0862959 4.60919 0
M  V30 1532 H 147.004 2.89718 6.34594 0
M  V30 1533 H 142.901 1.66744 6.23592 0
M  V30 1534 H 143.669 3.33213 7.47604 0
M  V30 1535 N 146.332 -1.57332 0.0918853 0
M  V30 1536 C 147.579 -1.94236 -0.572577 0
M  V30 1537 C 147.907 -0.973398 -1.6839 0
M  V30 1538 O 147.162 0.00756912 -1.95699 0
M  V30 1539 C 147.461 -3.37689 -1.17051 0
M  V30 1540 C 147.127 -4.50527 -0.183304 0
M  V30 1541 C 145.789 -4.81119 0.0882276 0
M  V30 1542 C 148.141 -5.18883 0.49095 0
M  V30 1543 C 145.469 -5.77395 1.04076 0
M  V30 1544 C 147.821 -6.1618 1.43193 0
M  V30 1545 C 146.485 -6.45179 1.71173 0
M  V30 1546 H 145.755 -0.710762 -0.209521 0
M  V30 1547 H 148.402 -1.9077 0.167036 0
M  V30 1548 H 146.707 -3.37718 -1.9863 0
M  V30 1549 H 148.404 -3.63543 -1.69227 0
M  V30 1550 H 144.994 -4.26681 -0.405124 0
M  V30 1551 H 149.178 -4.95427 0.294312 0
M  V30 1552 H 144.434 -5.98179 1.26457 0
M  V30 1553 H 148.608 -6.68243 1.96023 0
M  V30 1554 H 146.235 -7.1959 2.4514 0
M  V30 1555 N 147.81 0.181792 -1.56548 0
M  V30 1556 C 149.057 0.900097 -1.81396 0
M  V30 1557 C 149.385 1.82695 -0.667281 0
M  V30 1558 O 148.64 1.92614 0.346146 0
M  V30 1559 C 148.939 1.73728 -3.12335 0
M  V30 1560 C 148.605 0.960255 -4.40556 0
M  V30 1561 C 147.267 0.745766 -4.75386 0
M  V30 1562 C 149.619 0.414477 -5.19549 0
M  V30 1563 C 146.947 -0.0257694 -5.86694 0
M  V30 1564 C 149.299 -0.343916 -6.31664 0
M  V30 1565 C 147.963 -0.569301 -6.65068 0
M  V30 1566 H 147.233 0.329369 -0.663775 0
M  V30 1567 H 149.88 0.165647 -1.90782 0
M  V30 1568 H 148.185 2.54081 -2.98245 0
M  V30 1569 H 149.882 2.29591 -3.28769 0
M  V30 1570 H 146.472 1.13746 -4.13231 0
M  V30 1571 H 150.656 0.567554 -4.93044 0
M  V30 1572 H 145.912 -0.210233 -6.11038 0
M  V30 1573 H 150.086 -0.774133 -6.92084 0
M  V30 1574 H 147.713 -1.16903 -7.51158 0
M  V30 1575 N 149.288 1.51039 0.449983 0
M  V30 1576 C 150.536 1.62759 1.19808 0
M  V30 1577 C 150.857 0.339981 1.92013 0
M  V30 1578 O 150.127 -0.643606 1.85026 0
M  V30 1579 H 148.707 0.599811 0.445237 0
M  V30 1580 H 151.369 1.87914 0.517138 0
M  V30 1581 H 150.465 2.44911 1.93455 0
M  V30 1582 N 150.766 -0.704594 1.40972 0
M  V30 1583 C 151.991 -1.49858 1.43378 0
M  V30 1584 C 152.416 -1.88061 0.038184 0
M  V30 1585 O 151.774 -1.5402 -0.956425 0
M  V30 1586 C 151.822 -2.74333 2.34038 0
M  V30 1587 O 150.926 -3.7147 1.7912 0
M  V30 1588 H 150.267 -0.45139 0.486974 0
M  V30 1589 H 152.797 -0.866832 1.8533 0
M  V30 1590 H 152.807 -3.22741 2.49604 0
M  V30 1591 H 151.482 -2.45863 3.35446 0
M  V30 1592 H 150.059 -3.30363 1.72958 0
M  V30 1593 N 152.244 -1.26651 -0.937939 0
M  V30 1594 C 153.469 -1.15279 -1.72411 0
M  V30 1595 C 153.894 0.287866 -1.85884 0
M  V30 1596 O 153.252 1.20855 -1.35143 0
M  V30 1597 C 153.3 -1.83028 -3.10698 0
M  V30 1598 O 152.404 -1.12128 -3.96864 0
M  V30 1599 H 151.745 -0.401504 -0.528858 0
M  V30 1600 H 154.275 -1.67531 -1.1745 0
M  V30 1601 H 154.285 -1.89981 -3.6107 0
M  V30 1602 H 152.96 -2.87833 -3.00208 0
M  V30 1603 H 151.537 -1.13173 -3.55312 0
M  V30 1604 N 153.722 1.14298 -1.08507 0
M  V30 1605 C 155.133 1.66926 -0.836227 0
M  V30 1606 C 155.484 1.85576 0.63686 0
M  V30 1607 O 154.609 1.56767 1.49175 0
M  V30 1608 C 155.204 3.03219 -1.51142 0
M  V30 1609 C 153.763 3.52876 -1.30979 0
M  V30 1610 C 152.91 2.2833 -1.57356 0
M  V30 1611 H 155.861 0.983491 -1.24552 0
M  V30 1612 H 155.882 3.68726 -0.939211 0
M  V30 1613 H 155.394 2.89612 -2.58353 0
M  V30 1614 H 153.495 3.71703 -0.258429 0
M  V30 1615 H 153.608 4.33586 -2.03814 0
M  V30 1616 H 151.972 2.34454 -0.995164 0
M  V30 1617 H 152.755 2.17298 -2.65775 0
M  V30 1618 N 155.201 0.870884 1.31352 0
M  V30 1619 C 156.149 0.316445 2.30437 0
M  V30 1620 C 157.143 -0.568965 1.59559 0
M  V30 1621 O 158.349 -0.454964 1.74155 0
M  V30 1622 H 154.724 0.0836521 0.747333 0
M  V30 1623 H 156.695 1.16606 2.74673 0
M  V30 1624 C 155.444 -0.46635 3.44558 0
M  V30 1625 H 154.767 0.205687 3.99271 0
M  V30 1626 H 156.207 -0.819614 4.16003 0
M  V30 1627 C 154.666 -1.65797 2.9328 0
M  V30 1628 O 155.196 -2.75728 2.92125 0
M  V30 1629 N 153.402 -1.49041 2.4947 0
M  V30 1630 H 152.949 -0.59612 2.50608 0
M  V30 1631 H 152.907 -2.28911 2.15516 0
M  V30 1632 N 156.679 -1.44442 0.630414 0
M  V30 1633 C 157.925 -2.02894 0.143332 0
M  V30 1634 C 158.28 -1.48697 -1.22094 0
M  V30 1635 O 157.573 -0.661171 -1.79831 0
M  V30 1636 C 157.767 -3.57332 0.0697835 0
M  V30 1637 C 157.596 -4.26512 1.42539 0
M  V30 1638 C 156.366 -4.63516 2.01198 0
M  V30 1639 C 158.564 -4.57004 2.35907 0
M  V30 1640 N 156.546 -5.17661 3.30001 0
M  V30 1641 C 157.917 -5.12223 3.49324 0
M  V30 1642 C 159.972 -4.38955 2.34995 0
M  V30 1643 C 158.675 -5.51295 4.62024 0
M  V30 1644 C 160.701 -4.79075 3.46758 0
M  V30 1645 C 160.063 -5.34407 4.58899 0
M  V30 1646 H 156.162 -0.776041 0.0963523 0
M  V30 1647 H 158.746 -1.75945 0.833752 0
M  V30 1648 H 156.917 -3.83894 -0.589915 0
M  V30 1649 H 158.649 -4.02451 -0.42606 0
M  V30 1650 H 155.404 -4.47811 1.54151 0
M  V30 1651 H 155.828 -5.4921 3.95851 0
M  V30 1652 H 160.47 -3.95469 1.49545 0
M  V30 1653 H 158.188 -5.93736 5.48182 0
M  V30 1654 H 161.774 -4.66824 3.47227 0
M  V30 1655 H 160.654 -5.64878 5.4395 0
M  V30 1656 N 158.157 -0.370918 -1.53173 0
M  V30 1657 C 159.387 0.217389 -2.05453 0
M  V30 1658 C 159.795 1.42568 -1.24382 0
M  V30 1659 O 159.138 1.81571 -0.278839 0
M  V30 1660 C 159.2 0.669827 -3.53205 0
M  V30 1661 C 158.864 -0.4225 -4.55043 0
M  V30 1662 C 159.861 -1.27407 -5.04047 0
M  V30 1663 C 157.546 -0.58427 -4.9889 0
M  V30 1664 C 159.54 -2.27271 -5.95505 0
M  V30 1665 C 157.227 -1.58627 -5.90153 0
M  V30 1666 C 158.225 -2.42892 -6.38351 0
M  V30 1667 O 157.913 -3.41382 -7.27814 0
M  V30 1668 H 157.645 0.0408171 -0.674767 0
M  V30 1669 H 160.199 -0.5292 -1.98466 0
M  V30 1670 H 158.429 1.4681 -3.57748 0
M  V30 1671 H 160.118 1.18173 -3.88317 0
M  V30 1672 H 160.884 -1.16031 -4.70916 0
M  V30 1673 H 156.763 0.061851 -4.60959 0
M  V30 1674 H 160.307 -2.93079 -6.33049 0
M  V30 1675 H 156.204 -1.70048 -6.22699 0
M  V30 1676 H 156.972 -3.37173 -7.45826 0
M  V30 1677 N 159.635 1.57281 -0.100228 0
M  V30 1678 C 160.882 1.94537 0.562268 0
M  V30 1679 C 161.21 0.982315 1.67871 0
M  V30 1680 O 160.465 0.00280936 1.957 0
M  V30 1681 C 160.764 3.38305 1.15259 0
M  V30 1682 C 160.43 4.50618 0.159409 0
M  V30 1683 C 159.092 4.81066 -0.113741 0
M  V30 1684 C 161.444 5.18615 -0.518461 0
M  V30 1685 C 158.772 5.76835 -1.07137 0
M  V30 1686 C 161.124 6.15412 -1.46459 0
M  V30 1687 C 159.788 6.44262 -1.74592 0
M  V30 1688 H 159.058 0.711863 0.205748 0
M  V30 1689 H 161.705 1.90679 -0.17715 0
M  V30 1690 H 160.01 3.38766 1.96836 0
M  V30 1691 H 161.707 3.64435 1.67297 0
M  V30 1692 H 158.297 4.2689 0.382491 0
M  V30 1693 H 162.481 4.95264 -0.320581 0
M  V30 1694 H 157.737 5.975 -1.29628 0
M  V30 1695 H 161.911 6.67194 -1.99564 0
M  V30 1696 H 159.538 7.1828 -2.48953 0
M  V30 1697 N 161.113 -0.173488 1.56642 0
M  V30 1698 C 162.39 -0.917617 1.7274 0
M  V30 1699 C 162.77 -2.00484 0.661027 0
M  V30 1700 O 162.118 -2.26184 -0.32453 0
M  V30 1701 C 162.328 -1.48433 3.15862 0
M  V30 1702 C 163.676 -1.95809 3.76754 0
M  V30 1703 O 164.7 -1.58231 3.19126 0
M  V30 1704 O 163.559 -2.65024 4.77938 0
M  V30 1705 H 160.653 -0.431772 0.705338 0
M  V30 1706 H 163.199 -0.161487 1.6893 0
M  V30 1707 H 161.971 -0.701715 3.84957 0
M  V30 1708 H 161.594 -2.30471 3.23989 0
M  V30 1709 N 162.591 -1.51276 -0.441967 0
M  V30 1710 C 163.837 -1.63958 -1.19355 0
M  V30 1711 C 164.17 -0.352543 -1.90973 0
M  V30 1712 O 163.445 0.647627 -1.83401 0
M  V30 1713 C 163.728 -2.83979 -2.21422 0
M  V30 1714 C 163.581 -4.22646 -1.53918 0
M  V30 1715 C 164.9 -2.99521 -3.22451 0
M  V30 1716 H 162.019 -0.596709 -0.432559 0
M  V30 1717 H 164.661 -1.83748 -0.483398 0
M  V30 1718 H 162.811 -2.67237 -2.81987 0
M  V30 1719 H 164.483 -4.51045 -0.967256 0
M  V30 1720 H 162.726 -4.25558 -0.841615 0
M  V30 1721 H 163.397 -5.02609 -2.28229 0
M  V30 1722 H 165.873 -3.14944 -2.71937 0
M  V30 1723 H 164.749 -3.85072 -3.91166 0
M  V30 1724 H 165.01 -2.11391 -3.88287 0
M  V30 1725 N 164.069 0.697108 -1.41344 0
M  V30 1726 C 165.315 1.45796 -1.41828 0
M  V30 1727 C 165.67 1.92382 -0.0261743 0
M  V30 1728 O 164.963 1.66522 0.947688 0
M  V30 1729 C 165.157 2.68553 -2.35826 0
M  V30 1730 C 164.986 2.33975 -3.84039 0
M  V30 1731 C 163.756 2.24414 -4.52732 0
M  V30 1732 C 165.954 1.97048 -4.75054 0
M  V30 1733 N 163.936 1.82705 -5.86082 0
M  V30 1734 C 165.307 1.66086 -5.9734 0
M  V30 1735 C 167.362 1.83845 -4.62715 0
M  V30 1736 C 166.065 1.23246 -7.08663 0
M  V30 1737 C 168.091 1.4241 -5.73998 0
M  V30 1738 C 167.453 1.12357 -6.95381 0
M  V30 1739 H 163.552 0.530859 -0.574206 0
M  V30 1740 H 166.136 0.806674 -1.77203 0
M  V30 1741 H 164.307 3.31404 -2.02549 0
M  V30 1742 H 166.039 3.35015 -2.2704 0
M  V30 1743 H 162.794 2.4276 -4.0665 0
M  V30 1744 H 163.218 1.64337 -6.56751 0
M  V30 1745 H 167.86 2.05734 -3.69369 0
M  V30 1746 H 165.578 1.00102 -8.01876 0
M  V30 1747 H 169.164 1.32746 -5.66454 0
M  V30 1748 H 168.044 0.807795 -7.80028 0
M  V30 1749 N 165.547 1.27147 0.931209 0
M  V30 1750 C 166.795 1.13055 1.6752 0
M  V30 1751 C 167.116 -0.324791 1.92276 0
M  V30 1752 O 166.386 -1.22775 1.52654 0
M  V30 1753 H 164.966 0.415391 0.620854 0
M  V30 1754 H 167.628 1.59623 1.11833 0
M  V30 1755 H 166.724 1.65694 2.64485 0
M  V30 1756 N 167.025 -1.13721 1.09112 0
M  V30 1757 C 167.957 -2.1871 0.685467 0
M  V30 1758 C 168.97 -1.60527 -0.271068 0
M  V30 1759 O 170.159 -1.78407 -0.0576148 0
M  V30 1760 C 167.259 -3.38898 -0.0111255 0
M  V30 1761 C 166.432 -4.26597 0.966131 0
M  V30 1762 C 165.491 -5.25324 0.303539 0
M  V30 1763 O 164.517 -5.61213 0.950177 0
M  V30 1764 N 165.719 -5.72779 -0.943651 0
M  V30 1765 H 168.484 -2.54126 1.58871 0
M  V30 1766 H 166.045 -1.29012 0.978143 0
M  V30 1767 H 168.037 -4.02014 -0.465517 0
M  V30 1768 H 166.607 -3.01747 -0.816565 0
M  V30 1769 H 165.827 -3.60306 1.59917 0
M  V30 1770 H 167.115 -4.82048 1.6281 0
M  V30 1771 H 166.513 -5.45762 -1.48862 0
M  V30 1772 H 165.07 -6.37847 -1.34142 0
M  V30 1773 N 168.503 -0.877838 -1.30888 0
M  V30 1774 C 169.751 -0.491723 -1.96027 0
M  V30 1775 C 170.072 0.960827 -1.69685 0
M  V30 1776 O 169.342 1.67462 -1.01654 0
M  V30 1777 H 167.922 -0.17885 -0.725273 0
M  V30 1778 H 170.584 -1.11935 -1.59551 0
M  V30 1779 H 169.68 -0.656016 -3.05128 0
M  V30 1780 N 169.982 1.44106 -0.638065 0
M  V30 1781 C 171.21 2.06336 -0.152615 0
M  V30 1782 C 171.625 1.47731 1.17563 0
M  V30 1783 O 170.982 0.602806 1.72257 0
M  V30 1784 C 171.033 3.61479 -0.0391491 0
M  V30 1785 O 170.754 4.17903 -1.31487 0
M  V30 1786 C 172.255 4.40757 0.474176 0
M  V30 1787 H 169.475 0.665862 -0.0828776 0
M  V30 1788 H 172.019 1.84862 -0.87443 0
M  V30 1789 H 170.174 3.82191 0.633142 0
M  V30 1790 H 170.588 5.11416 -1.16421 0
M  V30 1791 H 172.062 5.49707 0.502562 0
M  V30 1792 H 172.539 4.12697 1.50258 0
M  V30 1793 H 173.145 4.24979 -0.165102 0
M  V30 1794 N 171.46 0.379036 1.52974 0
M  V30 1795 C 172.39 -0.452706 2.29069 0
M  V30 1796 C 173.371 -1.07237 1.32039 0
M  V30 1797 O 174.556 -1.08708 1.60923 0
M  V30 1798 C 171.686 -1.5856 3.08992 0
M  V30 1799 C 170.64 -1.0925 4.13822 0
M  V30 1800 C 169.966 -2.31668 4.81907 0
M  V30 1801 C 171.266 -0.167702 5.22031 0
M  V30 1802 H 172.96 0.182181 2.98845 0
M  V30 1803 H 170.506 0.0890592 1.43724 0
M  V30 1804 H 172.459 -2.1742 3.6098 0
M  V30 1805 H 171.183 -2.24792 2.36931 0
M  V30 1806 H 169.842 -0.526494 3.628 0
M  V30 1807 H 169.49 -2.96386 4.06404 0
M  V30 1808 H 169.19 -1.9934 5.52754 0
M  V30 1809 H 170.714 -2.91189 5.36695 0
M  V30 1810 H 172.128 -0.664186 5.6944 0
M  V30 1811 H 170.525 0.0653265 6.00064 0
M  V30 1812 H 171.595 0.786347 4.78482 0
M  V30 1813 N 172.938 -1.57226 0.108567 0
M  V30 1814 C 174.184 -1.95121 -0.552761 0
M  V30 1815 C 174.517 -0.991345 -1.66991 0
M  V30 1816 O 173.792 -0.0267211 -1.94482 0
M  V30 1817 C 174.075 -3.43039 -1.09528 0
M  V30 1818 C 173.928 -4.49797 0.0177332 0
M  V30 1819 C 175.247 -3.92567 -1.98945 0
M  V30 1820 H 172.366 -0.709496 -0.199461 0
M  V30 1821 H 175.008 -1.89126 0.182011 0
M  V30 1822 H 173.158 -3.48279 -1.72146 0
M  V30 1823 H 174.83 -4.56661 0.652584 0
M  V30 1824 H 173.073 -4.284 0.682309 0
M  V30 1825 H 173.744 -5.50528 -0.402919 0
M  V30 1826 H 176.22 -3.89565 -1.46214 0
M  V30 1827 H 175.096 -4.96605 -2.33827 0
M  V30 1828 H 175.357 -3.32648 -2.91201 0
M  V30 1829 N 174.416 0.165178 -1.56732 0
M  V30 1830 C 175.644 0.896218 -1.86482 0
M  V30 1831 C 176.059 1.75555 -0.694675 0
M  V30 1832 O 175.416 1.79379 0.33607 0
M  V30 1833 C 175.467 1.76792 -3.1532 0
M  V30 1834 O 175.188 0.943239 -4.27825 0
M  V30 1835 C 176.689 2.6081 -3.58459 0
M  V30 1836 H 173.909 0.260064 -0.618553 0
M  V30 1837 H 176.453 0.163428 -2.03846 0
M  V30 1838 H 174.608 2.45398 -2.99764 0
M  V30 1839 H 175.022 1.53998 -5.01383 0
M  V30 1840 H 176.496 3.17579 -4.51495 0
M  V30 1841 H 176.973 3.35977 -2.82872 0
M  V30 1842 H 177.579 1.97526 -3.76648 0
M  V30 1843 N 175.894 1.51508 0.433938 0
M  V30 1844 C 177.14 1.64588 1.18484 0
M  V30 1845 C 177.473 0.362666 1.90784 0
M  V30 1846 O 176.748 -0.637892 1.83742 0
M  V30 1847 C 177.031 2.85149 2.19913 0
M  V30 1848 C 176.884 4.23456 1.51674 0
M  V30 1849 C 178.203 3.01227 3.20858 0
M  V30 1850 H 175.322 0.598994 0.429389 0
M  V30 1851 H 177.964 1.84002 0.473647 0
M  V30 1852 H 176.114 2.68729 2.80566 0
M  V30 1853 H 177.786 4.51552 0.943322 0
M  V30 1854 H 176.029 4.25998 0.819035 0
M  V30 1855 H 176.7 5.03812 2.2556 0
M  V30 1856 H 179.176 3.16382 2.70263 0
M  V30 1857 H 178.052 3.87141 3.89118 0
M  V30 1858 H 178.313 2.13447 3.8716 0
M  V30 1859 N 177.372 -0.689602 1.41712 0
M  V30 1860 C 178.597 -1.48329 1.44959 0
M  V30 1861 C 179.022 -1.8801 0.0581283 0
M  V30 1862 O 178.38 -1.55026 -0.940035 0
M  V30 1863 C 178.428 -2.71835 2.36935 0
M  V30 1864 O 177.532 -3.69549 1.8305 0
M  V30 1865 H 176.873 -0.446199 0.491734 0
M  V30 1866 H 179.403 -0.847127 1.86239 0
M  V30 1867 H 179.413 -3.20076 2.53013 0
M  V30 1868 H 178.088 -2.42291 3.38035 0
M  V30 1869 H 176.665 -3.2851 1.76452 0
M  V30 1870 N 178.85 -1.27639 -0.924453 0
M  V30 1871 C 180.075 -1.17101 -1.71179 0
M  V30 1872 C 180.5 0.268134 -1.86179 0
M  V30 1873 O 179.858 1.19415 -1.36418 0
M  V30 1874 C 179.906 -1.86313 -3.08739 0
M  V30 1875 O 179.01 -1.16331 -3.95652 0
M  V30 1876 H 178.351 -0.407091 -0.524569 0
M  V30 1877 H 180.881 -1.68767 -1.15666 0
M  V30 1878 H 180.891 -1.938 -3.59034 0
M  V30 1879 H 179.566 -2.91001 -2.97138 0
M  V30 1880 H 178.143 -1.16935 -3.54091 0
M  V30 1881 N 180.328 1.1314 -1.09713 0
M  V30 1882 C 181.291 2.16831 -0.742751 0
M  V30 1883 C 182.291 1.59159 0.229129 0
M  V30 1884 O 183.481 1.74199 0.00693237 0
M  V30 1885 C 180.613 3.40756 -0.0989168 0
M  V30 1886 H 181.806 2.49695 -1.66109 0
M  V30 1887 H 179.359 1.2802 -0.896699 0
M  V30 1888 H 180.094 3.13485 0.830514 0
M  V30 1889 H 179.879 3.83888 -0.798265 0
M  V30 1890 H 181.369 4.17386 0.133524 0
M  V30 1891 N 181.806 0.884767 1.30421 0
M  V30 1892 C 183.031 0.517288 2.00845 0
M  V30 1893 C 183.456 -0.886779 1.65885 0
M  V30 1894 O 182.814 -1.58768 0.875354 0
M  V30 1895 C 182.862 0.698994 3.5376 0
M  V30 1896 O 181.966 -0.255208 4.1161 0
M  V30 1897 H 181.307 0.203872 0.631927 0
M  V30 1898 H 183.837 1.19225 1.66272 0
M  V30 1899 H 183.847 0.597912 4.03595 0
M  V30 1900 H 182.522 1.72271 3.78544 0
M  V30 1901 H 181.099 -0.10784 3.72744 0
M  V30 1902 N 183.284 -1.43765 0.645699 0
M  V30 1903 C 184.512 -2.06253 0.163556 0
M  V30 1904 C 184.927 -1.48352 -1.16778 0
M  V30 1905 O 184.284 -0.611932 -1.71935 0
M  V30 1906 C 184.335 -3.61453 0.0583186 0
M  V30 1907 O 184.056 -4.172 1.33702 0
M  V30 1908 C 185.557 -4.41002 -0.450795 0
M  V30 1909 H 182.777 -0.665413 0.0864077 0
M  V30 1910 H 185.321 -1.84396 0.884222 0
M  V30 1911 H 183.476 -3.82522 -0.612865 0
M  V30 1912 H 183.89 -5.10791 1.19131 0
M  V30 1913 H 185.364 -5.49966 -0.473403 0
M  V30 1914 H 185.841 -4.13488 -1.48068 0
M  V30 1915 H 186.447 -4.24886 0.187637 0
M  V30 1916 N 184.763 -0.387143 -1.52771 0
M  V30 1917 C 185.71 0.449048 -2.26389 0
M  V30 1918 C 186.68 1.05961 -1.27912 0
M  V30 1919 O 187.865 1.08804 -1.56737 0
M  V30 1920 C 185.005 1.57155 -3.0724 0
M  V30 1921 C 184.118 0.984066 -4.20643 0
M  V30 1922 C 183.253 2.07745 -4.88892 0
M  V30 1923 C 182.292 1.46574 -5.94292 0
M  V30 1924 N 181.429 2.49834 -6.56146 0
M  V30 1925 H 186.269 -0.185205 -2.97424 0
M  V30 1926 H 183.806 -0.103164 -1.46738 0
M  V30 1927 H 185.764 2.23309 -3.52405 0
M  V30 1928 H 184.394 2.17615 -2.38419 0
M  V30 1929 H 183.446 0.212193 -3.79808 0
M  V30 1930 H 184.758 0.497029 -4.96318 0
M  V30 1931 H 183.912 2.81673 -5.3735 0
M  V30 1932 H 182.651 2.59807 -4.12737 0
M  V30 1933 H 181.656 0.711696 -5.45174 0
M  V30 1934 H 182.881 0.953088 -6.72379 0
M  V30 1935 H 180.827 3.0107 -5.82832 0
M  V30 1936 H 180.744 2.05879 -7.27427 0
M  V30 1937 H 182.012 3.23399 -7.09249 0
M  V30 1938 N 186.241 1.57166 -0.116904 0
M  V30 1939 C 187.489 1.94737 0.540533 0
M  V30 1940 C 187.81 1.00096 1.67349 0
M  V30 1941 O 187.08 0.0568854 1.95817 0
M  V30 1942 H 185.66 0.718981 0.202669 0
M  V30 1943 H 188.322 1.94017 -0.185353 0
M  V30 1944 H 187.418 2.97719 0.936483 0
M  V30 1945 N 187.719 -0.156864 1.56817 0
M  V30 1946 C 189.13 -0.717916 1.72345 0
M  V30 1947 C 189.481 -1.82124 0.729747 0
M  V30 1948 O 188.606 -2.16141 -0.105781 0
M  V30 1949 C 189.201 -1.30904 3.12489 0
M  V30 1950 C 187.76 -1.81676 3.29653 0
M  V30 1951 C 186.907 -0.701349 2.68284 0
M  V30 1952 H 189.858 0.0686989 1.58551 0
M  V30 1953 H 189.879 -2.17882 3.11942 0
M  V30 1954 H 189.391 -0.505796 3.8479 0
M  V30 1955 H 187.492 -2.64598 2.62333 0
M  V30 1956 H 187.605 -1.95226 4.3752 0
M  V30 1957 H 185.969 -1.12548 2.28484 0
M  V30 1958 H 186.752 0.0902846 3.43181 0
M  V30 1959 N 189.197 -1.51736 -0.425897 0
M  V30 1960 C 190.422 -1.69082 -1.20108 0
M  V30 1961 C 190.847 -0.392398 -1.83962 0
M  V30 1962 O 190.205 0.64858 -1.69302 0
M  V30 1963 C 190.253 -2.81604 -2.25237 0
M  V30 1964 O 189.357 -2.46004 -3.30992 0
M  V30 1965 H 188.698 -0.563408 -0.35138 0
M  V30 1966 H 191.228 -1.98358 -0.501512 0
M  V30 1967 H 191.238 -3.06025 -2.69838 0
M  V30 1968 H 189.913 -3.75817 -1.78142 0
M  V30 1969 H 188.49 -2.32195 -2.91787 0
M  V30 1970 N 190.675 0.682077 -1.42076 0
M  V30 1971 C 191.921 1.44428 -1.42367 0
M  V30 1972 C 192.254 1.94164 -0.0373056 0
M  V30 1973 O 191.529 1.70429 0.937239 0
M  V30 1974 C 191.812 2.64654 -2.44194 0
M  V30 1975 C 191.665 2.20596 -3.91991 0
M  V30 1976 C 192.984 3.66865 -2.431 0
M  V30 1977 H 190.103 0.523834 -0.518428 0
M  V30 1978 H 192.745 0.77576 -1.73442 0
M  V30 1979 H 190.895 3.2169 -2.17826 0
M  V30 1980 H 192.567 1.68783 -4.29313 0
M  V30 1981 H 190.81 1.52242 -4.06208 0
M  V30 1982 H 191.481 3.06921 -4.58807 0
M  V30 1983 H 193.957 3.19531 -2.66532 0
M  V30 1984 H 192.833 4.48577 -3.16339 0
M  V30 1985 H 193.094 4.17493 -1.45437 0
M  V30 1986 N 192.153 1.28127 0.917671 0
M  V30 1987 C 193.4 1.15052 1.66641 0
M  V30 1988 C 193.728 -0.301677 1.92146 0
M  V30 1989 O 192.983 -1.23622 1.51711 0
M  V30 1990 C 193.282 1.89018 3.03327 0
M  V30 1991 C 192.948 3.38832 2.97496 0
M  V30 1992 C 191.61 3.79693 2.95613 0
M  V30 1993 C 193.962 4.34378 2.88036 0
M  V30 1994 C 191.29 5.14447 2.82066 0
M  V30 1995 C 193.642 5.69201 2.7603 0
M  V30 1996 C 192.306 6.09343 2.72502 0
M  V30 1997 H 191.576 0.421006 0.609783 0
M  V30 1998 H 194.223 1.58855 1.06945 0
M  V30 1999 H 192.528 1.37752 3.66785 0
M  V30 2000 H 194.225 1.76321 3.60156 0
M  V30 2001 H 190.815 3.06342 2.99754 0
M  V30 2002 H 194.999 4.03775 2.88581 0
M  V30 2003 H 190.255 5.44681 2.77728 0
M  V30 2004 H 194.429 6.42901 2.67678 0
M  V30 2005 H 192.056 7.13712 2.61762 0
M  V30 2006 N 193.631 -1.12557 1.10312 0
M  V30 2007 C 195.042 -1.65574 0.862678 0
M  V30 2008 C 195.393 -1.86566 -0.607256 0
M  V30 2009 O 194.518 -1.59121 -1.46662 0
M  V30 2010 C 195.113 -3.00776 1.55947 0
M  V30 2011 C 193.672 -3.50748 1.36576 0
M  V30 2012 C 192.819 -2.25797 1.60968 0
M  V30 2013 H 195.77 -0.963552 1.26101 0
M  V30 2014 H 195.791 -3.67185 0.997753 0
M  V30 2015 H 195.303 -2.85465 2.62928 0
M  V30 2016 H 193.404 -3.71245 0.317531 0
M  V30 2017 H 193.517 -4.30289 2.10686 0
M  V30 2018 H 191.881 -2.32841 1.03234 0
M  V30 2019 H 192.664 -2.13043 2.69198 0
M  V30 2020 N 195.109 -0.891671 -1.2995 0
M  V30 2021 C 196.039 -0.379797 -2.30391 0
M  V30 2022 C 197.02 0.540919 -1.6127 0
M  V30 2023 O 198.205 0.453352 -1.88834 0
M  V30 2024 C 195.335 0.400654 -3.44981 0
M  V30 2025 C 194.289 -0.428905 -4.25846 0
M  V30 2026 C 193.615 0.478557 -5.32554 0
M  V30 2027 C 194.915 -1.67458 -4.94727 0
M  V30 2028 H 196.609 -1.21914 -2.73454 0
M  V30 2029 H 194.155 -0.587675 -1.31462 0
M  V30 2030 H 196.108 0.769434 -4.14316 0
M  V30 2031 H 194.832 1.27371 -3.0074 0
M  V30 2032 H 193.491 -0.779911 -3.58208 0
M  V30 2033 H 193.139 1.34951 -4.84559 0
M  V30 2034 H 192.839 -0.0727433 -5.87555 0
M  V30 2035 H 194.363 0.843705 -6.04743 0
M  V30 2036 H 195.777 -1.376 -5.56542 0
M  V30 2037 H 194.174 -2.16659 -5.59624 0
M  V30 2038 H 195.244 -2.41518 -4.20473 0
M  V30 2039 N 196.587 1.43421 -0.653314 0
M  V30 2040 C 197.55 2.29182 0.0287951 0
M  V30 2041 C 198.55 1.42213 0.750465 0
M  V30 2042 O 199.74 1.63843 0.591701 0
M  V30 2043 C 196.872 3.24278 1.05151 0
M  V30 2044 H 198.065 2.90985 -0.725786 0
M  V30 2045 H 195.618 1.50702 -0.414545 0
M  V30 2046 H 196.353 2.6737 1.83532 0
M  V30 2047 H 196.138 3.88396 0.537687 0
M  V30 2048 H 197.628 3.88647 1.52786 0
M  V30 2049 N 198.065 0.39524 1.52563 0
M  V30 2050 C 199.476 -0.0774719 1.86539 0
M  V30 2051 C 199.827 -1.45641 1.31466 0
M  V30 2052 O 198.952 -2.06459 0.648367 0
M  V30 2053 C 199.547 -0.147356 3.38479 0
M  V30 2054 C 198.106 -0.564373 3.72145 0
M  V30 2055 C 197.253 0.269919 2.75983 0
M  V30 2056 H 200.204 0.612876 1.46388 0
M  V30 2057 H 200.225 -0.965343 3.68051 0
M  V30 2058 H 199.737 0.856387 3.78534 0
M  V30 2059 H 197.838 -1.57527 3.37663 0
M  V30 2060 H 197.951 -0.318402 4.78041 0
M  V30 2061 H 196.315 -0.265696 2.5331 0
M  V30 2062 H 197.098 1.27175 3.18875 0
M  V30 2063 N 199.544 -1.57102 0.125237 0
M  V30 2064 C 200.784 -1.97294 -0.534259 0
M  V30 2065 C 201.148 -1.0074 -1.63449 0
M  V30 2066 O 202.349 -1.29893 -2.35332 0
M  V30 2067 C 200.62 -3.41705 -1.04748 0
M  V30 2068 S 202.179 -4.03913 -1.71463 0
M  V30 2069 H 198.997 -0.689517 -0.173458 0
M  V30 2070 H 201.599 -1.94349 0.211797 0
M  V30 2071 H 200.303 -4.09723 -0.235649 0
M  V30 2072 H 199.834 -3.48315 -1.82867 0
M  V30 2073 H 201.849 -3.95182 -3.00077 0
M  V30 2074 N 201.022 0.148545 -1.56898 0
M  V30 2075 C 202.247 0.880385 -1.87787 0
M  V30 2076 C 202.672 1.74018 -0.714093 0
M  V30 2077 O 202.03 1.78153 0.336343 0
M  V30 2078 C 202.078 1.71422 -3.17249 0
M  V30 2079 O 201.182 2.8183 -3.01074 0
M  V30 2080 H 200.523 0.245301 -0.617028 0
M  V30 2081 H 203.053 0.139826 -2.04122 0
M  V30 2082 H 203.063 2.10954 -3.49231 0
M  V30 2083 H 201.738 1.08284 -4.01556 0
M  V30 2084 H 200.315 2.45715 -2.80497 0
M  V30 2085 N 202.5 1.5196 0.417844 0
M  V30 2086 C 203.916 1.40569 0.755816 0
M  V30 2087 C 204.116 0.503316 1.95113 0
M  V30 2088 O 203.172 -0.0341925 2.52477 0
M  V30 2089 C 204.485 2.82947 1.01791 0
M  V30 2090 C 206.033 2.92231 1.12116 0
M  V30 2091 C 206.508 4.35559 1.41608 0
M  V30 2092 N 207.999 4.38753 1.48491 0
M  V30 2093 C 208.734 5.46705 1.7292 0
M  V30 2094 N 208.23 6.64788 1.95011 0
M  V30 2095 N 210.023 5.34209 1.74863 0
M  V30 2096 H 202.174 2.09168 -0.369098 0
M  V30 2097 H 204.437 0.942409 -0.102809 0
M  V30 2098 H 204.143 3.5106 0.212081 0
M  V30 2099 H 204.017 3.23462 1.94042 0
M  V30 2100 H 206.404 2.24304 1.9176 0
M  V30 2101 H 206.485 2.55185 0.177225 0
M  V30 2102 H 206.129 5.04042 0.624848 0
M  V30 2103 H 206.059 4.70133 2.37239 0
M  V30 2104 H 208.55 3.5363 1.33244 0
M  V30 2105 H 208.863 7.42845 2.13076 0
M  V30 2106 H 207.208 6.67869 1.92293 0
M  V30 2107 H 210.399 4.40937 1.57137 0
M  V30 2108 H 210.572 6.18415 1.93563 0
M  V30 2109 N 203.978 -0.674533 1.42435 0
M  V30 2110 C 205.203 -1.46784 1.46524 0
M  V30 2111 C 205.628 -1.87938 0.078066 0
M  V30 2112 O 204.986 -1.56014 -0.92354 0
M  V30 2113 C 205.034 -2.69307 2.39805 0
M  V30 2114 O 204.138 -3.67587 1.86959 0
M  V30 2115 H 203.479 -0.440959 0.496439 0
M  V30 2116 H 206.009 -0.827326 1.87127 0
M  V30 2117 H 206.019 -3.17374 2.56393 0
M  V30 2118 H 204.694 -2.38692 3.40586 0
M  V30 2119 H 203.271 -3.2662 1.79927 0
M  V30 2120 N 205.456 -1.28612 -0.910864 0
M  V30 2121 C 206.684 -1.18792 -1.69399 0
M  V30 2122 C 207.099 0.253039 -1.87097 0
M  V30 2123 O 206.456 1.17071 -1.40003 0
M  V30 2124 C 206.507 -1.88511 -3.08457 0
M  V30 2125 O 206.228 -3.26979 -2.91576 0
M  V30 2126 C 207.729 -1.85029 -4.02839 0
M  V30 2127 H 204.949 -0.412233 -0.529438 0
M  V30 2128 H 207.493 -1.69788 -1.13984 0
M  V30 2129 H 205.648 -1.41379 -3.60681 0
M  V30 2130 H 206.062 -3.61936 -3.79608 0
M  V30 2131 H 207.536 -2.38395 -4.97867 0
M  V30 2132 H 208.013 -0.823303 -4.31414 0
M  V30 2133 H 208.619 -2.31853 -3.56545 0
M  V30 2134 N 206.934 1.1197 -1.10907 0
M  V30 2135 C 208.159 1.87942 -0.877064 0
M  V30 2136 C 208.584 1.79341 0.567314 0
M  V30 2137 O 207.942 1.15184 1.40009 0
M  V30 2138 C 207.99 3.34926 -1.33629 0
M  V30 2139 O 207.094 4.09303 -0.504447 0
M  V30 2140 H 206.435 0.583785 -0.316371 0
M  V30 2141 H 208.965 1.4157 -1.47712 0
M  V30 2142 H 208.975 3.8577 -1.32837 0
M  V30 2143 H 207.65 3.40504 -2.3881 0
M  V30 2144 H 206.227 3.68393 -0.577993 0
M  V30 2145 N 208.412 0.89855 1.29475 0
M  V30 2146 C 209.322 0.379974 2.31502 0
M  V30 2147 C 210.338 -0.524695 1.659 0
M  V30 2148 O 211.514 -0.414551 1.97087 0
M  V30 2149 C 208.579 -0.385138 3.44554 0
M  V30 2150 C 207.64 0.550914 4.2575 0
M  V30 2151 C 206.873 -0.177778 5.33404 0
M  V30 2152 O 207.096 -1.40189 5.52904 0
M  V30 2153 O 206.03 0.479106 5.9999 0
M  V30 2154 H 209.856 1.22639 2.77837 0
M  V30 2155 H 207.441 0.662834 1.33891 0
M  V30 2156 H 209.323 -0.817841 4.13388 0
M  V30 2157 H 207.998 -1.20763 3.0033 0
M  V30 2158 H 206.905 1.03271 3.59564 0
M  V30 2159 H 208.238 1.33979 4.73614 0
M  V30 2160 N 209.89 -1.43072 0.660911 0
M  V30 2161 C 211.115 -2.06584 0.183805 0
M  V30 2162 C 211.54 -1.49257 -1.14472 0
M  V30 2163 O 210.898 -0.605528 -1.70889 0
M  V30 2164 C 210.946 -3.60418 0.114434 0
M  V30 2165 O 210.05 -4.01981 -0.921137 0
M  V30 2166 H 209.391 -0.656669 0.0983994 0
M  V30 2167 H 211.921 -1.83447 0.906006 0
M  V30 2168 H 211.931 -4.07946 -0.0663394 0
M  V30 2169 H 210.606 -4.01519 1.08422 0
M  V30 2170 H 209.183 -3.66029 -0.71253 0
M  V30 2171 N 211.368 -0.403325 -1.52352 0
M  V30 2172 C 212.596 0.174012 -2.06167 0
M  V30 2173 C 213.011 1.39347 -1.27388 0
M  V30 2174 O 212.368 1.79597 -0.324201 0
M  V30 2175 C 212.419 0.530223 -3.5759 0
M  V30 2176 O 212.14 -0.640806 -4.33388 0
M  V30 2177 C 213.641 1.16192 -4.27802 0
M  V30 2178 H 210.861 0.0229464 -0.670608 0
M  V30 2179 H 213.405 -0.572604 -1.9632 0
M  V30 2180 H 211.56 1.22673 -3.67464 0
M  V30 2181 H 211.974 -0.344851 -5.23365 0
M  V30 2182 H 213.448 1.36141 -5.34948 0
M  V30 2183 H 213.925 2.13335 -3.83907 0
M  V30 2184 H 214.531 0.505775 -4.22282 0
M  V30 2185 N 212.846 1.57033 -0.133567 0
M  V30 2186 C 213.809 2.14897 0.796995 0
M  V30 2187 C 214.809 1.0874 1.18458 0
M  V30 2188 O 215.999 1.34446 1.1077 0
M  V30 2189 C 213.131 2.70112 2.07973 0
M  V30 2190 H 214.324 2.98457 0.293873 0
M  V30 2191 H 211.877 1.55871 0.115787 0
M  V30 2192 H 212.612 1.9018 2.62682 0
M  V30 2193 H 212.397 3.47764 1.81115 0
M  V30 2194 H 213.887 3.14738 2.74462 0
M  V30 2195 N 214.325 -0.140222 1.56975 0
M  V30 2196 C 215.288 -1.15689 1.97861 0
M  V30 2197 C 216.288 -1.3549 0.865974 0
M  V30 2198 O 217.478 -1.32367 1.13246 0
M  V30 2199 C 214.61 -2.51582 2.30042 0
M  V30 2200 H 215.803 -0.805971 2.88867 0
M  V30 2201 H 213.356 -0.383801 1.51515 0
M  V30 2202 H 214.091 -2.91632 1.41849 0
M  V30 2203 H 213.876 -2.38569 3.11171 0
M  V30 2204 H 215.366 -3.24792 2.62488 0
M  V30 2205 N 215.803 -1.52179 -0.40978 0
M  V30 2206 C 216.733 -1.78435 -1.5061 0
M  V30 2207 C 217.714 -0.635295 -1.57791 0
M  V30 2208 O 218.899 -0.880823 -1.73076 0
M  V30 2209 C 216.029 -1.93444 -2.88439 0
M  V30 2210 C 214.983 -3.09038 -2.96108 0
M  V30 2211 C 214.309 -3.09268 -4.36185 0
M  V30 2212 C 215.609 -4.48508 -2.67652 0
M  V30 2213 H 217.303 -2.70237 -1.28889 0
M  V30 2214 H 214.849 -1.30036 -0.618605 0
M  V30 2215 H 216.802 -2.10394 -3.65119 0
M  V30 2216 H 215.526 -0.983129 -3.11452 0
M  V30 2217 H 214.185 -2.91837 -2.21872 0
M  V30 2218 H 213.833 -2.11861 -4.56206 0
M  V30 2219 H 213.533 -3.86907 -4.42241 0
M  V30 2220 H 215.057 -3.28348 -5.14801 0
M  V30 2221 H 216.471 -4.65918 -3.34056 0
M  V30 2222 H 214.868 -5.28059 -2.85085 0
M  V30 2223 H 215.938 -4.56649 -1.63095 0
M  V30 2224 N 217.281 0.66697 -1.42791 0
M  V30 2225 C 218.529 1.42417 -1.43394 0
M  V30 2226 C 218.85 1.94925 -0.0542373 0
M  V30 2227 O 218.12 1.73564 0.908415 0
M  V30 2228 H 216.7 0.528515 -0.527902 0
M  V30 2229 H 219.362 0.787562 -1.78279 0
M  V30 2230 H 218.458 2.27333 -2.13837 0
M  V30 2231 N 218.759 1.29093 0.90403 0
M  V30 2232 C 219.999 1.18076 1.66845 0
M  V30 2233 C 220.363 -0.26436 1.90171 0
M  V30 2234 O 221.564 -0.497423 2.64157 0
M  V30 2235 C 219.835 1.96722 2.98388 0
M  V30 2236 S 221.394 2.0219 3.89441 0
M  V30 2237 H 218.212 0.421104 0.572881 0
M  V30 2238 H 220.814 1.63322 1.07453 0
M  V30 2239 H 219.518 3.00866 2.7912 0
M  V30 2240 H 219.049 1.52064 3.62823 0
M  V30 2241 H 221.064 1.13545 4.83034 0
M  V30 2242 N 220.237 -1.11381 1.11499 0
M  V30 2243 C 221.167 -2.19509 0.796125 0
M  V30 2244 C 222.148 -1.68458 -0.235796 0
M  V30 2245 O 223.333 -1.93947 -0.0991344 0
M  V30 2246 C 220.463 -3.46475 0.239205 0
M  V30 2247 C 219.417 -4.10744 1.20307 0
M  V30 2248 C 218.743 -5.32293 0.50683 0
M  V30 2249 C 220.043 -4.55597 2.55399 0
M  V30 2250 H 221.737 -2.46439 1.70024 0
M  V30 2251 H 219.283 -1.18446 0.818935 0
M  V30 2252 H 221.236 -4.214 0.00392006 0
M  V30 2253 H 219.96 -3.19006 -0.700206 0
M  V30 2254 H 218.619 -3.37813 1.42399 0
M  V30 2255 H 218.267 -5.01095 -0.437408 0
M  V30 2256 H 217.967 -5.76243 1.1497 0
M  V30 2257 H 219.491 -6.09956 0.280351 0
M  V30 2258 H 220.905 -5.21841 2.37391 0
M  V30 2259 H 219.302 -5.10363 3.15673 0
M  V30 2260 H 220.372 -3.69013 3.14575 0
M  V30 2261 N 221.715 -0.905404 -1.28997 0
M  V30 2262 C 222.961 -0.535039 -1.95615 0
M  V30 2263 C 223.294 0.917404 -1.71165 0
M  V30 2264 O 222.569 1.65123 -1.02785 0
M  V30 2265 C 222.852 -0.834918 -3.50287 0
M  V30 2266 C 222.705 -2.33948 -3.84172 0
M  V30 2267 C 224.024 -0.325318 -4.38896 0
M  V30 2268 H 221.143 -0.195861 -0.710498 0
M  V30 2269 H 223.785 -1.13313 -1.52513 0
M  V30 2270 H 221.935 -0.325904 -3.87131 0
M  V30 2271 H 223.607 -2.91847 -3.57243 0
M  V30 2272 H 221.85 -2.79789 -3.31513 0
M  V30 2273 H 222.521 -2.49987 -4.92149 0
M  V30 2274 H 224.997 -0.761256 -4.09077 0
M  V30 2275 H 223.873 -0.564295 -5.45992 0
M  V30 2276 H 224.134 0.774144 -4.35269 0
M  V30 2277 N 223.193 1.4272 -0.668489 0
M  V30 2278 C 224.14 2.30796 0.0137489 0
M  V30 2279 C 225.11 1.4561 0.799177 0
M  V30 2280 O 226.295 1.74453 0.772702 0
M  V30 2281 C 223.435 3.31377 0.963507 0
M  V30 2282 C 222.548 4.31655 0.172569 0
M  V30 2283 C 221.683 5.19312 1.1175 0
M  V30 2284 C 220.722 6.11274 0.317886 0
M  V30 2285 N 219.859 6.91504 1.2152 0
M  V30 2286 H 224.699 2.88585 -0.743161 0
M  V30 2287 H 222.236 1.42154 -0.378226 0
M  V30 2288 H 224.194 3.88214 1.52792 0
M  V30 2289 H 222.824 2.75202 1.68712 0
M  V30 2290 H 221.876 3.76988 -0.508374 0
M  V30 2291 H 223.188 4.96779 -0.448527 0
M  V30 2292 H 222.342 5.80851 1.75206 0
M  V30 2293 H 221.081 4.5435 1.77249 0
M  V30 2294 H 220.086 5.48809 -0.329918 0
M  V30 2295 H 221.311 6.78283 -0.332917 0
M  V30 2296 H 219.257 6.29176 1.85671 0
M  V30 2297 H 219.174 7.53209 0.649036 0
M  V30 2298 H 220.442 7.57535 1.83742 0
M  V30 2299 N 224.671 0.411399 1.52136 0
M  V30 2300 C 225.948 -0.222308 1.94333 0
M  V30 2301 C 226.328 -1.6242 1.34844 0
M  V30 2302 O 225.676 -2.22384 0.525145 0
M  V30 2303 C 225.886 -0.226345 3.48265 0
M  V30 2304 C 227.234 -0.444592 4.22266 0
M  V30 2305 O 228.258 -0.305602 3.54887 0
M  V30 2306 O 227.117 -0.718749 5.41753 0
M  V30 2307 H 224.211 -0.143907 0.814383 0
M  V30 2308 H 226.757 0.467506 1.63133 0
M  V30 2309 H 225.529 0.75475 3.83952 0
M  V30 2310 H 225.152 -0.960163 3.85832 0
M  V30 2311 N 226.149 -1.5696 0.141893 0
M  V30 2312 C 227.379 -2.00031 -0.516828 0
M  V30 2313 C 227.787 -1.02091 -1.59293 0
M  V30 2314 O 227.13 -0.00909657 -1.83698 0
M  V30 2315 C 227.192 -3.39534 -1.1814 0
M  V30 2316 C 226.856 -4.56313 -0.250513 0
M  V30 2317 C 227.853 -5.17295 0.519839 0
M  V30 2318 C 225.538 -5.02061 -0.154907 0
M  V30 2319 C 227.532 -6.2243 1.3733 0
M  V30 2320 C 225.219 -6.07053 0.702161 0
M  V30 2321 C 226.217 -6.67106 1.46487 0
M  V30 2322 O 225.905 -7.70066 2.30767 0
M  V30 2323 H 225.637 -0.661451 -0.139493 0
M  V30 2324 H 228.191 -2.04086 0.231926 0
M  V30 2325 H 226.421 -3.32302 -1.97769 0
M  V30 2326 H 228.11 -3.66745 -1.73933 0
M  V30 2327 H 228.876 -4.82852 0.45598 0
M  V30 2328 H 224.755 -4.5505 -0.7383 0
M  V30 2329 H 228.299 -6.69233 1.96909 0
M  V30 2330 H 224.196 -6.40923 0.76733 0
M  V30 2331 H 224.964 -7.87264 2.23959 0
M  V30 2332 N 227.627 0.131896 -1.57047 0
M  V30 2333 C 228.874 0.841932 -1.84168 0
M  V30 2334 C 229.202 1.8048 -0.725066 0
M  V30 2335 O 228.457 1.93618 0.284692 0
M  V30 2336 C 228.756 1.63703 -3.17704 0
M  V30 2337 C 228.422 0.81961 -4.43388 0
M  V30 2338 C 227.084 0.594148 -4.77518 0
M  V30 2339 C 229.436 0.248977 -5.20605 0
M  V30 2340 C 226.764 -0.212409 -5.86315 0
M  V30 2341 C 229.116 -0.544701 -6.30251 0
M  V30 2342 C 227.78 -0.780599 -6.6292 0
M  V30 2343 H 227.05 0.308085 -0.673917 0
M  V30 2344 H 229.697 0.104867 -1.91213 0
M  V30 2345 H 228.002 2.44464 -3.06177 0
M  V30 2346 H 229.699 2.19015 -3.35907 0
M  V30 2347 H 226.289 1.00542 -4.16641 0
M  V30 2348 H 230.473 0.410408 -4.946 0
M  V30 2349 H 225.729 -0.404524 -6.1006 0
M  V30 2350 H 229.903 -0.993922 -6.89271 0
M  V30 2351 H 227.53 -1.40742 -7.47058 0
M  V30 2352 N 229.106 1.52395 0.401703 0
M  V30 2353 C 230.517 1.58899 0.980202 0
M  V30 2354 C 230.868 0.434032 1.91339 0
M  V30 2355 O 229.993 -0.444619 2.11783 0
M  V30 2356 C 230.588 2.87994 1.78451 0
M  V30 2357 C 229.147 2.96953 2.31292 0
M  V30 2358 C 228.294 2.53903 1.11483 0
M  V30 2359 H 231.245 1.57657 0.18168 0
M  V30 2360 H 231.266 2.73765 2.64259 0
M  V30 2361 H 230.778 3.72035 1.10506 0
M  V30 2362 H 228.879 2.17422 3.02586 0
M  V30 2363 H 228.992 4.01344 2.61649 0
M  V30 2364 H 227.356 2.07925 1.47104 0
M  V30 2365 H 228.139 3.40326 0.450928 0
M  V30 2366 N 230.584 -0.659388 1.43143 0
M  V30 2367 C 231.494 -1.80167 1.50256 0
M  V30 2368 C 232.51 -1.69571 0.390106 0
M  V30 2369 O 233.686 -1.90849 0.643319 0
M  V30 2370 C 230.751 -3.16409 1.41725 0
M  V30 2371 C 229.812 -3.38848 2.63591 0
M  V30 2372 C 229.045 -4.68591 2.55458 0
M  V30 2373 O 229.268 -5.47532 1.59891 0
M  V30 2374 O 228.202 -4.92614 3.45854 0
M  V30 2375 H 232.028 -1.77121 2.46702 0
M  V30 2376 H 229.613 -0.817092 1.25076 0
M  V30 2377 H 231.495 -3.9768 1.39387 0
M  V30 2378 H 230.17 -3.20059 0.484118 0
M  V30 2379 H 229.077 -2.57366 2.71502 0
M  V30 2380 H 230.41 -3.4004 3.55856 0
M  V30 2381 N 232.062 -1.29571 -0.897171 0
M  V30 2382 C 233.473 -1.15964 -1.46319 0
M  V30 2383 C 233.824 0.244267 -1.94674 0
M  V30 2384 O 232.949 1.13998 -1.83939 0
M  V30 2385 C 233.544 -2.09906 -2.65942 0
M  V30 2386 C 232.103 -2.00314 -3.18671 0
M  V30 2387 C 231.25 -2.00687 -1.91363 0
M  V30 2388 H 234.201 -1.42019 -0.708268 0
M  V30 2389 H 234.222 -1.67276 -3.41759 0
M  V30 2390 H 233.734 -3.12075 -2.30718 0
M  V30 2391 H 231.835 -1.01242 -3.58582 0
M  V30 2392 H 231.948 -2.88102 -3.82798 0
M  V30 2393 H 230.312 -1.45319 -2.09175 0
M  V30 2394 H 231.095 -3.04566 -1.58413 0
M  V30 2395 N 233.54 1.10788 -1.12088 0
M  V30 2396 C 234.786 1.82942 -0.875226 0
M  V30 2397 C 235.119 1.84779 0.597538 0
M  V30 2398 O 234.394 1.30578 1.44152 0
M  V30 2399 C 234.677 3.29789 -1.44606 0
M  V30 2400 C 234.53 3.36307 -2.98693 0
M  V30 2401 C 235.849 4.26064 -1.10261 0
M  V30 2402 H 232.968 0.664195 -0.319397 0
M  V30 2403 H 235.61 1.29867 -1.38689 0
M  V30 2404 H 233.76 3.75118 -1.01089 0
M  V30 2405 H 235.432 2.99487 -3.50864 0
M  V30 2406 H 233.675 2.76318 -3.34411 0
M  V30 2407 H 234.346 4.39694 -3.33726 0
M  V30 2408 H 236.822 3.88951 -1.4784 0
M  V30 2409 H 235.698 5.27183 -1.52869 0
M  V30 2410 H 235.959 4.42098 -0.0142953 0
M  V30 2411 N 235.018 0.912232 1.28515 0
M  V30 2412 C 236.246 0.560416 1.99166 0
M  V30 2413 C 236.661 -0.857927 1.68182 0
M  V30 2414 O 236.018 -1.56805 0.933733 0
M  V30 2415 C 236.069 0.758142 3.53461 0
M  V30 2416 O 235.79 2.12067 3.83352 0
M  V30 2417 C 237.291 0.412954 4.41372 0
M  V30 2418 H 234.511 0.213805 0.636026 0
M  V30 2419 H 237.055 1.22502 1.63749 0
M  V30 2420 H 235.21 0.140556 3.87145 0
M  V30 2421 H 235.624 2.15923 4.77993 0
M  V30 2422 H 237.098 0.60208 5.48707 0
M  V30 2423 H 237.575 -0.65073 4.34353 0
M  V30 2424 H 238.181 1.00802 4.13182 0
M  V30 2425 N 236.496 -1.42363 0.676048 0
M  V30 2426 C 237.742 -2.0182 0.199125 0
M  V30 2427 C 238.075 -1.53339 -1.19168 0
M  V30 2428 O 237.35 -0.736124 -1.80032 0
M  V30 2429 C 237.633 -3.59331 0.235144 0
M  V30 2430 C 237.486 -4.17989 1.66149 0
M  V30 2431 C 238.805 -4.3813 -0.41595 0
M  V30 2432 H 235.924 -0.733293 0.0738311 0
M  V30 2433 H 238.566 -1.69368 0.86107 0
M  V30 2434 H 236.716 -3.87109 -0.328487 0
M  V30 2435 H 238.388 -4.0116 2.27747 0
M  V30 2436 H 236.631 -3.7377 2.20178 0
M  V30 2437 H 237.302 -5.27126 1.63837 0
M  V30 2438 H 239.778 -4.16051 0.0638529 0
M  V30 2439 H 238.654 -5.47717 -0.360115 0
M  V30 2440 H 238.915 -4.16101 -1.49373 0
M  V30 2441 N 237.974 -0.419461 -1.51915 0
M  V30 2442 C 239.199 0.154572 -2.06823 0
M  V30 2443 C 239.624 1.3722 -1.28656 0
M  V30 2444 O 238.982 1.78461 -0.319583 0
M  V30 2445 C 239.03 0.473172 -3.57482 0
M  V30 2446 O 238.134 1.56255 -3.81652 0
M  V30 2447 H 237.475 0.0096924 -0.663929 0
M  V30 2448 H 240.005 -0.595642 -1.95738 0
M  V30 2449 H 240.015 0.728825 -4.01438 0
M  V30 2450 H 238.69 -0.416873 -4.13805 0
M  V30 2451 H 237.267 1.29825 -3.49571 0
M  V30 2452 N 239.452 1.56882 -0.150215 0
M  V30 2453 C 240.698 1.97299 0.494427 0
M  V30 2454 C 241.053 1.0338 1.62266 0
M  V30 2455 O 240.346 0.0694497 1.91474 0
M  V30 2456 C 240.54 3.41801 1.04437 0
M  V30 2457 C 240.369 4.49691 -0.0290451 0
M  V30 2458 C 239.139 5.03095 -0.47156 0
M  V30 2459 C 241.337 5.07693 -0.821703 0
M  V30 2460 N 239.319 5.94593 -1.52749 0
M  V30 2461 C 240.69 5.95431 -1.72805 0
M  V30 2462 C 242.745 4.90256 -0.869134 0
M  V30 2463 C 241.448 6.67599 -2.67777 0
M  V30 2464 C 243.474 5.63127 -1.8067 0
M  V30 2465 C 242.836 6.50576 -2.70057 0
M  V30 2466 H 238.935 0.76755 0.149639 0
M  V30 2467 H 241.519 1.93145 -0.24556 0
M  V30 2468 H 239.69 3.46541 1.75396 0
M  V30 2469 H 241.422 3.69272 1.6559 0
M  V30 2470 H 238.177 4.73543 -0.0732101 0
M  V30 2471 H 238.601 6.45047 -2.05531 0
M  V30 2472 H 243.243 4.22363 -0.192134 0
M  V30 2473 H 240.961 7.34717 -3.36476 0
M  V30 2474 H 244.547 5.51629 -1.84924 0
M  V30 2475 H 243.427 7.05974 -3.41424 0
M  V30 2476 N 240.93 -0.123565 1.57115 0
M  V30 2477 C 241.878 -1.17082 2.00984 0
M  V30 2478 C 242.872 -1.43136 0.906009 0
M  V30 2479 O 244.078 -1.43152 1.09121 0
M  V30 2480 H 240.453 -0.394653 0.64012 0
M  V30 2481 H 242.424 -0.774292 2.88179 0
M  V30 2482 C 241.173 -2.49057 2.42623 0
M  V30 2483 H 240.496 -2.29846 3.27125 0
M  V30 2484 H 241.936 -3.20906 2.7712 0
M  V30 2485 C 240.395 -3.11305 1.28805 0
M  V30 2486 O 240.925 -3.97171 0.60153 0
M  V30 2487 N 239.131 -2.71111 1.04628 0
M  V30 2488 H 238.678 -2.01382 1.60634 0
M  V30 2489 H 238.636 -3.1309 0.286685 0
M  V30 2490 N 242.408 -1.52605 -0.393616 0
M  V30 2491 C 243.633 -1.71592 -1.16495 0
M  V30 2492 C 244.058 -0.43133 -1.83088 0
M  V30 2493 O 243.416 0.612523 -1.7064 0
M  V30 2494 C 243.464 -2.86318 -2.19213 0
M  V30 2495 O 242.568 -2.52969 -3.257 0
M  V30 2496 H 241.909 -0.570734 -0.33935 0
M  V30 2497 H 244.439 -1.99377 -0.459324 0
M  V30 2498 H 244.449 -3.1168 -2.63286 0
M  V30 2499 H 243.124 -3.79511 -1.7013 0
M  V30 2500 H 241.701 -2.38332 -2.86797 0
M  V30 2501 N 243.887 0.651787 -1.4349 0
M  V30 2502 C 245.135 1.40888 -1.44897 0
M  V30 2503 C 245.456 1.94856 -0.0749086 0
M  V30 2504 O 244.726 1.74518 0.889956 0
M  V30 2505 H 243.306 0.522887 -0.533478 0
M  V30 2506 H 245.968 0.768609 -1.79104 0
M  V30 2507 H 245.064 2.25052 -2.16236 0
M  V30 2508 N 245.365 1.30045 0.890287 0
M  V30 2509 C 246.328 1.15963 1.977 0
M  V30 2510 C 247.328 0.0923777 1.60534 0
M  V30 2511 O 248.518 0.340071 1.70848 0
M  V30 2512 C 245.65 0.775451 3.31963 0
M  V30 2513 H 246.843 2.12502 2.11619 0
M  V30 2514 H 244.396 1.13366 1.07601 0
M  V30 2515 H 245.131 -0.189671 3.23745 0
M  V30 2516 H 244.916 1.54668 3.60306 0
M  V30 2517 H 246.406 0.700251 4.11687 0
M  V30 2518 N 246.843 -1.10192 1.12674 0
M  V30 2519 C 247.773 -2.18652 0.819362 0
M  V30 2520 C 248.754 -1.68698 -0.217915 0
M  V30 2521 O 249.939 -1.94041 -0.0785581 0
M  V30 2522 C 247.069 -3.46202 0.27594 0
M  V30 2523 C 246.023 -4.09444 1.24656 0
M  V30 2524 C 245.349 -5.31725 0.563258 0
M  V30 2525 C 246.649 -4.52863 2.60217 0
M  V30 2526 H 248.343 -2.44622 1.72628 0
M  V30 2527 H 245.889 -1.17571 0.831451 0
M  V30 2528 H 247.842 -4.21372 0.0486149 0
M  V30 2529 H 246.566 -3.1973 -0.666331 0
M  V30 2530 H 245.225 -3.36284 1.45974 0
M  V30 2531 H 244.873 -5.0153 -0.384235 0
M  V30 2532 H 244.573 -5.74991 1.21075 0
M  V30 2533 H 246.097 -6.09624 0.34503 0
M  V30 2534 H 247.511 -5.19294 2.42913 0
M  V30 2535 H 245.908 -5.06986 3.21068 0
M  V30 2536 H 246.978 -3.65656 3.18471 0
M  V30 2537 N 248.321 -0.919034 -1.28029 0
M  V30 2538 C 249.549 -0.570971 -1.98866 0
M  V30 2539 C 249.964 0.848996 -1.68634 0
M  V30 2540 O 249.321 1.56307 -0.942036 0
M  V30 2541 C 249.372 -0.776876 -3.53054 0
M  V30 2542 O 249.093 -2.14097 -3.82222 0
M  V30 2543 C 250.594 -0.436356 -4.41147 0
M  V30 2544 H 247.814 -0.217175 -0.634883 0
M  V30 2545 H 250.358 -1.23368 -1.63097 0
M  V30 2546 H 248.513 -0.161085 -3.87065 0
M  V30 2547 H 248.927 -2.18455 -4.76841 0
M  V30 2548 H 250.401 -0.63117 -5.4838 0
M  V30 2549 H 250.878 0.627686 -4.34692 0
M  V30 2550 H 251.484 -1.02991 -4.12641 0
M  V30 2551 N 249.799 1.42003 -0.683588 0
M  V30 2552 C 251.024 2.06265 -0.216647 0
M  V30 2553 C 251.449 1.51059 1.12083 0
M  V30 2554 O 250.807 0.632638 1.69904 0
M  V30 2555 C 250.855 3.60191 -0.171759 0
M  V30 2556 O 249.959 4.03396 0.857069 0
M  V30 2557 H 249.3 0.65502 -0.108834 0
M  V30 2558 H 251.83 1.81982 -0.935077 0
M  V30 2559 H 251.84 4.08 0.0014303 0
M  V30 2560 H 250.515 3.99743 -1.14796 0
M  V30 2561 H 249.092 3.67117 0.654208 0
M  V30 2562 N 251.277 0.427512 1.51691 0
M  V30 2563 C 252.525 -0.141948 2.01601 0
M  V30 2564 C 252.846 -1.44067 1.31414 0
M  V30 2565 O 252.116 -1.90763 0.445658 0
M  V30 2566 H 250.696 -0.0554468 0.744939 0
M  V30 2567 H 253.358 0.567968 1.86441 0
M  V30 2568 H 252.454 -0.324913 3.10404 0
M  V30 2569 N 252.755 -1.56801 0.158532 0
M  V30 2570 C 254.001 -1.96781 -0.490405 0
M  V30 2571 C 254.334 -1.04397 -1.63753 0
M  V30 2572 O 253.609 -0.0885805 -1.94298 0
M  V30 2573 C 253.892 -3.4635 -0.985594 0
M  V30 2574 C 253.745 -4.49512 0.160824 0
M  V30 2575 C 255.064 -3.98697 -1.86355 0
M  V30 2576 H 252.183 -0.715482 -0.176788 0
M  V30 2577 H 254.825 -1.88451 0.242088 0
M  V30 2578 H 252.975 -3.53579 -1.60978 0
M  V30 2579 H 254.647 -4.54353 0.797537 0
M  V30 2580 H 252.89 -4.26013 0.818256 0
M  V30 2581 H 253.561 -5.51531 -0.227569 0
M  V30 2582 H 256.037 -3.94019 -1.33746 0
M  V30 2583 H 254.913 -5.03792 -2.17909 0
M  V30 2584 H 255.174 -3.41744 -2.8047 0
M  V30 2585 N 254.233 0.115231 -1.57178 0
M  V30 2586 C 255.183 1.14707 -1.97044 0
M  V30 2587 C 256.167 1.36866 -0.845957 0
M  V30 2588 O 257.359 1.37895 -1.10968 0
M  V30 2589 C 254.488 2.47266 -2.38148 0
M  V30 2590 C 253.574 2.28566 -3.57237 0
M  V30 2591 N 253.965 1.79685 -4.72807 0
M  V30 2592 C 252.263 2.59208 -3.62943 0
M  V30 2593 C 252.964 1.74781 -5.54821 0
M  V30 2594 N 251.94 2.19264 -4.97417 0
M  V30 2595 H 255.742 0.761754 -2.83857 0
M  V30 2596 H 253.256 0.322928 -1.59157 0
M  V30 2597 H 255.253 3.219 -2.64927 0
M  V30 2598 H 253.913 2.86552 -1.52702 0
M  V30 2599 H 254.924 1.49177 -4.9595 0
M  V30 2600 H 251.601 3.02154 -2.88113 0
M  V30 2601 H 252.991 1.38212 -6.57531 0
M  V30 2602 N 255.711 1.52812 0.385517 0
M  V30 2603 C 256.939 1.71907 1.15133 0
M  V30 2604 C 257.354 0.439004 1.83625 0
M  V30 2605 O 256.711 -0.586765 1.7281 0
M  V30 2606 C 256.762 2.87099 2.19673 0
M  V30 2607 O 256.483 4.10151 1.53973 0
M  V30 2608 C 257.984 3.17902 3.08955 0
M  V30 2609 H 255.204 0.575479 0.345057 0
M  V30 2610 H 257.748 1.99476 0.45052 0
M  V30 2611 H 255.903 2.61982 2.85384 0
M  V30 2612 H 256.317 4.74514 2.23465 0
M  V30 2613 H 257.791 4.01959 3.7833 0
M  V30 2614 H 258.268 2.3243 3.72657 0
M  V30 2615 H 258.874 3.44871 2.48885 0
M  V30 2616 N 257.189 -0.644168 1.43834 0
M  V30 2617 C 258.436 -1.40395 1.4593 0
M  V30 2618 C 258.764 -1.94305 0.0869658 0
M  V30 2619 O 258.019 -1.73288 -0.909378 0
M  V30 2620 C 258.318 -2.59615 2.45631 0
M  V30 2621 C 257.984 -2.2407 3.91284 0
M  V30 2622 C 256.646 -2.14089 4.30952 0
M  V30 2623 C 258.998 -1.95775 4.83034 0
M  V30 2624 C 256.326 -1.73981 5.6031 0
M  V30 2625 C 258.678 -1.57163 6.12766 0
M  V30 2626 C 257.342 -1.45713 6.51402 0
M  V30 2627 H 256.612 -0.513741 0.533995 0
M  V30 2628 H 259.259 -0.731724 1.76969 0
M  V30 2629 H 257.564 -3.32011 2.08028 0
M  V30 2630 H 259.261 -3.17834 2.44504 0
M  V30 2631 H 255.851 -2.32753 3.59895 0
M  V30 2632 H 260.035 -2.02403 4.53152 0
M  V30 2633 H 255.291 -1.63709 5.89075 0
M  V30 2634 H 259.465 -1.34303 6.83327 0
M  V30 2635 H 257.092 -1.14406 7.51542 0
M  V30 2636 N 258.668 -1.30515 -0.883378 0
M  V30 2637 C 260.079 -1.17509 -1.45081 0
M  V30 2638 C 260.43 0.223605 -1.94922 0
M  V30 2639 O 259.555 1.12041 -1.85137 0
M  V30 2640 C 260.15 -2.12715 -2.63701 0
M  V30 2641 C 258.709 -2.03682 -3.16529 0
M  V30 2642 C 257.856 -2.02706 -1.89224 0
M  V30 2643 H 260.807 -1.42762 -0.693165 0
M  V30 2644 H 260.828 -1.70891 -3.39965 0
M  V30 2645 H 260.34 -3.14505 -2.27395 0
M  V30 2646 H 258.441 -1.05039 -3.57488 0
M  V30 2647 H 258.554 -2.92146 -3.7972 0
M  V30 2648 H 256.918 -1.4753 -2.07622 0
M  V30 2649 H 257.701 -3.06229 -1.55174 0
M  V30 2650 N 260.146 1.09593 -1.13257 0
M  V30 2651 C 261.109 2.14359 -0.811358 0
M  V30 2652 C 262.109 1.59808 0.178377 0
M  V30 2653 O 263.299 1.74132 -0.0484911 0
M  V30 2654 C 260.431 3.40269 -0.207276 0
M  V30 2655 H 261.624 2.44284 -1.73969 0
M  V30 2656 H 259.177 1.25102 -0.936973 0
M  V30 2657 H 259.912 3.15969 0.73036 0
M  V30 2658 H 259.697 3.81154 -0.919992 0
M  V30 2659 H 261.187 4.176 0.000667944 0
M  V30 2660 N 261.624 0.925811 1.2754 0
M  V30 2661 C 262.87 0.566092 1.94739 0
M  V30 2662 C 263.203 -0.890057 1.72603 0
M  V30 2663 O 262.478 -1.63467 1.05399 0
M  V30 2664 C 262.761 0.89054 3.48915 0
M  V30 2665 C 262.614 2.4003 3.80402 0
M  V30 2666 C 263.933 0.395101 4.38323 0
M  V30 2667 H 261.052 0.20714 0.707292 0
M  V30 2668 H 263.694 1.15725 1.50691 0
M  V30 2669 H 261.844 0.387452 3.86563 0
M  V30 2670 H 263.516 2.97494 3.52555 0
M  V30 2671 H 261.759 2.85028 3.2702 0
M  V30 2672 H 262.43 2.57785 4.8811 0
M  V30 2673 H 264.906 0.826241 4.07814 0
M  V30 2674 H 263.782 0.651086 5.45025 0
M  V30 2675 H 264.043 -0.704798 4.36446 0
M  V30 2676 N 263.102 -1.41638 0.69111 0
M  V30 2677 C 264.032 -2.3347 0.037248 0
M  V30 2678 C 265.013 -1.51575 -0.771947 0
M  V30 2679 O 266.198 -1.80126 -0.72582 0
M  V30 2680 C 263.328 -3.35354 -0.903064 0
M  V30 2681 C 262.282 -4.27526 -0.201288 0
M  V30 2682 C 261.608 -5.19747 -1.25565 0
M  V30 2683 C 262.908 -5.13959 0.929689 0
M  V30 2684 H 264.602 -2.88397 0.804227 0
M  V30 2685 H 262.148 -1.38669 0.388189 0
M  V30 2686 H 264.101 -3.98519 -1.36969 0
M  V30 2687 H 262.825 -2.78767 -1.70166 0
M  V30 2688 H 261.484 -3.65779 0.245265 0
M  V30 2689 H 261.132 -4.59479 -2.04666 0
M  V30 2690 H 260.832 -5.8225 -0.791128 0
M  V30 2691 H 262.356 -5.85789 -1.72288 0
M  V30 2692 H 263.77 -5.70718 0.543546 0
M  V30 2693 H 262.167 -5.85379 1.32103 0
M  V30 2694 H 263.237 -4.51389 1.77133 0
M  V30 2695 N 264.58 -0.43555 -1.51462 0
M  V30 2696 C 265.512 0.41257 -2.25456 0
M  V30 2697 C 266.525 0.987822 -1.29406 0
M  V30 2698 O 267.714 0.882266 -1.55172 0
M  V30 2699 C 264.814 1.58894 -2.99342 0
M  V30 2700 C 263.987 1.13288 -4.22474 0
M  V30 2701 C 263.046 2.17917 -4.78956 0
M  V30 2702 O 262.072 1.77425 -5.40841 0
M  V30 2703 N 263.274 3.50382 -4.62832 0
M  V30 2704 H 266.039 -0.221603 -2.9888 0
M  V30 2705 H 263.6 -0.264342 -1.59727 0
M  V30 2706 H 265.592 2.28508 -3.34015 0
M  V30 2707 H 264.162 2.12849 -2.28941 0
M  V30 2708 H 263.382 0.263881 -3.93316 0
M  V30 2709 H 264.67 0.805542 -5.02383 0
M  V30 2710 H 264.068 3.86013 -4.13534 0
M  V30 2711 H 262.625 4.15895 -5.01871 0
M  V30 2712 N 266.058 1.56714 -0.166846 0
M  V30 2713 C 267.283 2.01557 0.488833 0
M  V30 2714 C 267.708 1.0463 1.56314 0
M  V30 2715 O 267.066 0.0251304 1.81283 0
M  V30 2716 C 267.114 3.4503 1.04818 0
M  V30 2717 O 266.218 3.51163 2.16236 0
M  V30 2718 H 265.559 0.653516 0.117526 0
M  V30 2719 H 268.089 2.02818 -0.269421 0
M  V30 2720 H 268.099 3.84243 1.37191 0
M  V30 2721 H 266.774 4.15077 0.261572 0
M  V30 2722 H 265.351 3.23807 1.84942 0
M  V30 2723 N 267.536 -0.106894 1.57237 0
M  V30 2724 C 268.761 -0.830287 1.90055 0
M  V30 2725 C 269.186 -1.72064 0.75998 0
M  V30 2726 O 268.544 -1.78982 -0.288991 0
M  V30 2727 C 268.592 -1.6295 3.21683 0
M  V30 2728 O 267.696 -2.73748 3.08441 0
M  V30 2729 H 267.037 -0.228855 0.623315 0
M  V30 2730 H 269.567 -0.085658 2.04421 0
M  V30 2731 H 269.577 -2.01621 3.54701 0
M  V30 2732 H 268.252 -0.975989 4.04286 0
M  V30 2733 H 266.829 -2.38192 2.86913 0
M  V30 2734 N 269.014 -1.53014 -0.377408 0
M  V30 2735 C 270.262 -1.6829 -1.11906 0
M  V30 2736 C 270.583 -0.431206 -1.90173 0
M  V30 2737 O 269.853 0.554595 -1.87886 0
M  V30 2738 H 268.433 -0.620371 -0.416112 0
M  V30 2739 H 271.095 -1.90167 -0.426893 0
M  V30 2740 H 270.191 -2.53862 -1.8155 0
M  V30 2741 N 270.492 0.636531 -1.44174 0
M  V30 2742 C 271.422 1.76003 -1.53444 0
M  V30 2743 C 272.403 1.65619 -0.387841 0
M  V30 2744 O 273.588 1.84461 -0.607257 0
M  V30 2745 C 270.718 3.14511 -1.4731 0
M  V30 2746 C 269.672 3.39677 -2.60391 0
M  V30 2747 C 268.998 4.78159 -2.39308 0
M  V30 2748 C 270.298 3.32772 -4.02567 0
M  V30 2749 H 271.992 1.68501 -2.47483 0
M  V30 2750 H 269.538 0.809237 -1.19111 0
M  V30 2751 H 271.491 3.92878 -1.52397 0
M  V30 2752 H 270.215 3.22783 -0.49785 0
M  V30 2753 H 268.874 2.63688 -2.54684 0
M  V30 2754 H 268.522 4.83128 -1.39988 0
M  V30 2755 H 268.222 4.95956 -3.15122 0
M  V30 2756 H 269.746 5.58762 -2.46205 0
M  V30 2757 H 271.16 4.01051 -4.09672 0
M  V30 2758 H 269.557 3.62104 -4.7854 0
M  V30 2759 H 270.627 2.30669 -4.2652 0
M  V30 2760 N 271.97 1.30982 0.876444 0
M  V30 2761 C 273.2 1.23063 1.65949 0
M  V30 2762 C 273.608 -0.207537 1.88058 0
M  V30 2763 O 272.951 -1.14781 1.43426 0
M  V30 2764 C 273.013 1.89768 3.05333 0
M  V30 2765 C 272.677 3.39106 3.0636 0
M  V30 2766 C 273.674 4.3496 2.84791 0
M  V30 2767 C 271.359 3.80693 3.27686 0
M  V30 2768 C 273.353 5.70375 2.84519 0
M  V30 2769 C 271.04 5.16223 3.27043 0
M  V30 2770 C 272.038 6.10875 3.05485 0
M  V30 2771 O 271.726 7.43928 3.04674 0
M  V30 2772 H 271.458 0.426685 0.524324 0
M  V30 2773 H 274.012 1.7329 1.10271 0
M  V30 2774 H 272.242 1.34082 3.6271 0
M  V30 2775 H 273.931 1.75853 3.65829 0
M  V30 2776 H 274.697 4.0416 2.68103 0
M  V30 2777 H 270.576 3.07457 3.43499 0
M  V30 2778 H 274.12 6.44228 2.67611 0
M  V30 2779 H 270.017 5.4666 3.43269 0
M  V30 2780 H 270.785 7.53022 3.2078 0
M  V30 2781 N 273.449 -1.08991 1.13837 0
M  V30 2782 C 274.674 -1.85551 0.926585 0
M  V30 2783 C 275.099 -1.80782 -0.519566 0
M  V30 2784 O 274.457 -1.18855 -1.36906 0
M  V30 2785 C 274.505 -3.31266 1.42462 0
M  V30 2786 O 273.609 -4.07822 0.612789 0
M  V30 2787 H 272.95 -0.575192 0.331738 0
M  V30 2788 H 275.48 -1.37604 1.51414 0
M  V30 2789 H 275.49 -3.82112 1.43019 0
M  V30 2790 H 274.165 -3.34052 2.47754 0
M  V30 2791 H 272.742 -3.66731 0.675463 0
M  V30 2792 N 274.927 -0.932562 -1.27047 0
M  V30 2793 C 275.857 -0.452902 -2.29066 0
M  V30 2794 C 276.838 0.489338 -1.62909 0
M  V30 2795 O 278.023 0.393046 -1.90181 0
M  V30 2796 C 275.153 0.290698 -3.46081 0
M  V30 2797 C 274.107 -0.564168 -4.24265 0
M  V30 2798 C 273.433 0.308886 -5.33807 0
M  V30 2799 C 274.733 -1.83112 -4.89149 0
M  V30 2800 H 276.427 -1.30552 -2.69437 0
M  V30 2801 H 273.973 -0.629201 -1.29526 0
M  V30 2802 H 275.926 0.637233 -4.16554 0
M  V30 2803 H 274.65 1.17738 -3.0464 0
M  V30 2804 H 273.309 -0.893477 -3.55545 0
M  V30 2805 H 272.957 1.19467 -4.88607 0
M  V30 2806 H 272.657 -0.259633 -5.87026 0
M  V30 2807 H 274.181 0.650884 -6.07121 0
M  V30 2808 H 275.595 -1.55236 -5.51883 0
M  V30 2809 H 273.992 -2.34353 -5.52448 0
M  V30 2810 H 275.062 -2.54772 -4.12576 0
M  V30 2811 N 276.405 1.4127 -0.698611 0
M  V30 2812 C 277.63 2.06024 -0.238512 0
M  V30 2813 C 278.055 1.5224 1.10475 0
M  V30 2814 O 277.413 0.650623 1.69223 0
M  V30 2815 C 277.461 3.59988 -0.209952 0
M  V30 2816 O 276.565 4.04282 0.814235 0
M  V30 2817 H 275.906 0.653829 -0.115775 0
M  V30 2818 H 278.436 1.8098 -0.954326 0
M  V30 2819 H 278.446 4.07979 -0.0418436 0
M  V30 2820 H 277.121 3.98503 -1.1903 0
M  V30 2821 H 275.698 3.6779 0.615234 0
M  V30 2822 N 277.883 0.443576 1.51229 0
M  V30 2823 C 279.108 -0.121648 2.07043 0
M  V30 2824 C 279.533 -1.35156 1.30823 0
M  V30 2825 O 278.891 -1.7793 0.347934 0
M  V30 2826 C 278.939 -0.41624 3.5819 0
M  V30 2827 O 278.043 -1.50163 3.8409 0
M  V30 2828 H 277.384 0.000871367 0.663999 0
M  V30 2829 H 279.914 0.626706 1.94765 0
M  V30 2830 H 279.924 -0.664867 4.02546 0
M  V30 2831 H 278.599 0.482653 4.1309 0
M  V30 2832 H 277.176 -1.24248 3.51592 0
M  V30 2833 N 279.361 -1.56624 0.175154 0
M  V30 2834 C 280.607 -1.9729 -0.469506 0
M  V30 2835 C 280.94 -1.06128 -1.62636 0
M  V30 2836 O 280.215 -0.109183 -1.94193 0
M  V30 2837 C 280.498 -3.47375 -0.948804 0
M  V30 2838 C 280.351 -4.49317 0.208491 0
M  V30 2839 C 281.67 -4.00652 -1.82116 0
M  V30 2840 H 278.789 -0.717317 -0.16919 0
M  V30 2841 H 281.431 -1.88184 0.262062 0
M  V30 2842 H 279.581 -3.55267 -1.57219 0
M  V30 2843 H 281.253 -4.53482 0.845682 0
M  V30 2844 H 279.496 -4.25121 0.863395 0
M  V30 2845 H 280.167 -5.51741 -0.169059 0
M  V30 2846 H 282.643 -3.95416 -1.2956 0
M  V30 2847 H 281.519 -5.06075 -2.12554 0
M  V30 2848 H 281.78 -3.44699 -2.7683 0
M  V30 2849 N 280.839 0.0985539 -1.57292 0
M  V30 2850 C 282.085 0.803867 -1.86188 0
M  V30 2851 C 282.418 1.78549 -0.763794 0
M  V30 2852 O 281.693 1.93153 0.22855 0
M  V30 2853 C 281.976 1.53568 -3.25713 0
M  V30 2854 C 281.829 0.572277 -4.46145 0
M  V30 2855 C 283.148 2.48708 -3.63087 0
M  V30 2856 H 280.267 0.290781 -0.677211 0
M  V30 2857 H 282.909 0.0675783 -1.8988 0
M  V30 2858 H 281.059 2.16332 -3.22696 0
M  V30 2859 H 282.731 -0.0480894 -4.61275 0
M  V30 2860 H 280.974 -0.114618 -4.33649 0
M  V30 2861 H 281.645 1.12139 -5.40489 0
M  V30 2862 H 284.121 1.96039 -3.67026 0
M  V30 2863 H 282.997 2.96932 -4.61652 0
M  V30 2864 H 283.258 3.32309 -2.91588 0
M  V30 2865 N 282.317 1.53212 0.369288 0
M  V30 2866 C 283.545 1.73119 1.13303 0
M  V30 2867 C 283.96 0.458455 1.83149 0
M  V30 2868 O 283.317 -0.568403 1.73423 0
M  V30 2869 C 283.368 2.89413 2.16616 0
M  V30 2870 O 283.089 4.11761 1.49614 0
M  V30 2871 C 284.59 3.21161 3.05566 0
M  V30 2872 H 281.81 0.579107 0.338934 0
M  V30 2873 H 284.354 1.99942 0.429338 0
M  V30 2874 H 282.509 2.64994 2.82589 0
M  V30 2875 H 282.923 4.76858 2.18419 0
M  V30 2876 H 284.397 4.05949 3.74045 0
M  V30 2877 H 284.874 2.36369 3.70171 0
M  V30 2878 H 285.48 3.47492 2.45213 0
M  V30 2879 N 283.795 -0.628877 1.44509 0
M  V30 2880 C 285.041 -1.39045 1.47629 0
M  V30 2881 C 285.374 -1.93892 0.109343 0
M  V30 2882 O 284.649 -1.7379 -0.87334 0
M  V30 2883 C 284.932 -2.55408 2.53848 0
M  V30 2884 C 284.785 -2.05896 3.99909 0
M  V30 2885 C 286.104 -3.5759 2.56549 0
M  V30 2886 H 283.223 -0.504232 0.537512 0
M  V30 2887 H 285.865 -0.710854 1.76201 0
M  V30 2888 H 284.015 -3.13384 2.29615 0
M  V30 2889 H 285.687 -1.52734 4.35282 0
M  V30 2890 H 283.93 -1.37061 4.11578 0
M  V30 2891 H 284.601 -2.89681 4.69882 0
M  V30 2892 H 287.077 -3.09419 2.78207 0
M  V30 2893 H 285.953 -4.36527 3.32769 0
M  V30 2894 H 286.214 -4.11808 1.60832 0
M  V30 2895 N 285.273 -1.31445 -0.869486 0
M  V30 2896 C 286.684 -1.19042 -1.43826 0
M  V30 2897 C 287.035 0.202919 -1.95148 0
M  V30 2898 O 286.16 1.10071 -1.86315 0
M  V30 2899 C 286.755 -2.15499 -2.6143 0
M  V30 2900 C 285.314 -2.07028 -3.14351 0
M  V30 2901 C 284.461 -2.04701 -1.87063 0
M  V30 2902 H 287.412 -1.43489 -0.677984 0
M  V30 2903 H 287.433 -1.74488 -3.38134 0
M  V30 2904 H 286.945 -3.16899 -2.24046 0
M  V30 2905 H 285.046 -1.08825 -3.56354 0
M  V30 2906 H 285.159 -2.96157 -3.766 0
M  V30 2907 H 283.523 -1.49724 -2.06046 0
M  V30 2908 H 284.306 -3.07857 -1.51917 0
M  V30 2909 N 286.751 1.08385 -1.14413 0
M  V30 2910 C 287.976 1.85057 -0.936413 0
M  V30 2911 C 288.401 1.81055 0.509971 0
M  V30 2912 O 287.759 1.1958 1.36273 0
M  V30 2913 C 287.807 3.30505 -1.44217 0
M  V30 2914 O 286.911 4.07491 -0.634409 0
M  V30 2915 H 286.252 0.573425 -0.334784 0
M  V30 2916 H 288.782 1.36799 -1.52142 0
M  V30 2917 H 288.792 3.81348 -1.45043 0
M  V30 2918 H 287.467 3.32734 -2.49522 0
M  V30 2919 H 286.044 3.66368 -0.694902 0
M  V30 2920 N 288.23 0.939286 1.26551 0
M  V30 2921 C 289.455 0.602008 1.98471 0
M  V30 2922 C 289.88 -0.815624 1.69497 0
M  V30 2923 O 289.238 -1.54912 0.941905 0
M  V30 2924 C 289.286 0.848407 3.50477 0
M  V30 2925 O 288.39 -0.0804009 4.12322 0
M  V30 2926 H 287.731 0.23049 0.622712 0
M  V30 2927 H 290.261 1.2617 1.61066 0
M  V30 2928 H 290.271 0.768553 4.00696 0
M  V30 2929 H 288.946 1.88171 3.70897 0
M  V30 2930 H 287.523 0.0503508 3.72866 0
M  V30 2931 N 289.708 -1.40897 0.706093 0
M  V30 2932 C 290.656 -2.32572 0.0361893 0
M  V30 2933 C 291.65 -1.51532 -0.757266 0
M  V30 2934 O 292.856 -1.67396 -0.661703 0
M  V30 2935 H 289.231 -0.751966 -0.00709935 0
M  V30 2936 H 291.202 -2.86733 0.826249 0
M  V30 2937 C 289.951 -3.36418 -0.87854 0
M  V30 2938 H 289.274 -3.98836 -0.277401 0
M  V30 2939 H 290.714 -4.0308 -1.3154 0
M  V30 2940 C 289.173 -2.71141 -1.99961 0
M  V30 2941 O 289.703 -2.56735 -3.0895 0
M  V30 2942 N 287.909 -2.29671 -1.78043 0
M  V30 2943 H 287.456 -2.41588 -0.894042 0
M  V30 2944 H 287.414 -1.86332 -2.53235 0
M  V30 2945 N 291.186 -0.45159 -1.50991 0
M  V30 2946 C 292.433 0.110074 -2.02201 0
M  V30 2947 C 292.761 1.4146 -1.33489 0
M  V30 2948 O 292.016 1.90617 -0.443125 0
M  V30 2949 C 292.315 0.361728 -3.55565 0
M  V30 2950 C 291.981 -0.858717 -4.42648 0
M  V30 2951 C 290.643 -1.19338 -4.66167 0
M  V30 2952 C 292.995 -1.67221 -4.93646 0
M  V30 2953 C 290.323 -2.34195 -5.37931 0
M  V30 2954 C 292.675 -2.8119 -5.6667 0
M  V30 2955 C 291.339 -3.15094 -5.88449 0
M  V30 2956 H 290.609 0.040279 -0.739904 0
M  V30 2957 H 293.256 -0.601696 -1.81802 0
M  V30 2958 H 291.561 1.15554 -3.74372 0
M  V30 2959 H 293.258 0.80996 -3.92735 0
M  V30 2960 H 289.848 -0.58796 -4.24548 0
M  V30 2961 H 294.032 -1.42686 -4.75347 0
M  V30 2962 H 289.288 -2.6076 -5.53005 0
M  V30 2963 H 293.462 -3.44585 -6.05173 0
M  V30 2964 H 291.089 -4.04204 -6.43835 0
M  V30 2965 N 292.664 1.56529 -0.183458 0
M  V30 2966 C 293.912 1.96855 0.457452 0
M  V30 2967 C 294.233 1.07104 1.62953 0
M  V30 2968 O 293.503 0.139887 1.954 0
M  V30 2969 H 292.083 0.72693 0.171992 0
M  V30 2970 H 294.745 1.93056 -0.267476 0
M  V30 2971 H 293.841 3.01423 0.809368 0
M  V30 2972 N 294.142 -0.090211 1.57342 0
M  V30 2973 C 295.37 -0.806224 1.90546 0
M  V30 2974 C 295.785 -1.72041 0.777644 0
M  V30 2975 O 295.142 -1.80778 -0.250103 0
M  V30 2976 C 295.193 -1.61546 3.23396 0
M  V30 2977 O 294.914 -0.738043 4.31839 0
M  V30 2978 C 296.415 -2.4341 3.70495 0
M  V30 2979 H 293.635 -0.230256 0.630257 0
M  V30 2980 H 296.179 -0.0659843 2.04394 0
M  V30 2981 H 294.334 -2.30816 3.11131 0
M  V30 2982 H 294.748 -1.29901 5.08159 0
M  V30 2983 H 296.222 -2.95676 4.66133 0
M  V30 2984 H 296.699 -3.22098 2.98579 0
M  V30 2985 H 297.305 -1.79331 3.85643 0
M  V30 2986 N 295.62 -1.53406 -0.361157 0
M  V30 2987 C 296.552 -1.76446 -1.46286 0
M  V30 2988 C 297.565 -0.645322 -1.49464 0
M  V30 2989 O 298.754 -0.921681 -1.52864 0
M  V30 2990 C 295.854 -1.83332 -2.85031 0
M  V30 2991 C 295.027 -3.13033 -3.05498 0
M  V30 2992 C 294.086 -3.11104 -4.24383 0
M  V30 2993 O 293.112 -3.84888 -4.19344 0
M  V30 2994 N 294.314 -2.32234 -5.32022 0
M  V30 2995 H 297.079 -2.71508 -1.26899 0
M  V30 2996 H 294.64 -1.52238 -0.550915 0
M  V30 2997 H 296.632 -1.79514 -3.62708 0
M  V30 2998 H 295.202 -0.955342 -2.97644 0
M  V30 2999 H 294.422 -3.30119 -2.15442 0
M  V30 3000 H 295.71 -3.9874 -3.16044 0
M  V30 3001 H 295.108 -1.71807 -5.38979 0
M  V30 3002 H 293.665 -2.3423 -6.08259 0
M  V30 3003 N 297.098 0.621204 -1.44841 0
M  V30 3004 C 298.326 1.40752 -1.51646 0
M  V30 3005 C 298.741 1.88246 -0.144549 0
M  V30 3006 O 298.098 1.61422 0.851416 0
M  V30 3007 C 298.149 2.62119 -2.4895 0
M  V30 3008 O 297.87 2.16602 -3.80808 0
M  V30 3009 C 299.371 3.55135 -2.65319 0
M  V30 3010 H 296.591 0.431325 -0.514004 0
M  V30 3011 H 299.135 0.758835 -1.899 0
M  V30 3012 H 297.29 3.23058 -2.13805 0
M  V30 3013 H 297.704 2.95358 -4.33433 0
M  V30 3014 H 299.178 4.36874 -3.37409 0
M  V30 3015 H 299.655 4.04592 -1.70886 0
M  V30 3016 H 300.261 3.00058 -3.01405 0
M  V30 3017 N 298.576 1.31904 0.862503 0
M  V30 3018 C 299.806 1.24817 1.64634 0
M  V30 3019 C 300.214 -0.187579 1.88268 0
M  V30 3020 O 299.557 -1.13253 1.44635 0
M  V30 3021 C 299.619 1.92996 3.03303 0
M  V30 3022 C 299.283 3.42336 3.02746 0
M  V30 3023 C 300.28 4.37956 2.80162 0
M  V30 3024 C 297.965 3.84147 3.2363 0
M  V30 3025 C 299.959 5.73361 2.78453 0
M  V30 3026 C 297.646 5.19663 3.21549 0
M  V30 3027 C 298.644 6.14081 2.98988 0
M  V30 3028 O 298.332 7.47118 2.96766 0
M  V30 3029 H 298.064 0.432222 0.519769 0
M  V30 3030 H 300.618 1.7445 1.08427 0
M  V30 3031 H 298.848 1.37922 3.61268 0
M  V30 3032 H 300.537 1.79723 3.63943 0
M  V30 3033 H 301.303 4.06981 2.63802 0
M  V30 3034 H 297.182 3.11083 3.40218 0
M  V30 3035 H 300.726 6.4703 2.60763 0
M  V30 3036 H 296.623 5.5027 3.37451 0
M  V30 3037 H 297.391 7.56382 3.12775 0
M  V30 3038 N 300.054 -1.07777 1.14986 0
M  V30 3039 C 301.282 -1.84018 0.945773 0
M  V30 3040 C 301.697 -1.81897 -0.505863 0
M  V30 3041 O 301.054 -1.22726 -1.35072 0
M  V30 3042 C 301.105 -3.31287 1.44677 0
M  V30 3043 O 300.826 -3.33449 2.84154 0
M  V30 3044 C 302.327 -4.24311 1.28355 0
M  V30 3045 H 299.547 -0.580716 0.336169 0
M  V30 3046 H 302.091 -1.36077 1.52654 0
M  V30 3047 H 300.246 -3.76594 0.908625 0
M  V30 3048 H 300.66 -4.25427 3.06777 0
M  V30 3049 H 302.134 -5.2573 1.68261 0
M  V30 3050 H 302.611 -4.38612 0.227184 0
M  V30 3051 H 303.217 -3.84836 1.81056 0
M  V30 3052 N 301.532 -0.945985 -1.26051 0
M  V30 3053 C 302.772 -0.603665 -1.95282 0
M  V30 3054 C 303.136 0.842377 -1.72534 0
M  V30 3055 O 304.337 1.29387 -2.35611 0
M  V30 3056 C 302.608 -0.942292 -3.44754 0
M  V30 3057 S 304.167 -0.711242 -4.32997 0
M  V30 3058 H 300.985 -0.222176 -0.675395 0
M  V30 3059 H 303.587 -1.21832 -1.52896 0
M  V30 3060 H 302.291 -1.99203 -3.58812 0
M  V30 3061 H 301.822 -0.317546 -3.92116 0
M  V30 3062 H 303.837 0.422221 -4.944 0
M  V30 3063 N 303.011 1.40521 -0.713556 0
M  V30 3064 C 303.959 2.32549 -0.0485227 0
M  V30 3065 C 304.953 1.51931 0.74922 0
M  V30 3066 O 306.159 1.67745 0.652816 0
M  V30 3067 H 302.534 0.751994 0.00311138 0
M  V30 3068 H 304.505 2.86291 -0.841443 0
M  V30 3069 C 303.254 3.36879 0.860687 0
M  V30 3070 H 302.577 3.98978 0.256246 0
M  V30 3071 H 304.017 4.03772 1.294 0
M  V30 3072 C 302.476 2.72197 1.9852 0
M  V30 3073 O 303.006 2.5837 3.07584 0
M  V30 3074 N 301.212 2.30612 1.76823 0
M  V30 3075 H 300.759 2.42059 0.881217 0
M  V30 3076 H 300.717 1.87672 2.52243 0
M  V30 3077 N 304.489 0.459591 1.5075 0
M  V30 3078 C 305.735 -0.0994966 2.02556 0
M  V30 3079 C 306.068 -1.40399 1.3417 0
M  V30 3080 O 305.343 -1.88892 0.463683 0
M  V30 3081 C 305.626 -0.295242 3.58888 0
M  V30 3082 C 305.479 1.02947 4.37861 0
M  V30 3083 C 306.798 -1.05502 4.27267 0
M  V30 3084 H 303.917 -0.034686 0.736183 0
M  V30 3085 H 306.559 0.602938 1.8018 0
M  V30 3086 H 304.709 -0.893563 3.78084 0
M  V30 3087 H 306.381 1.66348 4.30263 0
M  V30 3088 H 304.624 1.62885 4.02058 0
M  V30 3089 H 305.295 0.846281 5.45474 0
M  V30 3090 H 307.771 -0.547993 4.12476 0
M  V30 3091 H 306.647 -1.16077 5.36486 0
M  V30 3092 H 306.908 -2.08875 3.89645 0
M  V30 3093 N 305.967 -1.56429 0.191757 0
M  V30 3094 C 307.244 -1.89224 -0.495332 0
M  V30 3095 C 307.624 -1.10478 -1.79883 0
M  V30 3096 O 306.972 -0.204852 -2.2758 0
M  V30 3097 C 307.182 -3.41548 -0.717367 0
M  V30 3098 C 308.53 -4.11711 -1.03823 0
M  V30 3099 O 309.554 -3.4698 -0.805204 0
M  V30 3100 O 308.413 -5.2611 -1.47887 0
M  V30 3101 H 305.507 -0.785788 -0.25781 0
M  V30 3102 H 308.053 -1.68111 0.231721 0
M  V30 3103 H 306.825 -3.90772 0.203287 0
M  V30 3104 H 306.448 -3.68342 -1.497 0
M  V30 3105 N 307.445 0.0818655 -1.57387 0
M  V30 3106 C 308.395 1.10501 -1.99433 0
M  V30 3107 C 309.379 1.35041 -0.874798 0
M  V30 3108 O 310.571 1.35511 -1.13868 0
M  V30 3109 C 307.7 2.42159 -2.43339 0
M  V30 3110 C 306.786 2.20937 -3.62005 0
M  V30 3111 N 307.177 1.69616 -4.76512 0
M  V30 3112 C 305.475 2.51451 -3.68359 0
M  V30 3113 C 306.176 1.62973 -5.58404 0
M  V30 3114 N 305.152 2.08664 -5.01956 0
M  V30 3115 H 308.954 0.701373 -2.85408 0
M  V30 3116 H 306.468 0.289096 -1.59806 0
M  V30 3117 H 308.465 3.16208 -2.71695 0
M  V30 3118 H 307.125 2.83249 -1.58746 0
M  V30 3119 H 308.136 1.38624 -4.99003 0
M  V30 3120 H 304.813 2.95975 -2.94457 0
M  V30 3121 H 306.203 1.24233 -6.60315 0
M  V30 3122 N 308.923 1.53595 0.353017 0
M  V30 3123 C 309.87 1.80919 1.43308 0
M  V30 3124 C 310.84 0.654288 1.5267 0
M  V30 3125 O 312.025 0.897759 1.6836 0
M  V30 3126 C 309.165 2.01605 2.80089 0
M  V30 3127 C 308.278 3.29321 2.79593 0
M  V30 3128 C 307.413 3.40125 4.0803 0
M  V30 3129 C 306.452 4.61826 4.01725 0
M  V30 3130 N 305.589 4.69716 5.21834 0
M  V30 3131 H 310.429 2.73074 1.19308 0
M  V30 3132 H 307.966 1.35263 0.578131 0
M  V30 3133 H 309.924 2.11586 3.59565 0
M  V30 3134 H 308.554 1.12772 3.0246 0
M  V30 3135 H 307.606 3.28229 1.92276 0
M  V30 3136 H 308.918 4.18884 2.70809 0
M  V30 3137 H 308.072 3.49488 4.95927 0
M  V30 3138 H 306.811 2.48601 4.19582 0
M  V30 3139 H 305.816 4.52552 3.12213 0
M  V30 3140 H 307.041 5.54705 3.91764 0
M  V30 3141 H 304.987 3.81097 5.33948 0
M  V30 3142 H 304.904 5.53202 5.1527 0
M  V30 3143 H 306.172 4.83376 6.11529 0
M  V30 3144 N 310.401 -0.613514 1.45168 0
M  V30 3145 C 311.812 -1.19539 1.43413 0
M  V30 3146 C 312.163 -1.95558 0.158632 0
M  V30 3147 O 311.288 -2.0335 -0.740119 0
M  V30 3148 C 311.883 -2.17445 2.59813 0
M  V30 3149 C 310.442 -2.71022 2.61197 0
M  V30 3150 C 309.589 -1.46323 2.35552 0
M  V30 3151 H 312.54 -0.403163 1.53494 0
M  V30 3152 H 312.561 -3.00373 2.33574 0
M  V30 3153 H 312.073 -1.62089 3.52631 0
M  V30 3154 H 310.174 -3.30332 1.7237 0
M  V30 3155 H 310.287 -3.15859 3.60236 0
M  V30 3156 H 308.651 -1.75072 1.84992 0
M  V30 3157 H 309.434 -0.92844 3.30507 0
M  V30 3158 N 311.879 -1.3236 -0.855495 0
M  V30 3159 C 313.104 -1.2601 -1.64731 0
M  V30 3160 C 313.529 0.169068 -1.87339 0
M  V30 3161 O 312.887 1.12016 -1.42556 0
M  V30 3162 C 312.935 -2.02417 -2.98429 0
M  V30 3163 O 312.039 -1.3714 -3.8893 0
M  V30 3164 H 311.38 -0.434325 -0.502253 0
M  V30 3165 H 313.91 -1.74661 -1.06558 0
M  V30 3166 H 313.92 -2.12559 -3.48257 0
M  V30 3167 H 312.595 -3.06343 -2.81295 0
M  V30 3168 H 311.172 -1.3554 -3.47395 0
M  V30 3169 N 313.357 1.07166 -1.15556 0
M  V30 3170 C 314.305 2.16517 -0.8499 0
M  V30 3171 C 315.299 1.68468 0.177454 0
M  V30 3172 O 316.505 1.79971 0.0323026 0
M  V30 3173 H 312.88 0.706652 -0.25719 0
M  V30 3174 H 314.851 2.39514 -1.77976 0
M  V30 3175 C 313.6 3.45855 -0.357682 0
M  V30 3176 H 312.923 3.83214 -1.13961 0
M  V30 3177 H 314.363 4.23607 -0.182489 0
M  V30 3178 C 312.822 3.24062 0.921152 0
M  V30 3179 O 313.352 3.48813 1.9923 0
M  V30 3180 N 311.558 2.77539 0.86141 0
M  V30 3181 H 311.105 2.57598 -0.0104408 0
M  V30 3182 H 311.063 2.63337 1.71758 0
M  V30 3183 N 314.835 0.952656 1.25548 0
M  V30 3184 C 316.063 0.623496 1.97282 0
M  V30 3185 C 316.478 -0.803987 1.70826 0
M  V30 3186 O 315.835 -1.53755 0.983147 0
M  V30 3187 C 315.886 0.870209 3.5087 0
M  V30 3188 O 315.607 2.24156 3.76412 0
M  V30 3189 C 317.108 0.553164 4.39835 0
M  V30 3190 H 314.328 0.233931 0.628902 0
M  V30 3191 H 316.872 1.27649 1.59768 0
M  V30 3192 H 315.027 0.263652 3.86502 0
M  V30 3193 H 315.441 2.31021 4.70882 0
M  V30 3194 H 316.915 0.776342 5.46513 0
M  V30 3195 H 317.392 -0.512215 4.36203 0
M  V30 3196 H 317.998 1.13896 4.09766 0
M  V30 3197 N 316.313 -1.40141 0.720998 0
M  V30 3198 C 317.26 -2.30688 0.071919 0
M  V30 3199 C 318.23 -1.48476 -0.744584 0
M  V30 3200 O 319.415 -1.77201 -0.707423 0
M  V30 3201 C 316.555 -3.34724 -0.839855 0
M  V30 3202 C 315.668 -4.31998 -0.0122438 0
M  V30 3203 C 314.803 -5.23102 -0.923995 0
M  V30 3204 C 313.842 -6.12033 -0.0907969 0
M  V30 3205 N 312.979 -6.95537 -0.957718 0
M  V30 3206 H 317.819 -2.85628 0.849755 0
M  V30 3207 H 315.356 -1.40653 0.430726 0
M  V30 3208 H 317.314 -3.93618 -1.38279 0
M  V30 3209 H 315.944 -2.81274 -1.58381 0
M  V30 3210 H 314.996 -3.74841 0.64794 0
M  V30 3211 H 316.308 -4.94772 0.632595 0
M  V30 3212 H 315.462 -5.86953 -1.53527 0
M  V30 3213 H 314.201 -4.60615 -1.60264 0
M  V30 3214 H 313.206 -5.47207 0.533377 0
M  V30 3215 H 314.431 -6.76581 0.584428 0
M  V30 3216 H 312.377 -6.35633 -1.62192 0
M  V30 3217 H 312.294 -7.55099 -0.36904 0
M  V30 3218 H 313.562 -7.63832 -1.555 0
M  V30 3219 N 317.792 -0.46758 -1.50504 0
M  V30 3220 C 319.038 0.0887532 -2.02606 0
M  V30 3221 C 319.371 1.39686 -1.34913 0
M  V30 3222 O 318.646 1.88644 -0.473694 0
M  V30 3223 C 318.929 0.276206 -3.59039 0
M  V30 3224 C 318.782 -1.05267 -4.37309 0
M  V30 3225 C 320.101 1.03235 -4.27821 0
M  V30 3226 H 317.22 0.0307814 -0.736357 0
M  V30 3227 H 319.862 -0.612485 -1.79857 0
M  V30 3228 H 318.012 0.8735 -3.78553 0
M  V30 3229 H 319.684 -1.68628 -4.29374 0
M  V30 3230 H 317.927 -1.65015 -4.01189 0
M  V30 3231 H 318.598 -0.875197 -5.45018 0
M  V30 3232 H 321.074 0.526111 -4.12761 0
M  V30 3233 H 319.95 1.1323 -5.37094 0
M  V30 3234 H 320.211 2.06806 -3.90748 0
M  V30 3235 N 319.27 1.56325 -0.20005 0
M  V30 3236 C 320.547 1.89484 0.48529 0
M  V30 3237 C 320.927 1.1143 1.79294 0
M  V30 3238 O 320.275 0.216919 2.27468 0
M  V30 3239 C 320.485 3.41923 0.699243 0
M  V30 3240 C 321.833 4.12256 1.01638 0
M  V30 3241 O 322.857 3.47402 0.786792 0
M  V30 3242 O 321.716 5.26887 1.45095 0
M  V30 3243 H 318.81 0.787144 0.253639 0
M  V30 3244 H 321.356 1.67985 -0.240633 0
M  V30 3245 H 320.128 3.90658 -0.224008 0
M  V30 3246 H 319.751 3.69131 1.47744 0
M  V30 3247 N 320.748 -0.0735177 1.57428 0
M  V30 3248 C 321.695 -1.08756 2.0357 0
M  V30 3249 C 322.665 -1.38559 0.916 0
M  V30 3250 O 323.85 -1.49656 1.18354 0
M  V30 3251 C 320.99 -2.39657 2.48311 0
M  V30 3252 C 320.103 -2.16399 3.73892 0
M  V30 3253 C 319.238 -3.40852 4.07423 0
M  V30 3254 C 318.277 -3.1295 5.2605 0
M  V30 3255 N 317.414 -4.29729 5.55228 0
M  V30 3256 H 322.254 -0.687104 2.8997 0
M  V30 3257 H 319.791 -0.327709 1.43403 0
M  V30 3258 H 321.749 -3.16081 2.72303 0
M  V30 3259 H 320.379 -2.77508 1.64891 0
M  V30 3260 H 319.431 -1.30676 3.57251 0
M  V30 3261 H 320.743 -1.91788 4.60455 0
M  V30 3262 H 319.897 -4.25671 4.32306 0
M  V30 3263 H 318.636 -3.68537 3.19425 0
M  V30 3264 H 317.641 -2.26526 5.00965 0
M  V30 3265 H 318.866 -2.86589 6.15665 0
M  V30 3266 H 316.812 -4.57448 4.70188 0
M  V30 3267 H 316.729 -4.08385 6.36206 0
M  V30 3268 H 317.997 -5.1555 5.84661 0
M  V30 3269 N 322.226 -1.5378 -0.344866 0
M  V30 3270 C 323.454 -1.74899 -1.10534 0
M  V30 3271 C 323.869 -0.487534 -1.82397 0
M  V30 3272 O 323.226 0.540741 -1.74305 0
M  V30 3273 C 323.277 -2.92822 -2.11984 0
M  V30 3274 O 322.998 -4.14089 -1.43044 0
M  V30 3275 C 324.499 -3.25982 -3.00417 0
M  V30 3276 H 321.719 -0.584426 -0.329678 0
M  V30 3277 H 324.263 -2.006 -0.397474 0
M  V30 3278 H 322.418 -2.69457 -2.78338 0
M  V30 3279 H 322.832 -4.80272 -2.10805 0
M  V30 3280 H 324.306 -4.11848 -3.67539 0
M  V30 3281 H 324.783 -2.42228 -3.66363 0
M  V30 3282 H 325.389 -3.51349 -2.39654 0
M  V30 3283 N 323.704 0.605807 -1.45491 0
M  V30 3284 C 324.95 1.36679 -1.49823 0
M  V30 3285 C 325.283 1.93693 -0.140175 0
M  V30 3286 O 324.558 1.75158 0.845581 0
M  V30 3287 C 324.841 2.51337 -2.57879 0
M  V30 3288 C 324.694 1.99508 -4.03134 0
M  V30 3289 C 326.013 3.53463 -2.62205 0
M  V30 3290 H 323.132 0.495617 -0.545466 0
M  V30 3291 H 325.774 0.682732 -1.7731 0
M  V30 3292 H 323.924 3.09691 -2.34571 0
M  V30 3293 H 325.596 1.45789 -4.37656 0
M  V30 3294 H 323.839 1.30496 -4.13707 0
M  V30 3295 H 324.51 2.82169 -4.74431 0
M  V30 3296 H 326.986 3.04953 -2.83095 0
M  V30 3297 H 325.862 4.31178 -3.39672 0
M  V30 3298 H 326.123 4.09197 -1.67363 0
M  V30 3299 N 325.182 1.32811 0.848464 0
M  V30 3300 C 326.092 1.24278 1.98978 0
M  V30 3301 C 327.108 0.155176 1.73307 0
M  V30 3302 O 328.284 0.376999 1.9784 0
M  V30 3303 C 325.349 0.972444 3.32783 0
M  V30 3304 C 324.41 2.14911 3.71634 0
M  V30 3305 C 323.643 1.89157 4.99054 0
M  V30 3306 O 323.866 0.837165 5.64223 0
M  V30 3307 O 322.8 2.75433 5.35183 0
M  V30 3308 H 326.626 2.20238 2.09115 0
M  V30 3309 H 324.211 1.12762 0.980052 0
M  V30 3310 H 326.093 0.838432 4.12975 0
M  V30 3311 H 324.768 0.043051 3.23671 0
M  V30 3312 H 323.675 2.33862 2.91992 0
M  V30 3313 H 325.008 3.06151 3.85399 0
M  V30 3314 N 326.66 -1.06551 1.16123 0
M  V30 3315 C 328.076 -1.3142 0.905585 0
M  V30 3316 C 328.276 -1.96571 -0.442964 0
M  V30 3317 O 327.332 -2.23068 -1.18308 0
M  V30 3318 C 328.645 -2.19741 2.05267 0
M  V30 3319 C 330.193 -2.33165 2.08813 0
M  V30 3320 C 330.668 -3.24838 3.22868 0
M  V30 3321 N 332.159 -3.32421 3.22568 0
M  V30 3322 C 332.894 -4.0344 4.0746 0
M  V30 3323 N 332.39 -4.77003 5.02434 0
M  V30 3324 N 334.183 -3.99464 3.95456 0
M  V30 3325 H 326.334 -0.626548 2.02949 0
M  V30 3326 H 328.597 -0.338777 0.8854 0
M  V30 3327 H 328.303 -1.79142 3.02657 0
M  V30 3328 H 328.177 -3.20313 1.99198 0
M  V30 3329 H 330.564 -2.73013 1.12018 0
M  V30 3330 H 330.645 -1.3227 2.18948 0
M  V30 3331 H 330.289 -2.85708 4.19921 0
M  V30 3332 H 330.219 -4.25707 3.0997 0
M  V30 3333 H 332.71 -2.79994 2.53795 0
M  V30 3334 H 333.023 -5.28712 5.63634 0
M  V30 3335 H 331.368 -4.75992 5.06415 0
M  V30 3336 H 334.559 -3.4111 3.20564 0
M  V30 3337 H 334.732 -4.54544 4.61837 0
M  V30 3338 N 328.138 -0.959301 -1.25041 0
M  V30 3339 C 329.085 -0.482057 -2.2571 0
M  V30 3340 C 330.055 0.467939 -1.59372 0
M  V30 3341 O 331.24 0.380159 -1.86974 0
M  V30 3342 C 328.38 0.229623 -3.44335 0
M  V30 3343 C 327.493 -0.758156 -4.25295 0
M  V30 3344 C 326.628 -0.0234403 -5.31195 0
M  V30 3345 C 325.667 -1.00184 -6.03846 0
M  V30 3346 N 324.804 -0.29769 -7.01469 0
M  V30 3347 H 329.644 -1.34538 -2.65901 0
M  V30 3348 H 327.181 -0.674592 -1.3072 0
M  V30 3349 H 329.139 0.658856 -4.11965 0
M  V30 3350 H 327.769 1.05696 -3.05005 0
M  V30 3351 H 326.821 -1.30586 -3.57284 0
M  V30 3352 H 328.133 -1.50458 -4.75567 0
M  V30 3353 H 327.287 0.464201 -6.04922 0
M  V30 3354 H 326.026 0.755741 -4.81809 0
M  V30 3355 H 325.031 -1.50044 -5.2893 0
M  V30 3356 H 326.256 -1.78133 -6.55321 0
M  V30 3357 H 324.202 0.462668 -6.54366 0
M  V30 3358 H 324.119 -0.983128 -7.4958 0
M  V30 3359 H 325.387 0.16826 -7.79318 0
M  V30 3360 N 329.616 1.39756 -0.72842 0
M  V30 3361 C 330.856 2.025 -0.278078 0
M  V30 3362 C 331.22 1.5654 1.11173 0
M  V30 3363 O 332.421 2.11435 1.65978 0
M  V30 3364 C 330.692 3.55489 -0.369139 0
M  V30 3365 S 332.251 4.388 0.00232983 0
M  V30 3366 H 329.069 0.702534 -0.109391 0
M  V30 3367 H 331.671 1.70672 -0.95348 0
M  V30 3368 H 330.375 3.86429 -1.38204 0
M  V30 3369 H 329.906 3.92061 0.324308 0
M  V30 3370 H 331.921 4.80954 1.22055 0
M  V30 3371 N 331.094 0.475555 1.50254 0
M  V30 3372 C 332.334 -0.0765802 2.04256 0
M  V30 3373 C 332.698 -1.36587 1.34937 0
M  V30 3374 O 333.899 -2.00066 1.79519 0
M  V30 3375 C 332.17 -0.251668 3.56513 0
M  V30 3376 S 333.729 -0.761716 4.32138 0
M  V30 3377 H 330.547 -0.0138456 0.710865 0
M  V30 3378 H 333.149 0.643714 1.84598 0
M  V30 3379 H 331.853 0.692404 4.04517 0
M  V30 3380 H 331.384 -0.997946 3.80532 0
M  V30 3381 H 333.399 -2.03451 4.52573 0
M  V30 3382 N 332.573 -1.56217 0.208337 0
M  V30 3383 C 333.819 -1.98242 -0.427552 0
M  V30 3384 C 334.152 -1.09554 -1.60348 0
M  V30 3385 O 333.427 -0.15035 -1.93918 0
M  V30 3386 C 333.71 -3.4931 -0.874907 0
M  V30 3387 C 333.563 -4.48773 0.303751 0
M  V30 3388 C 334.882 -4.04424 -1.73577 0
M  V30 3389 H 332.001 -0.720744 -0.153936 0
M  V30 3390 H 334.643 -1.87586 0.30192 0
M  V30 3391 H 332.793 -3.58522 -1.49648 0
M  V30 3392 H 334.465 -4.51586 0.941682 0
M  V30 3393 H 332.708 -4.23194 0.953375 0
M  V30 3394 H 333.379 -5.51976 -0.0519883 0
M  V30 3395 H 335.855 -3.98075 -1.21143 0
M  V30 3396 H 334.731 -5.1047 -2.01771 0
M  V30 3397 H 334.992 -3.50494 -2.69456 0
M  V30 3398 N 334.051 0.0651679 -1.57465 0
M  V30 3399 C 334.961 1.09448 -2.07505 0
M  V30 3400 C 335.977 1.41974 -1.00595 0
M  V30 3401 O 337.153 1.52018 -1.32107 0
M  V30 3402 C 334.218 2.38689 -2.51453 0
M  V30 3403 C 333.279 2.13073 -3.72691 0
M  V30 3404 C 332.512 3.36152 -4.14533 0
M  V30 3405 O 332.735 4.45517 -3.56189 0
M  V30 3406 O 331.669 3.23974 -5.07272 0
M  V30 3407 H 335.495 0.69935 -2.95538 0
M  V30 3408 H 333.08 0.279752 -1.46757 0
M  V30 3409 H 334.962 3.14736 -2.80212 0
M  V30 3410 H 333.637 2.77568 -1.66546 0
M  V30 3411 H 332.544 1.34709 -3.49005 0
M  V30 3412 H 333.877 1.79071 -4.5847 0
M  V30 3413 N 335.529 1.53961 0.336706 0
M  V30 3414 C 336.769 1.73254 1.08454 0
M  V30 3415 C 337.133 0.488937 1.8567 0
M  V30 3416 O 338.334 0.559001 2.62923 0
M  V30 3417 C 336.605 2.96519 1.99528 0
M  V30 3418 S 338.164 3.36655 2.81441 0
M  V30 3419 H 334.982 0.609353 0.366347 0
M  V30 3420 H 337.584 1.92117 0.362124 0
M  V30 3421 H 336.288 3.85193 1.41614 0
M  V30 3422 H 335.819 2.80142 2.76196 0
M  V30 3423 H 337.834 2.90925 4.01967 0
M  V30 3424 N 337.007 -0.598083 1.45811 0
M  V30 3425 C 338.418 -1.18011 1.44673 0
M  V30 3426 C 338.769 -1.95378 0.179364 0
M  V30 3427 O 337.894 -2.04124 -0.718509 0
M  V30 3428 C 338.489 -2.14677 2.62105 0
M  V30 3429 C 337.048 -2.68236 2.64057 0
M  V30 3430 C 336.195 -1.43816 2.37091 0
M  V30 3431 H 339.146 -0.38686 1.53913 0
M  V30 3432 H 339.167 -2.97878 2.36746 0
M  V30 3433 H 338.679 -1.5834 3.5433 0
M  V30 3434 H 336.78 -3.28486 1.75864 0
M  V30 3435 H 336.893 -3.12021 3.63566 0
M  V30 3436 H 335.257 -1.731 1.86838 0
M  V30 3437 H 336.04 -0.893333 3.31473 0
M  V30 3438 N 338.485 -1.33259 -0.841409 0
M  V30 3439 C 339.896 -1.22066 -1.41269 0
M  V30 3440 C 340.247 0.161479 -1.95534 0
M  V30 3441 O 339.372 1.06094 -1.88608 0
M  V30 3442 C 339.967 -2.20996 -2.568 0
M  V30 3443 C 338.526 -2.13649 -3.09888 0
M  V30 3444 C 337.673 -2.08623 -1.82679 0
M  V30 3445 H 340.624 -1.44895 -0.647395 0
M  V30 3446 H 340.645 -1.81621 -3.34356 0
M  V30 3447 H 340.157 -3.2158 -2.17274 0
M  V30 3448 H 338.258 -1.16359 -3.53965 0
M  V30 3449 H 338.371 -3.04079 -3.70234 0
M  V30 3450 H 336.735 -1.54061 -2.02824 0
M  V30 3451 H 337.518 -3.1101 -1.45353 0
M  V30 3452 N 339.963 1.05934 -1.16686 0
M  V30 3453 C 341.203 1.80382 -0.961345 0
M  V30 3454 C 341.567 1.85331 0.501643 0
M  V30 3455 O 342.768 2.55795 0.825986 0
M  V30 3456 C 341.039 3.20777 -1.57596 0
M  V30 3457 S 342.598 4.11795 -1.51559 0
M  V30 3458 H 339.416 0.621332 -0.345641 0
M  V30 3459 H 342.018 1.27157 -1.48497 0
M  V30 3460 H 340.722 3.14773 -2.63337 0
M  V30 3461 H 340.253 3.79078 -1.05182 0
M  V30 3462 H 342.268 4.93485 -0.518374 0
M  V30 3463 N 341.441 0.965919 1.2453 0
M  V30 3464 C 342.852 0.665929 1.7442 0
M  V30 3465 C 343.203 -0.818407 1.78316 0
M  V30 3466 O 342.328 -1.64037 1.41141 0
M  V30 3467 C 342.923 1.20211 3.16757 0
M  V30 3468 C 341.482 0.952059 3.6416 0
M  V30 3469 C 340.629 1.33848 2.42858 0
M  V30 3470 H 343.58 1.14144 1.10258 0
M  V30 3471 H 343.601 0.567544 3.76244 0
M  V30 3472 H 343.113 2.28244 3.13889 0
M  V30 3473 H 341.214 -0.112821 3.72429 0
M  V30 3474 H 341.327 1.59645 4.51719 0
M  V30 3475 H 339.691 0.756864 2.43195 0
M  V30 3476 H 340.474 2.42827 2.42673 0
M  V30 3477 N 342.919 -1.39368 0.735821 0
M  V30 3478 C 343.882 -2.2896 0.104874 0
M  V30 3479 C 344.882 -1.46347 -0.666274 0
M  V30 3480 O 346.072 -1.67014 -0.49517 0
M  V30 3481 C 343.204 -3.29857 -0.860656 0
M  V30 3482 H 344.397 -2.86259 0.894205 0
M  V30 3483 H 341.95 -1.48029 0.501704 0
M  V30 3484 H 342.685 -2.77615 -1.67631 0
M  V30 3485 H 342.47 -3.9087 -0.310327 0
M  V30 3486 H 343.96 -3.96893 -1.29867 0
M  V30 3487 N 344.397 -0.483516 -1.5 0
M  V30 3488 C 345.808 -0.0314176 -1.86674 0
M  V30 3489 C 346.159 1.37728 -1.39733 0
M  V30 3490 O 345.284 2.02327 -0.767635 0
M  V30 3491 C 345.879 -0.0502376 -3.38763 0
M  V30 3492 C 344.438 0.346442 -3.74802 0
M  V30 3493 C 343.585 -0.430366 -2.7394 0
M  V30 3494 H 346.536 -0.697182 -1.42566 0
M  V30 3495 H 346.557 0.749116 -3.73053 0
M  V30 3496 H 346.069 -1.07563 -3.72897 0
M  V30 3497 H 344.17 1.37572 -3.46273 0
M  V30 3498 H 344.283 0.0391486 -4.79084 0
M  V30 3499 H 342.647 0.117557 -2.54429 0
M  V30 3500 H 343.43 -1.4555 -3.10918 0
M  V30 3501 N 345.875 1.56104 -0.216619 0
M  V30 3502 C 347.286 1.844 0.292128 0
M  V30 3503 C 347.637 1.13788 1.59833 0
M  V30 3504 O 346.762 0.405888 2.12559 0
M  V30 3505 C 347.357 3.3452 0.53681 0
M  V30 3506 C 345.916 3.63151 0.989876 0
M  V30 3507 C 345.063 2.77255 0.0502302 0
M  V30 3508 H 348.014 1.52481 -0.439926 0
M  V30 3509 H 348.035 3.54459 1.38345 0
M  V30 3510 H 347.547 3.85885 -0.414031 0
M  V30 3511 H 345.648 3.17238 1.95425 0
M  V30 3512 H 345.761 4.71177 0.867698 0
M  V30 3513 H 344.125 2.48555 0.556117 0
M  V30 3514 H 344.908 3.31416 -0.89544 0
M  V30 3515 N 347.353 -0.0568162 1.57498 0
M  V30 3516 C 348.599 -0.75422 1.88253 0
M  V30 3517 C 348.932 -1.76461 0.810865 0
M  V30 3518 O 348.207 -1.93691 -0.177259 0
M  V30 3519 C 348.49 -1.44878 3.2967 0
M  V30 3520 C 348.343 -0.453789 4.47505 0
M  V30 3521 C 349.662 -2.38994 3.69554 0
M  V30 3522 H 346.781 -0.272724 0.684683 0
M  V30 3523 H 349.423 -0.0172113 1.89992 0
M  V30 3524 H 347.573 -2.077 3.28318 0
M  V30 3525 H 349.245 0.170371 4.60985 0
M  V30 3526 H 347.488 0.229552 4.33192 0
M  V30 3527 H 348.159 -0.977699 5.43273 0
M  V30 3528 H 350.635 -1.86239 3.72095 0
M  V30 3529 H 349.511 -2.84587 4.69363 0
M  V30 3530 H 349.772 -3.24461 3.00296 0
M  V30 3531 N 348.832 -1.54138 -0.328536 0
M  V30 3532 C 349.795 -1.82462 -1.38709 0
M  V30 3533 C 350.795 -0.696229 -1.44946 0
M  V30 3534 O 351.985 -0.964535 -1.4506 0
M  V30 3535 C 349.117 -1.98018 -2.77492 0
M  V30 3536 H 350.31 -2.77037 -1.14851 0
M  V30 3537 H 347.863 -1.45779 -0.563751 0
M  V30 3538 H 348.598 -1.05637 -3.06613 0
M  V30 3539 H 348.383 -2.80124 -2.74359 0
M  V30 3540 H 349.873 -2.21396 -3.54081 0
M  V30 3541 N 350.31 0.590341 -1.46126 0
M  V30 3542 C 351.558 1.34616 -1.50742 0
M  V30 3543 C 351.879 1.94363 -0.157486 0
M  V30 3544 O 351.149 1.78136 0.815136 0
M  V30 3545 H 349.729 0.499789 -0.555175 0
M  V30 3546 H 352.391 0.691953 -1.82203 0
M  V30 3547 H 351.487 2.15678 -2.25587 0
M  V30 3548 N 351.788 1.33704 0.83433 0
M  V30 3549 C 353.199 1.22813 1.4062 0
M  V30 3550 C 353.55 -0.151107 1.95617 0
M  V30 3551 O 352.675 -1.05092 1.89168 0
M  V30 3552 C 353.27 2.22355 2.55624 0
M  V30 3553 C 351.829 2.1529 3.08751 0
M  V30 3554 C 350.976 2.09589 1.8157 0
M  V30 3555 H 353.927 1.45236 0.639702 0
M  V30 3556 H 353.948 1.83391 3.33389 0
M  V30 3557 H 353.46 3.22728 2.15566 0
M  V30 3558 H 351.561 1.18235 3.53343 0
M  V30 3559 H 351.674 3.06038 3.68616 0
M  V30 3560 H 350.038 1.55134 2.02004 0
M  V30 3561 H 350.821 3.11777 1.43701 0
M  V30 3562 N 353.266 -1.05314 1.17247 0
M  V30 3563 C 354.491 -1.82509 0.985148 0
M  V30 3564 C 354.916 -1.82343 -0.461788 0
M  V30 3565 O 354.274 -1.23151 -1.33055 0
M  V30 3566 C 354.322 -3.26566 1.52929 0
M  V30 3567 O 353.426 -4.05666 0.742225 0
M  V30 3568 H 352.767 -0.564347 0.349869 0
M  V30 3569 H 355.297 -1.32718 1.55715 0
M  V30 3570 H 355.307 -3.77369 1.55103 0
M  V30 3571 H 353.982 -3.26001 2.58256 0
M  V30 3572 H 352.559 -3.64397 0.791794 0
M  V30 3573 N 354.744 -0.972509 -1.24016 0
M  V30 3574 C 355.99 -0.637978 -1.92504 0
M  V30 3575 C 356.323 0.825383 -1.75787 0
M  V30 3576 O 355.598 1.59442 -1.11393 0
M  V30 3577 C 355.881 -1.01942 -3.45369 0
M  V30 3578 C 355.734 -2.53983 -3.71231 0
M  V30 3579 C 357.053 -0.55751 -4.36555 0
M  V30 3580 H 354.172 -0.233248 -0.699117 0
M  V30 3581 H 356.814 -1.21238 -1.46292 0
M  V30 3582 H 354.964 -0.530656 -3.84859 0
M  V30 3583 H 356.636 -3.10374 -3.41271 0
M  V30 3584 H 354.879 -2.96968 -3.16216 0
M  V30 3585 H 355.55 -2.75723 -4.78206 0
M  V30 3586 H 358.026 -0.977029 -4.04467 0
M  V30 3587 H 356.902 -0.85292 -5.42233 0
M  V30 3588 H 357.163 0.542328 -4.38761 0
M  V30 3589 N 356.222 1.38976 -0.743202 0
M  V30 3590 C 357.469 2.00343 -0.294752 0
M  V30 3591 C 357.797 1.58983 1.12047 0
M  V30 3592 O 357.052 0.813809 1.77977 0
M  V30 3593 C 357.351 3.55647 -0.353517 0
M  V30 3594 C 357.017 4.16685 -1.72292 0
M  V30 3595 C 355.679 4.3307 -2.09771 0
M  V30 3596 C 358.031 4.50464 -2.62168 0
M  V30 3597 C 355.359 4.80526 -3.36618 0
M  V30 3598 C 357.711 4.99332 -3.88395 0
M  V30 3599 C 356.375 5.13924 -4.25956 0
M  V30 3600 H 355.645 0.733108 -0.107857 0
M  V30 3601 H 358.292 1.6618 -0.951651 0
M  V30 3602 H 356.597 3.89884 0.386954 0
M  V30 3603 H 358.294 4.00998 0.0117269 0
M  V30 3604 H 354.884 4.04339 -1.42155 0
M  V30 3605 H 359.068 4.37416 -2.3448 0
M  V30 3606 H 354.324 4.90008 -3.65653 0
M  V30 3607 H 358.498 5.2444 -4.58187 0
M  V30 3608 H 356.125 5.50457 -5.2431 0
M  V30 3609 N 357.7 0.491464 1.49741 0
M  V30 3610 C 358.63 -0.28154 2.31796 0
M  V30 3611 C 359.611 -0.971473 1.3963 0
M  V30 3612 O 360.796 -0.964719 1.68543 0
M  V30 3613 C 357.926 -1.35203 3.19902 0
M  V30 3614 C 356.88 -0.782529 4.20786 0
M  V30 3615 C 356.206 -1.95283 4.97764 0
M  V30 3616 C 357.506 0.21999 5.21837 0
M  V30 3617 H 359.2 0.403355 2.96671 0
M  V30 3618 H 356.746 0.195425 1.42668 0
M  V30 3619 H 358.699 -1.90045 3.76113 0
M  V30 3620 H 357.423 -2.06598 2.52953 0
M  V30 3621 H 356.082 -0.255928 3.65706 0
M  V30 3622 H 355.73 -2.65423 4.2727 0
M  V30 3623 H 355.43 -1.57789 5.66018 0
M  V30 3624 H 356.954 -2.50577 5.56816 0
M  V30 3625 H 358.368 -0.23996 5.72798 0
M  V30 3626 H 356.765 0.51026 5.97927 0
M  V30 3627 H 357.835 1.13911 4.7133 0
M  V30 3628 N 359.178 -1.55987 0.224894 0
M  V30 3629 C 360.425 -1.9839 -0.4059 0
M  V30 3630 C 360.753 -1.11261 -1.59535 0
M  V30 3631 O 360.008 -0.158314 -1.95059 0
M  V30 3632 C 360.307 -3.46394 -0.880106 0
M  V30 3633 C 359.973 -4.5046 0.19918 0
M  V30 3634 C 358.635 -4.7864 0.495661 0
M  V30 3635 C 360.987 -5.12855 0.928939 0
M  V30 3636 C 358.315 -5.66497 1.52636 0
M  V30 3637 C 360.667 -6.01828 1.949 0
M  V30 3638 C 359.331 -6.28351 2.25236 0
M  V30 3639 H 358.601 -0.725961 -0.148529 0
M  V30 3640 H 361.248 -1.88668 0.328113 0
M  V30 3641 H 359.553 -3.53337 -1.69294 0
M  V30 3642 H 361.25 -3.76577 -1.37808 0
M  V30 3643 H 357.84 -4.28579 -0.0420526 0
M  V30 3644 H 362.024 -4.9115 0.713129 0
M  V30 3645 H 357.28 -5.8531 1.76698 0
M  V30 3646 H 361.454 -6.49225 2.51951 0
M  V30 3647 H 359.081 -6.96226 3.05244 0
M  V30 3648 N 360.656 0.0484629 -1.57525 0
M  V30 3649 C 362.067 0.597486 -1.76881 0
M  V30 3650 C 362.418 1.76664 -0.853475 0
M  V30 3651 O 361.543 2.16357 -0.0433656 0
M  V30 3652 C 362.138 1.09066 -3.20765 0
M  V30 3653 C 360.697 1.58535 -3.41385 0
M  V30 3654 C 359.844 0.514868 -2.72478 0
M  V30 3655 H 362.795 -0.177758 -1.57701 0
M  V30 3656 H 362.816 1.95875 -3.2621 0
M  V30 3657 H 362.328 0.239521 -3.8736 0
M  V30 3658 H 360.429 2.45898 -2.79937 0
M  V30 3659 H 360.542 1.64622 -4.49929 0
M  V30 3660 H 358.906 0.965407 -2.35695 0
M  V30 3661 H 359.689 -0.32648 -3.41744 0
M  V30 3662 N 362.134 1.5431 0.320358 0
M  V30 3663 C 363.545 1.63872 0.894594 0
M  V30 3664 C 363.896 0.534847 1.88769 0
M  V30 3665 O 363.021 -0.331732 2.13842 0
M  V30 3666 C 363.616 2.97049 1.62934 0
M  V30 3667 C 362.175 3.08796 2.15226 0
M  V30 3668 C 361.322 2.59456 0.978671 0
M  V30 3669 H 364.273 1.58398 0.0978544 0
M  V30 3670 H 364.294 2.87388 2.49376 0
M  V30 3671 H 363.806 3.7737 0.906302 0
M  V30 3672 H 361.907 2.33156 2.90636 0
M  V30 3673 H 362.02 4.14649 2.40006 0
M  V30 3674 H 360.384 2.1543 1.35875 0
M  V30 3675 H 361.167 3.42237 0.269895 0
M  V30 3676 N 363.613 -0.582584 1.46437 0
M  V30 3677 C 364.56 -1.69164 1.5701 0
M  V30 3678 C 365.53 -1.60847 0.414403 0
M  V30 3679 O 366.715 -1.80058 0.631171 0
M  V30 3680 C 363.855 -3.075 1.56646 0
M  V30 3681 C 362.968 -3.2644 2.82951 0
M  V30 3682 C 362.103 -4.55026 2.7409 0
M  V30 3683 C 361.142 -4.6731 3.95333 0
M  V30 3684 N 360.279 -5.87221 3.84858 0
M  V30 3685 H 365.119 -1.59464 2.51744 0
M  V30 3686 H 362.656 -0.777186 1.24893 0
M  V30 3687 H 364.614 -3.8757 1.5442 0
M  V30 3688 H 363.244 -3.16096 0.654439 0
M  V30 3689 H 362.296 -2.39974 2.95155 0
M  V30 3690 H 363.608 -3.31385 3.72808 0
M  V30 3691 H 362.762 -5.43324 2.6997 0
M  V30 3692 H 361.501 -4.52519 1.81873 0
M  V30 3693 H 360.506 -3.77429 3.99784 0
M  V30 3694 H 361.731 -4.71595 4.88646 0
M  V30 3695 H 359.677 -5.85712 2.95427 0
M  V30 3696 H 359.594 -5.93435 4.6837 0
M  V30 3697 H 360.862 -6.7795 3.84713 0
M  V30 3698 N 365.091 -1.34144 -0.827227 0
M  V30 3699 C 366.502 -1.23557 -1.39966 0
M  V30 3700 C 366.853 0.140731 -1.95695 0
M  V30 3701 O 365.978 1.04087 -1.89723 0
M  V30 3702 C 366.573 -2.23708 -2.54441 0
M  V30 3703 C 365.132 -2.16924 -3.07605 0
M  V30 3704 C 364.279 -2.10549 -1.80456 0
M  V30 3705 H 367.23 -1.45573 -0.631991 0
M  V30 3706 H 367.251 -1.85157 -3.32411 0
M  V30 3707 H 366.763 -3.23866 -2.13851 0
M  V30 3708 H 364.864 -1.20107 -3.52711 0
M  V30 3709 H 364.977 -3.07988 -3.66988 0
M  V30 3710 H 363.341 -1.56203 -2.01178 0
M  V30 3711 H 364.124 -3.12535 -1.42046 0
M  V30 3712 N 366.569 1.04691 -1.17803 0
M  V30 3713 C 367.516 2.12557 -0.899343 0
M  V30 3714 C 368.486 1.65339 0.158771 0
M  V30 3715 O 369.671 1.90789 0.0204797 0
M  V30 3716 C 366.811 3.42481 -0.424315 0
M  V30 3717 C 365.924 4.03346 -1.54713 0
M  V30 3718 C 365.059 5.21208 -1.02546 0
M  V30 3719 C 364.098 5.74089 -2.12339 0
M  V30 3720 N 363.235 6.83247 -1.61612 0
M  V30 3721 H 368.075 2.35734 -1.823 0
M  V30 3722 H 365.612 1.1564 -0.909159 0
M  V30 3723 H 367.57 4.16996 -0.130421 0
M  V30 3724 H 366.2 3.19471 0.462377 0
M  V30 3725 H 365.252 3.2622 -1.95664 0
M  V30 3726 H 366.564 4.38628 -2.37501 0
M  V30 3727 H 365.718 6.02812 -0.685718 0
M  V30 3728 H 364.457 4.87414 -0.167084 0
M  V30 3729 H 363.462 4.91111 -2.47165 0
M  V30 3730 H 364.687 6.0993 -2.98601 0
M  V30 3731 H 362.633 6.5134 -0.780533 0
M  V30 3732 H 362.55 7.17559 -2.38003 0
M  V30 3733 H 363.818 7.68491 -1.30545 0
M  V30 3734 N 368.047 0.979072 1.23499 0
M  V30 3735 C 369.324 0.563674 1.87302 0
M  V30 3736 C 369.704 -0.959199 1.88049 0
M  V30 3737 O 369.052 -1.83535 1.36114 0
M  V30 3738 C 369.262 1.16822 3.28867 0
M  V30 3739 C 370.61 1.26014 4.0547 0
M  V30 3740 O 371.634 1.12158 3.38082 0
M  V30 3741 O 370.493 1.48044 5.26066 0
M  V30 3742 H 367.587 0.189602 0.804972 0
M  V30 3743 H 370.133 1.07407 1.31384 0
M  V30 3744 H 368.905 2.21049 3.22883 0
M  V30 3745 H 368.528 0.642564 3.92373 0
M  V30 3746 N 369.525 -1.3858 0.750561 0
M  V30 3747 C 370.753 -2.04471 0.316098 0
M  V30 3748 C 371.168 -1.56606 -1.05452 0
M  V30 3749 O 370.525 -0.737784 -1.66922 0
M  V30 3750 C 370.576 -3.60025 0.326275 0
M  V30 3751 O 370.297 -4.06133 1.6428 0
M  V30 3752 C 371.798 -4.43131 -0.122429 0
M  V30 3753 H 369.018 -0.65717 0.135528 0
M  V30 3754 H 371.562 -1.77329 1.01857 0
M  V30 3755 H 369.717 -3.86014 -0.327431 0
M  V30 3756 H 370.131 -5.00547 1.56693 0
M  V30 3757 H 371.605 -5.51963 -0.0641473 0
M  V30 3758 H 372.082 -4.23333 -1.16988 0
M  V30 3759 H 372.688 -4.22323 0.50229 0
M  V30 3760 N 371.003 -0.499398 -1.49478 0
M  V30 3761 C 371.933 0.269244 -2.31943 0
M  V30 3762 C 372.914 0.964054 -1.40143 0
M  V30 3763 O 374.099 0.955767 -1.69052 0
M  V30 3764 C 371.229 1.33504 -3.20615 0
M  V30 3765 C 370.183 0.760202 -4.21195 0
M  V30 3766 C 369.509 1.9264 -4.98792 0
M  V30 3767 C 370.809 -0.247661 -5.21712 0
M  V30 3768 H 372.503 -0.419082 -2.96452 0
M  V30 3769 H 370.049 -0.202988 -1.42562 0
M  V30 3770 H 372.002 1.88048 -3.77115 0
M  V30 3771 H 370.726 2.05253 -2.54045 0
M  V30 3772 H 369.385 0.23653 -3.65836 0
M  V30 3773 H 369.033 2.63154 -4.28671 0
M  V30 3774 H 368.733 1.54785 -5.66847 0
M  V30 3775 H 370.257 2.4762 -5.58137 0
M  V30 3776 H 371.671 0.209579 -5.72917 0
M  V30 3777 H 370.068 -0.541962 -5.97648 0
M  V30 3778 H 371.138 -1.16409 -4.7072 0
M  V30 3779 N 372.481 1.55866 -0.233164 0
M  V30 3780 C 373.414 2.16794 0.712442 0
M  V30 3781 C 374.392 1.1158 1.18273 0
M  V30 3782 O 375.576 1.39897 1.26337 0
M  V30 3783 C 372.703 2.75757 1.96661 0
M  V30 3784 C 371.749 3.93902 1.63533 0
M  V30 3785 S 372.582 5.30223 0.74995 0
M  V30 3786 C 373.738 5.92631 2.01343 0
M  V30 3787 H 373.971 2.96662 0.194617 0
M  V30 3788 H 371.504 1.5439 -0.0177425 0
M  V30 3789 H 373.462 3.10367 2.68668 0
M  V30 3790 H 372.123 1.9586 2.45556 0
M  V30 3791 H 371.316 4.33702 2.56747 0
M  V30 3792 H 370.918 3.60499 0.995804 0
M  V30 3793 H 373.21 6.09312 2.96219 0
M  V30 3794 H 374.153 6.88388 1.65915 0
M  V30 3795 H 374.561 5.21571 2.15925 0
M  V30 3796 N 373.959 -0.0401083 1.57549 0
M  V30 3797 C 375.208 -0.732108 1.87944 0
M  V30 3798 C 375.521 -1.77107 0.830206 0
M  V30 3799 O 376.727 -2.51488 1.02302 0
M  V30 3800 C 375.183 -1.35315 3.33494 0
M  V30 3801 C 374.791 -0.351105 4.46622 0
M  V30 3802 C 376.535 -2.02566 3.73051 0
M  V30 3803 C 374.442 -0.979859 5.83226 0
M  V30 3804 H 373.372 -0.277188 0.701201 0
M  V30 3805 H 376.023 0.0138501 1.83495 0
M  V30 3806 H 374.405 -2.14844 3.32653 0
M  V30 3807 H 375.579 0.416674 4.58912 0
M  V30 3808 H 373.894 0.218708 4.15825 0
M  V30 3809 H 376.491 -2.50441 4.72423 0
M  V30 3810 H 376.834 -2.83904 3.04474 0
M  V30 3811 H 377.367 -1.29827 3.76018 0
M  V30 3812 H 374.106 -0.206135 6.55176 0
M  V30 3813 H 373.626 -1.71774 5.74677 0
M  V30 3814 H 375.305 -1.49046 6.29599 0
M  V30 3815 N 375.437 -1.54477 -0.31217 0
M  V30 3816 C 376.662 -1.77526 -1.07235 0
M  V30 3817 C 377.087 -0.527775 -1.80544 0
M  V30 3818 O 376.445 0.52121 -1.73646 0
M  V30 3819 C 376.493 -2.97535 -2.03728 0
M  V30 3820 O 375.597 -2.69878 -3.11833 0
M  V30 3821 H 374.938 -0.58792 -0.30862 0
M  V30 3822 H 377.468 -2.01532 -0.352993 0
M  V30 3823 H 377.478 -3.25198 -2.46395 0
M  V30 3824 H 376.153 -3.87996 -1.49774 0
M  V30 3825 H 374.73 -2.53199 -2.7376 0
M  V30 3826 N 376.915 0.57481 -1.46744 0
M  V30 3827 C 378.331 0.898981 -1.31873 0
M  V30 3828 C 378.531 1.99313 -0.29605 0
M  V30 3829 O 377.587 2.50728 0.298621 0
M  V30 3830 C 378.9 1.30886 -2.7072 0
M  V30 3831 C 380.448 1.42127 -2.78871 0
M  V30 3832 C 380.923 1.86478 -4.18318 0
M  V30 3833 N 382.414 1.93658 -4.20774 0
M  V30 3834 C 383.149 2.29267 -5.2557 0
M  V30 3835 N 382.645 2.63612 -6.40688 0
M  V30 3836 N 384.438 2.29889 -5.1294 0
M  V30 3837 H 376.589 -0.147839 -2.11885 0
M  V30 3838 H 378.852 -0.00347013 -0.947994 0
M  V30 3839 H 378.558 0.578853 -3.46904 0
M  V30 3840 H 378.432 2.26874 -3.01343 0
M  V30 3841 H 380.819 2.14213 -2.0297 0
M  V30 3842 H 380.9 0.443705 -2.51922 0
M  V30 3843 H 380.544 1.14968 -4.94717 0
M  V30 3844 H 380.474 2.85207 -4.42679 0
M  V30 3845 H 382.965 1.69574 -3.37718 0
M  V30 3846 H 383.278 2.89759 -7.16421 0
M  V30 3847 H 381.623 2.61232 -6.44036 0
M  V30 3848 H 384.814 2.02485 -4.22039 0
M  V30 3849 H 384.987 2.57312 -5.94722 0
M  V30 3850 N 378.394 1.34581 0.820102 0
M  V30 3851 C 379.622 1.3018 1.60813 0
M  V30 3852 C 380.037 -0.123551 1.88395 0
M  V30 3853 O 379.394 -1.07148 1.47735 0
M  V30 3854 C 379.445 2.09312 2.94739 0
M  V30 3855 O 379.166 3.46288 2.68358 0
M  V30 3856 C 380.667 2.1234 3.89136 0
M  V30 3857 H 377.887 0.447726 0.499782 0
M  V30 3858 H 380.431 1.77237 1.02017 0
M  V30 3859 H 378.586 1.65889 3.50085 0
M  V30 3860 H 379 3.87227 3.53774 0
M  V30 3861 H 380.474 2.72126 4.80262 0
M  V30 3862 H 380.951 1.11854 4.24718 0
M  V30 3863 H 381.557 2.55864 3.39726 0
M  V30 3864 N 379.872 -1.04064 1.18357 0
M  V30 3865 C 381.283 -1.58719 0.98312 0
M  V30 3866 C 381.634 -1.90556 -0.467193 0
M  V30 3867 O 380.759 -1.69561 -1.34454 0
M  V30 3868 C 381.354 -2.88379 1.77828 0
M  V30 3869 C 379.913 -3.3965 1.62218 0
M  V30 3870 C 379.06 -2.13235 1.77274 0
M  V30 3871 H 382.011 -0.867359 1.32901 0
M  V30 3872 H 382.032 -3.58773 1.26737 0
M  V30 3873 H 381.544 -2.65176 2.83379 0
M  V30 3874 H 379.645 -3.67866 0.592036 0
M  V30 3875 H 379.758 -4.13475 2.42023 0
M  V30 3876 H 378.122 -2.24542 1.20221 0
M  V30 3877 H 378.905 -1.92487 2.8426 0
M  V30 3878 N 381.35 -0.985608 -1.22978 0
M  V30 3879 C 382.26 -0.538548 -2.28335 0
M  V30 3880 C 383.276 0.409163 -1.69121 0
M  V30 3881 O 384.452 0.277797 -1.99475 0
M  V30 3882 C 381.517 0.146867 -3.46389 0
M  V30 3883 C 380.578 -0.842896 -4.20944 0
M  V30 3884 C 379.811 -0.190095 -5.33361 0
M  V30 3885 O 380.034 1.01767 -5.61248 0
M  V30 3886 O 378.968 -0.891289 -5.95264 0
M  V30 3887 H 382.794 -1.41487 -2.68729 0
M  V30 3888 H 380.379 -0.753495 -1.29007 0
M  V30 3889 H 382.261 0.531125 -4.1804 0
M  V30 3890 H 380.936 0.997871 -3.07935 0
M  V30 3891 H 379.843 -1.27795 -3.51595 0
M  V30 3892 H 381.176 -1.66287 -4.6326 0
M  V30 3893 N 382.828 1.3818 -0.7579 0
M  V30 3894 C 384.074 2.00316 -0.316453 0
M  V30 3895 C 384.407 1.60026 1.10025 0
M  V30 3896 O 383.682 0.839835 1.75434 0
M  V30 3897 C 383.965 3.57349 -0.444245 0
M  V30 3898 C 383.818 4.07591 -1.90236 0
M  V30 3899 C 385.137 4.3981 0.1598 0
M  V30 3900 H 382.256 0.727741 -0.116459 0
M  V30 3901 H 384.898 1.6406 -0.958352 0
M  V30 3902 H 383.048 3.88365 0.102233 0
M  V30 3903 H 384.72 3.87199 -2.50748 0
M  V30 3904 H 382.963 3.60297 -2.41595 0
M  V30 3905 H 383.634 5.16677 -1.94291 0
M  V30 3906 H 386.11 4.14971 -0.306314 0
M  V30 3907 H 384.986 5.48885 0.0401675 0
M  V30 3908 H 385.247 4.24102 1.24859 0
M  V30 3909 N 384.306 0.507319 1.49211 0
M  V30 3910 C 385.534 -0.0315749 2.06876 0
M  V30 3911 C 385.949 -1.30241 1.36685 0
M  V30 3912 O 385.306 -1.76937 0.447152 0
M  V30 3913 C 385.357 -0.282627 3.60393 0
M  V30 3914 O 385.078 0.937835 4.27944 0
M  V30 3915 C 386.579 -0.864453 4.3479 0
M  V30 3916 H 383.799 0.0233048 0.670595 0
M  V30 3917 H 386.343 0.706484 1.91909 0
M  V30 3918 H 384.498 -0.97068 3.75042 0
M  V30 3919 H 384.912 0.704567 5.19746 0
M  V30 3920 H 386.386 -0.989664 5.43056 0
M  V30 3921 H 386.863 -1.86382 3.97692 0
M  V30 3922 H 387.469 -0.213672 4.24763 0
M  V30 3923 N 385.784 -1.5574 0.241426 0
M  V30 3924 C 387.024 -2.00714 -0.38644 0
M  V30 3925 C 387.388 -1.12586 -1.55526 0
M  V30 3926 O 388.589 -1.46992 -2.25048 0
M  V30 3927 C 386.86 -3.48534 -0.791128 0
M  V30 3928 S 388.419 -4.15519 -1.41029 0
M  V30 3929 H 385.237 -0.700484 -0.121834 0
M  V30 3930 H 387.839 -1.92243 0.355377 0
M  V30 3931 H 386.543 -4.10342 0.0689225 0
M  V30 3932 H 386.074 -3.6092 -1.56526 0
M  V30 3933 H 388.089 -4.16352 -2.69936 0
M  V30 3934 N 387.262 0.0317525 -1.57568 0
M  V30 3935 C 388.508 0.724175 -1.8943 0
M  V30 3936 C 388.841 1.75149 -0.838836 0
M  V30 3937 O 388.116 1.93948 0.146422 0
M  V30 3938 C 388.399 1.39615 -3.31933 0
M  V30 3939 C 388.252 0.382537 -4.4817 0
M  V30 3940 C 389.571 2.33084 -3.73309 0
M  V30 3941 H 386.69 0.261797 -0.688935 0
M  V30 3942 H 389.332 -0.013017 -1.89996 0
M  V30 3943 H 387.482 2.02451 -3.31581 0
M  V30 3944 H 389.154 -0.243689 -4.60656 0
M  V30 3945 H 387.397 -0.29844 -4.32772 0
M  V30 3946 H 388.068 0.891145 -5.44759 0
M  V30 3947 H 390.544 1.80295 -3.7501 0
M  V30 3948 H 389.42 2.77084 -4.73831 0
M  V30 3949 H 389.681 3.19643 -3.05419 0
M  V30 3950 N 388.74 1.54641 0.303973 0
M  V30 3951 C 389.986 1.74038 1.04109 0
M  V30 3952 C 390.319 0.523051 1.87024 0
M  V30 3953 O 389.594 -0.479874 1.88487 0
M  V30 3954 C 389.877 3.02761 1.94955 0
M  V30 3955 C 389.73 4.34787 1.1524 0
M  V30 3956 C 391.049 3.27336 2.94175 0
M  V30 3957 H 388.168 0.63323 0.377079 0
M  V30 3958 H 390.81 1.87354 0.316001 0
M  V30 3959 H 388.96 2.9154 2.56782 0
M  V30 3960 H 390.632 4.57922 0.557236 0
M  V30 3961 H 388.875 4.31407 0.455053 0
M  V30 3962 H 389.546 5.21116 1.8205 0
M  V30 3963 H 392.022 3.38148 2.42477 0
M  V30 3964 H 390.898 4.18726 3.54908 0
M  V30 3965 H 391.159 2.45491 3.67677 0
M  V30 3966 N 390.218 -0.567019 1.47046 0
M  V30 3967 C 391.464 -1.32658 1.53394 0
M  V30 3968 C 391.797 -1.93254 0.19148 0
M  V30 3969 O 391.072 -1.77338 -0.798844 0
M  V30 3970 C 391.355 -2.44412 2.64452 0
M  V30 3971 C 391.208 -1.88749 4.08282 0
M  V30 3972 C 392.527 -3.46387 2.71485 0
M  V30 3973 H 389.646 -0.48098 0.558415 0
M  V30 3974 H 392.288 -0.635481 1.79058 0
M  V30 3975 H 390.438 -3.03363 2.427 0
M  V30 3976 H 392.11 -1.34134 4.41368 0
M  V30 3977 H 390.353 -1.19481 4.17021 0
M  V30 3978 H 391.024 -2.69491 4.81745 0
M  V30 3979 H 393.5 -2.9734 2.91081 0
M  V30 3980 H 392.376 -4.2202 3.50985 0
M  V30 3981 H 392.637 -4.04616 1.78153 0
M  V30 3982 N 391.696 -1.35014 -0.812953 0
M  V30 3983 C 392.973 -1.18502 -1.55617 0
M  V30 3984 C 393.353 0.238421 -2.09749 0
M  V30 3985 O 392.701 1.2411 -1.91857 0
M  V30 3986 C 392.911 -2.24783 -2.66971 0
M  V30 3987 C 394.259 -2.60268 -3.35478 0
M  V30 3988 O 395.283 -2.23648 -2.77236 0
M  V30 3989 O 394.142 -3.2321 -4.40678 0
M  V30 3990 H 391.236 -0.459984 -0.687272 0
M  V30 3991 H 393.782 -1.46677 -0.853464 0
M  V30 3992 H 392.554 -3.20284 -2.24798 0
M  V30 3993 H 392.177 -1.97841 -3.44884 0
M  V30 3994 N 393.175 1.03435 -1.18907 0
M  V30 3995 C 394.421 1.77005 -0.989798 0
M  V30 3996 C 394.754 1.88205 0.478816 0
M  V30 3997 O 394.029 1.39481 1.35556 0
M  V30 3998 C 394.312 3.19925 -1.65287 0
M  V30 3999 C 394.165 3.1663 -3.19477 0
M  V30 4000 C 395.484 4.18189 -1.37134 0
M  V30 4001 H 392.603 0.642538 -0.360991 0
M  V30 4002 H 395.245 1.20784 -1.46667 0
M  V30 4003 H 393.395 3.67929 -1.24741 0
M  V30 4004 H 395.067 2.76567 -3.692 0
M  V30 4005 H 393.31 2.54491 -3.51307 0
M  V30 4006 H 393.981 4.1758 -3.61013 0
M  V30 4007 H 396.457 3.78761 -1.72276 0
M  V30 4008 H 395.333 5.16394 -1.86087 0
M  V30 4009 H 395.594 4.41112 -0.295424 0
M  V30 4010 N 394.653 0.992116 1.22453 0
M  V30 4011 C 395.878 0.685644 1.95739 0
M  V30 4012 C 396.303 -0.743 1.72804 0
M  V30 4013 O 395.661 -1.50778 1.00676 0
M  V30 4014 C 395.709 0.996293 3.46564 0
M  V30 4015 O 394.813 0.0945512 4.12292 0
M  V30 4016 H 394.154 0.256694 0.612376 0
M  V30 4017 H 396.684 1.32888 1.5557 0
M  V30 4018 H 396.694 0.93781 3.97076 0
M  V30 4019 H 395.369 2.03733 3.62582 0
M  V30 4020 H 393.946 0.208451 3.72317 0
M  V30 4021 N 396.131 -1.37776 0.765217 0
M  V30 4022 C 397.063 -2.28958 0.105361 0
M  V30 4023 C 398.076 -1.48316 -0.67128 0
M  V30 4024 O 399.265 -1.71046 -0.51045 0
M  V30 4025 C 396.365 -3.27421 -0.874569 0
M  V30 4026 C 395.538 -4.37132 -0.153123 0
M  V30 4027 C 394.597 -5.1571 -1.04547 0
M  V30 4028 O 393.623 -5.66896 -0.511672 0
M  V30 4029 N 394.825 -5.29808 -2.37243 0
M  V30 4030 H 397.59 -2.86227 0.888495 0
M  V30 4031 H 395.151 -1.49682 0.617 0
M  V30 4032 H 397.143 -3.7687 -1.47483 0
M  V30 4033 H 395.713 -2.70967 -1.55871 0
M  V30 4034 H 394.933 -3.89166 0.627975 0
M  V30 4035 H 396.221 -5.07625 0.345643 0
M  V30 4036 H 395.619 -4.89793 -2.83054 0
M  V30 4037 H 394.176 -5.82589 -2.9229 0
M  V30 4038 N 397.609 -0.515225 -1.4894 0
M  V30 4039 C 398.519 0.259774 -2.33157 0
M  V30 4040 C 399.535 0.953501 -1.45548 0
M  V30 4041 O 400.711 0.931735 -1.78552 0
M  V30 4042 C 397.776 1.30193 -3.21326 0
M  V30 4043 C 396.837 0.620129 -4.24797 0
M  V30 4044 C 396.07 1.61263 -5.08753 0
M  V30 4045 O 396.293 2.84389 -4.94448 0
M  V30 4046 O 395.227 1.16013 -5.90614 0
M  V30 4047 H 399.053 -0.429932 -3.00641 0
M  V30 4048 H 396.638 -0.276346 -1.46822 0
M  V30 4049 H 398.52 1.90455 -3.75905 0
M  V30 4050 H 397.195 1.97431 -2.56521 0
M  V30 4051 H 396.102 -0.0226019 -3.74093 0
M  V30 4052 H 397.435 -0.0100493 -4.92199 0
M  V30 4053 N 399.087 1.5561 -0.249682 0
M  V30 4054 C 400.364 1.90932 0.424761 0
M  V30 4055 C 400.744 1.17078 1.75658 0
M  V30 4056 O 400.092 0.289176 2.26663 0
M  V30 4057 C 400.302 3.43975 0.590109 0
M  V30 4058 C 401.65 4.15281 0.884714 0
M  V30 4059 O 402.674 3.49729 0.67587 0
M  V30 4060 O 401.533 5.31236 1.28259 0
M  V30 4061 H 398.627 0.794815 0.228468 0
M  V30 4062 H 401.173 1.67135 -0.293954 0
M  V30 4063 H 399.945 3.89748 -0.34818 0
M  V30 4064 H 399.568 3.73644 1.35926 0
M  V30 4065 N 400.565 -0.0233959 1.57583 0
M  V30 4066 C 401.976 -0.56927 1.77809 0
M  V30 4067 C 402.327 -1.75284 0.881472 0
M  V30 4068 O 401.452 -2.1626 0.0777805 0
M  V30 4069 C 402.047 -1.03949 3.22459 0
M  V30 4070 C 400.606 -1.53084 3.43864 0
M  V30 4071 C 399.753 -0.471454 2.73263 0
M  V30 4072 H 402.704 0.202825 1.57399 0
M  V30 4073 H 402.725 -1.90661 3.29285 0
M  V30 4074 H 402.237 -0.177865 3.87692 0
M  V30 4075 H 400.338 -2.41414 2.83814 0
M  V30 4076 H 400.451 -1.57443 4.52491 0
M  V30 4077 H 398.815 -0.927788 2.37201 0
M  V30 4078 H 399.598 0.380808 3.41181 0
M  V30 4079 N 402.043 -1.548 -0.295768 0
M  V30 4080 C 402.953 -1.89177 -1.38742 0
M  V30 4081 C 403.969 -0.786481 -1.55211 0
M  V30 4082 O 405.145 -1.08344 -1.69775 0
M  V30 4083 C 402.21 -2.13663 -2.73036 0
M  V30 4084 C 401.271 -3.37349 -2.65508 0
M  V30 4085 C 400.504 -3.60658 -3.93398 0
M  V30 4086 O 400.727 -2.86882 -4.93006 0
M  V30 4087 O 399.661 -4.54179 -3.94975 0
M  V30 4088 H 403.487 -2.82059 -1.12589 0
M  V30 4089 H 401.072 -1.41056 -0.492295 0
M  V30 4090 H 402.954 -2.3094 -3.52484 0
M  V30 4091 H 401.629 -1.23967 -2.99022 0
M  V30 4092 H 400.536 -3.25431 -1.84514 0
M  V30 4093 H 401.869 -4.27192 -2.44474 0
M  V30 4094 N 403.521 0.559213 -1.47345 0
M  V30 4095 C 404.767 1.31843 -1.54095 0
M  V30 4096 C 405.1 1.93149 -0.201726 0
M  V30 4097 O 404.375 1.77759 0.789428 0
M  V30 4098 C 404.658 2.43006 -2.65744 0
M  V30 4099 C 404.511 1.86581 -4.09277 0
M  V30 4100 C 405.83 3.44943 -2.73318 0
M  V30 4101 H 402.949 0.478012 -0.560957 0
M  V30 4102 H 405.591 0.625977 -1.79392 0
M  V30 4103 H 403.741 3.02072 -2.44305 0
M  V30 4104 H 405.413 1.31792 -4.42073 0
M  V30 4105 H 403.656 1.17268 -4.17649 0
M  V30 4106 H 404.327 2.66933 -4.83168 0
M  V30 4107 H 406.803 2.95793 -2.92653 0
M  V30 4108 H 405.679 4.20153 -3.53218 0
M  V30 4109 H 405.94 4.03665 -1.80296 0
M  V30 4110 N 404.999 1.35443 0.805782 0
M  V30 4111 C 405.931 1.24285 1.92577 0
M  V30 4112 C 406.944 0.165962 1.61952 0
M  V30 4113 O 408.133 0.419303 1.73505 0
M  V30 4114 C 405.233 0.891272 3.2697 0
M  V30 4115 C 404.406 2.06669 3.85495 0
M  V30 4116 C 403.465 1.69077 4.98297 0
M  V30 4117 O 402.491 2.4096 5.15681 0
M  V30 4118 N 403.693 0.614869 5.77234 0
M  V30 4119 H 406.458 2.20777 2.02676 0
M  V30 4120 H 404.019 1.28623 0.983243 0
M  V30 4121 H 406.011 0.621256 3.99903 0
M  V30 4122 H 404.581 0.016004 3.12596 0
M  V30 4123 H 403.801 2.50046 3.04747 0
M  V30 4124 H 405.089 2.85237 4.21328 0
M  V30 4125 H 404.487 0.017648 5.65697 0
M  V30 4126 H 403.044 0.404636 6.50543 0
M  V30 4127 N 406.477 -1.02803 1.19454 0
M  V30 4128 C 407.724 -1.76217 0.997693 0
M  V30 4129 C 408.052 -1.887 -0.47144 0
M  V30 4130 O 407.307 -1.4011 -1.3663 0
M  V30 4131 C 407.606 -3.18941 1.6128 0
M  V30 4132 C 407.272 -3.26463 3.11019 0
M  V30 4133 C 405.934 -3.28223 3.51885 0
M  V30 4134 C 408.286 -3.25542 4.07028 0
M  V30 4135 C 405.614 -3.26719 4.8731 0
M  V30 4136 C 407.966 -3.25579 5.42385 0
M  V30 4137 C 406.63 -3.25637 5.82681 0
M  V30 4138 H 405.9 -0.644823 0.365082 0
M  V30 4139 H 408.547 -1.20655 1.4871 0
M  V30 4140 H 406.852 -3.77587 1.04572 0
M  V30 4141 H 408.549 -3.74415 1.43577 0
M  V30 4142 H 405.139 -3.25822 2.78457 0
M  V30 4143 H 409.323 -3.23362 3.76498 0
M  V30 4144 H 404.579 -3.25089 5.1781 0
M  V30 4145 H 408.753 -3.23817 6.16535 0
M  V30 4146 H 406.38 -3.24226 6.87591 0
M  V30 4147 N 407.956 -0.998596 -1.21925 0
M  V30 4148 C 408.904 -0.546641 -2.26085 0
M  V30 4149 C 409.898 0.405576 -1.64473 0
M  V30 4150 O 411.104 0.277471 -1.77849 0
M  V30 4151 H 407.479 -0.158403 -0.735127 0
M  V30 4152 H 409.45 -1.43645 -2.61551 0
M  V30 4153 C 408.199 0.117388 -3.47502 0
M  V30 4154 H 407.522 -0.606277 -3.95176 0
M  V30 4155 H 408.962 0.396993 -4.22137 0
M  V30 4156 C 407.421 1.35455 -3.0847 0
M  V30 4157 O 407.951 2.44944 -3.18379 0
M  V30 4158 N 406.157 1.23191 -2.63196 0
M  V30 4159 H 405.704 0.341006 -2.55333 0
M  V30 4160 H 405.662 2.06071 -2.37449 0
M  V30 4161 N 409.434 1.37368 -0.772513 0
M  V30 4162 C 410.68 2.00423 -0.3467 0
M  V30 4163 C 411.035 1.60224 1.06518 0
M  V30 4164 O 410.328 0.838712 1.72268 0
M  V30 4165 C 410.522 3.54817 -0.428876 0
M  V30 4166 C 410.351 4.10011 -1.84719 0
M  V30 4167 C 409.121 4.40927 -2.46803 0
M  V30 4168 C 411.319 4.30955 -2.80681 0
M  V30 4169 N 409.301 4.8184 -3.80399 0
M  V30 4170 C 410.672 4.74486 -3.99078 0
M  V30 4171 C 412.727 4.1309 -2.77958 0
M  V30 4172 C 411.43 5.02023 -5.15136 0
M  V30 4173 C 413.456 4.41764 -3.9319 0
M  V30 4174 C 412.818 4.85535 -5.10328 0
M  V30 4175 H 408.917 0.762413 -0.173927 0
M  V30 4176 H 411.501 1.66666 -1.00651 0
M  V30 4177 H 409.672 3.87881 0.200757 0
M  V30 4178 H 411.404 4.04696 0.0190668 0
M  V30 4179 H 408.159 4.30033 -1.98415 0
M  V30 4180 H 408.583 5.06604 -4.49089 0
M  V30 4181 H 413.225 3.7842 -1.88568 0
M  V30 4182 H 410.943 5.35582 -6.05126 0
M  V30 4183 H 414.529 4.29528 -3.92425 0
M  V30 4184 H 413.409 5.07296 -5.98013 0
M  V30 4185 N 410.912 0.523116 1.48665 0
M  V30 4186 C 412.142 -0.00961724 2.06598 0
M  V30 4187 C 412.55 -1.29333 1.38093 0
M  V30 4188 O 411.893 -1.77846 0.46007 0
M  V30 4189 C 411.955 -0.311135 3.58151 0
M  V30 4190 C 411.619 0.878092 4.48485 0
M  V30 4191 C 412.616 1.77464 4.88674 0
M  V30 4192 C 410.301 1.08315 4.90483 0
M  V30 4193 C 412.295 2.86021 5.69623 0
M  V30 4194 C 409.982 2.17187 5.71203 0
M  V30 4195 C 410.98 3.05873 6.10681 0
M  V30 4196 O 410.668 4.12862 6.89783 0
M  V30 4197 H 410.4 0.0272658 0.67545 0
M  V30 4198 H 412.954 0.726156 1.92136 0
M  V30 4199 H 411.184 -1.10079 3.70701 0
M  V30 4200 H 412.873 -0.785125 3.98234 0
M  V30 4201 H 413.639 1.62813 4.56855 0
M  V30 4202 H 409.518 0.402149 4.59243 0
M  V30 4203 H 413.062 3.55272 6.00356 0
M  V30 4204 H 408.959 2.31824 6.02435 0
M  V30 4205 H 409.727 4.10487 7.08126 0
M  V30 4206 N 412.39 -1.55475 0.257931 0
M  V30 4207 C 413.636 -1.99502 -0.364266 0
M  V30 4208 C 413.969 -1.146 -1.56782 0
M  V30 4209 O 413.244 -0.211968 -1.93342 0
M  V30 4210 C 413.527 -3.51917 -0.763333 0
M  V30 4211 C 413.38 -4.4758 0.446371 0
M  V30 4212 C 414.699 -4.09742 -1.60623 0
M  V30 4213 H 411.818 -0.725277 -0.130929 0
M  V30 4214 H 414.46 -1.8653 0.361446 0
M  V30 4215 H 412.61 -3.63101 -1.38166 0
M  V30 4216 H 414.282 -4.48362 1.08487 0
M  V30 4217 H 412.525 -4.19947 1.08753 0
M  V30 4218 H 413.196 -5.51862 0.123645 0
M  V30 4219 H 415.672 -4.01727 -1.08418 0
M  V30 4220 H 414.548 -5.16631 -1.85429 0
M  V30 4221 H 414.809 -3.58889 -2.58169 0
M  V30 4222 N 413.868 0.0150385 -1.57593 0
M  V30 4223 C 415.145 0.7392 -1.81094 0
M  V30 4224 C 415.525 1.92817 -0.859344 0
M  V30 4225 O 414.873 2.28301 0.095362 0
M  V30 4226 C 415.083 1.15907 -3.29191 0
M  V30 4227 C 416.431 1.56918 -3.9454 0
M  V30 4228 O 417.455 1.25328 -3.33424 0
M  V30 4229 O 416.314 2.15604 -5.02173 0
M  V30 4230 H 413.408 0.358631 -0.745193 0
M  V30 4231 H 415.954 -0.00926156 -1.69697 0
M  V30 4232 H 414.726 0.310921 -3.90063 0
M  V30 4233 H 414.349 1.96711 -3.45529 0
M  V30 4234 N 415.346 1.54954 0.287554 0
M  V30 4235 C 416.594 1.74528 1.01904 0
M  V30 4236 C 416.915 0.541349 1.87335 0
M  V30 4237 O 416.185 -0.444108 1.908 0
M  V30 4238 H 414.765 0.643576 0.379235 0
M  V30 4239 H 417.427 1.92333 0.315294 0
M  V30 4240 H 416.523 2.64015 1.6644 0
M  V30 4241 N 416.824 -0.551391 1.4764 0
M  V30 4242 C 418.07 -1.31024 1.54792 0
M  V30 4243 C 418.403 -1.9304 0.211967 0
M  V30 4244 O 417.678 -1.78175 -0.77999 0
M  V30 4245 C 417.961 -2.41593 2.67029 0
M  V30 4246 C 417.814 -1.84408 4.10261 0
M  V30 4247 C 419.133 -3.43488 2.75143 0
M  V30 4248 H 416.252 -0.475031 0.563485 0
M  V30 4249 H 418.894 -0.616454 1.79722 0
M  V30 4250 H 417.044 -3.00772 2.45904 0
M  V30 4251 H 418.716 -1.29445 4.42766 0
M  V30 4252 H 416.959 -1.15051 4.18265 0
M  V30 4253 H 417.63 -2.64367 4.84576 0
M  V30 4254 H 420.106 -2.94236 2.94218 0
M  V30 4255 H 418.982 -4.18274 3.55441 0
M  V30 4256 H 419.243 -4.02703 1.82435 0
M  V30 4257 N 418.302 -1.35869 -0.798587 0
M  V30 4258 C 419.212 -1.31578 -1.94228 0
M  V30 4259 C 420.228 -0.21939 -1.72611 0
M  V30 4260 O 421.404 -0.450167 -1.96305 0
M  V30 4261 C 418.469 -1.09528 -3.28944 0
M  V30 4262 C 417.53 -2.28556 -3.63402 0
M  V30 4263 C 416.763 -2.07549 -4.9169 0
M  V30 4264 O 416.986 -1.046 -5.60727 0
M  V30 4265 O 415.92 -2.95106 -5.24591 0
M  V30 4266 H 419.746 -2.27847 -2.00796 0
M  V30 4267 H 417.331 -1.16322 -0.937526 0
M  V30 4268 H 419.213 -0.991127 -4.09579 0
M  V30 4269 H 417.888 -0.16315 -3.23289 0
M  V30 4270 H 416.795 -2.44538 -2.83112 0
M  V30 4271 H 418.128 -3.20244 -3.73771 0
M  V30 4272 N 419.78 1.02168 -1.19998 0
M  V30 4273 C 421.026 1.75945 -1.00852 0
M  V30 4274 C 421.359 1.88702 0.458828 0
M  V30 4275 O 420.634 1.40911 1.34069 0
M  V30 4276 C 420.917 3.18154 -1.68671 0
M  V30 4277 C 420.77 3.13224 -3.22817 0
M  V30 4278 C 422.089 4.16711 -1.41561 0
M  V30 4279 H 419.208 0.638673 -0.367785 0
M  V30 4280 H 421.85 1.19222 -1.4794 0
M  V30 4281 H 420 3.66586 -1.28636 0
M  V30 4282 H 421.672 2.72635 -3.72112 0
M  V30 4283 H 419.915 2.50751 -3.53986 0
M  V30 4284 H 420.586 4.13728 -3.65422 0
M  V30 4285 H 423.062 3.76913 -1.76284 0
M  V30 4286 H 421.938 5.14391 -1.91553 0
M  V30 4287 H 422.199 4.40774 -0.342193 0
M  V30 4288 N 421.258 1.00505 1.21394 0
M  V30 4289 C 422.208 0.536503 2.21598 0
M  V30 4290 C 423.192 -0.401914 1.55799 0
M  V30 4291 O 424.384 -0.226757 1.75541 0
M  V30 4292 C 421.513 -0.135446 3.43033 0
M  V30 4293 C 420.599 0.823992 4.16018 0
M  V30 4294 N 420.99 1.97683 4.6557 0
M  V30 4295 C 419.288 0.642387 4.4135 0
M  V30 4296 C 419.989 2.58003 5.21354 0
M  V30 4297 N 418.965 1.86162 5.1073 0
M  V30 4298 H 422.767 1.41557 2.57563 0
M  V30 4299 H 420.281 0.868878 1.37202 0
M  V30 4300 H 422.278 -0.488584 4.14027 0
M  V30 4301 H 420.938 -1.01049 3.08576 0
M  V30 4302 H 421.949 2.3572 4.61147 0
M  V30 4303 H 418.626 -0.185578 4.17087 0
M  V30 4304 H 420.016 3.555 5.70149 0
M  V30 4305 N 422.737 -1.36956 0.779787 0
M  V30 4306 C 423.685 -2.32053 0.15942 0
M  V30 4307 C 424.679 -1.55333 -0.675878 0
M  V30 4308 O 425.885 -1.70668 -0.57204 0
M  V30 4309 H 422.26 -0.751286 0.0327707 0
M  V30 4310 H 424.231 -2.8195 0.977078 0
M  V30 4311 C 422.98 -3.40602 -0.698977 0
M  V30 4312 H 422.303 -3.99746 -0.0655966 0
M  V30 4313 H 423.743 -4.09486 -1.09989 0
M  V30 4314 C 422.202 -2.81359 -1.85307 0
M  V30 4315 O 422.732 -2.72751 -2.94906 0
M  V30 4316 N 420.938 -2.38786 -1.65619 0
M  V30 4317 H 420.485 -2.45987 -0.764725 0
M  V30 4318 H 420.443 -1.99493 -2.43002 0
M  V30 4319 N 424.215 -0.530993 -1.48385 0
M  V30 4320 C 425.178 0.220497 -2.28137 0
M  V30 4321 C 426.178 0.866851 -1.35434 0
M  V30 4322 O 427.368 0.726746 -1.58316 0
M  V30 4323 C 424.5 1.31921 -3.1434 0
M  V30 4324 H 425.693 -0.479714 -2.96038 0
M  V30 4325 H 423.246 -0.286968 -1.53643 0
M  V30 4326 H 423.981 2.05264 -2.51072 0
M  V30 4327 H 423.766 0.86085 -3.82533 0
M  V30 4328 H 425.256 1.84776 -3.74497 0
M  V30 4329 N 425.693 1.55336 -0.266172 0
M  V30 4330 C 426.64 2.22172 0.625165 0
M  V30 4331 C 427.61 1.19211 1.15663 0
M  V30 4332 O 428.795 1.47723 1.20758 0
M  V30 4333 C 425.935 2.93972 1.8076 0
M  V30 4334 C 425.048 4.11632 1.31084 0
M  V30 4335 C 424.183 4.71099 2.45436 0
M  V30 4336 C 423.222 5.8097 1.92718 0
M  V30 4337 N 422.359 6.34538 3.00509 0
M  V30 4338 H 427.199 2.9796 0.0485582 0
M  V30 4339 H 424.736 1.47095 0.0122024 0
M  V30 4340 H 426.694 3.33811 2.50251 0
M  V30 4341 H 425.324 2.20623 2.35638 0
M  V30 4342 H 424.376 3.76975 0.509326 0
M  V30 4343 H 425.688 4.90893 0.884633 0
M  V30 4344 H 424.842 5.13612 3.22936 0
M  V30 4345 H 423.581 3.91096 2.91368 0
M  V30 4346 H 422.586 5.37916 1.13695 0
M  V30 4347 H 423.811 6.62836 1.47733 0
M  V30 4348 H 421.757 5.57433 3.45839 0
M  V30 4349 H 421.674 7.09046 2.62279 0
M  V30 4350 H 422.942 6.81709 3.78011 0
M  V30 4351 N 427.171 -0.0066808 1.57599 0
M  V30 4352 C 428.399 -0.704087 1.94551 0
M  V30 4353 C 428.814 -1.67677 0.867746 0
M  V30 4354 O 428.171 -1.8185 -0.153925 0
M  V30 4355 C 428.222 -1.44177 3.31505 0
M  V30 4356 O 427.943 -0.508097 4.35144 0
M  V30 4357 C 429.444 -2.23429 3.82876 0
M  V30 4358 H 426.664 -0.196523 0.641576 0
M  V30 4359 H 429.208 0.042453 2.04456 0
M  V30 4360 H 427.363 -2.13999 3.22929 0
M  V30 4361 H 427.777 -1.02782 5.14331 0
M  V30 4362 H 429.251 -2.70552 4.8115 0
M  V30 4363 H 429.728 -3.05818 3.15233 0
M  V30 4364 H 430.334 -1.58636 3.94607 0
M  V30 4365 N 428.649 -1.55105 -0.279332 0
M  V30 4366 C 429.596 -1.8755 -1.34513 0
M  V30 4367 C 430.566 -0.726384 -1.49375 0
M  V30 4368 O 431.751 -0.977063 -1.63884 0
M  V30 4369 C 428.891 -2.14738 -2.70151 0
M  V30 4370 C 428.004 -3.42285 -2.63562 0
M  V30 4371 C 427.139 -3.59206 -3.91337 0
M  V30 4372 C 426.178 -4.80467 -3.79233 0
M  V30 4373 N 425.315 -4.94079 -4.98829 0
M  V30 4374 H 430.155 -2.78456 -1.06143 0
M  V30 4375 H 427.692 -1.37867 -0.512936 0
M  V30 4376 H 429.65 -2.28501 -3.49061 0
M  V30 4377 H 428.28 -1.27075 -2.96735 0
M  V30 4378 H 427.332 -3.37029 -1.76397 0
M  V30 4379 H 428.644 -4.31328 -2.50515 0
M  V30 4380 H 427.798 -3.72751 -4.78687 0
M  V30 4381 H 426.537 -2.68337 -4.07243 0
M  V30 4382 H 425.542 -4.66932 -2.90266 0
M  V30 4383 H 426.767 -5.72765 -3.64852 0
M  V30 4384 H 424.713 -4.06139 -5.15158 0
M  V30 4385 H 424.63 -5.77156 -4.8829 0
M  V30 4386 H 425.898 -5.12003 -5.8777 0
M  V30 4387 N 430.127 0.543554 -1.4793 0
M  V30 4388 C 431.538 1.12561 -1.48953 0
M  V30 4389 C 431.889 1.94578 -0.251754 0
M  V30 4390 O 431.014 2.0665 0.642255 0
M  V30 4391 C 431.609 2.04801 -2.69892 0
M  V30 4392 C 430.168 2.58251 -2.73831 0
M  V30 4393 C 429.315 1.34918 -2.42265 0
M  V30 4394 H 432.266 0.32947 -1.55242 0
M  V30 4395 H 432.287 2.88886 -2.47639 0
M  V30 4396 H 431.799 1.4508 -3.59963 0
M  V30 4397 H 429.9 3.21732 -1.87934 0
M  V30 4398 H 430.013 2.98312 -3.74895 0
M  V30 4399 H 428.377 1.66046 -1.93134 0
M  V30 4400 H 429.16 0.769693 -3.3456 0
M  V30 4401 N 431.605 1.3629 0.791371 0
M  V30 4402 C 433.021 1.16661 1.08914 0
M  V30 4403 C 433.221 -0.0106266 2.01497 0
M  V30 4404 O 432.277 -0.676596 2.43266 0
M  V30 4405 C 433.59 2.47656 1.70549 0
M  V30 4406 C 435.138 2.54002 1.82899 0
M  V30 4407 C 435.613 3.85078 2.47949 0
M  V30 4408 N 437.104 3.86413 2.5542 0
M  V30 4409 C 437.839 4.84572 3.06557 0
M  V30 4410 N 437.335 5.93124 3.58016 0
M  V30 4411 N 439.128 4.71994 3.05251 0
M  V30 4412 H 431.279 2.11668 0.176238 0
M  V30 4413 H 433.542 0.937486 0.140796 0
M  V30 4414 H 433.248 3.34059 1.09989 0
M  V30 4415 H 433.122 2.63319 2.70079 0
M  V30 4416 H 435.509 1.68018 2.42598 0
M  V30 4417 H 435.59 2.42239 0.821808 0
M  V30 4418 H 435.234 4.71467 1.88895 0
M  V30 4419 H 435.164 3.94135 3.49235 0
M  V30 4420 H 437.655 3.07988 2.18979 0
M  V30 4421 H 437.968 6.63999 3.95381 0
M  V30 4422 H 436.313 5.96796 3.56173 0
M  V30 4423 H 439.504 3.86321 2.64336 0
M  V30 4424 H 439.677 5.48653 3.44796 0
M  V30 4425 N 433.083 -1.0153 1.20538 0
M  V30 4426 C 433.993 -2.13557 0.971113 0
M  V30 4427 C 435.009 -1.73845 -0.0734366 0
M  V30 4428 O 436.185 -2.01075 0.114299 0
M  V30 4429 C 433.25 -3.42661 0.527639 0
M  V30 4430 C 432.311 -3.96608 1.64319 0
M  V30 4431 C 431.544 -5.1955 1.22078 0
M  V30 4432 O 431.767 -5.70329 0.0900198 0
M  V30 4433 O 430.701 -5.66681 2.02871 0
M  V30 4434 H 434.527 -2.3619 1.90913 0
M  V30 4435 H 432.112 -1.11946 0.989362 0
M  V30 4436 H 433.994 -4.20404 0.289621 0
M  V30 4437 H 432.669 -3.21441 -0.381779 0
M  V30 4438 H 431.576 -3.20139 1.93551 0
M  V30 4439 H 432.909 -4.22219 2.52966 0
M  V30 4440 N 434.561 -1.01147 -1.20859 0
M  V30 4441 C 435.471 -0.58686 -2.27141 0
M  V30 4442 C 436.487 0.373198 -1.69951 0
M  V30 4443 O 437.663 0.235423 -2.00019 0
M  V30 4444 C 434.728 0.0733602 -3.46622 0
M  V30 4445 C 433.789 -0.931995 -4.19061 0
M  V30 4446 C 433.022 -0.303186 -5.32838 0
M  V30 4447 O 433.245 0.898395 -5.63281 0
M  V30 4448 O 432.179 -1.01735 -5.9324 0
M  V30 4449 H 436.005 -1.47155 -2.65667 0
M  V30 4450 H 433.59 -0.780689 -1.2738 0
M  V30 4451 H 435.472 0.442333 -4.19072 0
M  V30 4452 H 434.147 0.932329 -3.09983 0
M  V30 4453 H 433.054 -1.35224 -3.48805 0
M  V30 4454 H 434.387 -1.76076 -4.59628 0
M  V30 4455 N 436.039 1.36541 -0.78704 0
M  V30 4456 C 436.971 2.28761 -0.141773 0
M  V30 4457 C 437.984 1.49365 0.647599 0
M  V30 4458 O 439.173 1.71836 0.483173 0
M  V30 4459 C 436.273 3.28771 0.822368 0
M  V30 4460 C 435.446 4.3732 0.0835594 0
M  V30 4461 C 434.505 5.17307 0.963296 0
M  V30 4462 O 433.531 5.67638 0.421419 0
M  V30 4463 N 434.733 5.33515 2.28784 0
M  V30 4464 H 437.498 2.84777 -0.933919 0
M  V30 4465 H 435.059 1.48682 -0.640735 0
M  V30 4466 H 437.051 3.79169 1.41468 0
M  V30 4467 H 435.621 2.73412 1.5154 0
M  V30 4468 H 434.841 3.88118 -0.689809 0
M  V30 4469 H 436.129 5.0701 -0.426358 0
M  V30 4470 H 435.527 4.94234 2.75226 0
M  V30 4471 H 434.084 5.87165 2.82985 0
M  V30 4472 N 437.518 0.538854 1.48102 0
M  V30 4473 C 438.765 0.0080018 2.02498 0
M  V30 4474 C 439.093 -1.33437 1.41509 0
M  V30 4475 O 438.348 -1.87709 0.553507 0
M  V30 4476 C 438.647 -0.153808 3.57069 0
M  V30 4477 C 438.313 1.11533 4.36888 0
M  V30 4478 C 436.975 1.46314 4.58417 0
M  V30 4479 C 439.327 1.95718 4.83057 0
M  V30 4480 C 436.655 2.6516 5.23361 0
M  V30 4481 C 439.007 3.13751 5.49312 0
M  V30 4482 C 437.671 3.48866 5.69077 0
M  V30 4483 H 436.941 0.00292807 0.740994 0
M  V30 4484 H 439.588 0.706668 1.77984 0
M  V30 4485 H 437.893 -0.935309 3.80472 0
M  V30 4486 H 439.59 -0.579607 3.96789 0
M  V30 4487 H 436.18 0.834484 4.20398 0
M  V30 4488 H 440.364 1.70158 4.66219 0
M  V30 4489 H 435.62 2.92558 5.36861 0
M  V30 4490 H 439.794 3.79282 5.84053 0
M  V30 4491 H 437.421 4.41054 6.19173 0
M  V30 4492 N 438.996 -1.55193 0.274407 0
M  V30 4493 C 439.944 -2.23924 -0.629362 0
M  V30 4494 C 440.938 -1.23602 -1.1584 0
M  V30 4495 O 442.144 -1.41535 -1.11211 0
M  V30 4496 H 438.519 -0.718637 -0.221507 0
M  V30 4497 H 440.49 -2.98388 -0.0268322 0
M  V30 4498 C 439.239 -2.97329 -1.80252 0
M  V30 4499 H 438.562 -3.74313 -1.40462 0
M  V30 4500 H 440.002 -3.48743 -2.41152 0
M  V30 4501 C 438.461 -2.0276 -2.69054 0
M  V30 4502 O 438.991 -1.57836 -3.69392 0
M  V30 4503 N 437.197 -1.69275 -2.36208 0
M  V30 4504 H 436.744 -2.06004 -1.54661 0
M  V30 4505 H 436.702 -1.06271 -2.95895 0
M  V30 4506 N 440.474 -0.00167713 -1.576 0
M  V30 4507 C 441.699 0.69739 -1.95323 0
M  V30 4508 C 442.124 1.6642 -0.876706 0
M  V30 4509 O 441.482 1.80548 0.165007 0
M  V30 4510 C 441.53 1.40403 -3.32144 0
M  V30 4511 O 440.634 2.5185 -3.26566 0
M  V30 4512 H 439.975 0.185373 -0.637599 0
M  V30 4513 H 442.505 -0.0553665 -2.04525 0
M  V30 4514 H 442.515 1.76707 -3.67748 0
M  V30 4515 H 441.19 0.695167 -4.10049 0
M  V30 4516 H 439.767 2.17861 -3.0264 0
M  V30 4517 N 441.952 1.55251 0.271103 0
M  V30 4518 C 443.18 1.79974 1.02064 0
M  V30 4519 C 443.595 0.574003 1.79863 0
M  V30 4520 O 442.952 -0.456962 1.76686 0
M  V30 4521 C 443.003 3.02603 1.97772 0
M  V30 4522 O 442.724 4.20443 1.23124 0
M  V30 4523 C 444.225 3.39944 2.84522 0
M  V30 4524 H 441.445 0.599489 0.301419 0
M  V30 4525 H 443.989 2.02268 0.301313 0
M  V30 4526 H 442.144 2.8243 2.65165 0
M  V30 4527 H 442.558 4.89783 1.87651 0
M  V30 4528 H 444.032 4.28915 3.47471 0
M  V30 4529 H 444.509 2.59432 3.54389 0
M  V30 4530 H 445.115 3.62383 2.22618 0
M  V30 4531 N 443.43 -0.535701 1.48216 0
M  V30 4532 C 444.66 -1.3148 1.59363 0
M  V30 4533 C 445.068 -1.8753 0.250844 0
M  V30 4534 O 444.411 -1.66821 -0.769174 0
M  V30 4535 C 444.473 -2.50731 2.57632 0
M  V30 4536 C 444.137 -2.15811 4.02833 0
M  V30 4537 C 445.134 -1.71822 4.90686 0
M  V30 4538 C 442.819 -2.26509 4.48329 0
M  V30 4539 C 444.813 -1.3899 6.22062 0
M  V30 4540 C 442.5 -1.93289 5.79726 0
M  V30 4541 C 443.498 -1.49599 6.66415 0
M  V30 4542 O 443.186 -1.16812 7.95368 0
M  V30 4543 H 442.918 -0.406315 0.540263 0
M  V30 4544 H 445.472 -0.653569 1.94725 0
M  V30 4545 H 443.702 -3.19817 2.1738 0
M  V30 4546 H 445.391 -3.12797 2.58675 0
M  V30 4547 H 446.157 -1.63031 4.56778 0
M  V30 4548 H 442.036 -2.59471 3.81045 0
M  V30 4549 H 445.58 -1.04816 6.89681 0
M  V30 4550 H 441.477 -2.01718 6.13172 0
M  V30 4551 H 442.245 -1.30259 8.08069 0
M  V30 4552 N 444.908 -1.36708 -0.784132 0
M  V30 4553 C 446.324 -1.17237 -1.08294 0
M  V30 4554 C 446.524 -5.93947e-05 -2.015 0
M  V30 4555 O 445.58 0.663686 -2.43622 0
M  V30 4556 C 446.893 -2.48557 -1.69233 0
M  V30 4557 C 448.441 -2.54968 -1.8155 0
M  V30 4558 C 448.916 -3.86388 -2.45904 0
M  V30 4559 N 450.407 -3.87762 -2.53367 0
M  V30 4560 C 451.142 -4.86191 -3.03983 0
M  V30 4561 N 450.638 -5.95015 -3.54866 0
M  V30 4562 N 452.431 -4.73606 -3.02743 0
M  V30 4563 H 444.582 -2.11758 -0.16501 0
M  V30 4564 H 446.845 -0.93822 -0.135822 0
M  V30 4565 H 446.551 -3.34638 -1.08215 0
M  V30 4566 H 446.425 -2.64748 -2.68679 0
M  V30 4567 H 448.812 -1.69302 -2.41704 0
M  V30 4568 H 448.893 -2.42672 -0.80895 0
M  V30 4569 H 448.537 -4.72462 -1.86392 0
M  V30 4570 H 448.467 -3.95982 -3.4714 0
M  V30 4571 H 450.958 -3.09145 -2.17343 0
M  V30 4572 H 451.271 -6.66086 -3.91854 0
M  V30 4573 H 449.616 -5.98676 -3.53003 0
M  V30 4574 H 452.807 -3.87717 -2.62284 0
M  V30 4575 H 452.98 -5.50473 -3.41881 0
M  V30 4576 N 446.386 1.0089 -1.21074 0
M  V30 4577 C 447.632 1.74866 -1.02712 0
M  V30 4578 C 447.965 1.89178 0.438787 0
M  V30 4579 O 447.24 1.42325 1.32567 0
M  V30 4580 C 447.523 3.16347 -1.72036 0
M  V30 4581 C 447.376 3.09782 -3.26121 0
M  V30 4582 C 448.695 4.15187 -1.45973 0
M  V30 4583 H 445.814 0.634736 -0.374539 0
M  V30 4584 H 448.456 1.17646 -1.49196 0
M  V30 4585 H 446.606 3.65201 -1.32517 0
M  V30 4586 H 448.278 2.68673 -3.74983 0
M  V30 4587 H 446.521 2.46982 -3.56626 0
M  V30 4588 H 447.192 4.09829 -3.6979 0
M  V30 4589 H 449.668 3.75022 -1.80272 0
M  V30 4590 H 448.544 5.12331 -1.96999 0
M  V30 4591 H 448.805 4.40386 -0.388924 0
M  V30 4592 N 447.864 1.01787 1.20321 0
M  V30 4593 C 449.11 0.708985 1.90003 0
M  V30 4594 C 449.443 -0.759572 1.78729 0
M  V30 4595 O 448.718 -1.55198 1.17234 0
M  V30 4596 C 449.001 1.1469 3.41348 0
M  V30 4597 C 448.854 2.67586 3.61549 0
M  V30 4598 C 450.173 0.71915 4.34185 0
M  V30 4599 H 447.292 0.259034 0.689978 0
M  V30 4600 H 449.934 1.26584 1.41692 0
M  V30 4601 H 448.084 0.673128 3.82624 0
M  V30 4602 H 449.756 3.22826 3.29517 0
M  V30 4603 H 447.999 3.085 3.04976 0
M  V30 4604 H 448.67 2.93281 4.67643 0
M  V30 4605 H 451.146 1.12647 4.00562 0
M  V30 4606 H 450.022 1.05358 5.38694 0
M  V30 4607 H 450.283 -0.379111 4.40472 0
M  V30 4608 N 449.342 -1.36122 0.79427 0
M  V30 4609 C 450.567 -2.03891 0.379871 0
M  V30 4610 C 450.992 -1.59488 -0.997251 0
M  V30 4611 O 450.35 -0.765652 -1.64339 0
M  V30 4612 C 450.398 -3.57687 0.457442 0
M  V30 4613 O 449.502 -4.08931 -0.5338 0
M  V30 4614 H 448.843 -0.6443 0.160541 0
M  V30 4615 H 451.373 -1.73976 1.07673 0
M  V30 4616 H 451.383 -4.06721 0.322792 0
M  V30 4617 H 450.058 -3.89357 1.46199 0
M  V30 4618 H 448.635 -3.71154 -0.360409 0
M  V30 4619 N 450.82 -0.546701 -1.47814 0
M  V30 4620 C 452.066 -0.0187684 -2.02791 0
M  V30 4621 C 452.399 1.32338 -1.42128 0
M  V30 4622 O 451.674 1.85867 -0.573023 0
M  V30 4623 C 451.957 0.0854985 -3.59998 0
M  V30 4624 C 451.81 -1.283 -4.31114 0
M  V30 4625 C 453.129 0.80412 -4.32691 0
M  V30 4626 H 450.248 -0.0082946 -0.736953 0
M  V30 4627 H 452.89 -0.706962 -1.76358 0
M  V30 4628 H 451.04 0.671609 -3.82651 0
M  V30 4629 H 452.712 -1.91151 -4.19832 0
M  V30 4630 H 450.955 -1.86049 -3.91878 0
M  V30 4631 H 451.626 -1.16287 -5.39612 0
M  V30 4632 H 454.102 0.306576 -4.14969 0
M  V30 4633 H 452.978 0.846011 -5.42341 0
M  V30 4634 H 453.239 1.85802 -4.01161 0
M  V30 4635 N 452.299 1.55045 -0.282633 0
M  V30 4636 C 453.229 2.2579 0.595066 0
M  V30 4637 C 454.21 1.25074 1.15284 0
M  V30 4638 O 455.395 1.5381 1.18559 0
M  V30 4639 C 452.525 2.98472 1.77572 0
M  V30 4640 C 451.479 4.0618 1.34914 0
M  V30 4641 C 450.805 4.66477 2.6135 0
M  V30 4642 C 452.105 5.1996 0.493821 0
M  V30 4643 H 453.799 2.994 0.00505653 0
M  V30 4644 H 451.345 1.44 0.000992001 0
M  V30 4645 H 453.298 3.46677 2.39568 0
M  V30 4646 H 452.022 2.2241 2.39168 0
M  V30 4647 H 450.681 3.58797 0.752338 0
M  V30 4648 H 450.329 3.87074 3.2122 0
M  V30 4649 H 450.029 5.39207 2.33516 0
M  V30 4650 H 451.553 5.17435 3.24181 0
M  V30 4651 H 452.967 5.64172 1.01898 0
M  V30 4652 H 451.364 5.99299 0.310047 0
M  V30 4653 H 452.434 4.82462 -0.485593 0
M  V30 4654 N 453.777 0.010035 1.57597 0
M  V30 4655 C 455.005 -0.683413 1.95287 0
M  V30 4656 C 455.42 -1.66747 0.885481 0
M  V30 4657 O 454.777 -1.82003 -0.134629 0
M  V30 4658 C 454.828 -1.40652 3.33015 0
M  V30 4659 O 454.549 -0.461916 4.35658 0
M  V30 4660 C 456.05 -2.19356 3.85225 0
M  V30 4661 H 453.27 -0.189708 0.643624 0
M  V30 4662 H 455.814 0.0641359 2.04399 0
M  V30 4663 H 453.969 -2.10562 3.2518 0
M  V30 4664 H 454.383 -0.973215 5.15392 0
M  V30 4665 H 455.857 -2.65433 4.83993 0
M  V30 4666 H 456.334 -3.02457 3.18459 0
M  V30 4667 H 456.94 -1.54442 3.96267 0
M  V30 4668 N 455.255 -1.55392 -0.262866 0
M  V30 4669 C 456.501 -1.76737 -0.99458 0
M  V30 4670 C 456.834 -0.572453 -1.85571 0
M  V30 4671 O 456.109 0.429732 -1.89693 0
M  V30 4672 C 456.392 -3.07824 -1.8686 0
M  V30 4673 C 456.245 -4.3769 -1.03672 0
M  V30 4674 C 457.564 -3.35021 -2.85393 0
M  V30 4675 H 454.683 -0.643005 -0.360157 0
M  V30 4676 H 457.325 -1.88126 -0.266216 0
M  V30 4677 H 455.475 -2.98245 -2.48962 0
M  V30 4678 H 457.147 -4.59238 -0.43563 0
M  V30 4679 H 455.39 -4.32461 -0.340513 0
M  V30 4680 H 456.061 -5.25759 -1.6817 0
M  V30 4681 H 458.537 -3.44458 -2.33426 0
M  V30 4682 H 457.413 -4.27989 -3.43681 0
M  V30 4683 H 457.674 -2.55153 -3.61039 0
M  V30 4684 N 456.733 0.527833 -1.48498 0
M  V30 4685 C 457.663 1.64136 -1.66077 0
M  V30 4686 C 458.644 1.62286 -0.509625 0
M  V30 4687 O 459.829 1.79449 -0.742413 0
M  V30 4688 C 456.959 3.02717 -1.70234 0
M  V30 4689 C 455.913 3.19426 -2.8487 0
M  V30 4690 C 455.239 4.5909 -2.74118 0
M  V30 4691 C 456.539 3.01993 -4.26142 0
M  V30 4692 H 458.233 1.4968 -2.593 0
M  V30 4693 H 455.779 0.718654 -1.24785 0
M  V30 4694 H 457.732 3.80491 -1.8112 0
M  V30 4695 H 456.456 3.18201 -0.735911 0
M  V30 4696 H 455.115 2.4407 -2.73542 0
M  V30 4697 H 454.763 4.71413 -1.7544 0
M  V30 4698 H 454.463 4.71214 -3.51042 0
M  V30 4699 H 455.987 5.3896 -2.86974 0
M  V30 4700 H 457.401 3.69558 -4.38292 0
M  V30 4701 H 455.798 3.2561 -5.04082 0
M  V30 4702 H 456.868 1.98396 -4.42456 0
M  V30 4703 N 458.211 1.37122 0.776871 0
M  V30 4704 C 459.161 1.28989 1.88005 0
M  V30 4705 C 460.145 0.178765 1.59904 0
M  V30 4706 O 461.337 0.412705 1.72121 0
M  V30 4707 C 458.466 1.09402 3.25402 0
M  V30 4708 C 457.552 2.25036 3.59471 0
M  V30 4709 N 457.943 3.50407 3.64759 0
M  V30 4710 C 456.241 2.17078 3.89607 0
M  V30 4711 C 456.942 4.26628 3.95428 0
M  V30 4712 N 455.918 3.55709 4.11062 0
M  V30 4713 H 459.72 2.2394 1.90337 0
M  V30 4714 H 457.234 1.30021 0.973052 0
M  V30 4715 H 459.231 1.01661 4.04315 0
M  V30 4716 H 457.891 0.153632 3.24336 0
M  V30 4717 H 458.902 3.8438 3.47091 0
M  V30 4718 H 455.579 1.31067 3.96393 0
M  V30 4719 H 456.969 5.35107 4.06338 0
M  V30 4720 N 459.689 -1.00246 1.21608 0
M  V30 4721 C 460.621 -2.09244 0.935401 0
M  V30 4722 C 461.634 -1.62592 -0.0823594 0
M  V30 4723 O 462.823 -1.77865 0.150456 0
M  V30 4724 C 459.923 -3.36724 0.383453 0
M  V30 4725 C 459.096 -4.1245 1.45615 0
M  V30 4726 C 458.155 -5.18219 0.912991 0
M  V30 4727 O 457.181 -5.46337 1.59701 0
M  V30 4728 N 458.383 -5.7987 -0.270478 0
M  V30 4729 H 461.148 -2.33905 1.87373 0
M  V30 4730 H 458.709 -1.16748 1.12167 0
M  V30 4731 H 460.701 -4.047 0.00562157 0
M  V30 4732 H 459.271 -3.09201 -0.459758 0
M  V30 4733 H 458.491 -3.39241 2.00772 0
M  V30 4734 H 459.779 -4.59819 2.17817 0
M  V30 4735 H 459.177 -5.59381 -0.843195 0
M  V30 4736 H 457.734 -6.49126 -0.589794 0
M  V30 4737 N 461.167 -1.02423 -1.1978 0
M  V30 4738 C 462.444 -0.632802 -1.85081 0
M  V30 4739 C 462.824 0.888745 -1.9148 0
M  V30 4740 O 462.172 1.78357 -1.42832 0
M  V30 4741 C 462.382 -1.28947 -3.24305 0
M  V30 4742 C 463.73 -1.40976 -4.00513 0
M  V30 4743 O 464.754 -1.24628 -3.33686 0
M  V30 4744 O 463.613 -1.67467 -5.20209 0
M  V30 4745 H 460.707 -0.219348 -0.79738 0
M  V30 4746 H 463.253 -1.12209 -1.27307 0
M  V30 4747 H 462.025 -2.3288 -3.14456 0
M  V30 4748 H 461.648 -0.787748 -3.89718 0
M  V30 4749 N 462.645 1.35699 -0.801477 0
M  V30 4750 C 463.891 1.99643 -0.389135 0
M  V30 4751 C 464.246 1.62447 1.03095 0
M  V30 4752 O 463.539 0.875064 1.7045 0
M  V30 4753 C 463.733 3.53828 -0.504041 0
M  V30 4754 C 463.562 4.06 -1.93375 0
M  V30 4755 C 462.332 4.35592 -2.561 0
M  V30 4756 C 464.53 4.24905 -2.89759 0
M  V30 4757 N 462.512 4.73663 -3.90534 0
M  V30 4758 C 463.883 4.65914 -4.09052 0
M  V30 4759 C 465.938 4.07101 -2.86658 0
M  V30 4760 C 464.641 4.90984 -5.25669 0
M  V30 4761 C 466.667 4.33324 -4.02472 0
M  V30 4762 C 466.029 4.74601 -5.20512 0
M  V30 4763 H 462.128 0.758552 -0.19006 0
M  V30 4764 H 464.712 1.64493 -1.04164 0
M  V30 4765 H 462.883 3.88219 0.118437 0
M  V30 4766 H 464.615 4.04645 -0.0667794 0
M  V30 4767 H 461.37 4.25728 -2.07492 0
M  V30 4768 H 461.794 4.96965 -4.59734 0
M  V30 4769 H 466.436 3.74335 -1.96552 0
M  V30 4770 H 464.154 5.22626 -6.1635 0
M  V30 4771 H 467.74 4.21107 -4.01447 0
M  V30 4772 H 466.62 4.94497 -6.08639 0
M  V30 4773 N 464.123 0.554532 1.47522 0
M  V30 4774 C 465.053 -0.182974 2.32782 0
M  V30 4775 C 466.034 -0.911377 1.43624 0
M  V30 4776 O 467.219 -0.892366 1.72483 0
M  V30 4777 C 464.349 -1.21513 3.25349 0
M  V30 4778 C 463.303 -0.603355 4.23726 0
M  V30 4779 C 462.629 -1.73995 5.05598 0
M  V30 4780 C 463.929 0.441121 5.20434 0
M  V30 4781 H 465.623 0.52882 2.94693 0
M  V30 4782 H 463.169 0.255759 1.41711 0
M  V30 4783 H 465.122 -1.73922 3.83835 0
M  V30 4784 H 463.846 -1.95683 2.61487 0
M  V30 4785 H 462.505 -0.10059 3.66462 0
M  V30 4786 H 462.153 -2.47063 4.38143 0
M  V30 4787 H 461.853 -1.3364 5.72201 0
M  V30 4788 H 463.377 -2.26735 5.66942 0
M  V30 4789 H 464.791 0.00319931 5.733 0
M  V30 4790 H 463.188 0.763402 5.95224 0
M  V30 4791 H 464.258 1.33799 4.66075 0
M  V30 4792 N 465.601 -1.54893 0.290851 0
M  V30 4793 C 466.549 -2.24579 -0.605576 0
M  V30 4794 C 467.543 -1.24824 -1.14522 0
M  V30 4795 O 468.749 -1.42706 -1.09704 0
M  V30 4796 H 465.124 -0.720946 -0.213872 0
M  V30 4797 H 467.095 -2.984 0.0048173 0
M  V30 4798 C 465.844 -2.99224 -1.77088 0
M  V30 4799 H 465.167 -3.75782 -1.36484 0
M  V30 4800 H 466.607 -3.51281 -2.3744 0
M  V30 4801 C 465.066 -2.05602 -2.66888 0
M  V30 4802 O 465.596 -1.61745 -3.67698 0
M  V30 4803 N 463.802 -1.71771 -2.34399 0
M  V30 4804 H 463.349 -2.07633 -1.52468 0
M  V30 4805 H 463.307 -1.09403 -2.94751 0
M  V30 4806 N 467.08 -0.0183926 -1.57589 0
M  V30 4807 C 468.328 0.661253 -1.90976 0
M  V30 4808 C 468.649 1.73281 -0.894353 0
M  V30 4809 O 467.919 1.9579 0.0656788 0
M  V30 4810 H 466.499 0.247233 -0.704901 0
M  V30 4811 H 469.161 -0.0636639 -1.94796 0
M  V30 4812 H 468.257 1.12083 -2.9128 0
M  V30 4813 N 468.558 1.5553 0.254621 0
M  V30 4814 C 469.505 1.89666 1.31512 0
M  V30 4815 C 470.475 0.750057 1.482 0
M  V30 4816 O 471.66 1.00301 1.62309 0
M  V30 4817 C 468.8 2.19009 2.667 0
M  V30 4818 C 467.913 3.46435 2.58083 0
M  V30 4819 C 467.048 3.65386 3.85573 0
M  V30 4820 C 466.087 4.8644 3.71541 0
M  V30 4821 N 465.224 5.01952 4.90906 0
M  V30 4822 H 470.064 2.80109 1.017 0
M  V30 4823 H 467.601 1.38666 0.490938 0
M  V30 4824 H 469.559 2.34025 3.45381 0
M  V30 4825 H 468.189 1.31779 2.94676 0
M  V30 4826 H 467.241 3.39792 1.71013 0
M  V30 4827 H 468.553 4.35258 2.43622 0
M  V30 4828 H 467.707 3.80319 4.72697 0
M  V30 4829 H 466.446 2.74781 4.02922 0
M  V30 4830 H 465.451 4.71491 2.82801 0
M  V30 4831 H 466.676 5.78497 3.55694 0
M  V30 4832 H 464.622 4.14283 5.08631 0
M  V30 4833 H 464.539 5.84851 4.79046 0
M  V30 4834 H 465.807 5.21289 5.7955 0
M  V30 4835 N 470.036 -0.519951 1.48776 0
M  V30 4836 C 470.946 -1.65025 1.66745 0
M  V30 4837 C 471.962 -1.6508 0.549954 0
M  V30 4838 O 473.138 -1.83848 0.822295 0
M  V30 4839 C 470.203 -3.0146 1.71238 0
M  V30 4840 C 469.264 -3.12182 2.94688 0
M  V30 4841 C 468.497 -4.42109 2.98958 0
M  V30 4842 O 468.72 -5.29799 2.1135 0
M  V30 4843 O 467.654 -4.57406 3.91233 0
M  V30 4844 H 471.48 -1.52801 2.62461 0
M  V30 4845 H 469.065 -0.694157 1.32294 0
M  V30 4846 H 470.947 -3.82584 1.76657 0
M  V30 4847 H 469.622 -3.13988 0.786975 0
M  V30 4848 H 468.529 -2.30316 2.94797 0
M  V30 4849 H 469.862 -3.04574 3.86646 0
M  V30 4850 N 471.514 -1.37532 -0.769588 0
M  V30 4851 C 472.744 -1.35861 -1.55645 0
M  V30 4852 C 473.152 0.0574398 -1.89113 0
M  V30 4853 O 472.495 1.03021 -1.52093 0
M  V30 4854 C 472.557 -2.13431 -2.89288 0
M  V30 4855 C 472.221 -3.62378 -2.78444 0
M  V30 4856 C 473.218 -4.56215 -2.49326 0
M  V30 4857 C 470.903 -4.05529 -2.96398 0
M  V30 4858 C 472.897 -5.91181 -2.38294 0
M  V30 4859 C 470.584 -5.40579 -2.84987 0
M  V30 4860 C 471.582 -6.33218 -2.55975 0
M  V30 4861 O 471.27 -7.65787 -2.44594 0
M  V30 4862 H 471.002 -0.467001 -0.48876 0
M  V30 4863 H 473.556 -1.81505 -0.961515 0
M  V30 4864 H 471.786 -1.62481 -3.50909 0
M  V30 4865 H 473.475 -2.04368 -3.50697 0
M  V30 4866 H 474.241 -4.24187 -2.35139 0
M  V30 4867 H 470.12 -3.33781 -3.1798 0
M  V30 4868 H 473.664 -6.63457 -2.15571 0
M  V30 4869 H 469.561 -5.72209 -2.98743 0
M  V30 4870 H 470.329 -7.76132 -2.59927 0
M  V30 4871 N 472.992 0.995999 -1.22138 0
M  V30 4872 C 473.939 2.08551 -0.988687 0
M  V30 4873 C 474.909 1.65864 0.0885021 0
M  V30 4874 O 476.094 1.90704 -0.0604589 0
M  V30 4875 C 473.234 3.40374 -0.569191 0
M  V30 4876 C 472.347 3.96421 -1.71681 0
M  V30 4877 C 471.482 5.1639 -1.2456 0
M  V30 4878 C 470.521 5.64567 -2.36497 0
M  V30 4879 N 469.658 6.75777 -1.90445 0
M  V30 4880 H 474.498 2.2779 -1.92135 0
M  V30 4881 H 472.035 1.1168 -0.957388 0
M  V30 4882 H 473.993 4.16068 -0.307166 0
M  V30 4883 H 472.623 3.21145 0.326462 0
M  V30 4884 H 471.675 3.17628 -2.09324 0
M  V30 4885 H 472.987 4.2816 -2.55891 0
M  V30 4886 H 472.141 5.99362 -0.940774 0
M  V30 4887 H 470.88 4.86266 -0.373662 0
M  V30 4888 H 469.885 4.80185 -2.67772 0
M  V30 4889 H 471.11 5.96716 -3.24202 0
M  V30 4890 H 469.056 6.47443 -1.05609 0
M  V30 4891 H 468.973 7.06818 -2.68223 0
M  V30 4892 H 470.241 7.62262 -1.63022 0
M  V30 4893 N 474.47 1.03057 1.19235 0
M  V30 4894 C 475.71 0.736757 1.9066 0
M  V30 4895 C 476.074 -0.721521 1.77927 0
M  V30 4896 O 477.275 -1.12849 2.43964 0
M  V30 4897 C 475.546 1.17755 3.37444 0
M  V30 4898 S 477.105 1.00783 4.27069 0
M  V30 4899 H 473.923 0.268174 0.658486 0
M  V30 4900 H 476.525 1.32076 1.4414 0
M  V30 4901 H 475.229 2.23448 3.44237 0
M  V30 4902 H 474.76 0.586912 3.88997 0
M  V30 4903 H 476.775 -0.0806356 4.96134 0
M  V30 4904 N 475.948 -1.35272 0.808662 0
M  V30 4905 C 476.895 -2.29764 0.218482 0
M  V30 4906 C 477.865 -1.52911 -0.648652 0
M  V30 4907 O 479.05 -1.81341 -0.593297 0
M  V30 4908 C 476.19 -3.39388 -0.625282 0
M  V30 4909 C 475.303 -4.31202 0.262516 0
M  V30 4910 C 474.438 -5.27919 -0.589451 0
M  V30 4911 C 473.477 -6.11371 0.298617 0
M  V30 4912 N 472.614 -7.0022 -0.513443 0
M  V30 4913 H 477.454 -2.79645 1.02968 0
M  V30 4914 H 474.991 -1.37629 0.519303 0
M  V30 4915 H 476.949 -4.01615 -1.12966 0
M  V30 4916 H 475.579 -2.90777 -1.40173 0
M  V30 4917 H 474.631 -3.69962 0.885013 0
M  V30 4918 H 475.943 -4.89748 0.945971 0
M  V30 4919 H 475.097 -5.95529 -1.15888 0
M  V30 4920 H 473.836 -4.69875 -1.30647 0
M  V30 4921 H 472.841 -5.42707 0.880301 0
M  V30 4922 H 474.066 -6.71494 1.01352 0
M  V30 4923 H 472.012 -6.44662 -1.21439 0
M  V30 4924 H 471.929 -7.55917 0.111922 0
M  V30 4925 H 473.197 -7.72175 -1.06608 0
M  V30 4926 N 477.426 -0.562348 -1.47226 0
M  V30 4927 C 478.672 -0.0402761 -2.0276 0
M  V30 4928 C 479.005 1.30823 -1.43523 0
M  V30 4929 O 478.28 1.85249 -0.592705 0
M  V30 4930 C 478.563 0.047311 -3.60069 0
M  V30 4931 C 478.416 -1.32865 -4.29729 0
M  V30 4932 C 479.735 0.758182 -4.3352 0
M  V30 4933 H 476.854 -0.0161105 -0.736824 0
M  V30 4934 H 479.496 -0.725628 -1.75598 0
M  V30 4935 H 477.646 0.630986 -3.83342 0
M  V30 4936 H 479.318 -1.95593 -4.17781 0
M  V30 4937 H 477.561 -1.90195 -3.89882 0
M  V30 4938 H 478.232 -1.22004 -5.38349 0
M  V30 4939 H 480.708 0.262546 -4.15271 0
M  V30 4940 H 479.584 0.78844 -5.43208 0
M  V30 4941 H 479.845 1.81537 -4.03109 0
M  V30 4942 N 478.904 1.54736 -0.299062 0
M  V30 4943 C 480.129 2.04975 0.316254 0
M  V30 4944 C 480.554 1.17501 1.46885 0
M  V30 4945 O 479.912 0.178678 1.80417 0
M  V30 4946 C 479.96 3.52672 0.751997 0
M  V30 4947 O 479.064 3.68226 1.85697 0
M  V30 4948 H 478.405 0.661126 0.0617175 0
M  V30 4949 H 480.935 1.99805 -0.440341 0
M  V30 4950 H 480.945 3.94488 1.04133 0
M  V30 4951 H 479.62 4.158 -0.0911482 0
M  V30 4952 H 478.197 3.38316 1.56834 0
M  V30 4953 N 480.382 0.0267497 1.57577 0
M  V30 4954 C 481.33 -0.973923 2.11229 0
M  V30 4955 C 482.324 -1.33849 1.03831 0
M  V30 4956 O 483.53 -1.321 1.22269 0
M  V30 4957 H 479.905 -0.331844 0.674821 0
M  V30 4958 H 481.876 -0.496092 2.94247 0
M  V30 4959 C 480.625 -2.24798 2.65257 0
M  V30 4960 H 479.948 -1.9762 3.47543 0
M  V30 4961 H 481.388 -2.93031 3.06445 0
M  V30 4962 C 479.847 -2.97611 1.57891 0
M  V30 4963 O 480.377 -3.89629 0.97735 0
M  V30 4964 N 478.583 -2.59905 1.29992 0
M  V30 4965 H 478.13 -1.85154 1.79097 0
M  V30 4966 H 478.088 -3.08932 0.583798 0
M  V30 4967 N 481.861 -1.55662 -0.24637 0
M  V30 4968 C 482.808 -1.90361 -1.30504 0
M  V30 4969 C 483.778 -0.757905 -1.47801 0
M  V30 4970 O 484.963 -1.01161 -1.61775 0
M  V30 4971 C 482.103 -2.2042 -2.65535 0
M  V30 4972 C 481.216 -3.47799 -2.56242 0
M  V30 4973 C 480.351 -3.67426 -3.8363 0
M  V30 4974 C 479.39 -4.88403 -3.68956 0
M  V30 4975 N 478.527 -5.04548 -4.88237 0
M  V30 4976 H 483.367 -2.80645 -1.00213 0
M  V30 4977 H 480.904 -1.38924 -0.483577 0
M  V30 4978 H 482.862 -2.35853 -3.44135 0
M  V30 4979 H 481.492 -1.3334 -2.93973 0
M  V30 4980 H 480.544 -3.40694 -1.69208 0
M  V30 4981 H 481.856 -4.36544 -2.4131 0
M  V30 4982 H 481.01 -3.82821 -4.70673 0
M  V30 4983 H 479.749 -2.76914 -4.01459 0
M  V30 4984 H 478.754 -4.72984 -2.80296 0
M  V30 4985 H 479.979 -5.80375 -3.52621 0
M  V30 4986 H 477.925 -4.16974 -5.06427 0
M  V30 4987 H 477.842 -5.87384 -4.75937 0
M  V30 4988 H 479.11 -5.24355 -5.76777 0
M  V30 4989 N 483.339 0.512053 -1.4905 0
M  V30 4990 C 484.587 1.26436 -1.57665 0
M  V30 4991 C 484.908 1.93255 -0.260293 0
M  V30 4992 O 484.178 1.82206 0.719564 0
M  V30 4993 H 482.758 0.469658 -0.580888 0
M  V30 4994 H 485.42 0.594398 -1.85615 0
M  V30 4995 H 484.516 2.03417 -2.36702 0
M  V30 4996 N 484.817 1.37938 0.762283 0
M  V30 4997 C 485.747 1.37176 1.88958 0
M  V30 4998 C 486.728 0.238945 1.68413 0
M  V30 4999 O 487.913 0.440726 1.89133 0
M  V30 5000 C 485.043 1.18742 3.2637 0
M  V30 5001 C 483.997 2.29136 3.61498 0
M  V30 5002 C 483.323 1.95816 4.97554 0
M  V30 5003 C 484.623 3.71363 3.6727 0
M  V30 5004 H 486.317 2.31509 1.89853 0
M  V30 5005 H 483.863 1.11438 0.912005 0
M  V30 5006 H 485.816 1.16837 4.04879 0
M  V30 5007 H 484.54 0.208683 3.25933 0
M  V30 5008 H 483.199 2.30213 2.85303 0
M  V30 5009 H 482.847 0.964475 4.93667 0
M  V30 5010 H 482.547 2.69745 5.22026 0
M  V30 5011 H 484.071 1.95513 5.78452 0
M  V30 5012 H 485.485 3.72364 4.35911 0
M  V30 5013 H 483.882 4.44425 4.03245 0
M  V30 5014 H 484.952 4.04305 2.67704 0
M  V30 5015 N 486.295 -0.989507 1.22664 0
M  V30 5016 C 487.706 -1.54406 1.04955 0
M  V30 5017 C 488.057 -1.92366 -0.385951 0
M  V30 5018 O 487.182 -1.75111 -1.27142 0
M  V30 5019 C 487.777 -2.80578 1.89899 0
M  V30 5020 C 486.336 -3.32464 1.76478 0
M  V30 5021 C 485.483 -2.05524 1.86159 0
M  V30 5022 H 488.434 -0.810211 1.3646 0
M  V30 5023 H 488.455 -3.53075 1.4184 0
M  V30 5024 H 487.967 -2.52918 2.94371 0
M  V30 5025 H 486.068 -3.65024 0.747528 0
M  V30 5026 H 486.181 -4.02838 2.59342 0
M  V30 5027 H 484.545 -2.19241 1.29636 0
M  V30 5028 H 485.328 -1.80258 2.92168 0
M  V30 5029 N 487.773 -1.03688 -1.18687 0
M  V30 5030 C 488.998 -0.757819 -1.93059 0
M  V30 5031 C 489.423 0.678353 -1.75442 0
M  V30 5032 O 488.781 1.46938 -1.06203 0
M  V30 5033 C 488.829 -1.12423 -3.42627 0
M  V30 5034 O 487.933 -0.247505 -4.11657 0
M  V30 5035 H 487.274 -0.279245 -0.602427 0
M  V30 5036 H 489.804 -1.3857 -1.5053 0
M  V30 5037 H 489.814 -1.08454 -3.93322 0
M  V30 5038 H 488.489 -2.17049 -3.54771 0
M  V30 5039 H 487.066 -0.34649 -3.71287 0
M  V30 5040 N 489.251 1.34841 -0.815825 0
M  V30 5041 C 490.476 2.03261 -0.41226 0
M  V30 5042 C 490.901 1.61055 0.971751 0
M  V30 5043 O 490.259 0.7917 1.63101 0
M  V30 5044 C 490.307 3.56914 -0.514289 0
M  V30 5045 O 489.411 4.09728 0.468675 0
M  V30 5046 H 488.752 0.641664 -0.170771 0
M  V30 5047 H 491.282 1.72241 -1.10427 0
M  V30 5048 H 491.292 4.06156 -0.387457 0
M  V30 5049 H 489.967 3.86982 -1.52375 0
M  V30 5050 H 488.544 3.71681 0.301316 0
M  V30 5051 N 490.729 0.570148 1.46925 0
M  V30 5052 C 491.978 0.0487352 2.01641 0
M  V30 5053 C 492.291 -1.31433 1.44861 0
M  V30 5054 O 493.497 -1.92638 1.91318 0
M  V30 5055 C 491.953 0.0365817 3.59881 0
M  V30 5056 C 491.561 1.39719 4.25655 0
M  V30 5057 C 493.305 -0.431545 4.22301 0
M  V30 5058 C 491.212 1.34345 5.75939 0
M  V30 5059 H 490.142 0.0144492 0.753862 0
M  V30 5060 H 492.793 0.719928 1.68788 0
M  V30 5061 H 491.175 -0.700522 3.89755 0
M  V30 5062 H 492.349 2.15303 4.07408 0
M  V30 5063 H 490.664 1.80431 3.75278 0
M  V30 5064 H 493.261 -0.490354 5.32447 0
M  V30 5065 H 493.604 -1.44638 3.90366 0
M  V30 5066 H 494.137 0.251102 3.97007 0
M  V30 5067 H 490.876 2.33469 6.12513 0
M  V30 5068 H 490.396 0.629615 5.96486 0
M  V30 5069 H 492.075 1.051 6.38407 0
M  V30 5070 N 492.207 -1.54576 0.307264 0
M  V30 5071 C 493.117 -2.27435 -0.57536 0
M  V30 5072 C 494.133 -1.31183 -1.14311 0
M  V30 5073 O 495.309 -1.64175 -1.16656 0
M  V30 5074 C 492.374 -3.00566 -1.72803 0
M  V30 5075 C 491.435 -4.12369 -1.19373 0
M  V30 5076 C 490.668 -4.82003 -2.29147 0
M  V30 5077 O 490.891 -4.51038 -3.49171 0
M  V30 5078 O 489.825 -5.69271 -1.95485 0
M  V30 5079 H 493.651 -3.03696 0.0158558 0
M  V30 5080 H 491.236 -1.49219 0.0735064 0
M  V30 5081 H 493.118 -3.46416 -2.39946 0
M  V30 5082 H 491.793 -2.27195 -2.30574 0
M  V30 5083 H 490.7 -3.70905 -0.487851 0
M  V30 5084 H 492.033 -4.87736 -0.661376 0
M  V30 5085 N 493.685 -0.035106 -1.57561 0
M  V30 5086 C 494.632 0.94474 -2.10578 0
M  V30 5087 C 495.602 1.3192 -1.00927 0
M  V30 5088 O 496.787 1.41147 -1.28382 0
M  V30 5089 C 493.927 2.21982 -2.64231 0
M  V30 5090 C 493.04 1.90128 -3.87911 0
M  V30 5091 C 492.175 3.11975 -4.29936 0
M  V30 5092 C 491.214 2.75968 -5.46359 0
M  V30 5093 N 490.351 3.90459 -5.83512 0
M  V30 5094 H 495.191 0.485717 -2.94015 0
M  V30 5095 H 492.728 0.228143 -1.4532 0
M  V30 5096 H 494.686 2.96572 -2.9343 0
M  V30 5097 H 493.316 2.6549 -1.83616 0
M  V30 5098 H 492.368 1.05755 -3.65404 0
M  V30 5099 H 493.68 1.59613 -4.72573 0
M  V30 5100 H 492.834 3.9488 -4.60603 0
M  V30 5101 H 491.573 3.45657 -3.44053 0
M  V30 5102 H 490.578 1.91478 -5.1538 0
M  V30 5103 H 491.803 2.43497 -6.33945 0
M  V30 5104 H 489.749 4.23971 -5.00584 0
M  V30 5105 H 489.666 3.63588 -6.62827 0
M  V30 5106 H 490.934 4.7405 -6.18787 0
M  V30 5107 N 495.163 1.55791 0.238111 0
M  V30 5108 C 496.391 1.82098 0.982233 0
M  V30 5109 C 496.806 0.612025 1.78605 0
M  V30 5110 O 496.163 -0.419381 1.77616 0
M  V30 5111 C 496.214 3.0673 1.91309 0
M  V30 5112 O 495.935 4.2296 1.14179 0
M  V30 5113 C 497.436 3.45903 2.77248 0
M  V30 5114 H 494.656 0.605748 0.288635 0
M  V30 5115 H 497.2 2.02862 0.258341 0
M  V30 5116 H 495.355 2.87991 2.59114 0
M  V30 5117 H 495.769 4.93653 1.7722 0
M  V30 5118 H 497.243 4.36189 3.38295 0
M  V30 5119 H 497.72 2.66891 3.48806 0
M  V30 5120 H 498.326 3.67024 2.14881 0
M  V30 5121 N 496.642 -0.504142 1.49319 0
M  V30 5122 C 497.891 -1.25507 1.57895 0
M  V30 5123 C 498.204 -1.93735 0.269433 0
M  V30 5124 O 499.41 -2.70492 0.233706 0
M  V30 5125 C 497.866 -2.27869 2.78574 0
M  V30 5126 C 497.474 -1.65594 4.16272 0
M  V30 5127 C 499.218 -3.0381 2.96479 0
M  V30 5128 C 497.125 -2.66048 5.28178 0
M  V30 5129 H 496.055 -0.47212 0.587894 0
M  V30 5130 H 498.706 -0.52931 1.757 0
M  V30 5131 H 497.088 -3.03594 2.54257 0
M  V30 5132 H 498.262 -0.958826 4.50714 0
M  V30 5133 H 496.577 -1.02055 4.037 0
M  V30 5134 H 499.174 -3.78925 3.77253 0
M  V30 5135 H 499.517 -3.61235 2.06918 0
M  V30 5136 H 500.05 -2.352 3.20821 0
M  V30 5137 H 496.789 -2.13408 6.19788 0
M  V30 5138 H 496.309 -3.34009 4.98195 0
M  V30 5139 H 497.988 -3.28536 5.57381 0
M  V30 5140 N 498.12 -1.38341 -0.754957 0
M  V30 5141 C 499.345 -1.37882 -1.5493 0
M  V30 5142 C 499.77 0.0296385 -1.88077 0
M  V30 5143 O 499.128 1.01133 -1.50472 0
M  V30 5144 C 499.176 -2.23996 -2.82592 0
M  V30 5145 O 498.28 -1.65612 -3.77686 0
M  V30 5146 H 497.621 -0.470384 -0.468652 0
M  V30 5147 H 500.151 -1.82084 -0.933082 0
M  V30 5148 H 500.161 -2.37806 -3.3153 0
M  V30 5149 H 498.836 -3.26365 -2.57796 0
M  V30 5150 H 497.413 -1.60936 -3.36384 0
M  V30 5151 N 499.598 0.982988 -1.23187 0
M  V30 5152 C 500.545 2.07491 -1.01075 0
M  V30 5153 C 501.515 1.65949 0.070905 0
M  V30 5154 O 502.7 1.90629 -0.0806822 0
M  V30 5155 C 499.84 3.39751 -0.605261 0
M  V30 5156 C 498.953 3.94578 -1.75876 0
M  V30 5157 C 498.088 5.15039 -1.3003 0
M  V30 5158 C 497.127 5.62027 -2.42472 0
M  V30 5159 N 496.264 6.73719 -1.97602 0
M  V30 5160 H 501.104 2.25739 -1.9454 0
M  V30 5161 H 498.641 1.10659 -0.969179 0
M  V30 5162 H 500.599 4.15719 -0.351279 0
M  V30 5163 H 499.229 3.21473 0.292382 0
M  V30 5164 H 498.281 3.1539 -2.12681 0
M  V30 5165 H 499.593 4.25422 -2.60418 0
M  V30 5166 H 498.747 5.9833 -1.00429 0
M  V30 5167 H 497.486 4.85843 -0.425216 0
M  V30 5168 H 496.491 4.77318 -2.7285 0
M  V30 5169 H 497.716 5.93244 -3.30512 0
M  V30 5170 H 495.662 6.46287 -1.1247 0
M  V30 5171 H 495.579 7.03934 -2.75705 0
M  V30 5172 H 496.847 7.6049 -1.71098 0
M  V30 5173 N 501.076 1.04316 1.18135 0
M  V30 5174 C 502.039 0.640794 2.2006 0
M  V30 5175 C 503.039 -0.303124 1.57917 0
M  V30 5176 O 504.229 -0.0881855 1.73977 0
M  V30 5177 C 501.361 -0.060148 3.40847 0
M  V30 5178 H 502.554 1.54281 2.57172 0
M  V30 5179 H 500.107 0.836004 1.32063 0
M  V30 5180 H 500.842 -0.975845 3.0927 0
M  V30 5181 H 500.627 0.618319 3.87194 0
M  V30 5182 H 502.117 -0.328082 4.16309 0
M  V30 5183 N 502.554 -1.34406 0.822964 0
M  V30 5184 C 503.501 -2.29519 0.24284 0
M  V30 5185 C 504.471 -1.5359 -0.632397 0
M  V30 5186 O 505.656 -1.8196 -0.57403 0
M  V30 5187 C 502.796 -3.40032 -0.58925 0
M  V30 5188 C 501.909 -4.30899 0.308236 0
M  V30 5189 C 501.044 -5.28515 -0.533425 0
M  V30 5190 C 500.083 -6.1102 0.363444 0
M  V30 5191 N 499.22 -7.00725 -0.439147 0
M  V30 5192 H 504.06 -2.78537 1.05929 0
M  V30 5193 H 501.597 -1.3707 0.533872 0
M  V30 5194 H 503.555 -4.0279 -1.087 0
M  V30 5195 H 502.185 -2.92248 -1.37081 0
M  V30 5196 H 501.237 -3.69002 0.924203 0
M  V30 5197 H 502.549 -4.88717 0.997862 0
M  V30 5198 H 501.703 -5.96725 -1.09565 0
M  V30 5199 H 500.442 -4.71235 -1.25656 0
M  V30 5200 H 499.447 -5.41743 0.937812 0
M  V30 5201 H 500.672 -6.70381 1.08469 0
M  V30 5202 H 498.618 -6.45913 -1.14595 0
M  V30 5203 H 498.535 -7.55756 0.19209 0
M  V30 5204 H 499.803 -7.73263 -0.984124 0
M  V30 5205 N 504.032 -0.577932 -1.46621 0
M  V30 5206 C 505.28 -0.061566 -2.02006 0
M  V30 5207 C 505.601 1.30117 -1.4524 0
M  V30 5208 O 504.871 1.85313 -0.63529 0
M  V30 5209 H 503.451 -0.0197692 -0.746738 0
M  V30 5210 H 506.113 -0.752631 -1.79782 0
M  V30 5211 H 505.209 0.0110238 -3.12098 0
M  V30 5212 N 505.51 1.54411 -0.315457 0
M  V30 5213 C 506.442 2.21527 0.588067 0
M  V30 5214 C 507.455 1.21263 1.08624 0
M  V30 5215 O 508.644 1.47777 1.00121 0
M  V30 5216 C 505.744 2.85963 1.81875 0
M  V30 5217 C 504.917 4.12291 1.46063 0
M  V30 5218 C 503.976 4.60396 2.54799 0
M  V30 5219 O 503.002 5.25265 2.19283 0
M  V30 5220 N 504.204 4.33935 3.85591 0
M  V30 5221 H 506.969 2.99697 0.013414 0
M  V30 5222 H 504.53 1.61308 -0.138295 0
M  V30 5223 H 506.522 3.15071 2.53993 0
M  V30 5224 H 505.092 2.11548 2.30144 0
M  V30 5225 H 504.312 3.90036 0.571445 0
M  V30 5226 H 505.6 4.9452 1.19695 0
M  V30 5227 H 504.998 3.81996 4.17248 0
M  V30 5228 H 503.555 4.67718 4.53964 0
M  V30 5229 N 506.988 0.0434614 1.5754 0
M  V30 5230 C 508.399 -0.493343 1.80064 0
M  V30 5231 C 508.75 -1.71388 0.955023 0
M  V30 5232 O 507.875 -2.15736 0.169434 0
M  V30 5233 C 508.47 -0.90179 3.26578 0
M  V30 5234 C 507.029 -1.38362 3.50047 0
M  V30 5235 C 506.176 -0.355129 2.75017 0
M  V30 5236 H 509.127 0.2694 1.56397 0
M  V30 5237 H 509.148 -1.76523 3.37075 0
M  V30 5238 H 508.66 -0.013271 3.88098 0
M  V30 5239 H 506.761 -2.29159 2.93798 0
M  V30 5240 H 506.874 -1.3811 4.58762 0
M  V30 5241 H 505.238 -0.826348 2.40922 0
M  V30 5242 H 506.021 0.525172 3.39259 0
M  V30 5243 N 508.466 -1.55915 -0.229846 0
M  V30 5244 C 509.882 -1.48721 -0.579166 0
M  V30 5245 C 510.082 -0.736976 -1.87539 0
M  V30 5246 O 509.138 -0.273258 -2.51017 0
M  V30 5247 C 510.451 -2.9323 -0.666082 0
M  V30 5248 C 511.999 -3.03701 -0.757267 0
M  V30 5249 C 512.474 -4.49552 -0.8756 0
M  V30 5250 N 513.965 -4.53561 -0.940035 0
M  V30 5251 C 514.7 -5.63683 -1.05116 0
M  V30 5252 N 514.196 -6.83576 -1.12675 0
M  V30 5253 N 515.989 -5.51516 -1.08565 0
M  V30 5254 H 508.14 -2.03123 0.620857 0
M  V30 5255 H 510.403 -0.922898 0.21671 0
M  V30 5256 H 510.109 -3.51032 0.21664 0
M  V30 5257 H 509.983 -3.44668 -1.53243 0
M  V30 5258 H 512.37 -2.45969 -1.63043 0
M  V30 5259 H 512.451 -2.55446 0.134583 0
M  V30 5260 H 512.095 -5.079 -0.00692351 0
M  V30 5261 H 512.025 -4.95506 -1.78274 0
M  V30 5262 H 514.516 -3.67215 -0.892269 0
M  V30 5263 H 514.829 -7.63251 -1.21109 0
M  V30 5264 H 513.174 -6.86303 -1.09603 0
M  V30 5265 H 516.365 -4.5678 -1.02319 0
M  V30 5266 H 516.538 -6.37372 -1.1688 0
M  V30 5267 N 509.944 0.496216 -1.49584 0
M  V30 5268 C 510.854 1.62352 -1.69349 0
M  V30 5269 C 511.87 1.64184 -0.576147 0
M  V30 5270 O 513.046 1.82517 -0.85144 0
M  V30 5271 C 510.111 2.98698 -1.76013 0
M  V30 5272 C 509.172 3.07454 -2.99617 0
M  V30 5273 C 508.405 4.37296 -3.05953 0
M  V30 5274 O 508.628 5.2637 -2.19752 0
M  V30 5275 O 507.562 4.51124 -3.9846 0
M  V30 5276 H 511.388 1.48606 -2.64859 0
M  V30 5277 H 508.973 0.673022 -1.33382 0
M  V30 5278 H 510.855 3.79725 -1.82721 0
M  V30 5279 H 509.53 3.12696 -0.836828 0
M  V30 5280 H 508.437 2.25597 -2.98424 0
M  V30 5281 H 509.77 2.98385 -3.91443 0
M  V30 5282 N 511.423 1.38739 0.74761 0
M  V30 5283 C 512.834 1.31507 1.32524 0
M  V30 5284 C 513.185 -0.0263963 1.96182 0
M  V30 5285 O 512.31 -0.92849 1.95469 0
M  V30 5286 C 512.905 2.38162 2.40966 0
M  V30 5287 C 511.464 2.34489 2.94434 0
M  V30 5288 C 510.611 2.20712 1.67873 0
M  V30 5289 H 513.562 1.4901 0.546043 0
M  V30 5290 H 513.583 2.04222 3.21051 0
M  V30 5291 H 513.095 3.35783 1.94605 0
M  V30 5292 H 511.196 1.40467 3.45108 0
M  V30 5293 H 511.309 3.28861 3.48407 0
M  V30 5294 H 509.673 1.67667 1.91729 0
M  V30 5295 H 510.456 3.20285 1.23582 0
M  V30 5296 N 512.901 -0.976442 1.23707 0
M  V30 5297 C 513.833 -2.07212 0.979574 0
M  V30 5298 C 514.846 -1.6273 -0.0478528 0
M  V30 5299 O 516.035 -1.77506 0.18815 0
M  V30 5300 C 513.135 -3.35835 0.45479 0
M  V30 5301 C 512.308 -4.09268 1.54331 0
M  V30 5302 C 511.367 -5.16166 1.02271 0
M  V30 5303 O 510.393 -5.42827 1.71254 0
M  V30 5304 N 511.595 -5.80313 -0.147419 0
M  V30 5305 H 514.36 -2.29878 1.92292 0
M  V30 5306 H 511.921 -1.14343 1.14618 0
M  V30 5307 H 513.913 -4.04597 0.0914631 0
M  V30 5308 H 512.483 -3.10106 -0.394068 0
M  V30 5309 H 511.703 -3.34906 2.07923 0
M  V30 5310 H 512.991 -4.55095 2.27522 0
M  V30 5311 H 512.389 -5.61043 -0.724353 0
M  V30 5312 H 510.946 -6.50231 -0.451972 0
M  V30 5313 N 514.379 -1.04941 -1.1758 0
M  V30 5314 C 515.625 -0.759112 -1.88057 0
M  V30 5315 C 515.958 0.711918 -1.8068 0
M  V30 5316 O 515.233 1.52035 -1.21308 0
M  V30 5317 C 515.516 -1.237 -3.38187 0
M  V30 5318 C 515.369 -2.77078 -3.54327 0
M  V30 5319 C 516.688 -0.834014 -4.32125 0
M  V30 5320 H 513.807 -0.277237 -0.682868 0
M  V30 5321 H 516.449 -1.30296 -1.38286 0
M  V30 5322 H 514.599 -0.774337 -3.80705 0
M  V30 5323 H 516.271 -3.31449 -3.20842 0
M  V30 5324 H 514.514 -3.16477 -2.96689 0
M  V30 5325 H 515.185 -3.05577 -4.59703 0
M  V30 5326 H 517.661 -1.23228 -3.97434 0
M  V30 5327 H 516.537 -1.19603 -5.35711 0
M  V30 5328 H 516.798 0.262195 -4.41322 0
M  V30 5329 N 515.857 1.33968 -0.830081 0
M  V30 5330 C 517.087 2.01987 -0.434142 0
M  V30 5331 C 517.495 1.62639 0.96671 0
M  V30 5332 O 516.838 0.831151 1.63822 0
M  V30 5333 C 516.9 3.5648 -0.465018 0
M  V30 5334 C 516.564 4.19176 -1.82045 0
M  V30 5335 C 517.561 4.39181 -2.78237 0
M  V30 5336 C 515.246 4.55792 -2.11089 0
M  V30 5337 C 517.24 4.94937 -4.01642 0
M  V30 5338 C 514.927 5.11258 -3.34752 0
M  V30 5339 C 515.925 5.30775 -4.29845 0
M  V30 5340 O 515.613 5.85064 -5.51322 0
M  V30 5341 H 515.345 0.653847 -0.171639 0
M  V30 5342 H 517.899 1.72066 -1.12171 0
M  V30 5343 H 516.129 3.8569 0.279284 0
M  V30 5344 H 517.818 4.05804 -0.0881334 0
M  V30 5345 H 518.584 4.11249 -2.57097 0
M  V30 5346 H 514.463 4.39901 -1.3787 0
M  V30 5347 H 518.007 5.10086 -4.75876 0
M  V30 5348 H 513.904 5.38619 -3.55753 0
M  V30 5349 H 514.672 6.03489 -5.5294 0
M  V30 5350 N 517.335 0.585699 1.46312 0
M  V30 5351 C 518.563 0.0781299 2.06752 0
M  V30 5352 C 518.978 -1.22812 1.43396 0
M  V30 5353 O 518.335 -1.74318 0.540314 0
M  V30 5354 C 518.386 -0.0911927 3.61385 0
M  V30 5355 O 518.107 1.16336 4.22371 0
M  V30 5356 C 519.608 -0.632765 4.38761 0
M  V30 5357 H 516.828 0.0588188 0.668417 0
M  V30 5358 H 519.372 0.807218 1.87894 0
M  V30 5359 H 517.527 -0.770514 3.7966 0
M  V30 5360 H 517.941 0.979082 5.15281 0
M  V30 5361 H 519.415 -0.70041 5.47538 0
M  V30 5362 H 519.892 -1.65039 4.07012 0
M  V30 5363 H 520.498 0.0117856 4.25298 0
M  V30 5364 N 518.813 -1.54241 0.323641 0
M  V30 5365 C 519.743 -2.27289 -0.534993 0
M  V30 5366 C 520.724 -1.28087 -1.11927 0
M  V30 5367 O 521.909 -1.56899 -1.14439 0
M  V30 5368 C 519.039 -3.03075 -1.69596 0
M  V30 5369 C 517.993 -4.09614 -1.24098 0
M  V30 5370 C 517.319 -4.73242 -2.4889 0
M  V30 5371 C 518.619 -5.21087 -0.355789 0
M  V30 5372 H 520.313 -2.99308 0.0743257 0
M  V30 5373 H 517.859 -1.43952 0.0371874 0
M  V30 5374 H 519.812 -3.52907 -2.30293 0
M  V30 5375 H 518.536 -2.28673 -2.33187 0
M  V30 5376 H 517.195 -3.60666 -0.656945 0
M  V30 5377 H 516.843 -3.95455 -3.10845 0
M  V30 5378 H 516.543 -5.45209 -2.19138 0
M  V30 5379 H 518.067 -5.25848 -3.10348 0
M  V30 5380 H 519.481 -5.66675 -0.869042 0
M  V30 5381 H 517.878 -5.9991 -0.151045 0
M  V30 5382 H 518.948 -4.81005 0.613339 0
M  V30 5383 N 520.291 -0.0518155 -1.57515 0
M  V30 5384 C 521.702 0.483787 -1.80323 0
M  V30 5385 C 522.053 1.70879 -0.964099 0
M  V30 5386 O 521.178 2.15643 -0.180872 0
M  V30 5387 C 521.773 0.884459 -3.27052 0
M  V30 5388 C 520.332 1.36504 -3.50776 0
M  V30 5389 C 519.479 0.340539 -2.75201 0
M  V30 5390 H 522.43 -0.277691 -1.56252 0
M  V30 5391 H 522.451 1.74733 -3.38007 0
M  V30 5392 H 521.963 -0.00731093 -3.88099 0
M  V30 5393 H 520.064 2.27598 -2.95009 0
M  V30 5394 H 520.177 1.35675 -4.59488 0
M  V30 5395 H 518.541 0.81356 -2.41357 0
M  V30 5396 H 519.324 -0.543156 -3.38976 0
M  V30 5397 N 521.769 1.56035 0.221574 0
M  V30 5398 C 523.18 1.69229 0.788567 0
M  V30 5399 C 523.531 0.653814 1.84986 0
M  V30 5400 O 522.656 -0.195065 2.15519 0
M  V30 5401 C 523.251 3.06809 1.43713 0
M  V30 5402 C 521.81 3.21858 1.95152 0
M  V30 5403 C 520.957 2.65155 0.811685 0
M  V30 5404 H 523.908 1.587 -0.00307894 0
M  V30 5405 H 523.929 3.02666 2.30594 0
M  V30 5406 H 523.441 3.82369 0.664475 0
M  V30 5407 H 521.542 2.51167 2.7522 0
M  V30 5408 H 521.655 4.29073 2.1315 0
M  V30 5409 H 520.019 2.23635 1.21899 0
M  V30 5410 H 520.802 3.43261 0.0516987 0
M  V30 5411 N 523.247 -0.488276 1.49845 0
M  V30 5412 C 524.472 -1.26997 1.63971 0
M  V30 5413 C 524.897 -1.85427 0.315994 0
M  V30 5414 O 524.255 -1.66475 -0.718032 0
M  V30 5415 C 524.303 -2.36689 2.72049 0
M  V30 5416 O 523.407 -3.40882 2.32107 0
M  V30 5417 H 522.748 -0.374376 0.548396 0
M  V30 5418 H 525.278 -0.583104 1.96115 0
M  V30 5419 H 525.288 -2.82262 2.94605 0
M  V30 5420 H 523.963 -1.93529 3.68129 0
M  V30 5421 H 522.54 -3.01139 2.19931 0
M  V30 5422 N 524.725 -1.39134 -0.740242 0
M  V30 5423 C 525.657 -1.33332 -1.86428 0
M  V30 5424 C 526.67 -0.243042 -1.60976 0
M  V30 5425 O 527.859 -0.501608 -1.71307 0
M  V30 5426 C 524.959 -1.04626 -3.22346 0
M  V30 5427 C 524.132 -2.24826 -3.75196 0
M  V30 5428 C 523.191 -1.92659 -4.89662 0
M  V30 5429 O 522.217 -2.6529 -5.03597 0
M  V30 5430 N 523.419 -0.889575 -5.73643 0
M  V30 5431 H 526.184 -2.30196 -1.91911 0
M  V30 5432 H 523.745 -1.33168 -0.920756 0
M  V30 5433 H 525.737 -0.811347 -3.96484 0
M  V30 5434 H 524.307 -0.165129 -3.12164 0
M  V30 5435 H 523.527 -2.64301 -2.9247 0
M  V30 5436 H 524.815 -3.05015 -4.07239 0
M  V30 5437 H 524.213 -0.287529 -5.64969 0
M  V30 5438 H 522.77 -0.714557 -6.47871 0
M  V30 5439 N 526.204 0.969867 -1.24223 0
M  V30 5440 C 527.114 2.09806 -1.0497 0
M  V30 5441 C 528.13 1.73998 0.00886455 0
M  V30 5442 O 529.306 2.00513 -0.188848 0
M  V30 5443 C 526.371 3.40467 -0.654452 0
M  V30 5444 C 525.432 3.90236 -1.78926 0
M  V30 5445 C 524.665 5.14662 -1.41277 0
M  V30 5446 O 524.888 5.69602 -0.301632 0
M  V30 5447 O 523.822 5.58761 -2.23763 0
M  V30 5448 H 527.648 2.28942 -1.99548 0
M  V30 5449 H 525.233 1.08197 -1.03023 0
M  V30 5450 H 527.115 4.19039 -0.445452 0
M  V30 5451 H 525.79 3.22636 0.262216 0
M  V30 5452 H 524.697 3.12735 -2.05299 0
M  V30 5453 H 526.03 4.1254 -2.68462 0
M  V30 5454 N 527.682 1.05563 1.17022 0
M  V30 5455 C 528.592 0.670758 2.24807 0
M  V30 5456 C 529.608 -0.309865 1.71219 0
M  V30 5457 O 530.784 -0.161025 2.00755 0
M  V30 5458 C 527.849 0.055337 3.46656 0
M  V30 5459 C 526.91 1.08688 4.15314 0
M  V30 5460 C 526.143 0.500736 5.31346 0
M  V30 5461 O 526.366 -0.688718 5.66227 0
M  V30 5462 O 525.3 1.23683 5.89055 0
M  V30 5463 H 529.126 1.56914 2.60023 0
M  V30 5464 H 526.711 0.827428 1.24395 0
M  V30 5465 H 528.593 -0.286492 4.20425 0
M  V30 5466 H 527.268 -0.816638 3.13229 0
M  V30 5467 H 526.175 1.48077 3.43546 0
M  V30 5468 H 527.508 1.93014 4.52777 0
M  V30 5469 N 529.16 -1.33526 0.837174 0
M  V30 5470 C 530.093 -2.27192 0.214233 0
M  V30 5471 C 531.071 -1.49575 -0.637657 0
M  V30 5472 O 532.255 -1.78753 -0.598291 0
M  V30 5473 C 529.382 -3.31401 -0.699367 0
M  V30 5474 C 528.428 -4.26431 0.0768429 0
M  V30 5475 S 529.261 -5.15954 1.4336 0
M  V30 5476 C 530.417 -6.23692 0.525251 0
M  V30 5477 H 530.65 -2.79679 1.00831 0
M  V30 5478 H 528.183 -1.4079 0.633834 0
M  V30 5479 H 530.141 -3.91924 -1.22088 0
M  V30 5480 H 528.802 -2.77732 -1.46709 0
M  V30 5481 H 527.995 -5.00193 -0.618268 0
M  V30 5482 H 527.597 -3.70235 0.529364 0
M  V30 5483 H 529.889 -6.76931 -0.277575 0
M  V30 5484 H 530.832 -6.97283 1.23299 0
M  V30 5485 H 531.24 -5.64398 0.107351 0
M  V30 5486 N 530.638 -0.59345 -1.46 0
M  V30 5487 C 531.866 -0.0890934 -2.06708 0
M  V30 5488 C 532.281 1.2205 -1.44046 0
M  V30 5489 O 531.638 1.74029 -0.549551 0
M  V30 5490 C 531.689 0.0720263 -3.61428 0
M  V30 5491 O 531.41 -1.18574 -4.21748 0
M  V30 5492 C 532.911 0.609487 -4.3909 0
M  V30 5493 H 530.131 -0.0623628 -0.668096 0
M  V30 5494 H 532.675 -0.817171 -1.87464 0
M  V30 5495 H 530.83 0.750369 -3.80063 0
M  V30 5496 H 531.244 -1.0064 -5.14754 0
M  V30 5497 H 532.718 0.671363 -5.47902 0
M  V30 5498 H 533.195 1.62878 -4.07882 0
M  V30 5499 H 533.801 -0.03434 -4.25286 0
M  V30 5500 N 532.116 1.54067 -0.331816 0
M  V30 5501 C 533.063 2.24623 0.530372 0
M  V30 5502 C 534.033 1.24009 1.10503 0
M  V30 5503 O 535.218 1.52712 1.14384 0
M  V30 5504 C 532.358 3.01374 1.68129 0
M  V30 5505 C 531.471 4.16821 1.13507 0
M  V30 5506 C 530.606 4.81085 2.25234 0
M  V30 5507 C 529.645 5.88621 1.67903 0
M  V30 5508 N 528.782 6.46713 2.73326 0
M  V30 5509 H 533.622 2.97898 -0.0778607 0
M  V30 5510 H 531.159 1.47014 -0.0501965 0
M  V30 5511 H 533.117 3.44125 2.35868 0
M  V30 5512 H 531.747 2.30419 2.26069 0
M  V30 5513 H 530.799 3.78796 0.348979 0
M  V30 5514 H 532.111 4.94203 0.675633 0
M  V30 5515 H 531.265 5.26846 3.00862 0
M  V30 5516 H 530.004 4.03102 2.74518 0
M  V30 5517 H 529.009 5.42254 0.907773 0
M  V30 5518 H 530.234 6.68506 1.19487 0
M  V30 5519 H 528.18 5.71599 3.21886 0
M  V30 5520 H 528.097 7.19532 2.3197 0
M  V30 5521 H 529.365 6.97129 3.48758 0
M  V30 5522 N 533.594 0.0601682 1.57485 0
M  V30 5523 C 534.542 -0.928899 2.13247 0
M  V30 5524 C 535.536 -1.31616 1.06647 0
M  V30 5525 O 536.742 -1.29476 1.25043 0
M  V30 5526 H 533.117 -0.317455 0.681708 0
M  V30 5527 H 535.088 -0.433566 2.95233 0
M  V30 5528 C 533.837 -2.19121 2.69965 0
M  V30 5529 H 533.16 -1.90204 3.51657 0
M  V30 5530 H 534.6 -2.86465 3.12592 0
M  V30 5531 C 533.059 -2.94195 1.64168 0
M  V30 5532 O 533.589 -3.87468 1.05978 0
M  V30 5533 N 531.795 -2.57089 1.35476 0
M  V30 5534 H 531.342 -1.81314 1.82984 0
M  V30 5535 H 531.3 -3.07624 0.649196 0
M  V30 5536 N 535.072 -1.5615 -0.213296 0
M  V30 5537 C 536.004 -1.89586 -1.28802 0
M  V30 5538 C 537.017 -0.784844 -1.42633 0
M  V30 5539 O 538.206 -1.06319 -1.43383 0
M  V30 5540 C 535.306 -2.09665 -2.66259 0
M  V30 5541 C 534.479 -3.40726 -2.7427 0
M  V30 5542 C 533.538 -3.50137 -3.92798 0
M  V30 5543 O 532.564 -4.23105 -3.8075 0
M  V30 5544 N 533.766 -2.81886 -5.07465 0
M  V30 5545 H 536.531 -2.82368 -1.00442 0
M  V30 5546 H 534.092 -1.56796 -0.403302 0
M  V30 5547 H 536.084 -2.13268 -3.43946 0
M  V30 5548 H 534.654 -1.23469 -2.87183 0
M  V30 5549 H 533.874 -3.4915 -1.82997 0
M  V30 5550 H 535.162 -4.27048 -2.76599 0
M  V30 5551 H 534.56 -2.22397 -5.2015 0
M  V30 5552 H 533.117 -2.91139 -5.83165 0
M  V30 5553 N 536.55 0.480323 -1.50102 0
M  V30 5554 C 537.796 1.23489 -1.60867 0
M  V30 5555 C 538.129 1.91809 -0.303827 0
M  V30 5556 O 537.404 1.81694 0.694092 0
M  V30 5557 C 537.687 2.28578 -2.78252 0
M  V30 5558 C 537.54 1.64624 -4.18592 0
M  V30 5559 C 538.859 3.2997 -2.91218 0
M  V30 5560 H 535.978 0.447605 -0.585507 0
M  V30 5561 H 538.62 0.530005 -1.82458 0
M  V30 5562 H 536.77 2.88697 -2.59974 0
M  V30 5563 H 538.442 1.08173 -4.48438 0
M  V30 5564 H 536.685 0.949645 -4.23278 0
M  V30 5565 H 537.356 2.40946 -4.96638 0
M  V30 5566 H 539.832 2.79864 -3.07921 0
M  V30 5567 H 538.708 4.00839 -3.74993 0
M  V30 5568 H 538.969 3.93541 -2.0144 0
M  V30 5569 N 538.028 1.39524 0.732853 0
M  V30 5570 C 539.253 1.40329 1.52717 0
M  V30 5571 C 539.678 0.000286574 1.881 0
M  V30 5572 O 539.036 -0.987262 1.52062 0
M  V30 5573 C 539.084 2.28464 2.78992 0
M  V30 5574 O 538.188 1.716 3.75003 0
M  V30 5575 H 537.529 0.47778 0.461109 0
M  V30 5576 H 540.059 1.83546 0.903996 0
M  V30 5577 H 540.069 2.43051 3.27705 0
M  V30 5578 H 538.744 3.30425 2.52572 0
M  V30 5579 H 537.321 1.66267 3.33781 0
M  V30 5580 N 539.506 -0.963266 1.24736 0
M  V30 5581 C 540.436 -2.07628 1.06832 0
M  V30 5582 C 541.417 -1.70088 -0.0200566 0
M  V30 5583 O 542.602 -1.93636 0.147854 0
M  V30 5584 C 539.732 -3.40636 0.677069 0
M  V30 5585 C 538.686 -3.9215 1.71471 0
M  V30 5586 C 538.012 -5.21553 1.1784 0
M  V30 5587 C 539.312 -4.19493 3.11164 0
M  V30 5588 H 541.006 -2.22864 1.9993 0
M  V30 5589 H 538.552 -1.07093 0.96266 0
M  V30 5590 H 540.505 -4.17941 0.538792 0
M  V30 5591 H 539.229 -3.25313 -0.289612 0
M  V30 5592 H 537.888 -3.17005 1.84128 0
M  V30 5593 H 537.536 -5.02593 0.202195 0
M  V30 5594 H 537.236 -5.56988 1.87185 0
M  V30 5595 H 538.76 -6.01463 1.05233 0
M  V30 5596 H 540.174 -4.87487 3.01711 0
M  V30 5597 H 538.571 -4.66165 3.77902 0
M  V30 5598 H 539.641 -3.26097 3.58871 0
M  V30 5599 N 540.985 -1.06182 -1.16461 0
M  V30 5600 C 542.213 -0.798583 -1.90867 0
M  V30 5601 C 542.628 0.646921 -1.77371 0
M  V30 5602 O 541.985 1.44279 -1.11758 0
M  V30 5603 C 542.036 -1.18258 -3.4161 0
M  V30 5604 O 541.757 -2.57135 -3.54701 0
M  V30 5605 C 543.258 -0.946917 -4.33069 0
M  V30 5606 H 540.478 -0.289603 -0.605286 0
M  V30 5607 H 543.022 -1.41515 -1.47627 0
M  V30 5608 H 541.177 -0.610562 -3.82558 0
M  V30 5609 H 541.591 -2.72477 -4.4817 0
M  V30 5610 H 543.065 -1.26523 -5.37304 0
M  V30 5611 H 543.542 0.117406 -4.39043 0
M  V30 5612 H 544.148 -1.50326 -3.97847 0
M  V30 5613 N 542.463 1.3308 -0.844243 0
M  V30 5614 C 543.703 1.99414 -0.448697 0
M  V30 5615 C 544.067 1.65398 0.975058 0
M  V30 5616 O 545.268 2.24741 1.47461 0
M  V30 5617 C 543.539 3.51081 -0.669089 0
M  V30 5618 S 545.098 4.37241 -0.369564 0
M  V30 5619 H 541.916 0.690736 -0.168538 0
M  V30 5620 H 544.518 1.61977 -1.0947 0
M  V30 5621 H 543.222 3.73326 -1.70457 0
M  V30 5622 H 542.753 3.93399 -0.00913211 0
M  V30 5623 H 544.768 4.89568 0.808552 0
M  V30 5624 N 543.941 0.601185 1.45683 0
M  V30 5625 C 544.871 -0.108824 2.33246 0
M  V30 5626 C 545.852 -0.865223 1.46451 0
M  V30 5627 O 547.037 -0.83704 1.75235 0
M  V30 5628 C 544.167 -1.11101 3.2905 0
M  V30 5629 C 543.121 -0.468244 4.25431 0
M  V30 5630 C 542.447 -1.57822 5.10878 0
M  V30 5631 C 543.747 0.606469 5.18767 0
M  V30 5632 H 545.441 0.622306 2.92861 0
M  V30 5633 H 542.987 0.300714 1.40825 0
M  V30 5634 H 544.94 -1.61622 3.89174 0
M  V30 5635 H 543.664 -1.87265 2.67581 0
M  V30 5636 H 542.323 0.0160484 3.66596 0
M  V30 5637 H 541.971 -2.32998 4.45781 0
M  V30 5638 H 541.671 -1.15369 5.76163 0
M  V30 5639 H 543.195 -2.08583 5.73869 0
M  V30 5640 H 544.609 0.185589 5.73 0
M  V30 5641 H 543.006 0.952381 5.92494 0
M  V30 5642 H 544.076 1.48559 4.61582 0
M  V30 5643 N 545.419 -1.53889 0.339982 0
M  V30 5644 C 546.665 -2.01152 -0.258003 0
M  V30 5645 C 546.998 -1.22749 -1.50487 0
M  V30 5646 O 546.273 -0.314156 -1.91946 0
M  V30 5647 C 546.556 -3.55468 -0.575717 0
M  V30 5648 C 546.409 -4.44584 0.682996 0
M  V30 5649 C 547.728 -4.1768 -1.38677 0
M  V30 5650 H 544.847 -0.731198 -0.0922992 0
M  V30 5651 H 547.489 -1.84352 0.459814 0
M  V30 5652 H 545.639 -3.69914 -1.18725 0
M  V30 5653 H 547.311 -4.41981 1.32102 0
M  V30 5654 H 545.554 -4.13592 1.3086 0
M  V30 5655 H 546.225 -5.5043 0.416001 0
M  V30 5656 H 548.701 -4.0691 -0.869705 0
M  V30 5657 H 547.577 -5.25734 -1.57783 0
M  V30 5658 H 547.838 -3.72069 -2.38782 0
M  V30 5659 N 546.897 -0.0685191 -1.57451 0
M  V30 5660 C 547.844 0.899861 -2.12535 0
M  V30 5661 C 548.814 1.29749 -1.03703 0
M  V30 5662 O 549.999 1.38392 -1.31348 0
M  V30 5663 C 547.139 2.16328 -2.6888 0
M  V30 5664 C 546.252 1.81857 -3.91857 0
M  V30 5665 C 545.387 3.02786 -4.36457 0
M  V30 5666 C 544.426 2.64317 -5.5209 0
M  V30 5667 N 543.563 3.77994 -5.91663 0
M  V30 5668 H 548.403 0.423243 -2.94979 0
M  V30 5669 H 545.94 0.197268 -1.45771 0
M  V30 5670 H 547.898 2.90281 -2.99655 0
M  V30 5671 H 546.528 2.61536 -1.89206 0
M  V30 5672 H 545.58 0.979808 -3.67565 0
M  V30 5673 H 546.892 1.49553 -4.75852 0
M  V30 5674 H 546.046 3.85021 -4.68875 0
M  V30 5675 H 544.785 3.38281 -3.51308 0
M  V30 5676 H 543.79 1.80503 -5.19325 0
M  V30 5677 H 545.015 2.29995 -6.38967 0
M  V30 5678 H 542.961 4.13258 -5.09464 0
M  V30 5679 H 542.878 3.49447 -6.7039 0
M  V30 5680 H 544.146 4.60818 -6.28703 0
M  V30 5681 N 548.375 1.56261 0.205012 0
M  V30 5682 C 549.623 1.79684 0.925096 0
M  V30 5683 C 549.944 0.63989 1.84202 0
M  V30 5684 O 549.214 -0.342345 1.92885 0
M  V30 5685 H 547.794 0.662774 0.344587 0
M  V30 5686 H 550.456 1.93734 0.212899 0
M  V30 5687 H 549.552 2.72467 1.52211 0
M  V30 5688 N 549.853 -0.472356 1.50355 0
M  V30 5689 C 551.1 -1.22453 1.61281 0
M  V30 5690 C 551.428 -1.91972 0.31256 0
M  V30 5691 O 550.683 -1.82696 -0.701475 0
M  V30 5692 C 550.982 -2.29257 2.74182 0
M  V30 5693 C 550.648 -1.76999 4.14708 0
M  V30 5694 C 549.31 -1.62467 4.52944 0
M  V30 5695 C 551.662 -1.38215 5.0254 0
M  V30 5696 C 548.99 -1.07574 5.76754 0
M  V30 5697 C 551.342 -0.847638 6.26895 0
M  V30 5698 C 550.006 -0.688946 6.63935 0
M  V30 5699 H 549.276 -0.448087 0.590168 0
M  V30 5700 H 551.923 -0.520744 1.84284 0
M  V30 5701 H 550.228 -3.05538 2.45263 0
M  V30 5702 H 551.925 -2.87212 2.7984 0
M  V30 5703 H 548.515 -1.89276 3.84542 0
M  V30 5704 H 552.699 -1.48276 4.73633 0
M  V30 5705 H 547.955 -0.940237 6.04127 0
M  V30 5706 H 552.129 -0.538455 6.94315 0
M  V30 5707 H 549.756 -0.261435 7.5975 0
M  V30 5708 N 551.331 -1.39911 -0.725443 0
M  V30 5709 C 552.561 -1.40744 -1.51244 0
M  V30 5710 C 552.969 -0.00275403 -1.892 0
M  V30 5711 O 552.312 0.981299 -1.55294 0
M  V30 5712 C 552.374 -2.22527 -2.82351 0
M  V30 5713 C 552.038 -3.71053 -2.66774 0
M  V30 5714 C 553.035 -4.63916 -2.34686 0
M  V30 5715 C 550.72 -4.14753 -2.83347 0
M  V30 5716 C 552.714 -5.98463 -2.19366 0
M  V30 5717 C 550.401 -5.49372 -2.67644 0
M  V30 5718 C 551.399 -6.41042 -2.357 0
M  V30 5719 O 551.087 -7.73181 -2.20107 0
M  V30 5720 H 550.819 -0.482314 -0.473655 0
M  V30 5721 H 553.373 -1.84472 -0.903284 0
M  V30 5722 H 551.603 -1.73563 -3.45562 0
M  V30 5723 H 553.292 -2.15421 -3.44018 0
M  V30 5724 H 554.058 -4.31453 -2.21525 0
M  V30 5725 H 549.937 -3.43728 -3.072 0
M  V30 5726 H 553.481 -6.69979 -1.94354 0
M  V30 5727 H 549.378 -5.81424 -2.80387 0
M  V30 5728 H 550.146 -7.84008 -2.35103 0
M  V30 5729 N 552.809 0.956637 -1.25245 0
M  V30 5730 C 554.22 1.51569 -1.09012 0
M  V30 5731 C 554.571 1.93322 0.334813 0
M  V30 5732 O 553.696 1.78421 1.22454 0
M  V30 5733 C 554.291 2.75444 -1.97271 0
M  V30 5734 C 552.85 3.27669 -1.8523 0
M  V30 5735 C 551.997 2.00517 -1.91542 0
M  V30 5736 H 554.948 0.773746 -1.3856 0
M  V30 5737 H 554.969 3.4919 -1.51151 0
M  V30 5738 H 554.481 2.45024 -3.00973 0
M  V30 5739 H 552.582 3.62914 -0.844045 0
M  V30 5740 H 552.695 3.9582 -2.69932 0
M  V30 5741 H 551.059 2.15727 -1.35404 0
M  V30 5742 H 551.842 1.72448 -2.96844 0
M  V30 5743 N 554.287 1.06798 1.15896 0
M  V30 5744 C 555.512 0.808739 1.90982 0
M  V30 5745 C 555.937 -0.6316 1.77179 0
M  V30 5746 O 555.295 -1.4407 1.10061 0
M  V30 5747 C 555.343 1.21468 3.39526 0
M  V30 5748 O 554.447 0.356562 4.10856 0
M  V30 5749 H 553.788 0.29512 0.594811 0
M  V30 5750 H 556.318 1.42513 1.46804 0
M  V30 5751 H 556.328 1.18844 3.90308 0
M  V30 5752 H 555.003 2.26379 3.48891 0
M  V30 5753 H 553.58 0.444808 3.70238 0
M  V30 5754 N 555.766 -1.3263 0.851289 0
M  V30 5755 C 557.043 -1.91982 0.374448 0
M  V30 5756 C 557.423 -1.77568 -1.14161 0
M  V30 5757 O 556.771 -1.1717 -1.96172 0
M  V30 5758 C 556.981 -3.38862 0.835088 0
M  V30 5759 C 558.329 -4.15999 0.850309 0
M  V30 5760 O 559.353 -3.47566 0.779505 0
M  V30 5761 O 558.212 -5.38189 0.949481 0
M  V30 5762 H 555.306 -0.819846 0.10854 0
M  V30 5763 H 557.852 -1.41422 0.937966 0
M  V30 5764 H 556.624 -3.43281 1.87814 0
M  V30 5765 H 556.247 -3.96821 0.248833 0
M  V30 5766 N 557.244 -0.608902 -1.45362 0
M  V30 5767 C 558.493 -0.10218 -2.01441 0
M  V30 5768 C 558.806 1.27546 -1.48295 0
M  V30 5769 O 560.012 1.87498 -1.96359 0
M  V30 5770 C 558.468 -0.131985 -3.59658 0
M  V30 5771 C 558.076 -1.50956 -4.21801 0
M  V30 5772 C 559.82 0.319427 -4.23296 0
M  V30 5773 C 557.727 -1.49568 -5.72174 0
M  V30 5774 H 556.657 -0.0344314 -0.753213 0
M  V30 5775 H 559.308 -0.764426 -1.6682 0
M  V30 5776 H 557.69 0.596939 -3.91475 0
M  V30 5777 H 558.864 -2.26029 -4.01556 0
M  V30 5778 H 557.179 -1.90318 -3.70362 0
M  V30 5779 H 559.776 0.349013 -5.3356 0
M  V30 5780 H 560.119 1.34237 -3.94064 0
M  V30 5781 H 560.652 -0.356273 -3.96201 0
M  V30 5782 H 557.391 -2.49626 -6.06108 0
M  V30 5783 H 556.911 -0.787542 -5.94607 0
M  V30 5784 H 558.59 -1.21989 -6.35396 0
M  V30 5785 N 558.722 1.53707 -0.348139 0
M  V30 5786 C 559.685 2.23812 0.494058 0
M  V30 5787 C 560.685 1.23989 1.02388 0
M  V30 5788 O 561.875 1.48395 0.912396 0
M  V30 5789 C 559.007 2.96133 1.68872 0
M  V30 5790 H 560.2 2.99663 -0.119141 0
M  V30 5791 H 557.753 1.55983 -0.0995539 0
M  V30 5792 H 558.488 2.24481 2.34049 0
M  V30 5793 H 558.273 3.69357 1.31596 0
M  V30 5794 H 559.763 3.49475 2.28597 0
M  V30 5795 N 560.2 0.0768682 1.57412 0
M  V30 5796 C 561.446 -0.591961 1.93968 0
M  V30 5797 C 561.779 -1.68954 0.9575 0
M  V30 5798 O 561.054 -1.94496 -0.0124675 0
M  V30 5799 C 561.337 -1.16418 3.40762 0
M  V30 5800 C 561.19 -0.0728933 4.49741 0
M  V30 5801 C 562.509 -2.06814 3.88479 0
M  V30 5802 H 559.628 -0.213716 0.705333 0
M  V30 5803 H 562.27 0.14387 1.89455 0
M  V30 5804 H 560.42 -1.79128 3.4474 0
M  V30 5805 H 562.092 0.560446 4.57883 0
M  V30 5806 H 560.335 0.595859 4.29688 0
M  V30 5807 H 561.006 -0.513755 5.49604 0
M  V30 5808 H 563.482 -1.54033 3.8654 0
M  V30 5809 H 562.358 -2.43785 4.91793 0
M  V30 5810 H 562.619 -2.97844 3.26713 0
M  V30 5811 N 561.678 -1.56367 -0.196722 0
M  V30 5812 C 562.588 -1.97617 -1.2643 0
M  V30 5813 C 563.604 -0.883598 -1.49895 0
M  V30 5814 O 564.78 -1.18921 -1.62541 0
M  V30 5815 C 561.845 -2.30595 -2.58895 0
M  V30 5816 C 560.906 -3.53551 -2.43516 0
M  V30 5817 C 560.139 -3.84946 -3.69665 0
M  V30 5818 O 560.362 -3.17655 -4.73763 0
M  V30 5819 O 559.296 -4.78379 -3.65291 0
M  V30 5820 H 563.122 -2.88648 -0.944233 0
M  V30 5821 H 560.707 -1.43901 -0.401592 0
M  V30 5822 H 562.589 -2.52889 -3.37083 0
M  V30 5823 H 561.264 -1.42732 -2.90533 0
M  V30 5824 H 560.171 -3.36507 -1.63445 0
M  V30 5825 H 561.504 -4.41875 -2.16812 0
M  V30 5826 N 563.156 0.464375 -1.50603 0
M  V30 5827 C 564.402 1.21485 -1.63135 0
M  V30 5828 C 564.757 1.89538 -0.33063 0
M  V30 5829 O 564.05 1.79432 0.671903 0
M  V30 5830 C 564.244 2.278 -2.75394 0
M  V30 5831 C 564.073 1.70178 -4.16257 0
M  V30 5832 C 562.843 1.49854 -4.82568 0
M  V30 5833 C 565.041 1.19298 -5.00272 0
M  V30 5834 N 563.023 0.875458 -6.07626 0
M  V30 5835 C 564.394 0.693527 -6.16109 0
M  V30 5836 C 566.449 1.08216 -4.85998 0
M  V30 5837 C 565.152 0.0941808 -7.19238 0
M  V30 5838 C 567.178 0.496745 -5.8931 0
M  V30 5839 C 566.54 0.00770448 -7.044 0
M  V30 5840 H 562.639 0.433184 -0.651057 0
M  V30 5841 H 565.223 0.515748 -1.87745 0
M  V30 5842 H 563.394 2.95129 -2.52495 0
M  V30 5843 H 565.126 2.94814 -2.77249 0
M  V30 5844 H 561.881 1.75269 -4.39975 0
M  V30 5845 H 562.305 0.582135 -6.74493 0
M  V30 5846 H 566.947 1.44617 -3.97298 0
M  V30 5847 H 564.665 -0.28202 -8.07608 0
M  V30 5848 H 568.251 0.413275 -5.8033 0
M  V30 5849 H 567.131 -0.438188 -7.82975 0
M  V30 5850 N 564.634 1.40294 0.718013 0
M  V30 5851 C 565.544 1.42678 1.86226 0
M  V30 5852 C 566.56 0.319655 1.71039 0
M  V30 5853 O 567.736 0.563852 1.93346 0
M  V30 5854 C 564.801 1.2852 3.21999 0
M  V30 5855 C 563.862 2.49354 3.49458 0
M  V30 5856 C 563.095 2.35863 4.78753 0
M  V30 5857 O 563.318 1.37114 5.53675 0
M  V30 5858 O 562.252 3.25189 5.06494 0
M  V30 5859 H 566.078 2.39167 1.87171 0
M  V30 5860 H 563.663 1.2159 0.868112 0
M  V30 5861 H 565.545 1.22824 4.03103 0
M  V30 5862 H 564.22 0.351359 3.21787 0
M  V30 5863 H 563.127 2.60628 2.68373 0
M  V30 5864 H 564.46 3.41491 3.54464 0
M  V30 5865 N 566.112 -0.949982 1.2575 0
M  V30 5866 C 567.337 -1.73503 1.13628 0
M  V30 5867 C 567.762 -1.85601 -0.30559 0
M  V30 5868 O 567.12 -1.33984 -1.22139 0
M  V30 5869 C 567.168 -3.1243 1.80055 0
M  V30 5870 O 566.272 -3.97916 1.08336 0
M  V30 5871 H 565.613 -0.532665 0.396439 0
M  V30 5872 H 568.143 -1.19043 1.66403 0
M  V30 5873 H 568.153 -3.62866 1.86527 0
M  V30 5874 H 566.828 -3.02941 2.84956 0
M  V30 5875 H 565.405 -3.56375 1.09777 0
M  V30 5876 N 567.59 -1.07411 -1.15328 0
M  V30 5877 C 568.538 -0.689316 -2.22151 0
M  V30 5878 C 569.532 0.300156 -1.6672 0
M  V30 5879 O 570.738 0.163804 -1.79253 0
M  V30 5880 H 567.113 -0.204834 -0.723566 0
M  V30 5881 H 569.084 -1.59988 -2.51886 0
M  V30 5882 C 567.833 -0.103848 -3.47545 0
M  V30 5883 H 567.156 -0.856367 -3.90521 0
M  V30 5884 H 568.596 0.127725 -4.23808 0
M  V30 5885 C 567.055 1.15563 -3.1646 0
M  V30 5886 O 567.585 2.242 -3.33312 0
M  V30 5887 N 565.791 1.06203 -2.70498 0
M  V30 5888 H 565.338 0.177933 -2.56985 0
M  V30 5889 H 565.296 1.90553 -2.50074 0
M  V30 5890 N 569.068 1.32177 -0.85831 0
M  V30 5891 C 570.316 1.96735 -0.462568 0
M  V30 5892 C 570.637 1.6824 0.985911 0
M  V30 5893 O 569.907 0.991564 1.68952 0
M  V30 5894 H 568.487 0.727849 -0.168064 0
M  V30 5895 H 571.149 1.61195 -1.09554 0
M  V30 5896 H 570.245 3.06068 -0.610647 0
M  V30 5897 N 570.547 0.616602 1.45037 0
M  V30 5898 C 571.479 -0.135186 2.28801 0
M  V30 5899 C 572.492 -0.82303 1.40464 0
M  V30 5900 O 573.681 -0.686909 1.64754 0
M  V30 5901 C 570.781 -1.21292 3.16451 0
M  V30 5902 C 569.954 -0.61043 4.3312 0
M  V30 5903 C 569.013 -1.58022 5.01912 0
M  V30 5904 O 568.039 -1.10301 5.58411 0
M  V30 5905 N 569.241 -2.91464 5.02025 0
M  V30 5906 H 572.006 0.583612 2.93963 0
M  V30 5907 H 569.567 0.456723 1.55324 0
M  V30 5908 H 571.559 -1.86169 3.59337 0
M  V30 5909 H 570.129 -1.83412 2.53138 0
M  V30 5910 H 569.349 0.216638 3.93604 0
M  V30 5911 H 570.637 -0.188293 5.08451 0
M  V30 5912 H 570.035 -3.32829 4.57429 0
M  V30 5913 H 568.592 -3.51741 5.48745 0
M  V30 5914 N 572.025 -1.5352 0.356285 0
M  V30 5915 C 573.436 -1.86282 -0.12492 0
M  V30 5916 C 573.787 -1.27717 -1.48939 0
M  V30 5917 O 572.912 -0.595614 -2.08042 0
M  V30 5918 C 573.507 -3.37995 -0.23345 0
M  V30 5919 C 572.066 -3.70588 -0.658899 0
M  V30 5920 C 571.213 -2.76581 0.199596 0
M  V30 5921 H 574.164 -1.47901 0.575423 0
M  V30 5922 H 574.185 -3.65475 -1.0587 0
M  V30 5923 H 573.697 -3.8059 0.759776 0
M  V30 5924 H 571.798 -3.33544 -1.66069 0
M  V30 5925 H 571.911 -4.77076 -0.439957 0
M  V30 5926 H 570.275 -2.52552 -0.330076 0
M  V30 5927 H 571.058 -3.22008 1.19019 0
M  V30 5928 N 573.503 -0.0852151 -1.57369 0
M  V30 5929 C 574.413 0.891712 -2.16992 0
M  V30 5930 C 575.429 1.3174 -1.13669 0
M  V30 5931 O 576.605 1.38735 -1.45995 0
M  V30 5932 C 573.67 2.13635 -2.73059 0
M  V30 5933 C 572.731 1.7658 -3.91303 0
M  V30 5934 C 571.964 2.95111 -4.44686 0
M  V30 5935 O 572.187 4.09539 -3.97032 0
M  V30 5936 O 571.121 2.74149 -5.35841 0
M  V30 5937 H 574.947 0.414477 -3.00858 0
M  V30 5938 H 572.532 0.138598 -1.48756 0
M  V30 5939 H 574.414 2.86595 -3.08935 0
M  V30 5940 H 573.089 2.6043 -1.92244 0
M  V30 5941 H 571.996 1.00831 -3.60255 0
M  V30 5942 H 573.329 1.34557 -4.7345 0
M  V30 5943 N 574.981 1.5647 0.188427 0
M  V30 5944 C 575.929 1.95971 1.25293 0
M  V30 5945 C 576.923 0.846047 1.4676 0
M  V30 5946 O 578.129 1.03109 1.47542 0
M  V30 5947 H 574.504 0.623253 0.420784 0
M  V30 5948 H 576.475 2.84731 0.892792 0
M  V30 5949 C 575.224 2.32116 2.58877 0
M  V30 5950 H 574.547 3.17341 2.43176 0
M  V30 5951 H 575.987 2.63613 3.3209 0
M  V30 5952 C 574.446 1.15823 3.16365 0
M  V30 5953 O 574.976 0.436785 3.99318 0
M  V30 5954 N 573.182 0.933278 2.75206 0
M  V30 5955 H 572.729 1.52169 2.07852 0
M  V30 5956 H 572.687 0.156976 3.14008 0
M  V30 5957 N 576.459 -0.456382 1.50847 0
M  V30 5958 C 577.407 -1.57318 1.71329 0
M  V30 5959 C 578.401 -1.59187 0.579287 0
M  V30 5960 O 579.607 -1.6316 0.76018 0
M  V30 5961 H 575.982 -0.5223 0.541024 0
M  V30 5962 H 577.953 -1.3721 2.64983 0
M  V30 5963 C 576.702 -2.95142 1.83811 0
M  V30 5964 H 576.025 -2.94428 2.70467 0
M  V30 5965 H 577.465 -3.72702 2.02161 0
M  V30 5966 C 575.924 -3.31636 0.593224 0
M  V30 5967 O 576.454 -4.00852 -0.260898 0
M  V30 5968 N 574.66 -2.87205 0.442902 0
M  V30 5969 H 574.207 -2.31051 1.13901 0
M  V30 5970 H 574.165 -3.11986 -0.38884 0
M  V30 5971 N 577.937 -1.40673 -0.710563 0
M  V30 5972 C 579.167 -1.4234 -1.49742 0
M  V30 5973 C 579.575 -0.022821 -1.89186 0
M  V30 5974 O 578.918 0.964773 -1.56326 0
M  V30 5975 C 578.98 -2.25509 -2.79975 0
M  V30 5976 C 578.644 -3.73862 -2.62824 0
M  V30 5977 C 579.641 -4.66379 -2.29752 0
M  V30 5978 C 577.326 -4.17735 -2.78932 0
M  V30 5979 C 579.32 -6.00756 -2.13006 0
M  V30 5980 C 577.007 -5.5218 -2.61802 0
M  V30 5981 C 578.005 -6.43505 -2.28888 0
M  V30 5982 O 577.693 -7.75472 -2.11894 0
M  V30 5983 H 577.425 -0.487311 -0.468513 0
M  V30 5984 H 579.979 -1.8542 -0.883668 0
M  V30 5985 H 578.209 -1.77218 -3.43701 0
M  V30 5986 H 579.898 -2.19058 -3.41714 0
M  V30 5987 H 580.664 -4.33778 -2.16936 0
M  V30 5988 H 576.543 -3.46967 -3.03537 0
M  V30 5989 H 580.087 -6.72003 -1.87237 0
M  V30 5990 H 575.984 -5.84365 -2.74204 0
M  V30 5991 H 576.752 -7.86458 -2.26775 0
M  V30 5992 N 579.415 0.9433 -1.26252 0
M  V30 5993 C 580.362 2.0417 -1.07625 0
M  V30 5994 C 581.332 1.6609 0.0180738 0
M  V30 5995 O 582.517 1.90276 -0.141289 0
M  V30 5996 C 579.657 3.37653 -0.713043 0
M  V30 5997 C 578.77 3.88783 -1.8834 0
M  V30 5998 C 577.905 5.10642 -1.4635 0
M  V30 5999 C 576.944 5.54028 -2.60229 0
M  V30 6000 N 576.081 6.67092 -2.18936 0
M  V30 6001 H 580.921 2.19436 -2.01623 0
M  V30 6002 H 578.458 1.07519 -1.00389 0
M  V30 6003 H 580.416 4.14391 -0.483358 0
M  V30 6004 H 579.046 3.22241 0.18996 0
M  V30 6005 H 578.098 3.08464 -2.22608 0
M  V30 6006 H 579.41 4.16922 -2.73821 0
M  V30 6007 H 578.564 5.94832 -1.19414 0
M  V30 6008 H 577.303 4.84244 -0.579568 0
M  V30 6009 H 576.308 4.68396 -2.87898 0
M  V30 6010 H 577.533 5.82429 -3.49219 0
M  V30 6011 H 575.479 6.42381 -1.32974 0
M  V30 6012 H 575.396 6.94806 -2.97961 0
M  V30 6013 H 576.664 7.54662 -1.95206 0
M  V30 6014 N 580.893 1.08022 1.14757 0
M  V30 6015 C 582.121 0.828847 1.89572 0
M  V30 6016 C 582.536 -0.618621 1.78377 0
M  V30 6017 O 581.893 -1.42482 1.1404 0
M  V30 6018 C 581.944 1.23677 3.39685 0
M  V30 6019 O 581.665 2.62746 3.50566 0
M  V30 6020 C 583.166 1.01569 4.31507 0
M  V30 6021 H 580.386 0.299196 0.600602 0
M  V30 6022 H 582.93 1.43846 1.45357 0
M  V30 6023 H 581.085 0.671347 3.81539 0
M  V30 6024 H 581.499 2.79573 4.43778 0
M  V30 6025 H 582.973 1.35055 5.35223 0
M  V30 6026 H 583.45 -0.0475433 4.39174 0
M  V30 6027 H 584.056 1.56636 3.95405 0
M  V30 6028 N 582.371 -1.3172 0.865308 0
M  V30 6029 C 583.599 -2.01057 0.488251 0
M  V30 6030 C 584.014 -1.64979 -0.918 0
M  V30 6031 O 583.371 -0.876597 -1.60069 0
M  V30 6032 C 583.422 -3.55964 0.630224 0
M  V30 6033 O 583.143 -3.90749 1.98109 0
M  V30 6034 C 584.644 -4.42574 0.253567 0
M  V30 6035 H 581.864 -0.64332 0.190736 0
M  V30 6036 H 584.408 -1.68058 1.16519 0
M  V30 6037 H 582.563 -3.874 0.000895422 0
M  V30 6038 H 582.977 -4.85467 1.9855 0
M  V30 6039 H 584.451 -5.50521 0.403875 0
M  V30 6040 H 584.928 -4.31724 -0.806895 0
M  V30 6041 H 585.534 -4.16547 0.858404 0
M  V30 6042 N 583.85 -0.624285 -1.44708 0
M  V30 6043 C 585.26 -0.2092 -1.85524 0
M  V30 6044 C 585.611 1.23783 -1.52225 0
M  V30 6045 O 584.736 1.94089 -0.956986 0
M  V30 6046 C 585.332 -0.372897 -3.36742 0
M  V30 6047 C 583.891 -0.012374 -3.76398 0
M  V30 6048 C 583.038 -0.68951 -2.68591 0
M  V30 6049 H 585.989 -0.829894 -1.35272 0
M  V30 6050 H 586.01 0.390134 -3.78495 0
M  V30 6051 H 585.522 -1.42615 -3.60947 0
M  V30 6052 H 583.623 1.03941 -3.57809 0
M  V30 6053 H 583.736 -0.417663 -4.77276 0
M  V30 6054 H 582.1 -0.125484 -2.54391 0
M  V30 6055 H 582.883 -1.74522 -2.9563 0
M  V30 6056 N 585.328 1.53329 -0.364422 0
M  V30 6057 C 586.739 1.86345 0.115039 0
M  V30 6058 C 587.09 1.28505 1.4826 0
M  V30 6059 O 586.215 0.606639 2.07723 0
M  V30 6060 C 586.81 3.38114 0.215522 0
M  V30 6061 C 585.369 3.70932 0.639237 0
M  V30 6062 C 584.516 2.76471 -0.214261 0
M  V30 6063 H 587.467 1.47593 -0.583258 0
M  V30 6064 H 587.488 3.66031 1.0393 0
M  V30 6065 H 587 3.80182 -0.779948 0
M  V30 6066 H 585.101 3.3442 1.64298 0
M  V30 6067 H 585.214 4.77302 0.41465 0
M  V30 6068 H 583.578 2.52724 0.316678 0
M  V30 6069 H 584.361 3.21373 -1.20725 0
M  V30 6070 N 586.806 0.0935595 1.57322 0
M  V30 6071 C 588.052 -0.571355 1.94585 0
M  V30 6072 C 588.385 -1.67929 0.975366 0
M  V30 6073 O 587.66 -1.94498 0.00816206 0
M  V30 6074 C 587.943 -1.12797 3.41978 0
M  V30 6075 C 587.796 -0.0251881 4.49793 0
M  V30 6076 C 589.115 -2.02682 3.90651 0
M  V30 6077 H 586.234 -0.206223 0.70756 0
M  V30 6078 H 588.876 0.163956 1.89291 0
M  V30 6079 H 587.026 -1.75461 3.4662 0
M  V30 6080 H 588.698 0.608979 4.57263 0
M  V30 6081 H 586.941 0.641399 4.29032 0
M  V30 6082 H 587.612 -0.455433 5.50118 0
M  V30 6083 H 590.088 -1.49925 3.88152 0
M  V30 6084 H 588.964 -2.38555 4.94351 0
M  V30 6085 H 589.225 -2.94362 3.29854 0
M  V30 6086 N 588.284 -1.56567 -0.180126 0
M  V30 6087 C 589.214 -1.98753 -1.22553 0
M  V30 6088 C 590.195 -0.86175 -1.46656 0
M  V30 6089 O 591.38 -1.12719 -1.58139 0
M  V30 6090 C 588.51 -2.33988 -2.56645 0
M  V30 6091 C 587.464 -3.49445 -2.47128 0
M  V30 6092 C 586.79 -3.70397 -3.8563 0
M  V30 6093 C 588.09 -4.83171 -1.98352 0
M  V30 6094 H 589.784 -2.86332 -0.874896 0
M  V30 6095 H 587.33 -1.37757 -0.419414 0
M  V30 6096 H 589.283 -2.62097 -3.29974 0
M  V30 6097 H 588.007 -1.43309 -2.93479 0
M  V30 6098 H 586.666 -3.2145 -1.76254 0
M  V30 6099 H 586.314 -2.77023 -4.19842 0
M  V30 6100 H 586.014 -4.48077 -3.80132 0
M  V30 6101 H 587.538 -4.00897 -4.60558 0
M  V30 6102 H 588.952 -5.10213 -2.61449 0
M  V30 6103 H 587.349 -5.64425 -2.03823 0
M  V30 6104 H 588.419 -4.75753 -0.937402 0
M  V30 6105 N 589.762 0.448376 -1.51087 0
M  V30 6106 C 591.039 1.20926 -1.53741 0
M  V30 6107 C 591.419 2.09025 -0.295222 0
M  V30 6108 O 590.767 2.16851 0.720283 0
M  V30 6109 C 590.977 2.02067 -2.84552 0
M  V30 6110 C 592.325 2.59486 -3.36084 0
M  V30 6111 O 593.349 2.12289 -2.86028 0
M  V30 6112 O 592.208 3.45539 -4.23397 0
M  V30 6113 H 589.302 0.549951 -0.617643 0
M  V30 6114 H 591.848 0.458344 -1.63393 0
M  V30 6115 H 590.62 1.37291 -3.66425 0
M  V30 6116 H 590.243 2.84246 -2.78011 0
M  V30 6117 N 591.24 1.41047 0.703093 0
M  V30 6118 C 592.465 1.43537 1.49706 0
M  V30 6119 C 592.89 0.0401853 1.88057 0
M  V30 6120 O 592.248 -0.954785 1.54122 0
M  V30 6121 C 592.296 2.3433 2.74084 0
M  V30 6122 O 591.4 1.79515 3.71279 0
M  V30 6123 H 590.741 0.487454 0.450871 0
M  V30 6124 H 593.271 1.85422 0.86486 0
M  V30 6125 H 593.281 2.49947 3.22476 0
M  V30 6126 H 591.956 3.35708 2.45506 0
M  V30 6127 H 590.533 1.7331 3.30179 0
M  V30 6128 N 592.718 -0.936591 1.26751 0
M  V30 6129 C 593.995 -1.66094 1.03306 0
M  V30 6130 C 594.375 -2.06568 -0.435058 0
M  V30 6131 O 593.723 -1.79305 -1.41641 0
M  V30 6132 C 593.933 -2.86969 1.98619 0
M  V30 6133 C 595.281 -3.58516 2.27489 0
M  V30 6134 O 596.305 -2.97082 1.96522 0
M  V30 6135 O 595.164 -4.69181 2.80235 0
M  V30 6136 H 592.258 -0.727568 0.393158 0
M  V30 6137 H 594.804 -0.987914 1.3798 0
M  V30 6138 H 593.576 -2.53985 2.9767 0
M  V30 6139 H 593.199 -3.61996 1.64454 0
M  V30 6140 N 594.196 -1.08629 -1.14182 0
M  V30 6141 C 595.444 -0.815731 -1.84906 0
M  V30 6142 C 595.765 0.660441 -1.83475 0
M  V30 6143 O 595.035 1.47888 -1.28476 0
M  V30 6144 H 593.615 -0.298773 -0.684648 0
M  V30 6145 H 596.277 -1.37274 -1.38354 0
M  V30 6146 H 595.373 -1.16193 -2.89665 0
M  V30 6147 N 595.674 1.31259 -0.872281 0
M  V30 6148 C 596.899 2.0133 -0.498099 0
M  V30 6149 C 597.324 1.65031 0.902568 0
M  V30 6150 O 596.682 0.860164 1.59596 0
M  V30 6151 C 596.73 3.54411 -0.665205 0
M  V30 6152 O 595.834 4.11347 0.294473 0
M  V30 6153 H 595.175 0.633844 -0.197832 0
M  V30 6154 H 597.705 1.67402 -1.17633 0
M  V30 6155 H 597.715 4.04147 -0.559373 0
M  V30 6156 H 596.39 3.80171 -1.68651 0
M  V30 6157 H 594.967 3.72624 0.143403 0
M  V30 6158 N 597.152 0.631951 1.44375 0
M  V30 6159 C 598.399 0.136767 2.02038 0
M  V30 6160 C 598.727 -1.24168 1.49709 0
M  V30 6161 O 597.982 -1.83809 0.671763 0
M  V30 6162 C 598.281 0.0735861 3.57324 0
M  V30 6163 C 597.947 1.39092 4.28911 0
M  V30 6164 C 596.609 1.75171 4.48184 0
M  V30 6165 C 598.961 2.26042 4.69632 0
M  V30 6166 C 596.289 2.97907 5.05439 0
M  V30 6167 C 598.641 3.4805 5.28246 0
M  V30 6168 C 597.305 3.84351 5.45738 0
M  V30 6169 H 596.575 0.0500466 0.739308 0
M  V30 6170 H 599.222 0.818429 1.7313 0
M  V30 6171 H 597.527 -0.691449 3.8565 0
M  V30 6172 H 599.224 -0.326091 3.99672 0
M  V30 6173 H 595.814 1.10015 4.1424 0
M  V30 6174 H 599.998 1.99463 4.54454 0
M  V30 6175 H 595.254 3.26108 5.17169 0
M  V30 6176 H 599.428 4.15658 5.5875 0
M  V30 6177 H 597.055 4.79538 5.8987 0
M  V30 6178 N 598.631 -1.53133 0.372548 0
M  V30 6179 C 599.878 -2.01356 -0.214959 0
M  V30 6180 C 600.206 -1.2596 -1.48204 0
M  V30 6181 O 599.461 -0.343511 -1.92662 0
M  V30 6182 C 599.76 -3.53206 -0.545938 0
M  V30 6183 C 599.426 -4.46511 0.627624 0
M  V30 6184 C 598.088 -4.71737 0.949615 0
M  V30 6185 C 600.44 -5.01666 1.41353 0
M  V30 6186 C 597.768 -5.4937 2.05936 0
M  V30 6187 C 600.12 -5.80511 2.51375 0
M  V30 6188 C 598.784 -6.04022 2.84101 0
M  V30 6189 H 598.054 -0.736813 -0.078659 0
M  V30 6190 H 600.701 -1.84682 0.506447 0
M  V30 6191 H 599.006 -3.67864 -1.34845 0
M  V30 6192 H 600.703 -3.87997 -1.01287 0
M  V30 6193 H 597.293 -4.27029 0.366635 0
M  V30 6194 H 601.477 -4.82117 1.17802 0
M  V30 6195 H 596.733 -5.65803 2.31682 0
M  V30 6196 H 600.907 -6.22255 3.12684 0
M  V30 6197 H 598.534 -6.63962 3.70214 0
M  V30 6198 N 600.109 -0.101901 -1.5727 0
M  V30 6199 C 601.039 0.851544 -2.17419 0
M  V30 6200 C 602.02 1.28942 -1.10941 0
M  V30 6201 O 603.205 1.35509 -1.39107 0
M  V30 6202 C 600.335 2.10816 -2.75996 0
M  V30 6203 C 599.289 1.80867 -3.87906 0
M  V30 6204 C 598.615 3.13413 -4.33216 0
M  V30 6205 C 599.915 1.0903 -5.10793 0
M  V30 6206 H 601.609 0.350381 -2.97343 0
M  V30 6207 H 599.155 0.16709 -1.43027 0
M  V30 6208 H 601.108 2.77959 -3.16729 0
M  V30 6209 H 599.832 2.63227 -1.93337 0
M  V30 6210 H 598.491 1.16119 -3.47724 0
M  V30 6211 H 598.139 3.63725 -3.47438 0
M  V30 6212 H 597.839 2.94155 -5.08671 0
M  V30 6213 H 599.363 3.81704 -4.76586 0
M  V30 6214 H 600.777 1.66295 -5.48652 0
M  V30 6215 H 599.174 0.99927 -5.91722 0
M  V30 6216 H 600.244 0.0741704 -4.84843 0
M  V30 6217 N 601.587 1.56661 0.17182 0
M  V30 6218 C 602.817 1.85831 0.902804 0
M  V30 6219 C 603.225 0.685157 1.76358 0
M  V30 6220 O 602.568 -0.354947 1.80238 0
M  V30 6221 C 602.63 3.09406 1.83053 0
M  V30 6222 C 602.294 4.4231 1.1494 0
M  V30 6223 C 603.291 5.17342 0.515104 0
M  V30 6224 C 600.976 4.89045 1.14631 0
M  V30 6225 C 602.97 6.37299 -0.113194 0
M  V30 6226 C 600.657 6.08933 0.514184 0
M  V30 6227 C 601.655 6.82904 -0.114463 0
M  V30 6228 O 601.343 8.00518 -0.736622 0
M  V30 6229 H 601.075 0.620715 0.267748 0
M  V30 6230 H 603.629 2.04637 0.176918 0
M  V30 6231 H 601.859 2.86544 2.59672 0
M  V30 6232 H 603.548 3.25027 2.4313 0
M  V30 6233 H 604.314 4.82317 0.509474 0
M  V30 6234 H 600.193 4.31409 1.62502 0
M  V30 6235 H 603.737 6.94976 -0.604477 0
M  V30 6236 H 599.634 6.43423 0.517395 0
M  V30 6237 H 600.402 8.16027 -0.635822 0
M  V30 6238 N 603.065 -0.440357 1.51323 0
M  V30 6239 C 604.29 -1.21716 1.67928 0
M  V30 6240 C 604.715 -1.84328 0.374826 0
M  V30 6241 O 604.073 -1.68675 -0.664706 0
M  V30 6242 C 604.121 -2.27914 2.79442 0
M  V30 6243 O 603.225 -3.33325 2.42834 0
M  V30 6244 H 602.566 -0.35674 0.560029 0
M  V30 6245 H 605.096 -0.520417 1.97871 0
M  V30 6246 H 605.106 -2.72746 3.03436 0
M  V30 6247 H 603.781 -1.8172 3.741 0
M  V30 6248 H 602.358 -2.9399 2.294 0
M  V30 6249 N 604.543 -1.41418 -0.695603 0
M  V30 6250 C 605.959 -1.23887 -1.00619 0
M  V30 6251 C 606.159 -0.128206 -2.01092 0
M  V30 6252 O 605.215 0.507408 -2.47349 0
M  V30 6253 C 606.528 -2.58816 -1.53083 0
M  V30 6254 C 608.076 -2.65998 -1.64967 0
M  V30 6255 C 608.551 -4.01244 -2.20833 0
M  V30 6256 N 610.042 -4.0309 -2.28194 0
M  V30 6257 C 610.777 -5.04539 -2.72448 0
M  V30 6258 N 610.273 -6.16378 -3.16306 0
M  V30 6259 N 612.066 -4.91901 -2.72011 0
M  V30 6260 H 604.217 -2.12379 -0.0300061 0
M  V30 6261 H 606.48 -0.944958 -0.0758797 0
M  V30 6262 H 606.186 -3.40842 -0.867147 0
M  V30 6263 H 606.06 -2.81299 -2.51298 0
M  V30 6264 H 608.447 -1.84331 -2.30448 0
M  V30 6265 H 608.528 -2.47325 -0.652982 0
M  V30 6266 H 608.172 -4.83359 -1.55968 0
M  V30 6267 H 608.102 -4.17257 -3.21254 0
M  V30 6268 H 610.593 -3.22341 -1.97242 0
M  V30 6269 H 610.906 -6.89658 -3.487 0
M  V30 6270 H 609.251 -6.19914 -3.14215 0
M  V30 6271 H 612.442 -4.03613 -2.37095 0
M  V30 6272 H 612.615 -5.71102 -3.06181 0
M  V30 6273 N 606.021 0.929856 -1.27246 0
M  V30 6274 C 606.951 2.04722 -1.12299 0
M  V30 6275 C 607.932 1.70082 -0.0250464 0
M  V30 6276 O 609.117 1.93176 -0.199141 0
M  V30 6277 C 606.247 3.38721 -0.767145 0
M  V30 6278 C 605.201 3.87466 -1.81808 0
M  V30 6279 C 604.527 5.18246 -1.31626 0
M  V30 6280 C 605.827 4.11095 -3.22177 0
M  V30 6281 H 607.521 2.17485 -2.05769 0
M  V30 6282 H 605.067 1.04503 -0.990715 0
M  V30 6283 H 607.02 4.16366 -0.649413 0
M  V30 6284 H 605.744 3.25967 0.203259 0
M  V30 6285 H 604.403 3.12012 -1.92468 0
M  V30 6286 H 604.051 5.01881 -0.335378 0
M  V30 6287 H 603.751 5.51829 -2.01887 0
M  V30 6288 H 605.275 5.98462 -1.21143 0
M  V30 6289 H 606.689 4.79316 -3.1453 0
M  V30 6290 H 605.086 4.55982 -3.90129 0
M  V30 6291 H 606.156 3.16468 -3.67391 0
M  V30 6292 N 607.499 1.09233 1.13605 0
M  V30 6293 C 608.727 0.848908 1.88683 0
M  V30 6294 C 609.142 -0.599667 1.79024 0
M  V30 6295 O 608.499 -1.41265 1.15544 0
M  V30 6296 C 608.55 1.27273 3.38355 0
M  V30 6297 O 608.271 2.66449 3.47759 0
M  V30 6298 C 609.772 1.0614 4.30406 0
M  V30 6299 H 606.992 0.305549 0.597395 0
M  V30 6300 H 609.536 1.4538 1.43823 0
M  V30 6301 H 607.691 0.711776 3.80805 0
M  V30 6302 H 608.105 2.84264 4.40788 0
M  V30 6303 H 609.579 1.40725 5.33761 0
M  V30 6304 H 610.056 -0.000960332 4.392 0
M  V30 6305 H 610.662 1.60821 3.93722 0
M  V30 6306 N 608.977 -1.30795 0.87923 0
M  V30 6307 C 610.223 -1.96653 0.495519 0
M  V30 6308 C 610.556 -1.69282 -0.951703 0
M  V30 6309 O 609.831 -0.994374 -1.6716 0
M  V30 6310 C 610.114 -3.51898 0.764174 0
M  V30 6311 C 609.967 -3.88808 2.2616 0
M  V30 6312 C 611.286 -4.39462 0.236825 0
M  V30 6313 H 608.405 -0.7143 0.181507 0
M  V30 6314 H 611.047 -1.54765 1.10217 0
M  V30 6315 H 609.197 -3.87709 0.247841 0
M  V30 6316 H 610.869 -3.63051 2.8459 0
M  V30 6317 H 609.112 -3.37082 2.73053 0
M  V30 6318 H 609.783 -4.97086 2.4002 0
M  V30 6319 H 612.259 -4.10528 0.678683 0
M  V30 6320 H 611.135 -5.47018 0.454176 0
M  V30 6321 H 611.396 -4.33621 -0.861683 0
M  V30 6322 N 610.455 -0.639598 -1.44038 0
M  V30 6323 C 611.732 -0.078012 -1.95444 0
M  V30 6324 C 612.112 1.39847 -1.58133 0
M  V30 6325 O 611.46 2.11714 -0.859614 0
M  V30 6326 C 611.67 -0.309832 -3.47622 0
M  V30 6327 C 613.018 -0.207521 -4.24093 0
M  V30 6328 O 614.042 -0.241653 -3.55379 0
M  V30 6329 O 612.901 -0.119641 -5.46369 0
M  V30 6330 H 609.995 0.0174534 -0.826816 0
M  V30 6331 H 612.541 -0.711891 -1.54046 0
M  V30 6332 H 611.313 -1.33401 -3.67858 0
M  V30 6333 H 610.936 0.357777 -3.95987 0
M  V30 6334 N 611.933 1.52934 -0.380664 0
M  V30 6335 C 612.88 2.26197 0.458641 0
M  V30 6336 C 613.85 1.27462 1.06502 0
M  V30 6337 O 615.035 1.56274 1.09467 0
M  V30 6338 C 612.175 3.06571 1.58456 0
M  V30 6339 C 611.288 4.20222 1.00189 0
M  V30 6340 C 610.423 4.88007 2.09815 0
M  V30 6341 C 609.462 5.93665 1.49092 0
M  V30 6342 N 608.599 6.55081 2.52613 0
M  V30 6343 H 613.439 2.975 -0.172595 0
M  V30 6344 H 610.976 1.4678 -0.0969426 0
M  V30 6345 H 612.934 3.51455 2.24801 0
M  V30 6346 H 611.564 2.37494 2.18624 0
M  V30 6347 H 610.616 3.79714 0.228292 0
M  V30 6348 H 611.928 4.96102 0.518064 0
M  V30 6349 H 611.082 5.36151 2.83948 0
M  V30 6350 H 609.821 4.11632 2.61555 0
M  V30 6351 H 608.826 5.44868 0.7348 0
M  V30 6352 H 610.051 6.71969 0.981582 0
M  V30 6353 H 607.997 5.8155 3.03538 0
M  V30 6354 H 607.914 7.26548 2.08961 0
M  V30 6355 H 609.182 7.07871 3.26402 0
M  V30 6356 N 613.412 0.11024 1.57214 0
M  V30 6357 C 614.637 -0.561179 1.99664 0
M  V30 6358 C 615.062 -1.59985 0.989266 0
M  V30 6359 O 614.42 -1.81255 -0.0402399 0
M  V30 6360 C 614.468 -1.17189 3.41027 0
M  V30 6361 O 613.572 -2.28755 3.4314 0
M  V30 6362 H 612.913 -0.14101 0.648855 0
M  V30 6363 H 615.443 0.196128 2.03658 0
M  V30 6364 H 615.453 -1.50954 3.79047 0
M  V30 6365 H 614.128 -0.411041 4.13864 0
M  V30 6366 H 612.705 -1.96495 3.16929 0
M  V30 6367 N 614.89 -1.56749 -0.16351 0
M  V30 6368 C 616.306 -1.51043 -0.515567 0
M  V30 6369 C 616.506 -0.815855 -1.84245 0
M  V30 6370 O 615.562 -0.379477 -2.49632 0
M  V30 6371 C 616.875 -2.95791 -0.541114 0
M  V30 6372 C 618.423 -3.0664 -0.627776 0
M  V30 6373 C 618.898 -4.52861 -0.684141 0
M  V30 6374 N 620.389 -4.5714 -0.746818 0
M  V30 6375 C 621.124 -5.67634 -0.811137 0
M  V30 6376 N 620.62 -6.8774 -0.835811 0
M  V30 6377 N 622.413 -5.55624 -0.850756 0
M  V30 6378 H 614.564 -2.00307 0.70645 0
M  V30 6379 H 616.827 -0.912876 0.255659 0
M  V30 6380 H 616.533 -3.49797 0.365329 0
M  V30 6381 H 616.407 -3.50858 -1.38487 0
M  V30 6382 H 618.794 -2.52663 -1.52464 0
M  V30 6383 H 618.875 -2.54645 0.242805 0
M  V30 6384 H 618.519 -5.07472 0.2085 0
M  V30 6385 H 618.449 -5.02621 -1.57098 0
M  V30 6386 H 620.94 -3.70669 -0.735717 0
M  V30 6387 H 621.253 -7.67701 -0.886279 0
M  V30 6388 H 619.598 -6.90334 -0.803958 0
M  V30 6389 H 622.789 -4.60709 -0.828535 0
M  V30 6390 H 622.962 -6.41756 -0.897418 0
M  V30 6391 N 616.368 0.432326 -1.51554 0
M  V30 6392 C 617.614 1.17997 -1.65675 0
M  V30 6393 C 617.969 1.88794 -0.37076 0
M  V30 6394 O 617.262 1.80817 0.633692 0
M  V30 6395 C 617.456 2.21907 -2.80164 0
M  V30 6396 C 617.285 1.6131 -4.19773 0
M  V30 6397 C 616.055 1.39585 -4.85638 0
M  V30 6398 C 618.253 1.08659 -5.0269 0
M  V30 6399 N 616.235 0.746374 -6.09346 0
M  V30 6400 C 617.606 0.562685 -6.17441 0
M  V30 6401 C 619.661 0.978831 -4.88184 0
M  V30 6402 C 618.364 -0.0584015 -7.19276 0
M  V30 6403 C 620.39 0.371631 -5.90231 0
M  V30 6404 C 619.752 -0.141711 -7.04257 0
M  V30 6405 H 615.851 0.419277 -0.660099 0
M  V30 6406 H 618.435 0.475809 -1.88797 0
M  V30 6407 H 616.606 2.89706 -2.58698 0
M  V30 6408 H 618.338 2.88867 -2.8344 0
M  V30 6409 H 615.093 1.65897 -4.43593 0
M  V30 6410 H 615.517 0.438934 -6.75576 0
M  V30 6411 H 620.159 1.36157 -4.00276 0
M  V30 6412 H 617.877 -0.453262 -8.06828 0
M  V30 6413 H 621.463 0.290086 -5.81076 0
M  V30 6414 H 620.343 -0.60417 -7.81869 0
M  V30 6415 N 617.846 1.41785 0.688094 0
M  V30 6416 C 618.778 1.40159 1.81351 0
M  V30 6417 C 619.791 0.30262 1.59963 0
M  V30 6418 O 620.98 0.564841 1.69327 0
M  V30 6419 C 618.08 1.16517 3.1824 0
M  V30 6420 C 617.253 2.38597 3.66593 0
M  V30 6421 C 616.312 2.10699 4.82174 0
M  V30 6422 O 615.338 2.83798 4.93404 0
M  V30 6423 N 616.54 1.10187 5.69947 0
M  V30 6424 H 619.305 2.3716 1.83236 0
M  V30 6425 H 616.866 1.36494 0.870697 0
M  V30 6426 H 618.858 0.957941 3.93199 0
M  V30 6427 H 617.428 0.280873 3.11336 0
M  V30 6428 H 616.648 2.74974 2.82459 0
M  V30 6429 H 617.936 3.19919 3.95638 0
M  V30 6430 H 617.334 0.497016 5.63512 0
M  V30 6431 H 615.891 0.954518 6.44773 0
M  V30 6432 N 619.324 -0.923095 1.27737 0
M  V30 6433 C 620.234 -2.05765 1.12685 0
M  V30 6434 C 621.25 -1.73911 0.0557197 0
M  V30 6435 O 622.426 -1.99674 0.263137 0
M  V30 6436 C 619.491 -3.37804 0.780363 0
M  V30 6437 C 618.552 -3.83326 1.93286 0
M  V30 6438 C 617.785 -5.09064 1.60281 0
M  V30 6439 O 618.008 -5.6809 0.512828 0
M  V30 6440 O 616.942 -5.50071 2.44347 0
M  V30 6441 H 620.768 -2.21378 2.07907 0
M  V30 6442 H 618.353 -1.04299 1.06968 0
M  V30 6443 H 620.235 -4.17097 0.600668 0
M  V30 6444 H 618.91 -3.23387 -0.142291 0
M  V30 6445 H 617.817 -3.049 2.16764 0
M  V30 6446 H 619.15 -4.02292 2.83588 0
M  V30 6447 N 620.802 -1.09834 -1.13024 0
M  V30 6448 C 622.05 -0.835297 -1.8403 0
M  V30 6449 C 622.371 0.640944 -1.84165 0
M  V30 6450 O 621.641 1.46517 -1.30037 0
M  V30 6451 H 620.221 -0.306018 -0.681441 0
M  V30 6452 H 622.883 -1.38734 -1.36891 0
M  V30 6453 H 621.979 -1.19258 -2.88416 0
M  V30 6454 N 622.28 1.30327 -0.886154 0
M  V30 6455 C 623.228 2.30052 -0.343317 0
M  V30 6456 C 624.222 1.60212 0.550305 0
M  V30 6457 O 625.428 1.74674 0.434609 0
M  V30 6458 H 621.803 0.746306 -0.0923681 0
M  V30 6459 H 623.774 2.73294 -1.19804 0
M  V30 6460 C 622.523 3.45079 0.426107 0
M  V30 6461 H 621.846 3.99003 -0.25227 0
M  V30 6462 H 623.286 4.16931 0.771009 0
M  V30 6463 C 621.745 2.95195 1.62363 0
M  V30 6464 O 622.275 2.95323 2.723 0
M  V30 6465 N 620.481 2.51192 1.4612 0
M  V30 6466 H 620.028 2.51286 0.566832 0
M  V30 6467 H 619.986 2.18173 2.2638 0
M  V30 6468 N 623.758 0.647228 1.43697 0
M  V30 6469 C 625.004 0.158422 2.0218 0
M  V30 6470 C 625.337 -1.22233 1.50907 0
M  V30 6471 O 624.612 -1.81478 0.699702 0
M  V30 6472 C 624.895 0.1627 3.59732 0
M  V30 6473 C 624.748 1.57694 4.21251 0
M  V30 6474 C 626.067 -0.504138 4.37203 0
M  V30 6475 H 623.186 0.059042 0.734631 0
M  V30 6476 H 625.828 0.826772 1.71069 0
M  V30 6477 H 623.978 -0.406414 3.86368 0
M  V30 6478 H 625.65 2.19618 4.05667 0
M  V30 6479 H 623.893 2.12603 3.7813 0
M  V30 6480 H 624.564 1.53183 5.3032 0
M  V30 6481 H 627.04 -0.0199841 4.16095 0
M  V30 6482 H 625.916 -0.470394 5.46881 0
M  V30 6483 H 626.177 -1.57726 4.13007 0
M  V30 6484 N 625.236 -1.5273 0.388769 0
M  V30 6485 C 626.483 -2.01573 -0.19359 0
M  V30 6486 C 626.811 -1.27525 -1.46859 0
M  V30 6487 O 626.066 -0.363926 -1.92286 0
M  V30 6488 C 626.365 -3.53765 -0.508445 0
M  V30 6489 C 626.031 -4.4582 0.674947 0
M  V30 6490 C 624.693 -4.70703 0.999596 0
M  V30 6491 C 627.045 -5.00138 1.46666 0
M  V30 6492 C 624.373 -5.47155 2.11751 0
M  V30 6493 C 626.725 -5.77812 2.57518 0
M  V30 6494 C 625.389 -6.00975 2.90492 0
M  V30 6495 H 624.659 -0.737606 -0.0708397 0
M  V30 6496 H 627.306 -1.84134 0.526006 0
M  V30 6497 H 625.611 -3.69274 -1.30936 0
M  V30 6498 H 627.308 -3.8905 -0.971664 0
M  V30 6499 H 623.898 -4.26616 0.411906 0
M  V30 6500 H 628.082 -4.8084 1.22909 0
M  V30 6501 H 623.338 -5.63314 2.3767 0
M  V30 6502 H 627.512 -6.18904 3.19267 0
M  V30 6503 H 625.139 -6.59998 3.77236 0
M  V30 6504 N 626.714 -0.118576 -1.57153 0
M  V30 6505 C 627.939 0.550582 -1.99958 0
M  V30 6506 C 628.364 1.59458 -0.997736 0
M  V30 6507 O 627.722 1.81274 0.0306269 0
M  V30 6508 C 627.77 1.15379 -3.41643 0
M  V30 6509 O 626.874 2.26932 -3.44348 0
M  V30 6510 H 626.215 0.137567 -0.649593 0
M  V30 6511 H 628.745 -0.206926 -2.03551 0
M  V30 6512 H 628.755 1.48942 -3.79843 0
M  V30 6513 H 627.43 0.389087 -4.14076 0
M  V30 6514 H 626.007 1.94812 -3.17967 0
M  V30 6515 N 628.193 1.56834 0.155195 0
M  V30 6516 C 629.433 1.84701 0.875488 0
M  V30 6517 C 629.797 0.701747 1.78716 0
M  V30 6518 O 630.998 0.861263 2.54629 0
M  V30 6519 C 629.269 3.1773 1.63654 0
M  V30 6520 S 630.828 3.67128 2.40338 0
M  V30 6521 H 627.646 0.647856 0.292923 0
M  V30 6522 H 630.248 1.95026 0.136024 0
M  V30 6523 H 628.952 3.99059 0.958117 0
M  V30 6524 H 628.483 3.10388 2.41708 0
M  V30 6525 H 630.498 3.35739 3.65368 0
M  V30 6526 N 629.671 -0.424282 1.51781 0
M  V30 6527 C 630.896 -1.19928 1.6921 0
M  V30 6528 C 631.321 -1.8392 0.394355 0
M  V30 6529 O 630.679 -1.69371 -0.646778 0
M  V30 6530 C 630.727 -2.24937 2.81843 0
M  V30 6531 O 629.831 -3.3073 2.46356 0
M  V30 6532 H 629.172 -0.35078 0.563781 0
M  V30 6533 H 631.702 -0.499401 1.98412 0
M  V30 6534 H 631.712 -2.69512 3.06312 0
M  V30 6535 H 630.387 -1.77742 3.76006 0
M  V30 6536 H 628.964 -2.9154 2.32505 0
M  V30 6537 N 631.149 -1.42148 -0.680565 0
M  V30 6538 C 632.395 -1.42521 -1.44277 0
M  V30 6539 C 632.728 -0.0393718 -1.9416 0
M  V30 6540 O 632.003 0.935425 -1.70529 0
M  V30 6541 C 632.286 -2.44475 -2.64394 0
M  V30 6542 C 632.139 -3.92226 -2.20179 0
M  V30 6543 C 633.458 -2.43491 -3.66606 0
M  V30 6544 H 630.577 -0.518985 -0.523282 0
M  V30 6545 H 633.219 -1.73524 -0.773914 0
M  V30 6546 H 631.369 -2.18168 -3.21458 0
M  V30 6547 H 633.041 -4.29493 -1.68327 0
M  V30 6548 H 631.284 -4.0637 -1.5181 0
M  V30 6549 H 631.955 -4.59133 -3.06433 0
M  V30 6550 H 634.431 -2.66872 -3.19247 0
M  V30 6551 H 633.307 -3.16816 -4.4824 0
M  V30 6552 H 633.568 -1.45881 -4.17338 0
M  V30 6553 N 632.627 0.916307 -1.28225 0
M  V30 6554 C 633.557 2.0352 -1.14464 0
M  V30 6555 C 634.538 1.70045 -0.0430844 0
M  V30 6556 O 635.723 1.92954 -0.219619 0
M  V30 6557 C 632.853 3.37889 -0.803027 0
M  V30 6558 C 631.807 3.85516 -1.85908 0
M  V30 6559 C 631.133 5.1682 -1.37116 0
M  V30 6560 C 632.433 4.07655 -3.26519 0
M  V30 6561 H 634.127 2.1529 -2.08064 0
M  V30 6562 H 631.673 1.03446 -1.00174 0
M  V30 6563 H 633.626 4.15654 -0.693537 0
M  V30 6564 H 632.35 3.26164 0.168674 0
M  V30 6565 H 631.009 3.09953 -1.95767 0
M  V30 6566 H 630.657 5.01497 -0.38859 0
M  V30 6567 H 630.357 5.49657 -2.07728 0
M  V30 6568 H 631.881 5.97143 -1.27484 0
M  V30 6569 H 633.295 4.75953 -3.19596 0
M  V30 6570 H 631.692 4.51818 -3.94943 0
M  V30 6571 H 632.762 3.12553 -3.70727 0
M  V30 6572 N 634.105 1.10431 1.1244 0
M  V30 6573 C 635.055 0.722378 2.16254 0
M  V30 6574 C 636.039 -0.268427 1.58645 0
M  V30 6575 O 637.231 -0.077169 1.76832 0
M  V30 6576 C 634.36 0.155763 3.42946 0
M  V30 6577 C 633.446 1.17361 4.07538 0
M  V30 6578 N 633.837 2.36429 4.47141 0
M  V30 6579 C 632.135 1.01412 4.34317 0
M  V30 6580 C 632.836 3.01259 4.97612 0
M  V30 6581 N 631.812 2.28777 4.93115 0
M  V30 6582 H 635.614 1.62876 2.4464 0
M  V30 6583 H 633.128 0.982031 1.29344 0
M  V30 6584 H 635.125 -0.135936 4.16678 0
M  V30 6585 H 633.785 -0.745339 3.1603 0
M  V30 6586 H 634.796 2.73954 4.39511 0
M  V30 6587 H 631.473 0.168574 4.1716 0
M  V30 6588 H 632.863 4.02541 5.37968 0
M  V30 6589 N 635.583 -1.29855 0.893053 0
M  V30 6590 C 636.493 -2.31661 0.370157 0
M  V30 6591 C 637.509 -1.65677 -0.531723 0
M  V30 6592 O 638.685 -1.9691 -0.422902 0
M  V30 6593 C 635.75 -3.44388 -0.399741 0
M  V30 6594 C 634.811 -4.2598 0.532861 0
M  V30 6595 C 634.044 -5.33324 -0.200388 0
M  V30 6596 O 634.267 -5.52305 -1.42531 0
M  V30 6597 O 633.201 -6.00188 0.453668 0
M  V30 6598 H 637.027 -2.78354 1.2146 0
M  V30 6599 H 634.612 -1.34171 0.657153 0
M  V30 6600 H 636.494 -4.13037 -0.835358 0
M  V30 6601 H 635.169 -2.99815 -1.22035 0
M  V30 6602 H 634.076 -3.59998 1.01746 0
M  V30 6603 H 635.409 -4.74178 1.3197 0
M  V30 6604 N 637.061 -0.65484 -1.43351 0
M  V30 6605 C 638.024 0.0263562 -2.29185 0
M  V30 6606 C 639.024 0.748951 -1.42293 0
M  V30 6607 O 640.214 0.589957 -1.63906 0
M  V30 6608 C 637.346 1.04806 -3.2439 0
M  V30 6609 H 638.539 -0.728883 -2.90908 0
M  V30 6610 H 636.092 -0.416149 -1.50658 0
M  V30 6611 H 636.827 1.83247 -2.67565 0
M  V30 6612 H 636.612 0.533554 -3.88453 0
M  V30 6613 H 638.102 1.52372 -3.88809 0
M  V30 6614 N 638.539 1.52521 -0.396863 0
M  V30 6615 C 639.469 2.29582 0.425941 0
M  V30 6616 C 640.45 1.33281 1.05689 0
M  V30 6617 O 641.635 1.62181 1.06823 0
M  V30 6618 C 638.765 3.10821 1.54943 0
M  V30 6619 C 637.719 4.15069 1.04413 0
M  V30 6620 C 637.045 4.84578 2.26028 0
M  V30 6621 C 638.345 5.22191 0.106767 0
M  V30 6622 H 640.039 2.98612 -0.217045 0
M  V30 6623 H 637.585 1.43611 -0.105826 0
M  V30 6624 H 639.538 3.63492 2.13193 0
M  V30 6625 H 638.262 2.39538 2.22011 0
M  V30 6626 H 636.921 3.63389 0.484118 0
M  V30 6627 H 636.569 4.09835 2.91623 0
M  V30 6628 H 636.269 5.55043 1.92876 0
M  V30 6629 H 637.793 5.40056 2.84906 0
M  V30 6630 H 639.207 5.70176 0.597685 0
M  V30 6631 H 637.604 5.99947 -0.135352 0
M  V30 6632 H 638.674 4.77531 -0.842134 0
M  V30 6633 N 640.017 0.126909 1.57088 0
M  V30 6634 C 640.967 -0.831678 2.1229 0
M  V30 6635 C 641.951 -1.22292 1.04564 0
M  V30 6636 O 643.143 -1.19269 1.30782 0
M  V30 6637 C 640.272 -2.07866 2.73215 0
M  V30 6638 C 639.358 -1.71143 3.88035 0
M  V30 6639 N 639.749 -1.05136 4.94753 0
M  V30 6640 C 638.047 -2.00549 3.98367 0
M  V30 6641 C 638.748 -0.877257 5.75047 0
M  V30 6642 N 637.724 -1.40477 5.25135 0
M  V30 6643 H 641.526 -0.317926 2.92175 0
M  V30 6644 H 639.04 -0.0753052 1.62225 0
M  V30 6645 H 641.037 -2.77516 3.11111 0
M  V30 6646 H 639.697 -2.59778 1.94796 0
M  V30 6647 H 640.708 -0.71442 5.12949 0
M  V30 6648 H 637.385 -2.54452 3.30999 0
M  V30 6649 H 638.775 -0.358536 6.70943 0
M  V30 6650 N 641.495 -1.56914 -0.146875 0
M  V30 6651 C 642.72 -1.87881 -0.878386 0
M  V30 6652 C 643.145 -0.715945 -1.73942 0
M  V30 6653 O 642.503 0.334447 -1.78189 0
M  V30 6654 C 642.551 -3.17431 -1.71084 0
M  V30 6655 O 641.655 -3.01374 -2.81509 0
M  V30 6656 H 640.996 -0.617289 -0.244644 0
M  V30 6657 H 643.526 -2.04136 -0.137654 0
M  V30 6658 H 643.536 -3.49455 -2.10582 0
M  V30 6659 H 642.211 -4.01671 -1.07856 0
M  V30 6660 H 640.788 -2.80758 -2.45416 0
M  V30 6661 N 642.974 0.416227 -1.52004 0
M  V30 6662 C 643.924 1.50558 -1.7122 0
M  V30 6663 C 644.908 1.50613 -0.56609 0
M  V30 6664 O 646.1 1.56709 -0.822874 0
M  V30 6665 C 643.229 2.88556 -1.85984 0
M  V30 6666 C 642.315 2.93177 -3.06445 0
M  V30 6667 N 642.706 2.67505 -4.29272 0
M  V30 6668 C 641.004 3.24343 -3.06133 0
M  V30 6669 C 641.705 2.78511 -5.10692 0
M  V30 6670 N 640.681 3.11087 -4.45787 0
M  V30 6671 H 644.483 1.29494 -2.63834 0
M  V30 6672 H 641.997 0.62384 -1.4994 0
M  V30 6673 H 643.994 3.66954 -1.97865 0
M  V30 6674 H 642.654 3.10624 -0.945654 0
M  V30 6675 H 643.665 2.42033 -4.57865 0
M  V30 6676 H 640.342 3.52051 -2.24425 0
M  V30 6677 H 641.732 2.62438 -6.18527 0
M  V30 6678 N 644.452 1.42507 0.673017 0
M  V30 6679 C 645.682 1.46261 1.45916 0
M  V30 6680 C 646.09 0.0729724 1.89059 0
M  V30 6681 O 645.433 -0.922987 1.58829 0
M  V30 6682 C 645.495 2.32853 2.73898 0
M  V30 6683 C 645.159 3.80699 2.52819 0
M  V30 6684 C 646.156 4.72307 2.17306 0
M  V30 6685 C 643.841 4.24983 2.67758 0
M  V30 6686 C 645.835 6.06192 1.97003 0
M  V30 6687 C 643.522 5.58927 2.4707 0
M  V30 6688 C 644.52 6.49348 2.11746 0
M  V30 6689 O 644.208 7.80817 1.91259 0
M  V30 6690 H 643.94 0.499561 0.455428 0
M  V30 6691 H 646.494 1.87697 0.834196 0
M  V30 6692 H 644.724 1.86268 3.38882 0
M  V30 6693 H 646.413 2.28041 3.35786 0
M  V30 6694 H 647.179 4.39378 2.05359 0
M  V30 6695 H 643.058 3.54893 2.94231 0
M  V30 6696 H 646.602 6.76731 1.69355 0
M  V30 6697 H 642.499 5.91429 2.58615 0
M  V30 6698 H 643.267 7.92194 2.05843 0
M  V30 6699 N 645.93 -0.909495 1.28709 0
M  V30 6700 C 647.158 -1.69272 1.18973 0
M  V30 6701 C 647.573 -1.87123 -0.251048 0
M  V30 6702 O 646.93 -1.40127 -1.16922 0
M  V30 6703 C 646.981 -3.08257 1.88839 0
M  V30 6704 O 646.702 -2.91228 3.27289 0
M  V30 6705 C 648.203 -4.02642 1.85457 0
M  V30 6706 H 645.423 -0.528999 0.412797 0
M  V30 6707 H 647.967 -1.13803 1.69909 0
M  V30 6708 H 646.122 -3.6053 1.41762 0
M  V30 6709 H 646.536 -3.79223 3.6234 0
M  V30 6710 H 648.01 -4.97613 2.38925 0
M  V30 6711 H 648.487 -4.31327 0.827893 0
M  V30 6712 H 649.093 -3.56298 2.32233 0
M  V30 6713 N 647.408 -1.11026 -1.11852 0
M  V30 6714 C 648.34 -0.72249 -2.17515 0
M  V30 6715 C 649.353 0.243782 -1.60964 0
M  V30 6716 O 650.542 0.0273252 -1.78479 0
M  V30 6717 C 647.642 -0.0463979 -3.38868 0
M  V30 6718 C 646.815 -1.0384 -4.24895 0
M  V30 6719 C 645.874 -0.392659 -5.24733 0
M  V30 6720 O 644.9 -1.0453 -5.5952 0
M  V30 6721 N 646.102 0.846296 -5.74298 0
M  V30 6722 H 648.867 -1.63161 -2.51393 0
M  V30 6723 H 646.428 -0.999899 -1.27333 0
M  V30 6724 H 648.42 0.397215 -4.02746 0
M  V30 6725 H 646.99 0.765231 -3.03089 0
M  V30 6726 H 646.21 -1.6601 -3.57539 0
M  V30 6727 H 647.498 -1.70968 -4.79215 0
M  V30 6728 H 646.896 1.39578 -5.4821 0
M  V30 6729 H 645.453 1.23296 -6.40032 0
M  V30 6730 N 648.886 1.2938 -0.899927 0
M  V30 6731 C 649.833 2.27713 -0.376243 0
M  V30 6732 C 650.803 1.57016 0.541774 0
M  V30 6733 O 651.988 1.84997 0.466966 0
M  V30 6734 C 649.128 3.42889 0.39 0
M  V30 6735 C 648.241 4.28369 -0.558938 0
M  V30 6736 C 647.376 5.30726 0.224379 0
M  V30 6737 C 646.415 6.07862 -0.719068 0
M  V30 6738 N 645.552 7.02094 0.0298569 0
M  V30 6739 H 650.392 2.71888 -1.21988 0
M  V30 6740 H 647.929 1.33724 -0.612879 0
M  V30 6741 H 649.887 4.08443 0.850314 0
M  V30 6742 H 648.517 2.99743 1.19809 0
M  V30 6743 H 647.569 3.62986 -1.13777 0
M  V30 6744 H 648.881 4.82068 -1.2811 0
M  V30 6745 H 648.035 6.02098 0.745881 0
M  V30 6746 H 646.774 4.77759 0.979674 0
M  V30 6747 H 645.779 5.35353 -1.25207 0
M  V30 6748 H 647.004 6.62917 -1.4737 0
M  V30 6749 H 644.95 6.51496 0.767415 0
M  V30 6750 H 644.867 7.5335 -0.632391 0
M  V30 6751 H 646.135 7.77685 0.531615 0
M  V30 6752 N 650.364 0.662433 1.43002 0
M  V30 6753 C 651.589 0.186003 2.06564 0
M  V30 6754 C 652.014 -1.14314 1.49379 0
M  V30 6755 O 651.372 -1.70824 0.607346 0
M  V30 6756 C 651.42 0.118269 3.60406 0
M  V30 6757 O 650.524 -0.916859 4.02079 0
M  V30 6758 H 649.865 0.0990981 0.656563 0
M  V30 6759 H 652.395 0.907958 1.8335 0
M  V30 6760 H 652.405 -0.0619981 4.07953 0
M  V30 6761 H 651.08 1.08849 4.01403 0
M  V30 6762 H 649.657 -0.708635 3.66105 0
M  V30 6763 N 651.842 -1.52309 0.404946 0
M  V30 6764 C 652.772 -2.29805 -0.41376 0
M  V30 6765 C 653.753 -1.3384 -1.0498 0
M  V30 6766 O 654.938 -1.62745 -1.05961 0
M  V30 6767 C 652.068 -3.11639 -1.53292 0
M  V30 6768 C 651.022 -4.15616 -1.02211 0
M  V30 6769 C 650.348 -4.8577 -2.23455 0
M  V30 6770 C 651.648 -5.2224 -0.0790725 0
M  V30 6771 H 653.342 -2.98493 0.232878 0
M  V30 6772 H 650.888 -1.43552 0.113441 0
M  V30 6773 H 652.841 -3.64618 -2.11262 0
M  V30 6774 H 651.565 -2.40712 -2.20738 0
M  V30 6775 H 650.224 -3.63641 -0.46484 0
M  V30 6776 H 649.872 -4.11376 -2.89445 0
M  V30 6777 H 649.572 -5.56058 -1.89929 0
M  V30 6778 H 651.096 -5.4156 -2.82038 0
M  V30 6779 H 652.51 -5.70485 -0.567438 0
M  V30 6780 H 650.907 -5.99867 0.167167 0
M  V30 6781 H 651.977 -4.77078 0.867447 0
M  V30 6782 N 653.32 -0.135238 -1.57019 0
M  V30 6783 C 654.545 0.529343 -2.00531 0
M  V30 6784 C 654.97 1.58391 -1.01459 0
M  V30 6785 O 654.328 1.81296 0.0113986 0
M  V30 6786 C 654.376 1.11748 -3.42848 0
M  V30 6787 O 653.48 2.23267 -3.46736 0
M  V30 6788 H 652.821 0.130669 -0.651016 0
M  V30 6789 H 655.351 -0.228503 -2.0332 0
M  V30 6790 H 655.361 1.44905 -3.81401 0
M  V30 6791 H 654.036 0.345147 -4.14465 0
M  V30 6792 H 652.613 1.91428 -3.20015 0
M  V30 6793 N 654.798 1.5699 0.138552 0
M  V30 6794 C 655.728 2.01933 1.17241 0
M  V30 6795 C 656.709 0.90033 1.44319 0
M  V30 6796 O 657.894 1.16872 1.55095 0
M  V30 6797 C 655.024 2.40711 2.50351 0
M  V30 6798 C 653.978 3.55874 2.37776 0
M  V30 6799 C 653.304 3.80491 3.75674 0
M  V30 6800 C 654.604 4.8826 1.85472 0
M  V30 6801 H 656.298 2.88551 0.798672 0
M  V30 6802 H 653.844 1.3882 0.382743 0
M  V30 6803 H 655.797 2.70754 3.22909 0
M  V30 6804 H 654.521 1.5104 2.89576 0
M  V30 6805 H 653.18 3.2601 1.67669 0
M  V30 6806 H 652.828 2.88057 4.12349 0
M  V30 6807 H 652.528 4.57998 3.68119 0
M  V30 6808 H 654.052 4.12967 4.49767 0
M  V30 6809 H 655.466 5.16965 2.4783 0
M  V30 6810 H 653.863 5.69631 1.88787 0
M  V30 6811 H 654.933 4.78071 0.810935 0
M  V30 6812 N 656.276 -0.40816 1.52223 0
M  V30 6813 C 657.501 -1.18127 1.70472 0
M  V30 6814 C 657.926 -1.83491 0.41384 0
M  V30 6815 O 657.284 -1.70047 -0.628778 0
M  V30 6816 C 657.332 -2.21935 2.84213 0
M  V30 6817 O 656.436 -3.28099 2.4985 0
M  V30 6818 H 655.777 -0.344781 0.56747 0
M  V30 6819 H 658.307 -0.478328 1.9893 0
M  V30 6820 H 658.317 -2.66248 3.09153 0
M  V30 6821 H 656.992 -1.73744 3.7787 0
M  V30 6822 H 655.569 -2.89058 2.35584 0
M  V30 6823 N 657.755 -1.42862 -0.66545 0
M  V30 6824 C 658.685 -1.49867 -1.79059 0
M  V30 6825 C 659.666 -0.354394 -1.66367 0
M  V30 6826 O 660.851 -0.569969 -1.85647 0
M  V30 6827 C 657.981 -1.40943 -3.17415 0
M  V30 6828 C 656.935 -2.53495 -3.44854 0
M  V30 6829 C 656.261 -2.29626 -4.82883 0
M  V30 6830 C 657.561 -3.95781 -3.40815 0
M  V30 6831 H 659.255 -2.44037 -1.73453 0
M  V30 6832 H 656.801 -1.17456 -0.833071 0
M  V30 6833 H 658.754 -1.4445 -3.95869 0
M  V30 6834 H 657.478 -0.432716 -3.23721 0
M  V30 6835 H 656.137 -2.4932 -2.68766 0
M  V30 6836 H 655.785 -1.30226 -4.8585 0
M  V30 6837 H 655.485 -3.05065 -5.02204 0
M  V30 6838 H 657.009 -2.34897 -5.63609 0
M  V30 6839 H 658.423 -4.01508 -4.09224 0
M  V30 6840 H 656.82 -4.71148 -3.71672 0
M  V30 6841 H 657.89 -4.21786 -2.39216 0
M  V30 6842 N 659.233 0.902656 -1.29189 0
M  V30 6843 C 660.481 1.6496 -1.16758 0
M  V30 6844 C 660.802 1.92952 0.28188 0
M  V30 6845 O 660.072 1.55351 1.19344 0
M  V30 6846 H 658.652 0.611447 -0.429118 0
M  V30 6847 H 661.314 1.0825 -1.62074 0
M  V30 6848 H 660.41 2.60728 -1.71544 0
M  V30 6849 N 660.711 1.11618 1.11262 0
M  V30 6850 C 661.658 0.7762 2.17356 0
M  V30 6851 C 662.628 -0.253152 1.6416 0
M  V30 6852 O 663.813 -0.129655 1.90359 0
M  V30 6853 C 660.953 0.227581 3.44349 0
M  V30 6854 C 660.066 1.31372 4.1154 0
M  V30 6855 C 659.201 0.72544 5.26223 0
M  V30 6856 C 658.24 1.7913 5.85302 0
M  V30 6857 N 657.377 1.22237 6.91377 0
M  V30 6858 H 662.217 1.68508 2.45783 0
M  V30 6859 H 659.754 0.841475 1.20655 0
M  V30 6860 H 661.712 -0.108483 4.17059 0
M  V30 6861 H 660.342 -0.644486 3.16301 0
M  V30 6862 H 659.394 1.7667 3.36885 0
M  V30 6863 H 660.706 2.12005 4.51504 0
M  V30 6864 H 659.86 0.339541 6.05749 0
M  V30 6865 H 658.599 -0.112188 4.87571 0
M  V30 6866 H 657.604 2.18648 5.04453 0
M  V30 6867 H 658.829 2.63199 6.26022 0
M  V30 6868 H 656.775 0.406423 6.5474 0
M  V30 6869 H 656.692 1.9654 7.30006 0
M  V30 6870 H 657.96 0.863426 7.74703 0
M  V30 6871 O 662.228 -1.23648 1.03892 0
M  V30 6872 H 662.919 -1.80254 0.709093 0
M  V30 END ATOM
M  V30 BEGIN BOND
M  V30 END BOND
M  V30 END CTAB
M  END
$$$$
