drugbank_target|P01031 Complement C5 (DB00028; DB01257; DB01593; DB09130; DB11580; DB14487; DB14533; DB14548)
 OpenBabel12092119413D

  0  0  0     0  0            999 V3000
M  V30 BEGIN CTAB
M  V30 COUNTS 26520 26810 0 0 0
M  V30 BEGIN ATOM
M  V30 1 H -0.908 1.98254 -0.117106 0
M  V30 2 N 0 1.576 0 0
M  V30 3 C 0.933 2.03868 1.02534 0
M  V30 4 C 1.911 0.928543 1.3348 0
M  V30 5 O 3.095 1.19667 1.45644 0
M  V30 6 C 0.222 2.43627 2.35294 0
M  V30 7 C -0.732 3.65373 2.2001 0
M  V30 8 S 0.101 5.13292 1.52614 0
M  V30 9 C 1.257 5.56322 2.86805 0
M  V30 10 H 1.49 2.90518 0.631377 0
M  V30 11 H -0.977 1.52953 0.210867 0
M  V30 12 H 0.981 2.67203 3.11629 0
M  V30 13 H -0.358 1.57376 2.7183 0
M  V30 14 H -1.165 3.90944 3.18086 0
M  V30 15 H -1.563 3.418 1.51819 0
M  V30 16 H 0.729 5.58782 3.83104 0
M  V30 17 H 1.672 6.56266 2.65933 0
M  V30 18 H 2.08 4.83886 2.90714 0
M  V30 19 N 1.4781 -0.272755 1.55222 0
M  V30 20 C 2.7261 -1.00234 1.75492 0
M  V30 21 C 3.0471 -1.8681 0.5592 0
M  V30 22 O 2.3171 -1.91215 -0.425882 0
M  V30 23 H 0.8971 -0.373076 0.647166 0
M  V30 24 H 3.5591 -0.296926 1.92625 0
M  V30 25 H 2.6551 -1.63913 2.65592 0
M  V30 26 N 2.9562 -1.48159 -0.537278 0
M  V30 27 C 3.8862 -1.65029 -1.6519 0
M  V30 28 C 4.8672 -0.499281 -1.62607 0
M  V30 29 O 6.0522 -0.730972 -1.79918 0
M  V30 30 C 3.1822 -1.68303 -3.03795 0
M  V30 31 C 2.1362 -2.8283 -3.21234 0
M  V30 32 C 1.4622 -2.71189 -4.60826 0
M  V30 33 C 2.7622 -4.24211 -3.04701 0
M  V30 34 H 4.4562 -2.58341 -1.51328 0
M  V30 35 H 2.0022 -1.24325 -0.726585 0
M  V30 36 H 3.9552 -1.78693 -3.81637 0
M  V30 37 H 2.6792 -0.715635 -3.18663 0
M  V30 38 H 1.3382 -2.71983 -2.45807 0
M  V30 39 H 0.9862 -1.72435 -4.7252 0
M  V30 40 H 0.6862 -3.48035 -4.7344 0
M  V30 41 H 2.2102 -2.83537 -5.40777 0
M  V30 42 H 3.6242 -4.3593 -3.72341 0
M  V30 43 H 2.0212 -5.01998 -3.28813 0
M  V30 44 H 3.0912 -4.41184 -2.01209 0
M  V30 45 N 4.4343 0.785586 -1.36625 0
M  V30 46 C 5.3643 1.91259 -1.33949 0
M  V30 47 C 6.3453 1.68795 -0.210325 0
M  V30 48 O 7.5303 1.89854 -0.408561 0
M  V30 49 C 4.6603 3.28339 -1.13186 0
M  V30 50 C 3.6143 3.65335 -2.22967 0
M  V30 51 C 2.9403 5.00806 -1.87342 0
M  V30 52 C 4.2403 3.7352 -3.65075 0
M  V30 53 H 5.9343 1.93755 -2.28253 0
M  V30 54 H 3.4803 0.930788 -1.09874 0
M  V30 55 H 5.4333 4.06804 -1.09948 0
M  V30 56 H 4.1573 3.2624 -0.153332 0
M  V30 57 H 2.8163 2.89169 -2.25337 0
M  V30 58 H 2.4643 4.95233 -0.880545 0
M  V30 59 H 2.1643 5.26529 -2.60846 0
M  V30 60 H 3.6883 5.81687 -1.85667 0
M  V30 61 H 5.1023 4.42168 -3.64911 0
M  V30 62 H 3.4993 4.10731 -4.37516 0
M  V30 63 H 4.5693 2.74527 -3.99703 0
M  V30 64 N 5.9124 1.20967 1.01018 0
M  V30 65 C 7.1604 1.02172 1.74371 0
M  V30 66 C 7.4814 -0.446414 1.89821 0
M  V30 67 O 6.7514 -1.32234 1.44537 0
M  V30 68 H 5.3314 0.375066 0.646014 0
M  V30 69 H 7.9934 1.52187 1.21758 0
M  V30 70 H 7.0894 1.48538 2.74487 0
M  V30 71 N 7.3905 -1.2043 1.01659 0
M  V30 72 C 8.6395 -1.89118 0.701237 0
M  V30 73 C 8.9525 -1.79705 -0.772358 0
M  V30 74 O 10.1585 -2.43528 -1.20026 0
M  V30 75 C 8.6145 -3.39168 1.20388 0
M  V30 76 C 8.2225 -3.57166 2.70438 0
M  V30 77 C 9.9665 -4.1341 0.963953 0
M  V30 78 C 7.8735 -5.01042 3.14183 0
M  V30 79 H 6.8035 -0.708267 0.2586 0
M  V30 80 H 9.4545 -1.36239 1.22927 0
M  V30 81 H 7.8365 -3.91369 0.603824 0
M  V30 82 H 9.0105 -3.15351 3.35992 0
M  V30 83 H 7.3255 -2.96294 2.92572 0
M  V30 84 H 9.9225 -5.19491 1.26621 0
M  V30 85 H 10.2655 -4.16181 -0.099578 0
M  V30 86 H 10.7985 -3.67309 1.52738 0
M  V30 87 H 7.5375 -5.03426 4.19812 0
M  V30 88 H 7.0575 -5.43668 2.53348 0
M  V30 89 H 8.7365 -5.69623 3.0682 0
M  V30 90 N 8.8686 -0.792821 -1.36206 0
M  V30 91 C 9.7986 -0.207853 -2.32573 0
M  V30 92 C 10.7796 0.659055 -1.56813 0
M  V30 93 O 11.9646 0.592176 -1.84951 0
M  V30 94 C 9.0946 0.655449 -3.41059 0
M  V30 95 C 8.0486 -0.111842 -4.27854 0
M  V30 96 C 7.3746 0.872274 -5.27537 0
M  V30 97 C 8.6746 -1.30299 -5.05786 0
M  V30 98 H 10.3686 -1.01294 -2.81744 0
M  V30 99 H 7.9146 -0.48854 -1.3546 0
M  V30 100 H 9.8676 1.07464 -4.07467 0
M  V30 101 H 8.5916 1.49328 -2.90463 0
M  V30 102 H 7.2506 -0.512053 -3.63006 0
M  V30 103 H 6.8986 1.70523 -4.73214 0
M  V30 104 H 6.5986 0.363291 -5.86476 0
M  V30 105 H 8.1226 1.28996 -5.96818 0
M  V30 106 H 9.5366 -0.959379 -5.65216 0
M  V30 107 H 7.9336 -1.7455 -5.74154 0
M  V30 108 H 9.0036 -2.09663 -4.37229 0
M  V30 109 N 10.3467 1.47872 -0.545128 0
M  V30 110 C 11.5867 2.04391 -0.0187854 0
M  V30 111 C 11.9507 1.41162 1.30144 0
M  V30 112 O 13.1517 1.88656 1.91474 0
M  V30 113 C 11.4227 3.57299 0.0850867 0
M  V30 114 S 12.9817 4.35221 0.559302 0
M  V30 115 H 9.7997 0.710737 -0.0193301 0
M  V30 116 H 12.4017 1.81395 -0.729125 0
M  V30 117 H 11.1057 4.00847 -0.880351 0
M  V30 118 H 10.6367 3.84773 0.819348 0
M  V30 119 H 12.6517 4.61571 1.82118 0
M  V30 120 N 11.8248 0.280983 1.55075 0
M  V30 121 C 13.0718 -0.334115 1.99725 0
M  V30 122 C 13.3998 -1.5542 1.1694 0
M  V30 123 O 12.6548 -1.94361 0.228531 0
M  V30 124 C 12.9538 -0.754656 3.49342 0
M  V30 125 C 12.6198 0.361445 4.49449 0
M  V30 126 C 11.2818 0.667893 4.76542 0
M  V30 127 C 13.6338 1.11322 5.09173 0
M  V30 128 C 10.9618 1.7296 5.60626 0
M  V30 129 C 13.3138 2.1647 5.9441 0
M  V30 130 C 11.9778 2.47742 6.19822 0
M  V30 131 H 11.2478 -0.122261 0.730844 0
M  V30 132 H 13.8948 0.395917 1.87363 0
M  V30 133 H 12.1998 -1.56446 3.5921 0
M  V30 134 H 13.8968 -1.24142 3.813 0
M  V30 135 H 10.4868 0.112481 4.28452 0
M  V30 136 H 14.6708 0.88973 4.8826 0
M  V30 137 H 9.9268 1.97684 5.78559 0
M  V30 138 H 14.1008 2.75193 6.3972 0
M  V30 139 H 11.7278 3.30145 6.84769 0
M  V30 140 N 13.3029 -1.57598 0.00835791 0
M  V30 141 C 14.2329 -2.1198 -0.979113 0
M  V30 142 C 15.2139 -1.03091 -1.35301 0
M  V30 143 O 16.3989 -1.30818 -1.43528 0
M  V30 144 C 13.5289 -2.62995 -2.26828 0
M  V30 145 C 12.4829 -3.76485 -2.03576 0
M  V30 146 C 11.8089 -4.13846 -3.38579 0
M  V30 147 C 13.1089 -5.0342 -1.39161 0
M  V30 148 H 14.8029 -2.94738 -0.526281 0
M  V30 149 H 12.3489 -1.41783 -0.251704 0
M  V30 150 H 14.3019 -2.99669 -2.96271 0
M  V30 151 H 13.0259 -1.7737 -2.7424 0
M  V30 152 H 11.6849 -3.40217 -1.36557 0
M  V30 153 H 11.3329 -3.25232 -3.83709 0
M  V30 154 H 11.0329 -4.90312 -3.23834 0
M  V30 155 H 12.5569 -4.53086 -4.09323 0
M  V30 156 H 13.9709 -5.37812 -1.98573 0
M  V30 157 H 12.3679 -5.84746 -1.34878 0
M  V30 158 H 13.4379 -4.83548 -0.361868 0
M  V30 159 N 14.781 0.264519 -1.55364 0
M  V30 160 C 16.03 0.992812 -1.75574 0
M  V30 161 C 16.343 1.87142 -0.568979 0
M  V30 162 O 17.549 2.63513 -0.653682 0
M  V30 163 C 16.005 1.81519 -3.10771 0
M  V30 164 C 15.613 0.984839 -4.37041 0
M  V30 165 C 17.357 2.53727 -3.40327 0
M  V30 166 C 15.264 1.80209 -5.63275 0
M  V30 167 H 14.194 0.374412 -0.65447 0
M  V30 168 H 16.845 0.248138 -1.81815 0
M  V30 169 H 15.227 2.60115 -2.98591 0
M  V30 170 H 16.401 0.242455 -4.60162 0
M  V30 171 H 14.716 0.37691 -4.14691 0
M  V30 172 H 17.313 3.15292 -4.3185 0
M  V30 173 H 17.656 3.24447 -2.60845 0
M  V30 174 H 18.189 1.82156 -3.53644 0
M  V30 175 H 14.928 1.13896 -6.45529 0
M  V30 176 H 14.448 2.52022 -5.44284 0
M  V30 177 H 16.127 2.37364 -6.01887 0
M  V30 178 N 16.2591 1.48442 0.529413 0
M  V30 179 C 17.5061 1.56488 1.28521 0
M  V30 180 C 17.8341 0.239042 1.93025 0
M  V30 181 O 17.0891 -0.770713 1.79885 0
M  V30 182 C 17.3881 2.6523 2.39558 0
M  V30 183 C 17.0541 4.07648 1.92702 0
M  V30 184 C 15.7161 4.46411 1.79641 0
M  V30 185 C 18.0681 4.96896 1.573 0
M  V30 186 C 15.3961 5.72226 1.29514 0
M  V30 187 C 17.7481 6.23202 1.08636 0
M  V30 188 C 16.4121 6.60821 0.941919 0
M  V30 189 H 15.6821 0.572631 0.470292 0
M  V30 190 H 18.3291 1.82161 0.59072 0
M  V30 191 H 16.6341 2.33419 3.14679 0
M  V30 192 H 18.3311 2.68671 2.97686 0
M  V30 193 H 14.9211 3.77036 2.03819 0
M  V30 194 H 19.1051 4.67626 1.66251 0
M  V30 195 H 14.3611 6.00097 1.17019 0
M  V30 196 H 18.5351 6.91753 0.803136 0
M  V30 197 H 16.1621 7.58198 0.5513 0
M  V30 198 N 17.7372 -0.778329 1.37039 0
M  V30 199 C 18.6672 -1.90546 1.34962 0
M  V30 200 C 19.6482 -1.68681 0.219274 0
M  V30 201 O 20.8332 -1.89634 0.418624 0
M  V30 202 C 17.9632 -3.27734 1.14925 0
M  V30 203 C 16.9172 -3.64147 2.24902 0
M  V30 204 C 16.2432 -4.99806 1.89996 0
M  V30 205 C 17.5432 -3.71579 3.67051 0
M  V30 206 H 19.2372 -1.92541 2.29277 0
M  V30 207 H 16.7832 -0.924948 1.10366 0
M  V30 208 H 18.7362 -4.06215 1.12104 0
M  V30 209 H 17.4602 -3.26154 0.170631 0
M  V30 210 H 16.1192 -2.8797 2.26868 0
M  V30 211 H 15.7672 -4.94759 0.906796 0
M  V30 212 H 15.4672 -5.25139 2.63634 0
M  V30 213 H 16.9912 -5.80694 1.88749 0
M  V30 214 H 18.4052 -4.40227 3.67251 0
M  V30 215 H 16.8022 -4.08405 4.39688 0
M  V30 216 H 17.8722 -2.72404 4.01154 0
M  V30 217 N 19.2153 -1.21501 -1.00376 0
M  V30 218 C 20.4633 -1.03095 -1.73827 0
M  V30 219 C 20.7843 0.436341 -1.90055 0
M  V30 220 O 20.0543 1.31466 -1.45236 0
M  V30 221 H 18.6343 -0.378487 -0.644016 0
M  V30 222 H 21.2963 -1.52831 -1.20949 0
M  V30 223 H 20.3923 -1.49991 -2.73695 0
M  V30 224 N 20.6934 1.19889 -1.02296 0
M  V30 225 C 21.6404 2.22901 -0.598651 0
M  V30 226 C 22.6104 1.61588 0.384521 0
M  V30 227 O 23.7954 1.88697 0.282522 0
M  V30 228 C 20.9354 3.45063 0.0504476 0
M  V30 229 C 20.0484 4.20783 -0.978053 0
M  V30 230 C 19.1834 5.30356 -0.299338 0
M  V30 231 C 18.2224 5.97826 -1.31416 0
M  V30 232 N 17.3594 6.98975 -0.661667 0
M  V30 233 H 22.1994 2.58554 -1.48169 0
M  V30 234 H 19.7364 1.27039 -0.741584 0
M  V30 235 H 21.6944 4.14831 0.443971 0
M  V30 236 H 20.3244 3.10084 0.897097 0
M  V30 237 H 19.3764 3.50018 -1.48969 0
M  V30 238 H 20.6884 4.67109 -1.74958 0
M  V30 239 H 19.8424 6.06516 0.149347 0
M  V30 240 H 18.5814 4.85084 0.504445 0
M  V30 241 H 17.5864 5.20422 -1.77317 0
M  V30 242 H 18.8114 6.45183 -2.11933 0
M  V30 243 H 16.7574 6.55886 0.122132 0
M  V30 244 H 16.6744 7.43461 -1.37117 0
M  V30 245 H 17.9424 7.7914 -0.236785 0
M  V30 246 N 22.1715 0.800033 1.35784 0
M  V30 247 C 23.3995 0.389606 2.03199 0
M  V30 248 C 23.8145 -0.997375 1.60306 0
M  V30 249 O 23.1715 -1.64154 0.797481 0
M  V30 250 C 23.2225 0.455855 3.58614 0
M  V30 251 O 22.9435 1.78815 3.99946 0
M  V30 252 C 24.4445 0.0374032 4.43284 0
M  V30 253 H 21.6645 0.159132 0.651857 0
M  V30 254 H 24.2085 1.08183 1.73541 0
M  V30 255 H 22.3635 -0.188057 3.86943 0
M  V30 256 H 22.7775 1.74636 4.94573 0
M  V30 257 H 24.2515 0.134882 5.51835 0
M  V30 258 H 24.7285 -1.01651 4.27275 0
M  V30 259 H 25.3345 0.654215 4.20238 0
M  V30 260 N 23.6496 -1.47581 0.552962 0
M  V30 261 C 24.8956 -2.03369 0.0355807 0
M  V30 262 C 25.2506 -1.42016 -1.29805 0
M  V30 263 O 24.5436 -0.564917 -1.83083 0
M  V30 264 C 24.7376 -3.57199 -0.119728 0
M  V30 265 C 24.5666 -4.33468 1.1973 0
M  V30 266 C 23.3366 -4.7353 1.76345 0
M  V30 267 C 25.5346 -4.68866 2.11351 0
M  V30 268 N 23.5166 -5.34426 3.02097 0
M  V30 269 C 24.8876 -5.3002 3.21681 0
M  V30 270 C 26.9426 -4.50795 2.11397 0
M  V30 271 C 25.6456 -5.75011 4.32151 0
M  V30 272 C 27.6716 -4.96782 3.20876 0
M  V30 273 C 27.0336 -5.57981 4.29926 0
M  V30 274 H 23.1326 -0.780058 0.0550806 0
M  V30 275 H 25.7166 -1.80117 0.739315 0
M  V30 276 H 23.8876 -3.80227 -0.792579 0
M  V30 277 H 25.6196 -3.99627 -0.638792 0
M  V30 278 H 22.3746 -4.55352 1.30196 0
M  V30 279 H 22.7986 -5.69421 3.66182 0
M  V30 280 H 27.4406 -4.0284 1.28372 0
M  V30 281 H 25.1586 -6.21959 5.15938 0
M  V30 282 H 28.7446 -4.84573 3.21994 0
M  V30 283 H 27.6246 -5.92918 5.13243 0
M  V30 284 N 25.1277 -0.289203 -1.54924 0
M  V30 285 C 26.3757 0.322879 -1.99504 0
M  V30 286 C 26.6967 1.55313 -1.1791 0
M  V30 287 O 25.9667 1.94001 -0.272097 0
M  V30 288 H 24.5467 0.122291 -0.736922 0
M  V30 289 H 27.2087 -0.397802 -1.90797 0
M  V30 290 H 26.3047 0.603061 -3.06218 0
M  V30 291 N 26.6058 1.57591 -0.0167156 0
M  V30 292 C 27.5378 2.06343 0.997753 0
M  V30 293 C 28.5508 0.984469 1.29661 0
M  V30 294 O 29.7398 1.26093 1.26344 0
M  V30 295 C 26.8398 2.46255 2.32834 0
M  V30 296 C 26.0128 3.77083 2.21646 0
M  V30 297 C 25.0718 4.0368 3.37534 0
M  V30 298 O 24.0978 4.7411 3.14973 0
M  V30 299 N 25.2998 3.52881 4.60929 0
M  V30 300 H 28.0648 2.93997 0.581875 0
M  V30 301 H 25.6258 1.61002 0.170316 0
M  V30 302 H 27.6178 2.61149 3.09166 0
M  V30 303 H 26.1878 1.64032 2.66106 0
M  V30 304 H 25.4078 3.72106 1.30119 0
M  V30 305 H 26.6958 4.62822 2.11361 0
M  V30 306 H 26.0938 2.95878 4.82154 0
M  V30 307 H 24.6508 3.73076 5.34469 0
M  V30 308 N 28.0839 -0.256276 1.55502 0
M  V30 309 C 28.9939 -1.33882 1.92647 0
M  V30 310 C 30.0099 -1.53159 0.825727 0
M  V30 311 O 31.1859 -1.66963 1.12629 0
M  V30 312 C 28.2509 -2.6751 2.20543 0
M  V30 313 C 27.3119 -2.56836 3.43997 0
M  V30 314 C 26.5449 -3.84092 3.70553 0
M  V30 315 O 26.7679 -4.85545 2.99336 0
M  V30 316 O 25.7019 -3.83288 4.64084 0
M  V30 317 H 29.5279 -1.05374 2.84833 0
M  V30 318 H 27.1129 -0.456237 1.42263 0
M  V30 319 H 28.9949 -3.46492 2.39835 0
M  V30 320 H 27.6699 -2.9577 1.31536 0
M  V30 321 H 26.5769 -1.76172 3.30021 0
M  V30 322 H 27.9099 -2.33523 4.33275 0
M  V30 323 N 29.562 -1.4872 -0.521534 0
M  V30 324 C 30.494 -1.59968 -1.64143 0
M  V30 325 C 31.507 -0.483463 -1.55456 0
M  V30 326 O 32.696 -0.75467 -1.61762 0
M  V30 327 C 29.796 -1.52127 -3.02838 0
M  V30 328 C 28.969 -2.78932 -3.36921 0
M  V30 329 C 28.028 -2.64428 -4.54933 0
M  V30 330 O 27.054 -3.38331 -4.57735 0
M  V30 331 N 28.256 -1.74606 -5.53618 0
M  V30 332 H 31.021 -2.56548 -1.54929 0
M  V30 333 H 28.582 -1.45551 -0.708988 0
M  V30 334 H 30.574 -1.40106 -3.79674 0
M  V30 335 H 29.144 -0.634868 -3.06085 0
M  V30 336 H 28.364 -3.05455 -2.4918 0
M  V30 337 H 29.652 -3.63041 -3.56481 0
M  V30 338 H 29.05 -1.13782 -5.54139 0
M  V30 339 H 27.607 -1.6852 -6.29638 0
M  V30 340 N 31.0401 0.771051 -1.3745 0
M  V30 341 C 32.2681 1.56015 -1.35893 0
M  V30 342 C 32.6831 1.88718 0.0555523 0
M  V30 343 O 32.0401 1.51502 1.01752 0
M  V30 344 C 32.0911 2.87001 -2.19801 0
M  V30 345 O 31.8121 2.557 -3.55738 0
M  V30 346 C 33.3131 3.81228 -2.26231 0
M  V30 347 H 30.5331 0.483317 -0.465453 0
M  V30 348 H 33.0771 0.955611 -1.80799 0
M  V30 349 H 31.2321 3.43877 -1.78402 0
M  V30 350 H 31.6461 3.39584 -3.99729 0
M  V30 351 H 33.1201 4.70139 -2.89263 0
M  V30 352 H 33.5971 4.20409 -1.27093 0
M  V30 353 H 34.2031 3.30281 -2.67945 0
M  V30 354 N 32.5182 1.22032 0.997298 0
M  V30 355 C 33.7482 1.06686 1.76923 0
M  V30 356 C 34.1562 -0.385838 1.85224 0
M  V30 357 O 33.4992 -1.27929 1.31833 0
M  V30 358 C 33.5612 1.59802 3.22031 0
M  V30 359 C 33.2252 3.08362 3.37286 0
M  V30 360 C 34.2222 4.05835 3.24952 0
M  V30 361 C 31.9072 3.47727 3.6248 0
M  V30 362 C 33.9012 5.4066 3.37588 0
M  V30 363 C 31.5882 4.82701 3.74757 0
M  V30 364 C 32.5862 5.78977 3.62319 0
M  V30 365 O 32.2742 7.11502 3.74193 0
M  V30 366 H 32.0062 0.374767 0.562606 0
M  V30 367 H 34.5602 1.61991 1.26286 0
M  V30 368 H 32.7902 0.989003 3.73839 0
M  V30 369 H 34.4792 1.40184 3.80924 0
M  V30 370 H 35.2452 3.76766 3.05405 0
M  V30 371 H 31.1242 2.73317 3.7124 0
M  V30 372 H 34.6682 6.15788 3.27796 0
M  V30 373 H 30.5652 5.11453 3.9381 0
M  V30 374 H 31.3332 7.19019 3.91093 0
M  V30 375 N 33.9963 -1.19345 1.0293 0
M  V30 376 C 35.2423 -1.89318 0.727083 0
M  V30 377 C 35.5753 -1.79446 -0.742483 0
M  V30 378 O 34.8503 -1.1871 -1.54072 0
M  V30 379 C 35.1333 -3.40238 1.17942 0
M  V30 380 C 34.9863 -3.58979 2.71024 0
M  V30 381 C 36.3053 -4.33479 0.760548 0
M  V30 382 H 33.4243 -0.687475 0.265606 0
M  V30 383 H 36.0663 -1.40477 1.2793 0
M  V30 384 H 34.2163 -3.81964 0.709608 0
M  V30 385 H 35.8883 -3.26421 3.25955 0
M  V30 386 H 34.1313 -3.02018 3.11396 0
M  V30 387 H 34.8023 -4.64823 2.9773 0
M  V30 388 H 37.2783 -3.99469 1.16464 0
M  V30 389 H 36.1543 -5.37664 1.10493 0
M  V30 390 H 36.4153 -4.40813 -0.337063 0
M  V30 391 N 35.4744 -0.807222 -1.35358 0
M  V30 392 C 36.7234 -0.384376 -1.98004 0
M  V30 393 C 37.0364 1.0543 -1.64754 0
M  V30 394 O 38.2424 1.58029 -2.20769 0
M  V30 395 C 36.6984 -0.636326 -3.5423 0
M  V30 396 C 36.3064 -2.08759 -3.96388 0
M  V30 397 C 38.0504 -0.278869 -4.23583 0
M  V30 398 C 35.9574 -2.28525 -5.45463 0
M  V30 399 H 34.8874 -0.139986 -0.740891 0
M  V30 400 H 37.5384 -0.991369 -1.54415 0
M  V30 401 H 35.9204 0.0406256 -3.95979 0
M  V30 402 H 37.0944 -2.8024 -3.6579 0
M  V30 403 H 35.4094 -2.40497 -3.39926 0
M  V30 404 H 38.0064 -0.404599 -5.33167 0
M  V30 405 H 38.3494 0.775012 -4.09022 0
M  V30 406 H 38.8824 -0.909764 -3.87257 0
M  V30 407 H 35.6214 -3.32361 -5.64992 0
M  V30 408 H 35.1414 -1.61569 -5.77629 0
M  V30 409 H 36.8204 -2.10109 -6.11934 0
M  V30 410 N 36.9525 1.47285 -0.560781 0
M  V30 411 C 38.1775 2.07359 -0.0410566 0
M  V30 412 C 38.6025 1.41017 1.24483 0
M  V30 413 O 37.9605 0.486368 1.74654 0
M  V30 414 C 38.0085 3.6035 0.134123 0
M  V30 415 O 37.1125 3.94681 1.19587 0
M  V30 416 H 36.4535 0.661887 -0.0529291 0
M  V30 417 H 38.9835 1.89252 -0.777482 0
M  V30 418 H 38.9935 4.0652 0.347207 0
M  V30 419 H 37.6685 4.08034 -0.805047 0
M  V30 420 H 36.2455 3.60251 0.962987 0
M  V30 421 N 38.4306 0.297415 1.54768 0
M  V30 422 C 39.3936 -0.567375 2.22066 0
M  V30 423 C 40.3936 -1.06409 1.20556 0
M  V30 424 O 41.5836 -0.960691 1.45315 0
M  V30 425 C 38.7156 -1.78517 2.90421 0
M  V30 426 H 39.9086 0.0205534 2.99893 0
M  V30 427 H 37.4616 0.0482163 1.56226 0
M  V30 428 H 38.1966 -2.41303 2.16664 0
M  V30 429 H 37.9816 -1.43669 3.64831 0
M  V30 430 H 39.4716 -2.39964 3.41771 0
M  V30 431 N 39.9087 -1.5758 0.0250728 0
M  V30 432 C 41.3197 -1.79476 -0.514323 0
M  V30 433 C 41.6707 -0.934956 -1.72491 0
M  V30 434 O 40.7957 -0.144245 -2.15919 0
M  V30 435 C 41.3907 -3.25503 -0.939842 0
M  V30 436 C 39.9497 -3.48408 -1.42438 0
M  V30 437 C 39.0967 -2.74583 -0.387201 0
M  V30 438 H 42.0477 -1.567 0.25113 0
M  V30 439 H 42.0687 -3.34992 -1.80445 0
M  V30 440 H 41.5807 -3.88056 -0.0585628 0
M  V30 441 H 39.6817 -2.91103 -2.32572 0
M  V30 442 H 39.7947 -4.57119 -1.43455 0
M  V30 443 H 38.1587 -2.39942 -0.854409 0
M  V30 444 H 38.9417 -3.39849 0.485543 0
M  V30 445 N 41.3868 0.248026 -1.55636 0
M  V30 446 C 42.3338 1.30707 -1.90222 0
M  V30 447 C 43.3038 1.47881 -0.756332 0
M  V30 448 O 44.4888 1.61883 -1.00988 0
M  V30 449 C 41.6288 2.65769 -2.20138 0
M  V30 450 C 40.7418 2.56612 -3.47526 0
M  V30 451 C 39.8768 3.8402 -3.67017 0
M  V30 452 C 38.9158 3.69476 -4.8801 0
M  V30 453 N 38.0528 4.88774 -5.04029 0
M  V30 454 H 42.8928 1.00512 -2.80538 0
M  V30 455 H 40.4298 0.485055 -1.38873 0
M  V30 456 H 42.3878 3.44386 -2.35487 0
M  V30 457 H 41.0178 2.94115 -1.33027 0
M  V30 458 H 40.0698 1.69571 -3.40514 0
M  V30 459 H 41.3818 2.41774 -4.36287 0
M  V30 460 H 40.5358 4.7108 -3.8232 0
M  V30 461 H 39.2748 4.01754 -2.76487 0
M  V30 462 H 38.2798 2.80799 -4.72686 0
M  V30 463 H 39.5048 3.53238 -5.8 0
M  V30 464 H 37.4508 5.0687 -4.16435 0
M  V30 465 H 37.3678 4.76562 -5.86877 0
M  V30 466 H 38.6358 5.77335 -5.23741 0
M  V30 467 N 42.8649 1.48995 0.513639 0
M  V30 468 C 44.1139 1.57093 1.2651 0
M  V30 469 C 44.4269 0.257091 1.93903 0
M  V30 470 O 45.6329 0.216478 2.70636 0
M  V30 471 C 44.0889 2.77118 2.29638 0
M  V30 472 C 43.6969 4.15209 1.68241 0
M  V30 473 C 45.4409 2.94538 3.05692 0
M  V30 474 C 43.3479 5.26474 2.69406 0
M  V30 475 H 42.2779 0.584876 0.475854 0
M  V30 476 H 44.9289 1.7536 0.540487 0
M  V30 477 H 43.3109 2.52319 3.05207 0
M  V30 478 H 44.4849 4.50094 0.987505 0
M  V30 479 H 42.7999 4.03042 1.04623 0
M  V30 480 H 45.3969 3.74832 3.8132 0
M  V30 481 H 45.7399 2.04614 3.62545 0
M  V30 482 H 46.2729 3.19316 2.37238 0
M  V30 483 H 43.0119 6.18417 2.17351 0
M  V30 484 H 42.5319 4.96058 3.37175 0
M  V30 485 H 44.2109 5.55277 3.32078 0
M  V30 486 N 44.343 -0.763751 1.37857 0
M  V30 487 C 45.59 -1.52257 1.33506 0
M  V30 488 C 45.918 -1.94343 -0.078022 0
M  V30 489 O 45.173 -1.64958 -1.05297 0
M  V30 490 C 45.472 -2.79499 2.22745 0
M  V30 491 C 45.138 -2.56426 3.70886 0
M  V30 492 C 43.8 -2.49842 4.11257 0
M  V30 493 C 46.152 -2.36008 4.64704 0
M  V30 494 C 43.48 -2.20841 5.43549 0
M  V30 495 C 45.832 -2.0853 5.97242 0
M  V30 496 C 44.496 -2.00396 6.36709 0
M  V30 497 H 43.766 -0.557149 0.488534 0
M  V30 498 H 46.413 -0.879073 1.70131 0
M  V30 499 H 44.718 -3.48447 1.79142 0
M  V30 500 H 46.415 -3.37413 2.16688 0
M  V30 501 H 43.005 -2.62416 3.38874 0
M  V30 502 H 47.189 -2.40079 4.34368 0
M  V30 503 H 42.445 -2.13045 5.73081 0
M  V30 504 H 46.619 -1.91732 6.69486 0
M  V30 505 H 44.246 -1.77688 7.39142 0
M  V30 506 N 45.8211 -1.22559 -0.990812 0
M  V30 507 C 47.2371 -0.985996 -1.255 0
M  V30 508 C 47.4371 0.319173 -1.98956 0
M  V30 509 O 46.4931 1.04127 -2.3003 0
M  V30 510 C 47.8061 -2.18607 -2.06474 0
M  V30 511 C 49.3541 -2.22985 -2.19651 0
M  V30 512 C 49.8291 -3.4255 -3.04012 0
M  V30 513 N 51.3201 -3.42725 -3.11599 0
M  V30 514 C 52.0551 -4.31892 -3.7717 0
M  V30 515 N 51.5511 -5.31279 -4.44651 0
M  V30 516 N 53.3441 -4.19662 -3.73952 0
M  V30 517 H 45.4951 -2.06469 -0.49841 0
M  V30 518 H 47.7581 -0.904853 -0.282747 0
M  V30 519 H 47.4641 -3.13267 -1.59865 0
M  V30 520 H 47.3381 -2.18838 -3.07229 0
M  V30 521 H 49.7251 -1.28871 -2.65474 0
M  V30 522 H 49.8061 -2.26791 -1.18319 0
M  V30 523 H 49.4501 -4.36965 -2.58889 0
M  V30 524 H 49.3801 -3.35984 -4.0549 0
M  V30 525 H 51.8711 -2.70807 -2.63575 0
M  V30 526 H 52.1841 -5.95593 -4.92431 0
M  V30 527 H 50.5291 -5.3519 -4.43392 0
M  V30 528 H 53.7201 -3.41268 -3.20396 0
M  V30 529 H 53.8931 -4.89358 -4.24774 0
M  V30 530 N 47.2992 1.18797 -1.03562 0
M  V30 531 C 48.5452 1.8893 -0.737113 0
M  V30 532 C 48.8782 1.79837 0.732956 0
M  V30 533 O 48.1532 1.19525 1.5344 0
M  V30 534 C 48.4362 3.39607 -1.19745 0
M  V30 535 C 48.2892 3.57537 -2.72924 0
M  V30 536 C 49.6082 4.33069 -0.783526 0
M  V30 537 H 46.7272 0.686057 -0.269249 0
M  V30 538 H 49.3692 1.39797 -1.28673 0
M  V30 539 H 47.5192 3.81583 -0.729855 0
M  V30 540 H 49.1912 3.24688 -3.27682 0
M  V30 541 H 47.4342 3.00363 -3.12993 0
M  V30 542 H 48.1052 4.63238 -3.00191 0
M  V30 543 H 50.5812 3.98846 -1.18581 0
M  V30 544 H 49.4572 5.3707 -1.13343 0
M  V30 545 H 49.7182 4.40986 0.313681 0
M  V30 546 N 48.7773 0.814389 1.34928 0
M  V30 547 C 50.0253 0.397636 1.9815 0
M  V30 548 C 50.3463 -1.04069 1.64908 0
M  V30 549 O 49.6163 -1.72121 0.93548 0
M  V30 550 H 48.1963 0.144043 0.732981 0
M  V30 551 H 50.8583 1.04195 1.6471 0
M  V30 552 H 49.9543 0.509688 3.0791 0
M  V30 553 N 50.2554 -1.46986 0.568584 0
M  V30 554 C 51.2184 -2.28624 -0.162366 0
M  V30 555 C 52.2184 -1.37596 -0.832103 0
M  V30 556 O 53.4084 -1.60115 -0.68622 0
M  V30 557 C 50.5404 -3.17596 -1.23878 0
M  V30 558 H 51.7334 -2.94722 0.554899 0
M  V30 559 H 49.2864 -1.52863 0.325976 0
M  V30 560 H 50.0214 -2.56214 -1.98808 0
M  V30 561 H 49.8064 -3.846 -0.763219 0
M  V30 562 H 51.2964 -3.79078 -1.75185 0
M  V30 563 N 51.7335 -0.305618 -1.54608 0
M  V30 564 C 52.9585 0.307562 -2.05107 0
M  V30 565 C 53.3835 1.46385 -1.18123 0
M  V30 566 O 52.7415 1.8034 -0.186324 0
M  V30 567 C 52.7895 0.73704 -3.52987 0
M  V30 568 O 51.8935 1.84134 -3.6901 0
M  V30 569 H 51.2345 0.0589143 -0.661381 0
M  V30 570 H 53.7645 -0.448807 -1.99617 0
M  V30 571 H 53.7745 1.02459 -3.94925 0
M  V30 572 H 52.4495 -0.108773 -4.15758 0
M  V30 573 H 51.0265 1.55398 -3.38978 0
M  V30 574 N 53.2116 1.57565 -0.0334293 0
M  V30 575 C 54.1216 2.13943 0.962572 0
M  V30 576 C 55.1376 1.09276 1.35406 0
M  V30 577 O 56.3136 1.41355 1.4346 0
M  V30 578 C 53.3786 2.65887 2.22497 0
M  V30 579 C 52.4396 3.85286 1.8935 0
M  V30 580 C 51.6726 4.34743 3.09571 0
M  V30 581 O 51.8956 3.83352 4.22371 0
M  V30 582 O 50.8296 5.26538 2.91618 0
M  V30 583 H 54.6556 2.99333 0.513169 0
M  V30 584 H 52.2406 1.4822 0.18743 0
M  V30 585 H 54.1226 2.99346 2.96598 0
M  V30 586 H 52.7976 1.83578 2.6661 0
M  V30 587 H 51.7046 3.56746 1.1262 0
M  V30 588 H 53.0376 4.68771 1.5005 0
M  V30 589 N 54.6897 -0.239769 1.55765 0
M  V30 590 C 55.6377 -1.31668 1.91745 0
M  V30 591 C 56.6317 -1.49462 0.797338 0
M  V30 592 O 57.8377 -1.50852 0.982021 0
M  V30 593 H 54.2127 -0.441048 0.609082 0
M  V30 594 H 56.1837 -0.985923 2.81642 0
M  V30 595 C 54.9327 -2.66368 2.2348 0
M  V30 596 H 54.2557 -2.53478 3.09175 0
M  V30 597 H 55.6957 -3.40578 2.52553 0
M  V30 598 C 54.1547 -3.20002 1.05359 0
M  V30 599 O 54.6847 -4.00538 0.305261 0
M  V30 600 N 52.8907 -2.78126 0.842292 0
M  V30 601 H 52.4377 -2.12742 1.45253 0
M  V30 602 H 52.3957 -3.14354 0.053652 0
M  V30 603 N 56.1678 -1.49265 -0.50573 0
M  V30 604 C 57.4168 -1.57761 -1.25675 0
M  V30 605 C 57.7298 -0.267371 -1.93764 0
M  V30 606 O 58.9358 -0.230827 -2.70517 0
M  V30 607 C 57.3918 -2.78332 -2.28165 0
M  V30 608 C 56.9998 -4.16096 -1.66037 0
M  V30 609 C 58.7438 -2.96155 -3.04125 0
M  V30 610 C 56.6508 -5.27895 -2.6661 0
M  V30 611 H 55.5808 -0.587391 -0.472745 0
M  V30 612 H 58.2318 -1.75644 -0.53118 0
M  V30 613 H 56.6138 -2.53934 -3.03865 0
M  V30 614 H 57.7878 -4.50612 -0.963622 0
M  V30 615 H 56.1028 -4.03591 -1.02484 0
M  V30 616 H 58.6998 -3.76849 -3.79327 0
M  V30 617 H 59.0428 -2.06534 -3.61455 0
M  V30 618 H 59.5758 -3.2057 -2.35541 0
M  V30 619 H 56.3148 -6.1956 -2.14068 0
M  V30 620 H 55.8348 -4.97839 -3.34539 0
M  V30 621 H 57.5138 -5.57031 -3.29129 0
M  V30 622 N 57.6459 0.756429 -1.3826 0
M  V30 623 C 58.8919 1.51772 -1.34511 0
M  V30 624 C 59.2249 1.94089 0.0656691 0
M  V30 625 O 58.4999 1.65221 1.02626 0
M  V30 626 C 58.7829 2.77226 -2.29821 0
M  V30 627 C 58.6359 2.41065 -3.79747 0
M  V30 628 C 59.9549 3.79236 -2.23312 0
M  V30 629 H 57.0739 0.550578 -0.489931 0
M  V30 630 H 59.7159 0.866607 -1.69086 0
M  V30 631 H 57.8659 3.32784 -2.00467 0
M  V30 632 H 59.5379 1.91303 -4.19763 0
M  V30 633 H 57.7809 1.7356 -3.97567 0
M  V30 634 H 58.4519 3.3081 -4.41892 0
M  V30 635 H 60.9279 3.3321 -2.49219 0
M  V30 636 H 59.8039 4.64714 -2.92116 0
M  V30 637 H 60.0649 4.24615 -1.23102 0
M  V30 638 N 59.124 1.23083 0.984299 0
M  V30 639 C 60.373 1.05466 1.71929 0
M  V30 640 C 60.686 -0.409211 1.91272 0
M  V30 641 O 61.892 -0.705226 2.62181 0
M  V30 642 C 60.348 1.83874 3.09384 0
M  V30 643 C 59.956 3.34566 2.97943 0
M  V30 644 C 61.7 1.74734 3.8687 0
M  V30 645 C 59.607 4.05381 4.30605 0
M  V30 646 H 58.537 0.391039 0.644674 0
M  V30 647 H 61.188 1.47013 1.09815 0
M  V30 648 H 59.57 1.35131 3.72231 0
M  V30 649 H 60.744 3.90767 2.44209 0
M  V30 650 H 59.059 3.44476 2.33934 0
M  V30 651 H 61.656 2.24957 4.85076 0
M  V30 652 H 61.999 0.709372 4.10212 0
M  V30 653 H 62.532 2.21067 3.30717 0
M  V30 654 H 59.271 5.09467 4.1246 0
M  V30 655 H 58.791 3.53967 4.84218 0
M  V30 656 H 60.47 4.11458 4.99311 0
M  V30 657 N 60.6021 -1.18246 1.0419 0
M  V30 658 C 61.5341 -2.2142 0.592088 0
M  V30 659 C 62.5471 -1.59233 -0.338909 0
M  V30 660 O 63.7361 -1.78002 -0.133231 0
M  V30 661 C 60.8361 -3.38546 -0.154854 0
M  V30 662 C 60.0091 -4.3031 0.784328 0
M  V30 663 C 59.0681 -5.26138 0.0804583 0
M  V30 664 O 58.0941 -5.64738 0.711292 0
M  V30 665 N 59.2961 -5.68261 -1.18574 0
M  V30 666 H 62.0611 -2.60636 1.47949 0
M  V30 667 H 59.6221 -1.33044 0.922544 0
M  V30 668 H 61.6141 -3.99678 -0.635606 0
M  V30 669 H 60.1841 -2.98012 -0.943811 0
M  V30 670 H 59.4041 -3.66764 1.44491 0
M  V30 671 H 60.6921 -4.8852 1.42218 0
M  V30 672 H 60.0901 -5.38957 -1.71876 0
M  V30 673 H 58.6471 -6.31584 -1.61074 0
M  V30 674 N 62.0802 -0.821533 -1.34494 0
M  V30 675 C 63.3262 -0.409552 -1.98622 0
M  V30 676 C 63.6592 1.0244 -1.64984 0
M  V30 677 O 62.9342 1.71325 -0.920758 0
M  V30 678 C 63.2172 -0.610458 -3.54888 0
M  V30 679 C 63.0702 -2.09043 -3.98273 0
M  V30 680 C 64.3892 -0.0455379 -4.40076 0
M  V30 681 H 61.5082 -0.15028 -0.721516 0
M  V30 682 H 64.1502 -1.03384 -1.59411 0
M  V30 683 H 62.3002 -0.079044 -3.8842 0
M  V30 684 H 63.9722 -2.68537 -3.75081 0
M  V30 685 H 62.2152 -2.58139 -3.48635 0
M  V30 686 H 62.8862 -2.18182 -5.07051 0
M  V30 687 H 65.3622 -0.499557 -4.1309 0
M  V30 688 H 64.2382 -0.215922 -5.48475 0
M  V30 689 H 64.4992 1.04939 -4.29465 0
M  V30 690 N 63.5583 1.46682 -0.576371 0
M  V30 691 C 64.7883 2.06498 -0.0648694 0
M  V30 692 C 65.1963 1.42665 1.24271 0
M  V30 693 O 64.5393 0.523886 1.76071 0
M  V30 694 C 64.6013 3.5904 0.181816 0
M  V30 695 C 64.2653 4.45028 -1.0392 0
M  V30 696 C 65.2623 4.81959 -1.94966 0
M  V30 697 C 62.9473 4.86259 -1.25927 0
M  V30 698 C 64.9413 5.58942 -3.06371 0
M  V30 699 C 62.6283 5.63002 -2.37638 0
M  V30 700 C 63.6263 5.99257 -3.2769 0
M  V30 701 O 63.3143 6.7445 -4.37461 0
M  V30 702 H 63.0463 0.674028 -0.0515987 0
M  V30 703 H 65.6003 1.89393 -0.794951 0
M  V30 704 H 63.8303 3.74429 0.966436 0
M  V30 705 H 65.5193 4.00806 0.641047 0
M  V30 706 H 66.2853 4.50689 -1.79177 0
M  V30 707 H 62.1643 4.57494 -0.567448 0
M  V30 708 H 65.7083 5.87158 -3.76684 0
M  V30 709 H 61.6053 5.93686 -2.53392 0
M  V30 710 H 62.3733 6.92867 -4.35749 0
M  V30 711 N 65.0364 0.313813 1.54444 0
M  V30 712 C 66.2844 -0.291099 1.99993 0
M  V30 713 C 66.6054 -1.53418 1.20366 0
M  V30 714 O 65.8754 -1.93544 0.302927 0
M  V30 715 H 64.4554 -0.110552 0.738774 0
M  V30 716 H 67.1174 0.428106 1.9014 0
M  V30 717 H 66.2134 -0.554268 3.07139 0
M  V30 718 N 66.5145 -1.57545 0.0417849 0
M  V30 719 C 67.7445 -1.96339 -0.642995 0
M  V30 720 C 68.1525 -0.917536 -1.65463 0
M  V30 721 O 67.4955 0.107747 -1.83384 0
M  V30 722 C 67.5575 -3.31333 -1.39494 0
M  V30 723 C 67.2215 -4.53796 -0.540204 0
M  V30 724 C 68.2185 -5.19553 0.189806 0
M  V30 725 C 65.9035 -5.0006 -0.473886 0
M  V30 726 C 67.8975 -6.29904 0.974674 0
M  V30 727 C 65.5845 -6.10289 0.314677 0
M  V30 728 C 66.5825 -6.75072 1.03765 0
M  V30 729 O 66.2705 -7.83183 1.81327 0
M  V30 730 H 66.0025 -0.651241 -0.181277 0
M  V30 731 H 68.5565 -2.05148 0.101665 0
M  V30 732 H 66.7865 -3.19052 -2.18502 0
M  V30 733 H 68.4755 -3.54942 -1.96904 0
M  V30 734 H 69.2415 -4.84774 0.147981 0
M  V30 735 H 65.1205 -4.49433 -1.0262 0
M  V30 736 H 68.6645 -6.80401 1.5395 0
M  V30 737 H 64.5615 -6.44506 0.358174 0
M  V30 738 H 65.3295 -7.99913 1.73438 0
M  V30 739 N 67.9926 0.231505 -1.5589 0
M  V30 740 C 69.2206 0.974505 -1.82513 0
M  V30 741 C 69.6356 1.78344 -0.619591 0
M  V30 742 O 68.9926 1.77792 0.411848 0
M  V30 743 C 69.0436 1.90007 -3.07538 0
M  V30 744 O 68.7646 1.12385 -4.2344 0
M  V30 745 C 70.2656 2.75779 -3.47075 0
M  V30 746 H 67.4856 0.286065 -0.606966 0
M  V30 747 H 70.0296 0.249739 -2.02969 0
M  V30 748 H 68.1846 2.57891 -2.89086 0
M  V30 749 H 68.5986 1.75125 -4.944 0
M  V30 750 H 70.0726 3.36443 -4.37619 0
M  V30 751 H 70.5496 3.47672 -2.68367 0
M  V30 752 H 71.1556 2.13323 -3.67931 0
M  V30 753 N 69.4707 1.49531 0.497807 0
M  V30 754 C 70.3807 1.69176 1.62532 0
M  V30 755 C 71.3967 0.5744 1.64246 0
M  V30 756 O 72.5727 0.849497 1.82608 0
M  V30 757 C 69.6377 1.75695 2.98885 0
M  V30 758 C 68.6987 2.9929 3.07773 0
M  V30 759 C 67.9317 3.05488 4.37622 0
M  V30 760 O 68.1547 2.19192 5.26603 0
M  V30 761 O 67.0887 3.9798 4.51548 0
M  V30 762 H 70.9147 2.647 1.48887 0
M  V30 763 H 68.4997 1.3331 0.674441 0
M  V30 764 H 70.3817 1.82317 3.79919 0
M  V30 765 H 69.0567 0.8335 3.12785 0
M  V30 766 H 67.9637 2.98183 2.25915 0
M  V30 767 H 69.2967 3.91125 2.98801 0
M  V30 768 N 70.9488 -0.749086 1.3866 0
M  V30 769 C 71.9118 -1.84457 1.36045 0
M  V30 770 C 72.9118 -1.58682 0.260122 0
M  V30 771 O 74.1018 -1.66343 0.517261 0
M  V30 772 C 71.2338 -3.22008 1.11911 0
M  V30 773 H 72.4268 -1.88182 2.33512 0
M  V30 774 H 69.9798 -0.951266 1.24019 0
M  V30 775 H 70.7148 -3.2395 0.150686 0
M  V30 776 H 70.4998 -3.42111 1.91579 0
M  V30 777 H 71.9898 -4.0208 1.12788 0
M  V30 778 N 72.4269 -1.23603 -0.977757 0
M  V30 779 C 73.6739 -1.06971 -1.71941 0
M  V30 780 C 74.0019 0.393009 -1.90488 0
M  V30 781 O 73.2569 1.30719 -1.4564 0
M  V30 782 C 73.5559 -1.7433 -3.11999 0
M  V30 783 C 73.2219 -3.24252 -3.13323 0
M  V30 784 C 71.8839 -3.65156 -3.13392 0
M  V30 785 C 74.2359 -4.20141 -3.08433 0
M  V30 786 C 71.5639 -5.00403 -3.0629 0
M  V30 787 C 73.9159 -5.55384 -3.02873 0
M  V30 788 C 72.5799 -5.95647 -3.01265 0
M  V30 789 H 71.8499 -0.391433 -0.629175 0
M  V30 790 H 74.4969 -1.53572 -1.14403 0
M  V30 791 H 72.8019 -1.20096 -3.7294 0
M  V30 792 H 74.4989 -1.58936 -3.68158 0
M  V30 793 H 71.0889 -2.91692 -3.14029 0
M  V30 794 H 75.2729 -3.89547 -3.07517 0
M  V30 795 H 70.5289 -5.3081 -3.03399 0
M  V30 796 H 74.7029 -6.29398 -2.98046 0
M  V30 797 H 72.3299 -7.0041 -2.95516 0
M  V30 798 N 73.905 1.17692 -1.04816 0
M  V30 799 C 75.182 1.83768 -0.669963 0
M  V30 800 C 75.562 1.93232 0.849986 0
M  V30 801 O 74.91 1.46397 1.75443 0
M  V30 802 C 75.12 3.21641 -1.35455 0
M  V30 803 C 76.468 3.97592 -1.49017 0
M  V30 804 O 77.492 3.31107 -1.31326 0
M  V30 805 O 76.351 5.16729 -1.77914 0
M  V30 806 H 73.445 0.792799 -0.235368 0
M  V30 807 H 75.991 1.25021 -1.14751 0
M  V30 808 H 74.763 3.097 -2.39168 0
M  V30 809 H 74.386 3.88052 -0.866107 0
M  V30 810 N 75.3831 0.828654 1.34056 0
M  V30 811 C 76.3461 0.259927 2.27721 0
M  V30 812 C 77.3461 -0.565478 1.50529 0
M  V30 813 O 78.5361 -0.38075 1.69988 0
M  V30 814 C 75.6681 -0.634944 3.34935 0
M  V30 815 H 76.8611 1.0863 2.79534 0
M  V30 816 H 74.4141 0.600951 1.44285 0
M  V30 817 H 75.1491 -1.48416 2.88346 0
M  V30 818 H 74.9341 -0.0444999 3.92075 0
M  V30 819 H 76.4241 -1.02648 4.04788 0
M  V30 820 N 76.8612 -1.46375 0.584142 0
M  V30 821 C 78.0892 -2.06761 0.0759296 0
M  V30 822 C 78.5042 -1.43266 -1.22965 0
M  V30 823 O 77.8612 -0.538458 -1.74376 0
M  V30 824 C 77.9122 -3.61375 -0.0950384 0
M  V30 825 O 77.6332 -4.22495 1.15887 0
M  V30 826 C 79.1342 -4.38693 -0.637434 0
M  V30 827 H 76.3542 -0.668479 0.0581075 0
M  V30 828 H 78.8982 -1.8798 0.805218 0
M  V30 829 H 77.0532 -3.79578 -0.774554 0
M  V30 830 H 77.4672 -5.15385 0.973598 0
M  V30 831 H 78.9412 -5.47464 -0.706237 0
M  V30 832 H 79.4182 -4.06836 -1.65472 0
M  V30 833 H 80.0242 -4.25299 0.00725967 0
M  V30 834 N 78.3393 -0.321999 -1.54275 0
M  V30 835 C 79.5883 0.281931 -1.9972 0
M  V30 836 C 79.9013 1.53369 -1.21397 0
M  V30 837 O 81.1073 2.21352 -1.57211 0
M  V30 838 C 79.5633 0.5529 -3.55628 0
M  V30 839 C 79.1713 -0.681721 -4.42783 0
M  V30 840 C 80.9153 1.11687 -4.09544 0
M  V30 841 C 78.8223 -0.382742 -5.9016 0
M  V30 842 H 77.7523 0.109124 -0.746062 0
M  V30 843 H 80.4033 -0.43398 -1.78294 0
M  V30 844 H 78.7853 1.32896 -3.73035 0
M  V30 845 H 79.9593 -1.45723 -4.37151 0
M  V30 846 H 78.2743 -1.1658 -3.99748 0
M  V30 847 H 80.8713 1.35515 -5.17242 0
M  V30 848 H 81.2143 2.06575 -3.61431 0
M  V30 849 H 81.7473 0.402032 -3.95763 0
M  V30 850 H 78.4863 -1.30076 -6.42464 0
M  V30 851 H 78.0063 0.355094 -5.98748 0
M  V30 852 H 79.6853 0.00800157 -6.47 0
M  V30 853 N 79.8174 1.5752 -0.0501392 0
M  V30 854 C 81.0424 1.97376 0.636997 0
M  V30 855 C 81.4674 0.927466 1.63645 0
M  V30 856 O 80.8254 -0.10941 1.8097 0
M  V30 857 C 80.8734 3.36304 1.30123 0
M  V30 858 O 79.9774 3.34156 2.41689 0
M  V30 859 H 79.3184 0.642998 0.165679 0
M  V30 860 H 81.8484 2.04258 -0.118233 0
M  V30 861 H 81.8584 3.73008 1.65315 0
M  V30 862 H 80.5334 4.11993 0.568746 0
M  V30 863 H 79.1104 3.09196 2.08451 0
M  V30 864 N 81.2955 -0.223234 1.56011 0
M  V30 865 C 82.5445 -0.945912 1.78144 0
M  V30 866 C 82.8575 -1.85567 0.618396 0
M  V30 867 O 84.0635 -2.61688 0.723318 0
M  V30 868 C 82.5195 -1.73216 3.15475 0
M  V30 869 C 82.1275 -0.868619 4.39499 0
M  V30 870 C 83.8715 -2.44615 3.46935 0
M  V30 871 C 81.7785 -1.65212 5.67855 0
M  V30 872 H 80.7085 -0.356929 0.664167 0
M  V30 873 H 83.3595 -0.199845 1.82409 0
M  V30 874 H 81.7415 -2.52107 3.05382 0
M  V30 875 H 82.9155 -0.120366 4.60643 0
M  V30 876 H 81.2305 -0.26683 4.15544 0
M  V30 877 H 83.8275 -3.03732 4.40058 0
M  V30 878 H 84.1705 -3.17417 2.69355 0
M  V30 879 H 84.7035 -1.72715 3.58349 0
M  V30 880 H 81.4425 -0.967407 6.48322 0
M  V30 881 H 80.9625 -2.37503 5.50774 0
M  V30 882 H 82.6415 -2.21322 6.07968 0
M  V30 883 N 82.7736 -1.49793 -0.48987 0
M  V30 884 C 83.7206 -1.67281 -1.59014 0
M  V30 885 C 84.6906 -0.514177 -1.57941 0
M  V30 886 O 85.8756 -0.742533 -1.75759 0
M  V30 887 C 83.0156 -1.75569 -2.97102 0
M  V30 888 C 82.1286 -3.0281 -3.08107 0
M  V30 889 C 81.2636 -3.02008 -4.36995 0
M  V30 890 C 80.3026 -4.23782 -4.41673 0
M  V30 891 N 79.4396 -4.20826 -5.62005 0
M  V30 892 H 84.2796 -2.61224 -1.43409 0
M  V30 893 H 81.8166 -1.29508 -0.697565 0
M  V30 894 H 83.7746 -1.78354 -3.77155 0
M  V30 895 H 82.4046 -0.850827 -3.11385 0
M  V30 896 H 81.4566 -3.09584 -2.21047 0
M  V30 897 H 82.7686 -3.92801 -3.07423 0
M  V30 898 H 81.9226 -3.03418 -5.25378 0
M  V30 899 H 80.6616 -2.09815 -4.4026 0
M  V30 900 H 79.6666 -4.22604 -3.5169 0
M  V30 901 H 80.8916 -5.17181 -4.40115 0
M  V30 902 H 78.8376 -3.31476 -5.66091 0
M  V30 903 H 78.7546 -5.04564 -5.62984 0
M  V30 904 H 80.0226 -4.26355 -6.52565 0
M  V30 905 N 84.2517 0.741722 -1.39055 0
M  V30 906 C 85.4767 1.53607 -1.39354 0
M  V30 907 C 85.9017 1.88096 0.0116905 0
M  V30 908 O 85.2597 1.5143 0.996924 0
M  V30 909 C 85.3077 2.80441 -2.26682 0
M  V30 910 O 84.4117 3.76088 -1.69208 0
M  V30 911 H 83.7527 0.464142 -0.474835 0
M  V30 912 H 86.2827 0.915665 -1.82967 0
M  V30 913 H 86.2927 3.29246 -2.40959 0
M  V30 914 H 84.9677 2.5467 -3.2881 0
M  V30 915 H 83.5447 3.34833 -1.64138 0
M  V30 916 N 85.7298 1.2412 0.971189 0
M  V30 917 C 86.9598 1.10415 1.7462 0
M  V30 918 C 87.3678 -0.346462 1.86001 0
M  V30 919 O 86.7108 -1.25104 1.34517 0
M  V30 920 C 86.7728 1.66596 3.18568 0
M  V30 921 C 86.4368 3.15446 3.3067 0
M  V30 922 C 87.4338 4.12636 3.16271 0
M  V30 923 C 85.1188 3.55337 3.55022 0
M  V30 924 C 87.1128 5.47699 3.26044 0
M  V30 925 C 84.7998 4.90542 3.64434 0
M  V30 926 C 85.7978 5.86532 3.49956 0
M  V30 927 O 85.4858 7.19279 3.59017 0
M  V30 928 H 85.2178 0.386616 0.55453 0
M  V30 929 H 87.7718 1.64633 1.22821 0
M  V30 930 H 86.0018 1.06808 3.71657 0
M  V30 931 H 87.6908 1.48232 3.77865 0
M  V30 932 H 88.4568 3.8316 2.97344 0
M  V30 933 H 84.3358 2.8113 3.65359 0
M  V30 934 H 87.8798 6.22603 3.14661 0
M  V30 935 H 83.7768 5.19691 3.82873 0
M  V30 936 H 84.5448 7.27153 3.75754 0
M  V30 937 N 87.2079 -1.17134 1.05439 0
M  V30 938 C 88.6189 -1.69084 0.791676 0
M  V30 939 C 88.9699 -1.83822 -0.685839 0
M  V30 940 O 88.0949 -1.52757 -1.53278 0
M  V30 941 C 88.6899 -3.07119 1.4305 0
M  V30 942 C 87.2489 -3.56225 1.21577 0
M  V30 943 C 86.3959 -2.32421 1.51247 0
M  V30 944 H 89.3469 -1.01617 1.219 0
M  V30 945 H 89.3679 -3.71087 0.84112 0
M  V30 946 H 88.8799 -2.9636 2.50584 0
M  V30 947 H 86.9809 -3.72257 0.159787 0
M  V30 948 H 87.0939 -4.38837 1.92246 0
M  V30 949 H 85.4579 -2.3701 0.932653 0
M  V30 950 H 86.2409 -2.24268 2.5992 0
M  V30 951 N 88.686 -0.835752 -1.33615 0
M  V30 952 C 89.963 -0.352017 -1.92406 0
M  V30 953 C 90.343 1.16225 -1.76224 0
M  V30 954 O 89.691 1.97526 -1.14873 0
M  V30 955 C 89.901 -0.795485 -3.39813 0
M  V30 956 C 91.249 -0.801703 -4.16963 0
M  V30 957 O 92.273 -0.738889 -3.48452 0
M  V30 958 O 91.132 -0.886607 -5.3926 0
M  V30 959 H 88.226 -0.0989641 -0.821057 0
M  V30 960 H 90.772 -0.921397 -1.42507 0
M  V30 961 H 89.544 -1.83795 -3.45449 0
M  V30 962 H 89.167 -0.202505 -3.97084 0
M  V30 963 N 90.1641 1.46063 -0.591896 0
M  V30 964 C 91.1111 2.30399 0.136069 0
M  V30 965 C 92.0811 1.41169 0.875238 0
M  V30 966 O 93.2661 1.70112 0.86409 0
M  V30 967 C 90.4061 3.25804 1.13781 0
M  V30 968 C 89.5191 4.30134 0.401137 0
M  V30 969 C 88.6541 5.12659 1.39121 0
M  V30 970 C 87.6931 6.0873 0.641462 0
M  V30 971 N 86.8301 6.8409 1.58004 0
M  V30 972 H 91.6701 2.92118 -0.589144 0
M  V30 973 H 89.2071 1.43959 -0.302342 0
M  V30 974 H 91.1651 3.79569 1.73156 0
M  V30 975 H 89.7951 2.65872 1.83062 0
M  V30 976 H 88.8471 3.79152 -0.307826 0
M  V30 977 H 90.1591 4.98458 -0.184565 0
M  V30 978 H 89.3131 5.70747 2.05749 0
M  V30 979 H 88.0521 4.44316 2.01084 0
M  V30 980 H 87.0571 5.49786 -0.0385419 0
M  V30 981 H 88.2821 6.79095 0.0270945 0
M  V30 982 H 86.2281 6.18449 2.18761 0
M  V30 983 H 86.1451 7.48709 1.04738 0
M  V30 984 H 87.4131 7.4673 2.23639 0
M  V30 985 N 91.6422 0.330177 1.54103 0
M  V30 986 C 92.5892 -0.532762 2.24567 0
M  V30 987 C 93.5592 -1.10635 1.23892 0
M  V30 988 O 94.7442 -1.14546 1.5259 0
M  V30 989 C 91.8842 -1.6845 3.01195 0
M  V30 990 C 90.9972 -1.13951 4.167 0
M  V30 991 C 90.1322 -2.25746 4.80845 0
M  V30 992 C 89.1712 -1.6853 5.88442 0
M  V30 993 N 88.3082 -2.74014 6.46421 0
M  V30 994 H 93.1482 0.0746905 2.97906 0
M  V30 995 H 90.6852 0.048632 1.4702 0
M  V30 996 H 92.6432 -2.36234 3.43874 0
M  V30 997 H 91.2732 -2.26314 2.30178 0
M  V30 998 H 90.3252 -0.35301 3.78758 0
M  V30 999 H 91.6372 -0.680892 4.94131 0
M  V30 1000 H 90.7912 -3.01422 5.26526 0
M  V30 1001 H 89.5302 -2.74947 4.0281 0
M  V30 1002 H 88.5352 -0.913543 5.42157 0
M  V30 1003 H 89.7602 -1.20198 6.68378 0
M  V30 1004 H 87.7062 -3.22494 5.71256 0
M  V30 1005 H 87.6232 -2.32735 7.19285 0
M  V30 1006 H 88.8912 -3.49499 6.96757 0
M  V30 1007 N 93.1203 -1.57491 0.0584922 0
M  V30 1008 C 94.3673 -1.92978 -0.613648 0
M  V30 1009 C 94.6953 -0.937461 -1.70417 0
M  V30 1010 O 93.9503 0.049078 -1.95638 0
M  V30 1011 C 94.2493 -3.3513 -1.24188 0
M  V30 1012 C 93.9153 -4.50037 -0.278826 0
M  V30 1013 C 92.5773 -4.81198 -0.0138447 0
M  V30 1014 C 94.9293 -5.19807 0.380777 0
M  V30 1015 C 92.2573 -5.79473 0.918052 0
M  V30 1016 C 94.6093 -6.19079 1.30091 0
M  V30 1017 C 93.2733 -6.48665 1.57449 0
M  V30 1018 H 92.5433 -0.706157 -0.22455 0
M  V30 1019 H 95.1903 -1.91082 0.126533 0
M  V30 1020 H 93.4953 -3.33429 -2.05749 0
M  V30 1021 H 95.1923 -3.59871 -1.769 0
M  V30 1022 H 91.7823 -4.25726 -0.495539 0
M  V30 1023 H 95.9663 -4.95939 0.189158 0
M  V30 1024 H 91.2223 -6.00727 1.1374 0
M  V30 1025 H 95.3963 -6.7225 1.81804 0
M  V30 1026 H 93.0233 -7.24628 2.29822 0
M  V30 1027 N 94.5984 0.214957 -1.56127 0
M  V30 1028 C 95.8234 0.95924 -1.83884 0
M  V30 1029 C 96.2484 1.7689 -0.639644 0
M  V30 1030 O 95.6064 1.76566 0.411601 0
M  V30 1031 C 95.6544 1.84723 -3.09693 0
M  V30 1032 O 94.7584 2.94346 -2.8885 0
M  V30 1033 H 94.0994 0.27125 -0.606069 0
M  V30 1034 H 96.6294 0.226276 -2.03345 0
M  V30 1035 H 96.6394 2.25576 -3.39969 0
M  V30 1036 H 95.3144 1.25218 -3.96602 0
M  V30 1037 H 93.8914 2.57391 -2.69823 0
M  V30 1038 N 96.0765 1.50051 0.48192 0
M  V30 1039 C 97.3065 1.63999 1.2565 0
M  V30 1040 C 97.7145 0.318288 1.86504 0
M  V30 1041 O 97.0575 -0.708534 1.69486 0
M  V30 1042 C 97.1195 2.66504 2.4128 0
M  V30 1043 C 96.7835 4.10352 2.01148 0
M  V30 1044 C 97.7805 4.96562 1.54021 0
M  V30 1045 C 95.4655 4.56203 2.10199 0
M  V30 1046 C 97.4595 6.26668 1.16473 0
M  V30 1047 C 95.1465 5.86318 1.72264 0
M  V30 1048 C 96.1445 6.71375 1.25477 0
M  V30 1049 O 95.8325 7.99062 0.880626 0
M  V30 1050 H 95.5645 0.55456 0.386574 0
M  V30 1051 H 98.1185 1.96954 0.582944 0
M  V30 1052 H 96.3485 2.28769 3.11772 0
M  V30 1053 H 98.0375 2.69783 3.03268 0
M  V30 1054 H 98.8035 4.62358 1.46458 0
M  V30 1055 H 94.6825 3.90152 2.45566 0
M  V30 1056 H 98.2265 6.93011 0.798841 0
M  V30 1057 H 94.1235 6.20046 1.79482 0
M  V30 1058 H 94.8915 8.12239 1.01043 0
M  V30 1059 N 97.5546 -0.734337 1.39446 0
M  V30 1060 C 98.7796 -1.52866 1.40167 0
M  V30 1061 C 99.2046 -1.881 -0.00171513 0
M  V30 1062 O 98.5626 -1.51957 -0.988879 0
M  V30 1063 C 98.6106 -2.79235 2.28167 0
M  V30 1064 O 97.7146 -3.75185 1.71201 0
M  V30 1065 H 97.0556 -0.461618 0.477289 0
M  V30 1066 H 99.5856 -0.905949 1.8345 0
M  V30 1067 H 99.5956 -3.27963 2.42702 0
M  V30 1068 H 98.2706 -2.52923 3.30156 0
M  V30 1069 H 96.8476 -3.33958 1.65912 0
M  V30 1070 N 99.0327 -1.24633 -0.964593 0
M  V30 1071 C 100.258 -1.11596 -1.74818 0
M  V30 1072 C 100.683 0.32723 -1.85232 0
M  V30 1073 O 100.041 1.23695 -1.32549 0
M  V30 1074 C 100.089 -1.76397 -3.1451 0
M  V30 1075 O 99.1927 -1.03685 -3.99153 0
M  V30 1076 H 98.5337 -0.390196 -0.537255 0
M  V30 1077 H 101.064 -1.65002 -1.20977 0
M  V30 1078 H 101.074 -1.8228 -3.65018 0
M  V30 1079 H 99.7487 -2.81401 -3.06246 0
M  V30 1080 H 98.3257 -1.05611 -3.57632 0
M  V30 1081 N 100.511 1.16574 -1.06058 0
M  V30 1082 C 101.759 1.86677 -0.77434 0
M  V30 1083 C 102.08 1.81959 0.701147 0
M  V30 1084 O 101.35 1.2515 1.50713 0
M  V30 1085 H 99.9298 0.691134 -0.283449 0
M  V30 1086 H 102.592 1.41378 -1.34158 0
M  V30 1087 H 101.688 2.92181 -1.09711 0
M  V30 1088 N 101.989 0.842826 1.3317 0
M  V30 1089 C 102.939 0.250877 2.26616 0
M  V30 1090 C 103.923 -0.596427 1.49437 0
M  V30 1091 O 105.115 -0.447747 1.71243 0
M  V30 1092 C 102.244 -0.569779 3.38539 0
M  V30 1093 C 101.33 0.289254 4.23112 0
M  V30 1094 N 101.721 1.36987 4.86897 0
M  V30 1095 C 100.019 0.0769631 4.45934 0
M  V30 1096 C 100.72 1.89737 5.49886 0
M  V30 1097 N 99.6959 1.19827 5.30229 0
M  V30 1098 H 103.498 1.07718 2.73448 0
M  V30 1099 H 101.012 0.687693 1.47121 0
M  V30 1100 H 103.009 -1.01018 4.04476 0
M  V30 1101 H 101.669 -1.39401 2.93253 0
M  V30 1102 H 102.68 1.75277 4.87338 0
M  V30 1103 H 99.3569 -0.713507 4.11358 0
M  V30 1104 H 100.747 2.80253 6.10662 0
M  V30 1105 N 103.467 -1.45747 0.599634 0
M  V30 1106 C 104.713 -2.02592 0.0918643 0
M  V30 1107 C 105.046 -1.46806 -1.27128 0
M  V30 1108 O 104.321 -0.639658 -1.83681 0
M  V30 1109 C 104.604 -3.60073 0.0443398 0
M  V30 1110 C 104.457 -4.26208 1.43759 0
M  V30 1111 C 105.776 -4.35309 -0.647608 0
M  V30 1112 H 102.895 -0.736175 0.034857 0
M  V30 1113 H 105.537 -1.73694 0.770081 0
M  V30 1114 H 103.687 -3.84823 -0.533224 0
M  V30 1115 H 105.359 -4.12668 2.06162 0
M  V30 1116 H 103.602 -3.84916 2.00056 0
M  V30 1117 H 104.273 -5.35069 1.35665 0
M  V30 1118 H 106.749 -4.15805 -0.156776 0
M  V30 1119 H 105.625 -5.45038 -0.649942 0
M  V30 1120 H 105.886 -4.07598 -1.71219 0
M  V30 1121 N 104.945 -0.338344 -1.53925 0
M  V30 1122 C 105.895 0.536712 -2.21593 0
M  V30 1123 C 106.879 1.07015 -1.20153 0
M  V30 1124 O 108.071 1.00471 -1.45721 0
M  V30 1125 C 105.2 1.68977 -2.98834 0
M  V30 1126 C 104.286 1.17052 -4.07627 0
M  V30 1127 N 104.677 0.372085 -5.0443 0
M  V30 1128 C 102.975 1.44789 -4.21844 0
M  V30 1129 C 103.676 0.0909171 -5.81629 0
M  V30 1130 N 102.652 0.681131 -5.39316 0
M  V30 1131 H 106.454 -0.0804298 -2.9379 0
M  V30 1132 H 103.968 -0.144943 -1.61752 0
M  V30 1133 H 105.965 2.32857 -3.45808 0
M  V30 1134 H 104.625 2.31024 -2.28162 0
M  V30 1135 H 105.636 0.0136217 -5.17898 0
M  V30 1136 H 102.313 2.07313 -3.62391 0
M  V30 1137 H 103.703 -0.552817 -6.69622 0
M  V30 1138 N 106.423 1.57458 -0.0668435 0
M  V30 1139 C 107.353 2.15468 0.899764 0
M  V30 1140 C 108.334 1.08042 1.31381 0
M  V30 1141 O 109.519 1.36054 1.38574 0
M  V30 1142 C 106.649 2.71232 2.16911 0
M  V30 1143 C 105.603 3.83781 1.89463 0
M  V30 1144 C 104.929 4.26127 3.22986 0
M  V30 1145 C 106.229 5.08238 1.20381 0
M  V30 1146 H 107.923 2.96488 0.416529 0
M  V30 1147 H 105.469 1.4262 0.198908 0
M  V30 1148 H 107.422 3.10458 2.84945 0
M  V30 1149 H 106.146 1.87426 2.67468 0
M  V30 1150 H 104.805 3.45051 1.23836 0
M  V30 1151 H 104.453 3.39249 3.71374 0
M  V30 1152 H 104.153 5.01993 3.05413 0
M  V30 1153 H 105.677 4.67966 3.92225 0
M  V30 1154 H 107.091 5.44811 1.78475 0
M  V30 1155 H 105.488 5.89349 1.13083 0
M  V30 1156 H 106.558 4.84558 0.182153 0
M  V30 1157 N 107.901 -0.206675 1.56239 0
M  V30 1158 C 109.126 -0.949474 1.8439 0
M  V30 1159 C 109.551 -1.76549 0.649016 0
M  V30 1160 O 108.909 -1.76782 -0.402231 0
M  V30 1161 C 108.957 -1.83078 3.10668 0
M  V30 1162 O 108.061 -2.9281 2.90407 0
M  V30 1163 H 107.402 -0.268033 0.607499 0
M  V30 1164 H 109.932 -0.215488 2.03462 0
M  V30 1165 H 109.942 -2.2377 3.41161 0
M  V30 1166 H 108.617 -1.23112 3.97261 0
M  V30 1167 H 107.194 -2.55956 2.71184 0
M  V30 1168 N 109.379 -1.50304 -0.473955 0
M  V30 1169 C 110.604 -1.65175 -1.25427 0
M  V30 1170 C 111.029 -0.333673 -1.85117 0
M  V30 1171 O 110.387 0.702114 -1.67153 0
M  V30 1172 C 110.435 -2.74295 -2.34082 0
M  V30 1173 O 109.539 -2.35349 -3.38651 0
M  V30 1174 H 108.88 -0.551944 -0.369126 0
M  V30 1175 H 111.41 -1.96662 -0.564364 0
M  V30 1176 H 111.42 -2.97285 -2.79438 0
M  V30 1177 H 110.095 -3.69959 -1.90008 0
M  V30 1178 H 108.672 -2.22794 -2.99027 0
M  V30 1179 N 110.857 0.726932 -1.39834 0
M  V30 1180 C 111.767 1.87131 -1.41489 0
M  V30 1181 C 112.783 1.71239 -0.308757 0
M  V30 1182 O 113.959 1.93701 -0.551529 0
M  V30 1183 C 111.024 3.22811 -1.26468 0
M  V30 1184 C 110.085 3.51039 -2.47124 0
M  V30 1185 C 109.318 4.80245 -2.3281 0
M  V30 1186 O 109.541 5.54537 -1.33585 0
M  V30 1187 O 108.475 5.08554 -3.21957 0
M  V30 1188 H 112.301 1.8869 -2.3797 0
M  V30 1189 H 109.886 0.875837 -1.21035 0
M  V30 1190 H 111.768 4.03877 -1.20255 0
M  V30 1191 H 110.443 3.22005 -0.330862 0
M  V30 1192 H 109.35 2.70027 -2.58914 0
M  V30 1193 H 110.683 3.56632 -3.39227 0
M  V30 1194 N 112.336 1.25143 0.95797 0
M  V30 1195 C 113.284 1.05019 2.07542 0
M  V30 1196 C 114.278 -0.0178751 1.69391 0
M  V30 1197 O 115.484 0.137472 1.79474 0
M  V30 1198 H 111.859 0.32265 0.679265 0
M  V30 1199 H 113.83 1.99759 2.21673 0
M  V30 1200 C 112.579 0.682074 3.40944 0
M  V30 1201 H 111.902 1.49573 3.70767 0
M  V30 1202 H 113.342 0.580945 4.20001 0
M  V30 1203 C 111.801 -0.611608 3.31302 0
M  V30 1204 O 112.331 -1.65465 3.66038 0
M  V30 1205 N 110.537 -0.595982 2.84423 0
M  V30 1206 H 110.084 0.253192 2.56353 0
M  V30 1207 H 110.042 -1.46173 2.78354 0
M  V30 1208 N 113.814 -1.1601 1.06675 0
M  V30 1209 C 114.761 -2.20525 0.680967 0
M  V30 1210 C 115.731 -1.62904 -0.324283 0
M  V30 1211 O 116.916 -1.89615 -0.212294 0
M  V30 1212 C 114.056 -3.45013 0.0776551 0
M  V30 1213 C 113.169 -4.16863 1.13355 0
M  V30 1214 C 112.304 -5.2888 0.49597 0
M  V30 1215 C 111.343 -5.92537 1.53513 0
M  V30 1216 N 110.48 -6.96038 0.920631 0
M  V30 1217 H 115.32 -2.52876 1.57663 0
M  V30 1218 H 112.857 -1.24199 0.788223 0
M  V30 1219 H 114.815 -4.16193 -0.289704 0
M  V30 1220 H 113.445 -3.132 -0.781393 0
M  V30 1221 H 112.497 -3.44248 1.61857 0
M  V30 1222 H 113.809 -4.60294 1.92174 0
M  V30 1223 H 112.963 -6.06653 0.0758604 0
M  V30 1224 H 111.702 -4.86622 -0.324062 0
M  V30 1225 H 110.707 -5.13482 1.9651 0
M  V30 1226 H 111.932 -6.36873 2.35733 0
M  V30 1227 H 109.878 -6.55888 0.12138 0
M  V30 1228 H 109.795 -7.3786 1.64616 0
M  V30 1229 H 111.063 -7.77725 0.525795 0
M  V30 1230 N 115.292 -0.849877 -1.32721 0
M  V30 1231 C 116.539 -0.450923 -1.97416 0
M  V30 1232 C 116.867 0.992376 -1.67279 0
M  V30 1233 O 116.122 1.71048 -0.950845 0
M  V30 1234 C 116.421 -0.631272 -3.51781 0
M  V30 1235 C 116.087 -2.04432 -4.01894 0
M  V30 1236 C 114.749 -2.4308 -4.1529 0
M  V30 1237 C 117.101 -2.96679 -4.28522 0
M  V30 1238 C 114.429 -3.73257 -4.52654 0
M  V30 1239 C 116.781 -4.26349 -4.67343 0
M  V30 1240 C 115.445 -4.64939 -4.78945 0
M  V30 1241 H 114.715 -0.165004 -0.722395 0
M  V30 1242 H 117.362 -1.07901 -1.58207 0
M  V30 1243 H 115.667 0.0800767 -3.91718 0
M  V30 1244 H 117.364 -0.302709 -3.99856 0
M  V30 1245 H 113.954 -1.73419 -3.91949 0
M  V30 1246 H 118.138 -2.68054 -4.17685 0
M  V30 1247 H 113.394 -4.02946 -4.59831 0
M  V30 1248 H 117.568 -4.97895 -4.86902 0
M  V30 1249 H 115.195 -5.65855 -5.07654 0
M  V30 1250 N 116.77 1.45427 -0.607355 0
M  V30 1251 C 117.702 2.2871 0.149752 0
M  V30 1252 C 118.715 1.39937 0.831958 0
M  V30 1253 O 119.904 1.64313 0.697385 0
M  V30 1254 C 117.004 3.15673 1.23304 0
M  V30 1255 C 116.177 4.32722 0.637996 0
M  V30 1256 C 115.236 5.00895 1.61215 0
M  V30 1257 O 114.262 5.57697 1.13854 0
M  V30 1258 N 115.464 5.00159 2.94655 0
M  V30 1259 H 118.229 2.94328 -0.564882 0
M  V30 1260 H 115.79 1.55612 -0.446823 0
M  V30 1261 H 117.782 3.58144 1.88454 0
M  V30 1262 H 116.352 2.51965 1.8502 0
M  V30 1263 H 115.572 3.93734 -0.191572 0
M  V30 1264 H 116.86 5.08321 0.220665 0
M  V30 1265 H 116.258 4.553 3.35735 0
M  V30 1266 H 114.815 5.46495 3.55228 0
M  V30 1267 N 118.248 0.346503 1.53744 0
M  V30 1268 C 119.196 -0.52422 2.26616 0
M  V30 1269 C 120.19 -1.09948 1.28871 0
M  V30 1270 O 121.396 -1.04488 1.46568 0
M  V30 1271 H 117.771 -0.187743 0.728187 0
M  V30 1272 H 119.742 0.11239 2.98188 0
M  V30 1273 C 118.491 -1.66186 3.05414 0
M  V30 1274 H 117.814 -1.22848 3.80458 0
M  V30 1275 H 119.254 -2.24622 3.59612 0
M  V30 1276 C 117.713 -2.59302 2.1509 0
M  V30 1277 O 118.243 -3.61628 1.74895 0
M  V30 1278 N 116.449 -2.28055 1.8011 0
M  V30 1279 H 115.996 -1.44883 2.12994 0
M  V30 1280 H 115.954 -2.90615 1.19958 0
M  V30 1281 N 119.726 -1.57421 0.075193 0
M  V30 1282 C 120.951 -1.98364 -0.605515 0
M  V30 1283 C 121.376 -0.953383 -1.62149 0
M  V30 1284 O 120.734 0.0806053 -1.81121 0
M  V30 1285 C 120.782 -3.38332 -1.24756 0
M  V30 1286 O 119.886 -3.37959 -2.36342 0
M  V30 1287 H 119.227 -0.645553 -0.155428 0
M  V30 1288 H 121.757 -2.04044 0.150714 0
M  V30 1289 H 121.767 -3.75591 -1.5936 0
M  V30 1290 H 120.442 -4.12846 -0.503129 0
M  V30 1291 H 119.019 -3.12474 -2.03506 0
M  V30 1292 N 121.204 0.198386 -1.56346 0
M  V30 1293 C 122.167 1.22952 -1.93431 0
M  V30 1294 C 123.167 1.38611 -0.815092 0
M  V30 1295 O 124.357 1.36479 -1.08255 0
M  V30 1296 C 121.489 2.59946 -2.20546 0
M  V30 1297 H 122.682 0.912626 -2.85677 0
M  V30 1298 H 120.235 0.43977 -1.49986 0
M  V30 1299 H 120.97 2.96696 -1.30927 0
M  V30 1300 H 120.755 2.49953 -3.02102 0
M  V30 1301 H 122.245 3.3431 -2.50253 0
M  V30 1302 N 122.682 1.50554 0.465978 0
M  V30 1303 C 123.931 1.61038 1.21448 0
M  V30 1304 C 124.244 0.31865 1.92987 0
M  V30 1305 O 125.45 0.302469 2.6981 0
M  V30 1306 C 123.906 2.84283 2.20706 0
M  V30 1307 C 123.514 4.20352 1.54946 0
M  V30 1308 C 125.258 3.04115 2.96166 0
M  V30 1309 C 123.165 5.34778 2.5252 0
M  V30 1310 H 122.095 0.599718 0.457005 0
M  V30 1311 H 124.746 1.7699 0.484424 0
M  V30 1312 H 123.128 2.61901 2.97025 0
M  V30 1313 H 124.302 4.53008 0.843811 0
M  V30 1314 H 122.617 4.06167 0.917475 0
M  V30 1315 H 125.214 3.86774 3.69202 0
M  V30 1316 H 125.557 2.16045 3.55852 0
M  V30 1317 H 126.09 3.26702 2.26959 0
M  V30 1318 H 122.829 6.25018 1.97566 0
M  V30 1319 H 122.349 5.06534 3.21222 0
M  V30 1320 H 124.028 5.65561 3.14245 0
M  V30 1321 N 124.16 -0.719506 1.40217 0
M  V30 1322 C 125.09 -1.8465 1.42922 0
M  V30 1323 C 126.071 -1.67599 0.29062 0
M  V30 1324 O 127.256 -1.87688 0.498677 0
M  V30 1325 C 124.386 -3.22565 1.28722 0
M  V30 1326 C 123.34 -3.54281 2.40144 0
M  V30 1327 C 122.666 -4.91298 2.11023 0
M  V30 1328 C 123.966 -3.55676 3.82481 0
M  V30 1329 H 125.66 -1.82644 2.37237 0
M  V30 1330 H 123.206 -0.877305 1.1419 0
M  V30 1331 H 125.159 -4.01095 1.29232 0
M  V30 1332 H 123.883 -3.25137 0.308811 0
M  V30 1333 H 122.542 -2.78088 2.38877 0
M  V30 1334 H 122.19 -4.90468 1.11582 0
M  V30 1335 H 121.89 -5.13485 2.8567 0
M  V30 1336 H 123.414 -5.72166 2.13209 0
M  V30 1337 H 124.828 -4.24254 3.85592 0
M  V30 1338 H 123.225 -3.89388 4.56614 0
M  V30 1339 H 124.295 -2.55144 4.12346 0
M  V30 1340 N 125.638 -1.25649 -0.95132 0
M  V30 1341 C 126.866 -1.13343 -1.73092 0
M  V30 1342 C 127.281 0.312434 -1.86197 0
M  V30 1343 O 126.638 1.21465 -1.36207 0
M  V30 1344 C 126.689 -1.78602 -3.14299 0
M  V30 1345 O 126.41 -3.17537 -3.01831 0
M  V30 1346 C 127.911 -1.72119 -4.08522 0
M  V30 1347 H 125.131 -0.395181 -0.542285 0
M  V30 1348 H 127.675 -1.66076 -1.19328 0
M  V30 1349 H 125.83 -1.29832 -3.64996 0
M  V30 1350 H 126.244 -3.49676 -3.90931 0
M  V30 1351 H 127.718 -2.22435 -5.052 0
M  V30 1352 H 128.195 -0.685635 -4.33815 0
M  V30 1353 H 128.801 -2.20393 -3.63741 0
M  V30 1354 N 127.117 1.15442 -1.07289 0
M  V30 1355 C 128.366 1.85557 -0.790669 0
M  V30 1356 C 128.679 1.83186 0.685739 0
M  V30 1357 O 129.885 2.48977 1.0827 0
M  V30 1358 C 128.341 3.33038 -1.36433 0
M  V30 1359 C 127.949 3.43856 -2.8717 0
M  V30 1360 C 129.693 4.0834 -1.1601 0
M  V30 1361 C 127.6 4.85482 -3.3773 0
M  V30 1362 H 126.53 0.695122 -0.292098 0
M  V30 1363 H 129.181 1.30219 -1.29287 0
M  V30 1364 H 127.563 3.88043 -0.789864 0
M  V30 1365 H 128.737 2.98961 -3.50655 0
M  V30 1366 H 127.052 2.81998 -3.06376 0
M  V30 1367 H 129.649 5.12859 -1.51262 0
M  V30 1368 H 129.992 4.16182 -0.0991007 0
M  V30 1369 H 130.525 3.59603 -1.70089 0
M  V30 1370 H 127.264 4.82823 -4.43353 0
M  V30 1371 H 126.784 5.30961 -2.78999 0
M  V30 1372 H 128.463 5.54335 -3.33648 0
M  V30 1373 N 128.595 0.856903 1.32268 0
M  V30 1374 C 129.527 0.260412 2.27716 0
M  V30 1375 C 130.54 -0.569137 1.52528 0
M  V30 1376 O 131.729 -0.39326 1.74114 0
M  V30 1377 C 128.829 -0.650477 3.32599 0
M  V30 1378 C 128.002 0.14372 4.37164 0
M  V30 1379 C 127.061 -0.69328 5.21613 0
M  V30 1380 O 126.087 -0.12599 5.69061 0
M  V30 1381 N 127.289 -2.00761 5.44679 0
M  V30 1382 H 130.054 1.08059 2.79541 0
M  V30 1383 H 127.615 0.717103 1.45152 0
M  V30 1384 H 129.607 -1.21581 3.86005 0
M  V30 1385 H 128.177 -1.37133 2.80915 0
M  V30 1386 H 127.397 0.890486 3.8401 0
M  V30 1387 H 128.685 0.68915 5.04111 0
M  V30 1388 H 128.083 -2.49181 5.07863 0
M  V30 1389 H 126.64 -2.52103 6.01072 0
M  V30 1390 N 130.073 -1.45103 0.615059 0
M  V30 1391 C 131.484 -1.85654 0.197383 0
M  V30 1392 C 131.835 -1.51433 -1.24749 0
M  V30 1393 O 130.96 -0.944608 -1.94695 0
M  V30 1394 C 131.555 -3.36972 0.351448 0
M  V30 1395 C 130.114 -3.76398 -0.011593 0
M  V30 1396 C 129.261 -2.69024 0.672394 0
M  V30 1397 H 132.212 -1.35797 0.821263 0
M  V30 1398 H 132.233 -3.78239 -0.414227 0
M  V30 1399 H 131.745 -3.61847 1.40314 0
M  V30 1400 H 129.846 -3.5714 -1.06217 0
M  V30 1401 H 129.959 -4.77532 0.387265 0
M  V30 1402 H 128.323 -2.54465 0.109284 0
M  V30 1403 H 129.106 -2.96735 1.72636 0
M  V30 1404 N 131.551 -0.354651 -1.53558 0
M  V30 1405 C 132.498 0.496968 -2.25386 0
M  V30 1406 C 133.468 1.0865 -1.25636 0
M  V30 1407 O 134.653 1.12104 -1.54394 0
M  V30 1408 C 131.793 1.63637 -3.03837 0
M  V30 1409 C 130.906 1.07307 -4.18461 0
M  V30 1410 C 130.041 2.18068 -4.84376 0
M  V30 1411 C 129.08 1.59147 -5.91049 0
M  V30 1412 N 128.217 2.63695 -6.50699 0
M  V30 1413 H 133.057 -0.122075 -2.9775 0
M  V30 1414 H 130.594 -0.0720154 -1.46924 0
M  V30 1415 H 132.552 2.30734 -3.47589 0
M  V30 1416 H 131.182 2.22623 -2.33749 0
M  V30 1417 H 130.234 0.292708 -3.79272 0
M  V30 1418 H 131.546 0.602193 -4.95152 0
M  V30 1419 H 130.7 2.93007 -5.31255 0
M  V30 1420 H 129.439 2.68504 -4.07133 0
M  V30 1421 H 128.444 0.827175 -5.43542 0
M  V30 1422 H 129.669 1.09549 -6.70206 0
M  V30 1423 H 127.615 3.13365 -5.76315 0
M  V30 1424 H 127.532 2.21263 -7.22896 0
M  V30 1425 H 128.8 3.3837 -7.02229 0
M  V30 1426 N 133.029 1.57378 -0.0835403 0
M  V30 1427 C 133.961 2.10389 0.909338 0
M  V30 1428 C 134.974 1.03858 1.25369 0
M  V30 1429 O 136.163 1.31338 1.20882 0
M  V30 1430 C 133.263 2.55908 2.2218 0
M  V30 1431 C 132.436 3.86145 2.05453 0
M  V30 1432 C 131.495 4.17633 3.20108 0
M  V30 1433 O 130.521 4.87043 2.94581 0
M  V30 1434 N 131.723 3.72113 4.45547 0
M  V30 1435 H 134.488 2.962 0.456657 0
M  V30 1436 H 132.049 1.61579 0.101877 0
M  V30 1437 H 134.041 2.74027 2.97811 0
M  V30 1438 H 132.611 1.75171 2.58909 0
M  V30 1439 H 131.831 3.7729 1.1422 0
M  V30 1440 H 133.119 4.7137 1.91541 0
M  V30 1441 H 132.517 3.16062 4.69171 0
M  V30 1442 H 131.074 3.95409 5.18165 0
M  V30 1443 N 134.507 -0.190092 1.56449 0
M  V30 1444 C 135.437 -1.23816 1.97969 0
M  V30 1445 C 136.418 -1.47201 0.852395 0
M  V30 1446 O 137.603 -1.58854 1.1171 0
M  V30 1447 C 134.733 -2.5813 2.3235 0
M  V30 1448 C 133.687 -2.49348 3.47864 0
M  V30 1449 C 133.013 -3.8798 3.67934 0
M  V30 1450 C 134.313 -2.01424 4.81898 0
M  V30 1451 H 136.007 -0.89311 2.85769 0
M  V30 1452 H 133.553 -0.428177 1.37487 0
M  V30 1453 H 135.506 -3.31637 2.59991 0
M  V30 1454 H 134.23 -2.94386 1.41438 0
M  V30 1455 H 132.889 -1.78297 3.20321 0
M  V30 1456 H 132.537 -4.21597 2.74344 0
M  V30 1457 H 132.237 -3.82978 4.45648 0
M  V30 1458 H 133.761 -4.63101 3.97957 0
M  V30 1459 H 135.175 -2.64693 5.08538 0
M  V30 1460 H 133.572 -2.07413 5.63116 0
M  V30 1461 H 134.642 -0.967677 4.75146 0
M  V30 1462 N 135.985 -1.50799 -0.457987 0
M  V30 1463 C 137.396 -1.55152 -1.0385 0
M  V30 1464 C 137.747 -0.362719 -1.92818 0
M  V30 1465 O 136.872 0.522915 -2.09987 0
M  V30 1466 C 137.467 -2.81173 -1.89017 0
M  V30 1467 C 136.026 -2.88164 -2.42154 0
M  V30 1468 C 135.173 -2.49591 -1.20829 0
M  V30 1469 H 138.124 -1.56874 -0.240068 0
M  V30 1470 H 138.145 -2.63769 -2.74238 0
M  V30 1471 H 137.657 -3.67677 -1.24238 0
M  V30 1472 H 135.758 -2.06042 -3.10447 0
M  V30 1473 H 135.871 -3.91356 -2.76364 0
M  V30 1474 H 134.235 -2.02322 -1.54719 0
M  V30 1475 H 135.018 -3.38418 -0.576927 0
M  V30 1476 N 137.463 0.71206 -1.40597 0
M  V30 1477 C 138.711 1.46907 -1.38791 0
M  V30 1478 C 139.032 1.94998 0.00780391 0
M  V30 1479 O 138.302 1.70587 0.963174 0
M  V30 1480 H 136.882 0.545043 -0.51082 0
M  V30 1481 H 139.544 0.843882 -1.75683 0
M  V30 1482 H 138.64 2.34021 -2.06496 0
M  V30 1483 N 138.941 1.26152 0.944643 0
M  V30 1484 C 140.189 1.11271 1.6871 0
M  V30 1485 C 140.51 -0.345166 1.91921 0
M  V30 1486 O 139.78 -1.24387 1.51343 0
M  V30 1487 H 138.36 0.408783 0.625224 0
M  V30 1488 H 141.022 1.58427 1.1352 0
M  V30 1489 H 140.118 1.62879 2.66227 0
M  V30 1490 N 140.419 -1.14872 1.07899 0
M  V30 1491 C 141.351 -2.19425 0.662231 0
M  V30 1492 C 142.364 -1.60231 -0.288079 0
M  V30 1493 O 143.553 -1.78336 -0.076534 0
M  V30 1494 C 140.653 -3.38867 -0.0470695 0
M  V30 1495 C 139.826 -4.27597 0.920831 0
M  V30 1496 C 138.885 -5.25616 0.247805 0
M  V30 1497 O 137.911 -5.62189 0.890599 0
M  V30 1498 N 139.113 -5.71746 -1.00435 0
M  V30 1499 H 141.878 -2.55797 1.56166 0
M  V30 1500 H 139.439 -1.30042 0.964404 0
M  V30 1501 H 141.431 -4.01497 -0.50813 0
M  V30 1502 H 140.001 -3.00864 -0.848523 0
M  V30 1503 H 139.221 -3.61982 1.56087 0
M  V30 1504 H 140.509 -4.83748 1.57688 0
M  V30 1505 H 139.907 -5.44153 -1.54642 0
M  V30 1506 H 138.464 -6.36389 -1.40899 0
M  V30 1507 N 141.898 -0.863906 -1.31812 0
M  V30 1508 C 142.846 -0.30422 -2.30602 0
M  V30 1509 C 143.84 0.577419 -1.59255 0
M  V30 1510 O 145.046 0.464194 -1.73912 0
M  V30 1511 H 141.421 -0.0796877 -0.747766 0
M  V30 1512 H 143.392 -1.15148 -2.75288 0
M  V30 1513 C 142.141 0.484617 -3.44306 0
M  V30 1514 H 141.464 -0.18451 -3.99374 0
M  V30 1515 H 142.904 0.841664 -4.15562 0
M  V30 1516 C 141.363 1.6735 -2.92396 0
M  V30 1517 O 141.893 2.77273 -2.90659 0
M  V30 1518 N 140.099 1.50362 -2.48676 0
M  V30 1519 H 139.646 0.609402 -2.50288 0
M  V30 1520 H 139.604 2.30051 -2.14299 0
M  V30 1521 N 143.376 1.44774 -0.622745 0
M  V30 1522 C 144.787 1.85546 -0.207226 0
M  V30 1523 C 145.138 1.52093 1.23944 0
M  V30 1524 O 144.263 0.95492 1.94191 0
M  V30 1525 C 144.858 3.36781 -0.369313 0
M  V30 1526 C 143.417 3.76399 -0.00836847 0
M  V30 1527 C 142.564 2.68664 -0.686651 0
M  V30 1528 H 145.515 1.3536 -0.828454 0
M  V30 1529 H 145.536 3.78453 0.394162 0
M  V30 1530 H 145.048 3.61098 -1.42231 0
M  V30 1531 H 143.149 3.57698 1.04322 0
M  V30 1532 H 143.262 4.7732 -0.412584 0
M  V30 1533 H 141.626 2.54404 -0.122777 0
M  V30 1534 H 142.409 2.95815 -1.74208 0
M  V30 1535 N 144.854 0.36279 1.53368 0
M  V30 1536 C 146.1 -0.228113 2.01513 0
M  V30 1537 C 146.433 -1.48648 1.2497 0
M  V30 1538 O 145.708 -1.91459 0.342616 0
M  V30 1539 C 145.991 -0.522884 3.56284 0
M  V30 1540 C 145.844 0.74892 4.43521 0
M  V30 1541 C 147.163 -1.32461 4.19693 0
M  V30 1542 H 144.282 -0.0814343 0.732487 0
M  V30 1543 H 146.924 0.48713 1.83649 0
M  V30 1544 H 145.074 -1.1322 3.71636 0
M  V30 1545 H 146.746 1.38648 4.39971 0
M  V30 1546 H 144.989 1.36986 4.11603 0
M  V30 1547 H 145.66 0.497667 5.49752 0
M  V30 1548 H 148.136 -0.809203 4.08156 0
M  V30 1549 H 147.012 -1.49961 5.28018 0
M  V30 1550 H 147.273 -2.33232 3.75573 0
M  V30 1551 N 146.332 -1.57332 0.0918853 0
M  V30 1552 C 147.557 -1.98995 -0.584442 0
M  V30 1553 C 147.982 -0.970528 -1.61128 0
M  V30 1554 O 147.34 0.0613904 -1.81196 0
M  V30 1555 C 147.388 -3.39636 -1.21161 0
M  V30 1556 O 146.492 -3.40447 -2.32744 0
M  V30 1557 H 145.833 -0.647165 -0.148572 0
M  V30 1558 H 148.363 -2.03873 0.172347 0
M  V30 1559 H 148.373 -3.7726 -1.55367 0
M  V30 1560 H 147.048 -4.13356 -0.459313 0
M  V30 1561 H 145.625 -3.14614 -2.0018 0
M  V30 1562 N 147.81 0.181792 -1.56548 0
M  V30 1563 C 149.04 0.914618 -1.85252 0
M  V30 1564 C 149.448 1.76791 -0.673914 0
M  V30 1565 O 148.791 1.80009 0.366416 0
M  V30 1566 C 148.853 1.85019 -3.08234 0
M  V30 1567 C 148.517 1.17754 -4.41569 0
M  V30 1568 C 149.514 0.548035 -5.17003 0
M  V30 1569 C 147.199 1.17742 -4.88305 0
M  V30 1570 C 149.193 -0.0726128 -6.37359 0
M  V30 1571 C 146.88 0.552946 -6.08593 0
M  V30 1572 C 147.878 -0.070978 -6.82963 0
M  V30 1573 O 147.566 -0.685635 -8.00971 0
M  V30 1574 H 147.298 0.271695 -0.618998 0
M  V30 1575 H 149.852 0.189944 -2.0452 0
M  V30 1576 H 148.082 2.61491 -2.84885 0
M  V30 1577 H 149.771 2.45195 -3.23472 0
M  V30 1578 H 150.537 0.540174 -4.81982 0
M  V30 1579 H 146.416 1.65246 -4.30366 0
M  V30 1580 H 149.96 -0.560213 -6.95347 0
M  V30 1581 H 145.857 0.558354 -6.43081 0
M  V30 1582 H 146.625 -0.58385 -8.16415 0
M  V30 1583 N 149.288 1.51039 0.449983 0
M  V30 1584 C 150.534 1.63322 1.20223 0
M  V30 1585 C 150.867 0.34241 1.91158 0
M  V30 1586 O 150.142 -0.657344 1.83055 0
M  V30 1587 C 150.425 2.82801 2.22925 0
M  V30 1588 C 150.278 4.21823 1.56157 0
M  V30 1589 C 151.597 2.97807 3.24035 0
M  V30 1590 H 148.716 0.594407 0.435718 0
M  V30 1591 H 151.358 1.83489 0.493136 0
M  V30 1592 H 149.508 2.65738 2.834 0
M  V30 1593 H 151.18 4.50526 0.991162 0
M  V30 1594 H 149.423 4.25105 0.864172 0
M  V30 1595 H 150.094 5.01391 2.30891 0
M  V30 1596 H 152.57 3.13497 2.73603 0
M  V30 1597 H 151.446 3.82992 3.93202 0
M  V30 1598 H 151.707 2.09328 3.89402 0
M  V30 1599 N 150.766 -0.704594 1.40972 0
M  V30 1600 C 151.996 -1.49138 1.42974 0
M  V30 1601 C 152.404 -1.89175 0.0308406 0
M  V30 1602 O 151.747 -1.56734 -0.958138 0
M  V30 1603 C 151.809 -2.79016 2.26694 0
M  V30 1604 C 151.473 -2.61236 3.74973 0
M  V30 1605 C 152.47 -2.27773 4.67349 0
M  V30 1606 C 150.155 -2.77158 4.18914 0
M  V30 1607 C 152.149 -2.10457 6.01653 0
M  V30 1608 C 149.836 -2.59459 5.53285 0
M  V30 1609 C 150.834 -2.26158 6.4447 0
M  V30 1610 O 150.522 -2.08605 7.76363 0
M  V30 1611 H 150.254 -0.466443 0.489292 0
M  V30 1612 H 152.808 -0.8758 1.85793 0
M  V30 1613 H 151.038 -3.42947 1.78673 0
M  V30 1614 H 152.727 -3.40782 2.20504 0
M  V30 1615 H 153.493 -2.15095 4.34694 0
M  V30 1616 H 149.372 -3.02064 3.48251 0
M  V30 1617 H 152.916 -1.84387 6.72791 0
M  V30 1618 H 148.813 -2.71725 5.85522 0
M  V30 1619 H 149.581 -2.23439 7.87412 0
M  V30 1620 N 152.244 -1.26651 -0.937939 0
M  V30 1621 C 153.174 -1.10993 -2.05433 0
M  V30 1622 C 154.155 -0.0142161 -1.70094 0
M  V30 1623 O 155.34 -0.186837 -1.93299 0
M  V30 1624 C 152.47 -0.745561 -3.39203 0
M  V30 1625 C 151.424 -1.79337 -3.88616 0
M  V30 1626 C 150.75 -1.28324 -5.19073 0
M  V30 1627 C 152.05 -3.19553 -4.13138 0
M  V30 1628 H 153.744 -2.0438 -2.1879 0
M  V30 1629 H 151.29 -0.984041 -1.05131 0
M  V30 1630 H 153.243 -0.622888 -4.16771 0
M  V30 1631 H 151.967 0.22401 -3.25831 0
M  V30 1632 H 150.626 -1.90477 -3.13231 0
M  V30 1633 H 150.274 -0.303414 -5.02084 0
M  V30 1634 H 149.974 -1.98369 -5.53103 0
M  V30 1635 H 151.498 -1.1733 -5.99221 0
M  V30 1636 H 152.912 -3.11471 -4.81309 0
M  V30 1637 H 151.309 -3.87218 -4.58457 0
M  V30 1638 H 152.379 -3.65368 -3.18801 0
M  V30 1639 N 153.722 1.14298 -1.08507 0
M  V30 1640 C 154.632 2.23027 -0.727753 0
M  V30 1641 C 155.648 1.71952 0.26619 0
M  V30 1642 O 156.824 2.011 0.109882 0
M  V30 1643 C 153.889 3.46403 -0.143541 0
M  V30 1644 C 152.95 4.12413 -1.19223 0
M  V30 1645 C 152.183 5.29899 -0.635798 0
M  V30 1646 O 152.406 5.67796 0.544393 0
M  V30 1647 O 151.34 5.85717 -1.38634 0
M  V30 1648 H 155.166 2.55945 -1.63481 0
M  V30 1649 H 152.751 1.22248 -0.858817 0
M  V30 1650 H 154.633 4.21018 0.179404 0
M  V30 1651 H 153.308 3.15206 0.736659 0
M  V30 1652 H 152.215 3.39667 -1.56772 0
M  V30 1653 H 153.548 4.47718 -2.04474 0
M  V30 1654 N 155.201 0.870884 1.31352 0
M  V30 1655 C 156.447 0.482987 1.96965 0
M  V30 1656 C 156.78 -0.962462 1.68672 0
M  V30 1657 O 156.055 -1.6779 0.98371 0
M  V30 1658 C 156.338 0.741752 3.52378 0
M  V30 1659 C 156.191 2.2368 3.9024 0
M  V30 1660 C 157.51 0.208838 4.39604 0
M  V30 1661 H 154.629 0.176955 0.715441 0
M  V30 1662 H 157.271 1.09229 1.55464 0
M  V30 1663 H 155.421 0.223149 3.87859 0
M  V30 1664 H 157.093 2.82273 3.64856 0
M  V30 1665 H 155.336 2.70901 3.38814 0
M  V30 1666 H 156.007 2.3685 4.98604 0
M  V30 1667 H 158.483 0.652529 4.10952 0
M  V30 1668 H 157.359 0.419336 5.47296 0
M  V30 1669 H 157.62 -0.889275 4.33064 0
M  V30 1670 N 156.679 -1.44442 0.630414 0
M  V30 1671 C 157.925 -2.02351 0.134816 0
M  V30 1672 C 158.258 -1.4947 -1.23986 0
M  V30 1673 O 157.533 -0.678475 -1.82283 0
M  V30 1674 C 157.816 -3.59898 0.120707 0
M  V30 1675 C 157.669 -4.23063 1.52767 0
M  V30 1676 C 158.988 -4.36585 -0.555127 0
M  V30 1677 H 156.107 -0.73527 0.0504646 0
M  V30 1678 H 158.749 -1.72022 0.806751 0
M  V30 1679 H 156.899 -3.85868 -0.451477 0
M  V30 1680 H 158.571 -4.08202 2.14869 0
M  V30 1681 H 156.814 -3.80586 2.08175 0
M  V30 1682 H 157.485 -5.32071 1.46984 0
M  V30 1683 H 159.961 -4.16044 -0.0685429 0
M  V30 1684 H 158.837 -5.46294 -0.534185 0
M  V30 1685 H 159.098 -4.11138 -1.62535 0
M  V30 1686 N 158.157 -0.370918 -1.53173 0
M  V30 1687 C 159.382 0.220293 -2.06227 0
M  V30 1688 C 159.807 1.41243 -1.24225 0
M  V30 1689 O 159.165 1.79387 -0.262645 0
M  V30 1690 C 159.213 0.586663 -3.55796 0
M  V30 1691 O 158.317 1.68317 -3.76488 0
M  V30 1692 H 157.658 0.0308099 -0.663285 0
M  V30 1693 H 160.188 -0.533068 -1.97534 0
M  V30 1694 H 160.198 0.85617 -3.98916 0
M  V30 1695 H 158.873 -0.285013 -4.14922 0
M  V30 1696 H 157.45 1.40881 -3.45264 0
M  V30 1697 N 159.635 1.57281 -0.100228 0
M  V30 1698 C 160.582 2.14305 0.856858 0
M  V30 1699 C 161.552 1.06296 1.27634 0
M  V30 1700 O 162.737 1.34109 1.35718 0
M  V30 1701 C 159.877 2.73184 2.10866 0
M  V30 1702 C 158.99 3.95442 1.73925 0
M  V30 1703 C 158.125 4.42468 2.93931 0
M  V30 1704 C 157.164 5.57303 2.5314 0
M  V30 1705 N 156.301 5.99158 3.65997 0
M  V30 1706 H 161.141 2.95772 0.363726 0
M  V30 1707 H 158.678 1.46139 0.167858 0
M  V30 1708 H 160.636 3.05442 2.84185 0
M  V30 1709 H 159.266 1.94437 2.57671 0
M  V30 1710 H 158.318 3.69464 0.905554 0
M  V30 1711 H 159.63 4.78769 1.39935 0
M  V30 1712 H 158.784 4.76537 3.75496 0
M  V30 1713 H 157.523 3.58052 3.31134 0
M  V30 1714 H 156.528 5.22857 1.70003 0
M  V30 1715 H 157.753 6.43471 2.17075 0
M  V30 1716 H 155.699 5.17687 4.02909 0
M  V30 1717 H 155.616 6.77295 3.35869 0
M  V30 1718 H 156.884 6.3786 4.48057 0
M  V30 1719 N 161.113 -0.173488 1.56642 0
M  V30 1720 C 162.063 -1.21941 1.92651 0
M  V30 1721 C 163.047 -1.39912 0.794577 0
M  V30 1722 O 164.239 -1.41919 1.05773 0
M  V30 1723 C 161.368 -2.55935 2.28806 0
M  V30 1724 C 160.454 -2.41667 3.48508 0
M  V30 1725 N 160.845 -1.9711 4.65813 0
M  V30 1726 C 159.143 -2.72499 3.53072 0
M  V30 1727 C 159.844 -1.95253 5.47952 0
M  V30 1728 N 158.82 -2.37575 4.88937 0
M  V30 1729 H 162.622 -0.866581 2.80834 0
M  V30 1730 H 160.136 -0.381776 1.57849 0
M  V30 1731 H 162.133 -3.31511 2.52797 0
M  V30 1732 H 160.793 -2.92022 1.41961 0
M  V30 1733 H 161.804 -1.67481 4.90072 0
M  V30 1734 H 158.481 -3.12639 2.767 0
M  V30 1735 H 159.871 -1.6252 6.51948 0
M  V30 1736 N 162.591 -1.51276 -0.441967 0
M  V30 1737 C 163.838 -1.63715 -1.19179 0
M  V30 1738 C 164.166 -0.351175 -1.91303 0
M  V30 1739 O 163.421 0.664524 -1.84072 0
M  V30 1740 C 163.72 -2.78746 -2.23686 0
M  V30 1741 C 163.386 -4.18189 -1.68607 0
M  V30 1742 C 162.048 -4.56125 -1.53308 0
M  V30 1743 C 164.4 -5.05222 -1.28062 0
M  V30 1744 C 161.728 -5.78804 -0.959317 0
M  V30 1745 C 164.08 -6.28476 -0.721162 0
M  V30 1746 C 162.744 -6.65188 -0.55504 0
M  V30 1747 H 162.014 -0.599076 -0.436106 0
M  V30 1748 H 164.661 -1.85296 -0.48351 0
M  V30 1749 H 162.966 -2.51369 -3.00535 0
M  V30 1750 H 164.663 -2.8557 -2.81515 0
M  V30 1751 H 161.253 -3.88277 -1.8149 0
M  V30 1752 H 165.437 -4.76524 -1.38704 0
M  V30 1753 H 160.693 -6.05899 -0.81833 0
M  V30 1754 H 164.867 -6.95259 -0.398458 0
M  V30 1755 H 162.494 -7.60123 -0.108311 0
M  V30 1756 N 164.069 0.697108 -1.41344 0
M  V30 1757 C 165.294 1.49096 -1.44171 0
M  V30 1758 C 165.719 1.88038 -0.0481568 0
M  V30 1759 O 165.077 1.54525 0.948243 0
M  V30 1760 C 165.125 2.73088 -2.3549 0
M  V30 1761 O 164.229 3.70514 -1.81088 0
M  V30 1762 H 163.57 0.448801 -0.489361 0
M  V30 1763 H 166.1 0.856992 -1.85787 0
M  V30 1764 H 166.11 3.21413 -2.51312 0
M  V30 1765 H 164.785 2.44081 -3.36745 0
M  V30 1766 H 163.362 3.29441 -1.74708 0
M  V30 1767 N 165.547 1.27147 0.931209 0
M  V30 1768 C 166.494 1.09568 2.03134 0
M  V30 1769 C 167.464 -0.00222433 1.661 0
M  V30 1770 O 168.649 0.159439 1.90133 0
M  V30 1771 C 165.789 0.745231 3.36957 0
M  V30 1772 C 164.902 1.92041 3.86968 0
M  V30 1773 C 164.037 1.51216 5.09222 0
M  V30 1774 C 163.076 2.65504 5.5152 0
M  V30 1775 N 162.213 2.25291 6.64972 0
M  V30 1776 H 167.053 2.03708 2.17502 0
M  V30 1777 H 164.59 1.01411 1.06556 0
M  V30 1778 H 166.548 0.522878 4.1391 0
M  V30 1779 H 165.178 -0.159202 3.22407 0
M  V30 1780 H 164.23 2.25541 3.06326 0
M  V30 1781 H 165.542 2.77787 4.1429 0
M  V30 1782 H 164.696 1.25084 5.93666 0
M  V30 1783 H 163.435 0.625749 4.83669 0
M  V30 1784 H 162.44 2.92354 4.65628 0
M  V30 1785 H 163.665 3.54761 5.7907 0
M  V30 1786 H 161.611 1.39098 6.41083 0
M  V30 1787 H 161.528 3.04577 6.91931 0
M  V30 1788 H 162.796 2.02398 7.52765 0
M  V30 1789 N 167.025 -1.13721 1.09112 0
M  V30 1790 C 168.25 -1.89314 0.847053 0
M  V30 1791 C 168.675 -1.78416 -0.595774 0
M  V30 1792 O 168.033 -1.12942 -1.41823 0
M  V30 1793 C 168.081 -3.3701 1.28284 0
M  V30 1794 O 167.185 -4.10054 0.439267 0
M  V30 1795 H 166.526 -0.588745 0.307044 0
M  V30 1796 H 169.056 -1.43902 1.45442 0
M  V30 1797 H 169.066 -3.87834 1.26683 0
M  V30 1798 H 167.741 -3.4426 2.33363 0
M  V30 1799 H 166.318 -3.69266 0.519312 0
M  V30 1800 N 168.503 -0.877838 -1.30888 0
M  V30 1801 C 169.45 -0.337538 -2.28318 0
M  V30 1802 C 170.42 0.568346 -1.56074 0
M  V30 1803 O 171.605 0.498298 -1.84178 0
M  V30 1804 C 168.745 0.448142 -3.42178 0
M  V30 1805 C 167.858 -0.48615 -4.29256 0
M  V30 1806 C 166.993 0.314427 -5.30269 0
M  V30 1807 C 166.032 -0.615791 -6.08995 0
M  V30 1808 N 165.169 0.14902 -7.01942 0
M  V30 1809 H 170.009 -1.17356 -2.73919 0
M  V30 1810 H 167.546 -0.590094 -1.34745 0
M  V30 1811 H 169.504 0.919517 -4.06941 0
M  V30 1812 H 168.134 1.24879 -2.97666 0
M  V30 1813 H 167.186 -1.076 -3.64865 0
M  V30 1814 H 168.498 -1.19909 -4.84173 0
M  V30 1815 H 167.652 0.847969 -6.00745 0
M  V30 1816 H 166.391 1.06062 -4.76027 0
M  V30 1817 H 165.396 -1.16102 -5.37401 0
M  V30 1818 H 166.621 -1.36097 -6.65323 0
M  V30 1819 H 164.567 0.877884 -6.50099 0
M  V30 1820 H 164.484 -0.504433 -7.54315 0
M  V30 1821 H 165.752 0.663537 -7.76671 0
M  V30 1822 N 169.982 1.44106 -0.638065 0
M  V30 1823 C 171.398 1.56672 -0.304286 0
M  V30 1824 C 171.598 1.6244 1.19228 0
M  V30 1825 O 170.654 1.57121 1.9766 0
M  V30 1826 C 171.967 2.83503 -1.00231 0
M  V30 1827 C 173.515 2.97226 -0.981116 0
M  V30 1828 C 173.99 4.26868 -1.65974 0
M  V30 1829 N 175.481 4.33698 -1.62666 0
M  V30 1830 C 176.216 5.32745 -2.12063 0
M  V30 1831 N 175.712 6.38157 -2.6968 0
M  V30 1832 N 177.505 5.24299 -2.02651 0
M  V30 1833 H 169.656 1.38605 -1.60942 0
M  V30 1834 H 171.919 0.664661 -0.675965 0
M  V30 1835 H 171.625 2.85251 -2.0573 0
M  V30 1836 H 171.499 3.73251 -0.54439 0
M  V30 1837 H 173.886 2.95027 0.0654188 0
M  V30 1838 H 173.967 2.08808 -1.47759 0
M  V30 1839 H 173.611 4.29826 -2.70576 0
M  V30 1840 H 173.541 5.14156 -1.13804 0
M  V30 1841 H 176.032 3.58138 -1.20606 0
M  V30 1842 H 176.345 7.10029 -3.05087 0
M  V30 1843 H 174.69 6.38823 -2.73734 0
M  V30 1844 H 177.881 4.4086 -1.57353 0
M  V30 1845 H 178.054 6.01334 -2.41457 0
M  V30 1846 N 171.46 0.379036 1.52974 0
M  V30 1847 C 172.393 -0.504932 2.22544 0
M  V30 1848 C 173.371 -1.0723 1.22231 0
M  V30 1849 O 174.555 -1.12589 1.51182 0
M  V30 1850 C 171.682 -1.69794 2.93066 0
M  V30 1851 C 170.728 -1.25678 4.07563 0
M  V30 1852 S 171.561 -0.246852 5.34931 0
M  V30 1853 C 172.717 -1.44588 6.08971 0
M  V30 1854 H 172.95 0.0858666 2.97176 0
M  V30 1855 H 170.483 0.163183 1.53535 0
M  V30 1856 H 172.441 -2.38219 3.34308 0
M  V30 1857 H 171.102 -2.26002 2.18133 0
M  V30 1858 H 170.295 -2.14725 4.5597 0
M  V30 1859 H 169.897 -0.651584 3.6828 0
M  V30 1860 H 172.189 -2.37469 6.34519 0
M  V30 1861 H 173.132 -1.00292 7.00962 0
M  V30 1862 H 173.54 -1.65804 5.39601 0
M  V30 1863 N 172.938 -1.57226 0.108567 0
M  V30 1864 C 174.349 -1.8195 -0.418464 0
M  V30 1865 C 174.7 -1.02508 -1.67292 0
M  V30 1866 O 173.825 -0.258496 -2.14851 0
M  V30 1867 C 174.42 -3.30028 -0.765979 0
M  V30 1868 C 172.979 -3.55469 -1.23769 0
M  V30 1869 C 172.126 -2.7625 -0.241106 0
M  V30 1870 H 175.077 -1.55149 0.33384 0
M  V30 1871 H 175.098 -3.44086 -1.62434 0
M  V30 1872 H 174.61 -3.87821 0.147219 0
M  V30 1873 H 172.711 -3.03022 -2.16814 0
M  V30 1874 H 172.824 -4.6408 -1.19022 0
M  V30 1875 H 171.188 -2.44133 -0.72602 0
M  V30 1876 H 171.971 -3.36797 0.665007 0
M  V30 1877 N 174.416 0.165178 -1.56732 0
M  V30 1878 C 175.665 0.879143 -1.81532 0
M  V30 1879 C 175.978 1.83144 -0.686842 0
M  V30 1880 O 177.184 2.58823 -0.819944 0
M  V30 1881 C 175.64 1.61388 -3.21686 0
M  V30 1882 C 175.248 0.704904 -4.4242 0
M  V30 1883 C 176.992 2.3157 -3.55774 0
M  V30 1884 C 174.899 1.44022 -5.73595 0
M  V30 1885 H 173.829 0.332033 -0.676957 0
M  V30 1886 H 176.48 0.132008 -1.83025 0
M  V30 1887 H 174.862 2.40599 -3.14529 0
M  V30 1888 H 176.036 -0.0506815 -4.60772 0
M  V30 1889 H 174.351 0.112419 -4.16248 0
M  V30 1890 H 176.948 2.8719 -4.51028 0
M  V30 1891 H 177.291 3.07201 -2.8095 0
M  V30 1892 H 177.824 1.59297 -3.64513 0
M  V30 1893 H 174.563 0.72612 -6.51466 0
M  V30 1894 H 174.083 2.16898 -5.5921 0
M  V30 1895 H 175.762 1.98606 -6.15764 0
M  V30 1896 N 175.894 1.51508 0.433938 0
M  V30 1897 C 177.122 1.68157 1.20543 0
M  V30 1898 C 177.537 0.380362 1.84929 0
M  V30 1899 O 176.894 -0.641446 1.70856 0
M  V30 1900 C 176.945 2.79965 2.28696 0
M  V30 1901 O 176.666 4.05045 1.66943 0
M  V30 1902 C 178.167 3.07912 3.18912 0
M  V30 1903 H 175.387 0.56421 0.363191 0
M  V30 1904 H 177.931 1.97941 0.513754 0
M  V30 1905 H 176.086 2.5277 2.93574 0
M  V30 1906 H 176.5 4.67165 2.38448 0
M  V30 1907 H 177.974 3.89719 3.90926 0
M  V30 1908 H 178.451 2.20456 3.79863 0
M  V30 1909 H 179.057 3.36779 2.59731 0
M  V30 1910 N 177.372 -0.689602 1.41712 0
M  V30 1911 C 178.602 -1.47613 1.44548 0
M  V30 1912 C 179.01 -1.89132 0.0509034 0
M  V30 1913 O 178.353 -1.57741 -0.94146 0
M  V30 1914 C 178.415 -2.76596 2.2964 0
M  V30 1915 C 178.079 -2.57245 3.77722 0
M  V30 1916 C 179.076 -2.22804 4.69739 0
M  V30 1917 C 176.761 -2.727 4.2183 0
M  V30 1918 C 178.755 -2.04064 6.03851 0
M  V30 1919 C 176.442 -2.53576 5.56006 0
M  V30 1920 C 177.44 -2.1931 6.46832 0
M  V30 1921 O 177.128 -2.00359 7.78532 0
M  V30 1922 H 176.86 -0.461227 0.494212 0
M  V30 1923 H 179.414 -0.856045 1.86711 0
M  V30 1924 H 177.644 -3.41033 1.82301 0
M  V30 1925 H 179.333 -3.38424 2.24107 0
M  V30 1926 H 180.099 -2.10473 4.36951 0
M  V30 1927 H 175.978 -2.98353 3.51435 0
M  V30 1928 H 179.522 -1.77241 6.74708 0
M  V30 1929 H 175.419 -2.65499 5.88371 0
M  V30 1930 H 176.187 -2.15075 7.89737 0
M  V30 1931 N 178.85 -1.27639 -0.924453 0
M  V30 1932 C 180.127 -1.04887 -1.651 0
M  V30 1933 C 180.507 0.415327 -2.06974 0
M  V30 1934 O 179.855 1.39923 -1.80648 0
M  V30 1935 C 180.065 -2.01348 -2.85061 0
M  V30 1936 C 181.413 -2.30899 -3.56329 0
M  V30 1937 O 182.437 -1.99348 -2.95193 0
M  V30 1938 O 181.296 -2.84699 -4.66485 0
M  V30 1939 H 178.39 -0.400083 -0.723784 0
M  V30 1940 H 180.936 -1.38916 -0.974703 0
M  V30 1941 H 179.708 -3.0008 -2.51133 0
M  V30 1942 H 179.331 -1.679 -3.6041 0
M  V30 1943 N 180.328 1.1314 -1.09713 0
M  V30 1944 C 181.276 2.20717 -0.733934 0
M  V30 1945 C 182.27 1.6729 0.266506 0
M  V30 1946 O 183.476 1.79547 0.127656 0
M  V30 1947 H 179.851 0.719292 -0.21937 0
M  V30 1948 H 181.822 2.48611 -1.6503 0
M  V30 1949 C 180.571 3.47265 -0.173849 0
M  V30 1950 H 179.894 3.88716 -0.934873 0
M  V30 1951 H 181.334 4.23979 0.0423126 0
M  V30 1952 C 179.793 3.18724 1.09164 0
M  V30 1953 O 180.323 3.37762 2.17439 0
M  V30 1954 N 178.529 2.72583 1.00732 0
M  V30 1955 H 178.076 2.57291 0.126121 0
M  V30 1956 H 178.034 2.53862 1.85476 0
M  V30 1957 N 181.806 0.884767 1.30421 0
M  V30 1958 C 183.054 0.502112 1.95763 0
M  V30 1959 C 183.375 -0.951815 1.70192 0
M  V30 1960 O 182.645 -1.6692 1.0254 0
M  V30 1961 H 181.225 0.182694 0.724315 0
M  V30 1962 H 183.887 1.1278 1.58955 0
M  V30 1963 H 182.983 0.672188 3.04775 0
M  V30 1964 N 183.284 -1.43765 0.645699 0
M  V30 1965 C 184.531 -2.01898 0.15604 0
M  V30 1966 C 184.859 -1.50887 -1.22733 0
M  V30 1967 O 184.114 -0.689271 -1.8316 0
M  V30 1968 C 184.413 -3.57238 0.107679 0
M  V30 1969 C 184.079 -4.27564 1.43178 0
M  V30 1970 C 182.741 -4.46492 1.7944 0
M  V30 1971 C 185.093 -4.67454 2.30513 0
M  V30 1972 C 182.421 -5.02573 3.02716 0
M  V30 1973 C 184.773 -5.24901 3.53074 0
M  V30 1974 C 183.437 -5.42046 3.89541 0
M  V30 1975 H 182.707 -0.738797 0.057099 0
M  V30 1976 H 185.354 -1.72341 0.834912 0
M  V30 1977 H 183.659 -3.86293 -0.654618 0
M  V30 1978 H 185.356 -3.99965 -0.287938 0
M  V30 1979 H 181.946 -4.13171 1.13963 0
M  V30 1980 H 186.13 -4.5253 2.0379 0
M  V30 1981 H 181.386 -5.14033 3.31028 0
M  V30 1982 H 185.56 -5.54758 4.20971 0
M  V30 1983 H 183.187 -5.85268 4.85145 0
M  V30 1984 N 184.763 -0.387143 -1.52771 0
M  V30 1985 C 185.693 0.440551 -2.29306 0
M  V30 1986 C 186.674 1.06535 -1.32606 0
M  V30 1987 O 187.859 1.07853 -1.61497 0
M  V30 1988 C 184.989 1.56919 -3.09829 0
M  V30 1989 C 183.943 1.07054 -4.14395 0
M  V30 1990 C 183.269 2.29109 -4.83129 0
M  V30 1991 C 184.569 0.140015 -5.22112 0
M  V30 1992 H 186.263 -0.198026 -2.98744 0
M  V30 1993 H 183.809 -0.09668 -1.43675 0
M  V30 1994 H 185.762 2.15503 -3.62128 0
M  V30 1995 H 184.486 2.23532 -2.3812 0
M  V30 1996 H 183.145 0.507247 -3.63074 0
M  V30 1997 H 182.793 2.94227 -4.0797 0
M  V30 1998 H 182.493 1.96406 -5.53804 0
M  V30 1999 H 184.017 2.88339 -5.38231 0
M  V30 2000 H 185.431 0.633978 -5.69784 0
M  V30 2001 H 183.828 -0.0971485 -6.00021 0
M  V30 2002 H 184.898 -0.811711 -4.78058 0
M  V30 2003 N 186.241 1.57166 -0.116904 0
M  V30 2004 C 187.488 1.95123 0.541603 0
M  V30 2005 C 187.816 1.00006 1.6682 0
M  V30 2006 O 187.071 0.0235658 1.95686 0
M  V30 2007 C 187.37 3.39508 1.11664 0
M  V30 2008 C 187.036 4.50762 0.111606 0
M  V30 2009 C 185.698 4.80918 -0.164758 0
M  V30 2010 C 188.05 5.18036 -0.573438 0
M  V30 2011 C 185.378 5.75666 -1.13249 0
M  V30 2012 C 187.73 6.13824 -1.52978 0
M  V30 2013 C 186.394 6.42374 -1.81415 0
M  V30 2014 H 185.664 0.714005 0.198187 0
M  V30 2015 H 188.311 1.9048 -0.197365 0
M  V30 2016 H 186.616 3.40835 1.93232 0
M  V30 2017 H 188.313 3.66189 1.63422 0
M  V30 2018 H 184.903 4.27272 0.337192 0
M  V30 2019 H 189.087 4.94896 -0.373092 0
M  V30 2020 H 184.343 5.96092 -1.35958 0
M  V30 2021 H 188.517 6.65039 -2.06629 0
M  V30 2022 H 186.144 7.15599 -2.56557 0
M  V30 2023 N 187.719 -0.156864 1.56817 0
M  V30 2024 C 188.968 -0.869504 1.81996 0
M  V30 2025 C 189.281 -1.82777 0.696545 0
M  V30 2026 O 190.487 -2.58384 0.833658 0
M  V30 2027 C 188.943 -1.59679 3.22538 0
M  V30 2028 C 188.551 -0.681431 4.42787 0
M  V30 2029 C 190.295 -2.2968 3.56997 0
M  V30 2030 C 188.202 -1.40978 5.74351 0
M  V30 2031 H 187.132 -0.328438 0.678708 0
M  V30 2032 H 189.783 -0.1223 1.83092 0
M  V30 2033 H 188.165 -2.38927 3.158 0
M  V30 2034 H 189.339 0.0751166 4.60739 0
M  V30 2035 H 187.654 -0.0903431 4.16302 0
M  V30 2036 H 190.251 -2.84794 4.52544 0
M  V30 2037 H 190.594 -3.05707 2.82576 0
M  V30 2038 H 191.127 -1.57361 3.65352 0
M  V30 2039 H 187.866 -0.691561 6.51842 0
M  V30 2040 H 187.386 -2.13929 5.60352 0
M  V30 2041 H 189.065 -1.95337 6.16808 0
M  V30 2042 N 189.197 -1.51736 -0.425897 0
M  V30 2043 C 190.147 -1.70258 -1.51645 0
M  V30 2044 C 191.131 -0.556488 -1.5097 0
M  V30 2045 O 192.323 -0.812879 -1.5723 0
M  V30 2046 C 189.452 -1.84143 -2.89735 0
M  V30 2047 C 188.538 -3.04572 -2.95122 0
M  V30 2048 N 188.929 -4.2756 -2.70233 0
M  V30 2049 C 187.227 -3.04061 -3.26286 0
M  V30 2050 C 187.928 -5.08908 -2.81757 0
M  V30 2051 N 186.904 -4.43797 -3.13919 0
M  V30 2052 H 190.706 -2.63004 -1.31172 0
M  V30 2053 H 188.22 -1.4954 -0.633375 0
M  V30 2054 H 190.217 -1.95525 -3.68206 0
M  V30 2055 H 188.877 -0.925857 -3.1122 0
M  V30 2056 H 189.888 -4.56315 -2.44943 0
M  V30 2057 H 186.565 -2.22179 -3.53473 0
M  V30 2058 H 187.955 -6.16843 -2.66372 0
M  V30 2059 N 190.675 0.682077 -1.42076 0
M  V30 2060 C 191.903 1.47057 -1.4554 0
M  V30 2061 C 192.318 1.8869 -0.0645779 0
M  V30 2062 O 191.675 1.57666 0.919115 0
M  V30 2063 C 191.726 2.72442 -2.37609 0
M  V30 2064 O 191.447 2.32559 -3.71279 0
M  V30 2065 C 192.948 3.66069 -2.50017 0
M  V30 2066 H 190.168 0.452737 -0.495248 0
M  V30 2067 H 192.712 0.838695 -1.8651 0
M  V30 2068 H 190.867 3.31835 -1.9991 0
M  V30 2069 H 191.281 3.13475 -4.20516 0
M  V30 2070 H 192.755 4.50792 -3.18576 0
M  V30 2071 H 193.232 4.11476 -1.53572 0
M  V30 2072 H 193.838 3.12572 -2.88407 0
M  V30 2073 N 192.153 1.28127 0.917671 0
M  V30 2074 C 193.43 1.05761 1.64542 0
M  V30 2075 C 193.81 -0.404344 2.07191 0
M  V30 2076 O 193.158 -1.38963 1.81388 0
M  V30 2077 C 193.368 2.02857 2.83989 0
M  V30 2078 C 194.716 2.32786 3.551 0
M  V30 2079 O 195.74 2.0091 2.94132 0
M  V30 2080 O 194.599 2.87169 4.64969 0
M  V30 2081 H 191.693 0.403916 0.721652 0
M  V30 2082 H 194.239 1.39431 0.967322 0
M  V30 2083 H 193.011 3.01407 2.49538 0
M  V30 2084 H 192.634 1.69809 3.59514 0
M  V30 2085 N 193.631 -1.12557 1.10312 0
M  V30 2086 C 194.578 -2.18247 0.750781 0
M  V30 2087 C 195.548 -1.63853 -0.272293 0
M  V30 2088 O 196.733 -1.90195 -0.151862 0
M  V30 2089 C 193.873 -3.44591 0.187379 0
M  V30 2090 C 192.986 -4.13046 1.2656 0
M  V30 2091 C 192.121 -5.27034 0.663978 0
M  V30 2092 C 191.16 -5.87353 1.72287 0
M  V30 2093 N 190.297 -6.92757 1.1416 0
M  V30 2094 H 195.137 -2.47732 1.65628 0
M  V30 2095 H 192.674 -1.21629 0.827337 0
M  V30 2096 H 194.632 -4.16904 -0.157148 0
M  V30 2097 H 193.262 -3.15527 -0.681355 0
M  V30 2098 H 192.314 -3.38924 1.72727 0
M  V30 2099 H 193.626 -4.53947 2.06721 0
M  V30 2100 H 192.78 -6.06104 0.268824 0
M  V30 2101 H 191.519 -4.87407 -0.169082 0
M  V30 2102 H 190.524 -5.06971 2.12746 0
M  V30 2103 H 191.749 -6.29051 2.55875 0
M  V30 2104 H 189.695 -6.5517 0.329984 0
M  V30 2105 H 189.612 -7.3225 1.88007 0
M  V30 2106 H 190.88 -7.75658 0.772956 0
M  V30 2107 N 195.109 -0.891671 -1.2995 0
M  V30 2108 C 196.52 -0.563104 -1.78006 0
M  V30 2109 C 196.871 0.920978 -1.73241 0
M  V30 2110 O 195.996 1.71987 -1.31337 0
M  V30 2111 C 196.591 -1.01539 -3.23226 0
M  V30 2112 C 195.15 -0.738124 -3.69092 0
M  V30 2113 C 194.297 -1.19461 -2.50249 0
M  V30 2114 H 197.248 -1.07522 -1.16725 0
M  V30 2115 H 197.269 -0.347217 -3.78912 0
M  V30 2116 H 196.781 -2.09555 -3.26662 0
M  V30 2117 H 194.882 0.329766 -3.71138 0
M  V30 2118 H 194.995 -1.33037 -4.60259 0
M  V30 2119 H 193.359 -0.613787 -2.47194 0
M  V30 2120 H 194.142 -2.28265 -2.56417 0
M  V30 2121 N 196.587 1.43421 -0.653314 0
M  V30 2122 C 197.833 2.02111 -0.166992 0
M  V30 2123 C 198.166 1.51423 1.21592 0
M  V30 2124 O 197.441 0.707389 1.8118 0
M  V30 2125 C 197.724 3.5966 -0.177948 0
M  V30 2126 C 197.577 4.20579 -1.59478 0
M  V30 2127 C 198.896 4.37413 0.4856 0
M  V30 2128 H 196.015 0.734374 -0.0621557 0
M  V30 2129 H 198.657 1.70717 -0.834016 0
M  V30 2130 H 196.807 3.86537 0.390032 0
M  V30 2131 H 198.479 4.04732 -2.21336 0
M  V30 2132 H 196.722 3.77226 -2.14204 0
M  V30 2133 H 197.393 5.29665 -1.5543 0
M  V30 2134 H 199.869 4.161 0.00234528 0
M  V30 2135 H 198.745 5.47075 0.447207 0
M  V30 2136 H 199.006 4.13672 1.55974 0
M  V30 2137 N 198.065 0.39524 1.52563 0
M  V30 2138 C 199.295 -0.184675 2.05773 0
M  V30 2139 C 199.703 -1.40571 1.26635 0
M  V30 2140 O 199.046 -1.81105 0.30769 0
M  V30 2141 C 199.108 -0.613551 3.54226 0
M  V30 2142 C 198.772 0.49484 4.54313 0
M  V30 2143 C 199.769 1.3541 5.01956 0
M  V30 2144 C 197.454 0.663565 4.97898 0
M  V30 2145 C 199.448 2.36716 5.91814 0
M  V30 2146 C 197.135 1.67996 5.87555 0
M  V30 2147 C 198.133 2.53017 6.34406 0
M  V30 2148 O 197.821 3.52917 7.22291 0
M  V30 2149 H 197.553 -0.030077 0.675331 0
M  V30 2150 H 200.107 0.560708 1.97599 0
M  V30 2151 H 198.337 -1.411 3.60038 0
M  V30 2152 H 200.026 -1.11981 3.90148 0
M  V30 2153 H 200.792 1.23509 4.6901 0
M  V30 2154 H 196.671 0.0114913 4.60999 0
M  V30 2155 H 200.215 3.03113 6.28306 0
M  V30 2156 H 196.112 1.79933 6.19915 0
M  V30 2157 H 196.88 3.48996 7.40367 0
M  V30 2158 N 199.544 -1.57102 0.125237 0
M  V30 2159 C 200.772 -1.99761 -0.538797 0
M  V30 2160 C 201.187 -1.00503 -1.59827 0
M  V30 2161 O 200.544 0.00119474 -1.825 0
M  V30 2162 C 200.595 -3.42408 -1.15927 0
M  V30 2163 O 200.316 -4.37869 -0.142143 0
M  V30 2164 C 201.817 -4.00232 -1.90602 0
M  V30 2165 H 199.037 -0.655772 -0.14214 0
M  V30 2166 H 201.581 -2.03383 0.213413 0
M  V30 2167 H 199.736 -3.39706 -1.86223 0
M  V30 2168 H 200.15 -5.21128 -0.593775 0
M  V30 2169 H 201.624 -5.02105 -2.29335 0
M  V30 2170 H 202.101 -3.39721 -2.78363 0
M  V30 2171 H 202.707 -4.06499 -1.25055 0
M  V30 2172 N 201.022 0.148545 -1.56898 0
M  V30 2173 C 202.433 0.708766 -1.72723 0
M  V30 2174 C 202.784 1.81734 -0.739395 0
M  V30 2175 O 201.909 2.16194 0.0943169 0
M  V30 2176 C 202.504 1.29245 -3.13179 0
M  V30 2177 C 201.063 1.79925 -3.30611 0
M  V30 2178 C 200.21 0.687111 -2.68652 0
M  V30 2179 H 203.161 -0.0771063 -1.58513 0
M  V30 2180 H 203.182 2.16224 -3.13093 0
M  V30 2181 H 202.694 0.485382 -3.85053 0
M  V30 2182 H 200.795 2.63203 -2.63732 0
M  V30 2183 H 200.908 1.92903 -4.38549 0
M  V30 2184 H 199.272 1.11335 -2.29078 0
M  V30 2185 H 200.055 -0.108483 -3.43129 0
M  V30 2186 N 202.5 1.5196 0.417844 0
M  V30 2187 C 203.777 1.56146 1.17803 0
M  V30 2188 C 204.157 0.337275 2.08388 0
M  V30 2189 O 203.505 -0.676447 2.18258 0
M  V30 2190 C 203.715 2.88566 1.96293 0
M  V30 2191 C 205.063 3.41244 2.52662 0
M  V30 2192 O 206.087 2.90247 2.06483 0
M  V30 2193 O 204.946 4.30273 3.36938 0
M  V30 2194 H 202.04 0.628598 0.537395 0
M  V30 2195 H 204.586 1.64283 0.425331 0
M  V30 2196 H 203.358 3.69116 1.2988 0
M  V30 2197 H 202.981 2.83681 2.78587 0
M  V30 2198 N 203.978 -0.674533 1.42435 0
M  V30 2199 C 204.91 -1.80005 1.41883 0
M  V30 2200 C 205.923 -1.59667 0.31787 0
M  V30 2201 O 207.112 -1.68781 0.580973 0
M  V30 2202 C 204.212 -3.17114 1.19549 0
M  V30 2203 C 203.385 -3.64299 2.42084 0
M  V30 2204 C 202.444 -4.80142 2.15291 0
M  V30 2205 O 201.47 -4.90673 2.88493 0
M  V30 2206 N 202.672 -5.68869 1.1562 0
M  V30 2207 H 205.437 -1.80964 2.38898 0
M  V30 2208 H 202.998 -0.857633 1.37318 0
M  V30 2209 H 204.99 -3.92267 0.995417 0
M  V30 2210 H 203.56 -3.11053 0.310569 0
M  V30 2211 H 202.78 -2.79822 2.77657 0
M  V30 2212 H 204.068 -3.92567 3.23679 0
M  V30 2213 H 203.466 -5.63012 0.550765 0
M  V30 2214 H 202.023 -6.43833 1.016 0
M  V30 2215 N 205.456 -1.28612 -0.910864 0
M  V30 2216 C 206.681 -1.1891 -1.69927 0
M  V30 2217 C 207.106 0.248372 -1.86453 0
M  V30 2218 O 206.464 1.17961 -1.37676 0
M  V30 2219 C 206.512 -1.89578 -3.06745 0
M  V30 2220 O 205.616 -1.20521 -3.94396 0
M  V30 2221 H 204.957 -0.412632 -0.520222 0
M  V30 2222 H 207.487 -1.69985 -1.1387 0
M  V30 2223 H 207.497 -1.97597 -3.56958 0
M  V30 2224 H 206.172 -2.94136 -2.94035 0
M  V30 2225 H 204.749 -1.20684 -3.52831 0
M  V30 2226 N 206.934 1.1197 -1.10907 0
M  V30 2227 C 208.18 1.8386 -0.855773 0
M  V30 2228 C 208.513 1.84134 0.617103 0
M  V30 2229 O 207.788 1.29041 1.45529 0
M  V30 2230 C 208.071 3.31305 -1.411 0
M  V30 2231 C 207.924 3.39456 -2.9511 0
M  V30 2232 C 209.243 4.2721 -1.05736 0
M  V30 2233 H 206.362 0.667545 -0.312334 0
M  V30 2234 H 209.004 1.31331 -1.37303 0
M  V30 2235 H 207.154 3.76169 -0.97105 0
M  V30 2236 H 208.826 3.03191 -3.47668 0
M  V30 2237 H 207.069 2.79849 -3.31462 0
M  V30 2238 H 207.74 4.43209 -3.29044 0
M  V30 2239 H 210.216 3.90497 -1.43706 0
M  V30 2240 H 209.092 5.28775 -1.47269 0
M  V30 2241 H 209.353 4.42088 0.0325958 0
M  V30 2242 N 208.412 0.89855 1.29475 0
M  V30 2243 C 209.359 0.373819 2.27753 0
M  V30 2244 C 210.329 -0.543444 1.56958 0
M  V30 2245 O 211.514 -0.468934 1.84948 0
M  V30 2246 C 208.654 -0.393648 3.42848 0
M  V30 2247 C 207.767 0.554379 4.28428 0
M  V30 2248 C 206.902 -0.230026 5.30702 0
M  V30 2249 C 205.941 0.712599 6.07938 0
M  V30 2250 N 205.078 -0.0373283 7.0209 0
M  V30 2251 H 209.918 1.21699 2.72017 0
M  V30 2252 H 207.455 0.611456 1.33789 0
M  V30 2253 H 209.413 -0.85466 4.08352 0
M  V30 2254 H 208.043 -1.20128 2.99615 0
M  V30 2255 H 207.095 1.13391 3.63107 0
M  V30 2256 H 208.407 1.27597 4.82204 0
M  V30 2257 H 207.561 -0.752288 6.02018 0
M  V30 2258 H 206.3 -0.984758 4.77654 0
M  V30 2259 H 205.305 1.24637 5.35486 0
M  V30 2260 H 206.53 1.46664 6.63074 0
M  V30 2261 H 204.476 -0.774348 6.51414 0
M  V30 2262 H 204.393 0.624374 7.53417 0
M  V30 2263 H 205.661 -0.539891 7.77628 0
M  V30 2264 N 209.89 -1.43072 0.660911 0
M  V30 2265 C 211.136 -2.0202 0.177708 0
M  V30 2266 C 211.469 -1.52066 -1.20787 0
M  V30 2267 O 210.744 -0.716987 -1.80802 0
M  V30 2268 C 211.027 -3.59561 0.197019 0
M  V30 2269 C 210.88 -4.19727 1.61706 0
M  V30 2270 C 212.199 -4.37664 -0.462396 0
M  V30 2271 H 209.318 -0.734034 0.0660494 0
M  V30 2272 H 211.96 -1.70272 0.843058 0
M  V30 2273 H 210.11 -3.86739 -0.369527 0
M  V30 2274 H 211.782 -4.03553 2.23479 0
M  V30 2275 H 210.025 -3.76084 2.16201 0
M  V30 2276 H 210.696 -5.28834 1.58237 0
M  V30 2277 H 213.172 -4.16095 0.0197215 0
M  V30 2278 H 212.048 -5.47305 -0.418188 0
M  V30 2279 H 212.309 -4.14493 -1.53778 0
M  V30 2280 N 211.368 -0.403325 -1.52352 0
M  V30 2281 C 212.784 -0.0539281 -1.59509 0
M  V30 2282 C 212.984 1.43307 -1.41652 0
M  V30 2283 O 212.04 2.19924 -1.24056 0
M  V30 2284 C 213.353 -0.543654 -2.95745 0
M  V30 2285 C 214.901 -0.501125 -3.08962 0
M  V30 2286 C 215.376 -0.967267 -4.47669 0
M  V30 2287 N 216.867 -0.923849 -4.53893 0
M  V30 2288 C 217.602 -1.25578 -5.5948 0
M  V30 2289 N 217.098 -1.65889 -6.72646 0
M  V30 2290 N 218.891 -1.17613 -5.49658 0
M  V30 2291 H 211.042 -1.37123 -1.62206 0
M  V30 2292 H 213.305 -0.56294 -0.76276 0
M  V30 2293 H 213.011 -1.58275 -3.14073 0
M  V30 2294 H 212.885 0.0498042 -3.77167 0
M  V30 2295 H 215.272 0.528909 -2.90321 0
M  V30 2296 H 215.353 -1.13056 -2.2946 0
M  V30 2297 H 214.997 -1.9956 -4.67053 0
M  V30 2298 H 214.927 -0.314698 -5.25659 0
M  V30 2299 H 217.418 -0.627403 -3.72655 0
M  V30 2300 H 217.731 -1.89543 -7.49195 0
M  V30 2301 H 216.076 -1.69787 -6.73942 0
M  V30 2302 H 219.267 -0.860115 -4.6013 0
M  V30 2303 H 219.44 -1.43812 -6.3184 0
M  V30 2304 N 212.846 1.57033 -0.133567 0
M  V30 2305 C 214.092 1.95976 0.521649 0
M  V30 2306 C 214.425 1.01779 1.65393 0
M  V30 2307 O 213.7 0.0576581 1.94415 0
M  V30 2308 C 213.983 3.44738 1.04057 0
M  V30 2309 C 213.836 4.49711 -0.0892897 0
M  V30 2310 C 215.155 3.95682 1.92675 0
M  V30 2311 H 212.274 0.712579 0.188149 0
M  V30 2312 H 214.916 1.88813 -0.212076 0
M  V30 2313 H 213.066 3.50973 1.66583 0
M  V30 2314 H 214.738 4.55565 -0.725152 0
M  V30 2315 H 212.981 4.27261 -0.750378 0
M  V30 2316 H 213.652 5.51099 0.315284 0
M  V30 2317 H 216.128 3.91841 1.39998 0
M  V30 2318 H 215.004 5.00262 2.25897 0
M  V30 2319 H 215.265 3.37239 2.85872 0
M  V30 2320 N 214.325 -0.140222 1.56975 0
M  V30 2321 C 215.555 -0.865181 1.87612 0
M  V30 2322 C 215.963 -1.74942 0.72055 0
M  V30 2323 O 215.306 -1.80917 -0.318561 0
M  V30 2324 C 215.368 -1.76782 3.13031 0
M  V30 2325 C 215.032 -1.06005 4.44536 0
M  V30 2326 C 216.029 -0.410768 5.18275 0
M  V30 2327 C 213.714 -1.04754 4.91255 0
M  V30 2328 C 215.708 0.241572 6.36942 0
M  V30 2329 C 213.395 -0.391394 6.09845 0
M  V30 2330 C 214.393 0.252029 6.82535 0
M  V30 2331 O 214.081 0.897757 7.98871 0
M  V30 2332 H 213.813 -0.255188 0.625983 0
M  V30 2333 H 216.367 -0.135653 2.04952 0
M  V30 2334 H 214.597 -2.53846 2.91718 0
M  V30 2335 H 216.286 -2.36533 3.29859 0
M  V30 2336 H 217.052 -0.412195 4.83245 0
M  V30 2337 H 212.931 -1.53777 4.34596 0
M  V30 2338 H 216.475 0.744375 6.93617 0
M  V30 2339 H 212.372 -0.387656 6.44335 0
M  V30 2340 H 213.14 0.800102 8.1458 0
M  V30 2341 N 215.803 -1.52179 -0.40978 0
M  V30 2342 C 217.028 -1.70347 -1.18308 0
M  V30 2343 C 217.453 -0.411887 -1.83535 0
M  V30 2344 O 216.811 0.630587 -1.6998 0
M  V30 2345 C 216.859 -2.83977 -2.22238 0
M  V30 2346 O 215.963 -2.495 -3.28365 0
M  V30 2347 H 215.304 -0.567103 -0.345384 0
M  V30 2348 H 217.834 -1.98879 -0.480445 0
M  V30 2349 H 217.844 -3.0887 -2.66577 0
M  V30 2350 H 216.519 -3.77685 -1.74146 0
M  V30 2351 H 215.096 -2.35277 -2.89308 0
M  V30 2352 N 217.281 0.66697 -1.42791 0
M  V30 2353 C 218.211 1.79218 -1.49677 0
M  V30 2354 C 219.192 1.66405 -0.352623 0
M  V30 2355 O 220.377 1.85708 -0.567993 0
M  V30 2356 C 217.507 3.17565 -1.40605 0
M  V30 2357 C 216.461 3.45124 -2.53127 0
M  V30 2358 C 215.787 4.83127 -2.29112 0
M  V30 2359 C 217.087 3.41236 -3.95418 0
M  V30 2360 H 218.781 1.73713 -2.43853 0
M  V30 2361 H 216.327 0.83432 -1.17367 0
M  V30 2362 H 218.28 3.96022 -1.44029 0
M  V30 2363 H 217.004 3.23767 -0.429271 0
M  V30 2364 H 215.663 2.69031 -2.49034 0
M  V30 2365 H 215.311 4.85988 -1.29709 0
M  V30 2366 H 215.011 5.02528 -3.04531 0
M  V30 2367 H 216.535 5.63859 -2.34297 0
M  V30 2368 H 217.949 4.09651 -4.01073 0
M  V30 2369 H 216.346 3.72173 -4.70752 0
M  V30 2370 H 217.416 2.39665 -4.21532 0
M  V30 2371 N 218.759 1.29093 0.90403 0
M  V30 2372 C 219.707 1.13727 2.02901 0
M  V30 2373 C 220.701 0.0539853 1.69314 0
M  V30 2374 O 221.907 0.213469 1.7873 0
M  V30 2375 H 218.282 0.35117 0.664969 0
M  V30 2376 H 220.253 2.08982 2.13001 0
M  V30 2377 C 219.002 0.826066 3.37745 0
M  V30 2378 H 218.325 1.65164 3.64089 0
M  V30 2379 H 219.765 0.758559 4.17159 0
M  V30 2380 C 218.224 -0.470541 3.33598 0
M  V30 2381 O 218.754 -1.49792 3.72727 0
M  V30 2382 N 216.96 -0.474812 2.86695 0
M  V30 2383 H 216.507 0.361692 2.55048 0
M  V30 2384 H 216.465 -1.34236 2.84303 0
M  V30 2385 N 220.237 -1.11381 1.11499 0
M  V30 2386 C 221.514 -1.7955 0.775965 0
M  V30 2387 C 221.894 -1.97859 -0.73588 0
M  V30 2388 O 221.242 -1.56376 -1.66609 0
M  V30 2389 C 221.452 -3.13196 1.53977 0
M  V30 2390 C 222.8 -3.88227 1.71944 0
M  V30 2391 O 223.824 -3.22887 1.50407 0
M  V30 2392 O 222.683 -5.05477 2.07738 0
M  V30 2393 H 219.777 -0.777728 0.28119 0
M  V30 2394 H 222.323 -1.18118 1.21845 0
M  V30 2395 H 221.095 -2.95229 2.56818 0
M  V30 2396 H 220.718 -3.82342 1.09088 0
M  V30 2397 N 221.715 -0.905404 -1.28997 0
M  V30 2398 C 222.992 -0.453513 -1.9027 0
M  V30 2399 C 223.372 1.06721 -1.82137 0
M  V30 2400 O 222.72 1.91159 -1.25182 0
M  V30 2401 C 222.93 -0.974494 -3.35119 0
M  V30 2402 C 224.278 -1.0216 -4.12127 0
M  V30 2403 O 225.302 -0.922557 -3.44046 0
M  V30 2404 O 224.161 -1.17121 -5.33802 0
M  V30 2405 H 221.255 -0.142347 -0.814657 0
M  V30 2406 H 223.801 -0.995642 -1.37423 0
M  V30 2407 H 222.573 -2.01848 -3.35221 0
M  V30 2408 H 222.196 -0.412706 -3.95452 0
M  V30 2409 N 223.193 1.4272 -0.668489 0
M  V30 2410 C 224.123 2.335 -0.000100175 0
M  V30 2411 C 225.104 1.50328 0.795964 0
M  V30 2412 O 226.289 1.78949 0.754385 0
M  V30 2413 C 223.419 3.33874 0.956302 0
M  V30 2414 C 222.373 4.27152 0.269278 0
M  V30 2415 C 221.699 5.17684 1.33818 0
M  V30 2416 C 222.999 5.15373 -0.847805 0
M  V30 2417 H 224.693 2.89639 -0.758244 0
M  V30 2418 H 222.239 1.39269 -0.366079 0
M  V30 2419 H 224.192 3.9629 1.43292 0
M  V30 2420 H 222.916 2.76025 1.74579 0
M  V30 2421 H 221.575 3.66123 -0.187042 0
M  V30 2422 H 221.223 4.56165 2.1195 0
M  V30 2423 H 220.923 5.80918 0.883659 0
M  V30 2424 H 222.447 5.82974 1.81586 0
M  V30 2425 H 223.861 5.7151 -0.452681 0
M  V30 2426 H 222.258 5.87407 -1.22773 0
M  V30 2427 H 223.328 4.5415 -1.69929 0
M  V30 2428 N 224.671 0.411399 1.52136 0
M  V30 2429 C 225.618 -0.412975 2.27075 0
M  V30 2430 C 226.588 -1.03912 1.29582 0
M  V30 2431 O 227.773 -1.06296 1.58448 0
M  V30 2432 C 224.913 -1.52247 3.09701 0
M  V30 2433 C 224.026 -0.917021 4.22155 0
M  V30 2434 C 223.161 -1.9994 4.92135 0
M  V30 2435 C 222.2 -1.37101 5.96548 0
M  V30 2436 N 221.337 -2.39364 6.60038 0
M  V30 2437 H 226.177 0.232499 2.97092 0
M  V30 2438 H 223.714 0.126496 1.46555 0
M  V30 2439 H 225.672 -2.17674 3.55913 0
M  V30 2440 H 224.302 -2.13794 2.41851 0
M  V30 2441 H 223.354 -0.151742 3.80097 0
M  V30 2442 H 224.666 -0.418006 4.97045 0
M  V30 2443 H 223.82 -2.73088 5.41763 0
M  V30 2444 H 222.559 -2.53208 4.16818 0
M  V30 2445 H 221.564 -0.624873 5.46237 0
M  V30 2446 H 222.789 -0.845998 6.7381 0
M  V30 2447 H 220.735 -2.91759 5.87548 0
M  V30 2448 H 220.652 -1.9428 7.3061 0
M  V30 2449 H 221.92 -3.12074 7.14304 0
M  V30 2450 N 226.149 -1.5696 0.141893 0
M  V30 2451 C 227.56 -1.82797 -0.379776 0
M  V30 2452 C 227.911 -1.06033 -1.6508 0
M  V30 2453 O 227.036 -0.304011 -2.14254 0
M  V30 2454 C 227.631 -3.31578 -0.695802 0
M  V30 2455 C 226.19 -3.58014 -1.16201 0
M  V30 2456 C 225.337 -2.76699 -0.182455 0
M  V30 2457 H 228.288 -1.54406 0.366675 0
M  V30 2458 H 228.309 -3.47454 -1.55099 0
M  V30 2459 H 227.821 -3.87421 0.229449 0
M  V30 2460 H 225.922 -3.07553 -2.10338 0
M  V30 2461 H 226.035 -4.66501 -1.09151 0
M  V30 2462 H 224.399 -2.45618 -0.674072 0
M  V30 2463 H 225.182 -3.35311 0.736297 0
M  V30 2464 N 227.627 0.131896 -1.57047 0
M  V30 2465 C 228.59 1.14638 -1.98471 0
M  V30 2466 C 229.59 1.35029 -0.873148 0
M  V30 2467 O 230.78 1.31764 -1.13946 0
M  V30 2468 C 227.912 2.50358 -2.31373 0
M  V30 2469 H 229.105 0.79064 -2.8929 0
M  V30 2470 H 226.658 0.375761 -1.51716 0
M  V30 2471 H 227.393 2.90876 -1.43393 0
M  V30 2472 H 227.178 2.36915 -3.12432 0
M  V30 2473 H 228.668 3.23395 -2.64207 0
M  V30 2474 N 229.106 1.52395 0.401703 0
M  V30 2475 C 230.053 1.76268 1.48991 0
M  V30 2476 C 231.023 0.605386 1.54675 0
M  V30 2477 O 232.208 0.843742 1.7113 0
M  V30 2478 C 229.348 1.92592 2.86361 0
M  V30 2479 C 228.461 3.20259 2.89928 0
M  V30 2480 C 227.596 3.26972 4.18644 0
M  V30 2481 C 226.635 4.48812 4.16214 0
M  V30 2482 N 225.772 4.52877 5.36514 0
M  V30 2483 H 230.612 2.6914 1.27935 0
M  V30 2484 H 228.149 1.33355 0.620871 0
M  V30 2485 H 230.107 2.0004 3.66115 0
M  V30 2486 H 228.737 1.03093 3.05895 0
M  V30 2487 H 227.789 3.21945 2.02621 0
M  V30 2488 H 229.101 4.10056 2.83999 0
M  V30 2489 H 228.255 3.33533 5.06794 0
M  V30 2490 H 226.994 2.35126 4.27278 0
M  V30 2491 H 225.999 4.4239 3.26453 0
M  V30 2492 H 227.224 5.41961 4.09213 0
M  V30 2493 H 225.17 3.63917 5.45802 0
M  V30 2494 H 225.087 5.36529 5.32609 0
M  V30 2495 H 226.355 4.63676 6.26597 0
M  V30 2496 N 230.584 -0.659388 1.43143 0
M  V30 2497 C 232 -0.974337 1.26407 0
M  V30 2498 C 232.2 -2.007 0.179341 0
M  V30 2499 O 231.256 -2.4856 -0.444295 0
M  V30 2500 C 232.569 -1.46447 2.62628 0
M  V30 2501 C 234.117 -1.58144 2.7011 0
M  V30 2502 C 234.592 -2.1055 4.06734 0
M  V30 2503 N 236.083 -2.17861 4.08767 0
M  V30 2504 C 236.818 -2.59519 5.1131 0
M  V30 2505 N 236.314 -3.00518 6.24228 0
M  V30 2506 N 238.107 -2.59404 4.98664 0
M  V30 2507 H 230.258 0.0240528 2.12386 0
M  V30 2508 H 232.521 -0.0518065 0.946583 0
M  V30 2509 H 232.227 -0.780123 3.42939 0
M  V30 2510 H 232.101 -2.44058 2.87603 0
M  V30 2511 H 234.488 -2.25682 1.90136 0
M  V30 2512 H 234.569 -0.589828 2.48907 0
M  V30 2513 H 234.213 -1.43616 4.87172 0
M  V30 2514 H 234.143 -3.10531 4.25298 0
M  V30 2515 H 236.634 -1.88975 3.27257 0
M  V30 2516 H 236.947 -3.31036 6.98309 0
M  V30 2517 H 235.292 -2.98337 6.2771 0
M  V30 2518 H 238.483 -2.26747 4.09516 0
M  V30 2519 H 238.656 -2.91548 5.78709 0
M  V30 2520 N 232.062 -1.29571 -0.897171 0
M  V30 2521 C 232.972 -1.16808 -2.03453 0
M  V30 2522 C 233.988 -0.0907471 -1.73763 0
M  V30 2523 O 235.164 -0.303312 -1.99103 0
M  V30 2524 C 232.229 -0.848264 -3.36163 0
M  V30 2525 C 231.29 -2.0097 -3.79354 0
M  V30 2526 C 230.523 -1.70505 -5.05731 0
M  V30 2527 O 230.746 -0.62718 -5.66941 0
M  V30 2528 O 229.68 -2.5538 -5.45036 0
M  V30 2529 H 233.506 -2.12325 -2.17144 0
M  V30 2530 H 231.091 -1.09047 -1.02123 0
M  V30 2531 H 232.973 -0.684581 -4.15802 0
M  V30 2532 H 231.648 0.0771071 -3.23608 0
M  V30 2533 H 230.555 -2.22863 -3.00471 0
M  V30 2534 H 231.888 -2.91636 -3.96496 0
M  V30 2535 N 233.54 1.10788 -1.12088 0
M  V30 2536 C 234.768 1.86461 -0.896651 0
M  V30 2537 C 235.183 1.80492 0.553912 0
M  V30 2538 O 234.54 1.19102 1.38278 0
M  V30 2539 C 234.591 3.35006 -1.35843 0
M  V30 2540 O 234.312 3.40866 -2.75213 0
M  V30 2541 C 235.813 4.27565 -1.1706 0
M  V30 2542 H 233.033 0.589425 -0.320654 0
M  V30 2543 H 235.577 1.40076 -1.48993 0
M  V30 2544 H 233.732 3.7887 -0.808458 0
M  V30 2545 H 234.146 4.33411 -2.9539 0
M  V30 2546 H 235.62 5.30007 -1.54263 0
M  V30 2547 H 236.097 4.3906 -0.110814 0
M  V30 2548 H 236.703 3.89501 -1.70789 0
M  V30 2549 N 235.018 0.912232 1.28515 0
M  V30 2550 C 236.264 0.545405 1.95328 0
M  V30 2551 C 236.597 -0.908313 1.71649 0
M  V30 2552 O 235.872 -1.64575 1.03659 0
M  V30 2553 C 236.155 0.853483 3.4984 0
M  V30 2554 C 236.008 2.35982 3.82926 0
M  V30 2555 C 237.327 0.348589 4.38717 0
M  V30 2556 H 234.446 0.199626 0.709449 0
M  V30 2557 H 237.088 1.1412 1.5191 0
M  V30 2558 H 235.238 0.34643 3.86952 0
M  V30 2559 H 236.91 2.93738 3.55691 0
M  V30 2560 H 235.153 2.81543 3.30024 0
M  V30 2561 H 235.824 2.52593 4.90816 0
M  V30 2562 H 238.3 0.78294 4.08668 0
M  V30 2563 H 237.176 0.593242 5.45685 0
M  V30 2564 H 237.437 -0.751049 4.35674 0
M  V30 2565 N 236.496 -1.42363 0.676048 0
M  V30 2566 C 237.426 -2.33497 0.0124832 0
M  V30 2567 C 238.407 -1.50748 -0.787981 0
M  V30 2568 O 239.592 -1.79346 -0.744884 0
M  V30 2569 C 236.722 -3.34377 -0.938582 0
M  V30 2570 C 235.676 -4.27289 -0.246622 0
M  V30 2571 C 235.002 -5.18386 -1.31071 0
M  V30 2572 C 236.302 -5.14916 0.875125 0
M  V30 2573 H 237.996 -2.89233 0.773593 0
M  V30 2574 H 235.542 -1.39073 0.37346 0
M  V30 2575 H 237.495 -3.97044 -1.41188 0
M  V30 2576 H 236.219 -2.76947 -1.73113 0
M  V30 2577 H 234.878 -3.66018 0.206456 0
M  V30 2578 H 234.526 -4.57282 -2.09528 0
M  V30 2579 H 234.226 -5.81378 -0.852839 0
M  V30 2580 H 235.75 -5.83929 -1.78492 0
M  V30 2581 H 237.164 -5.71262 0.482983 0
M  V30 2582 H 235.561 -5.86747 1.25887 0
M  V30 2583 H 236.631 -4.53242 1.72335 0
M  V30 2584 N 237.974 -0.419461 -1.51915 0
M  V30 2585 C 239.202 0.152136 -2.0634 0
M  V30 2586 C 239.617 1.37988 -1.28859 0
M  V30 2587 O 238.974 1.79243 -0.343232 0
M  V30 2588 C 239.025 0.492266 -3.58133 0
M  V30 2589 O 238.746 -0.686736 -4.32684 0
M  V30 2590 C 240.247 1.11648 -4.2901 0
M  V30 2591 H 237.467 0.0158325 -0.670813 0
M  V30 2592 H 240.011 -0.593394 -1.95702 0
M  V30 2593 H 238.166 1.18769 -3.68745 0
M  V30 2594 H 238.58 -0.400341 -5.2297 0
M  V30 2595 H 240.054 1.3046 -5.36362 0
M  V30 2596 H 240.531 2.09251 -3.86148 0
M  V30 2597 H 241.137 0.460958 -4.22795 0
M  V30 2598 N 239.452 1.56882 -0.150215 0
M  V30 2599 C 240.699 1.96228 0.500093 0
M  V30 2600 C 241.027 1.03522 1.64661 0
M  V30 2601 O 240.282 0.0650683 1.95592 0
M  V30 2602 C 240.581 3.41801 1.04437 0
M  V30 2603 C 240.247 4.50897 0.0159671 0
M  V30 2604 C 238.909 4.8046 -0.266731 0
M  V30 2605 C 241.261 5.16703 -0.683192 0
M  V30 2606 C 238.589 5.73135 -1.25434 0
M  V30 2607 C 240.941 6.10441 -1.65964 0
M  V30 2608 C 239.605 6.38382 -1.95 0
M  V30 2609 H 238.875 0.718048 0.182997 0
M  V30 2610 H 241.522 1.90019 -0.237724 0
M  V30 2611 H 239.827 3.44857 1.85959 0
M  V30 2612 H 241.524 3.69573 1.55618 0
M  V30 2613 H 238.114 4.27891 0.246485 0
M  V30 2614 H 242.298 4.93993 -0.477983 0
M  V30 2615 H 237.554 5.93074 -1.48571 0
M  V30 2616 H 241.728 6.60507 -2.20689 0
M  V30 2617 H 239.355 7.09996 -2.71679 0
M  V30 2618 N 240.93 -0.123565 1.57115 0
M  V30 2619 C 242.179 -0.830704 1.83799 0
M  V30 2620 C 242.492 -1.81259 0.735158 0
M  V30 2621 O 243.698 -2.56558 0.888278 0
M  V30 2622 C 242.154 -1.52802 3.25852 0
M  V30 2623 C 241.762 -0.587356 4.44133 0
M  V30 2624 C 243.506 -2.22056 3.61789 0
M  V30 2625 C 241.413 -1.28764 5.77212 0
M  V30 2626 H 240.343 -0.313967 0.685522 0
M  V30 2627 H 242.994 -0.0834359 1.8331 0
M  V30 2628 H 241.376 -2.32175 3.20797 0
M  V30 2629 H 242.55 0.172829 4.60476 0
M  V30 2630 H 240.865 -0.00201892 4.164 0
M  V30 2631 H 243.462 -2.75131 4.58483 0
M  V30 2632 H 243.805 -2.99644 2.88997 0
M  V30 2633 H 244.338 -1.49576 3.68608 0
M  V30 2634 H 241.077 -0.55314 6.53162 0
M  V30 2635 H 240.597 -2.01995 5.64764 0
M  V30 2636 H 242.276 -1.8221 6.20813 0
M  V30 2637 N 242.408 -1.52605 -0.393616 0
M  V30 2638 C 243.685 -1.58001 -1.15304 0
M  V30 2639 C 244.065 -0.370385 -2.07825 0
M  V30 2640 O 243.413 0.641638 -2.19306 0
M  V30 2641 C 243.623 -2.91652 -1.91677 0
M  V30 2642 C 244.971 -3.4522 -2.47201 0
M  V30 2643 O 245.995 -2.93495 -2.01839 0
M  V30 2644 O 244.854 -4.35579 -3.3005 0
M  V30 2645 H 241.948 -0.637068 -0.527327 0
M  V30 2646 H 244.494 -1.64939 -0.399141 0
M  V30 2647 H 243.266 -3.71136 -1.23992 0
M  V30 2648 H 242.889 -2.88077 -2.74039 0
M  V30 2649 N 243.887 0.651787 -1.4349 0
M  V30 2650 C 245.298 1.233 -1.40193 0
M  V30 2651 C 245.649 1.9591 -0.106727 0
M  V30 2652 O 244.774 2.01316 0.793773 0
M  V30 2653 C 245.369 2.24257 -2.53957 0
M  V30 2654 C 243.928 2.77852 -2.5392 0
M  V30 2655 C 243.075 1.52517 -2.3159 0
M  V30 2656 H 246.026 0.443717 -1.52371 0
M  V30 2657 H 246.047 3.0646 -2.25528 0
M  V30 2658 H 245.559 1.71382 -3.4821 0
M  V30 2659 H 243.66 3.34786 -1.63551 0
M  V30 2660 H 243.773 3.25299 -3.51735 0
M  V30 2661 H 242.137 1.79915 -1.80285 0
M  V30 2662 H 242.92 1.01574 -3.27929 0
M  V30 2663 N 245.365 1.30045 0.890287 0
M  V30 2664 C 246.275 1.17885 2.02831 0
M  V30 2665 C 247.291 0.0999609 1.73713 0
M  V30 2666 O 248.467 0.313867 1.98939 0
M  V30 2667 C 245.532 0.866079 3.35708 0
M  V30 2668 C 244.593 2.02979 3.78283 0
M  V30 2669 C 243.826 1.73184 5.0482 0
M  V30 2670 O 244.049 0.657237 5.66601 0
M  V30 2671 O 242.983 2.58267 5.43674 0
M  V30 2672 H 246.809 2.13474 2.16015 0
M  V30 2673 H 244.394 1.09587 1.01543 0
M  V30 2674 H 246.276 0.706623 4.15433 0
M  V30 2675 H 244.951 -0.0599443 3.23644 0
M  V30 2676 H 243.858 2.24454 2.99285 0
M  V30 2677 H 245.191 2.93734 3.94944 0
M  V30 2678 N 246.843 -1.10192 1.12674 0
M  V30 2679 C 248.091 -1.81845 0.881861 0
M  V30 2680 C 248.412 -1.85737 -0.593867 0
M  V30 2681 O 247.682 -1.33724 -1.4316 0
M  V30 2682 H 246.262 -0.673432 0.323261 0
M  V30 2683 H 248.924 -1.33316 1.42172 0
M  V30 2684 H 248.02 -2.85288 1.2656 0
M  V30 2685 N 248.321 -0.919034 -1.28029 0
M  V30 2686 C 249.546 -0.570357 -1.99403 0
M  V30 2687 C 249.971 0.842486 -1.68178 0
M  V30 2688 O 249.329 1.56391 -0.917141 0
M  V30 2689 C 249.377 -0.792541 -3.51783 0
M  V30 2690 O 248.481 0.145988 -4.12142 0
M  V30 2691 H 247.822 -0.220555 -0.6263 0
M  V30 2692 H 250.352 -1.23592 -1.63053 0
M  V30 2693 H 250.362 -0.704708 -4.01868 0
M  V30 2694 H 249.037 -1.82247 -3.73844 0
M  V30 2695 H 247.614 0.00897528 -3.72899 0
M  V30 2696 N 249.799 1.42003 -0.683588 0
M  V30 2697 C 250.709 2.34597 -0.0109075 0
M  V30 2698 C 251.725 1.55576 0.779245 0
M  V30 2699 O 252.901 1.88107 0.719555 0
M  V30 2700 C 249.966 3.34199 0.922588 0
M  V30 2701 C 249.027 4.29115 0.125984 0
M  V30 2702 C 248.26 5.23959 1.01502 0
M  V30 2703 O 248.483 5.23952 2.25456 0
M  V30 2704 O 247.417 6.00053 0.47111 0
M  V30 2705 H 251.243 2.93675 -0.773853 0
M  V30 2706 H 248.828 1.42654 -0.443861 0
M  V30 2707 H 250.71 3.95365 1.45823 0
M  V30 2708 H 249.385 2.77582 1.66523 0
M  V30 2709 H 248.292 3.71335 -0.453969 0
M  V30 2710 H 249.625 4.88798 -0.577736 0
M  V30 2711 N 251.277 0.427512 1.51691 0
M  V30 2712 C 252.523 -0.142439 2.02299 0
M  V30 2713 C 252.856 -1.43214 1.31162 0
M  V30 2714 O 252.131 -1.89833 0.423511 0
M  V30 2715 C 252.414 -0.371301 3.58181 0
M  V30 2716 C 252.267 0.936358 4.39946 0
M  V30 2717 C 253.586 -1.14542 4.24933 0
M  V30 2718 H 250.705 -0.0502937 0.735282 0
M  V30 2719 H 253.347 0.564584 1.81418 0
M  V30 2720 H 251.497 -0.973559 3.76104 0
M  V30 2721 H 253.169 1.57184 4.33694 0
M  V30 2722 H 251.412 1.5432 4.05423 0
M  V30 2723 H 252.083 0.730388 5.47147 0
M  V30 2724 H 254.559 -0.635362 4.11221 0
M  V30 2725 H 253.435 -1.27431 5.33903 0
M  V30 2726 H 253.696 -2.17093 3.85127 0
M  V30 2727 N 252.755 -1.56801 0.158532 0
M  V30 2728 C 254.032 -1.88131 -0.535357 0
M  V30 2729 C 254.412 -1.06638 -1.82186 0
M  V30 2730 O 253.76 -0.156533 -2.27963 0
M  V30 2731 C 253.97 -3.39949 -0.789653 0
M  V30 2732 C 255.318 -4.09416 -1.12533 0
M  V30 2733 O 256.342 -3.45194 -0.878622 0
M  V30 2734 O 255.201 -5.22855 -1.59014 0
M  V30 2735 H 252.295 -0.780143 -0.27442 0
M  V30 2736 H 254.841 -1.68564 0.19601 0
M  V30 2737 H 253.613 -3.91115 0.120353 0
M  V30 2738 H 253.236 -3.65084 -1.57479 0
M  V30 2739 N 254.233 0.115231 -1.57178 0
M  V30 2740 C 255.166 1.17166 -1.95825 0
M  V30 2741 C 256.144 1.39912 -0.828463 0
M  V30 2742 O 257.328 1.54004 -1.08697 0
M  V30 2743 C 254.455 2.52478 -2.25771 0
M  V30 2744 C 253.501 2.46136 -3.48309 0
M  V30 2745 S 254.334 1.89736 -5.0076 0
M  V30 2746 C 255.49 3.26713 -5.33863 0
M  V30 2747 H 255.723 0.842103 -2.85124 0
M  V30 2748 H 253.256 0.322136 -1.51002 0
M  V30 2749 H 255.214 3.30332 -2.43702 0
M  V30 2750 H 253.875 2.82609 -1.37079 0
M  V30 2751 H 253.068 3.45819 -3.66641 0
M  V30 2752 H 252.67 1.76404 -3.29784 0
M  V30 2753 H 254.962 4.22935 -5.29275 0
M  V30 2754 H 255.905 3.13205 -6.35065 0
M  V30 2755 H 256.313 3.25316 -4.61335 0
M  V30 2756 N 255.711 1.52812 0.385517 0
M  V30 2757 C 256.957 1.68275 1.13188 0
M  V30 2758 C 257.29 0.423179 1.89533 0
M  V30 2759 O 256.565 -0.579113 1.85679 0
M  V30 2760 C 256.848 2.92001 2.1073 0
M  V30 2761 C 256.701 4.28067 1.38125 0
M  V30 2762 C 258.02 3.11283 3.11113 0
M  V30 2763 H 255.139 0.612352 0.410115 0
M  V30 2764 H 257.781 1.85415 0.414869 0
M  V30 2765 H 255.931 2.77519 2.71874 0
M  V30 2766 H 257.603 4.54324 0.799187 0
M  V30 2767 H 255.846 4.28388 0.683092 0
M  V30 2768 H 256.517 5.10733 2.09417 0
M  V30 2769 H 258.993 3.2482 2.6006 0
M  V30 2770 H 257.869 3.99325 3.76605 0
M  V30 2771 H 258.13 2.25656 3.80173 0
M  V30 2772 N 257.189 -0.644168 1.43834 0
M  V30 2773 C 258.099 -1.78563 1.52159 0
M  V30 2774 C 259.115 -1.69147 0.408069 0
M  V30 2775 O 260.291 -1.90156 0.663524 0
M  V30 2776 C 257.356 -3.14888 1.45073 0
M  V30 2777 C 256.417 -3.36034 2.6717 0
M  V30 2778 C 255.65 -4.65855 2.60413 0
M  V30 2779 O 255.873 -5.45805 1.65689 0
M  V30 2780 O 254.807 -4.88918 3.5106 0
M  V30 2781 H 258.633 -1.74494 2.48567 0
M  V30 2782 H 256.218 -0.80378 1.25935 0
M  V30 2783 H 258.1 -3.96179 1.43597 0
M  V30 2784 H 256.775 -3.19528 0.518037 0
M  V30 2785 H 255.682 -2.54472 2.74217 0
M  V30 2786 H 257.015 -3.36247 3.59442 0
M  V30 2787 N 258.668 -1.30515 -0.883378 0
M  V30 2788 C 259.578 -1.18959 -2.02203 0
M  V30 2789 C 260.594 -0.109172 -1.73657 0
M  V30 2790 O 261.77 -0.324413 -1.9877 0
M  V30 2791 C 258.835 -0.883871 -3.35244 0
M  V30 2792 C 257.896 -2.04982 -3.77201 0
M  V30 2793 C 257.129 -1.75859 -5.03894 0
M  V30 2794 O 257.352 -0.687276 -5.66244 0
M  V30 2795 O 256.286 -2.61146 -5.42297 0
M  V30 2796 H 260.112 -2.14616 -2.1488 0
M  V30 2797 H 257.697 -1.10124 -1.0096 0
M  V30 2798 H 259.579 -0.728644 -4.15053 0
M  V30 2799 H 258.254 0.0427798 -3.23672 0
M  V30 2800 H 257.161 -2.26038 -2.9809 0
M  V30 2801 H 258.494 -2.95825 -3.93381 0
M  V30 2802 N 260.146 1.09593 -1.13257 0
M  V30 2803 C 261.395 1.81105 -0.887917 0
M  V30 2804 C 261.708 1.86563 0.587672 0
M  V30 2805 O 262.914 2.54367 0.949204 0
M  V30 2806 C 261.37 3.25338 -1.53895 0
M  V30 2807 C 260.978 3.28151 -3.04994 0
M  V30 2808 C 262.722 4.01617 -1.37492 0
M  V30 2809 C 260.629 4.66897 -3.6299 0
M  V30 2810 H 259.559 0.678661 -0.328534 0
M  V30 2811 H 262.21 1.23183 -1.36008 0
M  V30 2812 H 260.592 3.8331 -0.994446 0
M  V30 2813 H 261.766 2.79953 -3.66009 0
M  V30 2814 H 260.081 2.65361 -3.20893 0
M  V30 2815 H 262.678 5.04119 -1.78235 0
M  V30 2816 H 263.021 4.15072 -0.31957 0
M  V30 2817 H 263.554 3.50082 -1.88912 0
M  V30 2818 H 260.293 4.58643 -4.68323 0
M  V30 2819 H 259.813 5.15426 -3.06752 0
M  V30 2820 H 261.492 5.3587 -3.62563 0
M  V30 2821 N 261.624 0.925811 1.2754 0
M  V30 2822 C 262.901 0.483726 1.89524 0
M  V30 2823 C 263.281 -1.03809 1.83812 0
M  V30 2824 O 262.629 -1.89143 1.28207 0
M  V30 2825 C 262.839 1.02769 3.33526 0
M  V30 2826 C 264.187 1.08703 4.10449 0
M  V30 2827 O 265.211 0.977175 3.42534 0
M  V30 2828 O 264.07 1.25599 5.31871 0
M  V30 2829 H 261.164 0.15529 0.812289 0
M  V30 2830 H 263.71 1.01738 1.35822 0
M  V30 2831 H 262.482 2.07155 3.31967 0
M  V30 2832 H 262.105 0.475567 3.94746 0
M  V30 2833 N 263.102 -1.41638 0.69111 0
M  V30 2834 C 264.052 -2.28 -0.000107832 0
M  V30 2835 C 265.036 -1.41964 -0.757304 0
M  V30 2836 O 266.228 -1.65274 -0.633532 0
M  V30 2837 C 263.357 -3.30209 -0.938983 0
M  V30 2838 C 262.443 -4.23725 -0.17827 0
M  V30 2839 N 262.834 -4.99017 0.825563 0
M  V30 2840 C 261.132 -4.44071 -0.414392 0
M  V30 2841 C 261.833 -5.67431 1.28052 0
M  V30 2842 N 260.809 -5.40197 0.607304 0
M  V30 2843 H 264.611 -2.83644 0.769617 0
M  V30 2844 H 262.125 -1.53797 0.521562 0
M  V30 2845 H 264.122 -3.90898 -1.44929 0
M  V30 2846 H 262.782 -2.76126 -1.70836 0
M  V30 2847 H 263.793 -5.03671 1.20566 0
M  V30 2848 H 260.47 -4.01004 -1.162 0
M  V30 2849 H 261.86 -6.37801 2.11327 0
M  V30 2850 N 264.58 -0.43555 -1.51462 0
M  V30 2851 C 265.829 0.133007 -2.01261 0
M  V30 2852 C 266.142 1.43942 -1.32439 0
M  V30 2853 O 267.348 2.09081 -1.73198 0
M  V30 2854 C 265.804 0.287581 -3.58749 0
M  V30 2855 C 265.412 -1.00829 -4.36506 0
M  V30 2856 C 267.156 0.810004 -4.167 0
M  V30 2857 C 265.063 -0.819454 -5.85695 0
M  V30 2858 H 263.993 0.0534822 -0.752101 0
M  V30 2859 H 266.644 -0.565038 -1.74584 0
M  V30 2860 H 265.026 1.04859 -3.81865 0
M  V30 2861 H 266.2 -1.77749 -4.25138 0
M  V30 2862 H 264.515 -1.45911 -3.89999 0
M  V30 2863 H 267.112 0.967743 -5.2587 0
M  V30 2864 H 267.455 1.79196 -3.75758 0
M  V30 2865 H 267.988 0.107357 -3.97655 0
M  V30 2866 H 264.727 -1.77374 -6.31046 0
M  V30 2867 H 264.247 -0.0900208 -5.99732 0
M  V30 2868 H 265.926 -0.471949 -6.45276 0
M  V30 2869 N 266.058 1.56714 -0.166846 0
M  V30 2870 C 267.306 1.96358 0.478305 0
M  V30 2871 C 267.627 1.0537 1.6408 0
M  V30 2872 O 266.897 0.119154 1.95537 0
M  V30 2873 H 265.477 0.725065 0.179692 0
M  V30 2874 H 268.139 1.93329 -0.246985 0
M  V30 2875 H 267.235 3.00547 0.841292 0
M  V30 2876 N 267.536 -0.106894 1.57237 0
M  V30 2877 C 268.785 -0.811163 1.8467 0
M  V30 2878 C 269.098 -1.80469 0.754342 0
M  V30 2879 O 270.304 -2.55601 0.915439 0
M  V30 2880 C 268.76 -1.49337 3.27454 0
M  V30 2881 C 268.368 -0.540217 4.44731 0
M  V30 2882 C 270.112 -2.18206 3.64124 0
M  V30 2883 C 268.019 -1.22634 5.78545 0
M  V30 2884 H 266.949 -0.306679 0.688813 0
M  V30 2885 H 269.6 -0.0639887 1.83388 0
M  V30 2886 H 267.982 -2.2876 3.23241 0
M  V30 2887 H 269.156 0.221659 4.60267 0
M  V30 2888 H 267.471 0.042146 4.16379 0
M  V30 2889 H 270.068 -2.70253 4.61376 0
M  V30 2890 H 270.411 -2.96562 2.92158 0
M  V30 2891 H 270.944 -1.45658 3.70174 0
M  V30 2892 H 267.683 -0.483832 6.53712 0
M  V30 2893 H 267.203 -1.95993 5.66874 0
M  V30 2894 H 268.882 -1.75615 6.2271 0
M  V30 2895 N 269.014 -1.53014 -0.377408 0
M  V30 2896 C 270.263 -1.67845 -1.11853 0
M  V30 2897 C 270.576 -0.430625 -1.90801 0
M  V30 2898 O 271.782 -0.459261 -2.67587 0
M  V30 2899 C 270.238 -2.96668 -2.03756 0
M  V30 2900 C 269.846 -4.28671 -1.30175 0
M  V30 2901 C 271.59 -3.20865 -2.77932 0
M  V30 2902 C 269.497 -5.48591 -2.20911 0
M  V30 2903 H 268.427 -0.625343 -0.421263 0
M  V30 2904 H 271.078 -1.79514 -0.380409 0
M  V30 2905 H 269.46 -2.78773 -2.8125 0
M  V30 2906 H 270.634 -4.57157 -0.578259 0
M  V30 2907 H 268.949 -4.10825 -0.679108 0
M  V30 2908 H 271.546 -4.07642 -3.46024 0
M  V30 2909 H 271.889 -2.36424 -3.4265 0
M  V30 2910 H 272.422 -3.39379 -2.07525 0
M  V30 2911 H 269.161 -6.35474 -1.6079 0
M  V30 2912 H 268.681 -5.244 -2.91144 0
M  V30 2913 H 270.36 -5.8292 -2.80736 0
M  V30 2914 N 270.492 0.636531 -1.44174 0
M  V30 2915 C 271.717 1.42847 -1.50364 0
M  V30 2916 C 272.142 1.87665 -0.127867 0
M  V30 2917 O 271.5 1.58408 0.88185 0
M  V30 2918 C 271.548 2.62854 -2.4686 0
M  V30 2919 O 270.652 3.62501 -1.9664 0
M  V30 2920 H 269.993 0.427642 -0.507955 0
M  V30 2921 H 272.523 0.777422 -1.89255 0
M  V30 2922 H 272.533 3.10465 -2.64718 0
M  V30 2923 H 271.208 2.29578 -3.46795 0
M  V30 2924 H 269.785 3.21735 -1.88523 0
M  V30 2925 N 271.97 1.30982 0.876444 0
M  V30 2926 C 273.217 1.20296 1.62896 0
M  V30 2927 C 273.545 -0.240395 1.93009 0
M  V30 2928 O 272.8 -1.18733 1.55567 0
M  V30 2929 C 273.099 1.98572 2.9716 0
M  V30 2930 C 272.765 3.48125 2.86566 0
M  V30 2931 C 271.427 3.88905 2.83383 0
M  V30 2932 C 273.779 4.43322 2.74071 0
M  V30 2933 C 271.107 5.2316 2.65556 0
M  V30 2934 C 273.459 5.77695 2.57781 0
M  V30 2935 C 272.123 6.17704 2.52979 0
M  V30 2936 H 271.393 0.440193 0.59608 0
M  V30 2937 H 274.04 1.62177 1.01837 0
M  V30 2938 H 272.345 1.49352 3.62217 0
M  V30 2939 H 274.042 1.8769 3.54364 0
M  V30 2940 H 270.632 3.15723 2.89856 0
M  V30 2941 H 274.816 4.12752 2.75589 0
M  V30 2942 H 270.072 5.53241 2.60259 0
M  V30 2943 H 274.246 6.51091 2.47089 0
M  V30 2944 H 271.873 7.21678 2.38924 0
M  V30 2945 N 273.449 -1.08991 1.13837 0
M  V30 2946 C 274.86 -1.62746 0.914917 0
M  V30 2947 C 275.211 -1.88403 -0.547594 0
M  V30 2948 O 274.336 -1.63706 -1.41525 0
M  V30 2949 C 274.931 -2.95662 1.65437 0
M  V30 2950 C 273.49 -3.46225 1.47666 0
M  V30 2951 C 272.637 -2.20562 1.6807 0
M  V30 2952 H 275.588 -0.922946 1.29102 0
M  V30 2953 H 275.609 -3.63825 1.11407 0
M  V30 2954 H 275.121 -2.76956 2.71877 0
M  V30 2955 H 273.222 -3.70046 0.435478 0
M  V30 2956 H 273.335 -4.23368 2.24268 0
M  V30 2957 H 271.699 -2.29439 1.10589 0
M  V30 2958 H 272.482 -2.0437 2.7584 0
M  V30 2959 N 274.927 -0.932562 -1.27047 0
M  V30 2960 C 276.204 -0.49377 -1.89265 0
M  V30 2961 C 276.584 1.02833 -1.8436 0
M  V30 2962 O 275.932 1.88461 -1.29209 0
M  V30 2963 C 276.142 -1.04536 -3.32976 0
M  V30 2964 C 277.49 -1.10879 -4.09867 0
M  V30 2965 O 278.514 -0.995327 -3.42011 0
M  V30 2966 O 277.373 -1.28417 -5.31198 0
M  V30 2967 H 274.467 -0.159596 -0.811454 0
M  V30 2968 H 277.013 -1.02457 -1.3528 0
M  V30 2969 H 275.785 -2.08913 -3.30864 0
M  V30 2970 H 275.408 -0.496494 -3.94488 0
M  V30 2971 N 276.405 1.4127 -0.698611 0
M  V30 2972 C 277.652 2.0118 -0.230865 0
M  V30 2973 C 277.98 1.55338 1.17049 0
M  V30 2974 O 277.235 0.756775 1.80475 0
M  V30 2975 C 277.534 3.56592 -0.240192 0
M  V30 2976 C 277.2 4.21955 -1.58948 0
M  V30 2977 C 275.862 4.39524 -1.95887 0
M  V30 2978 C 278.214 4.58576 -2.47704 0
M  V30 2979 C 275.542 4.90992 -3.2116 0
M  V30 2980 C 277.894 5.11435 -3.72313 0
M  V30 2981 C 276.558 5.27215 -4.0939 0
M  V30 2982 H 275.828 0.736169 -0.0844796 0
M  V30 2983 H 278.475 1.69124 -0.8983 0
M  V30 2984 H 276.78 3.88456 0.510797 0
M  V30 2985 H 278.477 4.00758 0.139296 0
M  V30 2986 H 275.067 4.08657 -1.29219 0
M  V30 2987 H 279.251 4.44654 -2.20445 0
M  V30 2988 H 274.507 5.01393 -3.49878 0
M  V30 2989 H 278.681 5.38752 -4.4127 0
M  V30 2990 H 276.308 5.66859 -5.06533 0
M  V30 2991 N 277.883 0.443576 1.51229 0
M  V30 2992 C 278.83 -0.364716 2.279 0
M  V30 2993 C 279.8 -1.0114 1.31757 0
M  V30 2994 O 280.985 -1.02912 1.60667 0
M  V30 2995 C 278.125 -1.45644 3.12861 0
M  V30 2996 C 277.238 -0.827269 4.24005 0
M  V30 2997 C 276.373 -1.89456 4.96266 0
M  V30 2998 C 275.412 -1.24416 5.99322 0
M  V30 2999 N 274.549 -2.25309 6.64966 0
M  V30 3000 H 279.389 0.295464 2.96532 0
M  V30 3001 H 276.926 0.157554 1.46254 0
M  V30 3002 H 278.884 -2.10076 3.6045 0
M  V30 3003 H 277.514 -2.08616 2.46331 0
M  V30 3004 H 276.566 -0.0710839 3.80334 0
M  V30 3005 H 277.878 -0.312481 4.9782 0
M  V30 3006 H 277.032 -2.61535 5.47434 0
M  V30 3007 H 275.771 -2.4431 4.22095 0
M  V30 3008 H 274.776 -0.508868 5.4744 0
M  V30 3009 H 276.001 -0.702882 6.75453 0
M  V30 3010 H 273.947 -2.79231 5.93604 0
M  V30 3011 H 273.864 -1.78739 7.34567 0
M  V30 3012 H 275.132 -2.96853 7.20763 0
M  V30 3013 N 279.361 -1.56624 0.175154 0
M  V30 3014 C 280.61 -1.96173 -0.468921 0
M  V30 3015 C 280.923 -1.06401 -1.64128 0
M  V30 3016 O 282.129 -1.35648 -2.35185 0
M  V30 3017 C 280.585 -3.48833 -0.885633 0
M  V30 3018 C 280.193 -4.47237 0.261343 0
M  V30 3019 C 281.937 -3.97194 -1.49791 0
M  V30 3020 C 279.844 -5.9114 -0.175214 0
M  V30 3021 H 278.774 -0.732455 -0.178958 0
M  V30 3022 H 281.425 -1.81591 0.263997 0
M  V30 3023 H 279.807 -3.58848 -1.67464 0
M  V30 3024 H 280.981 -4.4894 1.03871 0
M  V30 3025 H 279.296 -4.08956 0.783827 0
M  V30 3026 H 281.893 -5.02167 -1.83665 0
M  V30 3027 H 282.236 -3.40351 -2.39722 0
M  V30 3028 H 282.769 -3.90212 -0.773267 0
M  V30 3029 H 279.508 -6.51865 0.689414 0
M  V30 3030 H 279.028 -5.92735 -0.91786 0
M  V30 3031 H 280.707 -6.44044 -0.617792 0
M  V30 3032 N 280.839 0.0985539 -1.57292 0
M  V30 3033 C 282.25 0.653457 -1.74891 0
M  V30 3034 C 282.601 1.7929 -0.796838 0
M  V30 3035 O 281.726 2.16385 0.0254886 0
M  V30 3036 C 282.321 1.19216 -3.17133 0
M  V30 3037 C 280.88 1.69316 -3.36168 0
M  V30 3038 C 280.027 0.601294 -2.70702 0
M  V30 3039 H 282.978 -0.127497 -1.58187 0
M  V30 3040 H 282.999 2.06154 -3.19814 0
M  V30 3041 H 282.511 0.362635 -3.86402 0
M  V30 3042 H 280.612 2.5468 -2.71972 0
M  V30 3043 H 280.725 1.78853 -4.44464 0
M  V30 3044 H 279.089 1.0399 -2.32504 0
M  V30 3045 H 279.872 -0.217592 -3.4261 0
M  V30 3046 N 282.317 1.53212 0.369288 0
M  V30 3047 C 283.542 1.73423 1.1375 0
M  V30 3048 C 283.967 0.460404 1.82378 0
M  V30 3049 O 283.325 -0.585298 1.71592 0
M  V30 3050 C 283.373 2.89769 2.1463 0
M  V30 3051 O 282.477 2.58119 3.21634 0
M  V30 3052 H 281.818 0.576061 0.330227 0
M  V30 3053 H 284.348 2.00083 0.427547 0
M  V30 3054 H 284.358 3.15829 2.58294 0
M  V30 3055 H 283.033 3.8217 1.64071 0
M  V30 3056 H 281.61 2.42864 2.82969 0
M  V30 3057 N 283.795 -0.628877 1.44509 0
M  V30 3058 C 284.743 -1.76193 1.51852 0
M  V30 3059 C 285.737 -1.64849 0.390042 0
M  V30 3060 O 286.943 -1.709 0.565082 0
M  V30 3061 H 283.318 -0.581728 0.476547 0
M  V30 3062 H 285.289 -1.67123 2.47209 0
M  V30 3063 C 284.038 -3.14533 1.48204 0
M  V30 3064 H 283.361 -3.23911 2.34354 0
M  V30 3065 H 284.801 -3.93701 1.57402 0
M  V30 3066 C 283.26 -3.36287 0.203142 0
M  V30 3067 O 283.79 -3.9509 -0.725745 0
M  V30 3068 N 281.996 -2.90408 0.105563 0
M  V30 3069 H 281.543 -2.42739 0.862301 0
M  V30 3070 H 281.501 -3.05339 -0.749371 0
M  V30 3071 N 285.273 -1.31445 -0.869486 0
M  V30 3072 C 286.684 -1.19042 -1.43826 0
M  V30 3073 C 287.035 0.202919 -1.95148 0
M  V30 3074 O 286.16 1.10071 -1.86315 0
M  V30 3075 C 286.755 -2.15499 -2.6143 0
M  V30 3076 C 285.314 -2.07028 -3.14351 0
M  V30 3077 C 284.461 -2.04701 -1.87063 0
M  V30 3078 H 287.412 -1.43489 -0.677984 0
M  V30 3079 H 287.433 -1.74488 -3.38134 0
M  V30 3080 H 286.945 -3.16899 -2.24046 0
M  V30 3081 H 285.046 -1.08825 -3.56354 0
M  V30 3082 H 285.159 -2.96157 -3.766 0
M  V30 3083 H 283.523 -1.49724 -2.06046 0
M  V30 3084 H 284.306 -3.07857 -1.51917 0
M  V30 3085 N 286.751 1.08385 -1.14413 0
M  V30 3086 C 288.167 1.32844 -0.884563 0
M  V30 3087 C 288.367 1.95841 0.474181 0
M  V30 3088 O 287.423 2.21158 1.21842 0
M  V30 3089 C 288.736 2.22978 -2.01745 0
M  V30 3090 C 290.284 2.36458 -2.05077 0
M  V30 3091 C 290.759 3.29934 -3.1766 0
M  V30 3092 N 292.25 3.37511 -3.17239 0
M  V30 3093 C 292.985 4.09871 -4.0099 0
M  V30 3094 N 292.481 4.84936 -4.94781 0
M  V30 3095 N 294.274 4.05704 -3.89051 0
M  V30 3096 H 286.425 0.658756 -2.01926 0
M  V30 3097 H 288.688 0.352821 -0.879899 0
M  V30 3098 H 288.394 1.83934 -2.99769 0
M  V30 3099 H 288.268 3.23441 -1.94077 0
M  V30 3100 H 290.655 2.7476 -1.0766 0
M  V30 3101 H 290.736 1.35736 -2.16816 0
M  V30 3102 H 290.38 2.92352 -4.15322 0
M  V30 3103 H 290.31 4.30584 -3.03158 0
M  V30 3104 H 292.801 2.83996 -2.49308 0
M  V30 3105 H 293.114 5.37612 -5.55151 0
M  V30 3106 H 291.459 4.83988 -4.98779 0
M  V30 3107 H 294.65 3.46167 -3.15097 0
M  V30 3108 H 294.823 4.61834 -4.54547 0
M  V30 3109 N 288.23 0.939286 1.26551 0
M  V30 3110 C 289.46 0.601663 1.97645 0
M  V30 3111 C 289.868 -0.827206 1.70159 0
M  V30 3112 O 289.211 -1.56291 0.965338 0
M  V30 3113 C 289.273 0.761725 3.51337 0
M  V30 3114 C 288.937 2.16487 4.0247 0
M  V30 3115 C 289.934 3.14016 4.14355 0
M  V30 3116 C 287.619 2.48494 4.36527 0
M  V30 3117 C 289.613 4.41654 4.59587 0
M  V30 3118 C 287.3 3.76364 4.81449 0
M  V30 3119 C 288.298 4.72758 4.92939 0
M  V30 3120 O 287.986 5.98352 5.36871 0
M  V30 3121 H 287.718 0.225758 0.637189 0
M  V30 3122 H 290.272 1.26178 1.62075 0
M  V30 3123 H 288.502 0.0444808 3.86674 0
M  V30 3124 H 290.191 0.427442 4.03643 0
M  V30 3125 H 290.957 2.90613 3.8829 0
M  V30 3126 H 286.836 1.74202 4.26819 0
M  V30 3127 H 290.38 5.16896 4.68471 0
M  V30 3128 H 286.277 3.99582 5.06956 0
M  V30 3129 H 287.045 6.01507 5.55096 0
M  V30 3130 N 289.708 -1.40897 0.706093 0
M  V30 3131 C 290.956 -2.00657 0.241054 0
M  V30 3132 C 291.277 -1.56241 -1.16678 0
M  V30 3133 O 290.547 -0.79765 -1.78926 0
M  V30 3134 H 289.127 -0.742018 0.0861308 0
M  V30 3135 H 291.789 -1.72372 0.909604 0
M  V30 3136 H 290.885 -3.10958 0.266705 0
M  V30 3137 N 291.186 -0.45159 -1.50991 0
M  V30 3138 C 292.119 0.398179 -2.24699 0
M  V30 3139 C 293.097 1.01276 -1.27208 0
M  V30 3140 O 294.281 1.05247 -1.56382 0
M  V30 3141 C 291.408 1.55618 -3.00833 0
M  V30 3142 C 290.454 1.0609 -4.13095 0
M  V30 3143 S 291.287 -0.00865136 -5.35499 0
M  V30 3144 C 292.443 1.15369 -6.15175 0
M  V30 3145 H 292.676 -0.227555 -2.96428 0
M  V30 3146 H 290.209 -0.236251 -1.52582 0
M  V30 3147 H 292.167 2.21997 -3.45293 0
M  V30 3148 H 290.828 2.15337 -2.28667 0
M  V30 3149 H 290.021 1.92726 -4.65696 0
M  V30 3150 H 289.623 0.47513 -3.7097 0
M  V30 3151 H 291.915 2.06925 -6.45126 0
M  V30 3152 H 292.858 0.667344 -7.04948 0
M  V30 3153 H 293.266 1.3987 -5.46897 0
M  V30 3154 N 292.664 1.56529 -0.183458 0
M  V30 3155 C 293.91 1.98304 0.452466 0
M  V30 3156 C 294.265 1.06799 1.60037 0
M  V30 3157 O 293.558 0.110049 1.91284 0
M  V30 3158 C 293.752 3.43939 0.971637 0
M  V30 3159 C 293.581 4.49528 -0.124425 0
M  V30 3160 C 292.351 5.01981 -0.578168 0
M  V30 3161 C 294.549 5.05836 -0.929207 0
M  V30 3162 N 292.531 5.91219 -1.65327 0
M  V30 3163 C 293.902 5.91632 -1.85396 0
M  V30 3164 C 295.957 4.88302 -0.972929 0
M  V30 3165 C 294.66 6.61768 -2.81878 0
M  V30 3166 C 296.686 5.59168 -1.92574 0
M  V30 3167 C 296.048 6.44701 -2.83795 0
M  V30 3168 H 292.147 0.770551 0.133324 0
M  V30 3169 H 294.731 1.92581 -0.286473 0
M  V30 3170 H 292.902 3.50184 1.68006 0
M  V30 3171 H 294.634 3.72702 1.5772 0
M  V30 3172 H 291.389 4.73282 -0.173639 0
M  V30 3173 H 291.813 6.40543 -2.19167 0
M  V30 3174 H 296.455 4.21861 -0.28168 0
M  V30 3175 H 294.173 7.27415 -3.51984 0
M  V30 3176 H 297.759 5.47582 -1.96583 0
M  V30 3177 H 296.639 6.98573 -3.56322 0
M  V30 3178 N 294.142 -0.090211 1.57342 0
M  V30 3179 C 295.37 -0.806224 1.90546 0
M  V30 3180 C 295.785 -1.72041 0.777644 0
M  V30 3181 O 295.142 -1.80778 -0.250103 0
M  V30 3182 C 295.193 -1.61546 3.23396 0
M  V30 3183 O 294.914 -0.738043 4.31839 0
M  V30 3184 C 296.415 -2.4341 3.70495 0
M  V30 3185 H 293.635 -0.230256 0.630257 0
M  V30 3186 H 296.179 -0.0659843 2.04394 0
M  V30 3187 H 294.334 -2.30816 3.11131 0
M  V30 3188 H 294.748 -1.29901 5.08159 0
M  V30 3189 H 296.222 -2.95676 4.66133 0
M  V30 3190 H 296.699 -3.22098 2.98579 0
M  V30 3191 H 297.305 -1.79331 3.85643 0
M  V30 3192 N 295.62 -1.53406 -0.361157 0
M  V30 3193 C 296.869 -1.69022 -1.10066 0
M  V30 3194 C 297.182 -0.450838 -1.90333 0
M  V30 3195 O 298.388 -0.487617 -2.67085 0
M  V30 3196 C 296.844 -2.98812 -2.00598 0
M  V30 3197 C 296.452 -4.30027 -1.25621 0
M  V30 3198 C 298.196 -3.23795 -2.74513 0
M  V30 3199 C 296.103 -5.50903 -2.1508 0
M  V30 3200 H 295.033 -0.629776 -0.414606 0
M  V30 3201 H 297.684 -1.79907 -0.361348 0
M  V30 3202 H 296.066 -2.8174 -2.78278 0
M  V30 3203 H 297.24 -4.57745 -0.529739 0
M  V30 3204 H 295.555 -4.11522 -0.635496 0
M  V30 3205 H 298.152 -4.11289 -3.41681 0
M  V30 3206 H 298.495 -2.40045 -3.40123 0
M  V30 3207 H 299.028 -3.41561 -2.03914 0
M  V30 3208 H 295.767 -6.37143 -1.54041 0
M  V30 3209 H 295.287 -5.27459 -2.85565 0
M  V30 3210 H 296.966 -5.85865 -2.74538 0
M  V30 3211 N 297.098 0.621204 -1.44841 0
M  V30 3212 C 298.045 1.73267 -1.5247 0
M  V30 3213 C 299.015 1.6189 -0.371611 0
M  V30 3214 O 300.2 1.81668 -0.58321 0
M  V30 3215 C 297.34 3.11545 -1.48438 0
M  V30 3216 C 296.453 3.33827 -2.74196 0
M  V30 3217 C 295.588 4.62133 -2.61929 0
M  V30 3218 C 294.627 4.77627 -3.82804 0
M  V30 3219 N 293.764 5.97219 -3.69153 0
M  V30 3220 H 298.604 1.66082 -2.47428 0
M  V30 3221 H 296.141 0.810026 -1.22788 0
M  V30 3222 H 298.099 3.91528 -1.4409 0
M  V30 3223 H 296.729 3.1772 -0.570402 0
M  V30 3224 H 295.781 2.47715 -2.88689 0
M  V30 3225 H 297.093 3.41153 -3.6389 0
M  V30 3226 H 296.247 5.50291 -2.5547 0
M  V30 3227 H 294.986 4.57182 -1.69811 0
M  V30 3228 H 293.991 3.87896 -3.89637 0
M  V30 3229 H 295.216 4.84385 -4.75971 0
M  V30 3230 H 293.162 5.93339 -2.79794 0
M  V30 3231 H 293.079 6.05644 -4.52472 0
M  V30 3232 H 294.347 6.87912 -3.66603 0
M  V30 3233 N 298.576 1.31904 0.862503 0
M  V30 3234 C 299.539 1.20131 1.95195 0
M  V30 3235 C 300.539 0.126409 1.60302 0
M  V30 3236 O 301.729 0.376234 1.70089 0
M  V30 3237 C 298.861 0.845691 3.30244 0
M  V30 3238 H 300.054 2.16943 2.07064 0
M  V30 3239 H 297.607 1.15622 1.05172 0
M  V30 3240 H 298.342 -0.120957 3.24074 0
M  V30 3241 H 298.127 1.62276 3.56944 0
M  V30 3242 H 299.617 0.787418 4.10109 0
M  V30 3243 N 300.054 -1.07777 1.14986 0
M  V30 3244 C 301.001 -2.14867 0.842672 0
M  V30 3245 C 301.971 -1.6486 -0.202552 0
M  V30 3246 O 303.156 -1.90668 -0.0710568 0
M  V30 3247 C 300.296 -3.43486 0.333363 0
M  V30 3248 C 299.409 -4.07306 1.43965 0
M  V30 3249 C 298.544 -5.23744 0.886914 0
M  V30 3250 C 297.583 -5.79517 1.97043 0
M  V30 3251 N 296.72 -6.87291 1.4344 0
M  V30 3252 H 301.56 -2.40485 1.75986 0
M  V30 3253 H 299.097 -1.1801 0.878179 0
M  V30 3254 H 301.055 -4.17195 0.0198163 0
M  V30 3255 H 299.685 -3.18133 -0.546916 0
M  V30 3256 H 298.737 -3.31293 1.86946 0
M  V30 3257 H 300.049 -4.44771 2.25788 0
M  V30 3258 H 299.203 -6.04419 0.525651 0
M  V30 3259 H 297.942 -4.87685 0.0377957 0
M  V30 3260 H 296.947 -4.97491 2.34057 0
M  V30 3261 H 298.172 -6.17632 2.82325 0
M  V30 3262 H 296.118 -6.5318 0.607567 0
M  V30 3263 H 296.035 -7.23617 2.18895 0
M  V30 3264 H 297.303 -7.71682 1.10124 0
M  V30 3265 N 301.532 -0.945985 -1.26051 0
M  V30 3266 C 302.762 -0.612136 -1.97323 0
M  V30 3267 C 303.17 0.818171 -1.70595 0
M  V30 3268 O 302.513 1.55777 -0.973613 0
M  V30 3269 C 302.575 -0.780347 -3.50929 0
M  V30 3270 C 302.239 -2.18619 -4.01317 0
M  V30 3271 C 303.236 -3.16209 -4.12683 0
M  V30 3272 C 300.921 -2.50805 -4.35203 0
M  V30 3273 C 302.915 -4.44085 -4.57238 0
M  V30 3274 C 300.602 -3.78912 -4.79446 0
M  V30 3275 C 301.6 -4.75365 -4.90425 0
M  V30 3276 O 301.288 -6.01191 -5.3369 0
M  V30 3277 H 301.02 -0.229134 -0.635982 0
M  V30 3278 H 303.574 -1.27036 -1.61404 0
M  V30 3279 H 301.804 -0.0649864 -3.86645 0
M  V30 3280 H 303.493 -0.448842 -4.03411 0
M  V30 3281 H 304.259 -2.92668 -3.86744 0
M  V30 3282 H 300.138 -1.76463 -4.2589 0
M  V30 3283 H 303.682 -5.19373 -4.65723 0
M  V30 3284 H 299.579 -4.02265 -5.0483 0
M  V30 3285 H 300.347 -6.04442 -5.51899 0
M  V30 3286 N 303.011 1.40521 -0.713556 0
M  V30 3287 C 303.958 2.30723 -0.059684 0
M  V30 3288 C 304.928 1.48079 0.752448 0
M  V30 3289 O 306.113 1.76823 0.71681 0
M  V30 3290 C 303.253 3.34274 0.857594 0
M  V30 3291 C 302.366 4.31986 0.0351536 0
M  V30 3292 C 301.501 5.22605 0.951724 0
M  V30 3293 C 300.54 6.11976 0.123253 0
M  V30 3294 N 299.677 6.9502 0.99459 0
M  V30 3295 H 304.517 2.86074 -0.834596 0
M  V30 3296 H 302.054 1.40879 -0.42326 0
M  V30 3297 H 304.012 3.92879 1.40364 0
M  V30 3298 H 302.642 2.8043 1.59871 0
M  V30 3299 H 301.694 3.7518 -0.628052 0
M  V30 3300 H 303.006 4.95101 -0.606347 0
M  V30 3301 H 302.16 5.86131 1.56638 0
M  V30 3302 H 300.899 4.59759 1.62705 0
M  V30 3303 H 299.904 5.47482 -0.50435 0
M  V30 3304 H 301.129 6.76881 -0.548539 0
M  V30 3305 H 299.075 6.34764 1.6556 0
M  V30 3306 H 298.992 7.54892 0.40908 0
M  V30 3307 H 300.26 7.62997 1.59549 0
M  V30 3308 N 304.489 0.459591 1.5075 0
M  V30 3309 C 305.399 -0.34613 2.32033 0
M  V30 3310 C 306.415 -1.00686 1.41909 0
M  V30 3311 O 307.591 -0.997361 1.7497 0
M  V30 3312 C 304.656 -1.42029 3.16273 0
M  V30 3313 C 303.717 -0.777362 4.22203 0
M  V30 3314 C 302.95 -1.80034 5.02418 0
M  V30 3315 O 303.173 -3.02544 4.83553 0
M  V30 3316 O 302.107 -1.37853 5.85901 0
M  V30 3317 H 305.933 0.318054 3.0203 0
M  V30 3318 H 303.518 0.221663 1.47746 0
M  V30 3319 H 305.4 -2.04275 3.68578 0
M  V30 3320 H 304.075 -2.06815 2.49016 0
M  V30 3321 H 302.982 -0.116256 3.73919 0
M  V30 3322 H 304.315 -0.172634 4.91897 0
M  V30 3323 N 305.967 -1.56429 0.191757 0
M  V30 3324 C 307.244 -1.89224 -0.495332 0
M  V30 3325 C 307.624 -1.10478 -1.79883 0
M  V30 3326 O 306.972 -0.204852 -2.2758 0
M  V30 3327 C 307.182 -3.41548 -0.717367 0
M  V30 3328 C 308.53 -4.11711 -1.03823 0
M  V30 3329 O 309.554 -3.4698 -0.805204 0
M  V30 3330 O 308.413 -5.2611 -1.47887 0
M  V30 3331 H 305.507 -0.785788 -0.25781 0
M  V30 3332 H 308.053 -1.68111 0.231721 0
M  V30 3333 H 306.825 -3.90772 0.203287 0
M  V30 3334 H 306.448 -3.68342 -1.497 0
M  V30 3335 N 307.445 0.0818655 -1.57387 0
M  V30 3336 C 308.692 0.782914 -1.86753 0
M  V30 3337 C 309.02 1.78082 -0.782118 0
M  V30 3338 O 308.275 1.94426 0.22295 0
M  V30 3339 C 308.574 1.53513 -3.22752 0
M  V30 3340 C 308.24 0.678134 -4.45771 0
M  V30 3341 C 306.902 0.441929 -4.79166 0
M  V30 3342 C 309.254 0.0832243 -5.21134 0
M  V30 3343 C 306.582 -0.398833 -5.85343 0
M  V30 3344 C 308.934 -0.744935 -6.28199 0
M  V30 3345 C 307.598 -0.991107 -6.60101 0
M  V30 3346 H 306.868 0.286489 -0.683378 0
M  V30 3347 H 309.515 0.0439808 -1.91449 0
M  V30 3348 H 307.82 2.34599 -3.138 0
M  V30 3349 H 309.517 2.08218 -3.42705 0
M  V30 3350 H 306.107 0.872357 -4.19628 0
M  V30 3351 H 310.291 0.252847 -4.95655 0
M  V30 3352 H 305.547 -0.598405 -6.08465 0
M  V30 3353 H 309.721 -1.21271 -6.8576 0
M  V30 3354 H 307.348 -1.64437 -7.42202 0
M  V30 3355 N 308.923 1.53595 0.353017 0
M  V30 3356 C 310.148 1.7462 1.11904 0
M  V30 3357 C 310.573 0.479721 1.8188 0
M  V30 3358 O 309.931 -0.567066 1.72204 0
M  V30 3359 C 309.979 2.92029 2.11545 0
M  V30 3360 O 309.083 2.61516 3.18878 0
M  V30 3361 H 308.424 0.579531 0.324099 0
M  V30 3362 H 310.954 2.00525 0.406301 0
M  V30 3363 H 310.964 3.18551 2.5493 0
M  V30 3364 H 309.639 3.83888 1.60008 0
M  V30 3365 H 308.216 2.45852 2.80377 0
M  V30 3366 N 310.401 -0.613514 1.45168 0
M  V30 3367 C 311.629 -1.39946 1.5239 0
M  V30 3368 C 312.044 -1.88167 0.154531 0
M  V30 3369 O 311.401 -1.61872 -0.842843 0
M  V30 3370 C 311.452 -2.60795 2.50337 0
M  V30 3371 O 311.173 -2.1458 3.81952 0
M  V30 3372 C 312.674 -3.53723 2.67198 0
M  V30 3373 H 309.894 -0.428593 0.516284 0
M  V30 3374 H 312.438 -0.748753 1.903 0
M  V30 3375 H 310.593 -3.21919 2.15515 0
M  V30 3376 H 311.007 -2.93055 4.34993 0
M  V30 3377 H 312.481 -4.35079 3.39721 0
M  V30 3378 H 312.958 -4.0368 1.73029 0
M  V30 3379 H 313.564 -2.98456 3.02992 0
M  V30 3380 N 311.879 -1.3236 -0.855495 0
M  V30 3381 C 313.107 -1.2587 -1.64208 0
M  V30 3382 C 313.522 0.173457 -1.88002 0
M  V30 3383 O 312.879 1.11027 -1.44842 0
M  V30 3384 C 312.93 -2.01424 -3.00184 0
M  V30 3385 O 312.651 -3.39051 -2.77445 0
M  V30 3386 C 314.152 -2.01948 -3.94629 0
M  V30 3387 H 311.372 -0.434318 -0.511477 0
M  V30 3388 H 313.916 -1.74469 -1.0668 0
M  V30 3389 H 312.071 -1.56549 -3.5436 0
M  V30 3390 H 312.485 -3.77711 -3.63916 0
M  V30 3391 H 313.959 -2.59297 -4.87308 0
M  V30 3392 H 314.436 -1.00554 -4.27534 0
M  V30 3393 H 315.042 -2.46767 -3.4639 0
M  V30 3394 N 313.357 1.07166 -1.15556 0
M  V30 3395 C 314.605 1.79443 -0.929764 0
M  V30 3396 C 314.926 1.87246 0.544414 0
M  V30 3397 O 314.196 1.37473 1.39564 0
M  V30 3398 H 312.776 0.664625 -0.341003 0
M  V30 3399 H 315.438 1.29499 -1.45657 0
M  V30 3400 H 314.534 2.81832 -1.34079 0
M  V30 3401 N 314.835 0.952656 1.25548 0
M  V30 3402 C 316.063 0.623496 1.97282 0
M  V30 3403 C 316.478 -0.803987 1.70826 0
M  V30 3404 O 315.835 -1.53755 0.983147 0
M  V30 3405 C 315.886 0.870209 3.5087 0
M  V30 3406 O 315.607 2.24156 3.76412 0
M  V30 3407 C 317.108 0.553164 4.39835 0
M  V30 3408 H 314.328 0.233931 0.628902 0
M  V30 3409 H 316.872 1.27649 1.59768 0
M  V30 3410 H 315.027 0.263652 3.86502 0
M  V30 3411 H 315.441 2.31021 4.70882 0
M  V30 3412 H 316.915 0.776342 5.46513 0
M  V30 3413 H 317.392 -0.512215 4.36203 0
M  V30 3414 H 317.998 1.13896 4.09766 0
M  V30 3415 N 316.313 -1.40141 0.720998 0
M  V30 3416 C 317.276 -2.29058 0.0805834 0
M  V30 3417 C 318.276 -1.45632 -0.681758 0
M  V30 3418 O 319.466 -1.6648 -0.512856 0
M  V30 3419 C 316.598 -3.28925 -0.895593 0
M  V30 3420 H 317.791 -2.87191 0.863793 0
M  V30 3421 H 315.344 -1.48553 0.485975 0
M  V30 3422 H 316.079 -2.75822 -1.70566 0
M  V30 3423 H 315.864 -3.90519 -0.351766 0
M  V30 3424 H 317.354 -3.95494 -1.34069 0
M  V30 3425 N 317.792 -0.46758 -1.50504 0
M  V30 3426 C 319.022 0.086288 -2.0642 0
M  V30 3427 C 319.43 1.34369 -1.33197 0
M  V30 3428 O 318.773 1.79431 -0.393747 0
M  V30 3429 C 318.835 0.443846 -3.5675 0
M  V30 3430 C 318.499 -0.711035 -4.51435 0
M  V30 3431 C 319.496 -1.59205 -4.94924 0
M  V30 3432 C 317.181 -0.900363 -4.94165 0
M  V30 3433 C 319.175 -2.64683 -5.79846 0
M  V30 3434 C 316.862 -1.95837 -5.7887 0
M  V30 3435 C 317.86 -2.82997 -6.21612 0
M  V30 3436 O 317.548 -3.86977 -7.0463 0
M  V30 3437 H 317.28 -0.00217814 -0.675996 0
M  V30 3438 H 319.834 -0.654346 -1.94698 0
M  V30 3439 H 318.064 1.23762 -3.6636 0
M  V30 3440 H 319.753 0.932386 -3.95046 0
M  V30 3441 H 320.519 -1.45745 -4.62583 0
M  V30 3442 H 316.398 -0.231427 -4.60419 0
M  V30 3443 H 319.942 -3.32745 -6.13128 0
M  V30 3444 H 315.839 -2.09305 -6.10624 0
M  V30 3445 H 316.607 -3.83923 -7.22873 0
M  V30 3446 N 319.27 1.56325 -0.20005 0
M  V30 3447 C 320.517 1.97719 0.437411 0
M  V30 3448 C 320.845 1.08709 1.61284 0
M  V30 3449 O 320.1 0.127261 1.95286 0
M  V30 3450 C 320.399 3.4495 0.935103 0
M  V30 3451 C 320.065 4.5072 -0.12749 0
M  V30 3452 C 318.727 4.79368 -0.419451 0
M  V30 3453 C 321.079 5.14268 -0.847231 0
M  V30 3454 C 318.407 5.68854 -1.43604 0
M  V30 3455 C 320.759 6.04852 -1.85301 0
M  V30 3456 C 319.423 6.31855 -2.15211 0
M  V30 3457 H 318.693 0.723507 0.16006 0
M  V30 3458 H 321.34 1.89166 -0.298056 0
M  V30 3459 H 319.645 3.50599 1.74894 0
M  V30 3460 H 321.342 3.74337 1.43781 0
M  V30 3461 H 317.932 4.28458 0.11023 0
M  V30 3462 H 322.116 4.92222 -0.634901 0
M  V30 3463 H 317.372 5.88047 -1.67364 0
M  V30 3464 H 321.546 6.53152 -2.41591 0
M  V30 3465 H 319.173 7.00994 -2.94129 0
M  V30 3466 N 320.748 -0.0735177 1.57428 0
M  V30 3467 C 321.658 -1.10547 2.06922 0
M  V30 3468 C 322.674 -1.42506 0.998402 0
M  V30 3469 O 323.85 -1.52717 1.31299 0
M  V30 3470 C 320.915 -2.40019 2.50184 0
M  V30 3471 C 319.976 -2.15046 3.71556 0
M  V30 3472 C 319.209 -3.38345 4.12745 0
M  V30 3473 O 319.432 -4.47399 3.53822 0
M  V30 3474 O 318.366 -3.2666 5.05546 0
M  V30 3475 H 322.192 -0.715013 2.95163 0
M  V30 3476 H 319.777 -0.287531 1.46607 0
M  V30 3477 H 321.659 -3.16218 2.78539 0
M  V30 3478 H 320.334 -2.78447 1.65072 0
M  V30 3479 H 319.241 -1.36558 3.48285 0
M  V30 3480 H 320.574 -1.81499 4.57514 0
M  V30 3481 N 322.226 -1.5378 -0.344866 0
M  V30 3482 C 323.472 -1.71216 -1.08687 0
M  V30 3483 C 323.805 -0.473281 -1.88345 0
M  V30 3484 O 323.08 0.52968 -1.87149 0
M  V30 3485 C 323.363 -2.97486 -2.02914 0
M  V30 3486 C 323.216 -4.31579 -1.26727 0
M  V30 3487 C 324.535 -3.19422 -3.0275 0
M  V30 3488 H 321.654 -0.62301 -0.393735 0
M  V30 3489 H 324.296 -1.8645 -0.365563 0
M  V30 3490 H 322.446 -2.84629 -2.64421 0
M  V30 3491 H 324.118 -4.56284 -0.67845 0
M  V30 3492 H 322.361 -4.30049 -0.569273 0
M  V30 3493 H 323.032 -5.16106 -1.95803 0
M  V30 3494 H 325.508 -3.316 -2.51357 0
M  V30 3495 H 324.384 -4.09169 -3.65885 0
M  V30 3496 H 324.645 -2.35656 -3.74057 0
M  V30 3497 N 323.704 0.605807 -1.45491 0
M  V30 3498 C 324.651 1.7164 -1.54299 0
M  V30 3499 C 325.621 1.61486 -0.388761 0
M  V30 3500 O 326.806 1.81039 -0.602445 0
M  V30 3501 C 323.946 3.09953 -1.51734 0
M  V30 3502 C 323.059 3.309 -2.77721 0
M  V30 3503 C 322.194 4.59329 -2.66816 0
M  V30 3504 C 321.233 4.7354 -3.87848 0
M  V30 3505 N 320.37 5.9327 -3.75467 0
M  V30 3506 H 325.21 1.63449 -2.49176 0
M  V30 3507 H 322.747 0.796957 -1.23641 0
M  V30 3508 H 324.705 3.89977 -1.48235 0
M  V30 3509 H 323.335 3.17098 -0.604068 0
M  V30 3510 H 322.387 2.44639 -2.913 0
M  V30 3511 H 323.699 3.37274 -3.67488 0
M  V30 3512 H 322.853 5.4755 -2.61292 0
M  V30 3513 H 321.592 4.55355 -1.74651 0
M  V30 3514 H 320.597 3.83741 -3.93729 0
M  V30 3515 H 321.822 4.79309 -4.81082 0
M  V30 3516 H 319.768 5.90338 -2.86072 0
M  V30 3517 H 319.685 6.00811 -4.5887 0
M  V30 3518 H 320.953 6.83984 -3.73879 0
M  V30 3519 N 325.182 1.32811 0.848464 0
M  V30 3520 C 326.092 1.24278 1.98978 0
M  V30 3521 C 327.108 0.155176 1.73307 0
M  V30 3522 O 328.284 0.376999 1.9784 0
M  V30 3523 C 325.349 0.972444 3.32783 0
M  V30 3524 C 324.41 2.14911 3.71634 0
M  V30 3525 C 323.643 1.89157 4.99054 0
M  V30 3526 O 323.866 0.837165 5.64223 0
M  V30 3527 O 322.8 2.75433 5.35183 0
M  V30 3528 H 326.626 2.20238 2.09115 0
M  V30 3529 H 324.211 1.12762 0.980052 0
M  V30 3530 H 326.093 0.838432 4.12975 0
M  V30 3531 H 324.768 0.043051 3.23671 0
M  V30 3532 H 323.675 2.33862 2.91992 0
M  V30 3533 H 325.008 3.06151 3.85399 0
M  V30 3534 N 326.66 -1.06551 1.16123 0
M  V30 3535 C 327.89 -1.8274 0.963838 0
M  V30 3536 C 328.298 -1.82712 -0.491228 0
M  V30 3537 O 327.641 -1.24294 -1.35265 0
M  V30 3538 C 327.703 -3.3065 1.41106 0
M  V30 3539 C 327.367 -3.54384 2.88549 0
M  V30 3540 C 328.364 -3.4765 3.86569 0
M  V30 3541 C 326.049 -3.81789 3.26408 0
M  V30 3542 C 328.043 -3.67982 5.2045 0
M  V30 3543 C 325.73 -4.01772 4.60459 0
M  V30 3544 C 326.728 -3.94866 5.57288 0
M  V30 3545 O 326.416 -4.14306 6.88916 0
M  V30 3546 H 326.148 -0.583136 0.341948 0
M  V30 3547 H 328.702 -1.35351 1.54497 0
M  V30 3548 H 326.932 -3.78887 0.773394 0
M  V30 3549 H 328.621 -3.88324 1.1815 0
M  V30 3550 H 329.387 -3.2647 3.58667 0
M  V30 3551 H 325.266 -3.86276 2.51619 0
M  V30 3552 H 328.81 -3.62507 5.96015 0
M  V30 3553 H 324.707 -4.2244 4.88072 0
M  V30 3554 H 325.475 -4.31609 6.95454 0
M  V30 3555 N 328.138 -0.959301 -1.25041 0
M  V30 3556 C 329.384 -0.617525 -1.9317 0
M  V30 3557 C 329.717 0.843981 -1.74902 0
M  V30 3558 O 328.992 1.60615 -1.09696 0
M  V30 3559 C 329.275 -0.982736 -3.46431 0
M  V30 3560 C 329.128 -2.50032 -3.73904 0
M  V30 3561 C 330.447 -0.511176 -4.37121 0
M  V30 3562 H 327.566 -0.22582 -0.701552 0
M  V30 3563 H 330.208 -1.19679 -1.4757 0
M  V30 3564 H 328.358 -0.489806 -3.854 0
M  V30 3565 H 330.03 -3.06737 -3.44544 0
M  V30 3566 H 328.273 -2.93598 -3.19348 0
M  V30 3567 H 328.944 -2.70635 -4.81103 0
M  V30 3568 H 331.42 -0.934075 -4.0548 0
M  V30 3569 H 330.296 -0.795361 -5.43107 0
M  V30 3570 H 330.557 0.588834 -4.38161 0
M  V30 3571 N 329.616 1.39756 -0.72842 0
M  V30 3572 C 330.546 2.33289 -0.0991354 0
M  V30 3573 C 331.527 1.53568 0.731489 0
M  V30 3574 O 332.712 1.81987 0.677807 0
M  V30 3575 C 329.842 3.3763 0.813834 0
M  V30 3576 C 328.796 4.2791 0.0878663 0
M  V30 3577 C 328.122 5.22894 1.11741 0
M  V30 3578 C 329.422 5.11314 -1.06563 0
M  V30 3579 H 331.116 2.86163 -0.880408 0
M  V30 3580 H 328.662 1.37591 -0.424819 0
M  V30 3581 H 330.615 4.0201 1.26355 0
M  V30 3582 H 329.339 2.83181 1.62715 0
M  V30 3583 H 327.998 3.65 -0.342159 0
M  V30 3584 H 327.646 4.64744 1.92412 0
M  V30 3585 H 327.346 5.84143 0.636477 0
M  V30 3586 H 328.87 5.90151 1.56697 0
M  V30 3587 H 330.284 5.69076 -0.694671 0
M  V30 3588 H 328.681 5.81671 -1.47577 0
M  V30 3589 H 329.751 4.46534 -1.89038 0
M  V30 3590 N 331.094 0.475555 1.50254 0
M  V30 3591 C 332.505 0.0215174 1.86688 0
M  V30 3592 C 332.856 -1.38467 1.39001 0
M  V30 3593 O 331.981 -2.02732 0.756894 0
M  V30 3594 C 332.576 0.0322715 3.38785 0
M  V30 3595 C 331.135 -0.366314 3.74613 0
M  V30 3596 C 330.282 0.415832 2.74164 0
M  V30 3597 H 333.233 0.689612 1.42934 0
M  V30 3598 H 333.254 -0.76889 3.7265 0
M  V30 3599 H 332.766 1.05584 3.73462 0
M  V30 3600 H 330.867 -1.39406 3.45538 0
M  V30 3601 H 330.98 -0.064555 4.79057 0
M  V30 3602 H 329.344 -0.131048 2.54363 0
M  V30 3603 H 330.127 1.43899 3.11686 0
M  V30 3604 N 332.573 -1.56217 0.208337 0
M  V30 3605 C 333.523 -2.16324 -0.720281 0
M  V30 3606 C 334.507 -1.10775 -1.16695 0
M  V30 3607 O 335.699 -1.36801 -1.12314 0
M  V30 3608 C 332.828 -2.83644 -1.93393 0
M  V30 3609 C 331.914 -3.96401 -1.50755 0
M  V30 3610 N 332.305 -4.99546 -0.792937 0
M  V30 3611 C 330.603 -4.08246 -1.79585 0
M  V30 3612 C 331.304 -5.78828 -0.577364 0
M  V30 3613 N 330.28 -5.31723 -1.1301 0
M  V30 3614 H 334.082 -2.93432 -0.165725 0
M  V30 3615 H 331.596 -1.62397 0.00906463 0
M  V30 3616 H 333.593 -3.25107 -2.60981 0
M  V30 3617 H 332.253 -2.08027 -2.49308 0
M  V30 3618 H 333.264 -5.15967 -0.447004 0
M  V30 3619 H 329.941 -3.4377 -2.36915 0
M  V30 3620 H 331.331 -6.71899 -0.00952956 0
M  V30 3621 N 334.051 0.0651679 -1.57465 0
M  V30 3622 C 335.298 0.763063 -1.87573 0
M  V30 3623 C 335.626 1.77242 -0.800961 0
M  V30 3624 O 334.881 1.94651 0.202316 0
M  V30 3625 C 335.18 1.50081 -3.24362 0
M  V30 3626 C 334.846 0.630816 -4.46466 0
M  V30 3627 C 333.508 0.391082 -4.79608 0
M  V30 3628 C 335.86 0.0279465 -5.21193 0
M  V30 3629 C 333.188 -0.460894 -5.84887 0
M  V30 3630 C 335.54 -0.811522 -6.27373 0
M  V30 3631 C 334.204 -1.06106 -6.59013 0
M  V30 3632 H 333.474 0.279224 -0.686378 0
M  V30 3633 H 336.121 0.0236726 -1.91485 0
M  V30 3634 H 334.426 2.31258 -3.16271 0
M  V30 3635 H 336.123 2.04571 -3.44894 0
M  V30 3636 H 332.713 0.8278 -4.2053 0
M  V30 3637 H 336.897 0.200262 -4.95896 0
M  V30 3638 H 332.153 -0.662907 -6.07796 0
M  V30 3639 H 336.327 -1.28537 -6.84435 0
M  V30 3640 H 333.954 -1.723 -7.40417 0
M  V30 3641 N 335.529 1.53961 0.336706 0
M  V30 3642 C 336.754 1.75797 1.10046 0
M  V30 3643 C 337.179 0.498985 1.81361 0
M  V30 3644 O 336.537 -0.548769 1.72795 0
M  V30 3645 C 336.585 2.94257 2.08436 0
M  V30 3646 O 335.689 2.64883 3.16087 0
M  V30 3647 H 335.03 0.582936 0.317934 0
M  V30 3648 H 337.56 2.00945 0.38501 0
M  V30 3649 H 337.57 3.21237 2.51537 0
M  V30 3650 H 336.245 3.85564 1.55927 0
M  V30 3651 H 334.822 2.48812 2.77753 0
M  V30 3652 N 337.007 -0.598083 1.45811 0
M  V30 3653 C 338.253 -1.35882 1.50545 0
M  V30 3654 C 338.586 -1.93616 0.150445 0
M  V30 3655 O 337.861 -1.75604 -0.83628 0
M  V30 3656 C 338.144 -2.49966 2.59208 0
M  V30 3657 C 337.997 -1.97367 4.04186 0
M  V30 3658 C 339.316 -3.52068 2.64076 0
M  V30 3659 H 336.435 -0.492717 0.548087 0
M  V30 3660 H 339.077 -0.673319 1.77669 0
M  V30 3661 H 337.227 -3.08443 2.3621 0
M  V30 3662 H 338.899 -1.43466 4.38423 0
M  V30 3663 H 337.142 -1.283 4.14393 0
M  V30 3664 H 337.813 -2.79649 4.75921 0
M  V30 3665 H 340.289 -3.03448 2.84708 0
M  V30 3666 H 339.165 -4.2937 3.41954 0
M  V30 3667 H 339.426 -4.08304 1.69531 0
M  V30 3668 N 338.485 -1.33259 -0.841409 0
M  V30 3669 C 339.71 -1.2775 -1.63385 0
M  V30 3670 C 340.135 0.149188 -1.87507 0
M  V30 3671 O 339.493 1.10498 -1.43736 0
M  V30 3672 C 339.541 -2.05571 -2.96265 0
M  V30 3673 O 338.645 -1.41257 -3.87453 0
M  V30 3674 H 337.986 -0.439627 -0.497618 0
M  V30 3675 H 340.516 -1.75782 -1.04699 0
M  V30 3676 H 340.526 -2.16241 -3.45982 0
M  V30 3677 H 339.201 -3.09309 -2.7803 0
M  V30 3678 H 337.778 -1.39217 -3.45938 0
M  V30 3679 N 339.963 1.05934 -1.16686 0
M  V30 3680 C 341.212 1.78188 -0.945085 0
M  V30 3681 C 341.525 1.88338 0.528021 0
M  V30 3682 O 342.731 2.57258 0.867799 0
M  V30 3683 C 341.187 3.20277 -1.64167 0
M  V30 3684 C 340.795 3.18281 -3.15279 0
M  V30 3685 C 342.539 3.97039 -1.502 0
M  V30 3686 C 340.446 4.55112 -3.7766 0
M  V30 3687 H 339.376 0.667866 -0.349959 0
M  V30 3688 H 342.027 1.18794 -1.39858 0
M  V30 3689 H 340.409 3.79952 -1.11589 0
M  V30 3690 H 341.583 2.68167 -3.74731 0
M  V30 3691 H 339.898 2.55018 -3.29173 0
M  V30 3692 H 342.495 4.98194 -1.94183 0
M  V30 3693 H 342.838 4.13845 -0.451461 0
M  V30 3694 H 343.371 3.43894 -1.99954 0
M  V30 3695 H 340.11 4.43512 -4.82677 0
M  V30 3696 H 339.63 5.05406 -3.22994 0
M  V30 3697 H 341.309 5.24064 -3.79428 0
M  V30 3698 N 341.441 0.965919 1.2453 0
M  V30 3699 C 342.351 0.502154 2.29163 0
M  V30 3700 C 343.367 -0.436017 1.68448 0
M  V30 3701 O 344.543 -0.309497 1.99008 0
M  V30 3702 C 341.608 -0.201956 3.46111 0
M  V30 3703 C 340.669 0.775821 4.22232 0
M  V30 3704 C 339.902 0.105217 5.33596 0
M  V30 3705 O 340.125 -1.10683 5.59558 0
M  V30 3706 O 339.059 0.796475 5.96607 0
M  V30 3707 H 342.885 1.37194 2.70946 0
M  V30 3708 H 340.47 0.732875 1.30189 0
M  V30 3709 H 342.352 -0.597564 4.17142 0
M  V30 3710 H 341.027 -1.04673 3.06309 0
M  V30 3711 H 339.934 1.22185 3.53584 0
M  V30 3712 H 341.267 1.58896 4.65846 0
M  V30 3713 N 342.919 -1.39368 0.735821 0
M  V30 3714 C 344.33 -1.83313 0.354015 0
M  V30 3715 C 344.681 -1.61461 -1.11466 0
M  V30 3716 O 343.806 -1.10621 -1.85989 0
M  V30 3717 C 344.401 -3.32781 0.635769 0
M  V30 3718 C 342.96 -3.75142 0.307448 0
M  V30 3719 C 342.107 -2.62358 0.897974 0
M  V30 3720 H 345.058 -1.28349 0.933398 0
M  V30 3721 H 345.079 -3.80388 -0.0921773 0
M  V30 3722 H 344.591 -3.48654 1.70476 0
M  V30 3723 H 342.692 -3.64857 -0.755674 0
M  V30 3724 H 342.805 -4.72532 0.790583 0
M  V30 3725 H 341.169 -2.52624 0.324551 0
M  V30 3726 H 341.952 -2.81036 1.97164 0
M  V30 3727 N 344.397 -0.483516 -1.5 0
M  V30 3728 C 345.307 0.309172 -2.32554 0
M  V30 3729 C 346.323 0.984159 -1.43493 0
M  V30 3730 O 347.499 0.969399 -1.76535 0
M  V30 3731 C 344.564 1.36979 -3.18493 0
M  V30 3732 C 343.625 0.710095 -4.23387 0
M  V30 3733 C 342.858 1.72018 -5.05218 0
M  V30 3734 O 343.081 2.94813 -4.88305 0
M  V30 3735 O 342.015 1.28515 -5.8802 0
M  V30 3736 H 345.841 -0.366064 -3.01486 0
M  V30 3737 H 343.426 -0.24514 -1.47375 0
M  V30 3738 H 345.308 1.98385 -3.71781 0
M  V30 3739 H 343.983 2.02828 -2.52275 0
M  V30 3740 H 342.89 0.0567539 -3.74057 0
M  V30 3741 H 344.223 0.0943557 -4.9211 0
M  V30 3742 N 345.875 1.56104 -0.216619 0
M  V30 3743 C 347.105 2.02269 0.420802 0
M  V30 3744 C 347.513 1.09575 1.5424 0
M  V30 3745 O 346.856 0.0967308 1.83445 0
M  V30 3746 C 346.918 3.44784 1.01806 0
M  V30 3747 C 346.582 4.56988 0.0325154 0
M  V30 3748 C 347.579 5.14225 -0.766055 0
M  V30 3749 C 345.264 5.02228 -0.0848092 0
M  V30 3750 C 347.258 6.15169 -1.6687 0
M  V30 3751 C 344.945 6.03011 -0.990994 0
M  V30 3752 C 345.943 6.59357 -1.78149 0
M  V30 3753 O 345.631 7.58179 -2.67245 0
M  V30 3754 H 345.363 0.667353 0.107776 0
M  V30 3755 H 347.917 2.02747 -0.329034 0
M  V30 3756 H 346.147 3.41359 1.81689 0
M  V30 3757 H 347.836 3.74626 1.56237 0
M  V30 3758 H 348.602 4.80126 -0.685836 0
M  V30 3759 H 344.481 4.58054 0.520349 0
M  V30 3760 H 348.025 6.59076 -2.28615 0
M  V30 3761 H 343.922 6.36532 -1.07225 0
M  V30 3762 H 344.69 7.75682 -2.61265 0
M  V30 3763 N 347.353 -0.0568162 1.57498 0
M  V30 3764 C 348.301 -1.08452 2.05769 0
M  V30 3765 C 349.295 -1.39164 0.965903 0
M  V30 3766 O 350.501 -1.38395 1.15095 0
M  V30 3767 H 346.876 -0.367148 0.656282 0
M  V30 3768 H 348.847 -0.651368 2.91204 0
M  V30 3769 C 347.596 -2.38543 2.52968 0
M  V30 3770 H 346.919 -2.15765 3.36579 0
M  V30 3771 H 348.359 -3.08863 2.90481 0
M  V30 3772 C 346.818 -3.05562 1.41893 0
M  V30 3773 O 347.348 -3.94262 0.769442 0
M  V30 3774 N 345.554 -2.6643 1.16032 0
M  V30 3775 H 345.101 -1.94387 1.6903 0
M  V30 3776 H 345.059 -3.11593 0.419219 0
M  V30 3777 N 348.832 -1.54138 -0.328536 0
M  V30 3778 C 350.079 -1.72105 -1.06706 0
M  V30 3779 C 350.407 -0.492111 -1.88171 0
M  V30 3780 O 349.662 0.526153 -1.88494 0
M  V30 3781 C 349.961 -2.9457 -2.02393 0
M  V30 3782 C 349.627 -4.29544 -1.37122 0
M  V30 3783 C 348.289 -4.6624 -1.19052 0
M  V30 3784 C 350.641 -5.1333 -0.902331 0
M  V30 3785 C 347.969 -5.84325 -0.527331 0
M  V30 3786 C 350.321 -6.32094 -0.252988 0
M  V30 3787 C 348.985 -6.67473 -0.0600901 0
M  V30 3788 H 348.255 -0.629775 -0.390466 0
M  V30 3789 H 350.902 -1.88372 -0.34473 0
M  V30 3790 H 349.207 -2.72969 -2.81061 0
M  V30 3791 H 350.904 -3.05665 -2.59557 0
M  V30 3792 H 347.494 -4.0067 -1.52188 0
M  V30 3793 H 351.678 -4.855 -1.02974 0
M  V30 3794 H 346.934 -6.103 -0.366634 0
M  V30 3795 H 351.108 -6.96299 0.118366 0
M  V30 3796 H 348.735 -7.58832 0.455828 0
M  V30 3797 N 350.31 0.590341 -1.46126 0
M  V30 3798 C 351.559 1.34499 -1.50309 0
M  V30 3799 C 351.872 1.94977 -0.156021 0
M  V30 3800 O 353.078 2.71395 -0.0756037 0
M  V30 3801 C 351.534 2.43723 -2.64815 0
M  V30 3802 C 351.142 1.89582 -4.0591 0
M  V30 3803 C 352.886 3.20579 -2.78262 0
M  V30 3804 C 350.793 2.9639 -5.11769 0
M  V30 3805 H 349.723 0.505593 -0.559368 0
M  V30 3806 H 352.374 0.630848 -1.72315 0
M  V30 3807 H 350.756 3.17902 -2.36124 0
M  V30 3808 H 351.93 1.21997 -4.44357 0
M  V30 3809 H 350.245 1.25418 -3.97063 0
M  V30 3810 H 352.842 4.00276 -3.54519 0
M  V30 3811 H 353.185 3.72684 -1.85505 0
M  V30 3812 H 353.718 2.53505 -3.06562 0
M  V30 3813 H 350.457 2.49181 -6.06291 0
M  V30 3814 H 349.977 3.62487 -4.77873 0
M  V30 3815 H 351.656 3.60474 -5.37278 0
M  V30 3816 N 351.788 1.33704 0.83433 0
M  V30 3817 C 353.036 1.25169 1.58673 0
M  V30 3818 C 353.357 -0.18127 1.94156 0
M  V30 3819 O 352.627 -1.11113 1.6134 0
M  V30 3820 H 351.207 0.4603 0.58833 0
M  V30 3821 H 353.869 1.67478 0.996847 0
M  V30 3822 H 352.965 1.84856 2.51465 0
M  V30 3823 N 353.266 -1.05314 1.17247 0
M  V30 3824 C 354.496 -1.81707 0.983166 0
M  V30 3825 C 354.904 -1.83222 -0.471822 0
M  V30 3826 O 354.247 -1.25721 -1.3394 0
M  V30 3827 C 354.309 -3.29134 1.44606 0
M  V30 3828 C 353.973 -3.51304 2.92292 0
M  V30 3829 C 354.97 -3.4353 3.90235 0
M  V30 3830 C 352.655 -3.78306 3.30439 0
M  V30 3831 C 354.649 -3.62442 5.24323 0
M  V30 3832 C 352.336 -3.96866 4.64694 0
M  V30 3833 C 353.334 -3.88933 5.61445 0
M  V30 3834 O 353.022 -4.06976 6.93272 0
M  V30 3835 H 352.754 -0.579476 0.348114 0
M  V30 3836 H 355.308 -1.33705 1.55924 0
M  V30 3837 H 353.538 -3.78046 0.813537 0
M  V30 3838 H 355.227 -3.87049 1.22262 0
M  V30 3839 H 355.993 -3.22648 3.62109 0
M  V30 3840 H 351.872 -3.83585 2.55702 0
M  V30 3841 H 355.416 -3.56165 5.99827 0
M  V30 3842 H 351.313 -4.1724 4.92525 0
M  V30 3843 H 352.081 -4.24209 6.99992 0
M  V30 3844 N 354.744 -0.972509 -1.24016 0
M  V30 3845 C 355.691 -0.505969 -2.25186 0
M  V30 3846 C 356.661 0.451009 -1.5986 0
M  V30 3847 O 357.846 0.360307 -1.87367 0
M  V30 3848 C 354.986 0.193089 -3.44559 0
M  V30 3849 C 354.099 -0.803222 -4.24467 0
M  V30 3850 C 353.234 -0.0797793 -5.3114 0
M  V30 3851 C 352.273 -1.06583 -6.02749 0
M  V30 3852 N 351.41 -0.372074 -7.01113 0
M  V30 3853 H 356.25 -1.37351 -2.64459 0
M  V30 3854 H 353.787 -0.688419 -1.29997 0
M  V30 3855 H 355.745 0.615125 -4.1264 0
M  V30 3856 H 354.375 1.02455 -3.06109 0
M  V30 3857 H 353.427 -1.34368 -3.55878 0
M  V30 3858 H 354.739 -1.55494 -4.73944 0
M  V30 3859 H 353.893 0.400015 -6.0538 0
M  V30 3860 H 352.632 0.704597 -4.82583 0
M  V30 3861 H 351.637 -1.55645 -5.27309 0
M  V30 3862 H 352.862 -1.85074 -6.53395 0
M  V30 3863 H 350.808 0.393238 -6.5482 0
M  V30 3864 H 350.725 -1.06258 -7.48495 0
M  V30 3865 H 351.993 0.0855932 -7.79453 0
M  V30 3866 N 356.222 1.38976 -0.743202 0
M  V30 3867 C 357.17 2.32394 -0.0978389 0
M  V30 3868 C 358.164 1.53486 0.716824 0
M  V30 3869 O 359.37 1.69092 0.617088 0
M  V30 3870 H 355.745 0.75189 -0.0128402 0
M  V30 3871 H 357.716 2.84441 -0.901981 0
M  V30 3872 C 356.465 3.38629 0.789036 0
M  V30 3873 H 355.788 3.99432 0.171559 0
M  V30 3874 H 357.228 4.06426 1.20807 0
M  V30 3875 C 355.687 2.76347 1.92702 0
M  V30 3876 O 356.217 2.64836 3.02034 0
M  V30 3877 N 354.423 2.34311 1.71891 0
M  V30 3878 H 353.97 2.43873 0.829675 0
M  V30 3879 H 353.928 1.9298 2.48205 0
M  V30 3880 N 357.7 0.491464 1.49741 0
M  V30 3881 C 358.947 -0.0564256 2.02421 0
M  V30 3882 C 359.275 -1.37872 1.37192 0
M  V30 3883 O 358.53 -1.89375 0.493508 0
M  V30 3884 C 358.829 -0.267329 3.56399 0
M  V30 3885 C 358.495 0.975775 4.40215 0
M  V30 3886 C 357.157 1.31655 4.62839 0
M  V30 3887 C 359.509 1.80251 4.89039 0
M  V30 3888 C 356.837 2.48375 5.31532 0
M  V30 3889 C 359.189 2.96116 5.59015 0
M  V30 3890 C 357.853 3.30585 5.79888 0
M  V30 3891 H 357.123 -0.0206476 0.740712 0
M  V30 3892 H 359.77 0.649686 1.80143 0
M  V30 3893 H 358.075 -1.05588 3.77304 0
M  V30 3894 H 359.772 -0.705549 3.94744 0
M  V30 3895 H 356.362 0.700315 4.2284 0
M  V30 3896 H 360.546 1.55239 4.71396 0
M  V30 3897 H 355.802 2.7533 5.45897 0
M  V30 3898 H 359.976 3.60509 5.95824 0
M  V30 3899 H 357.603 4.21132 6.32892 0
M  V30 3900 N 359.178 -1.55987 0.224894 0
M  V30 3901 C 360.125 -2.20436 -0.68385 0
M  V30 3902 C 361.095 -1.16102 -1.18783 0
M  V30 3903 O 362.28 -1.4447 -1.24632 0
M  V30 3904 C 359.42 -2.89076 -1.88491 0
M  V30 3905 C 358.533 -4.08012 -1.41951 0
M  V30 3906 C 357.668 -4.64426 -2.5784 0
M  V30 3907 C 356.707 -5.75656 -2.08053 0
M  V30 3908 N 355.844 -6.26347 -3.17227 0
M  V30 3909 H 360.684 -2.97727 -0.12754 0
M  V30 3910 H 358.221 -1.47011 -0.0511978 0
M  V30 3911 H 360.179 -3.27059 -2.59014 0
M  V30 3912 H 358.809 -2.14298 -2.41405 0
M  V30 3913 H 357.861 -3.75492 -0.609095 0
M  V30 3914 H 359.173 -4.88375 -1.01447 0
M  V30 3915 H 358.327 -5.04869 -3.3644 0
M  V30 3916 H 357.066 -3.83233 -3.01635 0
M  V30 3917 H 356.071 -5.34712 -1.27916 0
M  V30 3918 H 357.296 -6.58686 -1.65255 0
M  V30 3919 H 355.242 -5.48067 -3.60497 0
M  V30 3920 H 355.159 -7.01843 -2.80986 0
M  V30 3921 H 356.427 -6.71447 -3.95953 0
M  V30 3922 N 360.656 0.0484629 -1.57525 0
M  V30 3923 C 361.604 1.07359 -2.06341 0
M  V30 3924 C 362.598 1.3865 -0.973269 0
M  V30 3925 O 363.804 1.37783 -1.15827 0
M  V30 3926 H 360.179 0.363662 -0.65822 0
M  V30 3927 H 362.15 0.635916 -2.91545 0
M  V30 3928 C 360.899 2.37198 -2.54229 0
M  V30 3929 H 360.222 2.13977 -3.37719 0
M  V30 3930 H 361.662 3.07319 -2.92115 0
M  V30 3931 C 360.121 3.04805 -1.43511 0
M  V30 3932 O 360.651 3.93848 -0.79034 0
M  V30 3933 N 358.857 2.65811 -1.17444 0
M  V30 3934 H 358.404 1.93488 -1.70059 0
M  V30 3935 H 358.362 3.11366 -0.435737 0
M  V30 3936 N 362.134 1.5431 0.320358 0
M  V30 3937 C 363.381 1.72668 1.05792 0
M  V30 3938 C 363.709 0.502084 1.87908 0
M  V30 3939 O 362.964 -0.516149 1.88771 0
M  V30 3940 C 363.263 2.95639 2.00828 0
M  V30 3941 C 362.929 4.30265 1.34843 0
M  V30 3942 C 361.591 4.66865 1.16578 0
M  V30 3943 C 363.943 5.13801 0.875095 0
M  V30 3944 C 361.271 5.84597 0.496336 0
M  V30 3945 C 363.623 6.32219 0.219463 0
M  V30 3946 C 362.287 6.67495 0.0246915 0
M  V30 3947 H 361.557 0.631837 0.387121 0
M  V30 3948 H 364.204 1.88552 0.334735 0
M  V30 3949 H 362.509 2.74456 2.79609 0
M  V30 3950 H 364.206 3.07038 2.57932 0
M  V30 3951 H 360.796 4.01472 1.50061 0
M  V30 3952 H 364.98 4.86039 1.00398 0
M  V30 3953 H 360.236 6.10486 0.334264 0
M  V30 3954 H 364.41 6.96227 -0.155291 0
M  V30 3955 H 362.037 7.5858 -0.496065 0
M  V30 3956 N 363.613 -0.582584 1.46437 0
M  V30 3957 C 364.523 -1.71949 1.59595 0
M  V30 3958 C 365.539 -1.67264 0.479443 0
M  V30 3959 O 366.715 -1.87171 0.743579 0
M  V30 3960 C 363.78 -3.08452 1.58298 0
M  V30 3961 C 362.841 -3.244 2.81182 0
M  V30 3962 C 362.074 -4.54391 2.79937 0
M  V30 3963 O 362.297 -5.38287 1.8869 0
M  V30 3964 O 361.231 -4.73588 3.71481 0
M  V30 3965 H 365.057 -1.63795 2.55744 0
M  V30 3966 H 362.642 -0.749643 1.29231 0
M  V30 3967 H 364.524 -3.89732 1.60271 0
M  V30 3968 H 363.199 -3.17043 0.653094 0
M  V30 3969 H 362.106 -2.42613 2.84763 0
M  V30 3970 H 363.439 -3.20699 3.7338 0
M  V30 3971 N 365.091 -1.34144 -0.827227 0
M  V30 3972 C 366.34 -1.25602 -1.5782 0
M  V30 3973 C 366.653 0.173445 -1.94829 0
M  V30 3974 O 367.859 0.380984 -2.68814 0
M  V30 3975 C 366.315 -2.20151 -2.84713 0
M  V30 3976 C 365.923 -3.68331 -2.55021 0
M  V30 3977 C 367.667 -2.20508 -3.62735 0
M  V30 3978 C 365.574 -4.54762 -3.78082 0
M  V30 3979 H 364.504 -0.466573 -0.592306 0
M  V30 3980 H 367.155 -1.59283 -0.911116 0
M  V30 3981 H 365.537 -1.79417 -3.53023 0
M  V30 3982 H 366.711 -4.17577 -1.94849 0
M  V30 3983 H 365.026 -3.7038 -1.90283 0
M  V30 3984 H 367.623 -2.82306 -4.54101 0
M  V30 3985 H 367.966 -1.20322 -3.98533 0
M  V30 3986 H 368.499 -2.59664 -3.01362 0
M  V30 3987 H 365.238 -5.55867 -3.47407 0
M  V30 3988 H 364.758 -4.10254 -4.37552 0
M  V30 3989 H 366.437 -4.69153 -4.45538 0
M  V30 3990 N 366.569 1.04691 -1.17803 0
M  V30 3991 C 367.797 1.81446 -0.99423 0
M  V30 3992 C 368.212 1.83174 0.457459 0
M  V30 3993 O 367.569 1.26265 1.31771 0
M  V30 3994 C 367.62 3.27334 -1.5341 0
M  V30 3995 O 367.341 3.25798 -2.92895 0
M  V30 3996 C 368.842 4.20759 -1.39559 0
M  V30 3997 H 366.062 0.571599 -0.351447 0
M  V30 3998 H 368.606 1.31982 -1.56208 0
M  V30 3999 H 366.761 3.74052 -1.00815 0
M  V30 4000 H 367.175 4.17144 -3.17949 0
M  V30 4001 H 368.649 5.21084 -1.82141 0
M  V30 4002 H 369.126 4.37856 -0.343394 0
M  V30 4003 H 369.732 3.79901 -1.91195 0
M  V30 4004 N 368.047 0.979072 1.23499 0
M  V30 4005 C 369.296 0.642751 1.91185 0
M  V30 4006 C 369.609 -0.827253 1.77245 0
M  V30 4007 O 370.815 -1.27458 2.39722 0
M  V30 4008 C 369.271 1.09901 3.42709 0
M  V30 4009 C 368.879 2.59327 3.65313 0
M  V30 4010 C 370.623 0.836371 4.16179 0
M  V30 4011 C 368.53 2.98627 5.10467 0
M  V30 4012 H 367.46 0.236698 0.715884 0
M  V30 4013 H 370.111 1.1868 1.39955 0
M  V30 4014 H 368.493 0.48319 3.93041 0
M  V30 4015 H 369.667 3.26136 3.25533 0
M  V30 4016 H 367.982 2.83323 3.05151 0
M  V30 4017 H 370.579 1.10586 5.23139 0
M  V30 4018 H 370.922 -0.227509 4.15678 0
M  V30 4019 H 371.455 1.41371 3.71832 0
M  V30 4020 H 368.194 4.04133 5.16098 0
M  V30 4021 H 367.714 2.3651 5.51201 0
M  V30 4022 H 369.393 2.89159 5.78788 0
M  V30 4023 N 369.525 -1.3858 0.750561 0
M  V30 4024 C 370.472 -2.30483 0.120835 0
M  V30 4025 C 371.442 -1.50022 -0.712923 0
M  V30 4026 O 372.627 -1.78662 -0.669676 0
M  V30 4027 C 369.767 -3.36431 -0.768666 0
M  V30 4028 C 368.88 -4.31927 0.0793922 0
M  V30 4029 C 368.015 -5.24944 -0.81283 0
M  V30 4030 C 367.054 -6.12088 0.0390447 0
M  V30 4031 N 366.191 -6.97412 -0.809969 0
M  V30 4032 H 371.031 -2.83761 0.91015 0
M  V30 4033 H 368.568 -1.39707 0.460463 0
M  V30 4034 H 370.526 -3.96462 -1.29898 0
M  V30 4035 H 369.156 -2.8457 -1.5238 0
M  V30 4036 H 368.208 -3.73382 0.727303 0
M  V30 4037 H 369.52 -4.93319 0.737401 0
M  V30 4038 H 368.674 -5.90078 -1.41042 0
M  V30 4039 H 367.413 -4.63911 -1.50458 0
M  V30 4040 H 366.418 -5.45952 0.649328 0
M  V30 4041 H 367.643 -6.75189 0.727809 0
M  V30 4042 H 365.589 -6.38931 -1.48672 0
M  V30 4043 H 365.506 -7.55712 -0.208789 0
M  V30 4044 H 366.774 -7.66959 -1.39263 0
M  V30 4045 N 371.003 -0.499398 -1.49478 0
M  V30 4046 C 371.966 0.268838 -2.27618 0
M  V30 4047 C 372.966 0.895383 -1.33565 0
M  V30 4048 O 374.156 0.760164 -1.56739 0
M  V30 4049 C 371.288 1.38559 -3.11471 0
M  V30 4050 H 372.481 -0.416812 -2.96989 0
M  V30 4051 H 370.034 -0.254313 -1.54217 0
M  V30 4052 H 370.769 2.10544 -2.46661 0
M  V30 4053 H 370.554 0.941797 -3.80621 0
M  V30 4054 H 372.044 1.92678 -3.70493 0
M  V30 4055 N 372.481 1.55866 -0.233164 0
M  V30 4056 C 373.897 1.59133 0.121988 0
M  V30 4057 C 374.097 1.25016 1.58029 0
M  V30 4058 O 373.153 0.990922 2.32243 0
M  V30 4059 C 374.466 2.99932 -0.214792 0
M  V30 4060 C 376.014 3.12601 -0.157971 0
M  V30 4061 C 376.489 4.55597 -0.46859 0
M  V30 4062 N 377.98 4.61305 -0.418585 0
M  V30 4063 C 378.715 5.69903 -0.63227 0
M  V30 4064 N 378.211 6.86819 -0.90835 0
M  V30 4065 N 380.004 5.59264 -0.563913 0
M  V30 4066 H 372.155 1.76315 -1.18434 0
M  V30 4067 H 374.418 0.820093 -0.475553 0
M  V30 4068 H 374.124 3.29588 -1.22739 0
M  V30 4069 H 373.998 3.74327 0.464691 0
M  V30 4070 H 376.385 2.82735 0.845283 0
M  V30 4071 H 376.466 2.40511 -0.871102 0
M  V30 4072 H 376.11 4.86182 -1.46934 0
M  V30 4073 H 376.04 5.25928 0.265865 0
M  V30 4074 H 378.531 3.77297 -0.213368 0
M  V30 4075 H 378.844 7.65507 -1.05919 0
M  V30 4076 H 377.189 6.88536 -0.945673 0
M  V30 4077 H 380.38 4.66802 -0.348372 0
M  V30 4078 H 380.553 6.43831 -0.733847 0
M  V30 4079 N 373.959 -0.0401083 1.57549 0
M  V30 4080 C 375.189 -0.744115 1.92734 0
M  V30 4081 C 375.597 -1.70005 0.830348 0
M  V30 4082 O 374.94 -1.82576 -0.20286 0
M  V30 4083 C 375.002 -1.56516 3.2364 0
M  V30 4084 C 374.666 -0.7752 4.50377 0
M  V30 4085 C 375.663 -0.0803326 5.19838 0
M  V30 4086 C 373.348 -0.733002 4.96923 0
M  V30 4087 C 375.342 0.646154 6.34116 0
M  V30 4088 C 373.029 -0.00276321 6.111 0
M  V30 4089 C 374.027 0.685585 6.7955 0
M  V30 4090 O 373.715 1.40399 7.91545 0
M  V30 4091 H 373.447 -0.214861 0.640945 0
M  V30 4092 H 376.001 -0.00503675 2.05399 0
M  V30 4093 H 374.231 -2.3478 3.07271 0
M  V30 4094 H 375.92 -2.15076 3.44234 0
M  V30 4095 H 376.686 -0.104035 4.84888 0
M  V30 4096 H 372.565 -1.25827 4.43496 0
M  V30 4097 H 376.109 1.18398 6.87479 0
M  V30 4098 H 372.006 0.0229012 6.45496 0
M  V30 4099 H 372.774 1.31653 8.07843 0
M  V30 4100 N 375.437 -1.54477 -0.31217 0
M  V30 4101 C 376.684 -1.73227 -1.04875 0
M  V30 4102 C 377.012 -0.512042 -1.87639 0
M  V30 4103 O 376.267 0.506131 -1.89042 0
M  V30 4104 C 376.566 -2.967 -1.99258 0
M  V30 4105 C 376.232 -4.30974 -1.32559 0
M  V30 4106 C 374.894 -4.67477 -1.141 0
M  V30 4107 C 377.246 -5.14258 -0.847835 0
M  V30 4108 C 374.574 -5.84852 -0.465326 0
M  V30 4109 C 376.926 -6.32327 -0.185931 0
M  V30 4110 C 375.59 -6.67499 0.0107077 0
M  V30 4111 H 374.86 -0.633881 -0.383765 0
M  V30 4112 H 377.507 -1.88727 -0.324731 0
M  V30 4113 H 375.812 -2.75935 -2.7815 0
M  V30 4114 H 377.509 -3.08401 -2.563 0
M  V30 4115 H 374.099 -4.02262 -1.4793 0
M  V30 4116 H 378.283 -4.86565 -0.978192 0
M  V30 4117 H 373.539 -6.10654 -0.301883 0
M  V30 4118 H 377.713 -6.96135 0.192211 0
M  V30 4119 H 375.34 -7.58306 0.536287 0
M  V30 4120 N 376.915 0.57481 -1.46744 0
M  V30 4121 C 378.145 1.35659 -1.55821 0
M  V30 4122 C 378.553 1.88129 -0.201036 0
M  V30 4123 O 377.896 1.64723 0.813134 0
M  V30 4124 C 377.958 2.57473 -2.50894 0
M  V30 4125 C 377.622 2.26415 -3.9697 0
M  V30 4126 C 378.619 1.84771 -4.85958 0
M  V30 4127 C 376.304 2.38316 -4.42166 0
M  V30 4128 C 378.298 1.55434 -6.18158 0
M  V30 4129 C 375.985 2.08591 -5.74398 0
M  V30 4130 C 376.983 1.67216 -6.62214 0
M  V30 4131 O 376.671 1.37859 -7.91991 0
M  V30 4132 H 376.403 0.420496 -0.529301 0
M  V30 4133 H 378.957 0.704967 -1.92923 0
M  V30 4134 H 377.187 3.25468 -2.08824 0
M  V30 4135 H 378.876 3.19546 -2.50291 0
M  V30 4136 H 379.642 1.75085 -4.52295 0
M  V30 4137 H 375.521 2.69483 -3.74032 0
M  V30 4138 H 379.065 1.23065 -6.86659 0
M  V30 4139 H 374.962 2.17905 -6.07608 0
M  V30 4140 H 375.73 1.51638 -8.04331 0
M  V30 4141 N 378.394 1.34581 0.820102 0
M  V30 4142 C 379.342 1.26401 1.95258 0
M  V30 4143 C 380.336 0.161553 1.68628 0
M  V30 4144 O 381.542 0.326703 1.7701 0
M  V30 4145 H 377.917 0.392749 0.64129 0
M  V30 4146 H 379.888 2.22105 1.99279 0
M  V30 4147 C 378.637 1.03919 3.31807 0
M  V30 4148 H 377.96 1.87984 3.52848 0
M  V30 4149 H 379.4 1.02232 4.11491 0
M  V30 4150 C 377.859 -0.257433 3.35915 0
M  V30 4151 O 378.389 -1.25784 3.81499 0
M  V30 4152 N 376.595 -0.291524 2.89134 0
M  V30 4153 H 376.142 0.523161 2.52232 0
M  V30 4154 H 376.1 -1.15883 2.92264 0
M  V30 4155 N 379.872 -1.04064 1.18357 0
M  V30 4156 C 380.819 -2.12077 0.910603 0
M  V30 4157 C 381.789 -1.65421 -0.15 0
M  V30 4158 O 382.974 -1.90797 -0.0103614 0
M  V30 4159 C 380.114 -3.42252 0.442472 0
M  V30 4160 C 379.227 -4.0252 1.5685 0
M  V30 4161 C 378.362 -5.20657 1.05309 0
M  V30 4162 C 377.401 -5.72955 2.1538 0
M  V30 4163 N 376.538 -6.8238 1.65233 0
M  V30 4164 H 381.378 -2.34764 1.83548 0
M  V30 4165 H 378.915 -1.15157 0.915279 0
M  V30 4166 H 380.873 -4.16921 0.152534 0
M  V30 4167 H 379.503 -3.19712 -0.445428 0
M  V30 4168 H 378.555 -3.25178 1.97391 0
M  V30 4169 H 379.867 -4.37362 2.39824 0
M  V30 4170 H 379.021 -6.0244 0.717677 0
M  V30 4171 H 377.76 -4.87318 0.19293 0
M  V30 4172 H 376.765 -4.89793 2.49766 0
M  V30 4173 H 377.99 -6.08337 3.01832 0
M  V30 4174 H 375.936 -6.50917 0.815064 0
M  V30 4175 H 375.853 -7.16286 2.41805 0
M  V30 4176 H 377.121 -7.67788 1.34619 0
M  V30 4177 N 381.35 -0.985608 -1.22978 0
M  V30 4178 C 382.596 -0.65836 -1.91816 0
M  V30 4179 C 382.929 0.806692 -1.76653 0
M  V30 4180 O 382.204 1.58252 -1.13078 0
M  V30 4181 C 382.487 -1.056 -3.44268 0
M  V30 4182 C 382.34 -2.57906 -3.68516 0
M  V30 4183 C 383.659 -0.603781 -4.35939 0
M  V30 4184 H 380.778 -0.24065 -0.696604 0
M  V30 4185 H 383.42 -1.22783 -1.44998 0
M  V30 4186 H 381.57 -0.571445 -3.84274 0
M  V30 4187 H 383.242 -3.13976 -3.3796 0
M  V30 4188 H 381.485 -3.00305 -3.13048 0
M  V30 4189 H 382.156 -2.80779 -4.75255 0
M  V30 4190 H 384.632 -1.01987 -4.03408 0
M  V30 4191 H 383.508 -0.910383 -5.41298 0
M  V30 4192 H 383.769 0.495761 -4.39312 0
M  V30 4193 N 382.828 1.3818 -0.7579 0
M  V30 4194 C 384.074 2.00316 -0.316453 0
M  V30 4195 C 384.407 1.60026 1.10025 0
M  V30 4196 O 383.682 0.839835 1.75434 0
M  V30 4197 C 383.965 3.57349 -0.444245 0
M  V30 4198 C 383.818 4.07591 -1.90236 0
M  V30 4199 C 385.137 4.3981 0.1598 0
M  V30 4200 H 382.256 0.727741 -0.116459 0
M  V30 4201 H 384.898 1.6406 -0.958352 0
M  V30 4202 H 383.048 3.88365 0.102233 0
M  V30 4203 H 384.72 3.87199 -2.50748 0
M  V30 4204 H 382.963 3.60297 -2.41595 0
M  V30 4205 H 383.634 5.16677 -1.94291 0
M  V30 4206 H 386.11 4.14971 -0.306314 0
M  V30 4207 H 384.986 5.48885 0.0401675 0
M  V30 4208 H 385.247 4.24102 1.24859 0
M  V30 4209 N 384.306 0.507319 1.49211 0
M  V30 4210 C 385.534 -0.0315749 2.06876 0
M  V30 4211 C 385.949 -1.30241 1.36685 0
M  V30 4212 O 385.306 -1.76937 0.447152 0
M  V30 4213 C 385.357 -0.282627 3.60393 0
M  V30 4214 O 385.078 0.937835 4.27944 0
M  V30 4215 C 386.579 -0.864453 4.3479 0
M  V30 4216 H 383.799 0.0233048 0.670595 0
M  V30 4217 H 386.343 0.706484 1.91909 0
M  V30 4218 H 384.498 -0.97068 3.75042 0
M  V30 4219 H 384.912 0.704567 5.19746 0
M  V30 4220 H 386.386 -0.989664 5.43056 0
M  V30 4221 H 386.863 -1.86382 3.97692 0
M  V30 4222 H 387.469 -0.213672 4.24763 0
M  V30 4223 N 385.784 -1.5574 0.241426 0
M  V30 4224 C 386.694 -2.2479 -0.671305 0
M  V30 4225 C 387.71 -1.26217 -1.19772 0
M  V30 4226 O 388.886 -1.59079 -1.23514 0
M  V30 4227 C 385.951 -2.92966 -1.85396 0
M  V30 4228 C 385.012 -4.06935 -1.36756 0
M  V30 4229 C 384.245 -4.71851 -2.49384 0
M  V30 4230 O 384.468 -4.35823 -3.67987 0
M  V30 4231 O 383.402 -5.60467 -2.19454 0
M  V30 4232 H 387.228 -3.0349 -0.112966 0
M  V30 4233 H 384.813 -1.49397 0.0101513 0
M  V30 4234 H 386.695 -3.35927 -2.54423 0
M  V30 4235 H 385.37 -2.17211 -2.40002 0
M  V30 4236 H 384.277 -3.68503 -0.644726 0
M  V30 4237 H 385.61 -4.84492 -0.867647 0
M  V30 4238 N 387.262 0.0317525 -1.57568 0
M  V30 4239 C 388.225 1.01783 -2.0536 0
M  V30 4240 C 389.225 1.29203 -0.957253 0
M  V30 4241 O 390.415 1.24251 -1.22095 0
M  V30 4242 C 387.547 2.35137 -2.46827 0
M  V30 4243 H 388.74 0.605062 -2.93733 0
M  V30 4244 H 386.293 0.278514 -1.53799 0
M  V30 4245 H 387.028 2.81168 -1.61602 0
M  V30 4246 H 386.813 2.16566 -3.26866 0
M  V30 4247 H 388.303 3.05938 -2.84239 0
M  V30 4248 N 388.74 1.54641 0.303973 0
M  V30 4249 C 390.017 1.64455 1.05896 0
M  V30 4250 C 390.397 0.490923 2.05312 0
M  V30 4251 O 389.745 -0.512685 2.22674 0
M  V30 4252 C 389.955 3.02331 1.74347 0
M  V30 4253 C 391.303 3.59045 2.26653 0
M  V30 4254 O 392.327 3.04764 1.84384 0
M  V30 4255 O 391.186 4.54081 3.04093 0
M  V30 4256 H 388.28 0.666729 0.489287 0
M  V30 4257 H 390.826 1.66986 0.302298 0
M  V30 4258 H 389.598 3.77734 1.02142 0
M  V30 4259 H 389.221 3.03565 2.56777 0
M  V30 4260 N 390.218 -0.567019 1.47046 0
M  V30 4261 C 391.464 -1.32658 1.53394 0
M  V30 4262 C 391.797 -1.93254 0.19148 0
M  V30 4263 O 391.072 -1.77338 -0.798844 0
M  V30 4264 C 391.355 -2.44412 2.64452 0
M  V30 4265 C 391.208 -1.88749 4.08282 0
M  V30 4266 C 392.527 -3.46387 2.71485 0
M  V30 4267 H 389.646 -0.48098 0.558415 0
M  V30 4268 H 392.288 -0.635481 1.79058 0
M  V30 4269 H 390.438 -3.03363 2.427 0
M  V30 4270 H 392.11 -1.34134 4.41368 0
M  V30 4271 H 390.353 -1.19481 4.17021 0
M  V30 4272 H 391.024 -2.69491 4.81745 0
M  V30 4273 H 393.5 -2.9734 2.91081 0
M  V30 4274 H 392.376 -4.2202 3.50985 0
M  V30 4275 H 392.637 -4.04616 1.78153 0
M  V30 4276 N 391.696 -1.35014 -0.812953 0
M  V30 4277 C 392.926 -1.30841 -1.59888 0
M  V30 4278 C 393.334 0.117576 -1.88834 0
M  V30 4279 O 392.677 1.07807 -1.48739 0
M  V30 4280 C 392.739 -2.0412 -2.95931 0
M  V30 4281 C 392.403 -3.53336 -2.89832 0
M  V30 4282 C 393.4 -4.48052 -2.63714 0
M  V30 4283 C 391.085 -3.95894 -3.0915 0
M  V30 4284 C 393.079 -5.833 -2.56982 0
M  V30 4285 C 390.766 -5.31239 -3.0204 0
M  V30 4286 C 391.764 -6.24754 -2.75991 0
M  V30 4287 O 391.452 -7.57617 -2.68833 0
M  V30 4288 H 391.184 -0.451215 -0.50337 0
M  V30 4289 H 393.738 -1.78354 -1.01877 0
M  V30 4290 H 391.968 -1.51235 -3.559 0
M  V30 4291 H 393.657 -1.93107 -3.57022 0
M  V30 4292 H 394.423 -4.16492 -2.48515 0
M  V30 4293 H 390.302 -3.23495 -3.28438 0
M  V30 4294 H 393.846 -6.56263 -2.36569 0
M  V30 4295 H 389.743 -5.62415 -3.16796 0
M  V30 4296 H 390.511 -7.67469 -2.84487 0
M  V30 4297 N 393.175 1.03435 -1.18907 0
M  V30 4298 C 394.424 1.76143 -0.982669 0
M  V30 4299 C 394.737 1.89416 0.487953 0
M  V30 4300 O 395.943 2.59041 0.813036 0
M  V30 4301 C 394.399 3.16722 -1.70924 0
M  V30 4302 C 394.007 3.11522 -3.21959 0
M  V30 4303 C 395.751 3.93764 -1.58588 0
M  V30 4304 C 393.658 4.46999 -3.87228 0
M  V30 4305 H 392.588 0.660292 -0.364047 0
M  V30 4306 H 395.239 1.158 -1.42347 0
M  V30 4307 H 393.621 3.775 -1.19623 0
M  V30 4308 H 394.795 2.60158 -3.80335 0
M  V30 4309 H 393.11 2.47978 -3.34508 0
M  V30 4310 H 395.707 4.93963 -2.04707 0
M  V30 4311 H 396.05 4.12794 -0.539142 0
M  V30 4312 H 396.583 3.39576 -2.07203 0
M  V30 4313 H 393.322 4.33174 -4.91976 0
M  V30 4314 H 392.842 4.98441 -3.33642 0
M  V30 4315 H 394.521 5.15898 -3.90459 0
M  V30 4316 N 394.653 0.992116 1.22453 0
M  V30 4317 C 395.881 0.685944 1.95198 0
M  V30 4318 C 396.296 -0.749233 1.73297 0
M  V30 4319 O 395.653 -1.50549 1.03156 0
M  V30 4320 C 395.704 0.981395 3.47924 0
M  V30 4321 O 395.425 2.36018 3.6909 0
M  V30 4322 C 396.926 0.692815 4.37853 0
M  V30 4323 H 394.146 0.253821 0.621141 0
M  V30 4324 H 396.69 1.32668 1.55626 0
M  V30 4325 H 394.845 0.386481 3.85467 0
M  V30 4326 H 395.259 2.45884 4.63294 0
M  V30 4327 H 396.733 0.949818 5.43767 0
M  V30 4328 H 397.21 -0.373181 4.37612 0
M  V30 4329 H 397.816 1.26874 4.05935 0
M  V30 4330 N 396.131 -1.37776 0.765217 0
M  V30 4331 C 397.378 -1.99849 0.326588 0
M  V30 4332 C 397.706 -1.60746 -1.09504 0
M  V30 4333 O 396.961 -0.84202 -1.76659 0
M  V30 4334 C 397.26 -3.5504 0.410053 0
M  V30 4335 C 396.926 -4.13891 1.78899 0
M  V30 4336 C 395.588 -4.29678 2.16635 0
M  V30 4337 C 397.94 -4.46236 2.69301 0
M  V30 4338 C 395.268 -4.7511 3.44221 0
M  V30 4339 C 397.62 -4.93089 3.9629 0
M  V30 4340 C 396.284 -5.07082 4.34078 0
M  V30 4341 H 395.554 -0.7313 0.119507 0
M  V30 4342 H 398.201 -1.64645 0.977968 0
M  V30 4343 H 396.506 -3.90451 -0.324878 0
M  V30 4344 H 398.203 -4.00966 0.0520699 0
M  V30 4345 H 394.793 -4.02026 1.48569 0
M  V30 4346 H 398.977 -4.3363 2.41409 0
M  V30 4347 H 394.233 -4.84129 3.73402 0
M  V30 4348 H 398.407 -5.17084 4.66472 0
M  V30 4349 H 396.034 -5.42046 5.33001 0
M  V30 4350 N 397.609 -0.515225 -1.4894 0
M  V30 4351 C 398.857 0.0241671 -2.02086 0
M  V30 4352 C 399.178 1.3616 -1.3959 0
M  V30 4353 O 398.448 1.87841 -0.556121 0
M  V30 4354 H 397.028 0.0119203 -0.746905 0
M  V30 4355 H 399.69 -0.675702 -1.82812 0
M  V30 4356 H 398.786 0.143385 -3.1177 0
M  V30 4357 N 399.087 1.5561 -0.249682 0
M  V30 4358 C 400.336 1.98187 0.37479 0
M  V30 4359 C 400.649 1.14111 1.58865 0
M  V30 4360 O 401.855 1.46714 2.28445 0
M  V30 4361 C 400.311 3.52661 0.718192 0
M  V30 4362 C 399.919 4.45481 -0.474428 0
M  V30 4363 C 401.663 4.03888 1.3067 0
M  V30 4364 C 399.57 5.91303 -0.107026 0
M  V30 4365 H 398.5 0.740159 0.143808 0
M  V30 4366 H 401.151 1.80125 -0.350336 0
M  V30 4367 H 399.533 3.66429 1.50152 0
M  V30 4368 H 400.707 4.43473 -1.25172 0
M  V30 4369 H 399.022 4.04751 -0.978052 0
M  V30 4370 H 401.619 5.10358 1.59496 0
M  V30 4371 H 401.962 3.51401 2.23211 0
M  V30 4372 H 402.495 3.93457 0.586211 0
M  V30 4373 H 399.234 6.47833 -0.999642 0
M  V30 4374 H 398.754 5.9644 0.634013 0
M  V30 4375 H 400.433 6.46258 0.309807 0
M  V30 4376 N 400.565 -0.0233959 1.57583 0
M  V30 4377 C 401.981 -0.379134 1.55031 0
M  V30 4378 C 402.181 -1.76255 0.976548 0
M  V30 4379 O 401.237 -2.45266 0.600078 0
M  V30 4380 C 402.55 -0.275792 2.99433 0
M  V30 4381 C 404.098 -0.352458 3.11009 0
M  V30 4382 C 404.573 -0.278501 4.57152 0
M  V30 4383 N 406.064 -0.337123 4.61972 0
M  V30 4384 C 406.799 -0.302876 5.726 0
M  V30 4385 N 406.295 -0.220589 6.92449 0
M  V30 4386 N 408.088 -0.353023 5.6099 0
M  V30 4387 H 400.239 0.881869 1.93227 0
M  V30 4388 H 402.502 0.335867 0.886509 0
M  V30 4389 H 402.208 0.675108 3.4516 0
M  V30 4390 H 402.082 -1.06721 3.61788 0
M  V30 4391 H 404.469 -1.29379 2.65226 0
M  V30 4392 H 404.55 0.468409 2.51475 0
M  V30 4393 H 404.194 0.659189 5.03604 0
M  V30 4394 H 404.124 -1.11755 5.14605 0
M  V30 4395 H 406.615 -0.403002 3.75745 0
M  V30 4396 H 406.928 -0.199713 7.72542 0
M  V30 4397 H 405.273 -0.186555 6.9475 0
M  V30 4398 H 408.464 -0.415339 4.66254 0
M  V30 4399 H 408.637 -0.322866 6.47195 0
M  V30 4400 N 402.043 -1.548 -0.295768 0
M  V30 4401 C 402.953 -1.89177 -1.38742 0
M  V30 4402 C 403.969 -0.786481 -1.55211 0
M  V30 4403 O 405.145 -1.08344 -1.69775 0
M  V30 4404 C 402.21 -2.13663 -2.73036 0
M  V30 4405 C 401.271 -3.37349 -2.65508 0
M  V30 4406 C 400.504 -3.60658 -3.93398 0
M  V30 4407 O 400.727 -2.86882 -4.93006 0
M  V30 4408 O 399.661 -4.54179 -3.94975 0
M  V30 4409 H 403.487 -2.82059 -1.12589 0
M  V30 4410 H 401.072 -1.41056 -0.492295 0
M  V30 4411 H 402.954 -2.3094 -3.52484 0
M  V30 4412 H 401.629 -1.23967 -2.99022 0
M  V30 4413 H 400.536 -3.25431 -1.84514 0
M  V30 4414 H 401.869 -4.27192 -2.44474 0
M  V30 4415 N 403.521 0.559213 -1.47345 0
M  V30 4416 C 404.798 1.31997 -1.44348 0
M  V30 4417 C 405.178 2.1064 -0.139358 0
M  V30 4418 O 404.526 2.1091 0.879153 0
M  V30 4419 C 404.736 2.22618 -2.68779 0
M  V30 4420 C 406.084 2.83701 -3.1591 0
M  V30 4421 O 407.108 2.32921 -2.69493 0
M  V30 4422 O 405.967 3.75993 -3.966 0
M  V30 4423 H 403.061 0.594251 -0.575147 0
M  V30 4424 H 405.607 0.578282 -1.59543 0
M  V30 4425 H 404.379 1.64093 -3.55231 0
M  V30 4426 H 404.002 3.04085 -2.5616 0
M  V30 4427 N 404.999 1.35443 0.805782 0
M  V30 4428 C 405.929 1.31095 1.93226 0
M  V30 4429 C 406.91 0.185244 1.69088 0
M  V30 4430 O 408.095 0.380332 1.90439 0
M  V30 4431 C 405.225 1.08299 3.29983 0
M  V30 4432 C 404.179 2.17519 3.68605 0
M  V30 4433 C 403.505 1.79887 5.03532 0
M  V30 4434 C 404.805 3.5949 3.78898 0
M  V30 4435 H 406.499 2.25352 1.97122 0
M  V30 4436 H 404.045 1.0848 0.946996 0
M  V30 4437 H 405.998 1.03897 4.08391 0
M  V30 4438 H 404.722 0.104885 3.26432 0
M  V30 4439 H 403.381 2.2102 2.92482 0
M  V30 4440 H 403.029 0.80693 4.96485 0
M  V30 4441 H 402.729 2.53001 5.30344 0
M  V30 4442 H 404.253 1.77011 5.84379 0
M  V30 4443 H 405.667 3.58307 4.47536 0
M  V30 4444 H 404.064 4.31371 4.1718 0
M  V30 4445 H 405.134 3.95584 2.80431 0
M  V30 4446 N 406.477 -1.02803 1.19454 0
M  V30 4447 C 407.424 -2.11099 0.933046 0
M  V30 4448 C 408.394 -1.65571 -0.132447 0
M  V30 4449 O 409.579 -1.90797 0.00987576 0
M  V30 4450 C 406.719 -3.41763 0.478747 0
M  V30 4451 C 405.832 -4.00833 1.6111 0
M  V30 4452 C 404.967 -5.19511 1.10825 0
M  V30 4453 C 404.006 -5.70639 2.21445 0
M  V30 4454 N 403.143 -6.80589 1.72461 0
M  V30 4455 H 407.983 -2.32804 1.86028 0
M  V30 4456 H 405.52 -1.14179 0.927441 0
M  V30 4457 H 407.478 -4.16736 0.196745 0
M  V30 4458 H 406.108 -3.20166 -0.411493 0
M  V30 4459 H 405.16 -3.23066 2.00829 0
M  V30 4460 H 406.472 -4.34794 2.4445 0
M  V30 4461 H 405.626 -6.01645 0.781533 0
M  V30 4462 H 404.365 -4.87086 0.244606 0
M  V30 4463 H 403.37 -4.87116 2.54947 0
M  V30 4464 H 404.595 -6.05102 3.08267 0
M  V30 4465 H 402.541 -6.50016 0.884056 0
M  V30 4466 H 402.458 -7.13681 2.49389 0
M  V30 4467 H 403.726 -7.66317 1.42755 0
M  V30 4468 N 407.956 -0.998596 -1.21925 0
M  V30 4469 C 409.233 -0.593401 -1.86382 0
M  V30 4470 C 409.613 0.92916 -1.89552 0
M  V30 4471 O 408.961 1.81347 -1.39017 0
M  V30 4472 C 409.171 -1.22039 -3.26967 0
M  V30 4473 C 410.519 -1.32449 -4.03413 0
M  V30 4474 O 411.543 -1.17522 -3.36254 0
M  V30 4475 O 410.402 -1.56395 -5.23644 0
M  V30 4476 H 407.496 -0.202385 -0.801854 0
M  V30 4477 H 410.042 -1.09484 -1.29659 0
M  V30 4478 H 408.814 -2.26158 -3.19325 0
M  V30 4479 H 408.437 -0.704906 -3.91301 0
M  V30 4480 N 409.434 1.37368 -0.772513 0
M  V30 4481 C 410.711 1.93839 -0.26188 0
M  V30 4482 C 411.091 1.7061 1.24319 0
M  V30 4483 O 410.439 1.05534 2.02669 0
M  V30 4484 C 410.649 3.43154 -0.636102 0
M  V30 4485 C 411.997 4.20249 -0.606324 0
M  V30 4486 O 413.021 3.5152 -0.575538 0
M  V30 4487 O 411.88 5.42809 -0.634086 0
M  V30 4488 H 408.974 0.82478 -0.0605555 0
M  V30 4489 H 411.52 1.4665 -0.853917 0
M  V30 4490 H 410.292 3.53647 -1.6748 0
M  V30 4491 H 409.915 3.97596 -0.0170516 0
M  V30 4492 N 410.912 0.523116 1.48665 0
M  V30 4493 C 411.844 -0.280421 2.27478 0
M  V30 4494 C 412.857 -0.910694 1.34945 0
M  V30 4495 O 414.046 -0.790295 1.60052 0
M  V30 4496 C 411.146 -1.41171 3.08097 0
M  V30 4497 C 410.319 -0.884642 4.28361 0
M  V30 4498 C 409.378 -1.89622 4.90846 0
M  V30 4499 O 408.404 -1.4559 5.50265 0
M  V30 4500 N 409.606 -3.22801 4.82472 0
M  V30 4501 H 412.371 0.395481 2.97079 0
M  V30 4502 H 409.932 0.357018 1.57915 0
M  V30 4503 H 411.924 -2.08645 3.4677 0
M  V30 4504 H 410.494 -1.99139 2.40961 0
M  V30 4505 H 409.714 -0.0341177 3.94185 0
M  V30 4506 H 411.002 -0.511268 5.06225 0
M  V30 4507 H 410.4 -3.61246 4.35336 0
M  V30 4508 H 408.957 -3.85927 5.25265 0
M  V30 4509 N 412.39 -1.55475 0.257931 0
M  V30 4510 C 413.337 -2.21837 -0.636939 0
M  V30 4511 C 414.307 -1.18596 -1.16294 0
M  V30 4512 O 415.492 -1.47081 -1.21539 0
M  V30 4513 C 412.632 -2.9301 -1.82317 0
M  V30 4514 C 411.745 -4.10931 -1.33265 0
M  V30 4515 C 410.88 -4.69791 -2.47931 0
M  V30 4516 C 409.919 -5.7994 -1.95796 0
M  V30 4517 N 409.056 -6.32935 -3.0387 0
M  V30 4518 H 413.896 -2.9793 -0.0643591 0
M  V30 4519 H 411.433 -1.47086 -0.0200031 0
M  V30 4520 H 413.391 -3.3248 -2.52018 0
M  V30 4521 H 412.021 -2.1937 -2.36805 0
M  V30 4522 H 411.073 -3.76699 -0.52931 0
M  V30 4523 H 412.385 -4.90417 -0.910654 0
M  V30 4524 H 411.539 -5.11892 -3.25656 0
M  V30 4525 H 410.278 -3.89545 -2.93438 0
M  V30 4526 H 409.283 -5.37305 -1.16546 0
M  V30 4527 H 410.508 -6.62043 -1.51246 0
M  V30 4528 H 408.454 -5.55591 -3.48791 0
M  V30 4529 H 408.371 -7.07645 -2.66035 0
M  V30 4530 H 409.639 -6.79695 -3.81621 0
M  V30 4531 N 413.868 0.0150385 -1.57593 0
M  V30 4532 C 414.778 1.02791 -2.10882 0
M  V30 4533 C 415.794 1.38702 -1.0506 0
M  V30 4534 O 416.97 1.47739 -1.36877 0
M  V30 4535 C 414.035 2.30568 -2.58919 0
M  V30 4536 C 413.096 2.01108 -3.79281 0
M  V30 4537 C 412.329 3.22794 -4.25018 0
M  V30 4538 O 412.552 4.33959 -3.70183 0
M  V30 4539 O 411.486 3.07672 -5.17322 0
M  V30 4540 H 415.312 0.604973 -2.97613 0
M  V30 4541 H 412.897 0.23292 -1.47573 0
M  V30 4542 H 414.779 3.05662 -2.90084 0
M  V30 4543 H 413.454 2.72129 -1.75293 0
M  V30 4544 H 412.361 1.23537 -3.53114 0
M  V30 4545 H 413.694 1.64394 -4.63935 0
M  V30 4546 N 415.346 1.54954 0.287554 0
M  V30 4547 C 416.279 1.81737 1.3801 0
M  V30 4548 C 417.257 0.669412 1.48181 0
M  V30 4549 O 418.441 0.910839 1.65033 0
M  V30 4550 C 415.568 1.96606 2.75796 0
M  V30 4551 C 414.614 3.19098 2.82982 0
M  V30 4552 S 415.447 4.7683 2.43707 0
M  V30 4553 C 416.603 4.94653 3.83496 0
M  V30 4554 H 416.836 2.74122 1.15085 0
M  V30 4555 H 414.369 1.46538 0.486403 0
M  V30 4556 H 416.327 2.05858 3.55152 0
M  V30 4557 H 414.988 1.05136 2.95982 0
M  V30 4558 H 414.181 3.26344 3.84077 0
M  V30 4559 H 413.783 3.08361 2.11635 0
M  V30 4560 H 416.075 4.79502 4.78628 0
M  V30 4561 H 417.018 5.96728 3.8121 0
M  V30 4562 H 417.426 4.2272 3.74123 0
M  V30 4563 N 416.824 -0.551391 1.4764 0
M  V30 4564 C 417.757 -1.6738 1.5511 0
M  V30 4565 C 418.735 -1.5753 0.402856 0
M  V30 4566 O 419.919 -1.78307 0.611475 0
M  V30 4567 C 417.046 -3.05661 1.45908 0
M  V30 4568 C 416.092 -3.33938 2.65307 0
M  V30 4569 S 416.925 -3.22553 4.27457 0
M  V30 4570 C 418.081 -4.63317 4.20818 0
M  V30 4571 H 418.314 -1.6079 2.50068 0
M  V30 4572 H 415.847 -0.732674 1.35909 0
M  V30 4573 H 417.805 -3.8542 1.41286 0
M  V30 4574 H 416.466 -3.09711 0.523248 0
M  V30 4575 H 415.659 -4.34761 2.54948 0
M  V30 4576 H 415.261 -2.61809 2.67081 0
M  V30 4577 H 417.553 -5.54391 3.89431 0
M  V30 4578 H 418.496 -4.78732 5.21748 0
M  V30 4579 H 418.904 -4.41636 3.51593 0
M  V30 4580 N 418.302 -1.35869 -0.798587 0
M  V30 4581 C 419.234 -1.25305 -1.91915 0
M  V30 4582 C 420.247 -0.174548 -1.61862 0
M  V30 4583 O 421.436 -0.428499 -1.73281 0
M  V30 4584 C 418.536 -0.9086 -3.26493 0
M  V30 4585 C 417.709 -2.08711 -3.84394 0
M  V30 4586 C 416.768 -1.71717 -4.97393 0
M  V30 4587 O 415.794 -2.43692 -5.14396 0
M  V30 4588 N 416.996 -0.645473 -5.769 0
M  V30 4589 H 419.761 -2.21849 -2.01502 0
M  V30 4590 H 417.322 -1.29143 -0.976408 0
M  V30 4591 H 419.314 -0.642455 -3.99568 0
M  V30 4592 H 417.884 -0.0325815 -3.12583 0
M  V30 4593 H 417.104 -2.51659 -3.03416 0
M  V30 4594 H 418.392 -2.87468 -4.19809 0
M  V30 4595 H 417.79 -0.047648 -5.6568 0
M  V30 4596 H 416.347 -0.43913 -6.50319 0
M  V30 4597 N 419.78 1.02168 -1.19998 0
M  V30 4598 C 421.008 1.79296 -1.03249 0
M  V30 4599 C 421.423 1.84103 0.418502 0
M  V30 4600 O 420.78 1.29031 1.29063 0
M  V30 4601 C 420.831 3.24007 -1.60319 0
M  V30 4602 O 420.552 3.19512 -2.99739 0
M  V30 4603 C 422.053 4.17704 -1.48453 0
M  V30 4604 H 419.273 0.564016 -0.363493 0
M  V30 4605 H 421.817 1.28639 -1.58973 0
M  V30 4606 H 419.972 3.7183 -1.08727 0
M  V30 4607 H 420.386 4.10306 -3.26725 0
M  V30 4608 H 421.86 5.17104 -1.93153 0
M  V30 4609 H 422.337 4.37029 -0.436193 0
M  V30 4610 H 422.943 3.7576 -1.99211 0
M  V30 4611 N 421.258 1.00505 1.21394 0
M  V30 4612 C 422.221 0.570459 2.21987 0
M  V30 4613 C 423.221 -0.353211 1.56873 0
M  V30 4614 O 424.411 -0.14349 1.73608 0
M  V30 4615 C 421.543 -0.168555 3.40483 0
M  V30 4616 H 422.736 1.46021 2.6195 0
M  V30 4617 H 420.289 0.793565 1.34656 0
M  V30 4618 H 421.024 -1.07374 3.06009 0
M  V30 4619 H 420.809 0.494823 3.88965 0
M  V30 4620 H 422.299 -0.460362 4.15055 0
M  V30 4621 N 422.737 -1.36956 0.779787 0
M  V30 4622 C 423.67 -2.27896 0.117681 0
M  V30 4623 C 424.648 -1.46736 -0.700523 0
M  V30 4624 O 425.832 -1.76055 -0.673568 0
M  V30 4625 C 422.959 -3.28136 -0.839296 0
M  V30 4626 C 422.005 -4.26373 -0.10409 0
M  V30 4627 S 422.838 -5.2157 1.21348 0
M  V30 4628 C 423.994 -6.25359 0.260249 0
M  V30 4629 H 424.227 -2.83704 0.888778 0
M  V30 4630 H 421.76 -1.43352 0.57355 0
M  V30 4631 H 423.718 -3.86394 -1.38601 0
M  V30 4632 H 422.379 -2.7126 -1.58356 0
M  V30 4633 H 421.572 -4.97121 -0.82986 0
M  V30 4634 H 421.174 -3.72147 0.371858 0
M  V30 4635 H 423.466 -6.75145 -0.564435 0
M  V30 4636 H 424.409 -7.01885 0.936135 0
M  V30 4637 H 424.817 -5.64345 -0.132127 0
M  V30 4638 N 424.215 -0.530993 -1.48385 0
M  V30 4639 C 425.147 0.268353 -2.27624 0
M  V30 4640 C 426.16 0.903525 -1.35426 0
M  V30 4641 O 427.349 0.781796 -1.60469 0
M  V30 4642 C 424.449 1.39535 -3.08842 0
M  V30 4643 C 423.622 0.861913 -4.28824 0
M  V30 4644 C 422.681 1.87016 -4.91845 0
M  V30 4645 O 421.707 1.4267 -5.5103 0
M  V30 4646 N 422.909 3.20238 -4.84178 0
M  V30 4647 H 425.674 -0.41123 -2.96865 0
M  V30 4648 H 423.235 -0.365387 -1.57723 0
M  V30 4649 H 425.227 2.06803 -3.47871 0
M  V30 4650 H 423.797 1.97859 -2.42014 0
M  V30 4651 H 423.017 0.0132126 -3.94198 0
M  V30 4652 H 424.305 0.484415 -5.06489 0
M  V30 4653 H 423.703 3.58932 -4.37246 0
M  V30 4654 H 422.26 3.83136 -5.27305 0
M  V30 4655 N 425.693 1.55336 -0.266172 0
M  V30 4656 C 426.641 2.23587 0.641228 0
M  V30 4657 C 427.635 1.22986 1.16494 0
M  V30 4658 O 428.841 1.40943 1.1196 0
M  V30 4659 H 425.216 0.717452 0.225315 0
M  V30 4660 H 427.187 2.9837 0.0426561 0
M  V30 4661 C 425.936 2.96369 1.81826 0
M  V30 4662 H 425.259 3.73563 1.42445 0
M  V30 4663 H 426.699 3.47459 2.42998 0
M  V30 4664 C 425.158 2.0133 2.70125 0
M  V30 4665 O 425.688 1.55875 3.70224 0
M  V30 4666 N 423.894 1.6802 2.37102 0
M  V30 4667 H 423.441 2.05181 1.55751 0
M  V30 4668 H 423.399 1.047 2.96454 0
M  V30 4669 N 427.171 -0.0066808 1.57599 0
M  V30 4670 C 428.399 -0.704087 1.94551 0
M  V30 4671 C 428.814 -1.67677 0.867746 0
M  V30 4672 O 428.171 -1.8185 -0.153925 0
M  V30 4673 C 428.222 -1.44177 3.31505 0
M  V30 4674 O 427.943 -0.508097 4.35144 0
M  V30 4675 C 429.444 -2.23429 3.82876 0
M  V30 4676 H 426.664 -0.196523 0.641576 0
M  V30 4677 H 429.208 0.042453 2.04456 0
M  V30 4678 H 427.363 -2.13999 3.22929 0
M  V30 4679 H 427.777 -1.02782 5.14331 0
M  V30 4680 H 429.251 -2.70552 4.8115 0
M  V30 4681 H 429.728 -3.05818 3.15233 0
M  V30 4682 H 430.334 -1.58636 3.94607 0
M  V30 4683 N 428.649 -1.55105 -0.279332 0
M  V30 4684 C 429.582 -1.82467 -1.37044 0
M  V30 4685 C 430.56 -0.677261 -1.47824 0
M  V30 4686 O 431.744 -0.919578 -1.64548 0
M  V30 4687 C 428.871 -1.98066 -2.7475 0
M  V30 4688 C 427.917 -3.20594 -2.81286 0
M  V30 4689 S 428.75 -4.78116 -2.41175 0
M  V30 4690 C 429.906 -4.9668 -3.80867 0
M  V30 4691 H 430.139 -2.74728 -1.1363 0
M  V30 4692 H 427.672 -1.46794 -0.478625 0
M  V30 4693 H 429.63 -2.07739 -3.54055 0
M  V30 4694 H 428.291 -1.06704 -2.9542 0
M  V30 4695 H 427.484 -3.28376 -3.82341 0
M  V30 4696 H 427.086 -3.09479 -2.09996 0
M  V30 4697 H 429.378 -4.82033 -4.76078 0
M  V30 4698 H 430.321 -5.98741 -3.78041 0
M  V30 4699 H 430.729 -4.24698 -3.71876 0
M  V30 4700 N 430.127 0.543554 -1.4793 0
M  V30 4701 C 431.057 1.65888 -1.64327 0
M  V30 4702 C 432.038 1.62818 -0.492383 0
M  V30 4703 O 433.223 1.80226 -0.723338 0
M  V30 4704 C 430.353 3.04506 -1.67013 0
M  V30 4705 C 429.307 3.2243 -2.81466 0
M  V30 4706 C 428.633 4.61972 -2.69233 0
M  V30 4707 C 429.933 3.06496 -4.22915 0
M  V30 4708 H 431.627 1.52421 -2.57698 0
M  V30 4709 H 429.173 0.731849 -1.24016 0
M  V30 4710 H 431.126 3.82391 -1.77074 0
M  V30 4711 H 429.85 3.18964 -0.70212 0
M  V30 4712 H 428.509 2.46957 -2.70938 0
M  V30 4713 H 428.157 4.73247 -1.7043 0
M  V30 4714 H 427.857 4.74911 -3.46025 0
M  V30 4715 H 429.381 5.41974 -2.81242 0
M  V30 4716 H 430.795 3.74186 -4.34348 0
M  V30 4717 H 429.192 3.30938 -5.006 0
M  V30 4718 H 430.262 2.03077 -4.40327 0
M  V30 4719 N 431.605 1.3629 0.791371 0
M  V30 4720 C 432.854 1.29742 1.54434 0
M  V30 4721 C 433.167 -0.121729 1.95221 0
M  V30 4722 O 434.373 -0.309579 2.69729 0
M  V30 4723 C 432.829 2.27623 2.78776 0
M  V30 4724 C 432.437 3.74963 2.45166 0
M  V30 4725 C 434.181 2.30047 3.56761 0
M  V30 4726 C 432.088 4.64626 3.65891 0
M  V30 4727 H 431.018 0.482113 0.579727 0
M  V30 4728 H 433.669 1.61642 0.868565 0
M  V30 4729 H 432.051 1.88714 3.48142 0
M  V30 4730 H 433.225 4.22596 1.83709 0
M  V30 4731 H 431.54 3.75295 1.80396 0
M  V30 4732 H 434.137 2.94247 4.46456 0
M  V30 4733 H 434.48 1.30846 3.95203 0
M  V30 4734 H 435.013 2.67563 2.94372 0
M  V30 4735 H 431.752 5.64883 3.32547 0
M  V30 4736 H 431.272 4.2171 4.26521 0
M  V30 4737 H 432.951 4.80801 4.32943 0
M  V30 4738 N 433.083 -1.0153 1.20538 0
M  V30 4739 C 434.031 -2.12215 0.952235 0
M  V30 4740 C 435.025 -1.69123 -0.0968735 0
M  V30 4741 O 436.231 -1.7992 0.0536006 0
M  V30 4742 H 432.606 -0.693576 0.290613 0
M  V30 4743 H 434.577 -2.3075 1.89201 0
M  V30 4744 C 433.326 -3.43755 0.522287 0
M  V30 4745 H 432.649 -3.7734 1.32115 0
M  V30 4746 H 434.089 -4.22254 0.384389 0
M  V30 4747 C 432.548 -3.28088 -0.765489 0
M  V30 4748 O 433.078 -3.57921 -1.8236 0
M  V30 4749 N 431.284 -2.81333 -0.728011 0
M  V30 4750 H 430.831 -2.57255 0.133332 0
M  V30 4751 H 430.789 -2.71232 -1.58999 0
M  V30 4752 N 434.561 -1.01147 -1.20859 0
M  V30 4753 C 435.809 -0.696486 -1.89719 0
M  V30 4754 C 436.13 0.775788 -1.78904 0
M  V30 4755 O 435.4 1.55759 -1.18811 0
M  V30 4756 H 433.98 -0.254628 -0.702263 0
M  V30 4757 H 436.642 -1.28197 -1.46804 0
M  V30 4758 H 435.738 -0.975357 -2.96468 0
M  V30 4759 N 436.039 1.36541 -0.78704 0
M  V30 4760 C 437.288 1.98552 -0.35494 0
M  V30 4761 C 437.601 1.63171 1.07864 0
M  V30 4762 O 438.807 2.18399 1.61289 0
M  V30 4763 C 437.263 3.55136 -0.583671 0
M  V30 4764 C 436.871 3.99444 -2.02851 0
M  V30 4765 C 438.615 4.2395 -0.215957 0
M  V30 4766 C 436.522 5.48796 -2.20403 0
M  V30 4767 H 435.452 0.742888 -0.128972 0
M  V30 4768 H 438.103 1.5587 -0.968337 0
M  V30 4769 H 436.485 3.95875 0.0994046 0
M  V30 4770 H 437.659 3.6991 -2.74779 0
M  V30 4771 H 435.974 3.43459 -2.35425 0
M  V30 4772 H 438.571 5.33709 -0.325405 0
M  V30 4773 H 438.914 4.07827 0.835646 0
M  V30 4774 H 439.447 3.88565 -0.852175 0
M  V30 4775 H 436.186 5.69864 -3.23937 0
M  V30 4776 H 435.706 5.79964 -1.52977 0
M  V30 4777 H 437.385 6.14986 -2.01002 0
M  V30 4778 N 437.518 0.538854 1.48102 0
M  V30 4779 C 438.481 -0.208395 2.28251 0
M  V30 4780 C 439.481 -0.859656 1.35892 0
M  V30 4781 O 440.671 -0.71834 1.58699 0
M  V30 4782 C 437.803 -1.30252 3.15035 0
M  V30 4783 H 438.996 0.495407 2.9578 0
M  V30 4784 H 436.549 0.295112 1.53489 0
M  V30 4785 H 437.284 -2.0393 2.52157 0
M  V30 4786 H 437.069 -0.840551 3.82985 0
M  V30 4787 H 438.559 -1.82787 3.75471 0
M  V30 4788 N 438.996 -1.55193 0.274407 0
M  V30 4789 C 439.928 -2.1989 -0.646595 0
M  V30 4790 C 440.941 -1.1834 -1.11801 0
M  V30 4791 O 442.13 -1.4507 -1.04004 0
M  V30 4792 C 439.23 -2.8104 -1.89393 0
M  V30 4793 C 438.403 -4.08274 -1.56943 0
M  V30 4794 C 437.462 -4.53478 -2.66916 0
M  V30 4795 O 436.488 -5.19267 -2.33132 0
M  V30 4796 N 437.69 -4.2356 -3.9696 0
M  V30 4797 H 440.455 -2.99556 -0.0928686 0
M  V30 4798 H 438.016 -1.61618 0.0954783 0
M  V30 4799 H 440.008 -3.08226 -2.62257 0
M  V30 4800 H 438.578 -2.05372 -2.35672 0
M  V30 4801 H 437.798 -3.88384 -0.674655 0
M  V30 4802 H 439.086 -4.91173 -1.32764 0
M  V30 4803 H 438.484 -3.70799 -4.27229 0
M  V30 4804 H 437.041 -4.55518 -4.66205 0
M  V30 4805 N 440.474 -0.00167713 -1.576 0
M  V30 4806 C 441.72 0.683832 -1.90923 0
M  V30 4807 C 442.053 1.7333 -0.875799 0
M  V30 4808 O 441.328 1.94215 0.10525 0
M  V30 4809 C 441.611 1.32543 -3.3482 0
M  V30 4810 C 441.464 0.287387 -4.48881 0
M  V30 4811 C 442.783 2.25114 -3.78169 0
M  V30 4812 H 439.902 0.247125 -0.694333 0
M  V30 4813 H 442.544 -0.0533149 -1.89925 0
M  V30 4814 H 440.694 1.95372 -3.35801 0
M  V30 4815 H 442.366 -0.341346 -4.60035 0
M  V30 4816 H 440.609 -0.39017 -4.32042 0
M  V30 4817 H 441.28 0.775393 -5.46527 0
M  V30 4818 H 443.756 1.723 -3.7875 0
M  V30 4819 H 442.632 2.66971 -4.79602 0
M  V30 4820 H 442.893 3.13092 -3.12131 0
M  V30 4821 N 441.952 1.55251 0.271103 0
M  V30 4822 C 443.18 1.79974 1.02064 0
M  V30 4823 C 443.595 0.574003 1.79863 0
M  V30 4824 O 442.952 -0.456962 1.76686 0
M  V30 4825 C 443.003 3.02603 1.97772 0
M  V30 4826 O 442.724 4.20443 1.23124 0
M  V30 4827 C 444.225 3.39944 2.84522 0
M  V30 4828 H 441.445 0.599489 0.301419 0
M  V30 4829 H 443.989 2.02268 0.301313 0
M  V30 4830 H 442.144 2.8243 2.65165 0
M  V30 4831 H 442.558 4.89783 1.87651 0
M  V30 4832 H 444.032 4.28915 3.47471 0
M  V30 4833 H 444.509 2.59432 3.54389 0
M  V30 4834 H 445.115 3.62383 2.22618 0
M  V30 4835 N 443.43 -0.535701 1.48216 0
M  V30 4836 C 444.677 -1.29183 1.55942 0
M  V30 4837 C 445.005 -1.93125 0.230857 0
M  V30 4838 O 444.26 -1.79556 -0.778331 0
M  V30 4839 C 444.559 -2.4068 2.64212 0
M  V30 4840 C 444.225 -1.94428 4.06827 0
M  V30 4841 C 442.887 -1.81532 4.45645 0
M  V30 4842 C 445.239 -1.59405 4.96225 0
M  V30 4843 C 442.567 -1.31939 5.71672 0
M  V30 4844 C 444.919 -1.11276 6.22736 0
M  V30 4845 C 443.583 -0.969924 6.60416 0
M  V30 4846 H 442.853 -0.472715 0.570632 0
M  V30 4847 H 445.5 -0.598437 1.81909 0
M  V30 4848 H 443.805 -3.15666 2.32083 0
M  V30 4849 H 445.502 -2.98822 2.67407 0
M  V30 4850 H 442.092 -2.05415 3.76168 0
M  V30 4851 H 446.276 -1.68231 4.66917 0
M  V30 4852 H 441.532 -1.19562 5.99596 0
M  V30 4853 H 445.706 -0.832453 6.91407 0
M  V30 4854 H 443.333 -0.583436 7.57958 0
M  V30 4855 N 444.908 -1.36708 -0.784132 0
M  V30 4856 C 446.185 -1.21776 -1.53069 0
M  V30 4857 C 446.565 0.193876 -2.10208 0
M  V30 4858 O 445.913 1.20012 -1.94446 0
M  V30 4859 C 446.123 -2.30395 -2.62143 0
M  V30 4860 C 447.471 -2.67325 -3.29882 0
M  V30 4861 O 448.495 -2.29478 -2.7243 0
M  V30 4862 O 447.354 -3.32485 -4.33724 0
M  V30 4863 H 444.448 -0.474459 -0.677361 0
M  V30 4864 H 446.994 -1.48454 -0.82216 0
M  V30 4865 H 445.766 -3.2498 -2.17953 0
M  V30 4866 H 445.389 -2.05112 -3.40609 0
M  V30 4867 N 446.386 1.0089 -1.21074 0
M  V30 4868 C 447.611 1.78727 -1.05221 0
M  V30 4869 C 448.036 1.83932 0.393795 0
M  V30 4870 O 447.394 1.28004 1.28393 0
M  V30 4871 C 447.442 3.20665 -1.64944 0
M  V30 4872 O 446.546 4.02632 -0.892273 0
M  V30 4873 H 445.887 0.550973 -0.370574 0
M  V30 4874 H 448.417 1.26847 -1.60534 0
M  V30 4875 H 448.427 3.71352 -1.69002 0
M  V30 4876 H 447.102 3.16191 -2.70177 0
M  V30 4877 H 445.679 3.61207 -0.926492 0
M  V30 4878 N 447.864 1.01787 1.20321 0
M  V30 4879 C 448.774 0.598898 2.26827 0
M  V30 4880 C 449.79 -0.36418 1.70146 0
M  V30 4881 O 450.966 -0.224812 2.00141 0
M  V30 4882 C 448.031 -0.0549769 3.46656 0
M  V30 4883 C 447.092 0.954205 4.18561 0
M  V30 4884 C 446.325 0.331439 5.3267 0
M  V30 4885 O 446.548 -0.86851 5.63749 0
M  V30 4886 O 445.482 1.0488 5.92692 0
M  V30 4887 H 449.308 1.48562 2.64883 0
M  V30 4888 H 446.893 0.787434 1.26964 0
M  V30 4889 H 448.775 -0.420102 4.19301 0
M  V30 4890 H 447.45 -0.915876 3.10473 0
M  V30 4891 H 446.357 1.37072 3.48083 0
M  V30 4892 H 447.69 1.78511 4.58688 0
M  V30 4893 N 449.342 -1.36122 0.79427 0
M  V30 4894 C 450.57 -2.03362 0.380989 0
M  V30 4895 C 450.985 -1.59881 -1.00416 0
M  V30 4896 O 450.342 -0.790515 -1.6449 0
M  V30 4897 C 450.393 -3.58804 0.440649 0
M  V30 4898 O 450.114 -4.007 1.77118 0
M  V30 4899 C 451.615 -4.43296 0.0186117 0
M  V30 4900 H 448.835 -0.652526 0.156367 0
M  V30 4901 H 451.379 -1.73998 1.07447 0
M  V30 4902 H 449.534 -3.8686 -0.204458 0
M  V30 4903 H 449.948 -4.95309 1.72538 0
M  V30 4904 H 451.422 -5.51887 0.111488 0
M  V30 4905 H 451.899 -4.2684 -1.03461 0
M  V30 4906 H 452.505 -4.20512 0.636395 0
M  V30 4907 N 450.82 -0.546701 -1.47814 0
M  V30 4908 C 451.783 0.196287 -2.28358 0
M  V30 4909 C 452.783 0.852437 -1.36346 0
M  V30 4910 O 453.973 0.709913 -1.59078 0
M  V30 4911 C 451.105 1.28579 -3.15722 0
M  V30 4912 H 452.298 -0.511086 -2.95513 0
M  V30 4913 H 449.851 -0.303248 -1.5333 0
M  V30 4914 H 450.586 2.0259 -2.53235 0
M  V30 4915 H 450.371 0.820229 -3.83425 0
M  V30 4916 H 451.861 1.80793 -3.76435 0
M  V30 4917 N 452.299 1.55045 -0.282633 0
M  V30 4918 C 453.545 2.00056 0.332481 0
M  V30 4919 C 453.878 1.1708 1.54939 0
M  V30 4920 O 453.153 0.2427 1.9298 0
M  V30 4921 C 453.436 3.53086 0.70725 0
M  V30 4922 C 453.289 4.46813 -0.517521 0
M  V30 4923 C 454.608 4.12245 1.54084 0
M  V30 4924 H 451.727 0.727268 0.119373 0
M  V30 4925 H 454.369 1.85932 -0.391076 0
M  V30 4926 H 452.519 3.65253 1.32372 0
M  V30 4927 H 454.191 4.46579 -1.15607 0
M  V30 4928 H 452.434 4.18163 -1.1542 0
M  V30 4929 H 453.105 5.51595 -0.211426 0
M  V30 4930 H 455.581 4.03401 1.02013 0
M  V30 4931 H 454.457 5.19515 1.77186 0
M  V30 4932 H 454.718 3.62951 2.52427 0
M  V30 4933 N 453.777 0.010035 1.57597 0
M  V30 4934 C 454.724 -0.978122 2.09049 0
M  V30 4935 C 455.694 -1.33509 0.988159 0
M  V30 4936 O 456.879 -1.43172 1.26121 0
M  V30 4937 C 454.019 -2.26158 2.60666 0
M  V30 4938 C 453.132 -1.96275 3.84838 0
M  V30 4939 C 452.267 -3.18776 4.24918 0
M  V30 4940 C 451.306 -2.84625 5.41899 0
M  V30 4941 N 450.443 -3.99693 5.77226 0
M  V30 4942 H 455.283 -0.532431 2.93205 0
M  V30 4943 H 452.82 -0.251234 1.44939 0
M  V30 4944 H 454.778 -3.01202 2.88675 0
M  V30 4945 H 453.408 -2.68378 1.79369 0
M  V30 4946 H 452.46 -1.11555 3.63675 0
M  V30 4947 H 453.772 -1.67111 4.69974 0
M  V30 4948 H 452.926 -4.02157 4.54262 0
M  V30 4949 H 451.665 -3.51087 3.38511 0
M  V30 4950 H 450.67 -1.99653 5.12268 0
M  V30 4951 H 451.895 -2.53551 6.29991 0
M  V30 4952 H 449.841 -4.31882 4.93776 0
M  V30 4953 H 449.758 -3.74087 6.56959 0
M  V30 4954 H 451.026 -4.83834 6.11167 0
M  V30 4955 N 455.255 -1.55392 -0.262866 0
M  V30 4956 C 456.165 -1.92077 -1.34698 0
M  V30 4957 C 457.181 -0.819227 -1.53508 0
M  V30 4958 O 458.357 -1.11921 -1.67439 0
M  V30 4959 C 455.422 -2.19407 -2.68443 0
M  V30 4960 C 454.483 -3.42905 -2.58292 0
M  V30 4961 C 453.716 -3.68921 -3.85659 0
M  V30 4962 O 453.939 -2.97275 -4.8681 0
M  V30 4963 O 452.873 -4.62455 -3.85252 0
M  V30 4964 H 456.699 -2.84384 -1.06581 0
M  V30 4965 H 454.284 -1.42069 -0.462264 0
M  V30 4966 H 456.166 -2.38365 -3.47506 0
M  V30 4967 H 454.841 -1.30282 -2.96325 0
M  V30 4968 H 453.748 -3.29272 -1.7757 0
M  V30 4969 H 455.081 -4.32282 -2.35358 0
M  V30 4970 N 456.733 0.527833 -1.48498 0
M  V30 4971 C 457.663 1.64136 -1.66077 0
M  V30 4972 C 458.644 1.62286 -0.509625 0
M  V30 4973 O 459.829 1.79449 -0.742413 0
M  V30 4974 C 456.959 3.02717 -1.70234 0
M  V30 4975 C 455.913 3.19426 -2.8487 0
M  V30 4976 C 455.239 4.5909 -2.74118 0
M  V30 4977 C 456.539 3.01993 -4.26142 0
M  V30 4978 H 458.233 1.4968 -2.593 0
M  V30 4979 H 455.779 0.718654 -1.24785 0
M  V30 4980 H 457.732 3.80491 -1.8112 0
M  V30 4981 H 456.456 3.18201 -0.735911 0
M  V30 4982 H 455.115 2.4407 -2.73542 0
M  V30 4983 H 454.763 4.71413 -1.7544 0
M  V30 4984 H 454.463 4.71214 -3.51042 0
M  V30 4985 H 455.987 5.3896 -2.86974 0
M  V30 4986 H 457.401 3.69558 -4.38292 0
M  V30 4987 H 455.798 3.2561 -5.04082 0
M  V30 4988 H 456.868 1.98396 -4.42456 0
M  V30 4989 N 458.211 1.37122 0.776871 0
M  V30 4990 C 459.436 1.354 1.57104 0
M  V30 4991 C 459.861 -0.0595562 1.88006 0
M  V30 4992 O 459.219 -1.03514 1.48844 0
M  V30 4993 C 459.267 2.19472 2.8612 0
M  V30 4994 O 458.371 1.59582 3.80273 0
M  V30 4995 H 457.712 0.462869 0.476076 0
M  V30 4996 H 460.242 1.80577 0.961932 0
M  V30 4997 H 460.252 2.32502 3.35271 0
M  V30 4998 H 458.927 3.22222 2.62956 0
M  V30 4999 H 457.504 1.55564 3.38902 0
M  V30 5000 N 459.689 -1.00246 1.21608 0
M  V30 5001 C 460.919 -1.77373 1.05935 0
M  V30 5002 C 461.327 -1.85059 -0.393686 0
M  V30 5003 O 460.67 -1.31289 -1.28487 0
M  V30 5004 C 460.732 -3.22705 1.58435 0
M  V30 5005 C 460.396 -3.38591 3.06929 0
M  V30 5006 C 461.393 -3.2667 4.04454 0
M  V30 5007 C 459.078 -3.6395 3.46187 0
M  V30 5008 C 461.072 -3.39877 5.39224 0
M  V30 5009 C 458.759 -3.768 4.81108 0
M  V30 5010 C 459.757 -3.6477 5.77436 0
M  V30 5011 O 459.445 -3.77206 7.09909 0
M  V30 5012 H 459.177 -0.56419 0.372378 0
M  V30 5013 H 461.731 -1.26971 1.61454 0
M  V30 5014 H 459.961 -3.74255 0.973147 0
M  V30 5015 H 461.65 -3.81515 1.38568 0
M  V30 5016 H 462.416 -3.06999 3.75468 0
M  V30 5017 H 458.295 -3.72395 2.71741 0
M  V30 5018 H 461.839 -3.30404 6.14393 0
M  V30 5019 H 457.736 -3.95975 5.09779 0
M  V30 5020 H 458.504 -3.94138 7.17355 0
M  V30 5021 N 461.167 -1.02423 -1.1978 0
M  V30 5022 C 462.397 -0.736387 -1.93031 0
M  V30 5023 C 462.805 0.708023 -1.75453 0
M  V30 5024 O 462.148 1.4927 -1.07071 0
M  V30 5025 C 462.21 -1.00194 -3.45255 0
M  V30 5026 C 461.874 -2.43698 -3.86601 0
M  V30 5027 C 462.871 -3.41814 -3.91738 0
M  V30 5028 C 460.556 -2.77975 -4.18372 0
M  V30 5029 C 462.55 -4.72265 -4.28071 0
M  V30 5030 C 460.237 -4.08636 -4.54378 0
M  V30 5031 C 461.235 -5.05592 -4.59201 0
M  V30 5032 O 460.923 -6.33914 -4.94376 0
M  V30 5033 H 460.655 -0.269116 -0.620123 0
M  V30 5034 H 463.209 -1.37043 -1.52998 0
M  V30 5035 H 461.439 -0.310747 -3.85449 0
M  V30 5036 H 463.128 -0.704488 -3.9974 0
M  V30 5037 H 463.894 -3.16671 -3.67348 0
M  V30 5038 H 459.773 -2.0319 -4.13805 0
M  V30 5039 H 463.317 -5.4794 -4.3175 0
M  V30 5040 H 459.214 -4.33556 -4.78226 0
M  V30 5041 H 459.982 -6.38317 -5.12341 0
M  V30 5042 N 462.645 1.35699 -0.801477 0
M  V30 5043 C 463.87 2.03687 -0.390678 0
M  V30 5044 C 464.295 1.60015 0.988778 0
M  V30 5045 O 463.653 0.774357 1.63931 0
M  V30 5046 C 463.701 3.57439 -0.476404 0
M  V30 5047 O 462.805 4.09208 0.512106 0
M  V30 5048 H 462.146 0.64344 -0.163956 0
M  V30 5049 H 464.676 1.73403 -1.08594 0
M  V30 5050 H 464.686 4.06544 -0.344357 0
M  V30 5051 H 463.361 3.88576 -1.48262 0
M  V30 5052 H 461.938 3.7134 0.340721 0
M  V30 5053 N 464.123 0.554532 1.47522 0
M  V30 5054 C 465.053 -0.182974 2.32782 0
M  V30 5055 C 466.034 -0.911377 1.43624 0
M  V30 5056 O 467.219 -0.892366 1.72483 0
M  V30 5057 C 464.349 -1.21513 3.25349 0
M  V30 5058 C 463.303 -0.603355 4.23726 0
M  V30 5059 C 462.629 -1.73995 5.05598 0
M  V30 5060 C 463.929 0.441121 5.20434 0
M  V30 5061 H 465.623 0.52882 2.94693 0
M  V30 5062 H 463.169 0.255759 1.41711 0
M  V30 5063 H 465.122 -1.73922 3.83835 0
M  V30 5064 H 463.846 -1.95683 2.61487 0
M  V30 5065 H 462.505 -0.10059 3.66462 0
M  V30 5066 H 462.153 -2.47063 4.38143 0
M  V30 5067 H 461.853 -1.3364 5.72201 0
M  V30 5068 H 463.377 -2.26735 5.66942 0
M  V30 5069 H 464.791 0.00319931 5.733 0
M  V30 5070 H 463.188 0.763402 5.95224 0
M  V30 5071 H 464.258 1.33799 4.66075 0
M  V30 5072 N 465.601 -1.54893 0.290851 0
M  V30 5073 C 466.511 -2.26812 -0.59945 0
M  V30 5074 C 467.527 -1.29963 -1.15696 0
M  V30 5075 O 468.703 -1.62928 -1.18391 0
M  V30 5076 C 465.768 -2.98716 -1.75982 0
M  V30 5077 C 464.829 -4.1108 -1.2374 0
M  V30 5078 C 464.062 -4.79546 -2.34246 0
M  V30 5079 O 464.285 -4.47309 -3.53936 0
M  V30 5080 O 463.219 -5.67165 -2.01512 0
M  V30 5081 H 467.045 -3.03696 -0.0163561 0
M  V30 5082 H 464.63 -1.49289 0.0576755 0
M  V30 5083 H 466.512 -3.43851 -2.43607 0
M  V30 5084 H 465.187 -2.24737 -2.3297 0
M  V30 5085 H 464.094 -3.70367 -0.527163 0
M  V30 5086 H 465.427 -4.87007 -0.71307 0
M  V30 5087 N 467.08 -0.0183926 -1.57589 0
M  V30 5088 C 468.357 0.700621 -1.82622 0
M  V30 5089 C 468.737 1.90951 -0.90005 0
M  V30 5090 O 468.085 2.28452 0.0469145 0
M  V30 5091 C 468.295 1.08899 -3.31575 0
M  V30 5092 C 469.643 1.48514 -3.9778 0
M  V30 5093 O 470.667 1.18227 -3.36007 0
M  V30 5094 O 469.526 2.04903 -5.06633 0
M  V30 5095 H 466.62 0.342743 -0.752633 0
M  V30 5096 H 469.166 -0.0452548 -1.6964 0
M  V30 5097 H 467.938 0.228113 -3.90635 0
M  V30 5098 H 467.561 1.89338 -3.49624 0
M  V30 5099 N 468.558 1.5553 0.254621 0
M  V30 5100 C 469.488 1.9268 1.31897 0
M  V30 5101 C 470.469 0.790797 1.506 0
M  V30 5102 O 471.654 1.05045 1.63337 0
M  V30 5103 C 468.784 2.21477 2.67517 0
M  V30 5104 C 467.738 3.37256 2.63519 0
M  V30 5105 C 467.064 3.51576 4.02862 0
M  V30 5106 C 468.364 4.73157 2.21179 0
M  V30 5107 H 470.058 2.81832 1.01051 0
M  V30 5108 H 467.604 1.35599 0.484662 0
M  V30 5109 H 469.557 2.46055 3.42104 0
M  V30 5110 H 468.281 1.29144 2.99982 0
M  V30 5111 H 466.94 3.12675 1.9139 0
M  V30 5112 H 466.588 2.56676 4.32581 0
M  V30 5113 H 466.288 4.2943 4.01078 0
M  V30 5114 H 467.812 3.78467 4.79161 0
M  V30 5115 H 469.226 4.97158 2.85494 0
M  V30 5116 H 467.623 5.54058 2.30521 0
M  V30 5117 H 468.693 4.70739 1.16332 0
M  V30 5118 N 470.036 -0.519951 1.48776 0
M  V30 5119 C 470.984 -1.64443 1.64503 0
M  V30 5120 C 471.978 -1.61501 0.511248 0
M  V30 5121 O 473.184 -1.66238 0.690294 0
M  V30 5122 H 469.559 -0.544776 0.518385 0
M  V30 5123 H 471.53 -1.48325 2.58925 0
M  V30 5124 C 470.279 -3.02673 1.71127 0
M  V30 5125 H 469.602 -3.05635 2.57735 0
M  V30 5126 H 471.042 -3.80941 1.86172 0
M  V30 5127 C 469.501 -3.33854 0.452032 0
M  V30 5128 O 470.031 -3.99385 -0.430678 0
M  V30 5129 N 468.237 -2.88825 0.32069 0
M  V30 5130 H 467.784 -2.35674 1.03998 0
M  V30 5131 H 467.742 -3.10056 -0.520814 0
M  V30 5132 N 471.514 -1.37532 -0.769588 0
M  V30 5133 C 472.462 -1.33561 -1.90432 0
M  V30 5134 C 473.456 -0.224027 -1.67912 0
M  V30 5135 O 474.662 -0.392174 -1.75676 0
M  V30 5136 H 471.037 -0.416279 -0.626271 0
M  V30 5137 H 473.008 -2.29348 -1.90899 0
M  V30 5138 C 471.757 -1.16162 -3.27722 0
M  V30 5139 H 471.08 -2.00951 -3.45628 0
M  V30 5140 H 472.52 -1.17434 -4.07413 0
M  V30 5141 C 470.979 0.132583 -3.36639 0
M  V30 5142 O 471.509 1.11539 -3.85904 0
M  V30 5143 N 469.715 0.184013 -2.90017 0
M  V30 5144 H 469.262 -0.616415 -2.50116 0
M  V30 5145 H 469.22 1.04956 -2.96364 0
M  V30 5146 N 472.992 0.995999 -1.22138 0
M  V30 5147 C 473.939 2.08551 -0.988687 0
M  V30 5148 C 474.909 1.65864 0.0885021 0
M  V30 5149 O 476.094 1.90704 -0.0604589 0
M  V30 5150 C 473.234 3.40374 -0.569191 0
M  V30 5151 C 472.347 3.96421 -1.71681 0
M  V30 5152 C 471.482 5.1639 -1.2456 0
M  V30 5153 C 470.521 5.64567 -2.36497 0
M  V30 5154 N 469.658 6.75777 -1.90445 0
M  V30 5155 H 474.498 2.2779 -1.92135 0
M  V30 5156 H 472.035 1.1168 -0.957388 0
M  V30 5157 H 473.993 4.16068 -0.307166 0
M  V30 5158 H 472.623 3.21145 0.326462 0
M  V30 5159 H 471.675 3.17628 -2.09324 0
M  V30 5160 H 472.987 4.2816 -2.55891 0
M  V30 5161 H 472.141 5.99362 -0.940774 0
M  V30 5162 H 470.88 4.86266 -0.373662 0
M  V30 5163 H 469.885 4.80185 -2.67772 0
M  V30 5164 H 471.11 5.96716 -3.24202 0
M  V30 5165 H 469.056 6.47443 -1.05609 0
M  V30 5166 H 468.973 7.06818 -2.68223 0
M  V30 5167 H 470.241 7.62262 -1.63022 0
M  V30 5168 N 474.47 1.03057 1.19235 0
M  V30 5169 C 475.7 0.746613 1.92638 0
M  V30 5170 C 476.108 -0.698708 1.75826 0
M  V30 5171 O 475.451 -1.487 1.07861 0
M  V30 5172 C 475.513 1.02024 3.44719 0
M  V30 5173 C 475.177 2.45745 3.85303 0
M  V30 5174 C 476.174 3.43887 3.8992 0
M  V30 5175 C 473.859 2.8019 4.16892 0
M  V30 5176 C 475.853 4.74529 4.2556 0
M  V30 5177 C 473.54 4.1104 4.52205 0
M  V30 5178 C 474.538 5.0802 4.56513 0
M  V30 5179 O 474.226 6.36527 4.91008 0
M  V30 5180 H 473.958 0.272401 0.618687 0
M  V30 5181 H 476.512 1.37853 1.52269 0
M  V30 5182 H 474.742 0.331184 3.85279 0
M  V30 5183 H 476.431 0.725677 3.9936 0
M  V30 5184 H 477.197 3.18614 3.65664 0
M  V30 5185 H 473.076 2.05382 4.12722 0
M  V30 5186 H 476.62 5.50222 4.28838 0
M  V30 5187 H 472.517 4.36086 4.7592 0
M  V30 5188 H 473.285 6.41025 5.08949 0
M  V30 5189 N 475.948 -1.35272 0.808662 0
M  V30 5190 C 476.878 -2.32315 0.234981 0
M  V30 5191 C 477.859 -1.57572 -0.64071 0
M  V30 5192 O 479.044 -1.8563 -0.570551 0
M  V30 5193 C 476.174 -3.41801 -0.615601 0
M  V30 5194 C 475.128 -4.27694 0.161767 0
M  V30 5195 C 474.454 -5.28519 -0.810649 0
M  V30 5196 C 475.754 -5.04231 1.36193 0
M  V30 5197 H 477.448 -2.80543 1.04575 0
M  V30 5198 H 474.994 -1.3488 0.504315 0
M  V30 5199 H 476.947 -4.08693 -1.02702 0
M  V30 5200 H 475.671 -2.92186 -1.45928 0
M  V30 5201 H 474.33 -3.62384 0.554382 0
M  V30 5202 H 473.978 -4.75171 -1.64988 0
M  V30 5203 H 473.678 -5.8686 -0.294822 0
M  V30 5204 H 475.202 -5.98283 -1.22023 0
M  V30 5205 H 476.616 -5.64058 1.02528 0
M  V30 5206 H 475.013 -5.72077 1.81239 0
M  V30 5207 H 476.083 -4.34753 2.14751 0
M  V30 5208 N 477.426 -0.562348 -1.47226 0
M  V30 5209 C 478.656 -0.0451619 -2.06551 0
M  V30 5210 C 479.064 1.25626 -1.41473 0
M  V30 5211 O 478.407 1.76563 -0.507061 0
M  V30 5212 C 478.469 0.216068 -3.5885 0
M  V30 5213 C 478.133 -0.996691 -4.45999 0
M  V30 5214 C 479.13 -1.90358 -4.83797 0
M  V30 5215 C 476.815 -1.21281 -4.87438 0
M  V30 5216 C 478.809 -3.01023 -5.6184 0
M  V30 5217 C 476.496 -2.32255 -5.65244 0
M  V30 5218 C 477.494 -3.21956 -6.02356 0
M  V30 5219 O 477.182 -4.31005 -6.78594 0
M  V30 5220 H 476.914 -0.0451646 -0.67449 0
M  V30 5221 H 479.468 -0.776842 -1.90143 0
M  V30 5222 H 477.698 1.00212 -3.7349 0
M  V30 5223 H 479.387 0.679264 -4.00176 0
M  V30 5224 H 480.153 -1.74868 -4.52378 0
M  V30 5225 H 476.032 -0.523767 -4.58015 0
M  V30 5226 H 479.576 -3.71064 -5.90726 0
M  V30 5227 H 475.473 -2.47715 -5.96077 0
M  V30 5228 H 476.241 -4.29118 -6.96994 0
M  V30 5229 N 478.904 1.54736 -0.299062 0
M  V30 5230 C 480.153 1.99279 0.311549 0
M  V30 5231 C 480.466 1.19107 1.55154 0
M  V30 5232 O 481.672 1.53908 2.23662 0
M  V30 5233 C 480.128 3.54768 0.605632 0
M  V30 5234 C 479.736 4.43746 -0.615914 0
M  V30 5235 C 481.48 4.07841 1.17754 0
M  V30 5236 C 479.387 5.90663 -0.29509 0
M  V30 5237 H 478.317 0.744359 0.120187 0
M  V30 5238 H 480.968 1.78919 -0.407464 0
M  V30 5239 H 479.35 3.71021 1.38419 0
M  V30 5240 H 480.524 4.39267 -1.39218 0
M  V30 5241 H 478.839 4.01434 -1.10633 0
M  V30 5242 H 481.436 5.15174 1.43179 0
M  V30 5243 H 481.779 3.58324 2.11918 0
M  V30 5244 H 482.312 3.95123 0.460739 0
M  V30 5245 H 479.051 6.44325 -1.20524 0
M  V30 5246 H 478.571 5.98155 0.44394 0
M  V30 5247 H 480.25 6.46916 0.104048 0
M  V30 5248 N 480.382 0.0267497 1.57577 0
M  V30 5249 C 481.345 -0.940916 2.08996 0
M  V30 5250 C 482.345 -1.25561 1.00455 0
M  V30 5251 O 483.535 -1.19634 1.26623 0
M  V30 5252 C 480.667 -2.25814 2.55384 0
M  V30 5253 H 481.86 -0.495628 2.95776 0
M  V30 5254 H 479.413 -0.221241 1.54726 0
M  V30 5255 H 480.148 -2.74976 1.71926 0
M  V30 5256 H 479.933 -2.04285 3.34679 0
M  V30 5257 H 481.423 -2.95178 2.95398 0
M  V30 5258 N 481.861 -1.55662 -0.24637 0
M  V30 5259 C 483.107 -1.77782 -0.975779 0
M  V30 5260 C 483.44 -0.592103 -1.84953 0
M  V30 5261 O 482.715 0.409588 -1.90138 0
M  V30 5262 C 482.998 -3.09788 -1.83584 0
M  V30 5263 C 482.851 -4.38764 -0.990241 0
M  V30 5264 C 484.17 -3.38029 -2.81823 0
M  V30 5265 H 481.289 -0.646789 -0.353317 0
M  V30 5266 H 483.931 -1.88398 -0.246248 0
M  V30 5267 H 482.081 -3.00869 -2.45784 0
M  V30 5268 H 483.753 -4.59675 -0.386897 0
M  V30 5269 H 481.996 -4.32798 -0.294626 0
M  V30 5270 H 482.667 -5.27514 -1.62584 0
M  V30 5271 H 485.143 -3.46915 -2.2976 0
M  V30 5272 H 484.019 -4.3161 -3.39122 0
M  V30 5273 H 484.28 -2.58968 -3.58313 0
M  V30 5274 N 483.339 0.512053 -1.4905 0
M  V30 5275 C 484.567 1.29116 -1.61669 0
M  V30 5276 C 484.982 1.86655 -0.283787 0
M  V30 5277 O 484.339 1.67293 0.729331 0
M  V30 5278 C 484.39 2.4293 -2.67707 0
M  V30 5279 O 484.111 1.87758 -3.95826 0
M  V30 5280 C 485.612 3.34476 -2.90931 0
M  V30 5281 H 482.832 0.392009 -0.544583 0
M  V30 5282 H 485.376 0.615881 -1.95006 0
M  V30 5283 H 483.531 3.06308 -2.37179 0
M  V30 5284 H 483.945 2.62393 -4.54148 0
M  V30 5285 H 485.419 4.10642 -3.68886 0
M  V30 5286 H 485.896 3.90801 -2.00427 0
M  V30 5287 H 486.502 2.76874 -3.22832 0
M  V30 5288 N 484.817 1.37938 0.762283 0
M  V30 5289 C 486.063 1.33866 1.52341 0
M  V30 5290 C 486.396 -0.0738961 1.94059 0
M  V30 5291 O 485.671 -1.03326 1.64785 0
M  V30 5292 C 485.954 2.28644 2.78197 0
M  V30 5293 C 485.807 3.78722 2.42672 0
M  V30 5294 C 487.126 2.21702 3.80179 0
M  V30 5295 H 484.245 0.487593 0.55265 0
M  V30 5296 H 486.887 1.68717 0.873767 0
M  V30 5297 H 485.037 1.99055 3.33631 0
M  V30 5298 H 486.709 4.18948 1.93081 0
M  V30 5299 H 484.952 3.96827 1.75244 0
M  V30 5300 H 485.623 4.40486 3.3268 0
M  V30 5301 H 488.099 2.47805 3.34263 0
M  V30 5302 H 486.975 2.90143 4.65949 0
M  V30 5303 H 487.236 1.21301 4.25133 0
M  V30 5304 N 486.295 -0.989507 1.22664 0
M  V30 5305 C 487.544 -1.72375 1.04737 0
M  V30 5306 C 487.857 -1.91096 -0.417316 0
M  V30 5307 O 489.063 -2.6188 -0.716334 0
M  V30 5308 C 487.519 -3.10161 1.82561 0
M  V30 5309 C 487.127 -2.99358 3.333 0
M  V30 5310 C 488.871 -3.87607 1.73093 0
M  V30 5311 C 486.778 -4.32319 4.03552 0
M  V30 5312 H 485.708 -0.646326 0.388302 0
M  V30 5313 H 488.359 -1.10437 1.46546 0
M  V30 5314 H 486.741 -3.728 1.33552 0
M  V30 5315 H 487.915 -2.45863 3.89728 0
M  V30 5316 H 486.23 -2.35392 3.43481 0
M  V30 5317 H 488.827 -4.86025 2.22899 0
M  V30 5318 H 489.17 -4.10509 0.691976 0
M  V30 5319 H 489.703 -3.31652 2.19663 0
M  V30 5320 H 486.442 -4.14616 5.07714 0
M  V30 5321 H 485.962 -4.85714 3.51911 0
M  V30 5322 H 487.641 -5.01051 4.09337 0
M  V30 5323 N 487.773 -1.03688 -1.18687 0
M  V30 5324 C 488.683 -0.634908 -2.25845 0
M  V30 5325 C 489.699 0.337065 -1.70704 0
M  V30 5326 O 490.875 0.192943 -2.00474 0
M  V30 5327 C 487.94 -0.000180054 -3.467 0
M  V30 5328 C 487.001 -1.02067 -4.1699 0
M  V30 5329 C 486.234 -0.41614 -5.32075 0
M  V30 5330 O 486.457 0.778712 -5.65059 0
M  V30 5331 O 485.391 -1.14296 -5.90948 0
M  V30 5332 H 489.217 -1.52757 -2.62486 0
M  V30 5333 H 486.802 -0.807533 -1.25695 0
M  V30 5334 H 488.684 0.353342 -4.19916 0
M  V30 5335 H 487.359 0.866367 -3.11891 0
M  V30 5336 H 486.266 -1.42592 -3.45859 0
M  V30 5337 H 487.599 -1.85786 -4.5579 0
M  V30 5338 N 489.251 1.34841 -0.815825 0
M  V30 5339 C 490.476 2.03261 -0.41226 0
M  V30 5340 C 490.901 1.61055 0.971751 0
M  V30 5341 O 490.259 0.7917 1.63101 0
M  V30 5342 C 490.307 3.56914 -0.514289 0
M  V30 5343 O 489.411 4.09728 0.468675 0
M  V30 5344 H 488.752 0.641664 -0.170771 0
M  V30 5345 H 491.282 1.72241 -1.10427 0
M  V30 5346 H 491.292 4.06156 -0.387457 0
M  V30 5347 H 489.967 3.86982 -1.52375 0
M  V30 5348 H 488.544 3.71681 0.301316 0
M  V30 5349 N 490.729 0.570148 1.46925 0
M  V30 5350 C 491.957 0.0561966 2.06824 0
M  V30 5351 C 492.372 -1.24326 1.42086 0
M  V30 5352 O 491.729 -1.74882 0.521794 0
M  V30 5353 C 491.78 -0.129517 3.61268 0
M  V30 5354 O 491.501 1.1185 4.23581 0
M  V30 5355 C 493.002 -0.679266 4.38065 0
M  V30 5356 H 490.222 0.0517261 0.669003 0
M  V30 5357 H 492.766 0.787243 1.8874 0
M  V30 5358 H 490.921 -0.810739 3.78822 0
M  V30 5359 H 491.335 0.924375 5.1629 0
M  V30 5360 H 492.809 -0.758445 5.46765 0
M  V30 5361 H 493.286 -1.69346 4.05239 0
M  V30 5362 H 493.892 -0.0333237 4.25287 0
M  V30 5363 N 492.207 -1.54576 0.307264 0
M  V30 5364 C 493.455 -1.99867 -0.299574 0
M  V30 5365 C 493.776 -1.19714 -1.53927 0
M  V30 5366 O 493.046 -0.29472 -1.9367 0
M  V30 5367 H 491.626 -0.738299 -0.113683 0
M  V30 5368 H 494.288 -1.9032 0.420042 0
M  V30 5369 H 493.384 -3.06901 -0.567283 0
M  V30 5370 N 493.685 -0.035106 -1.57561 0
M  V30 5371 C 494.933 0.64096 -1.91667 0
M  V30 5372 C 495.254 1.72323 -0.912681 0
M  V30 5373 O 494.524 1.95849 0.0449089 0
M  V30 5374 H 493.104 0.239743 -0.707483 0
M  V30 5375 H 495.766 -0.084321 -1.94718 0
M  V30 5376 H 494.862 1.08987 -2.92452 0
M  V30 5377 N 495.163 1.55791 0.238111 0
M  V30 5378 C 496.41 1.78033 0.964907 0
M  V30 5379 C 496.738 0.600984 1.84982 0
M  V30 5380 O 495.993 -0.41536 1.91241 0
M  V30 5381 C 496.292 3.05869 1.84875 0
M  V30 5382 C 495.958 4.36808 1.11846 0
M  V30 5383 C 494.62 4.72388 0.916662 0
M  V30 5384 C 496.972 5.17717 0.60151 0
M  V30 5385 C 494.3 5.86406 0.185756 0
M  V30 5386 C 496.652 6.32494 -0.115972 0
M  V30 5387 C 495.316 6.66688 -0.329168 0
M  V30 5388 H 494.586 0.651469 0.353085 0
M  V30 5389 H 497.233 1.90061 0.234318 0
M  V30 5390 H 495.538 2.88891 2.64668 0
M  V30 5391 H 497.235 3.20278 2.41294 0
M  V30 5392 H 493.825 4.08862 1.28569 0
M  V30 5393 H 498.009 4.90678 0.744932 0
M  V30 5394 H 493.265 6.11399 0.0101886 0
M  V30 5395 H 497.439 6.94425 -0.524127 0
M  V30 5396 H 495.066 7.54884 -0.897474 0
M  V30 5397 N 496.642 -0.504142 1.49319 0
M  V30 5398 C 497.867 -1.28729 1.62615 0
M  V30 5399 C 498.292 -1.85752 0.296309 0
M  V30 5400 O 497.65 -1.65704 -0.735649 0
M  V30 5401 C 497.698 -2.39561 2.69524 0
M  V30 5402 O 496.802 -3.43324 2.28478 0
M  V30 5403 H 496.143 -0.380172 0.544395 0
M  V30 5404 H 498.673 -0.603872 1.95485 0
M  V30 5405 H 498.683 -2.8537 2.91595 0
M  V30 5406 H 497.358 -1.97423 3.66056 0
M  V30 5407 H 495.935 -3.03455 2.16725 0
M  V30 5408 N 498.12 -1.38341 -0.754957 0
M  V30 5409 C 499.03 -1.3769 -1.89944 0
M  V30 5410 C 500.046 -0.274194 -1.71826 0
M  V30 5411 O 501.222 -0.512391 -1.94773 0
M  V30 5412 C 498.287 -1.19938 -3.25293 0
M  V30 5413 C 497.348 -2.40001 -3.55946 0
M  V30 5414 C 496.581 -2.23087 -4.84838 0
M  V30 5415 O 496.804 -1.22386 -5.57116 0
M  V30 5416 O 495.738 -3.11646 -5.14937 0
M  V30 5417 H 499.564 -2.3412 -1.93446 0
M  V30 5418 H 497.149 -1.19246 -0.900044 0
M  V30 5419 H 499.031 -1.12093 -4.06218 0
M  V30 5420 H 497.706 -0.265919 -3.22606 0
M  V30 5421 H 496.613 -2.53421 -2.75188 0
M  V30 5422 H 497.946 -3.31973 -3.63394 0
M  V30 5423 N 499.598 0.982988 -1.23187 0
M  V30 5424 C 500.508 2.10907 -1.02739 0
M  V30 5425 C 501.524 1.73979 0.0273188 0
M  V30 5426 O 502.7 2.00702 -0.16757 0
M  V30 5427 C 499.765 3.41142 -0.618304 0
M  V30 5428 C 498.826 3.92112 -1.74777 0
M  V30 5429 C 498.059 5.16131 -1.3581 0
M  V30 5430 O 498.282 5.6989 -0.241201 0
M  V30 5431 O 497.216 5.61103 -2.17824 0
M  V30 5432 H 501.042 2.31046 -1.97108 0
M  V30 5433 H 498.627 1.09284 -1.01869 0
M  V30 5434 H 500.509 4.19488 -0.400982 0
M  V30 5435 H 499.184 3.2234 0.296421 0
M  V30 5436 H 498.091 3.14895 -2.0197 0
M  V30 5437 H 499.424 4.15364 -2.64071 0
M  V30 5438 N 501.076 1.04316 1.18135 0
M  V30 5439 C 502.039 0.640794 2.2006 0
M  V30 5440 C 503.039 -0.303124 1.57917 0
M  V30 5441 O 504.229 -0.0881855 1.73977 0
M  V30 5442 C 501.361 -0.060148 3.40847 0
M  V30 5443 H 502.554 1.54281 2.57172 0
M  V30 5444 H 500.107 0.836004 1.32063 0
M  V30 5445 H 500.842 -0.975845 3.0927 0
M  V30 5446 H 500.627 0.618319 3.87194 0
M  V30 5447 H 502.117 -0.328082 4.16309 0
M  V30 5448 N 502.554 -1.34406 0.822964 0
M  V30 5449 C 503.464 -2.33298 0.246838 0
M  V30 5450 C 504.48 -1.62625 -0.618797 0
M  V30 5451 O 505.656 -1.94391 -0.526685 0
M  V30 5452 C 502.721 -3.41785 -0.581731 0
M  V30 5453 C 501.782 -4.28206 0.306309 0
M  V30 5454 C 501.015 -5.31512 -0.48281 0
M  V30 5455 O 501.238 -5.43973 -1.71607 0
M  V30 5456 O 500.172 -6.01749 0.134884 0
M  V30 5457 H 503.998 -2.84401 1.06534 0
M  V30 5458 H 501.583 -1.37466 0.585108 0
M  V30 5459 H 503.465 -4.08028 -1.05313 0
M  V30 5460 H 502.14 -2.92925 -1.37756 0
M  V30 5461 H 501.047 -3.64885 0.825199 0
M  V30 5462 H 502.38 -4.80507 1.06649 0
M  V30 5463 N 504.032 -0.577932 -1.46621 0
M  V30 5464 C 505.281 -0.0594281 -2.01612 0
M  V30 5465 C 505.594 1.30663 -1.45556 0
M  V30 5466 O 506.8 1.91621 -1.92337 0
M  V30 5467 C 505.256 -0.0556666 -3.59857 0
M  V30 5468 C 504.864 -1.41975 -4.24908 0
M  V30 5469 C 506.608 0.409143 -4.22524 0
M  V30 5470 C 504.515 -1.37397 -5.75218 0
M  V30 5471 H 503.445 -0.0184469 -0.753774 0
M  V30 5472 H 506.096 -0.728869 -1.68404 0
M  V30 5473 H 504.478 0.679843 -3.90121 0
M  V30 5474 H 505.652 -2.17461 -4.0626 0
M  V30 5475 H 503.967 -1.82419 -3.74316 0
M  V30 5476 H 506.564 0.46211 -5.32699 0
M  V30 5477 H 506.907 1.42565 -3.91128 0
M  V30 5478 H 507.44 -0.272152 -3.96868 0
M  V30 5479 H 504.179 -2.36714 -6.11267 0
M  V30 5480 H 503.699 -0.661239 -5.96144 0
M  V30 5481 H 505.378 -1.08484 -6.3784 0
M  V30 5482 N 505.51 1.54411 -0.315457 0
M  V30 5483 C 506.921 1.85885 0.174265 0
M  V30 5484 C 507.272 1.23723 1.52273 0
M  V30 5485 O 506.397 0.540246 2.09548 0
M  V30 5486 C 506.992 3.37257 0.322981 0
M  V30 5487 C 505.551 3.68711 0.756922 0
M  V30 5488 C 504.698 2.77013 -0.126195 0
M  V30 5489 H 507.649 1.49374 -0.536007 0
M  V30 5490 H 507.67 3.62539 1.15522 0
M  V30 5491 H 507.182 3.82471 -0.658602 0
M  V30 5492 H 505.283 3.29024 1.74854 0
M  V30 5493 H 505.396 4.75741 0.566291 0
M  V30 5494 H 503.76 2.51588 0.39692 0
M  V30 5495 H 504.543 3.25051 -1.1044 0
M  V30 5496 N 506.988 0.0434614 1.5754 0
M  V30 5497 C 508.236 -0.630786 1.92004 0
M  V30 5498 C 508.557 -1.71836 0.921807 0
M  V30 5499 O 507.827 -1.9587 -0.034522 0
M  V30 5500 H 506.407 -0.235988 0.708745 0
M  V30 5501 H 509.069 0.0946462 1.9467 0
M  V30 5502 H 508.165 -1.07434 2.93026 0
M  V30 5503 N 508.466 -1.55915 -0.229846 0
M  V30 5504 C 509.715 -1.77742 -0.953455 0
M  V30 5505 C 510.028 -0.610524 -1.85828 0
M  V30 5506 O 511.234 -0.712219 -2.61992 0
M  V30 5507 C 509.69 -3.14738 -1.74551 0
M  V30 5508 C 509.298 -4.39126 -0.887242 0
M  V30 5509 C 511.042 -3.45895 -2.46084 0
M  V30 5510 C 508.949 -5.67149 -1.67617 0
M  V30 5511 H 507.879 -0.662648 -0.359741 0
M  V30 5512 H 510.53 -1.82322 -0.207576 0
M  V30 5513 H 508.912 -3.04311 -2.53399 0
M  V30 5514 H 510.086 -4.60588 -0.139892 0
M  V30 5515 H 508.401 -4.15427 -0.284443 0
M  V30 5516 H 510.998 -4.38767 -3.05594 0
M  V30 5517 H 511.341 -2.68007 -3.18556 0
M  V30 5518 H 511.874 -3.57614 -1.74233 0
M  V30 5519 H 508.613 -6.47906 -0.994881 0
M  V30 5520 H 508.133 -5.49763 -2.39836 0
M  V30 5521 H 509.812 -6.07025 -2.23898 0
M  V30 5522 N 509.944 0.496216 -1.49584 0
M  V30 5523 C 510.891 1.59722 -1.66606 0
M  V30 5524 C 511.861 1.58158 -0.507477 0
M  V30 5525 O 513.046 1.76072 -0.735076 0
M  V30 5526 C 510.186 2.97844 -1.74308 0
M  V30 5527 C 509.299 3.09388 -3.01502 0
M  V30 5528 C 508.434 4.38271 -3.00153 0
M  V30 5529 C 507.473 4.43466 -4.21906 0
M  V30 5530 N 506.61 5.63784 -4.1844 0
M  V30 5531 H 511.45 1.44515 -2.60613 0
M  V30 5532 H 508.987 0.703048 -1.29212 0
M  V30 5533 H 510.945 3.77907 -1.76754 0
M  V30 5534 H 509.575 3.11743 -0.837619 0
M  V30 5535 H 508.627 2.22357 -3.08645 0
M  V30 5536 H 509.939 3.09085 -3.91494 0
M  V30 5537 H 509.093 5.2666 -3.01188 0
M  V30 5538 H 507.832 4.41146 -2.07947 0
M  V30 5539 H 506.837 3.53478 -4.21109 0
M  V30 5540 H 508.062 4.42303 -5.1531 0
M  V30 5541 H 506.008 5.67491 -3.29074 0
M  V30 5542 H 505.925 5.65118 -5.02173 0
M  V30 5543 H 507.193 6.54367 -4.23585 0
M  V30 5544 N 511.423 1.38739 0.74761 0
M  V30 5545 C 512.653 1.3832 1.53464 0
M  V30 5546 C 513.061 -0.0273464 1.8918 0
M  V30 5547 O 512.404 -1.00588 1.53713 0
M  V30 5548 C 512.466 2.18007 2.85855 0
M  V30 5549 C 512.13 3.66762 2.72644 0
M  V30 5550 C 513.127 4.60124 2.42037 0
M  V30 5551 C 510.812 4.10193 2.89909 0
M  V30 5552 C 512.806 5.94897 2.28859 0
M  V30 5553 C 510.493 5.45045 2.7635 0
M  V30 5554 C 511.491 6.37211 2.45869 0
M  V30 5555 O 511.179 7.69581 2.3238 0
M  V30 5556 H 510.911 0.474718 0.481268 0
M  V30 5557 H 513.465 1.83012 0.932518 0
M  V30 5558 H 511.695 1.68043 3.48279 0
M  V30 5559 H 513.384 2.09921 3.47402 0
M  V30 5560 H 514.15 4.27874 2.28361 0
M  V30 5561 H 510.029 3.38797 3.1263 0
M  V30 5562 H 513.573 6.66802 2.04989 0
M  V30 5563 H 509.47 5.76889 2.89601 0
M  V30 5564 H 510.238 7.80169 2.47546 0
M  V30 5565 N 512.901 -0.976442 1.23707 0
M  V30 5566 C 514.147 -1.72081 1.07312 0
M  V30 5567 C 514.48 -1.90275 -0.388476 0
M  V30 5568 O 513.755 -1.4579 -1.28746 0
M  V30 5569 C 514.038 -3.11675 1.80363 0
M  V30 5570 C 513.891 -3.01027 3.3422 0
M  V30 5571 C 515.21 -4.1117 1.5693 0
M  V30 5572 H 512.329 -0.624583 0.391236 0
M  V30 5573 H 514.971 -1.13649 1.52263 0
M  V30 5574 H 513.121 -3.61559 1.42153 0
M  V30 5575 H 514.793 -2.58637 3.81975 0
M  V30 5576 H 513.036 -2.3744 3.63049 0
M  V30 5577 H 513.707 -3.9988 3.80525 0
M  V30 5578 H 516.183 -3.7011 1.90151 0
M  V30 5579 H 515.059 -5.06928 2.10513 0
M  V30 5580 H 515.32 -4.392 0.505548 0
M  V30 5581 N 514.379 -1.04941 -1.1758 0
M  V30 5582 C 515.309 -0.669172 -2.23706 0
M  V30 5583 C 516.29 0.331835 -1.66832 0
M  V30 5584 O 517.475 0.209988 -1.93061 0
M  V30 5585 C 514.605 -0.0404889 -3.47276 0
M  V30 5586 C 513.559 -0.965983 -4.16957 0
M  V30 5587 C 512.885 -0.201312 -5.34321 0
M  V30 5588 C 514.185 -2.28902 -4.69469 0
M  V30 5589 H 515.879 -1.55639 -2.55767 0
M  V30 5590 H 513.425 -0.749793 -1.22939 0
M  V30 5591 H 515.378 0.237298 -4.20731 0
M  V30 5592 H 514.102 0.881658 -3.14475 0
M  V30 5593 H 512.761 -1.22829 -3.45411 0
M  V30 5594 H 512.409 0.723519 -4.97769 0
M  V30 5595 H 512.109 -0.817968 -5.81879 0
M  V30 5596 H 513.633 0.0692499 -6.10561 0
M  V30 5597 H 515.047 -2.07132 -5.34574 0
M  V30 5598 H 513.444 -2.85942 -5.27596 0
M  V30 5599 H 514.514 -2.92937 -3.86414 0
M  V30 5600 N 515.857 1.33968 -0.830081 0
M  V30 5601 C 517.082 2.02813 -0.433796 0
M  V30 5602 C 517.507 1.62076 0.954614 0
M  V30 5603 O 516.865 0.808955 1.62252 0
M  V30 5604 C 516.913 3.56348 -0.552115 0
M  V30 5605 O 516.017 4.10202 0.425191 0
M  V30 5606 H 515.358 0.639817 -0.177567 0
M  V30 5607 H 517.888 1.7106 -1.12248 0
M  V30 5608 H 517.898 4.05722 -0.430513 0
M  V30 5609 H 516.573 3.85344 -1.56471 0
M  V30 5610 H 515.15 3.71979 0.261878 0
M  V30 5611 N 517.335 0.585699 1.46312 0
M  V30 5612 C 518.746 0.159938 1.86014 0
M  V30 5613 C 519.097 -1.27775 1.48889 0
M  V30 5614 O 518.222 -1.96559 0.90519 0
M  V30 5615 C 518.817 0.283485 3.37612 0
M  V30 5616 C 517.376 -0.0874256 3.76298 0
M  V30 5617 C 516.523 0.618055 2.70325 0
M  V30 5618 H 519.474 0.793737 1.37425 0
M  V30 5619 H 519.495 -0.490348 3.77327 0
M  V30 5620 H 519.007 1.32995 3.64601 0
M  V30 5621 H 517.108 -1.13391 3.54927 0
M  V30 5622 H 517.221 0.290975 4.78216 0
M  V30 5623 H 515.585 0.057993 2.54634 0
M  V30 5624 H 516.368 1.66623 3.00153 0
M  V30 5625 N 518.813 -1.54241 0.323641 0
M  V30 5626 C 520.043 -2.04687 -0.280464 0
M  V30 5627 C 520.451 -1.19939 -1.46326 0
M  V30 5628 O 519.794 -0.222872 -1.82343 0
M  V30 5629 C 519.856 -3.50978 -0.778123 0
M  V30 5630 C 519.52 -4.56127 0.282371 0
M  V30 5631 C 520.517 -5.07726 1.11847 0
M  V30 5632 C 518.202 -5.00451 0.430582 0
M  V30 5633 C 520.196 -6.02212 2.08851 0
M  V30 5634 C 517.883 -5.94752 1.40404 0
M  V30 5635 C 518.881 -6.45519 2.23147 0
M  V30 5636 O 518.569 -7.37968 3.1884 0
M  V30 5637 H 518.301 -0.673192 -0.0615473 0
M  V30 5638 H 520.855 -1.99999 0.467921 0
M  V30 5639 H 519.085 -3.53064 -1.57742 0
M  V30 5640 H 520.774 -3.84499 -1.30058 0
M  V30 5641 H 521.54 -4.74261 1.01496 0
M  V30 5642 H 517.419 -4.6055 -0.203569 0
M  V30 5643 H 520.963 -6.41761 2.73474 0
M  V30 5644 H 516.86 -6.27633 1.5082 0
M  V30 5645 H 517.628 -7.55841 3.14079 0
M  V30 5646 N 520.291 -0.0518155 -1.57515 0
M  V30 5647 C 521.238 0.922352 -2.11569 0
M  V30 5648 C 522.208 1.30842 -1.02321 0
M  V30 5649 O 523.393 1.39778 -1.29872 0
M  V30 5650 C 520.533 2.19167 -2.6657 0
M  V30 5651 C 519.646 1.86003 -3.89906 0
M  V30 5652 C 518.781 3.07398 -4.33221 0
M  V30 5653 C 517.82 2.70158 -5.49255 0
M  V30 5654 N 516.957 3.84248 -5.8762 0
M  V30 5655 H 521.797 0.454506 -2.94514 0
M  V30 5656 H 519.334 0.212718 -1.45554 0
M  V30 5657 H 521.292 2.93443 -2.96559 0
M  V30 5658 H 519.922 2.63528 -1.86421 0
M  V30 5659 H 518.974 1.01874 -3.66505 0
M  V30 5660 H 520.286 1.54592 -4.74239 0
M  V30 5661 H 519.44 3.89972 -4.64765 0
M  V30 5662 H 518.179 3.41988 -3.477 0
M  V30 5663 H 517.184 1.86001 -5.17382 0
M  V30 5664 H 518.409 2.36759 -6.36492 0
M  V30 5665 H 516.355 4.18638 -5.05053 0
M  V30 5666 H 516.272 3.56538 -6.66646 0
M  V30 5667 H 517.54 4.6746 -6.2378 0
M  V30 5668 N 521.769 1.56035 0.221574 0
M  V30 5669 C 522.699 1.95434 1.2778 0
M  V30 5670 C 523.68 0.822564 1.48889 0
M  V30 5671 O 524.865 1.08486 1.61072 0
M  V30 5672 C 521.995 2.27102 2.62759 0
M  V30 5673 C 520.949 3.4277 2.56306 0
M  V30 5674 C 520.275 3.60043 3.95314 0
M  V30 5675 C 521.575 4.77742 2.11093 0
M  V30 5676 H 523.269 2.83912 0.950504 0
M  V30 5677 H 520.815 1.36596 0.455791 0
M  V30 5678 H 522.768 2.53256 3.36807 0
M  V30 5679 H 521.492 1.35478 2.97176 0
M  V30 5680 H 520.151 3.16664 1.84715 0
M  V30 5681 H 519.799 2.65794 4.27039 0
M  V30 5682 H 519.499 4.37841 3.91879 0
M  V30 5683 H 521.023 3.88545 4.71025 0
M  V30 5684 H 522.437 5.03102 2.74885 0
M  V30 5685 H 520.834 5.58823 2.18716 0
M  V30 5686 H 521.904 4.731 1.06321 0
M  V30 5687 N 523.247 -0.488276 1.49845 0
M  V30 5688 C 524.195 -1.60917 1.67954 0
M  V30 5689 C 525.189 -1.6038 0.54539 0
M  V30 5690 O 526.395 -1.64736 0.7254 0
M  V30 5691 H 522.77 -0.533658 0.529824 0
M  V30 5692 H 524.741 -1.428 2.62013 0
M  V30 5693 C 523.49 -2.98975 1.77509 0
M  V30 5694 H 522.813 -3.00099 2.6416 0
M  V30 5695 H 524.253 -3.76906 1.9421 0
M  V30 5696 C 522.712 -3.3282 0.522745 0
M  V30 5697 O 523.242 -4.00208 -0.345866 0
M  V30 5698 N 521.448 -2.8808 0.381882 0
M  V30 5699 H 520.995 -2.33415 1.08974 0
M  V30 5700 H 520.953 -3.11091 -0.454929 0
M  V30 5701 N 524.725 -1.39134 -0.740242 0
M  V30 5702 C 525.655 -1.40165 -1.86751 0
M  V30 5703 C 526.636 -0.265708 -1.68012 0
M  V30 5704 O 527.821 -0.47076 -1.88408 0
M  V30 5705 C 524.951 -1.2392 -3.2444 0
M  V30 5706 C 523.905 -2.34858 -3.57807 0
M  V30 5707 C 523.231 -2.03707 -4.94376 0
M  V30 5708 C 524.531 -3.77159 -3.61315 0
M  V30 5709 H 526.225 -2.345 -1.86145 0
M  V30 5710 H 523.771 -1.12875 -0.89416 0
M  V30 5711 H 525.724 -1.23263 -4.02969 0
M  V30 5712 H 524.448 -0.26051 -3.25559 0
M  V30 5713 H 523.107 -2.34723 -2.81604 0
M  V30 5714 H 522.755 -1.04289 -4.9207 0
M  V30 5715 H 522.455 -2.78016 -5.17669 0
M  V30 5716 H 523.979 -2.04691 -5.75268 0
M  V30 5717 H 525.393 -3.79252 -4.29931 0
M  V30 5718 H 523.79 -4.50784 -3.96124 0
M  V30 5719 H 524.86 -4.08513 -2.61238 0
M  V30 5720 N 526.204 0.969867 -1.24223 0
M  V30 5721 C 527.45 1.7151 -1.08223 0
M  V30 5722 C 527.783 1.90478 0.37838 0
M  V30 5723 O 527.058 1.4647 1.27971 0
M  V30 5724 C 527.341 3.10714 -1.82013 0
M  V30 5725 C 527.194 2.9925 -3.35811 0
M  V30 5726 C 528.513 4.10332 -1.59108 0
M  V30 5727 H 525.632 0.622499 -0.394543 0
M  V30 5728 H 528.274 1.1284 -1.52863 0
M  V30 5729 H 526.424 3.608 -1.44068 0
M  V30 5730 H 528.096 2.56608 -3.83341 0
M  V30 5731 H 526.339 2.35512 -3.64303 0
M  V30 5732 H 527.01 3.97857 -3.82641 0
M  V30 5733 H 529.486 3.69097 -1.92111 0
M  V30 5734 H 528.362 5.05804 -2.13198 0
M  V30 5735 H 528.623 4.38926 -0.528832 0
M  V30 5736 N 527.682 1.05563 1.17022 0
M  V30 5737 C 528.645 0.664098 2.19368 0
M  V30 5738 C 529.645 -0.286358 1.5823 0
M  V30 5739 O 530.835 -0.069728 1.7406 0
M  V30 5740 C 527.967 -0.0239932 3.40892 0
M  V30 5741 H 529.16 1.57 2.55521 0
M  V30 5742 H 526.713 0.849964 1.31169 0
M  V30 5743 H 527.448 -0.942988 3.10287 0
M  V30 5744 H 527.233 0.659351 3.86516 0
M  V30 5745 H 528.723 -0.283909 4.16634 0
M  V30 5746 N 529.16 -1.33526 0.837174 0
M  V30 5747 C 530.388 -2.02047 0.445494 0
M  V30 5748 C 530.803 -1.62995 -0.952788 0
M  V30 5749 O 530.16 -0.842447 -1.61892 0
M  V30 5750 C 530.211 -3.57221 0.554577 0
M  V30 5751 O 529.932 -3.94863 1.89776 0
M  V30 5752 C 531.433 -4.43012 0.159634 0
M  V30 5753 H 528.653 -0.647221 0.177048 0
M  V30 5754 H 531.197 -1.70492 1.12928 0
M  V30 5755 H 529.352 -3.87315 -0.0812781 0
M  V30 5756 H 529.766 -4.89569 1.88208 0
M  V30 5757 H 531.24 -5.51253 0.28701 0
M  V30 5758 H 531.717 -4.29916 -0.898289 0
M  V30 5759 H 532.323 -4.18274 0.769855 0
M  V30 5760 N 530.638 -0.59345 -1.46 0
M  V30 5761 C 532.049 -0.169801 -1.85926 0
M  V30 5762 C 532.4 1.26984 -1.49565 0
M  V30 5763 O 531.525 1.96076 -0.915602 0
M  V30 5764 C 532.12 -0.301385 -3.37457 0
M  V30 5765 C 530.679 0.0674684 -3.7634 0
M  V30 5766 C 529.826 -0.632383 -2.69993 0
M  V30 5767 H 532.777 -0.801014 -1.37002 0
M  V30 5768 H 532.798 0.470331 -3.77582 0
M  V30 5769 H 532.31 -1.34927 -3.63891 0
M  V30 5770 H 530.411 1.11507 -3.55523 0
M  V30 5771 H 530.524 -0.316332 -4.78055 0
M  V30 5772 H 528.888 -0.0714961 -2.546 0
M  V30 5773 H 529.671 -1.68212 -2.99265 0
M  V30 5774 N 532.116 1.54067 -0.331816 0
M  V30 5775 C 533.046 2.27569 0.522932 0
M  V30 5776 C 534.027 1.28679 1.11247 0
M  V30 5777 O 535.212 1.57504 1.13605 0
M  V30 5778 C 532.342 3.0397 1.67987 0
M  V30 5779 C 531.296 4.10267 1.21924 0
M  V30 5780 C 530.622 4.74555 2.46377 0
M  V30 5781 C 531.922 5.21268 0.32815 0
M  V30 5782 H 533.616 2.99264 -0.0901977 0
M  V30 5783 H 531.162 1.4393 -0.044821 0
M  V30 5784 H 533.115 3.54123 2.28418 0
M  V30 5785 H 531.839 2.29906 2.31971 0
M  V30 5786 H 530.498 3.61009 0.637809 0
M  V30 5787 H 530.146 3.97098 3.08743 0
M  V30 5788 H 529.846 5.46363 2.16243 0
M  V30 5789 H 531.37 5.27487 3.07555 0
M  V30 5790 H 532.784 5.67128 0.838978 0
M  V30 5791 H 531.181 5.99982 0.119228 0
M  V30 5792 H 532.251 4.80673 -0.638839 0
M  V30 5793 N 533.594 0.0601682 1.57485 0
M  V30 5794 C 534.841 -0.611594 1.93043 0
M  V30 5795 C 535.169 -1.70317 0.939274 0
M  V30 5796 O 534.424 -1.95644 -0.046996 0
M  V30 5797 C 534.723 -1.23831 3.35262 0
M  V30 5798 C 534.389 -0.274037 4.50066 0
M  V30 5799 C 533.051 -0.00872394 4.81199 0
M  V30 5800 C 535.403 0.386308 5.19766 0
M  V30 5801 C 532.731 0.924218 5.79375 0
M  V30 5802 C 535.083 1.3075 6.1894 0
M  V30 5803 C 533.747 1.58139 6.48497 0
M  V30 5804 H 533.017 -0.223798 0.706396 0
M  V30 5805 H 535.664 0.128566 1.91068 0
M  V30 5806 H 533.969 -2.05394 3.33647 0
M  V30 5807 H 535.666 -1.76517 3.60059 0
M  V30 5808 H 532.256 -0.491008 4.25778 0
M  V30 5809 H 536.44 0.194436 4.95919 0
M  V30 5810 H 531.696 1.1438 6.00606 0
M  V30 5811 H 535.87 1.82519 6.72056 0
M  V30 5812 H 533.497 2.30593 7.24383 0
M  V30 5813 N 535.072 -1.5615 -0.213296 0
M  V30 5814 C 536.002 -1.96109 -1.26742 0
M  V30 5815 C 536.983 -0.830448 -1.48451 0
M  V30 5816 O 538.168 -1.09339 -1.60495 0
M  V30 5817 C 535.298 -2.28492 -2.61551 0
M  V30 5818 C 534.252 -3.44124 -2.54485 0
M  V30 5819 C 533.578 -3.62134 -3.93399 0
M  V30 5820 C 534.878 -4.78855 -2.08556 0
M  V30 5821 H 536.572 -2.84412 -0.935434 0
M  V30 5822 H 534.118 -1.36836 -0.44854 0
M  V30 5823 H 536.071 -2.55039 -3.3546 0
M  V30 5824 H 534.795 -1.37052 -2.96453 0
M  V30 5825 H 533.454 -3.17639 -1.83033 0
M  V30 5826 H 533.102 -2.68055 -4.25623 0
M  V30 5827 H 532.802 -4.39913 -3.89551 0
M  V30 5828 H 534.326 -3.91038 -4.68958 0
M  V30 5829 H 535.74 -5.04552 -2.72213 0
M  V30 5830 H 534.137 -5.59975 -2.1575 0
M  V30 5831 H 535.207 -4.73657 -1.03811 0
M  V30 5832 N 536.55 0.480323 -1.50102 0
M  V30 5833 C 537.497 1.57946 -1.6829 0
M  V30 5834 C 538.467 1.57611 -0.524223 0
M  V30 5835 O 539.652 1.75282 -0.753709 0
M  V30 5836 C 536.792 2.95978 -1.77457 0
M  V30 5837 C 535.905 3.06173 -3.04766 0
M  V30 5838 C 535.04 4.35063 -3.04784 0
M  V30 5839 C 534.079 4.38966 -4.26586 0
M  V30 5840 N 533.216 5.59314 -4.24396 0
M  V30 5841 H 538.056 1.41743 -2.62131 0
M  V30 5842 H 535.593 0.689304 -1.2995 0
M  V30 5843 H 537.551 3.76011 -1.80752 0
M  V30 5844 H 536.181 3.10837 -0.870637 0
M  V30 5845 H 535.233 2.19071 -3.10986 0
M  V30 5846 H 536.545 3.04916 -3.9475 0
M  V30 5847 H 535.699 5.23436 -3.06757 0
M  V30 5848 H 534.438 4.38915 -2.12614 0
M  V30 5849 H 533.443 3.48992 -4.24835 0
M  V30 5850 H 534.668 4.36813 -5.19972 0
M  V30 5851 H 532.614 5.63969 -3.35074 0
M  V30 5852 H 532.531 5.5976 -5.08138 0
M  V30 5853 H 533.799 6.49837 -4.30502 0
M  V30 5854 N 538.028 1.39524 0.732853 0
M  V30 5855 C 539.439 1.32905 1.31122 0
M  V30 5856 C 539.79 -0.00558708 1.96199 0
M  V30 5857 O 538.915 -0.907706 1.96443 0
M  V30 5858 C 539.51 2.40704 2.38426 0
M  V30 5859 C 538.069 2.37599 2.91931 0
M  V30 5860 C 537.216 2.2248 1.65523 0
M  V30 5861 H 540.167 1.49581 0.530207 0
M  V30 5862 H 540.188 2.07616 3.18867 0
M  V30 5863 H 539.7 3.37829 1.91033 0
M  V30 5864 H 537.801 1.44119 3.43599 0
M  V30 5865 H 537.914 3.32538 3.44899 0
M  V30 5866 H 536.278 1.69691 1.8994 0
M  V30 5867 H 537.061 3.21577 1.20178 0
M  V30 5868 N 539.506 -0.963266 1.24736 0
M  V30 5869 C 540.754 -1.70343 1.08755 0
M  V30 5870 C 541.075 -1.91387 -0.373619 0
M  V30 5871 O 540.345 -1.4948 -1.2662 0
M  V30 5872 H 538.925 -0.631224 0.399456 0
M  V30 5873 H 541.587 -1.15859 1.56725 0
M  V30 5874 H 540.683 -2.68616 1.58909 0
M  V30 5875 N 540.985 -1.06182 -1.16461 0
M  V30 5876 C 542.234 -0.772927 -1.86303 0
M  V30 5877 C 542.547 0.703187 -1.82523 0
M  V30 5878 O 543.753 1.10641 -2.47933 0
M  V30 5879 C 542.209 -1.33249 -3.34324 0
M  V30 5880 C 541.817 -2.83876 -3.46581 0
M  V30 5881 C 543.561 -1.12108 -4.09429 0
M  V30 5882 C 541.468 -3.33082 -4.88682 0
M  V30 5883 H 540.398 -0.285452 -0.697878 0
M  V30 5884 H 543.049 -1.28039 -1.31447 0
M  V30 5885 H 541.431 -0.7528 -3.88779 0
M  V30 5886 H 542.605 -3.47786 -3.02293 0
M  V30 5887 H 540.92 -3.03671 -2.84909 0
M  V30 5888 H 543.517 -1.46361 -5.14279 0
M  V30 5889 H 543.86 -0.0593832 -4.16258 0
M  V30 5890 H 544.393 -1.6665 -3.6121 0
M  V30 5891 H 541.132 -4.38726 -4.87032 0
M  V30 5892 H 540.652 -2.73919 -5.33599 0
M  V30 5893 H 542.331 -3.28344 -5.57494 0
M  V30 5894 N 542.463 1.3308 -0.844243 0
M  V30 5895 C 543.874 1.7992 -0.498566 0
M  V30 5896 C 544.225 1.69808 0.982834 0
M  V30 5897 O 543.35 1.25051 1.7661 0
M  V30 5898 C 543.945 3.26677 -0.898204 0
M  V30 5899 C 542.504 3.71513 -0.604583 0
M  V30 5900 C 541.651 2.54393 -1.10362 0
M  V30 5901 H 544.602 1.20526 -1.03244 0
M  V30 5902 H 544.623 3.79918 -0.21039 0
M  V30 5903 H 544.135 3.34004 -1.97643 0
M  V30 5904 H 542.236 3.69708 0.46335 0
M  V30 5905 H 542.349 4.64755 -1.16358 0
M  V30 5906 H 540.713 2.49246 -0.524273 0
M  V30 5907 H 541.496 2.6448 -2.18873 0
M  V30 5908 N 543.941 0.601185 1.45683 0
M  V30 5909 C 545.171 0.0999093 2.06358 0
M  V30 5910 C 545.579 -1.21831 1.44754 0
M  V30 5911 O 544.922 -1.75157 0.553695 0
M  V30 5912 C 544.984 -0.12085 3.59297 0
M  V30 5913 C 544.648 1.11459 4.432 0
M  V30 5914 C 545.645 2.03118 4.7858 0
M  V30 5915 C 543.33 1.34162 4.84051 0
M  V30 5916 C 545.324 3.15814 5.53661 0
M  V30 5917 C 543.011 2.4716 5.58888 0
M  V30 5918 C 544.009 3.37814 5.93608 0
M  V30 5919 O 543.697 4.48846 6.66928 0
M  V30 5920 H 543.429 0.0630316 0.673055 0
M  V30 5921 H 545.983 0.826982 1.88016 0
M  V30 5922 H 544.213 -0.902744 3.76015 0
M  V30 5923 H 545.902 -0.572925 4.01836 0
M  V30 5924 H 546.668 1.86801 4.47583 0
M  V30 5925 H 542.547 0.645018 4.56465 0
M  V30 5926 H 546.091 3.86596 5.8068 0
M  V30 5927 H 541.988 2.63432 5.89299 0
M  V30 5928 H 542.756 4.47446 6.85371 0
M  V30 5929 N 545.419 -1.53889 0.339982 0
M  V30 5930 C 546.83 -1.86139 -0.144671 0
M  V30 5931 C 547.181 -1.2613 -1.50285 0
M  V30 5932 O 546.306 -0.573515 -2.08662 0
M  V30 5933 C 546.901 -3.37728 -0.269285 0
M  V30 5934 C 545.46 -3.69868 -0.698168 0
M  V30 5935 C 544.607 -2.76777 0.170249 0
M  V30 5936 H 547.558 -1.48503 0.559704 0
M  V30 5937 H 547.579 -3.64331 -1.0974 0
M  V30 5938 H 547.091 -3.81375 0.719366 0
M  V30 5939 H 545.192 -3.31764 -1.69597 0
M  V30 5940 H 545.305 -4.76582 -0.490533 0
M  V30 5941 H 543.669 -2.52188 -0.356844 0
M  V30 5942 H 544.452 -3.23253 1.15597 0
M  V30 5943 N 546.897 -0.0685191 -1.57451 0
M  V30 5944 C 548.146 0.600898 -1.92541 0
M  V30 5945 C 548.459 1.70967 -0.950239 0
M  V30 5946 O 549.665 2.43844 -1.19384 0
M  V30 5947 C 548.121 1.12019 -3.42023 0
M  V30 5948 C 547.729 0.0426028 -4.4798 0
M  V30 5949 C 549.473 1.76386 -3.86119 0
M  V30 5950 C 547.38 0.575759 -5.88591 0
M  V30 5951 H 546.31 0.228225 -0.71863 0
M  V30 5952 H 548.961 -0.140223 -1.82963 0
M  V30 5953 H 547.343 1.91418 -3.46663 0
M  V30 5954 H 548.517 -0.73182 -4.54952 0
M  V30 5955 H 546.832 -0.504642 -4.13331 0
M  V30 5956 H 549.429 2.17302 -4.88553 0
M  V30 5957 H 549.772 2.62255 -3.23308 0
M  V30 5958 H 550.305 1.03615 -3.84069 0
M  V30 5959 H 547.044 -0.245691 -6.55039 0
M  V30 5960 H 546.564 1.31778 -5.85145 0
M  V30 5961 H 548.243 1.0532 -6.3837 0
M  V30 5962 N 548.375 1.56261 0.205012 0
M  V30 5963 C 549.322 1.93754 1.25411 0
M  V30 5964 C 550.292 0.796826 1.45739 0
M  V30 5965 O 551.477 1.05414 1.59036 0
M  V30 5966 C 548.617 2.27383 2.59598 0
M  V30 5967 C 547.73 3.5447 2.46931 0
M  V30 5968 C 546.865 3.77468 3.73753 0
M  V30 5969 C 545.904 4.98014 3.55877 0
M  V30 5970 N 545.041 5.17316 4.74688 0
M  V30 5971 H 549.881 2.83203 0.92737 0
M  V30 5972 H 547.418 1.40158 0.446574 0
M  V30 5973 H 549.376 2.44895 3.37761 0
M  V30 5974 H 548.006 1.41088 2.90335 0
M  V30 5975 H 547.058 3.45061 1.60116 0
M  V30 5976 H 548.37 4.42789 2.29651 0
M  V30 5977 H 547.524 3.95165 4.60358 0
M  V30 5978 H 546.263 2.87461 3.93976 0
M  V30 5979 H 545.268 4.80249 2.67657 0
M  V30 5980 H 546.493 5.8952 3.37109 0
M  V30 5981 H 544.439 4.30255 4.95194 0
M  V30 5982 H 544.356 5.99796 4.60197 0
M  V30 5983 H 545.624 5.39463 5.62672 0
M  V30 5984 N 549.853 -0.472356 1.50355 0
M  V30 5985 C 551.099 -1.22634 1.6152 0
M  V30 5986 C 551.432 -1.91645 0.313995 0
M  V30 5987 O 550.707 -1.82059 -0.684446 0
M  V30 5988 C 550.99 -2.27099 2.7946 0
M  V30 5989 C 550.843 -1.62402 4.19459 0
M  V30 5990 C 552.162 -3.28421 2.92964 0
M  V30 5991 H 549.281 -0.444494 0.587873 0
M  V30 5992 H 551.923 -0.520321 1.82737 0
M  V30 5993 H 550.073 -2.87314 2.61501 0
M  V30 5994 H 551.745 -1.05793 4.49005 0
M  V30 5995 H 549.988 -0.927184 4.23776 0
M  V30 5996 H 550.659 -2.38309 4.97909 0
M  V30 5997 H 553.135 -2.78227 3.09401 0
M  V30 5998 H 552.011 -3.98845 3.77113 0
M  V30 5999 H 552.272 -3.92467 2.03525 0
M  V30 6000 N 551.331 -1.39911 -0.725443 0
M  V30 6001 C 552.263 -1.35301 -1.85003 0
M  V30 6002 C 553.276 -0.260102 -1.60709 0
M  V30 6003 O 554.465 -0.519749 -1.70766 0
M  V30 6004 C 551.565 -1.08039 -3.21218 0
M  V30 6005 C 550.738 -2.28793 -3.7279 0
M  V30 6006 C 549.797 -1.97841 -4.87591 0
M  V30 6007 O 548.823 -2.70616 -5.00755 0
M  V30 6008 N 550.025 -0.950367 -5.72668 0
M  V30 6009 H 552.79 -2.32218 -1.89459 0
M  V30 6010 H 550.351 -1.34137 -0.90658 0
M  V30 6011 H 552.343 -0.853354 -3.95601 0
M  V30 6012 H 550.913 -0.198229 -3.11971 0
M  V30 6013 H 550.133 -2.67388 -2.8965 0
M  V30 6014 H 551.421 -3.09317 -4.03981 0
M  V30 6015 H 550.819 -0.347436 -5.64632 0
M  V30 6016 H 549.376 -0.783232 -6.47077 0
M  V30 6017 N 552.809 0.956637 -1.25245 0
M  V30 6018 C 554.055 1.70352 -1.10036 0
M  V30 6019 C 554.388 1.90869 0.358156 0
M  V30 6020 O 553.663 1.47819 1.26411 0
M  V30 6021 C 553.946 3.08766 -1.85298 0
M  V30 6022 C 553.799 2.95672 -3.38966 0
M  V30 6023 C 555.118 4.08622 -1.63451 0
M  V30 6024 H 552.237 0.618279 -0.401123 0
M  V30 6025 H 554.879 1.11212 -1.54051 0
M  V30 6026 H 553.029 3.59252 -1.47887 0
M  V30 6027 H 554.701 2.52527 -3.86041 0
M  V30 6028 H 552.944 2.31634 -3.6678 0
M  V30 6029 H 553.615 3.93776 -3.86839 0
M  V30 6030 H 556.091 3.67038 -1.96015 0
M  V30 6031 H 554.967 5.03514 -2.18551 0
M  V30 6032 H 555.228 4.3834 -0.575357 0
M  V30 6033 N 554.287 1.06798 1.15896 0
M  V30 6034 C 555.234 0.683314 2.20453 0
M  V30 6035 C 556.204 -0.32255 1.62938 0
M  V30 6036 O 557.389 -0.210276 1.89638 0
M  V30 6037 C 554.529 0.0813266 3.45004 0
M  V30 6038 C 553.642 1.13799 4.16742 0
M  V30 6039 C 552.777 0.501598 5.28826 0
M  V30 6040 C 551.816 1.54144 5.92373 0
M  V30 6041 N 550.953 0.928038 6.9594 0
M  V30 6042 H 555.793 1.57932 2.52708 0
M  V30 6043 H 553.33 0.789544 1.24115 0
M  V30 6044 H 555.288 -0.285274 4.16224 0
M  V30 6045 H 553.918 -0.77806 3.13283 0
M  V30 6046 H 552.97 1.62223 3.44075 0
M  V30 6047 H 554.282 1.92664 4.60089 0
M  V30 6048 H 553.436 0.0823162 6.06644 0
M  V30 6049 H 552.175 -0.318883 4.86656 0
M  V30 6050 H 551.18 1.97056 5.13273 0
M  V30 6051 H 552.405 2.3641 6.36621 0
M  V30 6052 H 550.351 0.12836 6.55874 0
M  V30 6053 H 550.268 1.65401 7.37685 0
M  V30 6054 H 551.536 0.534071 7.77668 0
M  V30 6055 N 555.766 -1.3263 0.851289 0
M  V30 6056 C 557.043 -1.91982 0.374448 0
M  V30 6057 C 557.423 -1.77568 -1.14161 0
M  V30 6058 O 556.771 -1.1717 -1.96172 0
M  V30 6059 C 556.981 -3.38862 0.835088 0
M  V30 6060 C 558.329 -4.15999 0.850309 0
M  V30 6061 O 559.353 -3.47566 0.779505 0
M  V30 6062 O 558.212 -5.38189 0.949481 0
M  V30 6063 H 555.306 -0.819846 0.10854 0
M  V30 6064 H 557.852 -1.41422 0.937966 0
M  V30 6065 H 556.624 -3.43281 1.87814 0
M  V30 6066 H 556.247 -3.96821 0.248833 0
M  V30 6067 N 557.244 -0.608902 -1.45362 0
M  V30 6068 C 558.469 -0.10921 -2.07112 0
M  V30 6069 C 558.894 1.19779 -1.45033 0
M  V30 6070 O 558.252 1.72961 -0.543527 0
M  V30 6071 C 558.3 0.0155745 -3.60597 0
M  V30 6072 O 557.404 1.06546 -3.98399 0
M  V30 6073 H 556.745 -0.0746619 -0.659789 0
M  V30 6074 H 559.275 -0.839283 -1.86594 0
M  V30 6075 H 559.285 0.213364 -4.07442 0
M  V30 6076 H 557.96 -0.938765 -4.05167 0
M  V30 6077 H 556.537 0.844024 -3.63223 0
M  V30 6078 N 558.722 1.53707 -0.348139 0
M  V30 6079 C 559.652 2.28111 0.498766 0
M  V30 6080 C 560.633 1.29851 1.09876 0
M  V30 6081 O 561.818 1.587 1.11928 0
M  V30 6082 C 558.948 3.05735 1.64753 0
M  V30 6083 C 557.902 4.11537 1.17565 0
M  V30 6084 C 557.228 4.77142 2.4133 0
M  V30 6085 C 558.528 5.21587 0.272844 0
M  V30 6086 H 560.222 2.99152 -0.121934 0
M  V30 6087 H 557.768 1.43875 -0.0600842 0
M  V30 6088 H 559.721 3.56526 2.24649 0
M  V30 6089 H 558.445 2.32354 2.2952 0
M  V30 6090 H 557.104 3.61665 0.599483 0
M  V30 6091 H 556.752 4.0035 3.04514 0
M  V30 6092 H 556.452 5.48626 2.10436 0
M  V30 6093 H 557.976 5.30719 3.01943 0
M  V30 6094 H 559.39 5.67986 0.778779 0
M  V30 6095 H 557.787 6.00074 0.0555849 0
M  V30 6096 H 558.857 4.79969 -0.689785 0
M  V30 6097 N 560.2 0.0768682 1.57412 0
M  V30 6098 C 561.477 -0.632359 1.85096 0
M  V30 6099 C 561.857 -1.87479 0.9703 0
M  V30 6100 O 561.205 -2.28469 0.0379062 0
M  V30 6101 C 561.415 -0.965174 3.35388 0
M  V30 6102 C 562.763 -1.33648 4.03018 0
M  V30 6103 O 563.787 -1.05675 3.40164 0
M  V30 6104 O 562.646 -1.85959 5.13889 0
M  V30 6105 H 559.74 -0.314574 0.764835 0
M  V30 6106 H 562.286 0.108184 1.69355 0
M  V30 6107 H 561.058 -0.0829745 3.91212 0
M  V30 6108 H 560.681 -1.76231 3.5641 0
M  V30 6109 N 561.678 -1.56367 -0.196722 0
M  V30 6110 C 562.61 -1.90941 -1.26784 0
M  V30 6111 C 563.623 -0.799928 -1.41792 0
M  V30 6112 O 564.812 -1.07833 -1.42247 0
M  V30 6113 C 561.912 -2.12477 -2.6402 0
M  V30 6114 C 561.085 -3.43616 -2.70641 0
M  V30 6115 C 560.144 -3.54284 -3.89062 0
M  V30 6116 O 559.17 -4.2712 -3.76241 0
M  V30 6117 N 560.372 -2.87252 -5.04447 0
M  V30 6118 H 563.137 -2.83417 -0.974417 0
M  V30 6119 H 560.698 -1.57215 -0.386649 0
M  V30 6120 H 562.69 -2.16904 -3.41665 0
M  V30 6121 H 561.26 -1.26508 -2.85857 0
M  V30 6122 H 560.48 -3.51072 -1.79283 0
M  V30 6123 H 561.768 -4.29958 -2.72054 0
M  V30 6124 H 561.166 -2.27901 -5.17762 0
M  V30 6125 H 559.723 -2.97308 -5.80044 0
M  V30 6126 N 563.156 0.464375 -1.50603 0
M  V30 6127 C 564.086 1.56944 -1.72889 0
M  V30 6128 C 565.067 1.59979 -0.577997 0
M  V30 6129 O 566.252 1.76138 -0.817855 0
M  V30 6130 C 563.382 2.95225 -1.8292 0
M  V30 6131 C 562.336 3.07056 -2.98162 0
M  V30 6132 C 561.662 4.47051 -2.93343 0
M  V30 6133 C 562.962 2.83648 -4.38567 0
M  V30 6134 H 564.656 1.38547 -2.65415 0
M  V30 6135 H 562.202 0.665082 -1.27721 0
M  V30 6136 H 564.155 3.72467 -1.97095 0
M  V30 6137 H 562.879 3.14793 -0.870209 0
M  V30 6138 H 561.538 2.32248 -2.83648 0
M  V30 6139 H 561.186 4.63547 -1.95276 0
M  V30 6140 H 560.886 4.55902 -3.70712 0
M  V30 6141 H 562.41 5.26304 -3.09575 0
M  V30 6142 H 563.824 3.50636 -4.53572 0
M  V30 6143 H 562.221 3.03937 -5.17438 0
M  V30 6144 H 563.291 1.79451 -4.50472 0
M  V30 6145 N 564.634 1.40294 0.718013 0
M  V30 6146 C 565.88 1.38645 1.48005 0
M  V30 6147 C 566.213 -0.0121202 1.94196 0
M  V30 6148 O 565.488 -0.980309 1.67989 0
M  V30 6149 C 565.771 2.37379 2.70782 0
M  V30 6150 C 565.624 3.8625 2.30501 0
M  V30 6151 C 566.943 2.33685 3.72933 0
M  V30 6152 H 564.062 0.504928 0.536858 0
M  V30 6153 H 566.704 1.71411 0.819649 0
M  V30 6154 H 564.854 2.09568 3.27129 0
M  V30 6155 H 566.526 4.24879 1.79655 0
M  V30 6156 H 564.769 4.02202 1.6253 0
M  V30 6157 H 565.44 4.50847 3.18498 0
M  V30 6158 H 567.916 2.58314 3.2621 0
M  V30 6159 H 566.792 3.0482 4.56482 0
M  V30 6160 H 567.053 1.34765 4.21059 0
M  V30 6161 N 566.112 -0.949982 1.2575 0
M  V30 6162 C 567.36 -1.6918 1.10555 0
M  V30 6163 C 567.681 -1.91773 -0.353298 0
M  V30 6164 O 566.951 -1.50814 -1.25027 0
M  V30 6165 H 565.531 -0.626952 0.406129 0
M  V30 6166 H 568.193 -1.1419 1.57945 0
M  V30 6167 H 567.289 -2.66915 1.61749 0
M  V30 6168 N 567.59 -1.07411 -1.15328 0
M  V30 6169 C 568.838 -0.796073 -1.85761 0
M  V30 6170 C 569.159 0.679864 -1.82764 0
M  V30 6171 O 568.429 1.49242 -1.269 0
M  V30 6172 H 567.009 -0.291495 -0.687779 0
M  V30 6173 H 569.671 -1.35799 -1.39802 0
M  V30 6174 H 568.767 -1.13114 -2.90881 0
M  V30 6175 N 569.068 1.32177 -0.85831 0
M  V30 6176 C 570.314 1.97417 -0.46417 0
M  V30 6177 C 570.647 1.67746 0.978514 0
M  V30 6178 O 569.922 0.967654 1.68721 0
M  V30 6179 C 570.205 3.53069 -0.708094 0
M  V30 6180 C 570.058 3.92357 -2.19946 0
M  V30 6181 C 571.377 4.39783 -0.166881 0
M  V30 6182 H 568.496 0.717097 -0.17012 0
M  V30 6183 H 571.138 1.56499 -1.07741 0
M  V30 6184 H 569.288 3.88054 -0.186128 0
M  V30 6185 H 570.96 3.67533 -2.78779 0
M  V30 6186 H 569.203 3.41384 -2.67656 0
M  V30 6187 H 569.874 5.00841 -2.32082 0
M  V30 6188 H 572.35 4.11556 -0.613285 0
M  V30 6189 H 571.226 5.47671 -0.367093 0
M  V30 6190 H 571.487 4.32196 0.930559 0
M  V30 6191 N 570.547 0.616602 1.45037 0
M  V30 6192 C 571.958 0.199359 1.85633 0
M  V30 6193 C 572.309 -1.24588 1.51566 0
M  V30 6194 O 571.434 -1.94594 0.94668 0
M  V30 6195 C 572.029 0.355033 3.36935 0
M  V30 6196 C 570.588 -0.00758748 3.76399 0
M  V30 6197 C 569.735 0.675256 2.68953 0
M  V30 6198 H 572.686 0.822708 1.3571 0
M  V30 6199 H 572.707 -0.410201 3.78282 0
M  V30 6200 H 572.219 1.40699 3.61698 0
M  V30 6201 H 570.32 -1.05837 3.57252 0
M  V30 6202 H 570.433 0.392346 4.77491 0
M  V30 6203 H 568.797 0.111992 2.54454 0
M  V30 6204 H 569.58 1.72952 2.96551 0
M  V30 6205 N 572.025 -1.5352 0.356285 0
M  V30 6206 C 573.271 -2.01414 -0.236653 0
M  V30 6207 C 573.604 -1.24339 -1.49176 0
M  V30 6208 O 572.879 -0.334496 -1.91602 0
M  V30 6209 C 573.162 -3.56059 -0.537982 0
M  V30 6210 C 573.015 -4.43835 0.730112 0
M  V30 6211 C 574.334 -4.19127 -1.34239 0
M  V30 6212 H 571.453 -0.732135 -0.0845386 0
M  V30 6213 H 574.095 -1.83854 0.479341 0
M  V30 6214 H 572.245 -3.71153 -1.14795 0
M  V30 6215 H 573.917 -4.40555 1.36782 0
M  V30 6216 H 572.16 -4.1218 1.3524 0
M  V30 6217 H 572.831 -5.49958 0.474358 0
M  V30 6218 H 575.307 -4.07809 -0.826498 0
M  V30 6219 H 574.183 -5.27378 -1.52198 0
M  V30 6220 H 574.444 -3.74581 -2.34822 0
M  V30 6221 N 573.503 -0.0852151 -1.57369 0
M  V30 6222 C 574.731 0.58946 -1.98325 0
M  V30 6223 C 575.146 1.62333 -0.96403 0
M  V30 6224 O 574.503 1.82438 0.0476395 0
M  V30 6225 C 574.554 1.24604 -3.39347 0
M  V30 6226 O 574.275 0.253532 -4.37366 0
M  V30 6227 C 575.776 2.00726 -3.95252 0
M  V30 6228 H 572.996 0.158783 -0.651942 0
M  V30 6229 H 575.54 -0.161584 -2.03861 0
M  V30 6230 H 573.695 1.94808 -3.34856 0
M  V30 6231 H 574.109 0.726207 -5.19448 0
M  V30 6232 H 575.583 2.42039 -4.96106 0
M  V30 6233 H 576.06 2.86919 -3.32527 0
M  V30 6234 H 576.666 1.3536 -4.03185 0
M  V30 6235 N 574.981 1.5647 0.188427 0
M  V30 6236 C 575.911 1.98101 1.23606 0
M  V30 6237 C 576.892 0.853961 1.47111 0
M  V30 6238 O 578.077 1.11879 1.58735 0
M  V30 6239 C 575.207 2.32624 2.57882 0
M  V30 6240 C 574.161 3.48129 2.48978 0
M  V30 6241 C 573.487 3.68347 3.87588 0
M  V30 6242 C 574.787 4.82112 2.00911 0
M  V30 6243 H 576.481 2.85864 0.890068 0
M  V30 6244 H 574.027 1.37532 0.426714 0
M  V30 6245 H 575.98 2.60343 3.3136 0
M  V30 6246 H 574.704 1.41751 2.94235 0
M  V30 6247 H 573.363 3.20511 1.77956 0
M  V30 6248 H 573.011 2.74793 4.21305 0
M  V30 6249 H 572.711 4.46055 3.82503 0
M  V30 6250 H 574.235 3.98449 4.62678 0
M  V30 6251 H 575.649 5.08819 2.64151 0
M  V30 6252 H 574.046 5.63337 2.06814 0
M  V30 6253 H 575.116 4.75249 0.96262 0
M  V30 6254 N 576.459 -0.456382 1.50847 0
M  V30 6255 C 577.407 -1.57318 1.71329 0
M  V30 6256 C 578.401 -1.59187 0.579287 0
M  V30 6257 O 579.607 -1.6316 0.76018 0
M  V30 6258 H 575.982 -0.5223 0.541024 0
M  V30 6259 H 577.953 -1.3721 2.64983 0
M  V30 6260 C 576.702 -2.95142 1.83811 0
M  V30 6261 H 576.025 -2.94428 2.70467 0
M  V30 6262 H 577.465 -3.72702 2.02161 0
M  V30 6263 C 575.924 -3.31636 0.593224 0
M  V30 6264 O 576.454 -4.00852 -0.260898 0
M  V30 6265 N 574.66 -2.87205 0.442902 0
M  V30 6266 H 574.207 -2.31051 1.13901 0
M  V30 6267 H 574.165 -3.11986 -0.38884 0
M  V30 6268 N 577.937 -1.40673 -0.710563 0
M  V30 6269 C 578.9 -1.4108 -1.80635 0
M  V30 6270 C 579.9 -0.303783 -1.57904 0
M  V30 6271 O 581.09 -0.562937 -1.64853 0
M  V30 6272 C 578.222 -1.20748 -3.18799 0
M  V30 6273 H 579.415 -2.38612 -1.81671 0
M  V30 6274 H 576.968 -1.26595 -0.916704 0
M  V30 6275 H 577.703 -0.239964 -3.23411 0
M  V30 6276 H 577.488 -2.00941 -3.36698 0
M  V30 6277 H 578.978 -1.23833 -3.98817 0
M  V30 6278 N 579.415 0.9433 -1.26252 0
M  V30 6279 C 580.347 2.04542 -1.03417 0
M  V30 6280 C 581.36 1.62799 0.0046911 0
M  V30 6281 O 582.549 1.76944 -0.235146 0
M  V30 6282 C 579.649 3.34511 -0.543671 0
M  V30 6283 C 578.822 4.05033 -1.65128 0
M  V30 6284 C 577.881 5.13273 -1.1592 0
M  V30 6285 O 576.907 5.38095 -1.85586 0
M  V30 6286 N 578.109 5.805 -0.00649279 0
M  V30 6287 H 580.874 2.24699 -1.98319 0
M  V30 6288 H 578.435 1.11264 -1.1761 0
M  V30 6289 H 580.427 4.04212 -0.198703 0
M  V30 6290 H 578.997 3.11042 0.311711 0
M  V30 6291 H 578.217 3.29275 -2.16729 0
M  V30 6292 H 579.505 4.48903 -2.39508 0
M  V30 6293 H 578.903 5.62767 0.575347 0
M  V30 6294 H 577.46 6.51201 0.279416 0
M  V30 6295 N 580.893 1.08022 1.14757 0
M  V30 6296 C 582.121 0.828847 1.89572 0
M  V30 6297 C 582.536 -0.618621 1.78377 0
M  V30 6298 O 581.893 -1.42482 1.1404 0
M  V30 6299 C 581.944 1.23677 3.39685 0
M  V30 6300 O 581.665 2.62746 3.50566 0
M  V30 6301 C 583.166 1.01569 4.31507 0
M  V30 6302 H 580.386 0.299196 0.600602 0
M  V30 6303 H 582.93 1.43846 1.45357 0
M  V30 6304 H 581.085 0.671347 3.81539 0
M  V30 6305 H 581.499 2.79573 4.43778 0
M  V30 6306 H 582.973 1.35055 5.35223 0
M  V30 6307 H 583.45 -0.0475433 4.39174 0
M  V30 6308 H 584.056 1.56636 3.95405 0
M  V30 6309 N 582.371 -1.3172 0.865308 0
M  V30 6310 C 583.62 -1.96145 0.470098 0
M  V30 6311 C 583.933 -1.69182 -0.981674 0
M  V30 6312 O 585.139 -2.27431 -1.48281 0
M  V30 6313 C 583.595 -3.51129 0.789732 0
M  V30 6314 C 583.203 -3.86938 2.25795 0
M  V30 6315 C 584.947 -4.2197 0.462765 0
M  V30 6316 C 582.854 -5.35012 2.52024 0
M  V30 6317 H 581.784 -0.734105 0.172065 0
M  V30 6318 H 584.435 -1.49959 1.05757 0
M  V30 6319 H 582.817 -3.95781 0.131571 0
M  V30 6320 H 583.991 -3.5326 2.95879 0
M  V30 6321 H 582.306 -3.29149 2.55049 0
M  V30 6322 H 584.903 -5.30904 0.636019 0
M  V30 6323 H 585.246 -4.12005 -0.59645 0
M  V30 6324 H 585.779 -3.82936 1.07727 0
M  V30 6325 H 582.518 -5.50008 3.56611 0
M  V30 6326 H 582.038 -5.70058 1.8653 0
M  V30 6327 H 583.717 -6.0222 2.36515 0
M  V30 6328 N 583.85 -0.624285 -1.44708 0
M  V30 6329 C 585.127 -0.0572781 -1.95516 0
M  V30 6330 C 585.507 1.41516 -1.56641 0
M  V30 6331 O 584.855 2.12614 -0.837111 0
M  V30 6332 C 585.065 -0.272944 -3.47931 0
M  V30 6333 C 586.413 -0.162529 -4.24289 0
M  V30 6334 O 587.437 -0.203946 -3.55616 0
M  V30 6335 O 586.296 -0.0616847 -5.46465 0
M  V30 6336 H 583.389 0.0262219 -0.826584 0
M  V30 6337 H 585.936 -0.695512 -1.54793 0
M  V30 6338 H 584.707 -1.29492 -3.69253 0
M  V30 6339 H 584.331 0.399756 -3.95585 0
M  V30 6340 N 585.328 1.53329 -0.364422 0
M  V30 6341 C 586.574 2.01537 0.225969 0
M  V30 6342 C 586.907 1.25128 1.48515 0
M  V30 6343 O 586.182 0.344653 1.91422 0
M  V30 6344 C 586.465 3.56339 0.519092 0
M  V30 6345 C 586.318 4.43441 -0.753639 0
M  V30 6346 C 587.637 4.19833 1.32015 0
M  V30 6347 H 584.756 0.732573 0.0806548 0
M  V30 6348 H 587.398 1.83597 -0.489084 0
M  V30 6349 H 585.548 3.71756 1.12825 0
M  V30 6350 H 587.22 4.39823 -1.39116 0
M  V30 6351 H 585.463 4.11457 -1.37424 0
M  V30 6352 H 586.134 5.49699 -0.503517 0
M  V30 6353 H 588.61 4.08242 0.804859 0
M  V30 6354 H 587.486 5.28177 1.49399 0
M  V30 6355 H 587.747 3.75821 2.32832 0
M  V30 6356 N 586.806 0.0935595 1.57322 0
M  V30 6357 C 587.754 -0.883457 2.15169 0
M  V30 6358 C 588.748 -1.29324 1.09415 0
M  V30 6359 O 589.954 -1.26795 1.27762 0
M  V30 6360 H 586.329 -0.302923 0.688289 0
M  V30 6361 H 588.3 -0.370845 2.96087 0
M  V30 6362 C 587.049 -2.13345 2.74552 0
M  V30 6363 H 586.372 -1.82702 3.55612 0
M  V30 6364 H 587.812 -2.7977 3.18598 0
M  V30 6365 C 586.271 -2.90646 1.70371 0
M  V30 6366 O 586.801 -3.85133 1.14173 0
M  V30 6367 N 585.007 -2.54157 1.40899 0
M  V30 6368 H 584.554 -1.77391 1.86789 0
M  V30 6369 H 584.512 -3.06178 0.714301 0
M  V30 6370 N 588.284 -1.56567 -0.180126 0
M  V30 6371 C 589.216 -1.92275 -1.24751 0
M  V30 6372 C 590.229 -0.814922 -1.40936 0
M  V30 6373 O 591.418 -1.09336 -1.41095 0
M  V30 6374 C 588.518 -2.15265 -2.61752 0
M  V30 6375 C 587.691 -3.46467 -2.66981 0
M  V30 6376 C 586.75 -3.58391 -3.85283 0
M  V30 6377 O 585.776 -4.31086 -3.7169 0
M  V30 6378 N 586.978 -2.92587 -5.01371 0
M  V30 6379 H 589.743 -2.84435 -0.944302 0
M  V30 6380 H 587.304 -1.57617 -0.369952 0
M  V30 6381 H 589.296 -2.20515 -3.39345 0
M  V30 6382 H 587.866 -1.29533 -2.845 0
M  V30 6383 H 587.086 -3.52953 -1.75549 0
M  V30 6384 H 588.374 -4.32819 -2.67479 0
M  V30 6385 H 587.772 -2.3338 -5.15316 0
M  V30 6386 H 586.329 -3.03444 -5.76858 0
M  V30 6387 N 589.762 0.448376 -1.51087 0
M  V30 6388 C 590.672 1.56882 -1.74428 0
M  V30 6389 C 591.688 1.62268 -0.62809 0
M  V30 6390 O 592.864 1.79716 -0.909075 0
M  V30 6391 C 589.929 2.92947 -1.85426 0
M  V30 6392 C 588.99 2.97766 -3.09247 0
M  V30 6393 C 588.223 4.27341 -3.19711 0
M  V30 6394 O 588.446 5.19112 -2.36387 0
M  V30 6395 O 587.38 4.38219 -4.12611 0
M  V30 6396 H 591.206 1.40104 -2.69452 0
M  V30 6397 H 588.791 0.630247 -1.35456 0
M  V30 6398 H 590.673 3.73719 -1.94709 0
M  V30 6399 H 589.348 3.09876 -0.935887 0
M  V30 6400 H 588.255 2.15989 -3.0545 0
M  V30 6401 H 589.588 2.8578 -4.00738 0
M  V30 6402 N 591.24 1.41047 0.703093 0
M  V30 6403 C 592.468 1.4334 1.49202 0
M  V30 6404 C 592.883 0.0365596 1.88765 0
M  V30 6405 O 592.24 -0.942419 1.56284 0
M  V30 6406 C 592.291 2.33538 2.75939 0
M  V30 6407 O 592.012 3.67786 2.38045 0
M  V30 6408 C 593.513 2.44555 3.6974 0
M  V30 6409 H 590.733 0.488472 0.460039 0
M  V30 6410 H 593.277 1.85245 0.86629 0
M  V30 6411 H 591.432 1.94962 3.34766 0
M  V30 6412 H 591.846 4.15816 3.19683 0
M  V30 6413 H 593.32 3.11849 4.55471 0
M  V30 6414 H 593.797 1.47447 4.1371 0
M  V30 6415 H 594.403 2.83735 3.16819 0
M  V30 6416 N 592.718 -0.936591 1.26751 0
M  V30 6417 C 593.943 -1.72288 1.15462 0
M  V30 6418 C 594.368 -1.85915 -0.285887 0
M  V30 6419 O 593.726 -1.35272 -1.20711 0
M  V30 6420 C 593.774 -3.10503 1.83359 0
M  V30 6421 O 592.878 -3.96745 1.1255 0
M  V30 6422 H 592.219 -0.52843 0.402067 0
M  V30 6423 H 594.749 -1.17271 1.67656 0
M  V30 6424 H 594.759 -3.60867 1.90365 0
M  V30 6425 H 593.434 -2.99901 2.88153 0
M  V30 6426 H 592.011 -3.55191 1.13551 0
M  V30 6427 N 594.196 -1.08629 -1.14182 0
M  V30 6428 C 595.473 -0.73002 -1.81466 0
M  V30 6429 C 595.853 0.785996 -1.95922 0
M  V30 6430 O 595.201 1.70535 -1.52086 0
M  V30 6431 C 595.411 -1.45957 -3.17014 0
M  V30 6432 C 596.759 -1.62008 -3.92477 0
M  V30 6433 O 597.783 -1.42141 -3.26611 0
M  V30 6434 O 596.642 -1.94806 -5.106 0
M  V30 6435 H 593.736 -0.261307 -0.784632 0
M  V30 6436 H 596.282 -1.188 -1.2118 0
M  V30 6437 H 595.054 -2.49221 -3.01669 0
M  V30 6438 H 594.677 -0.993222 -3.84995 0
M  V30 6439 N 595.674 1.31259 -0.872281 0
M  V30 6440 C 596.604 2.30929 -0.345554 0
M  V30 6441 C 597.585 1.60449 0.5648 0
M  V30 6442 O 598.77 1.8814 0.481335 0
M  V30 6443 C 595.9 3.44348 0.451823 0
M  V30 6444 C 594.854 4.26435 -0.365641 0
M  V30 6445 C 594.18 5.31785 0.557562 0
M  V30 6446 C 595.48 4.97159 -1.60095 0
M  V30 6447 H 597.174 2.75234 -1.17841 0
M  V30 6448 H 594.72 1.3232 -0.568094 0
M  V30 6449 H 596.673 4.13128 0.830854 0
M  V30 6450 H 595.397 2.98816 1.31821 0
M  V30 6451 H 594.056 3.59326 -0.726649 0
M  V30 6452 H 593.704 4.82502 1.4213 0
M  V30 6453 H 593.404 5.87598 0.0144878 0
M  V30 6454 H 594.928 6.03424 0.933387 0
M  V30 6455 H 596.342 5.58523 -1.29323 0
M  V30 6456 H 594.739 5.62779 -2.08327 0
M  V30 6457 H 595.809 4.24012 -2.35249 0
M  V30 6458 N 597.152 0.631951 1.44375 0
M  V30 6459 C 598.429 0.067646 1.95483 0
M  V30 6460 C 598.809 -1.40683 1.57389 0
M  V30 6461 O 598.157 -2.12167 0.848375 0
M  V30 6462 C 598.367 0.291392 3.47781 0
M  V30 6463 C 599.715 0.185028 4.24197 0
M  V30 6464 O 600.739 0.222803 3.55503 0
M  V30 6465 O 599.598 0.0906642 5.46425 0
M  V30 6466 H 596.692 -0.0218379 0.826712 0
M  V30 6467 H 599.238 0.703711 1.54421 0
M  V30 6468 H 598.01 1.31449 3.68561 0
M  V30 6469 H 597.633 -0.378772 3.95792 0
M  V30 6470 N 598.631 -1.53133 0.372548 0
M  V30 6471 C 600.042 -1.86404 -0.105155 0
M  V30 6472 C 600.393 -1.29289 -1.47576 0
M  V30 6473 O 599.518 -0.617646 -2.07398 0
M  V30 6474 C 600.113 -3.38223 -0.197588 0
M  V30 6475 C 598.672 -3.71266 -0.619556 0
M  V30 6476 C 597.819 -2.76353 0.228919 0
M  V30 6477 H 600.77 -1.47282 0.591077 0
M  V30 6478 H 600.791 -3.66577 -1.01987 0
M  V30 6479 H 600.303 -3.79763 0.800099 0
M  V30 6480 H 598.404 -3.35287 -1.62522 0
M  V30 6481 H 598.517 -4.77515 -0.389332 0
M  V30 6482 H 596.881 -2.52888 -0.303271 0
M  V30 6483 H 597.664 -3.20728 1.22428 0
M  V30 6484 N 600.109 -0.101901 -1.5727 0
M  V30 6485 C 601.334 0.571759 -1.99363 0
M  V30 6486 C 601.759 1.60507 -0.980768 0
M  V30 6487 O 601.117 1.81231 0.0498517 0
M  V30 6488 C 601.165 1.18996 -3.404 0
M  V30 6489 O 600.269 2.30572 -3.41922 0
M  V30 6490 H 599.61 0.144449 -0.648098 0
M  V30 6491 H 602.14 -0.185325 -2.03759 0
M  V30 6492 H 602.15 1.52962 -3.78241 0
M  V30 6493 H 600.825 0.432984 -4.1364 0
M  V30 6494 H 599.402 1.98173 -3.15883 0
M  V30 6495 N 601.587 1.56661 0.17182 0
M  V30 6496 C 602.534 1.96371 1.21273 0
M  V30 6497 C 603.504 0.82756 1.44016 0
M  V30 6498 O 604.689 1.08764 1.56764 0
M  V30 6499 C 601.829 2.32838 2.54716 0
M  V30 6500 C 600.942 3.59628 2.39356 0
M  V30 6501 C 600.077 3.85311 3.65662 0
M  V30 6502 C 599.116 5.0545 3.45234 0
M  V30 6503 N 598.253 5.27268 4.63608 0
M  V30 6504 H 603.093 2.85106 0.86709 0
M  V30 6505 H 600.63 1.41073 0.416744 0
M  V30 6506 H 602.588 2.52004 3.3249 0
M  V30 6507 H 601.218 1.47214 2.87277 0
M  V30 6508 H 600.27 3.4838 1.52761 0
M  V30 6509 H 601.582 4.4756 2.20207 0
M  V30 6510 H 600.736 4.04841 4.51872 0
M  V30 6511 H 599.475 2.95753 3.8779 0
M  V30 6512 H 598.48 4.85819 2.5741 0
M  V30 6513 H 599.705 5.96538 3.24529 0
M  V30 6514 H 597.651 4.40662 4.85956 0
M  V30 6515 H 597.568 6.09422 4.4737 0
M  V30 6516 H 598.836 5.51277 5.51103 0
M  V30 6517 N 603.065 -0.440357 1.51323 0
M  V30 6518 C 604.29 -1.21716 1.67928 0
M  V30 6519 C 604.715 -1.84328 0.374826 0
M  V30 6520 O 604.073 -1.68675 -0.664706 0
M  V30 6521 C 604.121 -2.27914 2.79442 0
M  V30 6522 O 603.225 -3.33325 2.42834 0
M  V30 6523 H 602.566 -0.35674 0.560029 0
M  V30 6524 H 605.096 -0.520417 1.97871 0
M  V30 6525 H 605.106 -2.72746 3.03436 0
M  V30 6526 H 603.781 -1.8172 3.741 0
M  V30 6527 H 602.358 -2.9399 2.294 0
M  V30 6528 N 604.543 -1.41418 -0.695603 0
M  V30 6529 C 605.789 -1.40982 -1.4578 0
M  V30 6530 C 606.122 -0.0187763 -1.94191 0
M  V30 6531 O 605.397 0.95346 -1.69527 0
M  V30 6532 C 605.68 -2.41657 -2.66972 0
M  V30 6533 C 605.533 -3.89869 -2.24327 0
M  V30 6534 C 606.852 -2.39589 -3.69168 0
M  V30 6535 H 603.971 -0.513405 -0.528757 0
M  V30 6536 H 606.613 -1.72693 -0.792275 0
M  V30 6537 H 604.763 -2.14746 -3.23754 0
M  V30 6538 H 606.435 -4.27683 -1.72872 0
M  V30 6539 H 604.678 -4.04737 -1.56111 0
M  V30 6540 H 605.349 -4.55857 -3.11285 0
M  V30 6541 H 607.825 -2.63471 -3.2206 0
M  V30 6542 H 606.701 -3.12044 -4.51575 0
M  V30 6543 H 606.962 -1.41447 -4.18862 0
M  V30 6544 N 606.021 0.929856 -1.27246 0
M  V30 6545 C 607.249 1.71144 -1.16265 0
M  V30 6546 C 607.664 1.867 0.280786 0
M  V30 6547 O 607.021 1.38249 1.19136 0
M  V30 6548 C 607.072 3.11222 -1.83911 0
M  V30 6549 O 606.793 2.96398 -3.22614 0
M  V30 6550 C 608.294 4.05541 -1.79028 0
M  V30 6551 H 605.514 0.535499 -0.404328 0
M  V30 6552 H 608.058 1.16492 -1.68077 0
M  V30 6553 H 606.213 3.6274 -1.36009 0
M  V30 6554 H 606.627 3.8494 -3.56261 0
M  V30 6555 H 608.101 5.01351 -2.30978 0
M  V30 6556 H 608.578 4.32589 -0.759168 0
M  V30 6557 H 609.184 3.59947 -2.26535 0
M  V30 6558 N 607.499 1.09233 1.13605 0
M  V30 6559 C 608.915 0.82163 1.36826 0
M  V30 6560 C 609.115 -0.565021 1.93416 0
M  V30 6561 O 608.171 -1.32026 2.15234 0
M  V30 6562 C 609.484 1.91124 2.32147 0
M  V30 6563 C 611.032 1.93824 2.45767 0
M  V30 6564 C 611.507 3.01923 3.44393 0
M  V30 6565 N 612.998 3.01149 3.51942 0
M  V30 6566 C 613.733 3.81434 4.2813 0
M  V30 6567 N 613.229 4.71621 5.07489 0
M  V30 6568 N 615.022 3.69702 4.23411 0
M  V30 6569 H 607.173 1.98633 0.752234 0
M  V30 6570 H 609.436 0.862482 0.393482 0
M  V30 6571 H 609.142 2.90862 1.97717 0
M  V30 6572 H 609.016 1.78777 3.32142 0
M  V30 6573 H 611.403 0.94726 2.79483 0
M  V30 6574 H 611.484 2.10248 1.45703 0
M  V30 6575 H 611.128 4.01232 3.11408 0
M  V30 6576 H 611.058 2.82742 4.44257 0
M  V30 6577 H 613.549 2.35789 2.95317 0
M  V30 6578 H 613.862 5.29468 5.62924 0
M  V30 6579 H 612.207 4.75658 5.06729 0
M  V30 6580 H 615.398 2.98606 3.60489 0
M  V30 6581 H 615.571 4.32509 4.82535 0
M  V30 6582 N 608.977 -1.30795 0.87923 0
M  V30 6583 C 610.223 -1.96653 0.495519 0
M  V30 6584 C 610.556 -1.69282 -0.951703 0
M  V30 6585 O 609.831 -0.994374 -1.6716 0
M  V30 6586 C 610.114 -3.51898 0.764174 0
M  V30 6587 C 609.967 -3.88808 2.2616 0
M  V30 6588 C 611.286 -4.39462 0.236825 0
M  V30 6589 H 608.405 -0.7143 0.181507 0
M  V30 6590 H 611.047 -1.54765 1.10217 0
M  V30 6591 H 609.197 -3.87709 0.247841 0
M  V30 6592 H 610.869 -3.63051 2.8459 0
M  V30 6593 H 609.112 -3.37082 2.73053 0
M  V30 6594 H 609.783 -4.97086 2.4002 0
M  V30 6595 H 612.259 -4.10528 0.678683 0
M  V30 6596 H 611.135 -5.47018 0.454176 0
M  V30 6597 H 611.396 -4.33621 -0.861683 0
M  V30 6598 N 610.455 -0.639598 -1.44038 0
M  V30 6599 C 611.732 -0.078012 -1.95444 0
M  V30 6600 C 612.112 1.39847 -1.58133 0
M  V30 6601 O 611.46 2.11714 -0.859614 0
M  V30 6602 C 611.67 -0.309832 -3.47622 0
M  V30 6603 C 613.018 -0.207521 -4.24093 0
M  V30 6604 O 614.042 -0.241653 -3.55379 0
M  V30 6605 O 612.901 -0.119641 -5.46369 0
M  V30 6606 H 609.995 0.0174534 -0.826816 0
M  V30 6607 H 612.541 -0.711891 -1.54046 0
M  V30 6608 H 611.313 -1.33401 -3.67858 0
M  V30 6609 H 610.936 0.357777 -3.95987 0
M  V30 6610 N 611.933 1.52934 -0.380664 0
M  V30 6611 C 613.21 1.93845 0.261417 0
M  V30 6612 C 613.59 1.31544 1.65104 0
M  V30 6613 O 612.938 0.480234 2.23397 0
M  V30 6614 C 613.148 3.47739 0.296466 0
M  V30 6615 C 614.496 4.21284 0.529578 0
M  V30 6616 O 615.52 3.54199 0.377041 0
M  V30 6617 O 614.379 5.40195 0.827753 0
M  V30 6618 H 611.473 0.811318 0.160285 0
M  V30 6619 H 614.019 1.64042 -0.434544 0
M  V30 6620 H 612.791 3.85395 -0.67724 0
M  V30 6621 H 612.414 3.8382 1.0377 0
M  V30 6622 N 613.412 0.11024 1.57214 0
M  V30 6623 C 614.66 -0.548783 1.94506 0
M  V30 6624 C 614.981 -1.67772 0.99386 0
M  V30 6625 O 614.251 -1.9584 0.0485841 0
M  V30 6626 H 612.831 -0.205715 0.718116 0
M  V30 6627 H 615.493 0.177127 1.94093 0
M  V30 6628 H 614.589 -0.949096 2.97319 0
M  V30 6629 N 614.89 -1.56749 -0.16351 0
M  V30 6630 C 616.136 -1.82704 -0.880168 0
M  V30 6631 C 616.469 -0.689311 -1.81555 0
M  V30 6632 O 615.744 0.308224 -1.92042 0
M  V30 6633 C 616.027 -3.19084 -1.66905 0
M  V30 6634 C 615.88 -4.43397 -0.756269 0
M  V30 6635 C 617.199 -3.52493 -2.63509 0
M  V30 6636 H 614.318 -0.664608 -0.318535 0
M  V30 6637 H 616.96 -1.89438 -0.146036 0
M  V30 6638 H 615.11 -3.13475 -2.2949 0
M  V30 6639 H 616.782 -4.61079 -0.14269 0
M  V30 6640 H 615.025 -4.33752 -0.0647944 0
M  V30 6641 H 615.696 -5.3539 -1.34393 0
M  V30 6642 H 618.172 -3.58606 -2.11047 0
M  V30 6643 H 617.048 -4.48979 -3.15767 0
M  V30 6644 H 617.309 -2.77597 -3.44082 0
M  V30 6645 N 616.368 0.432326 -1.51554 0
M  V30 6646 C 617.331 1.50765 -1.72634 0
M  V30 6647 C 618.331 1.49334 -0.596314 0
M  V30 6648 O 619.521 1.51268 -0.863925 0
M  V30 6649 C 616.653 2.90284 -1.7874 0
M  V30 6650 H 617.846 1.33377 -2.68609 0
M  V30 6651 H 615.399 0.661329 -1.4162 0
M  V30 6652 H 616.134 3.13071 -0.845977 0
M  V30 6653 H 615.919 2.92727 -2.6087 0
M  V30 6654 H 617.409 3.68282 -1.96871 0
M  V30 6655 N 617.846 1.41785 0.688094 0
M  V30 6656 C 619.071 1.45117 1.48175 0
M  V30 6657 C 619.496 0.060129 1.88004 0
M  V30 6658 O 618.854 -0.938385 1.55126 0
M  V30 6659 C 618.902 2.37224 2.71583 0
M  V30 6660 O 618.006 1.83443 3.69354 0
M  V30 6661 H 617.347 0.492208 0.445676 0
M  V30 6662 H 619.877 1.86329 0.845145 0
M  V30 6663 H 619.887 2.53353 3.19806 0
M  V30 6664 H 618.562 3.38293 2.41931 0
M  V30 6665 H 617.139 1.76802 3.28322 0
M  V30 6666 N 619.324 -0.923095 1.27737 0
M  V30 6667 C 620.571 -1.67127 1.14345 0
M  V30 6668 C 620.899 -1.92017 -0.30982 0
M  V30 6669 O 620.154 -1.51185 -1.24264 0
M  V30 6670 C 620.453 -3.04125 1.8773 0
M  V30 6671 C 620.119 -2.98929 3.37568 0
M  V30 6672 C 618.781 -2.9722 3.78436 0
M  V30 6673 C 621.133 -2.89875 4.33154 0
M  V30 6674 C 618.461 -2.84244 5.13247 0
M  V30 6675 C 620.813 -2.7844 5.68026 0
M  V30 6676 C 619.477 -2.75083 6.08182 0
M  V30 6677 H 618.747 -0.611562 0.418417 0
M  V30 6678 H 621.394 -1.07618 1.584 0
M  V30 6679 H 619.699 -3.67366 1.36196 0
M  V30 6680 H 621.396 -3.609 1.74792 0
M  V30 6681 H 617.986 -3.0105 3.05069 0
M  V30 6682 H 622.17 -2.9029 4.02548 0
M  V30 6683 H 617.426 -2.80034 5.43499 0
M  V30 6684 H 621.6 -2.70401 6.4176 0
M  V30 6685 H 619.227 -2.64786 7.12596 0
M  V30 6686 N 620.802 -1.09834 -1.13024 0
M  V30 6687 C 622.048 -0.83819 -1.84668 0
M  V30 6688 C 622.381 0.634645 -1.83537 0
M  V30 6689 O 621.656 1.46753 -1.27647 0
M  V30 6690 C 621.939 -1.37933 -3.32636 0
M  V30 6691 C 621.792 -2.91857 -3.42257 0
M  V30 6692 C 623.111 -1.01654 -4.28199 0
M  V30 6693 H 620.23 -0.30595 -0.670495 0
M  V30 6694 H 622.872 -1.36044 -1.32635 0
M  V30 6695 H 621.022 -0.935111 -3.77078 0
M  V30 6696 H 622.694 -3.44759 -3.06495 0
M  V30 6697 H 620.937 -3.28776 -2.83 0
M  V30 6698 H 621.608 -3.24799 -4.46329 0
M  V30 6699 H 624.084 -1.39973 -3.9185 0
M  V30 6700 H 622.96 -1.42217 -5.30156 0
M  V30 6701 H 623.221 0.0747794 -4.42037 0
M  V30 6702 N 622.28 1.30327 -0.886154 0
M  V30 6703 C 623.21 2.30549 -0.370028 0
M  V30 6704 C 624.191 1.61039 0.547751 0
M  V30 6705 O 625.376 1.8864 0.461353 0
M  V30 6706 C 622.506 3.44808 0.415275 0
M  V30 6707 C 621.46 4.26024 -0.41085 0
M  V30 6708 C 620.786 5.32347 0.501128 0
M  V30 6709 C 622.086 4.95433 -1.65359 0
M  V30 6710 H 623.78 2.73969 -1.20754 0
M  V30 6711 H 621.326 1.3171 -0.582097 0
M  V30 6712 H 623.279 4.13986 0.78699 0
M  V30 6713 H 622.003 3.00197 1.28644 0
M  V30 6714 H 620.662 3.58535 -0.764719 0
M  V30 6715 H 620.31 4.83982 1.37004 0
M  V30 6716 H 620.01 5.87581 -0.0478356 0
M  V30 6717 H 621.534 6.0438 0.869333 0
M  V30 6718 H 622.948 5.5712 -1.35239 0
M  V30 6719 H 621.345 5.60537 -2.14284 0
M  V30 6720 H 622.415 4.21493 -2.39733 0
M  V30 6721 N 623.758 0.647228 1.43697 0
M  V30 6722 C 624.706 -0.0600105 2.32523 0
M  V30 6723 C 625.7 -0.819277 1.48271 0
M  V30 6724 O 626.906 -0.730356 1.64517 0
M  V30 6725 H 623.281 -0.0381872 0.75103 0
M  V30 6726 H 625.252 0.706978 2.89904 0
M  V30 6727 C 624.001 -1.0169 3.32497 0
M  V30 6728 H 623.324 -0.442083 3.97348 0
M  V30 6729 H 624.764 -1.48095 3.97296 0
M  V30 6730 C 623.223 -2.11002 2.6264 0
M  V30 6731 O 623.753 -3.19302 2.4374 0
M  V30 6732 N 621.959 -1.87388 2.22113 0
M  V30 6733 H 621.506 -0.993174 2.37684 0
M  V30 6734 H 621.464 -2.60723 1.75701 0
M  V30 6735 N 625.236 -1.5273 0.388769 0
M  V30 6736 C 626.166 -2.29353 -0.438111 0
M  V30 6737 C 627.147 -1.32719 -1.06394 0
M  V30 6738 O 628.332 -1.61612 -1.07681 0
M  V30 6739 C 625.462 -3.09995 -1.56589 0
M  V30 6740 C 624.416 -4.14509 -1.06613 0
M  V30 6741 C 623.742 -4.83372 -2.28594 0
M  V30 6742 C 625.042 -5.22127 -0.134459 0
M  V30 6743 H 626.736 -2.98723 0.201206 0
M  V30 6744 H 624.282 -1.43665 0.0982089 0
M  V30 6745 H 626.235 -3.62357 -2.15118 0
M  V30 6746 H 624.959 -2.38357 -2.23279 0
M  V30 6747 H 623.618 -3.63128 -0.503383 0
M  V30 6748 H 623.266 -4.08283 -2.93792 0
M  V30 6749 H 622.966 -5.54012 -1.95817 0
M  V30 6750 H 624.49 -5.38538 -2.87766 0
M  V30 6751 H 625.904 -5.69851 -0.627914 0
M  V30 6752 H 624.301 -6.00011 0.103534 0
M  V30 6753 H 625.371 -4.77971 0.816798 0
M  V30 6754 N 626.714 -0.118576 -1.57153 0
M  V30 6755 C 628.125 0.40687 -1.82213 0
M  V30 6756 C 628.476 1.66636 -1.03571 0
M  V30 6757 O 627.601 2.14682 -0.272171 0
M  V30 6758 C 628.196 0.744949 -3.30509 0
M  V30 6759 C 626.755 1.21503 -3.5625 0
M  V30 6760 C 625.902 0.223511 -2.76398 0
M  V30 6761 H 628.853 -0.343712 -1.54933 0
M  V30 6762 H 628.874 1.6024 -3.45114 0
M  V30 6763 H 628.386 -0.171911 -3.87719 0
M  V30 6764 H 626.487 2.1488 -3.04396 0
M  V30 6765 H 626.6 1.16065 -4.64829 0
M  V30 6766 H 624.964 0.71046 -2.44591 0
M  V30 6767 H 625.747 -0.686439 -3.36367 0
M  V30 6768 N 628.193 1.56834 0.155195 0
M  V30 6769 C 629.418 1.87412 0.888337 0
M  V30 6770 C 629.843 0.70671 1.74319 0
M  V30 6771 O 629.201 -0.343892 1.78009 0
M  V30 6772 C 629.249 3.1652 1.72765 0
M  V30 6773 O 628.353 2.99877 2.83103 0
M  V30 6774 H 627.694 0.615983 0.247914 0
M  V30 6775 H 630.224 2.04061 0.148478 0
M  V30 6776 H 630.234 3.48334 2.12433 0
M  V30 6777 H 628.909 4.01094 1.09985 0
M  V30 6778 H 627.486 2.79453 2.46902 0
M  V30 6779 N 629.671 -0.424282 1.51781 0
M  V30 6780 C 630.919 -1.17028 1.64769 0
M  V30 6781 C 631.24 -1.91409 0.372523 0
M  V30 6782 O 630.51 -1.86091 -0.612108 0
M  V30 6783 H 629.09 -0.434992 0.607282 0
M  V30 6784 H 631.752 -0.485169 1.88765 0
M  V30 6785 H 630.848 -1.8927 2.4816 0
M  V30 6786 N 631.149 -1.42148 -0.680565 0
M  V30 6787 C 632.395 -1.42521 -1.44277 0
M  V30 6788 C 632.728 -0.0393718 -1.9416 0
M  V30 6789 O 632.003 0.935425 -1.70529 0
M  V30 6790 C 632.286 -2.44475 -2.64394 0
M  V30 6791 C 632.139 -3.92226 -2.20179 0
M  V30 6792 C 633.458 -2.43491 -3.66606 0
M  V30 6793 H 630.577 -0.518985 -0.523282 0
M  V30 6794 H 633.219 -1.73524 -0.773914 0
M  V30 6795 H 631.369 -2.18168 -3.21458 0
M  V30 6796 H 633.041 -4.29493 -1.68327 0
M  V30 6797 H 631.284 -4.0637 -1.5181 0
M  V30 6798 H 631.955 -4.59133 -3.06433 0
M  V30 6799 H 634.431 -2.66872 -3.19247 0
M  V30 6800 H 633.307 -3.16816 -4.4824 0
M  V30 6801 H 633.568 -1.45881 -4.17338 0
M  V30 6802 N 632.627 0.916307 -1.28225 0
M  V30 6803 C 633.855 1.69901 -1.18073 0
M  V30 6804 C 634.27 1.86988 0.260968 0
M  V30 6805 O 633.627 1.39505 1.17663 0
M  V30 6806 C 633.678 3.09254 -1.87201 0
M  V30 6807 O 633.399 2.92959 -3.2574 0
M  V30 6808 C 634.9 4.0362 -1.83319 0
M  V30 6809 H 632.12 0.531181 -0.409985 0
M  V30 6810 H 634.664 1.14703 -1.69303 0
M  V30 6811 H 632.819 3.61277 -1.39848 0
M  V30 6812 H 633.233 3.81139 -3.60324 0
M  V30 6813 H 634.707 4.98873 -2.36282 0
M  V30 6814 H 635.184 4.3176 -0.805007 0
M  V30 6815 H 635.79 3.57524 -2.3034 0
M  V30 6816 N 634.105 1.10431 1.1244 0
M  V30 6817 C 635.351 0.847972 1.84221 0
M  V30 6818 C 635.684 -0.624903 1.83871 0
M  V30 6819 O 634.959 -1.46074 1.28423 0
M  V30 6820 C 635.242 1.39695 3.319 0
M  V30 6821 C 635.095 2.93668 3.40704 0
M  V30 6822 C 636.414 1.03924 4.27654 0
M  V30 6823 H 633.533 0.309502 0.668863 0
M  V30 6824 H 636.175 1.36745 1.31912 0
M  V30 6825 H 634.325 0.955095 3.76577 0
M  V30 6826 H 635.997 3.46379 3.04662 0
M  V30 6827 H 634.24 3.30272 2.81252 0
M  V30 6828 H 634.911 3.27162 4.446 0
M  V30 6829 H 637.387 1.42049 3.91102 0
M  V30 6830 H 636.263 1.45027 5.29394 0
M  V30 6831 H 636.524 -0.051336 4.4207 0
M  V30 6832 N 635.583 -1.29855 0.893053 0
M  V30 6833 C 636.513 -2.3035 0.382249 0
M  V30 6834 C 637.494 -1.61328 -0.539203 0
M  V30 6835 O 638.679 -1.88882 -0.451342 0
M  V30 6836 C 635.809 -3.45024 -0.396983 0
M  V30 6837 C 634.763 -4.258 0.433437 0
M  V30 6838 C 634.089 -5.32605 -0.472889 0
M  V30 6839 C 635.389 -4.94549 1.67984 0
M  V30 6840 H 637.083 -2.73325 1.22205 0
M  V30 6841 H 634.629 -1.314 0.589073 0
M  V30 6842 H 636.582 -4.14398 -0.765024 0
M  V30 6843 H 635.306 -3.00875 -1.2705 0
M  V30 6844 H 633.965 -3.58125 0.783723 0
M  V30 6845 H 633.613 -4.84702 -1.34435 0
M  V30 6846 H 633.313 -5.87547 0.0789958 0
M  V30 6847 H 634.837 -6.04832 -0.837269 0
M  V30 6848 H 636.251 -5.56395 1.38192 0
M  V30 6849 H 634.648 -5.59393 2.17254 0
M  V30 6850 H 635.718 -4.20215 2.41965 0
M  V30 6851 N 637.061 -0.65484 -1.43351 0
M  V30 6852 C 637.971 0.0363603 -2.34572 0
M  V30 6853 C 638.987 0.810432 -1.53974 0
M  V30 6854 O 640.163 0.757308 -1.86619 0
M  V30 6855 C 637.228 0.989733 -3.32273 0
M  V30 6856 C 636.289 0.212414 -4.28774 0
M  V30 6857 C 635.522 1.12038 -5.21808 0
M  V30 6858 O 635.745 2.35967 -5.19303 0
M  V30 6859 O 634.679 0.59191 -5.98982 0
M  V30 6860 H 638.505 -0.714527 -2.95175 0
M  V30 6861 H 636.09 -0.415029 -1.4352 0
M  V30 6862 H 637.972 1.53759 -3.92347 0
M  V30 6863 H 636.647 1.72082 -2.74171 0
M  V30 6864 H 635.554 -0.379062 -3.72175 0
M  V30 6865 H 636.887 -0.479138 -4.89862 0
M  V30 6866 N 638.539 1.52521 -0.396863 0
M  V30 6867 C 639.786 2.01672 0.182898 0
M  V30 6868 C 640.114 1.28302 1.46181 0
M  V30 6869 O 639.369 0.374118 1.92091 0
M  V30 6870 C 639.668 3.5403 0.489677 0
M  V30 6871 C 639.334 4.45456 -0.698581 0
M  V30 6872 C 637.996 4.70166 -1.02454 0
M  V30 6873 C 640.348 4.99354 -1.49316 0
M  V30 6874 C 637.676 5.46024 -2.1465 0
M  V30 6875 C 640.028 5.76439 -2.60579 0
M  V30 6876 C 638.692 5.99426 -2.93675 0
M  V30 6877 H 637.962 0.737971 0.066927 0
M  V30 6878 H 640.609 1.83853 -0.535764 0
M  V30 6879 H 638.914 3.69963 1.28976 0
M  V30 6880 H 640.611 3.8956 0.951018 0
M  V30 6881 H 637.201 4.26392 -0.434525 0
M  V30 6882 H 641.385 4.80182 -1.25457 0
M  V30 6883 H 636.641 5.62046 -2.40654 0
M  V30 6884 H 640.815 6.17202 -3.22544 0
M  V30 6885 H 638.442 6.57988 -3.80731 0
M  V30 6886 N 640.017 0.126909 1.57088 0
M  V30 6887 C 640.965 -0.837618 2.16995 0
M  V30 6888 C 641.959 -1.26974 1.12133 0
M  V30 6889 O 643.165 -1.24056 1.30423 0
M  V30 6890 H 639.54 -0.288256 0.694559 0
M  V30 6891 H 641.511 -0.307957 2.96807 0
M  V30 6892 C 640.26 -2.07474 2.79016 0
M  V30 6893 H 639.583 -1.75117 3.59408 0
M  V30 6894 H 641.023 -2.72949 3.24461 0
M  V30 6895 C 639.482 -2.86967 1.76498 0
M  V30 6896 O 640.012 -3.82625 1.22316 0
M  V30 6897 N 638.218 -2.51111 1.46258 0
M  V30 6898 H 637.765 -1.73389 1.90509 0
M  V30 6899 H 637.723 -3.04594 0.779085 0
M  V30 6900 N 641.495 -1.56914 -0.146875 0
M  V30 6901 C 642.741 -1.83628 -0.860741 0
M  V30 6902 C 643.074 -0.708528 -1.80813 0
M  V30 6903 O 642.349 0.287838 -1.92358 0
M  V30 6904 C 642.632 -3.20836 -1.63511 0
M  V30 6905 C 642.485 -4.44174 -0.709199 0
M  V30 6906 C 643.804 -3.55268 -2.59756 0
M  V30 6907 H 640.923 -0.667949 -0.311468 0
M  V30 6908 H 643.565 -1.89582 -0.125936 0
M  V30 6909 H 641.715 -3.15891 -2.26153 0
M  V30 6910 H 643.387 -4.61205 -0.0937781 0
M  V30 6911 H 641.63 -4.33796 -0.0187856 0
M  V30 6912 H 642.301 -5.36785 -1.28707 0
M  V30 6913 H 644.777 -3.60824 -2.07232 0
M  V30 6914 H 643.653 -4.52303 -3.10987 0
M  V30 6915 H 643.914 -2.81231 -3.41118 0
M  V30 6916 N 642.974 0.416227 -1.52004 0
M  V30 6917 C 643.921 1.50666 -1.74838 0
M  V30 6918 C 644.891 1.55245 -0.590599 0
M  V30 6919 O 646.076 1.71928 -0.827374 0
M  V30 6920 C 643.216 2.88185 -1.89851 0
M  V30 6921 C 642.329 2.92971 -3.17478 0
M  V30 6922 C 641.464 4.21745 -3.22962 0
M  V30 6923 C 640.503 4.20478 -4.4482 0
M  V30 6924 N 639.64 5.40811 -4.47736 0
M  V30 6925 H 644.48 1.30498 -2.67907 0
M  V30 6926 H 642.017 0.633568 -1.32757 0
M  V30 6927 H 643.975 3.68007 -1.96537 0
M  V30 6928 H 642.605 3.06865 -1.00169 0
M  V30 6929 H 641.657 2.05684 -3.19997 0
M  V30 6930 H 642.969 2.87899 -4.07328 0
M  V30 6931 H 642.123 5.09954 -3.28682 0
M  V30 6932 H 640.862 4.29503 -2.31038 0
M  V30 6933 H 639.867 3.30659 -4.39254 0
M  V30 6934 H 641.092 4.14366 -5.38031 0
M  V30 6935 H 639.038 5.4925 -3.58692 0
M  V30 6936 H 638.955 5.37705 -5.31422 0
M  V30 6937 H 640.223 6.30993 -4.57676 0
M  V30 6938 N 644.452 1.42507 0.673017 0
M  V30 6939 C 645.68 1.46473 1.46128 0
M  V30 6940 C 646.095 0.0765912 1.88645 0
M  V30 6941 O 645.452 -0.909057 1.58248 0
M  V30 6942 C 645.503 2.39339 2.70923 0
M  V30 6943 O 645.224 3.72752 2.3019 0
M  V30 6944 C 646.725 2.52343 3.64469 0
M  V30 6945 H 643.945 0.49812 0.449575 0
M  V30 6946 H 646.489 1.87041 0.826802 0
M  V30 6947 H 644.644 2.02019 3.30556 0
M  V30 6948 H 645.058 4.22503 3.10791 0
M  V30 6949 H 646.532 3.2144 4.48754 0
M  V30 6950 H 647.009 1.56189 4.1049 0
M  V30 6951 H 647.615 2.90392 3.10729 0
M  V30 6952 N 645.93 -0.909495 1.28709 0
M  V30 6953 C 647.207 -1.63865 1.06806 0
M  V30 6954 C 647.587 -2.07445 -0.391143 0
M  V30 6955 O 646.935 -1.82269 -1.37805 0
M  V30 6956 C 647.145 -2.82692 2.04661 0
M  V30 6957 C 648.493 -3.5361 2.35042 0
M  V30 6958 O 649.517 -2.92847 2.02779 0
M  V30 6959 O 648.376 -4.63131 2.90124 0
M  V30 6960 H 645.47 -0.719065 0.408502 0
M  V30 6961 H 648.016 -0.958424 1.40044 0
M  V30 6962 H 646.788 -2.47614 3.0299 0
M  V30 6963 H 646.411 -3.58426 1.72095 0
M  V30 6964 N 647.408 -1.11026 -1.11852 0
M  V30 6965 C 648.371 -0.768006 -2.1595 0
M  V30 6966 C 649.371 0.210538 -1.59416 0
M  V30 6967 O 650.561 -0.0133978 -1.74195 0
M  V30 6968 C 647.693 -0.138678 -3.40618 0
M  V30 6969 H 648.886 -1.69012 -2.4774 0
M  V30 6970 H 646.439 -0.911578 -1.26964 0
M  V30 6971 H 647.174 0.793872 -3.14433 0
M  V30 6972 H 646.959 -0.843012 -3.8293 0
M  V30 6973 H 648.449 0.0848039 -4.17514 0
M  V30 6974 N 648.886 1.2938 -0.899927 0
M  V30 6975 C 650.297 1.77644 -0.574427 0
M  V30 6976 C 650.648 1.73824 0.909928 0
M  V30 6977 O 649.773 1.32429 1.71147 0
M  V30 6978 C 650.368 3.22573 -1.03595 0
M  V30 6979 C 648.927 3.68614 -0.76161 0
M  V30 6980 C 648.074 2.49483 -1.21052 0
M  V30 6981 H 651.025 1.16038 -1.08263 0
M  V30 6982 H 651.046 3.78684 -0.371337 0
M  V30 6983 H 650.558 3.25321 -2.11631 0
M  V30 6984 H 648.659 3.7134 0.306127 0
M  V30 6985 H 648.772 4.59402 -1.35965 0
M  V30 6986 H 647.136 2.46798 -0.629515 0
M  V30 6987 H 647.919 2.54959 -2.29893 0
M  V30 6988 N 650.364 0.662433 1.43002 0
M  V30 6989 C 651.641 0.109096 1.95296 0
M  V30 6990 C 652.021 -1.37313 1.60338 0
M  V30 6991 O 651.369 -2.1032 0.893187 0
M  V30 6992 C 651.579 0.365096 3.47085 0
M  V30 6993 C 652.927 0.274964 4.23709 0
M  V30 6994 O 653.951 0.29816 3.5495 0
M  V30 6995 O 652.81 0.206549 5.4611 0
M  V30 6996 H 649.904 -0.00429724 0.826989 0
M  V30 6997 H 652.45 0.736308 1.52894 0
M  V30 6998 H 651.222 1.39237 3.65689 0
M  V30 6999 H 650.845 -0.294733 3.96506 0
M  V30 7000 N 651.842 -1.52309 0.404946 0
M  V30 7001 C 652.772 -2.29805 -0.41376 0
M  V30 7002 C 653.753 -1.3384 -1.0498 0
M  V30 7003 O 654.938 -1.62745 -1.05961 0
M  V30 7004 C 652.068 -3.11639 -1.53292 0
M  V30 7005 C 651.022 -4.15616 -1.02211 0
M  V30 7006 C 650.348 -4.8577 -2.23455 0
M  V30 7007 C 651.648 -5.2224 -0.0790725 0
M  V30 7008 H 653.342 -2.98493 0.232878 0
M  V30 7009 H 650.888 -1.43552 0.113441 0
M  V30 7010 H 652.841 -3.64618 -2.11262 0
M  V30 7011 H 651.565 -2.40712 -2.20738 0
M  V30 7012 H 650.224 -3.63641 -0.46484 0
M  V30 7013 H 649.872 -4.11376 -2.89445 0
M  V30 7014 H 649.572 -5.56058 -1.89929 0
M  V30 7015 H 651.096 -5.4156 -2.82038 0
M  V30 7016 H 652.51 -5.70485 -0.567438 0
M  V30 7017 H 650.907 -5.99867 0.167167 0
M  V30 7018 H 651.977 -4.77078 0.867447 0
M  V30 7019 N 653.32 -0.135238 -1.57019 0
M  V30 7020 C 654.731 0.387521 -1.82634 0
M  V30 7021 C 655.082 1.65528 -1.05332 0
M  V30 7022 O 654.207 2.14381 -0.294926 0
M  V30 7023 C 654.802 0.709852 -3.3128 0
M  V30 7024 C 653.361 1.17718 -3.57518 0
M  V30 7025 C 652.508 0.194183 -2.76619 0
M  V30 7026 H 655.459 -0.360126 -1.5456 0
M  V30 7027 H 655.48 1.5657 -3.46794 0
M  V30 7028 H 654.992 -0.213024 -3.87515 0
M  V30 7029 H 653.093 2.1164 -3.06658 0
M  V30 7030 H 653.206 1.11128 -4.66034 0
M  V30 7031 H 651.57 0.684478 -2.4533 0
M  V30 7032 H 652.353 -0.722076 -3.3562 0
M  V30 7033 N 654.798 1.5699 0.138552 0
M  V30 7034 C 655.708 2.02174 1.19008 0
M  V30 7035 C 656.724 0.938622 1.46512 0
M  V30 7036 O 657.9 1.24872 1.58016 0
M  V30 7037 C 654.965 2.40045 2.50159 0
M  V30 7038 C 654.026 3.62346 2.30226 0
M  V30 7039 C 653.259 3.98401 3.55123 0
M  V30 7040 O 653.482 3.35019 4.61647 0
M  V30 7041 O 652.416 4.91606 3.47285 0
M  V30 7042 H 656.242 2.91954 0.836452 0
M  V30 7043 H 653.827 1.45293 0.347907 0
M  V30 7044 H 655.709 2.65225 3.27465 0
M  V30 7045 H 654.384 1.53417 2.85035 0
M  V30 7046 H 653.291 3.42341 1.50843 0
M  V30 7047 H 654.624 4.49617 2.00262 0
M  V30 7048 N 656.276 -0.40816 1.52223 0
M  V30 7049 C 657.186 -1.52202 1.78526 0
M  V30 7050 C 658.202 -1.60546 0.670892 0
M  V30 7051 O 659.378 -1.77242 0.956404 0
M  V30 7052 C 656.443 -2.87928 1.93128 0
M  V30 7053 C 655.504 -2.89463 3.17033 0
M  V30 7054 C 654.737 -4.18715 3.30929 0
M  V30 7055 O 654.96 -5.12662 2.50067 0
M  V30 7056 O 653.894 -4.27125 4.24084 0
M  V30 7057 H 657.72 -1.32911 2.73072 0
M  V30 7058 H 655.305 -0.594112 1.37079 0
M  V30 7059 H 657.187 -3.68426 2.04549 0
M  V30 7060 H 655.862 -3.07285 1.01772 0
M  V30 7061 H 654.769 -2.07815 3.11069 0
M  V30 7062 H 656.102 -2.75055 4.08174 0
M  V30 7063 N 657.755 -1.42862 -0.66545 0
M  V30 7064 C 658.703 -1.47319 -1.8 0
M  V30 7065 C 659.697 -0.347963 -1.65788 0
M  V30 7066 O 660.903 -0.521406 -1.72283 0
M  V30 7067 H 657.278 -0.461588 -0.593667 0
M  V30 7068 H 659.249 -2.42876 -1.7336 0
M  V30 7069 C 657.998 -1.40152 -3.18203 0
M  V30 7070 H 657.321 -2.26035 -3.2977 0
M  V30 7071 H 658.761 -1.47331 -3.9758 0
M  V30 7072 C 657.22 -0.117493 -3.36695 0
M  V30 7073 O 657.75 0.826058 -3.93115 0
M  V30 7074 N 655.956 -0.0316218 -2.90583 0
M  V30 7075 H 655.503 -0.800247 -2.44855 0
M  V30 7076 H 655.461 0.826835 -3.03333 0
M  V30 7077 N 659.233 0.902656 -1.29189 0
M  V30 7078 C 660.165 2.01149 -1.09872 0
M  V30 7079 C 661.178 1.62732 -0.0471046 0
M  V30 7080 O 662.367 1.76107 -0.29132 0
M  V30 7081 C 659.467 3.32612 -0.649818 0
M  V30 7082 C 658.64 3.99574 -1.7793 0
M  V30 7083 C 657.699 5.09325 -1.32191 0
M  V30 7084 O 656.725 5.31919 -2.02611 0
M  V30 7085 N 657.927 5.80185 -0.191171 0
M  V30 7086 H 660.692 2.18276 -2.05368 0
M  V30 7087 H 658.253 1.07466 -1.2109 0
M  V30 7088 H 660.245 4.03375 -0.327199 0
M  V30 7089 H 658.815 3.11876 0.212597 0
M  V30 7090 H 658.035 3.22213 -2.27095 0
M  V30 7091 H 659.323 4.41056 -2.53668 0
M  V30 7092 H 658.721 5.64312 0.396016 0
M  V30 7093 H 657.278 6.5176 0.0721001 0
M  V30 7094 N 660.711 1.11618 1.11262 0
M  V30 7095 C 661.674 0.779447 2.15539 0
M  V30 7096 C 662.674 -0.202081 1.59525 0
M  V30 7097 O 663.864 0.0226356 1.74185 0
M  V30 7098 C 660.996 0.15674 3.40539 0
M  V30 7099 H 662.189 1.70324 2.4684 0
M  V30 7100 H 659.742 0.918298 1.26479 0
M  V30 7101 H 660.477 -0.777186 3.1485 0
M  V30 7102 H 660.262 0.863308 3.82478 0
M  V30 7103 H 661.752 -0.062661 4.17553 0
M  V30 7104 N 662.189 -1.289 0.906776 0
M  V30 7105 C 663.605 -1.47733 0.603902 0
M  V30 7106 C 663.805 -1.82568 -0.852702 0
M  V30 7107 O 662.861 -1.92642 -1.63234 0
M  V30 7108 C 664.174 -2.58522 1.53581 0
M  V30 7109 C 665.722 -2.72394 1.54177 0
M  V30 7110 C 666.197 -3.86318 2.46013 0
M  V30 7111 N 667.688 -3.93661 2.441 0
M  V30 7112 C 668.423 -4.81177 3.11859 0
M  V30 7113 N 667.919 -5.73333 3.88923 0
M  V30 7114 N 669.712 -4.74728 3.00981 0
M  V30 7115 H 661.863 -1.04567 1.84877 0
M  V30 7116 H 664.126 -0.520118 0.792579 0
M  V30 7117 H 663.832 -2.39667 2.57396 0
M  V30 7118 H 663.706 -3.55475 1.26165 0
M  V30 7119 H 666.093 -2.90641 0.511034 0
M  V30 7120 H 666.174 -1.75993 1.85634 0
M  V30 7121 H 665.818 -3.68826 3.49185 0
M  V30 7122 H 665.748 -4.82102 2.11862 0
M  V30 7123 H 668.239 -3.27751 1.88115 0
M  V30 7124 H 668.552 -6.36923 4.37663 0
M  V30 7125 H 666.897 -5.73196 3.93029 0
M  V30 7126 H 670.088 -4.01722 2.40286 0
M  V30 7127 H 670.261 -5.42719 3.54062 0
M  V30 7128 N 663.667 -0.670007 -1.42649 0
M  V30 7129 C 664.577 0.0114788 -2.34597 0
M  V30 7130 C 665.593 0.794055 -1.54825 0
M  V30 7131 O 666.769 0.737472 -1.87412 0
M  V30 7132 C 663.834 0.954436 -3.33304 0
M  V30 7133 C 662.895 0.166925 -4.28975 0
M  V30 7134 C 662.128 1.06497 -5.22967 0
M  V30 7135 O 662.351 2.30446 -5.21777 0
M  V30 7136 O 661.285 0.528347 -5.99577 0
M  V30 7137 H 665.111 -0.745794 -2.944 0
M  V30 7138 H 662.696 -0.430228 -1.43071 0
M  V30 7139 H 664.578 1.49589 -3.93956 0
M  V30 7140 H 663.253 1.69164 -2.7598 0
M  V30 7141 H 662.16 -0.418515 -3.71752 0
M  V30 7142 H 663.493 -0.531067 -4.89327 0
M  V30 7143 N 665.145 1.52092 -0.413018 0
M  V30 7144 C 666.393 2.01456 0.161178 0
M  V30 7145 C 666.714 1.30034 1.45314 0
M  V30 7146 O 665.984 0.427435 1.9118 0
M  V30 7147 H 664.564 0.744376 0.0625526 0
M  V30 7148 H 667.226 1.86974 -0.550151 0
M  V30 7149 H 666.322 3.1008 0.354517 0
M  V30 7150 N 666.623 0.143563 1.56945 0
M  V30 7151 C 667.853 -0.514699 2.00086 0
M  V30 7152 C 668.261 -1.59184 1.0226 0
M  V30 7153 O 667.604 -1.83697 0.0110514 0
M  V30 7154 C 667.666 -1.17778 3.39659 0
M  V30 7155 C 667.33 -0.245657 4.56339 0
M  V30 7156 C 668.327 0.525343 5.17239 0
M  V30 7157 C 666.012 -0.149564 5.02077 0
M  V30 7158 C 668.006 1.37992 6.22284 0
M  V30 7159 C 665.693 0.708621 6.06978 0
M  V30 7160 C 666.691 1.47197 6.6695 0
M  V30 7161 O 666.379 2.31586 7.6982 0
M  V30 7162 H 666.111 -0.138789 0.661599 0
M  V30 7163 H 668.665 0.234098 2.04062 0
M  V30 7164 H 666.895 -1.97415 3.32512 0
M  V30 7165 H 668.584 -1.73542 3.6693 0
M  V30 7166 H 669.35 0.461118 4.82803 0
M  V30 7167 H 665.229 -0.733457 4.55128 0
M  V30 7168 H 668.773 1.97621 6.69023 0
M  V30 7169 H 664.67 0.77415 6.40841 0
M  V30 7170 H 665.438 2.24796 7.87025 0
M  V30 7171 N 668.101 -1.57061 -0.130224 0
M  V30 7172 C 669.517 -1.52103 -0.483413 0
M  V30 7173 C 669.717 -0.854752 -1.82473 0
M  V30 7174 O 668.773 -0.432342 -2.48771 0
M  V30 7175 C 670.086 -2.96872 -0.47825 0
M  V30 7176 C 671.634 -3.07902 -0.562592 0
M  V30 7177 C 672.109 -4.54211 -0.587929 0
M  V30 7178 N 673.6 -4.58621 -0.649684 0
M  V30 7179 C 674.335 -5.69227 -0.690551 0
M  V30 7180 N 673.831 -6.89358 -0.689743 0
M  V30 7181 N 675.624 -5.57304 -0.732708 0
M  V30 7182 H 667.775 -1.98764 0.748779 0
M  V30 7183 H 670.038 -0.907248 0.274965 0
M  V30 7184 H 669.744 -3.48944 0.439444 0
M  V30 7185 H 669.618 -3.53716 -1.31013 0
M  V30 7186 H 672.005 -2.5584 -1.47071 0
M  V30 7187 H 672.086 -2.54073 0.296764 0
M  V30 7188 H 671.73 -5.06915 0.316096 0
M  V30 7189 H 671.66 -5.0584 -1.46401 0
M  V30 7190 H 674.151 -3.72146 -0.656927 0
M  V30 7191 H 674.464 -7.69408 -0.723239 0
M  V30 7192 H 672.809 -6.91884 -0.657347 0
M  V30 7193 H 676 -4.62363 -0.730625 0
M  V30 7194 H 676.173 -6.43515 -0.76109 0
M  V30 7195 N 669.579 0.400081 -1.52437 0
M  V30 7196 C 670.542 1.4707 -1.75793 0
M  V30 7197 C 671.542 1.48036 -0.627856 0
M  V30 7198 O 672.732 1.49401 -0.895817 0
M  V30 7199 C 669.864 2.86427 -1.84858 0
M  V30 7200 H 671.057 1.27649 -2.71377 0
M  V30 7201 H 668.61 0.631141 -1.42991 0
M  V30 7202 H 669.345 3.11207 -0.912194 0
M  V30 7203 H 669.13 2.87128 -2.6702 0
M  V30 7204 H 670.62 3.64023 -2.04638 0
M  V30 7205 N 671.057 1.43213 0.657864 0
M  V30 7206 C 672.306 1.43871 1.41365 0
M  V30 7207 C 672.619 0.064898 1.95492 0
M  V30 7208 O 673.825 -0.0510796 2.71452 0
M  V30 7209 C 672.281 2.53158 2.55811 0
M  V30 7210 C 671.889 3.96624 2.08311 0
M  V30 7211 C 673.633 2.63004 3.3321 0
M  V30 7212 C 671.54 4.97385 3.1994 0
M  V30 7213 H 670.47 0.535174 0.531136 0
M  V30 7214 H 673.121 1.69185 0.710543 0
M  V30 7215 H 671.503 2.21037 3.2857 0
M  V30 7216 H 672.677 4.38182 1.42593 0
M  V30 7217 H 670.992 3.90781 1.43804 0
M  V30 7218 H 673.589 3.3546 4.16378 0
M  V30 7219 H 673.932 1.67918 3.80932 0
M  V30 7220 H 674.465 2.94403 2.67529 0
M  V30 7221 H 671.204 5.94007 2.77192 0
M  V30 7222 H 670.724 4.60444 3.84385 0
M  V30 7223 H 672.403 5.19877 3.85145 0
M  V30 7224 N 672.536 -0.895792 1.29666 0
M  V30 7225 C 673.499 -1.98189 1.15124 0
M  V30 7226 C 674.499 -1.60572 0.0855717 0
M  V30 7227 O 675.689 -1.70991 0.332826 0
M  V30 7228 C 672.821 -3.32289 0.761372 0
M  V30 7229 H 674.014 -2.12518 2.11603 0
M  V30 7230 H 671.567 -1.0808 1.12908 0
M  V30 7231 H 672.302 -3.23662 -0.203393 0
M  V30 7232 H 672.087 -3.60958 1.53139 0
M  V30 7233 H 673.577 -4.1198 0.682792 0
M  V30 7234 N 674.014 -1.12206 -1.10668 0
M  V30 7235 C 675.244 -0.897332 -1.86095 0
M  V30 7236 C 675.652 0.556778 -1.80822 0
M  V30 7237 O 674.995 1.39658 -1.19337 0
M  V30 7238 C 675.057 -1.29095 -3.35522 0
M  V30 7239 C 674.721 -2.75586 -3.64556 0
M  V30 7240 C 675.718 -3.73785 -3.6136 0
M  V30 7241 C 673.403 -3.12432 -3.93309 0
M  V30 7242 C 675.397 -5.06845 -3.86506 0
M  V30 7243 C 673.084 -4.45675 -4.18111 0
M  V30 7244 C 674.082 -5.42691 -4.147 0
M  V30 7245 O 673.77 -6.73532 -4.38873 0
M  V30 7246 H 673.502 -0.320704 -0.595084 0
M  V30 7247 H 676.056 -1.49517 -1.40833 0
M  V30 7248 H 674.286 -0.636299 -3.81429 0
M  V30 7249 H 675.975 -1.04073 -3.92331 0
M  V30 7250 H 676.741 -3.46664 -3.39189 0
M  V30 7251 H 672.62 -2.3753 -3.95096 0
M  V30 7252 H 676.164 -5.82559 -3.83758 0
M  V30 7253 H 672.061 -4.72526 -4.39761 0
M  V30 7254 H 672.829 -6.79442 -4.564 0
M  V30 7255 N 675.492 1.28418 -0.913599 0
M  V30 7256 C 676.717 1.99643 -0.561899 0
M  V30 7257 C 677.142 1.67819 0.849608 0
M  V30 7258 O 676.5 0.910503 1.56779 0
M  V30 7259 C 676.548 3.52116 -0.777622 0
M  V30 7260 O 675.652 4.12076 0.163457 0
M  V30 7261 H 674.993 0.627229 -0.217898 0
M  V30 7262 H 677.523 1.63575 -1.229 0
M  V30 7263 H 677.533 4.02163 -0.687666 0
M  V30 7264 H 676.208 3.74613 -1.8066 0
M  V30 7265 H 674.785 3.72892 0.0247827 0
M  V30 7266 N 676.97 0.677563 1.42291 0
M  V30 7267 C 678.195 0.207901 2.06355 0
M  V30 7268 C 678.62 -1.12723 1.50583 0
M  V30 7269 O 677.978 -1.70171 0.62543 0
M  V30 7270 C 678.026 0.156489 3.6026 0
M  V30 7271 O 677.13 -0.874162 4.03029 0
M  V30 7272 H 676.471 0.106056 0.655475 0
M  V30 7273 H 679.001 0.927354 1.82377 0
M  V30 7274 H 679.011 -0.0187258 4.07996 0
M  V30 7275 H 677.686 1.13101 4.00226 0
M  V30 7276 H 676.263 -0.669764 3.66836 0
M  V30 7277 N 678.448 -1.51871 0.421078 0
M  V30 7278 C 679.378 -2.30231 -0.389363 0
M  V30 7279 C 680.359 -1.34946 -1.03555 0
M  V30 7280 O 681.544 -1.63859 -1.04229 0
M  V30 7281 C 678.674 -3.13247 -1.49979 0
M  V30 7282 C 677.628 -4.16677 -0.977966 0
M  V30 7283 C 676.954 -4.88112 -2.1829 0
M  V30 7284 C 678.254 -5.22295 -0.0236775 0
M  V30 7285 H 679.948 -2.98229 0.264524 0
M  V30 7286 H 677.494 -1.43424 0.12866 0
M  V30 7287 H 679.447 -3.66838 -2.07383 0
M  V30 7288 H 678.171 -2.4304 -2.18173 0
M  V30 7289 H 676.83 -3.64114 -0.426245 0
M  V30 7290 H 676.478 -4.14423 -2.85066 0
M  V30 7291 H 676.178 -5.58041 -1.84021 0
M  V30 7292 H 677.702 -5.44521 -2.76278 0
M  V30 7293 H 679.116 -5.71055 -0.506899 0
M  V30 7294 H 677.513 -5.99656 0.230782 0
M  V30 7295 H 678.583 -4.76131 0.917999 0
M  V30 7296 N 679.926 -0.151884 -1.56866 0
M  V30 7297 C 681.151 0.508044 -2.01081 0
M  V30 7298 C 681.576 1.57306 -1.03134 0
M  V30 7299 O 680.934 1.81298 -0.0078309 0
M  V30 7300 C 680.982 1.08106 -3.44014 0
M  V30 7301 O 680.086 2.19577 -3.49084 0
M  V30 7302 H 679.427 0.123757 -0.652365 0
M  V30 7303 H 681.957 -0.250055 -2.03066 0
M  V30 7304 H 681.967 1.40851 -3.82916 0
M  V30 7305 H 680.642 0.301168 -4.14808 0
M  V30 7306 H 679.219 1.88023 -3.22027 0
M  V30 7307 N 681.404 1.57128 0.121893 0
M  V30 7308 C 682.336 1.96773 1.17529 0
M  V30 7309 C 683.349 0.866668 1.37814 0
M  V30 7310 O 684.538 1.14497 1.3694 0
M  V30 7311 C 681.638 2.24832 2.53582 0
M  V30 7312 C 680.811 3.56138 2.53939 0
M  V30 7313 C 679.87 3.72443 3.71716 0
M  V30 7314 O 678.896 4.44584 3.55434 0
M  V30 7315 N 680.098 3.10993 4.90167 0
M  V30 7316 H 682.863 2.87743 0.838086 0
M  V30 7317 H 680.424 1.58881 0.311199 0
M  V30 7318 H 682.416 2.32958 3.30927 0
M  V30 7319 H 680.986 1.40002 2.79496 0
M  V30 7320 H 680.206 3.59226 1.62329 0
M  V30 7321 H 681.494 4.42448 2.51231 0
M  V30 7322 H 680.892 2.52345 5.06299 0
M  V30 7323 H 679.449 3.24644 5.65198 0
M  V30 7324 N 682.882 -0.391992 1.52647 0
M  V30 7325 C 684.107 -1.16312 1.71716 0
M  V30 7326 C 684.532 -1.83042 0.433279 0
M  V30 7327 O 683.89 -1.70705 -0.610707 0
M  V30 7328 C 683.938 -2.18908 2.86551 0
M  V30 7329 O 683.042 -3.2543 2.53316 0
M  V30 7330 H 682.383 -0.338743 0.571095 0
M  V30 7331 H 684.913 -0.457202 1.99426 0
M  V30 7332 H 684.923 -2.62954 3.1196 0
M  V30 7333 H 683.598 -1.69726 3.79692 0
M  V30 7334 H 682.175 -2.86543 2.38637 0
M  V30 7335 N 684.36 -1.4356 -0.65026 0
M  V30 7336 C 685.59 -1.48563 -1.4357 0
M  V30 7337 C 685.998 -0.103041 -1.88919 0
M  V30 7338 O 685.341 0.897602 -1.60277 0
M  V30 7339 C 685.403 -2.37181 -2.70158 0
M  V30 7340 C 685.067 -3.84673 -2.4673 0
M  V30 7341 C 686.064 -4.75704 -2.09765 0
M  V30 7342 C 683.749 -4.29189 -2.60963 0
M  V30 7343 C 685.743 -6.09249 -1.87334 0
M  V30 7344 C 683.43 -5.62787 -2.38147 0
M  V30 7345 C 684.428 -6.52634 -2.01389 0
M  V30 7346 O 684.116 -7.83761 -1.78813 0
M  V30 7347 H 683.848 -0.506743 -0.447423 0
M  V30 7348 H 686.402 -1.89001 -0.80423 0
M  V30 7349 H 684.632 -1.91636 -3.35876 0
M  V30 7350 H 686.321 -2.33354 -3.32116 0
M  V30 7351 H 687.087 -4.42589 -1.98343 0
M  V30 7352 H 682.966 -3.59529 -2.88548 0
M  V30 7353 H 686.51 -6.7934 -1.58567 0
M  V30 7354 H 682.407 -5.95469 -2.49173 0
M  V30 7355 H 683.175 -7.95368 -1.93214 0
M  V30 7356 N 685.838 0.888903 -1.30139 0
M  V30 7357 C 686.768 2.01046 -1.18755 0
M  V30 7358 C 687.749 1.69916 -0.0791438 0
M  V30 7359 O 688.934 1.92445 -0.260498 0
M  V30 7360 C 686.064 3.36109 -0.874518 0
M  V30 7361 C 685.018 3.81486 -1.94043 0
M  V30 7362 C 684.344 5.13796 -1.48047 0
M  V30 7363 C 685.644 4.00637 -3.35093 0
M  V30 7364 H 687.338 2.10828 -2.12584 0
M  V30 7365 H 684.884 1.01298 -1.02346 0
M  V30 7366 H 686.837 4.14089 -0.781548 0
M  V30 7367 H 685.561 3.26449 0.0994519 0
M  V30 7368 H 684.22 3.05731 -2.02297 0
M  V30 7369 H 683.868 5.0056 -0.494878 0
M  V30 7370 H 683.568 5.45127 -2.19341 0
M  V30 7371 H 685.092 5.94305 -1.40121 0
M  V30 7372 H 686.506 4.69067 -3.2962 0
M  V30 7373 H 684.903 4.43339 -4.04438 0
M  V30 7374 H 685.973 3.0462 -3.77273 0
M  V30 7375 N 687.317 1.12792 1.10072 0
M  V30 7376 C 688.547 0.907189 1.85617 0
M  V30 7377 C 688.955 -0.547181 1.81115 0
M  V30 7378 O 688.298 -1.39024 1.20075 0
M  V30 7379 C 688.36 1.30872 3.34832 0
M  V30 7380 C 688.024 2.77516 3.6309 0
M  V30 7381 C 689.021 3.75696 3.59373 0
M  V30 7382 C 686.706 3.14513 3.91646 0
M  V30 7383 C 688.7 5.08888 3.83812 0
M  V30 7384 C 686.387 4.47886 4.15742 0
M  V30 7385 C 687.385 5.44882 4.11816 0
M  V30 7386 O 687.073 6.7585 4.35295 0
M  V30 7387 H 686.805 0.323855 0.593375 0
M  V30 7388 H 689.359 1.50262 1.40038 0
M  V30 7389 H 687.589 0.656518 3.81086 0
M  V30 7390 H 689.278 1.06153 3.91773 0
M  V30 7391 H 690.044 3.48458 3.37345 0
M  V30 7392 H 685.923 2.39622 3.93831 0
M  V30 7393 H 689.467 5.84586 3.80663 0
M  V30 7394 H 685.364 4.74851 4.37249 0
M  V30 7395 H 686.132 6.81853 4.52791 0
M  V30 7396 N 688.795 -1.27931 0.920396 0
M  V30 7397 C 690.044 -1.93975 0.552867 0
M  V30 7398 C 690.357 -1.73193 -0.909035 0
M  V30 7399 O 691.563 -2.33515 -1.38502 0
M  V30 7400 C 690.019 -3.47463 0.937947 0
M  V30 7401 C 689.627 -3.77013 2.42003 0
M  V30 7402 C 691.371 -4.19628 0.64132 0
M  V30 7403 C 689.278 -5.23841 2.74489 0
M  V30 7404 H 688.208 -0.726146 0.203046 0
M  V30 7405 H 690.859 -1.45339 1.12022 0
M  V30 7406 H 689.241 -3.94867 0.299317 0
M  V30 7407 H 690.415 -3.40393 3.10595 0
M  V30 7408 H 688.73 -3.18035 2.6878 0
M  V30 7409 H 691.327 -5.27729 0.860622 0
M  V30 7410 H 691.67 -4.14164 -0.421168 0
M  V30 7411 H 692.203 -3.78022 1.23872 0
M  V30 7412 H 688.942 -5.34388 3.79618 0
M  V30 7413 H 688.462 -5.61634 2.1054 0
M  V30 7414 H 690.141 -5.91647 2.61845 0
M  V30 7415 N 690.273 -0.685099 -1.4193 0
M  V30 7416 C 691.55 -0.140152 -1.95097 0
M  V30 7417 C 691.93 1.34745 -1.62502 0
M  V30 7418 O 691.278 2.08872 -0.926534 0
M  V30 7419 C 691.488 -0.420268 -3.4646 0
M  V30 7420 C 692.836 -0.342338 -4.23218 0
M  V30 7421 O 693.86 -0.354592 -3.54431 0
M  V30 7422 O 692.719 -0.293404 -5.45712 0
M  V30 7423 H 689.813 -0.00885998 -0.826953 0
M  V30 7424 H 692.359 -0.760539 -1.51703 0
M  V30 7425 H 691.131 -1.45037 -3.63428 0
M  V30 7426 H 690.754 0.231616 -3.96925 0
M  V30 7427 N 691.751 1.51645 -0.429126 0
M  V30 7428 C 692.997 2.02967 0.132584 0
M  V30 7429 C 693.352 1.30804 1.41096 0
M  V30 7430 O 692.645 0.411705 1.87124 0
M  V30 7431 C 692.839 3.54989 0.414472 0
M  V30 7432 C 692.668 4.41879 -0.83503 0
M  V30 7433 C 691.438 4.86482 -1.36614 0
M  V30 7434 C 693.636 4.84727 -1.71886 0
M  V30 7435 N 691.618 5.5756 -2.56904 0
M  V30 7436 C 692.989 5.54788 -2.76786 0
M  V30 7437 C 695.044 4.66721 -1.73425 0
M  V30 7438 C 693.747 6.08753 -3.8316 0
M  V30 7439 C 695.773 5.21597 -2.7873 0
M  V30 7440 C 695.135 5.91598 -3.8235 0
M  V30 7441 H 691.234 0.781942 0.00956367 0
M  V30 7442 H 693.818 1.8561 -0.587957 0
M  V30 7443 H 691.989 3.72378 1.10405 0
M  V30 7444 H 693.721 3.92982 0.966817 0
M  V30 7445 H 690.476 4.64553 -0.921255 0
M  V30 7446 H 690.9 5.97731 -3.17879 0
M  V30 7447 H 695.542 4.1207 -0.946467 0
M  V30 7448 H 693.26 6.62464 -4.62782 0
M  V30 7449 H 696.846 5.09522 -2.80853 0
M  V30 7450 H 695.726 6.33299 -4.62495 0
M  V30 7451 N 693.229 0.160201 1.56784 0
M  V30 7452 C 694.457 -0.494165 2.00912 0
M  V30 7453 C 694.872 -1.57548 1.04038 0
M  V30 7454 O 694.229 -1.82457 0.0394581 0
M  V30 7455 C 694.28 -1.08271 3.44905 0
M  V30 7456 O 694.001 -0.0445704 4.38077 0
M  V30 7457 C 695.502 -1.8164 4.04378 0
M  V30 7458 H 692.722 -0.127498 0.658776 0
M  V30 7459 H 695.266 0.258665 2.02858 0
M  V30 7460 H 693.421 -1.78609 3.4377 0
M  V30 7461 H 693.835 -0.477544 5.22322 0
M  V30 7462 H 695.309 -2.18094 5.07089 0
M  V30 7463 H 695.786 -2.70727 3.45838 0
M  V30 7464 H 696.392 -1.15969 4.09184 0
M  V30 7465 N 694.707 -1.5719 -0.113559 0
M  V30 7466 C 695.984 -1.76117 -0.850999 0
M  V30 7467 C 696.364 -0.737085 -1.97814 0
M  V30 7468 O 695.712 0.237942 -2.27258 0
M  V30 7469 C 695.922 -3.21298 -1.36266 0
M  V30 7470 C 697.27 -3.83955 -1.81283 0
M  V30 7471 O 698.294 -3.24934 -1.45933 0
M  V30 7472 O 697.153 -4.87707 -2.46585 0
M  V30 7473 H 694.247 -0.721308 -0.404529 0
M  V30 7474 H 696.793 -1.69423 -0.0968756 0
M  V30 7475 H 695.565 -3.87355 -0.554235 0
M  V30 7476 H 695.188 -3.32552 -2.17933 0
M  V30 7477 N 696.185 0.383891 -1.52853 0
M  V30 7478 C 697.133 1.48965 -1.7864 0
M  V30 7479 C 698.127 1.56242 -0.654577 0
M  V30 7480 O 699.333 1.59347 -0.83716 0
M  V30 7481 H 695.708 0.495892 -0.565328 0
M  V30 7482 H 697.679 1.24411 -2.71228 0
M  V30 7483 C 696.428 2.86036 -1.97683 0
M  V30 7484 H 695.751 2.81188 -2.84206 0
M  V30 7485 H 697.191 3.62632 -2.19713 0
M  V30 7486 C 695.65 3.28428 -0.750776 0
M  V30 7487 O 696.18 4.0164 0.0693491 0
M  V30 7488 N 694.386 2.84765 -0.579427 0
M  V30 7489 H 693.933 2.25353 -1.24795 0
M  V30 7490 H 693.891 3.13486 0.239544 0
M  V30 7491 N 697.663 1.43903 0.642637 0
M  V30 7492 C 698.613 1.46321 1.74854 0
M  V30 7493 C 699.597 0.330361 1.57472 0
M  V30 7494 O 700.789 0.574881 1.67404 0
M  V30 7495 C 697.918 1.39919 3.13493 0
M  V30 7496 C 697.004 2.58274 3.36385 0
M  V30 7497 N 697.395 3.83578 3.29699 0
M  V30 7498 C 695.693 2.53224 3.67142 0
M  V30 7499 C 696.394 4.62375 3.52965 0
M  V30 7500 N 695.37 3.93269 3.75287 0
M  V30 7501 H 699.172 2.41062 1.68126 0
M  V30 7502 H 696.686 1.38704 0.844693 0
M  V30 7503 H 698.683 1.39735 3.92785 0
M  V30 7504 H 697.343 0.46207 3.21395 0
M  V30 7505 H 698.354 4.15713 3.08874 0
M  V30 7506 H 695.031 1.68252 3.82096 0
M  V30 7507 H 696.421 5.714 3.53485 0
M  V30 7508 N 699.141 -0.881989 1.30609 0
M  V30 7509 C 700.088 -1.98803 1.17244 0
M  V30 7510 C 701.058 -1.65987 0.0611905 0
M  V30 7511 O 702.243 -1.89385 0.231911 0
M  V30 7512 C 699.383 -3.33867 0.87333 0
M  V30 7513 C 698.496 -3.79354 2.06675 0
M  V30 7514 C 697.631 -5.03078 1.70547 0
M  V30 7515 C 696.67 -5.40981 2.86366 0
M  V30 7516 N 695.807 -6.55886 2.50514 0
M  V30 7517 H 700.647 -2.09566 2.11863 0
M  V30 7518 H 698.184 -1.02607 1.05405 0
M  V30 7519 H 700.142 -4.11612 0.680519 0
M  V30 7520 H 698.772 -3.2278 -0.0359983 0
M  V30 7521 H 697.824 -2.97492 2.37071 0
M  V30 7522 H 699.136 -4.03382 2.93401 0
M  V30 7523 H 698.29 -5.88457 1.47658 0
M  V30 7524 H 697.029 -4.80927 0.809947 0
M  V30 7525 H 696.034 -4.54127 3.09917 0
M  V30 7526 H 697.259 -5.65104 3.76609 0
M  V30 7527 H 695.205 -6.35306 1.63471 0
M  V30 7528 H 695.122 -6.79799 3.30771 0
M  V30 7529 H 696.39 -7.44489 2.30989 0
M  V30 7530 N 700.619 -1.13374 -1.09472 0
M  V30 7531 C 701.582 -0.813639 -2.14272 0
M  V30 7532 C 702.582 0.176677 -1.59826 0
M  V30 7533 O 703.772 -0.0503441 -1.74127 0
M  V30 7534 C 700.904 -0.210897 -3.40247 0
M  V30 7535 H 702.097 -1.74229 -2.44099 0
M  V30 7536 H 699.65 -0.938304 -1.25002 0
M  V30 7537 H 700.385 0.726998 -3.16046 0
M  V30 7538 H 700.17 -0.924048 -3.81056 0
M  V30 7539 H 701.66 -0.00377603 -4.176 0
M  V30 7540 N 702.098 1.27442 -0.927168 0
M  V30 7541 C 703.028 2.29256 -0.443188 0
M  V30 7542 C 704.009 1.62701 0.49624 0
M  V30 7543 O 705.194 1.90013 0.401105 0
M  V30 7544 C 702.324 3.45955 0.305366 0
M  V30 7545 C 701.278 4.24501 -0.546178 0
M  V30 7546 C 700.604 5.33671 0.331512 0
M  V30 7547 C 701.904 4.89921 -1.81037 0
M  V30 7548 H 703.598 2.69988 -1.29409 0
M  V30 7549 H 701.144 1.29792 -0.623705 0
M  V30 7550 H 703.097 4.1628 0.654885 0
M  V30 7551 H 701.821 3.04138 1.19029 0
M  V30 7552 H 700.48 3.55921 -0.878398 0
M  V30 7553 H 700.128 4.88096 1.21537 0
M  V30 7554 H 699.828 5.87131 -0.234746 0
M  V30 7555 H 701.352 6.0684 0.676614 0
M  V30 7556 H 702.766 5.52536 -1.52895 0
M  V30 7557 H 701.163 5.53436 -2.32009 0
M  V30 7558 H 702.233 4.13652 -2.53021 0
M  V30 7559 N 703.576 0.692616 1.41565 0
M  V30 7560 C 704.506 0.0397325 2.33466 0
M  V30 7561 C 705.487 -0.770334 1.51657 0
M  V30 7562 O 706.672 -0.723903 1.80203 0
M  V30 7563 C 703.802 -0.899495 3.3545 0
M  V30 7564 C 702.756 -0.196738 4.27548 0
M  V30 7565 C 702.082 -1.25012 5.19881 0
M  V30 7566 C 703.382 0.935158 5.1386 0
M  V30 7567 H 705.076 0.807296 2.88311 0
M  V30 7568 H 702.622 0.389665 1.38628 0
M  V30 7569 H 704.575 -1.36545 3.98665 0
M  V30 7570 H 703.299 -1.69869 2.78948 0
M  V30 7571 H 701.958 0.249158 3.65752 0
M  V30 7572 H 701.606 -2.04177 4.59696 0
M  V30 7573 H 701.306 -0.784931 5.82334 0
M  V30 7574 H 702.83 -1.71665 5.85972 0
M  V30 7575 H 704.244 0.549619 5.70659 0
M  V30 7576 H 702.641 1.32726 5.85238 0
M  V30 7577 H 703.711 1.77613 4.512 0
M  V30 7578 N 705.054 -1.51416 0.437162 0
M  V30 7579 C 706.3 -2.02386 -0.129555 0
M  V30 7580 C 706.633 -1.32071 -1.42376 0
M  V30 7581 O 705.908 -0.43559 -1.8956 0
M  V30 7582 C 706.191 -3.5841 -0.348487 0
M  V30 7583 C 706.044 -4.39341 0.964352 0
M  V30 7584 C 707.363 -4.25654 -1.11834 0
M  V30 7585 H 704.482 -0.735587 -0.0456109 0
M  V30 7586 H 707.124 -1.81055 0.576124 0
M  V30 7587 H 705.274 -3.76716 -0.949592 0
M  V30 7588 H 706.946 -4.32685 1.59942 0
M  V30 7589 H 705.189 -4.04432 1.56898 0
M  V30 7590 H 705.86 -5.4667 0.765212 0
M  V30 7591 H 708.336 -4.11617 -0.609165 0
M  V30 7592 H 707.212 -5.34704 -1.24029 0
M  V30 7593 H 707.473 -3.86502 -2.14636 0
M  V30 7594 N 706.532 -0.168513 -1.56696 0
M  V30 7595 C 707.78 0.476216 -1.96409 0
M  V30 7596 C 708.101 1.63968 -1.05544 0
M  V30 7597 O 707.371 1.95525 -0.121235 0
M  V30 7598 H 705.951 0.178921 -0.725256 0
M  V30 7599 H 708.613 -0.249042 -1.93302 0
M  V30 7600 H 707.709 0.838094 -3.00637 0
M  V30 7601 N 708.01 1.57248 0.105221 0
M  V30 7602 C 708.92 2.04653 1.14693 0
M  V30 7603 C 709.936 0.969488 1.44489 0
M  V30 7604 O 711.112 1.28196 1.55331 0
M  V30 7605 C 708.177 2.45297 2.45011 0
M  V30 7606 C 707.238 3.67148 2.22489 0
M  V30 7607 C 706.471 4.05844 3.46592 0
M  V30 7608 O 706.694 3.44736 4.54437 0
M  V30 7609 O 705.628 4.98862 3.36779 0
M  V30 7610 H 709.454 2.93663 0.774336 0
M  V30 7611 H 707.039 1.45998 0.31701 0
M  V30 7612 H 708.921 2.72112 3.21766 0
M  V30 7613 H 707.596 1.59429 2.81717 0
M  V30 7614 H 706.503 3.45463 1.43547 0
M  V30 7615 H 707.836 4.53764 1.9068 0
M  V30 7616 N 709.488 -0.375779 1.53054 0
M  V30 7617 C 710.438 -1.45965 1.75152 0
M  V30 7618 C 711.422 -1.49059 0.605823 0
M  V30 7619 O 712.614 -1.54472 0.864133 0
M  V30 7620 C 709.743 -2.83524 1.93569 0
M  V30 7621 C 708.829 -2.84949 3.1411 0
M  V30 7622 N 709.22 -2.56029 4.36214 0
M  V30 7623 C 707.518 -3.16113 3.14625 0
M  V30 7624 C 708.219 -2.64873 5.17897 0
M  V30 7625 N 707.195 -2.99159 4.53878 0
M  V30 7626 H 710.997 -1.22454 2.67175 0
M  V30 7627 H 708.511 -0.583867 1.51541 0
M  V30 7628 H 710.508 -3.61578 2.07525 0
M  V30 7629 H 709.168 -3.08008 1.02768 0
M  V30 7630 H 710.179 -2.29808 4.64121 0
M  V30 7631 H 706.856 -3.45977 2.3368 0
M  V30 7632 H 708.246 -2.45947 6.25268 0
M  V30 7633 N 710.966 -1.44241 -0.634997 0
M  V30 7634 C 711.896 -1.53632 -1.7584 0
M  V30 7635 C 712.877 -0.389603 -1.65578 0
M  V30 7636 O 714.062 -0.609219 -1.84397 0
M  V30 7637 C 711.192 -1.47644 -3.14354 0
M  V30 7638 C 710.146 -2.60752 -3.394 0
M  V30 7639 C 709.472 -2.39817 -4.77904 0
M  V30 7640 C 710.772 -4.02921 -3.32343 0
M  V30 7641 H 712.466 -2.47662 -1.68238 0
M  V30 7642 H 710.012 -1.19197 -0.807969 0
M  V30 7643 H 711.965 -1.52815 -3.92716 0
M  V30 7644 H 710.689 -0.501284 -3.2273 0
M  V30 7645 H 709.348 -2.54965 -2.63417 0
M  V30 7646 H 708.996 -1.40502 -4.82978 0
M  V30 7647 H 708.696 -3.15649 -4.9562 0
M  V30 7648 H 710.22 -2.46799 -5.585 0
M  V30 7649 H 711.634 -4.10098 -4.00615 0
M  V30 7650 H 710.031 -4.78925 -3.61595 0
M  V30 7651 H 711.101 -4.26766 -2.30215 0
M  V30 7652 N 712.444 0.87505 -1.31075 0
M  V30 7653 C 713.392 2.00317 -1.18219 0
M  V30 7654 C 714.386 1.69152 -0.0916872 0
M  V30 7655 O 715.592 1.7821 -0.253229 0
M  V30 7656 H 711.967 0.656981 -0.365895 0
M  V30 7657 H 713.938 2.08293 -2.13674 0
M  V30 7658 C 712.687 3.35821 -0.901095 0
M  V30 7659 H 712.01 3.6032 -1.73233 0
M  V30 7660 H 713.45 4.15366 -0.851295 0
M  V30 7661 C 711.909 3.34563 0.396114 0
M  V30 7662 O 712.439 3.75971 1.41452 0
M  V30 7663 N 710.645 2.87681 0.410832 0
M  V30 7664 H 710.192 2.54179 -0.418415 0
M  V30 7665 H 710.15 2.87223 1.27869 0
M  V30 7666 N 713.922 1.13953 1.08869 0
M  V30 7667 C 715.171 0.899431 1.80536 0
M  V30 7668 C 715.484 -0.575781 1.86933 0
M  V30 7669 O 716.69 -0.932988 2.54966 0
M  V30 7670 C 715.146 1.55963 3.24351 0
M  V30 7671 C 714.754 3.07077 3.26202 0
M  V30 7672 C 716.498 1.40046 4.00733 0
M  V30 7673 C 714.405 3.65955 4.64576 0
M  V30 7674 H 713.335 0.332849 0.676556 0
M  V30 7675 H 715.986 1.3679 1.22314 0
M  V30 7676 H 714.368 1.01883 3.82669 0
M  V30 7677 H 715.542 3.67785 2.77617 0
M  V30 7678 H 713.857 3.22576 2.63312 0
M  V30 7679 H 716.454 1.81441 5.02974 0
M  V30 7680 H 716.797 0.345993 4.1486 0
M  V30 7681 H 717.33 1.91137 3.48872 0
M  V30 7682 H 714.069 4.71234 4.55652 0
M  V30 7683 H 713.589 3.10027 5.13462 0
M  V30 7684 H 715.268 3.65968 5.33551 0
M  V30 7685 N 715.4 -1.26948 0.933913 0
M  V30 7686 C 716.649 -1.93378 0.573409 0
M  V30 7687 C 716.962 -1.74148 -0.890614 0
M  V30 7688 O 718.168 -2.34971 -1.36017 0
M  V30 7689 C 716.624 -3.46449 0.974747 0
M  V30 7690 C 716.232 -3.74425 2.45988 0
M  V30 7691 C 717.976 -4.18924 0.685791 0
M  V30 7692 C 715.883 -5.209 2.8003 0
M  V30 7693 H 714.813 -0.723952 0.210736 0
M  V30 7694 H 717.464 -1.44143 1.13557 0
M  V30 7695 H 715.846 -3.94528 0.341181 0
M  V30 7696 H 717.02 -3.37079 3.14188 0
M  V30 7697 H 715.335 -3.15167 2.72138 0
M  V30 7698 H 717.932 -5.26786 0.916546 0
M  V30 7699 H 718.275 -4.14587 -0.377217 0
M  V30 7700 H 718.808 -3.76687 1.27874 0
M  V30 7701 H 715.547 -5.30332 3.85264 0
M  V30 7702 H 715.067 -5.59369 2.16485 0
M  V30 7703 H 716.746 -5.88837 2.68105 0
M  V30 7704 N 716.879 -0.700114 -1.41195 0
M  V30 7705 C 718.125 -0.233351 -2.01453 0
M  V30 7706 C 718.458 1.16548 -1.55339 0
M  V30 7707 O 717.733 1.78756 -0.766575 0
M  V30 7708 C 718.016 -0.2961 -3.58881 0
M  V30 7709 C 717.869 -1.7322 -4.15108 0
M  V30 7710 C 719.188 0.341525 -4.38773 0
M  V30 7711 H 716.307 -0.0862667 -0.731934 0
M  V30 7712 H 718.949 -0.889693 -1.67882 0
M  V30 7713 H 717.099 0.262736 -3.87611 0
M  V30 7714 H 718.771 -2.34523 -3.97236 0
M  V30 7715 H 717.014 -2.2649 -3.69979 0
M  V30 7716 H 717.685 -1.7276 -5.24269 0
M  V30 7717 H 720.161 -0.134461 -4.15883 0
M  V30 7718 H 719.037 0.267098 -5.4825 0
M  V30 7719 H 719.298 1.42289 -4.18577 0
M  V30 7720 N 718.357 1.51182 -0.445186 0
M  V30 7721 C 719.585 2.06568 0.117091 0
M  V30 7722 C 720 1.31182 1.35781 0
M  V30 7723 O 719.357 0.373605 1.78635 0
M  V30 7724 C 719.408 3.58917 0.431408 0
M  V30 7725 O 719.129 4.31456 -0.760078 0
M  V30 7726 C 720.63 4.30843 1.0435 0
M  V30 7727 H 717.85 0.670985 0.00444436 0
M  V30 7728 H 720.394 1.94666 -0.626525 0
M  V30 7729 H 718.549 3.70708 1.12493 0
M  V30 7730 H 718.963 5.22215 -0.489048 0
M  V30 7731 H 720.437 5.38499 1.21337 0
M  V30 7732 H 720.914 3.89644 2.02667 0
M  V30 7733 H 721.52 4.23516 0.38913 0
M  V30 7734 N 719.835 0.176821 1.56605 0
M  V30 7735 C 721.246 -0.338963 1.83597 0
M  V30 7736 C 721.597 -1.62677 1.09684 0
M  V30 7737 O 720.722 -2.13524 0.351661 0
M  V30 7738 C 721.317 -0.62177 3.33046 0
M  V30 7739 C 719.876 -1.08198 3.60514 0
M  V30 7740 C 719.023 -0.120774 2.77037 0
M  V30 7741 H 721.974 0.400978 1.53551 0
M  V30 7742 H 721.995 -1.47321 3.50823 0
M  V30 7743 H 721.507 0.315692 3.86814 0
M  V30 7744 H 719.608 -2.03435 3.12162 0
M  V30 7745 H 719.721 -0.987329 4.68816 0
M  V30 7746 H 718.085 -0.619192 2.47059 0
M  V30 7747 H 718.868 0.810806 3.33588 0
M  V30 7748 N 721.313 -1.57302 -0.09688 0
M  V30 7749 C 722.26 -2.01933 -1.11766 0
M  V30 7750 C 723.23 -0.895329 -1.39904 0
M  V30 7751 O 724.415 -1.16119 -1.51397 0
M  V30 7752 C 721.555 -2.44726 -2.43317 0
M  V30 7753 C 720.668 -3.70639 -2.21925 0
M  V30 7754 C 719.803 -4.02318 -3.46862 0
M  V30 7755 C 718.842 -5.21346 -3.20725 0
M  V30 7756 N 717.979 -5.48787 -4.37924 0
M  V30 7757 H 722.819 -2.88919 -0.730075 0
M  V30 7758 H 720.356 -1.42901 -0.348962 0
M  V30 7759 H 722.314 -2.6758 -3.20088 0
M  V30 7760 H 720.944 -1.60753 -2.79926 0
M  V30 7761 H 719.996 -3.55271 -1.35965 0
M  V30 7762 H 721.308 -4.57557 -1.98603 0
M  V30 7763 H 720.462 -4.25939 -4.32042 0
M  V30 7764 H 719.201 -3.13918 -3.73238 0
M  V30 7765 H 718.206 -4.97547 -2.33938 0
M  V30 7766 H 719.431 -6.11343 -2.95697 0
M  V30 7767 H 717.377 -4.63346 -4.64378 0
M  V30 7768 H 717.294 -6.30073 -4.17785 0
M  V30 7769 H 718.562 -5.76943 -5.24173 0
M  V30 7770 N 722.791 0.367657 -1.53252 0
M  V30 7771 C 724.016 1.13566 -1.73544 0
M  V30 7772 C 724.441 1.82329 -0.462344 0
M  V30 7773 O 723.799 1.71655 0.583472 0
M  V30 7774 C 723.847 2.14322 -2.89997 0
M  V30 7775 O 722.951 3.21359 -2.58461 0
M  V30 7776 H 722.292 0.329614 -0.576412 0
M  V30 7777 H 724.822 0.425417 -2.00128 0
M  V30 7778 H 724.832 2.57958 -3.16104 0
M  V30 7779 H 723.507 1.63664 -3.82344 0
M  V30 7780 H 722.084 2.8271 -2.43165 0
M  V30 7781 N 724.269 1.44576 0.627338 0
M  V30 7782 C 725.68 1.42266 1.20902 0
M  V30 7783 C 726.031 0.139964 1.957 0
M  V30 7784 O 725.156 -0.759489 2.02634 0
M  V30 7785 C 725.751 2.57727 2.19914 0
M  V30 7786 C 724.31 2.58599 2.73502 0
M  V30 7787 C 723.457 2.34145 1.48564 0
M  V30 7788 H 726.408 1.53102 0.417791 0
M  V30 7789 H 726.429 2.30697 3.02588 0
M  V30 7790 H 725.941 3.51068 1.65447 0
M  V30 7791 H 724.042 1.6921 3.31962 0
M  V30 7792 H 724.155 3.57205 3.19282 0
M  V30 7793 H 722.519 1.83313 1.76829 0
M  V30 7794 H 723.302 3.29606 0.959935 0
M  V30 7795 N 725.747 -0.868086 1.31537 0
M  V30 7796 C 726.977 -1.65162 1.24118 0
M  V30 7797 C 727.385 -1.88187 -0.195558 0
M  V30 7798 O 726.728 -1.44154 -1.13866 0
M  V30 7799 C 726.79 -3.04119 1.91708 0
M  V30 7800 C 726.454 -3.04194 3.4105 0
M  V30 7801 C 727.451 -2.82016 4.36764 0
M  V30 7802 C 725.136 -3.25256 3.82772 0
M  V30 7803 C 727.13 -2.80881 5.72175 0
M  V30 7804 C 724.817 -3.23749 5.18295 0
M  V30 7805 C 725.815 -3.01589 6.12808 0
M  V30 7806 O 725.503 -2.9993 7.45853 0
M  V30 7807 H 725.235 -0.521597 0.430015 0
M  V30 7808 H 727.789 -1.09165 1.73989 0
M  V30 7809 H 726.019 -3.61849 1.36389 0
M  V30 7810 H 727.708 -3.64701 1.78179 0
M  V30 7811 H 728.474 -2.65525 4.05859 0
M  V30 7812 H 724.353 -3.41534 3.09638 0
M  V30 7813 H 727.897 -2.63503 6.45919 0
M  V30 7814 H 723.794 -3.39781 5.48834 0
M  V30 7815 H 724.562 -3.15979 7.55049 0
M  V30 7816 N 727.225 -1.14528 -1.08264 0
M  V30 7817 C 728.474 -0.908992 -1.80056 0
M  V30 7818 C 728.787 0.565859 -1.87236 0
M  V30 7819 O 729.993 0.919454 -2.55457 0
M  V30 7820 C 728.449 -1.57681 -3.23519 0
M  V30 7821 C 728.057 -3.08803 -3.24569 0
M  V30 7822 C 729.801 -1.4217 -3.99985 0
M  V30 7823 C 727.708 -3.68414 -4.62629 0
M  V30 7824 H 726.638 -0.336432 -0.674781 0
M  V30 7825 H 729.289 -1.37437 -1.21587 0
M  V30 7826 H 727.671 -1.03911 -3.82124 0
M  V30 7827 H 728.845 -3.69252 -2.75663 0
M  V30 7828 H 727.16 -3.23968 -2.61598 0
M  V30 7829 H 729.757 -1.84106 -5.02005 0
M  V30 7830 H 730.1 -0.367989 -4.1467 0
M  V30 7831 H 730.633 -1.92984 -3.47853 0
M  V30 7832 H 727.372 -4.73644 -4.53147 0
M  V30 7833 H 726.892 -3.12746 -5.11811 0
M  V30 7834 H 728.571 -3.68793 -5.31602 0
M  V30 7835 N 728.703 1.26451 -0.940633 0
M  V30 7836 C 729.98 1.88947 -0.505811 0
M  V30 7837 C 730.36 1.85011 1.01657 0
M  V30 7838 O 729.708 1.30406 1.87634 0
M  V30 7839 C 729.918 3.32304 -1.06654 0
M  V30 7840 C 731.266 4.09153 -1.13486 0
M  V30 7841 O 732.29 3.41371 -1.01708 0
M  V30 7842 O 731.149 5.30369 -1.31797 0
M  V30 7843 H 728.243 0.810422 -0.164759 0
M  V30 7844 H 730.789 1.34625 -1.03316 0
M  V30 7845 H 729.561 3.29527 -2.11015 0
M  V30 7846 H 729.184 3.94164 -0.521603 0
M  V30 7847 N 730.181 0.707592 1.40822 0
M  V30 7848 C 731.128 0.0499029 2.30746 0
M  V30 7849 C 732.098 -0.758718 1.47759 0
M  V30 7850 O 733.283 -0.724299 1.76518 0
M  V30 7851 C 730.423 -0.871756 3.33908 0
M  V30 7852 C 729.536 -0.0534655 4.31967 0
M  V30 7853 C 728.671 -0.973869 5.22197 0
M  V30 7854 C 727.71 -0.149194 6.11918 0
M  V30 7855 N 726.847 -1.02404 6.94592 0
M  V30 7856 H 731.687 0.822461 2.86426 0
M  V30 7857 H 729.224 0.417285 1.41057 0
M  V30 7858 H 731.182 -1.42028 3.9228 0
M  V30 7859 H 729.812 -1.61058 2.7975 0
M  V30 7860 H 728.864 0.612142 3.75442 0
M  V30 7861 H 730.176 0.585354 4.95353 0
M  V30 7862 H 729.33 -1.59121 5.85462 0
M  V30 7863 H 728.069 -1.64652 4.59065 0
M  V30 7864 H 727.074 0.481137 5.47691 0
M  V30 7865 H 728.299 0.519841 6.77107 0
M  V30 7866 H 726.245 -1.6825 6.34057 0
M  V30 7867 H 726.162 -0.441076 7.54712 0
M  V30 7868 H 727.43 -1.62782 7.62314 0
M  V30 7869 N 731.66 -1.50943 0.453197 0
M  V30 7870 C 732.909 -2.01402 -0.10951 0
M  V30 7871 C 733.222 -1.3411 -1.42386 0
M  V30 7872 O 734.428 -1.75626 -2.07045 0
M  V30 7873 C 732.884 -3.5906 -0.245693 0
M  V30 7874 C 732.492 -4.353 1.05916 0
M  V30 7875 C 734.236 -4.17617 -0.761318 0
M  V30 7876 C 732.143 -5.84699 0.887752 0
M  V30 7877 H 731.073 -0.752674 -0.0447013 0
M  V30 7878 H 733.724 -1.73913 0.585375 0
M  V30 7879 H 732.106 -3.83062 -1.00395 0
M  V30 7880 H 733.28 -4.23034 1.82698 0
M  V30 7881 H 731.595 -3.88269 1.50452 0
M  V30 7882 H 734.192 -5.26963 -0.906306 0
M  V30 7883 H 734.535 -3.77824 -1.74799 0
M  V30 7884 H 735.068 -3.97753 -0.0609416 0
M  V30 7885 H 731.807 -6.28933 1.84726 0
M  V30 7886 H 731.327 -5.99587 0.160006 0
M  V30 7887 H 733.006 -6.44682 0.547223 0
M  V30 7888 N 733.138 -0.185124 -1.56509 0
M  V30 7889 C 734.366 0.462139 -2.01673 0
M  V30 7890 C 734.781 1.55873 -1.06532 0
M  V30 7891 O 734.138 1.82371 -0.0684805 0
M  V30 7892 C 734.189 1.0277 -3.46584 0
M  V30 7893 O 733.91 -0.0251296 -4.38093 0
M  V30 7894 C 735.411 1.75183 -4.07217 0
M  V30 7895 H 732.631 0.117001 -0.660721 0
M  V30 7896 H 735.175 -0.290905 -2.0242 0
M  V30 7897 H 733.33 1.73118 -3.46568 0
M  V30 7898 H 733.744 0.394387 -5.23015 0
M  V30 7899 H 735.218 2.09999 -5.10494 0
M  V30 7900 H 735.695 2.6519 -3.50101 0
M  V30 7901 H 736.301 1.09445 -4.10977 0
M  V30 7902 N 734.616 1.57351 0.0885366 0
M  V30 7903 C 735.566 1.98963 1.11346 0
M  V30 7904 C 736.55 0.869065 1.35411 0
M  V30 7905 O 737.742 1.13292 1.35992 0
M  V30 7906 C 734.871 2.4231 2.43189 0
M  V30 7907 C 733.957 3.61065 2.22469 0
M  V30 7908 N 734.348 4.75789 1.71635 0
M  V30 7909 C 732.646 3.6729 2.5301 0
M  V30 7910 C 733.347 5.57708 1.65339 0
M  V30 7911 N 732.323 5.01067 2.1079 0
M  V30 7912 H 736.125 2.85109 0.713465 0
M  V30 7913 H 733.639 1.59682 0.295868 0
M  V30 7914 H 735.636 2.70352 3.17357 0
M  V30 7915 H 734.296 1.57544 2.83919 0
M  V30 7916 H 735.307 4.98411 1.40738 0
M  V30 7917 H 731.984 2.932 2.9722 0
M  V30 7918 H 733.374 6.59782 1.27031 0
M  V30 7919 N 736.094 -0.359525 1.53444 0
M  V30 7920 C 737.324 -1.12036 1.73585 0
M  V30 7921 C 737.732 -1.83335 0.467438 0
M  V30 7922 O 737.075 -1.74641 -0.569753 0
M  V30 7923 C 737.137 -2.19036 2.85068 0
M  V30 7924 C 736.801 -1.67451 4.25217 0
M  V30 7925 C 737.798 -1.13534 5.07352 0
M  V30 7926 C 735.483 -1.72781 4.71648 0
M  V30 7927 C 737.477 -0.656321 6.34012 0
M  V30 7928 C 735.164 -1.2449 5.98285 0
M  V30 7929 C 736.162 -0.710068 6.79299 0
M  V30 7930 O 735.85 -0.234314 8.03558 0
M  V30 7931 H 735.582 -0.340662 0.583888 0
M  V30 7932 H 738.136 -0.422452 2.01009 0
M  V30 7933 H 736.366 -2.92338 2.53131 0
M  V30 7934 H 738.055 -2.80559 2.93328 0
M  V30 7935 H 738.821 -1.08751 4.7265 0
M  V30 7936 H 734.7 -2.13351 4.08659 0
M  V30 7937 H 738.244 -0.238193 6.97193 0
M  V30 7938 H 734.141 -1.28969 6.32485 0
M  V30 7939 H 734.909 -0.353084 8.17738 0
M  V30 7940 N 737.572 -1.44907 -0.619662 0
M  V30 7941 C 738.52 -1.52971 -1.75222 0
M  V30 7942 C 739.514 -0.400531 -1.64597 0
M  V30 7943 O 740.72 -0.575952 -1.70537 0
M  V30 7944 H 737.095 -0.480241 -0.578682 0
M  V30 7945 H 739.066 -2.48269 -1.65545 0
M  V30 7946 C 737.815 -1.50204 -3.13583 0
M  V30 7947 H 737.138 -2.36412 -3.22412 0
M  V30 7948 H 738.578 -1.59905 -3.92691 0
M  V30 7949 C 737.037 -0.22455 -3.36151 0
M  V30 7950 O 737.567 0.700574 -3.95544 0
M  V30 7951 N 735.773 -0.124052 -2.90335 0
M  V30 7952 H 735.32 -0.87774 -2.42185 0
M  V30 7953 H 735.278 0.729914 -3.0581 0
M  V30 7954 N 739.05 0.861098 -1.31996 0
M  V30 7955 C 740.28 1.64501 -1.24992 0
M  V30 7956 C 740.688 1.88288 0.185576 0
M  V30 7957 O 740.031 1.44756 1.131 0
M  V30 7958 C 740.093 3.03098 -1.93319 0
M  V30 7959 C 739.757 3.02381 -3.42658 0
M  V30 7960 C 740.754 2.79696 -4.38254 0
M  V30 7961 C 738.439 3.23221 -3.84491 0
M  V30 7962 C 740.433 2.77843 -5.73657 0
M  V30 7963 C 738.12 3.20996 -5.20005 0
M  V30 7964 C 739.118 2.98335 -6.14398 0
M  V30 7965 O 738.806 2.95971 -7.47433 0
M  V30 7966 H 738.538 0.519309 -0.432775 0
M  V30 7967 H 741.092 1.08241 -1.74565 0
M  V30 7968 H 739.322 3.61121 -1.38306 0
M  V30 7969 H 741.011 3.63751 -1.8011 0
M  V30 7970 H 741.777 2.63368 -4.07262 0
M  V30 7971 H 737.656 3.39887 -3.11445 0
M  V30 7972 H 741.2 2.60074 -6.47308 0
M  V30 7973 H 737.097 3.36865 -5.50629 0
M  V30 7974 H 737.865 3.1197 -7.56714 0
M  V30 7975 N 740.528 1.15101 1.07655 0
M  V30 7976 C 741.458 0.867864 2.16773 0
M  V30 7977 C 742.439 -0.180283 1.69142 0
M  V30 7978 O 743.624 -0.0353152 1.94168 0
M  V30 7979 C 740.754 0.35299 3.45501 0
M  V30 7980 C 739.708 1.33746 4.06566 0
M  V30 7981 C 739.034 0.681562 5.30338 0
M  V30 7982 C 740.334 2.7024 4.46954 0
M  V30 7983 H 742.028 1.78034 2.40716 0
M  V30 7984 H 739.574 0.857435 1.15689 0
M  V30 7985 H 741.527 0.142465 4.21159 0
M  V30 7986 H 740.251 -0.594945 3.21135 0
M  V30 7987 H 738.91 1.53429 3.32949 0
M  V30 7988 H 738.558 -0.272422 5.02262 0
M  V30 7989 H 738.258 1.33853 5.72151 0
M  V30 7990 H 739.782 0.48074 6.08705 0
M  V30 7991 H 741.196 2.5442 5.13754 0
M  V30 7992 H 739.593 3.32282 4.99709 0
M  V30 7993 H 740.663 3.26537 3.58471 0
M  V30 7994 N 742.006 -1.2595 0.947325 0
M  V30 7995 C 743.255 -1.92759 0.593887 0
M  V30 7996 C 743.568 -1.75083 -0.872093 0
M  V30 7997 O 744.774 -2.36401 -1.33518 0
M  V30 7998 C 743.23 -3.45395 1.01144 0
M  V30 7999 C 742.838 -3.71795 2.49946 0
M  V30 8000 C 744.582 -4.18173 0.730185 0
M  V30 8001 C 742.489 -5.17901 2.85539 0
M  V30 8002 H 741.419 -0.721676 0.218403 0
M  V30 8003 H 744.07 -1.4293 1.15079 0
M  V30 8004 H 742.452 -3.94143 0.383007 0
M  V30 8005 H 743.626 -3.33728 3.17746 0
M  V30 8006 H 741.941 -3.12263 2.75465 0
M  V30 8007 H 744.538 -5.25784 0.972367 0
M  V30 8008 H 744.881 -4.14964 -0.333223 0
M  V30 8009 H 745.414 -3.75309 1.31862 0
M  V30 8010 H 742.153 -5.26216 3.90867 0
M  V30 8011 H 741.673 -5.57042 2.22406 0
M  V30 8012 H 743.352 -5.8596 2.74336 0
M  V30 8013 N 743.484 -0.715051 -1.40445 0
M  V30 8014 C 744.414 -0.0768699 -2.33373 0
M  V30 8015 C 745.395 0.746109 -1.52863 0
M  V30 8016 O 746.58 0.695142 -1.81332 0
M  V30 8017 C 743.71 0.846014 -3.36838 0
M  V30 8018 C 742.664 0.128694 -4.27806 0
M  V30 8019 C 741.99 1.16726 -5.21804 0
M  V30 8020 C 743.29 -1.01679 -5.12307 0
M  V30 8021 H 744.984 -0.853061 -2.8699 0
M  V30 8022 H 742.53 -0.41167 -1.3799 0
M  V30 8023 H 744.483 1.30185 -4.00786 0
M  V30 8024 H 743.207 1.6541 -2.81615 0
M  V30 8025 H 741.866 -0.307314 -3.6531 0
M  V30 8026 H 741.514 1.96838 -4.62887 0
M  V30 8027 H 741.214 0.692188 -5.83509 0
M  V30 8028 H 742.738 1.62321 -5.88629 0
M  V30 8029 H 744.152 -0.640337 -5.69713 0
M  V30 8030 H 742.549 -1.4202 -5.83053 0
M  V30 8031 H 743.619 -1.84769 -4.48317 0
M  V30 8032 N 744.962 1.50701 -0.461195 0
M  V30 8033 C 746.187 2.07171 0.0974773 0
M  V30 8034 C 746.612 1.32391 1.3362 0
M  V30 8035 O 745.97 0.368676 1.77512 0
M  V30 8036 C 746.018 3.58651 0.374409 0
M  V30 8037 O 745.122 3.85816 1.4567 0
M  V30 8038 H 744.463 0.663944 -0.00862047 0
M  V30 8039 H 746.993 1.94021 -0.649394 0
M  V30 8040 H 747.003 4.03295 0.617843 0
M  V30 8041 H 745.678 4.12498 -0.530829 0
M  V30 8042 H 744.255 3.53018 1.20136 0
M  V30 8043 N 746.441 0.193421 1.56409 0
M  V30 8044 C 747.388 -0.728124 2.19014 0
M  V30 8045 C 748.358 -1.21098 1.13686 0
M  V30 8046 O 749.543 -1.27517 1.4193 0
M  V30 8047 C 746.683 -1.94277 2.8522 0
M  V30 8048 C 745.796 -1.50143 4.05069 0
M  V30 8049 C 744.931 -2.67145 4.59137 0
M  V30 8050 C 743.97 -2.19609 5.71348 0
M  V30 8051 N 743.107 -3.29782 6.19829 0
M  V30 8052 H 747.947 -0.187499 2.9741 0
M  V30 8053 H 745.484 -0.0808064 1.46878 0
M  V30 8054 H 747.442 -2.65551 3.21774 0
M  V30 8055 H 746.072 -2.45673 2.09391 0
M  V30 8056 H 745.124 -0.684624 3.74189 0
M  V30 8057 H 746.436 -1.11266 4.86232 0
M  V30 8058 H 745.59 -3.46544 4.97988 0
M  V30 8059 H 744.329 -3.09295 3.77078 0
M  V30 8060 H 743.334 -1.38664 5.32027 0
M  V30 8061 H 744.559 -1.78492 6.55223 0
M  V30 8062 H 742.505 -3.71466 5.40693 0
M  V30 8063 H 742.422 -2.95069 6.96039 0
M  V30 8064 H 743.69 -4.094 6.63334 0
M  V30 8065 N 747.919 -1.57396 -0.0801906 0
M  V30 8066 C 749.167 -1.86467 -0.779384 0
M  V30 8067 C 749.488 -0.784243 -1.78535 0
M  V30 8068 O 748.758 0.187986 -1.94996 0
M  V30 8069 H 747.338 -0.68806 -0.29083 0
M  V30 8070 H 750 -1.94813 -0.0582749 0
M  V30 8071 H 749.096 -2.83701 -1.30078 0
M  V30 8072 N 749.397 0.351382 -1.53633 0
M  V30 8073 C 750.344 1.43115 -1.81071 0
M  V30 8074 C 751.314 1.52601 -0.655913 0
M  V30 8075 O 752.499 1.68264 -0.89955 0
M  V30 8076 C 749.639 2.79874 -2.01903 0
M  V30 8077 C 748.752 2.79242 -3.29618 0
M  V30 8078 C 747.887 4.07667 -3.40559 0
M  V30 8079 C 746.926 4.01233 -4.62254 0
M  V30 8080 N 746.063 5.21334 -4.70271 0
M  V30 8081 H 750.903 1.19017 -2.73201 0
M  V30 8082 H 748.44 0.576691 -1.35324 0
M  V30 8083 H 750.398 3.5934 -2.11969 0
M  V30 8084 H 749.028 3.0234 -1.13094 0
M  V30 8085 H 748.08 1.91927 -3.28433 0
M  V30 8086 H 749.392 2.70363 -4.19172 0
M  V30 8087 H 748.546 4.95555 -3.50015 0
M  V30 8088 H 747.285 4.19317 -2.49047 0
M  V30 8089 H 746.29 3.11732 -4.52884 0
M  V30 8090 H 747.515 3.91173 -5.55122 0
M  V30 8091 H 745.461 5.33543 -3.81665 0
M  V30 8092 H 745.378 5.14681 -5.5375 0
M  V30 8093 H 746.646 6.11014 -4.84027 0
M  V30 8094 N 750.875 1.45233 0.611969 0
M  V30 8095 C 752.124 1.48296 1.36716 0
M  V30 8096 C 752.437 0.12706 1.95187 0
M  V30 8097 O 753.643 0.0353066 2.71477 0
M  V30 8098 C 752.099 2.61168 2.47627 0
M  V30 8099 C 751.707 4.03051 1.95587 0
M  V30 8100 C 753.451 2.73472 3.24674 0
M  V30 8101 C 751.358 5.07312 3.03954 0
M  V30 8102 H 750.288 0.5518 0.513841 0
M  V30 8103 H 752.939 1.7136 0.656359 0
M  V30 8104 H 751.321 2.31379 3.21372 0
M  V30 8105 H 752.495 4.42497 1.2858 0
M  V30 8106 H 750.81 3.95158 1.31298 0
M  V30 8107 H 753.407 3.48537 4.05494 0
M  V30 8108 H 753.75 1.79953 3.75397 0
M  V30 8109 H 754.283 3.02765 2.58028 0
M  V30 8110 H 751.022 6.02525 2.58154 0
M  V30 8111 H 750.542 4.7244 3.69541 0
M  V30 8112 H 752.221 5.31867 3.6841 0
M  V30 8113 N 752.353 -0.854086 1.3245 0
M  V30 8114 C 753.602 -1.60318 1.22397 0
M  V30 8115 C 753.915 -1.9444 -0.212664 0
M  V30 8116 O 755.121 -2.67991 -0.435066 0
M  V30 8117 C 753.577 -2.8909 2.1437 0
M  V30 8118 C 753.185 -2.62391 3.63119 0
M  V30 8119 C 754.929 -3.67104 2.13155 0
M  V30 8120 C 752.836 -3.87167 4.47052 0
M  V30 8121 H 751.766 -0.601586 0.454544 0
M  V30 8122 H 754.417 -0.943023 1.57415 0
M  V30 8123 H 752.799 -3.56567 1.72268 0
M  V30 8124 H 753.973 -2.03222 4.13567 0
M  V30 8125 H 752.288 -1.97706 3.66471 0
M  V30 8126 H 754.885 -4.59696 2.731 0
M  V30 8127 H 755.228 -4.00876 1.12268 0
M  V30 8128 H 755.761 -3.06533 2.5354 0
M  V30 8129 H 752.5 -3.58536 5.48755 0
M  V30 8130 H 752.02 -4.45729 4.01355 0
M  V30 8131 H 753.699 -4.549 4.60081 0
M  V30 8132 N 753.831 -1.1567 -1.07043 0
M  V30 8133 C 754.781 -0.824733 -2.12561 0
M  V30 8134 C 755.765 0.19243 -1.59745 0
M  V30 8135 O 756.957 -0.00728759 -1.76998 0
M  V30 8136 C 754.086 -0.31921 -3.41813 0
M  V30 8137 C 753.172 -1.36671 -4.01475 0
M  V30 8138 N 753.563 -2.57493 -4.35351 0
M  V30 8139 C 751.861 -1.22018 -4.28984 0
M  V30 8140 C 752.562 -3.24658 -4.82672 0
M  V30 8141 N 751.538 -2.52043 -4.81638 0
M  V30 8142 H 755.34 -1.74363 -2.3659 0
M  V30 8143 H 752.854 -1.04262 -1.24511 0
M  V30 8144 H 754.851 -0.0630216 -4.16852 0
M  V30 8145 H 753.511 0.593708 -3.19226 0
M  V30 8146 H 754.522 -2.94612 -4.25939 0
M  V30 8147 H 751.199 -0.367414 -4.1588 0
M  V30 8148 H 752.589 -4.2775 -5.1815 0
M  V30 8149 N 755.309 1.25446 -0.953992 0
M  V30 8150 C 756.556 1.93143 -0.608429 0
M  V30 8151 C 756.884 1.74727 0.854451 0
M  V30 8152 O 756.139 1.0855 1.62836 0
M  V30 8153 C 756.438 3.45555 -0.912496 0
M  V30 8154 C 756.104 3.84126 -2.36131 0
M  V30 8155 C 754.766 3.94367 -2.75732 0
M  V30 8156 C 757.118 4.0324 -3.30223 0
M  V30 8157 C 754.446 4.21127 -4.08496 0
M  V30 8158 C 756.798 4.31493 -4.62598 0
M  V30 8159 C 755.462 4.3995 -5.01996 0
M  V30 8160 H 754.732 0.706762 -0.22264 0
M  V30 8161 H 757.379 1.49005 -1.20291 0
M  V30 8162 H 755.684 3.91091 -0.235618 0
M  V30 8163 H 757.381 3.9612 -0.623714 0
M  V30 8164 H 753.971 3.76711 -2.04418 0
M  V30 8165 H 758.155 3.94744 -3.00817 0
M  V30 8166 H 753.411 4.2589 -4.38665 0
M  V30 8167 H 757.585 4.45227 -5.35486 0
M  V30 8168 H 755.212 4.60439 -6.04896 0
M  V30 8169 N 756.787 0.722489 1.40064 0
M  V30 8170 C 758.035 0.264455 2.00362 0
M  V30 8171 C 758.356 -1.14847 1.57592 0
M  V30 8172 O 757.626 -1.77982 0.818477 0
M  V30 8173 H 756.206 0.0947846 0.740962 0
M  V30 8174 H 758.868 0.929659 1.71299 0
M  V30 8175 H 757.964 0.302977 3.10626 0
M  V30 8176 N 758.265 -1.50454 0.469181 0
M  V30 8177 C 759.493 -2.06729 -0.0842134 0
M  V30 8178 C 759.908 -1.33326 -1.33677 0
M  V30 8179 O 759.265 -0.401977 -1.78018 0
M  V30 8180 C 759.316 -3.59557 -0.374253 0
M  V30 8181 O 759.037 -4.30192 0.828622 0
M  V30 8182 C 760.538 -4.32449 -0.974824 0
M  V30 8183 H 757.758 -0.670971 0.006231 0
M  V30 8184 H 760.302 -1.93645 0.657415 0
M  V30 8185 H 758.457 -3.7245 -1.06581 0
M  V30 8186 H 758.871 -5.21371 0.572066 0
M  V30 8187 H 760.345 -5.40361 -1.12755 0
M  V30 8188 H 760.822 -3.92819 -1.96442 0
M  V30 8189 H 761.428 -4.24082 -0.321703 0
M  V30 8190 N 759.743 -0.201713 -1.56304 0
M  V30 8191 C 761.159 0.154025 -1.58855 0
M  V30 8192 C 761.359 1.60516 -1.21807 0
M  V30 8193 O 760.415 2.34193 -0.94393 0
M  V30 8194 C 761.728 -0.154319 -3.00304 0
M  V30 8195 C 763.276 -0.0949578 -3.12856 0
M  V30 8196 C 763.751 -0.376703 -4.56448 0
M  V30 8197 N 765.242 -0.325558 -4.62054 0
M  V30 8198 C 765.977 -0.51732 -5.71062 0
M  V30 8199 N 765.473 -0.769789 -6.8851 0
M  V30 8200 N 767.266 -0.45112 -5.60287 0
M  V30 8201 H 759.417 -1.14858 -1.78666 0
M  V30 8202 H 761.68 -0.458934 -0.829508 0
M  V30 8203 H 761.386 -1.16074 -3.31994 0
M  V30 8204 H 761.26 0.540014 -3.73314 0
M  V30 8205 H 763.647 0.902075 -2.80974 0
M  V30 8206 H 763.728 -0.822468 -2.42217 0
M  V30 8207 H 763.372 -1.37108 -4.89044 0
M  V30 8208 H 763.302 0.371772 -5.25286 0
M  V30 8209 H 765.793 -0.137308 -3.7765 0
M  V30 8210 H 766.106 -0.904744 -7.67486 0
M  V30 8211 H 764.451 -0.806758 -6.90302 0
M  V30 8212 H 767.642 -0.254253 -4.67409 0
M  V30 8213 H 767.815 -0.603982 -6.45179 0
M  V30 8214 N 761.222 1.57436 0.0718424 0
M  V30 8215 C 762.132 2.07039 1.10326 0
M  V30 8216 C 763.148 0.999918 1.424 0
M  V30 8217 O 764.324 1.31462 1.52577 0
M  V30 8218 C 761.389 2.50439 2.39752 0
M  V30 8219 C 760.45 3.71784 2.14651 0
M  V30 8220 C 759.683 4.13104 3.37906 0
M  V30 8221 O 759.906 3.54298 4.47023 0
M  V30 8222 O 758.84 5.05894 3.26121 0
M  V30 8223 H 762.666 2.95239 0.711872 0
M  V30 8224 H 760.251 1.46638 0.28597 0
M  V30 8225 H 762.133 2.78876 3.15921 0
M  V30 8226 H 760.808 1.65368 2.78271 0
M  V30 8227 H 759.715 3.48431 1.36187 0
M  V30 8228 H 761.048 4.57707 1.81012 0
M  V30 8229 N 762.7 -0.34323 1.53817 0
M  V30 8230 C 763.647 -1.42153 1.81827 0
M  V30 8231 C 764.617 -1.52251 0.663996 0
M  V30 8232 O 765.802 -1.67784 0.908461 0
M  V30 8233 C 762.942 -2.78799 2.03384 0
M  V30 8234 C 762.055 -2.7749 3.31094 0
M  V30 8235 C 761.19 -4.05856 3.42717 0
M  V30 8236 C 760.229 -3.98776 4.64375 0
M  V30 8237 N 759.366 -5.18833 4.73029 0
M  V30 8238 H 764.206 -1.17567 2.73829 0
M  V30 8239 H 761.743 -0.569506 1.35628 0
M  V30 8240 H 763.701 -3.58211 2.13872 0
M  V30 8241 H 762.331 -3.01736 1.14696 0
M  V30 8242 H 761.383 -1.90182 3.29446 0
M  V30 8243 H 762.695 -2.68137 4.206 0
M  V30 8244 H 761.849 -4.93691 3.52638 0
M  V30 8245 H 760.588 -4.1799 2.51267 0
M  V30 8246 H 759.593 -3.09325 4.5453 0
M  V30 8247 H 760.818 -3.88224 5.57189 0
M  V30 8248 H 758.764 -5.31511 3.84489 0
M  V30 8249 H 758.681 -5.11737 5.56472 0
M  V30 8250 H 759.949 -6.08439 4.87261 0
M  V30 8251 N 764.178 -1.45556 -0.604258 0
M  V30 8252 C 765.425 -1.49746 -1.36317 0
M  V30 8253 C 765.753 -0.140516 -1.93992 0
M  V30 8254 O 765.008 0.861244 -1.7573 0
M  V30 8255 C 765.307 -2.52697 -2.52743 0
M  V30 8256 C 764.973 -3.97315 -2.13195 0
M  V30 8257 C 763.635 -4.36692 -2.02123 0
M  V30 8258 C 765.987 -4.88249 -1.8238 0
M  V30 8259 C 763.315 -5.64895 -1.58463 0
M  V30 8260 C 765.667 -6.16867 -1.40205 0
M  V30 8261 C 764.331 -6.55172 -1.27694 0
M  V30 8262 H 763.601 -0.54796 -0.49882 0
M  V30 8263 H 766.248 -1.7892 -0.682643 0
M  V30 8264 H 764.553 -2.17105 -3.26148 0
M  V30 8265 H 766.25 -2.53176 -3.10971 0
M  V30 8266 H 762.84 -3.66176 -2.22739 0
M  V30 8267 H 767.024 -4.58561 -1.89829 0
M  V30 8268 H 762.28 -5.93365 -1.47402 0
M  V30 8269 H 766.454 -6.86771 -1.15408 0
M  V30 8270 H 764.081 -7.54411 -0.936375 0
M  V30 8271 N 765.656 0.84705 -1.32902 0
M  V30 8272 C 766.881 1.63925 -1.27056 0
M  V30 8273 C 767.306 1.87443 0.157136 0
M  V30 8274 O 766.664 1.43266 1.11106 0
M  V30 8275 C 766.712 2.97134 -2.04313 0
M  V30 8276 O 765.816 3.88049 -1.39614 0
M  V30 8277 H 765.157 0.499477 -0.437514 0
M  V30 8278 H 767.687 1.05443 -1.75336 0
M  V30 8279 H 767.697 3.46896 -2.14772 0
M  V30 8280 H 766.372 2.79339 -3.08128 0
M  V30 8281 H 764.949 3.46525 -1.3775 0
M  V30 8282 N 767.134 1.16236 1.06428 0
M  V30 8283 C 768.411 0.853294 1.76006 0
M  V30 8284 C 768.791 -0.649162 2.00871 0
M  V30 8285 O 768.139 -1.59653 1.63472 0
M  V30 8286 C 768.349 1.67448 3.06206 0
M  V30 8287 C 769.697 1.8866 3.80385 0
M  V30 8288 O 770.721 1.64303 3.16043 0
M  V30 8289 O 769.58 2.29518 4.95968 0
M  V30 8290 H 766.674 0.314737 0.764767 0
M  V30 8291 H 769.22 1.26865 1.12709 0
M  V30 8292 H 767.992 2.69411 2.83784 0
M  V30 8293 H 767.615 1.25608 3.77238 0
M  V30 8294 N 768.612 -1.24939 0.960631 0
M  V30 8295 C 769.575 -2.239 0.49006 0
M  V30 8296 C 770.575 -1.55497 -0.409535 0
M  V30 8297 O 771.765 -1.72978 -0.205984 0
M  V30 8298 C 768.897 -3.39654 -0.291193 0
M  V30 8299 H 770.09 -2.67044 1.36482 0
M  V30 8300 H 767.643 -1.37429 0.744505 0
M  V30 8301 H 768.378 -3.01939 -1.18336 0
M  V30 8302 H 768.163 -3.90496 0.354276 0
M  V30 8303 H 769.653 -4.13125 -0.609693 0
M  V30 8304 N 770.09 -0.729906 -1.39679 0
M  V30 8305 C 771.315 -0.284345 -2.05442 0
M  V30 8306 C 771.74 1.07056 -1.54663 0
M  V30 8307 O 771.098 1.67732 -0.688157 0
M  V30 8308 C 771.146 -0.290089 -3.59431 0
M  V30 8309 O 770.25 0.723978 -4.05995 0
M  V30 8310 H 769.591 -0.130311 -0.651088 0
M  V30 8311 H 772.121 -0.994403 -1.78809 0
M  V30 8312 H 772.131 -0.132712 -4.07784 0
M  V30 8313 H 770.806 -1.27877 -3.95753 0
M  V30 8314 H 769.383 0.533154 -3.69069 0
M  V30 8315 N 771.568 1.50203 -0.477153 0
M  V30 8316 C 772.798 2.0647 0.0731427 0
M  V30 8317 C 773.206 1.3405 1.33518 0
M  V30 8318 O 772.549 0.405164 1.79176 0
M  V30 8319 C 772.611 3.57025 0.421121 0
M  V30 8320 C 772.275 4.50973 -0.739765 0
M  V30 8321 C 773.272 4.939 -1.62353 0
M  V30 8322 C 770.957 4.93581 -0.93181 0
M  V30 8323 C 772.951 5.78149 -2.6837 0
M  V30 8324 C 770.638 5.77612 -1.99519 0
M  V30 8325 C 771.636 6.19798 -2.86949 0
M  V30 8326 O 771.324 7.02152 -3.91456 0
M  V30 8327 H 771.056 0.675969 -0.00648243 0
M  V30 8328 H 773.61 1.94278 -0.66673 0
M  V30 8329 H 771.84 3.67141 1.21426 0
M  V30 8330 H 773.529 3.95632 0.907213 0
M  V30 8331 H 774.295 4.61646 -1.48687 0
M  V30 8332 H 770.174 4.60262 -0.260739 0
M  V30 8333 H 773.718 6.10997 -3.36643 0
M  V30 8334 H 769.615 6.09279 -2.13189 0
M  V30 8335 H 770.383 7.20414 -3.88518 0
M  V30 8336 N 773.046 0.209999 1.56195 0
M  V30 8337 C 773.978 -0.736967 2.17029 0
M  V30 8338 C 774.991 -1.16599 1.13616 0
M  V30 8339 O 776.18 -1.09914 1.40646 0
M  V30 8340 C 773.28 -2.00852 2.72969 0
M  V30 8341 C 772.453 -1.73691 4.01435 0
M  V30 8342 C 771.512 -2.85439 4.42053 0
M  V30 8343 O 770.538 -2.54405 5.09183 0
M  V30 8344 N 771.74 -4.14135 4.06783 0
M  V30 8345 H 774.505 -0.216656 2.98916 0
M  V30 8346 H 772.066 0.0285672 1.61875 0
M  V30 8347 H 774.058 -2.74778 2.97118 0
M  V30 8348 H 772.628 -2.43963 1.95451 0
M  V30 8349 H 771.848 -0.834676 3.85262 0
M  V30 8350 H 773.136 -1.52961 4.85263 0
M  V30 8351 H 772.534 -4.42196 3.52816 0
M  V30 8352 H 771.091 -4.84642 4.35851 0
M  V30 8353 N 774.524 -1.57472 -0.0634922 0
M  V30 8354 C 775.749 -1.92273 -0.77756 0
M  V30 8355 C 776.174 -0.807141 -1.69902 0
M  V30 8356 O 775.532 0.239523 -1.79711 0
M  V30 8357 C 775.58 -3.26054 -1.54017 0
M  V30 8358 O 774.684 -3.15873 -2.65138 0
M  V30 8359 H 774.025 -0.629389 -0.211579 0
M  V30 8360 H 776.555 -2.04579 -0.0292523 0
M  V30 8361 H 776.565 -3.60127 -1.91763 0
M  V30 8362 H 775.24 -4.06824 -0.864128 0
M  V30 8363 H 773.817 -2.93373 -2.30189 0
M  V30 8364 N 776.003 0.335068 -1.53997 0
M  V30 8365 C 777.252 1.07182 -1.70865 0
M  V30 8366 C 777.565 1.89541 -0.483078 0
M  V30 8367 O 778.771 2.66219 -0.532879 0
M  V30 8368 C 777.227 1.95497 -3.02174 0
M  V30 8369 C 776.835 1.18304 -4.32097 0
M  V30 8370 C 778.579 2.68978 -3.28407 0
M  V30 8371 C 776.486 2.05699 -5.54474 0
M  V30 8372 H 775.416 0.403857 -0.636722 0
M  V30 8373 H 778.067 0.33076 -1.80494 0
M  V30 8374 H 776.449 2.73456 -2.86423 0
M  V30 8375 H 777.623 0.451969 -4.58578 0
M  V30 8376 H 775.938 0.565556 -4.12541 0
M  V30 8377 H 778.535 3.34651 -4.17029 0
M  V30 8378 H 778.878 3.36 -2.45784 0
M  V30 8379 H 779.411 1.98087 -3.44973 0
M  V30 8380 H 776.15 1.43204 -6.39666 0
M  V30 8381 H 775.67 2.76572 -5.32229 0
M  V30 8382 H 777.349 2.64554 -5.90441 0
M  V30 8383 N 777.481 1.45874 0.596531 0
M  V30 8384 C 778.429 1.55739 1.72766 0
M  V30 8385 C 779.423 0.426666 1.63939 0
M  V30 8386 O 780.629 0.60301 1.69599 0
M  V30 8387 H 777.004 0.489386 0.570968 0
M  V30 8388 H 778.975 2.50871 1.61575 0
M  V30 8389 C 777.724 1.55174 3.11153 0
M  V30 8390 H 777.047 2.41511 3.1861 0
M  V30 8391 H 778.487 1.66133 3.90097 0
M  V30 8392 C 776.946 0.278001 3.35751 0
M  V30 8393 O 777.476 -0.637557 3.96608 0
M  V30 8394 N 775.682 0.170227 2.90101 0
M  V30 8395 H 775.229 0.916159 2.40758 0
M  V30 8396 H 775.187 -0.68117 3.06932 0
M  V30 8397 N 778.959 -0.83999 1.33349 0
M  V30 8398 C 780.208 -1.59011 1.2409 0
M  V30 8399 C 780.521 -1.94655 -0.192029 0
M  V30 8400 O 781.727 -2.68438 -0.406617 0
M  V30 8401 C 780.183 -2.86801 2.17425 0
M  V30 8402 C 779.791 -2.58525 3.65881 0
M  V30 8403 C 781.535 -3.64823 2.17036 0
M  V30 8404 C 779.442 -3.82404 4.51133 0
M  V30 8405 H 778.372 -0.596731 0.460899 0
M  V30 8406 H 781.023 -0.926274 1.58406 0
M  V30 8407 H 779.405 -3.54719 1.7604 0
M  V30 8408 H 780.579 -1.98824 4.15699 0
M  V30 8409 H 778.894 -1.93808 3.68548 0
M  V30 8410 H 781.491 -4.56774 2.7796 0
M  V30 8411 H 781.834 -3.99663 1.16513 0
M  V30 8412 H 782.367 -3.03826 2.56777 0
M  V30 8413 H 779.106 -3.52696 5.52527 0
M  V30 8414 H 778.626 -4.41447 4.0606 0
M  V30 8415 H 780.305 -4.49995 4.6488 0
M  V30 8416 N 780.437 -1.16799 -1.0581 0
M  V30 8417 C 781.848 -0.95945 -1.60161 0
M  V30 8418 C 782.199 0.49543 -1.89842 0
M  V30 8419 O 781.324 1.36957 -1.67546 0
M  V30 8420 C 781.919 -1.73527 -2.90987 0
M  V30 8421 C 780.478 -1.57158 -3.42021 0
M  V30 8422 C 779.625 -1.74089 -2.15843 0
M  V30 8423 H 782.576 -1.31598 -0.886992 0
M  V30 8424 H 782.597 -1.21397 -3.60615 0
M  V30 8425 H 782.109 -2.79411 -2.69353 0
M  V30 8426 H 780.21 -0.537361 -3.68705 0
M  V30 8427 H 780.323 -2.35858 -4.17022 0
M  V30 8428 H 778.687 -1.16874 -2.26302 0
M  V30 8429 H 779.47 -2.81371 -1.96686 0
M  V30 8430 N 781.915 1.24427 -0.967243 0
M  V30 8431 C 783.161 1.92772 -0.629812 0
M  V30 8432 C 783.494 1.75436 0.832827 0
M  V30 8433 O 782.769 1.10716 1.59913 0
M  V30 8434 C 783.052 3.45798 -1.00477 0
M  V30 8435 C 782.905 3.72304 -2.52407 0
M  V30 8436 C 784.224 4.36787 -0.538999 0
M  V30 8437 H 781.343 0.700099 -0.230282 0
M  V30 8438 H 783.985 1.46805 -1.20616 0
M  V30 8439 H 782.135 3.8508 -0.514336 0
M  V30 8440 H 783.807 3.42584 -3.08924 0
M  V30 8441 H 782.05 3.17472 -2.95625 0
M  V30 8442 H 782.721 4.7937 -2.73693 0
M  V30 8443 H 785.197 4.04877 -0.959874 0
M  V30 8444 H 784.073 5.4259 -0.829926 0
M  V30 8445 H 784.334 4.38527 0.560923 0
M  V30 8446 N 783.393 0.737304 1.3929 0
M  V30 8447 C 784.621 0.296573 2.04763 0
M  V30 8448 C 785.036 -1.06941 1.55592 0
M  V30 8449 O 784.393 -1.67619 0.721822 0
M  V30 8450 C 784.444 0.291906 3.6032 0
M  V30 8451 O 784.165 1.60397 4.07682 0
M  V30 8452 C 785.666 -0.164708 4.42994 0
M  V30 8453 H 782.886 0.129251 0.658434 0
M  V30 8454 H 785.43 1.0016 1.78293 0
M  V30 8455 H 783.585 -0.364251 3.85684 0
M  V30 8456 H 783.999 1.51909 5.0202 0
M  V30 8457 H 785.473 -0.116814 5.51876 0
M  V30 8458 H 785.95 -1.21022 4.22197 0
M  V30 8459 H 786.556 0.461968 4.22784 0
M  V30 8460 N 784.871 -1.49948 0.485112 0
M  V30 8461 C 785.803 -2.26691 -0.338222 0
M  V30 8462 C 786.816 -1.32584 -0.944742 0
M  V30 8463 O 788.005 -1.57989 -0.830772 0
M  V30 8464 C 785.105 -3.04405 -1.48966 0
M  V30 8465 C 784.278 -4.25971 -0.993371 0
M  V30 8466 C 783.337 -4.85861 -2.02052 0
M  V30 8467 O 782.363 -5.46382 -1.59547 0
M  V30 8468 N 783.565 -4.74101 -3.34975 0
M  V30 8469 H 786.33 -2.97989 0.319748 0
M  V30 8470 H 783.891 -1.58772 0.316714 0
M  V30 8471 H 785.883 -3.41348 -2.17403 0
M  V30 8472 H 784.453 -2.35815 -2.05207 0
M  V30 8473 H 783.673 -3.93971 -0.134424 0
M  V30 8474 H 784.961 -5.0476 -0.639934 0
M  V30 8475 H 784.359 -4.26002 -3.72208 0
M  V30 8476 H 782.916 -5.15274 -3.9917 0
M  V30 8477 N 786.349 -0.21828 -1.56081 0
M  V30 8478 C 787.297 0.709679 -2.21509 0
M  V30 8479 C 788.291 1.20221 -1.19346 0
M  V30 8480 O 789.497 1.16241 -1.37433 0
M  V30 8481 H 785.872 0.247271 -0.710184 0
M  V30 8482 H 787.843 0.134386 -2.98097 0
M  V30 8483 C 786.592 1.90853 -2.90638 0
M  V30 8484 H 785.915 1.53865 -3.69006 0
M  V30 8485 H 787.355 2.53568 -3.39822 0
M  V30 8486 C 785.814 2.76189 -1.92929 0
M  V30 8487 O 786.344 3.74842 -1.44416 0
M  V30 8488 N 784.55 2.42157 -1.6065 0
M  V30 8489 H 784.097 1.61987 -2.00294 0
M  V30 8490 H 784.055 2.99534 -0.955347 0
M  V30 8491 N 787.827 1.57504 0.0551401 0
M  V30 8492 C 788.76 2.00155 1.09604 0
M  V30 8493 C 789.738 0.881274 1.36647 0
M  V30 8494 O 790.922 1.14498 1.49742 0
M  V30 8495 C 788.049 2.35246 2.43674 0
M  V30 8496 C 787.095 3.57452 2.32659 0
M  V30 8497 S 787.928 5.07639 1.7048 0
M  V30 8498 C 789.084 5.45947 3.06093 0
M  V30 8499 H 789.317 2.88131 0.732635 0
M  V30 8500 H 786.85 1.52122 0.264252 0
M  V30 8501 H 788.808 2.56136 3.20787 0
M  V30 8502 H 787.469 1.47769 2.7717 0
M  V30 8503 H 786.662 3.79576 3.31569 0
M  V30 8504 H 786.264 3.36279 1.63685 0
M  V30 8505 H 788.556 5.45036 4.0242 0
M  V30 8506 H 789.499 6.4656 2.88732 0
M  V30 8507 H 789.907 4.73419 3.07466 0
M  V30 8508 N 789.305 -0.326896 1.54172 0
M  V30 8509 C 790.551 -1.06681 1.72473 0
M  V30 8510 C 790.884 -1.87779 0.49523 0
M  V30 8511 O 790.159 -1.87754 -0.507803 0
M  V30 8512 C 790.442 -1.99429 2.99834 0
M  V30 8513 C 790.295 -1.21682 4.33028 0
M  V30 8514 C 791.614 -2.99002 3.22933 0
M  V30 8515 H 788.733 -0.386438 0.627563 0
M  V30 8516 H 791.375 -0.343779 1.86864 0
M  V30 8517 H 789.525 -2.61081 2.87696 0
M  V30 8518 H 791.197 -0.625153 4.57044 0
M  V30 8519 H 789.44 -0.519045 4.30684 0
M  V30 8520 H 790.111 -1.89766 5.18356 0
M  V30 8521 H 792.587 -2.4747 3.34511 0
M  V30 8522 H 791.463 -3.61085 4.13412 0
M  V30 8523 H 791.724 -3.71281 2.40006 0
M  V30 8524 N 790.784 -1.46188 -0.588786 0
M  V30 8525 C 792.195 -1.45421 -1.17088 0
M  V30 8526 C 792.546 -0.191801 -1.9526 0
M  V30 8527 O 791.671 0.705497 -2.04577 0
M  V30 8528 C 792.266 -2.63467 -2.13004 0
M  V30 8529 C 790.825 -2.6576 -2.6655 0
M  V30 8530 C 789.972 -2.38002 -1.42304 0
M  V30 8531 H 792.923 -1.54156 -0.377052 0
M  V30 8532 H 792.944 -2.38638 -2.96365 0
M  V30 8533 H 792.456 -3.55331 -1.56081 0
M  V30 8534 H 790.557 -1.77952 -3.27359 0
M  V30 8535 H 790.67 -3.65545 -3.09699 0
M  V30 8536 H 789.034 -1.87936 -1.71907 0
M  V30 8537 H 789.817 -3.32035 -0.872209 0
M  V30 8538 N 792.262 0.832906 -1.33792 0
M  V30 8539 C 793.487 1.62568 -1.28788 0
M  V30 8540 C 793.912 1.87599 0.137246 0
M  V30 8541 O 793.27 1.44436 1.0958 0
M  V30 8542 C 793.318 2.9495 -2.07453 0
M  V30 8543 O 792.422 3.86546 -1.43722 0
M  V30 8544 H 791.763 0.494809 -0.442787 0
M  V30 8545 H 794.293 1.03578 -1.76445 0
M  V30 8546 H 794.303 3.44599 -2.1844 0
M  V30 8547 H 792.978 2.76055 -3.11073 0
M  V30 8548 H 791.555 3.45044 -1.41417 0
M  V30 8549 N 793.74 1.17359 1.05189 0
M  V30 8550 C 794.965 0.98709 1.82404 0
M  V30 8551 C 795.39 -0.459848 1.82392 0
M  V30 8552 O 794.748 -1.32924 1.23292 0
M  V30 8553 C 794.796 1.53276 3.26403 0
M  V30 8554 O 793.9 0.746541 4.05587 0
M  V30 8555 H 793.241 0.35047 0.563974 0
M  V30 8556 H 795.771 1.55856 1.32552 0
M  V30 8557 H 795.781 1.55504 3.77203 0
M  V30 8558 H 794.456 2.58603 3.25726 0
M  V30 8559 H 793.033 0.795671 3.64312 0
M  V30 8560 N 795.218 -1.23913 0.973828 0
M  V30 8561 C 796.634 -1.44325 0.681363 0
M  V30 8562 C 796.834 -1.86832 -0.754728 0
M  V30 8563 O 795.89 -2.01024 -1.52793 0
M  V30 8564 C 797.203 -2.50017 1.67069 0
M  V30 8565 C 798.751 -2.63838 1.68399 0
M  V30 8566 C 799.226 -3.72734 2.66145 0
M  V30 8567 N 800.717 -3.80169 2.64624 0
M  V30 8568 C 801.452 -4.6397 3.36927 0
M  V30 8569 N 800.948 -5.51911 4.18767 0
M  V30 8570 N 802.741 -4.58106 3.25722 0
M  V30 8571 H 794.892 -0.946204 1.9016 0
M  V30 8572 H 797.155 -0.477374 0.819035 0
M  V30 8573 H 796.861 -2.25686 2.69738 0
M  V30 8574 H 796.735 -3.48287 1.4483 0
M  V30 8575 H 799.122 -2.87524 0.664379 0
M  V30 8576 H 799.203 -1.65906 1.94702 0
M  V30 8577 H 798.847 -3.49797 3.68245 0
M  V30 8578 H 798.777 -4.70193 2.3712 0
M  V30 8579 H 801.268 -3.17319 2.05224 0
M  V30 8580 H 801.581 -6.12828 4.70809 0
M  V30 8581 H 799.926 -5.51556 4.2286 0
M  V30 8582 H 803.117 -3.8842 2.61242 0
M  V30 8583 H 803.29 -5.23188 3.82333 0
M  V30 8584 N 796.696 -0.74468 -1.38897 0
M  V30 8585 C 797.626 -0.126355 -2.33158 0
M  V30 8586 C 798.607 0.713517 -1.54412 0
M  V30 8587 O 799.792 0.656523 -1.82766 0
M  V30 8588 C 796.922 0.774375 -3.38557 0
M  V30 8589 C 795.876 0.0379214 -4.27983 0
M  V30 8590 C 795.202 1.05631 -5.24162 0
M  V30 8591 C 796.502 -1.12523 -5.10035 0
M  V30 8592 H 798.196 -0.913744 -2.85116 0
M  V30 8593 H 795.742 -0.440847 -1.37086 0
M  V30 8594 H 797.695 1.21655 -4.03458 0
M  V30 8595 H 796.419 1.59399 -2.85061 0
M  V30 8596 H 795.078 -0.384733 -3.64576 0
M  V30 8597 H 794.726 1.86975 -4.66958 0
M  V30 8598 H 794.426 0.568261 -5.84846 0
M  V30 8599 H 795.95 1.49799 -5.9194 0
M  V30 8600 H 797.364 -0.761037 -5.68226 0
M  V30 8601 H 795.761 -1.54355 -5.79909 0
M  V30 8602 H 796.831 -1.94237 -4.44297 0
M  V30 8603 N 798.174 1.49689 -0.493057 0
M  V30 8604 C 799.104 2.31826 0.279073 0
M  V30 8605 C 800.085 1.39733 0.969987 0
M  V30 8606 O 801.27 1.68646 0.962925 0
M  V30 8607 C 798.4 3.20046 1.34862 0
M  V30 8608 C 797.354 4.20869 0.77805 0
M  V30 8609 C 796.68 4.97971 1.94753 0
M  V30 8610 C 797.98 5.21813 -0.225543 0
M  V30 8611 H 799.674 2.96627 -0.406512 0
M  V30 8612 H 797.22 1.42647 -0.196943 0
M  V30 8613 H 799.173 3.76315 1.89645 0
M  V30 8614 H 797.897 2.53172 2.06328 0
M  V30 8615 H 796.556 3.65733 0.252036 0
M  V30 8616 H 796.204 4.27552 2.64969 0
M  V30 8617 H 795.904 5.66186 1.57187 0
M  V30 8618 H 797.428 5.57082 2.49984 0
M  V30 8619 H 798.842 5.72823 0.233864 0
M  V30 8620 H 797.239 5.97872 -0.516622 0
M  V30 8621 H 798.309 4.71209 -1.14412 0
M  V30 8622 N 799.652 0.226554 1.55963 0
M  V30 8623 C 800.898 -0.404387 1.98727 0
M  V30 8624 C 801.231 -1.59059 1.11418 0
M  V30 8625 O 800.506 -1.93729 0.172971 0
M  V30 8626 C 800.789 -0.834081 3.50307 0
M  V30 8627 C 800.642 0.356104 4.48388 0
M  V30 8628 C 801.961 -1.68845 4.06423 0
M  V30 8629 H 799.08 -0.145515 0.722492 0
M  V30 8630 H 801.722 0.323791 1.87221 0
M  V30 8631 H 799.872 -1.45454 3.60244 0
M  V30 8632 H 801.544 0.99432 4.50456 0
M  V30 8633 H 799.787 1.0027 4.22053 0
M  V30 8634 H 800.458 0.0124333 5.51999 0
M  V30 8635 H 802.934 -1.16489 3.99461 0
M  V30 8636 H 801.81 -1.958 5.1279 0
M  V30 8637 H 802.071 -2.65347 3.53615 0
M  V30 8638 N 801.13 -1.57531 -0.0467866 0
M  V30 8639 C 802.36 -1.92417 -0.752279 0
M  V30 8640 C 802.768 -0.823134 -1.70356 0
M  V30 8641 O 802.111 0.210598 -1.82489 0
M  V30 8642 C 802.173 -3.22974 -1.57887 0
M  V30 8643 C 801.837 -4.50045 -0.794285 0
M  V30 8644 C 802.834 -5.19799 -0.102368 0
M  V30 8645 C 800.519 -4.96608 -0.754061 0
M  V30 8646 C 802.513 -6.34385 0.619267 0
M  V30 8647 C 800.2 -6.11093 -0.0286682 0
M  V30 8648 C 801.198 -6.79835 0.656772 0
M  V30 8649 O 800.886 -7.92133 1.37042 0
M  V30 8650 H 800.618 -0.640029 -0.217576 0
M  V30 8651 H 803.172 -2.05395 -0.0137438 0
M  V30 8652 H 801.402 -3.06273 -2.3608 0
M  V30 8653 H 803.091 -3.43319 -2.16533 0
M  V30 8654 H 803.857 -4.8484 -0.124589 0
M  V30 8655 H 799.736 -4.42958 -1.27706 0
M  V30 8656 H 803.28 -6.87975 1.15483 0
M  V30 8657 H 799.177 -6.455 -0.00446214 0
M  V30 8658 H 799.945 -8.08394 1.28227 0
M  V30 8659 N 802.608 0.318715 -1.54344 0
M  V30 8660 C 803.838 1.07394 -1.76494 0
M  V30 8661 C 804.246 1.82031 -0.515881 0
M  V30 8662 O 803.589 1.7609 0.52325 0
M  V30 8663 C 803.651 2.11401 -2.90775 0
M  V30 8664 C 803.315 1.56118 -4.29507 0
M  V30 8665 C 804.312 1.00043 -5.10184 0
M  V30 8666 C 801.997 1.60215 -4.76063 0
M  V30 8667 C 803.991 0.487993 -6.35529 0
M  V30 8668 C 801.678 1.08584 -6.01376 0
M  V30 8669 C 802.676 0.529714 -6.80943 0
M  V30 8670 O 802.364 0.0211823 -8.03897 0
M  V30 8671 H 802.096 0.325061 -0.592715 0
M  V30 8672 H 804.65 0.36901 -2.02058 0
M  V30 8673 H 802.88 2.85524 -2.60793 0
M  V30 8674 H 804.569 2.72683 -3.00664 0
M  V30 8675 H 805.335 0.961811 -4.75367 0
M  V30 8676 H 801.214 2.02441 -4.14172 0
M  V30 8677 H 804.758 0.0532608 -6.9758 0
M  V30 8678 H 800.655 1.12155 -6.35682 0
M  V30 8679 H 801.423 0.136151 -8.18387 0
M  V30 8680 N 804.086 1.46499 0.581025 0
M  V30 8681 C 805.335 1.51162 1.3354 0
M  V30 8682 C 805.648 0.168433 1.94873 0
M  V30 8683 O 806.854 0.092883 2.71341 0
M  V30 8684 C 805.31 2.66362 2.42032 0
M  V30 8685 C 804.918 4.07109 1.86994 0
M  V30 8686 C 806.662 2.80297 3.188 0
M  V30 8687 C 804.569 5.13645 2.93125 0
M  V30 8688 H 803.499 0.562576 0.502021 0
M  V30 8689 H 806.15 1.72713 0.619863 0
M  V30 8690 H 804.532 2.38143 3.16392 0
M  V30 8691 H 805.706 4.45125 1.19166 0
M  V30 8692 H 804.021 3.97854 1.22887 0
M  V30 8693 H 806.618 3.5706 3.9801 0
M  V30 8694 H 806.961 1.87875 3.71495 0
M  V30 8695 H 807.494 3.0817 2.51547 0
M  V30 8696 H 804.233 6.07866 2.45315 0
M  V30 8697 H 803.753 4.80172 3.59437 0
M  V30 8698 H 805.432 5.39562 3.57046 0
M  V30 8699 N 805.565 -0.825799 1.34232 0
M  V30 8700 C 806.811 -1.58419 1.26614 0
M  V30 8701 C 807.144 -1.93503 -0.164341 0
M  V30 8702 O 806.419 -1.59785 -1.109 0
M  V30 8703 C 806.702 -2.8856 2.15418 0
M  V30 8704 C 806.555 -2.60075 3.66989 0
M  V30 8705 C 807.874 -3.90107 2.03726 0
M  V30 8706 H 804.993 -0.574794 0.461282 0
M  V30 8707 H 807.635 -0.951519 1.64457 0
M  V30 8708 H 805.785 -3.42553 1.83275 0
M  V30 8709 H 807.457 -2.12414 4.09485 0
M  V30 8710 H 805.7 -1.93565 3.88221 0
M  V30 8711 H 806.371 -3.52866 4.24488 0
M  V30 8712 H 808.847 -3.45459 2.31942 0
M  V30 8713 H 807.723 -4.78976 2.68092 0
M  V30 8714 H 807.984 -4.30329 1.01337 0
M  V30 8715 N 807.043 -1.17915 -1.04565 0
M  V30 8716 C 808.271 -0.99616 -1.8134 0
M  V30 8717 C 808.686 0.455509 -1.83223 0
M  V30 8718 O 808.043 1.31636 -1.26405 0
M  V30 8719 C 808.094 -1.53758 -3.27171 0
M  V30 8720 O 807.815 -2.93241 -3.25486 0
M  V30 8721 C 809.316 -1.40007 -4.2061 0
M  V30 8722 H 806.536 -0.352055 -0.571225 0
M  V30 8723 H 809.08 -1.56349 -1.31815 0
M  V30 8724 H 807.235 -1.01213 -3.73945 0
M  V30 8725 H 807.649 -3.18392 -4.16805 0
M  V30 8726 H 809.123 -1.82695 -5.2089 0
M  V30 8727 H 809.6 -0.348054 -4.37819 0
M  V30 8728 H 810.206 -1.916 -3.79697 0
M  V30 8729 N 808.521 1.23394 -0.980386 0
M  V30 8730 C 809.769 1.91431 -0.647978 0
M  V30 8731 C 810.09 1.76871 0.821066 0
M  V30 8732 O 809.36 1.14808 1.58732 0
M  V30 8733 H 807.94 0.708516 -0.236673 0
M  V30 8734 H 810.602 1.50019 -1.2442 0
M  V30 8735 H 809.698 2.98854 -0.899592 0
M  V30 8736 N 809.999 0.752036 1.385 0
M  V30 8737 C 810.909 0.125318 2.34265 0
M  V30 8738 C 811.925 -0.702437 1.59191 0
M  V30 8739 O 813.101 -0.626951 1.91393 0
M  V30 8740 C 810.166 -0.758486 3.38301 0
M  V30 8741 C 809.227 0.0834636 4.29219 0
M  V30 8742 C 808.46 -0.758252 5.28286 0
M  V30 8743 O 808.683 -1.99632 5.34325 0
M  V30 8744 O 807.617 -0.177878 6.01637 0
M  V30 8745 H 811.443 0.91617 2.89551 0
M  V30 8746 H 809.028 0.512911 1.4032 0
M  V30 8747 H 810.91 -1.26365 4.02007 0
M  V30 8748 H 809.585 -1.52786 2.85374 0
M  V30 8749 H 808.492 0.634545 3.68679 0
M  V30 8750 H 809.825 0.815455 4.85398 0
M  V30 8751 N 811.477 -1.49425 0.500989 0
M  V30 8752 C 812.409 -2.27037 -0.314159 0
M  V30 8753 C 813.422 -1.33578 -0.930626 0
M  V30 8754 O 814.611 -1.58861 -0.813968 0
M  V30 8755 C 811.711 -3.05968 -1.45729 0
M  V30 8756 C 810.884 -4.27 -0.948135 0
M  V30 8757 C 809.943 -4.87977 -1.96888 0
M  V30 8758 O 808.969 -5.48044 -1.53743 0
M  V30 8759 N 810.171 -4.77627 -3.29928 0
M  V30 8760 H 812.936 -2.97634 0.351336 0
M  V30 8761 H 810.497 -1.58427 0.333536 0
M  V30 8762 H 812.489 -3.43634 -2.1377 0
M  V30 8763 H 811.059 -2.37978 -2.02695 0
M  V30 8764 H 810.279 -3.94091 -0.0926311 0
M  V30 8765 H 811.567 -5.0541 -0.586362 0
M  V30 8766 H 810.965 -4.29926 -3.67669 0
M  V30 8767 H 809.522 -5.19478 -3.93682 0
M  V30 8768 N 812.955 -0.234822 -1.55841 0
M  V30 8769 C 814.183 0.397745 -2.03041 0
M  V30 8770 C 814.598 1.52405 -1.11437 0
M  V30 8771 O 813.955 1.82061 -0.126466 0
M  V30 8772 C 814.006 0.916919 -3.49678 0
M  V30 8773 O 813.727 -0.164493 -4.37791 0
M  V30 8774 C 815.228 1.62139 -4.12584 0
M  V30 8775 H 812.448 0.0959214 -0.664108 0
M  V30 8776 H 814.992 -0.355156 -2.01392 0
M  V30 8777 H 813.147 1.62004 -3.519 0
M  V30 8778 H 813.561 0.227794 -5.24005 0
M  V30 8779 H 815.035 1.93651 -5.16917 0
M  V30 8780 H 815.512 2.53918 -3.58361 0
M  V30 8781 H 816.118 0.963145 -4.14251 0
M  V30 8782 N 814.433 1.57553 0.0384317 0
M  V30 8783 C 815.396 2.04927 1.02653 0
M  V30 8784 C 816.396 0.951768 1.29607 0
M  V30 8785 O 817.586 1.21568 1.24768 0
M  V30 8786 C 814.718 2.45828 2.36181 0
M  V30 8787 H 815.911 2.93474 0.617508 0
M  V30 8788 H 813.464 1.53679 0.285031 0
M  V30 8789 H 814.199 1.60408 2.8185 0
M  V30 8790 H 813.984 3.25945 2.1795 0
M  V30 8791 H 815.474 2.82939 3.0714 0
M  V30 8792 N 815.911 -0.310526 1.54511 0
M  V30 8793 C 816.821 -1.4054 1.87844 0
M  V30 8794 C 817.837 -1.55954 0.771635 0
M  V30 8795 O 819.013 -1.70801 1.06719 0
M  V30 8796 C 816.078 -2.75063 2.11048 0
M  V30 8797 C 815.139 -2.68715 3.348 0
M  V30 8798 C 814.372 -3.96821 3.56887 0
M  V30 8799 O 814.595 -4.95721 2.82165 0
M  V30 8800 O 813.529 -3.99291 4.50389 0
M  V30 8801 H 817.355 -1.15275 2.80972 0
M  V30 8802 H 814.94 -0.505732 1.4058 0
M  V30 8803 H 816.822 -3.54671 2.27566 0
M  V30 8804 H 815.497 -3.00191 1.21108 0
M  V30 8805 H 814.404 -1.87611 3.23655 0
M  V30 8806 H 815.737 -2.4854 4.2484 0
M  V30 8807 N 817.389 -1.46805 -0.573248 0
M  V30 8808 C 818.319 -1.60951 -1.69165 0
M  V30 8809 C 819.3 -0.45948 -1.63777 0
M  V30 8810 O 820.485 -0.68688 -1.81647 0
M  V30 8811 C 817.615 -1.60844 -3.07809 0
M  V30 8812 C 816.569 -2.74913 -3.28035 0
M  V30 8813 C 815.895 -2.59871 -4.67302 0
M  V30 8814 C 817.195 -4.16654 -3.14955 0
M  V30 8815 H 818.889 -2.54574 -1.57582 0
M  V30 8816 H 816.435 -1.22516 -0.756686 0
M  V30 8817 H 818.388 -1.69334 -3.85881 0
M  V30 8818 H 817.112 -0.637714 -3.20314 0
M  V30 8819 H 815.771 -2.65908 -2.52366 0
M  V30 8820 H 815.419 -1.60861 -4.76585 0
M  V30 8821 H 815.119 -3.36386 -4.81786 0
M  V30 8822 H 816.643 -2.70265 -5.4753 0
M  V30 8823 H 818.057 -4.26721 -3.82861 0
M  V30 8824 H 816.454 -4.93831 -3.40956 0
M  V30 8825 H 817.524 -4.36146 -2.11908 0
M  V30 8826 N 818.867 0.818669 -1.34668 0
M  V30 8827 C 820.113 1.57746 -1.27453 0
M  V30 8828 C 820.446 1.93588 0.154077 0
M  V30 8829 O 819.721 1.60371 1.10051 0
M  V30 8830 C 820.004 2.87414 -2.16945 0
M  V30 8831 C 819.857 2.58125 -3.68363 0
M  V30 8832 C 821.176 3.89021 -2.05792 0
M  V30 8833 H 818.295 0.572339 -0.464324 0
M  V30 8834 H 820.937 0.942784 -1.64959 0
M  V30 8835 H 819.087 3.41576 -1.85089 0
M  V30 8836 H 820.759 2.10239 -4.10606 0
M  V30 8837 H 819.002 1.91503 -3.89242 0
M  V30 8838 H 819.673 3.5061 -4.26353 0
M  V30 8839 H 822.149 3.44224 -2.33771 0
M  V30 8840 H 821.025 4.77548 -2.70628 0
M  V30 8841 H 821.286 4.29786 -1.03618 0
M  V30 8842 N 820.346 1.18468 1.03938 0
M  V30 8843 C 821.571 1.00638 1.81347 0
M  V30 8844 C 821.996 -0.440477 1.8287 0
M  V30 8845 O 821.354 -1.31609 1.24695 0
M  V30 8846 C 821.402 1.5673 3.24759 0
M  V30 8847 O 820.506 0.789517 4.04772 0
M  V30 8848 H 819.847 0.356432 0.560225 0
M  V30 8849 H 822.377 1.57253 1.30891 0
M  V30 8850 H 822.387 1.59496 3.75533 0
M  V30 8851 H 821.062 2.62043 3.22965 0
M  V30 8852 H 819.639 0.834267 3.63448 0
M  V30 8853 N 821.824 -1.22873 0.986916 0
M  V30 8854 C 823.101 -1.86939 0.575589 0
M  V30 8855 C 823.481 -1.88656 -0.947205 0
M  V30 8856 O 822.829 -1.3728 -1.82665 0
M  V30 8857 C 823.039 -3.28117 1.18914 0
M  V30 8858 C 824.387 -4.04659 1.28593 0
M  V30 8859 O 825.411 -3.3736 1.14308 0
M  V30 8860 O 824.27 -5.25112 1.51391 0
M  V30 8861 H 821.364 -0.803748 0.194724 0
M  V30 8862 H 823.91 -1.30698 1.08241 0
M  V30 8863 H 822.682 -3.21468 2.231 0
M  V30 8864 H 822.305 -3.91956 0.667535 0
M  V30 8865 N 823.302 -0.75937 -1.38099 0
M  V30 8866 C 824.527 -0.327859 -2.04792 0
M  V30 8867 C 824.952 1.03752 -1.56899 0
M  V30 8868 O 824.31 1.66235 -0.723581 0
M  V30 8869 C 824.358 -0.366264 -3.58735 0
M  V30 8870 O 823.462 0.637697 -4.0744 0
M  V30 8871 H 822.803 -0.144092 -0.648177 0
M  V30 8872 H 825.333 -1.03211 -1.7666 0
M  V30 8873 H 825.343 -0.219179 -4.07411 0
M  V30 8874 H 824.018 -1.36243 -3.92951 0
M  V30 8875 H 822.595 0.454749 -3.70117 0
M  V30 8876 N 824.78 1.49157 -0.508906 0
M  V30 8877 C 826.026 2.02773 0.0328469 0
M  V30 8878 C 826.359 1.38714 1.35912 0
M  V30 8879 O 825.634 0.525536 1.87266 0
M  V30 8880 C 825.917 3.59664 0.177088 0
M  V30 8881 C 825.77 4.34239 -1.17287 0
M  V30 8882 C 827.089 4.30505 0.913977 0
M  V30 8883 H 824.208 0.736926 0.0104631 0
M  V30 8884 H 826.85 1.781 -0.661851 0
M  V30 8885 H 825 3.80818 0.768774 0
M  V30 8886 H 826.672 4.24561 -1.80404 0
M  V30 8887 H 824.915 3.96486 -1.76016 0
M  V30 8888 H 825.586 5.42397 -1.02516 0
M  V30 8889 H 828.062 4.14054 0.412084 0
M  V30 8890 H 826.938 5.40012 0.983759 0
M  V30 8891 H 827.199 3.96302 1.95951 0
M  V30 8892 N 826.258 0.243083 1.55714 0
M  V30 8893 C 827.504 -0.376428 1.99886 0
M  V30 8894 C 827.859 -1.55843 1.12831 0
M  V30 8895 O 827.152 -1.90724 0.182996 0
M  V30 8896 C 827.346 -0.839621 3.47398 0
M  V30 8897 C 827.175 0.295954 4.48725 0
M  V30 8898 C 825.945 0.769392 4.99408 0
M  V30 8899 C 828.143 1.12165 5.0192 0
M  V30 8900 N 826.125 1.87778 5.84477 0
M  V30 8901 C 827.496 2.07848 5.84123 0
M  V30 8902 C 829.551 1.15864 4.84231 0
M  V30 8903 C 828.254 3.06937 6.50524 0
M  V30 8904 C 830.28 2.13782 5.51409 0
M  V30 8905 C 829.642 3.08202 6.33396 0
M  V30 8906 H 825.741 -0.103809 0.775079 0
M  V30 8907 H 828.325 0.359788 1.91347 0
M  V30 8908 H 826.496 -1.54514 3.56343 0
M  V30 8909 H 828.228 -1.43376 3.78451 0
M  V30 8910 H 824.983 0.354201 4.72274 0
M  V30 8911 H 825.407 2.43462 6.31708 0
M  V30 8912 H 830.049 0.442532 4.20478 0
M  V30 8913 H 827.767 3.79499 7.13447 0
M  V30 8914 H 831.353 2.17345 5.39678 0
M  V30 8915 H 830.233 3.82732 6.8446 0
M  V30 8916 N 827.736 -1.57571 -0.0300757 0
M  V30 8917 C 828.666 -2.0953 -1.03051 0
M  V30 8918 C 829.647 -0.99761 -1.37774 0
M  V30 8919 O 830.832 -1.27279 -1.46676 0
M  V30 8920 C 827.962 -2.57385 -2.33174 0
M  V30 8921 C 826.916 -3.71409 -2.12696 0
M  V30 8922 C 826.242 -4.05467 -3.4857 0
M  V30 8923 C 827.542 -4.99877 -1.51396 0
M  V30 8924 H 829.236 -2.93367 -0.597999 0
M  V30 8925 H 826.782 -1.41127 -0.286203 0
M  V30 8926 H 828.735 -2.92355 -3.03491 0
M  V30 8927 H 827.459 -1.70629 -2.78484 0
M  V30 8928 H 826.118 -3.36786 -1.44813 0
M  V30 8929 H 825.766 -3.15779 -3.91526 0
M  V30 8930 H 825.466 -4.82269 -3.35694 0
M  V30 8931 H 826.99 -4.4297 -4.2025 0
M  V30 8932 H 828.404 -5.3281 -2.11629 0
M  V30 8933 H 826.801 -5.81283 -1.49098 0
M  V30 8934 H 827.871 -4.82522 -0.479676 0
M  V30 8935 N 829.214 0.302327 -1.54673 0
M  V30 8936 C 830.162 1.39286 -1.86285 0
M  V30 8937 C 831.156 1.52553 -0.736478 0
M  V30 8938 O 832.362 1.54686 -0.92045 0
M  V30 8939 H 828.737 0.465228 -0.590819 0
M  V30 8940 H 830.708 1.09859 -2.77441 0
M  V30 8941 C 829.457 2.75155 -2.12567 0
M  V30 8942 H 828.78 2.65728 -2.98712 0
M  V30 8943 H 830.22 3.50476 -2.38627 0
M  V30 8944 C 828.679 3.23987 -0.923813 0
M  V30 8945 O 829.209 4.01443 -0.143649 0
M  V30 8946 N 827.415 2.81293 -0.72956 0
M  V30 8947 H 826.962 2.18421 -1.36565 0
M  V30 8948 H 826.92 3.14315 0.0730351 0
M  V30 8949 N 830.692 1.47107 0.565454 0
M  V30 8950 C 831.941 1.5257 1.31929 0
M  V30 8951 C 832.254 0.189092 1.94684 0
M  V30 8952 O 833.46 0.121657 2.71227 0
M  V30 8953 C 831.916 2.68914 2.39193 0
M  V30 8954 C 831.524 4.09069 1.82665 0
M  V30 8955 C 833.268 2.83663 3.1581 0
M  V30 8956 C 831.175 5.16726 2.87661 0
M  V30 8957 H 830.105 0.567869 0.496025 0
M  V30 8958 H 832.756 1.73361 0.60151 0
M  V30 8959 H 831.138 2.41486 3.13848 0
M  V30 8960 H 832.312 4.46364 1.14438 0
M  V30 8961 H 830.627 3.99135 1.1866 0
M  V30 8962 H 833.224 3.61261 3.94201 0
M  V30 8963 H 833.567 1.91804 3.69482 0
M  V30 8964 H 834.1 3.10821 2.48265 0
M  V30 8965 H 830.839 6.10433 2.38854 0
M  V30 8966 H 830.359 4.83957 3.54324 0
M  V30 8967 H 832.038 5.43319 3.51303 0
M  V30 8968 N 832.17 -0.811516 1.35101 0
M  V30 8969 C 833.08 -1.95475 1.29718 0
M  V30 8970 C 834.096 -1.72813 0.202909 0
M  V30 8971 O 835.272 -1.96725 0.431414 0
M  V30 8972 C 832.337 -3.29975 1.06385 0
M  V30 8973 C 831.398 -3.65566 2.25077 0
M  V30 8974 C 830.631 -4.93648 2.02848 0
M  V30 8975 O 830.854 -5.617 0.992442 0
M  V30 8976 O 829.788 -5.27384 2.90087 0
M  V30 8977 H 833.614 -2.02961 2.25921 0
M  V30 8978 H 831.199 -0.948583 1.15422 0
M  V30 8979 H 833.081 -4.10506 0.951999 0
M  V30 8980 H 831.756 -3.2343 0.132294 0
M  V30 8981 H 830.663 -2.85432 2.41825 0
M  V30 8982 H 831.996 -3.7681 3.16662 0
M  V30 8983 N 833.648 -1.19017 -1.03309 0
M  V30 8984 C 834.558 -0.939303 -2.14975 0
M  V30 8985 C 835.574 0.0992359 -1.73717 0
M  V30 8986 O 836.75 -0.0844362 -2.01223 0
M  V30 8987 C 833.815 -0.476712 -3.43407 0
M  V30 8988 C 832.876 -1.58413 -3.99003 0
M  V30 8989 C 832.109 -1.14352 -5.21305 0
M  V30 8990 O 832.332 -0.00534408 -5.704 0
M  V30 8991 O 831.266 -1.94436 -5.6963 0
M  V30 8992 H 835.092 -1.87386 -2.38998 0
M  V30 8993 H 832.677 -0.972635 -1.13403 0
M  V30 8994 H 834.559 -0.22718 -4.20787 0
M  V30 8995 H 833.234 0.429455 -3.20839 0
M  V30 8996 H 832.141 -1.88777 -3.22977 0
M  V30 8997 H 833.474 -2.4667 -4.25928 0
M  V30 8998 N 835.127 1.22348 -0.993418 0
M  V30 8999 C 836.074 2.24294 -0.544118 0
M  V30 9000 C 837.044 1.60602 0.42381 0
M  V30 9001 O 838.229 1.87952 0.328453 0
M  V30 9002 C 835.369 3.44837 0.134578 0
M  V30 9003 C 834.482 4.23043 -0.875151 0
M  V30 9004 C 833.617 5.30928 -0.169919 0
M  V30 9005 C 832.656 6.00853 -1.16798 0
M  V30 9006 N 831.793 7.00381 -0.491021 0
M  V30 9007 H 836.633 2.6209 -1.4182 0
M  V30 9008 H 834.17 1.2881 -0.710384 0
M  V30 9009 H 836.128 4.13625 0.544998 0
M  V30 9010 H 834.758 3.07804 0.972446 0
M  V30 9011 H 833.81 3.53546 -1.40389 0
M  V30 9012 H 835.122 4.71237 -1.63516 0
M  V30 9013 H 834.276 6.05972 0.297205 0
M  V30 9014 H 833.015 4.8371 0.622586 0
M  V30 9015 H 832.02 5.24591 -1.64573 0
M  V30 9016 H 833.245 6.50159 -1.96137 0
M  V30 9017 H 831.191 6.55393 0.282037 0
M  V30 9018 H 831.108 7.46584 -1.18947 0
M  V30 9019 H 832.376 7.79486 -0.0467169 0
M  V30 9020 N 836.605 0.766683 1.37694 0
M  V30 9021 C 837.845 0.333815 2.01656 0
M  V30 9022 C 838.209 -1.06813 1.59546 0
M  V30 9023 O 839.41 -1.60084 2.15932 0
M  V30 9024 C 837.681 0.467032 3.54335 0
M  V30 9025 S 839.24 0.118679 4.38639 0
M  V30 9026 H 836.058 0.128723 0.699251 0
M  V30 9027 H 838.66 1.00018 1.67978 0
M  V30 9028 H 837.364 1.48808 3.82471 0
M  V30 9029 H 836.895 -0.216066 3.92806 0
M  V30 9030 H 838.91 -1.08746 4.84137 0
M  V30 9031 N 838.083 -1.48885 0.516809 0
M  V30 9032 C 839.331 -2.02088 -0.0220166 0
M  V30 9033 C 839.652 -1.39735 -1.36011 0
M  V30 9034 O 838.922 -0.558119 -1.87781 0
M  V30 9035 H 837.502 -0.746917 -0.0111255 0
M  V30 9036 H 840.164 -1.8274 0.677647 0
M  V30 9037 H 839.26 -3.11786 -0.140067 0
M  V30 9038 N 839.561 -0.251338 -1.55583 0
M  V30 9039 C 840.509 0.662534 -2.22965 0
M  V30 9040 C 841.503 1.17662 -1.21869 0
M  V30 9041 O 842.709 1.133 -1.39868 0
M  V30 9042 H 839.084 0.232151 -0.715269 0
M  V30 9043 H 841.055 0.0711252 -2.98315 0
M  V30 9044 C 839.804 1.84646 -2.94621 0
M  V30 9045 H 839.127 1.46003 -3.72187 0
M  V30 9046 H 840.567 2.46303 -3.45124 0
M  V30 9047 C 839.026 2.72034 -1.98744 0
M  V30 9048 O 839.556 3.71695 -1.52335 0
M  V30 9049 N 837.762 2.38695 -1.6575 0
M  V30 9050 H 837.309 1.57702 -2.03685 0
M  V30 9051 H 837.267 2.9744 -1.01867 0
M  V30 9052 N 841.039 1.57585 0.0217189 0
M  V30 9053 C 841.971 2.03849 1.04777 0
M  V30 9054 C 842.984 0.952558 1.32023 0
M  V30 9055 O 844.173 1.22974 1.29381 0
M  V30 9056 C 841.273 2.40504 2.3877 0
M  V30 9057 C 840.446 3.71566 2.30775 0
M  V30 9058 C 839.505 3.95329 3.47277 0
M  V30 9059 O 838.531 4.66289 3.26441 0
M  V30 9060 N 839.733 3.41536 4.69397 0
M  V30 9061 H 842.498 2.92491 0.653395 0
M  V30 9062 H 840.059 1.60538 0.209527 0
M  V30 9063 H 842.051 2.53532 3.15442 0
M  V30 9064 H 840.621 1.57494 2.70027 0
M  V30 9065 H 839.841 3.68822 1.39155 0
M  V30 9066 H 841.129 4.5753 2.22584 0
M  V30 9067 H 840.527 2.84033 4.89226 0
M  V30 9068 H 839.084 3.59932 5.43408 0
M  V30 9069 N 842.517 -0.29412 1.54831 0
M  V30 9070 C 843.447 -1.36757 1.89261 0
M  V30 9071 C 844.428 -1.52564 0.752214 0
M  V30 9072 O 845.613 -1.65958 1.00855 0
M  V30 9073 C 842.743 -2.73066 2.14597 0
M  V30 9074 C 841.697 -2.72017 3.3044 0
M  V30 9075 C 841.023 -4.11679 3.4121 0
M  V30 9076 C 842.323 -2.33149 4.67375 0
M  V30 9077 H 844.017 -1.08191 2.79169 0
M  V30 9078 H 841.563 -0.519014 1.34321 0
M  V30 9079 H 843.516 -3.48255 2.37269 0
M  V30 9080 H 842.24 -3.03172 1.21467 0
M  V30 9081 H 840.899 -1.99285 3.07703 0
M  V30 9082 H 840.547 -4.38973 2.45584 0
M  V30 9083 H 840.247 -4.11877 4.19084 0
M  V30 9084 H 841.771 -4.88637 3.6615 0
M  V30 9085 H 843.185 -2.98054 4.89731 0
M  V30 9086 H 841.582 -2.44546 5.48012 0
M  V30 9087 H 842.652 -1.28275 4.67626 0
M  V30 9088 N 843.995 -1.47404 -0.557645 0
M  V30 9089 C 844.927 -1.55917 -1.67995 0
M  V30 9090 C 845.94 -0.445411 -1.56588 0
M  V30 9091 O 847.129 -0.714999 -1.63554 0
M  V30 9092 C 844.229 -1.44697 -3.06457 0
M  V30 9093 C 843.402 -2.70633 -3.43622 0
M  V30 9094 C 842.461 -2.53256 -4.61246 0
M  V30 9095 O 841.487 -3.27068 -4.65849 0
M  V30 9096 N 842.689 -1.61053 -5.57711 0
M  V30 9097 H 845.454 -2.52694 -1.61139 0
M  V30 9098 H 843.015 -1.43778 -0.744271 0
M  V30 9099 H 845.007 -1.30806 -3.82978 0
M  V30 9100 H 843.577 -0.560039 -3.07542 0
M  V30 9101 H 842.797 -2.99288 -2.56555 0
M  V30 9102 H 844.085 -3.5424 -3.65228 0
M  V30 9103 H 843.483 -1.00235 -5.56749 0
M  V30 9104 H 842.04 -1.53115 -6.33561 0
M  V30 9105 N 845.473 0.80434 -1.35529 0
M  V30 9106 C 846.719 1.56385 -1.29118 0
M  V30 9107 C 847.052 1.9374 0.133536 0
M  V30 9108 O 846.327 1.6153 1.08344 0
M  V30 9109 C 846.61 2.85097 -2.19981 0
M  V30 9110 C 846.463 2.54204 -3.7108 0
M  V30 9111 C 847.782 3.86817 -2.09907 0
M  V30 9112 H 844.901 0.567382 -0.470368 0
M  V30 9113 H 847.543 0.925235 -1.6595 0
M  V30 9114 H 845.693 3.39594 -1.88701 0
M  V30 9115 H 847.365 2.05872 -4.12813 0
M  V30 9116 H 845.608 1.87364 -3.91251 0
M  V30 9117 H 846.279 3.46068 -4.30048 0
M  V30 9118 H 848.755 3.41725 -2.37409 0
M  V30 9119 H 847.631 4.7465 -2.75678 0
M  V30 9120 H 847.892 4.28663 -1.08171 0
M  V30 9121 N 846.951 1.19563 1.02676 0
M  V30 9122 C 847.901 0.903055 2.09354 0
M  V30 9123 C 848.885 -0.133009 1.60349 0
M  V30 9124 O 850.077 0.0729744 1.7685 0
M  V30 9125 C 847.206 0.445852 3.40392 0
M  V30 9126 C 846.292 1.51477 3.96126 0
M  V30 9127 N 846.683 2.73474 4.25495 0
M  V30 9128 C 844.981 1.37856 4.2416 0
M  V30 9129 C 845.682 3.42348 4.7029 0
M  V30 9130 N 844.658 2.69746 4.71952 0
M  V30 9131 H 848.46 1.83023 2.29956 0
M  V30 9132 H 845.974 1.08812 1.20556 0
M  V30 9133 H 847.971 0.21769 4.16331 0
M  V30 9134 H 846.631 -0.47482 3.2121 0
M  V30 9135 H 847.642 3.10217 4.14711 0
M  V30 9136 H 844.319 0.521512 4.1423 0
M  V30 9137 H 845.709 4.46686 5.01917 0
M  V30 9138 N 848.429 -1.21819 0.999893 0
M  V30 9139 C 849.359 -2.26282 0.576096 0
M  V30 9140 C 850.34 -1.65317 -0.400537 0
M  V30 9141 O 851.525 -1.92028 -0.28964 0
M  V30 9142 C 848.655 -3.47147 -0.103145 0
M  V30 9143 C 847.609 -4.20594 0.792745 0
M  V30 9144 C 846.935 -5.34696 -0.0198026 0
M  V30 9145 C 848.235 -4.78533 2.09293 0
M  V30 9146 H 849.929 -2.61984 1.4493 0
M  V30 9147 H 847.475 -1.25935 0.698316 0
M  V30 9148 H 849.428 -4.1939 -0.411068 0
M  V30 9149 H 848.152 -3.1056 -1.01094 0
M  V30 9150 H 846.811 -3.50194 1.08442 0
M  V30 9151 H 846.459 -4.94352 -0.928729 0
M  V30 9152 H 846.159 -5.84764 0.576661 0
M  V30 9153 H 847.683 -6.09752 -0.321659 0
M  V30 9154 H 849.097 -5.42682 1.8485 0
M  V30 9155 H 847.494 -5.38968 2.63881 0
M  V30 9156 H 848.564 -3.98197 2.76708 0
M  V30 9157 N 849.908 -0.773975 -1.37286 0
M  V30 9158 C 851.133 -0.349561 -2.04433 0
M  V30 9159 C 851.558 1.02082 -1.5799 0
M  V30 9160 O 850.916 1.65458 -0.741172 0
M  V30 9161 C 850.964 -0.404292 -3.58326 0
M  V30 9162 O 850.068 0.594447 -4.08093 0
M  V30 9163 H 849.409 -0.150959 -0.646612 0
M  V30 9164 H 851.939 -1.05079 -1.75555 0
M  V30 9165 H 851.949 -0.262378 -4.07155 0
M  V30 9166 H 850.624 -1.40403 -3.91484 0
M  V30 9167 H 849.201 0.415468 -3.70578 0
M  V30 9168 N 851.386 1.48609 -0.524698 0
M  V30 9169 C 852.797 1.86516 -0.0828846 0
M  V30 9170 C 853.148 1.43478 1.33822 0
M  V30 9171 O 852.273 0.823139 2.00133 0
M  V30 9172 C 852.868 3.38495 -0.143639 0
M  V30 9173 C 851.427 3.75615 0.242951 0
M  V30 9174 C 850.574 2.72649 -0.505747 0
M  V30 9175 H 853.525 1.40589 -0.736233 0
M  V30 9176 H 853.546 3.74977 0.645955 0
M  V30 9177 H 853.058 3.69789 -1.17805 0
M  V30 9178 H 851.159 3.49935 1.27971 0
M  V30 9179 H 851.272 4.7901 -0.0929834 0
M  V30 9180 H 849.636 2.54656 0.0473482 0
M  V30 9181 H 850.419 3.06786 -1.54069 0
M  V30 9182 N 852.864 0.259585 1.55447 0
M  V30 9183 C 854.141 -0.412595 1.91199 0
M  V30 9184 C 854.521 -1.74909 1.18194 0
M  V30 9185 O 853.869 -2.26474 0.303603 0
M  V30 9186 C 854.079 -0.568195 3.44344 0
M  V30 9187 C 855.427 -0.858253 4.15836 0
M  V30 9188 O 856.451 -0.653588 3.50152 0
M  V30 9189 O 855.31 -1.24874 5.32042 0
M  V30 9190 H 852.404 -0.223403 0.796254 0
M  V30 9191 H 854.95 0.30459 1.66944 0
M  V30 9192 H 853.722 0.372989 3.89518 0
M  V30 9193 H 853.345 -1.33544 3.74502 0
M  V30 9194 N 854.342 -1.57594 -0.0133615 0
M  V30 9195 C 855.305 -2.06534 -0.993799 0
M  V30 9196 C 856.305 -0.972267 -1.28077 0
M  V30 9197 O 857.495 -1.23537 -1.22818 0
M  V30 9198 C 854.627 -2.49554 -2.3224 0
M  V30 9199 H 855.82 -2.94419 -0.570741 0
M  V30 9200 H 853.373 -1.54113 -0.260546 0
M  V30 9201 H 854.108 -1.64872 -2.79263 0
M  V30 9202 H 853.893 -3.29371 -2.12737 0
M  V30 9203 H 855.383 -2.8779 -3.026 0
M  V30 9204 N 855.82 0.285905 -1.54985 0
M  V30 9205 C 857.097 1.0397 -1.65679 0
M  V30 9206 C 857.477 2.04725 -0.514851 0
M  V30 9207 O 856.825 2.23257 0.486663 0
M  V30 9208 C 857.035 1.70807 -3.04345 0
M  V30 9209 C 858.383 2.22447 -3.61666 0
M  V30 9210 O 859.407 1.80815 -3.06895 0
M  V30 9211 O 858.266 2.98773 -4.57599 0
M  V30 9212 H 855.36 0.481473 -0.672394 0
M  V30 9213 H 857.906 0.282789 -1.67327 0
M  V30 9214 H 856.678 0.977271 -3.789 0
M  V30 9215 H 856.301 2.53217 -3.06541 0
M  V30 9216 N 857.298 1.47698 0.54982 0
M  V30 9217 C 858.261 1.60282 1.63837 0
M  V30 9218 C 859.261 0.477394 1.5355 0
M  V30 9219 O 860.451 0.742665 1.57576 0
M  V30 9220 C 857.583 1.55431 3.03404 0
M  V30 9221 H 858.776 2.57325 1.54026 0
M  V30 9222 H 856.329 1.35999 0.770329 0
M  V30 9223 H 857.064 0.597912 3.1874 0
M  V30 9224 H 856.849 2.37116 3.12279 0
M  V30 9225 H 858.339 1.6739 3.82584 0
M  V30 9226 N 858.776 -0.797141 1.35954 0
M  V30 9227 C 860.006 -1.5835 1.32698 0
M  V30 9228 C 860.414 -1.88959 -0.0955298 0
M  V30 9229 O 859.757 -1.49987 -1.06064 0
M  V30 9230 C 859.819 -2.93529 2.0756 0
M  V30 9231 C 859.483 -2.85688 3.56695 0
M  V30 9232 C 860.48 -2.58467 4.51099 0
M  V30 9233 C 858.165 -3.04508 3.99475 0
M  V30 9234 C 860.159 -2.50157 5.8626 0
M  V30 9235 C 857.846 -2.9582 5.34728 0
M  V30 9236 C 858.844 -2.68681 6.27933 0
M  V30 9237 O 858.532 -2.59973 7.60703 0
M  V30 9238 H 858.264 -0.49807 0.457059 0
M  V30 9239 H 860.818 -0.997889 1.79531 0
M  V30 9240 H 859.048 -3.54111 1.55378 0
M  V30 9241 H 860.737 -3.54744 1.9726 0
M  V30 9242 H 861.503 -2.43638 4.19363 0
M  V30 9243 H 857.382 -3.24641 3.27306 0
M  V30 9244 H 860.926 -2.28894 6.58979 0
M  V30 9245 H 856.823 -3.10211 5.66074 0
M  V30 9246 H 857.591 -2.75511 7.70737 0
M  V30 9247 N 860.254 -1.20106 -1.0204 0
M  V30 9248 C 861.479 -1.0351 -1.79723 0
M  V30 9249 C 861.904 0.411328 -1.83548 0
M  V30 9250 O 861.262 1.29608 -1.26773 0
M  V30 9251 C 861.31 -1.61876 -3.22224 0
M  V30 9252 O 860.414 -0.853813 -4.03465 0
M  V30 9253 H 859.755 -0.365299 -0.554484 0
M  V30 9254 H 862.285 -1.59316 -1.28373 0
M  V30 9255 H 862.295 -1.65451 -3.72948 0
M  V30 9256 H 860.97 -2.67148 -3.18755 0
M  V30 9257 H 859.547 -0.891983 -3.62075 0
M  V30 9258 N 861.732 1.21287 -1.00634 0
M  V30 9259 C 863.143 1.72136 -0.722914 0
M  V30 9260 C 863.494 1.8091 0.759338 0
M  V30 9261 O 862.619 1.46458 1.59308 0
M  V30 9262 C 863.214 3.12633 -1.30561 0
M  V30 9263 C 861.773 3.60833 -1.07127 0
M  V30 9264 C 860.92 2.38326 -1.4176 0
M  V30 9265 H 863.871 1.06445 -1.17708 0
M  V30 9266 H 863.892 3.74174 -0.690937 0
M  V30 9267 H 863.404 3.06215 -2.38441 0
M  V30 9268 H 861.505 3.72599 -0.00968671 0
M  V30 9269 H 861.618 4.46226 -1.74411 0
M  V30 9270 H 859.982 2.40575 -0.836412 0
M  V30 9271 H 860.765 2.34558 -2.50674 0
M  V30 9272 N 863.21 0.781244 1.36873 0
M  V30 9273 C 864.458 0.349198 1.9906 0
M  V30 9274 C 864.779 -1.0806 1.62321 0
M  V30 9275 O 864.049 -1.74351 0.893229 0
M  V30 9276 H 862.629 0.126126 0.736275 0
M  V30 9277 H 865.291 1.00148 1.67202 0
M  V30 9278 H 864.387 0.434451 3.09061 0
M  V30 9279 N 864.689 -1.48329 0.532571 0
M  V30 9280 C 865.621 -2.27652 -0.265931 0
M  V30 9281 C 866.634 -1.35522 -0.902083 0
M  V30 9282 O 867.823 -1.60552 -0.780088 0
M  V30 9283 C 864.923 -3.0899 -1.39207 0
M  V30 9284 C 864.096 -4.28915 -0.857349 0
M  V30 9285 C 863.155 -4.92044 -1.86493 0
M  V30 9286 O 862.181 -5.51181 -1.42084 0
M  V30 9287 N 863.383 -4.84518 -3.19723 0
M  V30 9288 H 866.148 -2.96821 0.414389 0
M  V30 9289 H 863.709 -1.57684 0.367066 0
M  V30 9290 H 865.701 -3.48091 -2.06433 0
M  V30 9291 H 864.271 -2.42224 -1.97601 0
M  V30 9292 H 863.491 -3.94199 -0.00901765 0
M  V30 9293 H 864.779 -5.0654 -0.479025 0
M  V30 9294 H 864.177 -4.37628 -3.58467 0
M  V30 9295 H 862.734 -5.27712 -3.82575 0
M  V30 9296 N 866.167 -0.267825 -1.55308 0
M  V30 9297 C 867.395 0.354587 -2.03839 0
M  V30 9298 C 867.81 1.50007 -1.14644 0
M  V30 9299 O 867.167 1.81752 -0.165055 0
M  V30 9300 C 867.218 0.84254 -3.51544 0
M  V30 9301 O 866.939 -0.257318 -4.37344 0
M  V30 9302 C 868.44 1.53351 -4.15931 0
M  V30 9303 H 865.66 0.0818131 -0.665994 0
M  V30 9304 H 868.204 -0.397795 -2.00594 0
M  V30 9305 H 866.359 1.54503 -3.55257 0
M  V30 9306 H 866.773 0.116593 -5.2437 0
M  V30 9307 H 868.247 1.82643 -5.20908 0
M  V30 9308 H 868.724 2.4626 -3.63666 0
M  V30 9309 H 869.33 0.87506 -4.162 0
M  V30 9310 N 867.645 1.57599 0.00500368 0
M  V30 9311 C 868.891 1.90631 0.691919 0
M  V30 9312 C 869.224 0.868443 1.737 0
M  V30 9313 O 868.499 -0.113482 1.94169 0
M  V30 9314 C 868.782 3.34255 1.33961 0
M  V30 9315 C 868.635 4.48755 0.306413 0
M  V30 9316 C 869.954 3.77211 2.26715 0
M  V30 9317 H 867.073 0.693279 0.250066 0
M  V30 9318 H 869.715 1.89946 -0.0452634 0
M  V30 9319 H 867.865 3.3497 1.96793 0
M  V30 9320 H 869.537 4.60176 -0.321841 0
M  V30 9321 H 867.78 4.32203 -0.371852 0
M  V30 9322 H 868.451 5.46193 0.798554 0
M  V30 9323 H 870.927 3.78017 1.73904 0
M  V30 9324 H 869.803 4.78466 2.69002 0
M  V30 9325 H 870.064 3.10801 3.14413 0
M  V30 9326 N 869.123 -0.277682 1.55134 0
M  V30 9327 C 870.348 -1.03254 1.7987 0
M  V30 9328 C 870.773 -1.79324 0.567861 0
M  V30 9329 O 870.131 -1.74764 -0.4824 0
M  V30 9330 C 870.179 -1.9705 3.02 0
M  V30 9331 O 869.283 -3.05744 2.76757 0
M  V30 9332 H 868.624 -0.295447 0.594649 0
M  V30 9333 H 871.154 -0.308013 2.02268 0
M  V30 9334 H 871.164 -2.3909 3.30606 0
M  V30 9335 H 869.839 -1.41094 3.91236 0
M  V30 9336 H 868.416 -2.68052 2.59235 0
M  V30 9337 N 870.601 -1.47988 -0.541979 0
M  V30 9338 C 871.531 -1.64503 -1.65713 0
M  V30 9339 C 872.512 -0.494116 -1.62765 0
M  V30 9340 O 873.697 -0.725256 -1.80149 0
M  V30 9341 C 870.827 -1.67337 -3.04328 0
M  V30 9342 C 869.781 -2.81809 -3.2213 0
M  V30 9343 C 869.107 -2.69724 -4.61685 0
M  V30 9344 C 870.407 -4.23241 -3.06046 0
M  V30 9345 H 872.101 -2.5786 -1.52147 0
M  V30 9346 H 869.647 -1.24094 -0.730529 0
M  V30 9347 H 871.6 -1.77481 -3.82202 0
M  V30 9348 H 870.324 -0.705514 -3.18889 0
M  V30 9349 H 868.983 -2.71201 -2.46669 0
M  V30 9350 H 868.631 -1.70934 -4.73065 0
M  V30 9351 H 868.331 -3.4653 -4.74543 0
M  V30 9352 H 869.855 -2.81818 -5.41674 0
M  V30 9353 H 871.269 -4.34746 -3.73723 0
M  V30 9354 H 869.666 -5.00952 -3.30405 0
M  V30 9355 H 870.736 -4.40543 -2.02609 0
M  V30 9356 N 872.079 0.78992 -1.36375 0
M  V30 9357 C 873.027 1.92394 -1.30719 0
M  V30 9358 C 874.021 1.68226 -0.199076 0
M  V30 9359 O 875.227 1.76239 -0.366051 0
M  V30 9360 H 871.602 0.632382 -0.406936 0
M  V30 9361 H 873.573 1.94282 -2.26488 0
M  V30 9362 C 872.322 3.2941 -1.11284 0
M  V30 9363 H 871.645 3.48573 -1.95798 0
M  V30 9364 H 873.085 4.09111 -1.11373 0
M  V30 9365 C 871.544 3.36405 0.182543 0
M  V30 9366 O 872.074 3.84206 1.17255 0
M  V30 9367 N 870.28 2.89712 0.227046 0
M  V30 9368 H 869.827 2.51004 -0.579217 0
M  V30 9369 H 869.785 2.94773 1.09344 0
M  V30 9370 N 873.557 1.20646 1.01402 0
M  V30 9371 C 874.49 0.900926 2.09663 0
M  V30 9372 C 875.468 -0.14801 1.61925 0
M  V30 9373 O 876.652 -0.0210235 1.88488 0
M  V30 9374 C 873.779 0.351097 3.36875 0
M  V30 9375 C 872.825 1.38142 4.03508 0
M  V30 9376 S 873.658 2.94741 4.47089 0
M  V30 9377 C 874.814 2.41341 5.77499 0
M  V30 9378 H 875.047 1.81773 2.35257 0
M  V30 9379 H 872.58 1.03521 1.14555 0
M  V30 9380 H 874.538 0.0404201 4.1048 0
M  V30 9381 H 873.199 -0.544255 3.09349 0
M  V30 9382 H 872.392 0.94614 4.9504 0
M  V30 9383 H 871.994 1.63971 3.36139 0
M  V30 9384 H 874.286 1.81263 6.52802 0
M  V30 9385 H 875.229 3.31278 6.25828 0
M  V30 9386 H 875.637 1.83374 5.33886 0
M  V30 9387 N 875.035 -1.20752 1.01276 0
M  V30 9388 C 875.998 -2.2162 0.584583 0
M  V30 9389 C 876.998 -1.57094 -0.343215 0
M  V30 9390 O 878.188 -1.73696 -0.132433 0
M  V30 9391 C 875.32 -3.40583 -0.146872 0
M  V30 9392 H 876.513 -2.61015 1.47686 0
M  V30 9393 H 874.066 -1.34148 0.802123 0
M  V30 9394 H 874.801 -3.06686 -1.05424 0
M  V30 9395 H 874.586 -3.88642 0.51958 0
M  V30 9396 H 876.076 -4.15339 -0.433924 0
M  V30 9397 N 876.513 -0.788492 -1.36457 0
M  V30 9398 C 877.741 -0.372365 -2.03522 0
M  V30 9399 C 878.156 1.01093 -1.59454 0
M  V30 9400 O 877.513 1.64824 -0.783535 0
M  V30 9401 C 877.564 -0.425435 -3.58988 0
M  V30 9402 O 877.285 -1.75418 -4.01448 0
M  V30 9403 C 878.786 0.000180167 -4.433 0
M  V30 9404 H 876.006 -0.1536 -0.653183 0
M  V30 9405 H 878.55 -1.06708 -1.74452 0
M  V30 9406 H 876.705 0.220856 -3.8677 0
M  V30 9407 H 877.119 -1.70437 -4.96036 0
M  V30 9408 H 878.593 -0.0880919 -5.5193 0
M  V30 9409 H 879.07 1.05269 -4.26398 0
M  V30 9410 H 879.676 -0.618563 -4.20778 0
M  V30 9411 N 877.991 1.48044 -0.54043 0
M  V30 9412 C 879.239 2.02097 -0.0101367 0
M  V30 9413 C 879.56 1.41881 1.33771 0
M  V30 9414 O 878.83 0.587923 1.8687 0
M  V30 9415 H 877.41 0.747 -0.000758716 0
M  V30 9416 H 880.072 1.81639 -0.706634 0
M  V30 9417 H 879.168 3.11969 0.0904474 0
M  V30 9418 N 879.47 0.276058 1.55163 0
M  V30 9419 C 880.403 -0.652386 2.18676 0
M  V30 9420 C 881.381 -1.15151 1.148 0
M  V30 9421 O 882.565 -1.22431 1.43328 0
M  V30 9422 C 879.692 -1.88982 2.81076 0
M  V30 9423 C 878.738 -1.52609 3.98262 0
M  V30 9424 S 879.571 -0.603445 5.32089 0
M  V30 9425 C 880.727 -1.84923 5.97958 0
M  V30 9426 H 880.96 -0.112733 2.97086 0
M  V30 9427 H 878.493 0.0603118 1.54282 0
M  V30 9428 H 880.451 -2.60007 3.17658 0
M  V30 9429 H 879.112 -2.40061 2.02557 0
M  V30 9430 H 878.305 -2.44689 4.40617 0
M  V30 9431 H 877.907 -0.89601 3.63108 0
M  V30 9432 H 880.199 -2.79303 6.17249 0
M  V30 9433 H 881.142 -1.46868 6.92702 0
M  V30 9434 H 881.55 -2.0146 5.27327 0
M  V30 9435 N 880.948 -1.576 0.00335426 0
M  V30 9436 C 882.225 -1.81945 -0.718015 0
M  V30 9437 C 882.605 -0.881788 -1.91801 0
M  V30 9438 O 881.953 0.0687118 -2.28397 0
M  V30 9439 C 882.163 -3.30521 -1.12058 0
M  V30 9440 C 883.511 -3.96345 -1.52303 0
M  V30 9441 O 884.535 -3.34864 -1.21428 0
M  V30 9442 O 883.394 -5.04655 -2.09728 0
M  V30 9443 H 880.488 -0.749328 -0.34991 0
M  V30 9444 H 883.034 -1.69675 0.0290654 0
M  V30 9445 H 881.806 -3.90399 -0.265378 0
M  V30 9446 H 881.429 -3.47802 -1.92665 0
M  V30 9447 N 882.426 0.269451 -1.5528 0
M  V30 9448 C 883.651 1.02299 -1.80415 0
M  V30 9449 C 884.076 1.7902 -0.577363 0
M  V30 9450 O 883.434 1.75018 0.473125 0
M  V30 9451 C 883.482 1.95445 -3.0304 0
M  V30 9452 O 882.586 3.04271 -2.78375 0
M  V30 9453 H 881.927 0.292289 -0.596207 0
M  V30 9454 H 884.457 0.297282 -2.02429 0
M  V30 9455 H 884.467 2.37333 -3.31869 0
M  V30 9456 H 883.142 1.39017 -3.91978 0
M  V30 9457 H 881.719 2.66673 -2.60653 0
M  V30 9458 N 883.904 1.48273 0.534124 0
M  V30 9459 C 885.15 1.5729 1.28963 0
M  V30 9460 C 885.505 0.241854 1.90874 0
M  V30 9461 O 884.798 -0.754874 1.76103 0
M  V30 9462 C 884.992 2.64468 2.40398 0
M  V30 9463 C 884.821 4.07865 1.8941 0
M  V30 9464 C 883.591 4.75052 1.72202 0
M  V30 9465 C 885.789 4.94163 1.42505 0
M  V30 9466 N 883.771 6.0288 1.15795 0
M  V30 9467 C 885.142 6.12203 0.980176 0
M  V30 9468 C 887.197 4.8042 1.30769 0
M  V30 9469 C 885.9 7.18016 0.429591 0
M  V30 9470 C 887.926 5.86351 0.771107 0
M  V30 9471 C 887.288 7.03597 0.336287 0
M  V30 9472 H 883.387 0.630141 0.463083 0
M  V30 9473 H 885.971 1.85135 0.602767 0
M  V30 9474 H 884.142 2.38453 3.06586 0
M  V30 9475 H 885.874 2.63194 3.07426 0
M  V30 9476 H 882.629 4.3132 1.95603 0
M  V30 9477 H 883.053 6.71043 0.896141 0
M  V30 9478 H 887.695 3.90119 1.62993 0
M  V30 9479 H 885.413 8.08044 0.0950224 0
M  V30 9480 H 888.999 5.77771 0.68354 0
M  V30 9481 H 887.879 7.84167 -0.0724668 0
M  V30 9482 N 885.382 -0.782676 1.36792 0
M  V30 9483 C 886.628 -1.54311 1.3159 0
M  V30 9484 C 886.961 -1.93928 -0.102696 0
M  V30 9485 O 886.236 -1.63233 -1.05761 0
M  V30 9486 C 886.519 -2.81561 2.24489 0
M  V30 9487 C 886.372 -2.48268 3.75078 0
M  V30 9488 C 887.691 -3.83428 2.16034 0
M  V30 9489 H 884.81 -0.559828 0.479335 0
M  V30 9490 H 887.452 -0.898717 1.67401 0
M  V30 9491 H 885.602 -3.36549 1.9408 0
M  V30 9492 H 887.274 -1.99279 4.16036 0
M  V30 9493 H 885.517 -1.81116 3.94182 0
M  V30 9494 H 886.188 -3.39183 4.35499 0
M  V30 9495 H 888.664 -3.37905 2.42815 0
M  V30 9496 H 887.54 -4.70204 2.83194 0
M  V30 9497 H 887.801 -4.26887 1.14976 0
M  V30 9498 N 886.86 -1.21182 -1.00761 0
M  V30 9499 C 887.823 -0.970339 -2.07646 0
M  V30 9500 C 888.823 0.0576345 -1.60697 0
M  V30 9501 O 890.013 -0.179369 -1.73274 0
M  V30 9502 C 887.145 -0.462703 -3.37745 0
M  V30 9503 H 888.338 -1.91856 -2.30502 0
M  V30 9504 H 885.891 -1.02844 -1.17698 0
M  V30 9505 H 886.626 0.490559 -3.20568 0
M  V30 9506 H 886.411 -1.20416 -3.73152 0
M  V30 9507 H 887.901 -0.313531 -4.16421 0
M  V30 9508 N 888.338 1.20213 -1.01915 0
M  V30 9509 C 889.268 2.25336 -0.612023 0
M  V30 9510 C 890.249 1.65933 0.374186 0
M  V30 9511 O 891.434 1.92464 0.259053 0
M  V30 9512 C 888.564 3.47267 0.047904 0
M  V30 9513 C 887.518 4.1928 -0.859557 0
M  V30 9514 C 886.844 5.3466 -0.0652655 0
M  V30 9515 C 888.144 4.75143 -2.1688 0
M  V30 9516 H 889.838 2.59645 -1.49079 0
M  V30 9517 H 887.384 1.24808 -0.718263 0
M  V30 9518 H 889.337 4.19991 0.344294 0
M  V30 9519 H 888.061 3.12129 0.961404 0
M  V30 9520 H 886.72 3.48425 -1.13999 0
M  V30 9521 H 886.368 4.95767 0.849964 0
M  V30 9522 H 886.068 5.83772 -0.669618 0
M  V30 9523 H 887.592 6.10187 0.224612 0
M  V30 9524 H 889.006 5.39672 -1.9346 0
M  V30 9525 H 887.403 5.34702 -2.72422 0
M  V30 9526 H 888.473 3.93744 -2.83008 0
M  V30 9527 N 889.816 0.795718 1.36037 0
M  V30 9528 C 890.779 0.204318 2.28287 0
M  V30 9529 C 891.779 -0.602017 1.49105 0
M  V30 9530 O 892.969 -0.422089 1.69009 0
M  V30 9531 C 890.101 -0.716431 3.33287 0
M  V30 9532 H 891.294 1.01781 2.821 0
M  V30 9533 H 888.847 0.565588 1.45708 0
M  V30 9534 H 889.582 -1.55403 2.84641 0
M  V30 9535 H 889.367 -0.140096 3.9185 0
M  V30 9536 H 890.857 -1.12488 4.02164 0
M  V30 9537 N 891.294 -1.47756 0.548274 0
M  V30 9538 C 892.257 -2.28379 -0.193857 0
M  V30 9539 C 893.257 -1.36436 -0.850986 0
M  V30 9540 O 894.447 -1.59154 -0.70822 0
M  V30 9541 C 891.579 -3.15858 -1.28243 0
M  V30 9542 H 892.772 -2.95458 0.514231 0
M  V30 9543 H 890.325 -1.53298 0.304879 0
M  V30 9544 H 891.06 -2.5345 -2.0232 0
M  V30 9545 H 890.845 -3.83512 -0.816148 0
M  V30 9546 H 892.335 -3.76627 -1.80393 0
M  V30 9547 N 892.772 -0.284283 -1.55015 0
M  V30 9548 C 894.018 0.330352 -2.00091 0
M  V30 9549 C 894.351 1.54814 -1.17244 0
M  V30 9550 O 893.626 1.92954 -0.244753 0
M  V30 9551 C 893.909 0.703492 -3.53161 0
M  V30 9552 C 893.762 -0.522275 -4.46758 0
M  V30 9553 C 895.081 1.53645 -4.12409 0
M  V30 9554 H 892.2 0.118599 -0.727395 0
M  V30 9555 H 894.842 -0.393054 -1.8589 0
M  V30 9556 H 892.992 1.31983 -3.65394 0
M  V30 9557 H 894.664 -1.16082 -4.46456 0
M  V30 9558 H 892.907 -1.15865 -4.1804 0
M  V30 9559 H 893.578 -0.217295 -5.51572 0
M  V30 9560 H 896.054 1.01583 -4.0351 0
M  V30 9561 H 894.93 1.76633 -5.19704 0
M  V30 9562 H 895.191 2.5204 -3.63219 0
M  V30 9563 N 894.251 1.57596 -0.0117121 0
M  V30 9564 C 895.528 1.82323 0.708356 0
M  V30 9565 C 895.908 0.891947 1.91331 0
M  V30 9566 O 895.256 -0.0565984 2.2843 0
M  V30 9567 C 895.466 3.31111 1.10303 0
M  V30 9568 C 896.814 3.97147 1.50199 0
M  V30 9569 O 897.838 3.35503 1.1965 0
M  V30 9570 O 896.697 5.0576 2.07049 0
M  V30 9571 H 893.791 0.751173 0.345931 0
M  V30 9572 H 896.337 1.69657 -0.0380632 0
M  V30 9573 H 895.109 3.90534 0.24467 0
M  V30 9574 H 894.732 3.48818 1.90818 0
M  V30 9575 N 895.729 -0.261212 1.5542 0
M  V30 9576 C 896.954 -1.01341 1.80955 0
M  V30 9577 C 897.379 -1.78711 0.586849 0
M  V30 9578 O 896.737 -1.75266 -0.463837 0
M  V30 9579 C 896.785 -1.93835 3.04073 0
M  V30 9580 O 895.889 -3.02791 2.79985 0
M  V30 9581 H 895.23 -0.289123 0.597749 0
M  V30 9582 H 897.76 -0.286543 2.02584 0
M  V30 9583 H 897.77 -2.3557 3.33123 0
M  V30 9584 H 896.445 -1.36936 3.9271 0
M  V30 9585 H 895.022 -2.65287 2.62063 0
M  V30 9586 N 897.207 -1.48554 -0.526253 0
M  V30 9587 C 898.17 -1.62868 -1.61266 0
M  V30 9588 C 899.17 -0.501762 -1.52771 0
M  V30 9589 O 900.36 -0.76764 -1.56374 0
M  V30 9590 C 897.492 -1.60238 -3.00893 0
M  V30 9591 H 898.685 -2.59742 -1.49913 0
M  V30 9592 H 896.238 -1.37207 -0.748595 0
M  V30 9593 H 896.973 -0.648545 -3.17749 0
M  V30 9594 H 896.758 -2.42054 -3.08468 0
M  V30 9595 H 898.248 -1.73455 -3.79872 0
M  V30 9596 N 898.685 0.775411 -1.37205 0
M  V30 9597 C 899.931 1.53611 -1.32407 0
M  V30 9598 C 900.264 1.9398 0.0924103 0
M  V30 9599 O 899.539 1.63791 1.04893 0
M  V30 9600 C 899.822 2.80367 -2.25979 0
M  V30 9601 C 899.675 2.46275 -3.76389 0
M  V30 9602 C 900.994 3.82277 -2.18064 0
M  V30 9603 H 898.113 0.557278 -0.482297 0
M  V30 9604 H 900.755 0.889826 -1.67875 0
M  V30 9605 H 898.905 3.35515 -1.95862 0
M  V30 9606 H 900.577 1.9707 -4.17087 0
M  V30 9607 H 898.82 1.79023 -3.95137 0
M  V30 9608 H 899.491 3.36868 -4.37291 0
M  V30 9609 H 901.967 3.36613 -2.44604 0
M  V30 9610 H 900.843 4.68696 -2.85684 0
M  V30 9611 H 901.104 4.26272 -1.17239 0
M  V30 9612 N 900.163 1.21714 1.00117 0
M  V30 9613 C 901.393 1.06124 1.77261 0
M  V30 9614 C 901.801 -0.391717 1.85101 0
M  V30 9615 O 901.144 -1.28347 1.31426 0
M  V30 9616 C 901.206 1.58778 3.22536 0
M  V30 9617 C 900.87 3.07289 3.38264 0
M  V30 9618 C 901.867 4.04801 3.26239 0
M  V30 9619 C 899.552 3.46574 3.63582 0
M  V30 9620 C 901.546 5.39585 3.39303 0
M  V30 9621 C 899.233 4.81509 3.76288 0
M  V30 9622 C 900.231 5.77824 3.64155 0
M  V30 9623 O 899.919 7.1031 3.7645 0
M  V30 9624 H 899.651 0.372979 0.563793 0
M  V30 9625 H 902.205 1.61589 1.26799 0
M  V30 9626 H 900.435 0.977129 3.74151 0
M  V30 9627 H 902.124 1.38974 3.81367 0
M  V30 9628 H 902.89 3.75795 3.066 0
M  V30 9629 H 898.769 2.72137 3.72106 0
M  V30 9630 H 902.313 6.14744 3.2975 0
M  V30 9631 H 898.21 5.102 3.95432 0
M  V30 9632 H 898.978 7.17774 3.93374 0
M  V30 9633 N 901.641 -1.19671 1.02551 0
M  V30 9634 C 902.889 -1.88894 0.71858 0
M  V30 9635 C 903.21 -1.79797 -0.754856 0
M  V30 9636 O 902.48 -1.20621 -1.54362 0
M  V30 9637 H 901.06 -0.699244 0.262806 0
M  V30 9638 H 903.722 -1.45298 1.29902 0
M  V30 9639 H 902.818 -2.95309 1.00989 0
M  V30 9640 N 903.119 -0.802921 -1.35613 0
M  V30 9641 C 904.365 -0.382141 -1.99167 0
M  V30 9642 C 904.698 1.04704 -1.63556 0
M  V30 9643 O 903.973 1.72578 -0.89706 0
M  V30 9644 C 904.256 -0.561493 -3.55695 0
M  V30 9645 C 904.109 -2.03534 -4.01116 0
M  V30 9646 C 905.428 0.0151135 -4.40097 0
M  V30 9647 H 902.547 -0.140322 -0.723518 0
M  V30 9648 H 905.189 -1.01177 -1.6082 0
M  V30 9649 H 903.339 -0.0255083 -3.88492 0
M  V30 9650 H 905.011 -2.63343 -3.78746 0
M  V30 9651 H 903.254 -2.5331 -3.52159 0
M  V30 9652 H 903.925 -2.11173 -5.1001 0
M  V30 9653 H 906.401 -0.442582 -4.1374 0
M  V30 9654 H 905.277 -0.140316 -5.48721 0
M  V30 9655 H 905.538 1.10848 -4.27978 0
M  V30 9656 N 904.597 1.47463 -0.556102 0
M  V30 9657 C 905.529 2.28046 0.22968 0
M  V30 9658 C 906.542 1.3694 0.880409 0
M  V30 9659 O 907.731 1.61773 0.754447 0
M  V30 9660 C 904.831 3.11165 1.34273 0
M  V30 9661 C 904.004 4.30225 0.789004 0
M  V30 9662 C 903.063 4.94948 1.78641 0
M  V30 9663 O 902.089 5.53372 1.33297 0
M  V30 9664 N 903.291 4.89543 3.11974 0
M  V30 9665 H 906.056 2.96125 -0.461558 0
M  V30 9666 H 903.617 1.5708 -0.392105 0
M  V30 9667 H 905.609 3.51331 2.00869 0
M  V30 9668 H 904.179 2.45337 1.93722 0
M  V30 9669 H 903.399 3.94163 -0.0536971 0
M  V30 9670 H 904.687 5.07238 0.398378 0
M  V30 9671 H 904.085 4.43275 3.51459 0
M  V30 9672 H 902.642 5.33732 3.74131 0
M  V30 9673 N 906.075 0.2925 1.54862 0
M  V30 9674 C 907.491 -0.0611461 1.59483 0
M  V30 9675 C 907.691 -1.53141 1.30958 0
M  V30 9676 O 906.747 -2.28291 1.07887 0
M  V30 9677 C 908.06 0.329143 2.98893 0
M  V30 9678 C 909.608 0.2772 3.1177 0
M  V30 9679 C 910.083 0.642185 4.53475 0
M  V30 9680 N 911.574 0.594396 4.5937 0
M  V30 9681 C 912.309 0.849385 5.67074 0
M  V30 9682 N 911.805 1.1699 6.82851 0
M  V30 9683 N 913.598 0.777016 5.56704 0
M  V30 9684 H 905.749 1.25079 1.71665 0
M  V30 9685 H 908.012 0.506516 0.80134 0
M  V30 9686 H 907.718 1.35233 3.24661 0
M  V30 9687 H 907.592 -0.321442 3.75828 0
M  V30 9688 H 909.979 -0.736725 2.85756 0
M  V30 9689 H 910.06 0.962289 2.3701 0
M  V30 9690 H 909.704 1.65388 4.80218 0
M  V30 9691 H 909.634 -0.0648831 5.2656 0
M  V30 9692 H 912.125 0.357256 3.76208 0
M  V30 9693 H 912.438 1.35067 7.60905 0
M  V30 9694 H 910.783 1.20785 6.84424 0
M  V30 9695 H 913.974 0.526333 4.65132 0
M  V30 9696 H 914.147 0.979113 6.4056 0
M  V30 9697 N 907.553 -1.57587 0.0200696 0
M  V30 9698 C 908.801 -1.91046 -0.65922 0
M  V30 9699 C 909.122 -0.896197 -1.73186 0
M  V30 9700 O 908.392 0.0635952 -1.95797 0
M  V30 9701 H 906.972 -0.705163 -0.246483 0
M  V30 9702 H 909.634 -1.94789 0.0657368 0
M  V30 9703 H 908.73 -2.91399 -1.11773 0
M  V30 9704 N 909.032 0.252966 -1.55557 0
M  V30 9705 C 909.995 1.29645 -1.8901 0
M  V30 9706 C 910.995 1.41378 -0.766096 0
M  V30 9707 O 912.185 1.40183 -1.03414 0
M  V30 9708 C 909.317 2.67504 -2.11316 0
M  V30 9709 H 910.51 1.01202 -2.82309 0
M  V30 9710 H 908.063 0.491977 -1.48355 0
M  V30 9711 H 908.798 3.01095 -1.20466 0
M  V30 9712 H 908.583 2.6037 -2.93172 0
M  V30 9713 H 910.073 3.42861 -2.38403 0
M  V30 9714 N 910.51 1.48831 0.518367 0
M  V30 9715 C 911.457 1.64216 1.62178 0
M  V30 9716 C 912.427 0.483942 1.58894 0
M  V30 9717 O 913.612 0.708857 1.77144 0
M  V30 9718 C 910.752 1.69867 3.00399 0
M  V30 9719 C 909.865 2.96875 3.1383 0
M  V30 9720 C 909 2.93613 4.42679 0
M  V30 9721 C 908.039 4.15276 4.4968 0
M  V30 9722 N 907.176 4.10024 5.69934 0
M  V30 9723 H 912.016 2.58439 1.48368 0
M  V30 9724 H 909.553 1.28154 0.722152 0
M  V30 9725 H 911.511 1.71124 3.8049 0
M  V30 9726 H 910.141 0.791249 3.12952 0
M  V30 9727 H 909.193 3.0531 2.26914 0
M  V30 9728 H 910.505 3.86863 3.14863 0
M  V30 9729 H 909.659 2.93337 5.31073 0
M  V30 9730 H 908.398 2.01375 4.44184 0
M  V30 9731 H 907.403 4.15816 3.59691 0
M  V30 9732 H 908.628 5.08687 4.49904 0
M  V30 9733 H 906.574 3.20613 5.72314 0
M  V30 9734 H 906.491 4.93728 5.72511 0
M  V30 9735 H 907.759 4.13824 6.60583 0
M  V30 9736 N 911.988 -0.768124 1.37614 0
M  V30 9737 C 912.935 -1.88151 1.33671 0
M  V30 9738 C 913.905 -1.64871 0.201645 0
M  V30 9739 O 915.09 -1.86739 0.391582 0
M  V30 9740 C 912.23 -3.25264 1.15314 0
M  V30 9741 C 911.343 -3.60473 2.38082 0
M  V30 9742 C 910.478 -4.86814 2.12569 0
M  V30 9743 C 909.517 -5.14765 3.31184 0
M  V30 9744 N 908.654 -6.32295 3.052 0
M  V30 9745 H 913.494 -1.90857 2.28862 0
M  V30 9746 H 911.031 -0.933048 1.13722 0
M  V30 9747 H 912.989 -4.04364 1.02691 0
M  V30 9748 H 911.619 -3.21924 0.237689 0
M  V30 9749 H 910.671 -2.7633 2.61431 0
M  V30 9750 H 911.983 -3.77065 3.26532 0
M  V30 9751 H 911.137 -5.73826 1.96999 0
M  V30 9752 H 909.876 -4.72333 1.21462 0
M  V30 9753 H 908.881 -4.26227 3.4729 0
M  V30 9754 H 910.106 -5.31153 4.23147 0
M  V30 9755 H 908.052 -6.19166 2.16726 0
M  V30 9756 H 907.969 -6.4932 3.87195 0
M  V30 9757 H 909.237 -7.22234 2.93254 0
M  V30 9758 N 913.466 -1.22244 -0.994698 0
M  V30 9759 C 914.877 -1.043 -1.5485 0
M  V30 9760 C 915.228 0.394102 -1.92201 0
M  V30 9761 O 914.353 1.27883 -1.74571 0
M  V30 9762 C 914.948 -1.88708 -2.8138 0
M  V30 9763 C 913.507 -1.75067 -3.3321 0
M  V30 9764 C 912.654 -1.85286 -2.06312 0
M  V30 9765 H 915.605 -1.36115 -0.815988 0
M  V30 9766 H 915.626 -1.40342 -3.53673 0
M  V30 9767 H 915.138 -2.93296 -2.54164 0
M  V30 9768 H 913.239 -0.732047 -3.65338 0
M  V30 9769 H 913.352 -2.57632 -4.03934 0
M  V30 9770 H 911.716 -1.28706 -2.19788 0
M  V30 9771 H 912.499 -2.91401 -1.81494 0
M  V30 9772 N 914.944 1.19125 -1.03184 0
M  V30 9773 C 915.874 2.24675 -0.635889 0
M  V30 9774 C 916.855 1.66321 0.356565 0
M  V30 9775 O 918.04 1.92728 0.238625 0
M  V30 9776 C 915.17 3.47298 0.011069 0
M  V30 9777 C 914.124 4.18345 -0.903979 0
M  V30 9778 C 913.45 5.34561 -0.12197 0
M  V30 9779 C 914.75 4.72816 -2.21907 0
M  V30 9780 H 916.444 2.5805 -1.51825 0
M  V30 9781 H 913.99 1.24039 -0.73146 0
M  V30 9782 H 915.943 4.20333 0.299729 0
M  V30 9783 H 914.667 3.13131 0.928245 0
M  V30 9784 H 913.326 3.47196 -1.17688 0
M  V30 9785 H 912.974 4.9664 0.797334 0
M  V30 9786 H 912.674 5.83029 -0.731498 0
M  V30 9787 H 914.198 6.10391 0.159881 0
M  V30 9788 H 915.612 5.3759 -1.99173 0
M  V30 9789 H 914.009 5.31782 -2.78078 0
M  V30 9790 H 915.079 3.9072 -2.87168 0
M  V30 9791 N 916.422 0.810101 1.35185 0
M  V30 9792 C 917.332 0.224565 2.33523 0
M  V30 9793 C 918.348 -0.634287 1.62027 0
M  V30 9794 O 919.524 -0.545211 1.9388 0
M  V30 9795 C 916.589 -0.614319 3.41214 0
M  V30 9796 C 915.65 0.265435 4.28479 0
M  V30 9797 C 914.883 -0.533506 5.31027 0
M  V30 9798 O 915.106 -1.7679 5.42311 0
M  V30 9799 O 914.04 0.0774573 6.0185 0
M  V30 9800 H 917.866 1.03815 2.85405 0
M  V30 9801 H 915.451 0.571964 1.38018 0
M  V30 9802 H 917.333 -1.09201 4.07005 0
M  V30 9803 H 916.008 -1.40545 2.91597 0
M  V30 9804 H 914.915 0.790343 3.65656 0
M  V30 9805 H 916.248 1.0206 4.81503 0
M  V30 9806 N 917.9 -1.47166 0.563914 0
M  V30 9807 C 919.316 -1.58018 0.224173 0
M  V30 9808 C 919.516 -1.56163 -1.27339 0
M  V30 9809 O 918.572 -1.4686 -2.05398 0
M  V30 9810 C 919.885 -2.88236 0.856762 0
M  V30 9811 C 921.433 -3.01833 0.82861 0
M  V30 9812 C 921.908 -4.34761 1.44039 0
M  V30 9813 N 923.399 -4.41413 1.40388 0
M  V30 9814 C 924.134 -5.42845 1.84681 0
M  V30 9815 N 923.63 -6.51052 2.3686 0
M  V30 9816 N 925.423 -5.33931 1.75711 0
M  V30 9817 H 917.574 -1.46615 1.53681 0
M  V30 9818 H 919.837 -0.698195 0.64127 0
M  V30 9819 H 919.543 -2.95349 1.90949 0
M  V30 9820 H 919.417 -3.75537 0.353766 0
M  V30 9821 H 921.804 -2.94312 -0.215451 0
M  V30 9822 H 921.885 -2.16056 1.36943 0
M  V30 9823 H 921.529 -4.43037 2.48355 0
M  V30 9824 H 921.459 -5.1928 0.874953 0
M  V30 9825 H 923.95 -3.63811 1.02227 0
M  V30 9826 H 924.263 -7.24633 2.68564 0
M  V30 9827 H 922.608 -6.51924 2.40875 0
M  V30 9828 H 925.799 -4.48295 1.34718 0
M  V30 9829 H 925.972 -6.12841 2.10547 0
M  V30 9830 N 919.378 -0.300708 -1.54705 0
M  V30 9831 C 920.624 0.309111 -2.0043 0
M  V30 9832 C 920.957 1.53562 -1.1888 0
M  V30 9833 O 920.232 1.92683 -0.265205 0
M  V30 9834 C 920.515 0.665995 -3.53888 0
M  V30 9835 C 920.368 -0.56963 -4.46178 0
M  V30 9836 C 921.687 1.49262 -4.14016 0
M  V30 9837 H 918.806 0.110878 -0.728612 0
M  V30 9838 H 921.448 -0.412748 -1.85463 0
M  V30 9839 H 919.598 1.281 -3.66773 0
M  V30 9840 H 921.27 -1.20811 -4.45199 0
M  V30 9841 H 919.513 -1.20292 -4.16788 0
M  V30 9842 H 920.184 -0.275785 -5.51311 0
M  V30 9843 H 922.66 0.972979 -4.04564 0
M  V30 9844 H 921.536 1.71111 -5.21548 0
M  V30 9845 H 921.797 2.48174 -3.65872 0
M  V30 9846 N 920.856 1.57574 -0.0284266 0
M  V30 9847 C 922.103 1.91772 0.650364 0
M  V30 9848 C 922.431 0.904769 1.72175 0
M  V30 9849 O 921.686 -0.0864038 1.95509 0
M  V30 9850 C 921.985 3.32699 1.3056 0
M  V30 9851 C 921.651 4.49423 0.364658 0
M  V30 9852 C 920.313 4.81084 0.105672 0
M  V30 9853 C 922.665 5.20439 -0.28151 0
M  V30 9854 C 919.993 5.81119 -0.8073 0
M  V30 9855 C 922.345 6.21449 -1.18253 0
M  V30 9856 C 921.009 6.51551 -1.45042 0
M  V30 9857 H 920.279 0.701744 0.237985 0
M  V30 9858 H 922.926 1.91288 -0.0900448 0
M  V30 9859 H 921.231 3.29441 2.12075 0
M  V30 9860 H 922.928 3.5643 1.83736 0
M  V30 9861 H 919.518 4.24703 0.576692 0
M  V30 9862 H 923.702 4.9621 -0.0944806 0
M  V30 9863 H 918.958 6.02788 -1.02256 0
M  V30 9864 H 923.132 6.75597 -1.68942 0
M  V30 9865 H 920.759 7.28882 -2.15951 0
M  V30 9866 N 922.334 -0.244713 1.55689 0
M  V30 9867 C 923.266 -1.32595 1.86952 0
M  V30 9868 C 924.279 -1.44185 0.755948 0
M  V30 9869 O 925.468 -1.45496 1.03408 0
M  V30 9870 C 922.568 -2.70429 2.04258 0
M  V30 9871 C 921.741 -2.8108 3.35131 0
M  V30 9872 C 920.8 -3.99773 3.42152 0
M  V30 9873 O 919.826 -3.89197 4.15348 0
M  V30 9874 N 921.028 -5.13041 2.71604 0
M  V30 9875 H 923.793 -1.06111 2.80287 0
M  V30 9876 H 921.354 -0.434811 1.55952 0
M  V30 9877 H 923.346 -3.48173 2.06295 0
M  V30 9878 H 921.916 -2.89612 1.17658 0
M  V30 9879 H 921.136 -1.89994 3.45392 0
M  V30 9880 H 922.424 -2.85147 4.21389 0
M  V30 9881 H 921.822 -5.24525 2.11872 0
M  V30 9882 H 920.379 -5.88912 2.79331 0
M  V30 9883 N 923.813 -1.49104 -0.510467 0
M  V30 9884 C 925.06 -1.58112 -1.26518 0
M  V30 9885 C 925.388 -0.263603 -1.92705 0
M  V30 9886 O 924.643 0.747743 -1.80852 0
M  V30 9887 C 924.942 -2.68259 -2.36161 0
M  V30 9888 C 924.608 -4.10069 -1.87495 0
M  V30 9889 C 923.27 -4.48662 -1.73942 0
M  V30 9890 C 925.622 -4.98859 -1.5096 0
M  V30 9891 C 922.95 -5.73829 -1.22217 0
M  V30 9892 C 925.302 -6.24535 -1.00691 0
M  V30 9893 C 923.966 -6.61967 -0.857691 0
M  V30 9894 H 923.236 -0.578574 -0.462962 0
M  V30 9895 H 925.883 -1.82899 -0.567475 0
M  V30 9896 H 924.188 -2.37407 -3.11681 0
M  V30 9897 H 925.885 -2.7244 -2.9424 0
M  V30 9898 H 922.475 -3.79601 -1.99001 0
M  V30 9899 H 926.659 -4.69706 -1.60282 0
M  V30 9900 H 921.915 -6.01539 -1.09368 0
M  V30 9901 H 926.089 -6.9272 -0.71498 0
M  V30 9902 H 923.716 -7.58839 -0.454702 0
M  V30 9903 N 925.291 0.760815 -1.38019 0
M  V30 9904 C 926.221 1.88811 -1.37377 0
M  V30 9905 C 927.202 1.68388 -0.240737 0
M  V30 9906 O 928.387 1.89086 -0.442739 0
M  V30 9907 C 925.517 3.26244 -1.1909 0
M  V30 9908 C 924.471 3.61254 -2.29521 0
M  V30 9909 C 923.797 4.97346 -1.96345 0
M  V30 9910 C 925.097 3.66874 -3.71753 0
M  V30 9911 H 926.791 1.89606 -2.31711 0
M  V30 9912 H 924.337 0.910818 -1.11535 0
M  V30 9913 H 926.29 4.04755 -1.17267 0
M  V30 9914 H 925.014 3.2591 -0.212152 0
M  V30 9915 H 923.673 2.85057 -2.30517 0
M  V30 9916 H 923.321 4.93564 -0.969728 0
M  V30 9917 H 923.021 5.21739 -2.703 0
M  V30 9918 H 924.545 5.78244 -1.96129 0
M  V30 9919 H 925.959 4.35514 -3.72828 0
M  V30 9920 H 924.356 4.02772 -4.44853 0
M  V30 9921 H 925.426 2.67273 -4.0459 0
M  V30 9922 N 926.769 1.22769 0.988202 0
M  V30 9923 C 927.679 1.01844 2.11341 0
M  V30 9924 C 928.695 -0.0346937 1.73965 0
M  V30 9925 O 929.871 0.159061 2.00771 0
M  V30 9926 C 926.936 0.603837 3.41401 0
M  V30 9927 C 925.997 1.73113 3.92849 0
M  V30 9928 C 925.23 1.33621 5.16702 0
M  V30 9929 O 925.453 0.217041 5.69987 0
M  V30 9930 O 924.387 2.15444 5.62021 0
M  V30 9931 H 928.213 1.96127 2.31879 0
M  V30 9932 H 925.798 1.01405 1.09715 0
M  V30 9933 H 927.68 0.383196 4.19654 0
M  V30 9934 H 926.355 -0.310082 3.22211 0
M  V30 9935 H 925.262 2.00634 3.15748 0
M  V30 9936 H 926.595 2.62308 4.1648 0
M  V30 9937 N 928.247 -1.18576 1.03814 0
M  V30 9938 C 929.194 -2.2212 0.626988 0
M  V30 9939 C 930.164 -1.62064 -0.363912 0
M  V30 9940 O 931.349 -1.89041 -0.258469 0
M  V30 9941 C 928.489 -3.45099 -0.00650133 0
M  V30 9942 C 927.602 -4.19503 1.03156 0
M  V30 9943 C 926.737 -5.29932 0.366852 0
M  V30 9944 C 925.776 -5.96104 1.39018 0
M  V30 9945 N 924.913 -6.98076 0.750625 0
M  V30 9946 H 929.753 -2.56646 1.51449 0
M  V30 9947 H 927.29 -1.26084 0.757702 0
M  V30 9948 H 929.248 -4.15363 -0.391108 0
M  V30 9949 H 927.878 -3.11201 -0.857536 0
M  V30 9950 H 926.93 -3.48092 1.53414 0
M  V30 9951 H 928.242 -4.64843 1.80893 0
M  V30 9952 H 927.396 -6.06657 -0.0720979 0
M  V30 9953 H 926.135 -4.85687 -0.442631 0
M  V30 9954 H 925.14 -5.18122 1.8393 0
M  V30 9955 H 926.365 -6.42432 2.20132 0
M  V30 9956 H 924.311 -6.55989 -0.0385981 0
M  V30 9957 H 924.228 -7.41655 1.46574 0
M  V30 9958 H 925.496 -7.78776 0.335986 0
M  V30 9959 N 929.725 -0.817259 -1.34754 0
M  V30 9960 C 930.95 -0.414423 -2.03217 0
M  V30 9961 C 931.375 0.970037 -1.61158 0
M  V30 9962 O 930.733 1.63016 -0.793436 0
M  V30 9963 C 930.781 -0.518087 -3.56859 0
M  V30 9964 O 929.885 0.464314 -4.09778 0
M  V30 9965 H 929.226 -0.171454 -0.641482 0
M  V30 9966 H 931.756 -1.10611 -1.72123 0
M  V30 9967 H 931.766 -0.391779 -4.06115 0
M  V30 9968 H 930.441 -1.52786 -3.86819 0
M  V30 9969 H 929.018 0.297361 -3.71712 0
M  V30 9970 N 931.203 1.46865 -0.571711 0
M  V30 9971 C 932.48 1.95596 0.0132445 0
M  V30 9972 C 932.86 1.51438 1.47071 0
M  V30 9973 O 932.208 0.759917 2.15494 0
M  V30 9974 C 932.418 3.48689 -0.147335 0
M  V30 9975 C 933.766 4.24599 -0.00946329 0
M  V30 9976 O 934.79 3.5612 -0.0756112 0
M  V30 9977 O 933.649 5.46332 0.135361 0
M  V30 9978 H 930.743 0.825102 0.0560039 0
M  V30 9979 H 933.289 1.57199 -0.639256 0
M  V30 9980 H 932.061 3.73681 -1.16096 0
M  V30 9981 H 931.684 3.93887 0.542109 0
M  V30 9982 N 932.681 0.308908 1.54543 0
M  V30 9983 C 933.611 -0.556657 2.26768 0
M  V30 9984 C 934.592 -1.13145 1.27013 0
M  V30 9985 O 935.777 -1.15931 1.558 0
M  V30 9986 C 932.907 -1.72481 3.01443 0
M  V30 9987 C 931.861 -1.28001 4.08411 0
M  V30 9988 C 931.187 -2.53395 4.70845 0
M  V30 9989 C 932.487 -0.405497 5.20724 0
M  V30 9990 H 934.181 0.0457618 2.99365 0
M  V30 9991 H 931.727 0.0234495 1.43981 0
M  V30 9992 H 933.68 -2.3365 3.50693 0
M  V30 9993 H 932.404 -2.35359 2.26437 0
M  V30 9994 H 931.063 -0.69133 3.60022 0
M  V30 9995 H 930.711 -3.14604 3.92471 0
M  V30 9996 H 930.411 -2.2433 5.43093 0
M  V30 9997 H 931.935 -3.15352 5.22863 0
M  V30 9998 H 933.349 -0.923076 5.6582 0
M  V30 9999 H 931.746 -0.208282 5.99738 0
M  V30 10000 H 932.816 0.567412 4.81569 0
M  V30 10001 N 934.159 -1.57557 0.0367827 0
M  V30 10002 C 935.407 -1.91735 -0.63892 0
M  V30 10003 C 935.728 -0.914515 -1.72226 0
M  V30 10004 O 934.998 0.0428248 -1.95853 0
M  V30 10005 H 933.578 -0.707738 -0.23899 0
M  V30 10006 H 936.24 -1.94708 0.0863931 0
M  V30 10007 H 935.336 -2.92568 -1.08676 0
M  V30 10008 N 935.637 0.236453 -1.55816 0
M  V30 10009 C 936.877 0.970249 -1.79904 0
M  V30 10010 C 937.241 1.8212 -0.607965 0
M  V30 10011 O 938.442 2.58759 -0.727833 0
M  V30 10012 C 936.713 1.79938 -3.088 0
M  V30 10013 S 938.272 2.59084 -3.54148 0
M  V30 10014 H 935.09 0.32618 -0.631765 0
M  V30 10015 H 937.692 0.237147 -1.94056 0
M  V30 10016 H 936.396 1.16412 -3.93544 0
M  V30 10017 H 935.927 2.57504 -2.97414 0
M  V30 10018 H 937.942 3.82315 -3.16306 0
M  V30 10019 N 937.115 1.49373 0.502552 0
M  V30 10020 C 938.363 1.58467 1.25429 0
M  V30 10021 C 938.684 0.272593 1.93085 0
M  V30 10022 O 937.954 -0.707947 1.82661 0
M  V30 10023 H 936.534 0.583866 0.46595 0
M  V30 10024 H 939.196 1.8599 0.582568 0
M  V30 10025 H 938.292 2.37993 2.01906 0
M  V30 10026 N 938.594 -0.753485 1.38421 0
M  V30 10027 C 939.557 -1.84888 1.35459 0
M  V30 10028 C 940.557 -1.58764 0.255083 0
M  V30 10029 O 941.747 -1.66507 0.511978 0
M  V30 10030 C 938.879 -3.22361 1.10888 0
M  V30 10031 H 940.072 -1.88922 2.32913 0
M  V30 10032 H 937.625 -0.955199 1.23716 0
M  V30 10033 H 938.36 -3.23996 0.1404 0
M  V30 10034 H 938.145 -3.42717 1.90492 0
M  V30 10035 H 939.635 -4.02437 1.1151 0
M  V30 10036 N 940.072 -1.23292 -0.981677 0
M  V30 10037 C 941.32 -1.06214 -1.71939 0
M  V30 10038 C 941.641 0.401989 -1.90812 0
M  V30 10039 O 940.911 1.28825 -1.47584 0
M  V30 10040 H 939.491 -0.390042 -0.637084 0
M  V30 10041 H 942.153 -1.54988 -1.18173 0
M  V30 10042 H 941.249 -1.54904 -2.70945 0
M  V30 10043 N 941.55 1.18024 -1.04442 0
M  V30 10044 C 942.798 1.87727 -0.74854 0
M  V30 10045 C 943.119 1.80975 0.726156 0
M  V30 10046 O 942.389 1.23061 1.52423 0
M  V30 10047 H 940.969 0.694974 -0.273897 0
M  V30 10048 H 943.631 1.43213 -1.32197 0
M  V30 10049 H 942.727 2.93665 -1.05674 0
M  V30 10050 N 943.028 0.824394 1.34319 0
M  V30 10051 C 944.276 0.41235 1.97849 0
M  V30 10052 C 944.597 -1.02841 1.65677 0
M  V30 10053 O 943.867 -1.71421 0.948245 0
M  V30 10054 H 942.447 0.149486 0.73189 0
M  V30 10055 H 945.109 1.05416 1.63931 0
M  V30 10056 H 944.205 0.532557 3.07523 0
M  V30 10057 N 944.506 -1.46559 0.579492 0
M  V30 10058 C 945.436 -2.33059 -0.143437 0
M  V30 10059 C 946.417 -1.4515 -0.886868 0
M  V30 10060 O 947.602 -1.73973 -0.862961 0
M  V30 10061 C 944.732 -3.27364 -1.15973 0
M  V30 10062 C 943.686 -4.24689 -0.531348 0
M  V30 10063 C 943.012 -5.08479 -1.65388 0
M  V30 10064 C 944.312 -5.1961 0.529391 0
M  V30 10065 H 946.006 -2.93753 0.578762 0
M  V30 10066 H 943.552 -1.41256 0.279775 0
M  V30 10067 H 945.505 -3.86732 -1.67382 0
M  V30 10068 H 944.229 -2.64771 -1.91217 0
M  V30 10069 H 942.888 -3.6658 -0.0383749 0
M  V30 10070 H 942.536 -4.42273 -2.3959 0
M  V30 10071 H 942.236 -5.74387 -1.23909 0
M  V30 10072 H 943.76 -5.70709 -2.17079 0
M  V30 10073 H 945.174 -5.73212 0.100506 0
M  V30 10074 H 943.571 -5.93843 0.86432 0
M  V30 10075 H 944.641 -4.63737 1.4169 0
M  V30 10076 N 945.984 -0.3171 -1.54377 0
M  V30 10077 C 946.932 0.567371 -2.25574 0
M  V30 10078 C 947.926 1.12387 -1.2675 0
M  V30 10079 O 949.132 1.07266 -1.44548 0
M  V30 10080 H 945.507 0.201605 -0.724472 0
M  V30 10081 H 947.478 -0.0554644 -2.98348 0
M  V30 10082 C 946.227 1.71984 -3.02187 0
M  V30 10083 H 945.55 1.30086 -3.78044 0
M  V30 10084 H 946.99 2.31443 -3.5526 0
M  V30 10085 C 945.449 2.6336 -2.10103 0
M  V30 10086 O 945.979 3.64899 -1.67962 0
M  V30 10087 N 944.185 2.3145 -1.75725 0
M  V30 10088 H 943.732 1.48921 -2.10191 0
M  V30 10089 H 943.69 2.92852 -1.14391 0
M  V30 10090 N 947.462 1.57535 -0.0451378 0
M  V30 10091 C 948.41 2.12351 0.949205 0
M  V30 10092 C 949.404 1.05386 1.32628 0
M  V30 10093 O 950.61 1.23802 1.30664 0
M  V30 10094 H 946.985 0.678648 0.323945 0
M  V30 10095 H 948.956 2.94806 0.461718 0
M  V30 10096 C 947.705 2.67862 2.21687 0
M  V30 10097 H 947.028 3.49826 1.93551 0
M  V30 10098 H 948.468 3.09844 2.89435 0
M  V30 10099 C 946.927 1.61353 2.95748 0
M  V30 10100 O 947.457 1.02276 3.88462 0
M  V30 10101 N 945.663 1.33017 2.5837 0
M  V30 10102 H 945.21 1.81246 1.83051 0
M  V30 10103 H 945.168 0.619812 3.0823 0
M  V30 10104 N 948.94 -0.228186 1.55939 0
M  V30 10105 C 949.903 -1.26621 1.91049 0
M  V30 10106 C 950.903 -1.40141 0.788491 0
M  V30 10107 O 952.093 -1.3852 1.05631 0
M  V30 10108 C 949.225 -2.64108 2.15545 0
M  V30 10109 H 950.418 -0.966978 2.83883 0
M  V30 10110 H 947.971 -0.468313 1.49119 0
M  V30 10111 H 948.706 -2.99141 1.25241 0
M  V30 10112 H 948.491 -2.55673 2.97277 0
M  V30 10113 H 949.981 -3.39025 2.43827 0
M  V30 10114 N 950.418 -1.49637 -0.494624 0
M  V30 10115 C 951.366 -1.6727 -1.61627 0
M  V30 10116 C 952.36 -0.538587 -1.6061 0
M  V30 10117 O 953.566 -0.718411 -1.65042 0
M  V30 10118 H 949.941 -0.527557 -0.535899 0
M  V30 10119 H 951.912 -2.61405 -1.43909 0
M  V30 10120 C 950.661 -1.7624 -2.99725 0
M  V30 10121 H 949.984 -2.62886 -3.01216 0
M  V30 10122 H 951.424 -1.92611 -3.77726 0
M  V30 10123 C 949.883 -0.508632 -3.33038 0
M  V30 10124 O 950.413 0.362828 -4.00058 0
M  V30 10125 N 948.619 -0.369667 -2.88239 0
M  V30 10126 H 948.166 -1.07984 -2.33875 0
M  V30 10127 H 948.124 0.468112 -3.10896 0
M  V30 10128 N 951.896 0.746133 -1.38819 0
M  V30 10129 C 953.142 1.50768 -1.35635 0
M  V30 10130 C 953.475 1.94132 0.0512435 0
M  V30 10131 O 952.75 1.65979 1.01396 0
M  V30 10132 C 953.033 2.7551 -2.31875 0
M  V30 10133 C 952.886 2.38236 -3.81528 0
M  V30 10134 C 954.205 3.77566 -2.26124 0
M  V30 10135 H 951.324 0.546922 -0.494009 0
M  V30 10136 H 953.966 0.854017 -1.69725 0
M  V30 10137 H 952.116 3.31285 -2.02935 0
M  V30 10138 H 953.788 1.88178 -4.21173 0
M  V30 10139 H 952.031 1.70601 -3.98846 0
M  V30 10140 H 952.702 3.27517 -4.44339 0
M  V30 10141 H 955.178 3.31349 -2.51689 0
M  V30 10142 H 954.054 4.62531 -2.95561 0
M  V30 10143 H 954.315 4.23689 -1.26254 0
M  V30 10144 N 953.375 1.23811 0.975125 0
M  V30 10145 C 954.622 1.07336 1.71712 0
M  V30 10146 C 954.95 -0.388954 1.90571 0
M  V30 10147 O 954.205 -1.30409 1.45918 0
M  V30 10148 C 954.504 1.74994 3.11628 0
M  V30 10149 C 954.17 3.24918 3.12632 0
M  V30 10150 C 952.832 3.65822 3.12614 0
M  V30 10151 C 955.184 4.20797 3.07538 0
M  V30 10152 C 952.512 5.01054 3.05224 0
M  V30 10153 C 954.864 5.56027 3.0169 0
M  V30 10154 C 953.528 5.96287 2.99996 0
M  V30 10155 H 952.798 0.392771 0.62834 0
M  V30 10156 H 955.445 1.53815 1.14075 0
M  V30 10157 H 953.75 1.20889 3.72684 0
M  V30 10158 H 955.447 1.5972 3.67819 0
M  V30 10159 H 952.037 2.92359 3.13407 0
M  V30 10160 H 956.221 3.902 3.06688 0
M  V30 10161 H 951.477 5.31454 3.02268 0
M  V30 10162 H 955.651 6.3003 2.96706 0
M  V30 10163 H 953.278 7.01037 2.94025 0
M  V30 10164 N 954.853 -1.17469 1.05066 0
M  V30 10165 C 955.803 -2.19388 0.620713 0
M  V30 10166 C 956.787 -1.5722 -0.34214 0
M  V30 10167 O 957.979 -1.76279 -0.159574 0
M  V30 10168 C 955.108 -3.433 -0.00438518 0
M  V30 10169 C 954.194 -4.12569 0.982218 0
M  V30 10170 N 954.585 -4.57683 2.15313 0
M  V30 10171 C 952.883 -4.38575 0.810416 0
M  V30 10172 C 953.584 -5.11124 2.77719 0
M  V30 10173 N 952.56 -5.0325 2.05525 0
M  V30 10174 H 956.362 -2.51971 1.51287 0
M  V30 10175 H 953.876 -1.33784 0.920625 0
M  V30 10176 H 955.873 -4.15591 -0.330161 0
M  V30 10177 H 954.533 -3.12209 -0.89195 0
M  V30 10178 H 955.544 -4.51812 2.53154 0
M  V30 10179 H 952.221 -4.17492 -0.0262078 0
M  V30 10180 H 953.611 -5.56161 3.77008 0
M  V30 10181 N 956.331 -0.831506 -1.3388 0
M  V30 10182 C 957.261 -0.274378 -2.31882 0
M  V30 10183 C 958.242 0.613872 -1.58637 0
M  V30 10184 O 959.427 0.538961 -1.86571 0
M  V30 10185 C 956.557 0.557498 -3.42796 0
M  V30 10186 C 955.511 -0.234337 -4.27358 0
M  V30 10187 C 954.837 0.720825 -5.29819 0
M  V30 10188 C 956.137 -1.44732 -5.01847 0
M  V30 10189 H 957.831 -1.09322 -2.78728 0
M  V30 10190 H 955.377 -0.527136 -1.34005 0
M  V30 10191 H 957.33 0.957501 -4.10378 0
M  V30 10192 H 956.054 1.40947 -2.94621 0
M  V30 10193 H 954.713 -0.61581 -3.61391 0
M  V30 10194 H 954.361 1.569 -4.77903 0
M  V30 10195 H 954.061 0.195171 -5.87276 0
M  V30 10196 H 955.585 1.1185 -6.00268 0
M  V30 10197 H 956.999 -1.12087 -5.62236 0
M  V30 10198 H 955.396 -1.90923 -5.68919 0
M  V30 10199 H 956.466 -2.22099 -4.31045 0
M  V30 10200 N 957.809 1.4625 -0.587256 0
M  V30 10201 C 958.772 2.28812 0.133238 0
M  V30 10202 C 959.772 1.38645 0.814513 0
M  V30 10203 O 960.962 1.60975 0.665774 0
M  V30 10204 C 958.094 3.19147 1.19824 0
M  V30 10205 H 959.287 2.93991 -0.592386 0
M  V30 10206 H 956.84 1.52435 -0.345416 0
M  V30 10207 H 957.575 2.58725 1.95529 0
M  V30 10208 H 957.36 3.85541 0.71418 0
M  V30 10209 H 958.85 3.81278 1.70344 0
M  V30 10210 N 959.287 0.325282 1.54207 0
M  V30 10211 C 960.535 -0.276229 2.00203 0
M  V30 10212 C 960.856 -1.52519 1.21503 0
M  V30 10213 O 960.126 -1.93313 0.317302 0
M  V30 10214 H 958.706 -0.105059 0.739575 0
M  V30 10215 H 961.368 0.442225 1.89817 0
M  V30 10216 H 960.464 -0.531427 3.07542 0
M  V30 10217 N 960.765 -1.57509 0.0534917 0
M  V30 10218 C 961.695 -2.14698 -0.917999 0
M  V30 10219 C 962.676 -1.06924 -1.32292 0
M  V30 10220 O 963.861 -1.34875 -1.39723 0
M  V30 10221 C 960.991 -2.69383 -2.19203 0
M  V30 10222 C 959.945 -3.82161 -1.9271 0
M  V30 10223 C 959.271 -4.23373 -3.26587 0
M  V30 10224 C 960.571 -5.07199 -1.24686 0
M  V30 10225 H 962.265 -2.96125 -0.44165 0
M  V30 10226 H 959.811 -1.42446 -0.210993 0
M  V30 10227 H 961.764 -3.08031 -2.87567 0
M  V30 10228 H 960.488 -1.85151 -2.69048 0
M  V30 10229 H 959.147 -3.43989 -1.26757 0
M  V30 10230 H 958.795 -3.36089 -3.74237 0
M  V30 10231 H 958.495 -4.99385 -3.09658 0
M  V30 10232 H 960.019 -4.64623 -3.96178 0
M  V30 10233 H 961.433 -5.43279 -1.83088 0
M  V30 10234 H 959.83 -5.88369 -1.18076 0
M  V30 10235 H 960.9 -4.84386 -0.223227 0
M  V30 10236 N 962.243 0.219913 -1.56058 0
M  V30 10237 C 963.471 0.960915 -1.83232 0
M  V30 10238 C 963.886 1.77878 -0.632828 0
M  V30 10239 O 963.243 1.78093 0.398624 0
M  V30 10240 C 963.294 1.87716 -3.08942 0
M  V30 10241 O 963.015 1.09235 -4.24263 0
M  V30 10242 C 964.516 2.73192 -3.49115 0
M  V30 10243 H 961.736 0.281546 -0.609075 0
M  V30 10244 H 964.28 0.234648 -2.03149 0
M  V30 10245 H 962.435 2.55736 -2.90995 0
M  V30 10246 H 962.849 1.71446 -4.95688 0
M  V30 10247 H 964.323 3.33181 -4.40107 0
M  V30 10248 H 964.8 3.45668 -2.70943 0
M  V30 10249 H 965.406 2.10583 -3.69506 0
M  V30 10250 N 963.721 1.49897 0.486681 0
M  V30 10251 C 964.968 1.60105 1.23986 0
M  V30 10252 C 965.296 0.294228 1.92262 0
M  V30 10253 O 964.551 -0.718876 1.82018 0
M  V30 10254 C 964.85 2.71982 2.31863 0
M  V30 10255 C 964.516 4.13 1.80948 0
M  V30 10256 C 963.178 4.51373 1.66782 0
M  V30 10257 C 965.53 5.01198 1.43004 0
M  V30 10258 C 962.858 5.75701 1.13072 0
M  V30 10259 C 965.21 6.26058 0.90742 0
M  V30 10260 C 963.874 6.63247 0.752269 0
M  V30 10261 H 963.144 0.585866 0.453698 0
M  V30 10262 H 965.791 1.83778 0.538305 0
M  V30 10263 H 964.096 2.42336 3.07865 0
M  V30 10264 H 965.793 2.77087 2.89869 0
M  V30 10265 H 962.383 3.82718 1.92937 0
M  V30 10266 H 966.567 4.72196 1.52789 0
M  V30 10267 H 961.823 6.03202 0.997842 0
M  V30 10268 H 965.997 6.9377 0.604684 0
M  V30 10269 H 963.624 7.59466 0.33392 0
M  V30 10270 N 965.199 -0.738761 1.39212 0
M  V30 10271 C 966.129 -1.86602 1.40364 0
M  V30 10272 C 967.11 -1.67984 0.267495 0
M  V30 10273 O 968.295 -1.88358 0.472765 0
M  V30 10274 C 965.425 -3.24308 1.24265 0
M  V30 10275 C 964.379 -3.57557 2.35239 0
M  V30 10276 C 963.705 -4.94159 2.04233 0
M  V30 10277 C 965.005 -3.60914 3.77543 0
M  V30 10278 H 966.699 -1.85896 2.34698 0
M  V30 10279 H 964.245 -0.892959 1.1297 0
M  V30 10280 H 966.198 -4.02838 1.23692 0
M  V30 10281 H 964.922 -3.25531 0.263974 0
M  V30 10282 H 963.581 -2.81354 2.35022 0
M  V30 10283 H 963.229 -4.91959 1.04813 0
M  V30 10284 H 962.929 -5.17373 2.78567 0
M  V30 10285 H 964.453 -5.7505 2.05303 0
M  V30 10286 H 965.867 -4.29528 3.79709 0
M  V30 10287 H 964.264 -3.95644 4.51205 0
M  V30 10288 H 965.334 -2.60803 4.08791 0
M  V30 10289 N 966.677 -1.24326 -0.968545 0
M  V30 10290 C 967.905 -1.10947 -1.74638 0
M  V30 10291 C 968.32 0.338064 -1.85749 0
M  V30 10292 O 967.677 1.23331 -1.3452 0
M  V30 10293 C 967.728 -1.74254 -3.1673 0
M  V30 10294 O 967.449 -3.13347 -3.06178 0
M  V30 10295 C 968.95 -1.66473 -4.10855 0
M  V30 10296 H 966.17 -0.38767 -0.547679 0
M  V30 10297 H 968.714 -1.64415 -1.21605 0
M  V30 10298 H 966.869 -1.2479 -3.66751 0
M  V30 10299 H 967.283 -3.44255 -3.95713 0
M  V30 10300 H 968.757 -2.15452 -5.08217 0
M  V30 10301 H 969.234 -0.625785 -4.34719 0
M  V30 10302 H 969.84 -2.15359 -3.66743 0
M  V30 10303 N 968.156 1.1691 -1.05688 0
M  V30 10304 C 969.104 2.2315 -0.656262 0
M  V30 10305 C 970.098 1.66256 0.324873 0
M  V30 10306 O 971.304 1.7899 0.190397 0
M  V30 10307 H 967.679 0.726527 -0.19407 0
M  V30 10308 H 969.65 2.54233 -1.56231 0
M  V30 10309 C 968.399 3.47661 -0.0522431 0
M  V30 10310 H 967.722 3.91749 -0.798299 0
M  V30 10311 H 969.162 4.23571 0.190626 0
M  V30 10312 C 967.621 3.14709 1.20248 0
M  V30 10313 O 968.151 3.29947 2.29124 0
M  V30 10314 N 966.357 2.68892 1.10207 0
M  V30 10315 H 965.904 2.56692 0.216063 0
M  V30 10316 H 965.862 2.47218 1.94244 0
M  V30 10317 N 969.634 0.838594 1.33437 0
M  V30 10318 C 970.597 0.276843 2.27522 0
M  V30 10319 C 971.597 -0.554275 1.50945 0
M  V30 10320 O 972.787 -0.368107 1.70266 0
M  V30 10321 C 969.919 -0.610036 3.35397 0
M  V30 10322 H 971.112 1.10705 2.78719 0
M  V30 10323 H 968.665 0.611657 1.43835 0
M  V30 10324 H 969.4 -1.46269 2.89441 0
M  V30 10325 H 969.185 -0.0153615 3.92097 0
M  V30 10326 H 970.675 -0.996368 4.05539 0
M  V30 10327 N 971.112 -1.45937 0.595003 0
M  V30 10328 C 972.06 -2.32155 -0.143798 0
M  V30 10329 C 973.054 -1.45221 -0.872198 0
M  V30 10330 O 974.26 -1.61777 -0.789191 0
M  V30 10331 H 970.635 -0.749165 -0.0652377 0
M  V30 10332 H 972.606 -2.92264 0.602005 0
M  V30 10333 C 971.355 -3.28615 -1.13611 0
M  V30 10334 H 970.678 -3.95496 -0.585044 0
M  V30 10335 H 972.118 -3.91699 -1.62321 0
M  V30 10336 C 970.577 -2.54863 -2.20333 0
M  V30 10337 O 971.107 -2.32071 -3.27881 0
M  V30 10338 N 969.313 -2.15213 -1.95274 0
M  V30 10339 H 968.86 -2.33949 -1.07822 0
M  V30 10340 H 968.818 -1.66188 -2.66888 0
M  V30 10341 N 972.59 -0.333456 -1.54032 0
M  V30 10342 C 973.553 0.515392 -2.2333 0
M  V30 10343 C 974.553 1.03566 -1.23007 0
M  V30 10344 O 975.743 0.926514 -1.47517 0
M  V30 10345 C 972.875 1.7169 -2.94508 0
M  V30 10346 H 974.068 -0.0905407 -2.99763 0
M  V30 10347 H 971.621 -0.0846651 -1.56071 0
M  V30 10348 H 972.356 2.3618 -2.22237 0
M  V30 10349 H 972.141 1.35115 -3.68085 0
M  V30 10350 H 973.631 2.31922 -3.47278 0
M  V30 10351 N 974.068 1.57479 -0.061844 0
M  V30 10352 C 975.345 1.84484 0.649993 0
M  V30 10353 C 975.725 0.952366 1.88396 0
M  V30 10354 O 975.073 0.0161035 2.28494 0
M  V30 10355 C 975.283 3.34452 0.997133 0
M  V30 10356 C 976.631 4.01724 1.37488 0
M  V30 10357 O 977.655 3.3914 1.08916 0
M  V30 10358 O 976.514 5.12091 1.90854 0
M  V30 10359 H 973.608 0.761798 0.321858 0
M  V30 10360 H 976.154 1.6945 -0.0920192 0
M  V30 10361 H 974.926 3.91115 0.120301 0
M  V30 10362 H 974.549 3.54713 1.79624 0
M  V30 10363 N 975.546 -0.211634 1.56173 0
M  V30 10364 C 976.823 -0.959467 1.70451 0
M  V30 10365 C 977.203 -2.02036 0.611942 0
M  V30 10366 O 976.551 -2.25325 -0.37959 0
M  V30 10367 C 976.761 -1.56092 3.12148 0
M  V30 10368 C 978.109 -2.04939 3.71867 0
M  V30 10369 O 979.133 -1.65966 3.15172 0
M  V30 10370 O 977.992 -2.766 4.71333 0
M  V30 10371 H 975.086 -0.448844 0.6946 0
M  V30 10372 H 977.632 -0.202633 1.68486 0
M  V30 10373 H 976.404 -0.79538 3.83131 0
M  V30 10374 H 976.027 -2.38303 3.18273 0
M  V30 10375 N 977.024 -1.50153 -0.478725 0
M  V30 10376 C 978.249 -1.64776 -1.2595 0
M  V30 10377 C 978.674 -0.327794 -1.85222 0
M  V30 10378 O 978.032 0.707418 -1.66929 0
M  V30 10379 C 978.08 -2.73551 -2.34952 0
M  V30 10380 O 977.184 -2.34273 -3.39397 0
M  V30 10381 H 976.525 -0.550769 -0.370877 0
M  V30 10382 H 979.055 -1.96482 -0.570605 0
M  V30 10383 H 979.065 -2.96397 -2.8038 0
M  V30 10384 H 977.74 -3.69354 -1.91181 0
M  V30 10385 H 976.317 -2.21844 -2.99733 0
M  V30 10386 N 978.502 0.731368 -1.39602 0
M  V30 10387 C 979.434 1.85575 -1.34516 0
M  V30 10388 C 980.447 1.60818 -0.253287 0
M  V30 10389 O 981.636 1.70984 -0.512505 0
M  V30 10390 C 978.736 3.21673 -1.06676 0
M  V30 10391 C 977.909 3.73757 -2.27211 0
M  V30 10392 C 976.968 4.88426 -1.95773 0
M  V30 10393 O 975.994 5.01898 -2.68491 0
M  V30 10394 N 977.196 5.73065 -0.926083 0
M  V30 10395 H 979.961 1.90442 -2.31413 0
M  V30 10396 H 977.522 0.912258 -1.33752 0
M  V30 10397 H 979.514 3.95959 -0.836577 0
M  V30 10398 H 978.084 3.12052 -0.185003 0
M  V30 10399 H 977.304 2.90781 -2.66158 0
M  V30 10400 H 978.592 4.05289 -3.07601 0
M  V30 10401 H 977.99 5.64774 -0.323497 0
M  V30 10402 H 976.547 6.47403 -0.755795 0
M  V30 10403 N 979.98 1.24838 0.961938 0
M  V30 10404 C 980.89 1.06304 2.09133 0
M  V30 10405 C 981.906 0.00221475 1.74 0
M  V30 10406 O 983.082 0.201611 2.00388 0
M  V30 10407 C 980.147 0.676117 3.40043 0
M  V30 10408 C 979.208 1.81407 3.89089 0
M  V30 10409 C 978.441 1.44551 5.13752 0
M  V30 10410 O 978.664 0.337894 5.69398 0
M  V30 10411 O 977.598 2.27316 5.57325 0
M  V30 10412 H 981.424 2.01001 2.27667 0
M  V30 10413 H 979.009 1.0371 1.07539 0
M  V30 10414 H 980.891 0.472124 4.18747 0
M  V30 10415 H 979.566 -0.241667 3.22797 0
M  V30 10416 H 978.473 2.07286 3.11421 0
M  V30 10417 H 979.806 2.71083 4.10822 0
M  V30 10418 N 981.458 -1.16348 1.06306 0
M  V30 10419 C 982.406 -2.22799 0.668087 0
M  V30 10420 C 983.4 -1.66426 -0.316051 0
M  V30 10421 O 984.606 -1.79089 -0.180902 0
M  V30 10422 H 980.981 -0.725487 0.19792 0
M  V30 10423 H 982.952 -2.53401 1.57577 0
M  V30 10424 C 981.701 -3.47628 0.0706797 0
M  V30 10425 H 981.024 -3.9132 0.819064 0
M  V30 10426 H 982.464 -4.23666 -0.16816 0
M  V30 10427 C 980.923 -3.15343 -1.18577 0
M  V30 10428 O 981.453 -3.31158 -2.27371 0
M  V30 10429 N 979.659 -2.69472 -1.08779 0
M  V30 10430 H 979.206 -2.56803 -0.202447 0
M  V30 10431 H 979.164 -2.48244 -1.92931 0
M  V30 10432 N 982.937 -0.845659 -1.3299 0
M  V30 10433 C 984.214 -0.366306 -1.92139 0
M  V30 10434 C 984.594 1.14912 -1.77083 0
M  V30 10435 O 983.942 1.96667 -1.16338 0
M  V30 10436 C 984.152 -0.820716 -3.39213 0
M  V30 10437 C 985.5 -0.832667 -4.16355 0
M  V30 10438 O 986.524 -0.764764 -3.47893 0
M  V30 10439 O 985.383 -0.926658 -5.38586 0
M  V30 10440 H 982.477 -0.105063 -0.820299 0
M  V30 10441 H 985.023 -0.931962 -1.41819 0
M  V30 10442 H 983.795 -1.86357 -3.44074 0
M  V30 10443 H 983.418 -0.232009 -3.96923 0
M  V30 10444 N 984.415 1.45619 -0.602734 0
M  V30 10445 C 985.325 2.34288 0.120902 0
M  V30 10446 C 986.341 1.50952 0.865414 0
M  V30 10447 O 987.517 1.83768 0.824094 0
M  V30 10448 C 984.582 3.28489 1.10888 0
M  V30 10449 C 983.643 4.2773 0.366853 0
M  V30 10450 C 982.876 5.17429 1.30776 0
M  V30 10451 O 983.099 5.10459 2.54535 0
M  V30 10452 O 982.033 5.96459 0.807464 0
M  V30 10453 H 985.859 2.97559 -0.60765 0
M  V30 10454 H 983.444 1.44922 -0.363019 0
M  V30 10455 H 985.326 3.86549 1.67803 0
M  V30 10456 H 984.001 2.67789 1.81854 0
M  V30 10457 H 982.908 3.73299 -0.244643 0
M  V30 10458 H 984.241 4.91271 -0.302226 0
M  V30 10459 N 985.893 0.34162 1.53853 0
M  V30 10460 C 987.304 -0.14269 1.86154 0
M  V30 10461 C 987.655 -1.50151 1.2629 0
M  V30 10462 O 986.78 -2.08601 0.575735 0
M  V30 10463 C 987.375 -0.265691 3.37757 0
M  V30 10464 C 985.934 -0.694231 3.69942 0
M  V30 10465 C 985.081 0.173195 2.76759 0
M  V30 10466 H 988.032 0.561284 1.48443 0
M  V30 10467 H 988.053 -1.09352 3.64448 0
M  V30 10468 H 987.565 0.723424 3.81298 0
M  V30 10469 H 985.666 -1.69244 3.31945 0
M  V30 10470 H 985.779 -0.485461 4.76634 0
M  V30 10471 H 984.143 -0.35416 2.52226 0
M  V30 10472 H 984.926 1.15941 3.23129 0
M  V30 10473 N 987.371 -1.57444 0.0701946 0
M  V30 10474 C 988.611 -1.95304 -0.60296 0
M  V30 10475 C 988.975 -0.949592 -1.66873 0
M  V30 10476 O 990.176 -1.2158 -2.39733 0
M  V30 10477 C 988.447 -3.37831 -1.16639 0
M  V30 10478 S 990.006 -3.97667 -1.8549 0
M  V30 10479 H 986.824 -0.683026 -0.197476 0
M  V30 10480 H 989.426 -1.94971 0.143669 0
M  V30 10481 H 988.13 -4.08648 -0.378856 0
M  V30 10482 H 987.661 -3.41704 -1.94942 0
M  V30 10483 H 989.676 -3.84441 -3.13719 0
M  V30 10484 N 988.849 0.203349 -1.56283 0
M  V30 10485 C 989.796 1.25205 -1.93888 0
M  V30 10486 C 990.766 1.45654 -0.798376 0
M  V30 10487 O 991.951 1.58924 -1.05583 0
M  V30 10488 C 989.091 2.59355 -2.27659 0
M  V30 10489 C 988.204 2.46553 -3.54733 0
M  V30 10490 C 987.339 3.73351 -3.77865 0
M  V30 10491 C 986.378 3.55347 -4.98392 0
M  V30 10492 N 985.515 4.74137 -5.17821 0
M  V30 10493 H 990.355 0.924356 -2.83301 0
M  V30 10494 H 987.892 0.445082 -1.40205 0
M  V30 10495 H 989.85 3.375 -2.45254 0
M  V30 10496 H 988.48 2.90184 -1.41396 0
M  V30 10497 H 987.532 1.59749 -3.45231 0
M  V30 10498 H 988.844 2.2918 -4.43033 0
M  V30 10499 H 987.998 4.59937 -3.95655 0
M  V30 10500 H 986.737 3.9367 -2.8788 0
M  V30 10501 H 985.742 2.67146 -4.80534 0
M  V30 10502 H 986.967 3.36482 -5.89879 0
M  V30 10503 H 984.913 4.94735 -4.30782 0
M  V30 10504 H 984.83 4.59558 -6.00285 0
M  V30 10505 H 986.098 5.62098 -5.40061 0
M  V30 10506 N 990.327 1.50405 0.470755 0
M  V30 10507 C 991.237 1.7208 1.59454 0
M  V30 10508 C 992.253 0.603932 1.63183 0
M  V30 10509 O 993.429 0.882296 1.81046 0
M  V30 10510 C 990.494 1.81057 2.95667 0
M  V30 10511 C 989.555 3.04792 3.02324 0
M  V30 10512 C 988.788 3.13332 4.3204 0
M  V30 10513 O 989.011 2.28655 5.22564 0
M  V30 10514 O 987.945 4.0606 4.44296 0
M  V30 10515 H 991.771 2.67343 1.44089 0
M  V30 10516 H 989.356 1.34505 0.650286 0
M  V30 10517 H 991.238 1.8914 3.76569 0
M  V30 10518 H 989.913 0.889782 3.11231 0
M  V30 10519 H 988.82 3.0221 2.205 0
M  V30 10520 H 990.153 3.96451 2.91698 0
M  V30 10521 N 991.805 -0.723954 1.39988 0
M  V30 10522 C 993.054 -1.47922 1.3712 0
M  V30 10523 C 993.367 -1.95582 -0.0263665 0
M  V30 10524 O 994.573 -2.70918 -0.177652 0
M  V30 10525 C 993.029 -2.67342 2.40949 0
M  V30 10526 C 992.637 -2.26586 3.86475 0
M  V30 10527 C 994.381 -3.45116 2.47174 0
M  V30 10528 C 992.288 -3.42794 4.81919 0
M  V30 10529 H 991.218 -0.555522 0.509815 0
M  V30 10530 H 993.869 -0.788692 1.65686 0
M  V30 10531 H 992.251 -3.38524 2.0547 0
M  V30 10532 H 993.425 -1.62878 4.31054 0
M  V30 10533 H 991.74 -1.61876 3.83647 0
M  V30 10534 H 994.337 -4.31573 3.15672 0
M  V30 10535 H 994.68 -3.8835 1.49966 0
M  V30 10536 H 995.213 -2.80971 2.81602 0
M  V30 10537 H 991.952 -3.046 5.8043 0
M  V30 10538 H 991.472 -4.05445 4.42012 0
M  V30 10539 H 993.151 -4.08977 5.01345 0
M  V30 10540 N 993.283 -1.25346 -0.955304 0
M  V30 10541 C 994.213 -1.08152 -2.06943 0
M  V30 10542 C 995.194 0.00922598 -1.70097 0
M  V30 10543 O 996.379 -0.160181 -1.93538 0
M  V30 10544 C 993.509 -0.698745 -3.40198 0
M  V30 10545 C 992.463 -1.73965 -3.9105 0
M  V30 10546 C 991.789 -1.21158 -5.20792 0
M  V30 10547 C 993.089 -3.13829 -4.17503 0
M  V30 10548 H 994.783 -2.01345 -2.21586 0
M  V30 10549 H 992.329 -0.969459 -1.06478 0
M  V30 10550 H 994.282 -0.565394 -4.1759 0
M  V30 10551 H 993.006 0.268892 -3.25491 0
M  V30 10552 H 991.665 -1.86143 -3.15827 0
M  V30 10553 H 991.313 -0.234193 -5.02455 0
M  V30 10554 H 991.013 -1.90728 -5.55785 0
M  V30 10555 H 992.537 -1.09061 -6.00781 0
M  V30 10556 H 993.951 -3.04809 -4.85556 0
M  V30 10557 H 992.348 -3.80863 -4.63749 0
M  V30 10558 H 993.418 -3.6094 -3.23806 0
M  V30 10559 N 994.761 1.15782 -1.06922 0
M  V30 10560 C 996.177 1.38454 -0.793896 0
M  V30 10561 C 996.377 1.92238 0.603875 0
M  V30 10562 O 995.433 2.1253 1.36335 0
M  V30 10563 C 996.746 2.3595 -1.86408 0
M  V30 10564 C 998.294 2.49622 -1.88833 0
M  V30 10565 C 998.769 3.50406 -2.94923 0
M  V30 10566 N 1000.26 3.57938 -2.93997 0
M  V30 10567 C 1001 4.35728 -3.72731 0
M  V30 10568 N 1000.49 5.16888 -4.61301 0
M  V30 10569 N 1002.28 4.30774 -3.61096 0
M  V30 10570 H 994.435 0.792101 -1.97077 0
M  V30 10571 H 996.698 0.410779 -0.85438 0
M  V30 10572 H 996.404 2.03537 -2.86819 0
M  V30 10573 H 996.278 3.35677 -1.72049 0
M  V30 10574 H 998.665 2.81335 -0.890759 0
M  V30 10575 H 998.746 1.49909 -2.0727 0
M  V30 10576 H 998.39 3.19429 -3.94877 0
M  V30 10577 H 998.32 4.49864 -2.73734 0
M  V30 10578 H 1000.81 3.00007 -2.29791 0
M  V30 10579 H 1001.12 5.73477 -5.18019 0
M  V30 10580 H 999.469 5.16209 -4.65353 0
M  V30 10581 H 1002.66 3.66432 -2.91282 0
M  V30 10582 H 1002.83 4.91151 -4.22699 0
M  V30 10583 N 996.239 0.8527 1.3254 0
M  V30 10584 C 997.65 0.510012 1.79599 0
M  V30 10585 C 998.001 -0.972002 1.70431 0
M  V30 10586 O 997.126 -1.7581 1.26173 0
M  V30 10587 C 997.721 0.918986 3.26098 0
M  V30 10588 C 996.28 0.628227 3.7112 0
M  V30 10589 C 995.427 1.11979 2.53685 0
M  V30 10590 H 998.378 1.04009 1.19866 0
M  V30 10591 H 998.399 0.234577 3.79776 0
M  V30 10592 H 997.911 1.99765 3.32739 0
M  V30 10593 H 996.012 -0.4398 3.69995 0
M  V30 10594 H 996.125 1.19315 4.64005 0
M  V30 10595 H 994.489 0.540133 2.48907 0
M  V30 10596 H 995.272 2.20552 2.63081 0
M  V30 10597 N 997.718 -1.45297 0.610449 0
M  V30 10598 C 999.134 -1.57225 0.274332 0
M  V30 10599 C 999.334 -1.60136 -1.22306 0
M  V30 10600 O 998.39 -1.5332 -2.00622 0
M  V30 10601 C 999.703 -2.85365 0.948028 0
M  V30 10602 C 1001.25 -2.99044 0.924216 0
M  V30 10603 C 1001.73 -4.29958 1.57798 0
M  V30 10604 N 1003.22 -4.36723 1.5436 0
M  V30 10605 C 1003.95 -5.36695 2.01857 0
M  V30 10606 N 1003.45 -6.43187 2.57453 0
M  V30 10607 N 1005.24 -5.28071 1.92608 0
M  V30 10608 H 997.392 -1.41651 1.58268 0
M  V30 10609 H 999.655 -0.67744 0.663158 0
M  V30 10610 H 999.361 -2.89125 2.00249 0
M  V30 10611 H 999.235 -3.74222 0.473062 0
M  V30 10612 H 1001.62 -2.94849 -0.121709 0
M  V30 10613 H 1001.7 -2.1159 1.43748 0
M  V30 10614 H 1001.35 -4.34912 2.62325 0
M  V30 10615 H 1001.28 -5.16234 1.03972 0
M  V30 10616 H 1003.77 -3.60374 1.13749 0
M  V30 10617 H 1004.08 -7.15722 2.91482 0
M  V30 10618 H 1002.43 -6.4393 2.61493 0
M  V30 10619 H 1005.62 -4.43783 1.48912 0
M  V30 10620 H 1005.79 -6.05832 2.29938 0
M  V30 10621 N 999.196 -0.349774 -1.5367 0
M  V30 10622 C 1000.61 0.00191293 -1.596 0
M  V30 10623 C 1000.81 1.48175 -1.36552 0
M  V30 10624 O 999.868 2.24129 -1.16285 0
M  V30 10625 C 1001.18 -0.439848 -2.97466 0
M  V30 10626 C 1002.73 -0.392721 -3.10526 0
M  V30 10627 C 1003.2 -0.810047 -4.5078 0
M  V30 10628 N 1004.69 -0.764478 -4.56848 0
M  V30 10629 C 1005.43 -1.05927 -5.63531 0
M  V30 10630 N 1004.93 -1.42253 -6.78038 0
M  V30 10631 N 1006.72 -0.983098 -5.53436 0
M  V30 10632 H 998.87 -1.31364 -1.66905 0
M  V30 10633 H 1001.13 -0.535908 -0.781989 0
M  V30 10634 H 1000.84 -1.47189 -3.19419 0
M  V30 10635 H 1000.71 0.181735 -3.76762 0
M  V30 10636 H 1003.1 0.630161 -2.88293 0
M  V30 10637 H 1003.18 -1.04959 -2.33275 0
M  V30 10638 H 1002.82 -1.83097 -4.73749 0
M  V30 10639 H 1002.75 -0.130591 -5.26438 0
M  V30 10640 H 1005.25 -0.496637 -3.74622 0
M  V30 10641 H 1005.56 -1.63215 -7.55368 0
M  V30 10642 H 1003.9 -1.46104 -6.79469 0
M  V30 10643 H 1007.09 -0.698601 -4.62858 0
M  V30 10644 H 1007.27 -1.21618 -6.36485 0
M  V30 10645 N 1000.67 1.57404 -0.0785433 0
M  V30 10646 C 1001.9 1.98074 0.597862 0
M  V30 10647 C 1002.32 0.95714 1.6274 0
M  V30 10648 O 1001.67 -0.0553728 1.82416 0
M  V30 10649 C 1001.72 3.38815 1.26041 0
M  V30 10650 O 1001.45 4.37254 0.27207 0
M  V30 10651 C 1002.95 3.94397 2.024 0
M  V30 10652 H 1000.17 0.651263 0.161546 0
M  V30 10653 H 1002.71 2.03927 -0.152941 0
M  V30 10654 H 1000.87 3.34028 1.96225 0
M  V30 10655 H 1001.28 5.19136 0.74822 0
M  V30 10656 H 1002.75 4.95075 2.4414 0
M  V30 10657 H 1003.23 3.31308 2.88326 0
M  V30 10658 H 1003.84 4.02607 1.37068 0
M  V30 10659 N 1002.15 -0.195058 1.56388 0
M  V30 10660 C 1003.08 -1.24444 1.97575 0
M  V30 10661 C 1004.06 -1.47471 0.847717 0
M  V30 10662 O 1005.25 -1.59208 1.11205 0
M  V30 10663 C 1002.38 -2.58866 2.31529 0
M  V30 10664 C 1001.33 -2.50451 3.47071 0
M  V30 10665 C 1000.66 -3.89146 3.667 0
M  V30 10666 C 1001.96 -2.02953 4.81256 0
M  V30 10667 H 1003.65 -0.902178 2.85484 0
M  V30 10668 H 1001.2 -0.43254 1.3735 0
M  V30 10669 H 1003.15 -3.3246 2.58936 0
M  V30 10670 H 1001.87 -2.94833 1.40502 0
M  V30 10671 H 1000.53 -1.79313 3.19754 0
M  V30 10672 H 1000.18 -4.22466 2.73004 0
M  V30 10673 H 999.882 -3.84391 4.44429 0
M  V30 10674 H 1001.41 -4.64363 3.96484 0
M  V30 10675 H 1002.82 -2.66306 5.07695 0
M  V30 10676 H 1001.22 -2.092 5.62455 0
M  V30 10677 H 1002.29 -0.982757 4.74837 0
M  V30 10678 N 1003.63 -1.50653 -0.462772 0
M  V30 10679 C 1004.56 -1.66286 -1.5774 0
M  V30 10680 C 1005.57 -0.544094 -1.53439 0
M  V30 10681 O 1006.76 -0.817566 -1.58676 0
M  V30 10682 C 1003.86 -1.63893 -2.96635 0
M  V30 10683 C 1003.04 -2.91939 -3.25716 0
M  V30 10684 C 1002.1 -2.82076 -4.44206 0
M  V30 10685 O 1001.12 -3.56032 -4.44106 0
M  V30 10686 N 1002.32 -1.96196 -5.4634 0
M  V30 10687 H 1005.09 -2.6243 -1.44742 0
M  V30 10688 H 1002.65 -1.48221 -0.651326 0
M  V30 10689 H 1004.64 -1.54897 -3.73884 0
M  V30 10690 H 1003.21 -0.75449 -3.03358 0
M  V30 10691 H 1002.43 -3.14998 -2.37002 0
M  V30 10692 H 1003.72 -3.7675 -3.4196 0
M  V30 10693 H 1003.12 -1.35439 -5.49247 0
M  V30 10694 H 1001.67 -1.93097 -6.2254 0
M  V30 10695 N 1005.11 0.71652 -1.4037 0
M  V30 10696 C 1006.06 1.8306 -1.40562 0
M  V30 10697 C 1007.03 1.64009 -0.262697 0
M  V30 10698 O 1008.21 1.85157 -0.460619 0
M  V30 10699 C 1005.35 3.2076 -1.27307 0
M  V30 10700 C 1004.46 3.51389 -2.51296 0
M  V30 10701 C 1003.6 4.78589 -2.30491 0
M  V30 10702 C 1002.64 5.02119 -3.50061 0
M  V30 10703 N 1001.77 6.20533 -3.28457 0
M  V30 10704 H 1006.61 1.82231 -2.35788 0
M  V30 10705 H 1004.15 0.890198 -1.17106 0
M  V30 10706 H 1006.11 4.00274 -1.17628 0
M  V30 10707 H 1004.74 3.2082 -0.357005 0
M  V30 10708 H 1003.79 2.66436 -2.71507 0
M  V30 10709 H 1005.1 3.64686 -3.40302 0
M  V30 10710 H 1004.26 5.66119 -2.1816 0
M  V30 10711 H 1003 4.67499 -1.38909 0
M  V30 10712 H 1002 4.13044 -3.6287 0
M  V30 10713 H 1003.23 5.15082 -4.42569 0
M  V30 10714 H 1001.17 6.10695 -2.39556 0
M  V30 10715 H 1001.09 6.34502 -4.11027 0
M  V30 10716 H 1002.36 7.10853 -3.19857 0
M  V30 10717 N 1006.59 1.25851 0.948643 0
M  V30 10718 C 1007.53 1.06759 2.04625 0
M  V30 10719 C 1008.5 -0.0251144 1.66081 0
M  V30 10720 O 1009.69 0.133221 1.90334 0
M  V30 10721 C 1006.83 0.698724 3.37952 0
M  V30 10722 C 1005.94 1.8669 3.89578 0
M  V30 10723 C 1005.08 1.44184 5.11258 0
M  V30 10724 C 1004.12 2.57878 5.55126 0
M  V30 10725 N 1003.25 2.16106 6.68014 0
M  V30 10726 H 1008.09 2.00691 2.20289 0
M  V30 10727 H 1005.63 0.999327 1.07944 0
M  V30 10728 H 1007.59 0.465788 4.14592 0
M  V30 10729 H 1006.22 -0.203618 3.22157 0
M  V30 10730 H 1005.27 2.21298 3.09405 0
M  V30 10731 H 1006.58 2.72051 4.18079 0
M  V30 10732 H 1005.74 1.16891 5.95333 0
M  V30 10733 H 1004.47 0.559035 4.84485 0
M  V30 10734 H 1003.48 2.85909 4.69612 0
M  V30 10735 H 1004.7 3.46747 5.83904 0
M  V30 10736 H 1002.65 1.3025 6.42939 0
M  V30 10737 H 1002.57 2.95012 6.96063 0
M  V30 10738 H 1003.84 1.92005 7.55483 0
M  V30 10739 N 1008.06 -1.15214 1.07534 0
M  V30 10740 C 1009.31 -1.85388 0.794617 0
M  V30 10741 C 1009.63 -1.83331 -0.681838 0
M  V30 10742 O 1010.83 -2.49207 -1.0774 0
M  V30 10743 C 1009.29 -3.32747 1.37141 0
M  V30 10744 C 1008.9 -3.43244 2.87902 0
M  V30 10745 C 1010.64 -4.08093 1.16879 0
M  V30 10746 C 1008.55 -4.84762 3.38763 0
M  V30 10747 H 1007.48 -0.694499 0.293577 0
M  V30 10748 H 1010.13 -1.29944 1.29564 0
M  V30 10749 H 1008.51 -3.87874 0.798121 0
M  V30 10750 H 1009.68 -2.98214 3.51291 0
M  V30 10751 H 1008 -2.81345 3.06975 0
M  V30 10752 H 1010.6 -5.12535 1.52353 0
M  V30 10753 H 1010.94 -4.1616 0.107958 0
M  V30 10754 H 1011.47 -3.59241 1.70854 0
M  V30 10755 H 1008.21 -4.81879 4.4438 0
M  V30 10756 H 1007.73 -5.30366 2.80128 0
M  V30 10757 H 1009.41 -5.53624 3.34827 0
M  V30 10758 N 1009.54 -0.859717 -1.32086 0
M  V30 10759 C 1010.45 -0.31108 -2.32528 0
M  V30 10760 C 1011.47 0.573714 -1.6427 0
M  V30 10761 O 1012.64 0.472878 -1.9577 0
M  V30 10762 C 1009.71 0.487256 -3.43259 0
M  V30 10763 C 1008.77 -0.424279 -4.27198 0
M  V30 10764 C 1008 0.336051 -5.32641 0
M  V30 10765 O 1008.23 1.56541 -5.48499 0
M  V30 10766 O 1007.16 -0.300777 -6.01148 0
M  V30 10767 H 1010.99 -1.14336 -2.81355 0
M  V30 10768 H 1008.57 -0.622794 -1.358 0
M  V30 10769 H 1010.45 0.940203 -4.10777 0
M  V30 10770 H 1009.13 1.29626 -2.96612 0
M  V30 10771 H 1008.04 -0.925509 -3.62471 0
M  V30 10772 H 1009.37 -1.1986 -4.77383 0
M  V30 10773 N 1011.02 1.44971 -0.618145 0
M  V30 10774 C 1011.93 2.34403 0.0960457 0
M  V30 10775 C 1012.95 1.51862 0.849355 0
M  V30 10776 O 1014.12 1.84632 0.804557 0
M  V30 10777 C 1011.19 3.29646 1.07397 0
M  V30 10778 C 1010.25 4.28095 0.321466 0
M  V30 10779 C 1009.48 5.18787 1.25281 0
M  V30 10780 O 1009.7 5.1313 2.49106 0
M  V30 10781 O 1008.64 5.97282 0.744156 0
M  V30 10782 H 1012.46 2.96898 -0.639176 0
M  V30 10783 H 1010.05 1.44529 -0.37837 0
M  V30 10784 H 1011.93 3.88307 1.63694 0
M  V30 10785 H 1010.61 2.69702 1.79004 0
M  V30 10786 H 1009.51 3.73019 -0.284223 0
M  V30 10787 H 1010.85 4.90923 -0.354315 0
M  V30 10788 N 1012.5 0.357919 1.53482 0
M  V30 10789 C 1013.75 -0.235241 2.00324 0
M  V30 10790 C 1014.06 -1.50494 1.24944 0
M  V30 10791 O 1015.27 -2.17623 1.62335 0
M  V30 10792 C 1013.72 -0.469748 3.56821 0
M  V30 10793 C 1013.33 0.784877 4.41071 0
M  V30 10794 C 1015.07 -1.02098 4.12039 0
M  V30 10795 C 1012.98 0.520377 5.89106 0
M  V30 10796 H 1011.91 -0.0916816 0.748405 0
M  V30 10797 H 1014.56 0.475474 1.77233 0
M  V30 10798 H 1012.94 -1.24153 3.76035 0
M  V30 10799 H 1014.12 1.55886 4.33631 0
M  V30 10800 H 1012.43 1.25878 3.96918 0
M  V30 10801 H 1015.03 -1.23406 5.20264 0
M  V30 10802 H 1015.37 -1.98084 3.66154 0
M  V30 10803 H 1015.91 -0.309554 3.96594 0
M  V30 10804 H 1012.65 1.45035 6.39254 0
M  V30 10805 H 1012.17 -0.215254 5.99414 0
M  V30 10806 H 1013.84 0.143006 6.46842 0
M  V30 10807 N 1013.98 -1.5736 0.0868897 0
M  V30 10808 C 1014.94 -2.12436 -0.860439 0
M  V30 10809 C 1015.94 -1.05175 -1.21634 0
M  V30 10810 O 1017.13 -1.31098 -1.14713 0
M  V30 10811 C 1014.26 -2.63818 -2.159 0
M  V30 10812 H 1015.45 -2.97453 -0.382346 0
M  V30 10813 H 1013.01 -1.55458 -0.162009 0
M  V30 10814 H 1013.74 -1.82298 -2.68212 0
M  V30 10815 H 1013.53 -3.42234 -1.91359 0
M  V30 10816 H 1015.02 -3.06452 -2.83685 0
M  V30 10817 N 1015.45 0.186762 -1.56489 0
M  V30 10818 C 1016.42 1.21511 -1.94339 0
M  V30 10819 C 1017.42 1.38001 -0.82537 0
M  V30 10820 O 1018.61 1.3567 -1.09266 0
M  V30 10821 C 1015.74 2.583 -2.22472 0
M  V30 10822 H 1016.93 0.891371 -2.86347 0
M  V30 10823 H 1014.49 0.428612 -1.50308 0
M  V30 10824 H 1015.22 2.95715 -1.33129 0
M  V30 10825 H 1015.01 2.47701 -3.03951 0
M  V30 10826 H 1016.5 3.32441 -2.5273 0
M  V30 10827 N 1016.93 1.50896 0.454776 0
M  V30 10828 C 1017.88 1.70947 1.55067 0
M  V30 10829 C 1018.85 0.550899 1.56698 0
M  V30 10830 O 1020.03 0.783352 1.73978 0
M  V30 10831 C 1017.17 1.82455 2.92924 0
M  V30 10832 C 1016.29 3.09919 3.00956 0
M  V30 10833 C 1015.42 3.12125 4.29827 0
M  V30 10834 C 1014.46 4.33975 4.31662 0
M  V30 10835 N 1013.6 4.33828 5.5203 0
M  V30 10836 H 1018.44 2.645 1.37273 0
M  V30 10837 H 1015.98 1.31101 0.667148 0
M  V30 10838 H 1017.93 1.87108 3.72889 0
M  V30 10839 H 1016.56 0.92327 3.09315 0
M  V30 10840 H 1015.62 3.14659 2.13761 0
M  V30 10841 H 1016.93 3.99869 2.98172 0
M  V30 10842 H 1016.08 3.15598 5.18154 0
M  V30 10843 H 1014.82 2.20033 4.35243 0
M  V30 10844 H 1013.83 4.30697 3.41731 0
M  V30 10845 H 1015.05 5.27312 4.27924 0
M  V30 10846 H 1013 3.44598 5.58201 0
M  V30 10847 H 1012.91 5.17566 5.51055 0
M  V30 10848 H 1014.18 4.4147 6.42437 0
M  V30 10849 N 1018.41 -0.709066 1.40748 0
M  V30 10850 C 1019.64 -1.49591 1.425 0
M  V30 10851 C 1020.05 -1.89184 0.0248343 0
M  V30 10852 O 1019.39 -1.56429 -0.963109 0
M  V30 10853 C 1019.45 -2.79735 2.25807 0
M  V30 10854 C 1019.12 -2.62426 3.74141 0
M  V30 10855 C 1020.11 -2.29256 4.66624 0
M  V30 10856 C 1017.8 -2.78487 4.18032 0
M  V30 10857 C 1019.79 -2.12366 6.00982 0
M  V30 10858 C 1017.48 -2.61215 5.52458 0
M  V30 10859 C 1018.48 -2.28203 6.43749 0
M  V30 10860 O 1018.17 -2.11069 7.75697 0
M  V30 10861 H 1017.9 -0.467994 0.487809 0
M  V30 10862 H 1020.45 -0.881694 1.85514 0
M  V30 10863 H 1018.68 -3.43513 1.77584 0
M  V30 10864 H 1020.37 -3.41481 2.19421 0
M  V30 10865 H 1021.14 -2.16474 4.34009 0
M  V30 10866 H 1017.02 -3.03168 3.4729 0
M  V30 10867 H 1020.56 -1.86522 6.72202 0
M  V30 10868 H 1016.46 -2.73582 5.84656 0
M  V30 10869 H 1017.23 -2.25938 7.86698 0
M  V30 10870 N 1019.89 -1.26353 -0.941956 0
M  V30 10871 C 1020.84 -1.07842 -2.04056 0
M  V30 10872 C 1021.81 0.0163064 -1.66092 0
M  V30 10873 O 1022.99 -0.143313 -1.90261 0
M  V30 10874 C 1020.13 -0.716636 -3.37577 0
M  V30 10875 C 1019.24 -1.88754 -3.88582 0
M  V30 10876 C 1018.38 -1.46893 -5.10486 0
M  V30 10877 C 1017.42 -2.60819 -5.53751 0
M  V30 10878 N 1016.56 -2.19646 -6.66858 0
M  V30 10879 H 1021.4 -2.01856 -2.19221 0
M  V30 10880 H 1018.93 -1.00504 -1.07412 0
M  V30 10881 H 1020.89 -0.487768 -4.14339 0
M  V30 10882 H 1019.52 0.18653 -3.22261 0
M  V30 10883 H 1018.57 -2.22936 -3.08227 0
M  V30 10884 H 1019.88 -2.74264 -4.1663 0
M  V30 10885 H 1019.04 -1.20047 -5.94705 0
M  V30 10886 H 1017.78 -0.584721 -4.84182 0
M  V30 10887 H 1016.78 -2.88396 -4.6809 0
M  V30 10888 H 1018.01 -3.49838 -5.82057 0
M  V30 10889 H 1015.95 -1.33657 -6.4224 0
M  V30 10890 H 1015.87 -2.987 -6.94489 0
M  V30 10891 H 1017.14 -1.96009 -7.54454 0
M  V30 10892 N 1021.37 1.14642 -1.08144 0
M  V30 10893 C 1022.32 2.17665 -0.678661 0
M  V30 10894 C 1023.3 1.58072 0.300336 0
M  V30 10895 O 1024.49 1.7664 0.112781 0
M  V30 10896 C 1021.62 3.43191 -0.0866362 0
M  V30 10897 C 1020.71 4.0982 -1.09126 0
M  V30 10898 N 1021.1 4.51814 -2.27372 0
M  V30 10899 C 1019.4 4.36272 -0.926411 0
M  V30 10900 C 1020.1 5.03581 -2.91172 0
M  V30 10901 N 1019.07 4.97624 -2.18795 0
M  V30 10902 H 1022.88 2.47872 -1.57914 0
M  V30 10903 H 1020.39 1.31296 -0.955772 0
M  V30 10904 H 1022.39 4.1632 0.219859 0
M  V30 10905 H 1021.05 3.14464 0.80886 0
M  V30 10906 H 1022.06 4.44941 -2.65044 0
M  V30 10907 H 1018.74 4.17414 -0.084492 0
M  V30 10908 H 1020.13 5.45969 -3.91621 0
M  V30 10909 N 1022.85 0.866709 1.31628 0
M  V30 10910 C 1024.07 0.48956 2.01539 0
M  V30 10911 C 1024.5 -0.909556 1.64647 0
M  V30 10912 O 1023.85 -1.59959 0.853391 0
M  V30 10913 C 1023.9 0.650176 3.5469 0
M  V30 10914 O 1023.01 -0.311908 4.11219 0
M  V30 10915 H 1022.35 0.195144 0.634677 0
M  V30 10916 H 1024.88 1.16923 1.679 0
M  V30 10917 H 1024.89 0.542236 4.04381 0
M  V30 10918 H 1023.56 1.67038 3.80882 0
M  V30 10919 H 1022.14 -0.159197 3.7256 0
M  V30 10920 N 1024.32 -1.44642 0.625825 0
M  V30 10921 C 1025.57 -2.02393 0.128391 0
M  V30 10922 C 1025.9 -1.49075 -1.2446 0
M  V30 10923 O 1025.18 -0.672684 -1.82497 0
M  V30 10924 C 1025.46 -3.59934 0.109279 0
M  V30 10925 C 1025.31 -4.23546 1.51423 0
M  V30 10926 C 1026.63 -4.36406 -0.568985 0
M  V30 10927 H 1023.75 -0.735427 0.0481299 0
M  V30 10928 H 1026.39 -1.72277 0.801286 0
M  V30 10929 H 1024.54 -3.85722 -0.463726 0
M  V30 10930 H 1026.22 -4.08882 2.13572 0
M  V30 10931 H 1024.46 -3.81245 2.06966 0
M  V30 10932 H 1025.13 -5.32535 1.45294 0
M  V30 10933 H 1027.61 -4.1602 -0.0817516 0
M  V30 10934 H 1026.48 -5.46122 -0.551527 0
M  V30 10935 H 1026.74 -4.1062 -1.6384 0
M  V30 10936 N 1025.8 -0.366053 -1.5329 0
M  V30 10937 C 1027.05 0.223824 -2.01561 0
M  V30 10938 C 1027.38 1.48382 -1.25286 0
M  V30 10939 O 1026.66 1.91385 -0.34669 0
M  V30 10940 C 1026.94 0.5153 -3.56394 0
M  V30 10941 C 1026.79 -0.758357 -4.43361 0
M  V30 10942 C 1028.11 1.31568 -4.19974 0
M  V30 10943 H 1025.23 0.0798751 -0.732659 0
M  V30 10944 H 1027.87 -0.491038 -1.83545 0
M  V30 10945 H 1026.02 1.12429 -3.71876 0
M  V30 10946 H 1027.69 -1.39584 -4.39675 0
M  V30 10947 H 1025.94 -1.37862 -4.11311 0
M  V30 10948 H 1026.61 -0.509366 -5.49645 0
M  V30 10949 H 1029.08 0.800514 -4.08327 0
M  V30 10950 H 1027.96 1.48837 -5.28336 0
M  V30 10951 H 1028.22 2.32432 -3.76069 0
M  V30 10952 N 1027.28 1.57312 -0.0952337 0
M  V30 10953 C 1028.23 2.14032 0.863657 0
M  V30 10954 C 1029.2 1.0589 1.27971 0
M  V30 10955 O 1030.38 1.33678 1.36143 0
M  V30 10956 C 1027.52 2.72513 2.11733 0
M  V30 10957 C 1026.63 3.94887 1.7518 0
M  V30 10958 C 1025.77 4.41533 2.95334 0
M  V30 10959 C 1024.81 5.56496 2.54908 0
M  V30 10960 N 1023.95 5.97993 3.67897 0
M  V30 10961 H 1028.79 2.95655 0.373115 0
M  V30 10962 H 1026.32 1.46085 0.172497 0
M  V30 10963 H 1028.28 3.04539 2.85153 0
M  V30 10964 H 1026.91 1.93618 2.58287 0
M  V30 10965 H 1025.96 3.69175 0.917279 0
M  V30 10966 H 1027.27 4.78322 1.41455 0
M  V30 10967 H 1026.43 4.75343 3.77007 0
M  V30 10968 H 1025.17 3.56999 3.3227 0
M  V30 10969 H 1024.17 5.22314 1.71662 0
M  V30 10970 H 1025.4 6.42779 2.19117 0
M  V30 10971 H 1023.34 5.16405 4.04551 0
M  V30 10972 H 1023.26 6.76225 3.38018 0
M  V30 10973 H 1024.53 6.36434 4.5008 0
M  V30 10974 N 1028.76 -0.17846 1.56586 0
M  V30 10975 C 1029.7 -1.22104 1.95855 0
M  V30 10976 C 1030.67 -1.44366 0.821447 0
M  V30 10977 O 1031.86 -1.57224 1.08098 0
M  V30 10978 C 1029 -2.55701 2.31757 0
M  V30 10979 C 1028.11 -2.40879 3.5861 0
M  V30 10980 C 1027.25 -3.67293 3.83757 0
M  V30 10981 C 1026.29 -3.47373 5.03982 0
M  V30 10982 N 1025.42 -4.65839 5.25298 0
M  V30 10983 H 1030.26 -0.879168 2.84736 0
M  V30 10984 H 1027.8 -0.422721 1.40895 0
M  V30 10985 H 1029.76 -3.33556 2.50592 0
M  V30 10986 H 1028.39 -2.87898 1.45995 0
M  V30 10987 H 1027.44 -1.54236 3.47729 0
M  V30 10988 H 1028.75 -2.22102 4.46623 0
M  V30 10989 H 1027.91 -4.53584 4.02922 0
M  V30 10990 H 1026.65 -3.89041 2.94107 0
M  V30 10991 H 1025.65 -2.59467 4.84723 0
M  V30 10992 H 1026.88 -3.27055 5.95157 0
M  V30 10993 H 1024.82 -4.8782 4.38598 0
M  V30 10994 H 1024.74 -4.4995 6.0752 0
M  V30 10995 H 1026.01 -5.53435 5.48936 0
M  V30 10996 N 1030.24 -1.51135 -0.446768 0
M  V30 10997 C 1031.48 -1.64989 -1.20656 0
M  V30 10998 C 1031.84 -0.353882 -1.88711 0
M  V30 10999 O 1033.04 -0.368099 -2.66268 0
M  V30 11000 C 1031.31 -2.81371 -2.20375 0
M  V30 11001 S 1032.87 -3.15501 -3.04967 0
M  V30 11002 H 1029.69 -0.581372 -0.409301 0
M  V30 11003 H 1032.29 -1.89008 -0.499613 0
M  V30 11004 H 1030.99 -3.73988 -1.69001 0
M  V30 11005 H 1030.53 -2.59512 -2.95664 0
M  V30 11006 H 1032.54 -2.61205 -4.21884 0
M  V30 11007 N 1031.71 0.701592 -1.41122 0
M  V30 11008 C 1032.95 1.4739 -1.41618 0
M  V30 11009 C 1033.32 1.91987 -0.0219443 0
M  V30 11010 O 1034.52 2.6862 0.0982793 0
M  V30 11011 C 1032.79 2.65745 -2.38986 0
M  V30 11012 S 1034.35 3.54968 -2.5796 0
M  V30 11013 H 1031.17 0.503742 -0.501762 0
M  V30 11014 H 1033.77 0.819186 -1.77509 0
M  V30 11015 H 1032.47 2.31176 -3.39096 0
M  V30 11016 H 1032 3.36115 -2.04426 0
M  V30 11017 H 1034.02 4.60724 -1.84249 0
M  V30 11018 N 1033.19 1.2685 0.935242 0
M  V30 11019 C 1034.42 1.15371 1.71386 0
M  V30 11020 C 1034.83 -0.293048 1.86917 0
M  V30 11021 O 1034.17 -1.212 1.38044 0
M  V30 11022 C 1034.23 1.75652 3.13666 0
M  V30 11023 C 1033.9 3.24788 3.215 0
M  V30 11024 C 1034.9 4.21525 3.04323 0
M  V30 11025 C 1032.58 3.65359 3.447 0
M  V30 11026 C 1034.57 5.56812 3.10224 0
M  V30 11027 C 1032.26 5.00778 3.50235 0
M  V30 11028 C 1033.26 5.96314 3.33014 0
M  V30 11029 O 1032.95 7.29266 3.38269 0
M  V30 11030 H 1032.68 0.40234 0.54323 0
M  V30 11031 H 1035.23 1.68083 1.18056 0
M  V30 11032 H 1033.46 1.17408 3.68446 0
M  V30 11033 H 1035.15 1.58994 3.73465 0
M  V30 11034 H 1035.92 3.91519 2.86249 0
M  V30 11035 H 1031.8 2.91479 3.57157 0
M  V30 11036 H 1035.34 6.3136 2.967 0
M  V30 11037 H 1031.24 5.30444 3.67831 0
M  V30 11038 H 1032.01 7.37616 3.54774 0
M  V30 11039 N 1034.67 -1.14067 1.0875 0
M  V30 11040 C 1035.95 -1.81389 0.73195 0
M  V30 11041 C 1036.33 -1.96005 -0.78391 0
M  V30 11042 O 1035.68 -1.52267 -1.70373 0
M  V30 11043 C 1035.89 -3.16858 1.46294 0
M  V30 11044 C 1037.23 -3.92305 1.62426 0
M  V30 11045 O 1038.26 -3.26459 1.42488 0
M  V30 11046 O 1037.12 -5.10393 1.9535 0
M  V30 11047 H 1034.21 -0.784354 0.262141 0
M  V30 11048 H 1036.76 -1.21054 1.18929 0
M  V30 11049 H 1035.53 -3.01404 2.49542 0
M  V30 11050 H 1035.15 -3.84889 0.997318 0
M  V30 11051 N 1036.15 -0.873678 -1.31166 0
M  V30 11052 C 1037.4 -0.485497 -1.96182 0
M  V30 11053 C 1037.72 0.96621 -1.69379 0
M  V30 11054 O 1036.99 1.67783 -1.01121 0
M  V30 11055 H 1035.57 -0.176547 -0.725838 0
M  V30 11056 H 1038.23 -1.11428 -1.59906 0
M  V30 11057 H 1037.33 -0.646325 -3.05334 0
M  V30 11058 N 1037.63 1.44308 -0.633487 0
M  V30 11059 C 1038.59 2.2912 0.060376 0
M  V30 11060 C 1039.59 1.41166 0.769992 0
M  V30 11061 O 1040.78 1.63012 0.614224 0
M  V30 11062 C 1037.91 3.22798 1.0961 0
M  V30 11063 H 1039.1 2.91958 -0.685617 0
M  V30 11064 H 1036.66 1.51259 -0.393738 0
M  V30 11065 H 1037.39 2.64815 1.87199 0
M  V30 11066 H 1037.18 3.87618 0.591161 0
M  V30 11067 H 1038.67 3.86504 1.58127 0
M  V30 11068 N 1039.1 0.374177 1.53094 0
M  V30 11069 C 1040.34 -0.21278 2.03289 0
M  V30 11070 C 1040.71 -1.45291 1.25517 0
M  V30 11071 O 1041.91 -2.11605 1.65761 0
M  V30 11072 C 1040.18 -0.48913 3.54037 0
M  V30 11073 S 1041.74 -1.04853 4.26088 0
M  V30 11074 H 1038.56 -0.0612752 0.708355 0
M  V30 11075 H 1041.16 0.519031 1.88484 0
M  V30 11076 H 1039.86 0.420786 4.08237 0
M  V30 11077 H 1039.39 -1.24978 3.7302 0
M  V30 11078 H 1041.41 -2.33213 4.3798 0
M  V30 11079 N 1040.58 -1.57259 0.103575 0
M  V30 11080 C 1041.83 -1.94945 -0.558953 0
M  V30 11081 C 1042.16 -0.986038 -1.67305 0
M  V30 11082 O 1041.44 -0.0205464 -1.94489 0
M  V30 11083 C 1041.72 -3.42689 -1.10617 0
M  V30 11084 C 1041.57 -4.498 0.00345246 0
M  V30 11085 C 1042.89 -3.91933 -2.00191 0
M  V30 11086 H 1040.01 -0.708859 -0.201713 0
M  V30 11087 H 1042.65 -1.89183 0.176006 0
M  V30 11088 H 1040.8 -3.4773 -1.73251 0
M  V30 11089 H 1042.47 -4.56866 0.638082 0
M  V30 11090 H 1040.72 -4.28615 0.668705 0
M  V30 11091 H 1041.39 -5.50397 -0.420396 0
M  V30 11092 H 1043.86 -3.89098 -1.4745 0
M  V30 11093 H 1042.74 -4.9586 -2.35402 0
M  V30 11094 H 1043 -3.31722 -2.92255 0
M  V30 11095 N 1042.06 0.170153 -1.56679 0
M  V30 11096 C 1043.01 1.22997 -1.9742 0
M  V30 11097 C 1044 1.45762 -0.863117 0
M  V30 11098 O 1045.21 1.46328 -1.04824 0
M  V30 11099 H 1041.58 0.413482 -0.628122 0
M  V30 11100 H 1043.55 0.859502 -2.85754 0
M  V30 11101 C 1042.3 2.5615 -2.35122 0
M  V30 11102 H 1041.63 2.39456 -3.20158 0
M  V30 11103 H 1043.07 3.28991 -2.67471 0
M  V30 11104 C 1041.53 3.14992 -1.19507 0
M  V30 11105 O 1042.06 3.98781 -0.483357 0
M  V30 11106 N 1040.26 2.74098 -0.965332 0
M  V30 11107 H 1039.81 2.06062 -1.54585 0
M  V30 11108 H 1039.77 3.13803 -0.193611 0
M  V30 11109 N 1043.54 1.5137 0.438746 0
M  V30 11110 C 1044.49 1.73154 1.55308 0
M  V30 11111 C 1045.48 0.597825 1.58501 0
M  V30 11112 O 1046.69 0.77917 1.62262 0
M  V30 11113 H 1043.06 0.547083 0.51595 0
M  V30 11114 H 1045.03 2.66566 1.34108 0
M  V30 11115 C 1043.78 1.87242 2.92977 0
M  V30 11116 H 1043.1 2.73884 2.91252 0
M  V30 11117 H 1044.54 2.06497 3.70317 0
M  V30 11118 C 1043 0.631887 3.30921 0
M  V30 11119 O 1043.53 -0.214099 4.01129 0
M  V30 11120 N 1041.74 0.47639 2.86669 0
M  V30 11121 H 1041.29 1.16589 2.29706 0
M  V30 11122 H 1041.24 -0.352403 3.12419 0
M  V30 11123 N 1045.02 -0.694098 1.41492 0
M  V30 11124 C 1046.29 -1.44875 1.31418 0
M  V30 11125 C 1046.67 -2.11022 -0.0575538 0
M  V30 11126 O 1046.02 -2.01799 -1.07188 0
M  V30 11127 C 1046.23 -2.46698 2.46863 0
M  V30 11128 C 1047.58 -3.11907 2.88095 0
M  V30 11129 O 1048.6 -2.57022 2.46613 0
M  V30 11130 O 1047.46 -4.11318 3.59833 0
M  V30 11131 H 1044.56 -0.645266 0.517263 0
M  V30 11132 H 1047.1 -0.724452 1.53459 0
M  V30 11133 H 1045.87 -1.96485 3.38392 0
M  V30 11134 H 1045.5 -3.26634 2.26706 0
M  V30 11135 N 1046.49 -1.27344 -0.928501 0
M  V30 11136 C 1047.4 -1.11812 -2.06241 0
M  V30 11137 C 1048.42 -0.048347 -1.73933 0
M  V30 11138 O 1049.6 -0.25467 -1.99783 0
M  V30 11139 C 1046.66 -0.766036 -3.38131 0
M  V30 11140 C 1045.72 -1.91659 -3.84142 0
M  V30 11141 C 1044.96 -1.58121 -5.09738 0
M  V30 11142 O 1045.18 -0.488742 -5.68302 0
M  V30 11143 O 1044.11 -2.42013 -5.51102 0
M  V30 11144 H 1047.94 -2.06967 -2.22258 0
M  V30 11145 H 1045.52 -1.06524 -1.04752 0
M  V30 11146 H 1047.41 -0.582982 -4.17348 0
M  V30 11147 H 1046.08 0.155998 -3.23324 0
M  V30 11148 H 1044.99 -2.1547 -3.05816 0
M  V30 11149 H 1046.32 -2.8188 -4.0349 0
M  V30 11150 N 1047.97 1.13488 -1.09353 0
M  V30 11151 C 1049.2 1.88592 -0.850915 0
M  V30 11152 C 1049.62 1.79087 0.597761 0
M  V30 11153 O 1048.97 1.15695 1.41142 0
M  V30 11154 C 1049.02 3.38219 -1.27633 0
M  V30 11155 O 1048.74 3.47476 -2.66819 0
M  V30 11156 C 1050.25 4.30293 -1.06598 0
M  V30 11157 H 1047.47 0.597069 -0.306185 0
M  V30 11158 H 1050.01 1.43668 -1.45533 0
M  V30 11159 H 1048.16 3.80729 -0.715828 0
M  V30 11160 H 1048.58 4.40485 -2.84733 0
M  V30 11161 H 1050.05 5.33611 -1.41293 0
M  V30 11162 H 1050.53 4.392 -0.0037135 0
M  V30 11163 H 1051.14 3.9355 -1.6124 0
M  V30 11164 N 1049.45 0.880621 1.30701 0
M  V30 11165 C 1050.69 0.503519 1.98101 0
M  V30 11166 C 1051.06 -0.929075 1.68024 0
M  V30 11167 O 1052.26 -1.41208 2.28722 0
M  V30 11168 C 1050.53 0.765652 3.49102 0
M  V30 11169 S 1052.09 0.490001 4.36056 0
M  V30 11170 H 1048.9 0.187522 0.685825 0
M  V30 11171 H 1051.51 1.13895 1.58897 0
M  V30 11172 H 1050.21 1.80688 3.68484 0
M  V30 11173 H 1049.74 0.117616 3.93224 0
M  V30 11174 H 1051.76 -0.673236 4.91612 0
M  V30 11175 N 1050.93 -1.4397 0.641131 0
M  V30 11176 C 1051.84 -2.34526 -0.058742 0
M  V30 11177 C 1052.86 -1.53194 -0.825088 0
M  V30 11178 O 1054.03 -1.85888 -0.775081 0
M  V30 11179 C 1051.1 -3.31313 -1.02139 0
M  V30 11180 C 1050.16 -4.28552 -0.253319 0
M  V30 11181 C 1049.39 -5.20715 -1.17012 0
M  V30 11182 O 1049.61 -5.17028 -2.40911 0
M  V30 11183 O 1048.55 -5.9839 -0.649039 0
M  V30 11184 H 1052.37 -2.95843 0.686329 0
M  V30 11185 H 1049.96 -1.43909 0.401316 0
M  V30 11186 H 1051.84 -3.90862 -1.57496 0
M  V30 11187 H 1050.52 -2.72516 -1.7469 0
M  V30 11188 H 1049.42 -3.72519 0.343531 0
M  V30 11189 H 1050.76 -4.90297 0.432372 0
M  V30 11190 N 1052.41 -0.382291 -1.52893 0
M  V30 11191 C 1053.34 0.491199 -2.23875 0
M  V30 11192 C 1054.35 1.03249 -1.25871 0
M  V30 11193 O 1055.54 0.936016 -1.5199 0
M  V30 11194 C 1052.64 1.6927 -2.936 0
M  V30 11195 C 1051.81 1.28 -4.18252 0
M  V30 11196 C 1050.87 2.34541 -4.71038 0
M  V30 11197 O 1049.9 1.96239 -5.34302 0
M  V30 11198 N 1051.1 3.6636 -4.50289 0
M  V30 11199 H 1053.87 -0.116897 -2.99472 0
M  V30 11200 H 1051.43 -0.208296 -1.60554 0
M  V30 11201 H 1053.42 2.40054 -3.25816 0
M  V30 11202 H 1051.99 2.20729 -2.21354 0
M  V30 11203 H 1051.21 0.40133 -3.92152 0
M  V30 11204 H 1052.5 0.98082 -4.99257 0
M  V30 11205 H 1051.9 4.00245 -3.99775 0
M  V30 11206 H 1050.45 4.332 -4.87013 0
M  V30 11207 N 1053.89 1.57202 -0.111913 0
M  V30 11208 C 1055.3 1.57713 0.244702 0
M  V30 11209 C 1055.5 1.12419 1.67225 0
M  V30 11210 O 1054.56 0.808329 2.39212 0
M  V30 11211 C 1055.87 3.00695 0.0178289 0
M  V30 11212 C 1057.42 3.12887 0.0842781 0
M  V30 11213 C 1057.89 4.57856 -0.114812 0
M  V30 11214 N 1059.38 4.6316 -0.0605423 0
M  V30 11215 C 1060.12 5.73086 -0.189594 0
M  V30 11216 N 1059.62 6.91787 -0.37442 0
M  V30 11217 N 1061.41 5.6195 -0.12967 0
M  V30 11218 H 1053.56 1.84947 -1.04443 0
M  V30 11219 H 1055.82 0.854418 -0.4107 0
M  V30 11220 H 1055.53 3.38093 -0.968802 0
M  V30 11221 H 1055.4 3.69611 0.752815 0
M  V30 11222 H 1057.79 2.7535 1.06143 0
M  V30 11223 H 1057.87 2.46528 -0.682474 0
M  V30 11224 H 1057.51 4.9609 -1.0889 0
M  V30 11225 H 1057.44 5.22297 0.671839 0
M  V30 11226 H 1059.94 3.77817 0.0790856 0
M  V30 11227 H 1060.25 7.71406 -0.463948 0
M  V30 11228 H 1058.59 6.93788 -0.410303 0
M  V30 11229 H 1061.78 4.68098 0.0137115 0
M  V30 11230 H 1061.96 6.47578 -0.233688 0
M  V30 11231 N 1055.36 -0.161842 1.56767 0
M  V30 11232 C 1056.33 -1.18404 1.96247 0
M  V30 11233 C 1057.33 -1.3667 0.84722 0
M  V30 11234 O 1058.52 -1.33915 1.11411 0
M  V30 11235 C 1055.65 -2.54728 2.26553 0
M  V30 11236 H 1056.84 -0.845703 2.87729 0
M  V30 11237 H 1054.39 -0.404645 1.50971 0
M  V30 11238 H 1055.13 -2.93559 1.37816 0
M  V30 11239 H 1054.91 -2.42834 3.07854 0
M  V30 11240 H 1056.4 -3.28378 2.57987 0
M  V30 11241 N 1056.84 -1.516 -0.430713 0
M  V30 11242 C 1057.8 -1.72794 -1.50582 0
M  V30 11243 C 1058.8 -0.597903 -1.49271 0
M  V30 11244 O 1059.99 -0.865535 -1.51176 0
M  V30 11245 C 1057.13 -1.79049 -2.90093 0
M  V30 11246 H 1058.32 -2.68751 -1.33091 0
M  V30 11247 H 1055.87 -1.4169 -0.659822 0
M  V30 11248 H 1056.61 -0.849309 -3.12981 0
M  V30 11249 H 1056.39 -2.61181 -2.92449 0
M  V30 11250 H 1057.88 -1.97262 -3.68072 0
M  V30 11251 N 1058.32 0.686584 -1.41858 0
M  V30 11252 C 1059.74 0.998283 -1.24525 0
M  V30 11253 C 1059.94 2.01006 -0.141007 0
M  V30 11254 O 1058.99 2.47667 0.491648 0
M  V30 11255 C 1060.3 1.51432 -2.59786 0
M  V30 11256 C 1061.85 1.6327 -2.67043 0
M  V30 11257 C 1062.33 2.18274 -4.02642 0
M  V30 11258 N 1063.82 2.25622 -4.04535 0
M  V30 11259 C 1064.55 2.69229 -5.06264 0
M  V30 11260 N 1064.05 3.12375 -6.1838 0
M  V30 11261 N 1065.84 2.68873 -4.93623 0
M  V30 11262 H 1057.99 0.0164825 -2.12394 0
M  V30 11263 H 1060.26 0.0698613 -0.945422 0
M  V30 11264 H 1059.96 0.845426 -3.41388 0
M  V30 11265 H 1059.84 2.49502 -2.82894 0
M  V30 11266 H 1062.22 2.29269 -1.85794 0
M  V30 11267 H 1062.3 0.637221 -2.47736 0
M  V30 11268 H 1061.95 1.52887 -4.84343 0
M  V30 11269 H 1061.88 3.18591 -4.19294 0
M  V30 11270 H 1064.37 1.95186 -3.23591 0
M  V30 11271 H 1064.68 3.44301 -6.91864 0
M  V30 11272 H 1063.03 3.10262 -6.21902 0
M  V30 11273 H 1066.22 2.34521 -4.05114 0
M  V30 11274 H 1066.39 3.02539 -5.7304 0
M  V30 11275 N 1059.8 1.27835 0.921735 0
M  V30 11276 C 1061.05 1.13904 1.6646 0
M  V30 11277 C 1061.36 -0.313379 1.93073 0
M  V30 11278 O 1062.57 -0.573687 2.6537 0
M  V30 11279 C 1061.02 1.99064 2.99836 0
M  V30 11280 C 1060.63 3.48998 2.80899 0
M  V30 11281 C 1062.37 1.93797 3.77681 0
M  V30 11282 C 1060.28 4.26337 4.09867 0
M  V30 11283 H 1059.21 0.422681 0.624385 0
M  V30 11284 H 1061.86 1.52303 1.02352 0
M  V30 11285 H 1060.24 1.53514 3.65034 0
M  V30 11286 H 1061.42 4.02452 2.24431 0
M  V30 11287 H 1059.73 3.55707 2.16476 0
M  V30 11288 H 1062.33 2.48852 4.73262 0
M  V30 11289 H 1062.67 0.912928 4.06167 0
M  V30 11290 H 1063.21 2.37275 3.19289 0
M  V30 11291 H 1059.94 5.2939 3.86557 0
M  V30 11292 H 1059.46 3.77659 4.65976 0
M  V30 11293 H 1061.14 4.3583 4.78185 0
M  V30 11294 N 1061.28 -1.12907 1.09954 0
M  V30 11295 C 1062.5 -1.88679 0.861099 0
M  V30 11296 C 1062.93 -1.78853 -0.582499 0
M  V30 11297 O 1062.28 -1.13992 -1.4098 0
M  V30 11298 C 1062.33 -3.36047 1.30785 0
M  V30 11299 O 1061.44 -4.09716 0.469728 0
M  V30 11300 H 1060.78 -0.586447 0.31141 0
M  V30 11301 H 1063.31 -1.42818 1.46507 0
M  V30 11302 H 1063.32 -3.86882 1.29562 0
M  V30 11303 H 1061.99 -3.42516 2.35914 0
M  V30 11304 H 1060.57 -3.6887 0.54674 0
M  V30 11305 N 1062.75 -0.88754 -1.30232 0
M  V30 11306 C 1063.68 -0.372481 -2.3051 0
M  V30 11307 C 1064.66 0.546037 -1.61098 0
M  V30 11308 O 1065.85 0.459345 -1.88689 0
M  V30 11309 C 1062.98 0.411605 -3.44852 0
M  V30 11310 C 1061.93 -0.415383 -4.2598 0
M  V30 11311 C 1061.26 0.495463 -5.324 0
M  V30 11312 C 1062.56 -1.65886 -4.95257 0
M  V30 11313 H 1064.25 -1.21045 -2.7384 0
M  V30 11314 H 1061.8 -0.583498 -1.31648 0
M  V30 11315 H 1063.75 0.782584 -4.1407 0
M  V30 11316 H 1062.48 1.28325 -3.00334 0
M  V30 11317 H 1061.14 -0.768534 -3.58454 0
M  V30 11318 H 1060.78 1.36489 -4.84128 0
M  V30 11319 H 1060.48 -0.0540885 -5.87575 0
M  V30 11320 H 1062.01 0.862901 -6.04472 0
M  V30 11321 H 1063.42 -1.35832 -5.56976 0
M  V30 11322 H 1061.82 -2.14881 -5.60309 0
M  V30 11323 H 1062.89 -2.40181 -4.21237 0
M  V30 11324 N 1064.23 1.43628 -0.648757 0
M  V30 11325 C 1065.48 2.01465 -0.16002 0
M  V30 11326 C 1065.8 1.51413 1.22878 0
M  V30 11327 O 1065.07 0.724919 1.81994 0
M  V30 11328 H 1063.65 0.744885 -0.0561672 0
M  V30 11329 H 1066.31 1.75897 -0.839422 0
M  V30 11330 H 1065.41 3.1178 -0.141213 0
M  V30 11331 N 1065.71 0.390394 1.52688 0
M  V30 11332 C 1067.12 -0.083394 1.86514 0
M  V30 11333 C 1067.47 -1.46057 1.31003 0
M  V30 11334 O 1066.6 -2.06663 0.641809 0
M  V30 11335 C 1067.19 -0.158102 3.38431 0
M  V30 11336 C 1065.75 -0.576186 3.71964 0
M  V30 11337 C 1064.9 0.261156 2.76068 0
M  V30 11338 H 1067.85 0.608226 1.46582 0
M  V30 11339 H 1067.87 -0.977023 3.67742 0
M  V30 11340 H 1067.38 0.844365 3.78803 0
M  V30 11341 H 1065.48 -1.58598 3.37161 0
M  V30 11342 H 1065.6 -0.333577 4.77937 0
M  V30 11343 H 1063.96 -0.273737 2.53225 0
M  V30 11344 H 1064.74 1.26162 3.19277 0
M  V30 11345 N 1067.19 -1.57141 0.120249 0
M  V30 11346 C 1068.6 -1.5784 -0.236335 0
M  V30 11347 C 1068.8 -1.13304 -1.66626 0
M  V30 11348 O 1067.86 -0.821004 -2.3878 0
M  V30 11349 C 1069.17 -3.007 -0.00188211 0
M  V30 11350 C 1070.72 -3.12927 -0.0676838 0
M  V30 11351 C 1071.2 -4.57789 0.139092 0
M  V30 11352 N 1072.69 -4.63122 0.085104 0
M  V30 11353 C 1073.42 -5.72978 0.219983 0
M  V30 11354 N 1072.92 -6.91579 0.411102 0
M  V30 11355 N 1074.71 -5.61874 0.159469 0
M  V30 11356 H 1066.86 -1.84391 1.05422 0
M  V30 11357 H 1069.13 -0.852228 0.415225 0
M  V30 11358 H 1068.83 -3.37575 0.986718 0
M  V30 11359 H 1068.71 -3.70005 -0.733203 0
M  V30 11360 H 1071.09 -2.75909 -1.04681 0
M  V30 11361 H 1071.17 -2.46162 0.695538 0
M  V30 11362 H 1070.82 -4.95506 1.1152 0
M  V30 11363 H 1070.75 -5.22646 -0.644131 0
M  V30 11364 H 1073.24 -3.77854 -0.0590479 0
M  V30 11365 H 1073.55 -7.71149 0.504851 0
M  V30 11366 H 1071.9 -6.9356 0.447091 0
M  V30 11367 H 1075.09 -4.68099 0.0111131 0
M  V30 11368 H 1075.26 -6.47445 0.268028 0
M  V30 11369 N 1068.67 0.153526 -1.5685 0
M  V30 11370 C 1069.91 0.873522 -1.84794 0
M  V30 11371 C 1070.27 1.78642 -0.703648 0
M  V30 11372 O 1071.47 2.54537 -0.863972 0
M  V30 11373 C 1069.74 1.63316 -3.17904 0
M  V30 11374 S 1071.3 2.39948 -3.67383 0
M  V30 11375 H 1068.12 0.292233 -0.648167 0
M  V30 11376 H 1070.72 0.133949 -1.95041 0
M  V30 11377 H 1069.43 0.95387 -3.99161 0
M  V30 11378 H 1068.96 2.41377 -3.10646 0
M  V30 11379 H 1070.97 3.65011 -3.36127 0
M  V30 11380 N 1070.14 1.51827 0.422667 0
M  V30 11381 C 1071.39 1.6445 1.16786 0
M  V30 11382 C 1071.71 0.373792 1.91995 0
M  V30 11383 O 1072.91 0.379621 2.68833 0
M  V30 11384 C 1071.37 2.90488 2.12473 0
M  V30 11385 C 1070.98 4.24617 1.42844 0
M  V30 11386 C 1072.72 3.12472 2.87335 0
M  V30 11387 C 1070.63 5.41791 2.371 0
M  V30 11388 H 1069.56 0.612561 0.439641 0
M  V30 11389 H 1072.21 1.78305 0.433534 0
M  V30 11390 H 1070.59 2.703 2.89402 0
M  V30 11391 H 1071.76 4.55239 0.71372 0
M  V30 11392 H 1070.08 4.08628 0.800769 0
M  V30 11393 H 1072.68 3.9719 3.57973 0
M  V30 11394 H 1073.02 2.26148 3.49518 0
M  V30 11395 H 1073.55 3.33069 2.17509 0
M  V30 11396 H 1070.29 6.3042 1.79584 0
M  V30 11397 H 1069.81 5.15526 3.06583 0
M  V30 11398 H 1071.49 5.74329 2.97918 0
M  V30 11399 N 1071.62 -0.679052 1.4222 0
M  V30 11400 C 1072.57 -1.79269 1.45366 0
M  V30 11401 C 1073.54 -1.63255 0.306089 0
M  V30 11402 O 1074.72 -1.8387 0.509548 0
M  V30 11403 C 1071.86 -3.17272 1.35766 0
M  V30 11404 C 1070.98 -3.44603 2.60525 0
M  V30 11405 C 1070.11 -4.7231 2.43098 0
M  V30 11406 C 1069.15 -4.92661 3.63251 0
M  V30 11407 N 1068.29 -6.11606 3.44794 0
M  V30 11408 H 1073.13 -1.75916 2.40536 0
M  V30 11409 H 1070.67 -0.858836 1.19425 0
M  V30 11410 H 1072.62 -3.97015 1.282 0
M  V30 11411 H 1071.25 -3.1976 0.441939 0
M  V30 11412 H 1070.31 -2.59144 2.78475 0
M  V30 11413 H 1071.62 -3.55536 3.49851 0
M  V30 11414 H 1070.77 -5.60136 2.33093 0
M  V30 11415 H 1069.51 -4.63652 1.51255 0
M  V30 11416 H 1068.52 -4.03278 3.73693 0
M  V30 11417 H 1069.74 -5.03167 4.5607 0
M  V30 11418 H 1067.69 -6.04129 2.55663 0
M  V30 11419 H 1067.6 -6.23381 4.27705 0
M  V30 11420 H 1068.87 -7.02122 3.38592 0
M  V30 11421 N 1073.1 -1.28322 -0.914942 0
M  V30 11422 C 1074.06 -1.12169 -1.99877 0
M  V30 11423 C 1075.06 -0.0617252 -1.60681 0
M  V30 11424 O 1076.25 -0.307405 -1.71466 0
M  V30 11425 C 1073.39 -0.711959 -3.33383 0
M  V30 11426 H 1074.58 -2.08425 -2.15636 0
M  V30 11427 H 1072.13 -1.11291 -1.09745 0
M  V30 11428 H 1072.87 0.251418 -3.23324 0
M  V30 11429 H 1072.65 -1.47764 -3.63192 0
M  V30 11430 H 1074.14 -0.621558 -4.12948 0
M  V30 11431 N 1074.58 1.12322 -1.10551 0
M  V30 11432 C 1075.83 1.83858 -0.848674 0
M  V30 11433 C 1076.15 1.84159 0.62575 0
M  V30 11434 O 1075.41 1.28341 1.4774 0
M  V30 11435 C 1075.71 3.31177 -1.34375 0
M  V30 11436 C 1075.37 3.51046 -2.8298 0
M  V30 11437 C 1074.04 3.56177 -3.23561 0
M  V30 11438 C 1076.39 3.58061 -3.78737 0
M  V30 11439 C 1073.72 3.65868 -4.58647 0
M  V30 11440 C 1076.07 3.69283 -5.13627 0
M  V30 11441 C 1074.73 3.7267 -5.53781 0
M  V30 11442 H 1074 0.672784 -0.310552 0
M  V30 11443 H 1076.65 1.3253 -1.38232 0
M  V30 11444 H 1074.95 3.84937 -0.730144 0
M  V30 11445 H 1076.65 3.84998 -1.12148 0
M  V30 11446 H 1073.24 3.47716 -2.50582 0
M  V30 11447 H 1077.42 3.53366 -3.48491 0
M  V30 11448 H 1072.68 3.66763 -4.89178 0
M  V30 11449 H 1076.85 3.73654 -5.8767 0
M  V30 11450 H 1074.48 3.79932 -6.58449 0
M  V30 11451 N 1076.06 0.894434 1.2976 0
M  V30 11452 C 1077.28 0.532916 1.99919 0
M  V30 11453 C 1077.7 -0.881022 1.66983 0
M  V30 11454 O 1077.06 -1.58076 0.912035 0
M  V30 11455 C 1077.11 0.70936 3.54472 0
M  V30 11456 O 1076.83 2.06764 3.86239 0
M  V30 11457 C 1078.33 0.352089 4.419 0
M  V30 11458 H 1075.55 0.205019 0.638912 0
M  V30 11459 H 1078.09 1.20233 1.65421 0
M  V30 11460 H 1076.25 0.0871901 3.87302 0
M  V30 11461 H 1076.66 2.09315 4.80924 0
M  V30 11462 H 1078.14 0.526405 5.49484 0
M  V30 11463 H 1078.61 -0.710527 4.33415 0
M  V30 11464 H 1079.22 0.950979 4.14532 0
M  V30 11465 N 1077.53 -1.43282 0.656365 0
M  V30 11466 C 1078.44 -2.34576 -0.033864 0
M  V30 11467 C 1079.46 -1.5406 -0.808793 0
M  V30 11468 O 1080.64 -1.867 -0.755322 0
M  V30 11469 C 1077.7 -3.32378 -0.986197 0
M  V30 11470 C 1076.76 -4.28797 -0.207851 0
M  V30 11471 C 1076 -5.21927 -1.11482 0
M  V30 11472 O 1076.22 -5.19554 -2.35414 0
M  V30 11473 O 1075.15 -5.99045 -0.585536 0
M  V30 11474 H 1078.98 -2.95099 0.717668 0
M  V30 11475 H 1076.56 -1.43475 0.416556 0
M  V30 11476 H 1078.45 -3.9251 -1.53341 0
M  V30 11477 H 1077.12 -2.74354 -1.7179 0
M  V30 11478 H 1076.03 -3.72134 0.383022 0
M  V30 11479 H 1077.36 -4.89811 0.48435 0
M  V30 11480 N 1079.01 -0.398486 -1.52479 0
M  V30 11481 C 1080.25 0.180412 -2.03602 0
M  V30 11482 C 1080.62 1.43276 -1.27812 0
M  V30 11483 O 1081.82 2.08941 -1.69107 0
M  V30 11484 C 1080.09 0.432744 -3.5477 0
M  V30 11485 S 1081.65 0.980612 -4.27703 0
M  V30 11486 H 1078.47 0.0499981 -0.70924 0
M  V30 11487 H 1081.07 -0.548952 -1.87635 0
M  V30 11488 H 1079.77 -0.48568 -4.07516 0
M  V30 11489 H 1079.3 1.19028 -3.74961 0
M  V30 11490 H 1081.32 2.26216 -4.41634 0
M  V30 11491 N 1080.49 1.57075 -0.12858 0
M  V30 11492 C 1081.73 1.97408 0.530059 0
M  V30 11493 C 1082.1 1.01087 1.63234 0
M  V30 11494 O 1083.3 1.30394 2.35055 0
M  V30 11495 C 1081.57 3.41928 1.04021 0
M  V30 11496 S 1083.13 4.04277 1.70603 0
M  V30 11497 H 1079.94 0.689884 0.17199 0
M  V30 11498 H 1082.55 1.94304 -0.215933 0
M  V30 11499 H 1081.25 4.09772 0.226928 0
M  V30 11500 H 1080.78 3.48703 1.82125 0
M  V30 11501 H 1082.8 3.95819 2.99235 0
M  V30 11502 N 1081.97 -0.145205 1.5693 0
M  V30 11503 C 1083.22 -0.858786 1.83719 0
M  V30 11504 C 1083.55 -1.80738 0.710452 0
M  V30 11505 O 1082.82 -1.92389 -0.285791 0
M  V30 11506 C 1083.11 -1.6317 3.2101 0
M  V30 11507 C 1082.96 -0.704472 4.44249 0
M  V30 11508 C 1084.28 -2.59377 3.55544 0
M  V30 11509 H 1081.4 -0.310757 0.66828 0
M  V30 11510 H 1084.04 -0.123918 1.89595 0
M  V30 11511 H 1082.19 -2.25816 3.16132 0
M  V30 11512 H 1083.86 -0.08887 4.61214 0
M  V30 11513 H 1082.1 -0.0141693 4.33798 0
M  V30 11514 H 1082.78 -1.28135 5.36922 0
M  V30 11515 H 1085.25 -2.06848 3.61044 0
M  V30 11516 H 1084.13 -3.10506 4.52634 0
M  V30 11517 H 1084.39 -3.40819 2.81594 0
M  V30 11518 N 1083.45 -1.52049 -0.414609 0
M  V30 11519 C 1084.69 -1.66084 -1.16379 0
M  V30 11520 C 1085.03 -0.386932 -1.90306 0
M  V30 11521 O 1084.3 0.614441 -1.8454 0
M  V30 11522 C 1084.58 -2.87927 -2.16264 0
M  V30 11523 C 1084.44 -4.25353 -1.46269 0
M  V30 11524 C 1085.76 -3.05289 -3.16996 0
M  V30 11525 H 1082.88 -0.604414 -0.421726 0
M  V30 11526 H 1085.52 -1.8459 -0.450177 0
M  V30 11527 H 1083.67 -2.7228 -2.77121 0
M  V30 11528 H 1085.34 -4.52717 -0.885743 0
M  V30 11529 H 1083.58 -4.27006 -0.76472 0
M  V30 11530 H 1084.25 -5.06644 -2.19126 0
M  V30 11531 H 1086.73 -3.19798 -2.66212 0
M  V30 11532 H 1085.61 -3.92065 -3.84156 0
M  V30 11533 H 1085.87 -2.1836 -3.84411 0
M  V30 11534 N 1084.93 0.6715 -1.42579 0
M  V30 11535 C 1085.89 1.76676 -1.46008 0
M  V30 11536 C 1086.89 1.57007 -0.347213 0
M  V30 11537 O 1088.08 1.63238 -0.608185 0
M  V30 11538 C 1085.21 3.15348 -1.29494 0
M  V30 11539 H 1086.4 1.75021 -2.43531 0
M  V30 11540 H 1083.96 0.881444 -1.29075 0
M  V30 11541 H 1084.69 3.22626 -0.32906 0
M  V30 11542 H 1084.48 3.31028 -2.10149 0
M  V30 11543 H 1085.97 3.95251 -1.34784 0
M  V30 11544 N 1086.4 1.28806 0.908124 0
M  V30 11545 C 1087.63 1.19271 1.69674 0
M  V30 11546 C 1088.05 -0.244403 1.86505 0
M  V30 11547 O 1087.41 -1.17668 1.37927 0
M  V30 11548 C 1087.46 1.9023 3.06341 0
M  V30 11549 O 1086.56 1.2136 3.94139 0
M  V30 11550 H 1085.9 0.413738 0.519343 0
M  V30 11551 H 1088.43 1.70227 1.13508 0
M  V30 11552 H 1088.44 1.98356 3.56537 0
M  V30 11553 H 1087.12 2.94762 2.93408 0
M  V30 11554 H 1085.7 1.21435 3.52573 0
M  V30 11555 N 1087.88 -1.11734 1.11145 0
M  V30 11556 C 1088.81 -2.17438 0.724804 0
M  V30 11557 C 1089.83 -1.6099 -0.242069 0
M  V30 11558 O 1091.02 -1.78482 -0.0254259 0
M  V30 11559 C 1088.12 -3.38863 0.050004 0
M  V30 11560 C 1087.29 -4.24785 1.04292 0
M  V30 11561 C 1086.35 -5.24691 0.398243 0
M  V30 11562 O 1085.37 -5.59408 1.05125 0
M  V30 11563 N 1086.58 -5.74388 -0.840184 0
M  V30 11564 H 1089.34 -2.51219 1.63429 0
M  V30 11565 H 1086.9 -1.27226 1.00125 0
M  V30 11566 H 1088.89 -4.02788 -0.392929 0
M  V30 11567 H 1087.46 -3.0317 -0.762005 0
M  V30 11568 H 1086.68 -3.57363 1.6639 0
M  V30 11569 H 1087.97 -4.79033 1.71478 0
M  V30 11570 H 1087.37 -5.48359 -1.38994 0
M  V30 11571 H 1085.93 -6.40163 -1.22615 0
M  V30 11572 N 1089.36 -0.901303 -1.29284 0
M  V30 11573 C 1090.29 -0.396909 -2.30102 0
M  V30 11574 C 1091.27 0.528919 -1.61668 0
M  V30 11575 O 1092.46 0.439306 -1.89166 0
M  V30 11576 C 1089.59 0.375006 -3.45269 0
M  V30 11577 C 1088.54 -0.46054 -4.25515 0
M  V30 11578 C 1087.87 0.438967 -5.32895 0
M  V30 11579 C 1089.17 -1.7113 -4.93469 0
M  V30 11580 H 1090.86 -1.23943 -2.72541 0
M  V30 11581 H 1088.41 -0.597428 -1.31022 0
M  V30 11582 H 1090.36 0.738622 -4.14876 0
M  V30 11583 H 1089.08 1.25132 -3.01678 0
M  V30 11584 H 1087.74 -0.80651 -3.57618 0
M  V30 11585 H 1087.39 1.31346 -4.85548 0
M  V30 11586 H 1087.09 -0.116406 -5.87485 0
M  V30 11587 H 1088.61 0.79874 -6.05353 0
M  V30 11588 H 1090.03 -1.41732 -5.55504 0
M  V30 11589 H 1088.42 -2.20811 -5.57999 0
M  V30 11590 H 1089.49 -2.44636 -4.18666 0
M  V30 11591 N 1090.84 1.42931 -0.663954 0
M  V30 11592 C 1092.25 1.56098 -0.332496 0
M  V30 11593 C 1092.45 1.64564 1.16279 0
M  V30 11594 O 1091.51 1.6066 1.94794 0
M  V30 11595 C 1092.82 2.81649 -1.05329 0
M  V30 11596 C 1094.37 2.95408 -1.03457 0
M  V30 11597 C 1094.85 4.23805 -1.73647 0
M  V30 11598 N 1096.34 4.30693 -1.70462 0
M  V30 11599 C 1097.07 5.28833 -2.21637 0
M  V30 11600 N 1096.57 6.33189 -2.81147 0
M  V30 11601 N 1098.36 5.20558 -2.12075 0
M  V30 11602 H 1090.51 1.3568 -1.63416 0
M  V30 11603 H 1092.77 0.652361 -0.687844 0
M  V30 11604 H 1092.48 2.81494 -2.10842 0
M  V30 11605 H 1092.35 3.72208 -0.611626 0
M  V30 11606 H 1094.74 2.95097 0.0121936 0
M  V30 11607 H 1094.82 2.06109 -1.51502 0
M  V30 11608 H 1094.47 4.24876 -2.78285 0
M  V30 11609 H 1094.4 5.12019 -1.2306 0
M  V30 11610 H 1096.89 3.55904 -1.27046 0
M  V30 11611 H 1097.2 7.04411 -3.17844 0
M  V30 11612 H 1095.55 6.33781 -2.85212 0
M  V30 11613 H 1098.74 4.3795 -1.6528 0
M  V30 11614 H 1098.91 5.96881 -2.52264 0
M  V30 11615 N 1092.32 0.406567 1.52266 0
M  V30 11616 C 1093.28 -0.408251 2.25535 0
M  V30 11617 C 1094.28 -0.975795 1.27808 0
M  V30 11618 O 1095.47 -0.855077 1.5177 0
M  V30 11619 C 1092.6 -1.57443 3.02365 0
M  V30 11620 H 1093.79 0.233459 2.9899 0
M  V30 11621 H 1091.35 0.159032 1.55489 0
M  V30 11622 H 1092.08 -2.25308 2.33252 0
M  V30 11623 H 1091.87 -1.17399 3.74112 0
M  V30 11624 H 1093.36 -2.15088 3.57948 0
M  V30 11625 N 1093.79 -1.57004 0.136909 0
M  V30 11626 C 1094.74 -2.17524 -0.823784 0
M  V30 11627 C 1095.74 -1.1294 -1.26258 0
M  V30 11628 O 1096.94 -1.3121 -1.23223 0
M  V30 11629 H 1093.32 -0.696381 -0.283827 0
M  V30 11630 H 1095.29 -2.96997 -0.289052 0
M  V30 11631 C 1094.04 -2.80331 -2.05693 0
M  V30 11632 H 1093.36 -3.60515 -1.72825 0
M  V30 11633 H 1094.8 -3.26192 -2.70878 0
M  V30 11634 C 1093.26 -1.78322 -2.85837 0
M  V30 11635 O 1093.79 -1.2475 -3.81838 0
M  V30 11636 N 1092 -1.47854 -2.50175 0
M  V30 11637 H 1091.54 -1.9161 -1.72173 0
M  V30 11638 H 1091.5 -0.798464 -3.04092 0
M  V30 11639 N 1095.27 0.136881 -1.57004 0
M  V30 11640 C 1096.52 0.846257 -1.83088 0
M  V30 11641 C 1096.83 1.81876 -0.719765 0
M  V30 11642 O 1098.04 2.57302 -0.866494 0
M  V30 11643 C 1096.5 1.55559 -3.24545 0
M  V30 11644 C 1096.1 0.624989 -4.43619 0
M  V30 11645 C 1097.85 2.25115 -3.59893 0
M  V30 11646 C 1095.76 1.33653 -5.761 0
M  V30 11647 H 1094.69 0.319768 -0.682836 0
M  V30 11648 H 1097.34 0.0989741 -1.83233 0
M  V30 11649 H 1095.72 2.34887 -3.18817 0
M  V30 11650 H 1096.89 -0.133783 -4.60606 0
M  V30 11651 H 1095.21 0.0373216 -4.16383 0
M  V30 11652 H 1097.8 2.79008 -4.56134 0
M  V30 11653 H 1098.15 3.02084 -2.86446 0
M  V30 11654 H 1098.68 1.52696 -3.67327 0
M  V30 11655 H 1095.42 0.608495 -6.5267 0
M  V30 11656 H 1094.94 2.06776 -5.63031 0
M  V30 11657 H 1096.62 1.87467 -6.19246 0
M  V30 11658 N 1096.75 1.52266 0.40654 0
M  V30 11659 C 1097.98 1.70598 1.17945 0
M  V30 11660 C 1098.4 0.415793 1.83447 0
M  V30 11661 O 1097.76 -0.626968 1.70114 0
M  V30 11662 C 1097.81 2.84449 2.21633 0
M  V30 11663 O 1096.91 2.50199 3.27833 0
M  V30 11664 H 1096.25 0.567837 0.344177 0
M  V30 11665 H 1098.78 1.98981 0.476211 0
M  V30 11666 H 1098.79 3.09436 2.65919 0
M  V30 11667 H 1097.47 3.78055 1.73341 0
M  V30 11668 H 1096.04 2.35892 2.88807 0
M  V30 11669 N 1098.23 -0.663929 1.42933 0
M  V30 11670 C 1099.18 -1.77007 1.4371 0
M  V30 11671 C 1100.16 -1.57945 0.306948 0
M  V30 11672 O 1101.35 -1.68239 0.549967 0
M  V30 11673 C 1098.48 -3.15535 1.3525 0
M  V30 11674 C 1097.57 -3.40183 2.53252 0
M  V30 11675 N 1097.96 -3.35357 3.78641 0
M  V30 11676 C 1096.26 -3.70861 2.47746 0
M  V30 11677 C 1096.96 -3.5979 4.57085 0
M  V30 11678 N 1095.94 -3.81084 3.87655 0
M  V30 11679 H 1099.74 -1.71686 2.3854 0
M  V30 11680 H 1097.25 -0.865191 1.37434 0
M  V30 11681 H 1099.25 -3.94816 1.33888 0
M  V30 11682 H 1097.91 -3.22046 0.414308 0
M  V30 11683 H 1098.92 -3.15011 4.11082 0
M  V30 11684 H 1095.6 -3.84552 1.62561 0
M  V30 11685 H 1096.99 -3.61928 5.6609 0
M  V30 11686 N 1099.71 -1.29285 -0.901281 0
M  V30 11687 C 1100.65 -1.1428 -2.00521 0
M  V30 11688 C 1101.62 -0.0365428 -1.6606 0
M  V30 11689 O 1102.81 -0.203771 -1.89709 0
M  V30 11690 C 1099.95 -0.823671 -3.35126 0
M  V30 11691 C 1099.06 -2.01021 -3.8238 0
M  V30 11692 C 1098.2 -1.6306 -5.05554 0
M  V30 11693 C 1097.24 -2.78304 -5.45173 0
M  V30 11694 N 1096.37 -2.4075 -6.59533 0
M  V30 11695 H 1101.21 -2.08729 -2.12688 0
M  V30 11696 H 1098.75 -1.0387 -1.04161 0
M  V30 11697 H 1100.71 -0.61934 -4.12577 0
M  V30 11698 H 1099.34 0.0839113 -3.22691 0
M  V30 11699 H 1098.39 -2.32629 -3.00978 0
M  V30 11700 H 1099.7 -2.8738 -4.07694 0
M  V30 11701 H 1098.86 -1.38906 -5.90584 0
M  V30 11702 H 1097.59 -0.738464 -4.82077 0
M  V30 11703 H 1096.6 -3.03142 -4.58678 0
M  V30 11704 H 1097.82 -3.68179 -5.70632 0
M  V30 11705 H 1095.77 -1.54022 -6.37662 0
M  V30 11706 H 1095.69 -3.20643 -6.84634 0
M  V30 11707 H 1096.96 -2.19912 -7.47836 0
M  V30 11708 N 1101.18 1.11143 -1.11736 0
M  V30 11709 C 1102.46 1.79384 -0.779785 0
M  V30 11710 C 1102.84 1.98015 0.731668 0
M  V30 11711 O 1102.19 1.56731 1.66276 0
M  V30 11712 C 1102.4 3.12868 -1.54643 0
M  V30 11713 C 1103.75 3.8786 -1.7277 0
M  V30 11714 O 1104.77 3.22566 -1.51094 0
M  V30 11715 O 1103.63 5.05034 -2.08813 0
M  V30 11716 H 1100.72 0.777128 -0.282845 0
M  V30 11717 H 1103.27 1.17858 -1.22096 0
M  V30 11718 H 1102.04 2.94682 -2.57446 0
M  V30 11719 H 1101.67 3.82109 -1.09901 0
M  V30 11720 N 1102.66 0.908147 1.28804 0
M  V30 11721 C 1103.6 0.336764 2.25701 0
M  V30 11722 C 1104.57 -0.555849 1.52804 0
M  V30 11723 O 1105.76 -0.500763 1.81727 0
M  V30 11724 C 1102.88 -0.519154 3.34698 0
M  V30 11725 C 1101.93 0.307304 4.25391 0
M  V30 11726 S 1102.76 1.71048 5.07447 0
M  V30 11727 C 1103.92 0.861715 6.1994 0
M  V30 11728 H 1104.15 1.15806 2.73818 0
M  V30 11729 H 1101.69 0.709033 1.37157 0
M  V30 11730 H 1103.64 -1.00718 3.97952 0
M  V30 11731 H 1102.3 -1.31477 2.85259 0
M  V30 11732 H 1101.5 -0.346906 5.02805 0
M  V30 11733 H 1101.1 0.728777 3.66831 0
M  V30 11734 H 1103.39 0.088851 6.77442 0
M  V30 11735 H 1104.33 1.60821 6.89596 0
M  V30 11736 H 1104.74 0.412366 5.62992 0
M  V30 11737 N 1104.14 -1.42577 0.671525 0
M  V30 11738 C 1105.07 -2.2915 -0.0477361 0
M  V30 11739 C 1106.09 -1.43503 -0.768805 0
M  V30 11740 O 1107.27 -1.67256 -0.623509 0
M  V30 11741 C 1104.37 -3.20851 -1.09122 0
M  V30 11742 C 1103.55 -4.35134 -0.44463 0
M  V30 11743 C 1102.61 -5.07579 -1.38745 0
M  V30 11744 O 1101.63 -5.62215 -0.889015 0
M  V30 11745 N 1102.83 -5.12786 -2.72086 0
M  V30 11746 H 1105.6 -2.9152 0.695415 0
M  V30 11747 H 1103.16 -1.53467 0.515689 0
M  V30 11748 H 1105.15 -3.66183 -1.72315 0
M  V30 11749 H 1103.72 -2.59956 -1.73614 0
M  V30 11750 H 1102.94 -3.9249 0.36675 0
M  V30 11751 H 1104.23 -5.088 0.00595927 0
M  V30 11752 H 1103.63 -4.69802 -3.15123 0
M  V30 11753 H 1102.19 -5.61774 -3.30535 0
M  V30 11754 N 1105.62 -0.414636 -1.52048 0
M  V30 11755 C 1106.55 0.399119 -2.30064 0
M  V30 11756 C 1107.53 1.04126 -1.34506 0
M  V30 11757 O 1108.71 1.04923 -1.63416 0
M  V30 11758 C 1105.84 1.51305 -3.12608 0
M  V30 11759 C 1104.8 0.995621 -4.16259 0
M  V30 11760 C 1104.12 2.20357 -4.87183 0
M  V30 11761 C 1105.42 0.0458178 -5.2228 0
M  V30 11762 H 1107.12 -0.251879 -2.98339 0
M  V30 11763 H 1104.66 -0.122579 -1.43477 0
M  V30 11764 H 1106.62 2.08936 -3.65956 0
M  V30 11765 H 1105.34 2.19201 -2.42113 0
M  V30 11766 H 1104 0.441676 -3.6393 0
M  V30 11767 H 1103.65 2.8682 -4.13211 0
M  V30 11768 H 1103.35 1.86385 -5.57256 0
M  V30 11769 H 1104.87 2.78584 -5.43345 0
M  V30 11770 H 1106.29 0.531102 -5.70835 0
M  V30 11771 H 1104.68 -0.20536 -5.99749 0
M  V30 11772 H 1105.75 -0.897807 -4.76516 0
M  V30 11773 N 1107.1 1.56929 -0.145233 0
M  V30 11774 C 1108.34 1.95681 0.50532 0
M  V30 11775 C 1108.67 1.03098 1.65516 0
M  V30 11776 O 1107.94 0.0921961 1.95683 0
M  V30 11777 H 1106.52 0.72252 0.189668 0
M  V30 11778 H 1109.18 1.93651 -0.220318 0
M  V30 11779 H 1108.27 2.99359 0.882631 0
M  V30 11780 N 1108.58 -0.128553 1.57075 0
M  V30 11781 C 1109.99 -0.481794 1.52154 0
M  V30 11782 C 1110.19 -1.82381 0.856694 0
M  V30 11783 O 1109.25 -2.48725 0.434989 0
M  V30 11784 C 1110.56 -0.475091 2.96923 0
M  V30 11785 C 1112.11 -0.559315 3.07962 0
M  V30 11786 C 1112.58 -0.583095 4.54273 0
M  V30 11787 N 1114.07 -0.644803 4.5869 0
M  V30 11788 C 1114.81 -0.684493 5.693 0
M  V30 11789 N 1114.31 -0.682407 6.89431 0
M  V30 11790 N 1116.1 -0.726777 5.57382 0
M  V30 11791 H 1108.25 0.750894 1.98684 0
M  V30 11792 H 1110.51 0.27593 0.906955 0
M  V30 11793 H 1110.22 0.443157 3.48897 0
M  V30 11794 H 1110.09 -1.30637 3.53856 0
M  V30 11795 H 1112.48 -1.46798 2.55997 0
M  V30 11796 H 1112.56 0.299468 2.54041 0
M  V30 11797 H 1112.2 0.32149 5.06881 0
M  V30 11798 H 1112.13 -1.45863 5.05996 0
M  V30 11799 H 1114.63 -0.652967 3.72216 0
M  V30 11800 H 1114.94 -0.715051 7.69485 0
M  V30 11801 H 1113.28 -0.649984 6.91954 0
M  V30 11802 H 1116.47 -0.725704 4.6244 0
M  V30 11803 H 1116.65 -0.754242 6.43596 0
M  V30 11804 N 1110.05 -1.5248 -0.398459 0
M  V30 11805 C 1110.98 -1.79549 -1.49279 0
M  V30 11806 C 1111.96 -0.647004 -1.57315 0
M  V30 11807 O 1113.15 -0.893661 -1.72416 0
M  V30 11808 C 1110.28 -1.95582 -2.86993 0
M  V30 11809 C 1109.23 -3.1123 -2.93803 0
M  V30 11810 C 1108.56 -3.12501 -4.33874 0
M  V30 11811 C 1109.86 -4.50485 -2.64312 0
M  V30 11812 H 1111.55 -2.71187 -1.26877 0
M  V30 11813 H 1109.1 -1.30492 -0.608924 0
M  V30 11814 H 1111.05 -2.13102 -3.63546 0
M  V30 11815 H 1109.78 -1.00625 -3.10712 0
M  V30 11816 H 1108.44 -2.93477 -2.19697 0
M  V30 11817 H 1108.08 -2.15245 -4.54619 0
M  V30 11818 H 1107.78 -3.90183 -4.39353 0
M  V30 11819 H 1109.31 -3.32164 -5.12347 0
M  V30 11820 H 1110.72 -4.68387 -3.30585 0
M  V30 11821 H 1109.12 -5.30163 -2.81153 0
M  V30 11822 H 1110.19 -4.57848 -1.59696 0
M  V30 11823 N 1111.53 0.65634 -1.43283 0
M  V30 11824 C 1112.48 1.76243 -1.44646 0
M  V30 11825 C 1113.47 1.5778 -0.31532 0
M  V30 11826 O 1114.66 1.67945 -0.558881 0
M  V30 11827 C 1111.79 3.14813 -1.36921 0
M  V30 11828 C 1110.87 3.38835 -2.55053 0
M  V30 11829 N 1111.26 3.33345 -3.80414 0
M  V30 11830 C 1109.56 3.69542 -2.4971 0
M  V30 11831 C 1110.26 3.57361 -4.58986 0
M  V30 11832 N 1109.24 3.79022 -3.8967 0
M  V30 11833 H 1113.04 1.70419 -2.39447 0
M  V30 11834 H 1110.55 0.85789 -1.37891 0
M  V30 11835 H 1112.55 3.941 -1.3598 0
M  V30 11836 H 1111.21 3.21822 -0.431381 0
M  V30 11837 H 1112.22 3.12827 -4.12747 0
M  V30 11838 H 1108.9 3.83684 -1.64598 0
M  V30 11839 H 1110.29 3.58921 -5.68001 0
M  V30 11840 N 1113.01 1.29761 0.894412 0
M  V30 11841 C 1113.94 1.09666 2.00121 0
M  V30 11842 C 1114.92 0.00700077 1.62598 0
M  V30 11843 O 1116.1 0.158728 1.87831 0
M  V30 11844 C 1113.23 0.670588 3.31995 0
M  V30 11845 C 1112.28 1.75974 3.88504 0
M  V30 11846 S 1113.11 3.36013 4.1696 0
M  V30 11847 C 1114.27 2.95285 5.51867 0
M  V30 11848 H 1114.5 2.03369 2.1686 0
M  V30 11849 H 1112.03 1.13968 1.04166 0
M  V30 11850 H 1113.99 0.431481 4.08226 0
M  V30 11851 H 1112.65 -0.246924 3.13128 0
M  V30 11852 H 1111.84 1.41367 4.83768 0
M  V30 11853 H 1111.45 1.95264 3.1898 0
M  V30 11854 H 1113.74 2.42659 6.32553 0
M  V30 11855 H 1114.68 3.8942 5.91403 0
M  V30 11856 H 1115.09 2.33426 5.13977 0
M  V30 11857 N 1114.49 -1.10549 1.12324 0
M  V30 11858 C 1115.43 -2.16858 0.790024 0
M  V30 11859 C 1116.4 -1.64317 -0.242694 0
M  V30 11860 O 1117.59 -1.90438 -0.117531 0
M  V30 11861 C 1114.73 -3.44197 0.249503 0
M  V30 11862 C 1113.84 -4.10696 1.33989 0
M  V30 11863 C 1112.98 -5.25751 0.758932 0
M  V30 11864 C 1112.02 -5.8415 1.82853 0
M  V30 11865 N 1111.15 -6.90585 1.26637 0
M  V30 11866 H 1115.99 -2.44705 1.7007 0
M  V30 11867 H 1113.53 -1.20117 0.849141 0
M  V30 11868 H 1115.49 -4.1712 -0.0819251 0
M  V30 11869 H 1114.12 -3.16705 -0.624332 0
M  V30 11870 H 1113.17 -3.35754 1.78812 0
M  V30 11871 H 1114.48 -4.50144 2.14875 0
M  V30 11872 H 1113.64 -6.05521 0.378104 0
M  V30 11873 H 1112.38 -4.87632 -0.0811405 0
M  V30 11874 H 1111.38 -5.03051 2.21856 0
M  V30 11875 H 1112.61 -6.24333 2.6718 0
M  V30 11876 H 1110.55 -6.54468 0.448105 0
M  V30 11877 H 1110.47 -7.28739 2.01184 0
M  V30 11878 H 1111.74 -7.74138 0.912737 0
M  V30 11879 N 1115.97 -0.914965 -1.28321 0
M  V30 11880 C 1117.19 -0.564654 -1.99046 0
M  V30 11881 C 1117.61 0.854345 -1.68364 0
M  V30 11882 O 1116.97 1.56605 -0.937068 0
M  V30 11883 C 1117.02 -0.765663 -3.53299 0
M  V30 11884 O 1116.74 -2.12883 -3.829 0
M  V30 11885 C 1118.24 -0.422347 -4.41283 0
M  V30 11886 H 1115.46 -0.215158 -0.635569 0
M  V30 11887 H 1118 -1.2285 -1.63487 0
M  V30 11888 H 1116.16 -0.148795 -3.87114 0
M  V30 11889 H 1116.57 -2.1694 -4.77533 0
M  V30 11890 H 1118.05 -0.613757 -5.48577 0
M  V30 11891 H 1118.52 0.641484 -4.3449 0
M  V30 11892 H 1119.13 -1.01681 -4.12966 0
M  V30 11893 N 1117.44 1.42219 -0.679077 0
M  V30 11894 C 1118.37 2.33493 -0.0174528 0
M  V30 11895 C 1119.35 1.50915 0.78477 0
M  V30 11896 O 1120.54 1.79504 0.741065 0
M  V30 11897 C 1117.67 3.34576 0.931463 0
M  V30 11898 C 1116.62 4.2734 0.237527 0
M  V30 11899 C 1115.95 5.18664 1.29967 0
M  V30 11900 C 1117.25 5.14729 -0.886082 0
M  V30 11901 H 1118.94 2.89068 -0.779748 0
M  V30 11902 H 1116.49 1.38993 -0.376419 0
M  V30 11903 H 1118.44 3.97343 1.40343 0
M  V30 11904 H 1117.17 2.77315 1.72523 0
M  V30 11905 H 1115.83 3.65973 -0.214245 0
M  V30 11906 H 1115.47 4.57727 2.08554 0
M  V30 11907 H 1115.17 5.81558 0.840463 0
M  V30 11908 H 1116.7 5.84308 1.77249 0
M  V30 11909 H 1118.11 5.71158 -0.495141 0
M  V30 11910 H 1116.51 5.86478 -1.27135 0
M  V30 11911 H 1117.58 4.52874 -1.733 0
M  V30 11912 N 1118.92 0.422693 1.51826 0
M  V30 11913 C 1119.85 -0.386913 2.30272 0
M  V30 11914 C 1120.83 -1.03411 1.35056 0
M  V30 11915 O 1122.02 -1.04055 1.6397 0
M  V30 11916 C 1119.15 -1.49645 3.13407 0
M  V30 11917 C 1118.1 -0.973532 4.16781 0
M  V30 11918 C 1117.43 -2.1777 4.88344 0
M  V30 11919 C 1118.73 -0.0181194 5.22297 0
M  V30 11920 H 1120.42 0.267697 2.98201 0
M  V30 11921 H 1117.97 0.130186 1.4341 0
M  V30 11922 H 1119.92 -2.06993 3.67059 0
M  V30 11923 H 1118.64 -2.17914 2.43272 0
M  V30 11924 H 1117.3 -0.42237 3.64159 0
M  V30 11925 H 1116.95 -2.84625 4.14726 0
M  V30 11926 H 1116.65 -1.83427 5.58237 0
M  V30 11927 H 1118.18 -2.75699 5.44814 0
M  V30 11928 H 1119.59 -0.500822 5.71108 0
M  V30 11929 H 1117.99 0.237163 5.99631 0
M  V30 11930 H 1119.06 0.923065 4.76033 0
M  V30 11931 N 1120.4 -1.5685 0.153553 0
M  V30 11932 C 1121.81 -1.83074 -0.36618 0
M  V30 11933 C 1122.16 -1.07257 -1.64288 0
M  V30 11934 O 1121.29 -0.319925 -2.14022 0
M  V30 11935 C 1121.88 -3.32086 -0.671142 0
M  V30 11936 C 1120.44 -3.58868 -1.13537 0
M  V30 11937 C 1119.59 -2.76827 -0.161887 0
M  V30 11938 H 1122.54 -1.54129 0.378139 0
M  V30 11939 H 1122.56 -3.48598 -1.52512 0
M  V30 11940 H 1122.07 -3.8724 0.258234 0
M  V30 11941 H 1120.17 -3.09107 -2.08047 0
M  V30 11942 H 1120.29 -4.67299 -1.05682 0
M  V30 11943 H 1118.65 -2.46112 -0.6558 0
M  V30 11944 H 1119.43 -3.34755 0.761195 0
M  V30 11945 N 1121.88 0.120221 -1.57141 0
M  V30 11946 C 1123.12 0.829449 -1.85062 0
M  V30 11947 C 1123.46 1.79585 -0.739116 0
M  V30 11948 O 1122.73 1.92819 0.255147 0
M  V30 11949 C 1123.01 1.58042 -3.23566 0
M  V30 11950 C 1122.87 0.633706 -4.45314 0
M  V30 11951 C 1124.19 2.53688 -3.59625 0
M  V30 11952 H 1121.31 0.300086 -0.67314 0
M  V30 11953 H 1123.95 0.0937393 -1.89769 0
M  V30 11954 H 1122.1 2.20758 -3.19684 0
M  V30 11955 H 1123.77 0.0154836 -4.61297 0
M  V30 11956 H 1122.01 -0.054846 -4.33765 0
M  V30 11957 H 1122.68 1.19577 -5.38893 0
M  V30 11958 H 1125.16 2.01078 -3.6429 0
M  V30 11959 H 1124.04 3.03265 -4.57516 0
M  V30 11960 H 1124.3 3.36296 -2.8698 0
M  V30 11961 N 1123.36 1.52689 0.390367 0
M  V30 11962 C 1124.58 1.71839 1.16129 0
M  V30 11963 C 1125.01 0.435226 1.82996 0
M  V30 11964 O 1124.36 -0.60889 1.70769 0
M  V30 11965 C 1124.41 2.86784 2.18603 0
M  V30 11966 O 1123.52 2.53662 3.25161 0
M  V30 11967 H 1122.86 0.571455 0.338135 0
M  V30 11968 H 1125.39 1.99475 0.45508 0
M  V30 11969 H 1125.4 3.12239 2.62622 0
M  V30 11970 H 1124.07 3.79872 1.69322 0
M  V30 11971 H 1122.65 2.38942 2.86289 0
M  V30 11972 N 1124.83 -0.648732 1.43629 0
M  V30 11973 C 1125.78 -1.76145 1.49136 0
M  V30 11974 C 1126.75 -1.62569 0.340649 0
M  V30 11975 O 1127.94 -1.82748 0.548435 0
M  V30 11976 C 1125.08 -3.14321 1.42466 0
M  V30 11977 C 1124.19 -3.38999 2.67776 0
M  V30 11978 C 1123.32 -4.67047 2.53062 0
M  V30 11979 C 1122.36 -4.84845 3.7362 0
M  V30 11980 N 1121.5 -6.04155 3.57689 0
M  V30 11981 H 1126.34 -1.70774 2.44213 0
M  V30 11982 H 1123.88 -0.833311 1.2122 0
M  V30 11983 H 1125.84 -3.94206 1.36592 0
M  V30 11984 H 1124.47 -3.18751 0.509666 0
M  V30 11985 H 1123.52 -2.53179 2.83909 0
M  V30 11986 H 1124.83 -3.48035 3.57314 0
M  V30 11987 H 1123.98 -5.55066 2.44922 0
M  V30 11988 H 1122.72 -4.60339 1.61056 0
M  V30 11989 H 1121.73 -3.95261 3.82163 0
M  V30 11990 H 1122.95 -4.9338 4.6664 0
M  V30 11991 H 1120.9 -5.9857 2.6842 0
M  V30 11992 H 1120.82 -6.14169 4.40832 0
M  V30 11993 H 1122.08 -6.94782 3.53409 0
M  V30 11994 N 1126.31 -1.30234 -0.887518 0
M  V30 11995 C 1127.72 -1.17048 -1.45453 0
M  V30 11996 C 1128.07 0.229793 -1.9485 0
M  V30 11997 O 1127.2 1.12628 -1.84781 0
M  V30 11998 C 1127.79 -2.11876 -2.64375 0
M  V30 11999 C 1126.35 -2.02676 -3.17174 0
M  V30 12000 C 1125.5 -2.02104 -1.89866 0
M  V30 12001 H 1128.45 -1.42541 -0.697694 0
M  V30 12002 H 1128.47 -1.69811 -3.40506 0
M  V30 12003 H 1127.98 -3.13781 -2.28392 0
M  V30 12004 H 1126.09 -1.03904 -3.57819 0
M  V30 12005 H 1126.2 -2.90939 -3.80646 0
M  V30 12006 H 1124.56 -1.4687 -2.0809 0
M  V30 12007 H 1125.35 -3.05735 -1.56145 0
M  V30 12008 N 1127.79 1.09952 -1.12909 0
M  V30 12009 C 1128.7 2.19999 -0.81471 0
M  V30 12010 C 1129.72 1.72864 0.19851 0
M  V30 12011 O 1130.89 2.01376 0.0308832 0
M  V30 12012 C 1127.96 3.45573 -0.279363 0
M  V30 12013 C 1127.02 4.07417 -1.35314 0
M  V30 12014 C 1126.25 5.26996 -0.843247 0
M  V30 12015 O 1126.47 5.69495 0.321164 0
M  V30 12016 O 1125.41 5.79826 -1.61511 0
M  V30 12017 H 1129.23 2.49333 -1.73398 0
M  V30 12018 H 1126.82 1.18784 -0.906128 0
M  V30 12019 H 1128.7 4.21398 0.0140531 0
M  V30 12020 H 1127.38 3.17854 0.612401 0
M  V30 12021 H 1126.28 3.33253 -1.6998 0
M  V30 12022 H 1127.62 4.39349 -2.21885 0
M  V30 12023 N 1129.27 0.921757 1.27833 0
M  V30 12024 C 1130.52 0.55493 1.93916 0
M  V30 12025 C 1130.83 -0.907191 1.7329 0
M  V30 12026 O 1132.04 -1.38253 2.33663 0
M  V30 12027 C 1130.49 0.941644 3.47363 0
M  V30 12028 C 1130.1 2.42404 3.76755 0
M  V30 12029 C 1131.84 0.645785 4.19559 0
M  V30 12030 C 1129.75 2.75046 5.23549 0
M  V30 12031 H 1128.68 0.203818 0.72593 0
M  V30 12032 H 1131.33 1.12176 1.4522 0
M  V30 12033 H 1129.71 0.303519 3.94835 0
M  V30 12034 H 1130.89 3.10957 3.40062 0
M  V30 12035 H 1129.2 2.69118 3.17749 0
M  V30 12036 H 1131.8 0.866237 5.27637 0
M  V30 12037 H 1132.14 -0.41676 4.14209 0
M  V30 12038 H 1132.68 1.24274 3.7789 0
M  V30 12039 H 1129.42 3.80186 5.33984 0
M  V30 12040 H 1128.94 2.11138 5.6141 0
M  V30 12041 H 1130.61 2.62474 5.91368 0
M  V30 12042 N 1130.75 -1.41857 0.686609 0
M  V30 12043 C 1132.16 -1.55549 0.357288 0
M  V30 12044 C 1132.36 -1.66394 -1.13646 0
M  V30 12045 O 1131.42 -1.63739 -1.92213 0
M  V30 12046 C 1132.73 -2.79938 1.09796 0
M  V30 12047 C 1134.28 -2.93724 1.08143 0
M  V30 12048 C 1134.75 -4.20989 1.80367 0
M  V30 12049 N 1136.25 -4.27927 1.77293 0
M  V30 12050 C 1136.98 -5.2524 2.30022 0
M  V30 12051 N 1136.48 -6.28636 2.91185 0
M  V30 12052 N 1138.27 -5.17118 2.20329 0
M  V30 12053 H 1130.42 -1.33063 1.65554 0
M  V30 12054 H 1132.68 -0.641335 0.698135 0
M  V30 12055 H 1132.39 -2.78104 2.15293 0
M  V30 12056 H 1132.26 -3.71188 0.670763 0
M  V30 12057 H 1134.65 -2.9508 0.0347554 0
M  V30 12058 H 1134.73 -2.03673 1.54761 0
M  V30 12059 H 1134.38 -4.20395 2.85009 0
M  V30 12060 H 1134.31 -5.09997 1.3119 0
M  V30 12061 H 1136.8 -3.53838 1.32692 0
M  V30 12062 H 1137.11 -6.99265 3.29011 0
M  V30 12063 H 1135.45 -6.29164 2.95259 0
M  V30 12064 H 1138.65 -4.35265 1.72226 0
M  V30 12065 H 1138.82 -5.92792 2.61728 0
M  V30 12066 N 1132.22 -0.430739 -1.51599 0
M  V30 12067 C 1133.45 0.139197 -2.06932 0
M  V30 12068 C 1133.87 1.3626 -1.29672 0
M  V30 12069 O 1133.23 1.78219 -0.332836 0
M  V30 12070 C 1133.28 0.446593 -3.57824 0
M  V30 12071 O 1132.38 1.53414 -3.82803 0
M  V30 12072 H 1131.73 0.00475812 -0.663983 0
M  V30 12073 H 1134.26 -0.610171 -1.9529 0
M  V30 12074 H 1134.27 0.698972 -4.01968 0
M  V30 12075 H 1132.94 -0.447613 -4.13484 0
M  V30 12076 H 1131.52 1.27224 -3.50526 0
M  V30 12077 N 1133.7 1.56767 -0.161869 0
M  V30 12078 C 1134.93 2.00673 0.491314 0
M  V30 12079 C 1135.34 1.04111 1.5798 0
M  V30 12080 O 1134.68 0.0324889 1.83671 0
M  V30 12081 C 1134.75 3.41011 1.13806 0
M  V30 12082 C 1134.41 4.56595 0.192384 0
M  V30 12083 C 1135.41 5.16591 -0.585671 0
M  V30 12084 C 1133.09 5.02218 0.0909594 0
M  V30 12085 C 1135.09 6.20631 -1.45245 0
M  V30 12086 C 1132.77 6.06109 -0.77941 0
M  V30 12087 C 1133.77 6.65187 -1.54971 0
M  V30 12088 O 1133.46 7.67065 -2.40555 0
M  V30 12089 H 1133.19 0.663174 0.131059 0
M  V30 12090 H 1135.74 2.03775 -0.257896 0
M  V30 12091 H 1133.97 3.34793 1.93521 0
M  V30 12092 H 1135.66 3.68931 1.69248 0
M  V30 12093 H 1136.43 4.82232 -0.517432 0
M  V30 12094 H 1132.31 4.55953 0.680292 0
M  V30 12095 H 1135.85 6.66671 -2.05415 0
M  V30 12096 H 1131.75 6.39894 -0.848887 0
M  V30 12097 H 1132.52 7.84348 -2.33966 0
M  V30 12098 N 1135.18 -0.111886 1.57202 0
M  V30 12099 C 1136.43 -0.818411 1.85225 0
M  V30 12100 C 1136.76 -1.79542 0.747991 0
M  V30 12101 O 1136.01 -1.93965 -0.260013 0
M  V30 12102 C 1136.31 -1.59644 3.19763 0
M  V30 12103 C 1135.98 -0.76308 4.44396 0
M  V30 12104 C 1134.64 -0.53329 4.78236 0
M  V30 12105 C 1136.99 -0.18266 5.2088 0
M  V30 12106 C 1134.32 0.287056 5.85997 0
M  V30 12107 C 1136.67 0.624916 6.29506 0
M  V30 12108 C 1135.33 0.864955 6.61872 0
M  V30 12109 H 1134.6 -0.299478 0.677786 0
M  V30 12110 H 1137.25 -0.0805082 1.91331 0
M  V30 12111 H 1135.56 -2.40545 3.09266 0
M  V30 12112 H 1137.25 -2.1472 3.38669 0
M  V30 12113 H 1133.84 -0.952278 4.17887 0
M  V30 12114 H 1138.03 -0.34739 4.95083 0
M  V30 12115 H 1133.28 0.482179 6.09496 0
M  V30 12116 H 1137.46 1.08162 6.87949 0
M  V30 12117 H 1135.08 1.50244 7.45205 0
M  V30 12118 N 1136.66 -1.52894 -0.382264 0
M  V30 12119 C 1138.07 -1.60135 -0.959887 0
M  V30 12120 C 1138.42 -0.458363 -1.90771 0
M  V30 12121 O 1137.55 0.417614 -2.12332 0
M  V30 12122 C 1138.14 -2.90243 -1.74769 0
M  V30 12123 C 1136.7 -2.99874 -2.27491 0
M  V30 12124 C 1135.85 -2.55302 -1.0824 0
M  V30 12125 H 1138.8 -1.57875 -0.161589 0
M  V30 12126 H 1138.82 -2.77108 -2.60751 0
M  V30 12127 H 1138.33 -3.73412 -1.0576 0
M  V30 12128 H 1136.43 -2.21258 -2.99793 0
M  V30 12129 H 1136.54 -4.04643 -2.56516 0
M  V30 12130 H 1134.91 -2.09781 -1.44444 0
M  V30 12131 H 1135.69 -3.40872 -0.407553 0
M  V30 12132 N 1138.14 0.641106 -1.43971 0
M  V30 12133 C 1139.05 1.78239 -1.52538 0
M  V30 12134 C 1140.06 1.6906 -0.411668 0
M  V30 12135 O 1141.24 1.90014 -0.66757 0
M  V30 12136 C 1138.3 3.14579 -1.45743 0
M  V30 12137 C 1137.37 3.35464 -2.67885 0
M  V30 12138 C 1136.6 4.65299 -2.61404 0
M  V30 12139 O 1136.82 5.45451 -1.66851 0
M  V30 12140 O 1135.76 4.8817 -3.521 0
M  V30 12141 H 1139.58 1.73965 -2.48937 0
M  V30 12142 H 1137.17 0.801098 -1.26106 0
M  V30 12143 H 1139.05 3.95873 -1.4444 0
M  V30 12144 H 1137.72 3.19417 -0.524837 0
M  V30 12145 H 1136.63 2.53888 -2.74758 0
M  V30 12146 H 1137.96 3.35481 -3.60157 0
M  V30 12147 N 1139.62 1.30703 0.880598 0
M  V30 12148 C 1140.84 1.22843 1.67106 0
M  V30 12149 C 1141.27 -0.204788 1.86982 0
M  V30 12150 O 1140.62 -1.14716 1.40392 0
M  V30 12151 C 1140.67 1.96685 3.02237 0
M  V30 12152 O 1139.78 1.29693 3.91476 0
M  V30 12153 H 1139.12 0.424661 0.51045 0
M  V30 12154 H 1141.65 1.72596 1.09871 0
M  V30 12155 H 1141.66 2.05874 3.52249 0
M  V30 12156 H 1140.33 3.00919 2.8709 0
M  V30 12157 H 1138.91 1.28886 3.49918 0
M  V30 12158 N 1141.09 -1.09351 1.1349 0
M  V30 12159 C 1142.34 -1.81988 0.908397 0
M  V30 12160 C 1142.69 -1.84087 -0.559442 0
M  V30 12161 O 1141.99 -1.29866 -1.40873 0
M  V30 12162 C 1142.18 -3.27498 1.43108 0
M  V30 12163 C 1142.01 -3.39575 2.9482 0
M  V30 12164 C 1140.78 -3.51332 3.63172 0
M  V30 12165 C 1142.98 -3.3204 3.92752 0
M  V30 12166 N 1140.96 -3.521 5.02891 0
M  V30 12167 C 1142.33 -3.39686 5.18665 0
M  V30 12168 C 1144.39 -3.15712 3.85007 0
M  V30 12169 C 1143.09 -3.32686 6.3774 0
M  V30 12170 C 1145.12 -3.10038 5.03617 0
M  V30 12171 C 1144.48 -3.18277 6.28394 0
M  V30 12172 H 1140.58 -0.680196 0.385821 0
M  V30 12173 H 1143.16 -1.30683 1.44326 0
M  V30 12174 H 1141.33 -3.77271 0.923118 0
M  V30 12175 H 1143.06 -3.8815 1.14549 0
M  V30 12176 H 1139.82 -3.54813 3.13695 0
M  V30 12177 H 1140.24 -3.56066 5.758 0
M  V30 12178 H 1144.88 -3.08212 2.89422 0
M  V30 12179 H 1142.6 -3.38949 7.3358 0
M  V30 12180 H 1146.19 -2.98539 4.99365 0
M  V30 12181 H 1145.07 -3.13904 7.18634 0
M  V30 12182 N 1142.57 -0.928524 -1.27343 0
M  V30 12183 C 1143.5 -0.445627 -2.29208 0
M  V30 12184 C 1144.48 0.494508 -1.62753 0
M  V30 12185 O 1145.67 0.399082 -1.90055 0
M  V30 12186 C 1142.8 0.301684 -3.45987 0
M  V30 12187 C 1141.75 -0.550695 -4.24442 0
M  V30 12188 C 1141.08 0.325833 -5.33706 0
M  V30 12189 C 1142.38 -1.81559 -4.89728 0
M  V30 12190 H 1144.07 -1.29696 -2.69851 0
M  V30 12191 H 1141.62 -0.625085 -1.29725 0
M  V30 12192 H 1143.57 0.650455 -4.1635 0
M  V30 12193 H 1142.29 1.18705 -3.04264 0
M  V30 12194 H 1140.95 -0.882185 -3.55827 0
M  V30 12195 H 1140.6 1.21018 -4.88225 0
M  V30 12196 H 1140.3 -0.240994 -5.87106 0
M  V30 12197 H 1141.83 0.670156 -6.06911 0
M  V30 12198 H 1143.24 -1.53483 -5.52373 0
M  V30 12199 H 1141.64 -2.32598 -5.53189 0
M  V30 12200 H 1142.71 -2.53461 -4.13383 0
M  V30 12201 N 1144.05 1.41491 -0.694123 0
M  V30 12202 C 1145.3 2.02055 -0.233559 0
M  V30 12203 C 1145.65 1.53987 1.1535 0
M  V30 12204 O 1144.94 0.740611 1.76707 0
M  V30 12205 C 1145.14 3.56666 -0.228869 0
M  V30 12206 C 1144.97 4.1974 -1.61394 0
M  V30 12207 C 1143.74 4.54095 -2.21643 0
M  V30 12208 C 1145.93 4.46043 -2.56028 0
M  V30 12209 N 1143.92 5.02449 -3.5273 0
M  V30 12210 C 1145.29 4.96156 -3.71792 0
M  V30 12211 C 1147.34 4.28053 -2.54313 0
M  V30 12212 C 1146.05 5.3017 -4.8612 0
M  V30 12213 C 1148.07 4.63155 -3.67752 0
M  V30 12214 C 1147.43 5.13438 -4.82246 0
M  V30 12215 H 1143.53 0.77098 -0.130821 0
M  V30 12216 H 1146.12 1.72057 -0.91129 0
M  V30 12217 H 1144.29 3.8614 0.418344 0
M  V30 12218 H 1146.02 4.03949 0.246387 0
M  V30 12219 H 1142.77 4.40501 -1.73943 0
M  V30 12220 H 1143.2 5.31033 -4.1992 0
M  V30 12221 H 1147.84 3.88416 -1.67011 0
M  V30 12222 H 1145.56 5.68731 -5.74083 0
M  V30 12223 H 1149.14 4.50895 -3.67675 0
M  V30 12224 H 1148.02 5.4009 -5.6857 0
M  V30 12225 N 1145.53 0.438773 1.51369 0
M  V30 12226 C 1146.44 -0.378074 2.31534 0
M  V30 12227 C 1147.45 -1.02632 1.40508 0
M  V30 12228 O 1148.63 -1.02138 1.73579 0
M  V30 12229 C 1145.69 -1.46374 3.14286 0
M  V30 12230 C 1144.76 -0.835473 4.21092 0
M  V30 12231 C 1143.99 -1.86941 4.99889 0
M  V30 12232 O 1144.21 -3.0918 4.79337 0
M  V30 12233 O 1143.15 -1.45914 5.83946 0
M  V30 12234 H 1146.97 0.276401 3.0244 0
M  V30 12235 H 1144.56 0.201281 1.48038 0
M  V30 12236 H 1146.44 -2.09335 3.65728 0
M  V30 12237 H 1145.11 -2.10227 2.46143 0
M  V30 12238 H 1144.02 -0.167775 3.73724 0
M  V30 12239 H 1145.35 -0.240406 4.91613 0
M  V30 12240 N 1147.01 -1.56678 0.170181 0
M  V30 12241 C 1148.25 -1.9714 -0.475767 0
M  V30 12242 C 1148.58 -1.05611 -1.62972 0
M  V30 12243 O 1147.86 -0.103017 -1.94227 0
M  V30 12244 C 1148.14 -3.47072 -0.959828 0
M  V30 12245 C 1148 -4.4938 0.194225 0
M  V30 12246 C 1149.31 -4.00071 -1.83387 0
M  V30 12247 H 1146.43 -0.716776 -0.171466 0
M  V30 12248 H 1149.08 -1.88266 0.256086 0
M  V30 12249 H 1147.23 -3.54766 -1.58346 0
M  V30 12250 H 1148.9 -4.53748 0.83128 0
M  V30 12251 H 1147.14 -4.25393 0.849893 0
M  V30 12252 H 1147.81 -5.51685 -0.186575 0
M  V30 12253 H 1150.29 -3.95002 -1.30815 0
M  V30 12254 H 1149.16 -5.05398 -2.14159 0
M  V30 12255 H 1149.42 -3.43819 -2.77923 0
M  V30 12256 N 1148.48 0.103547 -1.57259 0
M  V30 12257 C 1149.43 1.13239 -1.97891 0
M  V30 12258 C 1150.42 1.36234 -0.856105 0
M  V30 12259 O 1151.61 1.37067 -1.11989 0
M  V30 12260 C 1148.74 2.4549 -2.39979 0
M  V30 12261 C 1147.82 2.25905 -3.58926 0
M  V30 12262 N 1148.22 1.76167 -4.7413 0
M  V30 12263 C 1146.51 2.56503 -3.64859 0
M  V30 12264 C 1147.21 1.70653 -5.56105 0
M  V30 12265 N 1146.19 2.15562 -4.99033 0
M  V30 12266 H 1149.99 0.740638 -2.84415 0
M  V30 12267 H 1147.51 0.311091 -1.59393 0
M  V30 12268 H 1149.5 3.19922 -2.67312 0
M  V30 12269 H 1148.16 2.8541 -1.54827 0
M  V30 12270 H 1149.17 1.45487 -4.97045 0
M  V30 12271 H 1145.85 3.00005 -2.9035 0
M  V30 12272 H 1147.24 1.33321 -6.5854 0
M  V30 12273 N 1149.96 1.53094 0.37415 0
M  V30 12274 C 1150.89 1.81901 1.46404 0
M  V30 12275 C 1151.87 0.671949 1.56265 0
M  V30 12276 O 1153.06 0.920978 1.70973 0
M  V30 12277 C 1150.19 2.00123 2.83845 0
M  V30 12278 C 1149.14 3.15864 2.88814 0
M  V30 12279 C 1148.47 3.19364 4.28848 0
M  V30 12280 C 1149.77 4.54633 2.57112 0
M  V30 12281 H 1151.46 2.73172 1.22546 0
M  V30 12282 H 1149.01 1.31444 0.588087 0
M  V30 12283 H 1150.96 2.18859 3.6011 0
M  V30 12284 H 1149.68 1.05555 3.09072 0
M  V30 12285 H 1148.34 2.96935 2.15 0
M  V30 12286 H 1147.99 2.2245 4.51137 0
M  V30 12287 H 1147.69 3.97123 4.3309 0
M  V30 12288 H 1149.22 3.40273 5.06997 0
M  V30 12289 H 1150.63 4.73587 3.23091 0
M  V30 12290 H 1149.03 5.34569 2.72683 0
M  V30 12291 H 1150.1 4.60331 1.52392 0
M  V30 12292 N 1151.44 -0.633461 1.44309 0
M  V30 12293 C 1152.69 -1.39513 1.47187 0
M  V30 12294 C 1153.02 -1.93926 0.103186 0
M  V30 12295 O 1152.29 -1.73512 -0.878853 0
M  V30 12296 C 1152.58 -2.56213 2.53036 0
M  V30 12297 C 1152.43 -2.07164 3.99253 0
M  V30 12298 C 1153.75 -3.58403 2.55412 0
M  V30 12299 H 1150.87 -0.505936 0.535908 0
M  V30 12300 H 1153.51 -0.716445 1.75975 0
M  V30 12301 H 1151.66 -3.14111 2.28619 0
M  V30 12302 H 1153.33 -1.54115 4.34795 0
M  V30 12303 H 1151.57 -1.38367 4.11141 0
M  V30 12304 H 1152.25 -2.91172 4.6896 0
M  V30 12305 H 1154.72 -3.103 2.77224 0
M  V30 12306 H 1153.6 -4.37581 3.31382 0
M  V30 12307 H 1153.86 -4.12316 1.59523 0
M  V30 12308 N 1152.92 -1.31168 -0.873655 0
M  V30 12309 C 1154.33 -1.18584 -1.44203 0
M  V30 12310 C 1154.68 0.209114 -1.95082 0
M  V30 12311 O 1153.81 1.10662 -1.85965 0
M  V30 12312 C 1154.4 -2.14668 -2.62112 0
M  V30 12313 C 1152.96 -2.06029 -3.15006 0
M  V30 12314 C 1152.11 -2.04106 -1.87712 0
M  V30 12315 H 1155.06 -1.43273 -0.682536 0
M  V30 12316 H 1155.08 -1.73413 -3.38686 0
M  V30 12317 H 1154.59 -3.16186 -2.25051 0
M  V30 12318 H 1152.69 -1.07693 -3.56697 0
M  V30 12319 H 1152.8 -2.9496 -3.77539 0
M  V30 12320 H 1151.17 -1.49069 -2.0652 0
M  V30 12321 H 1151.95 -3.07373 -1.52894 0
M  V30 12322 N 1154.4 1.08748 -1.14068 0
M  V30 12323 C 1155.81 1.33125 -0.880341 0
M  V30 12324 C 1156.01 1.9569 0.480396 0
M  V30 12325 O 1155.07 2.2077 1.22543 0
M  V30 12326 C 1156.38 2.23618 -2.01036 0
M  V30 12327 C 1157.93 2.37108 -2.04326 0
M  V30 12328 C 1158.4 3.30941 -3.1661 0
M  V30 12329 N 1159.9 3.38517 -3.16166 0
M  V30 12330 C 1160.63 4.11142 -3.99687 0
M  V30 12331 N 1160.13 4.86505 -4.93239 0
M  V30 12332 N 1161.92 4.06938 -3.87761 0
M  V30 12333 H 1154.07 0.665164 -2.01716 0
M  V30 12334 H 1156.33 0.355612 -0.878774 0
M  V30 12335 H 1156.04 1.84885 -2.99183 0
M  V30 12336 H 1155.91 3.24056 -1.93049 0
M  V30 12337 H 1158.3 2.75101 -1.06787 0
M  V30 12338 H 1158.38 1.36424 -2.16384 0
M  V30 12339 H 1158.03 2.93669 -4.14392 0
M  V30 12340 H 1157.96 4.31545 -3.01789 0
M  V30 12341 H 1160.45 2.84786 -2.48405 0
M  V30 12342 H 1160.76 5.39372 -5.53441 0
M  V30 12343 H 1159.1 4.8557 -4.9724 0
M  V30 12344 H 1162.3 3.47166 -3.13996 0
M  V30 12345 H 1162.47 4.63275 -4.53079 0
M  V30 12346 N 1155.87 0.935264 1.26849 0
M  V30 12347 C 1157.29 0.636661 1.46352 0
M  V30 12348 C 1157.49 -0.811823 1.84423 0
M  V30 12349 O 1156.55 -1.58902 1.9623 0
M  V30 12350 C 1157.86 1.59301 2.55036 0
M  V30 12351 C 1159.41 1.60207 2.68892 0
M  V30 12352 C 1159.88 2.54558 3.80742 0
M  V30 12353 N 1161.37 2.52809 3.88126 0
M  V30 12354 C 1162.11 3.225 4.74111 0
M  V30 12355 N 1161.6 4.01598 5.64527 0
M  V30 12356 N 1163.4 3.11481 4.67906 0
M  V30 12357 H 1155.55 1.8716 1.00423 0
M  V30 12358 H 1157.81 0.803968 0.502334 0
M  V30 12359 H 1157.52 2.62671 2.33874 0
M  V30 12360 H 1157.39 1.34052 3.52576 0
M  V30 12361 H 1159.78 0.575649 2.89431 0
M  V30 12362 H 1159.86 1.89508 1.71815 0
M  V30 12363 H 1159.5 3.57314 3.60956 0
M  V30 12364 H 1159.43 2.22549 4.77263 0
M  V30 12365 H 1161.92 1.9537 3.2348 0
M  V30 12366 H 1162.24 4.51742 6.27016 0
M  V30 12367 H 1160.58 4.057 5.64298 0
M  V30 12368 H 1163.77 2.49175 3.9627 0
M  V30 12369 H 1163.95 3.66064 5.34697 0
M  V30 12370 N 1157.35 -1.41121 0.701616 0
M  V30 12371 C 1158.3 -2.30765 0.040121 0
M  V30 12372 C 1159.27 -1.47436 -0.764975 0
M  V30 12373 O 1160.45 -1.76209 -0.731775 0
M  V30 12374 C 1157.59 -3.33535 -0.885903 0
M  V30 12375 C 1156.71 -4.3194 -0.0717765 0
M  V30 12376 C 1155.84 -5.21779 -0.995996 0
M  V30 12377 C 1154.88 -6.11849 -0.175133 0
M  V30 12378 N 1154.02 -6.94151 -1.05348 0
M  V30 12379 H 1158.86 -2.86772 0.810312 0
M  V30 12380 H 1156.4 -1.41233 0.411301 0
M  V30 12381 H 1158.35 -3.91675 -1.4369 0
M  V30 12382 H 1156.98 -2.79065 -1.62243 0
M  V30 12383 H 1156.04 -3.75698 0.596221 0
M  V30 12384 H 1157.35 -4.95597 0.56435 0
M  V30 12385 H 1156.5 -5.84782 -1.61601 0
M  V30 12386 H 1155.24 -4.58363 -1.66597 0
M  V30 12387 H 1154.25 -5.4789 0.457916 0
M  V30 12388 H 1155.47 -6.77322 0.491133 0
M  V30 12389 H 1153.42 -6.33338 -1.70936 0
M  V30 12390 H 1153.33 -7.54518 -0.473065 0
M  V30 12391 H 1154.6 -7.61617 -1.66012 0
M  V30 12392 N 1158.83 -0.446794 -1.51134 0
M  V30 12393 C 1159.76 0.395804 -2.25757 0
M  V30 12394 C 1160.78 0.978178 -1.30137 0
M  V30 12395 O 1161.96 0.87071 -1.55823 0
M  V30 12396 C 1159.06 1.56665 -3.00515 0
M  V30 12397 C 1158.24 1.10146 -4.23305 0
M  V30 12398 C 1157.3 2.14352 -4.80562 0
M  V30 12399 O 1156.32 1.73401 -5.42145 0
M  V30 12400 N 1157.52 3.46932 -4.65423 0
M  V30 12401 H 1160.29 -0.243808 -2.98707 0
M  V30 12402 H 1157.85 -0.276205 -1.59527 0
M  V30 12403 H 1159.84 2.26019 -3.35704 0
M  V30 12404 H 1158.41 2.11142 -2.30516 0
M  V30 12405 H 1157.63 0.234644 -3.93501 0
M  V30 12406 H 1158.92 0.768185 -5.02968 0
M  V30 12407 H 1158.32 3.82929 -4.16391 0
M  V30 12408 H 1156.88 4.12154 -5.04948 0
M  V30 12409 N 1160.31 1.56586 -0.178487 0
M  V30 12410 C 1161.24 2.21313 0.744486 0
M  V30 12411 C 1162.22 1.17098 1.23377 0
M  V30 12412 O 1163.4 1.45551 1.28563 0
M  V30 12413 C 1160.53 2.8595 1.97103 0
M  V30 12414 C 1159.49 3.96266 1.61732 0
M  V30 12415 C 1158.81 4.47987 2.91911 0
M  V30 12416 C 1160.11 5.15503 0.839868 0
M  V30 12417 H 1161.81 2.98698 0.204938 0
M  V30 12418 H 1159.35 1.43672 0.0971306 0
M  V30 12419 H 1161.31 3.29909 2.6218 0
M  V30 12420 H 1160.03 2.05946 2.53484 0
M  V30 12421 H 1158.69 3.52974 0.990208 0
M  V30 12422 H 1158.34 3.64765 3.46346 0
M  V30 12423 H 1158.04 5.22413 2.68995 0
M  V30 12424 H 1159.56 4.94637 3.58004 0
M  V30 12425 H 1160.98 5.5611 1.39337 0
M  V30 12426 H 1159.37 5.95891 0.709473 0
M  V30 12427 H 1160.44 4.84628 -0.162396 0
M  V30 12428 N 1161.79 -0.095206 1.57312 0
M  V30 12429 C 1162.72 -1.14173 1.98739 0
M  V30 12430 C 1163.73 -1.36323 0.889934 0
M  V30 12431 O 1164.92 -1.34977 1.16805 0
M  V30 12432 C 1162.02 -2.49729 2.29104 0
M  V30 12433 C 1161.19 -2.47857 3.60396 0
M  V30 12434 C 1160.25 -3.65341 3.78699 0
M  V30 12435 O 1159.28 -3.47837 4.50553 0
M  V30 12436 N 1160.48 -4.84818 3.19268 0
M  V30 12437 H 1163.25 -0.789126 2.89124 0
M  V30 12438 H 1160.81 -0.284187 1.59386 0
M  V30 12439 H 1162.8 -3.26925 2.38541 0
M  V30 12440 H 1161.37 -2.7708 1.44726 0
M  V30 12441 H 1160.59 -1.56208 3.61929 0
M  V30 12442 H 1161.88 -2.43685 4.46649 0
M  V30 12443 H 1161.27 -5.01943 2.60902 0
M  V30 12444 H 1159.83 -5.59607 3.34191 0
M  V30 12445 N 1163.26 -1.53291 -0.366026 0
M  V30 12446 C 1164.51 -1.69451 -1.10872 0
M  V30 12447 C 1164.84 -0.446078 -1.89316 0
M  V30 12448 O 1164.09 0.571962 -1.87155 0
M  V30 12449 C 1164.39 -2.89547 -2.09517 0
M  V30 12450 C 1164.06 -4.26073 -1.47556 0
M  V30 12451 C 1162.72 -4.63199 -1.30386 0
M  V30 12452 C 1165.07 -5.10977 -1.02724 0
M  V30 12453 C 1162.4 -5.82866 -0.669666 0
M  V30 12454 C 1164.75 -6.31289 -0.407052 0
M  V30 12455 C 1163.42 -6.67128 -0.222839 0
M  V30 12456 H 1162.69 -0.620066 -0.405708 0
M  V30 12457 H 1165.33 -1.87475 -0.390563 0
M  V30 12458 H 1163.64 -2.66034 -2.87634 0
M  V30 12459 H 1165.34 -2.99245 -2.66933 0
M  V30 12460 H 1161.93 -3.9684 -1.61914 0
M  V30 12461 H 1166.11 -4.82844 -1.14783 0
M  V30 12462 H 1161.37 -6.09224 -0.515351 0
M  V30 12463 H 1165.54 -6.96381 -0.0514661 0
M  V30 12464 H 1163.17 -7.59718 0.270647 0
M  V30 12465 N 1164.74 0.6258 -1.44643 0
M  V30 12466 C 1165.71 1.71941 -1.51555 0
M  V30 12467 C 1166.71 1.55822 -0.396988 0
M  V30 12468 O 1167.9 1.61221 -0.65981 0
M  V30 12469 C 1165.03 3.11068 -1.39461 0
M  V30 12470 H 1166.22 1.67185 -2.48976 0
M  V30 12471 H 1163.77 0.839934 -1.31814 0
M  V30 12472 H 1164.51 3.21416 -0.431534 0
M  V30 12473 H 1164.29 3.24175 -2.20574 0
M  V30 12474 H 1165.78 3.90762 -1.4729 0
M  V30 12475 N 1166.22 1.31629 0.866686 0
M  V30 12476 C 1167.15 1.22151 1.99001 0
M  V30 12477 C 1168.13 0.107972 1.69757 0
M  V30 12478 O 1169.32 0.293125 1.91975 0
M  V30 12479 C 1166.45 0.93144 3.34577 0
M  V30 12480 C 1165.4 2.0049 3.78137 0
M  V30 12481 C 1164.73 1.56747 5.11209 0
M  V30 12482 C 1166.03 3.41844 3.94892 0
M  V30 12483 H 1167.72 2.16132 2.0719 0
M  V30 12484 H 1165.27 1.04051 0.995463 0
M  V30 12485 H 1167.22 0.851719 4.12703 0
M  V30 12486 H 1165.94 -0.0440289 3.2657 0
M  V30 12487 H 1164.6 2.07457 3.02253 0
M  V30 12488 H 1164.25 0.579767 4.99648 0
M  V30 12489 H 1163.95 2.28562 5.41326 0
M  V30 12490 H 1165.47 1.50188 5.91841 0
M  V30 12491 H 1166.89 3.37534 4.63405 0
M  V30 12492 H 1165.29 4.11905 4.36411 0
M  V30 12493 H 1166.36 3.82389 2.98172 0
M  V30 12494 N 1167.7 -1.08142 1.14644 0
M  V30 12495 C 1169.11 -1.62061 0.926986 0
M  V30 12496 C 1169.46 -1.88805 -0.533578 0
M  V30 12497 O 1168.59 -1.64753 -1.40305 0
M  V30 12498 C 1169.18 -2.94425 1.67629 0
M  V30 12499 C 1167.74 -3.45118 1.50235 0
M  V30 12500 C 1166.89 -2.19307 1.69705 0
M  V30 12501 H 1169.84 -0.913326 1.29785 0
M  V30 12502 H 1169.86 -3.62987 1.14107 0
M  V30 12503 H 1169.37 -2.74928 2.73927 0
M  V30 12504 H 1167.47 -3.69713 0.462967 0
M  V30 12505 H 1167.59 -4.2169 2.27408 0
M  V30 12506 H 1165.95 -2.28611 1.12291 0
M  V30 12507 H 1166.73 -2.02315 2.77351 0
M  V30 12508 N 1169.18 -0.941978 -1.26351 0
M  V30 12509 C 1170.45 -0.507822 -1.88893 0
M  V30 12510 C 1170.83 1.0146 -1.85119 0
M  V30 12511 O 1170.18 1.87495 -1.30606 0
M  V30 12512 C 1170.39 -1.07007 -3.3219 0
M  V30 12513 C 1171.74 -1.13922 -4.09032 0
M  V30 12514 O 1172.76 -1.02072 -3.41262 0
M  V30 12515 O 1171.62 -1.32362 -5.30229 0
M  V30 12516 H 1168.72 -0.165621 -0.810246 0
M  V30 12517 H 1171.26 -1.03459 -1.34515 0
M  V30 12518 H 1170.04 -2.11366 -3.29302 0
M  V30 12519 H 1169.66 -0.525797 -3.94108 0
M  V30 12520 N 1170.66 1.40747 -0.709091 0
M  V30 12521 C 1171.88 2.05841 -0.253816 0
M  V30 12522 C 1172.31 1.53056 1.09341 0
M  V30 12523 O 1171.66 0.663181 1.68735 0
M  V30 12524 C 1171.71 3.59822 -0.236699 0
M  V30 12525 O 1170.82 4.04876 0.784168 0
M  V30 12526 H 1170.16 0.65295 -0.120631 0
M  V30 12527 H 1172.69 1.80266 -0.967749 0
M  V30 12528 H 1172.7 4.07936 -0.0721616 0
M  V30 12529 H 1171.37 3.97608 -1.21988 0
M  V30 12530 H 1169.95 3.68237 0.587884 0
M  V30 12531 N 1172.13 0.454803 1.50895 0
M  V30 12532 C 1173.06 -0.337982 2.31041 0
M  V30 12533 C 1174.04 -1.00523 1.37219 0
M  V30 12534 O 1175.23 -1.00553 1.66141 0
M  V30 12535 C 1172.36 -1.42964 3.1651 0
M  V30 12536 C 1171.31 -0.884907 4.18752 0
M  V30 12537 C 1170.64 -2.07363 4.92854 0
M  V30 12538 C 1171.94 0.0926716 5.22218 0
M  V30 12539 H 1173.63 0.33089 2.97566 0
M  V30 12540 H 1171.18 0.160577 1.43102 0
M  V30 12541 H 1173.13 -1.9916 3.71367 0
M  V30 12542 H 1171.86 -2.12705 2.47839 0
M  V30 12543 H 1170.52 -0.345031 3.64973 0
M  V30 12544 H 1170.16 -2.75764 4.2067 0
M  V30 12545 H 1169.86 -1.71545 5.62002 0
M  V30 12546 H 1171.39 -2.6408 5.5054 0
M  V30 12547 H 1172.8 -0.379568 5.72042 0
M  V30 12548 H 1171.2 0.3643 5.98993 0
M  V30 12549 H 1172.27 1.02383 4.73968 0
M  V30 12550 N 1173.61 -1.56489 0.186789 0
M  V30 12551 C 1174.84 -2.01722 -0.459993 0
M  V30 12552 C 1175.25 -1.06697 -1.5576 0
M  V30 12553 O 1174.61 -0.0704212 -1.82364 0
M  V30 12554 C 1174.66 -3.46693 -1.02401 0
M  V30 12555 O 1174.38 -4.3809 0.0297916 0
M  V30 12556 C 1175.88 -4.07403 -1.7475 0
M  V30 12557 H 1173.1 -0.660845 -0.116298 0
M  V30 12558 H 1175.65 -2.02389 0.293059 0
M  V30 12559 H 1173.8 -3.46752 -1.72749 0
M  V30 12560 H 1174.22 -5.23057 -0.388821 0
M  V30 12561 H 1175.69 -5.10718 -2.09455 0
M  V30 12562 H 1176.17 -3.50383 -2.64818 0
M  V30 12563 H 1176.77 -4.11093 -1.09007 0
M  V30 12564 N 1175.09 0.086862 -1.5736 0
M  V30 12565 C 1176.32 0.802167 -1.90717 0
M  V30 12566 C 1176.73 1.71875 -0.781304 0
M  V30 12567 O 1176.09 1.80831 0.246255 0
M  V30 12568 C 1176.14 1.60858 -3.23739 0
M  V30 12569 O 1175.86 0.728851 -4.31995 0
M  V30 12570 C 1177.36 2.42621 -3.71012 0
M  V30 12571 H 1174.58 0.228914 -0.630745 0
M  V30 12572 H 1177.13 0.061634 -2.04407 0
M  V30 12573 H 1175.28 2.30153 -3.11622 0
M  V30 12574 H 1175.7 1.2882 -5.08435 0
M  V30 12575 H 1177.17 2.94683 -4.66761 0
M  V30 12576 H 1177.65 3.21462 -2.99264 0
M  V30 12577 H 1178.25 1.78509 -3.86024 0
M  V30 12578 N 1176.57 1.53483 0.357892 0
M  V30 12579 C 1177.81 1.71233 1.09776 0
M  V30 12580 C 1178.17 0.462401 1.86761 0
M  V30 12581 O 1177.46 -0.544746 1.83693 0
M  V30 12582 C 1177.66 2.90654 2.07978 0
M  V30 12583 C 1177.48 4.27141 1.40644 0
M  V30 12584 C 1176.25 4.91868 1.15732 0
M  V30 12585 C 1178.45 5.07392 0.840118 0
M  V30 12586 N 1176.43 6.12261 0.448282 0
M  V30 12587 C 1177.81 6.19451 0.260863 0
M  V30 12588 C 1179.86 4.92377 0.739558 0
M  V30 12589 C 1178.56 7.18135 -0.409153 0
M  V30 12590 C 1180.59 5.91341 0.0833084 0
M  V30 12591 C 1179.95 7.02728 -0.485038 0
M  V30 12592 H 1176.05 0.679764 0.386582 0
M  V30 12593 H 1178.63 1.90893 0.383158 0
M  V30 12594 H 1176.81 2.7252 2.76744 0
M  V30 12595 H 1178.54 2.97192 2.74698 0
M  V30 12596 H 1175.29 4.51157 1.44064 0
M  V30 12597 H 1175.72 6.76912 0.108905 0
M  V30 12598 H 1180.36 4.06441 1.16472 0
M  V30 12599 H 1178.08 8.03657 -0.846247 0
M  V30 12600 H 1181.66 5.818 0.00632482 0
M  V30 12601 H 1180.54 7.77992 -0.984802 0
M  V30 12602 N 1178.05 -0.61812 1.44973 0
M  V30 12603 C 1178.96 -1.7579 1.55355 0
M  V30 12604 C 1179.97 -1.68384 0.438512 0
M  V30 12605 O 1181.15 -1.88928 0.697715 0
M  V30 12606 C 1178.21 -3.1222 1.50729 0
M  V30 12607 C 1177.27 -3.3116 2.73188 0
M  V30 12608 C 1176.51 -4.61082 2.68774 0
M  V30 12609 O 1176.73 -5.42728 1.75507 0
M  V30 12610 O 1175.66 -4.82506 3.59821 0
M  V30 12611 H 1179.49 -1.69983 2.51674 0
M  V30 12612 H 1177.07 -0.780934 1.27365 0
M  V30 12613 H 1178.96 -3.93524 1.5072 0
M  V30 12614 H 1177.63 -3.18541 0.575587 0
M  V30 12615 H 1176.54 -2.49485 2.78762 0
M  V30 12616 H 1177.87 -3.29709 3.65449 0
M  V30 12617 N 1179.52 -1.32087 -0.859693 0
M  V30 12618 C 1180.77 -1.21716 -1.60836 0
M  V30 12619 C 1181.09 0.220904 -1.94349 0
M  V30 12620 O 1182.29 0.446422 -2.67805 0
M  V30 12621 C 1180.75 -2.13143 -2.89997 0
M  V30 12622 C 1180.36 -3.62003 -2.63928 0
M  V30 12623 C 1182.1 -2.11596 -3.68004 0
M  V30 12624 C 1180.01 -4.45407 -3.89059 0
M  V30 12625 H 1178.94 -0.45199 -0.603507 0
M  V30 12626 H 1181.59 -1.57013 -0.949687 0
M  V30 12627 H 1179.97 -1.70755 -3.57294 0
M  V30 12628 H 1181.14 -4.12701 -2.04974 0
M  V30 12629 H 1179.46 -3.6563 -1.99258 0
M  V30 12630 H 1182.06 -2.71149 -4.6085 0
M  V30 12631 H 1182.4 -1.10568 -4.01348 0
M  V30 12632 H 1182.93 -2.52238 -3.07605 0
M  V30 12633 H 1179.67 -5.4723 -3.60859 0
M  V30 12634 H 1179.19 -3.99462 -4.47427 0
M  V30 12635 H 1180.87 -4.58149 -4.56846 0
M  V30 12636 N 1181 1.07532 -1.15215 0
M  V30 12637 C 1181.93 2.14598 -0.805006 0
M  V30 12638 C 1182.95 1.61778 0.182152 0
M  V30 12639 O 1184.14 1.78453 -0.040834 0
M  V30 12640 C 1181.24 3.38444 -0.175736 0
M  V30 12641 C 1180.41 4.20621 -1.19986 0
M  V30 12642 C 1179.47 5.22851 -0.592705 0
M  V30 12643 O 1178.49 5.55121 -1.25815 0
M  V30 12644 N 1179.7 5.7711 0.626425 0
M  V30 12645 H 1182.46 2.44981 -1.7264 0
M  V30 12646 H 1180.02 1.23423 -1.04778 0
M  V30 12647 H 1182.01 4.03969 0.243166 0
M  V30 12648 H 1180.58 3.0579 0.64896 0
M  V30 12649 H 1179.8 3.50941 -1.79539 0
M  V30 12650 H 1181.09 4.72339 -1.89139 0
M  V30 12651 H 1180.49 5.53139 1.18546 0
M  V30 12652 H 1179.05 6.44273 0.98771 0
M  V30 12653 N 1182.48 0.948665 1.2585 0
M  V30 12654 C 1183.73 0.59905 1.93018 0
M  V30 12655 C 1184.05 -0.865813 1.74725 0
M  V30 12656 O 1183.32 -1.61602 1.10732 0
M  V30 12657 H 1181.9 0.218565 0.71431 0
M  V30 12658 H 1184.56 1.20561 1.53137 0
M  V30 12659 H 1183.66 0.823244 3.01047 0
M  V30 12660 N 1183.96 -1.40369 0.716545 0
M  V30 12661 C 1185.2 -2.01167 0.256846 0
M  V30 12662 C 1185.54 -1.56689 -1.14727 0
M  V30 12663 O 1184.81 -0.787384 -1.7785 0
M  V30 12664 C 1185.1 -3.58511 0.337963 0
M  V30 12665 C 1184.95 -4.13059 1.78052 0
M  V30 12666 C 1186.27 -4.39142 -0.290295 0
M  V30 12667 H 1183.39 -0.730877 0.0948028 0
M  V30 12668 H 1186.03 -1.66833 0.909225 0
M  V30 12669 H 1184.18 -3.87891 -0.217482 0
M  V30 12670 H 1185.85 -3.94472 2.39143 0
M  V30 12671 H 1184.09 -3.67311 2.30793 0
M  V30 12672 H 1184.76 -5.22217 1.78867 0
M  V30 12673 H 1187.24 -4.15697 0.182987 0
M  V30 12674 H 1186.12 -5.48524 -0.203097 0
M  V30 12675 H 1186.38 -4.20209 -1.37394 0
M  V30 12676 N 1185.44 -0.462799 -1.50652 0
M  V30 12677 C 1186.68 0.0948568 -2.01877 0
M  V30 12678 C 1187.01 1.4096 -1.34741 0
M  V30 12679 O 1186.28 1.89671 -0.49006 0
M  V30 12680 H 1184.86 0.0380453 -0.746031 0
M  V30 12681 H 1187.52 -0.611327 -1.85064 0
M  V30 12682 H 1186.61 0.252378 -3.11078 0
M  V30 12683 N 1186.91 1.56388 -0.195085 0
M  V30 12684 C 1188.16 1.96755 0.443901 0
M  V30 12685 C 1188.48 1.08483 1.6276 0
M  V30 12686 O 1189.68 1.38632 2.33438 0
M  V30 12687 C 1188.14 3.49933 0.841139 0
M  V30 12688 C 1187.75 4.46868 -0.318275 0
M  V30 12689 C 1189.49 3.99069 1.44721 0
M  V30 12690 C 1187.4 5.91316 0.0999211 0
M  V30 12691 H 1186.33 0.734674 0.169616 0
M  V30 12692 H 1188.98 1.8124 -0.287101 0
M  V30 12693 H 1187.36 3.60951 1.62881 0
M  V30 12694 H 1188.53 4.47581 -1.0958 0
M  V30 12695 H 1186.85 4.07925 -0.835842 0
M  V30 12696 H 1189.45 5.04465 1.77255 0
M  V30 12697 H 1189.79 3.43376 2.35369 0
M  V30 12698 H 1190.32 3.91165 0.723513 0
M  V30 12699 H 1187.06 6.50934 -0.77237 0
M  V30 12700 H 1186.58 5.93856 0.842304 0
M  V30 12701 H 1188.26 6.44778 0.535726 0
M  V30 12702 N 1188.39 -0.0785156 1.57404 0
M  V30 12703 C 1189.62 -0.795871 1.91522 0
M  V30 12704 C 1190.04 -1.70665 0.790892 0
M  V30 12705 O 1189.4 -1.79474 -0.25666 0
M  V30 12706 C 1189.45 -1.57121 3.24569 0
M  V30 12707 O 1188.55 -2.6814 3.13328 0
M  V30 12708 H 1187.89 -0.217575 0.627341 0
M  V30 12709 H 1190.42 -0.0487724 2.04542 0
M  V30 12710 H 1190.43 -1.9519 3.5828 0
M  V30 12711 H 1189.11 -0.902909 4.05981 0
M  V30 12712 H 1187.69 -2.32978 2.91163 0
M  V30 12713 N 1189.87 -1.5367 -0.349747 0
M  V30 12714 C 1190.82 -1.81914 -1.44948 0
M  V30 12715 C 1191.81 -0.689218 -1.54745 0
M  V30 12716 O 1193.02 -0.872448 -1.57443 0
M  V30 12717 H 1189.39 -0.576234 -0.483176 0
M  V30 12718 H 1191.36 -2.73932 -1.18338 0
M  V30 12719 C 1190.11 -2.04005 -2.81562 0
M  V30 12720 H 1189.44 -2.90399 -2.74788 0
M  V30 12721 H 1190.88 -2.27737 -3.57648 0
M  V30 12722 C 1189.34 -0.823748 -3.26674 0
M  V30 12723 O 1189.87 -0.0201351 -4.01695 0
M  V30 12724 N 1188.07 -0.642716 -2.83403 0
M  V30 12725 H 1187.62 -1.29783 -2.22517 0
M  V30 12726 H 1187.58 0.169654 -3.13942 0
M  V30 12727 N 1191.35 0.610423 -1.45298 0
M  V30 12728 C 1192.58 1.39621 -1.52688 0
M  V30 12729 C 1192.99 1.88133 -0.158535 0
M  V30 12730 O 1192.35 1.62051 0.839396 0
M  V30 12731 C 1192.4 2.60261 -2.50891 0
M  V30 12732 O 1192.12 2.13766 -3.82408 0
M  V30 12733 C 1193.62 3.53154 -2.6795 0
M  V30 12734 H 1190.84 0.427493 -0.517195 0
M  V30 12735 H 1193.39 0.744701 -1.90459 0
M  V30 12736 H 1191.54 3.2146 -2.162 0
M  V30 12737 H 1191.95 2.92128 -4.35616 0
M  V30 12738 H 1193.43 4.34355 -3.40647 0
M  V30 12739 H 1193.91 4.03311 -1.73888 0
M  V30 12740 H 1194.51 2.9781 -3.03627 0
M  V30 12741 N 1192.83 1.32541 0.852676 0
M  V30 12742 C 1194.07 1.22971 1.60383 0
M  V30 12743 C 1194.4 -0.208009 1.93887 0
M  V30 12744 O 1193.67 -1.13326 1.59794 0
M  V30 12745 H 1192.25 0.452149 0.594618 0
M  V30 12746 H 1194.91 1.66089 1.01983 0
M  V30 12747 H 1194 1.81373 2.53989 0
M  V30 12748 N 1194.3 -1.0692 1.15784 0
M  V30 12749 C 1195.55 -1.78983 0.929944 0
M  V30 12750 C 1195.87 -1.87884 -0.543969 0
M  V30 12751 O 1197.07 -2.56513 -0.889578 0
M  V30 12752 C 1195.53 -3.21657 1.61446 0
M  V30 12753 C 1195.14 -3.20943 3.12569 0
M  V30 12754 C 1196.88 -3.98299 1.46828 0
M  V30 12755 C 1194.79 -4.58298 3.73788 0
M  V30 12756 H 1193.72 -0.670809 0.344284 0
M  V30 12757 H 1196.37 -1.19975 1.38846 0
M  V30 12758 H 1194.75 -3.80885 1.08364 0
M  V30 12759 H 1195.92 -2.71334 3.72444 0
M  V30 12760 H 1194.24 -2.57799 3.26999 0
M  V30 12761 H 1196.84 -4.99822 1.89952 0
M  V30 12762 H 1197.18 -4.14213 0.416358 0
M  V30 12763 H 1197.71 -3.45577 1.97031 0
M  V30 12764 H 1194.45 -4.47588 4.789 0
M  V30 12765 H 1193.97 -5.08126 3.18698 0
M  V30 12766 H 1195.65 -5.27262 3.74972 0
M  V30 12767 N 1195.78 -0.955326 -1.25345 0
M  V30 12768 C 1197.02 -0.618161 -1.94828 0
M  V30 12769 C 1197.39 0.829532 -1.73155 0
M  V30 12770 O 1198.59 1.27632 -2.36566 0
M  V30 12771 C 1196.86 -0.967887 -3.44045 0
M  V30 12772 S 1198.42 -0.743401 -4.32457 0
M  V30 12773 H 1195.24 -0.227189 -0.673726 0
M  V30 12774 H 1197.84 -1.22965 -1.51986 0
M  V30 12775 H 1196.54 -2.01864 -3.57322 0
M  V30 12776 H 1196.07 -0.346677 -3.9187 0
M  V30 12777 H 1198.09 0.385467 -4.94701 0
M  V30 12778 N 1197.26 1.39987 -0.723979 0
M  V30 12779 C 1198.51 2.01028 -0.267511 0
M  V30 12780 C 1198.84 1.57295 1.13894 0
M  V30 12781 O 1198.12 0.796805 1.7743 0
M  V30 12782 C 1198.4 3.58326 -0.356971 0
M  V30 12783 C 1198.25 4.12109 -1.8024 0
M  V30 12784 C 1199.57 4.39289 0.267003 0
M  V30 12785 H 1196.69 0.730364 -0.0986775 0
M  V30 12786 H 1199.33 1.66348 -0.91806 0
M  V30 12787 H 1197.48 3.88001 0.196908 0
M  V30 12788 H 1199.15 3.93199 -2.41231 0
M  V30 12789 H 1197.4 3.66082 -2.32737 0
M  V30 12790 H 1198.07 5.21261 -1.81634 0
M  V30 12791 H 1200.54 4.15595 -0.20503 0
M  V30 12792 H 1199.42 5.48624 0.174004 0
M  V30 12793 H 1199.68 4.20931 1.35164 0
M  V30 12794 N 1198.74 0.470782 1.50404 0
M  V30 12795 C 1199.7 -0.312227 2.27063 0
M  V30 12796 C 1200.7 -0.920709 1.31832 0
M  V30 12797 O 1201.89 -0.789937 1.5526 0
M  V30 12798 C 1199.02 -1.44477 3.0877 0
M  V30 12799 H 1200.22 0.36006 2.97731 0
M  V30 12800 H 1197.77 0.224837 1.54674 0
M  V30 12801 H 1198.51 -2.15212 2.42599 0
M  V30 12802 H 1198.29 -1.01426 3.78755 0
M  V30 12803 H 1199.78 -1.99713 3.66749 0
M  V30 12804 N 1200.22 -1.56282 0.203376 0
M  V30 12805 C 1201.49 -1.89587 -0.481256 0
M  V30 12806 C 1201.87 -1.11812 -1.79057 0
M  V30 12807 O 1201.22 -0.221759 -2.27421 0
M  V30 12808 C 1201.43 -3.42071 -0.691965 0
M  V30 12809 C 1202.78 -4.12471 -1.00761 0
M  V30 12810 O 1203.8 -3.47568 -0.779396 0
M  V30 12811 O 1202.66 -5.27194 -1.43974 0
M  V30 12812 H 1199.76 -0.787682 -0.251963 0
M  V30 12813 H 1202.3 -1.67934 0.244207 0
M  V30 12814 H 1201.08 -3.9061 0.232322 0
M  V30 12815 H 1200.7 -3.69444 -1.46958 0
M  V30 12816 N 1201.7 0.070167 -1.57444 0
M  V30 12817 C 1202.92 0.781894 -1.91557 0
M  V30 12818 C 1203.34 1.71037 -0.799489 0
M  V30 12819 O 1202.7 1.81082 0.227062 0
M  V30 12820 C 1202.75 1.57415 -3.25427 0
M  V30 12821 O 1202.47 0.682991 -4.32743 0
M  V30 12822 C 1203.97 2.38673 -3.73564 0
M  V30 12823 H 1201.19 0.222211 -0.633138 0
M  V30 12824 H 1203.73 0.0399504 -2.04461 0
M  V30 12825 H 1201.89 2.26835 -3.14045 0
M  V30 12826 H 1202.3 1.2342 -5.09772 0
M  V30 12827 H 1203.78 2.89716 -4.6986 0
M  V30 12828 H 1204.25 3.18269 -3.02657 0
M  V30 12829 H 1204.86 1.74405 -3.87896 0
M  V30 12830 N 1203.17 1.53854 0.341593 0
M  V30 12831 C 1204.42 1.71447 1.08322 0
M  V30 12832 C 1204.75 0.477289 1.88243 0
M  V30 12833 O 1204.03 -0.525695 1.87261 0
M  V30 12834 C 1204.31 2.97917 2.02281 0
M  V30 12835 C 1204.16 4.31847 1.25809 0
M  V30 12836 C 1205.48 3.20065 3.0207 0
M  V30 12837 H 1202.6 0.623847 0.392408 0
M  V30 12838 H 1205.24 1.86527 0.361594 0
M  V30 12839 H 1203.39 2.85191 2.63815 0
M  V30 12840 H 1205.07 4.56427 0.668737 0
M  V30 12841 H 1203.31 4.30169 0.560119 0
M  V30 12842 H 1203.98 5.16522 1.94704 0
M  V30 12843 H 1206.46 3.32135 2.50651 0
M  V30 12844 H 1205.33 4.09947 3.65013 0
M  V30 12845 H 1205.59 2.36452 3.73554 0
M  V30 12846 N 1204.65 -0.602709 1.4562 0
M  V30 12847 C 1205.6 -1.71312 1.54664 0
M  V30 12848 C 1206.57 -1.61403 0.392197 0
M  V30 12849 O 1207.75 -1.80911 0.606297 0
M  V30 12850 C 1204.89 -3.09629 1.52393 0
M  V30 12851 C 1204.01 -3.30308 2.78425 0
M  V30 12852 C 1203.14 -4.5876 2.67793 0
M  V30 12853 C 1202.18 -4.72713 3.88855 0
M  V30 12854 N 1201.32 -5.92469 3.76729 0
M  V30 12855 H 1206.16 -1.62918 2.49523 0
M  V30 12856 H 1203.69 -0.794324 1.2381 0
M  V30 12857 H 1205.65 -3.89661 1.49064 0
M  V30 12858 H 1204.28 -3.16968 0.610816 0
M  V30 12859 H 1203.33 -2.44018 2.9182 0
M  V30 12860 H 1204.65 -3.36491 3.68205 0
M  V30 12861 H 1203.8 -5.46993 2.62457 0
M  V30 12862 H 1202.54 -4.54983 1.75619 0
M  V30 12863 H 1201.54 -3.82903 3.94545 0
M  V30 12864 H 1202.77 -4.78284 4.82101 0
M  V30 12865 H 1200.72 -5.89728 2.87328 0
M  V30 12866 H 1200.63 -5.99833 4.60148 0
M  V30 12867 H 1201.9 -6.83187 3.75334 0
M  V30 12868 N 1206.13 -1.32992 -0.845635 0
M  V30 12869 C 1207.09 -1.22607 -1.9365 0
M  V30 12870 C 1208.09 -0.146812 -1.60128 0
M  V30 12871 O 1209.28 -0.397863 -1.69596 0
M  V30 12872 C 1206.41 -0.887677 -3.2914 0
M  V30 12873 H 1207.61 -2.19563 -2.04285 0
M  V30 12874 H 1205.16 -1.16952 -1.03691 0
M  V30 12875 H 1205.9 0.0796777 -3.24202 0
M  V30 12876 H 1205.68 -1.66808 -3.54849 0
M  V30 12877 H 1207.17 -0.83958 -4.09073 0
M  V30 12878 N 1207.61 1.06304 -1.1635 0
M  V30 12879 C 1208.55 2.13776 -0.869965 0
M  V30 12880 C 1209.52 1.65105 0.181541 0
M  V30 12881 O 1210.71 1.90743 0.0467705 0
M  V30 12882 C 1207.85 3.43034 -0.377077 0
M  V30 12883 C 1206.96 4.0544 -1.4914 0
M  V30 12884 C 1206.1 5.22572 -0.953538 0
M  V30 12885 C 1205.14 5.76961 -2.04407 0
M  V30 12886 N 1204.27 6.85409 -1.52181 0
M  V30 12887 H 1209.11 2.38224 -1.79034 0
M  V30 12888 H 1206.65 1.16882 -0.893136 0
M  V30 12889 H 1208.61 4.17136 -0.0729426 0
M  V30 12890 H 1207.24 3.18804 0.506359 0
M  V30 12891 H 1206.29 3.28886 -1.9115 0
M  V30 12892 H 1207.6 4.41859 -2.31434 0
M  V30 12893 H 1206.76 6.037 -0.602579 0
M  V30 12894 H 1205.5 4.87598 -0.099897 0
M  V30 12895 H 1204.5 4.9447 -2.40373 0
M  V30 12896 H 1205.73 6.13987 -2.90167 0
M  V30 12897 H 1203.67 6.52354 -0.690697 0
M  V30 12898 H 1203.59 7.2077 -2.28092 0
M  V30 12899 H 1204.86 7.70217 -1.19942 0
M  V30 12900 N 1209.09 0.96196 1.24836 0
M  V30 12901 C 1210.33 0.621634 1.93038 0
M  V30 12902 C 1210.66 -0.840257 1.75081 0
M  V30 12903 O 1209.94 -1.60381 1.10038 0
M  V30 12904 C 1210.22 0.990107 3.46221 0
M  V30 12905 C 1210.08 2.50827 3.73371 0
M  V30 12906 C 1211.39 0.520478 4.37011 0
M  V30 12907 H 1208.51 0.227312 0.701069 0
M  V30 12908 H 1211.16 1.19993 1.47315 0
M  V30 12909 H 1209.31 0.498008 3.85295 0
M  V30 12910 H 1210.98 3.07469 3.4389 0
M  V30 12911 H 1209.22 2.94277 3.18722 0
M  V30 12912 H 1209.89 2.71659 4.80526 0
M  V30 12913 H 1212.37 0.942703 4.05281 0
M  V30 12914 H 1211.24 0.806918 5.42937 0
M  V30 12915 H 1211.5 -0.579507 4.38285 0
M  V30 12916 N 1210.56 -1.39601 0.731392 0
M  V30 12917 C 1211.81 -2.00586 0.277756 0
M  V30 12918 C 1212.14 -1.58027 -1.13391 0
M  V30 12919 O 1211.39 -0.798691 -1.7866 0
M  V30 12920 C 1211.69 -3.55934 0.323352 0
M  V30 12921 C 1211.36 -4.18131 1.68753 0
M  V30 12922 C 1210.02 -4.34833 2.06092 0
M  V30 12923 C 1212.37 -4.5267 2.58339 0
M  V30 12924 C 1209.7 -4.83362 3.32532 0
M  V30 12925 C 1212.05 -5.02607 3.84148 0
M  V30 12926 C 1210.72 -5.17517 4.21584 0
M  V30 12927 H 1209.99 -0.733996 0.101638 0
M  V30 12928 H 1212.63 -1.66981 0.937528 0
M  V30 12929 H 1210.94 -3.89542 -0.419995 0
M  V30 12930 H 1212.64 -4.00974 -0.0457235 0
M  V30 12931 H 1209.23 -4.0553 1.38722 0
M  V30 12932 H 1213.41 -4.39388 2.30763 0
M  V30 12933 H 1208.67 -4.93091 3.61485 0
M  V30 12934 H 1212.84 -5.28306 4.53724 0
M  V30 12935 H 1210.47 -5.54882 5.19625 0
M  V30 12936 N 1212.04 -0.478751 -1.50152 0
M  V30 12937 C 1212.99 0.311426 -2.28689 0
M  V30 12938 C 1213.96 0.980375 -1.34082 0
M  V30 12939 O 1215.14 0.991337 -1.63025 0
M  V30 12940 C 1212.28 1.38302 -3.16175 0
M  V30 12941 C 1211.4 0.728084 -4.2582 0
M  V30 12942 C 1210.53 1.77822 -5.00552 0
M  V30 12943 C 1209.57 1.10395 -6.02063 0
M  V30 12944 N 1208.71 2.09728 -6.70044 0
M  V30 12945 H 1213.55 -0.364592 -2.95761 0
M  V30 12946 H 1211.09 -0.191645 -1.45846 0
M  V30 12947 H 1213.04 2.01606 -3.65255 0
M  V30 12948 H 1211.67 2.0281 -2.51133 0
M  V30 12949 H 1210.73 -0.0177026 -3.80396 0
M  V30 12950 H 1212.04 0.196209 -4.98414 0
M  V30 12951 H 1211.19 2.48687 -5.53389 0
M  V30 12952 H 1209.93 2.34392 -4.27682 0
M  V30 12953 H 1208.94 0.38096 -5.48479 0
M  V30 12954 H 1210.16 0.545045 -6.76909 0
M  V30 12955 H 1208.11 2.65301 -5.9996 0
M  V30 12956 H 1208.02 1.61546 -7.38538 0
M  V30 12957 H 1209.29 2.7995 -7.27495 0
M  V30 12958 N 1213.52 1.56172 -0.211661 0
M  V30 12959 C 1214.8 1.8984 0.471195 0
M  V30 12960 C 1215.18 1.1276 1.78461 0
M  V30 12961 O 1214.53 0.233817 2.27301 0
M  V30 12962 C 1214.74 3.42434 0.673814 0
M  V30 12963 C 1216.08 4.13 0.985719 0
M  V30 12964 O 1217.11 3.47977 0.760953 0
M  V30 12965 O 1215.97 5.2795 1.41176 0
M  V30 12966 H 1213.06 0.789008 0.247782 0
M  V30 12967 H 1215.61 1.67802 -0.25311 0
M  V30 12968 H 1214.38 3.90481 -0.253034 0
M  V30 12969 H 1214 3.70218 1.44997 0
M  V30 12970 N 1215 -0.0618163 1.57479 0
M  V30 12971 C 1216.24 -0.760193 1.88013 0
M  V30 12972 C 1216.58 -1.76718 0.805258 0
M  V30 12973 O 1215.85 -1.93633 -0.183408 0
M  V30 12974 C 1216.14 -1.45924 3.29208 0
M  V30 12975 C 1215.99 -0.467994 4.47359 0
M  V30 12976 C 1217.31 -2.40166 3.68793 0
M  V30 12977 H 1214.43 -0.274896 0.683814 0
M  V30 12978 H 1217.07 -0.0232433 1.89986 0
M  V30 12979 H 1215.22 -2.08741 3.27657 0
M  V30 12980 H 1216.89 0.155735 4.61037 0
M  V30 12981 H 1215.13 0.215797 4.33263 0
M  V30 12982 H 1215.8 -0.994942 5.42959 0
M  V30 12983 H 1218.28 -1.87419 3.71501 0
M  V30 12984 H 1217.16 -2.86076 4.68457 0
M  V30 12985 H 1217.42 -3.25413 2.99264 0
M  V30 12986 N 1216.48 -1.54033 -0.333429 0
M  V30 12987 C 1217.72 -1.71765 -1.07252 0
M  V30 12988 C 1218.05 -0.486135 -1.88327 0
M  V30 12989 O 1217.31 0.532135 -1.88326 0
M  V30 12990 C 1217.61 -2.93926 -2.03328 0
M  V30 12991 C 1217.27 -4.29107 -1.38486 0
M  V30 12992 C 1215.93 -4.6586 -1.20532 0
M  V30 12993 C 1218.29 -5.13041 -0.918624 0
M  V30 12994 C 1215.61 -5.84155 -0.545881 0
M  V30 12995 C 1217.97 -6.3201 -0.273055 0
M  V30 12996 C 1216.63 -6.67451 -0.0812815 0
M  V30 12997 H 1215.9 -0.628532 -0.392464 0
M  V30 12998 H 1218.55 -1.88261 -0.350709 0
M  V30 12999 H 1216.85 -2.72075 -2.81926 0
M  V30 13000 H 1218.55 -3.0484 -2.60526 0
M  V30 13001 H 1215.14 -4.00185 -1.5346 0
M  V30 13002 H 1219.32 -4.8517 -1.04515 0
M  V30 13003 H 1214.58 -6.1018 -0.386009 0
M  V30 13004 H 1218.75 -6.96333 0.0962582 0
M  V30 13005 H 1216.38 -7.58973 0.431734 0
M  V30 13006 N 1217.95 0.594978 -1.45938 0
M  V30 13007 C 1218.88 1.71536 -1.58422 0
M  V30 13008 C 1219.87 1.64441 -0.435116 0
M  V30 13009 O 1221.05 1.82647 -0.659839 0
M  V30 13010 C 1218.18 3.10163 -1.56257 0
M  V30 13011 C 1217.13 3.3208 -2.70013 0
M  V30 13012 C 1216.46 4.71108 -2.52905 0
M  V30 13013 C 1217.76 3.21105 -4.11933 0
M  V30 13014 H 1219.45 1.61344 -2.52207 0
M  V30 13015 H 1217 0.774791 -1.2138 0
M  V30 13016 H 1218.95 3.88352 -1.63587 0
M  V30 13017 H 1217.68 3.21225 -0.590093 0
M  V30 13018 H 1216.34 2.56286 -2.62132 0
M  V30 13019 H 1215.98 4.7892 -1.53768 0
M  V30 13020 H 1215.68 4.86727 -3.29197 0
M  V30 13021 H 1217.21 5.51482 -2.62107 0
M  V30 13022 H 1218.62 3.89153 -4.2099 0
M  V30 13023 H 1217.02 3.4825 -4.88715 0
M  V30 13024 H 1218.09 2.18359 -4.32952 0
M  V30 13025 N 1219.43 1.33438 0.838571 0
M  V30 13026 C 1220.34 1.25753 1.98049 0
M  V30 13027 C 1221.36 0.168051 1.73187 0
M  V30 13028 O 1222.53 0.391691 1.97554 0
M  V30 13029 C 1219.6 0.997148 3.32051 0
M  V30 13030 C 1218.66 2.17667 3.70027 0
M  V30 13031 C 1217.89 1.92861 4.97635 0
M  V30 13032 O 1218.12 0.879072 5.63585 0
M  V30 13033 O 1217.05 2.79402 5.33121 0
M  V30 13034 H 1220.88 2.21786 2.07472 0
M  V30 13035 H 1218.46 1.13488 0.971645 0
M  V30 13036 H 1220.34 0.869099 4.1234 0
M  V30 13037 H 1219.02 0.0671036 3.2363 0
M  V30 13038 H 1217.93 2.36025 2.90246 0
M  V30 13039 H 1219.26 3.09006 3.83114 0
M  V30 13040 N 1220.91 -1.05686 1.16912 0
M  V30 13041 C 1221.84 -2.12775 0.824755 0
M  V30 13042 C 1222.82 -1.61286 -0.206289 0
M  V30 13043 O 1224.01 -1.8829 -0.0889616 0
M  V30 13044 C 1221.13 -3.37922 0.229422 0
M  V30 13045 C 1220.18 -4.08226 1.23506 0
M  V30 13046 S 1221.01 -4.57424 2.78431 0
M  V30 13047 C 1222.17 -5.85825 2.20364 0
M  V30 13048 H 1222.4 -2.41657 1.73174 0
M  V30 13049 H 1219.93 -1.18212 0.99324 0
M  V30 13050 H 1221.89 -4.10359 -0.107588 0
M  V30 13051 H 1220.55 -3.07186 -0.655424 0
M  V30 13052 H 1219.75 -4.98129 0.767059 0
M  V30 13053 H 1219.35 -3.41832 1.51747 0
M  V30 13054 H 1221.64 -6.58912 1.57611 0
M  V30 13055 H 1222.58 -6.37364 3.08501 0
M  V30 13056 H 1222.99 -5.4015 1.64008 0
M  V30 13057 N 1222.39 -0.968567 -1.24324 0
M  V30 13058 C 1223.34 -0.491346 -2.27351 0
M  V30 13059 C 1224.33 0.445563 -1.63435 0
M  V30 13060 O 1225.54 0.320758 -1.77119 0
M  V30 13061 H 1221.91 -0.14043 -0.738772 0
M  V30 13062 H 1223.88 -1.37224 -2.64976 0
M  V30 13063 C 1222.63 0.202093 -3.47112 0
M  V30 13064 H 1221.95 -0.50973 -3.96537 0
M  V30 13065 H 1223.39 0.499815 -4.21044 0
M  V30 13066 C 1221.85 1.42937 -3.05075 0
M  V30 13067 O 1222.38 2.52635 -3.12312 0
M  V30 13068 N 1220.59 1.29572 -2.60114 0
M  V30 13069 H 1220.14 0.403169 -2.54425 0
M  V30 13070 H 1220.09 2.118 -2.32353 0
M  V30 13071 N 1223.87 1.39211 -0.738786 0
M  V30 13072 C 1225.12 1.99673 -0.285254 0
M  V30 13073 C 1225.43 1.59297 1.13507 0
M  V30 13074 O 1226.63 2.12622 1.68832 0
M  V30 13075 C 1225.09 3.5696 -0.45906 0
M  V30 13076 C 1224.7 4.06297 -1.88751 0
M  V30 13077 C 1226.44 4.24446 -0.0674954 0
M  V30 13078 C 1224.35 5.56171 -2.01067 0
M  V30 13079 H 1223.28 0.746945 -0.102901 0
M  V30 13080 H 1225.93 1.59163 -0.913209 0
M  V30 13081 H 1224.31 3.95285 0.23785 0
M  V30 13082 H 1225.49 3.79297 -2.61669 0
M  V30 13083 H 1223.8 3.51486 -2.23264 0
M  V30 13084 H 1226.4 5.34521 -0.138475 0
M  V30 13085 H 1226.74 4.04653 0.977823 0
M  V30 13086 H 1227.27 3.91309 -0.715704 0
M  V30 13087 H 1224.01 5.80849 -3.03801 0
M  V30 13088 H 1223.53 5.84961 -1.32591 0
M  V30 13089 H 1225.21 6.21642 -1.79362 0
M  V30 13090 N 1225.34 0.486708 1.49896 0
M  V30 13091 C 1226.76 0.0353906 1.86666 0
M  V30 13092 C 1227.11 -1.3743 1.40026 0
M  V30 13093 O 1226.23 -2.02163 0.77194 0
M  V30 13094 C 1226.83 0.0574475 3.38751 0
M  V30 13095 C 1225.39 -0.338464 3.74875 0
M  V30 13096 C 1224.53 0.436196 2.73848 0
M  V30 13097 H 1227.48 0.700215 1.42417 0
M  V30 13098 H 1227.5 -0.741175 3.73212 0
M  V30 13099 H 1227.02 1.08356 3.72667 0
M  V30 13100 H 1225.12 -1.36835 3.46565 0
M  V30 13101 H 1225.23 -0.0289519 4.79091 0
M  V30 13102 H 1223.59 -0.112141 2.54453 0
M  V30 13103 H 1224.38 1.46212 3.10608 0
M  V30 13104 N 1226.82 -1.56058 0.219941 0
M  V30 13105 C 1228.05 -2.02358 -0.416497 0
M  V30 13106 C 1228.46 -1.09903 -1.54007 0
M  V30 13107 O 1227.8 -0.100635 -1.83424 0
M  V30 13108 C 1227.87 -3.45 -1.01072 0
M  V30 13109 C 1227.53 -4.56994 -0.0227891 0
M  V30 13110 C 1228.53 -5.14061 0.776997 0
M  V30 13111 C 1226.21 -5.02209 0.0954981 0
M  V30 13112 C 1228.21 -6.14813 1.68179 0
M  V30 13113 C 1225.89 -6.02799 1.00383 0
M  V30 13114 C 1226.89 -6.58977 1.79552 0
M  V30 13115 O 1226.58 -7.57608 2.68858 0
M  V30 13116 H 1226.31 -0.667581 -0.106355 0
M  V30 13117 H 1228.87 -2.02677 0.333348 0
M  V30 13118 H 1227.1 -3.41745 -1.80962 0
M  V30 13119 H 1228.78 -3.74958 -1.55439 0
M  V30 13120 H 1229.55 -4.79979 0.696053 0
M  V30 13121 H 1225.43 -4.58164 -0.510599 0
M  V30 13122 H 1228.97 -6.58588 2.30017 0
M  V30 13123 H 1224.87 -6.36302 1.08579 0
M  V30 13124 H 1225.64 -7.75124 2.62915 0
M  V30 13125 N 1228.3 0.053464 -1.57509 0
M  V30 13126 C 1229.53 0.765301 -1.92764 0
M  V30 13127 C 1229.95 1.69385 -0.817943 0
M  V30 13128 O 1229.31 1.7986 0.228075 0
M  V30 13129 C 1229.36 1.51938 -3.27028 0
M  V30 13130 O 1228.46 2.63121 -3.17555 0
M  V30 13131 H 1227.8 0.207567 -0.630723 0
M  V30 13132 H 1230.33 0.0162254 -2.04594 0
M  V30 13133 H 1230.34 1.89466 -3.6134 0
M  V30 13134 H 1229.02 0.838207 -4.07366 0
M  V30 13135 H 1227.59 2.28316 -2.94832 0
M  V30 13136 N 1229.78 1.54207 0.325255 0
M  V30 13137 C 1231.03 1.72587 1.06497 0
M  V30 13138 C 1231.36 0.497228 1.87727 0
M  V30 13139 O 1230.63 -0.505804 1.87808 0
M  V30 13140 C 1230.92 3.00046 1.99109 0
M  V30 13141 C 1230.77 4.33158 1.21221 0
M  V30 13142 C 1232.09 3.23251 2.98658 0
M  V30 13143 H 1229.21 0.627974 0.38577 0
M  V30 13144 H 1231.85 1.869 0.34179 0
M  V30 13145 H 1230 2.87973 2.60775 0
M  V30 13146 H 1231.67 4.57111 0.620289 0
M  V30 13147 H 1229.91 4.30739 0.514462 0
M  V30 13148 H 1230.59 5.18558 1.89214 0
M  V30 13149 H 1233.06 3.34774 2.47114 0
M  V30 13150 H 1231.94 4.13796 3.60645 0
M  V30 13151 H 1232.2 2.40401 3.71026 0
M  V30 13152 N 1231.26 -0.58723 1.46251 0
M  V30 13153 C 1232.5 -1.3476 1.51551 0
M  V30 13154 C 1232.84 -1.93499 0.16483 0
M  V30 13155 O 1232.11 -1.7622 -0.823207 0
M  V30 13156 C 1232.39 -2.48033 2.61059 0
M  V30 13157 C 1232.25 -1.94358 4.05642 0
M  V30 13158 C 1233.57 -3.50096 2.66685 0
M  V30 13159 H 1230.69 -0.48863 0.551733 0
M  V30 13160 H 1233.33 -0.660097 1.78165 0
M  V30 13161 H 1231.48 -3.06679 2.38496 0
M  V30 13162 H 1233.15 -1.40204 4.39478 0
M  V30 13163 H 1231.39 -1.25217 4.15335 0
M  V30 13164 H 1232.06 -2.76105 4.77986 0
M  V30 13165 H 1234.54 -3.01324 2.86955 0
M  V30 13166 H 1233.42 -4.26817 3.45135 0
M  V30 13167 H 1233.68 -4.07032 1.7256 0
M  V30 13168 N 1232.74 -1.33881 -0.831482 0
M  V30 13169 C 1234.15 -1.13376 -1.1233 0
M  V30 13170 C 1234.35 0.0704402 -2.01377 0
M  V30 13171 O 1233.41 0.748516 -2.4115 0
M  V30 13172 C 1234.72 -2.42484 -1.77826 0
M  V30 13173 C 1236.27 -2.4846 -1.90359 0
M  V30 13174 C 1236.74 -3.77548 -2.59272 0
M  V30 13175 N 1238.23 -3.7866 -2.66778 0
M  V30 13176 C 1238.97 -4.75258 -3.20807 0
M  V30 13177 N 1238.47 -5.82234 -3.75466 0
M  V30 13178 N 1240.26 -4.62724 -3.19128 0
M  V30 13179 H 1232.41 -2.11051 -0.238998 0
M  V30 13180 H 1234.67 -0.932893 -0.168565 0
M  V30 13181 H 1234.38 -3.30647 -1.19857 0
M  V30 13182 H 1234.25 -2.55186 -2.77777 0
M  V30 13183 H 1236.64 -1.60742 -2.47479 0
M  V30 13184 H 1236.72 -2.39693 -0.893359 0
M  V30 13185 H 1236.36 -4.65651 -2.02808 0
M  V30 13186 H 1236.29 -3.83594 -3.60781 0
M  V30 13187 H 1238.79 -3.01351 -2.28026 0
M  V30 13188 H 1239.1 -6.51968 -4.14918 0
M  V30 13189 H 1237.44 -5.85959 -3.73733 0
M  V30 13190 H 1240.63 -3.78303 -2.75688 0
M  V30 13191 H 1240.81 -5.38175 -3.60932 0
M  V30 13192 N 1234.21 1.05064 -1.1747 0
M  V30 13193 C 1235.46 1.77737 -0.961979 0
M  V30 13194 C 1235.78 1.88198 0.510551 0
M  V30 13195 O 1235.05 1.39968 1.37062 0
M  V30 13196 H 1233.63 0.658366 -0.352935 0
M  V30 13197 H 1236.29 1.26851 -1.47969 0
M  V30 13198 H 1235.39 2.79368 -1.39141 0
M  V30 13199 N 1235.69 0.975146 1.23809 0
M  V30 13200 C 1236.6 0.51917 2.28783 0
M  V30 13201 C 1237.62 -0.423487 1.68768 0
M  V30 13202 O 1238.79 -0.294699 1.99232 0
M  V30 13203 C 1235.86 -0.176229 3.46252 0
M  V30 13204 C 1234.92 0.807177 4.21643 0
M  V30 13205 C 1234.15 0.144869 5.33503 0
M  V30 13206 O 1234.38 -1.06522 5.60365 0
M  V30 13207 O 1233.31 0.84079 5.95999 0
M  V30 13208 H 1237.14 1.39204 2.69919 0
M  V30 13209 H 1234.72 0.74253 1.29641 0
M  V30 13210 H 1236.6 -0.566547 4.17574 0
M  V30 13211 H 1235.28 -1.02394 3.07078 0
M  V30 13212 H 1234.18 1.2481 3.52666 0
M  V30 13213 H 1235.52 1.62354 4.64653 0
M  V30 13214 N 1237.17 -1.38817 0.746158 0
M  V30 13215 C 1238.1 -2.29081 0.0737986 0
M  V30 13216 C 1239.11 -1.47377 -0.691656 0
M  V30 13217 O 1240.3 -1.70326 -0.533973 0
M  V30 13218 C 1237.4 -3.26185 -0.919607 0
M  V30 13219 C 1236.58 -4.36879 -0.213349 0
M  V30 13220 C 1235.64 -5.1422 -1.11644 0
M  V30 13221 O 1234.66 -5.66137 -0.589747 0
M  V30 13222 N 1235.86 -5.26488 -2.44521 0
M  V30 13223 H 1238.63 -2.87424 0.848966 0
M  V30 13224 H 1236.19 -1.50518 0.596314 0
M  V30 13225 H 1238.18 -3.74802 -1.52662 0
M  V30 13226 H 1236.75 -2.68793 -1.5959 0
M  V30 13227 H 1235.97 -3.89994 0.574285 0
M  V30 13228 H 1237.26 -5.08053 0.275655 0
M  V30 13229 H 1236.66 -4.85846 -2.89777 0
M  V30 13230 H 1235.21 -5.78505 -3.00291 0
M  V30 13231 N 1238.65 -0.49465 -1.49636 0
M  V30 13232 C 1239.9 0.0539277 -2.01628 0
M  V30 13233 C 1240.21 1.38634 -1.37986 0
M  V30 13234 O 1241.42 2.02123 -1.81269 0
M  V30 13235 C 1239.87 0.146582 -3.59601 0
M  V30 13236 C 1239.48 -1.1788 -4.32213 0
M  V30 13237 C 1241.22 0.645862 -4.19558 0
M  V30 13238 C 1239.13 -1.04866 -5.82028 0
M  V30 13239 H 1238.06 0.0239278 -0.75362 0
M  V30 13240 H 1240.71 -0.633112 -1.72232 0
M  V30 13241 H 1239.09 0.897931 -3.85685 0
M  V30 13242 H 1240.27 -1.94295 -4.17835 0
M  V30 13243 H 1238.58 -1.61102 -3.83973 0
M  V30 13244 H 1241.18 0.76064 -5.29262 0
M  V30 13245 H 1241.52 1.64313 -3.82501 0
M  V30 13246 H 1242.06 -0.04877 -3.9777 0
M  V30 13247 H 1238.79 -2.02 -6.23599 0
M  V30 13248 H 1238.31 -0.325293 -5.98917 0
M  V30 13249 H 1239.99 -0.724799 -6.42927 0
M  V30 13250 N 1240.13 1.55939 -0.228214 0
M  V30 13251 C 1241.06 2.17874 0.711589 0
M  V30 13252 C 1242.07 1.14969 1.15265 0
M  V30 13253 O 1243.26 1.41919 1.08265 0
M  V30 13254 C 1240.36 2.75294 1.97652 0
M  V30 13255 C 1239.53 4.03435 1.68994 0
M  V30 13256 C 1238.59 4.45354 2.8026 0
M  V30 13257 O 1237.62 5.12117 2.48445 0
M  V30 13258 N 1238.82 4.11588 4.0936 0
M  V30 13259 H 1241.58 2.99148 0.181757 0
M  V30 13260 H 1239.15 1.6183 -0.0474567 0
M  V30 13261 H 1241.14 3.00305 2.71292 0
M  V30 13262 H 1239.71 1.98285 2.41665 0
M  V30 13263 H 1238.93 3.8621 0.789657 0
M  V30 13264 H 1240.22 4.87015 1.47287 0
M  V30 13265 H 1239.61 3.57953 4.38048 0
M  V30 13266 H 1238.17 4.41477 4.79522 0
M  V30 13267 N 1241.6 -0.0451101 1.57535 0
M  V30 13268 C 1242.53 -1.05046 2.08537 0
M  V30 13269 C 1243.52 -1.3872 0.984418 0
M  V30 13270 O 1244.7 -1.47884 1.25873 0
M  V30 13271 C 1241.83 -2.3562 2.55148 0
M  V30 13272 C 1240.78 -2.16231 3.69362 0
M  V30 13273 C 1240.11 -3.52423 4.02122 0
M  V30 13274 C 1241.41 -1.56159 4.98409 0
M  V30 13275 H 1243.1 -0.625965 2.92783 0
M  V30 13276 H 1240.65 -0.299657 1.40848 0
M  V30 13277 H 1242.6 -3.06266 2.89446 0
M  V30 13278 H 1241.33 -2.80099 1.67964 0
M  V30 13279 H 1239.99 -1.4802 3.35389 0
M  V30 13280 H 1239.63 -3.94522 3.12028 0
M  V30 13281 H 1239.33 -3.4028 4.79044 0
M  V30 13282 H 1240.86 -4.24458 4.38939 0
M  V30 13283 H 1242.27 -2.16703 5.30766 0
M  V30 13284 H 1240.67 -1.54638 5.79834 0
M  V30 13285 H 1241.74 -0.525698 4.82042 0
M  V30 13286 N 1243.08 -1.54377 -0.317073 0
M  V30 13287 C 1244.03 -1.84214 -1.39046 0
M  V30 13288 C 1245 -0.689742 -1.51102 0
M  V30 13289 O 1246.18 -0.936809 -1.66218 0
M  V30 13290 C 1243.32 -2.08087 -2.75307 0
M  V30 13291 C 1242.44 -3.35756 -2.7183 0
M  V30 13292 C 1241.57 -3.49556 -3.9998 0
M  V30 13293 C 1240.61 -4.71076 -3.90837 0
M  V30 13294 N 1239.75 -4.81767 -5.10729 0
M  V30 13295 H 1244.59 -2.75785 -1.12902 0
M  V30 13296 H 1242.13 -1.36575 -0.546404 0
M  V30 13297 H 1244.08 -2.19921 -3.54529 0
M  V30 13298 H 1242.71 -1.19801 -2.99746 0
M  V30 13299 H 1241.77 -3.32627 -1.84563 0
M  V30 13300 H 1243.08 -4.2509 -2.60959 0
M  V30 13301 H 1242.23 -3.60967 -4.87635 0
M  V30 13302 H 1240.97 -2.58326 -4.13665 0
M  V30 13303 H 1239.98 -4.59715 -3.01566 0
M  V30 13304 H 1241.2 -5.63698 -3.78711 0
M  V30 13305 H 1239.15 -3.93455 -5.24908 0
M  V30 13306 H 1239.06 -5.65077 -5.02219 0
M  V30 13307 H 1240.33 -4.97517 -6.00081 0
M  V30 13308 N 1244.56 0.579466 -1.4656 0
M  V30 13309 C 1245.81 1.33492 -1.51738 0
M  V30 13310 C 1246.13 1.94241 -0.171926 0
M  V30 13311 O 1245.4 1.78737 0.801875 0
M  V30 13312 H 1243.98 0.49565 -0.558874 0
M  V30 13313 H 1246.64 0.678394 -1.82712 0
M  V30 13314 H 1245.74 2.13995 -2.27183 0
M  V30 13315 N 1246.04 1.3432 0.824371 0
M  V30 13316 C 1247.27 1.29669 1.61226 0
M  V30 13317 C 1247.68 -0.129532 1.88355 0
M  V30 13318 O 1247.04 -1.07616 1.47394 0
M  V30 13319 C 1247.09 2.08375 2.95402 0
M  V30 13320 O 1246.81 3.45434 2.69456 0
M  V30 13321 C 1248.31 2.11103 3.89808 0
M  V30 13322 H 1245.53 0.446137 0.501201 0
M  V30 13323 H 1248.08 1.76912 1.02579 0
M  V30 13324 H 1246.23 1.64777 3.5061 0
M  V30 13325 H 1246.64 3.86101 3.55001 0
M  V30 13326 H 1248.12 2.706 4.81124 0
M  V30 13327 H 1248.6 1.10505 4.25071 0
M  V30 13328 H 1249.2 2.54784 3.40537 0
M  V30 13329 N 1247.52 -1.0444 1.18026 0
M  V30 13330 C 1248.76 -1.77838 0.974756 0
M  V30 13331 C 1249.1 -1.87792 -0.494755 0
M  V30 13332 O 1248.37 -1.38327 -1.36733 0
M  V30 13333 C 1248.65 -3.21315 1.62569 0
M  V30 13334 C 1248.51 -3.19327 3.16781 0
M  V30 13335 C 1249.83 -4.19337 1.33583 0
M  V30 13336 H 1246.94 -0.645575 0.35553 0
M  V30 13337 H 1249.59 -1.22023 1.45638 0
M  V30 13338 H 1247.74 -3.68974 1.21617 0
M  V30 13339 H 1249.41 -2.79687 3.66842 0
M  V30 13340 H 1247.65 -2.57461 3.49137 0
M  V30 13341 H 1248.32 -4.20626 3.5746 0
M  V30 13342 H 1250.8 -3.80208 1.69059 0
M  V30 13343 H 1249.67 -5.17953 1.81702 0
M  V30 13344 H 1249.94 -4.41346 0.258016 0
M  V30 13345 N 1248.99 -0.981699 -1.2329 0
M  V30 13346 C 1250.22 -0.668399 -1.95489 0
M  V30 13347 C 1250.63 0.768976 -1.72868 0
M  V30 13348 O 1249.98 1.52925 -1.01783 0
M  V30 13349 C 1250.04 -0.880535 -3.4855 0
M  V30 13350 C 1249.7 -2.30023 -3.9489 0
M  V30 13351 C 1250.7 -3.27899 -4.03458 0
M  V30 13352 C 1248.38 -2.63167 -4.27842 0
M  V30 13353 C 1250.38 -4.56999 -4.44332 0
M  V30 13354 C 1248.06 -3.92489 -4.68397 0
M  V30 13355 C 1249.06 -4.89216 -4.76609 0
M  V30 13356 O 1248.75 -6.16229 -5.16253 0
M  V30 13357 H 1248.48 -0.247255 -0.629159 0
M  V30 13358 H 1251.04 -1.31606 -1.57699 0
M  V30 13359 H 1249.27 -0.175698 -3.86301 0
M  V30 13360 H 1250.96 -0.564198 -4.0196 0
M  V30 13361 H 1251.72 -3.03624 -3.78203 0
M  V30 13362 H 1247.6 -1.88588 -4.20661 0
M  V30 13363 H 1251.14 -5.32498 -4.50656 0
M  V30 13364 H 1247.04 -4.16558 -4.93102 0
M  V30 13365 H 1247.81 -6.20001 -5.34361 0
M  V30 13366 N 1250.47 1.3842 -0.753509 0
M  V30 13367 C 1251.42 2.32315 -0.115107 0
M  V30 13368 C 1252.41 1.54015 0.705398 0
M  V30 13369 O 1253.62 1.69546 0.604505 0
M  V30 13370 H 1250 0.751774 -0.0184276 0
M  V30 13371 H 1251.97 2.83763 -0.923094 0
M  V30 13372 C 1250.72 3.39206 0.763849 0
M  V30 13373 H 1250.04 3.99548 0.14187 0
M  V30 13374 H 1251.48 4.07312 1.17783 0
M  V30 13375 C 1249.94 2.77771 1.90643 0
M  V30 13376 O 1250.47 2.67073 3.00058 0
M  V30 13377 N 1248.67 2.35582 1.70145 0
M  V30 13378 H 1248.22 2.44483 0.811528 0
M  V30 13379 H 1248.18 1.9482 2.46764 0
M  V30 13380 N 1251.95 0.502579 1.49372 0
M  V30 13381 C 1253.18 -0.0380876 2.06565 0
M  V30 13382 C 1253.59 -1.31224 1.36297 0
M  V30 13383 O 1252.93 -1.78463 0.435517 0
M  V30 13384 C 1252.99 -0.360462 3.57688 0
M  V30 13385 C 1252.66 0.816203 4.49652 0
M  V30 13386 C 1253.65 1.70713 4.91073 0
M  V30 13387 C 1251.34 1.01545 4.91929 0
M  V30 13388 C 1253.33 2.78144 5.73511 0
M  V30 13389 C 1251.02 2.09294 5.74142 0
M  V30 13390 C 1252.02 2.97428 6.14838 0
M  V30 13391 O 1251.71 4.03317 6.95407 0
M  V30 13392 H 1251.44 0.0179548 0.675762 0
M  V30 13393 H 1253.99 0.699609 1.93118 0
M  V30 13394 H 1252.22 -1.15177 3.69149 0
M  V30 13395 H 1253.91 -0.839931 3.97115 0
M  V30 13396 H 1254.68 1.56502 4.59056 0
M  V30 13397 H 1250.56 0.338822 4.59753 0
M  V30 13398 H 1254.1 3.46965 6.05195 0
M  V30 13399 H 1250 2.235 6.05572 0
M  V30 13400 H 1250.77 4.00689 7.13716 0
M  V30 13401 N 1253.43 -1.55816 0.23648 0
M  V30 13402 C 1254.84 -1.59159 -0.118601 0
M  V30 13403 C 1255.04 -1.25352 -1.57763 0
M  V30 13404 O 1254.1 -0.995863 -2.32032 0
M  V30 13405 C 1255.41 -2.99885 0.221175 0
M  V30 13406 C 1256.96 -3.12567 0.164624 0
M  V30 13407 C 1257.44 -4.55496 0.478285 0
M  V30 13408 N 1258.93 -4.61215 0.428402 0
M  V30 13409 C 1259.66 -5.69768 0.644398 0
M  V30 13410 N 1259.16 -6.86624 0.922966 0
M  V30 13411 N 1260.95 -5.59143 0.575814 0
M  V30 13412 H 1253.1 -1.76063 1.18809 0
M  V30 13413 H 1255.37 -0.819079 0.477297 0
M  V30 13414 H 1255.07 -3.29326 1.2344 0
M  V30 13415 H 1254.95 -3.74425 -0.456723 0
M  V30 13416 H 1257.33 -2.82914 -0.839263 0
M  V30 13417 H 1257.41 -2.40325 0.876219 0
M  V30 13418 H 1257.06 -4.85868 1.47968 0
M  V30 13419 H 1256.99 -5.25984 -0.254671 0
M  V30 13420 H 1259.48 -3.77251 0.221398 0
M  V30 13421 H 1259.79 -7.6528 1.07548 0
M  V30 13422 H 1258.14 -6.88333 0.960325 0
M  V30 13423 H 1261.33 -4.66727 0.358307 0
M  V30 13424 H 1261.5 -6.43674 0.747548 0
M  V30 13425 N 1254.91 0.036755 -1.57557 0
M  V30 13426 C 1256.13 0.741086 -1.93172 0
M  V30 13427 C 1256.55 1.69303 -0.835589 0
M  V30 13428 O 1255.91 1.81523 0.1886 0
M  V30 13429 C 1255.96 1.50477 -3.28693 0
M  V30 13430 O 1255.68 0.591046 -4.34095 0
M  V30 13431 C 1257.18 2.30695 -3.78543 0
M  V30 13432 H 1254.4 0.208731 -0.637709 0
M  V30 13433 H 1256.94 -0.00342776 -2.045 0
M  V30 13434 H 1255.1 2.20123 -3.18786 0
M  V30 13435 H 1255.51 1.12579 -5.12276 0
M  V30 13436 H 1256.99 2.79685 -4.759 0
M  V30 13437 H 1257.46 3.11778 -3.0934 0
M  V30 13438 H 1258.07 1.66138 -3.91508 0
M  V30 13439 N 1256.39 1.54543 0.308881 0
M  V30 13440 C 1257.61 1.77753 1.06857 0
M  V30 13441 C 1258.04 0.531616 1.80431 0
M  V30 13442 O 1257.39 -0.517513 1.73757 0
M  V30 13443 C 1257.44 2.97968 2.03094 0
M  V30 13444 O 1256.55 2.70541 3.11257 0
M  V30 13445 H 1255.89 0.588576 0.307368 0
M  V30 13446 H 1258.42 2.01607 0.348703 0
M  V30 13447 H 1258.43 3.25722 2.45702 0
M  V30 13448 H 1257.1 3.88314 1.48948 0
M  V30 13449 H 1255.68 2.53781 2.7322 0
M  V30 13450 N 1257.86 -0.571685 1.46866 0
M  V30 13451 C 1259.11 -1.32685 1.52444 0
M  V30 13452 C 1259.43 -1.94147 0.182225 0
M  V30 13453 O 1258.7 -1.79159 -0.792385 0
M  V30 13454 H 1257.28 -0.492679 0.561495 0
M  V30 13455 H 1259.94 -0.668694 1.8307 0
M  V30 13456 H 1259.04 -2.12788 2.28315 0
M  V30 13457 N 1259.34 -1.34755 -0.817236 0
M  V30 13458 C 1260.27 -1.21147 -1.93387 0
M  V30 13459 C 1261.25 -0.101788 -1.62281 0
M  V30 13460 O 1262.44 -0.267968 -1.86586 0
M  V30 13461 C 1259.56 -0.86301 -3.27521 0
M  V30 13462 C 1258.61 -1.98325 -3.77584 0
M  V30 13463 S 1259.44 -3.59751 -3.9666 0
M  V30 13464 C 1260.6 -3.26959 -5.33712 0
M  V30 13465 H 1260.83 -2.15667 -2.04634 0
M  V30 13466 H 1258.36 -1.19848 -0.973441 0
M  V30 13467 H 1260.32 -0.668754 -4.05016 0
M  V30 13468 H 1258.98 0.0639417 -3.14035 0
M  V30 13469 H 1258.18 -1.69332 -4.74703 0
M  V30 13470 H 1257.78 -2.13529 -3.07053 0
M  V30 13471 H 1260.07 -2.79126 -6.17329 0
M  V30 13472 H 1261.01 -4.23238 -5.67693 0
M  V30 13473 H 1261.42 -2.62996 -4.99493 0
M  V30 13474 N 1260.82 1.03812 -1.18578 0
M  V30 13475 C 1261.75 2.11928 -0.872871 0
M  V30 13476 C 1262.76 1.62275 0.130592 0
M  V30 13477 O 1263.95 1.78233 -0.0975869 0
M  V30 13478 C 1261.05 3.37714 -0.283321 0
M  V30 13479 C 1260.23 4.16591 -1.33307 0
M  V30 13480 C 1259.29 5.20701 -0.758746 0
M  V30 13481 O 1258.31 5.50837 -1.43412 0
M  V30 13482 N 1259.51 5.78811 0.442505 0
M  V30 13483 H 1262.28 2.39364 -1.80346 0
M  V30 13484 H 1259.84 1.20027 -1.08652 0
M  V30 13485 H 1261.83 4.04538 0.114524 0
M  V30 13486 H 1260.4 3.07699 0.551347 0
M  V30 13487 H 1259.62 3.45051 -1.90613 0
M  V30 13488 H 1260.91 4.66082 -2.04071 0
M  V30 13489 H 1260.31 5.56631 1.00889 0
M  V30 13490 H 1258.86 6.47089 0.78224 0
M  V30 13491 N 1262.3 0.988223 1.22768 0
M  V30 13492 C 1263.54 0.661461 1.91392 0
M  V30 13493 C 1263.87 -0.805942 1.77016 0
M  V30 13494 O 1263.13 -1.5978 1.12999 0
M  V30 13495 C 1263.43 1.00744 3.42907 0
M  V30 13496 C 1263.09 2.46634 3.77469 0
M  V30 13497 C 1261.75 2.86503 3.86613 0
M  V30 13498 C 1264.11 3.41217 3.9398 0
M  V30 13499 C 1261.43 4.19954 4.09702 0
M  V30 13500 C 1263.79 4.74321 4.18572 0
M  V30 13501 C 1262.45 5.13938 4.25939 0
M  V30 13502 H 1261.72 0.242046 0.700353 0
M  V30 13503 H 1264.37 1.24354 1.45631 0
M  V30 13504 H 1262.67 0.34338 3.90292 0
M  V30 13505 H 1264.37 0.732714 3.94249 0
M  V30 13506 H 1260.96 2.14729 3.70931 0
M  V30 13507 H 1265.14 3.11589 3.86298 0
M  V30 13508 H 1260.4 4.50243 4.13631 0
M  V30 13509 H 1264.57 5.47561 4.30291 0
M  V30 13510 H 1262.2 6.17364 4.43583 0
M  V30 13511 N 1263.78 -1.38018 0.760839 0
M  V30 13512 C 1265.02 -2.01795 0.325264 0
M  V30 13513 C 1265.38 -1.59092 -1.07489 0
M  V30 13514 O 1266.58 -2.15251 -1.60998 0
M  V30 13515 C 1264.85 -3.5453 0.452007 0
M  V30 13516 S 1266.41 -4.38686 0.100084 0
M  V30 13517 H 1263.23 -0.69979 0.125758 0
M  V30 13518 H 1265.83 -1.684 0.993054 0
M  V30 13519 H 1264.53 -3.83099 1.47186 0
M  V30 13520 H 1264.07 -3.92711 -0.232716 0
M  V30 13521 H 1266.08 -4.83672 -1.10797 0
M  V30 13522 N 1265.25 -0.510493 -1.49103 0
M  V30 13523 C 1266.5 0.030689 -2.02777 0
M  V30 13524 C 1266.83 1.35765 -1.38858 0
M  V30 13525 O 1266.11 1.87209 -0.527528 0
M  V30 13526 C 1266.39 0.173261 -3.59683 0
M  V30 13527 C 1266.24 -1.17749 -4.34114 0
M  V30 13528 C 1267.56 0.909395 -4.30602 0
M  V30 13529 H 1264.68 0.0096789 -0.736936 0
M  V30 13530 H 1267.32 -0.663746 -1.78029 0
M  V30 13531 H 1265.47 0.764721 -3.80899 0
M  V30 13532 H 1267.15 -1.80856 -4.24369 0
M  V30 13533 H 1265.39 -1.76438 -3.96298 0
M  V30 13534 H 1266.06 -1.03094 -5.42287 0
M  V30 13535 H 1268.54 0.407677 -4.14098 0
M  V30 13536 H 1267.41 0.978012 -5.40117 0
M  V30 13537 H 1267.67 1.9553 -3.96511 0
M  V30 13538 N 1266.73 1.55688 -0.24474 0
M  V30 13539 C 1267.68 2.21289 0.655723 0
M  V30 13540 C 1268.65 1.17606 1.17295 0
M  V30 13541 O 1269.83 1.46045 1.22782 0
M  V30 13542 C 1266.97 2.91453 1.84794 0
M  V30 13543 C 1266.09 4.09787 1.36744 0
M  V30 13544 C 1265.22 4.67672 2.51905 0
M  V30 13545 C 1264.26 5.78259 2.00706 0
M  V30 13546 N 1263.4 6.30336 3.09225 0
M  V30 13547 H 1268.24 2.97865 0.0896156 0
M  V30 13548 H 1265.77 1.47064 0.0324725 0
M  V30 13549 H 1267.73 3.30331 2.54828 0
M  V30 13550 H 1266.36 2.17355 2.38656 0
M  V30 13551 H 1265.41 3.76237 0.561228 0
M  V30 13552 H 1266.73 4.89627 0.952199 0
M  V30 13553 H 1265.88 5.09113 3.29984 0
M  V30 13554 H 1264.62 3.87044 2.9673 0
M  V30 13555 H 1263.62 5.36298 1.21097 0
M  V30 13556 H 1264.85 6.60737 1.56853 0
M  V30 13557 H 1262.8 5.52614 3.53489 0
M  V30 13558 H 1262.71 7.05364 2.72025 0
M  V30 13559 H 1263.98 6.76435 3.8737 0
M  V30 13560 N 1268.21 -0.0283989 1.57574 0
M  V30 13561 C 1269.14 -1.06191 2.01987 0
M  V30 13562 C 1270.12 -1.35131 0.90434 0
M  V30 13563 O 1271.3 -1.47777 1.17023 0
M  V30 13564 C 1268.43 -2.39646 2.39348 0
M  V30 13565 C 1267.48 -2.26558 3.6135 0
M  V30 13566 S 1268.31 -1.61839 5.10459 0
M  V30 13567 C 1269.47 -2.96783 5.51063 0
M  V30 13568 H 1269.7 -0.683625 2.89333 0
M  V30 13569 H 1267.23 -0.238394 1.52548 0
M  V30 13570 H 1269.19 -3.16394 2.61544 0
M  V30 13571 H 1267.85 -2.74622 1.52452 0
M  V30 13572 H 1267.04 -3.25079 3.85149 0
M  V30 13573 H 1266.65 -1.57954 3.39008 0
M  V30 13574 H 1268.94 -3.93111 5.51788 0
M  V30 13575 H 1269.88 -2.77716 6.51367 0
M  V30 13576 H 1270.29 -2.99386 4.78569 0
M  V30 13577 N 1269.69 -1.54705 -0.300681 0
M  V30 13578 C 1270.91 -1.78318 -1.05913 0
M  V30 13579 C 1271.34 -0.541177 -1.80147 0
M  V30 13580 O 1270.7 0.508291 -1.74029 0
M  V30 13581 C 1270.74 -2.99041 -2.01511 0
M  V30 13582 O 1269.85 -2.72188 -3.09818 0
M  V30 13583 H 1269.19 -0.590197 -0.304242 0
M  V30 13584 H 1271.72 -2.01789 -0.338006 0
M  V30 13585 H 1271.73 -3.2702 -2.43971 0
M  V30 13586 H 1270.4 -3.89098 -1.46886 0
M  V30 13587 H 1268.98 -2.55227 -2.71871 0
M  V30 13588 N 1271.17 0.563888 -1.47167 0
M  V30 13589 C 1272.13 1.65359 -1.58711 0
M  V30 13590 C 1273.13 1.53999 -0.46272 0
M  V30 13591 O 1274.32 1.58277 -0.727595 0
M  V30 13592 C 1271.45 3.04874 -1.52529 0
M  V30 13593 H 1272.64 1.56475 -2.55843 0
M  V30 13594 H 1270.2 0.783271 -1.35257 0
M  V30 13595 H 1270.93 3.19297 -0.56747 0
M  V30 13596 H 1270.72 3.14528 -2.34125 0
M  V30 13597 H 1272.21 3.84164 -1.63731 0
M  V30 13598 N 1272.64 1.35187 0.810078 0
M  V30 13599 C 1273.89 1.28454 1.56931 0
M  V30 13600 C 1274.22 -0.141747 1.93682 0
M  V30 13601 O 1273.5 -1.09028 1.61069 0
M  V30 13602 C 1273.78 2.18771 2.86027 0
M  V30 13603 C 1273.63 3.69999 2.55774 0
M  V30 13604 C 1274.95 2.08265 3.87703 0
M  V30 13605 H 1272.07 0.467959 0.569371 0
M  V30 13606 H 1274.71 1.65556 0.932262 0
M  V30 13607 H 1272.86 1.8726 3.40391 0
M  V30 13608 H 1274.54 4.11936 2.07621 0
M  V30 13609 H 1272.78 3.90453 1.89021 0
M  V30 13610 H 1273.45 4.28577 3.47888 0
M  V30 13611 H 1275.93 2.35958 3.42729 0
M  V30 13612 H 1274.8 2.73663 4.75815 0
M  V30 13613 H 1275.06 1.06352 4.29117 0
M  V30 13614 N 1274.12 -1.03182 1.19127 0
M  V30 13615 C 1275.03 -2.14875 0.94159 0
M  V30 13616 C 1276.05 -1.73727 -0.0973872 0
M  V30 13617 O 1277.22 -2.01214 0.0865775 0
M  V30 13618 C 1274.29 -3.43356 0.480366 0
M  V30 13619 C 1273.35 -3.98835 1.58838 0
M  V30 13620 C 1272.58 -5.21183 1.14907 0
M  V30 13621 O 1272.81 -5.70399 0.0114141 0
M  V30 13622 O 1271.74 -5.69423 1.95042 0
M  V30 13623 H 1275.57 -2.38799 1.8764 0
M  V30 13624 H 1273.15 -1.13299 0.973841 0
M  V30 13625 H 1275.03 -4.20763 0.231658 0
M  V30 13626 H 1273.71 -3.20884 -0.426041 0
M  V30 13627 H 1272.62 -3.22776 1.8912 0
M  V30 13628 H 1273.95 -4.25665 2.47123 0
M  V30 13629 N 1275.6 -0.99472 -1.22242 0
M  V30 13630 C 1276.85 -0.670275 -1.90661 0
M  V30 13631 C 1277.17 0.800369 -1.77818 0
M  V30 13632 O 1276.44 1.57381 -1.16653 0
M  V30 13633 H 1275.02 -0.244925 -0.705706 0
M  V30 13634 H 1277.68 -1.26162 -1.48557 0
M  V30 13635 H 1276.78 -0.934408 -2.97784 0
M  V30 13636 N 1277.08 1.37613 -0.768148 0
M  V30 13637 C 1278.33 1.99023 -0.327543 0
M  V30 13638 C 1278.64 1.61669 1.10103 0
M  V30 13639 O 1279.85 2.16155 1.64284 0
M  V30 13640 C 1278.3 3.55906 -0.534674 0
M  V30 13641 C 1277.91 4.02201 -1.97327 0
M  V30 13642 C 1279.65 4.24208 -0.157512 0
M  V30 13643 C 1277.56 5.51781 -2.12819 0
M  V30 13644 H 1276.49 0.744595 -0.118722 0
M  V30 13645 H 1279.14 1.5719 -0.946764 0
M  V30 13646 H 1277.52 3.95701 0.153951 0
M  V30 13647 H 1278.7 3.73661 -2.69655 0
M  V30 13648 H 1277.01 3.46671 -2.30669 0
M  V30 13649 H 1279.61 5.34107 -0.251824 0
M  V30 13650 H 1279.95 4.06636 0.89177 0
M  V30 13651 H 1280.49 3.89703 -0.798546 0
M  V30 13652 H 1277.23 5.74274 -3.16053 0
M  V30 13653 H 1276.75 5.82017 -1.4497 0
M  V30 13654 H 1278.42 6.17697 -1.92508 0
M  V30 13655 N 1278.56 0.518393 1.4883 0
M  V30 13656 C 1279.8 -0.0180482 2.04392 0
M  V30 13657 C 1280.16 -1.32666 1.38794 0
M  V30 13658 O 1281.36 -1.94842 1.85176 0
M  V30 13659 C 1279.63 -0.149457 3.57087 0
M  V30 13660 S 1281.19 -0.637636 4.34142 0
M  V30 13661 H 1278.01 0.00651981 0.71097 0
M  V30 13662 H 1280.61 0.69632 1.82679 0
M  V30 13663 H 1279.32 0.807977 4.02368 0
M  V30 13664 H 1278.85 -0.888549 3.83234 0
M  V30 13665 H 1280.86 -1.90406 4.58214 0
M  V30 13666 N 1280.03 -1.55556 0.252993 0
M  V30 13667 C 1281.26 -2.03491 -0.374022 0
M  V30 13668 C 1281.68 -1.13208 -1.51094 0
M  V30 13669 O 1281.03 -0.147705 -1.81901 0
M  V30 13670 C 1281.09 -3.50724 -0.876047 0
M  V30 13671 O 1280.81 -4.37569 0.215574 0
M  V30 13672 C 1282.31 -4.14448 -1.57313 0
M  V30 13673 H 1279.53 -0.665183 -0.0881644 0
M  V30 13674 H 1282.07 -2.00964 0.378636 0
M  V30 13675 H 1280.23 -3.53766 -1.57886 0
M  V30 13676 H 1280.64 -5.24235 -0.166625 0
M  V30 13677 H 1282.11 -5.19142 -1.87606 0
M  V30 13678 H 1282.59 -3.61299 -2.49719 0
M  V30 13679 H 1283.2 -4.15346 -0.914735 0
M  V30 13680 N 1281.51 0.0200419 -1.57587 0
M  V30 13681 C 1282.74 0.724241 -1.94344 0
M  V30 13682 C 1283.16 1.67612 -0.853688 0
M  V30 13683 O 1282.52 1.80303 0.189873 0
M  V30 13684 C 1282.57 1.44967 -3.30177 0
M  V30 13685 O 1281.67 2.56326 -3.23064 0
M  V30 13686 H 1281.01 0.194142 -0.634984 0
M  V30 13687 H 1283.54 -0.0271756 -2.04582 0
M  V30 13688 H 1283.55 1.81758 -3.65278 0
M  V30 13689 H 1282.23 0.75161 -4.09052 0
M  V30 13690 H 1280.81 2.22011 -2.99609 0
M  V30 13691 N 1282.99 1.54862 0.292472 0
M  V30 13692 C 1283.9 1.89472 1.38339 0
M  V30 13693 C 1284.92 0.789783 1.55043 0
M  V30 13694 O 1286.09 1.08705 1.69544 0
M  V30 13695 C 1283.16 2.14244 2.72581 0
M  V30 13696 C 1282.22 3.37913 2.64789 0
M  V30 13697 C 1281.45 3.61494 3.92629 0
M  V30 13698 O 1281.67 2.87931 4.92394 0
M  V30 13699 O 1280.61 4.55019 3.94007 0
M  V30 13700 H 1284.43 2.82298 1.11989 0
M  V30 13701 H 1282.02 1.41161 0.489291 0
M  V30 13702 H 1283.9 2.31689 3.51991 0
M  V30 13703 H 1282.58 1.24603 2.98757 0
M  V30 13704 H 1281.48 3.25823 1.83821 0
M  V30 13705 H 1282.82 4.27711 2.43565 0
M  V30 13706 N 1284.47 -0.556076 1.47464 0
M  V30 13707 C 1285.69 -1.3434 1.58011 0
M  V30 13708 C 1286.12 -1.86674 0.231138 0
M  V30 13709 O 1285.48 -1.63029 -0.793174 0
M  V30 13710 C 1285.52 -2.48844 2.60977 0
M  V30 13711 O 1284.63 -3.51108 2.16326 0
M  V30 13712 H 1283.97 -0.398986 0.53076 0
M  V30 13713 H 1286.5 -0.671898 1.93253 0
M  V30 13714 H 1286.51 -2.95398 2.81432 0
M  V30 13715 H 1285.18 -2.10109 3.58925 0
M  V30 13716 H 1283.76 -3.10852 2.05975 0
M  V30 13717 N 1285.95 -1.35615 -0.802897 0
M  V30 13718 C 1287.36 -1.26062 -1.37715 0
M  V30 13719 C 1287.71 0.105411 -1.95917 0
M  V30 13720 O 1286.83 1.00648 -1.91569 0
M  V30 13721 C 1287.43 -2.28261 -2.50365 0
M  V30 13722 C 1285.99 -2.22437 -3.03642 0
M  V30 13723 C 1285.14 -2.1377 -1.76629 0
M  V30 13724 H 1288.09 -1.46689 -0.605631 0
M  V30 13725 H 1288.11 -1.91122 -3.29017 0
M  V30 13726 H 1287.62 -3.27671 -2.07975 0
M  V30 13727 H 1285.72 -1.2645 -3.50487 0
M  V30 13728 H 1285.83 -3.14558 -3.61373 0
M  V30 13729 H 1284.2 -1.59806 -1.98328 0
M  V30 13730 H 1284.98 -3.15046 -1.36385 0
M  V30 13731 N 1287.43 1.02549 -1.19673 0
M  V30 13732 C 1288.67 1.76265 -1.00293 0
M  V30 13733 C 1289 1.88555 0.464816 0
M  V30 13734 O 1288.28 1.40484 1.34515 0
M  V30 13735 C 1288.56 3.18688 -1.6766 0
M  V30 13736 C 1288.42 3.14247 -3.21821 0
M  V30 13737 C 1289.73 4.17159 -1.40238 0
M  V30 13738 H 1286.85 0.639837 -0.365756 0
M  V30 13739 H 1289.5 1.19691 -1.4756 0
M  V30 13740 H 1287.65 3.66992 -1.27472 0
M  V30 13741 H 1289.32 2.73815 -3.71245 0
M  V30 13742 H 1287.56 2.51874 -3.53188 0
M  V30 13743 H 1288.23 4.14886 -3.64107 0
M  V30 13744 H 1290.71 3.77471 -1.75086 0
M  V30 13745 H 1289.58 5.14997 -1.89919 0
M  V30 13746 H 1289.84 4.4088 -0.328197 0
M  V30 13747 N 1288.9 1.00119 1.21713 0
M  V30 13748 C 1290.15 0.67713 1.89994 0
M  V30 13749 C 1290.47 -0.795149 1.78709 0
M  V30 13750 O 1291.67 -1.23113 2.41982 0
M  V30 13751 C 1290.13 1.16065 3.40671 0
M  V30 13752 C 1289.74 2.65874 3.60576 0
M  V30 13753 C 1291.48 0.911302 4.14603 0
M  V30 13754 C 1289.39 3.07785 5.04997 0
M  V30 13755 H 1288.32 0.249572 0.711498 0
M  V30 13756 H 1290.97 1.21185 1.37792 0
M  V30 13757 H 1289.35 0.554005 3.92106 0
M  V30 13758 H 1290.52 3.31954 3.19598 0
M  V30 13759 H 1288.84 2.88781 2.99991 0
M  V30 13760 H 1291.44 1.20004 5.2106 0
M  V30 13761 H 1291.78 -0.152495 4.16021 0
M  V30 13762 H 1292.31 1.48055 3.69222 0
M  V30 13763 H 1289.05 4.13376 5.08724 0
M  V30 13764 H 1288.57 2.46414 5.46846 0
M  V30 13765 H 1290.25 2.99552 5.73479 0
M  V30 13766 N 1290.38 -1.37203 0.775435 0
M  V30 13767 C 1291.66 -1.93783 0.266005 0
M  V30 13768 C 1292.04 -1.70875 -1.23956 0
M  V30 13769 O 1291.39 -1.05965 -2.02444 0
M  V30 13770 C 1291.6 -3.43018 0.643404 0
M  V30 13771 C 1292.94 -4.20119 0.615267 0
M  V30 13772 O 1293.97 -3.51396 0.583018 0
M  V30 13773 O 1292.83 -5.42673 0.645637 0
M  V30 13774 H 1289.92 -0.824649 0.0623107 0
M  V30 13775 H 1292.47 -1.46468 0.857036 0
M  V30 13776 H 1291.24 -3.5329 1.68232 0
M  V30 13777 H 1290.86 -3.97592 0.0255138 0
M  V30 13778 N 1291.86 -0.526279 -1.48553 0
M  V30 13779 C 1292.81 0.258285 -2.26532 0
M  V30 13780 C 1293.79 0.913187 -1.32475 0
M  V30 13781 O 1294.99 0.816606 -1.57037 0
M  V30 13782 C 1292.11 1.30686 -3.17452 0
M  V30 13783 C 1291.2 0.656933 -4.18981 0
M  V30 13784 N 1291.59 -0.255186 -5.05156 0
M  V30 13785 C 1289.89 0.914575 -4.36522 0
M  V30 13786 C 1290.59 -0.629753 -5.78281 0
M  V30 13787 N 1289.57 0.00829904 -5.43599 0
M  V30 13788 H 1293.37 -0.44348 -2.90535 0
M  V30 13789 H 1290.88 -0.344054 -1.58714 0
M  V30 13790 H 1292.88 1.8826 -3.71973 0
M  V30 13791 H 1291.54 2.01004 -2.55005 0
M  V30 13792 H 1292.55 -0.627564 -5.14084 0
M  V30 13793 H 1289.23 1.6086 -3.85266 0
M  V30 13794 H 1290.62 -1.37746 -6.57629 0
M  V30 13795 N 1293.34 1.5542 -0.261239 0
M  V30 13796 C 1294.27 2.19334 0.665214 0
M  V30 13797 C 1295.28 1.17388 1.128 0
M  V30 13798 O 1296.47 1.44183 1.0523 0
M  V30 13799 C 1293.57 2.79425 1.91768 0
M  V30 13800 C 1292.74 4.06929 1.60399 0
M  V30 13801 C 1291.8 4.51199 2.70751 0
M  V30 13802 O 1290.83 5.17272 2.37526 0
M  V30 13803 N 1292.03 4.20179 4.00537 0
M  V30 13804 H 1294.8 2.99467 0.118262 0
M  V30 13805 H 1292.36 1.61693 -0.0817727 0
M  V30 13806 H 1294.35 3.05992 2.64861 0
M  V30 13807 H 1292.92 2.03366 2.37405 0
M  V30 13808 H 1292.14 3.87798 0.707559 0
M  V30 13809 H 1293.43 4.9003 1.36924 0
M  V30 13810 H 1292.83 3.67164 4.30357 0
M  V30 13811 H 1291.38 4.51549 4.7005 0
M  V30 13812 N 1294.82 -0.0116844 1.57596 0
M  V30 13813 C 1296.06 -0.697577 1.89679 0
M  V30 13814 C 1296.38 -1.74956 0.861122 0
M  V30 13815 O 1295.65 -1.95629 -0.103031 0
M  V30 13816 H 1294.23 -0.26064 0.700054 0
M  V30 13817 H 1296.9 0.0264782 1.94882 0
M  V30 13818 H 1295.99 -1.17621 2.89088 0
M  V30 13819 N 1296.29 -1.55015 -0.284256 0
M  V30 13820 C 1297.52 -1.79102 -1.03586 0
M  V30 13821 C 1297.94 -0.558733 -1.80343 0
M  V30 13822 O 1297.29 0.471925 -1.76293 0
M  V30 13823 C 1297.34 -3.00915 -2.0033 0
M  V30 13824 O 1297.07 -4.19384 -1.26685 0
M  V30 13825 C 1298.57 -3.3752 -2.87394 0
M  V30 13826 H 1295.79 -0.596912 -0.306491 0
M  V30 13827 H 1298.33 -2.02005 -0.31845 0
M  V30 13828 H 1296.49 -2.80171 -2.67549 0
M  V30 13829 H 1296.9 -4.88175 -1.91796 0
M  V30 13830 H 1298.37 -4.25953 -3.51095 0
M  V30 13831 H 1298.85 -2.56418 -3.56576 0
M  V30 13832 H 1299.46 -3.60483 -2.25682 0
M  V30 13833 N 1297.77 0.548248 -1.47757 0
M  V30 13834 C 1298.72 1.65453 -1.60916 0
M  V30 13835 C 1299.69 1.59836 -0.451831 0
M  V30 13836 O 1300.87 1.78536 -0.673023 0
M  V30 13837 C 1298.01 3.0376 -1.6378 0
M  V30 13838 C 1297.13 3.19747 -2.90492 0
M  V30 13839 C 1296.26 4.48505 -2.84635 0
M  V30 13840 C 1295.3 4.57956 -4.06132 0
M  V30 13841 N 1294.44 5.78079 -3.98458 0
M  V30 13842 H 1299.28 1.53545 -2.55398 0
M  V30 13843 H 1296.81 0.747826 -1.26673 0
M  V30 13844 H 1298.77 3.8386 -1.63424 0
M  V30 13845 H 1297.4 3.14483 -0.728036 0
M  V30 13846 H 1296.45 2.3302 -3.00676 0
M  V30 13847 H 1297.77 3.22594 -3.8044 0
M  V30 13848 H 1296.92 5.36875 -2.82577 0
M  V30 13849 H 1295.66 4.48151 -1.92385 0
M  V30 13850 H 1294.66 3.67995 -4.08484 0
M  V30 13851 H 1295.89 4.60062 -4.9952 0
M  V30 13852 H 1293.84 5.78657 -3.09017 0
M  V30 13853 H 1293.75 5.82342 -4.82093 0
M  V30 13854 H 1295.02 6.68786 -4.00431 0
M  V30 13855 N 1299.25 1.36039 0.795694 0
M  V30 13856 C 1300.47 1.33222 1.58955 0
M  V30 13857 C 1300.9 -0.0854596 1.87906 0
M  V30 13858 O 1300.26 -1.05555 1.47403 0
M  V30 13859 C 1300.31 2.15508 2.89117 0
M  V30 13860 O 1299.41 1.54327 3.82436 0
M  V30 13861 H 1298.75 0.456264 0.48241 0
M  V30 13862 H 1301.28 1.79234 0.986726 0
M  V30 13863 H 1301.29 2.2786 3.38444 0
M  V30 13864 H 1299.97 3.18568 2.67371 0
M  V30 13865 H 1298.54 1.50879 3.41013 0
M  V30 13866 N 1300.73 -1.01913 1.20215 0
M  V30 13867 C 1301.95 -1.79613 1.03702 0
M  V30 13868 C 1302.38 -1.83591 -0.409374 0
M  V30 13869 O 1301.74 -1.26911 -1.29473 0
M  V30 13870 C 1301.78 -3.22052 1.62219 0
M  V30 13871 O 1300.89 -4.03374 0.858106 0
M  V30 13872 H 1300.23 -0.554095 0.365889 0
M  V30 13873 H 1302.76 -1.28203 1.59452 0
M  V30 13874 H 1302.77 -3.72772 1.65847 0
M  V30 13875 H 1301.44 -3.18471 2.67487 0
M  V30 13876 H 1300.02 -3.6198 0.895835 0
M  V30 13877 N 1302.21 -1.00763 -1.2118 0
M  V30 13878 C 1303.15 -0.570257 -2.23644 0
M  V30 13879 C 1304.12 0.405039 -1.61086 0
M  V30 13880 O 1305.31 0.306496 -1.88322 0
M  V30 13881 C 1302.45 0.094325 -3.44971 0
M  V30 13882 C 1301.56 -0.924463 -4.21993 0
M  V30 13883 C 1300.7 -0.231869 -5.30694 0
M  V30 13884 C 1299.74 -1.23803 -5.99449 0
M  V30 13885 N 1298.87 -0.572725 -6.9976 0
M  V30 13886 H 1303.71 -1.44869 -2.60417 0
M  V30 13887 H 1301.25 -0.725369 -1.27972 0
M  V30 13888 H 1303.21 0.496689 -4.14233 0
M  V30 13889 H 1301.84 0.936457 -3.08918 0
M  V30 13890 H 1300.89 -1.44505 -3.51884 0
M  V30 13891 H 1302.2 -1.69004 -4.69296 0
M  V30 13892 H 1301.36 0.226465 -6.06277 0
M  V30 13893 H 1300.09 0.566092 -4.84403 0
M  V30 13894 H 1299.1 -1.70684 -5.22635 0
M  V30 13895 H 1300.32 -2.03711 -6.47826 0
M  V30 13896 H 1298.27 0.205531 -6.55678 0
M  V30 13897 H 1298.19 -1.27651 -7.45145 0
M  V30 13898 H 1299.46 -0.137683 -7.79378 0
M  V30 13899 N 1303.68 1.3679 -0.7827 0
M  V30 13900 C 1304.92 2.01252 -0.357327 0
M  V30 13901 C 1305.29 1.60782 1.04944 0
M  V30 13902 O 1306.49 2.17785 1.57553 0
M  V30 13903 C 1304.76 3.53766 -0.508352 0
M  V30 13904 S 1306.32 4.38471 -0.169862 0
M  V30 13905 H 1303.14 0.697701 -0.136875 0
M  V30 13906 H 1305.74 1.66799 -1.01972 0
M  V30 13907 H 1304.44 3.80708 -1.53262 0
M  V30 13908 H 1303.97 3.93032 0.170209 0
M  V30 13909 H 1305.99 4.85373 1.03088 0
M  V30 13910 N 1305.16 0.53415 1.48272 0
M  V30 13911 C 1306.41 0.00157492 2.028 0
M  V30 13912 C 1306.74 -1.33538 1.41001 0
M  V30 13913 O 1306.02 -1.86347 0.557245 0
M  V30 13914 C 1306.3 -0.116016 3.59913 0
M  V30 13915 C 1306.15 1.2464 4.32186 0
M  V30 13916 C 1307.47 -0.840775 4.31994 0
M  V30 13917 H 1304.59 0.00204634 0.736997 0
M  V30 13918 H 1307.23 0.691985 1.76951 0
M  V30 13919 H 1305.38 -0.704027 3.82068 0
M  V30 13920 H 1307.05 1.87584 4.21438 0
M  V30 13921 H 1305.3 1.8272 3.93441 0
M  V30 13922 H 1305.97 1.11708 5.40579 0
M  V30 13923 H 1308.44 -0.341746 4.14694 0
M  V30 13924 H 1307.32 -0.89196 5.41604 0
M  V30 13925 H 1307.58 -1.89197 3.99571 0
M  V30 13926 N 1306.64 -1.55279 0.269478 0
M  V30 13927 C 1308.06 -1.59374 -0.0848147 0
M  V30 13928 C 1308.26 -1.2867 -1.55068 0
M  V30 13929 O 1307.31 -1.04486 -2.29867 0
M  V30 13930 C 1308.63 -2.99349 0.284735 0
M  V30 13931 C 1310.17 -3.12147 0.230887 0
M  V30 13932 C 1310.65 -4.54379 0.574795 0
M  V30 13933 N 1312.14 -4.60202 0.526136 0
M  V30 13934 C 1312.87 -5.68273 0.765109 0
M  V30 13935 N 1312.37 -6.84512 1.0684 0
M  V30 13936 N 1314.16 -5.57796 0.694287 0
M  V30 13937 H 1306.31 -1.73503 1.22517 0
M  V30 13938 H 1308.58 -0.808771 0.494564 0
M  V30 13939 H 1308.28 -3.26633 1.30398 0
M  V30 13940 H 1308.16 -3.75309 -0.377199 0
M  V30 13941 H 1310.54 -2.84631 -0.779064 0
M  V30 13942 H 1310.63 -2.38412 0.926998 0
M  V30 13943 H 1310.27 -4.8262 1.58241 0
M  V30 13944 H 1310.2 -5.26406 -0.143044 0
M  V30 13945 H 1312.69 -3.76696 0.301368 0
M  V30 13946 H 1313 -7.62826 1.23757 0
M  V30 13947 H 1311.35 -6.86141 1.10612 0
M  V30 13948 H 1314.54 -4.65862 0.457226 0
M  V30 13949 H 1314.71 -6.41943 0.883913 0
M  V30 13950 N 1308.12 0.00332656 -1.576 0
M  V30 13951 C 1309.05 1.02391 -2.05058 0
M  V30 13952 C 1310.06 1.30903 -0.967901 0
M  V30 13953 O 1311.25 1.27937 -1.24476 0
M  V30 13954 C 1308.35 2.35947 -2.43274 0
M  V30 13955 C 1307.53 2.26423 -3.74234 0
M  V30 13956 C 1306.58 3.4264 -3.99355 0
M  V30 13957 O 1305.61 3.20977 -4.70067 0
M  V30 13958 N 1306.81 4.65379 -3.46991 0
M  V30 13959 H 1309.58 0.619216 -2.93233 0
M  V30 13960 H 1307.14 0.190777 -1.60772 0
M  V30 13961 H 1309.13 3.12462 -2.57196 0
M  V30 13962 H 1307.7 2.6817 -1.60635 0
M  V30 13963 H 1306.92 1.34841 -3.70421 0
M  V30 13964 H 1308.21 2.17229 -4.60097 0
M  V30 13965 H 1307.61 4.85878 -2.89723 0
M  V30 13966 H 1306.16 5.39171 -3.66249 0
M  V30 13967 N 1309.6 1.55164 0.276031 0
M  V30 13968 C 1310.54 1.87836 1.34113 0
M  V30 13969 C 1311.51 0.729562 1.4922 0
M  V30 13970 O 1312.7 0.980549 1.63676 0
M  V30 13971 C 1309.84 2.15313 2.69693 0
M  V30 13972 C 1308.95 3.42845 2.62833 0
M  V30 13973 C 1308.09 3.60038 3.90572 0
M  V30 13974 C 1307.13 4.81273 3.7821 0
M  V30 13975 N 1306.26 4.95139 4.97777 0
M  V30 13976 H 1311.1 2.78681 1.0555 0
M  V30 13977 H 1308.64 1.37976 0.510001 0
M  V30 13978 H 1310.6 2.29243 3.48573 0
M  V30 13979 H 1309.23 1.27706 2.96464 0
M  V30 13980 H 1308.28 3.37403 1.75679 0
M  V30 13981 H 1309.59 4.3186 2.49597 0
M  V30 13982 H 1308.75 3.73769 4.77893 0
M  V30 13983 H 1307.48 2.69203 4.06671 0
M  V30 13984 H 1306.49 4.67549 2.89271 0
M  V30 13985 H 1307.71 5.7354 3.63632 0
M  V30 13986 H 1305.66 4.07234 5.14292 0
M  V30 13987 H 1305.58 5.78194 4.8706 0
M  V30 13988 H 1306.85 5.13253 5.86679 0
M  V30 13989 N 1311.07 -0.540404 1.48045 0
M  V30 13990 C 1312.32 -1.2987 1.55762 0
M  V30 13991 C 1312.65 -1.92877 0.226307 0
M  V30 13992 O 1311.93 -1.7875 -0.766727 0
M  V30 13993 C 1312.21 -2.39602 2.68817 0
M  V30 13994 C 1312.06 -1.81354 4.1162 0
M  V30 13995 C 1313.38 -3.41434 2.77688 0
M  V30 13996 H 1310.5 -0.47083 0.566999 0
M  V30 13997 H 1313.14 -0.603081 1.80175 0
M  V30 13998 H 1311.29 -2.98936 2.48132 0
M  V30 13999 H 1312.97 -1.26151 4.43716 0
M  V30 14000 H 1311.21 -1.1194 4.19108 0
M  V30 14001 H 1311.88 -2.60758 4.86528 0
M  V30 14002 H 1314.36 -2.92042 2.96396 0
M  V30 14003 H 1313.23 -4.15621 3.5854 0
M  V30 14004 H 1313.49 -4.01336 1.85422 0
M  V30 14005 N 1312.55 -1.36459 -0.788468 0
M  V30 14006 C 1313.46 -1.33017 -1.93245 0
M  V30 14007 C 1314.48 -0.232212 -1.72444 0
M  V30 14008 O 1315.65 -0.464743 -1.95965 0
M  V30 14009 C 1312.72 -1.1197 -3.28121 0
M  V30 14010 C 1311.78 -2.3125 -3.61693 0
M  V30 14011 C 1311.01 -2.11197 -4.90134 0
M  V30 14012 O 1311.24 -1.08764 -5.59934 0
M  V30 14013 O 1310.17 -2.98996 -5.22384 0
M  V30 14014 H 1314 -2.29333 -1.99098 0
M  V30 14015 H 1311.58 -1.17016 -0.928856 0
M  V30 14016 H 1313.46 -1.02154 -4.08831 0
M  V30 14017 H 1312.14 -0.187171 -3.23158 0
M  V30 14018 H 1311.05 -2.46635 -2.81286 0
M  V30 14019 H 1312.38 -3.23012 -3.71381 0
M  V30 14020 N 1314.03 1.01274 -1.20754 0
M  V30 14021 C 1315.28 1.74586 -1.01804 0
M  V30 14022 C 1315.6 1.89727 0.450419 0
M  V30 14023 O 1314.87 1.44257 1.32539 0
M  V30 14024 H 1313.45 0.646804 -0.373702 0
M  V30 14025 H 1316.11 1.22079 -1.5193 0
M  V30 14026 H 1315.21 2.748 -1.47958 0
M  V30 14027 N 1315.51 1.01404 1.20644 0
M  V30 14028 C 1316.73 0.720839 1.9447 0
M  V30 14029 C 1317.16 -0.711711 1.74116 0
M  V30 14030 O 1316.52 -1.48938 1.03379 0
M  V30 14031 C 1316.57 1.05864 3.4471 0
M  V30 14032 O 1315.67 0.168901 4.12054 0
M  V30 14033 H 1315.01 0.267698 0.607646 0
M  V30 14034 H 1317.54 1.35672 1.53147 0
M  V30 14035 H 1317.55 1.00928 3.9532 0
M  V30 14036 H 1316.23 2.1024 3.58848 0
M  V30 14037 H 1314.8 0.275572 3.7188 0
M  V30 14038 N 1316.99 -1.36373 0.789944 0
M  V30 14039 C 1318.21 -2.04011 0.373396 0
M  V30 14040 C 1318.64 -1.59171 -1.00231 0
M  V30 14041 O 1318 -0.760431 -1.64582 0
M  V30 14042 C 1318.04 -3.5783 0.446083 0
M  V30 14043 O 1317.15 -4.08759 -0.54678 0
M  V30 14044 H 1316.49 -0.644807 0.158495 0
M  V30 14045 H 1319.02 -1.74317 1.0712 0
M  V30 14046 H 1319.03 -4.06822 0.309877 0
M  V30 14047 H 1317.7 -3.89819 1.44962 0
M  V30 14048 H 1316.28 -3.71038 -0.372192 0
M  V30 14049 N 1318.47 -0.542005 -1.47987 0
M  V30 14050 C 1319.69 -0.0146835 -2.07395 0
M  V30 14051 C 1320.12 1.26266 -1.39422 0
M  V30 14052 O 1319.47 1.75259 -0.464118 0
M  V30 14053 C 1319.52 0.179937 -3.60151 0
M  V30 14054 O 1318.63 1.24596 -3.93128 0
M  V30 14055 H 1317.97 -0.0445076 -0.662507 0
M  V30 14056 H 1320.5 -0.753352 -1.90226 0
M  V30 14057 H 1320.51 0.398876 -4.06046 0
M  V30 14058 H 1319.18 -0.753093 -4.09025 0
M  V30 14059 H 1317.76 1.00872 -3.58997 0
M  V30 14060 N 1319.94 1.55134 -0.277709 0
M  V30 14061 C 1320.89 2.19317 0.623216 0
M  V30 14062 C 1321.88 1.15863 1.11645 0
M  V30 14063 O 1323.07 1.41668 1.0611 0
M  V30 14064 C 1320.2 2.91976 1.80568 0
M  V30 14065 C 1319.28 4.02722 1.3295 0
M  V30 14066 N 1319.68 5.02582 0.569654 0
M  V30 14067 C 1317.97 4.1584 1.61224 0
M  V30 14068 C 1318.67 5.80825 0.318983 0
M  V30 14069 N 1317.65 5.36229 0.892145 0
M  V30 14070 H 1321.45 2.93879 0.0348669 0
M  V30 14071 H 1318.97 1.62196 -0.0813871 0
M  V30 14072 H 1320.96 3.36408 2.46242 0
M  V30 14073 H 1319.62 2.18925 2.39796 0
M  V30 14074 H 1320.63 5.17446 0.216749 0
M  V30 14075 H 1317.31 3.53981 2.21368 0
M  V30 14076 H 1318.7 6.71275 -0.289742 0
M  V30 14077 N 1321.42 0.00503138 1.57599 0
M  V30 14078 C 1322.35 -0.983586 2.11773 0
M  V30 14079 C 1323.33 -1.35518 1.02805 0
M  V30 14080 O 1324.52 -1.43804 1.30514 0
M  V30 14081 C 1321.65 -2.27383 2.62515 0
M  V30 14082 C 1320.6 -2.0437 3.76054 0
M  V30 14083 C 1319.93 -3.39451 4.1313 0
M  V30 14084 C 1321.23 -1.40223 5.03125 0
M  V30 14085 H 1322.92 -0.532501 2.94627 0
M  V30 14086 H 1320.47 -0.254696 1.4173 0
M  V30 14087 H 1322.42 -2.96903 2.99043 0
M  V30 14088 H 1321.14 -2.74614 1.7679 0
M  V30 14089 H 1319.8 -1.37275 3.39928 0
M  V30 14090 H 1319.45 -3.84395 3.24422 0
M  V30 14091 H 1319.15 -3.24868 4.89627 0
M  V30 14092 H 1320.68 -4.10279 4.52221 0
M  V30 14093 H 1322.09 -1.99708 5.37392 0
M  V30 14094 H 1320.49 -1.36112 5.8446 0
M  V30 14095 H 1321.56 -0.372073 4.8347 0
M  V30 14096 N 1322.9 -1.55308 -0.267798 0
M  V30 14097 C 1324.15 -1.7642 -1.00019 0
M  V30 14098 C 1324.48 -0.566559 -1.85752 0
M  V30 14099 O 1323.75 0.435752 -1.89556 0
M  V30 14100 C 1324.04 -3.07229 -1.87836 0
M  V30 14101 C 1323.89 -4.37358 -1.05061 0
M  V30 14102 C 1325.21 -3.34113 -2.86455 0
M  V30 14103 H 1322.33 -0.641859 -0.362197 0
M  V30 14104 H 1324.97 -1.8804 -0.272188 0
M  V30 14105 H 1323.12 -2.97454 -2.49907 0
M  V30 14106 H 1324.79 -4.59098 -0.450208 0
M  V30 14107 H 1323.03 -4.32351 -0.354242 0
M  V30 14108 H 1323.71 -5.25223 -1.69838 0
M  V30 14109 H 1326.18 -3.43715 -2.34519 0
M  V30 14110 H 1325.06 -4.26896 -3.45038 0
M  V30 14111 H 1325.32 -2.54005 -3.61848 0
M  V30 14112 N 1324.38 0.532545 -1.4833 0
M  V30 14113 C 1325.61 1.31331 -1.59874 0
M  V30 14114 C 1326.02 1.87028 -0.258037 0
M  V30 14115 O 1325.38 1.66272 0.752317 0
M  V30 14116 C 1325.43 2.46596 -2.64334 0
M  V30 14117 O 1325.15 1.93195 -3.93201 0
M  V30 14118 C 1326.65 3.38454 -2.86294 0
M  V30 14119 H 1323.87 0.399476 -0.539129 0
M  V30 14120 H 1326.41 0.642696 -1.94138 0
M  V30 14121 H 1324.57 3.09548 -2.32936 0
M  V30 14122 H 1324.98 2.68627 -4.50489 0
M  V30 14123 H 1326.46 4.15687 -3.63192 0
M  V30 14124 H 1326.93 3.93526 -1.95022 0
M  V30 14125 H 1327.54 2.81297 -3.18986 0
M  V30 14126 N 1325.86 1.36875 0.78122 0
M  V30 14127 C 1327.1 1.31559 1.53943 0
M  V30 14128 C 1327.43 -0.10273 1.94229 0
M  V30 14129 O 1326.69 -1.07386 1.63605 0
M  V30 14130 C 1326.98 2.19173 2.82309 0
M  V30 14131 C 1326.65 3.67595 2.61121 0
M  V30 14132 C 1325.31 4.08047 2.55051 0
M  V30 14133 C 1327.66 4.61665 2.41898 0
M  V30 14134 C 1324.99 5.40697 2.27736 0
M  V30 14135 C 1327.34 5.94542 2.16108 0
M  V30 14136 C 1326.01 6.34109 2.08476 0
M  V30 14137 H 1325.28 0.48141 0.563317 0
M  V30 14138 H 1327.93 1.68999 0.900638 0
M  V30 14139 H 1326.23 1.74696 3.50697 0
M  V30 14140 H 1327.93 2.12379 3.40141 0
M  V30 14141 H 1324.52 3.35509 2.66705 0
M  V30 14142 H 1328.7 4.3128 2.45584 0
M  V30 14143 H 1323.96 5.70325 2.20315 0
M  V30 14144 H 1328.13 6.66994 2.0023 0
M  V30 14145 H 1325.76 7.36823 1.87073 0
M  V30 14146 N 1327.33 -1.00632 1.21289 0
M  V30 14147 C 1328.56 -1.77967 1.05524 0
M  V30 14148 C 1328.98 -1.84621 -0.395023 0
M  V30 14149 O 1328.33 -1.30664 -1.27409 0
M  V30 14150 C 1328.38 -3.21939 1.64432 0
M  V30 14151 O 1328.11 -3.15669 3.03784 0
M  V30 14152 C 1329.61 -4.1578 1.5376 0
M  V30 14153 H 1326.83 -0.559341 0.370646 0
M  V30 14154 H 1329.37 -1.26604 1.60598 0
M  V30 14155 H 1327.53 -3.70415 1.13453 0
M  V30 14156 H 1327.94 -4.06112 3.31924 0
M  V30 14157 H 1329.41 -5.14602 1.99722 0
M  V30 14158 H 1329.89 -4.36438 0.491811 0
M  V30 14159 H 1330.5 -3.73192 2.0398 0
M  V30 14160 N 1328.81 -1.02043 -1.20104 0
M  V30 14161 C 1330.06 -0.713027 -1.89852 0
M  V30 14162 C 1330.39 0.755767 -1.7889 0
M  V30 14163 O 1329.67 1.54948 -1.17564 0
M  V30 14164 C 1329.95 -1.15417 -3.41103 0
M  V30 14165 C 1329.8 -2.68355 -3.60979 0
M  V30 14166 C 1331.12 -0.728389 -4.34031 0
M  V30 14167 H 1328.24 -0.260502 -0.689426 0
M  V30 14168 H 1330.88 -1.26885 -1.41422 0
M  V30 14169 H 1329.03 -0.68127 -3.8248 0
M  V30 14170 H 1330.7 -3.23526 -3.28829 0
M  V30 14171 H 1328.95 -3.09148 -3.04319 0
M  V30 14172 H 1329.62 -2.94276 -4.67018 0
M  V30 14173 H 1332.09 -1.13499 -4.00321 0
M  V30 14174 H 1330.97 -1.06504 -5.38468 0
M  V30 14175 H 1331.23 0.369736 -4.40551 0
M  V30 14176 N 1330.29 1.35952 -0.797165 0
M  V30 14177 C 1331.22 2.32506 -0.215277 0
M  V30 14178 C 1332.2 1.57023 0.654046 0
M  V30 14179 O 1333.39 1.85139 0.586268 0
M  V30 14180 C 1330.52 3.41266 0.644557 0
M  V30 14181 C 1329.47 4.27816 -0.125501 0
M  V30 14182 C 1328.8 5.27813 0.855428 0
M  V30 14183 C 1330.1 5.05367 -1.31913 0
M  V30 14184 H 1331.79 2.8142 -1.02193 0
M  V30 14185 H 1329.34 1.35303 -0.492862 0
M  V30 14186 H 1331.29 4.07808 1.06163 0
M  V30 14187 H 1330.01 2.90938 1.484 0
M  V30 14188 H 1328.67 3.62841 -0.523639 0
M  V30 14189 H 1328.32 4.73755 1.69011 0
M  V30 14190 H 1328.02 5.86589 0.344566 0
M  V30 14191 H 1329.54 5.97227 1.2709 0
M  V30 14192 H 1330.96 5.64907 -0.977418 0
M  V30 14193 H 1329.36 5.73593 -1.76382 0
M  V30 14194 H 1330.43 4.36558 -2.11057 0
M  V30 14195 N 1331.77 0.549846 1.47697 0
M  V30 14196 C 1333.18 0.11453 1.86348 0
M  V30 14197 C 1333.53 -1.31368 1.45729 0
M  V30 14198 O 1332.66 -1.98707 0.856989 0
M  V30 14199 C 1333.25 0.201072 3.38203 0
M  V30 14200 C 1331.81 -0.179162 3.75973 0
M  V30 14201 C 1330.96 0.551951 2.71751 0
M  V30 14202 H 1333.91 0.759989 1.39319 0
M  V30 14203 H 1333.93 -0.582216 3.76019 0
M  V30 14204 H 1333.44 1.24065 3.67736 0
M  V30 14205 H 1331.54 -1.22013 3.52056 0
M  V30 14206 H 1331.65 0.174273 4.78783 0
M  V30 14207 H 1330.02 -0.00411819 2.547 0
M  V30 14208 H 1330.8 1.59254 3.04127 0
M  V30 14209 N 1333.25 -1.54984 0.285932 0
M  V30 14210 C 1334.18 -2.25916 -0.590259 0
M  V30 14211 C 1335.16 -1.25319 -1.15018 0
M  V30 14212 O 1336.34 -1.54062 -1.18231 0
M  V30 14213 C 1333.47 -2.98849 -1.76936 0
M  V30 14214 C 1332.43 -4.06466 -1.3405 0
M  V30 14215 C 1331.75 -4.67032 -2.60356 0
M  V30 14216 C 1333.05 -5.20064 -0.482754 0
M  V30 14217 H 1334.75 -2.994 0.00131571 0
M  V30 14218 H 1332.29 -1.44 0.00207281 0
M  V30 14219 H 1334.25 -3.47186 -2.3883 0
M  V30 14220 H 1332.97 -2.22918 -2.38694 0
M  V30 14221 H 1331.63 -3.58957 -0.7447 0
M  V30 14222 H 1331.28 -3.87757 -3.20396 0
M  V30 14223 H 1330.98 -5.39703 -2.32368 0
M  V30 14224 H 1332.5 -5.18124 -3.23079 0
M  V30 14225 H 1333.91 -5.64387 -1.00697 0
M  V30 14226 H 1332.31 -5.99363 -0.297291 0
M  V30 14227 H 1333.38 -4.82358 0.495861 0
M  V30 14228 N 1334.72 -0.0133892 -1.57594 0
M  V30 14229 C 1335.63 0.989701 -2.12702 0
M  V30 14230 C 1336.65 1.36785 -1.07545 0
M  V30 14231 O 1337.83 1.45246 -1.39519 0
M  V30 14232 C 1334.89 2.2586 -2.63036 0
M  V30 14233 C 1333.95 1.94234 -3.82847 0
M  V30 14234 C 1333.19 3.15075 -4.30771 0
M  V30 14235 O 1333.41 4.27212 -3.7795 0
M  V30 14236 O 1332.34 2.98291 -5.22787 0
M  V30 14237 H 1336.17 0.551194 -2.98656 0
M  V30 14238 H 1333.75 0.206264 -1.47969 0
M  V30 14239 H 1335.64 3.0038 -2.9555 0
M  V30 14240 H 1334.31 2.68923 -1.80173 0
M  V30 14241 H 1333.22 1.17148 -3.55285 0
M  V30 14242 H 1334.55 1.55999 -4.66824 0
M  V30 14243 N 1336.2 1.55448 0.259558 0
M  V30 14244 C 1337.45 1.7589 0.987201 0
M  V30 14245 C 1337.76 0.574951 1.86959 0
M  V30 14246 O 1338.97 0.662091 2.63303 0
M  V30 14247 C 1337.43 3.11349 1.80526 0
M  V30 14248 C 1337.03 4.37353 0.970882 0
M  V30 14249 C 1338.78 3.41136 2.5264 0
M  V30 14250 C 1336.69 5.63847 1.7841 0
M  V30 14251 H 1335.62 0.655662 0.372321 0
M  V30 14252 H 1338.27 1.81893 0.242332 0
M  V30 14253 H 1336.65 2.9942 2.5916 0
M  V30 14254 H 1337.82 4.60237 0.227763 0
M  V30 14255 H 1336.14 4.14809 0.363669 0
M  V30 14256 H 1338.73 4.32855 3.13912 0
M  V30 14257 H 1339.08 2.61879 3.23612 0
M  V30 14258 H 1339.61 3.54224 1.81026 0
M  V30 14259 H 1336.35 6.4589 1.11834 0
M  V30 14260 H 1335.87 5.45086 2.50283 0
M  V30 14261 H 1337.55 6.02641 2.35441 0
M  V30 14262 N 1337.68 -0.524672 1.4861 0
M  V30 14263 C 1338.93 -1.27768 1.56588 0
M  V30 14264 C 1339.25 -1.93469 0.243899 0
M  V30 14265 O 1338.52 -1.8159 -0.734985 0
M  V30 14266 H 1337.1 -0.474566 0.576885 0
M  V30 14267 H 1339.76 -0.610114 1.85104 0
M  V30 14268 H 1338.86 -2.05416 2.34969 0
M  V30 14269 N 1339.16 -1.37287 -0.77395 0
M  V30 14270 C 1340.09 -1.35569 -1.90114 0
M  V30 14271 C 1341.07 -0.224658 -1.6861 0
M  V30 14272 O 1342.25 -0.424676 -1.895 0
M  V30 14273 C 1339.38 -1.15971 -3.27365 0
M  V30 14274 C 1338.34 -2.26063 -3.63427 0
M  V30 14275 C 1337.66 -1.9159 -4.99197 0
M  V30 14276 C 1338.96 -3.68236 -3.70405 0
M  V30 14277 H 1340.66 -2.29891 -1.91808 0
M  V30 14278 H 1338.2 -1.10661 -0.92142 0
M  V30 14279 H 1340.16 -1.134 -4.05855 0
M  V30 14280 H 1338.88 -0.181043 -3.26098 0
M  V30 14281 H 1337.54 -2.27786 -2.87244 0
M  V30 14282 H 1337.19 -0.922586 -4.94467 0
M  V30 14283 H 1336.89 -2.65309 -5.24294 0
M  V30 14284 H 1338.41 -1.90602 -5.80089 0
M  V30 14285 H 1339.83 -3.68655 -4.39052 0
M  V30 14286 H 1338.22 -4.4099 -4.06999 0
M  V30 14287 H 1339.29 -4.02021 -2.71122 0
M  V30 14288 N 1340.64 0.999871 -1.21821 0
M  V30 14289 C 1341.59 2.0729 -0.949465 0
M  V30 14290 C 1342.57 1.60606 0.0972572 0
M  V30 14291 O 1343.76 1.76643 -0.11235 0
M  V30 14292 C 1340.89 3.39315 -0.521565 0
M  V30 14293 C 1339.98 3.92653 -1.60264 0
M  V30 14294 N 1340.37 4.19297 -2.82884 0
M  V30 14295 C 1338.67 4.20984 -1.4727 0
M  V30 14296 C 1339.37 4.62547 -3.52739 0
M  V30 14297 N 1338.34 4.65826 -2.80191 0
M  V30 14298 H 1342.15 2.25822 -1.881 0
M  V30 14299 H 1339.66 1.18102 -1.1147 0
M  V30 14300 H 1341.66 4.15743 -0.310376 0
M  V30 14301 H 1340.32 3.22187 0.403152 0
M  V30 14302 H 1341.33 4.07698 -3.19378 0
M  V30 14303 H 1338 4.12966 -0.613654 0
M  V30 14304 H 1339.39 4.91843 -4.57756 0
M  V30 14305 N 1342.11 1.02678 1.19562 0
M  V30 14306 C 1343.06 0.599259 2.24748 0
M  V30 14307 C 1344.06 -0.367079 1.65375 0
M  V30 14308 O 1345.26 -0.235887 1.78448 0
M  V30 14309 H 1341.64 0.175517 0.73123 0
M  V30 14310 H 1343.61 1.4971 2.58127 0
M  V30 14311 C 1342.36 -0.0362515 3.47681 0
M  V30 14312 H 1341.68 0.698343 3.93654 0
M  V30 14313 H 1343.12 -0.298361 4.22949 0
M  V30 14314 C 1341.58 -1.28218 3.11547 0
M  V30 14315 O 1342.11 -2.37446 3.24009 0
M  V30 14316 N 1340.32 -1.17014 2.66 0
M  V30 14317 H 1339.86 -0.28132 2.56059 0
M  V30 14318 H 1339.82 -2.00473 2.42194 0
M  V30 14319 N 1343.59 -1.35528 0.804364 0
M  V30 14320 C 1344.84 -1.98084 0.380196 0
M  V30 14321 C 1345.15 -1.64531 -1.05778 0
M  V30 14322 O 1346.36 -2.20435 -1.58495 0
M  V30 14323 C 1344.82 -3.54364 0.628848 0
M  V30 14324 C 1344.42 -3.96828 2.07921 0
M  V30 14325 C 1346.17 -4.23641 0.269927 0
M  V30 14326 C 1344.08 -5.45944 2.27374 0
M  V30 14327 H 1343.01 -0.741185 0.138422 0
M  V30 14328 H 1345.66 -1.54624 0.988107 0
M  V30 14329 H 1344.04 -3.9597 -0.0489837 0
M  V30 14330 H 1345.21 -3.6638 2.79467 0
M  V30 14331 H 1343.53 -3.40433 2.39779 0
M  V30 14332 H 1346.12 -5.33251 0.393344 0
M  V30 14333 H 1346.47 -4.08858 -0.783644 0
M  V30 14334 H 1347 -3.87448 0.901588 0
M  V30 14335 H 1343.74 -5.65693 3.31168 0
M  V30 14336 H 1343.26 -5.77969 1.6035 0
M  V30 14337 H 1344.94 -6.12376 2.08817 0
M  V30 14338 N 1345.07 -0.557671 -1.47404 0
M  V30 14339 C 1346.02 0.202834 -2.31714 0
M  V30 14340 C 1347.01 0.908873 -1.42954 0
M  V30 14341 O 1348.22 0.830106 -1.59716 0
M  V30 14342 H 1344.59 0.0842824 -0.747262 0
M  V30 14343 H 1346.57 -0.527431 -2.93702 0
M  V30 14344 C 1345.31 1.21937 -3.25617 0
M  V30 14345 H 1344.64 0.685506 -3.93879 0
M  V30 14346 H 1346.08 1.72237 -3.87441 0
M  V30 14347 C 1344.54 2.26748 -2.49173 0
M  V30 14348 O 1345.07 3.33681 -2.23651 0
M  V30 14349 N 1343.27 2.00687 -2.10174 0
M  V30 14350 H 1342.82 1.13741 -2.3113 0
M  V30 14351 H 1342.78 2.71031 -1.59342 0
M  V30 14352 N 1346.55 1.54831 -0.294147 0
M  V30 14353 C 1347.8 2.00001 0.317135 0
M  V30 14354 C 1348.12 1.18256 1.54421 0
M  V30 14355 O 1347.38 0.245035 1.9416 0
M  V30 14356 C 1347.68 3.4997 0.72495 0
M  V30 14357 C 1347.34 4.49126 -0.399616 0
M  V30 14358 C 1346.01 4.75958 -0.708354 0
M  V30 14359 C 1348.36 5.08208 -1.15644 0
M  V30 14360 C 1345.69 5.59137 -1.77716 0
M  V30 14361 C 1348.04 5.9255 -2.21512 0
M  V30 14362 C 1346.7 6.17695 -2.52999 0
M  V30 14363 H 1345.97 0.731856 0.116048 0
M  V30 14364 H 1348.62 1.87019 -0.41182 0
M  V30 14365 H 1346.92 3.60526 1.53388 0
M  V30 14366 H 1348.62 3.82341 1.20898 0
M  V30 14367 H 1345.21 4.28341 -0.148877 0
M  V30 14368 H 1349.4 4.87486 -0.931178 0
M  V30 14369 H 1344.65 5.76859 -2.02592 0
M  V30 14370 H 1348.83 6.37359 -2.80617 0
M  V30 14371 H 1346.45 6.81939 -3.35951 0
M  V30 14372 N 1348.03 0.0217466 1.57585 0
M  V30 14373 C 1349.25 -0.67246 1.96196 0
M  V30 14374 C 1349.68 -1.6529 0.897827 0
M  V30 14375 O 1349.04 -1.80743 -0.142002 0
M  V30 14376 C 1349.08 -1.36162 3.33905 0
M  V30 14377 O 1348.19 -2.47671 3.29747 0
M  V30 14378 H 1347.53 -0.177238 0.639908 0
M  V30 14379 H 1350.06 0.0814073 2.04438 0
M  V30 14380 H 1350.07 -1.7201 3.69968 0
M  V30 14381 H 1348.74 -0.642893 4.10901 0
M  V30 14382 H 1347.32 -2.13989 3.0539 0
M  V30 14383 N 1349.51 -1.55583 -0.251311 0
M  V30 14384 C 1350.44 -1.9296 -1.31486 0
M  V30 14385 C 1351.42 -0.794001 -1.50431 0
M  V30 14386 O 1352.6 -1.05393 -1.63113 0
M  V30 14387 C 1349.73 -2.22046 -2.67045 0
M  V30 14388 C 1348.69 -3.37816 -2.62801 0
M  V30 14389 C 1348.01 -3.52433 -4.02113 0
M  V30 14390 C 1349.31 -4.73626 -2.20171 0
M  V30 14391 H 1351.01 -2.82046 -1.00451 0
M  V30 14392 H 1348.55 -1.35702 -0.481775 0
M  V30 14393 H 1350.5 -2.46783 -3.41579 0
M  V30 14394 H 1349.23 -1.29782 -2.99707 0
M  V30 14395 H 1347.89 -3.13081 -1.90724 0
M  V30 14396 H 1347.54 -2.57597 -4.32034 0
M  V30 14397 H 1347.24 -4.30283 -4.00163 0
M  V30 14398 H 1348.76 -3.79486 -4.78354 0
M  V30 14399 H 1350.17 -4.97764 -2.84436 0
M  V30 14400 H 1348.57 -5.54547 -2.29341 0
M  V30 14401 H 1349.64 -4.70985 -1.1533 0
M  V30 14402 N 1350.98 0.516783 -1.48886 0
M  V30 14403 C 1351.89 1.6467 -1.67095 0
M  V30 14404 C 1352.91 1.64963 -0.553466 0
M  V30 14405 O 1354.09 1.83673 -0.826206 0
M  V30 14406 C 1351.15 3.01095 -1.71879 0
M  V30 14407 C 1350.21 3.11554 -2.95352 0
M  V30 14408 C 1349.44 4.41471 -2.99898 0
M  V30 14409 O 1349.67 5.29348 -2.12477 0
M  V30 14410 O 1348.6 4.56573 -3.92205 0
M  V30 14411 H 1352.43 1.52242 -2.62785 0
M  V30 14412 H 1350.01 0.69134 -1.32442 0
M  V30 14413 H 1351.89 3.82207 -1.77471 0
M  V30 14414 H 1350.57 3.1382 -0.793656 0
M  V30 14415 H 1349.48 2.29689 -2.95286 0
M  V30 14416 H 1350.81 3.03751 -3.87294 0
M  V30 14417 N 1352.46 1.37696 0.766659 0
M  V30 14418 C 1353.69 1.3639 1.55581 0
M  V30 14419 C 1354.1 -0.0495272 1.88735 0
M  V30 14420 O 1353.46 -1.01268 1.51826 0
M  V30 14421 C 1353.51 2.20717 2.86298 0
M  V30 14422 O 1353.23 3.56552 2.54563 0
M  V30 14423 C 1354.73 2.27446 3.80504 0
M  V30 14424 H 1351.95 0.466993 0.481828 0
M  V30 14425 H 1354.5 1.81103 0.949834 0
M  V30 14426 H 1352.65 1.79499 3.43306 0
M  V30 14427 H 1353.07 4.00811 3.38306 0
M  V30 14428 H 1354.54 2.90762 4.69214 0
M  V30 14429 H 1355.02 1.28434 4.20002 0
M  V30 14430 H 1355.62 2.68998 3.29424 0
M  V30 14431 N 1353.94 -0.993397 1.22349 0
M  V30 14432 C 1355.19 -1.73635 1.05936 0
M  V30 14433 C 1355.54 -1.88166 -0.401414 0
M  V30 14434 O 1354.83 -1.41338 -1.2936 0
M  V30 14435 C 1355.03 -3.14191 1.70349 0
M  V30 14436 C 1354.86 -3.13367 3.22539 0
M  V30 14437 C 1353.63 -3.19289 3.91641 0
M  V30 14438 C 1355.82 -2.97559 4.1948 0
M  V30 14439 N 1353.81 -3.08213 5.30922 0
M  V30 14440 C 1355.18 -2.94506 5.45588 0
M  V30 14441 C 1357.23 -2.81947 4.10378 0
M  V30 14442 C 1355.94 -2.7744 6.63641 0
M  V30 14443 C 1357.96 -2.66241 5.28081 0
M  V30 14444 C 1357.32 -2.63875 6.53107 0
M  V30 14445 H 1353.42 -0.64505 0.44208 0
M  V30 14446 H 1356.01 -1.17981 1.54882 0
M  V30 14447 H 1354.18 -3.6809 1.23954 0
M  V30 14448 H 1355.91 -3.77046 1.47032 0
M  V30 14449 H 1352.66 -3.26951 3.42637 0
M  V30 14450 H 1353.09 -3.05986 6.03905 0
M  V30 14451 H 1357.73 -2.82574 3.14502 0
M  V30 14452 H 1355.45 -2.75558 7.59666 0
M  V30 14453 H 1359.03 -2.55144 5.2287 0
M  V30 14454 H 1357.91 -2.5187 7.42652 0
M  V30 14455 N 1355.42 -1.03311 -1.19015 0
M  V30 14456 C 1356.66 -0.732039 -1.88805 0
M  V30 14457 C 1356.99 0.739688 -1.79886 0
M  V30 14458 O 1356.25 1.55476 -1.18851 0
M  V30 14459 C 1356.55 -1.13402 -3.38932 0
M  V30 14460 C 1356.21 -2.60473 -3.68055 0
M  V30 14461 C 1354.87 -3.00654 -3.75713 0
M  V30 14462 C 1357.23 -3.55604 -3.81045 0
M  V30 14463 C 1354.55 -4.3487 -3.93833 0
M  V30 14464 C 1356.91 -4.89529 -4.00679 0
M  V30 14465 C 1355.57 -5.29392 -4.06571 0
M  V30 14466 H 1354.84 -0.267872 -0.690888 0
M  V30 14467 H 1357.49 -1.29673 -1.40915 0
M  V30 14468 H 1355.79 -0.487997 -3.88749 0
M  V30 14469 H 1357.49 -0.878532 -3.91258 0
M  V30 14470 H 1354.08 -2.28348 -3.62706 0
M  V30 14471 H 1358.26 -3.25711 -3.74467 0
M  V30 14472 H 1353.52 -4.65285 -3.96636 0
M  V30 14473 H 1357.69 -5.63153 -4.09672 0
M  V30 14474 H 1355.32 -6.33402 -4.20364 0
M  V30 14475 N 1356.9 1.35099 -0.81154 0
M  V30 14476 C 1358.14 1.98233 -0.393453 0
M  V30 14477 C 1358.46 1.64688 1.04417 0
M  V30 14478 O 1357.73 0.931845 1.72318 0
M  V30 14479 H 1356.31 0.733283 -0.142496 0
M  V30 14480 H 1358.98 1.6493 -1.03847 0
M  V30 14481 H 1358.07 3.08017 -0.503188 0
M  V30 14482 N 1358.37 0.56548 1.47106 0
M  V30 14483 C 1359.32 -0.177564 2.30116 0
M  V30 14484 C 1360.29 -0.900534 1.39569 0
M  V30 14485 O 1361.48 -0.894603 1.68527 0
M  V30 14486 C 1358.62 -1.19633 3.237 0
M  V30 14487 C 1357.73 -0.47858 4.29341 0
M  V30 14488 C 1356.86 -1.48336 5.10068 0
M  V30 14489 C 1355.9 -0.751049 6.07475 0
M  V30 14490 N 1355.04 -1.70306 6.81132 0
M  V30 14491 H 1359.88 0.536409 2.93132 0
M  V30 14492 H 1357.42 0.276352 1.44481 0
M  V30 14493 H 1359.37 -1.79967 3.76388 0
M  V30 14494 H 1358 -1.87823 2.6253 0
M  V30 14495 H 1357.06 0.239454 3.79646 0
M  V30 14496 H 1358.37 0.0947147 4.9871 0
M  V30 14497 H 1357.52 -2.16 5.66947 0
M  V30 14498 H 1356.26 -2.09058 4.4062 0
M  V30 14499 H 1355.27 -0.0605336 5.49767 0
M  V30 14500 H 1356.49 -0.14946 6.78936 0
M  V30 14501 H 1354.44 -2.2987 6.14407 0
M  V30 14502 H 1354.35 -1.18213 7.46701 0
M  V30 14503 H 1355.62 -2.37058 7.42579 0
M  V30 14504 N 1359.85 -1.54672 0.302354 0
M  V30 14505 C 1360.76 -2.27251 -0.582578 0
M  V30 14506 C 1361.78 -1.30819 -1.14727 0
M  V30 14507 O 1362.95 -1.63803 -1.17177 0
M  V30 14508 C 1360.02 -3.00016 -1.73757 0
M  V30 14509 C 1359.08 -4.11988 -1.20682 0
M  V30 14510 C 1358.31 -4.81273 -2.30676 0
M  V30 14511 O 1358.54 -4.49927 -3.50602 0
M  V30 14512 O 1357.47 -5.68647 -1.97291 0
M  V30 14513 H 1361.3 -3.03699 0.00621365 0
M  V30 14514 H 1358.88 -1.49242 0.0687684 0
M  V30 14515 H 1360.76 -3.45652 -2.41045 0
M  V30 14516 H 1359.44 -2.26462 -2.31294 0
M  V30 14517 H 1358.35 -3.70749 -0.499625 0
M  V30 14518 H 1359.68 -4.87524 -0.676858 0
M  V30 14519 N 1361.33 -0.0301034 -1.57571 0
M  V30 14520 C 1362.58 0.647672 -1.91019 0
M  V30 14521 C 1362.89 1.73234 -0.908265 0
M  V30 14522 O 1364.1 2.46682 -1.13402 0
M  V30 14523 C 1362.55 1.20327 -3.3919 0
M  V30 14524 C 1362.16 0.151833 -4.47743 0
M  V30 14525 C 1363.91 1.8575 -3.81703 0
M  V30 14526 C 1361.81 0.719119 -5.87012 0
M  V30 14527 H 1360.74 0.245682 -0.712851 0
M  V30 14528 H 1363.39 -0.0955645 -1.83251 0
M  V30 14529 H 1361.78 1.99814 -3.41892 0
M  V30 14530 H 1362.95 -0.620659 -4.56601 0
M  V30 14531 H 1361.27 -0.403699 -4.14438 0
M  V30 14532 H 1363.86 2.29151 -4.83109 0
M  V30 14533 H 1364.21 2.70061 -3.16817 0
M  V30 14534 H 1364.74 1.1295 -3.81428 0
M  V30 14535 H 1361.48 -0.0858832 -6.55444 0
M  V30 14536 H 1361 1.46008 -5.81758 0
M  V30 14537 H 1362.68 1.20856 -6.35612 0
M  V30 14538 N 1362.81 1.55714 0.243056 0
M  V30 14539 C 1363.74 1.93655 1.30461 0
M  V30 14540 C 1364.72 0.801968 1.50008 0
M  V30 14541 O 1365.9 1.06256 1.62552 0
M  V30 14542 C 1363.03 2.23459 2.65863 0
M  V30 14543 C 1361.99 3.39205 2.61006 0
M  V30 14544 C 1361.31 3.5456 4.00239 0
M  V30 14545 C 1362.61 4.74787 2.17656 0
M  V30 14546 H 1364.31 2.82575 0.98954 0
M  V30 14547 H 1361.85 1.35955 0.474572 0
M  V30 14548 H 1363.81 2.48591 3.40266 0
M  V30 14549 H 1362.53 1.31369 2.99014 0
M  V30 14550 H 1361.19 3.14088 1.89061 0
M  V30 14551 H 1360.84 2.59884 4.30661 0
M  V30 14552 H 1360.54 4.32399 3.97876 0
M  V30 14553 H 1362.06 3.82017 4.76335 0
M  V30 14554 H 1363.48 4.99266 2.81792 0
M  V30 14555 H 1361.87 5.55756 2.26397 0
M  V30 14556 H 1362.94 4.7159 1.12831 0
M  V30 14557 N 1364.29 -0.50888 1.49158 0
M  V30 14558 C 1365.53 -1.26537 1.58481 0
M  V30 14559 C 1365.87 -1.92353 0.267168 0
M  V30 14560 O 1365.14 -1.80336 -0.728639 0
M  V30 14561 C 1365.42 -2.33846 2.73839 0
M  V30 14562 C 1365.28 -1.72582 4.15374 0
M  V30 14563 C 1366.6 -3.35467 2.84868 0
M  V30 14564 H 1363.71 -0.458697 0.576859 0
M  V30 14565 H 1366.36 -0.564728 1.81413 0
M  V30 14566 H 1364.51 -2.93605 2.54417 0
M  V30 14567 H 1366.18 -1.16711 4.46292 0
M  V30 14568 H 1364.42 -1.03025 4.21389 0
M  V30 14569 H 1365.09 -2.5038 4.91949 0
M  V30 14570 H 1367.57 -2.85689 3.02524 0
M  V30 14571 H 1366.44 -4.07922 3.67275 0
M  V30 14572 H 1366.71 -3.97313 1.93894 0
M  V30 14573 N 1365.76 -1.381 -0.759346 0
M  V30 14574 C 1366.71 -1.34866 -1.87296 0
M  V30 14575 C 1367.68 -0.212139 -1.6474 0
M  V30 14576 O 1368.87 -0.403464 -1.86485 0
M  V30 14577 C 1366.01 -1.17383 -3.24523 0
M  V30 14578 C 1365.12 -2.40372 -3.5895 0
M  V30 14579 C 1364.25 -2.15665 -4.8545 0
M  V30 14580 C 1363.29 -3.34455 -5.12646 0
M  V30 14581 N 1362.43 -3.0922 -6.30339 0
M  V30 14582 H 1367.27 -2.30072 -1.89396 0
M  V30 14583 H 1364.81 -1.14314 -0.925788 0
M  V30 14584 H 1366.77 -1.05264 -4.03702 0
M  V30 14585 H 1365.4 -0.258182 -3.21766 0
M  V30 14586 H 1364.45 -2.63185 -2.74659 0
M  V30 14587 H 1365.76 -3.28926 -3.74978 0
M  V30 14588 H 1364.91 -2.00649 -5.7256 0
M  V30 14589 H 1363.65 -1.24467 -4.7155 0
M  V30 14590 H 1362.66 -3.49997 -4.24007 0
M  V30 14591 H 1363.88 -4.26521 -5.28448 0
M  V30 14592 H 1361.83 -2.20664 -6.17773 0
M  V30 14593 H 1361.75 -3.91321 -6.46841 0
M  V30 14594 H 1363.01 -2.97847 -7.20352 0
M  V30 14595 N 1367.24 0.986894 -1.22875 0
M  V30 14596 C 1368.47 1.76266 -1.08342 0
M  V30 14597 C 1368.89 1.85226 0.365602 0
M  V30 14598 O 1368.24 1.32675 1.25314 0
M  V30 14599 C 1368.29 3.19282 -1.69533 0
M  V30 14600 O 1368.01 3.10796 -3.08768 0
M  V30 14601 C 1369.52 4.13281 -1.60355 0
M  V30 14602 H 1366.74 0.553374 -0.379497 0
M  V30 14603 H 1369.28 1.24033 -1.62592 0
M  V30 14604 H 1367.43 3.68563 -1.19332 0
M  V30 14605 H 1367.85 4.0078 -3.38343 0
M  V30 14606 H 1369.32 5.11359 -2.07884 0
M  V30 14607 H 1369.8 4.356 -0.561182 0
M  V30 14608 H 1370.41 3.699 -2.09891 0
M  V30 14609 N 1368.72 1.0394 1.18466 0
M  V30 14610 C 1369.65 0.650182 2.24265 0
M  V30 14611 C 1370.63 -0.345968 1.66545 0
M  V30 14612 O 1371.82 -0.226348 1.92876 0
M  V30 14613 C 1368.95 0.0110451 3.47298 0
M  V30 14614 C 1367.9 0.930599 4.17761 0
M  V30 14615 C 1367.23 0.156005 5.34472 0
M  V30 14616 C 1368.53 2.24913 4.71393 0
M  V30 14617 H 1370.22 1.53465 2.57078 0
M  V30 14618 H 1367.77 0.739343 1.23571 0
M  V30 14619 H 1369.72 -0.272959 4.20515 0
M  V30 14620 H 1368.44 -0.908288 3.13716 0
M  V30 14621 H 1367.1 1.19897 3.4644 0
M  V30 14622 H 1366.75 -0.765695 4.97138 0
M  V30 14623 H 1366.45 0.768606 5.82551 0
M  V30 14624 H 1367.97 -0.121011 6.1048 0
M  V30 14625 H 1369.39 2.02592 5.36311 0
M  V30 14626 H 1367.79 2.81459 5.30001 0
M  V30 14627 H 1368.86 2.8965 3.88884 0
M  V30 14628 N 1370.2 -1.34667 0.818693 0
M  V30 14629 C 1371.61 -1.51436 0.503921 0
M  V30 14630 C 1371.81 -1.76468 -0.972691 0
M  V30 14631 O 1370.87 -1.81314 -1.75731 0
M  V30 14632 C 1372.18 -2.68198 1.35978 0
M  V30 14633 C 1373.73 -2.8208 1.35647 0
M  V30 14634 C 1374.21 -4.01881 2.19672 0
M  V30 14635 N 1375.7 -4.0908 2.17273 0
M  V30 14636 C 1376.43 -5.00925 2.79038 0
M  V30 14637 N 1375.93 -5.9802 3.49777 0
M  V30 14638 N 1377.72 -4.93764 2.68615 0
M  V30 14639 H 1369.87 -1.16677 1.77483 0
M  V30 14640 H 1372.14 -0.571873 0.756085 0
M  V30 14641 H 1371.84 -2.56317 2.4082 0
M  V30 14642 H 1371.72 -3.63105 1.0215 0
M  V30 14643 H 1374.1 -2.93405 0.315849 0
M  V30 14644 H 1374.18 -1.87994 1.7347 0
M  V30 14645 H 1373.83 -3.91316 3.23781 0
M  V30 14646 H 1373.76 -4.95171 1.79202 0
M  V30 14647 H 1376.25 -3.3958 1.65814 0
M  V30 14648 H 1376.56 -6.64722 3.94162 0
M  V30 14649 H 1374.91 -5.98157 3.53883 0
M  V30 14650 H 1378.1 -4.16868 2.12929 0
M  V30 14651 H 1378.27 -5.65147 3.17038 0
M  V30 14652 N 1371.68 -0.573274 -1.46804 0
M  V30 14653 C 1372.92 -0.0553432 -2.02724 0
M  V30 14654 C 1373.26 1.29753 -1.44492 0
M  V30 14655 O 1372.53 1.84804 -0.606455 0
M  V30 14656 C 1372.81 0.0205511 -3.60094 0
M  V30 14657 C 1372.67 -1.36055 -4.2873 0
M  V30 14658 C 1373.99 0.725944 -4.34071 0
M  V30 14659 H 1371.1 -0.0215858 -0.736684 0
M  V30 14660 H 1373.75 -0.738657 -1.75054 0
M  V30 14661 H 1371.9 0.602481 -3.838 0
M  V30 14662 H 1373.57 -1.98692 -4.16316 0
M  V30 14663 H 1371.81 -1.93087 -3.88458 0
M  V30 14664 H 1372.48 -1.26001 -5.37427 0
M  V30 14665 H 1374.96 0.231677 -4.15455 0
M  V30 14666 H 1373.83 0.74805 -5.43779 0
M  V30 14667 H 1374.1 1.78536 -4.04447 0
M  V30 14668 N 1373.15 1.5451 -0.310553 0
M  V30 14669 C 1374.4 2.00623 0.296343 0
M  V30 14670 C 1374.73 1.19855 1.52802 0
M  V30 14671 O 1374.01 0.277468 1.92511 0
M  V30 14672 C 1374.29 3.54305 0.643448 0
M  V30 14673 C 1374.14 4.45807 -0.598029 0
M  V30 14674 C 1375.46 4.14958 1.46623 0
M  V30 14675 H 1372.58 0.729303 0.106236 0
M  V30 14676 H 1375.22 1.85196 -0.424549 0
M  V30 14677 H 1373.37 3.67581 1.25762 0
M  V30 14678 H 1375.05 4.44421 -1.23643 0
M  V30 14679 H 1373.29 4.16014 -1.22944 0
M  V30 14680 H 1373.96 5.51124 -0.310883 0
M  V30 14681 H 1376.44 4.05176 0.947199 0
M  V30 14682 H 1375.31 5.22627 1.67787 0
M  V30 14683 H 1375.57 3.67445 2.45839 0
M  V30 14684 N 1374.63 0.0384594 1.57553 0
M  V30 14685 C 1376.04 -0.499057 1.79906 0
M  V30 14686 C 1376.4 -1.7169 0.949577 0
M  V30 14687 O 1375.52 -2.15788 0.162584 0
M  V30 14688 C 1376.12 -0.912155 3.2629 0
M  V30 14689 C 1374.67 -1.39473 3.49606 0
M  V30 14690 C 1373.82 -0.363859 2.74902 0
M  V30 14691 H 1376.77 0.264433 1.56481 0
M  V30 14692 H 1376.79 -1.77592 3.36513 0
M  V30 14693 H 1376.31 -0.0255928 3.88092 0
M  V30 14694 H 1374.41 -2.3009 2.93068 0
M  V30 14695 H 1374.52 -1.39566 4.58321 0
M  V30 14696 H 1372.88 -0.833993 2.40659 0
M  V30 14697 H 1373.67 0.514398 3.39424 0
M  V30 14698 N 1376.11 -1.55841 -0.234795 0
M  V30 14699 C 1377.02 -1.94476 -1.31211 0
M  V30 14700 C 1378.04 -0.846782 -1.52005 0
M  V30 14701 O 1379.21 -1.14922 -1.65393 0
M  V30 14702 C 1376.28 -2.24213 -2.64442 0
M  V30 14703 C 1375.34 -3.47508 -2.52065 0
M  V30 14704 C 1374.57 -3.75817 -3.78942 0
M  V30 14705 O 1374.8 -3.06007 -4.81369 0
M  V30 14706 O 1373.73 -4.69328 -3.76848 0
M  V30 14707 H 1377.56 -2.8626 -1.01434 0
M  V30 14708 H 1375.14 -1.42879 -0.436563 0
M  V30 14709 H 1377.02 -2.44594 -3.4315 0
M  V30 14710 H 1375.7 -1.35605 -2.93927 0
M  V30 14711 H 1374.6 -3.32421 -1.71602 0
M  V30 14712 H 1375.94 -4.36457 -2.27523 0
M  V30 14713 N 1377.59 0.500963 -1.49426 0
M  V30 14714 C 1378.84 1.25261 -1.58601 0
M  V30 14715 C 1379.16 1.93056 -0.274647 0
M  V30 14716 O 1378.43 1.82736 0.706003 0
M  V30 14717 H 1377.01 0.465328 -0.584362 0
M  V30 14718 H 1379.67 0.580588 -1.86052 0
M  V30 14719 H 1378.77 2.01652 -2.38208 0
M  V30 14720 N 1379.07 1.38501 0.752011 0
M  V30 14721 C 1380.31 1.34995 1.51341 0
M  V30 14722 C 1380.65 -0.0594724 1.94109 0
M  V30 14723 O 1379.92 -1.02098 1.65548 0
M  V30 14724 C 1380.2 2.30705 2.76491 0
M  V30 14725 C 1380.06 3.80515 2.39851 0
M  V30 14726 C 1381.38 2.24521 3.78521 0
M  V30 14727 H 1378.5 0.491687 0.549011 0
M  V30 14728 H 1381.14 1.69361 0.861205 0
M  V30 14729 H 1379.29 2.01529 3.32142 0
M  V30 14730 H 1380.96 4.20371 1.89962 0
M  V30 14731 H 1379.2 3.98119 1.7229 0
M  V30 14732 H 1379.87 4.42946 3.29397 0
M  V30 14733 H 1382.35 2.50282 3.32413 0
M  V30 14734 H 1381.23 2.93598 4.63779 0
M  V30 14735 H 1381.49 1.24457 4.2422 0
M  V30 14736 N 1380.55 -0.980364 1.23396 0
M  V30 14737 C 1381.49 -2.07275 1.01516 0
M  V30 14738 C 1382.46 -1.65963 -0.0673729 0
M  V30 14739 O 1383.65 -1.90612 0.0847392 0
M  V30 14740 C 1380.79 -3.39621 0.61249 0
M  V30 14741 C 1379.9 -3.94203 1.76715 0
M  V30 14742 C 1379.04 -5.14761 1.31126 0
M  V30 14743 C 1378.07 -5.61509 2.43667 0
M  V30 14744 N 1377.21 -6.73297 1.99035 0
M  V30 14745 H 1382.05 -2.25325 1.9502 0
M  V30 14746 H 1379.59 -1.10452 0.971532 0
M  V30 14747 H 1381.55 -4.15643 0.360126 0
M  V30 14748 H 1380.18 -3.21535 -0.285539 0
M  V30 14749 H 1379.23 -3.14937 2.13352 0
M  V30 14750 H 1380.54 -4.24867 2.61323 0
M  V30 14751 H 1379.69 -5.98115 1.01702 0
M  V30 14752 H 1378.43 -4.85751 0.435555 0
M  V30 14753 H 1377.44 -4.76737 2.73865 0
M  V30 14754 H 1378.66 -5.92539 3.31774 0
M  V30 14755 H 1376.61 -6.46046 1.13845 0
M  V30 14756 H 1376.53 -7.03345 2.77203 0
M  V30 14757 H 1377.79 -7.60125 1.72716 0
M  V30 14758 N 1382.02 -1.04567 -1.17913 0
M  V30 14759 C 1383.44 -0.76584 -1.40025 0
M  V30 14760 C 1383.64 0.642484 -1.90983 0
M  V30 14761 O 1382.7 1.40589 -2.0974 0
M  V30 14762 C 1384.01 -1.81616 -2.39658 0
M  V30 14763 C 1385.56 -1.83765 -2.53376 0
M  V30 14764 C 1386.03 -2.87803 -3.56277 0
M  V30 14765 N 1387.52 -2.86726 -3.63789 0
M  V30 14766 C 1388.26 -3.63876 -4.4315 0
M  V30 14767 N 1387.75 -4.50793 -5.26077 0
M  V30 14768 N 1389.55 -3.52344 -4.37962 0
M  V30 14769 H 1381.7 -1.95442 -0.831647 0
M  V30 14770 H 1383.96 -0.84593 -0.42791 0
M  V30 14771 H 1383.67 -2.8266 -2.09275 0
M  V30 14772 H 1383.54 -1.65251 -3.39075 0
M  V30 14773 H 1385.93 -0.833896 -2.83073 0
M  V30 14774 H 1386.01 -2.04208 -1.54055 0
M  V30 14775 H 1385.65 -3.88361 -3.2732 0
M  V30 14776 H 1385.58 -2.64614 -4.55288 0
M  V30 14777 H 1388.07 -2.237 -3.04576 0
M  V30 14778 H 1388.39 -5.0636 -5.83798 0
M  V30 14779 H 1386.73 -4.54858 -5.2548 0
M  V30 14780 H 1389.92 -2.8384 -3.72226 0
M  V30 14781 H 1390.1 -4.12718 -4.99568 0
M  V30 14782 N 1383.5 1.34231 -0.825823 0
M  V30 14783 C 1384.41 2.33245 -0.251803 0
M  V30 14784 C 1385.43 1.62756 0.615334 0
M  V30 14785 O 1386.6 1.94503 0.522547 0
M  V30 14786 C 1383.67 3.41908 0.574456 0
M  V30 14787 C 1382.73 4.2814 -0.315422 0
M  V30 14788 C 1381.96 5.31613 0.471496 0
M  V30 14789 O 1382.19 5.44337 1.70449 0
M  V30 14790 O 1381.12 6.01719 -0.147691 0
M  V30 14791 H 1384.95 2.84174 -1.07139 0
M  V30 14792 H 1382.53 1.37341 -0.588032 0
M  V30 14793 H 1384.41 4.08252 1.04444 0
M  V30 14794 H 1383.09 2.93217 1.37132 0
M  V30 14795 H 1381.99 3.64709 -0.832963 0
M  V30 14796 H 1383.33 4.80279 -1.07672 0
M  V30 14797 N 1384.98 0.581051 1.46498 0
M  V30 14798 C 1386.2 0.0696654 2.07283 0
M  V30 14799 C 1386.63 -1.22525 1.42721 0
M  V30 14800 O 1385.99 -1.73967 0.510421 0
M  V30 14801 C 1386.04 -0.0843864 3.60501 0
M  V30 14802 O 1385.14 -1.14129 3.96293 0
M  V30 14803 H 1384.48 0.0620572 0.661094 0
M  V30 14804 H 1387.01 0.803522 1.88161 0
M  V30 14805 H 1387.02 -0.29108 4.0696 0
M  V30 14806 H 1385.7 0.861274 4.06884 0
M  V30 14807 H 1384.27 -0.913186 3.61546 0
M  V30 14808 N 1386.46 -1.54343 0.318742 0
M  V30 14809 C 1387.69 -2.04597 -0.286961 0
M  V30 14810 C 1388.1 -1.19474 -1.46706 0
M  V30 14811 O 1387.44 -0.217082 -1.82413 0
M  V30 14812 C 1387.5 -3.50729 -0.789262 0
M  V30 14813 C 1387.16 -4.56214 0.267888 0
M  V30 14814 C 1388.16 -5.08079 1.10235 0
M  V30 14815 C 1385.85 -5.00585 0.414691 0
M  V30 14816 C 1387.84 -6.02872 2.06938 0
M  V30 14817 C 1385.53 -5.95195 1.38515 0
M  V30 14818 C 1386.53 -6.46224 2.21097 0
M  V30 14819 O 1386.21 -7.38976 3.16495 0
M  V30 14820 H 1385.95 -0.672994 -0.0636843 0
M  V30 14821 H 1388.5 -2.00147 0.461569 0
M  V30 14822 H 1386.73 -3.52562 -1.58862 0
M  V30 14823 H 1388.42 -3.84084 -1.31278 0
M  V30 14824 H 1389.18 -4.74581 0.999893 0
M  V30 14825 H 1385.06 -4.60483 -0.21819 0
M  V30 14826 H 1388.61 -6.42627 2.71435 0
M  V30 14827 H 1384.5 -6.28109 1.48826 0
M  V30 14828 H 1385.27 -7.56835 3.11678 0
M  V30 14829 N 1387.94 -0.0468143 -1.5753 0
M  V30 14830 C 1389.16 0.641161 -1.97241 0
M  V30 14831 C 1389.59 1.6384 -0.92401 0
M  V30 14832 O 1388.94 1.80946 0.113229 0
M  V30 14833 C 1388.99 1.30832 -3.36029 0
M  V30 14834 O 1388.1 2.42394 -3.33645 0
M  V30 14835 H 1387.44 0.167035 -0.642647 0
M  V30 14836 H 1389.97 -0.113921 -2.04283 0
M  V30 14837 H 1389.98 1.66102 -3.72658 0
M  V30 14838 H 1388.65 0.57744 -4.11872 0
M  V30 14839 H 1387.23 2.09104 -3.08756 0
M  V30 14840 N 1389.41 1.55964 0.226527 0
M  V30 14841 C 1390.66 1.78392 0.94977 0
M  V30 14842 C 1390.98 0.614444 1.85066 0
M  V30 14843 O 1390.25 -0.368894 1.92395 0
M  V30 14844 H 1388.83 0.657962 0.353688 0
M  V30 14845 H 1391.5 1.93422 0.239577 0
M  V30 14846 H 1390.59 2.70343 1.55952 0
M  V30 14847 N 1390.89 -0.493031 1.4969 0
M  V30 14848 C 1392.14 -1.24849 1.59814 0
M  V30 14849 C 1392.47 -1.92059 0.287555 0
M  V30 14850 O 1391.75 -1.81099 -0.709471 0
M  V30 14851 C 1392.03 -2.30929 2.76304 0
M  V30 14852 C 1391.88 -1.68167 4.17181 0
M  V30 14853 C 1393.2 -3.32427 2.8841 0
M  V30 14854 H 1390.32 -0.452553 0.581691 0
M  V30 14855 H 1392.96 -0.545455 1.82002 0
M  V30 14856 H 1391.11 -2.9089 2.57517 0
M  V30 14857 H 1392.78 -1.11971 4.47504 0
M  V30 14858 H 1391.03 -0.985496 4.22458 0
M  V30 14859 H 1391.7 -2.45148 4.94577 0
M  V30 14860 H 1394.17 -2.82464 3.05537 0
M  V30 14861 H 1393.05 -4.04004 3.71581 0
M  V30 14862 H 1393.31 -3.95234 1.98097 0
M  V30 14863 N 1392.37 -1.38898 -0.744656 0
M  V30 14864 C 1393.6 -1.38848 -1.53391 0
M  V30 14865 C 1394.01 0.0194949 -1.8879 0
M  V30 14866 O 1393.37 0.988399 -1.53417 0
M  V30 14867 C 1393.42 -2.25243 -2.8275 0
M  V30 14868 O 1393.14 -3.60557 -2.48858 0
M  V30 14869 C 1394.64 -2.33471 -3.76837 0
M  V30 14870 H 1391.86 -0.4746 -0.474338 0
M  V30 14871 H 1394.41 -1.82591 -0.920902 0
M  V30 14872 H 1392.56 -1.84938 -3.40407 0
M  V30 14873 H 1392.98 -4.06142 -3.31887 0
M  V30 14874 H 1394.45 -2.9819 -4.64528 0
M  V30 14875 H 1394.93 -1.351 -4.17905 0
M  V30 14876 H 1395.53 -2.74205 -3.25103 0
M  V30 14877 N 1393.85 0.973806 -1.23914 0
M  V30 14878 C 1394.78 2.08526 -1.05068 0
M  V30 14879 C 1395.76 1.70065 0.0344761 0
M  V30 14880 O 1396.94 1.93755 -0.131432 0
M  V30 14881 C 1394.07 3.41198 -0.648165 0
M  V30 14882 C 1393.03 3.9359 -1.6814 0
M  V30 14883 C 1392.35 5.22534 -1.13414 0
M  V30 14884 C 1393.65 4.22116 -3.07597 0
M  V30 14885 H 1395.35 2.24551 -1.98034 0
M  V30 14886 H 1392.89 1.07905 -0.953546 0
M  V30 14887 H 1394.85 4.18383 -0.50334 0
M  V30 14888 H 1393.57 3.25056 0.317182 0
M  V30 14889 H 1392.23 3.18555 -1.81434 0
M  V30 14890 H 1391.88 5.02747 -0.159578 0
M  V30 14891 H 1391.58 5.58555 -1.82456 0
M  V30 14892 H 1393.1 6.02334 -1.0013 0
M  V30 14893 H 1394.52 4.90027 -2.97567 0
M  V30 14894 H 1392.91 4.69352 -3.73937 0
M  V30 14895 H 1393.98 3.29128 -3.56094 0
M  V30 14896 N 1395.33 1.05191 1.17357 0
M  V30 14897 C 1396.6 0.675826 1.83554 0
M  V30 14898 C 1396.98 -0.843812 1.93502 0
M  V30 14899 O 1396.33 -1.74975 1.46956 0
M  V30 14900 C 1396.54 1.36481 3.21207 0
M  V30 14901 C 1397.89 1.50285 3.97114 0
M  V30 14902 O 1398.91 1.32382 3.30686 0
M  V30 14903 O 1397.77 1.79562 5.16159 0
M  V30 14904 H 1394.87 0.237898 0.792044 0
M  V30 14905 H 1397.41 1.1515 1.24654 0
M  V30 14906 H 1396.18 2.40156 3.08935 0
M  V30 14907 H 1395.81 0.878491 3.87774 0
M  V30 14908 N 1396.8 -1.33791 0.83293 0
M  V30 14909 C 1398.22 -1.80336 0.483294 0
M  V30 14910 C 1398.57 -1.68969 -0.997195 0
M  V30 14911 O 1397.69 -1.23549 -1.77664 0
M  V30 14912 C 1398.29 -3.27427 0.870475 0
M  V30 14913 C 1396.85 -3.72012 0.573064 0
M  V30 14914 C 1395.99 -2.55319 1.08201 0
M  V30 14915 H 1398.94 -1.21396 1.02218 0
M  V30 14916 H 1398.96 -3.80083 0.178173 0
M  V30 14917 H 1398.48 -3.35668 1.94804 0
M  V30 14918 H 1396.58 -3.69302 -0.494678 0
M  V30 14919 H 1396.69 -4.65725 1.12414 0
M  V30 14920 H 1395.05 -2.49681 0.503123 0
M  V30 14921 H 1395.84 -2.66326 2.16623 0
M  V30 14922 N 1398.28 -0.588812 -1.46187 0
M  V30 14923 C 1399.7 -0.250962 -1.57615 0
M  V30 14924 C 1399.9 1.2467 -1.58302 0
M  V30 14925 O 1398.95 2.02876 -1.50325 0
M  V30 14926 C 1400.27 -0.905561 -2.8674 0
M  V30 14927 C 1401.82 -0.879721 -3.00383 0
M  V30 14928 C 1402.29 -1.51398 -4.32253 0
M  V30 14929 N 1403.78 -1.4786 -4.38967 0
M  V30 14930 C 1404.52 -1.93868 -5.39632 0
M  V30 14931 N 1404.01 -2.47876 -6.46938 0
M  V30 14932 N 1405.81 -1.84748 -5.30872 0
M  V30 14933 H 1397.96 -1.56148 -1.43985 0
M  V30 14934 H 1400.22 -0.653028 -0.68721 0
M  V30 14935 H 1399.93 -1.95935 -2.92066 0
M  V30 14936 H 1399.8 -0.417456 -3.74883 0
M  V30 14937 H 1402.19 0.165466 -2.94636 0
M  V30 14938 H 1402.27 -1.40591 -2.137 0
M  V30 14939 H 1401.91 -2.55839 -4.38758 0
M  V30 14940 H 1401.84 -0.962965 -5.17721 0
M  V30 14941 H 1404.33 -1.08387 -3.62023 0
M  V30 14942 H 1404.65 -2.80824 -7.1997 0
M  V30 14943 H 1402.99 -2.51905 -6.47741 0
M  V30 14944 H 1406.18 -1.42307 -4.45944 0
M  V30 14945 H 1406.35 -2.20919 -6.09179 0
M  V30 14946 N 1399.76 1.54172 -0.326923 0
M  V30 14947 C 1401.01 2.00233 0.274098 0
M  V30 14948 C 1401.33 1.21665 1.5239 0
M  V30 14949 O 1400.6 0.319359 1.93279 0
M  V30 14950 H 1399.18 0.739687 0.104271 0
M  V30 14951 H 1401.84 1.8977 -0.444244 0
M  V30 14952 H 1400.94 3.07599 0.528154 0
M  V30 14953 N 1401.24 0.0551678 1.57503 0
M  V30 14954 C 1402.49 -0.617201 1.92025 0
M  V30 14955 C 1402.8 -1.71767 0.93571 0
M  V30 14956 O 1404.01 -2.44847 1.17312 0
M  V30 14957 C 1402.46 -1.14915 3.41061 0
M  V30 14958 C 1402.07 -0.0805814 4.47928 0
M  V30 14959 C 1403.81 -1.79654 3.8461 0
M  V30 14960 C 1401.72 -0.625639 5.88081 0
M  V30 14961 H 1400.65 -0.23431 0.716669 0
M  V30 14962 H 1403.3 0.124706 1.83076 0
M  V30 14963 H 1401.68 -1.9435 3.45028 0
M  V30 14964 H 1402.86 0.693222 4.55556 0
M  V30 14965 H 1401.17 0.469581 4.13744 0
M  V30 14966 H 1403.77 -2.21436 4.86693 0
M  V30 14967 H 1404.11 -2.64987 3.21073 0
M  V30 14968 H 1404.65 -1.06868 3.83176 0
M  V30 14969 H 1401.39 0.190148 6.55224 0
M  V30 14970 H 1400.91 -1.36734 5.84007 0
M  V30 14971 H 1402.58 -1.10728 6.37454 0
M  V30 14972 N 1402.72 -1.56081 -0.218252 0
M  V30 14973 C 1403.95 -1.83069 -0.957574 0
M  V30 14974 C 1404.35 -0.6325 -1.78315 0
M  V30 14975 O 1403.7 0.408298 -1.79105 0
M  V30 14976 C 1403.76 -3.03835 -1.92157 0
M  V30 14977 C 1403.42 -4.38702 -1.2802 0
M  V30 14978 C 1404.42 -5.15585 -0.66846 0
M  V30 14979 C 1402.11 -4.85427 -1.29098 0
M  V30 14980 C 1404.1 -6.37355 -0.0760499 0
M  V30 14981 C 1401.79 -6.07138 -0.69473 0
M  V30 14982 C 1402.78 -6.82943 -0.0883201 0
M  V30 14983 O 1402.47 -8.02352 0.498648 0
M  V30 14984 H 1402.2 -0.612493 -0.286057 0
M  V30 14985 H 1404.76 -2.04021 -0.23759 0
M  V30 14986 H 1402.99 -2.78709 -2.68064 0
M  V30 14987 H 1404.68 -3.17666 -2.52672 0
M  V30 14988 H 1405.44 -4.80592 -0.652434 0
M  V30 14989 H 1401.32 -4.26395 -1.75238 0
M  V30 14990 H 1404.87 -6.96464 0.397893 0
M  V30 14991 H 1400.76 -6.41604 -0.70818 0
M  V30 14992 H 1401.53 -8.17555 0.393289 0
M  V30 14993 N 1404.2 0.485086 -1.49949 0
M  V30 14994 C 1405.44 1.23571 -1.5992 0
M  V30 14995 C 1405.76 1.92754 -0.295108 0
M  V30 14996 O 1405.03 1.83474 0.686582 0
M  V30 14997 H 1403.61 0.459104 -0.589264 0
M  V30 14998 H 1406.28 0.560822 -1.86657 0
M  V30 14999 H 1405.37 1.99114 -2.40333 0
M  V30 15000 N 1405.67 1.39291 0.737279 0
M  V30 15001 C 1406.9 1.39659 1.52653 0
M  V30 15002 C 1407.32 -0.00948259 1.88798 0
M  V30 15003 O 1406.67 -0.980249 1.53939 0
M  V30 15004 C 1406.72 2.2674 2.81552 0
M  V30 15005 O 1406.45 3.61871 2.46943 0
M  V30 15006 C 1407.95 2.35466 3.75594 0
M  V30 15007 H 1405.17 0.477108 0.471814 0
M  V30 15008 H 1407.71 1.83077 0.911205 0
M  V30 15009 H 1405.87 1.86741 3.39421 0
M  V30 15010 H 1406.28 4.07897 3.29728 0
M  V30 15011 H 1407.75 3.00649 4.62941 0
M  V30 15012 H 1408.23 1.37314 4.17183 0
M  V30 15013 H 1408.84 2.75925 3.23644 0
M  V30 15014 N 1407.15 -0.967221 1.24429 0
M  V30 15015 C 1408.4 -1.70458 1.07829 0
M  V30 15016 C 1408.71 -1.91818 -0.38278 0
M  V30 15017 O 1409.92 -2.63129 -0.668982 0
M  V30 15018 C 1408.38 -3.06817 1.88125 0
M  V30 15019 C 1407.98 -2.93298 3.38645 0
M  V30 15020 C 1409.73 -3.84422 1.80056 0
M  V30 15021 C 1407.63 -4.2497 4.11284 0
M  V30 15022 H 1406.56 -0.639217 0.399897 0
M  V30 15023 H 1409.22 -1.07776 1.48515 0
M  V30 15024 H 1407.6 -3.70331 1.40254 0
M  V30 15025 H 1408.77 -2.38793 3.94099 0
M  V30 15026 H 1407.09 -2.29159 3.47671 0
M  V30 15027 H 1409.68 -4.81925 2.31629 0
M  V30 15028 H 1410.03 -4.09194 0.765908 0
M  V30 15029 H 1410.56 -3.27636 2.2561 0
M  V30 15030 H 1407.3 -4.05391 5.1511 0
M  V30 15031 H 1406.82 -4.79288 3.60615 0
M  V30 15032 H 1408.5 -4.93586 4.18308 0
M  V30 15033 N 1408.63 -1.05812 -1.16797 0
M  V30 15034 C 1409.85 -0.792518 -1.91661 0
M  V30 15035 C 1410.28 0.646598 -1.76637 0
M  V30 15036 O 1409.64 1.44998 -1.08836 0
M  V30 15037 C 1409.69 -1.18585 -3.40544 0
M  V30 15038 O 1408.79 -0.321716 -4.11143 0
M  V30 15039 H 1408.13 -0.290066 -0.597292 0
M  V30 15040 H 1410.66 -1.41263 -1.48007 0
M  V30 15041 H 1410.67 -1.1553 -3.91301 0
M  V30 15042 H 1409.35 -2.23413 -3.50798 0
M  V30 15043 H 1407.92 -0.413403 -3.70601 0
M  V30 15044 N 1410.11 1.33347 -0.840014 0
M  V30 15045 C 1411.52 1.50615 -0.52795 0
M  V30 15046 C 1411.72 1.77993 0.944493 0
M  V30 15047 O 1410.78 1.84087 1.72824 0
M  V30 15048 C 1412.09 2.66001 -1.40228 0
M  V30 15049 C 1413.64 2.79886 -1.40117 0
M  V30 15050 C 1414.12 3.98335 -2.26038 0
M  V30 15051 N 1415.61 4.05572 -2.23753 0
M  V30 15052 C 1416.34 4.96422 -2.86972 0
M  V30 15053 N 1415.84 5.9238 -3.59247 0
M  V30 15054 N 1417.63 4.89428 -2.76436 0
M  V30 15055 H 1409.78 1.13839 -1.79317 0
M  V30 15056 H 1412.04 0.559772 -0.765088 0
M  V30 15057 H 1411.75 2.52453 -2.44868 0
M  V30 15058 H 1411.62 3.61434 -1.07914 0
M  V30 15059 H 1414.01 2.92865 -0.362487 0
M  V30 15060 H 1414.09 1.85211 -1.76439 0
M  V30 15061 H 1413.74 3.86115 -3.29966 0
M  V30 15062 H 1413.67 4.92257 -1.87057 0
M  V30 15063 H 1416.16 3.36899 -1.71195 0
M  V30 15064 H 1416.47 6.58367 -4.04688 0
M  V30 15065 H 1414.82 5.92451 -3.63354 0
M  V30 15066 H 1418.01 4.13428 -2.19534 0
M  V30 15067 H 1418.18 5.60032 -3.25989 0
M  V30 15068 N 1411.59 0.596556 1.45873 0
M  V30 15069 C 1413 0.259317 1.57479 0
M  V30 15070 C 1413.2 -1.23829 1.58961 0
M  V30 15071 O 1412.26 -2.02076 1.51399 0
M  V30 15072 C 1413.57 0.920755 2.86256 0
M  V30 15073 C 1415.12 0.895638 2.99912 0
M  V30 15074 C 1415.59 1.53688 4.31444 0
M  V30 15075 N 1417.08 1.50186 4.38176 0
M  V30 15076 C 1417.82 1.96727 5.38596 0
M  V30 15077 N 1417.32 2.51304 6.45615 0
M  V30 15078 N 1419.11 1.87561 5.29884 0
M  V30 15079 H 1411.26 1.56909 1.43155 0
M  V30 15080 H 1413.52 0.656664 0.683737 0
M  V30 15081 H 1413.23 1.97481 2.91023 0
M  V30 15082 H 1413.1 0.437331 3.74656 0
M  V30 15083 H 1415.49 -0.149838 2.94719 0
M  V30 15084 H 1415.57 1.41722 2.12952 0
M  V30 15085 H 1415.21 2.58163 4.37395 0
M  V30 15086 H 1415.14 0.990408 5.17203 0
M  V30 15087 H 1417.64 1.10305 3.61443 0
M  V30 15088 H 1417.95 2.84639 7.18471 0
M  V30 15089 H 1416.29 2.55337 6.46396 0
M  V30 15090 H 1419.48 1.4467 4.45183 0
M  V30 15091 H 1419.66 2.24146 6.07999 0
M  V30 15092 N 1413.06 -1.53996 0.335095 0
M  V30 15093 C 1414.01 -2.24736 -0.52559 0
M  V30 15094 C 1414.98 -1.24244 -1.10239 0
M  V30 15095 O 1416.17 -1.52955 -1.14058 0
M  V30 15096 C 1413.31 -3.01732 -1.67487 0
M  V30 15097 C 1412.42 -4.17062 -1.1262 0
M  V30 15098 C 1411.55 -4.81563 -2.2421 0
M  V30 15099 C 1410.59 -5.88977 -1.6665 0
M  V30 15100 N 1409.73 -6.47293 -2.71949 0
M  V30 15101 H 1414.57 -2.97881 0.0842008 0
M  V30 15102 H 1412.11 -1.47003 0.0533254 0
M  V30 15103 H 1414.06 -3.44626 -2.35135 0
M  V30 15104 H 1412.69 -2.30899 -2.25578 0
M  V30 15105 H 1411.75 -3.78869 -0.340917 0
M  V30 15106 H 1413.06 -4.94346 -0.665113 0
M  V30 15107 H 1412.21 -5.27486 -2.9974 0
M  V30 15108 H 1410.95 -4.03685 -2.73659 0
M  V30 15109 H 1409.96 -5.42446 -0.89623 0
M  V30 15110 H 1411.18 -6.68758 -1.18064 0
M  V30 15111 H 1409.13 -5.72283 -3.20668 0
M  V30 15112 H 1409.04 -7.20024 -2.30438 0
M  V30 15113 H 1410.31 -6.97869 -3.47273 0
M  V30 15114 N 1414.54 -0.0635198 -1.57472 0
M  V30 15115 C 1415.45 0.921531 -2.15743 0
M  V30 15116 C 1416.47 1.33294 -1.11842 0
M  V30 15117 O 1417.64 1.40733 -1.4407 0
M  V30 15118 C 1414.71 2.17378 -2.70088 0
M  V30 15119 C 1413.77 1.81956 -3.88832 0
M  V30 15120 C 1413 3.01211 -4.40577 0
M  V30 15121 O 1413.23 4.14971 -3.9135 0
M  V30 15122 O 1412.16 2.81507 -5.32012 0
M  V30 15123 H 1415.99 0.455899 -3.00259 0
M  V30 15124 H 1413.57 0.159085 -1.48551 0
M  V30 15125 H 1415.45 2.90826 -3.04956 0
M  V30 15126 H 1414.13 2.63055 -1.88637 0
M  V30 15127 H 1413.03 1.05786 -3.58832 0
M  V30 15128 H 1414.37 1.41069 -4.71551 0
M  V30 15129 N 1416.02 1.56195 0.209972 0
M  V30 15130 C 1417.27 1.79745 0.932638 0
M  V30 15131 C 1417.59 0.634252 1.83868 0
M  V30 15132 O 1416.85 -0.380798 1.91959 0
M  V30 15133 C 1417.15 3.09154 1.79328 0
M  V30 15134 C 1416.81 4.38754 1.03949 0
M  V30 15135 C 1415.48 4.73965 0.831308 0
M  V30 15136 C 1417.83 5.18718 0.508031 0
M  V30 15137 C 1415.16 5.86646 0.0799547 0
M  V30 15138 C 1417.51 6.32182 -0.230037 0
M  V30 15139 C 1416.17 6.65986 -0.449366 0
M  V30 15140 H 1415.44 0.657732 0.341276 0
M  V30 15141 H 1418.09 1.90453 0.199998 0
M  V30 15142 H 1416.39 2.93618 2.59414 0
M  V30 15143 H 1418.09 3.24578 2.35478 0
M  V30 15144 H 1414.68 4.11114 1.21174 0
M  V30 15145 H 1418.87 4.91941 0.656306 0
M  V30 15146 H 1414.12 6.11318 -0.100092 0
M  V30 15147 H 1418.3 6.93367 -0.649296 0
M  V30 15148 H 1415.92 7.53142 -1.03349 0
M  V30 15149 N 1417.5 -0.477127 1.50204 0
M  V30 15150 C 1418.91 -1.05815 1.53819 0
M  V30 15151 C 1419.26 -1.93264 0.338169 0
M  V30 15152 O 1418.38 -2.09305 -0.549576 0
M  V30 15153 C 1418.98 -1.92577 2.78746 0
M  V30 15154 C 1417.54 -2.45799 2.85061 0
M  V30 15155 C 1416.69 -1.23994 2.48034 0
M  V30 15156 H 1419.64 -0.259998 1.56556 0
M  V30 15157 H 1419.66 -2.7757 2.6026 0
M  V30 15158 H 1419.17 -1.28904 3.66068 0
M  V30 15159 H 1417.27 -3.13042 2.02077 0
M  V30 15160 H 1417.38 -2.81318 3.8781 0
M  V30 15161 H 1415.75 -1.5728 2.00338 0
M  V30 15162 H 1416.53 -0.619917 3.37657 0
M  V30 15163 N 1418.98 -1.3968 -0.729882 0
M  V30 15164 C 1420.21 -1.40263 -1.5169 0
M  V30 15165 C 1420.61 0.00325293 -1.892 0
M  V30 15166 O 1419.96 0.986225 -1.54982 0
M  V30 15167 C 1420.02 -2.21629 -2.83056 0
M  V30 15168 C 1419.68 -3.70204 -2.67951 0
M  V30 15169 C 1420.68 -4.63169 -2.36158 0
M  V30 15170 C 1418.37 -4.13851 -2.84662 0
M  V30 15171 C 1420.36 -5.97763 -2.21265 0
M  V30 15172 C 1418.05 -5.4852 -2.69387 0
M  V30 15173 C 1419.04 -6.4029 -2.37734 0
M  V30 15174 O 1418.73 -7.72478 -2.22561 0
M  V30 15175 H 1418.46 -0.480808 -0.475184 0
M  V30 15176 H 1421.02 -1.84184 -0.909136 0
M  V30 15177 H 1419.25 -1.72465 -3.46111 0
M  V30 15178 H 1420.94 -2.14328 -3.447 0
M  V30 15179 H 1421.7 -4.30748 -2.22893 0
M  V30 15180 H 1417.58 -3.42751 -3.0829 0
M  V30 15181 H 1421.13 -6.69359 -1.96481 0
M  V30 15182 H 1417.02 -5.8053 -2.82232 0
M  V30 15183 H 1417.79 -7.83258 -2.37591 0
M  V30 15184 N 1420.45 0.960609 -1.2494 0
M  V30 15185 C 1421.87 1.23057 -1.01633 0
M  V30 15186 C 1422.07 1.99676 0.270527 0
M  V30 15187 O 1421.13 2.32503 0.984823 0
M  V30 15188 C 1422.44 2.01078 -2.2358 0
M  V30 15189 C 1423.99 2.14144 -2.28279 0
M  V30 15190 C 1424.46 2.95563 -3.49867 0
M  V30 15191 N 1425.95 3.03143 -3.50227 0
M  V30 15192 C 1426.69 3.66518 -4.40967 0
M  V30 15193 N 1426.18 4.31553 -5.41972 0
M  V30 15194 N 1427.98 3.636 -4.28663 0
M  V30 15195 H 1420.13 0.447876 -2.07624 0
M  V30 15196 H 1422.39 0.260581 -0.911483 0
M  V30 15197 H 1422.1 1.52172 -3.17075 0
M  V30 15198 H 1421.97 3.01797 -2.2627 0
M  V30 15199 H 1424.36 2.6225 -1.35311 0
M  V30 15200 H 1424.44 1.1275 -2.29611 0
M  V30 15201 H 1424.08 2.48149 -4.43153 0
M  V30 15202 H 1424.01 3.9717 -3.45779 0
M  V30 15203 H 1426.5 2.56888 -2.77159 0
M  V30 15204 H 1426.82 4.7775 -6.07433 0
M  V30 15205 H 1425.16 4.302 -5.45851 0
M  V30 15206 H 1428.35 3.11973 -3.48985 0
M  V30 15207 H 1428.53 4.12706 -4.99578 0
M  V30 15208 N 1421.93 1.0643 1.16234 0
M  V30 15209 C 1423.18 0.77689 1.86138 0
M  V30 15210 C 1423.49 -0.699301 1.82672 0
M  V30 15211 O 1424.7 -1.10113 2.48168 0
M  V30 15212 C 1423.16 1.3396 3.3404 0
M  V30 15213 C 1422.76 2.84613 3.45976 0
M  V30 15214 C 1424.51 1.12979 4.09189 0
M  V30 15215 C 1422.42 3.34122 4.87972 0
M  V30 15216 H 1421.35 0.286936 0.697269 0
M  V30 15217 H 1424 1.28318 1.31174 0
M  V30 15218 H 1422.38 0.761073 3.88618 0
M  V30 15219 H 1423.55 3.48429 3.01552 0
M  V30 15220 H 1421.87 3.04277 2.84262 0
M  V30 15221 H 1424.46 1.47456 5.13966 0
M  V30 15222 H 1424.81 0.0682424 4.16244 0
M  V30 15223 H 1425.34 1.67418 3.60855 0
M  V30 15224 H 1422.08 4.39761 4.86097 0
M  V30 15225 H 1421.6 2.75055 5.33015 0
M  V30 15226 H 1423.28 3.29529 5.56794 0
M  V30 15227 N 1423.41 -1.329 0.847073 0
M  V30 15228 C 1424.82 -1.79813 0.502394 0
M  V30 15229 C 1425.17 -1.70017 -0.979218 0
M  V30 15230 O 1424.3 -1.25427 -1.76344 0
M  V30 15231 C 1424.89 -3.26485 0.905154 0
M  V30 15232 C 1423.45 -3.71383 0.612489 0
M  V30 15233 C 1422.6 -2.54157 1.10903 0
M  V30 15234 H 1425.55 -1.20306 1.035 0
M  V30 15235 H 1425.57 -3.79872 0.218476 0
M  V30 15236 H 1425.08 -3.33583 1.98353 0
M  V30 15237 H 1423.18 -3.69806 -0.45548 0
M  V30 15238 H 1423.3 -4.64507 1.17347 0
M  V30 15239 H 1421.66 -2.49134 0.529576 0
M  V30 15240 H 1422.44 -2.64013 2.19435 0
M  V30 15241 N 1424.89 -0.604284 -1.45555 0
M  V30 15242 C 1425.82 0.103859 -2.33269 0
M  V30 15243 C 1426.8 0.862104 -1.46635 0
M  V30 15244 O 1427.98 0.833308 -1.75413 0
M  V30 15245 C 1425.11 1.104 -3.29286 0
M  V30 15246 C 1424.07 0.459189 -4.2553 0
M  V30 15247 C 1423.39 1.56734 -5.11213 0
M  V30 15248 C 1424.69 -0.617509 -5.18637 0
M  V30 15249 H 1426.39 -0.628538 -2.92728 0
M  V30 15250 H 1423.93 -0.303711 -1.40761 0
M  V30 15251 H 1425.89 1.60794 -3.89517 0
M  V30 15252 H 1424.61 1.86695 -2.67979 0
M  V30 15253 H 1423.27 -0.0238508 -3.66592 0
M  V30 15254 H 1422.92 2.32049 -4.46276 0
M  V30 15255 H 1422.62 1.14142 -5.76407 0
M  V30 15256 H 1424.14 2.07361 -5.74312 0
M  V30 15257 H 1425.56 -0.197784 -5.72959 0
M  V30 15258 H 1423.95 -0.96499 -5.9229 0
M  V30 15259 H 1425.02 -1.49541 -4.61265 0
M  V30 15260 N 1426.37 1.53816 -0.343257 0
M  V30 15261 C 1427.64 1.9315 0.308609 0
M  V30 15262 C 1428.02 1.27479 1.68263 0
M  V30 15263 O 1427.37 0.425614 2.24501 0
M  V30 15264 C 1427.58 3.46912 0.381176 0
M  V30 15265 C 1428.93 4.19868 0.632153 0
M  V30 15266 O 1429.95 3.53174 0.463303 0
M  V30 15267 O 1428.81 5.38016 0.959237 0
M  V30 15268 H 1425.91 0.807169 0.180022 0
M  V30 15269 H 1428.45 1.65053 -0.394412 0
M  V30 15270 H 1427.22 3.86932 -0.583058 0
M  V30 15271 H 1426.85 3.81175 1.13099 0
M  V30 15272 N 1427.84 0.0718701 1.57436 0
M  V30 15273 C 1428.77 -0.89288 2.15754 0
M  V30 15274 C 1429.76 -1.31036 1.0846 0
M  V30 15275 O 1430.94 -1.38139 1.36496 0
M  V30 15276 C 1428.07 -2.16044 2.71923 0
M  V30 15277 C 1427.02 -1.88236 3.84384 0
M  V30 15278 C 1426.35 -3.21624 4.27156 0
M  V30 15279 C 1427.65 -1.18758 5.0862 0
M  V30 15280 H 1429.34 -0.407061 2.9662 0
M  V30 15281 H 1426.89 -0.194354 1.42682 0
M  V30 15282 H 1428.84 -2.83952 3.11366 0
M  V30 15283 H 1427.57 -2.66868 1.88279 0
M  V30 15284 H 1426.23 -1.22734 3.45445 0
M  V30 15285 H 1425.87 -3.70289 3.40433 0
M  V30 15286 H 1425.57 -3.03809 5.02965 0
M  V30 15287 H 1427.1 -3.90729 4.69215 0
M  V30 15288 H 1428.51 -1.76735 5.45378 0
M  V30 15289 H 1426.91 -1.11201 5.89707 0
M  V30 15290 H 1427.98 -0.166682 4.84613 0
M  V30 15291 N 1429.32 -1.56304 -0.201686 0
M  V30 15292 C 1430.57 -1.80504 -0.92446 0
M  V30 15293 C 1430.9 -0.644832 -1.83182 0
M  V30 15294 O 1430.18 0.354963 -1.91234 0
M  V30 15295 C 1430.46 -3.14919 -1.74636 0
M  V30 15296 C 1430.31 -4.41421 -0.864169 0
M  V30 15297 C 1431.63 -3.45962 -2.72026 0
M  V30 15298 H 1428.75 -0.656643 -0.334648 0
M  V30 15299 H 1431.39 -1.89025 -0.192188 0
M  V30 15300 H 1429.54 -3.07785 -2.37066 0
M  V30 15301 H 1431.21 -4.60594 -0.255084 0
M  V30 15302 H 1429.46 -4.33465 -0.170548 0
M  V30 15303 H 1430.13 -5.31954 -1.47409 0
M  V30 15304 H 1432.6 -3.53353 -2.1973 0
M  V30 15305 H 1431.48 -4.41146 -3.26622 0
M  V30 15306 H 1431.74 -2.69124 -3.50749 0
M  V30 15307 N 1430.8 0.469154 -1.50455 0
M  V30 15308 C 1432.21 1.04997 -1.54378 0
M  V30 15309 C 1432.56 1.93082 -0.348414 0
M  V30 15310 O 1431.69 2.09594 0.538469 0
M  V30 15311 C 1432.28 1.91096 -2.79764 0
M  V30 15312 C 1430.84 2.44283 -2.86361 0
M  V30 15313 C 1429.99 1.22676 -2.48688 0
M  V30 15314 H 1432.94 0.251692 -1.56691 0
M  V30 15315 H 1432.96 2.76186 -2.61728 0
M  V30 15316 H 1432.47 1.26961 -3.66746 0
M  V30 15317 H 1430.57 3.11966 -2.03735 0
M  V30 15318 H 1430.69 2.79258 -3.89297 0
M  V30 15319 H 1429.05 1.56215 -2.01169 0
M  V30 15320 H 1429.83 0.602002 -3.37981 0
M  V30 15321 N 1432.28 1.40065 0.722464 0
M  V30 15322 C 1433.23 1.39784 1.83655 0
M  V30 15323 C 1434.2 0.255743 1.64119 0
M  V30 15324 O 1435.38 0.452766 1.8535 0
M  V30 15325 C 1432.52 1.25946 3.21297 0
M  V30 15326 C 1431.63 2.49805 3.52451 0
M  V30 15327 C 1430.77 2.2846 4.79562 0
M  V30 15328 C 1429.81 3.4793 5.03598 0
M  V30 15329 N 1428.94 3.25823 6.21919 0
M  V30 15330 H 1433.78 2.35013 1.83229 0
M  V30 15331 H 1431.32 1.16728 0.895154 0
M  V30 15332 H 1433.28 1.15931 4.00769 0
M  V30 15333 H 1431.91 0.343402 3.20968 0
M  V30 15334 H 1430.96 2.70375 2.67585 0
M  V30 15335 H 1432.27 3.38753 3.66126 0
M  V30 15336 H 1431.43 2.15758 5.67039 0
M  V30 15337 H 1430.17 1.36926 4.68084 0
M  V30 15338 H 1429.17 3.61116 4.14579 0
M  V30 15339 H 1430.4 4.40382 5.16953 0
M  V30 15340 H 1428.34 2.36965 6.11705 0
M  V30 15341 H 1428.26 4.08333 6.36239 0
M  V30 15342 H 1429.53 3.16841 7.12202 0
M  V30 15343 N 1433.76 -0.95397 1.25448 0
M  V30 15344 C 1434.99 -1.73331 1.12977 0
M  V30 15345 C 1435.4 -1.86131 -0.316364 0
M  V30 15346 O 1434.76 -1.35951 -1.21753 0
M  V30 15347 C 1434.81 -3.14675 1.77938 0
M  V30 15348 O 1434.53 -3.025 3.16899 0
M  V30 15349 C 1436.03 -4.08884 1.71256 0
M  V30 15350 H 1433.25 -0.543118 0.394036 0
M  V30 15351 H 1435.79 -1.19678 1.65823 0
M  V30 15352 H 1433.95 -3.6527 1.29062 0
M  V30 15353 H 1434.36 -3.91668 3.4885 0
M  V30 15354 H 1435.84 -5.05668 2.21368 0
M  V30 15355 H 1436.31 -4.33959 0.676476 0
M  V30 15356 H 1436.92 -3.64205 2.19624 0
M  V30 15357 N 1435.24 -1.07045 -1.15668 0
M  V30 15358 C 1436.15 -0.699332 -2.23934 0
M  V30 15359 C 1437.16 0.288036 -1.71599 0
M  V30 15360 O 1438.34 0.135447 -2.00944 0
M  V30 15361 C 1435.4 -0.0994775 -3.46557 0
M  V30 15362 C 1434.46 -1.13968 -4.13896 0
M  V30 15363 C 1433.7 -0.56836 -5.30665 0
M  V30 15364 O 1433.92 0.616556 -5.67058 0
M  V30 15365 O 1432.85 -1.31174 -5.87432 0
M  V30 15366 H 1436.68 -1.60212 -2.58003 0
M  V30 15367 H 1434.26 -0.843202 -1.23331 0
M  V30 15368 H 1436.15 0.23293 -4.20756 0
M  V30 15369 H 1434.82 0.776684 -3.14244 0
M  V30 15370 H 1433.73 -1.5244 -3.41633 0
M  V30 15371 H 1435.06 -1.98764 -4.50282 0
M  V30 15372 N 1436.71 1.32449 -0.85411 0
M  V30 15373 C 1437.96 1.96537 -0.453451 0
M  V30 15374 C 1438.28 1.68344 0.995982 0
M  V30 15375 O 1439.48 2.26166 1.50204 0
M  V30 15376 C 1437.94 3.51785 -0.759934 0
M  V30 15377 C 1437.55 3.88838 -2.22506 0
M  V30 15378 C 1439.29 4.22347 -0.426973 0
M  V30 15379 C 1437.2 5.37129 -2.47479 0
M  V30 15380 H 1436.13 0.735537 -0.165835 0
M  V30 15381 H 1438.78 1.50851 -1.04481 0
M  V30 15382 H 1437.16 3.95879 -0.0980116 0
M  V30 15383 H 1438.33 3.55756 -2.92873 0
M  V30 15384 H 1436.65 3.31299 -2.52249 0
M  V30 15385 H 1439.25 5.31424 -0.590986 0
M  V30 15386 H 1439.59 4.11485 0.631359 0
M  V30 15387 H 1440.12 3.83835 -1.04477 0
M  V30 15388 H 1436.86 5.53012 -3.51935 0
M  V30 15389 H 1436.38 5.71619 -1.8169 0
M  V30 15390 H 1438.06 6.04204 -2.31401 0
M  V30 15391 N 1438.19 0.611994 1.45232 0
M  V30 15392 C 1439.14 -0.104265 2.30564 0
M  V30 15393 C 1440.11 -0.855676 1.42364 0
M  V30 15394 O 1441.29 -0.840534 1.71288 0
M  V30 15395 C 1438.43 -1.09274 3.27343 0
M  V30 15396 C 1437.55 -0.341747 4.30646 0
M  V30 15397 C 1436.68 -1.32034 5.14529 0
M  V30 15398 C 1435.72 -0.557405 6.09557 0
M  V30 15399 N 1434.86 -1.4855 6.86205 0
M  V30 15400 H 1439.7 0.629396 2.91278 0
M  V30 15401 H 1437.23 0.322177 1.43528 0
M  V30 15402 H 1439.19 -1.67902 3.81923 0
M  V30 15403 H 1437.82 -1.79376 2.68373 0
M  V30 15404 H 1436.87 0.360114 3.78692 0
M  V30 15405 H 1438.19 0.253328 4.98156 0
M  V30 15406 H 1437.34 -1.97854 5.73532 0
M  V30 15407 H 1436.08 -1.94934 4.47048 0
M  V30 15408 H 1435.08 0.114401 5.49681 0
M  V30 15409 H 1436.31 0.0666137 6.79067 0
M  V30 15410 H 1434.26 -2.10207 6.21409 0
M  V30 15411 H 1434.17 -0.943972 7.50083 0
M  V30 15412 H 1435.44 -2.13314 7.49745 0
M  V30 15413 N 1439.67 -1.53632 0.351409 0
M  V30 15414 C 1441.09 -1.596 -0.000214515 0
M  V30 15415 C 1441.29 -1.36709 -1.4803 0
M  V30 15416 O 1440.34 -1.16524 -2.24006 0
M  V30 15417 C 1441.65 -2.97419 0.443013 0
M  V30 15418 C 1443.2 -3.10485 0.396025 0
M  V30 15419 C 1443.68 -4.50693 0.814843 0
M  V30 15420 N 1445.17 -4.56766 0.76934 0
M  V30 15421 C 1445.9 -5.63418 1.06526 0
M  V30 15422 N 1445.4 -6.77887 1.42974 0
M  V30 15423 N 1447.19 -5.53331 0.988986 0
M  V30 15424 H 1439.34 -1.66765 1.31542 0
M  V30 15425 H 1441.61 -0.781418 0.53674 0
M  V30 15426 H 1441.31 -3.19262 1.47529 0
M  V30 15427 H 1441.19 -3.76781 -0.177725 0
M  V30 15428 H 1443.57 -2.8836 -0.627092 0
M  V30 15429 H 1443.65 -2.33163 1.05207 0
M  V30 15430 H 1443.3 -4.73554 1.83601 0
M  V30 15431 H 1443.23 -5.26424 0.136193 0
M  V30 15432 H 1445.72 -3.74569 0.500623 0
M  V30 15433 H 1446.03 -7.55194 1.64018 0
M  V30 15434 H 1444.38 -6.79314 1.46827 0
M  V30 15435 H 1447.57 -4.62783 0.703526 0
M  V30 15436 H 1447.74 -6.36355 1.22295 0
M  V30 15437 N 1441.15 -0.0802183 -1.57396 0
M  V30 15438 C 1442.4 0.586573 -1.92982 0
M  V30 15439 C 1442.71 1.70256 -0.962918 0
M  V30 15440 O 1443.92 2.4295 -1.21193 0
M  V30 15441 C 1442.37 1.09475 -3.42846 0
M  V30 15442 C 1441.98 0.0093098 -4.47999 0
M  V30 15443 C 1443.72 1.73512 -3.87419 0
M  V30 15444 C 1441.63 0.532002 -5.89002 0
M  V30 15445 H 1440.56 0.222878 -0.720306 0
M  V30 15446 H 1443.21 -0.153816 -1.82854 0
M  V30 15447 H 1441.59 1.88836 -3.48076 0
M  V30 15448 H 1442.77 -0.765609 -4.54395 0
M  V30 15449 H 1441.08 -0.535345 -4.12944 0
M  V30 15450 H 1443.68 2.13665 -4.90154 0
M  V30 15451 H 1444.02 2.59845 -3.25248 0
M  V30 15452 H 1444.56 1.00758 -3.84828 0
M  V30 15453 H 1441.29 -0.294364 -6.54839 0
M  V30 15454 H 1440.81 1.27425 -5.86108 0
M  V30 15455 H 1442.49 1.00573 -6.39135 0
M  V30 15456 N 1442.63 1.56409 0.193394 0
M  V30 15457 C 1443.56 1.97707 1.24234 0
M  V30 15458 C 1444.54 0.849286 1.47381 0
M  V30 15459 O 1445.72 1.11374 1.59089 0
M  V30 15460 C 1442.85 2.31804 2.5862 0
M  V30 15461 C 1441.81 3.47337 2.50082 0
M  V30 15462 C 1441.13 3.67114 3.88756 0
M  V30 15463 C 1442.43 4.81472 2.02441 0
M  V30 15464 H 1444.13 2.8558 0.89914 0
M  V30 15465 H 1441.67 1.37396 0.431078 0
M  V30 15466 H 1443.62 2.5929 3.32185 0
M  V30 15467 H 1442.35 1.40816 2.94684 0
M  V30 15468 H 1441.01 3.19944 1.78973 0
M  V30 15469 H 1440.66 2.73454 4.22175 0
M  V30 15470 H 1440.36 4.44838 3.83918 0
M  V30 15471 H 1441.88 3.96978 4.6394 0
M  V30 15472 H 1443.29 5.07978 2.65766 0
M  V30 15473 H 1441.69 5.62677 2.08601 0
M  V30 15474 H 1442.76 4.74941 0.977704 0
M  V30 15475 N 1444.1 -0.461169 1.50702 0
M  V30 15476 C 1445.33 -1.24019 1.66235 0
M  V30 15477 C 1445.75 -1.84827 0.349388 0
M  V30 15478 O 1445.11 -1.67743 -0.687888 0
M  V30 15479 C 1445.16 -2.31743 2.76274 0
M  V30 15480 O 1444.26 -3.3664 2.38217 0
M  V30 15481 H 1443.6 -0.364424 0.55506 0
M  V30 15482 H 1446.13 -0.547636 1.97135 0
M  V30 15483 H 1446.14 -2.76902 2.99649 0
M  V30 15484 H 1444.82 -1.86858 3.7156 0
M  V30 15485 H 1443.4 -2.97123 2.25327 0
M  V30 15486 N 1445.58 -1.40446 -0.715026 0
M  V30 15487 C 1446.83 -1.3896 -1.47709 0
M  V30 15488 C 1447.16 0.00798698 -1.94198 0
M  V30 15489 O 1446.44 0.976732 -1.68197 0
M  V30 15490 C 1446.72 -2.37955 -2.70277 0
M  V30 15491 C 1446.57 -3.8674 -2.29678 0
M  V30 15492 C 1447.89 -2.34478 -3.72435 0
M  V30 15493 H 1445.01 -0.50607 -0.535782 0
M  V30 15494 H 1447.65 -1.71585 -0.815999 0
M  V30 15495 H 1445.8 -2.10264 -3.26682 0
M  V30 15496 H 1447.47 -4.2526 -1.7875 0
M  V30 15497 H 1445.72 -4.02547 -1.61674 0
M  V30 15498 H 1446.39 -4.51524 -3.17538 0
M  V30 15499 H 1448.86 -2.59007 -3.2566 0
M  V30 15500 H 1447.74 -3.05791 -4.55832 0
M  V30 15501 H 1448 -1.35661 -4.20771 0
M  V30 15502 N 1447.06 0.947303 -1.25952 0
M  V30 15503 C 1448.01 2.04511 -1.06976 0
M  V30 15504 C 1448.98 1.66084 0.023347 0
M  V30 15505 O 1450.16 1.9032 -0.135247 0
M  V30 15506 C 1447.3 3.37878 -0.70232 0
M  V30 15507 C 1446.41 3.89379 -1.87105 0
M  V30 15508 C 1445.55 5.11104 -1.44728 0
M  V30 15509 C 1444.59 5.54852 -2.58469 0
M  V30 15510 N 1443.73 6.67784 -2.16817 0
M  V30 15511 H 1448.57 2.20075 -2.00925 0
M  V30 15512 H 1446.1 1.07837 -1.00048 0
M  V30 15513 H 1448.06 4.14542 -0.470199 0
M  V30 15514 H 1446.69 3.22179 0.20019 0
M  V30 15515 H 1445.74 3.09169 -2.21627 0
M  V30 15516 H 1447.05 4.17789 -2.72496 0
M  V30 15517 H 1446.21 5.95208 -1.17525 0
M  V30 15518 H 1444.95 4.84426 -0.564191 0
M  V30 15519 H 1443.95 4.69308 -2.86409 0
M  V30 15520 H 1445.18 5.83534 -3.47368 0
M  V30 15521 H 1443.12 6.428 -1.30934 0
M  V30 15522 H 1443.04 6.95749 -2.95753 0
M  V30 15523 H 1444.31 7.55278 -1.92809 0
M  V30 15524 N 1448.54 1.07657 1.15099 0
M  V30 15525 C 1449.79 0.800025 1.85591 0
M  V30 15526 C 1450.11 -0.675973 1.82909 0
M  V30 15527 O 1449.38 -1.48971 1.27218 0
M  V30 15528 H 1447.96 0.292958 0.687157 0
M  V30 15529 H 1450.62 1.36096 1.39513 0
M  V30 15530 H 1449.72 1.13733 2.90639 0
M  V30 15531 N 1450.02 -1.31994 0.861122 0
M  V30 15532 C 1450.95 -2.31214 0.325963 0
M  V30 15533 C 1451.93 -1.59965 -0.578383 0
M  V30 15534 O 1453.11 -1.87726 -0.497268 0
M  V30 15535 C 1450.24 -3.43953 -0.481001 0
M  V30 15536 C 1449.2 -4.2673 0.329474 0
M  V30 15537 C 1448.52 -5.31293 -0.602627 0
M  V30 15538 C 1449.82 -4.98498 1.55874 0
M  V30 15539 H 1451.52 -2.76223 1.15503 0
M  V30 15540 H 1449.06 -1.32797 0.556856 0
M  V30 15541 H 1451.02 -4.12409 -0.86585 0
M  V30 15542 H 1449.74 -2.97687 -1.3435 0
M  V30 15543 H 1448.4 -3.59929 0.696159 0
M  V30 15544 H 1448.05 -4.8128 -1.46215 0
M  V30 15545 H 1447.75 -5.87565 -0.0643044 0
M  V30 15546 H 1449.27 -6.02611 -0.984512 0
M  V30 15547 H 1450.68 -5.596 1.24583 0
M  V30 15548 H 1449.08 -5.64525 2.03548 0
M  V30 15549 H 1450.15 -4.25991 2.31646 0
M  V30 15550 N 1451.49 -0.619688 -1.44906 0
M  V30 15551 C 1452.42 0.0791121 -2.33366 0
M  V30 15552 C 1453.41 0.846503 -1.47541 0
M  V30 15553 O 1454.59 0.814657 -1.76287 0
M  V30 15554 C 1451.72 1.06901 -3.30438 0
M  V30 15555 C 1450.67 0.41403 -4.25993 0
M  V30 15556 C 1450 1.51303 -5.12846 0
M  V30 15557 C 1451.3 -0.672483 -5.17953 0
M  V30 15558 H 1452.99 -0.659551 -2.92045 0
M  V30 15559 H 1450.54 -0.318623 -1.40431 0
M  V30 15560 H 1452.49 1.56653 -3.912 0
M  V30 15561 H 1451.22 1.83842 -2.69944 0
M  V30 15562 H 1449.88 -0.0627315 -3.66546 0
M  V30 15563 H 1449.52 2.27303 -4.48712 0
M  V30 15564 H 1449.22 1.08022 -5.77586 0
M  V30 15565 H 1450.75 2.01258 -5.76479 0
M  V30 15566 H 1452.16 -0.258542 -5.72717 0
M  V30 15567 H 1450.56 -1.02776 -5.91234 0
M  V30 15568 H 1451.63 -1.54425 -4.59653 0
M  V30 15569 N 1452.97 1.53444 -0.359552 0
M  V30 15570 C 1454.22 2.01464 0.232366 0
M  V30 15571 C 1454.55 1.24656 1.48911 0
M  V30 15572 O 1453.83 0.338574 1.9153 0
M  V30 15573 C 1454.11 3.56172 0.530403 0
M  V30 15574 C 1453.96 4.43678 -0.739556 0
M  V30 15575 C 1455.28 4.19412 1.33347 0
M  V30 15576 H 1452.4 0.732314 0.0829802 0
M  V30 15577 H 1455.04 1.83752 -0.483253 0
M  V30 15578 H 1453.19 3.71396 1.14004 0
M  V30 15579 H 1454.86 4.40263 -1.37719 0
M  V30 15580 H 1453.11 4.11892 -1.36117 0
M  V30 15581 H 1453.78 5.49856 -0.486062 0
M  V30 15582 H 1456.25 4.07984 0.817816 0
M  V30 15583 H 1455.13 5.277 1.51075 0
M  V30 15584 H 1455.39 3.7508 2.34024 0
M  V30 15585 N 1454.45 0.0885642 1.57351 0
M  V30 15586 C 1455.7 -0.575536 1.93732 0
M  V30 15587 C 1456.02 -1.69126 0.970644 0
M  V30 15588 O 1455.29 -1.95888 0.0215907 0
M  V30 15589 H 1453.87 -0.215592 0.715213 0
M  V30 15590 H 1456.53 0.150362 1.94319 0
M  V30 15591 H 1455.63 -0.989979 2.95983 0
M  V30 15592 N 1455.93 -1.56509 -0.185096 0
M  V30 15593 C 1456.84 -1.98552 -1.24958 0
M  V30 15594 C 1457.85 -0.894713 -1.49234 0
M  V30 15595 O 1459.03 -1.20126 -1.61653 0
M  V30 15596 C 1456.1 -2.32513 -2.57175 0
M  V30 15597 C 1455.16 -3.55351 -2.40882 0
M  V30 15598 C 1454.39 -3.87683 -3.66794 0
M  V30 15599 O 1454.61 -3.21167 -4.7139 0
M  V30 15600 O 1453.55 -4.8108 -3.61726 0
M  V30 15601 H 1457.37 -2.89342 -0.922756 0
M  V30 15602 H 1454.96 -1.44196 -0.390887 0
M  V30 15603 H 1456.84 -2.55387 -3.35195 0
M  V30 15604 H 1455.51 -1.44888 -2.89464 0
M  V30 15605 H 1454.42 -3.37712 -1.60939 0
M  V30 15606 H 1455.75 -4.43474 -2.13522 0
M  V30 15607 N 1457.41 0.45317 -1.50944 0
M  V30 15608 C 1458.66 1.20076 -1.62064 0
M  V30 15609 C 1458.97 1.92709 -0.335034 0
M  V30 15610 O 1460.17 2.69543 -0.32538 0
M  V30 15611 C 1458.63 2.18283 -2.86148 0
M  V30 15612 C 1458.24 1.5137 -4.21653 0
M  V30 15613 C 1459.98 2.93572 -3.0662 0
M  V30 15614 C 1457.89 2.47968 -5.36904 0
M  V30 15615 H 1456.82 0.451894 -0.603579 0
M  V30 15616 H 1459.47 0.46937 -1.77396 0
M  V30 15617 H 1457.85 2.94789 -2.64415 0
M  V30 15618 H 1459.03 0.805295 -4.53709 0
M  V30 15619 H 1457.34 0.882935 -4.06931 0
M  V30 15620 H 1459.94 3.65903 -3.89897 0
M  V30 15621 H 1460.28 3.54003 -2.1906 0
M  V30 15622 H 1460.81 2.24175 -3.28619 0
M  V30 15623 H 1457.55 1.92249 -6.26674 0
M  V30 15624 H 1457.07 3.16907 -5.09244 0
M  V30 15625 H 1458.75 3.09428 -5.6821 0
M  V30 15626 N 1458.88 1.40823 0.707568 0
M  V30 15627 C 1459.81 1.44485 1.83429 0
M  V30 15628 C 1460.8 0.304848 1.67346 0
M  V30 15629 O 1461.98 0.514605 1.87258 0
M  V30 15630 C 1459.11 1.31458 3.21459 0
M  V30 15631 C 1458.06 2.43145 3.52228 0
M  V30 15632 C 1457.39 2.15189 4.89487 0
M  V30 15633 C 1458.69 3.85489 3.52414 0
M  V30 15634 H 1460.38 2.38781 1.80622 0
M  V30 15635 H 1457.93 1.14931 0.867572 0
M  V30 15636 H 1459.88 1.32635 3.99983 0
M  V30 15637 H 1458.61 0.336422 3.24863 0
M  V30 15638 H 1457.27 2.41231 2.76049 0
M  V30 15639 H 1456.91 1.15745 4.89502 0
M  V30 15640 H 1456.61 2.90022 5.11039 0
M  V30 15641 H 1458.14 2.18062 5.70334 0
M  V30 15642 H 1459.55 3.89183 4.20963 0
M  V30 15643 H 1457.95 4.59906 3.85495 0
M  V30 15644 H 1459.02 4.14499 2.51632 0
M  V30 15645 N 1460.36 -0.94061 1.26453 0
M  V30 15646 C 1461.59 -1.72654 1.14914 0
M  V30 15647 C 1462.01 -1.85823 -0.291789 0
M  V30 15648 O 1461.37 -1.34888 -1.2114 0
M  V30 15649 C 1461.42 -3.11083 1.82372 0
M  V30 15650 O 1460.52 -3.971 1.1129 0
M  V30 15651 H 1459.86 -0.529704 0.400387 0
M  V30 15652 H 1462.39 -1.17803 1.67283 0
M  V30 15653 H 1462.4 -3.6147 1.89219 0
M  V30 15654 H 1461.08 -3.00815 2.87199 0
M  V30 15655 H 1459.66 -3.5555 1.12423 0
M  V30 15656 N 1461.84 -1.08266 -1.14527 0
M  V30 15657 C 1462.8 -0.715117 -2.17758 0
M  V30 15658 C 1463.8 0.24935 -1.58855 0
M  V30 15659 O 1464.99 0.0290846 -1.74176 0
M  V30 15660 C 1462.13 -0.055575 -3.40855 0
M  V30 15661 H 1463.32 -1.62921 -2.51787 0
M  V30 15662 H 1460.87 -0.880346 -1.2915 0
M  V30 15663 H 1461.61 0.870312 -3.12404 0
M  V30 15664 H 1461.39 -0.749382 -3.84872 0
M  V30 15665 H 1462.88 0.186592 -4.17183 0
M  V30 15666 N 1463.32 1.31536 -0.86811 0
M  V30 15667 C 1464.57 1.97066 -0.478829 0
M  V30 15668 C 1464.9 1.68469 0.966021 0
M  V30 15669 O 1464.17 0.980166 1.67997 0
M  V30 15670 C 1464.46 3.52533 -0.734313 0
M  V30 15671 C 1464.31 3.90711 -2.22856 0
M  V30 15672 C 1465.63 4.39647 -0.199559 0
M  V30 15673 H 1462.75 0.715813 -0.175444 0
M  V30 15674 H 1465.39 1.55694 -1.08901 0
M  V30 15675 H 1463.54 3.87905 -0.214962 0
M  V30 15676 H 1465.21 3.65451 -2.81502 0
M  V30 15677 H 1463.45 3.39385 -2.70185 0
M  V30 15678 H 1464.13 4.99103 -2.35797 0
M  V30 15679 H 1466.6 4.11088 -0.643853 0
M  V30 15680 H 1465.48 5.47383 -0.407783 0
M  V30 15681 H 1465.74 4.32875 0.898414 0
M  V30 15682 N 1464.8 0.627364 1.44575 0
M  V30 15683 C 1465.73 -0.066735 2.33405 0
M  V30 15684 C 1466.71 -0.838666 1.47988 0
M  V30 15685 O 1467.89 -0.805296 1.76716 0
M  V30 15686 C 1465.02 -1.05148 3.31 0
M  V30 15687 C 1463.98 -0.391433 4.26206 0
M  V30 15688 C 1463.3 -1.48581 5.13642 0
M  V30 15689 C 1464.6 0.699942 5.17589 0
M  V30 15690 H 1466.3 0.675029 2.91691 0
M  V30 15691 H 1463.84 0.326066 1.4026 0
M  V30 15692 H 1465.8 -1.54576 3.92026 0
M  V30 15693 H 1464.52 -1.82408 2.70915 0
M  V30 15694 H 1463.18 0.0821694 3.66508 0
M  V30 15695 H 1462.83 -2.2492 4.49911 0
M  V30 15696 H 1462.53 -1.04957 5.7815 0
M  V30 15697 H 1464.05 -1.98198 5.77538 0
M  V30 15698 H 1465.47 0.288911 5.72572 0
M  V30 15699 H 1463.86 1.0591 5.9068 0
M  V30 15700 H 1464.93 1.5686 4.58828 0
M  V30 15701 N 1466.28 -1.53251 0.367684 0
M  V30 15702 C 1467.5 -2.0618 -0.224645 0
M  V30 15703 C 1467.93 -1.23927 -1.41505 0
M  V30 15704 O 1467.28 -0.258858 -1.79443 0
M  V30 15705 C 1467.33 -3.55671 -0.594171 0
M  V30 15706 O 1466.44 -3.76132 -1.69112 0
M  V30 15707 H 1465.78 -0.663218 -0.0322099 0
M  V30 15708 H 1468.31 -1.97646 0.528897 0
M  V30 15709 H 1468.32 -3.98734 -0.864589 0
M  V30 15710 H 1466.99 -4.14982 0.276254 0
M  V30 15711 H 1465.57 -3.44965 -1.41609 0
M  V30 15712 N 1467.75 -0.0969077 -1.57302 0
M  V30 15713 C 1468.69 0.891431 -2.11154 0
M  V30 15714 C 1469.7 1.24482 -1.04919 0
M  V30 15715 O 1470.89 1.19762 -1.3236 0
M  V30 15716 C 1467.99 2.19998 -2.57787 0
M  V30 15717 C 1467.16 2.02165 -3.87876 0
M  V30 15718 C 1466.22 3.16549 -4.20337 0
M  V30 15719 O 1465.25 2.90432 -4.89528 0
M  V30 15720 N 1466.45 4.42369 -3.75885 0
M  V30 15721 H 1469.21 0.431477 -2.96578 0
M  V30 15722 H 1466.77 0.0881458 -1.6166 0
M  V30 15723 H 1468.77 2.95472 -2.76547 0
M  V30 15724 H 1467.34 2.57412 -1.77364 0
M  V30 15725 H 1466.56 1.11011 -3.78246 0
M  V30 15726 H 1467.84 1.87529 -4.7298 0
M  V30 15727 H 1467.24 4.66469 -3.20036 0
M  V30 15728 H 1465.8 5.14787 -3.99797 0
M  V30 15729 N 1469.23 1.56605 0.176793 0
M  V30 15730 C 1470.14 1.99211 1.23903 0
M  V30 15731 C 1471.16 0.902614 1.48758 0
M  V30 15732 O 1472.33 1.20982 1.61014 0
M  V30 15733 C 1469.4 2.33873 2.55938 0
M  V30 15734 C 1468.46 3.56624 2.38994 0
M  V30 15735 C 1467.69 3.89623 3.64733 0
M  V30 15736 O 1467.92 3.23662 4.6968 0
M  V30 15737 O 1466.85 4.82992 3.5917 0
M  V30 15738 H 1470.68 2.89827 0.907398 0
M  V30 15739 H 1468.26 1.44401 0.383234 0
M  V30 15740 H 1470.14 2.57161 3.33836 0
M  V30 15741 H 1468.82 1.46421 2.88691 0
M  V30 15742 H 1467.72 3.38561 1.59146 0
M  V30 15743 H 1469.06 4.446 2.11167 0
M  V30 15744 N 1470.71 -0.445159 1.51182 0
M  V30 15745 C 1471.96 -1.19288 1.6314 0
M  V30 15746 C 1472.28 -1.91904 0.346109 0
M  V30 15747 O 1471.55 -1.8523 -0.637695 0
M  V30 15748 H 1470.13 -0.443319 0.601229 0
M  V30 15749 H 1472.79 -0.511136 1.88078 0
M  V30 15750 H 1471.89 -1.92672 2.45528 0
M  V30 15751 N 1472.19 -1.41197 -0.700089 0
M  V30 15752 C 1473.44 -1.39611 -1.45574 0
M  V30 15753 C 1473.75 -0.00683378 -1.95599 0
M  V30 15754 O 1474.96 0.131643 -2.71181 0
M  V30 15755 C 1473.41 -2.45452 -2.63214 0
M  V30 15756 C 1473.02 -3.90265 -2.19993 0
M  V30 15757 C 1474.76 -2.52996 -3.40871 0
M  V30 15758 C 1472.67 -4.87668 -3.34565 0
M  V30 15759 H 1471.6 -0.51917 -0.546789 0
M  V30 15760 H 1474.25 -1.67001 -0.760456 0
M  V30 15761 H 1472.63 -2.11186 -3.34987 0
M  V30 15762 H 1473.81 -4.33756 -1.55539 0
M  V30 15763 H 1472.12 -3.86339 -1.55341 0
M  V30 15764 H 1474.72 -3.22952 -4.26153 0
M  V30 15765 H 1475.06 -1.56536 -3.85749 0
M  V30 15766 H 1475.6 -2.86331 -2.76151 0
M  V30 15767 H 1472.33 -5.85517 -2.94704 0
M  V30 15768 H 1471.85 -4.4883 -3.97884 0
M  V30 15769 H 1473.53 -5.08215 -4.00409 0
M  V30 15770 N 1473.67 0.933891 -1.2695 0
M  V30 15771 C 1474.61 2.05498 -1.08964 0
M  V30 15772 C 1475.61 1.69394 -0.0144837 0
M  V30 15773 O 1476.81 1.79179 -0.171729 0
M  V30 15774 H 1473.19 0.672978 -0.335566 0
M  V30 15775 H 1475.16 2.17817 -2.03957 0
M  V30 15776 C 1473.91 3.39579 -0.747074 0
M  V30 15777 H 1473.23 3.67842 -1.56628 0
M  V30 15778 H 1474.67 4.18815 -0.661064 0
M  V30 15779 C 1473.13 3.3241 0.548214 0
M  V30 15780 O 1473.66 3.69132 1.58443 0
M  V30 15781 N 1471.87 2.85509 0.541545 0
M  V30 15782 H 1471.41 2.55822 -0.302112 0
M  V30 15783 H 1471.37 2.81095 1.4083 0
M  V30 15784 N 1475.14 1.08871 1.13951 0
M  V30 15785 C 1476.39 0.816198 1.84448 0
M  V30 15786 C 1476.71 -0.660396 1.84114 0
M  V30 15787 O 1477.91 -1.04825 2.50448 0
M  V30 15788 C 1476.37 1.41015 3.31123 0
M  V30 15789 C 1475.98 2.91888 3.39861 0
M  V30 15790 C 1477.72 1.21633 4.06701 0
M  V30 15791 C 1475.63 3.44397 4.80775 0
M  V30 15792 H 1474.56 0.301662 0.691025 0
M  V30 15793 H 1477.21 1.31072 1.28423 0
M  V30 15794 H 1475.59 0.843333 3.86916 0
M  V30 15795 H 1476.76 3.54747 2.94094 0
M  V30 15796 H 1475.08 3.10238 2.77743 0
M  V30 15797 H 1477.68 1.58324 5.10723 0
M  V30 15798 H 1478.02 0.156519 4.16006 0
M  V30 15799 H 1478.55 1.75035 3.57222 0
M  V30 15800 H 1475.29 4.49973 4.7666 0
M  V30 15801 H 1474.81 2.86299 5.27061 0
M  V30 15802 H 1476.49 3.41266 5.49679 0
M  V30 15803 N 1476.62 -1.31073 0.875073 0
M  V30 15804 C 1477.55 -2.30855 0.350468 0
M  V30 15805 C 1478.53 -1.60569 -0.561384 0
M  V30 15806 O 1479.72 -1.88242 -0.477329 0
M  V30 15807 C 1476.85 -3.44444 -0.444493 0
M  V30 15808 C 1475.8 -4.26357 0.374716 0
M  V30 15809 C 1475.13 -5.31903 -0.546243 0
M  V30 15810 C 1476.43 -4.96817 1.61153 0
M  V30 15811 H 1478.12 -2.74983 1.18427 0
M  V30 15812 H 1475.67 -1.32199 0.570909 0
M  V30 15813 H 1477.62 -4.13304 -0.82206 0
M  V30 15814 H 1476.34 -2.99096 -1.31185 0
M  V30 15815 H 1475 -3.59171 0.734295 0
M  V30 15816 H 1474.65 -4.82803 -1.41102 0
M  V30 15817 H 1474.35 -5.876 -0.00198173 0
M  V30 15818 H 1475.88 -6.03621 -0.920542 0
M  V30 15819 H 1477.29 -5.58247 1.30511 0
M  V30 15820 H 1475.69 -5.62334 2.09524 0
M  V30 15821 H 1476.76 -4.2351 2.36151 0
M  V30 15822 N 1478.1 -0.635022 -1.4424 0
M  V30 15823 C 1479.33 -0.14826 -2.06368 0
M  V30 15824 C 1479.74 1.17875 -1.47482 0
M  V30 15825 O 1479.1 1.72384 -0.599168 0
M  V30 15826 C 1479.15 -0.031519 -3.61486 0
M  V30 15827 O 1478.87 -1.30605 -4.18179 0
M  V30 15828 C 1480.37 0.483479 -4.40656 0
M  V30 15829 H 1477.59 -0.081472 -0.666036 0
M  V30 15830 H 1480.14 -0.870526 -1.85046 0
M  V30 15831 H 1478.29 0.641208 -3.82057 0
M  V30 15832 H 1478.71 -1.15341 -5.11661 0
M  V30 15833 H 1480.18 0.514164 -5.496 0
M  V30 15834 H 1480.66 1.51129 -4.12379 0
M  V30 15835 H 1481.26 -0.156131 -4.25013 0
M  V30 15836 N 1479.58 1.53054 -0.375806 0
M  V30 15837 C 1480.53 2.22837 0.482477 0
M  V30 15838 C 1481.51 1.22728 1.04051 0
M  V30 15839 O 1482.7 1.48129 0.968854 0
M  V30 15840 C 1479.83 3.02869 1.61634 0
M  V30 15841 C 1478.92 4.10362 1.07069 0
M  V30 15842 N 1479.31 5.05187 0.248878 0
M  V30 15843 C 1477.61 4.25251 1.34452 0
M  V30 15844 C 1478.31 5.81678 -0.0510458 0
M  V30 15845 N 1477.29 5.40817 0.549318 0
M  V30 15846 H 1481.09 2.93506 -0.1521 0
M  V30 15847 H 1478.6 1.6135 -0.184373 0
M  V30 15848 H 1480.6 3.51387 2.24349 0
M  V30 15849 H 1479.26 2.33732 2.25387 0
M  V30 15850 H 1480.27 5.17777 -0.112766 0
M  V30 15851 H 1476.95 3.67342 1.98408 0
M  V30 15852 H 1478.34 6.68073 -0.716061 0
M  V30 15853 N 1481.06 0.105248 1.57248 0
M  V30 15854 C 1481.99 -0.846915 2.176 0
M  V30 15855 C 1482.97 -1.28706 1.11216 0
M  V30 15856 O 1484.15 -1.35213 1.39396 0
M  V30 15857 C 1481.28 -2.10228 2.76445 0
M  V30 15858 C 1480.24 -1.80041 3.8829 0
M  V30 15859 C 1479.56 -3.12491 4.33882 0
M  V30 15860 C 1480.86 -1.07943 5.11024 0
M  V30 15861 H 1482.56 -0.344052 2.97417 0
M  V30 15862 H 1480.1 -0.164045 1.43063 0
M  V30 15863 H 1482.06 -2.77284 3.17319 0
M  V30 15864 H 1480.78 -2.62815 1.93897 0
M  V30 15865 H 1479.44 -1.15379 3.4797 0
M  V30 15866 H 1479.09 -3.62985 3.48211 0
M  V30 15867 H 1478.79 -2.93072 5.09296 0
M  V30 15868 H 1480.31 -3.80688 4.77398 0
M  V30 15869 H 1481.72 -1.65127 5.49004 0
M  V30 15870 H 1480.12 -0.986674 5.91933 0
M  V30 15871 H 1481.19 -0.0638511 4.84858 0
M  V30 15872 N 1482.53 -1.56697 -0.168486 0
M  V30 15873 C 1483.95 -1.71808 -0.730674 0
M  V30 15874 C 1484.3 -0.716224 -1.8266 0
M  V30 15875 O 1483.42 0.121803 -2.16057 0
M  V30 15876 C 1484.02 -3.1151 -1.33217 0
M  V30 15877 C 1482.58 -3.28297 -1.84115 0
M  V30 15878 C 1481.72 -2.67757 -0.72122 0
M  V30 15879 H 1484.67 -1.58598 0.0569421 0
M  V30 15880 H 1484.69 -3.10318 -2.20189 0
M  V30 15881 H 1484.21 -3.84404 -0.53431 0
M  V30 15882 H 1482.31 -2.60364 -2.66536 0
M  V30 15883 H 1482.42 -4.3606 -1.98464 0
M  V30 15884 H 1480.78 -2.27644 -1.14239 0
M  V30 15885 H 1481.57 -3.43239 0.0648388 0
M  V30 15886 N 1484.01 0.437135 -1.51416 0
M  V30 15887 C 1484.96 1.53061 -1.72745 0
M  V30 15888 C 1485.93 1.56045 -0.569149 0
M  V30 15889 O 1487.11 1.73052 -0.803602 0
M  V30 15890 C 1484.25 2.90774 -1.85861 0
M  V30 15891 C 1483.37 2.97318 -3.1341 0
M  V30 15892 C 1482.5 4.26156 -3.1712 0
M  V30 15893 C 1481.54 4.26568 -4.38983 0
M  V30 15894 N 1480.68 5.4693 -4.40241 0
M  V30 15895 H 1485.52 1.34177 -2.66084 0
M  V30 15896 H 1483.06 0.651803 -1.31871 0
M  V30 15897 H 1485.01 3.7068 -1.91447 0
M  V30 15898 H 1483.64 3.08216 -0.959306 0
M  V30 15899 H 1482.7 2.10074 -3.17132 0
M  V30 15900 H 1484.01 2.93485 -4.03321 0
M  V30 15901 H 1483.16 5.14435 -3.21623 0
M  V30 15902 H 1481.9 4.32646 -2.25098 0
M  V30 15903 H 1480.91 3.36681 -4.34656 0
M  V30 15904 H 1482.13 4.21741 -5.3227 0
M  V30 15905 H 1480.08 5.54141 -3.51089 0
M  V30 15906 H 1479.99 5.44977 -5.23962 0
M  V30 15907 H 1481.26 6.37241 -4.48937 0
M  V30 15908 N 1485.49 1.41566 0.692592 0
M  V30 15909 C 1486.74 1.40805 1.44978 0
M  V30 15910 C 1487.06 0.0191039 1.94991 0
M  V30 15911 O 1486.33 -0.939544 1.71899 0
M  V30 15912 H 1484.91 0.518293 0.537942 0
M  V30 15913 H 1487.57 1.76831 0.81956 0
M  V30 15914 H 1486.67 2.09706 2.31149 0
M  V30 15915 N 1486.97 -0.927146 1.27443 0
M  V30 15916 C 1488.19 -1.71426 1.16739 0
M  V30 15917 C 1488.62 -1.86122 -0.272063 0
M  V30 15918 O 1487.98 -1.36165 -1.19703 0
M  V30 15919 C 1488.02 -3.09131 1.85661 0
M  V30 15920 O 1487.13 -3.95897 1.15495 0
M  V30 15921 H 1486.47 -0.525428 0.405983 0
M  V30 15922 H 1489 -1.16022 1.68523 0
M  V30 15923 H 1489.01 -3.59442 1.93042 0
M  V30 15924 H 1487.68 -2.97752 2.90373 0
M  V30 15925 H 1486.26 -3.54337 1.16187 0
M  V30 15926 N 1488.45 -1.09474 -1.13372 0
M  V30 15927 C 1489.41 -0.738173 -2.16988 0
M  V30 15928 C 1490.41 0.232488 -1.5911 0
M  V30 15929 O 1491.6 0.0106093 -1.74197 0
M  V30 15930 C 1488.73 -0.091724 -3.40777 0
M  V30 15931 H 1489.92 -1.65582 -2.50045 0
M  V30 15932 H 1487.48 -0.893994 -1.28209 0
M  V30 15933 H 1488.21 0.837129 -3.13309 0
M  V30 15934 H 1488 -0.790161 -3.84056 0
M  V30 15935 H 1489.49 0.142334 -4.17357 0
M  V30 15936 N 1489.92 1.30607 -0.882012 0
M  V30 15937 C 1490.83 2.31967 -0.350503 0
M  V30 15938 C 1491.85 1.6522 0.54575 0
M  V30 15939 O 1493.03 1.96544 0.439581 0
M  V30 15940 C 1490.09 3.44037 0.428924 0
M  V30 15941 C 1489.15 4.26417 -0.496727 0
M  V30 15942 C 1488.39 5.33135 0.245597 0
M  V30 15943 O 1488.61 5.51077 1.47209 0
M  V30 15944 O 1487.54 6.00551 -0.402767 0
M  V30 15945 H 1491.37 2.79374 -1.19095 0
M  V30 15946 H 1488.95 1.34723 -0.645754 0
M  V30 15947 H 1490.84 4.12314 0.870346 0
M  V30 15948 H 1489.51 2.9877 1.24573 0
M  V30 15949 H 1488.42 3.60848 -0.986899 0
M  V30 15950 H 1489.75 4.7528 -1.27945 0
M  V30 15951 N 1491.4 0.642663 1.43901 0
M  V30 15952 C 1492.37 -0.0457858 2.29154 0
M  V30 15953 C 1493.37 -0.760988 1.41653 0
M  V30 15954 O 1494.56 -0.603832 1.634 0
M  V30 15955 C 1491.69 -1.07552 3.23489 0
M  V30 15956 H 1492.88 0.704193 2.91515 0
M  V30 15957 H 1490.43 0.403361 1.51006 0
M  V30 15958 H 1491.17 -1.85509 2.66002 0
M  V30 15959 H 1490.95 -0.566468 3.87987 0
M  V30 15960 H 1492.44 -1.55663 3.87503 0
M  V30 15961 N 1492.88 -1.52852 0.383918 0
M  V30 15962 C 1493.79 -2.3002 -0.461298 0
M  V30 15963 C 1494.81 -1.36717 -1.07631 0
M  V30 15964 O 1495.98 -1.69784 -1.08329 0
M  V30 15965 C 1493.05 -3.08804 -1.57609 0
M  V30 15966 C 1492.11 -4.17806 -0.986737 0
M  V30 15967 C 1491.34 -4.92825 -2.04841 0
M  V30 15968 O 1491.57 -4.67879 -3.26259 0
M  V30 15969 O 1490.5 -5.78306 -1.66871 0
M  V30 15970 H 1494.33 -3.03239 0.167189 0
M  V30 15971 H 1491.91 -1.48667 0.147781 0
M  V30 15972 H 1493.79 -3.57943 -2.22384 0
M  V30 15973 H 1492.47 -2.38404 -2.18964 0
M  V30 15974 H 1491.37 -3.72876 -0.302396 0
M  V30 15975 H 1492.71 -4.90426 -0.417481 0
M  V30 15976 N 1494.36 -0.113586 -1.5719 0
M  V30 15977 C 1495.29 0.835363 -2.18046 0
M  V30 15978 C 1496.27 1.28114 -1.11897 0
M  V30 15979 O 1497.46 1.34472 -1.40111 0
M  V30 15980 C 1494.59 2.08759 -2.77556 0
M  V30 15981 C 1493.54 1.77979 -3.8924 0
M  V30 15982 C 1492.87 3.10185 -4.35533 0
M  V30 15983 C 1494.17 1.05231 -5.11589 0
M  V30 15984 H 1495.86 0.328275 -2.97595 0
M  V30 15985 H 1493.41 0.156456 -1.43148 0
M  V30 15986 H 1495.36 2.75597 -3.18785 0
M  V30 15987 H 1494.08 2.61783 -1.95288 0
M  V30 15988 H 1492.74 1.13532 -3.48577 0
M  V30 15989 H 1492.39 3.61133 -3.50131 0
M  V30 15990 H 1492.09 2.90367 -5.10843 0
M  V30 15991 H 1493.61 3.78151 -4.7941 0
M  V30 15992 H 1495.03 1.62213 -5.49872 0
M  V30 15993 H 1493.42 0.955269 -5.92448 0
M  V30 15994 H 1494.49 0.038137 -4.84885 0
M  V30 15995 N 1495.84 1.56784 0.160173 0
M  V30 15996 C 1496.77 1.92391 1.22723 0
M  V30 15997 C 1497.75 0.788076 1.42226 0
M  V30 15998 O 1498.93 1.04245 1.57052 0
M  V30 15999 C 1496.06 2.18452 2.58836 0
M  V30 16000 C 1495.11 3.41121 2.56005 0
M  V30 16001 S 1495.94 4.95124 2.03991 0
M  V30 16002 C 1497.09 5.24292 3.4186 0
M  V30 16003 H 1497.33 2.82597 0.92337 0
M  V30 16004 H 1494.86 1.50018 0.365226 0
M  V30 16005 H 1496.82 2.34147 3.37172 0
M  V30 16006 H 1495.48 1.28934 2.86417 0
M  V30 16007 H 1494.67 3.56592 3.56172 0
M  V30 16008 H 1494.27 3.246 1.85771 0
M  V30 16009 H 1496.57 5.16953 4.37911 0
M  V30 16010 H 1497.51 6.2584 3.31255 0
M  V30 16011 H 1497.92 4.51834 3.38387 0
M  V30 16012 N 1497.32 -0.429099 1.51646 0
M  V30 16013 C 1498.54 -1.20465 1.68828 0
M  V30 16014 C 1498.97 -1.84044 0.388514 0
M  V30 16015 O 1498.32 -1.69165 -0.652152 0
M  V30 16016 C 1498.37 -2.25831 2.81128 0
M  V30 16017 O 1497.48 -3.31511 2.45305 0
M  V30 16018 H 1496.82 -0.352568 0.562665 0
M  V30 16019 H 1499.35 -0.505698 1.98252 0
M  V30 16020 H 1499.36 -2.70484 3.05455 0
M  V30 16021 H 1498.03 -1.78934 3.7544 0
M  V30 16022 H 1496.61 -2.92277 2.31579 0
M  V30 16023 N 1498.79 -1.41931 -0.685074 0
M  V30 16024 C 1500.04 -1.42062 -1.44728 0
M  V30 16025 C 1500.37 -0.0332072 -1.94172 0
M  V30 16026 O 1499.65 0.940835 -1.70231 0
M  V30 16027 C 1499.93 -2.43634 -2.65168 0
M  V30 16028 C 1499.78 -3.91525 -2.21423 0
M  V30 16029 C 1501.1 -2.42325 -3.67378 0
M  V30 16030 H 1498.22 -0.517321 -0.524927 0
M  V30 16031 H 1500.86 -1.73277 -0.779419 0
M  V30 16032 H 1499.01 -2.17146 -3.22149 0
M  V30 16033 H 1500.69 -4.28956 -1.69689 0
M  V30 16034 H 1498.93 -4.05886 -1.53099 0
M  V30 16035 H 1499.6 -4.58158 -3.07889 0
M  V30 16036 H 1502.08 -2.65857 -3.20093 0
M  V30 16037 H 1500.95 -3.15391 -4.49243 0
M  V30 16038 H 1501.21 -1.44555 -4.17799 0
M  V30 16039 N 1500.27 0.920374 -1.27933 0
M  V30 16040 C 1501.52 1.67131 -1.1487 0
M  V30 16041 C 1501.85 1.91816 0.303343 0
M  V30 16042 O 1501.13 1.51379 1.22125 0
M  V30 16043 C 1501.41 3.03332 -1.94066 0
M  V30 16044 C 1501.26 2.85842 -3.47296 0
M  V30 16045 C 1502.58 4.03773 -1.75087 0
M  V30 16046 H 1499.7 0.606537 -0.418666 0
M  V30 16047 H 1502.34 1.06755 -1.57173 0
M  V30 16048 H 1500.49 3.54869 -1.58116 0
M  V30 16049 H 1502.16 2.41367 -3.93115 0
M  V30 16050 H 1500.41 2.21035 -3.73264 0
M  V30 16051 H 1501.08 3.82535 -3.97958 0
M  V30 16052 H 1503.55 3.61274 -2.06447 0
M  V30 16053 H 1502.43 4.97048 -2.32882 0
M  V30 16054 H 1502.69 4.36512 -0.700665 0
M  V30 16055 N 1501.75 1.10074 1.1279 0
M  V30 16056 C 1503.16 0.859181 1.65756 0
M  V30 16057 C 1503.51 -0.611193 1.86437 0
M  V30 16058 O 1502.64 -1.46997 1.58811 0
M  V30 16059 C 1503.23 1.55312 3.01104 0
M  V30 16060 C 1501.79 1.35836 3.51035 0
M  V30 16061 C 1500.94 1.60491 2.26137 0
M  V30 16062 H 1503.89 1.25897 0.966211 0
M  V30 16063 H 1503.91 0.990001 3.67395 0
M  V30 16064 H 1503.42 2.62325 2.8602 0
M  V30 16065 H 1501.52 0.309694 3.71311 0
M  V30 16066 H 1501.64 2.09777 4.30732 0
M  V30 16067 H 1500 1.02742 2.33058 0
M  V30 16068 H 1500.78 2.68748 2.1361 0
M  V30 16069 N 1503.23 -1.30138 0.888926 0
M  V30 16070 C 1504.47 -1.96279 0.51012 0
M  V30 16071 C 1504.81 -1.69984 -0.939096 0
M  V30 16072 O 1504.08 -1.00677 -1.66416 0
M  V30 16073 C 1504.36 -3.51321 0.790305 0
M  V30 16074 C 1504.22 -3.87116 2.29044 0
M  V30 16075 C 1505.54 -4.39274 0.269477 0
M  V30 16076 H 1502.66 -0.712931 0.18681 0
M  V30 16077 H 1505.3 -1.53942 1.11364 0
M  V30 16078 H 1503.45 -3.87514 0.276647 0
M  V30 16079 H 1505.12 -3.60926 2.87281 0
M  V30 16080 H 1503.36 -3.35044 2.7555 0
M  V30 16081 H 1504.03 -4.95288 2.43708 0
M  V30 16082 H 1506.51 -4.10012 0.709173 0
M  V30 16083 H 1505.39 -5.46665 0.494815 0
M  V30 16084 H 1505.65 -4.3425 -0.829434 0
M  V30 16085 N 1504.71 -0.650285 -1.43559 0
M  V30 16086 C 1505.95 -0.162484 -2.01847 0
M  V30 16087 C 1506.28 1.22251 -1.51278 0
M  V30 16088 O 1505.54 1.82939 -0.695115 0
M  V30 16089 C 1505.83 -0.119084 -3.57202 0
M  V30 16090 C 1505.5 -1.44543 -4.27104 0
M  V30 16091 C 1504.16 -1.80864 -4.45917 0
M  V30 16092 C 1506.51 -2.32005 -4.66715 0
M  V30 16093 C 1503.84 -3.04319 -5.01604 0
M  V30 16094 C 1506.19 -3.54748 -5.23771 0
M  V30 16095 C 1504.86 -3.9127 -5.408 0
M  V30 16096 H 1504.13 -0.0594573 -0.738611 0
M  V30 16097 H 1506.78 -0.84041 -1.72074 0
M  V30 16098 H 1505.08 0.642282 -3.865 0
M  V30 16099 H 1506.78 0.275168 -4.00055 0
M  V30 16100 H 1503.37 -1.15281 -4.12805 0
M  V30 16101 H 1507.55 -2.05234 -4.51877 0
M  V30 16102 H 1502.81 -3.32668 -5.12974 0
M  V30 16103 H 1506.98 -4.2274 -5.53411 0
M  V30 16104 H 1504.61 -4.87011 -5.83716 0
M  V30 16105 N 1506.18 1.52647 -0.392018 0
M  V30 16106 C 1507.41 2.05734 0.189018 0
M  V30 16107 C 1507.82 1.26338 1.40838 0
M  V30 16108 O 1507.16 0.303866 1.81169 0
M  V30 16109 C 1507.23 3.54095 0.621026 0
M  V30 16110 C 1506.89 4.54416 -0.485249 0
M  V30 16111 C 1507.89 5.02241 -1.3435 0
M  V30 16112 C 1505.57 4.98037 -0.653055 0
M  V30 16113 C 1507.57 5.92313 -2.35467 0
M  V30 16114 C 1505.25 5.87908 -1.66755 0
M  V30 16115 C 1506.25 6.34939 -2.51677 0
M  V30 16116 O 1505.94 7.23034 -3.51392 0
M  V30 16117 H 1505.67 0.675266 0.0315024 0
M  V30 16118 H 1508.23 1.97717 -0.556535 0
M  V30 16119 H 1506.46 3.5974 1.4186 0
M  V30 16120 H 1508.14 3.8991 1.12804 0
M  V30 16121 H 1508.91 4.6927 -1.22518 0
M  V30 16122 H 1504.79 4.61 -0.00176071 0
M  V30 16123 H 1508.33 6.28944 -3.01786 0
M  V30 16124 H 1504.23 6.20293 -1.78624 0
M  V30 16125 H 1505 7.41102 -3.47433 0
M  V30 16126 N 1507.66 0.121921 1.57128 0
M  V30 16127 C 1508.91 -0.536164 1.95584 0
M  V30 16128 C 1509.24 -1.66143 1.0055 0
M  V30 16129 O 1508.52 -1.94452 0.0432427 0
M  V30 16130 C 1508.8 -1.0661 3.43957 0
M  V30 16131 C 1508.65 0.0559458 4.49765 0
M  V30 16132 C 1509.97 -1.95603 3.94243 0
M  V30 16133 H 1507.09 -0.193427 0.711165 0
M  V30 16134 H 1509.73 0.198072 1.88965 0
M  V30 16135 H 1507.88 -1.69181 3.49729 0
M  V30 16136 H 1509.55 0.691357 4.5609 0
M  V30 16137 H 1507.8 0.71868 4.27805 0
M  V30 16138 H 1508.47 -0.356133 5.5085 0
M  V30 16139 H 1510.94 -1.42899 3.90793 0
M  V30 16140 H 1509.82 -2.29599 4.98573 0
M  V30 16141 H 1510.08 -2.88364 3.3511 0
M  V30 16142 N 1509.14 -1.56867 -0.151857 0
M  V30 16143 C 1510.39 -1.83082 -0.865285 0
M  V30 16144 C 1510.72 -0.702056 -1.81387 0
M  V30 16145 O 1509.97 0.309291 -1.9324 0
M  V30 16146 C 1510.27 -3.15597 -1.6773 0
M  V30 16147 C 1509.94 -4.4231 -0.875929 0
M  V30 16148 C 1508.6 -4.76724 -0.654826 0
M  V30 16149 C 1510.95 -5.20246 -0.315162 0
M  V30 16150 C 1508.28 -5.86538 0.13783 0
M  V30 16151 C 1510.63 -6.30892 0.464508 0
M  V30 16152 C 1509.29 -6.63859 0.696233 0
M  V30 16153 H 1508.56 -0.669945 -0.31663 0
M  V30 16154 H 1511.21 -1.91064 -0.129175 0
M  V30 16155 H 1509.52 -3.03044 -2.48338 0
M  V30 16156 H 1511.21 -3.33094 -2.23269 0
M  V30 16157 H 1507.8 -4.15328 -1.05832 0
M  V30 16158 H 1511.99 -4.94038 -0.473273 0
M  V30 16159 H 1507.24 -6.10525 0.32691 0
M  V30 16160 H 1511.42 -6.90479 0.906187 0
M  V30 16161 H 1509.04 -7.48788 1.3123 0
M  V30 16162 N 1510.62 0.421051 -1.51871 0
M  V30 16163 C 1511.57 1.51101 -1.70741 0
M  V30 16164 C 1512.55 1.50792 -0.561305 0
M  V30 16165 O 1513.74 1.5697 -0.817894 0
M  V30 16166 C 1510.87 2.89145 -1.85067 0
M  V30 16167 C 1509.96 2.94148 -3.05512 0
M  V30 16168 N 1510.35 2.68866 -4.28421 0
M  V30 16169 C 1508.65 3.25314 -3.05101 0
M  V30 16170 C 1509.35 2.80131 -5.09805 0
M  V30 16171 N 1508.33 3.12501 -4.44797 0
M  V30 16172 H 1512.13 1.30331 -2.63422 0
M  V30 16173 H 1509.64 0.628598 -1.49741 0
M  V30 16174 H 1511.64 3.6758 -1.96699 0
M  V30 16175 H 1510.3 3.10923 -0.935788 0
M  V30 16176 H 1511.31 2.43485 -4.57094 0
M  V30 16177 H 1507.99 3.52762 -2.23306 0
M  V30 16178 H 1509.38 2.64401 -6.17691 0
M  V30 16179 N 1512.1 1.42293 0.677538 0
M  V30 16180 C 1513.33 1.45797 1.46379 0
M  V30 16181 C 1513.73 0.0669696 1.89081 0
M  V30 16182 O 1513.08 -0.928025 1.58535 0
M  V30 16183 C 1513.14 2.31982 2.74635 0
M  V30 16184 C 1512.8 3.79894 2.54026 0
M  V30 16185 C 1513.8 4.71615 2.18805 0
M  V30 16186 C 1511.49 4.24131 2.69106 0
M  V30 16187 C 1513.48 6.05563 1.98927 0
M  V30 16188 C 1511.17 5.5814 2.48844 0
M  V30 16189 C 1512.16 6.48672 2.13807 0
M  V30 16190 O 1511.85 7.80206 1.93737 0
M  V30 16191 H 1511.58 0.498113 0.457012 0
M  V30 16192 H 1514.14 1.87432 0.840151 0
M  V30 16193 H 1512.37 1.85191 3.39472 0
M  V30 16194 H 1514.06 2.26974 3.36508 0
M  V30 16195 H 1514.82 4.38723 2.06753 0
M  V30 16196 H 1510.7 3.53957 2.95357 0
M  V30 16197 H 1514.25 6.7619 1.71502 0
M  V30 16198 H 1510.14 5.90605 2.60491 0
M  V30 16199 H 1510.91 7.91536 2.08357 0
M  V30 16200 N 1513.57 -0.913576 1.28419 0
M  V30 16201 C 1514.5 -2.03275 1.14897 0
M  V30 16202 C 1515.49 -1.70036 0.0467034 0
M  V30 16203 O 1516.67 -1.92907 0.223725 0
M  V30 16204 C 1513.8 -3.37717 0.810217 0
M  V30 16205 C 1512.75 -3.85119 1.86728 0
M  V30 16206 C 1512.08 -5.16527 1.38215 0
M  V30 16207 C 1513.38 -4.06959 3.27386 0
M  V30 16208 H 1515.07 -2.14847 2.08522 0
M  V30 16209 H 1512.62 -1.03233 1.00394 0
M  V30 16210 H 1514.57 -4.15505 0.702382 0
M  V30 16211 H 1513.3 -3.26199 -0.161732 0
M  V30 16212 H 1511.96 -3.09536 1.96426 0
M  V30 16213 H 1511.6 -5.01413 0.399263 0
M  V30 16214 H 1511.3 -5.49213 2.08898 0
M  V30 16215 H 1512.83 -5.96871 1.28754 0
M  V30 16216 H 1514.24 -4.75272 3.20608 0
M  V30 16217 H 1512.64 -4.50977 3.95904 0
M  V30 16218 H 1513.71 -3.11764 3.71391 0
M  V30 16219 N 1515.05 -1.1067 -1.12204 0
M  V30 16220 C 1515.96 -0.770221 -2.21596 0
M  V30 16221 C 1516.98 0.233297 -1.72429 0
M  V30 16222 O 1518.15 0.0714493 -2.01273 0
M  V30 16223 C 1515.22 -0.209682 -3.46065 0
M  V30 16224 C 1514.28 -1.27079 -4.1006 0
M  V30 16225 C 1513.51 -0.736899 -5.28588 0
M  V30 16226 O 1513.74 0.435838 -5.68732 0
M  V30 16227 O 1512.67 -1.49797 -5.82962 0
M  V30 16228 H 1516.5 -1.6834 -2.52776 0
M  V30 16229 H 1514.08 -0.882012 -1.20586 0
M  V30 16230 H 1515.96 0.0989516 -4.21284 0
M  V30 16231 H 1514.64 0.676316 -3.16556 0
M  V30 16232 H 1513.55 -1.63231 -3.3661 0
M  V30 16233 H 1514.88 -2.12989 -4.4373 0
M  V30 16234 N 1516.53 1.29665 -0.895815 0
M  V30 16235 C 1517.76 1.99862 -0.535043 0
M  V30 16236 C 1518.17 1.67077 0.879245 0
M  V30 16237 O 1517.53 0.913717 1.57979 0
M  V30 16238 C 1517.58 3.54396 -0.713132 0
M  V30 16239 O 1517.3 3.86018 -2.07175 0
M  V30 16240 C 1518.8 4.41862 -0.356792 0
M  V30 16241 H 1516.02 0.638693 -0.205699 0
M  V30 16242 H 1518.57 1.65293 -1.20409 0
M  V30 16243 H 1516.72 3.87292 -0.0913116 0
M  V30 16244 H 1517.14 4.80701 -2.09827 0
M  V30 16245 H 1518.61 5.49428 -0.532252 0
M  V30 16246 H 1519.09 4.3349 0.705914 0
M  V30 16247 H 1519.69 4.1443 -0.95539 0
M  V30 16248 N 1518.01 0.657889 1.43212 0
M  V30 16249 C 1519.26 0.172845 2.0136 0
M  V30 16250 C 1519.58 -1.21911 1.52193 0
M  V30 16251 O 1518.85 -1.81529 0.736492 0
M  V30 16252 H 1517.43 0.0609091 0.744513 0
M  V30 16253 H 1520.09 0.850605 1.75359 0
M  V30 16254 H 1519.19 0.161062 3.11684 0
M  V30 16255 N 1519.49 -1.52437 0.400108 0
M  V30 16256 C 1520.43 -2.28312 -0.444572 0
M  V30 16257 C 1521.43 -1.32641 -1.0537 0
M  V30 16258 O 1522.63 -1.50136 -0.99293 0
M  V30 16259 H 1519.01 -0.734313 -0.162137 0
M  V30 16260 H 1520.98 -2.97612 0.216702 0
M  V30 16261 C 1519.73 -3.11044 -1.55393 0
M  V30 16262 H 1519.05 -3.84525 -1.09455 0
M  V30 16263 H 1520.49 -3.67255 -2.11896 0
M  V30 16264 C 1518.95 -2.24035 -2.51614 0
M  V30 16265 O 1519.48 -1.87447 -3.55284 0
M  V30 16266 N 1517.69 -1.87982 -2.2161 0
M  V30 16267 H 1517.23 -2.17936 -1.37338 0
M  V30 16268 H 1517.19 -1.30058 -2.86238 0
M  V30 16269 N 1520.96 -0.130252 -1.57061 0
M  V30 16270 C 1521.91 0.827158 -2.12467 0
M  V30 16271 C 1522.9 1.22069 -1.04824 0
M  V30 16272 O 1524.09 1.1899 -1.31036 0
M  V30 16273 C 1521.22 2.07284 -2.73657 0
M  V30 16274 C 1520.31 1.70317 -3.88398 0
M  V30 16275 N 1520.7 1.04082 -4.94975 0
M  V30 16276 C 1518.99 1.99701 -3.98793 0
M  V30 16277 C 1519.7 0.865016 -5.75232 0
M  V30 16278 N 1518.67 1.39359 -5.25433 0
M  V30 16279 H 1522.47 0.311706 -2.92242 0
M  V30 16280 H 1519.99 0.0718523 -1.62241 0
M  V30 16281 H 1521.98 2.76854 -3.11701 0
M  V30 16282 H 1520.64 2.59363 -1.95349 0
M  V30 16283 H 1521.66 0.703501 -5.131 0
M  V30 16284 H 1518.33 2.53747 -3.3154 0
M  V30 16285 H 1519.72 0.344255 -6.71018 0
M  V30 16286 N 1522.44 1.56945 0.143535 0
M  V30 16287 C 1523.69 1.84696 0.851985 0
M  V30 16288 C 1524.04 0.714713 1.78633 0
M  V30 16289 O 1523.34 -0.287092 1.89437 0
M  V30 16290 C 1523.53 3.16482 1.66054 0
M  V30 16291 C 1523.36 4.42418 0.80599 0
M  V30 16292 C 1522.13 5.03107 0.470269 0
M  V30 16293 C 1524.33 5.14123 0.134742 0
M  V30 16294 N 1522.31 6.12612 -0.397516 0
M  V30 16295 C 1523.68 6.17157 -0.593039 0
M  V30 16296 C 1525.74 4.97869 0.0557743 0
M  V30 16297 C 1524.44 7.05696 -1.39234 0
M  V30 16298 C 1526.47 5.86874 -0.730272 0
M  V30 16299 C 1525.83 6.89392 -1.44632 0
M  V30 16300 H 1521.93 0.726447 0.28948 0
M  V30 16301 H 1524.51 1.94347 0.117143 0
M  V30 16302 H 1522.68 3.07972 2.3666 0
M  V30 16303 H 1524.41 3.32128 2.31243 0
M  V30 16304 H 1521.17 4.66676 0.806858 0
M  V30 16305 H 1521.59 6.71985 -0.822534 0
M  V30 16306 H 1526.23 4.18592 0.595021 0
M  V30 16307 H 1523.95 7.84398 -1.94283 0
M  V30 16308 H 1527.54 5.76365 -0.79341 0
M  V30 16309 H 1526.42 7.57072 -2.04479 0
M  V30 16310 N 1523.92 -0.412991 1.52093 0
M  V30 16311 C 1524.87 -1.52347 1.75765 0
M  V30 16312 C 1525.86 -1.57463 0.624641 0
M  V30 16313 O 1527.07 -1.60916 0.806599 0
M  V30 16314 H 1523.44 -0.50659 0.555761 0
M  V30 16315 H 1525.42 -1.29564 2.68804 0
M  V30 16316 C 1524.16 -2.89757 1.92188 0
M  V30 16317 H 1523.49 -2.86561 2.78788 0
M  V30 16318 H 1524.93 -3.66759 2.12753 0
M  V30 16319 C 1523.39 -3.29801 0.687963 0
M  V30 16320 O 1523.92 -4.01435 -0.145984 0
M  V30 16321 N 1522.12 -2.85819 0.524978 0
M  V30 16322 H 1521.67 -2.27694 1.20471 0
M  V30 16323 H 1521.63 -3.12972 -0.299325 0
M  V30 16324 N 1525.4 -1.4265 -0.669982 0
M  V30 16325 C 1526.65 -1.42667 -1.42579 0
M  V30 16326 C 1526.96 -0.0483217 -1.9554 0
M  V30 16327 O 1528.17 0.0740917 -2.71399 0
M  V30 16328 C 1526.62 -2.5098 -2.57948 0
M  V30 16329 C 1526.23 -3.94844 -2.11666 0
M  V30 16330 C 1527.98 -2.6017 -3.35428 0
M  V30 16331 C 1525.88 -4.94655 -3.24146 0
M  V30 16332 H 1524.81 -0.530651 -0.535654 0
M  V30 16333 H 1527.46 -1.68576 -0.724861 0
M  V30 16334 H 1525.85 -2.18244 -3.30432 0
M  V30 16335 H 1527.02 -4.36958 -1.46303 0
M  V30 16336 H 1525.33 -3.89547 -1.47111 0
M  V30 16337 H 1527.93 -3.31918 -4.19207 0
M  V30 16338 H 1528.27 -1.64683 -3.82342 0
M  V30 16339 H 1528.81 -2.92124 -2.70016 0
M  V30 16340 H 1525.55 -5.91636 -2.82218 0
M  V30 16341 H 1525.07 -4.57168 -3.88275 0
M  V30 16342 H 1526.75 -5.16593 -3.89538 0
M  V30 16343 N 1526.88 0.906753 -1.28902 0
M  V30 16344 C 1528.12 1.65658 -1.16464 0
M  V30 16345 C 1528.45 1.92396 0.285342 0
M  V30 16346 O 1527.71 1.52755 1.22329 0
M  V30 16347 C 1528.01 3.0171 -1.91588 0
M  V30 16348 C 1527.67 2.94606 -3.41347 0
M  V30 16349 C 1526.33 2.92376 -3.8219 0
M  V30 16350 C 1528.69 2.84335 -4.3681 0
M  V30 16351 C 1526.01 2.77685 -5.16825 0
M  V30 16352 C 1528.37 2.71184 -5.71526 0
M  V30 16353 C 1527.03 2.67316 -6.11636 0
M  V30 16354 H 1526.3 0.606184 -0.426171 0
M  V30 16355 H 1528.95 1.05592 -1.59758 0
M  V30 16356 H 1527.25 3.65602 -1.40863 0
M  V30 16357 H 1528.95 3.58645 -1.79374 0
M  V30 16358 H 1525.54 2.97141 -3.08878 0
M  V30 16359 H 1529.72 2.85141 -4.06212 0
M  V30 16360 H 1524.98 2.7309 -5.47021 0
M  V30 16361 H 1529.15 2.62206 -6.45152 0
M  V30 16362 H 1526.78 2.5569 -7.1591 0
M  V30 16363 N 1528.36 1.11264 1.11616 0
M  V30 16364 C 1529.31 0.738429 2.15711 0
M  V30 16365 C 1530.29 -0.25663 1.5884 0
M  V30 16366 O 1531.48 -0.0640255 1.76884 0
M  V30 16367 C 1528.61 0.181245 3.42821 0
M  V30 16368 C 1527.7 1.20386 4.06655 0
M  V30 16369 N 1528.09 2.39745 4.45372 0
M  V30 16370 C 1526.39 1.04637 4.33552 0
M  V30 16371 C 1527.09 3.04949 4.95359 0
M  V30 16372 N 1526.06 2.32435 4.91401 0
M  V30 16373 H 1529.86 1.6469 2.43423 0
M  V30 16374 H 1527.38 0.991616 1.28611 0
M  V30 16375 H 1529.38 -0.104966 4.16768 0
M  V30 16376 H 1528.04 -0.721832 3.16575 0
M  V30 16377 H 1529.05 2.77213 4.37462 0
M  V30 16378 H 1525.72 0.19957 4.17023 0
M  V30 16379 H 1527.11 4.06528 5.34962 0
M  V30 16380 N 1529.83 -1.29188 0.902679 0
M  V30 16381 C 1531.06 -2.00113 0.544953 0
M  V30 16382 C 1531.48 -1.67093 -0.863805 0
M  V30 16383 O 1530.84 -0.897179 -1.57545 0
M  V30 16384 C 1530.89 -3.52762 0.747741 0
M  V30 16385 O 1529.99 -4.11923 -0.198388 0
M  V30 16386 H 1529.33 -0.629054 0.212572 0
M  V30 16387 H 1531.86 -1.64611 1.21508 0
M  V30 16388 H 1531.87 -4.02732 0.653546 0
M  V30 16389 H 1530.55 -3.76131 1.77478 0
M  V30 16390 H 1529.13 -3.72857 -0.0563959 0
M  V30 16391 N 1531.31 -0.665475 -1.42861 0
M  V30 16392 C 1532.59 -0.113252 -1.95272 0
M  V30 16393 C 1532.97 1.36972 -1.6063 0
M  V30 16394 O 1532.32 2.10129 -0.897662 0
M  V30 16395 C 1532.53 -0.372482 -3.47007 0
M  V30 16396 C 1533.87 -0.283982 -4.23649 0
M  V30 16397 O 1534.9 -0.305714 -3.54886 0
M  V30 16398 O 1533.76 -0.218171 -5.46064 0
M  V30 16399 H 1530.85 0.00253712 -0.826996 0
M  V30 16400 H 1533.4 -0.739561 -1.52737 0
M  V30 16401 H 1532.17 -1.40015 -3.65392 0
M  V30 16402 H 1531.79 0.286294 -3.96568 0
M  V30 16403 N 1532.79 1.52222 -0.408187 0
M  V30 16404 C 1534.2 1.86598 0.0616213 0
M  V30 16405 C 1534.55 1.32698 1.44519 0
M  V30 16406 O 1533.68 0.665883 2.059 0
M  V30 16407 C 1534.27 3.38592 0.118595 0
M  V30 16408 C 1532.83 3.72611 0.532737 0
M  V30 16409 C 1531.98 2.75744 -0.293356 0
M  V30 16410 H 1534.93 1.45862 -0.625291 0
M  V30 16411 H 1534.95 3.68858 0.934039 0
M  V30 16412 H 1534.46 3.77792 -0.888516 0
M  V30 16413 H 1532.56 3.38989 1.54652 0
M  V30 16414 H 1532.68 4.78294 0.277777 0
M  V30 16415 H 1531.04 2.53527 0.244166 0
M  V30 16416 H 1531.82 3.17783 -1.2988 0
M  V30 16417 N 1534.27 0.138579 1.5699 0
M  V30 16418 C 1535.2 -0.800568 2.19347 0
M  V30 16419 C 1536.18 -1.26318 1.13921 0
M  V30 16420 O 1537.36 -1.32226 1.42232 0
M  V30 16421 C 1534.49 -2.04317 2.80842 0
M  V30 16422 C 1533.45 -1.71764 3.92022 0
M  V30 16423 C 1532.77 -3.03217 4.40413 0
M  V30 16424 C 1534.07 -0.970789 5.13199 0
M  V30 16425 H 1535.77 -0.280888 2.98079 0
M  V30 16426 H 1533.31 -0.133663 1.43378 0
M  V30 16427 H 1535.27 -2.70491 3.2313 0
M  V30 16428 H 1533.99 -2.58643 1.99428 0
M  V30 16429 H 1532.65 -1.07972 3.50339 0
M  V30 16430 H 1532.3 -3.55517 3.55832 0
M  V30 16431 H 1532 -2.82203 5.15398 0
M  V30 16432 H 1533.52 -3.70477 4.85365 0
M  V30 16433 H 1534.94 -1.53445 5.52384 0
M  V30 16434 H 1533.33 -0.860895 5.93893 0
M  V30 16435 H 1534.4 0.0390088 4.84884 0
M  V30 16436 N 1535.75 -1.57019 -0.13521 0
M  V30 16437 C 1536.99 -1.83178 -0.844308 0
M  V30 16438 C 1537.31 -0.7217 -1.81799 0
M  V30 16439 O 1538.51 -0.869232 -2.57209 0
M  V30 16440 C 1536.97 -3.2471 -1.55214 0
M  V30 16441 C 1536.58 -4.43685 -0.620268 0
M  V30 16442 C 1538.32 -3.60133 -2.24732 0
M  V30 16443 C 1536.23 -5.76242 -1.3304 0
M  V30 16444 H 1535.16 -0.683175 -0.319041 0
M  V30 16445 H 1537.81 -1.83243 -0.0970242 0
M  V30 16446 H 1536.19 -3.19067 -2.34547 0
M  V30 16447 H 1537.37 -4.60591 0.138685 0
M  V30 16448 H 1535.68 -4.16387 -0.0328906 0
M  V30 16449 H 1538.28 -4.56431 -2.78522 0
M  V30 16450 H 1538.62 -2.86767 -3.01779 0
M  V30 16451 H 1539.15 -3.67489 -1.52305 0
M  V30 16452 H 1535.89 -6.52734 -0.60155 0
M  V30 16453 H 1535.41 -5.63251 -2.06176 0
M  V30 16454 H 1537.09 -6.19445 -1.86808 0
M  V30 16455 N 1537.22 0.404919 -1.52309 0
M  V30 16456 C 1538.13 1.51822 -1.7885 0
M  V30 16457 C 1539.15 1.60403 -0.674307 0
M  V30 16458 O 1540.33 1.77038 -0.960175 0
M  V30 16459 C 1537.39 2.87516 -1.9374 0
M  V30 16460 C 1536.45 2.88787 -3.17648 0
M  V30 16461 C 1535.69 4.18009 -3.31819 0
M  V30 16462 O 1535.91 5.12129 -2.51158 0
M  V30 16463 O 1534.84 4.26222 -4.24992 0
M  V30 16464 H 1538.67 1.32329 -2.73354 0
M  V30 16465 H 1536.25 0.591193 -1.37205 0
M  V30 16466 H 1538.14 3.6799 -2.05333 0
M  V30 16467 H 1536.81 3.07068 -1.02425 0
M  V30 16468 H 1535.72 2.07152 -3.11511 0
M  V30 16469 H 1537.05 2.74185 -4.08758 0
M  V30 16470 N 1538.7 1.43003 0.662408 0
M  V30 16471 C 1539.65 1.47448 1.77561 0
M  V30 16472 C 1540.62 0.325121 1.62887 0
M  V30 16473 O 1541.8 0.530971 1.83263 0
M  V30 16474 C 1538.94 1.3946 3.15666 0
M  V30 16475 C 1538.06 2.64529 3.41539 0
M  V30 16476 C 1537.19 2.48594 4.69441 0
M  V30 16477 C 1536.23 3.68976 4.88388 0
M  V30 16478 N 1535.37 3.51908 6.0754 0
M  V30 16479 H 1540.21 2.42573 1.73097 0
M  V30 16480 H 1537.75 1.2042 0.84484 0
M  V30 16481 H 1539.7 1.32824 3.95492 0
M  V30 16482 H 1538.33 0.479227 3.19223 0
M  V30 16483 H 1537.39 2.81481 2.55877 0
M  V30 16484 H 1538.7 3.53977 3.51429 0
M  V30 16485 H 1537.85 2.39614 5.57378 0
M  V30 16486 H 1536.59 1.56656 4.61855 0
M  V30 16487 H 1535.6 3.78374 3.9889 0
M  V30 16488 H 1536.82 4.61911 4.9781 0
M  V30 16489 H 1534.77 2.62697 6.01104 0
M  V30 16490 H 1534.68 4.34951 6.18347 0
M  V30 16491 H 1535.95 3.46763 6.98123 0
M  V30 16492 N 1540.18 -0.899904 1.29381 0
M  V30 16493 C 1541.11 -2.00914 1.103 0
M  V30 16494 C 1542.13 -1.62721 0.050568 0
M  V30 16495 O 1543.31 -1.76044 0.295068 0
M  V30 16496 C 1540.41 -3.32473 0.656896 0
M  V30 16497 C 1539.59 -3.99195 1.7878 0
M  V30 16498 C 1538.65 -5.09043 1.33274 0
M  V30 16499 O 1537.67 -5.31486 2.03742 0
M  V30 16500 N 1538.87 -5.80143 0.203519 0
M  V30 16501 H 1541.64 -2.17838 2.05832 0
M  V30 16502 H 1539.2 -1.07208 1.21318 0
M  V30 16503 H 1541.19 -4.03305 0.335783 0
M  V30 16504 H 1539.76 -3.11921 -0.205959 0
M  V30 16505 H 1538.98 -3.21729 2.2778 0
M  V30 16506 H 1540.27 -4.40515 2.54606 0
M  V30 16507 H 1539.67 -5.64395 -0.384005 0
M  V30 16508 H 1538.23 -6.51774 -0.0582282 0
M  V30 16509 N 1541.66 -1.11854 -1.11024 0
M  V30 16510 C 1542.61 -0.780825 -2.17191 0
M  V30 16511 C 1543.58 0.249657 -1.64213 0
M  V30 16512 O 1544.76 0.125603 -1.90386 0
M  V30 16513 C 1541.9 -0.23491 -3.443 0
M  V30 16514 C 1541.01 -1.32247 -4.1126 0
M  V30 16515 C 1540.15 -0.736638 -5.26068 0
M  V30 16516 C 1539.19 -1.80375 -5.8492 0
M  V30 16517 N 1538.32 -1.23709 -6.91115 0
M  V30 16518 H 1543.16 -1.69031 -2.45423 0
M  V30 16519 H 1540.7 -0.844041 -1.20476 0
M  V30 16520 H 1542.66 0.0996064 -4.17081 0
M  V30 16521 H 1541.29 0.637752 -3.16437 0
M  V30 16522 H 1540.34 -1.77387 -3.36509 0
M  V30 16523 H 1541.65 -2.12965 -4.51051 0
M  V30 16524 H 1540.81 -0.352432 -6.05675 0
M  V30 16525 H 1539.55 0.101811 -4.87594 0
M  V30 16526 H 1538.55 -2.19721 -5.03987 0
M  V30 16527 H 1539.78 -2.64531 -6.2546 0
M  V30 16528 H 1537.72 -0.420357 -6.54652 0
M  V30 16529 H 1537.64 -1.98093 -7.29586 0
M  V30 16530 H 1538.91 -0.879912 -7.74518 0
M  V30 16531 N 1543.14 1.28707 -0.909517 0
M  V30 16532 C 1544.07 2.29845 -0.411552 0
M  V30 16533 C 1545.05 1.62001 0.518615 0
M  V30 16534 O 1546.23 1.89442 0.427252 0
M  V30 16535 C 1543.36 3.45501 0.353013 0
M  V30 16536 C 1542.32 4.25213 -0.487625 0
M  V30 16537 C 1541.64 5.33164 0.405026 0
M  V30 16538 C 1542.94 4.9237 -1.74268 0
M  V30 16539 H 1544.64 2.71746 -1.25676 0
M  V30 16540 H 1542.18 1.30639 -0.605759 0
M  V30 16541 H 1544.14 4.15338 0.712191 0
M  V30 16542 H 1542.86 3.02469 1.23209 0
M  V30 16543 H 1541.52 3.57098 -0.829265 0
M  V30 16544 H 1541.17 4.86375 1.28252 0
M  V30 16545 H 1540.87 5.87399 -0.153811 0
M  V30 16546 H 1542.39 6.0585 0.760179 0
M  V30 16547 H 1543.8 5.5459 -1.45266 0
M  V30 16548 H 1542.2 5.56581 -2.2436 0
M  V30 16549 H 1543.27 4.171 -2.47297 0
M  V30 16550 N 1544.61 0.673042 1.42506 0
M  V30 16551 C 1545.56 -0.00638067 2.30799 0
M  V30 16552 C 1546.53 -0.794524 1.45865 0
M  V30 16553 O 1547.72 -0.767129 1.74699 0
M  V30 16554 C 1544.86 -0.952923 3.31683 0
M  V30 16555 C 1543.97 -0.158787 4.31708 0
M  V30 16556 C 1543.1 -1.10092 5.19666 0
M  V30 16557 C 1542.14 -0.29837 6.11372 0
M  V30 16558 N 1541.28 -1.19312 6.91888 0
M  V30 16559 H 1546.12 0.75237 2.88346 0
M  V30 16560 H 1543.66 0.382763 1.42033 0
M  V30 16561 H 1545.62 -1.51552 3.887 0
M  V30 16562 H 1544.25 -1.67832 2.75739 0
M  V30 16563 H 1543.3 0.520406 3.76823 0
M  V30 16564 H 1544.61 0.464385 4.96634 0
M  V30 16565 H 1543.76 -1.7335 5.81407 0
M  V30 16566 H 1542.5 -1.75798 4.54914 0
M  V30 16567 H 1541.51 0.347437 5.48701 0
M  V30 16568 H 1542.73 0.354569 6.78174 0
M  V30 16569 H 1540.68 -1.83661 6.29765 0
M  V30 16570 H 1540.6 -0.624986 7.53412 0
M  V30 16571 H 1541.86 -1.81323 7.58118 0
M  V30 16572 N 1546.09 -1.52004 0.416254 0
M  V30 16573 C 1547.04 -2.27206 -0.405723 0
M  V30 16574 C 1548.01 -1.29913 -1.03498 0
M  V30 16575 O 1549.19 -1.58786 -1.0579 0
M  V30 16576 C 1546.33 -3.10186 -1.51258 0
M  V30 16577 C 1545.45 -4.22445 -0.903539 0
M  V30 16578 C 1544.58 -4.92771 -1.98368 0
M  V30 16579 C 1543.62 -5.96983 -1.35196 0
M  V30 16580 N 1542.76 -6.60798 -2.37255 0
M  V30 16581 H 1547.6 -2.97016 0.241983 0
M  V30 16582 H 1545.14 -1.46514 0.131174 0
M  V30 16583 H 1547.09 -3.56606 -2.16537 0
M  V30 16584 H 1545.72 -2.42532 -2.13021 0
M  V30 16585 H 1544.78 -3.80144 -0.139607 0
M  V30 16586 H 1546.09 -4.97176 -0.402136 0
M  V30 16587 H 1545.24 -5.42633 -2.71357 0
M  V30 16588 H 1543.98 -4.17624 -2.51876 0
M  V30 16589 H 1542.99 -5.46434 -0.607431 0
M  V30 16590 H 1544.21 -6.74076 -0.824482 0
M  V30 16591 H 1542.16 -5.88476 -2.89882 0
M  V30 16592 H 1542.07 -7.31227 -1.91947 0
M  V30 16593 H 1543.34 -7.15296 -3.09792 0
M  V30 16594 N 1547.57 -0.146903 -1.56914 0
M  V30 16595 C 1548.52 0.792821 -2.16756 0
M  V30 16596 C 1549.49 1.2442 -1.1004 0
M  V30 16597 O 1550.67 1.31674 -1.38081 0
M  V30 16598 C 1547.81 2.02659 -2.79327 0
M  V30 16599 C 1546.93 1.62102 -4.00433 0
M  V30 16600 C 1546.06 2.80658 -4.51004 0
M  V30 16601 C 1545.1 2.36474 -5.64576 0
M  V30 16602 N 1544.24 3.48038 -6.09766 0
M  V30 16603 H 1549.08 0.275708 -2.96722 0
M  V30 16604 H 1546.61 0.124374 -1.46573 0
M  V30 16605 H 1548.57 2.74986 -3.13749 0
M  V30 16606 H 1547.2 2.51781 -2.02005 0
M  V30 16607 H 1546.25 0.795407 -3.71991 0
M  V30 16608 H 1547.57 1.25652 -4.82714 0
M  V30 16609 H 1546.72 3.61175 -4.87481 0
M  V30 16610 H 1545.46 3.20353 -3.6773 0
M  V30 16611 H 1544.46 1.54397 -5.27676 0
M  V30 16612 H 1545.69 1.97865 -6.49635 0
M  V30 16613 H 1543.63 3.87354 -5.29427 0
M  V30 16614 H 1543.55 3.15602 -6.86972 0
M  V30 16615 H 1544.82 4.28912 -6.50887 0
M  V30 16616 N 1549.05 1.57088 0.126881 0
M  V30 16617 C 1549.98 2.02799 1.15737 0
M  V30 16618 C 1550.96 0.911031 1.43646 0
M  V30 16619 O 1552.14 1.18021 1.54223 0
M  V30 16620 C 1549.27 2.42565 2.48555 0
M  V30 16621 C 1548.23 3.57631 2.35125 0
M  V30 16622 C 1547.55 3.83272 3.72836 0
M  V30 16623 C 1548.85 4.89625 1.81838 0
M  V30 16624 H 1550.55 2.89136 0.777207 0
M  V30 16625 H 1548.09 1.39101 0.372416 0
M  V30 16626 H 1550.05 2.73146 3.20888 0
M  V30 16627 H 1548.77 1.53188 2.88446 0
M  V30 16628 H 1547.43 3.27247 1.65242 0
M  V30 16629 H 1547.08 2.91114 4.10197 0
M  V30 16630 H 1546.78 4.60721 3.64705 0
M  V30 16631 H 1548.3 4.16298 4.46686 0
M  V30 16632 H 1549.72 5.18793 2.43981 0
M  V30 16633 H 1548.11 5.71018 1.84548 0
M  V30 16634 H 1549.18 4.7866 0.775385 0
M  V30 16635 N 1550.53 -0.396836 1.52522 0
M  V30 16636 C 1551.47 -1.48427 1.76743 0
M  V30 16637 C 1552.44 -1.54481 0.610321 0
M  V30 16638 O 1553.63 -1.7086 0.849201 0
M  V30 16639 C 1550.77 -2.85744 1.93505 0
M  V30 16640 C 1549.88 -2.88904 3.21183 0
M  V30 16641 C 1549.02 -4.17598 3.28307 0
M  V30 16642 C 1548.06 -4.14779 4.50138 0
M  V30 16643 N 1547.19 -5.35065 4.54587 0
M  V30 16644 H 1552.03 -1.27075 2.69548 0
M  V30 16645 H 1549.57 -0.61661 1.33553 0
M  V30 16646 H 1551.53 -3.65474 2.01208 0
M  V30 16647 H 1550.16 -3.05564 1.04069 0
M  V30 16648 H 1549.21 -2.01592 3.22591 0
M  V30 16649 H 1550.52 -2.82688 4.10961 0
M  V30 16650 H 1549.68 -5.05727 3.35149 0
M  V30 16651 H 1548.41 -4.26526 2.36489 0
M  V30 16652 H 1547.42 -3.25039 4.4343 0
M  V30 16653 H 1548.64 -4.07481 5.43264 0
M  V30 16654 H 1546.59 -5.44638 3.65658 0
M  V30 16655 H 1546.51 -5.30894 5.38227 0
M  V30 16656 H 1547.78 -6.25114 4.65675 0
M  V30 16657 N 1552.01 -1.43353 -0.654814 0
M  V30 16658 C 1552.92 -1.50831 -1.79687 0
M  V30 16659 C 1553.93 -0.395518 -1.69445 0
M  V30 16660 O 1555.11 -0.649408 -1.90643 0
M  V30 16661 C 1552.17 -1.42735 -3.15955 0
M  V30 16662 C 1551.23 -2.64671 -3.38005 0
M  V30 16663 C 1550.47 -2.56952 -4.67773 0
M  V30 16664 O 1550.69 -1.61638 -5.47019 0
M  V30 16665 O 1549.62 -3.47425 -4.91507 0
M  V30 16666 H 1553.45 -2.47266 -1.76333 0
M  V30 16667 H 1551.03 -1.25336 -0.813095 0
M  V30 16668 H 1552.92 -1.40656 -3.97233 0
M  V30 16669 H 1551.59 -0.494334 -3.19903 0
M  V30 16670 H 1550.5 -2.72323 -2.56498 0
M  V30 16671 H 1551.83 -3.5694 -3.38903 0
M  V30 16672 N 1553.48 0.89303 -1.29857 0
M  V30 16673 C 1554.73 1.64088 -1.17981 0
M  V30 16674 C 1555.05 1.93156 0.267533 0
M  V30 16675 O 1554.32 1.56233 1.18186 0
M  V30 16676 H 1552.9 0.608241 -0.43365 0
M  V30 16677 H 1555.56 1.07042 -1.62874 0
M  V30 16678 H 1554.66 2.59446 -1.73477 0
M  V30 16679 N 1554.96 1.12442 1.10429 0
M  V30 16680 C 1555.89 0.736067 2.16003 0
M  V30 16681 C 1556.87 -0.272805 1.60295 0
M  V30 16682 O 1558.06 -0.166744 1.87761 0
M  V30 16683 C 1555.18 0.0894945 3.38582 0
M  V30 16684 C 1554.23 1.0652 4.12984 0
M  V30 16685 S 1555.06 2.59279 4.68546 0
M  V30 16686 C 1556.22 1.95952 5.94436 0
M  V30 16687 H 1556.45 1.63033 2.48611 0
M  V30 16688 H 1553.98 0.94351 1.22218 0
M  V30 16689 H 1555.94 -0.27718 4.09563 0
M  V30 16690 H 1554.6 -0.781885 3.04213 0
M  V30 16691 H 1553.8 0.560426 5.00874 0
M  V30 16692 H 1553.4 1.37482 3.47814 0
M  V30 16693 H 1555.69 1.30231 6.64866 0
M  V30 16694 H 1556.63 2.81882 6.49575 0
M  V30 16695 H 1557.04 1.41533 5.46469 0
M  V30 16696 N 1556.44 -1.28223 0.91633 0
M  V30 16697 C 1557.37 -2.29623 0.423735 0
M  V30 16698 C 1558.35 -1.62274 -0.510016 0
M  V30 16699 O 1559.54 -1.89666 -0.4172 0
M  V30 16700 C 1556.67 -3.45684 -0.334686 0
M  V30 16701 C 1555.62 -4.24949 0.510169 0
M  V30 16702 C 1554.95 -5.33371 -0.376745 0
M  V30 16703 C 1556.25 -4.91438 1.76877 0
M  V30 16704 H 1557.94 -2.71076 1.27115 0
M  V30 16705 H 1555.49 -1.30316 0.612678 0
M  V30 16706 H 1557.44 -4.1571 -0.690154 0
M  V30 16707 H 1556.16 -3.03118 -1.21603 0
M  V30 16708 H 1554.82 -3.56653 0.848191 0
M  V30 16709 H 1554.47 -4.87048 -1.25671 0
M  V30 16710 H 1554.17 -5.87309 0.18496 0
M  V30 16711 H 1555.69 -6.06244 -0.728039 0
M  V30 16712 H 1557.11 -5.53812 1.48205 0
M  V30 16713 H 1555.5 -5.55384 2.27308 0
M  V30 16714 H 1556.57 -4.15783 2.49505 0
M  V30 16715 N 1557.92 -0.68059 -1.42147 0
M  V30 16716 C 1559.14 -0.212293 -2.06311 0
M  V30 16717 C 1559.57 1.12402 -1.50822 0
M  V30 16718 O 1558.93 1.70037 -0.629051 0
M  V30 16719 C 1558.97 -0.164156 -3.60226 0
M  V30 16720 O 1558.08 0.865582 -4.03214 0
M  V30 16721 H 1557.42 -0.107451 -0.655248 0
M  V30 16722 H 1559.95 -0.931233 -1.82179 0
M  V30 16723 H 1559.96 0.0100422 -4.07999 0
M  V30 16724 H 1558.63 -1.13952 -3.99985 0
M  V30 16725 H 1557.21 0.661955 -3.66978 0
M  V30 16726 N 1559.4 1.51781 -0.424309 0
M  V30 16727 C 1560.64 2.01157 0.147925 0
M  V30 16728 C 1560.96 1.31369 1.44919 0
M  V30 16729 O 1562.16 1.71643 2.10359 0
M  V30 16730 C 1560.62 3.58526 0.31417 0
M  V30 16731 C 1560.23 4.37242 -0.975898 0
M  V30 16732 C 1561.97 4.16088 0.840876 0
M  V30 16733 C 1559.88 5.86287 -0.776009 0
M  V30 16734 H 1558.81 0.751684 0.0590568 0
M  V30 16735 H 1561.46 1.74998 -0.552079 0
M  V30 16736 H 1559.84 3.81077 1.07687 0
M  V30 16737 H 1561.02 4.26444 -1.74592 0
M  V30 16738 H 1559.33 3.9107 -1.43015 0
M  V30 16739 H 1561.93 5.25138 1.0067 0
M  V30 16740 H 1562.27 3.7442 1.81977 0
M  V30 16741 H 1562.8 3.97565 0.136836 0
M  V30 16742 H 1559.54 6.32343 -1.7269 0
M  V30 16743 H 1559.06 5.99783 -0.0455544 0
M  V30 16744 H 1560.74 6.45609 -0.424095 0
M  V30 16745 N 1560.87 0.155222 1.56834 0
M  V30 16746 C 1561.81 -0.819563 2.12975 0
M  V30 16747 C 1562.78 -1.23685 1.05549 0
M  V30 16748 O 1563.97 -1.3315 1.33429 0
M  V30 16749 C 1561.1 -2.10155 2.65617 0
M  V30 16750 C 1560.14 -1.82954 3.85266 0
M  V30 16751 S 1560.97 -1.01317 5.25828 0
M  V30 16752 C 1562.13 -2.30617 5.81865 0
M  V30 16753 H 1562.36 -0.342172 2.95324 0
M  V30 16754 H 1559.9 -0.0591958 1.54286 0
M  V30 16755 H 1561.85 -2.83797 2.96597 0
M  V30 16756 H 1560.52 -2.55008 1.83383 0
M  V30 16757 H 1559.71 -2.78035 4.20372 0
M  V30 16758 H 1559.31 -1.17417 3.55091 0
M  V30 16759 H 1561.6 -3.26206 5.93798 0
M  V30 16760 H 1562.55 -2.00004 6.79267 0
M  V30 16761 H 1562.95 -2.41642 5.10166 0
M  V30 16762 N 1562.35 -1.57153 -0.118549 0
M  V30 16763 C 1563.58 -1.89434 -0.844355 0
M  V30 16764 C 1564 -0.747203 -1.72622 0
M  V30 16765 O 1563.36 0.302252 -1.78763 0
M  V30 16766 C 1563.41 -3.20466 -1.65331 0
M  V30 16767 O 1562.51 -3.06403 -2.76027 0
M  V30 16768 H 1561.85 -0.621601 -0.23347 0
M  V30 16769 H 1564.38 -2.04351 -0.100811 0
M  V30 16770 H 1564.39 -3.53197 -2.04245 0
M  V30 16771 H 1563.07 -4.03551 -1.00594 0
M  V30 16772 H 1561.64 -2.85139 -2.40312 0
M  V30 16773 N 1563.83 0.388742 -1.5273 0
M  V30 16774 C 1565.06 1.15328 -1.71415 0
M  V30 16775 C 1565.47 1.84193 -0.432366 0
M  V30 16776 O 1564.81 1.73522 0.602977 0
M  V30 16777 C 1564.87 2.24436 -2.80836 0
M  V30 16778 C 1564.54 1.75535 -4.21944 0
M  V30 16779 C 1565.53 1.23196 -5.05093 0
M  V30 16780 C 1563.22 1.8175 -4.68265 0
M  V30 16781 C 1565.21 0.777194 -6.32644 0
M  V30 16782 C 1562.9 1.35885 -5.95801 0
M  V30 16783 C 1563.9 0.839573 -6.7782 0
M  V30 16784 O 1563.59 0.387619 -8.02965 0
M  V30 16785 H 1563.32 0.351742 -0.577281 0
M  V30 16786 H 1565.87 0.460735 -2.00166 0
M  V30 16787 H 1564.1 2.97115 -2.47506 0
M  V30 16788 H 1565.79 2.86106 -2.87921 0
M  V30 16789 H 1566.56 1.17751 -4.70489 0
M  V30 16790 H 1562.44 2.21111 -4.04513 0
M  V30 16791 H 1565.98 0.371199 -6.96612 0
M  V30 16792 H 1561.88 1.41016 -6.29909 0
M  V30 16793 H 1562.64 0.509073 -8.16915 0
M  V30 16794 N 1565.31 1.43698 0.647203 0
M  V30 16795 C 1566.72 1.27231 0.963563 0
M  V30 16796 C 1566.92 0.196385 2.00541 0
M  V30 16797 O 1565.98 -0.423162 2.48929 0
M  V30 16798 C 1567.29 2.63863 1.44211 0
M  V30 16799 C 1568.84 2.71444 1.55844 0
M  V30 16800 C 1569.32 4.08508 2.07087 0
M  V30 16801 N 1570.81 4.10603 2.14381 0
M  V30 16802 C 1571.54 5.13496 2.55166 0
M  V30 16803 N 1571.04 6.26759 2.95203 0
M  V30 16804 N 1572.83 5.0085 2.55158 0
M  V30 16805 H 1564.98 2.12358 -0.0420956 0
M  V30 16806 H 1567.24 0.946989 0.0437628 0
M  V30 16807 H 1566.95 3.43589 0.75096 0
M  V30 16808 H 1566.82 2.89666 2.41605 0
M  V30 16809 H 1569.21 1.92046 2.24058 0
M  V30 16810 H 1569.29 2.49399 0.56866 0
M  V30 16811 H 1568.94 4.88375 1.39472 0
M  V30 16812 H 1568.87 4.2792 3.06907 0
M  V30 16813 H 1571.36 3.2885 1.86188 0
M  V30 16814 H 1571.67 7.01096 3.25091 0
M  V30 16815 H 1570.02 6.30222 2.92993 0
M  V30 16816 H 1573.21 4.11428 2.2326 0
M  V30 16817 H 1573.38 5.81165 2.86621 0
M  V30 16818 N 1566.79 -0.886131 1.30328 0
M  V30 16819 C 1567.73 -2.01312 1.16516 0
M  V30 16820 C 1568.73 -1.69223 0.0773431 0
M  V30 16821 O 1569.93 -1.78418 0.238111 0
M  V30 16822 H 1566.31 -0.66006 0.360312 0
M  V30 16823 H 1568.28 -2.10097 2.11901 0
M  V30 16824 C 1567.03 -3.36573 0.872592 0
M  V30 16825 H 1566.35 -3.61775 1.70172 0
M  V30 16826 H 1567.79 -4.16073 0.816049 0
M  V30 16827 C 1566.25 -3.34215 -0.424465 0
M  V30 16828 O 1566.78 -3.74758 -1.44634 0
M  V30 16829 N 1564.99 -2.87323 -0.435207 0
M  V30 16830 H 1564.53 -2.54525 0.396851 0
M  V30 16831 H 1564.49 -2.86128 -1.303 0
M  V30 16832 N 1568.26 -1.13026 -1.09832 0
M  V30 16833 C 1569.23 -0.806832 -2.14529 0
M  V30 16834 C 1570.23 0.18175 -1.5977 0
M  V30 16835 O 1571.42 -0.0448155 -1.74142 0
M  V30 16836 C 1568.55 -0.200093 -3.40312 0
M  V30 16837 H 1569.74 -1.73453 -2.44651 0
M  V30 16838 H 1567.3 -0.934331 -1.25299 0
M  V30 16839 H 1568.03 0.737028 -3.15814 0
M  V30 16840 H 1567.82 -0.911945 -3.81348 0
M  V30 16841 H 1569.31 0.00948247 -4.17599 0
M  V30 16842 N 1569.74 1.27735 -0.923117 0
M  V30 16843 C 1571.02 1.89626 -0.479724 0
M  V30 16844 C 1571.4 1.83592 1.04197 0
M  V30 16845 O 1570.75 1.27808 1.89413 0
M  V30 16846 C 1570.96 3.33742 -1.02064 0
M  V30 16847 C 1572.31 4.10678 -1.07837 0
M  V30 16848 O 1573.33 3.4274 -0.969943 0
M  V30 16849 O 1572.19 5.32135 -1.24476 0
M  V30 16850 H 1569.28 0.812615 -0.153575 0
M  V30 16851 H 1571.83 1.36036 -1.01451 0
M  V30 16852 H 1570.6 3.32404 -2.06454 0
M  V30 16853 H 1570.22 3.94845 -0.467234 0
M  V30 16854 N 1571.22 0.688118 1.41784 0
M  V30 16855 C 1572.45 0.224424 2.05377 0
M  V30 16856 C 1572.86 -1.12862 1.51852 0
M  V30 16857 O 1572.2 -1.71491 0.658526 0
M  V30 16858 C 1572.26 0.0964852 3.5937 0
M  V30 16859 C 1571.93 1.38037 4.35655 0
M  V30 16860 C 1572.92 2.31666 4.65432 0
M  V30 16861 C 1570.61 1.63167 4.7506 0
M  V30 16862 C 1572.6 3.48693 5.33565 0
M  V30 16863 C 1570.29 2.8048 5.42931 0
M  V30 16864 C 1571.29 3.73067 5.7211 0
M  V30 16865 O 1570.98 4.88326 6.38587 0
M  V30 16866 H 1570.71 0.103587 0.668016 0
M  V30 16867 H 1573.26 0.939084 1.82676 0
M  V30 16868 H 1571.49 -0.673878 3.80783 0
M  V30 16869 H 1573.18 -0.329059 4.04564 0
M  V30 16870 H 1573.95 2.13506 4.35477 0
M  V30 16871 H 1569.83 0.919669 4.51733 0
M  V30 16872 H 1573.37 4.20979 5.56258 0
M  V30 16873 H 1569.27 2.9856 5.72304 0
M  V30 16874 H 1570.04 4.88044 6.57081 0
M  V30 16875 N 1572.7 -1.51554 0.432352 0
M  V30 16876 C 1573.92 -2.06947 -0.136995 0
M  V30 16877 C 1574.35 -1.29817 -1.36122 0
M  V30 16878 O 1573.71 -0.334733 -1.78183 0
M  V30 16879 C 1573.75 -3.57871 -0.442785 0
M  V30 16880 O 1572.86 -3.82966 -1.53007 0
M  V30 16881 H 1572.2 -0.663988 -0.00405152 0
M  V30 16882 H 1574.73 -1.95225 0.612249 0
M  V30 16883 H 1574.74 -4.02042 -0.694694 0
M  V30 16884 H 1573.41 -4.13436 0.452013 0
M  V30 16885 H 1571.99 -3.50661 -1.26851 0
M  V30 16886 N 1574.18 -0.163538 -1.56749 0
M  V30 16887 C 1575.41 0.489178 -2.00725 0
M  V30 16888 C 1575.81 1.57869 -1.04279 0
M  V30 16889 O 1575.16 1.83668 -0.0344434 0
M  V30 16890 C 1575.22 1.13443 -3.41132 0
M  V30 16891 C 1574.88 0.187525 -4.56615 0
M  V30 16892 C 1575.88 -0.591169 -5.16528 0
M  V30 16893 C 1573.57 0.0856149 -5.02227 0
M  V30 16894 C 1575.56 -1.45905 -6.20476 0
M  V30 16895 C 1573.25 -0.785859 -6.06026 0
M  V30 16896 C 1574.24 -1.55678 -6.65021 0
M  V30 16897 O 1573.93 -2.41371 -7.66809 0
M  V30 16898 H 1573.66 0.130353 -0.663313 0
M  V30 16899 H 1576.22 -0.260065 -2.03747 0
M  V30 16900 H 1574.45 1.93165 -3.34999 0
M  V30 16901 H 1576.14 1.68856 -3.69111 0
M  V30 16902 H 1576.9 -0.522563 -4.82177 0
M  V30 16903 H 1572.78 0.675439 -4.56025 0
M  V30 16904 H 1576.33 -2.06125 -6.66452 0
M  V30 16905 H 1572.22 -0.855696 -6.39803 0
M  V30 16906 H 1572.99 -2.34801 -7.84099 0
M  V30 16907 N 1575.65 1.57214 0.110213 0
M  V30 16908 C 1576.88 1.8988 0.834297 0
M  V30 16909 C 1577.3 0.756347 1.72224 0
M  V30 16910 O 1576.66 -0.292768 1.78921 0
M  V30 16911 C 1576.71 3.21338 1.63629 0
M  V30 16912 O 1575.81 3.07862 2.74399 0
M  V30 16913 H 1575.16 0.62283 0.23017 0
M  V30 16914 H 1577.69 2.04402 0.0899726 0
M  V30 16915 H 1577.7 3.54275 2.02369 0
M  V30 16916 H 1576.37 4.04079 0.984521 0
M  V30 16917 H 1574.95 2.8641 2.38797 0
M  V30 16918 N 1577.13 -0.380637 1.52934 0
M  V30 16919 C 1578.38 -1.1265 1.68635 0
M  V30 16920 C 1578.71 -1.89397 0.429227 0
M  V30 16921 O 1577.99 -1.85863 -0.573182 0
M  V30 16922 C 1578.27 -2.09797 2.92673 0
M  V30 16923 C 1578.12 -1.36758 4.28506 0
M  V30 16924 C 1579.44 -3.10117 3.12274 0
M  V30 16925 H 1576.56 -0.408158 0.613658 0
M  V30 16926 H 1579.2 -0.408947 1.85547 0
M  V30 16927 H 1577.35 -2.70987 2.78385 0
M  V30 16928 H 1579.02 -0.784679 4.54577 0
M  V30 16929 H 1577.27 -0.669413 4.28604 0
M  V30 16930 H 1577.94 -2.07786 5.11399 0
M  V30 16931 H 1580.41 -2.59022 3.25648 0
M  V30 16932 H 1579.29 -3.75328 4.00525 0
M  V30 16933 H 1579.55 -3.79451 2.26868 0
M  V30 16934 N 1578.61 -1.44039 -0.639573 0
M  V30 16935 C 1579.86 -1.47589 -1.39961 0
M  V30 16936 C 1580.21 -0.103692 -1.9212 0
M  V30 16937 O 1579.5 0.879803 -1.70206 0
M  V30 16938 C 1579.7 -2.46459 -2.5883 0
M  V30 16939 C 1579.53 -3.93157 -2.18306 0
M  V30 16940 C 1578.3 -4.61409 -2.05984 0
M  V30 16941 C 1580.5 -4.8261 -1.77741 0
M  V30 16942 N 1578.48 -5.9297 -1.58935 0
M  V30 16943 C 1579.85 -6.03549 -1.41875 0
M  V30 16944 C 1581.9 -4.69749 -1.65046 0
M  V30 16945 C 1580.61 -7.13054 -0.94584 0
M  V30 16946 C 1582.63 -5.79271 -1.1916 0
M  V30 16947 C 1581.99 -6.99345 -0.842389 0
M  V30 16948 H 1578.09 -0.595136 -0.507284 0
M  V30 16949 H 1580.68 -1.8031 -0.734598 0
M  V30 16950 H 1578.85 -2.15742 -3.22971 0
M  V30 16951 H 1580.58 -2.40359 -3.25592 0
M  V30 16952 H 1577.34 -4.16104 -2.26173 0
M  V30 16953 H 1577.76 -6.62841 -1.37733 0
M  V30 16954 H 1582.4 -3.77361 -1.90679 0
M  V30 16955 H 1580.12 -8.05259 -0.677011 0
M  V30 16956 H 1583.71 -5.71344 -1.09808 0
M  V30 16957 H 1582.59 -7.8265 -0.492752 0
M  V30 16958 N 1580.09 0.879207 -1.30796 0
M  V30 16959 C 1581.04 1.98553 -1.17667 0
M  V30 16960 C 1582.01 1.65974 -0.0647231 0
M  V30 16961 O 1583.19 1.89336 -0.235941 0
M  V30 16962 C 1580.33 3.3368 -0.880434 0
M  V30 16963 C 1579.44 3.78913 -2.07482 0
M  V30 16964 C 1578.58 5.02714 -1.71617 0
M  V30 16965 C 1577.62 5.40371 -2.87517 0
M  V30 16966 N 1576.75 6.55352 -2.5191 0
M  V30 16967 H 1581.59 2.09115 -2.12309 0
M  V30 16968 H 1579.13 1.02382 -1.05623 0
M  V30 16969 H 1581.09 4.11467 -0.689278 0
M  V30 16970 H 1579.72 3.22787 0.0291283 0
M  V30 16971 H 1578.77 2.96987 -2.37704 0
M  V30 16972 H 1580.08 4.02757 -2.94259 0
M  V30 16973 H 1579.24 5.88142 -1.4891 0
M  V30 16974 H 1577.98 4.80754 -0.820181 0
M  V30 16975 H 1576.98 4.53466 -3.10883 0
M  V30 16976 H 1578.21 5.64301 -3.77811 0
M  V30 16977 H 1576.15 6.34956 -1.64823 0
M  V30 16978 H 1576.07 6.79093 -3.32217 0
M  V30 16979 H 1577.34 7.43996 -2.32573 0
M  V30 16980 N 1581.57 1.13606 1.09231 0
M  V30 16981 C 1582.82 0.897278 1.81089 0
M  V30 16982 C 1583.14 -0.578066 1.86235 0
M  V30 16983 O 1582.41 -1.42018 1.34935 0
M  V30 16984 H 1580.99 0.328971 0.670662 0
M  V30 16985 H 1583.65 1.433 1.32103 0
M  V30 16986 H 1582.74 1.28979 2.84202 0
M  V30 16987 N 1583.05 -1.27244 0.929878 0
M  V30 16988 C 1584.29 -1.93886 0.570331 0
M  V30 16989 C 1584.61 -1.7342 -0.891656 0
M  V30 16990 O 1583.88 -1.0832 -1.63228 0
M  V30 16991 H 1582.46 -0.717476 0.207937 0
M  V30 16992 H 1585.13 -1.5491 1.18275 0
M  V30 16993 H 1584.22 -3.02236 0.778463 0
M  V30 16994 N 1584.52 -0.695628 -1.41417 0
M  V30 16995 C 1585.75 -0.234163 -2.06074 0
M  V30 16996 C 1586.17 1.10796 -1.52006 0
M  V30 16997 O 1585.53 1.6936 -0.64705 0
M  V30 16998 C 1585.58 -0.202353 -3.60032 0
M  V30 16999 O 1584.68 0.822767 -4.04109 0
M  V30 17000 H 1584.02 -0.114395 -0.654072 0
M  V30 17001 H 1586.55 -0.950503 -1.81181 0
M  V30 17002 H 1586.56 -0.0332321 -4.07986 0
M  V30 17003 H 1585.24 -1.18188 -3.98754 0
M  V30 17004 H 1583.82 0.622995 -3.67659 0
M  V30 17005 N 1586 1.51322 -0.440383 0
M  V30 17006 C 1586.96 2.26388 0.357911 0
M  V30 17007 C 1587.96 1.2995 0.947083 0
M  V30 17008 O 1589.15 1.53637 0.821057 0
M  V30 17009 C 1586.29 3.05797 1.50669 0
M  V30 17010 H 1587.48 2.98396 -0.300002 0
M  V30 17011 H 1585.03 1.55096 -0.193628 0
M  V30 17012 H 1585.77 2.38213 2.20057 0
M  V30 17013 H 1585.55 3.76634 1.09037 0
M  V30 17014 H 1587.04 3.6265 2.07062 0
M  V30 17015 N 1587.48 0.171848 1.5666 0
M  V30 17016 C 1588.7 -0.482396 2.01712 0
M  V30 17017 C 1589.13 -1.5598 1.05128 0
M  V30 17018 O 1588.49 -1.81274 0.0309178 0
M  V30 17019 C 1588.54 -1.03716 3.45363 0
M  V30 17020 O 1587.64 -2.15114 3.51852 0
M  V30 17021 H 1586.98 -0.115439 0.653888 0
M  V30 17022 H 1589.51 0.275895 2.02731 0
M  V30 17023 H 1589.52 -1.35964 3.84679 0
M  V30 17024 H 1588.2 -0.24832 4.15158 0
M  V30 17025 H 1586.77 -1.83907 3.24396 0
M  V30 17026 N 1588.96 -1.5727 -0.101874 0
M  V30 17027 C 1590.19 -1.89943 -0.820329 0
M  V30 17028 C 1590.6 -0.764867 -1.72613 0
M  V30 17029 O 1589.96 0.263499 -1.80588 0
M  V30 17030 C 1590.01 -3.2219 -1.63939 0
M  V30 17031 O 1589.73 -4.31279 -0.770039 0
M  V30 17032 C 1591.23 -3.6868 -2.46151 0
M  V30 17033 H 1588.45 -0.628532 -0.234922 0
M  V30 17034 H 1590.99 -2.04339 -0.0811362 0
M  V30 17035 H 1589.15 -3.09411 -2.33117 0
M  V30 17036 H 1589.56 -5.07182 -1.33665 0
M  V30 17037 H 1591.04 -4.63928 -2.99124 0
M  V30 17038 H 1591.51 -2.96183 -3.24303 0
M  V30 17039 H 1592.12 -3.84303 -1.82185 0
M  V30 17040 N 1590.44 0.372521 -1.53134 0
M  V30 17041 C 1591.68 1.11405 -1.70178 0
M  V30 17042 C 1592.04 1.87194 -0.444559 0
M  V30 17043 O 1591.33 1.83165 0.562249 0
M  V30 17044 C 1591.52 2.10742 -2.88656 0
M  V30 17045 C 1591.35 1.44713 -4.25779 0
M  V30 17046 C 1590.12 1.2042 -4.90741 0
M  V30 17047 C 1592.32 0.888496 -5.06567 0
M  V30 17048 N 1590.3 0.506685 -6.11805 0
M  V30 17049 C 1591.67 0.319961 -6.19174 0
M  V30 17050 C 1593.73 0.786508 -4.91649 0
M  V30 17051 C 1592.43 -0.340609 -7.18493 0
M  V30 17052 C 1594.46 0.139732 -5.91235 0
M  V30 17053 C 1593.82 -0.41796 -7.03159 0
M  V30 17054 H 1589.92 0.393051 -0.676044 0
M  V30 17055 H 1592.5 0.401356 -1.90518 0
M  V30 17056 H 1590.67 2.79332 -2.69867 0
M  V30 17057 H 1592.41 2.77522 -2.94557 0
M  V30 17058 H 1589.16 1.48362 -4.49762 0
M  V30 17059 H 1589.58 0.173493 -6.76778 0
M  V30 17060 H 1594.23 1.20345 -4.05311 0
M  V30 17061 H 1591.94 -0.769521 -8.04428 0
M  V30 17062 H 1595.53 0.0618412 -5.81767 0
M  V30 17063 H 1594.41 -0.910519 -7.78896 0
M  V30 17064 N 1591.91 1.44376 0.631925 0
M  V30 17065 C 1592.84 1.54005 1.75512 0
M  V30 17066 C 1593.82 0.393126 1.65495 0
M  V30 17067 O 1595.01 0.613143 1.84267 0
M  V30 17068 C 1592.14 1.48313 3.14039 0
M  V30 17069 C 1591.09 2.61474 3.38844 0
M  V30 17070 C 1590.42 2.40834 4.77392 0
M  V30 17071 C 1591.72 4.03627 3.31485 0
M  V30 17072 H 1593.41 2.48019 1.6771 0
M  V30 17073 H 1590.96 1.19368 0.80543 0
M  V30 17074 H 1592.91 1.5365 3.9239 0
M  V30 17075 H 1591.64 0.508152 3.22623 0
M  V30 17076 H 1590.3 2.55525 2.62874 0
M  V30 17077 H 1589.94 1.4153 4.82678 0
M  V30 17078 H 1589.64 3.16703 4.94947 0
M  V30 17079 H 1591.17 2.47988 5.57974 0
M  V30 17080 H 1592.58 4.1095 3.99741 0
M  V30 17081 H 1590.98 4.79694 3.60574 0
M  V30 17082 H 1592.05 4.27255 2.29307 0
M  V30 17083 N 1593.39 -0.872258 1.31261 0
M  V30 17084 C 1594.62 -1.65795 1.23772 0
M  V30 17085 C 1595.03 -1.87766 -0.197351 0
M  V30 17086 O 1594.39 -1.43418 -1.1286 0
M  V30 17087 C 1594.44 -3.02722 1.9759 0
M  V30 17088 O 1594.16 -2.81734 3.35496 0
M  V30 17089 C 1595.66 -3.97165 1.96913 0
M  V30 17090 H 1592.88 -0.516959 0.427778 0
M  V30 17091 H 1595.43 -1.0889 1.73099 0
M  V30 17092 H 1593.58 -3.56322 1.5203 0
M  V30 17093 H 1594 -3.6869 3.73052 0
M  V30 17094 H 1595.47 -4.90566 2.53079 0
M  V30 17095 H 1595.95 -4.28778 0.951089 0
M  V30 17096 H 1596.55 -3.495 2.42342 0
M  V30 17097 N 1594.87 -1.14184 -1.08627 0
M  V30 17098 C 1595.83 -0.82954 -2.13662 0
M  V30 17099 C 1596.83 0.164794 -1.59953 0
M  V30 17100 O 1598.02 -0.0632831 -1.74085 0
M  V30 17101 C 1595.15 -0.236176 -3.40081 0
M  V30 17102 H 1596.35 -1.76038 -2.42797 0
M  V30 17103 H 1593.9 -0.947568 -1.24301 0
M  V30 17104 H 1594.64 0.70349 -3.16578 0
M  V30 17105 H 1594.42 -0.952341 -3.80359 0
M  V30 17106 H 1595.91 -0.03481 -4.17585 0
M  V30 17107 N 1596.35 1.26749 -0.936613 0
M  V30 17108 C 1597.6 1.93964 -0.581754 0
M  V30 17109 C 1597.92 1.73532 0.878449 0
M  V30 17110 O 1597.18 1.06295 1.64316 0
M  V30 17111 C 1597.48 3.4678 -0.864789 0
M  V30 17112 C 1597.14 3.87344 -2.30815 0
M  V30 17113 C 1595.81 3.98129 -2.70271 0
M  V30 17114 C 1598.16 4.07752 -3.24634 0
M  V30 17115 C 1595.49 4.26717 -4.02653 0
M  V30 17116 C 1597.84 4.37827 -4.56607 0
M  V30 17117 C 1596.5 4.46826 -4.95886 0
M  V30 17118 H 1595.77 0.709763 -0.212879 0
M  V30 17119 H 1598.42 1.50648 -1.18226 0
M  V30 17120 H 1596.72 3.91378 -0.181699 0
M  V30 17121 H 1598.42 3.96942 -0.569065 0
M  V30 17122 H 1595.01 3.79492 -1.99207 0
M  V30 17123 H 1599.19 3.98852 -2.95349 0
M  V30 17124 H 1594.45 4.31895 -4.32755 0
M  V30 17125 H 1598.62 4.52565 -5.293 0
M  V30 17126 H 1596.25 4.68732 -5.98494 0
M  V30 17127 N 1597.83 0.703118 1.41046 0
M  V30 17128 C 1598.79 0.0514476 2.29142 0
M  V30 17129 C 1599.79 -0.700223 1.44753 0
M  V30 17130 O 1600.98 -0.533985 1.65814 0
M  V30 17131 C 1598.11 -0.93735 3.2776 0
M  V30 17132 H 1599.3 0.827201 2.88266 0
M  V30 17133 H 1596.86 0.467045 1.49159 0
M  V30 17134 H 1597.59 -1.7406 2.7363 0
M  V30 17135 H 1597.38 -0.4014 3.9004 0
M  V30 17136 H 1598.87 -1.39088 3.93757 0
M  V30 17137 N 1599.3 -1.51086 0.448402 0
M  V30 17138 C 1600.23 -2.30896 -0.347773 0
M  V30 17139 C 1601.22 -1.36792 -1.01104 0
M  V30 17140 O 1602.4 -1.65713 -1.01257 0
M  V30 17141 C 1599.53 -3.15901 -1.44304 0
M  V30 17142 C 1598.48 -4.18373 -0.90265 0
M  V30 17143 C 1597.81 -4.9197 -2.0945 0
M  V30 17144 C 1599.11 -5.22252 0.0705335 0
M  V30 17145 H 1600.8 -2.97704 0.318273 0
M  V30 17146 H 1598.35 -1.43169 0.154509 0
M  V30 17147 H 1600.3 -3.70519 -2.00733 0
M  V30 17148 H 1599.03 -2.46935 -2.13753 0
M  V30 17149 H 1597.69 -3.64823 -0.3605 0
M  V30 17150 H 1597.33 -4.19497 -2.77545 0
M  V30 17151 H 1597.03 -5.6127 -1.73926 0
M  V30 17152 H 1598.56 -5.49415 -2.66412 0
M  V30 17153 H 1599.97 -5.71876 -0.403814 0
M  V30 17154 H 1598.37 -5.99142 0.338905 0
M  V30 17155 H 1599.44 -4.74398 1.00373 0
M  V30 17156 N 1600.78 -0.180154 -1.56567 0
M  V30 17157 C 1602.2 0.175902 -1.58628 0
M  V30 17158 C 1602.4 1.62179 -1.19583 0
M  V30 17159 O 1601.45 2.35471 -0.911566 0
M  V30 17160 C 1602.77 -0.11292 -3.00488 0
M  V30 17161 C 1604.32 -0.051834 -3.12957 0
M  V30 17162 C 1604.79 -0.313764 -4.56924 0
M  V30 17163 N 1606.28 -0.261852 -4.62459 0
M  V30 17164 C 1607.02 -0.438573 -5.7172 0
M  V30 17165 N 1606.51 -0.674832 -6.89506 0
M  V30 17166 N 1608.31 -0.373864 -5.60855 0
M  V30 17167 H 1600.46 -1.12385 -1.80232 0
M  V30 17168 H 1602.72 -0.447459 -0.835754 0
M  V30 17169 H 1602.43 -1.11488 -3.33562 0
M  V30 17170 H 1602.3 0.591409 -3.72535 0
M  V30 17171 H 1604.69 0.940711 -2.79705 0
M  V30 17172 H 1604.77 -0.78901 -2.43327 0
M  V30 17173 H 1604.41 -1.30356 -4.90887 0
M  V30 17174 H 1604.34 0.444127 -5.24724 0
M  V30 17175 H 1606.83 -0.0852513 -3.77804 0
M  V30 17176 H 1607.15 -0.798891 -7.6866 0
M  V30 17177 H 1605.49 -0.711551 -6.91348 0
M  V30 17178 H 1608.68 -0.189815 -4.67715 0
M  V30 17179 H 1608.85 -0.515012 -6.4595 0
M  V30 17180 N 1602.26 1.57322 0.0935319 0
M  V30 17181 C 1603.51 1.86443 0.797919 0
M  V30 17182 C 1603.84 0.769491 1.78304 0
M  V30 17183 O 1603.11 -0.222383 1.93225 0
M  V30 17184 C 1603.4 3.26201 1.52528 0
M  V30 17185 C 1603.25 4.46325 0.558031 0
M  V30 17186 C 1604.57 3.63879 2.47548 0
M  V30 17187 H 1601.69 0.678136 0.288618 0
M  V30 17188 H 1604.33 1.899 0.0615161 0
M  V30 17189 H 1602.48 3.23385 2.15301 0
M  V30 17190 H 1604.15 4.61257 -0.0628154 0
M  V30 17191 H 1602.4 4.3361 -0.128462 0
M  V30 17192 H 1603.07 5.40845 1.10413 0
M  V30 17193 H 1605.54 3.6765 1.94866 0
M  V30 17194 H 1604.42 4.62598 2.95456 0
M  V30 17195 H 1604.68 2.92647 3.31376 0
M  V30 17196 N 1603.74 -0.364395 1.53329 0
M  V30 17197 C 1604.67 -1.45243 1.8283 0
M  V30 17198 C 1605.65 -1.55834 0.681886 0
M  V30 17199 O 1606.83 -1.70383 0.931845 0
M  V30 17200 C 1603.96 -2.82565 2.01926 0
M  V30 17201 C 1602.92 -2.86797 3.17697 0
M  V30 17202 C 1602.24 -4.26806 3.22089 0
M  V30 17203 C 1603.54 -2.54212 4.56261 0
M  V30 17204 H 1605.24 -1.20804 2.73946 0
M  V30 17205 H 1602.78 -0.579705 1.31816 0
M  V30 17206 H 1604.74 -3.58709 2.21147 0
M  V30 17207 H 1603.46 -3.08394 1.07521 0
M  V30 17208 H 1602.12 -2.13105 2.98298 0
M  V30 17209 H 1601.77 -4.49712 2.25318 0
M  V30 17210 H 1601.47 -4.30553 3.99873 0
M  V30 17211 H 1602.99 -5.04821 3.43495 0
M  V30 17212 H 1604.41 -3.20069 4.75635 0
M  V30 17213 H 1602.8 -2.69273 5.36295 0
M  V30 17214 H 1603.87 -1.49458 4.61292 0
M  V30 17215 N 1605.22 -1.44709 -0.62426 0
M  V30 17216 C 1606.46 -1.47561 -1.38094 0
M  V30 17217 C 1606.79 -0.112115 -1.94677 0
M  V30 17218 O 1606.06 0.856458 -1.76186 0
M  V30 17219 H 1604.64 -0.543368 -0.512601 0
M  V30 17220 H 1607.3 -1.8054 -0.734258 0
M  V30 17221 H 1606.39 -2.20496 -2.2088 0
M  V30 17222 N 1606.69 0.865285 -1.31722 0
M  V30 17223 C 1607.63 1.97919 -1.15588 0
M  V30 17224 C 1608.64 1.6253 -0.0936929 0
M  V30 17225 O 1609.83 1.752 -0.341639 0
M  V30 17226 C 1606.93 3.30614 -0.744814 0
M  V30 17227 C 1606.1 3.94314 -1.89301 0
M  V30 17228 C 1605.16 5.0533 -1.46724 0
M  V30 17229 O 1604.19 5.25898 -2.17762 0
M  V30 17230 N 1605.39 5.794 -0.357262 0
M  V30 17231 H 1608.15 2.12304 -2.11535 0
M  V30 17232 H 1605.71 1.03953 -1.24118 0
M  V30 17233 H 1607.71 4.02273 -0.442594 0
M  V30 17234 H 1606.28 3.12357 0.123186 0
M  V30 17235 H 1605.5 3.15577 -2.3623 0
M  V30 17236 H 1606.78 4.33609 -2.66196 0
M  V30 17237 H 1606.18 5.65215 0.23423 0
M  V30 17238 H 1604.74 6.51699 -0.114599 0
M  V30 17239 N 1608.17 1.14759 1.0802 0
M  V30 17240 C 1609.42 0.919609 1.80751 0
M  V30 17241 C 1609.75 -0.552268 1.86182 0
M  V30 17242 O 1609.03 -1.40922 1.34057 0
M  V30 17243 C 1609.31 1.52611 3.26162 0
M  V30 17244 C 1609.16 3.06811 3.28918 0
M  V30 17245 C 1610.48 1.20625 4.23246 0
M  V30 17246 H 1607.6 0.33551 0.656203 0
M  V30 17247 H 1610.24 1.41816 1.26444 0
M  V30 17248 H 1608.39 1.10213 3.72539 0
M  V30 17249 H 1610.06 3.58068 2.90835 0
M  V30 17250 H 1608.31 3.41055 2.68075 0
M  V30 17251 H 1608.98 3.44357 4.31419 0
M  V30 17252 H 1611.45 1.57287 3.85227 0
M  V30 17253 H 1610.33 1.65689 5.23296 0
M  V30 17254 H 1610.59 0.122177 4.41931 0
M  V30 17255 N 1609.65 -1.26251 0.943322 0
M  V30 17256 C 1610.6 -2.28295 0.445441 0
M  V30 17257 C 1611.59 -1.62504 -0.478401 0
M  V30 17258 O 1612.8 -1.76437 -0.356378 0
M  V30 17259 H 1609.17 -0.741451 0.125517 0
M  V30 17260 H 1611.14 -2.67687 1.31858 0
M  V30 17261 C 1609.89 -3.46635 -0.271987 0
M  V30 17262 H 1609.22 -3.97484 0.429734 0
M  V30 17263 H 1610.66 -4.19951 -0.584544 0
M  V30 17264 C 1609.12 -3.02133 -1.49054 0
M  V30 17265 O 1609.65 -3.07158 -2.58876 0
M  V30 17266 N 1607.85 -2.57451 -1.34787 0
M  V30 17267 H 1607.4 -2.53562 -0.454347 0
M  V30 17268 H 1607.36 -2.28039 -2.16438 0
M  V30 17269 N 1611.13 -0.710588 -1.40671 0
M  V30 17270 C 1612.08 -0.0548139 -2.30735 0
M  V30 17271 C 1613.05 0.755572 -1.4792 0
M  V30 17272 O 1614.23 0.720541 -1.76672 0
M  V30 17273 C 1611.37 0.864648 -3.34093 0
M  V30 17274 C 1610.48 0.0442717 -4.31977 0
M  V30 17275 C 1609.62 0.962752 -5.22403 0
M  V30 17276 C 1608.66 0.13617 -6.11949 0
M  V30 17277 N 1607.8 1.00926 -6.94808 0
M  V30 17278 H 1612.64 -0.828555 -2.8625 0
M  V30 17279 H 1610.17 -0.420286 -1.40968 0
M  V30 17280 H 1612.13 1.41193 -3.92582 0
M  V30 17281 H 1610.76 1.60462 -2.80092 0
M  V30 17282 H 1609.81 -0.620132 -3.75311 0
M  V30 17283 H 1611.12 -0.595895 -4.95228 0
M  V30 17284 H 1610.28 1.57874 -5.85799 0
M  V30 17285 H 1609.02 1.63675 -4.59415 0
M  V30 17286 H 1608.02 -0.492793 -5.47587 0
M  V30 17287 H 1609.25 -0.534251 -6.76995 0
M  V30 17288 H 1607.19 1.669 -6.34413 0
M  V30 17289 H 1607.11 0.425013 -7.54804 0
M  V30 17290 H 1608.38 1.61159 -7.62659 0
M  V30 17291 N 1612.61 1.50847 -0.456408 0
M  V30 17292 C 1613.84 2.0635 0.10159 0
M  V30 17293 C 1614.25 1.32198 1.35353 0
M  V30 17294 O 1613.59 0.380433 1.79718 0
M  V30 17295 C 1613.65 3.56411 0.470283 0
M  V30 17296 C 1613.31 4.51949 -0.677546 0
M  V30 17297 C 1614.31 4.96091 -1.55531 0
M  V30 17298 C 1612 4.94819 -0.863701 0
M  V30 17299 C 1613.99 5.81793 -2.60377 0
M  V30 17300 C 1611.68 5.80306 -1.9154 0
M  V30 17301 C 1612.68 6.23693 -2.78381 0
M  V30 17302 O 1612.36 7.0748 -3.81742 0
M  V30 17303 H 1612.1 0.675994 0.00283373 0
M  V30 17304 H 1614.65 1.95178 -0.639893 0
M  V30 17305 H 1612.88 3.65433 1.26475 0
M  V30 17306 H 1614.57 3.94344 0.961649 0
M  V30 17307 H 1615.33 4.63651 -1.42311 0
M  V30 17308 H 1611.21 4.60578 -0.197285 0
M  V30 17309 H 1614.76 6.15578 -3.2819 0
M  V30 17310 H 1610.65 6.12159 -2.04773 0
M  V30 17311 H 1611.42 7.257 -3.78553 0
M  V30 17312 N 1614.09 0.188454 1.56469 0
M  V30 17313 C 1615.33 -0.452728 1.97682 0
M  V30 17314 C 1615.66 -1.61729 1.07506 0
M  V30 17315 O 1614.94 -1.94094 0.125677 0
M  V30 17316 C 1615.22 -0.919257 3.48169 0
M  V30 17317 C 1615.08 0.246656 4.49123 0
M  V30 17318 C 1616.39 -1.78706 4.02184 0
M  V30 17319 H 1613.51 -0.16309 0.718729 0
M  V30 17320 H 1616.16 0.27804 1.87955 0
M  V30 17321 H 1614.31 -1.54195 3.5659 0
M  V30 17322 H 1615.98 0.884178 4.52747 0
M  V30 17323 H 1614.22 0.89948 4.24372 0
M  V30 17324 H 1614.89 -0.122179 5.51865 0
M  V30 17325 H 1617.37 -1.26196 3.96502 0
M  V30 17326 H 1616.24 -2.08247 5.07863 0
M  V30 17327 H 1616.5 -2.73891 3.47039 0
M  V30 17328 N 1615.56 -1.5737 -0.0851874 0
M  V30 17329 C 1616.47 -2.06097 -1.12078 0
M  V30 17330 C 1617.49 -0.987809 -1.43242 0
M  V30 17331 O 1618.67 -1.30163 -1.53686 0
M  V30 17332 C 1615.73 -2.48397 -2.41867 0
M  V30 17333 C 1614.79 -3.69951 -2.17795 0
M  V30 17334 C 1614.02 -4.10225 -3.41396 0
M  V30 17335 O 1614.25 -3.50495 -4.5001 0
M  V30 17336 O 1613.18 -5.03111 -3.30399 0
M  V30 17337 H 1617.01 -2.94625 -0.736877 0
M  V30 17338 H 1614.59 -1.4639 -0.298392 0
M  V30 17339 H 1616.47 -2.76187 -3.18274 0
M  V30 17340 H 1615.15 -1.63003 -2.79664 0
M  V30 17341 H 1614.06 -3.47263 -1.39136 0
M  V30 17342 H 1615.39 -4.56156 -1.84886 0
M  V30 17343 N 1617.04 0.356258 -1.53521 0
M  V30 17344 C 1617.97 1.45722 -1.76912 0
M  V30 17345 C 1618.99 1.49257 -0.650091 0
M  V30 17346 O 1620.18 1.52569 -0.926557 0
M  V30 17347 C 1617.28 2.84444 -1.84241 0
M  V30 17348 C 1616.45 3.04497 -3.14007 0
M  V30 17349 C 1615.51 4.23387 -3.12458 0
M  V30 17350 O 1614.53 4.18113 -3.86225 0
M  V30 17351 N 1615.74 5.31278 -2.33931 0
M  V30 17352 H 1618.5 1.26031 -2.71912 0
M  V30 17353 H 1616.06 0.546052 -1.52414 0
M  V30 17354 H 1618.05 3.62133 -1.80671 0
M  V30 17355 H 1616.62 2.97338 -0.96484 0
M  V30 17356 H 1615.84 2.14387 -3.30805 0
M  V30 17357 H 1617.13 3.14769 -3.99747 0
M  V30 17358 H 1616.53 5.38428 -1.73527 0
M  V30 17359 H 1615.09 6.07508 -2.36171 0
M  V30 17360 N 1618.52 1.45038 0.616577 0
M  V30 17361 C 1619.47 1.53343 1.74896 0
M  V30 17362 C 1620.46 0.404033 1.64511 0
M  V30 17363 O 1621.67 0.57958 1.70414 0
M  V30 17364 H 1618.04 0.481471 0.577658 0
M  V30 17365 H 1620.01 2.4862 1.65017 0
M  V30 17366 C 1618.76 1.50871 3.13262 0
M  V30 17367 H 1618.09 2.37098 3.21908 0
M  V30 17368 H 1619.53 1.60741 3.9235 0
M  V30 17369 C 1617.98 0.231704 3.36102 0
M  V30 17370 O 1618.51 -0.692154 3.95692 0
M  V30 17371 N 1616.72 0.130232 2.90308 0
M  V30 17372 H 1616.27 0.882893 2.41997 0
M  V30 17373 H 1616.23 -0.723403 3.05964 0
M  V30 17374 N 1620 -0.858287 1.32179 0
M  V30 17375 C 1620.93 -1.97304 1.16636 0
M  V30 17376 C 1621.94 -1.62478 0.102311 0
M  V30 17377 O 1623.13 -1.75016 0.350926 0
M  V30 17378 C 1620.23 -3.30215 0.762337 0
M  V30 17379 C 1619.4 -3.93305 1.9139 0
M  V30 17380 C 1618.46 -5.04545 1.49402 0
M  V30 17381 O 1617.49 -5.24735 2.20548 0
M  V30 17382 N 1618.69 -5.79202 0.387984 0
M  V30 17383 H 1621.46 -2.11179 2.12658 0
M  V30 17384 H 1619.02 -1.03294 1.24668 0
M  V30 17385 H 1621.01 -4.02032 0.463922 0
M  V30 17386 H 1619.58 -3.12418 -0.10662 0
M  V30 17387 H 1618.8 -3.1432 2.37901 0
M  V30 17388 H 1620.09 -4.32192 2.68492 0
M  V30 17389 H 1619.49 -5.65331 -0.204252 0
M  V30 17390 H 1618.04 -6.51629 0.149158 0
M  V30 17391 N 1621.48 -1.1533 -1.07409 0
M  V30 17392 C 1622.42 -0.845328 -2.16696 0
M  V30 17393 C 1623.42 0.181009 -1.6843 0
M  V30 17394 O 1624.62 0.0361013 -1.79964 0
M  V30 17395 H 1621 -0.255698 -0.707193 0
M  V30 17396 H 1622.97 -1.7747 -2.39889 0
M  V30 17397 C 1621.72 -0.350381 -3.4593 0
M  V30 17398 H 1621.04 -1.13152 -3.83454 0
M  V30 17399 H 1622.48 -0.173547 -4.23645 0
M  V30 17400 C 1620.94 0.927991 -3.23867 0
M  V30 17401 O 1621.47 1.99965 -3.48392 0
M  V30 17402 N 1619.68 0.867266 -2.77357 0
M  V30 17403 H 1619.22 -0.00500352 -2.576 0
M  V30 17404 H 1619.18 1.72314 -2.62974 0
M  V30 17405 N 1622.95 1.25748 -0.950004 0
M  V30 17406 C 1624.18 1.97952 -0.618848 0
M  V30 17407 C 1624.6 1.70184 0.801194 0
M  V30 17408 O 1623.96 0.955032 1.54107 0
M  V30 17409 C 1624.01 3.49744 -0.878151 0
M  V30 17410 O 1623.11 4.12375 0.0453685 0
M  V30 17411 H 1622.45 0.620731 -0.235773 0
M  V30 17412 H 1624.98 1.59988 -1.27534 0
M  V30 17413 H 1624.99 4.00029 -0.802567 0
M  V30 17414 H 1623.67 3.69285 -1.91315 0
M  V30 17415 H 1622.25 3.7281 -0.0820265 0
M  V30 17416 N 1624.43 0.718038 1.40292 0
M  V30 17417 C 1625.68 0.255581 2.00074 0
M  V30 17418 C 1625.99 -1.15859 1.57594 0
M  V30 17419 O 1627.2 -1.71969 2.10092 0
M  V30 17420 C 1625.66 0.406019 3.57602 0
M  V30 17421 C 1625.26 1.82699 4.09054 0
M  V30 17422 C 1627.01 0.00447854 4.245 0
M  V30 17423 C 1624.91 1.92788 5.59094 0
M  V30 17424 H 1623.84 0.0918012 0.748391 0
M  V30 17425 H 1626.5 0.88948 1.60501 0
M  V30 17426 H 1624.88 -0.296504 3.94888 0
M  V30 17427 H 1626.05 2.56009 3.8314 0
M  V30 17428 H 1624.37 2.18021 3.54761 0
M  V30 17429 H 1626.96 0.05911 5.34667 0
M  V30 17430 H 1627.31 -1.03779 4.03157 0
M  V30 17431 H 1627.84 0.657535 3.92328 0
M  V30 17432 H 1624.58 2.95145 5.85295 0
M  V30 17433 H 1624.1 1.23893 5.86865 0
M  V30 17434 H 1625.78 1.70114 6.24236 0
M  V30 17435 N 1625.91 -1.50602 0.464402 0
M  V30 17436 C 1627.15 -2.04194 -0.0917216 0
M  V30 17437 C 1627.51 -1.33921 -1.37584 0
M  V30 17438 O 1628.72 -1.78031 -2.01391 0
M  V30 17439 C 1626.99 -3.56316 -0.278093 0
M  V30 17440 S 1628.55 -4.31561 -0.793734 0
M  V30 17441 H 1625.36 -0.710743 -0.0191155 0
M  V30 17442 H 1627.97 -1.85071 0.63001 0
M  V30 17443 H 1626.67 -4.05019 0.662395 0
M  V30 17444 H 1626.2 -3.79782 -1.02613 0
M  V30 17445 H 1628.22 -4.51052 -2.06801 0
M  V30 17446 N 1627.39 -0.19675 -1.56367 0
M  V30 17447 C 1628.34 0.740138 -2.2051 0
M  V30 17448 C 1629.33 1.21854 -1.17677 0
M  V30 17449 O 1630.54 1.18124 -1.35819 0
M  V30 17450 H 1626.91 0.257034 -0.706709 0
M  V30 17451 H 1628.88 0.175454 -2.97884 0
M  V30 17452 C 1627.63 1.94841 -2.8798 0
M  V30 17453 H 1626.95 1.58936 -3.66851 0
M  V30 17454 H 1628.39 2.58227 -3.36296 0
M  V30 17455 C 1626.85 2.78821 -1.89104 0
M  V30 17456 O 1627.38 3.76797 -1.39237 0
M  V30 17457 N 1625.59 2.44348 -1.57297 0
M  V30 17458 H 1625.14 1.64732 -1.98043 0
M  V30 17459 H 1625.09 3.00822 -0.913978 0
M  V30 17460 N 1628.87 1.57413 0.0768405 0
M  V30 17461 C 1630.09 1.91607 0.793833 0
M  V30 17462 C 1630.52 0.792708 1.70581 0
M  V30 17463 O 1629.87 -0.25475 1.79501 0
M  V30 17464 C 1629.92 3.24736 1.56776 0
M  V30 17465 O 1629.03 3.13613 2.67807 0
M  V30 17466 H 1628.37 0.627572 0.216908 0
M  V30 17467 H 1630.9 2.04547 0.0465957 0
M  V30 17468 H 1630.91 3.58488 1.94809 0
M  V30 17469 H 1629.58 4.06077 0.898588 0
M  V30 17470 H 1628.16 2.91411 2.32668 0
M  V30 17471 N 1630.34 -0.348112 1.53707 0
M  V30 17472 C 1631.27 -1.43296 1.8436 0
M  V30 17473 C 1632.26 -1.55102 0.698376 0
M  V30 17474 O 1633.44 -1.69385 0.949864 0
M  V30 17475 C 1630.57 -2.80407 2.04912 0
M  V30 17476 C 1629.52 -2.83412 3.20721 0
M  V30 17477 C 1628.85 -4.23365 3.26597 0
M  V30 17478 C 1630.15 -2.49358 4.58931 0
M  V30 17479 H 1631.84 -1.17892 2.75212 0
M  V30 17480 H 1629.39 -0.565692 1.32423 0
M  V30 17481 H 1631.34 -3.56343 2.24939 0
M  V30 17482 H 1630.07 -3.07236 1.10786 0
M  V30 17483 H 1628.73 -2.09929 3.00542 0
M  V30 17484 H 1628.37 -4.47297 2.30076 0
M  V30 17485 H 1628.07 -4.26287 4.04417 0
M  V30 17486 H 1629.6 -5.01149 3.4883 0
M  V30 17487 H 1631.01 -3.15006 4.79003 0
M  V30 17488 H 1629.41 -2.6357 5.3912 0
M  V30 17489 H 1630.48 -1.44557 4.62851 0
M  V30 17490 N 1631.82 -1.45363 -0.608876 0
M  V30 17491 C 1632.75 -1.56778 -1.7304 0
M  V30 17492 C 1633.73 -0.419405 -1.64848 0
M  V30 17493 O 1634.92 -0.64238 -1.83268 0
M  V30 17494 C 1632.05 -1.5329 -3.1164 0
M  V30 17495 C 1631 -2.66832 -3.34641 0
M  V30 17496 C 1630.33 -2.48398 -4.735 0
M  V30 17497 C 1631.63 -4.0885 -3.25021 0
M  V30 17498 H 1633.32 -2.50656 -1.63743 0
M  V30 17499 H 1630.87 -1.20635 -0.786338 0
M  V30 17500 H 1632.82 -1.59873 -3.89895 0
M  V30 17501 H 1631.55 -0.559414 -3.21773 0
M  V30 17502 H 1630.2 -2.59675 -2.58775 0
M  V30 17503 H 1629.85 -1.49191 -4.80366 0
M  V30 17504 H 1629.55 -3.24537 -4.89846 0
M  V30 17505 H 1631.08 -2.56833 -5.53958 0
M  V30 17506 H 1632.49 -4.17257 -3.93153 0
M  V30 17507 H 1630.89 -4.85369 -3.52897 0
M  V30 17508 H 1631.96 -4.30849 -2.2248 0
M  V30 17509 N 1633.3 0.851265 -1.32632 0
M  V30 17510 C 1634.55 1.60785 -1.24578 0
M  V30 17511 C 1634.9 1.91462 0.189803 0
M  V30 17512 O 1634.19 1.54839 1.12851 0
M  V30 17513 C 1634.39 2.93312 -2.04212 0
M  V30 17514 C 1634.22 2.75579 -3.55368 0
M  V30 17515 C 1632.99 2.73784 -4.247 0
M  V30 17516 C 1635.19 2.49095 -4.49951 0
M  V30 17517 N 1633.17 2.47298 -5.61887 0
M  V30 17518 C 1634.54 2.32046 -5.74939 0
M  V30 17519 C 1636.59 2.34591 -4.39171 0
M  V30 17520 C 1635.3 2.01965 -6.90364 0
M  V30 17521 C 1637.32 2.05902 -5.54399 0
M  V30 17522 C 1636.68 1.89655 -6.78388 0
M  V30 17523 H 1632.78 0.591922 -0.511031 0
M  V30 17524 H 1635.37 1.00037 -1.67035 0
M  V30 17525 H 1633.54 3.52033 -1.64095 0
M  V30 17526 H 1635.27 3.58369 -1.88026 0
M  V30 17527 H 1632.03 2.86845 -3.76851 0
M  V30 17528 H 1632.45 2.36973 -6.34171 0
M  V30 17529 H 1637.09 2.45871 -3.43959 0
M  V30 17530 H 1634.81 1.89423 -7.85585 0
M  V30 17531 H 1638.4 1.95452 -5.47987 0
M  V30 17532 H 1637.28 1.67772 -7.66043 0
M  V30 17533 N 1634.78 1.15898 1.06796 0
M  V30 17534 C 1635.71 0.88395 2.16122 0
M  V30 17535 C 1636.69 -0.167708 1.69271 0
M  V30 17536 O 1637.87 -0.0208846 1.94189 0
M  V30 17537 C 1635 0.378656 3.4523 0
M  V30 17538 C 1633.96 1.36764 4.05561 0
M  V30 17539 C 1633.28 0.720956 5.29817 0
M  V30 17540 C 1634.58 2.73554 4.44933 0
M  V30 17541 H 1636.28 1.79818 2.39386 0
M  V30 17542 H 1633.82 0.866008 1.15049 0
M  V30 17543 H 1635.78 0.17376 4.21042 0
M  V30 17544 H 1634.5 -0.571063 3.21569 0
M  V30 17545 H 1633.16 1.55899 3.318 0
M  V30 17546 H 1632.81 -0.235089 5.0245 0
M  V30 17547 H 1632.51 1.38101 5.71141 0
M  V30 17548 H 1634.03 0.525963 6.0833 0
M  V30 17549 H 1635.45 2.58231 5.11849 0
M  V30 17550 H 1633.84 3.35986 4.97226 0
M  V30 17551 H 1634.91 3.29192 3.56034 0
M  V30 17552 N 1636.26 -1.25243 0.956659 0
M  V30 17553 C 1637.5 -1.93299 0.613446 0
M  V30 17554 C 1637.84 -1.74723 -0.847671 0
M  V30 17555 O 1637.11 -1.09357 -1.60846 0
M  V30 17556 C 1637.39 -3.46637 0.975421 0
M  V30 17557 C 1637.25 -3.74431 2.49242 0
M  V30 17558 C 1638.57 -4.37228 0.501948 0
M  V30 17559 H 1635.68 -0.702027 0.224338 0
M  V30 17560 H 1638.33 -1.47822 1.19368 0
M  V30 17561 H 1636.48 -3.85503 0.48167 0
M  V30 17562 H 1638.15 -3.4519 3.06009 0
M  V30 17563 H 1636.39 -3.19967 2.92923 0
M  V30 17564 H 1637.06 -4.81674 2.69619 0
M  V30 17565 H 1639.54 -4.05677 0.925514 0
M  V30 17566 H 1638.41 -5.43274 0.783895 0
M  V30 17567 H 1638.68 -4.38036 -0.598082 0
M  V30 17568 N 1637.73 -0.725468 -1.3991 0
M  V30 17569 C 1638.64 -0.0805887 -2.34462 0
M  V30 17570 C 1639.66 0.732689 -1.57822 0
M  V30 17571 O 1640.84 0.663362 -1.90162 0
M  V30 17572 C 1637.9 0.822908 -3.36792 0
M  V30 17573 C 1636.96 -0.00153812 -4.293 0
M  V30 17574 C 1636.2 0.85893 -5.26743 0
M  V30 17575 O 1636.42 2.09793 -5.30418 0
M  V30 17576 O 1635.35 0.292659 -6.01188 0
M  V30 17577 H 1639.18 -0.860746 -2.91247 0
M  V30 17578 H 1636.76 -0.48604 -1.41273 0
M  V30 17579 H 1638.65 1.34014 -3.99522 0
M  V30 17580 H 1637.32 1.58204 -2.82406 0
M  V30 17581 H 1636.23 -0.564072 -3.69823 0
M  V30 17582 H 1637.56 -0.722675 -4.86866 0
M  V30 17583 N 1639.21 1.50354 -0.472382 0
M  V30 17584 C 1640.16 2.30173 0.335135 0
M  V30 17585 C 1641.15 1.37517 0.98921 0
M  V30 17586 O 1642.36 1.54703 0.920168 0
M  V30 17587 H 1638.74 0.741212 0.126918 0
M  V30 17588 H 1640.71 2.96239 -0.358449 0
M  V30 17589 C 1639.46 3.18104 1.40375 0
M  V30 17590 H 1638.78 3.8931 0.90984 0
M  V30 17591 H 1640.22 3.76947 1.94132 0
M  V30 17592 C 1638.68 2.35785 2.40639 0
M  V30 17593 O 1639.21 2.04185 3.45936 0
M  V30 17594 N 1637.41 1.98342 2.12389 0
M  V30 17595 H 1636.96 2.2424 1.26784 0
M  V30 17596 H 1636.92 1.43567 2.79707 0
M  V30 17597 N 1640.69 0.205039 1.56261 0
M  V30 17598 C 1641.92 -0.435787 2.01952 0
M  V30 17599 C 1642.33 -1.55048 1.08428 0
M  V30 17600 O 1641.67 -1.83512 0.0831276 0
M  V30 17601 C 1641.73 -1.04359 3.4402 0
M  V30 17602 C 1641.4 -0.0663955 4.56952 0
M  V30 17603 C 1642.4 0.727909 5.14779 0
M  V30 17604 C 1640.08 0.0475718 5.02277 0
M  V30 17605 C 1642.07 1.62305 6.16389 0
M  V30 17606 C 1639.76 0.94626 6.03729 0
M  V30 17607 C 1640.76 1.73256 6.6066 0
M  V30 17608 O 1640.45 2.61617 7.60139 0
M  V30 17609 H 1640.18 -0.112721 0.666536 0
M  V30 17610 H 1642.73 0.313993 2.02986 0
M  V30 17611 H 1640.96 -1.84215 3.40003 0
M  V30 17612 H 1642.65 -1.5901 3.73458 0
M  V30 17613 H 1643.42 0.65022 4.80622 0
M  V30 17614 H 1639.3 -0.554295 4.57656 0
M  V30 17615 H 1642.84 2.23722 6.60753 0
M  V30 17616 H 1638.74 1.02503 6.3731 0
M  V30 17617 H 1639.51 2.55507 7.77598 0
M  V30 17618 N 1642.17 -1.57451 -0.0684915 0
M  V30 17619 C 1643.1 -2.00648 -1.10783 0
M  V30 17620 C 1644.11 -0.912944 -1.34793 0
M  V30 17621 O 1645.3 -1.19079 -1.32975 0
M  V30 17622 C 1642.4 -2.33309 -2.45805 0
M  V30 17623 C 1641.58 -3.64551 -2.41704 0
M  V30 17624 C 1640.64 -3.84845 -3.5886 0
M  V30 17625 O 1639.66 -4.56392 -3.40139 0
M  V30 17626 N 1640.86 -3.27451 -4.79329 0
M  V30 17627 H 1643.63 -2.90422 -0.739938 0
M  V30 17628 H 1641.19 -1.59846 -0.257093 0
M  V30 17629 H 1643.18 -2.44056 -3.22829 0
M  V30 17630 H 1641.75 -1.49408 -2.74583 0
M  V30 17631 H 1640.97 -3.64528 -1.50043 0
M  V30 17632 H 1642.26 -4.50721 -2.36068 0
M  V30 17633 H 1641.66 -2.69384 -4.97442 0
M  V30 17634 H 1640.21 -3.43641 -5.53854 0
M  V30 17635 N 1643.65 0.339955 -1.5389 0
M  V30 17636 C 1644.58 1.42316 -1.85117 0
M  V30 17637 C 1645.56 1.5473 -0.706591 0
M  V30 17638 O 1646.74 1.68879 -0.958834 0
M  V30 17639 C 1643.87 2.79317 -2.06396 0
M  V30 17640 C 1642.83 2.81707 -3.22219 0
M  V30 17641 C 1642.15 4.21627 -3.28838 0
M  V30 17642 C 1643.45 2.46921 -4.60247 0
M  V30 17643 H 1645.15 1.16431 -2.75834 0
M  V30 17644 H 1642.69 0.558661 -1.32721 0
M  V30 17645 H 1644.65 3.55145 -2.26826 0
M  V30 17646 H 1643.37 3.06644 -1.12414 0
M  V30 17647 H 1642.03 2.08332 -3.01651 0
M  V30 17648 H 1641.68 4.4607 -2.32444 0
M  V30 17649 H 1641.38 4.24137 -4.06672 0
M  V30 17650 H 1642.9 4.99292 -3.51482 0
M  V30 17651 H 1644.32 3.12462 -4.80667 0
M  V30 17652 H 1642.71 2.60707 -5.40511 0
M  V30 17653 H 1643.78 1.421 -4.63611 0
M  V30 17654 N 1645.13 1.45684 0.601159 0
M  V30 17655 C 1646.4 1.4051 1.36074 0
M  V30 17656 C 1646.78 0.0790095 2.10952 0
M  V30 17657 O 1646.13 -0.939162 2.08307 0
M  V30 17658 C 1646.34 2.62297 2.3022 0
M  V30 17659 C 1647.69 3.0766 2.92627 0
M  V30 17660 O 1648.71 2.62716 2.40539 0
M  V30 17661 O 1647.57 3.85675 3.87191 0
M  V30 17662 H 1644.67 0.557902 0.61047 0
M  V30 17663 H 1647.21 1.57822 0.623712 0
M  V30 17664 H 1645.98 3.50389 1.74194 0
M  V30 17665 H 1645.61 2.47351 3.11293 0
M  V30 17666 N 1646.6 -0.84422 1.33082 0
M  V30 17667 C 1647.55 -1.97504 1.22862 0
M  V30 17668 C 1648.55 -1.68892 0.131141 0
M  V30 17669 O 1649.75 -1.7757 0.294753 0
M  V30 17670 H 1646.13 -0.648263 0.381129 0
M  V30 17671 H 1648.1 -2.03249 2.18478 0
M  V30 17672 C 1646.85 -3.33626 0.979228 0
M  V30 17673 H 1646.17 -3.56178 1.81596 0
M  V30 17674 H 1647.61 -4.13266 0.948007 0
M  V30 17675 C 1646.07 -3.35397 -0.317922 0
M  V30 17676 O 1646.6 -3.7917 -1.32638 0
M  V30 17677 N 1644.8 -2.88562 -0.343577 0
M  V30 17678 H 1644.35 -2.53133 0.477625 0
M  V30 17679 H 1644.31 -2.90129 -1.21131 0
M  V30 17680 N 1648.08 -1.16463 -1.0618 0
M  V30 17681 C 1649.33 -0.944975 -1.78647 0
M  V30 17682 C 1649.65 0.528486 -1.87702 0
M  V30 17683 O 1648.92 1.38391 -1.38653 0
M  V30 17684 H 1647.5 -0.346637 -0.661704 0
M  V30 17685 H 1650.16 -1.46752 -1.28257 0
M  V30 17686 H 1649.26 -1.36469 -2.80683 0
M  V30 17687 N 1649.56 1.24734 -0.963288 0
M  V30 17688 C 1650.78 1.97285 -0.639808 0
M  V30 17689 C 1651.21 1.71024 0.783099 0
M  V30 17690 O 1650.57 0.971324 1.53085 0
M  V30 17691 C 1650.62 3.48793 -0.915197 0
M  V30 17692 O 1649.72 4.124 0.00162805 0
M  V30 17693 H 1649.06 0.618196 -0.242343 0
M  V30 17694 H 1651.59 1.58627 -1.29224 0
M  V30 17695 H 1651.6 3.99155 -0.84495 0
M  V30 17696 H 1650.28 3.67235 -1.95221 0
M  V30 17697 H 1648.85 3.72702 -0.121563 0
M  V30 17698 N 1651.04 0.732878 1.39523 0
M  V30 17699 C 1652.28 0.279891 2.00556 0
M  V30 17700 C 1652.61 -1.13223 1.58148 0
M  V30 17701 O 1651.87 -1.78575 0.800591 0
M  V30 17702 C 1652.17 0.32714 3.559 0
M  V30 17703 C 1651.83 1.69198 4.17951 0
M  V30 17704 C 1650.49 2.06555 4.34613 0
M  V30 17705 C 1652.85 2.58821 4.52395 0
M  V30 17706 C 1650.17 3.33047 4.83008 0
M  V30 17707 C 1652.53 3.84682 5.02197 0
M  V30 17708 C 1651.19 4.22134 5.17068 0
M  V30 17709 H 1650.46 0.102419 0.733888 0
M  V30 17710 H 1653.11 0.939304 1.66881 0
M  V30 17711 H 1651.41 -0.415849 3.89587 0
M  V30 17712 H 1653.11 -0.0414564 4.00979 0
M  V30 17713 H 1649.7 1.39153 4.05382 0
M  V30 17714 H 1653.88 2.31231 4.39142 0
M  V30 17715 H 1649.14 3.6201 4.92706 0
M  V30 17716 H 1653.31 4.54286 5.27823 0
M  V30 17717 H 1650.94 5.20215 5.54329 0
M  V30 17718 N 1652.52 -1.50101 0.480349 0
M  V30 17719 C 1653.46 -2.28722 -0.308993 0
M  V30 17720 C 1654.43 -1.34186 -0.978948 0
M  V30 17721 O 1655.62 -1.6313 -0.989602 0
M  V30 17722 C 1652.76 -3.16322 -1.37966 0
M  V30 17723 C 1651.87 -4.25898 -0.723552 0
M  V30 17724 C 1651.01 -5.00741 -1.7729 0
M  V30 17725 C 1650.04 -6.0218 -1.09754 0
M  V30 17726 N 1649.18 -6.70266 -2.09015 0
M  V30 17727 H 1654.02 -2.95722 0.367739 0
M  V30 17728 H 1651.56 -1.45826 0.193197 0
M  V30 17729 H 1653.52 -3.65469 -2.01217 0
M  V30 17730 H 1652.15 -2.51349 -2.02543 0
M  V30 17731 H 1651.2 -3.80394 0.0217507 0
M  V30 17732 H 1652.51 -4.98435 -0.190905 0
M  V30 17733 H 1651.66 -5.53653 -2.48098 0
M  V30 17734 H 1650.4 -4.27931 -2.33937 0
M  V30 17735 H 1649.41 -5.48519 -0.375123 0
M  V30 17736 H 1650.63 -6.76967 -0.537841 0
M  V30 17737 H 1648.58 -6.00242 -2.64662 0
M  V30 17738 H 1648.5 -7.3871 -1.6076 0
M  V30 17739 H 1649.76 -7.27792 -2.79175 0
M  V30 17740 N 1653.99 -0.213323 -1.5615 0
M  V30 17741 C 1654.9 0.711703 -2.23544 0
M  V30 17742 C 1655.92 1.22027 -1.24038 0
M  V30 17743 O 1657.1 1.26361 -1.56828 0
M  V30 17744 C 1654.16 1.90645 -2.89578 0
M  V30 17745 C 1653.22 1.44066 -4.04405 0
M  V30 17746 C 1652.45 2.57846 -4.6728 0
M  V30 17747 O 1652.68 3.75781 -4.29121 0
M  V30 17748 O 1651.61 2.29518 -5.56422 0
M  V30 17749 H 1655.44 0.167635 -3.03237 0
M  V30 17750 H 1653.02 0.016771 -1.49391 0
M  V30 17751 H 1654.9 2.60435 -3.31288 0
M  V30 17752 H 1653.58 2.43877 -2.12851 0
M  V30 17753 H 1652.49 0.711024 -3.67281 0
M  V30 17754 H 1653.82 0.954809 -4.8285 0
M  V30 17755 N 1655.47 1.57485 0.0601405 0
M  V30 17756 C 1656.42 2.0554 1.08886 0
M  V30 17757 C 1657.41 0.962963 1.39368 0
M  V30 17758 O 1658.62 1.14802 1.38638 0
M  V30 17759 H 1655 0.655506 0.368532 0
M  V30 17760 H 1656.97 2.91066 0.657513 0
M  V30 17761 C 1655.72 2.52464 2.39076 0
M  V30 17762 H 1655.04 3.36123 2.16475 0
M  V30 17763 H 1656.48 2.89829 3.09476 0
M  V30 17764 C 1654.94 1.41248 3.05861 0
M  V30 17765 O 1655.47 0.761119 3.94423 0
M  V30 17766 N 1653.67 1.1547 2.66674 0
M  V30 17767 H 1653.22 1.6862 1.94744 0
M  V30 17768 H 1653.18 0.412641 3.1168 0
M  V30 17769 N 1656.95 -0.331789 1.54068 0
M  V30 17770 C 1658.18 -1.09484 1.76148 0
M  V30 17771 C 1658.6 -1.81201 0.504772 0
M  V30 17772 O 1657.96 -1.7297 -0.54325 0
M  V30 17773 C 1658.01 -2.07495 2.94921 0
M  V30 17774 O 1657.11 -3.15239 2.65891 0
M  V30 17775 H 1656.45 -0.316071 0.583948 0
M  V30 17776 H 1658.98 -0.378593 2.01067 0
M  V30 17777 H 1658.99 -2.5051 3.22038 0
M  V30 17778 H 1657.67 -1.54696 3.8606 0
M  V30 17779 H 1656.24 -2.76958 2.49697 0
M  V30 17780 N 1658.43 -1.46001 -0.593424 0
M  V30 17781 C 1659.36 -1.51774 -1.71748 0
M  V30 17782 C 1660.37 -0.407093 -1.57628 0
M  V30 17783 O 1661.56 -0.674903 -1.65249 0
M  V30 17784 C 1658.66 -1.3718 -3.09895 0
M  V30 17785 C 1657.84 -2.62173 -3.5012 0
M  V30 17786 C 1656.89 -2.41933 -4.67285 0
M  V30 17787 O 1655.92 -3.15611 -4.73686 0
M  V30 17788 N 1657.12 -1.47405 -5.61473 0
M  V30 17789 H 1659.89 -2.48689 -1.67253 0
M  V30 17790 H 1657.45 -1.41921 -0.779111 0
M  V30 17791 H 1659.44 -1.21428 -3.86054 0
M  V30 17792 H 1658.01 -0.484876 -3.08817 0
M  V30 17793 H 1657.23 -2.92943 -2.63777 0
M  V30 17794 H 1658.52 -3.45229 -3.73758 0
M  V30 17795 H 1657.92 -0.866282 -5.59028 0
M  V30 17796 H 1656.47 -1.3762 -6.37106 0
M  V30 17797 N 1659.91 0.83715 -1.33527 0
M  V30 17798 C 1661.14 1.6222 -1.27938 0
M  V30 17799 C 1661.54 1.88592 0.151584 0
M  V30 17800 O 1660.89 1.46772 1.1047 0
M  V30 17801 C 1660.95 2.99561 -1.98754 0
M  V30 17802 C 1660.61 2.96152 -3.48056 0
M  V30 17803 C 1661.61 2.71745 -4.43227 0
M  V30 17804 C 1659.3 3.16233 -3.90259 0
M  V30 17805 C 1661.29 2.67451 -5.78575 0
M  V30 17806 C 1658.98 3.11564 -5.2571 0
M  V30 17807 C 1659.97 2.87204 -6.1968 0
M  V30 17808 O 1659.66 2.82441 -7.5265 0
M  V30 17809 H 1659.39 0.511419 -0.442071 0
M  V30 17810 H 1661.95 1.05075 -1.76489 0
M  V30 17811 H 1660.18 3.58568 -1.44797 0
M  V30 17812 H 1661.87 3.60444 -1.86642 0
M  V30 17813 H 1662.63 2.5598 -4.11946 0
M  V30 17814 H 1658.51 3.34214 -3.17525 0
M  V30 17815 H 1662.06 2.48356 -6.51893 0
M  V30 17816 H 1657.95 3.26879 -5.56615 0
M  V30 17817 H 1658.72 2.98271 -7.62218 0
M  V30 17818 N 1661.38 1.17024 1.05561 0
M  V30 17819 C 1662.32 0.841314 2.13201 0
M  V30 17820 C 1663.33 -0.154667 1.62064 0
M  V30 17821 O 1664.52 0.0711173 1.78358 0
M  V30 17822 C 1661.62 0.233156 3.38097 0
M  V30 17823 C 1660.79 1.27108 4.18524 0
M  V30 17824 C 1659.85 0.681364 5.2177 0
M  V30 17825 O 1658.88 1.35219 5.52906 0
M  V30 17826 N 1660.08 -0.528381 5.7809 0
M  V30 17827 H 1662.84 1.76773 2.42015 0
M  V30 17828 H 1660.4 1.06858 1.21626 0
M  V30 17829 H 1662.4 -0.174565 4.04323 0
M  V30 17830 H 1660.97 -0.596965 3.06847 0
M  V30 17831 H 1660.19 1.85469 3.47843 0
M  V30 17832 H 1661.47 1.97129 4.6906 0
M  V30 17833 H 1660.87 -1.09141 5.55072 0
M  V30 17834 H 1659.43 -0.878214 6.45857 0
M  V30 17835 N 1662.86 -1.24221 0.969889 0
M  V30 17836 C 1664.27 -1.74206 0.671494 0
M  V30 17837 C 1664.62 -1.78576 -0.81271 0
M  V30 17838 O 1663.75 -1.41664 -1.63586 0
M  V30 17839 C 1664.34 -3.16371 1.21222 0
M  V30 17840 C 1662.9 -3.63855 0.96368 0
M  V30 17841 C 1662.05 -2.42429 1.34623 0
M  V30 17842 H 1665 -1.09893 1.14496 0
M  V30 17843 H 1665.02 -3.7606 0.579552 0
M  V30 17844 H 1664.53 -3.13159 2.29245 0
M  V30 17845 H 1662.64 -3.72463 -0.100931 0
M  V30 17846 H 1662.75 -4.51207 1.61087 0
M  V30 17847 H 1661.11 -2.42952 0.764624 0
M  V30 17848 H 1661.9 -2.41896 2.436 0
M  V30 17849 N 1664.34 -0.740267 -1.39132 0
M  V30 17850 C 1665.59 -0.287379 -1.99642 0
M  V30 17851 C 1665.9 1.13337 -1.59418 0
M  V30 17852 O 1667.11 1.68605 -2.12802 0
M  V30 17853 C 1665.56 -0.462859 -3.56911 0
M  V30 17854 C 1665.17 -1.89184 -4.06095 0
M  V30 17855 C 1666.92 -0.0720122 -4.24439 0
M  V30 17856 C 1664.82 -2.01659 -5.55957 0
M  V30 17857 H 1663.75 -0.103696 -0.746835 0
M  V30 17858 H 1666.4 -0.914902 -1.59065 0
M  V30 17859 H 1664.79 0.233644 -3.9531 0
M  V30 17860 H 1665.96 -2.62072 -3.79018 0
M  V30 17861 H 1664.28 -2.23638 -3.51248 0
M  V30 17862 H 1666.87 -0.144163 -5.34506 0
M  V30 17863 H 1667.22 0.973516 -4.04757 0
M  V30 17864 H 1667.75 -0.719868 -3.91232 0
M  V30 17865 H 1664.49 -3.04419 -5.80525 0
M  V30 17866 H 1664.01 -1.33214 -5.8482 0
M  V30 17867 H 1665.69 -1.80023 -6.2145 0
M  V30 17868 N 1665.82 1.49844 -0.488302 0
M  V30 17869 C 1666.77 2.28883 0.296859 0
M  V30 17870 C 1667.74 1.34703 0.971818 0
M  V30 17871 O 1668.92 1.63653 0.980937 0
M  V30 17872 C 1666.06 3.17049 1.36286 0
M  V30 17873 C 1665.17 4.26275 0.700956 0
M  V30 17874 C 1664.31 5.01674 1.74632 0
M  V30 17875 C 1663.35 6.02753 1.06559 0
M  V30 17876 N 1662.48 6.71366 2.05457 0
M  V30 17877 H 1667.32 2.95523 -0.383417 0
M  V30 17878 H 1664.86 1.45721 -0.200928 0
M  V30 17879 H 1666.82 3.66531 1.99276 0
M  V30 17880 H 1665.45 2.52419 2.01207 0
M  V30 17881 H 1664.5 3.80377 -0.0419236 0
M  V30 17882 H 1665.81 4.98529 0.164469 0
M  V30 17883 H 1664.97 5.54961 2.45159 0
M  V30 17884 H 1663.71 4.29166 2.31664 0
M  V30 17885 H 1662.71 5.4871 0.346029 0
M  V30 17886 H 1663.94 6.77243 0.501932 0
M  V30 17887 H 1661.88 6.01637 2.61475 0
M  V30 17888 H 1661.8 7.39552 1.56841 0
M  V30 17889 H 1663.07 7.29262 2.75312 0
M  V30 17890 N 1667.3 0.221601 1.56034 0
M  V30 17891 C 1668.23 -0.683171 2.23282 0
M  V30 17892 C 1669.21 -1.20101 1.20456 0
M  V30 17893 O 1670.39 -1.245 1.49041 0
M  V30 17894 C 1667.52 -1.89143 2.91277 0
M  V30 17895 C 1666.48 -1.50742 4.00576 0
M  V30 17896 C 1665.8 -2.79446 4.55867 0
M  V30 17897 C 1667.1 -0.697388 5.17623 0
M  V30 17898 H 1668.8 -0.122488 2.99149 0
M  V30 17899 H 1666.34 -0.0574732 1.43885 0
M  V30 17900 H 1668.3 -2.52982 3.37013 0
M  V30 17901 H 1667.02 -2.47708 2.12858 0
M  V30 17902 H 1665.68 -0.892492 3.5557 0
M  V30 17903 H 1665.33 -3.36155 3.74177 0
M  V30 17904 H 1665.03 -2.54486 5.29633 0
M  V30 17905 H 1666.55 -3.44228 5.04321 0
M  V30 17906 H 1667.96 -1.23948 5.59741 0
M  V30 17907 H 1666.36 -0.544875 5.97621 0
M  V30 17908 H 1667.43 0.295981 4.83996 0
M  V30 17909 N 1668.77 -1.57515 -0.0517878 0
M  V30 17910 C 1669.71 -2.01812 -1.08649 0
M  V30 17911 C 1670.72 -0.92719 -1.33817 0
M  V30 17912 O 1671.91 -1.20483 -1.31705 0
M  V30 17913 C 1669.01 -2.35903 -2.43316 0
M  V30 17914 C 1668.18 -3.67095 -2.37824 0
M  V30 17915 C 1667.24 -3.8863 -3.54758 0
M  V30 17916 O 1666.27 -4.59974 -3.3528 0
M  V30 17917 N 1667.47 -3.32516 -4.75829 0
M  V30 17918 H 1670.23 -2.91191 -0.709094 0
M  V30 17919 H 1667.79 -1.60109 -0.240125 0
M  V30 17920 H 1669.79 -2.47466 -3.20223 0
M  V30 17921 H 1668.36 -1.52312 -2.72983 0
M  V30 17922 H 1667.58 -3.66099 -1.46168 0
M  V30 17923 H 1668.86 -4.53199 -2.31275 0
M  V30 17924 H 1668.26 -2.74645 -4.94557 0
M  V30 17925 H 1666.82 -3.49496 -5.50178 0
M  V30 17926 N 1670.25 0.323614 -1.54242 0
M  V30 17927 C 1671.5 1.05947 -1.72104 0
M  V30 17928 C 1671.82 1.88547 -0.497512 0
M  V30 17929 O 1671.09 1.89712 0.488485 0
M  V30 17930 H 1669.67 0.394141 -0.634557 0
M  V30 17931 H 1672.33 0.360063 -1.91545 0
M  V30 17932 H 1671.43 1.72552 -2.60062 0
M  V30 17933 N 1671.73 1.46313 0.585673 0
M  V30 17934 C 1672.96 1.55035 1.3701 0
M  V30 17935 C 1673.37 0.190444 1.87837 0
M  V30 17936 O 1672.73 -0.81177 1.63452 0
M  V30 17937 C 1672.78 2.55272 2.55965 0
M  V30 17938 O 1672.5 3.85981 2.07245 0
M  V30 17939 C 1674 2.73906 3.48555 0
M  V30 17940 H 1671.22 0.524377 0.418653 0
M  V30 17941 H 1673.77 1.91695 0.712267 0
M  V30 17942 H 1671.92 2.21625 3.17744 0
M  V30 17943 H 1672.34 4.40512 2.84692 0
M  V30 17944 H 1673.81 3.4797 4.2851 0
M  V30 17945 H 1674.29 1.80708 4.00301 0
M  V30 17946 H 1674.89 3.08638 2.92614 0
M  V30 17947 N 1673.21 -0.830057 1.33969 0
M  V30 17948 C 1674.14 -1.95557 1.27592 0
M  V30 17949 C 1675.12 -1.69395 0.154745 0
M  V30 17950 O 1676.31 -1.91094 0.345954 0
M  V30 17951 C 1673.44 -3.31881 1.02335 0
M  V30 17952 C 1672.39 -3.72464 2.10842 0
M  V30 17953 C 1671.72 -5.06692 1.70785 0
M  V30 17954 C 1673.02 -3.85315 3.52604 0
M  V30 17955 H 1674.71 -2.0115 2.21763 0
M  V30 17956 H 1672.26 -0.96639 1.06756 0
M  V30 17957 H 1674.21 -4.10197 0.965206 0
M  V30 17958 H 1672.93 -3.26568 0.0460462 0
M  V30 17959 H 1671.59 -2.96417 2.15714 0
M  V30 17960 H 1671.24 -4.97859 0.717334 0
M  V30 17961 H 1670.94 -5.34817 2.43403 0
M  V30 17962 H 1672.46 -5.87474 1.66452 0
M  V30 17963 H 1673.88 -4.5392 3.50185 0
M  V30 17964 H 1672.27 -4.24886 4.23783 0
M  V30 17965 H 1673.34 -2.87514 3.90466 0
M  V30 17966 N 1674.69 -1.17582 -1.04939 0
M  V30 17967 C 1676.1 -0.971326 -1.59443 0
M  V30 17968 C 1676.45 0.481308 -1.90205 0
M  V30 17969 O 1675.57 1.35708 -1.6856 0
M  V30 17970 C 1676.17 -1.75685 -2.8969 0
M  V30 17971 C 1674.73 -1.59695 -3.40844 0
M  V30 17972 C 1673.88 -1.75688 -2.14544 0
M  V30 17973 H 1676.83 -1.32254 -0.877188 0
M  V30 17974 H 1676.85 -1.24074 -3.59703 0
M  V30 17975 H 1676.36 -2.81405 -2.67269 0
M  V30 17976 H 1674.46 -0.564746 -3.68295 0
M  V30 17977 H 1674.57 -2.38951 -4.15258 0
M  V30 17978 H 1672.94 -1.18553 -2.25427 0
M  V30 17979 H 1673.72 -2.82825 -1.94589 0
M  V30 17980 N 1676.17 1.23705 -0.976463 0
M  V30 17981 C 1677.41 1.92299 -0.64412 0
M  V30 17982 C 1677.74 1.7605 0.819767 0
M  V30 17983 O 1677.02 1.11902 1.59086 0
M  V30 17984 C 1677.3 3.45042 -1.03044 0
M  V30 17985 C 1677.16 3.70418 -2.55167 0
M  V30 17986 C 1678.47 4.36374 -0.571444 0
M  V30 17987 H 1675.59 0.698369 -0.235478 0
M  V30 17988 H 1678.24 1.45904 -1.21704 0
M  V30 17989 H 1676.39 3.84687 -0.54294 0
M  V30 17990 H 1678.06 3.40278 -3.11462 0
M  V30 17991 H 1676.3 3.15266 -2.97976 0
M  V30 17992 H 1676.97 4.77323 -2.77248 0
M  V30 17993 H 1679.45 4.04153 -0.989936 0
M  V30 17994 H 1678.32 5.41958 -0.870226 0
M  V30 17995 H 1678.58 4.38932 0.528318 0
M  V30 17996 N 1677.64 0.747635 1.38738 0
M  V30 17997 C 1678.55 0.117879 2.34304 0
M  V30 17998 C 1679.57 -0.707488 1.58967 0
M  V30 17999 O 1680.75 -0.633025 1.91193 0
M  V30 18000 C 1677.81 -0.769223 3.38059 0
M  V30 18001 C 1676.87 0.0698358 4.29243 0
M  V30 18002 C 1676.1 -0.775021 5.28043 0
M  V30 18003 O 1676.33 -2.01328 5.33688 0
M  V30 18004 O 1675.26 -0.196978 6.01578 0
M  V30 18005 H 1679.09 0.906972 2.89841 0
M  V30 18006 H 1676.67 0.508453 1.40482 0
M  V30 18007 H 1678.55 -1.27641 4.01604 0
M  V30 18008 H 1677.23 -1.53691 2.84887 0
M  V30 18009 H 1676.14 0.622836 3.68879 0
M  V30 18010 H 1677.47 0.80004 4.85654 0
M  V30 18011 N 1679.12 -1.49583 0.496242 0
M  V30 18012 C 1680.08 -2.27561 -0.273642 0
M  V30 18013 C 1681.08 -1.33375 -0.8982 0
M  V30 18014 O 1682.27 -1.56578 -0.76347 0
M  V30 18015 C 1679.41 -3.11178 -1.39216 0
M  V30 18016 H 1680.6 -2.97077 0.410543 0
M  V30 18017 H 1678.15 -1.54271 0.251058 0
M  V30 18018 H 1678.89 -2.46217 -2.11064 0
M  V30 18019 H 1678.67 -3.80422 -0.949829 0
M  V30 18020 H 1680.16 -3.70085 -1.93459 0
M  V30 18021 N 1680.6 -0.229873 -1.55915 0
M  V30 18022 C 1682.02 0.125347 -1.59107 0
M  V30 18023 C 1682.22 1.58293 -1.24682 0
M  V30 18024 O 1681.27 2.32452 -0.986018 0
M  V30 18025 C 1682.58 -0.208461 -2.99977 0
M  V30 18026 C 1684.13 -0.151373 -3.12634 0
M  V30 18027 C 1684.61 -0.458972 -4.55694 0
M  V30 18028 N 1686.1 -0.408847 -4.61392 0
M  V30 18029 C 1686.83 -0.620239 -5.70036 0
M  V30 18030 N 1686.33 -0.893851 -6.8701 0
M  V30 18031 N 1688.12 -0.552107 -5.59382 0
M  V30 18032 H 1680.27 -1.18062 -1.76565 0
M  V30 18033 H 1682.54 -0.473821 -0.821095 0
M  V30 18034 H 1682.24 -1.22043 -3.29846 0
M  V30 18035 H 1682.12 0.472591 -3.74228 0
M  V30 18036 H 1684.5 0.851249 -2.82556 0
M  V30 18037 H 1684.58 -0.866024 -2.40694 0
M  V30 18038 H 1684.23 -1.45907 -4.86491 0
M  V30 18039 H 1684.16 0.276965 -5.25871 0
M  V30 18040 H 1686.65 -0.205404 -3.77341 0
M  V30 18041 H 1686.96 -1.04303 -7.65729 0
M  V30 18042 H 1685.31 -0.931138 -6.88734 0
M  V30 18043 H 1688.5 -0.338518 -4.66874 0
M  V30 18044 H 1688.67 -0.720256 -6.43985 0
M  V30 18045 N 1682.08 1.5754 0.0434337 0
M  V30 18046 C 1682.99 2.08996 1.06574 0
M  V30 18047 C 1684 1.02544 1.40573 0
M  V30 18048 O 1685.18 1.34192 1.50181 0
M  V30 18049 C 1682.24 2.54723 2.35196 0
M  V30 18050 C 1681.31 3.75595 2.0791 0
M  V30 18051 C 1680.54 4.19132 3.304 0
M  V30 18052 O 1680.76 3.62303 4.40559 0
M  V30 18053 O 1679.7 5.11694 3.16944 0
M  V30 18054 H 1683.52 2.96475 0.658503 0
M  V30 18055 H 1681.11 1.47129 0.259475 0
M  V30 18056 H 1682.99 2.84529 3.1084 0
M  V30 18057 H 1681.66 1.70361 2.75243 0
M  V30 18058 H 1680.57 3.5083 1.2988 0
M  V30 18059 H 1681.9 4.60897 1.72727 0
M  V30 18060 N 1683.56 -0.31543 1.54411 0
M  V30 18061 C 1684.5 -1.4086 1.85098 0
M  V30 18062 C 1685.5 -1.53172 0.723518 0
M  V30 18063 O 1686.7 -1.55461 0.907303 0
M  V30 18064 H 1683.08 -0.47022 0.586853 0
M  V30 18065 H 1685.05 -1.12207 2.765 0
M  V30 18066 C 1683.8 -2.76948 2.10227 0
M  V30 18067 H 1683.12 -2.68251 2.96448 0
M  V30 18068 H 1684.56 -3.52486 2.35647 0
M  V30 18069 C 1683.02 -3.24758 0.896312 0
M  V30 18070 O 1683.55 -4.0155 0.109609 0
M  V30 18071 N 1681.76 -2.81901 0.705685 0
M  V30 18072 H 1681.3 -2.19571 1.34708 0
M  V30 18073 H 1681.26 -3.14242 -0.0996804 0
M  V30 18074 N 1685.03 -1.46622 -0.577906 0
M  V30 18075 C 1686.26 -1.56 -1.36671 0
M  V30 18076 C 1686.68 -0.2034 -1.86997 0
M  V30 18077 O 1686.04 0.817288 -1.61834 0
M  V30 18078 C 1686.09 -2.57254 -2.52691 0
M  V30 18079 O 1685.19 -2.1109 -3.54281 0
M  V30 18080 H 1684.54 -0.524779 -0.406821 0
M  V30 18081 H 1687.07 -1.92234 -0.700512 0
M  V30 18082 H 1687.08 -2.77016 -2.99543 0
M  V30 18083 H 1685.75 -3.55766 -2.15415 0
M  V30 18084 H 1684.33 -2.01337 -3.13875 0
M  V30 18085 N 1686.51 0.822941 -1.34408 0
M  V30 18086 C 1687.44 1.94878 -1.28627 0
M  V30 18087 C 1688.42 1.6931 -0.163727 0
M  V30 18088 O 1689.61 1.90908 -0.356083 0
M  V30 18089 C 1686.74 3.31333 -1.04094 0
M  V30 18090 C 1685.69 3.71341 -2.12814 0
M  V30 18091 C 1685.02 5.05779 -1.73469 0
M  V30 18092 C 1686.32 3.83439 -3.54643 0
M  V30 18093 H 1688.01 1.99972 -2.22827 0
M  V30 18094 H 1685.56 0.960715 -1.07267 0
M  V30 18095 H 1687.51 4.0968 -0.986947 0
M  V30 18096 H 1686.24 3.26539 -0.0633642 0
M  V30 18097 H 1684.89 2.95269 -2.17282 0
M  V30 18098 H 1684.54 4.97471 -0.743727 0
M  V30 18099 H 1684.24 5.33518 -2.46236 0
M  V30 18100 H 1685.77 5.86583 -1.69566 0
M  V30 18101 H 1687.18 4.52057 -3.52587 0
M  V30 18102 H 1685.58 4.22632 -4.2603 0
M  V30 18103 H 1686.65 2.85439 -3.91986 0
M  V30 18104 N 1687.99 1.18137 1.04314 0
M  V30 18105 C 1689.22 0.998567 1.80865 0
M  V30 18106 C 1689.63 -0.456239 1.83617 0
M  V30 18107 O 1688.97 -1.32867 1.26855 0
M  V30 18108 C 1689.03 1.47397 3.27894 0
M  V30 18109 C 1688.7 2.95266 3.48808 0
M  V30 18110 C 1689.69 3.93139 3.40202 0
M  V30 18111 C 1687.38 3.33641 3.75485 0
M  V30 18112 C 1689.37 5.27383 3.57974 0
M  V30 18113 C 1687.06 4.68049 3.92904 0
M  V30 18114 C 1688.06 5.64729 3.84149 0
M  V30 18115 O 1687.75 6.96704 4.01072 0
M  V30 18116 H 1687.48 0.353025 0.576498 0
M  V30 18117 H 1690.03 1.57054 1.32375 0
M  V30 18118 H 1688.26 0.845625 3.77341 0
M  V30 18119 H 1689.95 1.25546 3.85996 0
M  V30 18120 H 1690.72 3.64838 3.1956 0
M  V30 18121 H 1686.6 2.58951 3.81399 0
M  V30 18122 H 1690.14 6.02831 3.51056 0
M  V30 18123 H 1686.04 4.96052 4.1304 0
M  V30 18124 H 1686.81 7.03571 4.18246 0
M  V30 18125 N 1689.47 -1.23186 0.98301 0
M  V30 18126 C 1690.4 -2.27054 0.544858 0
M  V30 18127 C 1691.38 -1.64749 -0.423281 0
M  V30 18128 O 1692.56 -1.91611 -0.316075 0
M  V30 18129 C 1689.69 -3.46972 -0.150976 0
M  V30 18130 C 1688.65 -4.21647 0.734707 0
M  V30 18131 C 1687.97 -5.34618 -0.0934874 0
M  V30 18132 C 1689.27 -4.81372 2.02679 0
M  V30 18133 H 1690.97 -2.63957 1.41305 0
M  V30 18134 H 1688.51 -1.26885 0.680895 0
M  V30 18135 H 1690.47 -4.18784 -0.468825 0
M  V30 18136 H 1689.19 -3.09137 -1.05364 0
M  V30 18137 H 1687.85 -3.51655 1.03605 0
M  V30 18138 H 1687.5 -4.93025 -0.996768 0
M  V30 18139 H 1687.2 -5.85503 0.496019 0
M  V30 18140 H 1688.72 -6.09251 -0.405658 0
M  V30 18141 H 1690.14 -5.45178 1.77353 0
M  V30 18142 H 1688.53 -5.42554 2.56429 0
M  V30 18143 H 1689.6 -4.01972 2.71194 0
M  V30 18144 N 1690.95 -0.754982 -1.38339 0
M  V30 18145 C 1692.17 -0.322624 -2.04369 0
M  V30 18146 C 1692.59 1.04951 -1.56942 0
M  V30 18147 O 1691.95 1.66686 -0.743109 0
M  V30 18148 C 1692 -0.337767 -3.59919 0
M  V30 18149 O 1691.72 -1.65576 -4.05606 0
M  V30 18150 C 1693.22 0.108281 -4.43168 0
M  V30 18151 H 1690.44 -0.137626 -0.656734 0
M  V30 18152 H 1692.98 -1.02422 -1.77003 0
M  V30 18153 H 1691.14 0.315106 -3.86116 0
M  V30 18154 H 1691.55 -1.5829 -5.00045 0
M  V30 18155 H 1693.03 0.0465256 -5.5198 0
M  V30 18156 H 1693.5 1.15636 -4.23704 0
M  V30 18157 H 1694.11 -0.51577 -4.22161 0
M  V30 18158 N 1692.42 1.49318 -0.504168 0
M  V30 18159 C 1693.39 2.27703 0.26157 0
M  V30 18160 C 1694.39 1.3385 0.891114 0
M  V30 18161 O 1695.58 1.56981 0.755156 0
M  V30 18162 C 1692.71 3.11912 1.37564 0
M  V30 18163 H 1693.9 2.96855 -0.426292 0
M  V30 18164 H 1691.46 1.54135 -0.259236 0
M  V30 18165 H 1692.19 2.47332 2.09755 0
M  V30 18166 H 1691.98 3.8092 0.929641 0
M  V30 18167 H 1693.47 3.71106 1.91494 0
M  V30 18168 N 1693.9 0.238138 1.5579 0
M  V30 18169 C 1695.15 -0.389031 1.98728 0
M  V30 18170 C 1695.48 -1.58584 1.12612 0
M  V30 18171 O 1694.73 -1.94917 0.174879 0
M  V30 18172 C 1695.03 -0.850646 3.47129 0
M  V30 18173 C 1694.7 0.237442 4.50274 0
M  V30 18174 C 1693.36 0.536307 4.78202 0
M  V30 18175 C 1695.71 0.972476 5.12047 0
M  V30 18176 C 1693.04 1.57443 5.6518 0
M  V30 18177 C 1695.39 2.00006 6.0015 0
M  V30 18178 C 1694.06 2.30566 6.26415 0
M  V30 18179 H 1693.33 -0.142357 0.727197 0
M  V30 18180 H 1695.97 0.34413 1.88383 0
M  V30 18181 H 1694.28 -1.66286 3.54762 0
M  V30 18182 H 1695.97 -1.34604 3.77734 0
M  V30 18183 H 1692.56 -0.00564033 4.286 0
M  V30 18184 H 1696.75 0.75483 4.90526 0
M  V30 18185 H 1692 1.81664 5.83788 0
M  V30 18186 H 1696.18 2.57458 6.47061 0
M  V30 18187 H 1693.81 3.11148 6.93607 0
M  V30 18188 N 1695.38 -1.57561 -0.0350783 0
M  V30 18189 C 1696.61 -1.93251 -0.73903 0
M  V30 18190 C 1697.02 -0.83739 -1.69214 0
M  V30 18191 O 1696.38 0.186669 -1.81543 0
M  V30 18192 C 1696.43 -3.28853 -1.50127 0
M  V30 18193 O 1696.15 -4.34157 -0.586426 0
M  V30 18194 C 1697.65 -3.78788 -2.30292 0
M  V30 18195 H 1694.87 -0.63793 -0.208053 0
M  V30 18196 H 1697.42 -2.04499 0.00560398 0
M  V30 18197 H 1695.57 -3.1902 -2.19784 0
M  V30 18198 H 1695.99 -5.12395 -1.12034 0
M  V30 18199 H 1697.46 -4.76197 -2.79178 0
M  V30 18200 H 1697.94 -3.09671 -3.11449 0
M  V30 18201 H 1698.54 -3.91684 -1.65721 0
M  V30 18202 N 1696.86 0.307236 -1.54576 0
M  V30 18203 C 1698.1 1.04476 -1.73818 0
M  V30 18204 C 1698.44 1.87134 -0.519102 0
M  V30 18205 O 1697.71 1.88386 0.483852 0
M  V30 18206 C 1698 1.95594 -3.02349 0
M  V30 18207 C 1697.85 1.16158 -4.34543 0
M  V30 18208 C 1699.17 2.94865 -3.26715 0
M  V30 18209 H 1696.29 0.378415 -0.632433 0
M  V30 18210 H 1698.93 0.319955 -1.87287 0
M  V30 18211 H 1697.08 2.57396 -2.90997 0
M  V30 18212 H 1698.75 0.5669 -4.57803 0
M  V30 18213 H 1696.99 0.464158 -4.3131 0
M  V30 18214 H 1697.66 1.8315 -5.2073 0
M  V30 18215 H 1700.14 2.4319 -3.37636 0
M  V30 18216 H 1699.02 3.55791 -4.17976 0
M  V30 18217 H 1699.28 3.68195 -2.44714 0
M  V30 18218 N 1698.34 1.46926 0.570122 0
M  V30 18219 C 1699.59 1.52151 1.32413 0
M  V30 18220 C 1699.9 0.18291 1.94743 0
M  V30 18221 O 1701.1 0.113045 2.71265 0
M  V30 18222 C 1699.56 2.68153 2.40046 0
M  V30 18223 C 1699.17 4.08487 1.83963 0
M  V30 18224 C 1700.91 2.82659 3.16709 0
M  V30 18225 C 1698.82 5.1581 2.893 0
M  V30 18226 H 1697.75 0.566291 0.497826 0
M  V30 18227 H 1700.4 1.73169 0.607011 0
M  V30 18228 H 1698.78 2.40488 3.14613 0
M  V30 18229 H 1699.96 4.45998 1.15854 0
M  V30 18230 H 1698.27 3.98756 1.19927 0
M  V30 18231 H 1700.87 3.60008 3.95346 0
M  V30 18232 H 1701.21 1.9063 3.70089 0
M  V30 18233 H 1701.74 3.10031 2.4925 0
M  V30 18234 H 1698.48 6.09672 2.40791 0
M  V30 18235 H 1698 4.8283 3.55859 0
M  V30 18236 H 1699.68 5.42201 3.53026 0
M  V30 18237 N 1699.82 -0.815801 1.34842 0
M  V30 18238 C 1701.06 -1.5693 1.27347 0
M  V30 18239 C 1701.38 -1.94387 -0.154462 0
M  V30 18240 O 1700.65 -1.62858 -1.08876 0
M  V30 18241 H 1699.23 -0.581923 0.468374 0
M  V30 18242 H 1701.9 -0.973642 1.68838 0
M  V30 18243 H 1700.99 -2.4889 1.88308 0
M  V30 18244 N 1701.29 -1.18689 -1.03686 0
M  V30 18245 C 1702.54 -0.978948 -1.7635 0
M  V30 18246 C 1702.86 0.49195 -1.89312 0
M  V30 18247 O 1704.06 0.818501 -2.58868 0
M  V30 18248 C 1702.52 -1.70255 -3.17083 0
M  V30 18249 C 1702.13 -3.21301 -3.12201 0
M  V30 18250 C 1703.87 -1.57756 -3.94098 0
M  V30 18251 C 1701.78 -3.86284 -4.47815 0
M  V30 18252 H 1700.71 -0.362652 -0.661059 0
M  V30 18253 H 1703.36 -1.42102 -1.161 0
M  V30 18254 H 1701.74 -1.18826 -3.77752 0
M  V30 18255 H 1702.91 -3.79785 -2.6096 0
M  V30 18256 H 1701.23 -3.33984 -2.48684 0
M  V30 18257 H 1703.83 -2.03664 -4.94394 0
M  V30 18258 H 1704.17 -0.530427 -4.12907 0
M  V30 18259 H 1704.7 -2.06486 -3.40012 0
M  V30 18260 H 1701.44 -4.91061 -4.34211 0
M  V30 18261 H 1700.96 -3.32589 -4.99144 0
M  V30 18262 H 1702.64 -3.89369 -5.16721 0
M  V30 18263 N 1702.77 1.22662 -0.989529 0
M  V30 18264 C 1704.19 1.43445 -0.699687 0
M  V30 18265 C 1704.39 1.87778 0.730875 0
M  V30 18266 O 1703.44 2.02953 1.5022 0
M  V30 18267 C 1704.76 2.47869 -1.70239 0
M  V30 18268 C 1706.3 2.61672 -1.71746 0
M  V30 18269 C 1706.78 3.69315 -2.7087 0
M  V30 18270 N 1708.27 3.76768 -2.69444 0
M  V30 18271 C 1709.01 4.59641 -3.42808 0
M  V30 18272 N 1708.5 5.46533 -4.25762 0
M  V30 18273 N 1710.29 4.53921 -3.3153 0
M  V30 18274 H 1702.45 0.921912 -1.91349 0
M  V30 18275 H 1704.71 0.466905 -0.825048 0
M  V30 18276 H 1704.41 2.22233 -2.7259 0
M  V30 18277 H 1704.29 3.46415 -1.49254 0
M  V30 18278 H 1706.68 2.86655 -0.70094 0
M  V30 18279 H 1706.76 1.63413 -1.96799 0
M  V30 18280 H 1706.4 3.4508 -3.72669 0
M  V30 18281 H 1706.33 4.67136 -2.43088 0
M  V30 18282 H 1708.82 3.1468 -2.09249 0
M  V30 18283 H 1709.13 6.06783 -4.78575 0
M  V30 18284 H 1707.48 5.46126 -4.2985 0
M  V30 18285 H 1710.67 3.85062 -2.66168 0
M  V30 18286 H 1710.84 5.18277 -3.88964 0
M  V30 18287 N 1704.25 0.762308 1.37937 0
M  V30 18288 C 1705.2 0.140412 2.30372 0
M  V30 18289 C 1706.17 -0.700152 1.50622 0
M  V30 18290 O 1707.35 -0.654474 1.79224 0
M  V30 18291 C 1704.49 -0.740056 3.37071 0
M  V30 18292 C 1703.6 0.116084 4.31844 0
M  V30 18293 C 1702.74 -0.768203 5.25616 0
M  V30 18294 C 1701.78 0.0910442 6.12032 0
M  V30 18295 N 1700.92 -0.75069 6.98075 0
M  V30 18296 H 1705.76 0.934224 2.82977 0
M  V30 18297 H 1703.29 0.472316 1.39311 0
M  V30 18298 H 1705.25 -1.26525 3.97551 0
M  V30 18299 H 1703.88 -1.49956 2.85855 0
M  V30 18300 H 1702.93 0.758999 3.72751 0
M  V30 18301 H 1704.24 0.779285 4.92675 0
M  V30 18302 H 1703.4 -1.36024 5.91255 0
M  V30 18303 H 1702.14 -1.46511 4.65173 0
M  V30 18304 H 1701.14 0.695687 5.45381 0
M  V30 18305 H 1702.37 0.785145 6.74546 0
M  V30 18306 H 1700.31 -1.43239 6.40171 0
M  V30 18307 H 1700.23 -0.144579 7.55862 0
M  V30 18308 H 1701.5 -1.32742 7.68114 0
M  V30 18309 N 1705.73 -1.49049 0.51208 0
M  V30 18310 C 1706.69 -2.27838 -0.249491 0
M  V30 18311 C 1707.69 -1.34321 -0.884004 0
M  V30 18312 O 1708.88 -1.57379 -0.74682 0
M  V30 18313 C 1706.01 -3.12637 -1.35908 0
M  V30 18314 H 1707.21 -2.96625 0.442029 0
M  V30 18315 H 1704.76 -1.53996 0.267406 0
M  V30 18316 H 1705.49 -2.48441 -2.0844 0
M  V30 18317 H 1705.28 -3.81408 -0.909427 0
M  V30 18318 H 1706.77 -3.72117 -1.89523 0
M  V30 18319 N 1707.21 -0.246397 -1.55662 0
M  V30 18320 C 1708.45 0.378487 -1.98931 0
M  V30 18321 C 1708.78 1.57984 -1.13452 0
M  V30 18322 O 1708.04 1.94822 -0.185214 0
M  V30 18323 C 1708.33 0.832225 -3.47576 0
M  V30 18324 C 1708 -0.261318 -4.50142 0
M  V30 18325 C 1706.66 -0.56166 -4.77911 0
M  V30 18326 C 1709.01 -0.999618 -5.11524 0
M  V30 18327 C 1706.34 -1.60438 -5.64337 0
M  V30 18328 C 1708.69 -2.03186 -5.99081 0
M  V30 18329 C 1707.36 -2.33885 -6.25183 0
M  V30 18330 H 1706.63 0.138498 -0.727942 0
M  V30 18331 H 1709.28 -0.354116 -1.88197 0
M  V30 18332 H 1707.58 1.64402 -3.55639 0
M  V30 18333 H 1709.28 1.32598 -3.78442 0
M  V30 18334 H 1705.87 -0.0170894 -4.28597 0
M  V30 18335 H 1710.05 -0.780833 -4.90119 0
M  V30 18336 H 1705.31 -1.84758 -5.82816 0
M  V30 18337 H 1709.48 -2.60886 -6.45687 0
M  V30 18338 H 1707.11 -3.14822 -6.91947 0
M  V30 18339 N 1708.68 1.57577 0.026722 0
M  V30 18340 C 1709.96 1.80541 0.752606 0
M  V30 18341 C 1710.34 0.845025 1.93449 0
M  V30 18342 O 1709.69 -0.112286 2.28224 0
M  V30 18343 C 1709.9 3.28322 1.18345 0
M  V30 18344 C 1711.25 3.93366 1.59839 0
M  V30 18345 O 1712.27 3.32486 1.27796 0
M  V30 18346 O 1711.13 5.0056 2.19321 0
M  V30 18347 H 1708.22 0.742514 0.364146 0
M  V30 18348 H 1710.77 1.697 0.00332 0
M  V30 18349 H 1709.54 3.89822 0.339832 0
M  V30 18350 H 1709.16 3.44061 1.99267 0
M  V30 18351 N 1710.16 -0.299034 1.54737 0
M  V30 18352 C 1711.41 -1.03164 1.7332 0
M  V30 18353 C 1711.72 -1.88362 0.527184 0
M  V30 18354 O 1712.93 -2.64903 0.594868 0
M  V30 18355 C 1711.39 -1.88391 3.06654 0
M  V30 18356 C 1710.99 -1.08187 4.34741 0
M  V30 18357 C 1712.74 -2.6124 3.34595 0
M  V30 18358 C 1710.64 -1.92702 5.59124 0
M  V30 18359 H 1709.57 -0.388887 0.645975 0
M  V30 18360 H 1712.23 -0.288544 1.81217 0
M  V30 18361 H 1710.61 -2.66696 2.92727 0
M  V30 18362 H 1711.78 -0.344817 4.59508 0
M  V30 18363 H 1710.1 -0.469118 4.13749 0
M  V30 18364 H 1712.69 -3.24826 4.24726 0
M  V30 18365 H 1713.04 -3.30172 2.53559 0
M  V30 18366 H 1713.57 -1.89982 3.49502 0
M  V30 18367 H 1710.31 -1.28236 6.42834 0
M  V30 18368 H 1709.83 -2.64074 5.38539 0
M  V30 18369 H 1711.51 -2.50702 5.96454 0
M  V30 18370 N 1711.64 -1.47227 -0.562322 0
M  V30 18371 C 1712.88 -1.55163 -1.33056 0
M  V30 18372 C 1713.24 -0.206867 -1.90882 0
M  V30 18373 O 1714.44 -0.161056 -2.68317 0
M  V30 18374 C 1712.72 -2.63484 -2.41477 0
M  V30 18375 S 1714.27 -2.90968 -3.28455 0
M  V30 18376 H 1711.09 -0.547974 -0.45304 0
M  V30 18377 H 1713.69 -1.84578 -0.644301 0
M  V30 18378 H 1712.4 -3.59797 -1.9742 0
M  V30 18379 H 1711.93 -2.35867 -3.14849 0
M  V30 18380 H 1713.94 -2.27793 -4.40823 0
M  V30 18381 N 1713.12 0.808639 -1.35273 0
M  V30 18382 C 1714.53 1.38248 -1.25477 0
M  V30 18383 C 1714.88 1.9587 0.113715 0
M  V30 18384 O 1714 1.91141 1.0146 0
M  V30 18385 C 1714.6 2.5133 -2.27197 0
M  V30 18386 C 1713.16 3.04582 -2.21148 0
M  V30 18387 C 1712.31 1.77534 -2.13019 0
M  V30 18388 H 1715.26 0.611844 -1.46431 0
M  V30 18389 H 1715.28 3.29825 -1.89726 0
M  V30 18390 H 1714.79 2.09362 -3.26786 0
M  V30 18391 H 1712.89 3.5102 -1.24963 0
M  V30 18392 H 1713 3.62703 -3.13023 0
M  V30 18393 H 1711.37 1.99004 -1.58964 0
M  V30 18394 H 1712.15 1.3772 -3.14465 0
M  V30 18395 N 1714.6 1.19237 1.03055 0
M  V30 18396 C 1715.53 0.95226 2.132 0
M  V30 18397 C 1716.51 -0.113771 1.69719 0
M  V30 18398 O 1717.69 0.0409057 1.94157 0
M  V30 18399 C 1714.82 0.488296 3.4385 0
M  V30 18400 C 1713.78 1.49597 4.01005 0
M  V30 18401 C 1713.1 0.889148 5.27255 0
M  V30 18402 C 1714.4 2.87571 4.36005 0
M  V30 18403 H 1716.1 1.87343 2.33544 0
M  V30 18404 H 1713.64 0.902172 1.12236 0
M  V30 18405 H 1715.6 0.307623 4.20276 0
M  V30 18406 H 1714.32 -0.468469 3.23223 0
M  V30 18407 H 1712.98 1.66376 3.26672 0
M  V30 18408 H 1712.63 -0.0751191 5.02944 0
M  V30 18409 H 1712.33 1.56202 5.66458 0
M  V30 18410 H 1713.85 0.719233 6.06349 0
M  V30 18411 H 1715.26 2.74384 5.03375 0
M  V30 18412 H 1713.66 3.51635 4.86285 0
M  V30 18413 H 1714.73 3.40353 3.45381 0
M  V30 18414 N 1716.07 -1.22136 0.99602 0
M  V30 18415 C 1717.32 -1.9125 0.674632 0
M  V30 18416 C 1717.65 -1.77331 -0.791655 0
M  V30 18417 O 1716.93 -1.14419 -1.57285 0
M  V30 18418 C 1717.21 -3.43359 1.08521 0
M  V30 18419 C 1717.06 -3.66312 2.61028 0
M  V30 18420 C 1718.38 -4.3541 0.640795 0
M  V30 18421 H 1715.5 -0.694534 0.246559 0
M  V30 18422 H 1718.14 -1.4395 1.2401 0
M  V30 18423 H 1716.29 -3.83775 0.604071 0
M  V30 18424 H 1717.97 -3.3528 3.16836 0
M  V30 18425 H 1716.21 -3.10485 3.02954 0
M  V30 18426 H 1716.88 -4.72852 2.84807 0
M  V30 18427 H 1719.36 -4.02527 1.05411 0
M  V30 18428 H 1718.23 -5.40505 0.956337 0
M  V30 18429 H 1718.49 -4.39717 -0.458421 0
M  V30 18430 N 1717.55 -0.769612 -1.37531 0
M  V30 18431 C 1718.5 -0.152627 -2.30295 0
M  V30 18432 C 1719.47 0.692154 -1.50992 0
M  V30 18433 O 1720.65 0.64496 -1.79569 0
M  V30 18434 C 1717.79 0.72217 -3.37459 0
M  V30 18435 C 1716.91 -0.138985 -4.31776 0
M  V30 18436 C 1716.04 0.740317 -5.26016 0
M  V30 18437 C 1715.08 -0.1235 -6.11975 0
M  V30 18438 N 1714.22 0.713658 -6.98464 0
M  V30 18439 H 1719.06 -0.949218 -2.82478 0
M  V30 18440 H 1716.6 -0.479697 -1.39059 0
M  V30 18441 H 1718.55 1.24415 -3.98217 0
M  V30 18442 H 1717.18 1.48438 -2.86646 0
M  V30 18443 H 1716.24 -0.778756 -3.72343 0
M  V30 18444 H 1717.55 -0.805402 -4.92255 0
M  V30 18445 H 1716.7 1.32887 -5.91968 0
M  V30 18446 H 1715.44 1.44042 -4.65943 0
M  V30 18447 H 1714.45 -0.7246 -5.45004 0
M  V30 18448 H 1715.67 -0.820907 -6.7412 0
M  V30 18449 H 1713.62 1.39842 -6.40921 0
M  V30 18450 H 1713.53 0.104492 -7.55928 0
M  V30 18451 H 1714.8 1.28667 -7.68808 0
M  V30 18452 N 1719.03 1.48775 -0.519977 0
M  V30 18453 C 1720.28 2.0169 0.0196973 0
M  V30 18454 C 1720.59 1.40319 1.36272 0
M  V30 18455 O 1721.8 1.84673 1.99018 0
M  V30 18456 C 1720.25 3.59798 0.085525 0
M  V30 18457 C 1719.86 4.3015 -1.25199 0
M  V30 18458 C 1721.61 4.20594 0.574557 0
M  V30 18459 C 1719.51 5.80165 -1.14729 0
M  V30 18460 H 1718.44 0.753918 0.011133 0
M  V30 18461 H 1721.09 1.71133 -0.662254 0
M  V30 18462 H 1719.48 3.87154 0.832339 0
M  V30 18463 H 1720.65 4.14477 -2.01359 0
M  V30 18464 H 1718.97 3.81183 -1.67596 0
M  V30 18465 H 1721.56 5.30477 0.670698 0
M  V30 18466 H 1721.91 3.85235 1.57797 0
M  V30 18467 H 1722.44 3.9763 -0.116277 0
M  V30 18468 H 1719.18 6.20081 -2.12555 0
M  V30 18469 H 1718.7 5.98279 -0.426902 0
M  V30 18470 H 1720.38 6.41605 -0.83382 0
M  V30 18471 N 1720.51 0.254649 1.55529 0
M  V30 18472 C 1721.79 -0.418663 1.91067 0
M  V30 18473 C 1722.17 -1.75284 1.17638 0
M  V30 18474 O 1721.51 -2.26569 0.296411 0
M  V30 18475 C 1721.72 -0.579125 3.44162 0
M  V30 18476 C 1723.07 -0.871451 4.15561 0
M  V30 18477 O 1724.1 -0.664702 3.49943 0
M  V30 18478 O 1722.95 -1.26563 5.31643 0
M  V30 18479 H 1720.05 -0.22593 0.795541 0
M  V30 18480 H 1722.59 0.299288 1.6704 0
M  V30 18481 H 1721.37 0.36062 3.89635 0
M  V30 18482 H 1720.99 -1.34732 3.74076 0
M  V30 18483 N 1721.99 -1.57589 -0.0183649 0
M  V30 18484 C 1723.21 -1.94024 -0.718491 0
M  V30 18485 C 1723.63 -0.85529 -1.68316 0
M  V30 18486 O 1722.99 0.167403 -1.81731 0
M  V30 18487 C 1723.04 -3.30427 -1.4663 0
M  V30 18488 O 1722.76 -4.34755 -0.540345 0
M  V30 18489 C 1724.26 -3.81209 -2.26262 0
M  V30 18490 H 1721.48 -0.640101 -0.201275 0
M  V30 18491 H 1724.02 -2.04482 0.0272935 0
M  V30 18492 H 1722.18 -3.21333 -2.16388 0
M  V30 18493 H 1722.59 -5.13554 -1.06593 0
M  V30 18494 H 1724.07 -4.79131 -2.74112 0
M  V30 18495 H 1724.54 -3.12957 -3.08147 0
M  V30 18496 H 1725.15 -3.9342 -1.61558 0
M  V30 18497 N 1723.46 0.290824 -1.54893 0
M  V30 18498 C 1724.43 1.34215 -1.85793 0
M  V30 18499 C 1725.43 1.43204 -0.731393 0
M  V30 18500 O 1726.62 1.42663 -0.999647 0
M  V30 18501 C 1723.75 2.72577 -2.0473 0
M  V30 18502 H 1724.94 1.08056 -2.79757 0
M  V30 18503 H 1722.5 0.528008 -1.47111 0
M  V30 18504 H 1723.23 3.03943 -1.13088 0
M  V30 18505 H 1723.02 2.67442 -2.86736 0
M  V30 18506 H 1724.51 3.48573 -2.29971 0
M  V30 18507 N 1724.94 1.47523 0.554506 0
M  V30 18508 C 1725.87 1.63093 1.67102 0
M  V30 18509 C 1726.85 0.480298 1.63178 0
M  V30 18510 O 1728.04 0.709956 1.80757 0
M  V30 18511 C 1725.17 1.64751 3.05736 0
M  V30 18512 C 1724.12 2.79068 3.24507 0
M  V30 18513 C 1723.45 2.65801 4.63955 0
M  V30 18514 C 1724.75 4.20631 3.09623 0
M  V30 18515 H 1726.44 2.56561 1.54328 0
M  V30 18516 H 1723.99 1.2347 0.741023 0
M  V30 18517 H 1725.94 1.74234 3.83693 0
M  V30 18518 H 1724.67 0.678453 3.19475 0
M  V30 18519 H 1723.32 2.691 2.48959 0
M  V30 18520 H 1722.97 1.66917 4.74497 0
M  V30 18521 H 1722.67 3.42494 4.77464 0
M  V30 18522 H 1724.2 2.77216 5.44044 0
M  V30 18523 H 1725.61 4.31562 3.77396 0
M  V30 18524 H 1724.01 4.98133 3.3464 0
M  V30 18525 H 1725.08 4.38809 2.06336 0
M  V30 18526 N 1726.42 -0.801453 1.357 0
M  V30 18527 C 1727.67 -1.55392 1.28594 0
M  V30 18528 C 1727.98 -1.95125 -0.136199 0
M  V30 18529 O 1729.19 -2.69492 -0.329568 0
M  V30 18530 C 1727.64 -2.80456 2.2555 0
M  V30 18531 C 1727.25 -2.47939 3.73135 0
M  V30 18532 C 1729 -3.58457 2.27396 0
M  V30 18533 C 1726.9 -3.69326 4.61901 0
M  V30 18534 H 1725.83 -0.583286 0.477801 0
M  V30 18535 H 1728.48 -0.880525 1.60994 0
M  V30 18536 H 1726.87 -3.49532 1.86127 0
M  V30 18537 H 1728.04 -1.86837 4.21223 0
M  V30 18538 H 1726.36 -1.83173 3.73947 0
M  V30 18539 H 1728.95 -4.48625 2.90929 0
M  V30 18540 H 1729.3 -3.96162 1.27912 0
M  V30 18541 H 1729.83 -2.96348 2.65373 0
M  V30 18542 H 1726.57 -3.36726 5.62402 0
M  V30 18543 H 1726.09 -4.29636 4.18536 0
M  V30 18544 H 1727.77 -4.36496 4.77578 0
M  V30 18545 N 1727.9 -1.19782 -1.02421 0
M  V30 18546 C 1728.85 -0.93978 -2.108 0
M  V30 18547 C 1729.82 0.12716 -1.65613 0
M  V30 18548 O 1731 -0.0159669 -1.90793 0
M  V30 18549 C 1728.14 -0.489656 -3.41609 0
M  V30 18550 C 1727.25 -1.62389 -4.00317 0
M  V30 18551 C 1726.39 -1.12483 -5.19154 0
M  V30 18552 C 1725.43 -2.23266 -5.69929 0
M  V30 18553 N 1724.56 -1.74633 -6.80035 0
M  V30 18554 H 1729.4 -1.8677 -2.32209 0
M  V30 18555 H 1726.94 -0.931082 -1.13883 0
M  V30 18556 H 1728.9 -0.210049 -4.16671 0
M  V30 18557 H 1727.53 0.40127 -3.20296 0
M  V30 18558 H 1726.58 -2.0186 -3.22423 0
M  V30 18559 H 1727.89 -2.45836 -4.34011 0
M  V30 18560 H 1727.05 -0.800737 -6.01393 0
M  V30 18561 H 1725.79 -0.260155 -4.87006 0
M  V30 18562 H 1724.79 -2.56501 -4.863 0
M  V30 18563 H 1726.02 -3.10197 -6.04115 0
M  V30 18564 H 1723.96 -0.904804 -6.4973 0
M  V30 18565 H 1723.88 -2.51666 -7.12882 0
M  V30 18566 H 1725.15 -1.45201 -7.65857 0
M  V30 18567 N 1729.38 1.21606 -1.00248 0
M  V30 18568 C 1730.34 2.22107 -0.565772 0
M  V30 18569 C 1731.34 1.56798 0.356521 0
M  V30 18570 O 1732.53 1.73577 0.147154 0
M  V30 18571 C 1729.66 3.40447 0.175742 0
M  V30 18572 H 1730.86 2.62258 -1.45468 0
M  V30 18573 H 1728.41 1.34823 -0.790721 0
M  V30 18574 H 1729.14 3.05781 1.0802 0
M  V30 18575 H 1728.93 3.89069 -0.486612 0
M  V30 18576 H 1730.42 4.14957 0.469122 0
M  V30 18577 N 1730.86 0.776895 1.37121 0
M  V30 18578 C 1732.13 0.268067 1.93754 0
M  V30 18579 C 1732.51 -1.23774 1.71007 0
M  V30 18580 O 1731.86 -2.02331 1.0618 0
M  V30 18581 C 1732.07 0.647054 3.42949 0
M  V30 18582 C 1733.42 0.619737 4.20053 0
M  V30 18583 O 1734.44 0.586757 3.51334 0
M  V30 18584 O 1733.3 0.651412 5.42604 0
M  V30 18585 H 1730.4 0.0631883 0.824582 0
M  V30 18586 H 1732.94 0.858594 1.46377 0
M  V30 18587 H 1731.71 1.68608 3.5311 0
M  V30 18588 H 1731.34 0.0297448 3.97589 0
M  V30 18589 N 1732.33 -1.48497 0.527859 0
M  V30 18590 C 1733.28 -2.31258 -0.249477 0
M  V30 18591 C 1734.28 -1.41094 -0.93749 0
M  V30 18592 O 1735.48 -1.58011 -0.862117 0
M  V30 18593 H 1731.86 -0.745412 -0.0993208 0
M  V30 18594 H 1733.83 -2.94705 0.46815 0
M  V30 18595 C 1732.58 -3.23095 -1.28472 0
M  V30 18596 H 1731.9 -3.92418 -0.764724 0
M  V30 18597 H 1733.34 -3.83892 -1.80008 0
M  V30 18598 C 1731.8 -2.44554 -2.31722 0
M  V30 18599 O 1732.33 -2.16883 -3.38119 0
M  V30 18600 N 1730.53 -2.06088 -2.04881 0
M  V30 18601 H 1730.08 -2.28791 -1.18374 0
M  V30 18602 H 1730.04 -1.53849 -2.74186 0
M  V30 18603 N 1733.81 -0.262893 -1.55392 0
M  V30 18604 C 1735.06 0.357366 -1.99322 0
M  V30 18605 C 1735.39 1.56772 -1.15121 0
M  V30 18606 O 1734.64 1.94614 -0.205867 0
M  V30 18607 C 1734.94 0.795313 -3.48439 0
M  V30 18608 C 1734.61 -0.309047 -4.4984 0
M  V30 18609 C 1733.27 -0.612317 -4.77288 0
M  V30 18610 C 1735.62 -1.05382 -5.10435 0
M  V30 18611 C 1732.95 -1.66415 -5.62604 0
M  V30 18612 C 1735.3 -2.09528 -5.96892 0
M  V30 18613 C 1733.96 -2.40503 -6.22667 0
M  V30 18614 H 1733.23 0.13077 -0.72937 0
M  V30 18615 H 1735.88 -0.374057 -1.87811 0
M  V30 18616 H 1734.19 1.60621 -3.57363 0
M  V30 18617 H 1735.88 1.28577 -3.79828 0
M  V30 18618 H 1732.47 -0.0625469 -4.28554 0
M  V30 18619 H 1736.66 -0.832773 -4.89263 0
M  V30 18620 H 1731.91 -1.90929 -5.80824 0
M  V30 18621 H 1736.09 -2.67719 -6.42884 0
M  V30 18622 H 1733.71 -3.22143 -6.88569 0
M  V30 18623 N 1735.29 1.57597 0.0100073 0
M  V30 18624 C 1736.22 2.10825 1.00375 0
M  V30 18625 C 1737.2 1.01507 1.36493 0
M  V30 18626 O 1738.39 1.29136 1.45043 0
M  V30 18627 C 1735.52 2.60334 2.29878 0
M  V30 18628 C 1734.47 3.74087 2.07949 0
M  V30 18629 C 1733.8 4.09873 3.43378 0
M  V30 18630 C 1735.1 5.01764 1.45018 0
M  V30 18631 H 1736.79 2.94105 0.560591 0
M  V30 18632 H 1734.34 1.4148 0.268208 0
M  V30 18633 H 1736.29 2.96196 2.99743 0
M  V30 18634 H 1735.01 1.74162 2.76288 0
M  V30 18635 H 1733.67 3.38603 1.40512 0
M  V30 18636 H 1733.32 3.20739 3.87473 0
M  V30 18637 H 1733.02 4.86505 3.29525 0
M  V30 18638 H 1734.54 4.48285 4.14575 0
M  V30 18639 H 1735.96 5.35462 2.04826 0
M  V30 18640 H 1734.35 5.83135 1.41683 0
M  V30 18641 H 1735.42 4.83093 0.41819 0
M  V30 18642 N 1736.77 -0.282606 1.55045 0
M  V30 18643 C 1737.7 -1.35347 1.90272 0
M  V30 18644 C 1738.68 -1.52001 0.763532 0
M  V30 18645 O 1739.86 -1.65204 1.02085 0
M  V30 18646 C 1736.99 -2.71464 2.16621 0
M  V30 18647 C 1735.95 -2.69554 3.32453 0
M  V30 18648 C 1735.27 -4.09132 3.4426 0
M  V30 18649 C 1736.57 -2.29669 4.69094 0
M  V30 18650 H 1738.27 -1.06113 2.79965 0
M  V30 18651 H 1735.81 -0.509018 1.34703 0
M  V30 18652 H 1737.77 -3.46482 2.39851 0
M  V30 18653 H 1736.49 -3.02261 1.23717 0
M  V30 18654 H 1735.15 -1.96993 3.09175 0
M  V30 18655 H 1734.8 -4.37136 2.4884 0
M  V30 18656 H 1734.5 -4.08751 4.22133 0
M  V30 18657 H 1736.02 -4.85903 3.69771 0
M  V30 18658 H 1737.44 -2.94407 4.91932 0
M  V30 18659 H 1735.83 -2.40467 5.49814 0
M  V30 18660 H 1736.9 -1.24796 4.68566 0
M  V30 18661 N 1738.25 -1.47815 -0.546675 0
M  V30 18662 C 1739.16 -1.63744 -1.68003 0
M  V30 18663 C 1740.17 -0.520118 -1.66044 0
M  V30 18664 O 1741.35 -0.789033 -1.853 0
M  V30 18665 C 1738.41 -1.65778 -3.04497 0
M  V30 18666 C 1737.47 -2.89015 -3.17441 0
M  V30 18667 C 1736.71 -2.90943 -4.47424 0
M  V30 18668 O 1736.93 -2.01769 -5.33522 0
M  V30 18669 O 1735.86 -3.82927 -4.64382 0
M  V30 18670 H 1739.69 -2.59665 -1.57505 0
M  V30 18671 H 1737.27 -1.31022 -0.717883 0
M  V30 18672 H 1739.16 -1.69734 -3.85705 0
M  V30 18673 H 1737.83 -0.730268 -3.15355 0
M  V30 18674 H 1736.74 -2.90599 -2.35591 0
M  V30 18675 H 1738.07 -3.81095 -3.11492 0
M  V30 18676 N 1739.72 0.794246 -1.36123 0
M  V30 18677 C 1740.67 1.92808 -1.30108 0
M  V30 18678 C 1741.67 1.68289 -0.193734 0
M  V30 18679 O 1742.87 1.76354 -0.360454 0
M  V30 18680 H 1739.25 0.633671 -0.404926 0
M  V30 18681 H 1741.22 1.95 -2.2587 0
M  V30 18682 C 1739.97 3.29762 -1.10238 0
M  V30 18683 H 1739.29 3.49193 -1.9469 0
M  V30 18684 H 1740.73 4.09463 -1.10073 0
M  V30 18685 C 1739.19 3.36345 0.193222 0
M  V30 18686 O 1739.72 3.83832 1.18474 0
M  V30 18687 N 1737.92 2.89638 0.236243 0
M  V30 18688 H 1737.47 2.51186 -0.571245 0
M  V30 18689 H 1737.43 2.94424 1.1028 0
M  V30 18690 N 1741.2 1.20323 1.01785 0
M  V30 18691 C 1742.43 1.03821 1.78966 0
M  V30 18692 C 1742.84 -0.412622 1.84236 0
M  V30 18693 O 1742.2 -1.2865 1.29443 0
M  V30 18694 C 1742.25 1.61352 3.23493 0
M  V30 18695 O 1741.97 3.00758 3.18553 0
M  V30 18696 C 1743.47 1.49786 4.17228 0
M  V30 18697 H 1740.69 0.365291 0.562853 0
M  V30 18698 H 1743.24 1.59383 1.2813 0
M  V30 18699 H 1741.39 1.09913 3.71481 0
M  V30 18700 H 1741.81 3.28034 4.09261 0
M  V30 18701 H 1743.28 1.94802 5.16484 0
M  V30 18702 H 1743.76 0.450143 4.36887 0
M  V30 18703 H 1744.36 2.00409 3.75122 0
M  V30 18704 N 1742.68 -1.21073 1.00892 0
M  V30 18705 C 1743.61 -2.25847 0.592897 0
M  V30 18706 C 1744.59 -1.6561 -0.38824 0
M  V30 18707 O 1745.78 -1.92238 -0.275361 0
M  V30 18708 C 1742.91 -3.47214 -0.0773439 0
M  V30 18709 C 1741.86 -4.19994 0.82398 0
M  V30 18710 C 1741.19 -5.34696 0.0199341 0
M  V30 18711 C 1742.49 -4.76964 2.12844 0
M  V30 18712 H 1744.18 -2.609 1.46873 0
M  V30 18713 H 1741.73 -1.25412 0.707656 0
M  V30 18714 H 1743.68 -4.19684 -0.379889 0
M  V30 18715 H 1742.4 -3.11303 -0.987833 0
M  V30 18716 H 1741.06 -3.49379 1.11041 0
M  V30 18717 H 1740.71 -4.95028 -0.891966 0
M  V30 18718 H 1740.41 -5.84319 0.620102 0
M  V30 18719 H 1741.93 -6.09974 -0.276336 0
M  V30 18720 H 1743.35 -5.41293 1.88878 0
M  V30 18721 H 1741.74 -5.36992 2.67879 0
M  V30 18722 H 1742.81 -3.96129 2.79659 0
M  V30 18723 N 1744.16 -0.784156 -1.36707 0
M  V30 18724 C 1745.57 -0.417967 -1.81961 0
M  V30 18725 C 1745.92 1.05746 -1.65264 0
M  V30 18726 O 1745.05 1.82003 -1.17064 0
M  V30 18727 C 1745.64 -0.751869 -3.30352 0
M  V30 18728 C 1744.2 -0.438578 -3.73836 0
M  V30 18729 C 1743.35 -0.989262 -2.59054 0
M  V30 18730 H 1746.3 -0.977754 -1.25003 0
M  V30 18731 H 1746.32 -0.041034 -3.80478 0
M  V30 18732 H 1745.83 -1.82576 -3.42473 0
M  V30 18733 H 1743.93 0.627493 -3.67278 0
M  V30 18734 H 1744.04 -0.955508 -4.69475 0
M  V30 18735 H 1742.41 -0.412783 -2.51333 0
M  V30 18736 H 1743.19 -2.06881 -2.73962 0
M  V30 18737 N 1745.64 1.48215 -0.535727 0
M  V30 18738 C 1746.6 2.28206 0.213212 0
M  V30 18739 C 1747.6 1.3571 0.862522 0
M  V30 18740 O 1748.79 1.58547 0.721688 0
M  V30 18741 C 1745.92 3.1476 1.30917 0
M  V30 18742 H 1747.11 2.95884 -0.489163 0
M  V30 18743 H 1744.67 1.53551 -0.291872 0
M  V30 18744 H 1745.4 2.51726 2.04462 0
M  V30 18745 H 1745.19 3.82806 0.848633 0
M  V30 18746 H 1746.68 3.75085 1.83579 0
M  V30 18747 N 1747.11 0.27113 1.5525 0
M  V30 18748 C 1748.05 -0.651235 2.19753 0
M  V30 18749 C 1749.06 -1.12051 1.18104 0
M  V30 18750 O 1750.25 -1.0431 1.44851 0
M  V30 18751 C 1747.35 -1.89985 2.8064 0
M  V30 18752 C 1746.52 -1.57805 4.07942 0
M  V30 18753 C 1745.58 -2.67872 4.52914 0
M  V30 18754 O 1744.61 -2.34228 5.18774 0
M  V30 18755 N 1745.81 -3.97854 4.22721 0
M  V30 18756 H 1748.57 -0.0991913 2.99536 0
M  V30 18757 H 1746.13 0.0920667 1.61638 0
M  V30 18758 H 1748.13 -2.62907 3.07672 0
M  V30 18759 H 1746.7 -2.36105 2.04874 0
M  V30 18760 H 1745.92 -0.682852 3.88241 0
M  V30 18761 H 1747.2 -1.33801 4.90892 0
M  V30 18762 H 1746.6 -4.28011 3.69897 0
M  V30 18763 H 1745.16 -4.67165 4.54533 0
M  V30 18764 N 1748.59 -1.576 -0.00164943 0
M  V30 18765 C 1749.82 -1.95176 -0.701511 0
M  V30 18766 C 1750.24 -0.873191 -1.66604 0
M  V30 18767 O 1749.6 0.168818 -1.80512 0
M  V30 18768 C 1749.65 -3.31847 -1.41104 0
M  V30 18769 O 1748.75 -3.26034 -2.52539 0
M  V30 18770 H 1748.09 -0.637207 -0.186718 0
M  V30 18771 H 1750.62 -2.04536 0.0510494 0
M  V30 18772 H 1750.63 -3.67374 -1.77483 0
M  V30 18773 H 1749.31 -4.09901 -0.70382 0
M  V30 18774 H 1747.89 -3.0218 -2.18499 0
M  V30 18775 N 1750.07 0.274379 -1.55193 0
M  V30 18776 C 1751.3 1.02443 -1.79758 0
M  V30 18777 C 1751.71 1.79984 -0.570205 0
M  V30 18778 O 1751.07 1.7659 0.46069 0
M  V30 18779 C 1751.12 1.9841 -3.02185 0
M  V30 18780 O 1750.84 1.24012 -4.20182 0
M  V30 18781 C 1752.34 2.85239 -3.39343 0
M  V30 18782 H 1749.56 0.302684 -0.598852 0
M  V30 18783 H 1752.11 0.305581 -2.02204 0
M  V30 18784 H 1750.26 2.6576 -2.81869 0
M  V30 18785 H 1750.68 1.88684 -4.89386 0
M  V30 18786 H 1752.15 3.48376 -4.2818 0
M  V30 18787 H 1752.63 3.54936 -2.58684 0
M  V30 18788 H 1753.23 2.23382 -3.61912 0
M  V30 18789 N 1751.55 1.48103 0.538828 0
M  V30 18790 C 1752.8 1.55669 1.29512 0
M  V30 18791 C 1753.12 0.22678 1.93173 0
M  V30 18792 O 1752.38 -0.78212 1.79392 0
M  V30 18793 C 1752.68 2.63703 2.41237 0
M  V30 18794 C 1752.34 4.06416 1.95287 0
M  V30 18795 C 1751.01 4.45261 1.82472 0
M  V30 18796 C 1753.36 4.95888 1.60452 0
M  V30 18797 C 1750.69 5.71392 1.33145 0
M  V30 18798 C 1753.04 6.225 1.12591 0
M  V30 18799 C 1751.7 6.60209 0.983861 0
M  V30 18800 H 1750.97 0.569633 0.473919 0
M  V30 18801 H 1753.62 1.81783 0.602275 0
M  V30 18802 H 1751.92 2.31416 3.16155 0
M  V30 18803 H 1753.62 2.66775 2.99386 0
M  V30 18804 H 1750.21 3.75734 2.06209 0
M  V30 18805 H 1754.39 4.66561 1.69217 0
M  V30 18806 H 1749.65 5.99342 1.20828 0
M  V30 18807 H 1753.82 6.91229 0.847045 0
M  V30 18808 H 1751.45 7.57833 0.599433 0
M  V30 18809 N 1753.03 -0.787016 1.36542 0
M  V30 18810 C 1754.25 -1.57588 1.34065 0
M  V30 18811 C 1754.67 -1.88641 -0.0775397 0
M  V30 18812 O 1754.03 -1.50306 -1.03511 0
M  V30 18813 C 1754.08 -2.89543 2.16442 0
M  V30 18814 O 1753.8 -2.59828 3.52734 0
M  V30 18815 C 1755.3 -3.83838 2.21773 0
M  V30 18816 H 1752.52 -0.488708 0.459789 0
M  V30 18817 H 1755.06 -0.976614 1.79673 0
M  V30 18818 H 1753.22 -3.45933 1.74383 0
M  V30 18819 H 1753.63 -3.44219 3.95744 0
M  V30 18820 H 1755.11 -4.73478 2.83765 0
M  V30 18821 H 1755.58 -4.21862 1.22185 0
M  V30 18822 H 1756.19 -3.33381 2.64078 0
M  V30 18823 N 1754.5 -1.20861 -1.01145 0
M  V30 18824 C 1755.43 -0.986058 -2.11658 0
M  V30 18825 C 1756.42 0.0867558 -1.69879 0
M  V30 18826 O 1757.6 -0.0717892 -1.94067 0
M  V30 18827 C 1754.73 -0.542938 -3.4303 0
M  V30 18828 C 1753.68 -1.55958 -3.98574 0
M  V30 18829 C 1753.01 -0.972917 -5.25774 0
M  V30 18830 C 1754.31 -2.94471 -4.31375 0
M  V30 18831 H 1756 -1.91035 -2.30534 0
M  V30 18832 H 1753.55 -0.919914 -1.10786 0
M  V30 18833 H 1755.5 -0.374446 -4.19733 0
M  V30 18834 H 1754.23 0.416988 -3.23927 0
M  V30 18835 H 1752.89 -1.71552 -3.23984 0
M  V30 18836 H 1752.53 -0.00490446 -5.03 0
M  V30 18837 H 1752.23 -1.65194 -5.63901 0
M  V30 18838 H 1753.76 -0.815607 -6.05128 0
M  V30 18839 H 1755.17 -2.82358 -4.98946 0
M  V30 18840 H 1753.57 -3.59327 -4.80629 0
M  V30 18841 H 1754.64 -3.45804 -3.39923 0
M  V30 18842 N 1755.98 1.20536 -1.01532 0
M  V30 18843 C 1756.95 2.21495 -0.589298 0
M  V30 18844 C 1757.95 1.57167 0.339871 0
M  V30 18845 O 1759.14 1.73724 0.128736 0
M  V30 18846 C 1756.27 3.40614 0.139623 0
M  V30 18847 H 1757.46 2.607 -1.48241 0
M  V30 18848 H 1755.01 1.33977 -0.804977 0
M  V30 18849 H 1755.75 3.0691 1.04771 0
M  V30 18850 H 1755.53 3.88531 -0.52785 0
M  V30 18851 H 1757.02 4.15431 0.425083 0
M  V30 18852 N 1757.46 0.791395 1.36289 0
M  V30 18853 C 1758.71 0.361277 1.98438 0
M  V30 18854 C 1759.02 -1.07343 1.63514 0
M  V30 18855 O 1760.23 -1.60591 2.18913 0
M  V30 18856 C 1758.68 0.595005 3.54947 0
M  V30 18857 C 1758.29 2.04125 3.98794 0
M  V30 18858 C 1760.04 0.22949 4.23879 0
M  V30 18859 C 1757.94 2.22154 5.48089 0
M  V30 18860 H 1756.87 0.131343 0.742472 0
M  V30 18861 H 1759.52 0.973308 1.5556 0
M  V30 18862 H 1757.91 -0.0867658 3.95905 0
M  V30 18863 H 1759.08 2.75959 3.6903 0
M  V30 18864 H 1757.4 2.3652 3.42706 0
M  V30 18865 H 1759.99 0.342442 5.33602 0
M  V30 18866 H 1760.34 -0.822622 4.08091 0
M  V30 18867 H 1760.87 0.864575 3.88291 0
M  V30 18868 H 1757.61 3.25755 5.68827 0
M  V30 18869 H 1757.13 1.54827 5.79473 0
M  V30 18870 H 1758.81 2.02964 6.14341 0
M  V30 18871 N 1758.94 -1.47929 0.54358 0
M  V30 18872 C 1760.16 -2.07393 0.0168905 0
M  V30 18873 C 1760.59 -1.39557 -1.26117 0
M  V30 18874 O 1759.95 -0.465983 -1.75209 0
M  V30 18875 C 1760 -3.6017 -0.176105 0
M  V30 18876 O 1759.1 -3.9326 -1.24178 0
M  V30 18877 H 1758.44 -0.662459 0.0452126 0
M  V30 18878 H 1760.97 -1.90145 0.755376 0
M  V30 18879 H 1760.98 -4.06088 -0.394555 0
M  V30 18880 H 1759.66 -4.08944 0.757445 0
M  V30 18881 H 1758.23 -3.59105 -1.0049 0
M  V30 18882 N 1760.42 -0.27936 -1.55104 0
M  V30 18883 C 1761.38 0.593214 -2.2139 0
M  V30 18884 C 1762.38 1.07807 -1.19308 0
M  V30 18885 O 1763.57 0.97756 -1.44185 0
M  V30 18886 C 1760.7 1.81889 -2.88321 0
M  V30 18887 H 1761.9 0.0143941 -2.99897 0
M  V30 18888 H 1759.45 -0.0300083 -1.56271 0
M  V30 18889 H 1760.18 2.43811 -2.13838 0
M  V30 18890 H 1759.97 1.4791 -3.63132 0
M  V30 18891 H 1761.46 2.4393 -3.38951 0
M  V30 18892 N 1761.9 1.57599 -0.0067085 0
M  V30 18893 C 1763.13 1.9486 0.686536 0
M  V30 18894 C 1763.53 0.880481 1.67464 0
M  V30 18895 O 1762.88 -0.148537 1.83098 0
M  V30 18896 C 1762.94 3.28146 1.46834 0
M  V30 18897 C 1762.6 4.52481 0.641076 0
M  V30 18898 C 1763.6 5.19847 -0.0741179 0
M  V30 18899 C 1761.28 4.98881 0.585071 0
M  V30 18900 C 1763.28 6.31917 -0.83423 0
M  V30 18901 C 1760.97 6.10838 -0.178762 0
M  V30 18902 C 1761.96 6.77214 -0.887139 0
M  V30 18903 O 1761.65 7.87025 -1.6385 0
M  V30 18904 H 1761.38 0.647045 0.195727 0
M  V30 18905 H 1763.94 2.05324 -0.0559783 0
M  V30 18906 H 1762.17 3.14109 2.25549 0
M  V30 18907 H 1763.86 3.50471 2.04756 0
M  V30 18908 H 1764.62 4.84983 -0.0400444 0
M  V30 18909 H 1760.5 4.47038 1.12598 0
M  V30 18910 H 1764.05 6.83659 -1.38767 0
M  V30 18911 H 1759.94 6.45143 -0.214632 0
M  V30 18912 H 1760.71 8.03576 -1.55591 0
M  V30 18913 N 1763.37 -0.266145 1.55336 0
M  V30 18914 C 1764.34 -1.31242 1.87904 0
M  V30 18915 C 1765.34 -1.42022 0.754083 0
M  V30 18916 O 1766.53 -1.41054 1.02222 0
M  V30 18917 C 1763.66 -2.69285 2.09041 0
M  V30 18918 H 1764.85 -1.03592 2.81441 0
M  V30 18919 H 1762.4 -0.504537 1.47933 0
M  V30 18920 H 1763.14 -3.02106 1.17909 0
M  V30 18921 H 1762.92 -2.62846 2.90954 0
M  V30 18922 H 1764.41 -3.4487 2.35488 0
M  V30 18923 N 1764.85 -1.48386 -0.530967 0
M  V30 18924 C 1765.78 -1.6573 -1.64486 0
M  V30 18925 C 1766.76 -0.506198 -1.62393 0
M  V30 18926 O 1767.95 -0.738623 -1.79605 0
M  V30 18927 C 1765.08 -1.69594 -3.03076 0
M  V30 18928 C 1764.03 -2.84195 -3.20027 0
M  V30 18929 C 1763.36 -2.73148 -4.59668 0
M  V30 18930 C 1764.66 -4.25504 -3.02892 0
M  V30 18931 H 1766.35 -2.58983 -1.50227 0
M  V30 18932 H 1763.9 -1.24633 -0.721286 0
M  V30 18933 H 1765.85 -1.80316 -3.80873 0
M  V30 18934 H 1764.57 -0.729193 -3.18356 0
M  V30 18935 H 1763.23 -2.73027 -2.44647 0
M  V30 18936 H 1762.88 -1.74444 -4.71782 0
M  V30 18937 H 1762.58 -3.50047 -4.71954 0
M  V30 18938 H 1764.11 -2.85836 -5.39565 0
M  V30 18939 H 1765.52 -4.37511 -3.70482 0
M  V30 18940 H 1763.92 -5.03393 -3.26673 0
M  V30 18941 H 1764.99 -4.42036 -1.99329 0
M  V30 18942 N 1766.33 0.779763 -1.36958 0
M  V30 18943 C 1767.55 1.57389 -1.35068 0
M  V30 18944 C 1767.98 1.87993 0.0635244 0
M  V30 18945 O 1767.34 1.48625 1.03828 0
M  V30 18946 C 1767.39 2.86582 -2.18868 0
M  V30 18947 O 1766.49 3.80609 -1.58779 0
M  V30 18948 H 1765.83 0.477052 -0.461863 0
M  V30 18949 H 1768.36 0.965741 -1.80373 0
M  V30 18950 H 1768.37 3.35761 -2.31794 0
M  V30 18951 H 1767.05 2.63635 -3.21666 0
M  V30 18952 H 1765.62 3.39229 -1.54848 0
M  V30 18953 N 1767.81 1.21396 1.00503 0
M  V30 18954 C 1768.74 0.997268 2.11132 0
M  V30 18955 C 1769.72 -0.0777455 1.69922 0
M  V30 18956 O 1770.9 0.08208 1.94026 0
M  V30 18957 C 1768.03 0.561122 3.42737 0
M  V30 18958 C 1766.99 1.58069 3.97741 0
M  V30 18959 C 1766.31 1.00079 5.25251 0
M  V30 18960 C 1767.61 2.96754 4.29807 0
M  V30 18961 H 1769.31 1.92255 2.29518 0
M  V30 18962 H 1766.85 0.925776 1.10297 0
M  V30 18963 H 1768.81 0.396701 4.19529 0
M  V30 18964 H 1767.53 -0.399804 3.24144 0
M  V30 18965 H 1766.19 1.73268 3.23069 0
M  V30 18966 H 1765.84 0.0315797 5.0299 0
M  V30 18967 H 1765.54 1.68182 5.63017 0
M  V30 18968 H 1767.06 0.847687 6.04687 0
M  V30 18969 H 1768.48 2.85 4.97441 0
M  V30 18970 H 1766.87 3.61871 4.78717 0
M  V30 18971 H 1767.94 3.47602 3.38084 0
M  V30 18972 N 1769.29 -1.19996 1.0217 0
M  V30 18973 C 1770.53 -1.89121 0.712579 0
M  V30 18974 C 1770.85 -1.79556 -0.760561 0
M  V30 18975 O 1770.12 -1.2013 -1.54744 0
M  V30 18976 H 1768.7 -0.700075 0.260585 0
M  V30 18977 H 1771.37 -1.4571 1.2944 0
M  V30 18978 H 1770.46 -2.95629 1.00051 0
M  V30 18979 N 1770.76 -0.798611 -1.35867 0
M  V30 18980 C 1772.04 -0.298858 -1.93303 0
M  V30 18981 C 1772.42 1.21038 -1.72954 0
M  V30 18982 O 1771.77 2.00617 -1.09386 0
M  V30 18983 C 1771.98 -0.701532 -3.41876 0
M  V30 18984 C 1773.33 -0.686486 -4.19014 0
M  V30 18985 O 1774.35 -0.642577 -3.50356 0
M  V30 18986 O 1773.21 -0.737653 -5.41499 0
M  V30 18987 H 1770.3 -0.0762987 -0.823473 0
M  V30 18988 H 1772.85 -0.881773 -1.44993 0
M  V30 18989 H 1771.62 -1.74204 -3.50383 0
M  V30 18990 H 1771.24 -0.092994 -3.97491 0
M  V30 18991 N 1772.24 1.47639 -0.551417 0
M  V30 18992 C 1773.19 2.29936 0.199514 0
M  V30 18993 C 1774.16 1.38704 0.913811 0
M  V30 18994 O 1775.34 1.67666 0.910643 0
M  V30 18995 C 1772.48 3.22544 1.22717 0
M  V30 18996 C 1771.6 4.28865 0.519527 0
M  V30 18997 C 1770.73 5.0863 1.53197 0
M  V30 18998 C 1769.77 6.06731 0.808981 0
M  V30 18999 N 1768.91 6.79476 1.76798 0
M  V30 19000 H 1773.75 2.93631 -0.508414 0
M  V30 19001 H 1771.28 1.44738 -0.262553 0
M  V30 19002 H 1773.24 3.74653 1.83551 0
M  V30 19003 H 1771.87 2.60726 1.9032 0
M  V30 19004 H 1770.92 3.79857 -0.203217 0
M  V30 19005 H 1772.24 4.98778 -0.0471224 0
M  V30 19006 H 1771.39 5.6486 2.214 0
M  V30 19007 H 1770.13 4.38605 2.13253 0
M  V30 19008 H 1769.13 5.49684 0.112991 0
M  V30 19009 H 1770.36 6.78762 0.214239 0
M  V30 19010 H 1768.31 6.12185 2.35722 0
M  V30 19011 H 1768.22 7.45539 1.25333 0
M  V30 19012 H 1769.49 7.40283 2.44133 0
M  V30 19013 N 1773.72 0.287581 1.54954 0
M  V30 19014 C 1774.95 -0.328601 2.04274 0
M  V30 19015 C 1775.36 -1.48535 1.16545 0
M  V30 19016 O 1774.72 -1.81527 0.188187 0
M  V30 19017 C 1774.77 -0.797705 3.52589 0
M  V30 19018 O 1774.49 0.31299 4.36981 0
M  V30 19019 C 1775.99 -1.48042 4.1785 0
M  V30 19020 H 1773.21 -0.0733253 0.666982 0
M  V30 19021 H 1775.76 0.423307 2.00071 0
M  V30 19022 H 1773.91 -1.49967 3.57196 0
M  V30 19023 H 1774.33 -0.0498078 5.24476 0
M  V30 19024 H 1775.8 -1.75995 5.23192 0
M  V30 19025 H 1776.28 -2.41608 3.66772 0
M  V30 19026 H 1776.88 -0.821988 4.17281 0
M  V30 19027 N 1775.2 -1.57593 0.0150662 0
M  V30 19028 C 1776.15 -2.0585 -0.980291 0
M  V30 19029 C 1777.13 -0.956179 -1.29406 0
M  V30 19030 O 1778.32 -1.21985 -1.28253 0
M  V30 19031 C 1775.45 -2.57769 -2.26738 0
M  V30 19032 C 1774.54 -3.74906 -1.98259 0
M  V30 19033 N 1774.93 -4.8604 -1.39995 0
M  V30 19034 C 1773.23 -3.83124 -2.28325 0
M  V30 19035 C 1773.93 -5.67368 -1.28329 0
M  V30 19036 N 1772.91 -5.13837 -1.77404 0
M  V30 19037 H 1776.71 -2.89181 -0.524549 0
M  V30 19038 H 1774.22 -1.61281 -0.190285 0
M  V30 19039 H 1776.22 -2.90624 -2.98903 0
M  V30 19040 H 1774.88 -1.75862 -2.72952 0
M  V30 19041 H 1775.89 -5.06583 -1.07678 0
M  V30 19042 H 1772.57 -3.12099 -2.77309 0
M  V30 19043 H 1773.96 -6.66704 -0.833956 0
M  V30 19044 N 1776.68 0.257904 -1.55475 0
M  V30 19045 C 1778.09 0.82782 -1.67344 0
M  V30 19046 C 1778.44 1.8646 -0.610494 0
M  V30 19047 O 1777.56 2.15005 0.245275 0
M  V30 19048 C 1778.16 1.5083 -3.03374 0
M  V30 19049 C 1776.72 2.02605 -3.17219 0
M  V30 19050 C 1775.86 0.873303 -2.63189 0
M  V30 19051 H 1778.82 0.0339334 -1.58664 0
M  V30 19052 H 1778.84 2.3759 -2.97205 0
M  V30 19053 H 1778.35 0.753469 -3.80716 0
M  V30 19054 H 1776.45 2.81002 -2.4468 0
M  V30 19055 H 1776.56 2.23099 -4.23985 0
M  V30 19056 H 1774.93 1.27082 -2.20731 0
M  V30 19057 H 1775.71 0.131739 -3.43047 0
M  V30 19058 N 1778.15 1.48666 0.52309 0
M  V30 19059 C 1779.09 1.59796 1.64311 0
M  V30 19060 C 1780.1 0.481836 1.55506 0
M  V30 19061 O 1781.29 0.752977 1.61841 0
M  V30 19062 C 1778.39 1.5181 3.02997 0
M  V30 19063 C 1777.56 2.7858 3.37212 0
M  V30 19064 C 1776.62 2.63952 4.5521 0
M  V30 19065 O 1775.65 3.37851 4.58088 0
M  V30 19066 N 1776.85 1.74026 5.53801 0
M  V30 19067 H 1779.61 2.56386 1.55197 0
M  V30 19068 H 1777.17 1.45476 0.710511 0
M  V30 19069 H 1779.17 1.39709 3.7982 0
M  V30 19070 H 1777.74 0.631664 3.06152 0
M  V30 19071 H 1776.96 3.05194 2.495 0
M  V30 19072 H 1778.24 3.62668 3.56861 0
M  V30 19073 H 1777.64 1.13202 5.54258 0
M  V30 19074 H 1776.2 1.6786 6.29814 0
M  V30 19075 N 1779.63 -0.772489 1.37369 0
M  V30 19076 C 1780.88 -1.53102 1.32537 0
M  V30 19077 C 1781.21 -1.9429 -0.0903608 0
M  V30 19078 O 1780.46 -1.64286 -1.06342 0
M  V30 19079 C 1780.76 -2.80907 2.20966 0
M  V30 19080 C 1780.43 -2.58775 3.69251 0
M  V30 19081 C 1779.09 -2.52448 4.09663 0
M  V30 19082 C 1781.44 -2.38954 4.63196 0
M  V30 19083 C 1778.77 -2.24288 5.42136 0
M  V30 19084 C 1781.12 -2.12318 5.95906 0
M  V30 19085 C 1779.79 -2.04434 6.35423 0
M  V30 19086 H 1779.06 -0.56024 0.484987 0
M  V30 19087 H 1781.7 -0.889859 1.69569 0
M  V30 19088 H 1780.01 -3.49578 1.76925 0
M  V30 19089 H 1781.7 -3.38782 2.14541 0
M  V30 19090 H 1778.29 -2.64563 3.37201 0
M  V30 19091 H 1782.48 -2.42833 4.32835 0
M  V30 19092 H 1777.73 -2.16679 5.71717 0
M  V30 19093 H 1781.91 -1.95979 6.68255 0
M  V30 19094 H 1779.54 -1.82378 7.37999 0
M  V30 19095 N 1781.11 -1.21927 -0.998575 0
M  V30 19096 C 1782.53 -0.978007 -1.26124 0
M  V30 19097 C 1782.73 0.3318 -1.98749 0
M  V30 19098 O 1781.78 1.05585 -2.29364 0
M  V30 19099 C 1783.1 -2.17291 -2.07858 0
M  V30 19100 C 1784.64 -2.21586 -2.21062 0
M  V30 19101 C 1785.12 -3.40613 -3.06181 0
M  V30 19102 N 1786.61 -3.40739 -3.13769 0
M  V30 19103 C 1787.34 -4.29488 -3.79905 0
M  V30 19104 N 1786.84 -5.28445 -4.48015 0
M  V30 19105 N 1788.63 -4.17279 -3.76609 0
M  V30 19106 H 1780.78 -2.06149 -0.51151 0
M  V30 19107 H 1783.05 -0.903039 -0.288487 0
M  V30 19108 H 1782.75 -3.12246 -1.61851 0
M  V30 19109 H 1782.63 -2.16883 -3.08612 0
M  V30 19110 H 1785.01 -1.27183 -2.66286 0
M  V30 19111 H 1785.1 -2.26035 -1.19757 0
M  V30 19112 H 1784.74 -4.35313 -2.61659 0
M  V30 19113 H 1784.67 -3.33403 -4.07615 0
M  V30 19114 H 1787.16 -2.69128 -2.65289 0
M  V30 19115 H 1787.47 -5.92454 -4.96203 0
M  V30 19116 H 1785.82 -5.32364 -4.46782 0
M  V30 19117 H 1789.01 -3.39226 -3.22557 0
M  V30 19118 H 1789.18 -4.86651 -4.27873 0
M  V30 19119 N 1782.59 1.19452 -1.02805 0
M  V30 19120 C 1783.81 1.93616 -0.743485 0
M  V30 19121 C 1784.24 1.74934 0.691342 0
M  V30 19122 O 1783.6 1.05111 1.47721 0
M  V30 19123 C 1783.64 3.43451 -1.0988 0
M  V30 19124 O 1782.75 4.11829 -0.216978 0
M  V30 19125 H 1782.09 0.60448 -0.274771 0
M  V30 19126 H 1784.62 1.51554 -1.37451 0
M  V30 19127 H 1784.63 3.94115 -1.05535 0
M  V30 19128 H 1783.3 3.5637 -2.14413 0
M  V30 19129 H 1781.88 3.71533 -0.318954 0
M  V30 19130 N 1784.07 0.805805 1.35442 0
M  V30 19131 C 1785.32 0.382303 1.98044 0
M  V30 19132 C 1785.63 -1.05602 1.64644 0
M  V30 19133 O 1786.83 -1.5826 2.20604 0
M  V30 19134 C 1785.29 0.632619 3.54296 0
M  V30 19135 C 1784.9 2.08344 3.96607 0
M  V30 19136 C 1786.64 0.274435 4.23612 0
M  V30 19137 C 1784.55 2.27954 5.45702 0
M  V30 19138 H 1783.48 0.13921 0.741037 0
M  V30 19139 H 1786.13 0.989752 1.54519 0
M  V30 19140 H 1784.51 -0.0447699 3.95975 0
M  V30 19141 H 1785.69 2.79857 3.66083 0
M  V30 19142 H 1784 2.40142 3.40178 0
M  V30 19143 H 1786.6 0.399019 5.33209 0
M  V30 19144 H 1786.94 -0.779292 4.08941 0
M  V30 19145 H 1787.47 0.90571 3.87352 0
M  V30 19146 H 1784.21 3.3177 5.6534 0
M  V30 19147 H 1783.73 1.60965 5.77798 0
M  V30 19148 H 1785.41 2.09469 6.12153 0
M  V30 19149 N 1785.54 -1.47344 0.559239 0
M  V30 19150 C 1786.79 -2.02768 0.0359962 0
M  V30 19151 C 1787.12 -1.43247 -1.31126 0
M  V30 19152 O 1786.4 -0.588793 -1.85374 0
M  V30 19153 C 1786.68 -3.60058 -0.0549111 0
M  V30 19154 C 1786.53 -4.30008 1.31958 0
M  V30 19155 C 1787.85 -4.33359 -0.767331 0
M  V30 19156 H 1784.97 -0.736856 0.0145552 0
M  V30 19157 H 1787.61 -1.75751 0.72192 0
M  V30 19158 H 1785.76 -3.83208 -0.639076 0
M  V30 19159 H 1787.44 -4.18193 1.94711 0
M  V30 19160 H 1785.68 -3.90283 1.89372 0
M  V30 19161 H 1786.35 -5.38605 1.20867 0
M  V30 19162 H 1788.83 -4.15215 -0.27131 0
M  V30 19163 H 1787.7 -5.4304 -0.799905 0
M  V30 19164 H 1787.96 -4.02725 -1.82387 0
M  V30 19165 N 1787.02 -0.295795 -1.54799 0
M  V30 19166 C 1788.25 0.32058 -2.04907 0
M  V30 19167 C 1788.67 1.47132 -1.17191 0
M  V30 19168 O 1788.03 1.80455 -0.174869 0
M  V30 19169 C 1788.08 0.759439 -3.52512 0
M  V30 19170 O 1787.18 1.86474 -3.67833 0
M  V30 19171 H 1786.52 0.0631128 -0.660994 0
M  V30 19172 H 1789.05 -0.436123 -1.99898 0
M  V30 19173 H 1789.06 1.04965 -3.94267 0
M  V30 19174 H 1787.74 -0.0823715 -4.15818 0
M  V30 19175 H 1786.32 1.57547 -3.37984 0
M  V30 19176 N 1788.5 1.57583 -0.0234236 0
M  V30 19177 C 1789.46 2.08797 0.945325 0
M  V30 19178 C 1790.46 1.00189 1.25773 0
M  V30 19179 O 1791.65 1.2637 1.19901 0
M  V30 19180 C 1788.79 2.54906 2.26353 0
M  V30 19181 H 1789.98 2.95671 0.50187 0
M  V30 19182 H 1787.53 1.54679 0.224507 0
M  V30 19183 H 1788.27 1.71345 2.75339 0
M  V30 19184 H 1788.05 3.34247 2.04991 0
M  V30 19185 H 1789.54 2.94774 2.95801 0
M  V30 19186 N 1789.98 -0.249655 1.5561 0
M  V30 19187 C 1790.91 -1.31281 1.931 0
M  V30 19188 C 1791.89 -1.50347 0.795601 0
M  V30 19189 O 1793.08 -1.63001 1.05566 0
M  V30 19190 C 1790.21 -2.66808 2.2233 0
M  V30 19191 C 1789.16 -2.62441 3.38096 0
M  V30 19192 C 1788.49 -4.01738 3.52861 0
M  V30 19193 C 1789.79 -2.19667 4.7386 0
M  V30 19194 H 1791.48 -1.00151 2.82153 0
M  V30 19195 H 1789.03 -0.480331 1.35753 0
M  V30 19196 H 1790.98 -3.41316 2.47146 0
M  V30 19197 H 1789.7 -2.99569 1.30101 0
M  V30 19198 H 1788.36 -1.90391 3.13284 0
M  V30 19199 H 1788.01 -4.31759 2.58056 0
M  V30 19200 H 1787.71 -3.99705 4.30708 0
M  V30 19201 H 1789.23 -4.7795 3.79995 0
M  V30 19202 H 1790.65 -2.83906 4.98067 0
M  V30 19203 H 1789.04 -2.28751 5.54791 0
M  V30 19204 H 1790.11 -1.14829 4.71108 0
M  V30 19205 N 1791.46 -1.48941 -0.515198 0
M  V30 19206 C 1792.4 -1.64561 -1.61828 0
M  V30 19207 C 1793.37 -0.487323 -1.5879 0
M  V30 19208 O 1794.56 -0.712626 -1.76992 0
M  V30 19209 C 1791.7 -1.70506 -3.00036 0
M  V30 19210 C 1790.81 -2.97543 -3.13197 0
M  V30 19211 C 1789.95 -2.94555 -4.42053 0
M  V30 19212 C 1788.99 -4.16232 -4.48795 0
M  V30 19213 N 1788.12 -4.11236 -5.6906 0
M  V30 19214 H 1792.96 -2.58754 -1.47818 0
M  V30 19215 H 1790.5 -1.28307 -0.719423 0
M  V30 19216 H 1792.46 -1.71934 -3.80125 0
M  V30 19217 H 1791.09 -0.797907 -3.12783 0
M  V30 19218 H 1790.14 -3.05792 -2.26264 0
M  V30 19219 H 1791.45 -3.87532 -3.14039 0
M  V30 19220 H 1790.61 -2.94466 -5.30447 0
M  V30 19221 H 1789.35 -2.0232 -4.43754 0
M  V30 19222 H 1788.35 -4.1658 -3.58805 0
M  V30 19223 H 1789.58 -5.09644 -4.48821 0
M  V30 19224 H 1787.52 -3.2183 -5.7163 0
M  V30 19225 H 1787.44 -4.94945 -5.71459 0
M  V30 19226 H 1788.71 -4.15229 -6.59701 0
M  V30 19227 N 1792.94 0.765193 -1.37777 0
M  V30 19228 C 1794.35 1.06666 -1.1872 0
M  V30 19229 C 1794.55 2.01481 -0.0278636 0
M  V30 19230 O 1793.61 2.44514 0.630006 0
M  V30 19231 C 1794.92 1.65787 -2.50868 0
M  V30 19232 C 1796.47 1.78014 -2.57449 0
M  V30 19233 C 1796.94 2.40548 -3.89744 0
M  V30 19234 N 1798.43 2.47992 -3.91221 0
M  V30 19235 C 1799.17 2.97245 -4.9034 0
M  V30 19236 N 1798.67 3.46621 -5.99855 0
M  V30 19237 N 1800.46 2.96179 -4.77739 0
M  V30 19238 H 1792.61 0.135775 -2.11966 0
M  V30 19239 H 1794.87 0.122863 -0.940005 0
M  V30 19240 H 1794.58 1.03588 -3.36099 0
M  V30 19241 H 1794.45 2.65 -2.6843 0
M  V30 19242 H 1796.84 2.39345 -1.72621 0
M  V30 19243 H 1796.92 0.775388 -2.43765 0
M  V30 19244 H 1796.56 1.79855 -4.74989 0
M  V30 19245 H 1796.49 3.41643 -4.00734 0
M  V30 19246 H 1798.99 2.13056 -3.12114 0
M  V30 19247 H 1799.3 3.82625 -6.7143 0
M  V30 19248 H 1797.64 3.44709 -6.0349 0
M  V30 19249 H 1800.83 2.56909 -3.913 0
M  V30 19250 H 1801.01 3.34253 -5.55139 0
M  V30 19251 N 1794.41 1.22455 0.992094 0
M  V30 19252 C 1795.32 1.01173 2.11663 0
M  V30 19253 C 1796.34 -0.0402168 1.73954 0
M  V30 19254 O 1797.52 0.152685 2.0082 0
M  V30 19255 C 1794.58 0.592995 3.41591 0
M  V30 19256 C 1793.64 1.71865 3.93397 0
M  V30 19257 C 1792.87 1.3198 5.17124 0
M  V30 19258 O 1793.1 0.198943 5.70053 0
M  V30 19259 O 1792.03 2.13658 5.62702 0
M  V30 19260 H 1795.86 1.9539 2.32501 0
M  V30 19261 H 1793.44 1.01056 1.10036 0
M  V30 19262 H 1795.32 0.36987 4.19774 0
M  V30 19263 H 1794 -0.320311 3.22111 0
M  V30 19264 H 1792.91 1.9963 3.16384 0
M  V30 19265 H 1794.24 2.60985 4.1731 0
M  V30 19266 N 1795.89 -1.18905 1.03437 0
M  V30 19267 C 1796.85 -2.20529 0.624461 0
M  V30 19268 C 1797.85 -1.57688 -0.314824 0
M  V30 19269 O 1799.04 -1.73906 -0.101082 0
M  V30 19270 C 1796.18 -3.40793 -0.0854166 0
M  V30 19271 H 1797.37 -2.58309 1.5237 0
M  V30 19272 H 1794.92 -1.32679 0.826189 0
M  V30 19273 H 1795.66 -3.08538 -0.998747 0
M  V30 19274 H 1795.44 -3.87642 0.589596 0
M  V30 19275 H 1796.93 -4.16055 -0.358938 0
M  V30 19276 N 1797.37 -0.812977 -1.35013 0
M  V30 19277 C 1798.3 -0.242397 -2.32238 0
M  V30 19278 C 1799.28 0.635676 -1.57776 0
M  V30 19279 O 1800.47 0.564621 -1.85811 0
M  V30 19280 C 1797.6 0.604686 -3.41995 0
M  V30 19281 C 1796.55 -0.17542 -4.2764 0
M  V30 19282 C 1795.88 0.793772 -5.28775 0
M  V30 19283 C 1797.18 -1.37802 -5.03794 0
M  V30 19284 H 1798.87 -1.0547 -2.80208 0
M  V30 19285 H 1796.42 -0.508619 -1.34718 0
M  V30 19286 H 1798.37 1.01396 -4.09019 0
M  V30 19287 H 1797.09 1.44994 -2.9265 0
M  V30 19288 H 1795.75 -0.565948 -3.62205 0
M  V30 19289 H 1795.4 1.63471 -4.75696 0
M  V30 19290 H 1795.1 0.276085 -5.86951 0
M  V30 19291 H 1796.62 1.20112 -5.9867 0
M  V30 19292 H 1798.04 -1.04328 -5.63727 0
M  V30 19293 H 1796.43 -1.83064 -5.71496 0
M  V30 19294 H 1797.5 -2.16138 -4.34065 0
M  V30 19295 N 1798.85 1.47045 -0.567045 0
M  V30 19296 C 1800.09 2.02746 -0.046749 0
M  V30 19297 C 1800.43 1.4394 1.30364 0
M  V30 19298 O 1799.7 0.598616 1.85059 0
M  V30 19299 C 1799.98 3.60082 0.0358156 0
M  V30 19300 C 1799.84 4.29302 -1.34237 0
M  V30 19301 C 1801.16 4.3376 0.744338 0
M  V30 19302 H 1798.28 0.736769 -0.0184627 0
M  V30 19303 H 1800.92 1.75365 -0.73123 0
M  V30 19304 H 1799.07 3.83541 0.618745 0
M  V30 19305 H 1800.74 4.17155 -1.96926 0
M  V30 19306 H 1798.98 3.89273 -1.91439 0
M  V30 19307 H 1799.65 5.37956 -1.23722 0
M  V30 19308 H 1802.13 4.15353 0.249287 0
M  V30 19309 H 1801.01 5.43457 0.771095 0
M  V30 19310 H 1801.27 4.03686 1.80249 0
M  V30 19311 N 1800.33 0.304 1.5464 0
M  V30 19312 C 1801.27 -0.570762 2.23631 0
M  V30 19313 C 1802.24 -1.1272 1.21998 0
M  V30 19314 O 1803.43 -1.17117 1.50626 0
M  V30 19315 C 1800.57 -1.73533 2.98296 0
M  V30 19316 C 1799.68 -1.21 4.14708 0
M  V30 19317 C 1798.82 -2.33867 4.76948 0
M  V30 19318 C 1797.85 -1.78483 5.855 0
M  V30 19319 N 1796.99 -2.84935 6.41682 0
M  V30 19320 H 1801.83 0.024168 2.9799 0
M  V30 19321 H 1799.37 0.023697 1.47081 0
M  V30 19322 H 1801.33 -2.42031 3.39819 0
M  V30 19323 H 1799.96 -2.30184 2.26308 0
M  V30 19324 H 1799.01 -0.41718 3.78105 0
M  V30 19325 H 1800.32 -0.764576 4.92905 0
M  V30 19326 H 1799.47 -3.10306 5.21339 0
M  V30 19327 H 1798.21 -2.81737 3.9809 0
M  V30 19328 H 1797.22 -1.00534 5.4053 0
M  V30 19329 H 1798.44 -1.31513 6.66244 0
M  V30 19330 H 1796.39 -3.32133 5.65706 0
M  V30 19331 H 1796.31 -2.44898 7.15235 0
M  V30 19332 H 1797.57 -3.61263 6.90731 0
M  V30 19333 N 1801.8 -1.57568 0.0317802 0
M  V30 19334 C 1803.05 -1.91531 -0.645004 0
M  V30 19335 C 1803.37 -0.909042 -1.72515 0
M  V30 19336 O 1802.64 0.0490427 -1.95839 0
M  V30 19337 H 1801.22 -0.706976 -0.241236 0
M  V30 19338 H 1803.88 -1.94735 0.0802108 0
M  V30 19339 H 1802.98 -2.92221 -1.09604 0
M  V30 19340 N 1803.28 0.241399 -1.5574 0
M  V30 19341 C 1804.23 1.31868 -1.91608 0
M  V30 19342 C 1805.22 1.49545 -0.795774 0
M  V30 19343 O 1806.43 1.50955 -0.980442 0
M  V30 19344 H 1802.81 0.441685 -0.60862 0
M  V30 19345 H 1804.78 0.98887 -2.81538 0
M  V30 19346 C 1803.53 2.66602 -2.23201 0
M  V30 19347 H 1802.85 2.53802 -3.08909 0
M  V30 19348 H 1804.29 3.40842 -2.52196 0
M  V30 19349 C 1802.75 3.20112 -1.05024 0
M  V30 19350 O 1803.28 4.0057 -0.301069 0
M  V30 19351 N 1801.48 2.78214 -0.839381 0
M  V30 19352 H 1801.03 2.12894 -1.4503 0
M  V30 19353 H 1800.99 3.1436 -0.050362 0
M  V30 19354 N 1804.76 1.49212 0.507292 0
M  V30 19355 C 1806.17 1.51655 1.08892 0
M  V30 19356 C 1806.52 0.299163 1.93906 0
M  V30 19357 O 1805.65 -0.591635 2.08155 0
M  V30 19358 C 1806.24 2.7481 1.98154 0
M  V30 19359 C 1804.8 2.80051 2.51492 0
M  V30 19360 C 1803.95 2.45486 1.28966 0
M  V30 19361 H 1806.9 1.56 0.291488 0
M  V30 19362 H 1806.92 2.54615 2.82757 0
M  V30 19363 H 1806.43 3.63396 1.36253 0
M  V30 19364 H 1804.53 1.95729 3.1705 0
M  V30 19365 H 1804.65 3.82064 2.89075 0
M  V30 19366 H 1803.01 1.97128 1.61284 0
M  V30 19367 H 1803.79 3.36339 0.687821 0
M  V30 19368 N 1806.24 -0.757876 1.38181 0
M  V30 19369 C 1807.65 -1.33496 1.30521 0
M  V30 19370 C 1808 -1.96157 -0.0409405 0
M  V30 19371 O 1807.13 -1.94775 -0.942957 0
M  V30 19372 C 1807.72 -2.42725 2.36369 0
M  V30 19373 C 1806.28 -2.96165 2.323 0
M  V30 19374 C 1805.43 -1.69505 2.19461 0
M  V30 19375 H 1808.38 -0.557075 1.48601 0
M  V30 19376 H 1808.4 -3.22556 2.01836 0
M  V30 19377 H 1807.91 -1.97089 3.34331 0
M  V30 19378 H 1806.01 -3.4614 1.37904 0
M  V30 19379 H 1806.12 -3.50836 3.26269 0
M  V30 19380 H 1804.49 -1.92967 1.66241 0
M  V30 19381 H 1805.27 -1.25954 3.1936 0
M  V30 19382 N 1807.72 -1.22979 -0.985586 0
M  V30 19383 C 1808.97 -1.05286 -1.7204 0
M  V30 19384 C 1809.28 0.411213 -1.91229 0
M  V30 19385 O 1810.48 0.70797 -2.62107 0
M  V30 19386 C 1808.94 -1.8355 -3.09576 0
M  V30 19387 C 1808.55 -3.34254 -2.98293 0
M  V30 19388 C 1810.29 -1.74329 -3.87052 0
M  V30 19389 C 1808.2 -4.0493 -4.31029 0
M  V30 19390 H 1807.13 -0.390364 -0.645083 0
M  V30 19391 H 1809.78 -1.46898 -1.09969 0
M  V30 19392 H 1808.16 -1.34741 -3.72372 0
M  V30 19393 H 1809.34 -3.90511 -2.44618 0
M  V30 19394 H 1807.65 -3.44231 -2.34294 0
M  V30 19395 H 1810.25 -2.24449 -4.85311 0
M  V30 19396 H 1810.59 -0.705078 -4.10286 0
M  V30 19397 H 1811.12 -2.20721 -3.30949 0
M  V30 19398 H 1807.86 -5.09035 -4.12993 0
M  V30 19399 H 1807.38 -3.5346 -4.84588 0
M  V30 19400 H 1809.06 -4.10935 -4.99742 0
M  V30 19401 N 1809.19 1.18355 -1.04066 0
M  V30 19402 C 1810.42 1.91996 -0.762952 0
M  V30 19403 C 1810.83 1.76413 0.683745 0
M  V30 19404 O 1810.18 1.09121 1.47778 0
M  V30 19405 C 1810.24 3.4384 -1.04949 0
M  V30 19406 C 1809.9 3.83201 -2.4901 0
M  V30 19407 C 1810.9 3.86984 -3.47187 0
M  V30 19408 C 1808.58 4.14497 -2.83721 0
M  V30 19409 C 1810.58 4.21513 -4.78127 0
M  V30 19410 C 1808.26 4.48696 -4.14867 0
M  V30 19411 C 1809.26 4.52181 -5.1188 0
M  V30 19412 O 1808.95 4.85582 -6.40676 0
M  V30 19413 H 1808.68 0.616351 -0.277647 0
M  V30 19414 H 1811.24 1.51092 -1.39141 0
M  V30 19415 H 1809.47 3.84984 -0.363904 0
M  V30 19416 H 1811.16 3.98729 -0.759579 0
M  V30 19417 H 1811.92 3.62944 -3.21709 0
M  V30 19418 H 1807.8 4.10962 -2.08881 0
M  V30 19419 H 1811.34 4.24148 -5.53845 0
M  V30 19420 H 1807.24 4.72198 -4.40113 0
M  V30 19421 H 1808.01 5.03485 -6.45326 0
M  V30 19422 N 1810.67 0.820125 1.3458 0
M  V30 19423 C 1812.09 0.505533 1.51382 0
M  V30 19424 C 1812.29 -0.970812 1.76571 0
M  V30 19425 O 1811.34 -1.75538 1.81501 0
M  V30 19426 C 1812.66 1.36264 2.68054 0
M  V30 19427 C 1814.21 1.35947 2.81935 0
M  V30 19428 C 1814.68 2.201 4.01647 0
M  V30 19429 N 1816.17 2.17708 4.08849 0
M  V30 19430 C 1816.91 2.79571 5.00627 0
M  V30 19431 N 1816.4 3.50413 5.97647 0
M  V30 19432 N 1818.2 2.6914 4.93477 0
M  V30 19433 H 1810.35 1.77607 1.16488 0
M  V30 19434 H 1812.61 0.756693 0.571068 0
M  V30 19435 H 1812.32 2.41093 2.56061 0
M  V30 19436 H 1812.19 1.02537 3.62996 0
M  V30 19437 H 1814.58 0.318971 2.93371 0
M  V30 19438 H 1814.66 1.7367 1.8781 0
M  V30 19439 H 1814.3 3.24198 3.90971 0
M  V30 19440 H 1814.23 1.79729 4.9498 0
M  V30 19441 H 1816.72 1.66175 3.39403 0
M  V30 19442 H 1817.04 3.9487 6.64303 0
M  V30 19443 H 1815.38 3.54519 5.9778 0
M  V30 19444 H 1818.57 2.13372 4.16641 0
M  V30 19445 H 1818.74 3.17639 5.64809 0
M  V30 19446 N 1812.15 -1.46743 0.574835 0
M  V30 19447 C 1813.4 -2.02419 0.0574154 0
M  V30 19448 C 1813.73 -1.44723 -1.29944 0
M  V30 19449 O 1812.98 -0.599149 -1.86303 0
M  V30 19450 C 1813.28 -3.57338 -0.0666259 0
M  V30 19451 C 1812.95 -4.34036 1.22161 0
M  V30 19452 C 1811.61 -4.5471 1.57457 0
M  V30 19453 C 1813.96 -4.78137 2.07448 0
M  V30 19454 C 1811.29 -5.16735 2.77852 0
M  V30 19455 C 1813.64 -5.41492 3.27062 0
M  V30 19456 C 1812.3 -5.60394 3.6265 0
M  V30 19457 H 1811.57 -0.740702 0.0210098 0
M  V30 19458 H 1814.22 -1.76207 0.749892 0
M  V30 19459 H 1812.53 -3.82642 -0.842183 0
M  V30 19460 H 1814.22 -3.98085 -0.482605 0
M  V30 19461 H 1810.81 -4.18236 0.936826 0
M  V30 19462 H 1815 -4.61928 1.81484 0
M  V30 19463 H 1810.25 -5.29562 3.05572 0
M  V30 19464 H 1814.43 -5.74623 3.93422 0
M  V30 19465 H 1812.05 -6.08226 4.56032 0
M  V30 19466 N 1813.63 -0.312197 -1.54477 0
M  V30 19467 C 1814.87 0.287026 -2.01365 0
M  V30 19468 C 1815.23 1.50663 -1.1966 0
M  V30 19469 O 1814.52 1.8972 -0.267763 0
M  V30 19470 C 1814.72 0.684057 -3.50793 0
M  V30 19471 C 1814.55 -0.495521 -4.46962 0
M  V30 19472 C 1813.32 -0.991063 -4.95486 0
M  V30 19473 C 1815.51 -1.34409 -4.96426 0
M  V30 19474 N 1813.5 -2.13624 -5.75533 0
M  V30 19475 C 1814.87 -2.33659 -5.74285 0
M  V30 19476 C 1816.92 -1.37317 -4.7859 0
M  V30 19477 C 1815.62 -3.35607 -6.36208 0
M  V30 19478 C 1817.65 -2.38129 -5.4134 0
M  V30 19479 C 1817.01 -3.36107 -6.19041 0
M  V30 19480 H 1813.11 0.0691841 -0.778934 0
M  V30 19481 H 1815.7 -0.444656 -1.89554 0
M  V30 19482 H 1813.87 1.38489 -3.62871 0
M  V30 19483 H 1815.6 1.26378 -3.84462 0
M  V30 19484 H 1812.35 -0.564199 -4.70227 0
M  V30 19485 H 1812.78 -2.71356 -6.20238 0
M  V30 19486 H 1817.42 -0.629372 -4.18089 0
M  V30 19487 H 1815.14 -4.10899 -6.95836 0
M  V30 19488 H 1818.72 -2.41167 -5.29462 0
M  V30 19489 H 1817.6 -4.12838 -6.66734 0
M  V30 19490 N 1815.11 1.57549 -0.040136 0
M  V30 19491 C 1816.05 2.10879 0.938013 0
M  V30 19492 C 1817.02 1.01348 1.31597 0
M  V30 19493 O 1818.21 1.28832 1.40737 0
M  V30 19494 C 1815.35 2.64938 2.21138 0
M  V30 19495 C 1814.46 3.88516 1.88889 0
M  V30 19496 C 1813.6 4.3093 3.10601 0
M  V30 19497 C 1812.64 5.47237 2.74223 0
M  V30 19498 N 1811.77 5.84755 3.88594 0
M  V30 19499 H 1816.61 2.94169 0.476328 0
M  V30 19500 H 1814.15 1.45392 0.223503 0
M  V30 19501 H 1816.11 2.94375 2.95633 0
M  V30 19502 H 1814.74 1.84463 2.64903 0
M  V30 19503 H 1813.79 3.6574 1.04588 0
M  V30 19504 H 1815.1 4.7308 1.58103 0
M  V30 19505 H 1814.26 4.61861 3.93407 0
M  V30 19506 H 1812.99 3.45155 3.44557 0
M  V30 19507 H 1812 5.15988 1.89831 0
M  V30 19508 H 1813.22 6.34719 2.41472 0
M  V30 19509 H 1811.17 5.01935 4.22371 0
M  V30 19510 H 1811.09 6.63984 3.6147 0
M  V30 19511 H 1812.36 6.20297 4.72072 0
M  V30 19512 N 1816.58 -0.233136 1.55866 0
M  V30 19513 C 1817.86 -0.982866 1.69113 0
M  V30 19514 C 1818.24 -2.0286 0.584041 0
M  V30 19515 O 1817.59 -2.24781 -0.410606 0
M  V30 19516 C 1817.8 -1.60378 3.09967 0
M  V30 19517 C 1819.15 -2.10044 3.69008 0
M  V30 19518 O 1820.17 -1.70294 3.12855 0
M  V30 19519 O 1819.03 -2.8307 4.67476 0
M  V30 19520 H 1816.12 -0.458373 0.688348 0
M  V30 19521 H 1818.67 -0.225833 1.68191 0
M  V30 19522 H 1817.44 -0.848104 3.81999 0
M  V30 19523 H 1817.07 -2.42666 3.14959 0
M  V30 19524 N 1818.06 -1.49479 -0.499372 0
M  V30 19525 C 1819.01 -1.66756 -1.62158 0
M  V30 19526 C 1820.01 -0.533485 -1.6078 0
M  V30 19527 O 1821.21 -0.713167 -1.65269 0
M  V30 19528 H 1817.59 -0.525853 -0.537571 0
M  V30 19529 H 1819.56 -2.60947 -1.44738 0
M  V30 19530 C 1818.31 -1.75287 -3.00283 0
M  V30 19531 H 1817.63 -2.61928 -3.02049 0
M  V30 19532 H 1819.07 -1.91411 -3.78336 0
M  V30 19533 C 1817.53 -0.498056 -3.33198 0
M  V30 19534 O 1818.06 0.375528 -3.99941 0
M  V30 19535 N 1816.26 -0.360513 -2.88355 0
M  V30 19536 H 1815.81 -1.0724 -2.34216 0
M  V30 19537 H 1815.77 0.477981 -3.10745 0
M  V30 19538 N 1819.54 0.750537 -1.38581 0
M  V30 19539 C 1820.47 1.87785 -1.38777 0
M  V30 19540 C 1821.45 1.68204 -0.253244 0
M  V30 19541 O 1822.64 1.88752 -0.456779 0
M  V30 19542 C 1819.77 3.2535 -1.21511 0
M  V30 19543 C 1818.72 3.59538 -2.32199 0
M  V30 19544 C 1818.05 4.95873 -2.00036 0
M  V30 19545 C 1819.35 3.64102 -3.74469 0
M  V30 19546 H 1821.04 1.87879 -2.33113 0
M  V30 19547 H 1818.59 0.902504 -1.12209 0
M  V30 19548 H 1820.54 4.03872 -1.20272 0
M  V30 19549 H 1819.26 3.25744 -0.236366 0
M  V30 19550 H 1817.92 2.83336 -2.32629 0
M  V30 19551 H 1817.57 4.9283 -1.00638 0
M  V30 19552 H 1817.27 5.19716 -2.7417 0
M  V30 19553 H 1818.8 5.7677 -2.00421 0
M  V30 19554 H 1820.21 4.32731 -3.76054 0
M  V30 19555 H 1818.61 3.99455 -4.47834 0
M  V30 19556 H 1819.68 2.64259 -4.06565 0
M  V30 19557 N 1821.02 1.235 0.979051 0
M  V30 19558 C 1821.95 0.975198 2.07419 0
M  V30 19559 C 1822.96 -0.0512875 1.62719 0
M  V30 19560 O 1824.15 0.184403 1.77545 0
M  V30 19561 C 1821.25 0.447701 3.3593 0
M  V30 19562 C 1820.43 1.53467 4.09593 0
M  V30 19563 C 1819.49 1.01181 5.16381 0
M  V30 19564 O 1818.51 1.70108 5.43187 0
M  V30 19565 N 1819.71 -0.159667 5.8028 0
M  V30 19566 H 1822.48 1.91806 2.30283 0
M  V30 19567 H 1820.04 1.14377 1.14584 0
M  V30 19568 H 1822.03 0.0829228 4.04615 0
M  V30 19569 H 1820.6 -0.400613 3.10022 0
M  V30 19570 H 1819.82 2.07215 3.35344 0
M  V30 19571 H 1821.11 2.2656 4.55574 0
M  V30 19572 H 1820.51 -0.736193 5.60889 0
M  V30 19573 H 1819.06 -0.465696 6.50134 0
M  V30 19574 N 1822.5 -1.17802 1.04693 0
M  V30 19575 C 1823.45 -2.19584 0.613744 0
M  V30 19576 C 1824.43 -1.57111 -0.34713 0
M  V30 19577 O 1825.62 -1.76228 -0.16517 0
M  V30 19578 C 1822.75 -3.43297 -0.0152847 0
M  V30 19579 C 1821.84 -4.12879 0.969114 0
M  V30 19580 N 1822.23 -4.58364 2.13859 0
M  V30 19581 C 1820.53 -4.3883 0.796487 0
M  V30 19582 C 1821.23 -5.12003 2.76094 0
M  V30 19583 N 1820.2 -5.039 2.03926 0
M  V30 19584 H 1824.01 -2.5245 1.50486 0
M  V30 19585 H 1821.52 -1.34076 0.916373 0
M  V30 19586 H 1823.52 -4.15484 -0.343354 0
M  V30 19587 H 1822.18 -3.11924 -0.901858 0
M  V30 19588 H 1823.19 -4.52613 2.51718 0
M  V30 19589 H 1819.87 -4.17481 -0.0394627 0
M  V30 19590 H 1821.26 -5.57355 3.7524 0
M  V30 19591 N 1823.98 -0.827251 -1.34143 0
M  V30 19592 C 1824.92 -0.250166 -2.2944 0
M  V30 19593 C 1825.89 0.62749 -1.53791 0
M  V30 19594 O 1827.08 0.568218 -1.82143 0
M  V30 19595 C 1824.22 0.578392 -3.40219 0
M  V30 19596 C 1823.33 -0.321991 -4.30798 0
M  V30 19597 C 1822.47 0.51655 -5.28683 0
M  V30 19598 C 1821.5 -0.382949 -6.10901 0
M  V30 19599 N 1820.64 0.416774 -7.00862 0
M  V30 19600 H 1825.48 -1.06817 -2.78198 0
M  V30 19601 H 1823.02 -0.538245 -1.36899 0
M  V30 19602 H 1824.98 1.07414 -4.03135 0
M  V30 19603 H 1823.61 1.36147 -2.92684 0
M  V30 19604 H 1822.66 -0.935979 -3.68705 0
M  V30 19605 H 1823.97 -1.01346 -4.88396 0
M  V30 19606 H 1823.12 1.0766 -5.97071 0
M  V30 19607 H 1821.86 1.2415 -4.71633 0
M  V30 19608 H 1820.87 -0.955103 -5.41441 0
M  V30 19609 H 1822.09 -1.10609 -6.70032 0
M  V30 19610 H 1820.04 1.12532 -6.46276 0
M  V30 19611 H 1819.96 -0.216217 -7.55691 0
M  V30 19612 H 1821.22 0.959432 -7.73573 0
M  V30 19613 N 1825.45 1.46436 -0.582609 0
M  V30 19614 C 1826.73 1.956 -0.00129167 0
M  V30 19615 C 1827.11 1.52526 1.45942 0
M  V30 19616 O 1826.46 0.775911 2.14923 0
M  V30 19617 C 1826.67 3.4857 -0.173243 0
M  V30 19618 C 1828.02 4.2458 -0.0410173 0
M  V30 19619 O 1829.04 3.56054 -0.102074 0
M  V30 19620 O 1827.9 5.46418 0.0947564 0
M  V30 19621 H 1824.99 0.825495 0.0498706 0
M  V30 19622 H 1827.54 1.5672 -0.650921 0
M  V30 19623 H 1826.31 3.72808 -1.1887 0
M  V30 19624 H 1825.93 3.94279 0.512822 0
M  V30 19625 N 1826.93 0.320385 1.54309 0
M  V30 19626 C 1828.16 -0.28794 2.05391 0
M  V30 19627 C 1828.58 -1.45249 1.19517 0
M  V30 19628 O 1827.94 -1.80154 0.203556 0
M  V30 19629 C 1827.99 -0.703261 3.53676 0
M  V30 19630 O 1827.09 -1.80598 3.70753 0
M  V30 19631 H 1826.43 -0.052589 0.661914 0
M  V30 19632 H 1828.96 0.46787 1.99179 0
M  V30 19633 H 1828.97 -0.986793 3.95887 0
M  V30 19634 H 1827.65 0.148514 4.15635 0
M  V30 19635 H 1826.22 -1.5215 3.40448 0
M  V30 19636 N 1828.41 -1.57525 0.0484906 0
M  V30 19637 C 1829.63 -1.97309 -0.639062 0
M  V30 19638 C 1830.06 -0.925753 -1.63742 0
M  V30 19639 O 1829.42 0.111304 -1.80958 0
M  V30 19640 C 1829.47 -3.36168 -1.30475 0
M  V30 19641 O 1828.57 -3.33903 -2.42038 0
M  V30 19642 H 1827.91 -0.642824 -0.166351 0
M  V30 19643 H 1830.44 -2.0427 0.116095 0
M  V30 19644 H 1830.45 -3.72835 -1.65705 0
M  V30 19645 H 1829.13 -4.11933 -0.573057 0
M  V30 19646 H 1827.7 -3.08978 -2.08775 0
M  V30 19647 N 1829.89 0.224867 -1.55988 0
M  V30 19648 C 1831.13 0.951154 -1.79111 0
M  V30 19649 C 1831.47 1.84119 -0.617568 0
M  V30 19650 O 1830.74 1.90686 0.383312 0
M  V30 19651 C 1831.02 1.79292 -3.12292 0
M  V30 19652 C 1830.88 0.929603 -4.40089 0
M  V30 19653 C 1832.2 2.77132 -3.41886 0
M  V30 19654 H 1829.32 0.344359 -0.651603 0
M  V30 19655 H 1831.96 0.220228 -1.88719 0
M  V30 19656 H 1830.11 2.41609 -3.04232 0
M  V30 19657 H 1831.78 0.323432 -4.60165 0
M  V30 19658 H 1830.02 0.234877 -4.33164 0
M  V30 19659 H 1830.69 1.55289 -5.29707 0
M  V30 19660 H 1833.17 2.24951 -3.50052 0
M  V30 19661 H 1832.05 3.33135 -4.36248 0
M  V30 19662 H 1832.31 3.54705 -2.63887 0
M  V30 19663 N 1831.37 1.49742 0.491438 0
M  V30 19664 C 1832.78 1.52802 1.07278 0
M  V30 19665 C 1833.13 0.319712 1.93578 0
M  V30 19666 O 1832.25 -0.569524 2.08771 0
M  V30 19667 C 1832.85 2.76896 1.95228 0
M  V30 19668 C 1831.41 2.82703 2.48508 0
M  V30 19669 C 1830.55 2.4684 1.26355 0
M  V30 19670 H 1833.5 1.56301 0.274925 0
M  V30 19671 H 1833.53 2.57599 2.80041 0
M  V30 19672 H 1833.04 3.64821 1.32391 0
M  V30 19673 H 1831.14 1.99081 3.14956 0
M  V30 19674 H 1831.25 3.85108 2.85006 0
M  V30 19675 H 1829.62 1.98828 1.59184 0
M  V30 19676 H 1830.4 3.3705 0.652109 0
M  V30 19677 N 1832.84 -0.743177 1.38977 0
M  V30 19678 C 1833.79 -1.87846 1.37174 0
M  V30 19679 C 1834.79 -1.67454 0.256059 0
M  V30 19680 O 1835.99 -1.74895 0.425658 0
M  V30 19681 H 1832.37 -0.618206 0.428166 0
M  V30 19682 H 1834.34 -1.86483 2.32952 0
M  V30 19683 C 1833.09 -3.25443 1.22401 0
M  V30 19684 H 1832.41 -3.41727 2.07516 0
M  V30 19685 H 1833.85 -4.05095 1.25195 0
M  V30 19686 C 1832.31 -3.36831 -0.0682569 0
M  V30 19687 O 1832.84 -3.87964 -1.04147 0
M  V30 19688 N 1831.05 -2.90315 -0.128582 0
M  V30 19689 H 1830.59 -2.48893 0.664077 0
M  V30 19690 H 1830.55 -2.98315 -0.992762 0
M  V30 19691 N 1834.32 -1.24018 -0.972487 0
M  V30 19692 C 1835.55 -1.10392 -1.74989 0
M  V30 19693 C 1835.97 0.34396 -1.8564 0
M  V30 19694 O 1835.32 1.23757 -1.34128 0
M  V30 19695 C 1835.37 -1.73247 -3.17282 0
M  V30 19696 O 1835.09 -3.12374 -3.07171 0
M  V30 19697 C 1836.6 -1.65168 -4.11381 0
M  V30 19698 H 1833.82 -0.38593 -0.548907 0
M  V30 19699 H 1836.36 -1.64028 -1.22127 0
M  V30 19700 H 1834.51 -1.23625 -3.67145 0
M  V30 19701 H 1834.93 -3.42997 -3.96804 0
M  V30 19702 H 1836.4 -2.13837 -5.08898 0
M  V30 19703 H 1836.88 -0.61198 -4.34915 0
M  V30 19704 H 1837.49 -2.14194 -3.67425 0
M  V30 19705 N 1835.8 1.17245 -1.05316 0
M  V30 19706 C 1837.05 1.87165 -0.762471 0
M  V30 19707 C 1837.37 1.8151 0.712687 0
M  V30 19708 O 1836.64 1.2419 1.51504 0
M  V30 19709 H 1835.22 0.69292 -0.279054 0
M  V30 19710 H 1837.88 1.42227 -1.33257 0
M  V30 19711 H 1836.98 2.92872 -1.07854 0
M  V30 19712 N 1837.28 0.834353 1.33702 0
M  V30 19713 C 1838.51 0.441228 2.02141 0
M  V30 19714 C 1838.92 -0.956226 1.62794 0
M  V30 19715 O 1838.28 -1.6207 0.839027 0
M  V30 19716 C 1838.33 0.547035 3.57337 0
M  V30 19717 O 1838.05 1.88942 3.95262 0
M  V30 19718 C 1839.55 0.150282 4.43045 0
M  V30 19719 H 1836.77 0.175681 0.647593 0
M  V30 19720 H 1839.32 1.12568 1.7073 0
M  V30 19721 H 1837.47 -0.0894532 3.87297 0
M  V30 19722 H 1837.88 1.87174 4.89965 0
M  V30 19723 H 1839.36 0.275374 5.51313 0
M  V30 19724 H 1839.84 -0.907361 4.29725 0
M  V30 19725 H 1840.44 0.761025 4.18436 0
M  V30 19726 N 1838.76 -1.46125 0.590367 0
M  V30 19727 C 1839.72 -2.2884 -0.128368 0
M  V30 19728 C 1840.72 -1.38818 -0.81156 0
M  V30 19729 O 1841.91 -1.61117 -0.662347 0
M  V30 19730 C 1839.04 -3.19402 -1.19144 0
M  V30 19731 H 1840.23 -2.93864 0.598641 0
M  V30 19732 H 1837.79 -1.52362 0.34866 0
M  V30 19733 H 1838.52 -2.59141 -1.94978 0
M  V30 19734 H 1838.31 -3.85692 -0.705973 0
M  V30 19735 H 1839.8 -3.8164 -1.69532 0
M  V30 19736 N 1840.23 -0.328564 -1.54137 0
M  V30 19737 C 1841.65 0.0239073 -1.59582 0
M  V30 19738 C 1841.85 1.50043 -1.34497 0
M  V30 19739 O 1840.91 2.25711 -1.13185 0
M  V30 19740 C 1842.22 -0.398812 -2.98044 0
M  V30 19741 C 1843.77 -0.34989 -3.11038 0
M  V30 19742 C 1844.24 -0.747848 -4.51853 0
M  V30 19743 N 1845.73 -0.701447 -4.57858 0
M  V30 19744 C 1846.47 -0.981505 -5.64937 0
M  V30 19745 N 1845.96 -1.32895 -6.79934 0
M  V30 19746 N 1847.76 -0.906735 -5.54738 0
M  V30 19747 H 1839.91 -1.29052 -1.68699 0
M  V30 19748 H 1842.17 -0.52508 -0.7893 0
M  V30 19749 H 1841.88 -1.42773 -3.21417 0
M  V30 19750 H 1841.75 0.233639 -3.76476 0
M  V30 19751 H 1844.14 0.669831 -2.87397 0
M  V30 19752 H 1844.22 -1.01734 -2.34699 0
M  V30 19753 H 1843.86 -1.76551 -4.76227 0
M  V30 19754 H 1843.79 -0.0580299 -5.26568 0
M  V30 19755 H 1846.28 -0.444963 -3.75271 0
M  V30 19756 H 1846.6 -1.52789 -7.57546 0
M  V30 19757 H 1844.94 -1.36726 -6.81418 0
M  V30 19758 H 1848.13 -0.634748 -4.63776 0
M  V30 19759 H 1848.31 -1.12835 -6.38101 0
M  V30 19760 N 1841.71 1.57497 -0.0568439 0
M  V30 19761 C 1842.65 2.07433 0.951141 0
M  V30 19762 C 1843.62 0.976083 1.30044 0
M  V30 19763 O 1844.81 1.24842 1.41233 0
M  V30 19764 C 1841.93 2.51956 2.26354 0
M  V30 19765 C 1840.98 3.73071 2.06689 0
M  V30 19766 S 1841.81 5.18463 1.34001 0
M  V30 19767 C 1842.97 5.66304 2.66552 0
M  V30 19768 H 1843.2 2.92607 0.526181 0
M  V30 19769 H 1840.74 1.53614 0.155562 0
M  V30 19770 H 1842.69 2.78269 3.01789 0
M  V30 19771 H 1841.35 1.67078 2.65977 0
M  V30 19772 H 1840.55 4.02163 3.03778 0
M  V30 19773 H 1840.15 3.47053 1.39392 0
M  V30 19774 H 1842.44 5.72236 3.62701 0
M  V30 19775 H 1843.38 6.65431 2.4209 0
M  V30 19776 H 1843.79 4.94057 2.73072 0
M  V30 19777 N 1843.19 -0.216591 1.56105 0
M  V30 19778 C 1844.44 -0.941642 1.79613 0
M  V30 19779 C 1844.77 -1.83789 0.627323 0
M  V30 19780 O 1844.04 -1.90886 -0.373195 0
M  V30 19781 C 1844.33 -1.77634 3.13238 0
M  V30 19782 C 1844.18 -0.906251 4.40576 0
M  V30 19783 C 1845.5 -2.75315 3.4335 0
M  V30 19784 H 1842.62 -0.340898 0.65342 0
M  V30 19785 H 1845.26 -0.210217 1.88833 0
M  V30 19786 H 1843.41 -2.39993 3.05509 0
M  V30 19787 H 1845.08 -0.299023 4.6033 0
M  V30 19788 H 1843.33 -0.211902 4.33282 0
M  V30 19789 H 1844 -1.52478 5.30523 0
M  V30 19790 H 1846.47 -2.23091 3.5124 0
M  V30 19791 H 1845.35 -3.30816 4.38009 0
M  V30 19792 H 1845.61 -3.53301 2.65765 0
M  V30 19793 N 1844.67 -1.5 -0.48349 0
M  V30 19794 C 1845.58 -1.70722 -1.60907 0
M  V30 19795 C 1846.59 -0.590075 -1.63689 0
M  V30 19796 O 1847.77 -0.866915 -1.81787 0
M  V30 19797 C 1844.84 -1.78544 -2.97192 0
M  V30 19798 C 1843.9 -3.02218 -3.04898 0
M  V30 19799 C 1843.13 -3.09658 -4.34681 0
M  V30 19800 O 1843.35 -2.24216 -5.24484 0
M  V30 19801 O 1842.29 -4.02278 -4.47723 0
M  V30 19802 H 1846.11 -2.66111 -1.4635 0
M  V30 19803 H 1843.7 -1.33949 -0.661666 0
M  V30 19804 H 1845.58 -1.85941 -3.78159 0
M  V30 19805 H 1844.25 -0.863364 -3.11974 0
M  V30 19806 H 1843.16 -3.00329 -2.23054 0
M  V30 19807 H 1844.49 -3.93964 -2.95048 0
M  V30 19808 N 1846.15 0.735796 -1.39369 0
M  V30 19809 C 1847.37 1.52504 -1.39822 0
M  V30 19810 C 1847.79 1.88799 0.00747346 0
M  V30 19811 O 1847.15 1.54044 0.978611 0
M  V30 19812 C 1847.2 2.8131 -2.27039 0
M  V30 19813 O 1846.92 2.46557 -3.62134 0
M  V30 19814 C 1848.42 3.75343 -2.35866 0
M  V30 19815 H 1845.64 0.471306 -0.47761 0
M  V30 19816 H 1848.18 0.909257 -1.83174 0
M  V30 19817 H 1846.34 3.39222 -1.87102 0
M  V30 19818 H 1846.75 3.29294 -4.08247 0
M  V30 19819 H 1848.23 4.6262 -3.01142 0
M  V30 19820 H 1848.7 4.17036 -1.37758 0
M  V30 19821 H 1849.31 3.2335 -2.7627 0
M  V30 19822 N 1847.63 1.24532 0.965897 0
M  V30 19823 C 1848.85 1.11318 1.74401 0
M  V30 19824 C 1849.27 -0.33411 1.8582 0
M  V30 19825 O 1848.63 -1.23044 1.34783 0
M  V30 19826 C 1848.68 1.74927 3.16358 0
M  V30 19827 O 1848.4 3.13998 3.05511 0
M  V30 19828 C 1849.9 1.67347 4.105 0
M  V30 19829 H 1847.12 0.388835 0.546853 0
M  V30 19830 H 1849.66 1.64674 1.21255 0
M  V30 19831 H 1847.82 1.2557 3.66485 0
M  V30 19832 H 1848.23 3.45097 3.94979 0
M  V30 19833 H 1849.71 2.16533 5.07757 0
M  V30 19834 H 1850.18 0.635036 4.34585 0
M  V30 19835 H 1850.79 2.16139 3.66284 0
M  V30 19836 N 1849.1 -1.16685 1.05936 0
M  V30 19837 C 1850.07 -2.19155 0.671098 0
M  V30 19838 C 1851.07 -1.5832 -0.281305 0
M  V30 19839 O 1852.26 -1.74082 -0.0641708 0
M  V30 19840 C 1849.39 -3.40897 -0.0131101 0
M  V30 19841 H 1850.58 -2.55019 1.57815 0
M  V30 19842 H 1848.13 -1.30897 0.854147 0
M  V30 19843 H 1848.87 -3.10587 -0.933077 0
M  V30 19844 H 1848.65 -3.86304 0.671687 0
M  V30 19845 H 1850.14 -4.16722 -0.270606 0
M  V30 19846 N 1850.58 -0.841432 -1.33258 0
M  V30 19847 C 1851.81 -0.451287 -2.01611 0
M  V30 19848 C 1852.22 0.952858 -1.63454 0
M  V30 19849 O 1851.56 1.6311 -0.845039 0
M  V30 19850 C 1851.62 -0.495287 -3.56072 0
M  V30 19851 C 1851.29 -1.856 -4.17614 0
M  V30 19852 C 1852.29 -2.81959 -4.36801 0
M  V30 19853 C 1849.97 -2.14953 -4.53983 0
M  V30 19854 C 1851.96 -4.05832 -4.91507 0
M  V30 19855 C 1849.65 -3.39083 -5.08395 0
M  V30 19856 C 1850.65 -4.34339 -5.27104 0
M  V30 19857 O 1850.34 -5.56273 -5.80359 0
M  V30 19858 H 1850.07 -0.177188 -0.652365 0
M  V30 19859 H 1852.62 -1.13629 -1.71107 0
M  V30 19860 H 1850.85 0.246506 -3.85914 0
M  V30 19861 H 1852.54 -0.122606 -4.05715 0
M  V30 19862 H 1853.31 -2.60582 -4.0905 0
M  V30 19863 H 1849.19 -1.41602 -4.38714 0
M  V30 19864 H 1852.73 -4.80192 -5.06025 0
M  V30 19865 H 1848.63 -3.60316 -5.35577 0
M  V30 19866 H 1849.4 -5.58047 -5.9877 0
M  V30 19867 N 1852.06 1.4581 -0.598108 0
M  V30 19868 C 1853.02 2.28905 0.11623 0
M  V30 19869 C 1854.02 1.39246 0.804187 0
M  V30 19870 O 1855.21 1.61466 0.653793 0
M  V30 19871 C 1852.34 3.20029 1.17449 0
M  V30 19872 H 1853.54 2.93543 -0.614217 0
M  V30 19873 H 1851.09 1.52175 -0.356735 0
M  V30 19874 H 1851.83 2.60171 1.93601 0
M  V30 19875 H 1851.61 3.86061 0.685508 0
M  V30 19876 H 1853.1 3.82533 1.67505 0
M  V30 19877 N 1853.54 0.336733 1.53961 0
M  V30 19878 C 1854.47 -0.515664 2.27735 0
M  V30 19879 C 1855.45 -1.10835 1.29033 0
M  V30 19880 O 1856.63 -1.13102 1.57866 0
M  V30 19881 C 1853.76 -1.67015 3.04505 0
M  V30 19882 C 1852.72 -1.20613 4.10654 0
M  V30 19883 C 1852.04 -2.44861 4.75339 0
M  V30 19884 C 1853.34 -0.311507 5.2137 0
M  V30 19885 H 1855.04 0.0997513 2.99234 0
M  V30 19886 H 1852.58 0.0494157 1.43915 0
M  V30 19887 H 1854.54 -2.27286 3.54851 0
M  V30 19888 H 1853.26 -2.31236 2.30646 0
M  V30 19889 H 1851.92 -0.62628 3.61211 0
M  V30 19890 H 1851.57 -3.07474 3.98081 0
M  V30 19891 H 1851.27 -2.14498 5.47051 0
M  V30 19892 H 1852.79 -3.0587 5.28466 0
M  V30 19893 H 1854.21 -0.820868 5.67393 0
M  V30 19894 H 1852.6 -0.100073 6.00017 0
M  V30 19895 H 1853.67 0.654181 4.80467 0
M  V30 19896 N 1855.02 -1.57465 0.0651956 0
M  V30 19897 C 1855.95 -2.15374 -0.902018 0
M  V30 19898 C 1856.93 -1.07904 -1.31494 0
M  V30 19899 O 1858.11 -1.35909 -1.38717 0
M  V30 19900 C 1855.24 -2.71005 -2.17195 0
M  V30 19901 C 1854.2 -3.83583 -1.89864 0
M  V30 19902 C 1853.52 -4.25789 -3.23432 0
M  V30 19903 C 1854.82 -5.08112 -1.20913 0
M  V30 19904 H 1856.52 -2.96445 -0.419631 0
M  V30 19905 H 1854.06 -1.42599 -0.200401 0
M  V30 19906 H 1856.01 -3.1016 -2.8527 0
M  V30 19907 H 1854.74 -1.87146 -2.67664 0
M  V30 19908 H 1853.4 -3.44921 -1.24197 0
M  V30 19909 H 1853.05 -3.38861 -3.71729 0
M  V30 19910 H 1852.75 -5.01673 -3.05938 0
M  V30 19911 H 1854.27 -4.67555 -3.92715 0
M  V30 19912 H 1855.68 -5.44624 -1.79046 0
M  V30 19913 H 1854.08 -5.8923 -1.137 0
M  V30 19914 H 1855.15 -4.84538 -0.187224 0
M  V30 19915 N 1856.49 0.20831 -1.56217 0
M  V30 19916 C 1857.72 0.947271 -1.83941 0
M  V30 19917 C 1858.14 1.77403 -0.646029 0
M  V30 19918 O 1857.49 1.78385 0.385378 0
M  V30 19919 C 1857.54 1.85415 -3.10328 0
M  V30 19920 O 1857.27 1.06079 -4.25063 0
M  V30 19921 C 1858.77 2.7059 -3.51135 0
M  V30 19922 H 1855.99 0.277012 -0.611151 0
M  V30 19923 H 1858.53 0.219545 -2.03318 0
M  V30 19924 H 1856.69 2.53566 -2.92888 0
M  V30 19925 H 1857.1 1.67758 -4.96948 0
M  V30 19926 H 1858.57 3.29902 -4.42571 0
M  V30 19927 H 1859.05 3.43645 -2.73505 0
M  V30 19928 H 1859.66 2.07831 -3.71061 0
M  V30 19929 N 1857.97 1.50255 0.475528 0
M  V30 19930 C 1859.2 1.65044 1.25599 0
M  V30 19931 C 1859.62 0.331736 1.85152 0
M  V30 19932 O 1858.98 -0.703863 1.67079 0
M  V30 19933 C 1859.03 2.7405 2.34369 0
M  V30 19934 O 1858.13 2.34994 3.38897 0
M  V30 19935 H 1857.47 0.551557 0.369704 0
M  V30 19936 H 1860 1.96603 0.566422 0
M  V30 19937 H 1860.01 2.96993 2.79749 0
M  V30 19938 H 1858.69 3.6976 1.90395 0
M  V30 19939 H 1857.26 2.22481 2.9926 0
M  V30 19940 N 1859.45 -0.728395 1.39758 0
M  V30 19941 C 1860.38 -1.85554 1.41747 0
M  V30 19942 C 1861.36 -1.6778 0.279972 0
M  V30 19943 O 1862.55 -1.88001 0.48675 0
M  V30 19944 C 1859.68 -3.23375 1.26671 0
M  V30 19945 C 1858.63 -3.55799 2.37889 0
M  V30 19946 C 1857.96 -4.92628 2.07899 0
M  V30 19947 C 1859.26 -3.58098 3.80215 0
M  V30 19948 H 1860.95 -1.84146 2.36073 0
M  V30 19949 H 1858.5 -0.884539 1.13631 0
M  V30 19950 H 1860.45 -4.01907 1.26682 0
M  V30 19951 H 1859.17 -3.25326 0.288159 0
M  V30 19952 H 1857.83 -2.796 2.37107 0
M  V30 19953 H 1857.48 -4.91166 1.08466 0
M  V30 19954 H 1857.18 -5.15288 2.82404 0
M  V30 19955 H 1858.7 -5.73509 2.09571 0
M  V30 19956 H 1860.12 -4.26694 3.82891 0
M  V30 19957 H 1858.51 -3.9228 4.54133 0
M  V30 19958 H 1859.58 -2.57758 4.10718 0
M  V30 19959 N 1860.93 -1.25042 -0.959279 0
M  V30 19960 C 1861.88 -1.04802 -2.07652 0
M  V30 19961 C 1862.87 0.019648 -1.69389 0
M  V30 19962 O 1864.08 -0.135594 -1.79489 0
M  V30 19963 H 1860.45 -0.321939 -0.679602 0
M  V30 19964 H 1862.42 -1.99527 -2.21882 0
M  V30 19965 C 1861.17 -0.678505 -3.41016 0
M  V30 19966 H 1860.49 -1.49185 -3.70923 0
M  V30 19967 H 1861.93 -0.576549 -4.20062 0
M  V30 19968 C 1860.39 0.615075 -3.31238 0
M  V30 19969 O 1860.92 1.65848 -3.65865 0
M  V30 19970 N 1859.13 0.598958 -2.8436 0
M  V30 19971 H 1858.68 -0.250509 -2.56379 0
M  V30 19972 H 1858.63 1.46464 -2.78201 0
M  V30 19973 N 1862.41 1.16121 -1.06553 0
M  V30 19974 C 1863.34 2.22761 -0.699976 0
M  V30 19975 C 1864.32 1.67274 0.308783 0
M  V30 19976 O 1865.5 1.93333 0.183328 0
M  V30 19977 C 1862.63 3.47187 -0.0884044 0
M  V30 19978 C 1861.59 4.15584 -1.02343 0
M  V30 19979 C 1860.91 5.33992 -0.275022 0
M  V30 19980 C 1862.21 4.66266 -2.35358 0
M  V30 19981 H 1863.91 2.53595 -1.59153 0
M  V30 19982 H 1861.45 1.21893 -0.766686 0
M  V30 19983 H 1863.41 4.21019 0.17922 0
M  V30 19984 H 1862.13 3.15661 0.838181 0
M  V30 19985 H 1860.79 3.43683 -1.27584 0
M  V30 19986 H 1860.44 4.9872 0.654765 0
M  V30 19987 H 1860.14 5.80695 -0.898181 0
M  V30 19988 H 1861.66 6.10598 -0.0150056 0
M  V30 19989 H 1863.07 5.31665 -2.14488 0
M  V30 19990 H 1861.47 5.236 -2.93195 0
M  V30 19991 H 1862.54 3.82335 -2.98241 0
M  V30 19992 N 1863.88 0.848487 1.3281 0
M  V30 19993 C 1864.83 0.286636 2.29013 0
M  V30 19994 C 1865.8 -0.602944 1.5477 0
M  V30 19995 O 1866.99 -0.539169 1.83024 0
M  V30 19996 C 1864.13 -0.524193 3.41096 0
M  V30 19997 C 1863.24 0.390486 4.30232 0
M  V30 19998 C 1862.37 -0.432376 5.29437 0
M  V30 19999 C 1861.41 0.48009 6.10214 0
M  V30 20000 N 1860.55 -0.30522 7.01436 0
M  V30 20001 H 1865.39 1.1123 2.76463 0
M  V30 20002 H 1862.93 0.559956 1.36025 0
M  V30 20003 H 1864.89 -1.00987 4.04793 0
M  V30 20004 H 1863.52 -1.31474 2.94813 0
M  V30 20005 H 1862.57 0.994518 3.6717 0
M  V30 20006 H 1863.88 1.09103 4.86722 0
M  V30 20007 H 1863.03 -0.981471 5.98709 0
M  V30 20008 H 1861.77 -1.16631 4.73549 0
M  V30 20009 H 1860.78 1.04112 5.39853 0
M  V30 20010 H 1862 1.21254 6.68187 0
M  V30 20011 H 1859.95 -1.02236 6.47984 0
M  V30 20012 H 1859.87 0.336414 7.55251 0
M  V30 20013 H 1861.13 -0.836242 7.75001 0
M  V30 20014 N 1865.36 -1.4549 0.605832 0
M  V30 20015 C 1866.64 -1.95573 0.0324098 0
M  V30 20016 C 1867.02 -1.54829 -1.43496 0
M  V30 20017 O 1866.37 -0.810005 -2.13661 0
M  V30 20018 C 1866.58 -3.4825 0.228676 0
M  V30 20019 C 1867.93 -4.24461 0.108559 0
M  V30 20020 O 1868.95 -3.55846 0.158706 0
M  V30 20021 O 1867.81 -5.46499 -0.00781404 0
M  V30 20022 H 1864.9 -0.826184 -0.0367314 0
M  V30 20023 H 1867.45 -1.55664 0.675771 0
M  V30 20024 H 1866.22 -3.70869 1.24786 0
M  V30 20025 H 1865.84 -3.95045 -0.450031 0
M  V30 20026 N 1866.84 -0.344893 -1.5378 0
M  V30 20027 C 1868.09 0.252216 -2.00117 0
M  V30 20028 C 1868.4 1.51548 -1.23663 0
M  V30 20029 O 1869.61 2.18991 -1.60484 0
M  V30 20030 C 1868.06 0.499983 -3.5641 0
M  V30 20031 C 1867.67 -0.747455 -4.41721 0
M  V30 20032 C 1869.42 1.05588 -4.11159 0
M  V30 20033 C 1867.32 -0.470414 -5.89526 0
M  V30 20034 H 1866.25 0.0980234 -0.747601 0
M  V30 20035 H 1868.9 -0.460431 -1.7763 0
M  V30 20036 H 1867.29 1.27337 -3.74969 0
M  V30 20037 H 1868.46 -1.52204 -4.34937 0
M  V30 20038 H 1866.78 -1.22508 -3.97971 0
M  V30 20039 H 1869.37 1.27813 -5.19199 0
M  V30 20040 H 1869.72 2.01181 -3.64461 0
M  V30 20041 H 1870.25 0.343167 -3.96317 0
M  V30 20042 H 1866.99 -1.3961 -6.4046 0
M  V30 20043 H 1866.51 0.266065 -5.9921 0
M  V30 20044 H 1868.19 -0.0881607 -6.4694 0
M  V30 20045 N 1868.32 1.57428 -0.0735454 0
M  V30 20046 C 1869.27 2.14028 0.910749 0
M  V30 20047 C 1870.26 1.07761 1.30705 0
M  V30 20048 O 1871.47 1.26139 1.28409 0
M  V30 20049 H 1867.84 0.684381 0.311652 0
M  V30 20050 H 1869.81 2.95591 0.408468 0
M  V30 20051 C 1868.56 2.71817 2.1682 0
M  V30 20052 H 1867.88 3.5326 1.87209 0
M  V30 20053 H 1869.32 3.15014 2.83799 0
M  V30 20054 C 1867.78 1.66661 2.92789 0
M  V30 20055 O 1868.31 1.09266 3.86554 0
M  V30 20056 N 1866.52 1.37655 2.55929 0
M  V30 20057 H 1866.07 1.84518 1.79752 0
M  V30 20058 H 1866.02 0.675307 3.07062 0
M  V30 20059 N 1869.8 -0.200022 1.56326 0
M  V30 20060 C 1871.03 -0.936144 1.84174 0
M  V30 20061 C 1871.43 -1.77564 0.653267 0
M  V30 20062 O 1870.78 -1.79569 -0.387368 0
M  V30 20063 C 1870.84 -1.88598 3.06057 0
M  V30 20064 C 1870.5 -1.22892 4.40167 0
M  V30 20065 C 1871.5 -0.608243 5.1633 0
M  V30 20066 C 1869.19 -1.23424 4.869 0
M  V30 20067 C 1871.18 -0.00166268 6.374 0
M  V30 20068 C 1868.87 -0.623827 6.07908 0
M  V30 20069 C 1869.86 -0.00861163 6.82999 0
M  V30 20070 O 1869.55 0.592252 8.01715 0
M  V30 20071 H 1869.28 -0.278889 0.615789 0
M  V30 20072 H 1871.84 -0.213764 2.04285 0
M  V30 20073 H 1870.07 -2.64793 2.81818 0
M  V30 20074 H 1871.76 -2.48948 3.20593 0
M  V30 20075 H 1872.52 -0.596302 4.8132 0
M  V30 20076 H 1868.4 -1.7025 4.28411 0
M  V30 20077 H 1871.95 0.479147 6.95953 0
M  V30 20078 H 1867.84 -0.633254 6.42386 0
M  V30 20079 H 1868.61 0.488674 8.1704 0
M  V30 20080 N 1871.27 -1.50505 -0.467553 0
M  V30 20081 C 1872.52 -1.6191 -1.22118 0
M  V30 20082 C 1872.85 -0.320112 -1.91544 0
M  V30 20083 O 1872.13 0.678631 -1.82277 0
M  V30 20084 C 1872.41 -2.80184 -2.26206 0
M  V30 20085 C 1872.26 -4.19975 -1.61062 0
M  V30 20086 C 1873.58 -2.94011 -3.27484 0
M  V30 20087 H 1870.7 -0.589289 -0.442615 0
M  V30 20088 H 1873.34 -1.82902 -0.514484 0
M  V30 20089 H 1871.49 -2.62417 -2.86478 0
M  V30 20090 H 1873.17 -4.4934 -1.04359 0
M  V30 20091 H 1871.41 -4.24069 -0.91365 0
M  V30 20092 H 1872.08 -4.98667 -2.36718 0
M  V30 20093 H 1874.56 -3.10288 -2.77238 0
M  V30 20094 H 1873.43 -3.78384 -3.97639 0
M  V30 20095 H 1873.69 -2.04777 -3.91815 0
M  V30 20096 N 1872.75 0.720973 -1.40142 0
M  V30 20097 C 1873.7 1.8564 -1.40145 0
M  V30 20098 C 1874.69 1.67025 -0.282667 0
M  V30 20099 O 1875.9 1.74195 -0.453429 0
M  V30 20100 H 1872.28 0.611316 -0.437947 0
M  V30 20101 H 1874.25 1.82753 -2.35889 0
M  V30 20102 C 1873 3.23455 -1.27563 0
M  V30 20103 H 1872.32 3.38382 -2.12926 0
M  V30 20104 H 1873.76 4.03052 -1.31623 0
M  V30 20105 C 1872.22 3.36897 0.0146614 0
M  V30 20106 O 1872.75 3.89572 0.979616 0
M  V30 20107 N 1870.95 2.90483 0.0823795 0
M  V30 20108 H 1870.5 2.47805 -0.70359 0
M  V30 20109 H 1870.46 2.99856 0.945177 0
M  V30 20110 N 1874.23 1.25549 0.952634 0
M  V30 20111 C 1875.64 1.09496 1.5122 0
M  V30 20112 C 1875.99 -0.328639 1.93428 0
M  V30 20113 O 1875.12 -1.21884 1.78811 0
M  V30 20114 C 1875.71 1.9815 2.74813 0
M  V30 20115 C 1874.27 1.86275 3.27076 0
M  V30 20116 C 1873.42 1.92181 1.99904 0
M  V30 20117 H 1876.37 1.38806 0.769318 0
M  V30 20118 H 1876.39 1.52265 3.48705 0
M  V30 20119 H 1875.9 3.01754 2.44062 0
M  V30 20120 H 1874 0.855627 3.62643 0
M  V30 20121 H 1874.12 2.71194 3.94957 0
M  V30 20122 H 1872.48 1.36092 2.15293 0
M  V30 20123 H 1873.26 2.97393 1.71499 0
M  V30 20124 N 1875.71 -1.15554 1.07168 0
M  V30 20125 C 1876.95 -1.86572 0.794894 0
M  V30 20126 C 1877.29 -1.82007 -0.677276 0
M  V30 20127 O 1876.56 -1.2419 -1.4969 0
M  V30 20128 C 1876.85 -3.35762 1.30137 0
M  V30 20129 C 1876.7 -3.4897 2.83796 0
M  V30 20130 C 1878.02 -4.30453 0.916402 0
M  V30 20131 H 1875.14 -0.677448 0.29023 0
M  V30 20132 H 1877.78 -1.35772 1.32914 0
M  V30 20133 H 1875.93 -3.79156 0.846915 0
M  V30 20134 H 1877.6 -3.14452 3.37517 0
M  V30 20135 H 1875.84 -2.9059 3.22087 0
M  V30 20136 H 1876.51 -4.53782 3.14302 0
M  V30 20137 H 1878.99 -3.95008 1.30797 0
M  V30 20138 H 1877.87 -5.33329 1.29814 0
M  V30 20139 H 1878.13 -4.41742 -0.17785 0
M  V30 20140 N 1877.19 -0.855519 -1.32358 0
M  V30 20141 C 1878.44 -0.455543 -1.96488 0
M  V30 20142 C 1878.75 0.99419 -1.68449 0
M  V30 20143 O 1879.96 1.49964 -2.26325 0
M  V30 20144 C 1878.41 -0.763678 -3.51704 0
M  V30 20145 C 1878.02 -2.2292 -3.88601 0
M  V30 20146 C 1879.76 -0.431467 -4.22302 0
M  V30 20147 C 1877.67 -2.48051 -5.36866 0
M  V30 20148 H 1876.6 -0.166617 -0.73536 0
M  V30 20149 H 1879.25 -1.04642 -1.50739 0
M  V30 20150 H 1877.63 -0.102224 -3.95868 0
M  V30 20151 H 1878.81 -2.93251 -3.55444 0
M  V30 20152 H 1877.12 -2.52602 -3.31031 0
M  V30 20153 H 1879.72 -0.596641 -5.31361 0
M  V30 20154 H 1880.06 0.62698 -4.11552 0
M  V30 20155 H 1880.6 -1.04885 -3.83724 0
M  V30 20156 H 1877.33 -3.52523 -5.52637 0
M  V30 20157 H 1876.85 -1.82298 -5.71426 0
M  V30 20158 H 1878.53 -2.32044 -6.03957 0
M  V30 20159 N 1878.67 1.45167 -0.61354 0
M  V30 20160 C 1879.61 2.30575 0.101811 0
M  V30 20161 C 1880.58 1.42455 0.85416 0
M  V30 20162 O 1881.77 1.71378 0.838711 0
M  V30 20163 C 1878.91 3.27459 1.08926 0
M  V30 20164 C 1878.02 4.30682 0.337164 0
M  V30 20165 C 1877.16 5.1467 1.31486 0
M  V30 20166 C 1876.19 6.09616 0.550918 0
M  V30 20167 N 1875.33 6.86363 1.4782 0
M  V30 20168 H 1880.17 2.9121 -0.632495 0
M  V30 20169 H 1877.71 1.43494 -0.323705 0
M  V30 20170 H 1879.67 3.82101 1.67495 0
M  V30 20171 H 1878.3 2.68564 1.79091 0
M  V30 20172 H 1877.35 3.78653 -0.364144 0
M  V30 20173 H 1878.66 4.98129 -0.258629 0
M  V30 20174 H 1877.81 5.73742 1.97243 0
M  V30 20175 H 1876.55 4.47255 1.94458 0
M  V30 20176 H 1875.56 5.49668 -0.120251 0
M  V30 20177 H 1876.78 6.7906 -0.07384 0
M  V30 20178 H 1874.73 6.21632 2.09545 0
M  V30 20179 H 1874.65 7.50183 0.935989 0
M  V30 20180 H 1875.91 7.49972 2.12516 0
M  V30 20181 N 1880.14 0.353044 1.53595 0
M  V30 20182 C 1881.39 -0.233537 2.02055 0
M  V30 20183 C 1881.74 -1.47437 1.23613 0
M  V30 20184 O 1881.04 -1.88943 0.317969 0
M  V30 20185 C 1881.23 -0.590811 3.52483 0
M  V30 20186 C 1881.06 0.613851 4.45491 0
M  V30 20187 C 1879.83 1.12208 4.92684 0
M  V30 20188 C 1882.03 1.47523 4.92688 0
M  V30 20189 N 1880.01 2.28808 5.69667 0
M  V30 20190 C 1881.38 2.48803 5.67888 0
M  V30 20191 C 1883.44 1.49957 4.74781 0
M  V30 20192 C 1882.14 3.52357 6.27086 0
M  V30 20193 C 1884.17 2.52398 5.34836 0
M  V30 20194 C 1883.53 3.52402 6.09912 0
M  V30 20195 H 1879.63 -0.0485078 0.780494 0
M  V30 20196 H 1882.21 0.494757 1.88309 0
M  V30 20197 H 1880.38 -1.2882 3.66415 0
M  V30 20198 H 1882.11 -1.1614 3.87677 0
M  V30 20199 H 1878.87 0.688673 4.68566 0
M  V30 20200 H 1879.29 2.87705 6.12825 0
M  V30 20201 H 1883.93 0.74 4.16274 0
M  V30 20202 H 1881.65 4.29203 6.84697 0
M  V30 20203 H 1885.24 2.5512 5.22882 0
M  V30 20204 H 1884.12 4.3037 6.55554 0
M  V30 20205 N 1881.62 -1.57387 0.0818932 0
M  V30 20206 C 1882.55 -2.16318 -0.879124 0
M  V30 20207 C 1883.53 -1.09293 -1.30342 0
M  V30 20208 O 1884.72 -1.37373 -1.37267 0
M  V30 20209 C 1881.85 -2.73293 -2.14308 0
M  V30 20210 C 1880.8 -3.85575 -1.85785 0
M  V30 20211 C 1880.13 -4.29195 -3.18897 0
M  V30 20212 C 1881.43 -5.09365 -1.15517 0
M  V30 20213 H 1883.12 -2.96873 -0.388166 0
M  V30 20214 H 1880.67 -1.42803 -0.185265 0
M  V30 20215 H 1882.62 -3.13168 -2.81964 0
M  V30 20216 H 1881.34 -1.89974 -2.65664 0
M  V30 20217 H 1880 -3.46219 -1.20532 0
M  V30 20218 H 1879.65 -3.42784 -3.68114 0
M  V30 20219 H 1879.35 -5.04889 -3.006 0
M  V30 20220 H 1880.88 -4.71694 -3.87734 0
M  V30 20221 H 1882.29 -5.46493 -1.73259 0
M  V30 20222 H 1880.69 -5.90403 -1.07444 0
M  V30 20223 H 1881.76 -4.8471 -0.135822 0
M  V30 20224 N 1883.1 0.191729 -1.56429 0
M  V30 20225 C 1884.32 0.931804 -1.85289 0
M  V30 20226 C 1884.75 1.7592 -0.665864 0
M  V30 20227 O 1884.11 1.77158 0.385313 0
M  V30 20228 C 1884.16 1.801 -3.12404 0
M  V30 20229 O 1883.26 2.9002 -2.93193 0
M  V30 20230 H 1882.6 0.262213 -0.610033 0
M  V30 20231 H 1885.13 0.196028 -2.03659 0
M  V30 20232 H 1885.14 2.20499 -3.43285 0
M  V30 20233 H 1883.82 1.19309 -3.9842 0
M  V30 20234 H 1882.39 2.53352 -2.73619 0
M  V30 20235 N 1884.58 1.50751 0.459565 0
M  V30 20236 C 1885.49 1.7326 1.58171 0
M  V30 20237 C 1886.5 0.616042 1.6273 0
M  V30 20238 O 1887.68 0.895726 1.80385 0
M  V30 20239 C 1884.74 1.83249 2.94314 0
M  V30 20240 C 1883.81 3.07031 3.00051 0
M  V30 20241 C 1883.04 3.16534 4.297 0
M  V30 20242 O 1883.26 2.32532 5.2085 0
M  V30 20243 O 1882.2 4.0935 4.41266 0
M  V30 20244 H 1886.02 2.68406 1.42098 0
M  V30 20245 H 1883.61 1.34985 0.640273 0
M  V30 20246 H 1885.49 1.91933 3.75153 0
M  V30 20247 H 1884.16 0.912887 3.10561 0
M  V30 20248 H 1883.07 3.0384 2.18248 0
M  V30 20249 H 1884.4 3.98608 2.88743 0
M  V30 20250 N 1886.06 -0.713531 1.40522 0
M  V30 20251 C 1886.97 -1.8577 1.43272 0
M  V30 20252 C 1887.98 -1.70936 0.325113 0
M  V30 20253 O 1889.16 -1.93165 0.570022 0
M  V30 20254 C 1886.22 -3.21587 1.29548 0
M  V30 20255 C 1885.28 -3.4866 2.50469 0
M  V30 20256 C 1884.52 -4.77998 2.3739 0
M  V30 20257 O 1884.74 -5.53234 1.38881 0
M  V30 20258 O 1883.67 -5.05453 3.26804 0
M  V30 20259 H 1887.5 -1.86406 2.39763 0
M  V30 20260 H 1885.08 -0.864226 1.21867 0
M  V30 20261 H 1886.97 -4.02709 1.2411 0
M  V30 20262 H 1885.64 -3.21674 0.36163 0
M  V30 20263 H 1884.55 -2.67539 2.61483 0
M  V30 20264 H 1885.88 -3.53372 3.42621 0
M  V30 20265 N 1887.53 -1.26053 -0.945962 0
M  V30 20266 C 1888.47 -1.02985 -2.0476 0
M  V30 20267 C 1889.48 0.00812739 -1.62798 0
M  V30 20268 O 1890.67 -0.231411 -1.76994 0
M  V30 20269 C 1887.77 -0.536609 -3.34625 0
M  V30 20270 C 1886.94 -1.64273 -4.0538 0
M  V30 20271 C 1886 -1.14836 -5.13516 0
M  V30 20272 O 1885.03 -1.84449 -5.38486 0
M  V30 20273 N 1886.23 0.00576017 -5.805 0
M  V30 20274 H 1888.99 -1.97845 -2.25117 0
M  V30 20275 H 1886.55 -1.17375 -1.11512 0
M  V30 20276 H 1888.55 -0.19017 -4.04253 0
M  V30 20277 H 1887.12 0.318275 -3.10976 0
M  V30 20278 H 1886.34 -2.16034 -3.29732 0
M  V30 20279 H 1887.62 -2.3856 -4.49407 0
M  V30 20280 H 1887.02 0.587225 -5.62644 0
M  V30 20281 H 1885.58 0.293161 -6.5114 0
M  V30 20282 N 1889.01 1.14984 -1.07779 0
M  V30 20283 C 1890.43 1.3786 -0.804164 0
M  V30 20284 C 1890.63 1.92682 0.589572 0
M  V30 20285 O 1889.68 2.13537 1.34752 0
M  V30 20286 C 1891 2.34559 -1.88156 0
M  V30 20287 C 1892.54 2.48212 -1.90683 0
M  V30 20288 C 1893.02 3.48205 -2.97519 0
M  V30 20289 N 1894.51 3.55743 -2.96649 0
M  V30 20290 C 1895.25 4.32946 -3.75959 0
M  V30 20291 N 1894.74 5.13446 -4.65129 0
M  V30 20292 N 1896.53 4.28079 -3.64287 0
M  V30 20293 H 1888.69 0.777434 -1.97661 0
M  V30 20294 H 1890.95 0.404419 -0.857409 0
M  V30 20295 H 1890.65 2.014 -2.88324 0
M  V30 20296 H 1890.53 3.34389 -1.74539 0
M  V30 20297 H 1892.92 2.80665 -0.911642 0
M  V30 20298 H 1893 1.48365 -2.08378 0
M  V30 20299 H 1892.64 3.16485 -3.9724 0
M  V30 20300 H 1892.57 4.47817 -2.77069 0
M  V30 20301 H 1895.06 2.98291 -2.32014 0
M  V30 20302 H 1895.37 5.69612 -5.22267 0
M  V30 20303 H 1893.72 5.12737 -4.69176 0
M  V30 20304 H 1896.91 3.64257 -2.93997 0
M  V30 20305 H 1897.08 4.87996 -4.26337 0
M  V30 20306 N 1890.49 0.862526 1.31902 0
M  V30 20307 C 1891.72 0.483304 2.00867 0
M  V30 20308 C 1892.13 -0.926733 1.64949 0
M  V30 20309 O 1891.47 -1.61745 0.870881 0
M  V30 20310 C 1891.53 0.551872 3.55239 0
M  V30 20311 C 1891.2 1.9222 4.14609 0
M  V30 20312 C 1892.19 2.88872 4.3226 0
M  V30 20313 C 1889.88 2.22149 4.50506 0
M  V30 20314 C 1891.87 4.136 4.84988 0
M  V30 20315 C 1889.56 3.47128 5.02937 0
M  V30 20316 C 1890.56 4.4267 5.20127 0
M  V30 20317 O 1890.25 5.65435 5.71435 0
M  V30 20318 H 1889.98 0.187544 0.649464 0
M  V30 20319 H 1892.53 1.16337 1.69278 0
M  V30 20320 H 1890.76 -0.18508 3.86257 0
M  V30 20321 H 1892.45 0.187136 4.05468 0
M  V30 20322 H 1893.22 2.67056 4.04853 0
M  V30 20323 H 1889.1 1.48564 4.36406 0
M  V30 20324 H 1892.64 4.88182 4.98321 0
M  V30 20325 H 1888.54 3.68791 5.29777 0
M  V30 20326 H 1889.3 5.67503 5.89816 0
M  V30 20327 N 1891.97 -1.4484 0.62123 0
M  V30 20328 C 1893.22 -2.01734 0.121544 0
M  V30 20329 C 1893.54 -1.49041 -1.25745 0
M  V30 20330 O 1892.81 -0.690056 -1.83344 0
M  V30 20331 H 1891.39 -0.745822 0.0419419 0
M  V30 20332 H 1894.05 -1.77467 0.805702 0
M  V30 20333 H 1893.15 -3.11993 0.0816882 0
M  V30 20334 N 1893.45 -0.361184 -1.53405 0
M  V30 20335 C 1894.69 0.229427 -2.00794 0
M  V30 20336 C 1895.02 1.49642 -1.25029 0
M  V30 20337 O 1894.29 1.9252 -0.362333 0
M  V30 20338 H 1892.87 0.0877687 -0.741826 0
M  V30 20339 H 1895.53 -0.486406 -1.88733 0
M  V30 20340 H 1894.62 0.459504 -3.08699 0
M  V30 20341 N 1894.92 1.57341 -0.0902386 0
M  V30 20342 C 1896.17 1.93793 0.573474 0
M  V30 20343 C 1896.49 0.972444 1.69022 0
M  V30 20344 O 1895.76 0.0236753 1.95886 0
M  V30 20345 H 1894.34 0.715442 0.21483 0
M  V30 20346 H 1897.01 1.94303 -0.15243 0
M  V30 20347 H 1896.1 2.96088 0.986829 0
M  V30 20348 N 1896.4 -0.183431 1.56529 0
M  V30 20349 C 1897.65 -0.901995 1.81302 0
M  V30 20350 C 1897.98 -1.82765 0.665368 0
M  V30 20351 O 1897.23 -1.92578 -0.348162 0
M  V30 20352 C 1897.53 -1.74055 3.12153 0
M  V30 20353 C 1897.2 -0.964866 4.40456 0
M  V30 20354 C 1895.86 -0.750741 4.75308 0
M  V30 20355 C 1898.21 -0.419915 5.19506 0
M  V30 20356 C 1895.54 0.0196291 5.86697 0
M  V30 20357 C 1897.89 0.337305 6.317 0
M  V30 20358 C 1896.56 0.56234 6.65127 0
M  V30 20359 H 1895.83 -0.330064 0.66343 0
M  V30 20360 H 1898.47 -0.167643 1.90765 0
M  V30 20361 H 1896.78 -2.54393 2.97979 0
M  V30 20362 H 1898.47 -2.29935 3.28528 0
M  V30 20363 H 1895.06 -1.14178 4.13112 0
M  V30 20364 H 1899.25 -0.572714 4.92984 0
M  V30 20365 H 1894.5 0.203838 6.1106 0
M  V30 20366 H 1898.68 0.766889 6.92165 0
M  V30 20367 H 1896.31 1.16117 7.51279 0
M  V30 20368 N 1897.88 -1.50992 -0.451564 0
M  V30 20369 C 1899.11 -1.66499 -1.22317 0
M  V30 20370 C 1899.52 -0.355831 -1.85824 0
M  V30 20371 O 1898.86 0.674213 -1.7088 0
M  V30 20372 C 1898.92 -2.71315 -2.35857 0
M  V30 20373 C 1898.59 -4.14324 -1.92832 0
M  V30 20374 C 1899.58 -4.99567 -1.43976 0
M  V30 20375 C 1897.27 -4.60349 -2.00957 0
M  V30 20376 C 1899.26 -6.28889 -1.03813 0
M  V30 20377 C 1896.95 -5.89672 -1.60405 0
M  V30 20378 C 1897.95 -6.73769 -1.11913 0
M  V30 20379 O 1897.64 -8.00675 -0.719315 0
M  V30 20380 H 1897.37 -0.562243 -0.375312 0
M  V30 20381 H 1899.92 -1.9809 -0.54311 0
M  V30 20382 H 1898.15 -2.35009 -3.07096 0
M  V30 20383 H 1899.84 -2.75844 -2.97767 0
M  V30 20384 H 1900.61 -4.65217 -1.37105 0
M  V30 20385 H 1896.49 -3.95024 -2.37648 0
M  V30 20386 H 1900.03 -6.94481 -0.658932 0
M  V30 20387 H 1895.93 -6.23539 -1.66942 0
M  V30 20388 H 1896.7 -8.14112 -0.846434 0
M  V30 20389 N 1899.36 0.706069 -1.40899 0
M  V30 20390 C 1900.58 1.50008 -1.43221 0
M  V30 20391 C 1901.01 1.88065 -0.0362158 0
M  V30 20392 O 1900.37 1.5392 0.958036 0
M  V30 20393 C 1900.41 2.74578 -2.33751 0
M  V30 20394 O 1899.52 3.71657 -1.78731 0
M  V30 20395 H 1898.86 0.451899 -0.486501 0
M  V30 20396 H 1901.39 0.868772 -1.85239 0
M  V30 20397 H 1901.4 3.23002 -2.49266 0
M  V30 20398 H 1900.07 2.46214 -3.35189 0
M  V30 20399 H 1898.65 3.30544 -1.72612 0
M  V30 20400 N 1900.84 1.26553 0.939264 0
M  V30 20401 C 1902.06 1.14993 1.72001 0
M  V30 20402 C 1902.48 -0.29462 1.86487 0
M  V30 20403 O 1901.84 -1.20158 1.37362 0
M  V30 20404 C 1901.89 1.81598 3.12577 0
M  V30 20405 O 1901.61 3.20408 2.98781 0
M  V30 20406 C 1903.11 1.76017 4.06858 0
M  V30 20407 H 1900.33 0.400347 0.538482 0
M  V30 20408 H 1902.87 1.67209 1.17735 0
M  V30 20409 H 1901.03 1.33316 3.63739 0
M  V30 20410 H 1901.44 3.53397 3.8757 0
M  V30 20411 H 1902.92 2.27255 5.0305 0
M  V30 20412 H 1903.39 0.727075 4.3314 0
M  V30 20413 H 1904 2.2386 3.61617 0
M  V30 20414 N 1902.31 -1.14411 1.08387 0
M  V30 20415 C 1903.25 -2.19141 0.671565 0
M  V30 20416 C 1904.26 -1.60352 -0.281256 0
M  V30 20417 O 1905.45 -1.78367 -0.0689422 0
M  V30 20418 C 1902.55 -3.38884 -0.0326447 0
M  V30 20419 C 1901.72 -4.27201 0.939024 0
M  V30 20420 C 1900.78 -5.25506 0.270176 0
M  V30 20421 O 1899.81 -5.61805 0.914522 0
M  V30 20422 N 1901.01 -5.72168 -0.980002 0
M  V30 20423 H 1903.77 -2.5513 1.57254 0
M  V30 20424 H 1901.33 -1.2963 0.969931 0
M  V30 20425 H 1903.33 -4.0171 -0.491035 0
M  V30 20426 H 1901.9 -3.01222 -0.835708 0
M  V30 20427 H 1901.12 -3.61314 1.57626 0
M  V30 20428 H 1902.4 -4.83072 1.59746 0
M  V30 20429 H 1901.8 -5.44806 -1.52325 0
M  V30 20430 H 1900.36 -6.36983 -1.38189 0
M  V30 20431 N 1903.79 -0.869509 -1.31443 0
M  V30 20432 C 1905.07 -0.400903 -1.91447 0
M  V30 20433 C 1905.45 1.117 -1.79127 0
M  V30 20434 O 1904.8 1.94536 -1.19866 0
M  V30 20435 C 1905.01 -0.881767 -3.37677 0
M  V30 20436 C 1906.36 -0.90763 -4.14786 0
M  V30 20437 O 1907.38 -0.82739 -3.46457 0
M  V30 20438 O 1906.24 -1.02365 -5.36827 0
M  V30 20439 H 1903.33 -0.119842 -0.818271 0
M  V30 20440 H 1905.88 -0.957391 -1.40115 0
M  V30 20441 H 1904.65 -1.92533 -3.40657 0
M  V30 20442 H 1904.27 -0.303565 -3.96439 0
M  V30 20443 N 1905.27 1.44508 -0.628902 0
M  V30 20444 C 1906.5 2.06429 -0.13951 0
M  V30 20445 C 1906.91 1.46981 1.18499 0
M  V30 20446 O 1906.27 0.591856 1.72636 0
M  V30 20447 C 1906.32 3.61496 -0.016195 0
M  V30 20448 O 1906.04 4.18729 -1.28831 0
M  V30 20449 C 1907.54 4.40447 0.502154 0
M  V30 20450 H 1904.76 0.666375 -0.0786479 0
M  V30 20451 H 1907.31 1.85414 -0.862674 0
M  V30 20452 H 1905.46 3.81781 0.657398 0
M  V30 20453 H 1905.88 5.12145 -1.13171 0
M  V30 20454 H 1907.35 5.49377 0.537458 0
M  V30 20455 H 1907.83 4.11735 1.52876 0
M  V30 20456 H 1908.43 4.25076 -0.138113 0
M  V30 20457 N 1906.75 0.369315 1.53212 0
M  V30 20458 C 1908 -0.220348 2.00493 0
M  V30 20459 C 1908.31 -1.49561 1.26059 0
M  V30 20460 O 1909.52 -2.1641 1.63947 0
M  V30 20461 C 1907.97 -0.443218 3.5716 0
M  V30 20462 C 1907.58 0.817634 4.40476 0
M  V30 20463 C 1909.33 -0.990333 4.12786 0
M  V30 20464 C 1907.23 0.564143 5.88703 0
M  V30 20465 H 1906.16 -0.0861173 0.749066 0
M  V30 20466 H 1908.81 0.488632 1.76875 0
M  V30 20467 H 1907.2 -1.21355 3.76947 0
M  V30 20468 H 1908.37 1.59105 4.32461 0
M  V30 20469 H 1906.68 1.28824 3.95971 0
M  V30 20470 H 1909.28 -1.19537 5.21167 0
M  V30 20471 H 1909.62 -1.95357 3.67616 0
M  V30 20472 H 1910.16 -0.280073 3.96813 0
M  V30 20473 H 1906.9 1.49782 6.38158 0
M  V30 20474 H 1906.42 -0.170702 5.99557 0
M  V30 20475 H 1908.1 0.191072 6.46718 0
M  V30 20476 N 1908.23 -1.57291 0.0985816 0
M  V30 20477 C 1909.18 -2.1545 -0.876584 0
M  V30 20478 C 1910.17 -1.09827 -1.28974 0
M  V30 20479 O 1911.38 -1.28166 -1.26386 0
M  V30 20480 H 1907.75 -0.689252 -0.300725 0
M  V30 20481 H 1909.72 -2.96204 -0.36139 0
M  V30 20482 C 1908.47 -2.75232 -2.12468 0
M  V30 20483 H 1907.79 -3.56194 -1.81565 0
M  V30 20484 H 1909.23 -3.19489 -2.78752 0
M  V30 20485 C 1907.69 -1.71298 -2.90101 0
M  V30 20486 O 1908.22 -1.15402 -3.84767 0
M  V30 20487 N 1906.43 -1.41709 -2.53706 0
M  V30 20488 H 1905.98 -1.87354 -1.76794 0
M  V30 20489 H 1905.93 -0.724072 -3.05949 0
M  V30 20490 N 1909.71 0.175127 -1.56624 0
M  V30 20491 C 1910.67 1.20064 -1.95237 0
M  V30 20492 C 1911.67 1.37384 -0.835603 0
M  V30 20493 O 1912.86 1.34855 -1.10272 0
M  V30 20494 C 1909.99 2.5664 -2.24386 0
M  V30 20495 H 1911.18 0.870066 -2.87001 0
M  V30 20496 H 1908.74 0.41743 -1.50623 0
M  V30 20497 H 1909.47 2.94717 -1.35322 0
M  V30 20498 H 1909.26 2.45436 -3.05784 0
M  V30 20499 H 1910.75 3.30554 -2.55194 0
M  V30 20500 N 1911.18 1.5123 0.44355 0
M  V30 20501 C 1912.43 1.62825 1.19041 0
M  V30 20502 C 1912.75 0.347298 1.92492 0
M  V30 20503 O 1913.95 0.342537 2.69331 0
M  V30 20504 C 1912.41 2.87532 2.16456 0
M  V30 20505 C 1912.02 4.22608 1.48682 0
M  V30 20506 C 1913.76 3.08483 2.91614 0
M  V30 20507 C 1911.67 5.38472 2.44544 0
M  V30 20508 H 1910.6 0.606444 0.448041 0
M  V30 20509 H 1913.25 1.77691 0.458065 0
M  V30 20510 H 1911.63 2.66287 2.931 0
M  V30 20511 H 1912.8 4.54212 0.776389 0
M  V30 20512 H 1911.12 4.07485 0.857007 0
M  V30 20513 H 1913.72 3.92219 3.63413 0
M  V30 20514 H 1914.06 2.2131 3.52601 0
M  V30 20515 H 1914.59 3.30039 2.22078 0
M  V30 20516 H 1911.33 6.27886 1.88255 0
M  V30 20517 H 1910.85 5.11252 3.13658 0
M  V30 20518 H 1912.53 5.70169 3.05804 0
M  V30 20519 N 1912.66 -0.698586 1.41271 0
M  V30 20520 C 1913.57 -1.8424 1.45234 0
M  V30 20521 C 1914.59 -1.70581 0.343225 0
M  V30 20522 O 1915.76 -1.9255 0.590477 0
M  V30 20523 C 1912.83 -3.20195 1.32951 0
M  V30 20524 C 1911.89 -3.45984 2.54152 0
M  V30 20525 C 1911.12 -4.75453 2.42446 0
M  V30 20526 O 1911.35 -5.5173 1.44741 0
M  V30 20527 O 1910.28 -5.01958 3.32147 0
M  V30 20528 H 1914.11 -1.83853 2.41727 0
M  V30 20529 H 1911.69 -0.851252 1.22776 0
M  V30 20530 H 1913.57 -4.0137 1.28374 0
M  V30 20531 H 1912.25 -3.21272 0.395728 0
M  V30 20532 H 1911.15 -2.64751 2.64306 0
M  V30 20533 H 1912.49 -3.49718 3.46349 0
M  V30 20534 N 1914.14 -1.27049 -0.93254 0
M  V30 20535 C 1915.39 -1.12879 -1.67639 0
M  V30 20536 C 1915.71 0.326803 -1.92242 0
M  V30 20537 O 1914.98 1.22934 -1.52525 0
M  V30 20538 H 1913.56 -0.414741 -0.621288 0
M  V30 20539 H 1916.22 -1.59505 -1.12 0
M  V30 20540 H 1915.32 -1.65417 -2.64658 0
M  V30 20541 N 1915.62 1.13835 -1.08993 0
M  V30 20542 C 1916.55 2.21226 -0.74707 0
M  V30 20543 C 1917.53 1.67891 0.273232 0
M  V30 20544 O 1918.71 1.93678 0.142278 0
M  V30 20545 C 1915.84 3.46922 -0.162028 0
M  V30 20546 C 1914.8 4.1332 -1.11135 0
M  V30 20547 C 1914.12 5.33289 -0.388228 0
M  V30 20548 C 1915.42 4.61169 -2.45195 0
M  V30 20549 H 1917.12 2.50162 -1.64497 0
M  V30 20550 H 1914.66 1.20239 -0.792368 0
M  V30 20551 H 1916.62 4.21304 0.0898753 0
M  V30 20552 H 1915.34 3.17368 0.771036 0
M  V30 20553 H 1914 3.40899 -1.34845 0
M  V30 20554 H 1913.65 4.99997 0.548832 0
M  V30 20555 H 1913.35 5.78659 -1.02115 0
M  V30 20556 H 1914.87 6.10429 -0.144519 0
M  V30 20557 H 1916.29 5.26996 -2.25717 0
M  V30 20558 H 1914.68 5.17263 -3.04235 0
M  V30 20559 H 1915.75 3.75923 -3.06284 0
M  V30 20560 N 1917.1 0.876467 1.3098 0
M  V30 20561 C 1918.32 0.505315 2.00634 0
M  V30 20562 C 1918.74 -0.903951 1.65753 0
M  V30 20563 O 1918.1 -1.59318 0.890164 0
M  V30 20564 C 1918.15 0.660442 3.55416 0
M  V30 20565 O 1917.87 2.01422 3.89051 0
M  V30 20566 C 1919.37 0.291158 4.42343 0
M  V30 20567 H 1916.59 0.196195 0.641676 0
M  V30 20568 H 1919.13 1.17942 1.67062 0
M  V30 20569 H 1917.29 0.0338076 3.87385 0
M  V30 20570 H 1917.7 2.02668 4.83762 0
M  V30 20571 H 1919.18 0.450631 5.50158 0
M  V30 20572 H 1919.65 -0.770188 4.32394 0
M  V30 20573 H 1920.26 0.893762 4.15803 0
M  V30 20574 N 1918.57 -1.44173 0.636557 0
M  V30 20575 C 1919.48 -2.34507 -0.0661877 0
M  V30 20576 C 1920.5 -1.52931 -0.829947 0
M  V30 20577 O 1921.68 -1.85641 -0.780979 0
M  V30 20578 C 1918.74 -3.30987 -1.03191 0
M  V30 20579 C 1917.8 -4.28469 -0.266924 0
M  V30 20580 C 1917.03 -5.20341 -1.18664 0
M  V30 20581 O 1917.26 -5.1626 -2.42552 0
M  V30 20582 O 1916.19 -5.98181 -0.668035 0
M  V30 20583 H 1920.02 -2.9606 0.676932 0
M  V30 20584 H 1917.6 -1.44036 0.396744 0
M  V30 20585 H 1919.48 -3.9036 -1.58736 0
M  V30 20586 H 1918.16 -2.7196 -1.75555 0
M  V30 20587 H 1917.07 -3.72627 0.331702 0
M  V30 20588 H 1918.4 -4.90432 0.416803 0
M  V30 20589 N 1920.05 -0.377435 -1.53014 0
M  V30 20590 C 1921.28 0.208641 -2.05544 0
M  V30 20591 C 1921.69 1.42037 -1.24988 0
M  V30 20592 O 1921.03 1.81451 -0.286565 0
M  V30 20593 C 1921.09 0.654786 -3.53487 0
M  V30 20594 C 1920.76 -0.441865 -4.54859 0
M  V30 20595 C 1921.76 -1.29552 -5.035 0
M  V30 20596 C 1919.44 -0.605501 -4.98637 0
M  V30 20597 C 1921.43 -2.29804 -5.94533 0
M  V30 20598 C 1919.12 -1.61137 -5.89473 0
M  V30 20599 C 1920.12 -2.45607 -6.37312 0
M  V30 20600 O 1919.81 -3.44477 -7.26355 0
M  V30 20601 H 1919.54 0.0379445 -0.674934 0
M  V30 20602 H 1922.09 -0.537644 -1.98239 0
M  V30 20603 H 1920.32 1.45286 -3.5837 0
M  V30 20604 H 1922.01 1.16519 -3.88816 0
M  V30 20605 H 1922.78 -1.18035 -4.70418 0
M  V30 20606 H 1918.66 0.042229 -4.60981 0
M  V30 20607 H 1922.2 -2.95771 -6.31795 0
M  V30 20608 H 1918.1 -1.72697 -6.21969 0
M  V30 20609 H 1918.87 -3.40345 -7.44384 0
M  V30 20610 N 1921.53 1.57237 -0.106922 0
M  V30 20611 C 1922.76 1.99545 0.565392 0
M  V30 20612 C 1923.18 0.985887 1.60193 0
M  V30 20613 O 1922.54 -0.0440657 1.81246 0
M  V30 20614 C 1922.59 3.40779 1.17908 0
M  V30 20615 O 1921.69 3.42656 2.29479 0
M  V30 20616 H 1921.03 0.648556 0.142379 0
M  V30 20617 H 1923.56 2.03699 -0.191829 0
M  V30 20618 H 1923.57 3.78728 1.51754 0
M  V30 20619 H 1922.25 4.13776 0.419776 0
M  V30 20620 H 1920.82 3.16514 1.97164 0
M  V30 20621 N 1923.01 -0.166818 1.56715 0
M  V30 20622 C 1923.94 -1.2086 1.99787 0
M  V30 20623 C 1924.92 -1.45918 0.874178 0
M  V30 20624 O 1926.1 -1.57176 1.14058 0
M  V30 20625 C 1923.23 -2.54648 2.3616 0
M  V30 20626 C 1922.19 -2.44151 3.51532 0
M  V30 20627 C 1921.51 -3.82469 3.7366 0
M  V30 20628 C 1922.81 -1.9424 4.84838 0
M  V30 20629 H 1924.51 -0.850538 2.87065 0
M  V30 20630 H 1922.05 -0.407696 1.38108 0
M  V30 20631 H 1924.01 -3.27736 2.64891 0
M  V30 20632 H 1922.73 -2.92251 1.45797 0
M  V30 20633 H 1921.39 -1.73516 3.22936 0
M  V30 20634 H 1921.04 -4.17473 2.8058 0
M  V30 20635 H 1920.74 -3.76312 4.5129 0
M  V30 20636 H 1922.26 -4.57136 4.04796 0
M  V30 20637 H 1923.68 -2.57105 5.12416 0
M  V30 20638 H 1922.07 -1.99021 5.66137 0
M  V30 20639 H 1923.14 -0.89695 4.76532 0
M  V30 20640 N 1924.49 -1.51463 -0.435524 0
M  V30 20641 C 1925.42 -1.75856 -1.53613 0
M  V30 20642 C 1926.4 -0.608449 -1.58846 0
M  V30 20643 O 1927.58 -0.85135 -1.74544 0
M  V30 20644 C 1924.71 -1.88525 -2.91677 0
M  V30 20645 C 1923.67 -3.03972 -3.01305 0
M  V30 20646 C 1922.99 -3.01828 -4.41366 0
M  V30 20647 C 1924.29 -4.43905 -2.75219 0
M  V30 20648 H 1925.99 -2.68013 -1.33452 0
M  V30 20649 H 1923.53 -1.28968 -0.640564 0
M  V30 20650 H 1925.49 -2.04173 -3.68634 0
M  V30 20651 H 1924.21 -0.930179 -3.13074 0
M  V30 20652 H 1922.87 -2.88033 -2.26788 0
M  V30 20653 H 1922.52 -2.04095 -4.59733 0
M  V30 20654 H 1922.22 -3.79353 -4.48737 0
M  V30 20655 H 1923.74 -3.19572 -5.20294 0
M  V30 20656 H 1925.15 -4.60187 -3.41908 0
M  V30 20657 H 1923.55 -5.2315 -2.93998 0
M  V30 20658 H 1924.62 -4.53818 -1.70814 0
M  V30 20659 N 1925.96 0.691085 -1.4164 0
M  V30 20660 C 1927.21 1.45329 -1.41447 0
M  V30 20661 C 1927.54 1.94184 -0.0249758 0
M  V30 20662 O 1926.82 1.69831 0.948043 0
M  V30 20663 C 1927.1 2.66199 -2.42508 0
M  V30 20664 C 1926.95 2.23081 -3.90583 0
M  V30 20665 C 1928.27 3.68402 -2.40766 0
M  V30 20666 H 1925.39 0.527115 -0.515091 0
M  V30 20667 H 1928.03 0.786758 -1.72945 0
M  V30 20668 H 1926.18 3.23066 -2.15778 0
M  V30 20669 H 1927.86 1.71506 -4.28233 0
M  V30 20670 H 1926.1 1.54818 -4.05233 0
M  V30 20671 H 1926.77 3.09828 -4.56848 0
M  V30 20672 H 1929.25 3.21217 -2.64497 0
M  V30 20673 H 1928.12 4.50576 -3.13484 0
M  V30 20674 H 1928.38 4.18408 -1.42783 0
M  V30 20675 N 1927.44 1.27542 0.925789 0
M  V30 20676 C 1928.39 1.10432 2.02666 0
M  V30 20677 C 1929.36 0.004846 1.66099 0
M  V30 20678 O 1930.54 0.167531 1.90063 0
M  V30 20679 C 1927.68 0.759567 3.36637 0
M  V30 20680 C 1926.8 1.93687 3.86147 0
M  V30 20681 C 1925.93 1.53382 5.08574 0
M  V30 20682 C 1924.97 2.67849 5.50385 0
M  V30 20683 N 1924.11 2.2812 6.64007 0
M  V30 20684 H 1928.95 2.04632 2.16633 0
M  V30 20685 H 1926.49 1.01863 1.06124 0
M  V30 20686 H 1928.44 0.540492 4.13684 0
M  V30 20687 H 1927.07 -0.145477 3.22472 0
M  V30 20688 H 1926.13 2.26843 3.05363 0
M  V30 20689 H 1927.44 2.79548 4.13104 0
M  V30 20690 H 1926.59 1.2761 5.93128 0
M  V30 20691 H 1925.33 0.646332 4.83398 0
M  V30 20692 H 1924.34 2.94333 4.64379 0
M  V30 20693 H 1925.56 3.57222 5.77554 0
M  V30 20694 H 1923.51 1.41825 6.40485 0
M  V30 20695 H 1923.42 3.07519 6.90629 0
M  V30 20696 H 1924.69 2.056 7.51897 0
M  V30 20697 N 1928.92 -1.13255 1.09595 0
M  V30 20698 C 1929.85 -2.18416 0.69477 0
M  V30 20699 C 1930.87 -1.60641 -0.264232 0
M  V30 20700 O 1932.05 -1.7843 -0.0500201 0
M  V30 20701 C 1929.15 -3.389 0.00330039 0
M  V30 20702 C 1928.33 -4.26181 0.984281 0
M  V30 20703 C 1927.39 -5.2519 0.325898 0
M  V30 20704 O 1926.41 -5.60804 0.974057 0
M  V30 20705 N 1927.61 -5.73175 -0.919261 0
M  V30 20706 H 1930.38 -2.53448 1.59951 0
M  V30 20707 H 1927.94 -1.28594 0.983625 0
M  V30 20708 H 1929.93 -4.02208 -0.4484 0
M  V30 20709 H 1928.5 -3.02091 -0.803713 0
M  V30 20710 H 1927.72 -3.59622 1.61449 0
M  V30 20711 H 1929.01 -4.81351 1.64861 0
M  V30 20712 H 1928.41 -5.46391 -1.46538 0
M  V30 20713 H 1926.97 -6.38413 -1.31425 0
M  V30 20714 N 1930.4 -0.883401 -1.30514 0
M  V30 20715 C 1931.33 -0.36516 -2.30627 0
M  V30 20716 C 1932.31 0.551149 -1.60923 0
M  V30 20717 O 1933.49 0.465333 -1.88543 0
M  V30 20718 C 1930.62 0.422552 -3.4472 0
M  V30 20719 C 1929.58 -0.401856 -4.26109 0
M  V30 20720 C 1928.9 0.512363 -5.3224 0
M  V30 20721 C 1930.2 -1.64313 -4.95781 0
M  V30 20722 H 1931.9 -1.20175 -2.74223 0
M  V30 20723 H 1929.44 -0.579315 -1.31833 0
M  V30 20724 H 1931.4 0.795726 -4.13819 0
M  V30 20725 H 1930.12 1.29278 -2.99925 0
M  V30 20726 H 1928.78 -0.75715 -3.58696 0
M  V30 20727 H 1928.43 1.38025 -4.83692 0
M  V30 20728 H 1928.13 -0.0354331 -5.87589 0
M  V30 20729 H 1929.65 0.882088 -6.04195 0
M  V30 20730 H 1931.07 -1.34063 -5.57405 0
M  V30 20731 H 1929.46 -2.13101 -5.60989 0
M  V30 20732 H 1930.53 -2.38843 -4.21998 0
M  V30 20733 N 1931.88 1.43833 -0.644194 0
M  V30 20734 C 1933.29 1.56542 -0.310952 0
M  V30 20735 C 1933.49 1.62946 1.18536 0
M  V30 20736 O 1932.55 1.57961 1.96989 0
M  V30 20737 C 1933.86 2.83074 -1.01437 0
M  V30 20738 C 1935.41 2.96805 -0.993759 0
M  V30 20739 C 1935.88 4.26158 -1.6779 0
M  V30 20740 N 1937.38 4.33002 -1.64511 0
M  V30 20741 C 1938.11 5.31837 -2.14328 0
M  V30 20742 N 1937.61 6.37003 -2.72394 0
M  V30 20743 N 1939.4 5.23431 -2.04881 0
M  V30 20744 H 1931.55 1.37919 -1.61531 0
M  V30 20745 H 1933.81 0.661778 -0.678789 0
M  V30 20746 H 1933.52 2.84372 -2.06943 0
M  V30 20747 H 1933.39 3.73016 -0.560273 0
M  V30 20748 H 1935.78 2.95053 0.0528599 0
M  V30 20749 H 1935.86 2.08177 -1.48647 0
M  V30 20750 H 1935.51 4.28671 -2.72404 0
M  V30 20751 H 1935.44 5.13667 -1.15992 0
M  V30 20752 H 1937.93 3.57621 -1.22129 0
M  V30 20753 H 1938.24 7.08724 -3.08107 0
M  V30 20754 H 1936.58 6.37652 -2.76451 0
M  V30 20755 H 1939.78 4.40186 -1.59229 0
M  V30 20756 H 1939.95 6.00301 -2.44015 0
M  V30 20757 N 1933.35 0.385544 1.52811 0
M  V30 20758 C 1934.28 -0.442951 2.2926 0
M  V30 20759 C 1935.27 -1.06674 1.32494 0
M  V30 20760 O 1936.45 -1.08022 1.61384 0
M  V30 20761 C 1933.58 -1.57243 3.09664 0
M  V30 20762 C 1932.53 -1.07488 4.14283 0
M  V30 20763 C 1931.86 -2.29614 4.82889 0
M  V30 20764 C 1933.16 -0.145479 5.22097 0
M  V30 20765 H 1934.85 0.1949 2.98765 0
M  V30 20766 H 1932.4 0.0951762 1.43685 0
M  V30 20767 H 1934.35 -2.15882 3.61902 0
M  V30 20768 H 1933.08 -2.23781 2.37885 0
M  V30 20769 H 1931.74 -0.511047 3.6302 0
M  V30 20770 H 1931.38 -2.94653 4.07662 0
M  V30 20771 H 1931.08 -1.96985 5.53598 0
M  V30 20772 H 1932.61 -2.88902 5.37929 0
M  V30 20773 H 1934.02 -0.639941 5.69717 0
M  V30 20774 H 1932.42 0.0908687 6.00031 0
M  V30 20775 H 1933.49 0.806707 4.78142 0
M  V30 20776 N 1934.83 -1.57178 0.115259 0
M  V30 20777 C 1936.06 -1.99842 -0.554802 0
M  V30 20778 C 1936.48 -0.994368 -1.59668 0
M  V30 20779 O 1935.84 0.0344531 -1.81267 0
M  V30 20780 C 1935.89 -3.41399 -1.16099 0
M  V30 20781 O 1934.99 -3.43868 -2.27659 0
M  V30 20782 H 1934.33 -0.649301 -0.138937 0
M  V30 20783 H 1936.86 -2.03594 0.202629 0
M  V30 20784 H 1936.87 -3.79527 -1.49743 0
M  V30 20785 H 1935.55 -4.13993 -0.397827 0
M  V30 20786 H 1934.13 -3.17555 -1.95482 0
M  V30 20787 N 1936.31 0.158505 -1.56801 0
M  V30 20788 C 1937.24 1.22518 -1.92522 0
M  V30 20789 C 1938.22 1.42142 -0.789589 0
M  V30 20790 O 1939.41 1.56941 -1.04412 0
M  V30 20791 C 1936.53 2.58604 -2.18728 0
M  V30 20792 C 1935.58 2.55642 -3.41394 0
M  V30 20793 S 1936.41 2.03464 -4.95341 0
M  V30 20794 C 1937.57 3.41302 -5.24656 0
M  V30 20795 H 1937.8 0.920362 -2.82695 0
M  V30 20796 H 1935.33 0.363629 -1.50057 0
M  V30 20797 H 1937.29 3.36923 -2.34506 0
M  V30 20798 H 1935.95 2.8628 -1.29239 0
M  V30 20799 H 1935.15 3.55792 -3.56971 0
M  V30 20800 H 1934.75 1.85426 -3.24797 0
M  V30 20801 H 1937.04 4.37361 -5.17418 0
M  V30 20802 H 1937.98 3.30588 -6.26192 0
M  V30 20803 H 1938.39 3.37906 -4.52194 0
M  V30 20804 N 1937.79 1.51692 0.427485 0
M  V30 20805 C 1939.07 1.55395 1.18793 0
M  V30 20806 C 1939.45 0.324036 2.08598 0
M  V30 20807 O 1938.79 -0.690292 2.17824 0
M  V30 20808 C 1939 2.87313 1.98121 0
M  V30 20809 C 1940.35 3.39632 2.54824 0
M  V30 20810 O 1941.38 2.8893 2.08322 0
M  V30 20811 O 1940.24 4.28125 3.39664 0
M  V30 20812 H 1937.33 0.625173 0.541376 0
M  V30 20813 H 1939.88 1.6401 0.435754 0
M  V30 20814 H 1938.65 3.68284 1.32222 0
M  V30 20815 H 1938.27 2.81907 2.80383 0
M  V30 20816 N 1939.27 -0.683564 1.42004 0
M  V30 20817 C 1940.52 -1.43934 1.413 0
M  V30 20818 C 1940.83 -1.95578 0.0296606 0
M  V30 20819 O 1942.04 -2.71316 -0.0999859 0
M  V30 20820 C 1940.49 -2.60331 2.48507 0
M  V30 20821 C 1940.1 -2.15424 3.92806 0
M  V30 20822 C 1941.84 -3.37895 2.56957 0
M  V30 20823 C 1939.75 -3.28851 4.91539 0
M  V30 20824 H 1938.68 -0.540693 0.525516 0
M  V30 20825 H 1941.33 -0.740914 1.67877 0
M  V30 20826 H 1939.71 -3.325 2.15081 0
M  V30 20827 H 1940.89 -1.50466 4.35542 0
M  V30 20828 H 1939.2 -1.50822 3.88126 0
M  V30 20829 H 1941.8 -4.22355 3.27903 0
M  V30 20830 H 1942.14 -3.83896 1.61027 0
M  V30 20831 H 1942.68 -2.72791 2.89534 0
M  V30 20832 H 1939.41 -2.87851 5.88916 0
M  V30 20833 H 1938.93 -3.92619 4.53443 0
M  V30 20834 H 1940.61 -3.9445 5.12853 0
M  V30 20835 N 1940.75 -1.28031 -0.919012 0
M  V30 20836 C 1942.02 -1.05588 -1.64653 0
M  V30 20837 C 1942.4 0.406513 -2.07149 0
M  V30 20838 O 1941.75 1.39153 -1.81242 0
M  V30 20839 C 1941.96 -2.0256 -2.84202 0
M  V30 20840 C 1943.31 -2.32414 -3.55343 0
M  V30 20841 O 1944.33 -2.00602 -2.94342 0
M  V30 20842 O 1943.19 -2.86683 -4.65269 0
M  V30 20843 H 1940.29 -0.40316 -0.722074 0
M  V30 20844 H 1942.83 -1.3933 -0.968781 0
M  V30 20845 H 1941.6 -3.01146 -2.49853 0
M  V30 20846 H 1941.23 -1.69433 -3.59692 0
M  V30 20847 N 1942.22 1.12672 -1.10194 0
M  V30 20848 C 1943.47 1.84399 -0.844081 0
M  V30 20849 C 1943.8 1.83739 0.628782 0
M  V30 20850 O 1943.08 1.28115 1.46345 0
M  V30 20851 C 1943.36 3.32194 -1.38994 0
M  V30 20852 C 1943.21 3.41323 -2.92948 0
M  V30 20853 C 1944.53 4.27872 -1.03021 0
M  V30 20854 H 1941.65 0.669515 -0.308089 0
M  V30 20855 H 1944.29 1.322 -1.36467 0
M  V30 20856 H 1942.44 3.76778 -0.947144 0
M  V30 20857 H 1944.12 3.05393 -3.45735 0
M  V30 20858 H 1942.36 2.81948 -3.29678 0
M  V30 20859 H 1943.03 4.45289 -3.26223 0
M  V30 20860 H 1945.51 3.91401 -1.41224 0
M  V30 20861 H 1944.38 5.29699 -1.43909 0
M  V30 20862 H 1944.64 4.42058 0.0606669 0
M  V30 20863 N 1943.7 0.89031 1.30043 0
M  V30 20864 C 1944.93 0.525833 2.00623 0
M  V30 20865 C 1945.35 -0.87971 1.66261 0
M  V30 20866 O 1944.71 -1.58394 0.882105 0
M  V30 20867 C 1944.76 0.714046 3.5346 0
M  V30 20868 O 1943.86 -0.237685 4.11714 0
M  V30 20869 H 1943.2 0.20656 0.631054 0
M  V30 20870 H 1945.73 1.19932 1.65763 0
M  V30 20871 H 1945.74 0.615086 4.03337 0
M  V30 20872 H 1944.42 1.73881 3.77807 0
M  V30 20873 H 1942.99 -0.0919722 3.72787 0
M  V30 20874 N 1945.18 -1.43489 0.651812 0
M  V30 20875 C 1946.41 -2.05882 0.172084 0
M  V30 20876 C 1946.82 -1.4893 -1.1669 0
M  V30 20877 O 1946.16 -0.614669 -1.73111 0
M  V30 20878 C 1946.22 -3.595 0.00499624 0
M  V30 20879 C 1945.89 -4.39026 1.26905 0
M  V30 20880 C 1946.88 -4.71177 2.19746 0
M  V30 20881 C 1944.57 -4.79058 1.51024 0
M  V30 20882 C 1946.56 -5.42267 3.35001 0
M  V30 20883 C 1944.25 -5.49893 2.66572 0
M  V30 20884 C 1945.25 -5.81419 3.58386 0
M  V30 20885 O 1944.94 -6.50807 4.71916 0
M  V30 20886 H 1944.67 -0.670436 0.0865532 0
M  V30 20887 H 1947.22 -1.85006 0.89229 0
M  V30 20888 H 1945.45 -3.78945 -0.770567 0
M  V30 20889 H 1947.14 -4.03596 -0.431912 0
M  V30 20890 H 1947.91 -4.4077 2.02354 0
M  V30 20891 H 1943.79 -4.53928 0.804408 0
M  V30 20892 H 1947.33 -5.66791 4.06686 0
M  V30 20893 H 1943.23 -5.79717 2.83899 0
M  V30 20894 H 1943.99 -6.69289 4.71163 0
M  V30 20895 N 1946.66 -0.393643 -1.52605 0
M  V30 20896 C 1947.6 0.439408 -2.26579 0
M  V30 20897 C 1948.57 1.05415 -1.28362 0
M  V30 20898 O 1949.76 1.08136 -1.57198 0
M  V30 20899 C 1946.9 1.55846 -3.07906 0
M  V30 20900 C 1946.01 0.966152 -4.21058 0
M  V30 20901 C 1945.15 2.05662 -4.89772 0
M  V30 20902 C 1944.19 1.44043 -5.9491 0
M  V30 20903 N 1943.32 2.47039 -6.57203 0
M  V30 20904 H 1948.16 -0.197864 -2.97342 0
M  V30 20905 H 1945.7 -0.109409 -1.46693 0
M  V30 20906 H 1947.66 2.21807 -3.53352 0
M  V30 20907 H 1946.29 2.16598 -2.39343 0
M  V30 20908 H 1945.34 0.196024 -3.79895 0
M  V30 20909 H 1946.65 0.475898 -4.96525 0
M  V30 20910 H 1945.81 2.79383 -5.38544 0
M  V30 20911 H 1944.55 2.58048 -4.13839 0
M  V30 20912 H 1943.55 0.688483 -5.45472 0
M  V30 20913 H 1944.78 0.924458 -6.72778 0
M  V30 20914 H 1942.72 2.98586 -5.84108 0
M  V30 20915 H 1942.64 2.02781 -7.28297 0
M  V30 20916 H 1943.91 3.20377 -7.10619 0
M  V30 20917 N 1948.14 1.57115 -0.123593 0
M  V30 20918 C 1949.09 2.12114 0.836157 0
M  V30 20919 C 1950.07 1.04305 1.22512 0
M  V30 20920 O 1951.26 1.3053 1.19545 0
M  V30 20921 C 1948.39 2.72776 2.08442 0
M  V30 20922 C 1947.48 3.87673 1.71962 0
M  V30 20923 N 1947.87 4.9453 1.0618 0
M  V30 20924 C 1946.17 3.97942 2.0139 0
M  V30 20925 C 1946.87 5.74861 0.889393 0
M  V30 20926 N 1945.84 5.24838 1.41586 0
M  V30 20927 H 1949.64 2.92108 0.324092 0
M  V30 20928 H 1947.16 1.62209 0.0787292 0
M  V30 20929 H 1949.16 3.10525 2.78172 0
M  V30 20930 H 1947.82 1.94247 2.60188 0
M  V30 20931 H 1948.83 5.12797 0.725245 0
M  V30 20932 H 1945.5 3.30461 2.5515 0
M  V30 20933 H 1946.89 6.70866 0.372697 0
M  V30 20934 N 1949.61 -0.150187 1.56883 0
M  V30 20935 C 1950.56 -1.18552 1.98025 0
M  V30 20936 C 1951.53 -1.42861 0.847353 0
M  V30 20937 O 1952.72 -1.55249 1.10917 0
M  V30 20938 C 1949.86 -2.51479 2.36331 0
M  V30 20939 C 1948.97 -2.34371 3.62897 0
M  V30 20940 C 1948.1 -3.60311 3.9032 0
M  V30 20941 C 1947.14 -3.38226 5.10166 0
M  V30 20942 N 1946.28 -4.56289 5.33615 0
M  V30 20943 H 1951.12 -0.827667 2.86276 0
M  V30 20944 H 1948.66 -0.397238 1.41635 0
M  V30 20945 H 1950.61 -3.28981 2.56568 0
M  V30 20946 H 1949.24 -2.85218 1.51164 0
M  V30 20947 H 1948.3 -1.47939 3.50454 0
M  V30 20948 H 1949.61 -2.1401 4.50556 0
M  V30 20949 H 1948.76 -4.46243 4.11038 0
M  V30 20950 H 1947.5 -3.83672 3.01076 0
M  V30 20951 H 1946.51 -2.50682 4.89324 0
M  V30 20952 H 1947.73 -3.16266 6.0096 0
M  V30 20953 H 1945.68 -4.79829 4.47325 0
M  V30 20954 H 1945.59 -4.38919 6.15537 0
M  V30 20955 H 1946.86 -5.43443 5.58829 0
M  V30 20956 N 1951.09 -1.51916 -0.419434 0
M  V30 20957 C 1952.34 -1.65142 -1.16502 0
M  V30 20958 C 1952.66 -0.378632 -1.91289 0
M  V30 20959 O 1951.93 0.606164 -1.86286 0
M  V30 20960 H 1950.51 -0.608667 -0.433051 0
M  V30 20961 H 1953.17 -1.88919 -0.47914 0
M  V30 20962 H 1952.27 -2.48762 -1.88477 0
M  V30 20963 N 1952.57 0.676023 -1.42365 0
M  V30 20964 C 1953.53 1.77138 -1.45446 0
M  V30 20965 C 1954.53 1.57116 -0.342226 0
M  V30 20966 O 1955.72 1.63431 -0.602999 0
M  V30 20967 C 1952.86 3.15757 -1.28492 0
M  V30 20968 H 1954.05 1.75794 -2.42974 0
M  V30 20969 H 1951.6 0.885538 -1.28794 0
M  V30 20970 H 1952.34 3.22729 -0.318815 0
M  V30 20971 H 1952.12 3.31694 -2.09097 0
M  V30 20972 H 1953.61 3.95677 -1.33528 0
M  V30 20973 N 1954.05 1.28517 0.912209 0
M  V30 20974 C 1954.98 1.15113 2.03153 0
M  V30 20975 C 1955.96 0.0485128 1.70031 0
M  V30 20976 O 1957.14 0.225778 1.92883 0
M  V30 20977 C 1954.27 0.81381 3.37631 0
M  V30 20978 C 1953.23 1.87137 3.8492 0
M  V30 20979 C 1952.55 1.38765 5.1638 0
M  V30 20980 C 1953.85 3.27819 4.06611 0
M  V30 20981 H 1955.55 2.0875 2.14625 0
M  V30 20982 H 1953.09 1.00504 1.03126 0
M  V30 20983 H 1955.05 0.706804 4.1543 0
M  V30 20984 H 1953.77 -0.15826 3.26216 0
M  V30 20985 H 1952.43 1.96755 3.09327 0
M  V30 20986 H 1952.08 0.404598 5.0137 0
M  V30 20987 H 1951.78 2.09482 5.48991 0
M  V30 20988 H 1953.3 1.29389 5.96733 0
M  V30 20989 H 1954.72 3.21114 4.7493 0
M  V30 20990 H 1953.11 3.96384 4.50555 0
M  V30 20991 H 1954.18 3.71723 3.11368 0
M  V30 20992 N 1955.53 -1.12086 1.1079 0
M  V30 20993 C 1956.48 -2.16022 0.729278 0
M  V30 20994 C 1957.46 -1.5873 -0.263361 0
M  V30 20995 O 1958.65 -1.76855 -0.0715232 0
M  V30 20996 C 1955.78 -3.42895 0.166711 0
M  V30 20997 C 1954.87 -4.07161 1.18661 0
M  V30 20998 N 1955.26 -4.46384 2.37855 0
M  V30 20999 C 1953.56 -4.33991 1.02798 0
M  V30 21000 C 1954.26 -4.96648 3.02846 0
M  V30 21001 N 1953.23 -4.92382 2.3035 0
M  V30 21002 H 1957.04 -2.44119 1.63656 0
M  V30 21003 H 1954.55 -1.2903 0.986155 0
M  V30 21004 H 1956.55 -4.1672 -0.122633 0
M  V30 21005 H 1955.21 -3.16266 -0.735246 0
M  V30 21006 H 1956.22 -4.38634 2.75356 0
M  V30 21007 H 1952.89 -4.17104 0.181891 0
M  V30 21008 H 1954.28 -5.36681 4.04257 0
M  V30 21009 N 1957 -0.897194 -1.29569 0
M  V30 21010 C 1957.95 -0.362849 -2.29752 0
M  V30 21011 C 1958.95 0.536674 -1.60674 0
M  V30 21012 O 1960.15 0.419753 -1.75037 0
M  V30 21013 H 1956.53 -0.0987052 -0.745494 0
M  V30 21014 H 1958.5 -1.22122 -2.72266 0
M  V30 21015 C 1957.25 0.396775 -3.45429 0
M  V30 21016 H 1956.57 -0.286159 -3.98775 0
M  V30 21017 H 1958.01 0.73556 -4.17571 0
M  V30 21018 C 1956.47 1.59849 -2.96563 0
M  V30 21019 O 1957 2.69781 -2.97626 0
M  V30 21020 N 1955.21 1.4398 -2.52424 0
M  V30 21021 H 1954.75 0.545463 -2.51759 0
M  V30 21022 H 1954.71 2.24519 -2.20088 0
M  V30 21023 N 1958.48 1.43142 -0.659413 0
M  V30 21024 C 1959.71 2.05788 -0.183 0
M  V30 21025 C 1960.12 1.49547 1.15898 0
M  V30 21026 O 1959.46 0.623841 1.72783 0
M  V30 21027 C 1959.53 3.59492 -0.0240613 0
M  V30 21028 C 1959.19 4.38347 -1.29231 0
M  V30 21029 C 1960.19 4.70005 -2.22242 0
M  V30 21030 C 1957.87 4.78251 -1.53562 0
M  V30 21031 C 1959.87 5.40482 -3.37872 0
M  V30 21032 C 1957.55 5.48472 -2.69484 0
M  V30 21033 C 1958.55 5.79511 -3.61464 0
M  V30 21034 O 1958.24 6.48295 -4.75361 0
M  V30 21035 H 1957.97 0.669968 -0.0901075 0
M  V30 21036 H 1960.52 1.84531 -0.902089 0
M  V30 21037 H 1958.75 3.79348 0.75046 0
M  V30 21038 H 1960.44 4.03819 0.410502 0
M  V30 21039 H 1961.21 4.3969 -2.04689 0
M  V30 21040 H 1957.09 4.53495 -0.828469 0
M  V30 21041 H 1960.63 5.64627 -4.09686 0
M  V30 21042 H 1956.53 5.78203 -2.86969 0
M  V30 21043 H 1957.3 6.66781 -4.74706 0
M  V30 21044 N 1959.96 0.40173 1.52394 0
M  V30 21045 C 1960.91 -0.427385 2.26808 0
M  V30 21046 C 1961.88 -1.04733 1.28919 0
M  V30 21047 O 1963.06 -1.073 1.5777 0
M  V30 21048 C 1960.2 -1.54211 3.08728 0
M  V30 21049 C 1959.32 -0.943809 4.21564 0
M  V30 21050 C 1958.45 -2.03061 4.90856 0
M  V30 21051 C 1957.49 -1.40886 5.95666 0
M  V30 21052 N 1956.63 -2.4355 6.58504 0
M  V30 21053 H 1961.47 0.21363 2.97233 0
M  V30 21054 H 1959 0.117187 1.46632 0
M  V30 21055 H 1960.96 -2.1993 3.54523 0
M  V30 21056 H 1959.59 -2.15326 2.40488 0
M  V30 21057 H 1958.64 -0.175875 3.79993 0
M  V30 21058 H 1959.96 -0.449559 4.9677 0
M  V30 21059 H 1959.11 -2.76523 5.40018 0
M  V30 21060 H 1957.85 -2.5585 4.15201 0
M  V30 21061 H 1956.85 -0.659546 5.4583 0
M  V30 21062 H 1958.08 -0.888766 6.73259 0
M  V30 21063 H 1956.02 -2.95484 5.85683 0
M  V30 21064 H 1955.94 -1.98916 7.29362 0
M  V30 21065 H 1957.21 -3.16604 7.12308 0
M  V30 21066 N 1961.44 -1.57047 0.131923 0
M  V30 21067 C 1962.37 -2.11735 -0.851089 0
M  V30 21068 C 1963.35 -1.03702 -1.25239 0
M  V30 21069 O 1964.53 -1.31438 -1.35116 0
M  V30 21070 C 1961.66 -2.62468 -2.14075 0
M  V30 21071 C 1960.71 -3.82508 -1.88653 0
M  V30 21072 S 1961.54 -5.24266 -1.09112 0
M  V30 21073 C 1962.7 -5.78377 -2.3923 0
M  V30 21074 H 1962.93 -2.94784 -0.385975 0
M  V30 21075 H 1960.46 -1.54182 -0.0820933 0
M  V30 21076 H 1962.42 -2.92351 -2.88169 0
M  V30 21077 H 1961.08 -1.79578 -2.57703 0
M  V30 21078 H 1960.27 -4.16198 -2.84245 0
M  V30 21079 H 1959.88 -3.53308 -1.22675 0
M  V30 21080 H 1962.17 -5.8889 -3.34985 0
M  V30 21081 H 1963.11 -6.76223 -2.10066 0
M  V30 21082 H 1963.52 -5.06523 -2.49189 0
M  V30 21083 N 1962.92 0.141865 -1.5696 0
M  V30 21084 C 1964.14 0.868403 -1.87793 0
M  V30 21085 C 1964.56 1.74504 -0.720691 0
M  V30 21086 O 1963.92 1.79859 0.309372 0
M  V30 21087 C 1963.97 1.72086 -3.17913 0
M  V30 21088 O 1963.69 0.879548 -4.2918 0
M  V30 21089 C 1965.19 2.55454 -3.62296 0
M  V30 21090 H 1962.41 0.250842 -0.62235 0
M  V30 21091 H 1964.95 0.133113 -2.04066 0
M  V30 21092 H 1963.11 2.40915 -3.03379 0
M  V30 21093 H 1963.52 1.4653 -5.03616 0
M  V30 21094 H 1965 3.10834 -4.56165 0
M  V30 21095 H 1965.47 3.31735 -2.87834 0
M  V30 21096 H 1966.08 1.91906 -3.79542 0
M  V30 21097 N 1964.39 1.52136 0.411372 0
M  V30 21098 C 1965.67 1.56646 1.17138 0
M  V30 21099 C 1966.05 0.346143 2.08243 0
M  V30 21100 O 1965.4 -0.66715 2.18544 0
M  V30 21101 C 1965.61 2.89399 1.95063 0
M  V30 21102 C 1966.96 3.42316 2.51207 0
M  V30 21103 O 1967.98 2.91123 2.05245 0
M  V30 21104 O 1966.84 4.31703 3.35104 0
M  V30 21105 H 1963.93 0.63088 0.534715 0
M  V30 21106 H 1966.48 1.64463 0.418334 0
M  V30 21107 H 1965.25 3.69666 1.28308 0
M  V30 21108 H 1964.88 2.84864 2.77377 0
M  V30 21109 N 1965.87 -0.668464 1.42721 0
M  V30 21110 C 1966.82 -1.78184 1.46694 0
M  V30 21111 C 1967.79 -1.63023 0.318213 0
M  V30 21112 O 1968.98 -1.83486 0.523198 0
M  V30 21113 C 1966.12 -3.16254 1.3812 0
M  V30 21114 C 1965.23 -3.42657 2.63078 0
M  V30 21115 C 1964.36 -4.7049 2.46602 0
M  V30 21116 C 1963.4 -4.89948 3.66902 0
M  V30 21117 N 1962.54 -6.09027 3.49329 0
M  V30 21118 H 1967.38 -1.74123 2.41837 0
M  V30 21119 H 1964.92 -0.849937 1.2006 0
M  V30 21120 H 1966.87 -3.96051 1.31146 0
M  V30 21121 H 1965.5 -3.19423 0.46569 0
M  V30 21122 H 1964.56 -2.57068 2.80393 0
M  V30 21123 H 1965.87 -3.52926 3.52484 0
M  V30 21124 H 1965.02 -5.58388 2.37249 0
M  V30 21125 H 1963.76 -4.62515 1.54696 0
M  V30 21126 H 1962.77 -4.0049 3.7668 0
M  V30 21127 H 1963.99 -4.99764 4.59797 0
M  V30 21128 H 1961.94 -6.02213 2.60146 0
M  V30 21129 H 1961.85 -6.20186 4.32326 0
M  V30 21130 H 1963.12 -6.99587 3.438 0
M  V30 21131 N 1967.35 -1.28999 -0.905381 0
M  V30 21132 C 1968.3 -1.13515 -2.0302 0
M  V30 21133 C 1969.29 -0.0522132 -1.6932 0
M  V30 21134 O 1970.5 -0.211599 -1.78752 0
M  V30 21135 H 1966.87 -0.350474 -0.665336 0
M  V30 21136 H 1968.85 -2.08758 -2.13219 0
M  V30 21137 C 1967.59 -0.822531 -3.37831 0
M  V30 21138 H 1966.92 -1.64783 -3.64262 0
M  V30 21139 H 1968.36 -0.754193 -4.17238 0
M  V30 21140 C 1966.82 0.474033 -3.33548 0
M  V30 21141 O 1967.35 1.50182 -3.7257 0
M  V30 21142 N 1965.55 0.477812 -2.86645 0
M  V30 21143 H 1965.1 -0.359023 -2.55086 0
M  V30 21144 H 1965.06 1.34533 -2.84162 0
M  V30 21145 N 1968.83 1.11497 -1.11383 0
M  V30 21146 C 1970.08 1.83222 -0.862314 0
M  V30 21147 C 1970.4 1.84619 0.612047 0
M  V30 21148 O 1969.66 1.29435 1.46782 0
M  V30 21149 C 1969.96 3.30169 -1.36832 0
M  V30 21150 C 1969.62 3.48933 -2.85581 0
M  V30 21151 C 1968.29 3.53762 -3.26199 0
M  V30 21152 C 1970.64 3.55237 -3.81387 0
M  V30 21153 C 1967.97 3.6245 -4.61353 0
M  V30 21154 C 1970.32 3.65455 -5.16358 0
M  V30 21155 C 1968.98 3.68544 -5.56535 0
M  V30 21156 H 1968.25 0.670458 -0.315543 0
M  V30 21157 H 1970.9 1.31499 -1.39213 0
M  V30 21158 H 1969.2 3.84383 -0.75873 0
M  V30 21159 H 1970.9 3.84154 -1.15006 0
M  V30 21160 H 1967.49 3.45844 -2.53159 0
M  V30 21161 H 1971.68 3.50767 -3.51107 0
M  V30 21162 H 1966.93 3.63118 -4.9189 0
M  V30 21163 H 1971.11 3.69276 -5.9043 0
M  V30 21164 H 1968.73 3.75029 -6.61255 0
M  V30 21165 N 1970.31 0.904053 1.29092 0
M  V30 21166 C 1971.24 0.401805 2.30017 0
M  V30 21167 C 1972.22 -0.525477 1.6178 0
M  V30 21168 O 1973.4 -0.435279 1.89259 0
M  V30 21169 C 1970.53 -0.367656 3.45348 0
M  V30 21170 C 1969.49 0.469596 4.25416 0
M  V30 21171 C 1968.81 -0.427624 5.32987 0
M  V30 21172 C 1970.11 1.7218 4.93104 0
M  V30 21173 H 1971.81 1.24523 2.72276 0
M  V30 21174 H 1969.35 0.600215 1.30895 0
M  V30 21175 H 1971.31 -0.729791 4.15033 0
M  V30 21176 H 1970.03 -1.2449 3.01944 0
M  V30 21177 H 1968.69 0.814119 3.57446 0
M  V30 21178 H 1968.34 -1.30313 4.85827 0
M  V30 21179 H 1968.04 0.128909 5.87459 0
M  V30 21180 H 1969.56 -0.785855 6.05522 0
M  V30 21181 H 1970.98 1.42914 5.55201 0
M  V30 21182 H 1969.37 2.21999 5.57527 0
M  V30 21183 H 1970.44 2.45526 4.18145 0
M  V30 21184 N 1971.79 -1.4279 0.666995 0
M  V30 21185 C 1973.03 -2.01245 0.185662 0
M  V30 21186 C 1973.35 -1.52966 -1.2094 0
M  V30 21187 O 1972.62 -0.748036 -1.81056 0
M  V30 21188 H 1971.2 -0.74411 0.0656484 0
M  V30 21189 H 1973.87 -1.74814 0.861754 0
M  V30 21190 H 1972.96 -3.11575 0.180905 0
M  V30 21191 N 1973.26 -0.409806 -1.52179 0
M  V30 21192 C 1974.68 -0.0607174 -1.59484 0
M  V30 21193 C 1974.88 1.42703 -1.42261 0
M  V30 21194 O 1973.94 2.19394 -1.24991 0
M  V30 21195 C 1975.25 -0.556238 -2.95511 0
M  V30 21196 C 1976.8 -0.514272 -3.08746 0
M  V30 21197 C 1977.27 -0.986314 -4.47254 0
M  V30 21198 N 1978.76 -0.943162 -4.53496 0
M  V30 21199 C 1979.5 -1.27959 -5.5894 0
M  V30 21200 N 1978.99 -1.6875 -6.71934 0
M  V30 21201 N 1980.79 -1.19951 -5.49152 0
M  V30 21202 H 1972.94 -1.37813 -1.61621 0
M  V30 21203 H 1975.2 -0.566181 -0.760357 0
M  V30 21204 H 1974.91 -1.5961 -3.13397 0
M  V30 21205 H 1974.78 0.033749 -3.77185 0
M  V30 21206 H 1977.17 0.516546 -2.90544 0
M  V30 21207 H 1977.25 -1.14032 -2.28977 0
M  V30 21208 H 1976.89 -2.01546 -4.66199 0
M  V30 21209 H 1976.82 -0.337071 -5.2552 0
M  V30 21210 H 1979.31 -0.64326 -3.72385 0
M  V30 21211 H 1979.63 -1.9273 -7.48381 0
M  V30 21212 H 1977.97 -1.72654 -6.73213 0
M  V30 21213 H 1981.16 -0.879693 -4.5976 0
M  V30 21214 H 1981.34 -1.465 -6.31222 0
M  V30 21215 N 1974.74 1.56975 -0.14025 0
M  V30 21216 C 1976.15 1.82757 0.381688 0
M  V30 21217 C 1976.5 1.0586 1.65191 0
M  V30 21218 O 1975.63 0.301768 2.14286 0
M  V30 21219 C 1976.22 3.31505 0.699272 0
M  V30 21220 C 1974.78 3.57892 1.16576 0
M  V30 21221 C 1973.93 2.7668 0.185351 0
M  V30 21222 H 1976.88 1.54444 -0.365058 0
M  V30 21223 H 1976.9 3.47292 1.55462 0
M  V30 21224 H 1976.41 3.87445 -0.225394 0
M  V30 21225 H 1974.51 3.07332 2.1066 0
M  V30 21226 H 1974.63 4.66386 1.0964 0
M  V30 21227 H 1972.99 2.45548 0.676642 0
M  V30 21228 H 1973.77 3.35388 -0.732787 0
M  V30 21229 N 1976.22 -0.133539 1.57033 0
M  V30 21230 C 1977.47 -0.845109 1.84352 0
M  V30 21231 C 1977.8 -1.80205 0.723864 0
M  V30 21232 O 1977.07 -1.92596 -0.271485 0
M  V30 21233 C 1977.36 -1.6078 3.22214 0
M  V30 21234 C 1977.21 -0.671438 4.4476 0
M  V30 21235 C 1978.53 -2.56728 3.57462 0
M  V30 21236 H 1975.65 -0.305783 0.670571 0
M  V30 21237 H 1978.29 -0.109825 1.89682 0
M  V30 21238 H 1976.44 -2.23461 3.17801 0
M  V30 21239 H 1978.11 -0.0545922 4.61268 0
M  V30 21240 H 1976.35 0.018069 4.33796 0
M  V30 21241 H 1977.03 -1.24142 5.37859 0
M  V30 21242 H 1979.5 -2.04159 3.62572 0
M  V30 21243 H 1978.38 -3.07133 4.54929 0
M  V30 21244 H 1978.64 -3.38717 2.84119 0
M  V30 21245 N 1977.7 -1.52352 -0.403298 0
M  V30 21246 C 1978.61 -1.79011 -1.51631 0
M  V30 21247 C 1979.62 -0.676014 -1.60331 0
M  V30 21248 O 1980.8 -0.962058 -1.76936 0
M  V30 21249 C 1977.86 -1.94046 -2.8731 0
M  V30 21250 C 1976.93 -3.17955 -2.88449 0
M  V30 21251 C 1976.16 -3.32264 -4.17656 0
M  V30 21252 O 1976.38 -2.51703 -5.11861 0
M  V30 21253 O 1975.32 -4.25446 -4.25769 0
M  V30 21254 H 1979.14 -2.73495 -1.32038 0
M  V30 21255 H 1976.73 -1.37268 -0.589733 0
M  V30 21256 H 1978.61 -2.05724 -3.67771 0
M  V30 21257 H 1977.28 -1.02752 -3.06959 0
M  V30 21258 H 1976.19 -3.11731 -2.0682 0
M  V30 21259 H 1977.52 -4.0905 -2.7375 0
M  V30 21260 N 1979.18 0.660885 -1.43074 0
M  V30 21261 C 1980.42 1.42296 -1.44498 0
M  V30 21262 C 1980.75 1.94087 -0.0661594 0
M  V30 21263 O 1980.03 1.71803 0.911806 0
M  V30 21264 C 1980.31 2.60995 -2.481 0
M  V30 21265 C 1980.17 2.14746 -3.95227 0
M  V30 21266 C 1981.48 3.63212 -2.48526 0
M  V30 21267 H 1978.6 0.516071 -0.526156 0
M  V30 21268 H 1981.25 0.749896 -1.74575 0
M  V30 21269 H 1979.4 3.18417 -2.22583 0
M  V30 21270 H 1981.07 1.62384 -4.31774 0
M  V30 21271 H 1979.31 1.46188 -4.08426 0
M  V30 21272 H 1979.98 3.00068 -4.63318 0
M  V30 21273 H 1982.46 3.15534 -2.71251 0
M  V30 21274 H 1981.33 4.43825 -3.22971 0
M  V30 21275 H 1981.59 4.15285 -1.51626 0
M  V30 21276 N 1980.65 1.29477 0.898527 0
M  V30 21277 C 1981.58 1.17262 2.01921 0
M  V30 21278 C 1982.57 0.0665442 1.6997 0
M  V30 21279 O 1983.75 0.246223 1.92633 0
M  V30 21280 C 1980.88 0.849575 3.36748 0
M  V30 21281 C 1979.83 1.91209 3.82914 0
M  V30 21282 C 1979.16 1.44234 5.14879 0
M  V30 21283 C 1980.46 3.32113 4.03111 0
M  V30 21284 H 1982.15 2.11015 2.12398 0
M  V30 21285 H 1979.7 1.01592 1.02054 0
M  V30 21286 H 1981.65 0.750826 4.14657 0
M  V30 21287 H 1980.38 -0.123652 3.26366 0
M  V30 21288 H 1979.04 2.00025 3.07222 0
M  V30 21289 H 1978.68 0.457753 5.00913 0
M  V30 21290 H 1978.38 2.15293 5.46738 0
M  V30 21291 H 1979.91 1.35711 5.95327 0
M  V30 21292 H 1981.32 3.26133 4.71498 0
M  V30 21293 H 1979.72 4.0114 4.46326 0
M  V30 21294 H 1980.79 3.75004 3.07408 0
M  V30 21295 N 1982.13 -1.10905 1.11972 0
M  V30 21296 C 1983.06 -2.19168 0.805461 0
M  V30 21297 C 1984.04 -1.68557 -0.228623 0
M  V30 21298 O 1985.23 -1.93987 -0.0908778 0
M  V30 21299 C 1982.36 -3.4637 0.253951 0
M  V30 21300 C 1981.31 -4.10228 1.22054 0
M  V30 21301 C 1980.64 -5.32072 0.529483 0
M  V30 21302 C 1981.94 -4.54506 2.57336 0
M  V30 21303 H 1983.63 -2.45713 1.71071 0
M  V30 21304 H 1981.18 -1.18096 0.823969 0
M  V30 21305 H 1983.13 -4.21394 0.0218576 0
M  V30 21306 H 1981.86 -3.19301 -0.68662 0
M  V30 21307 H 1980.51 -3.37204 1.43836 0
M  V30 21308 H 1980.16 -5.01276 -0.416074 0
M  V30 21309 H 1979.86 -5.75748 1.17422 0
M  V30 21310 H 1981.39 -6.09831 0.306313 0
M  V30 21311 H 1982.8 -5.20826 2.3961 0
M  V30 21312 H 1981.2 -5.09015 3.17842 0
M  V30 21313 H 1982.27 -3.67671 3.16143 0
M  V30 21314 N 1983.61 -0.910886 -1.2861 0
M  V30 21315 C 1984.56 -0.387197 -2.29355 0
M  V30 21316 C 1985.55 0.519603 -1.61234 0
M  V30 21317 O 1986.76 0.401165 -1.75473 0
M  V30 21318 H 1983.13 -0.106607 -0.744405 0
M  V30 21319 H 1985.1 -1.25002 -2.70956 0
M  V30 21320 C 1983.85 0.360115 -3.4583 0
M  V30 21321 H 1983.18 -0.328438 -3.98449 0
M  V30 21322 H 1984.62 0.69123 -4.18328 0
M  V30 21323 C 1983.08 1.56695 -2.98242 0
M  V30 21324 O 1983.61 2.66609 -3.00471 0
M  V30 21325 N 1981.81 1.41295 -2.53937 0
M  V30 21326 H 1981.36 0.51873 -2.52323 0
M  V30 21327 H 1981.32 2.22172 -2.22457 0
M  V30 21328 N 1985.09 1.42434 -0.674558 0
M  V30 21329 C 1986.37 1.95196 -0.125683 0
M  V30 21330 C 1986.75 1.61499 1.35946 0
M  V30 21331 O 1986.09 0.911023 2.09553 0
M  V30 21332 C 1986.3 3.46762 -0.39457 0
M  V30 21333 C 1987.65 4.2346 -0.310951 0
M  V30 21334 O 1988.68 3.54684 -0.328304 0
M  V30 21335 O 1987.53 5.45914 -0.252937 0
M  V30 21336 H 1984.63 0.826995 -0.00272875 0
M  V30 21337 H 1987.17 1.52263 -0.749271 0
M  V30 21338 H 1985.95 3.64493 -1.42339 0
M  V30 21339 H 1985.57 3.96742 0.261037 0
M  V30 21340 N 1986.57 0.417871 1.51959 0
M  V30 21341 C 1987.84 -0.214034 1.94425 0
M  V30 21342 C 1988.22 -1.61845 1.35534 0
M  V30 21343 O 1987.57 -2.22158 0.534606 0
M  V30 21344 C 1987.78 -0.211518 3.48358 0
M  V30 21345 C 1989.13 -0.426614 4.22451 0
M  V30 21346 O 1990.15 -0.290493 3.55013 0
M  V30 21347 O 1989.01 -0.695682 5.42054 0
M  V30 21348 H 1986.11 -0.140439 0.814988 0
M  V30 21349 H 1988.65 0.474446 1.62933 0
M  V30 21350 H 1987.42 0.771087 3.83627 0
M  V30 21351 H 1987.05 -0.943731 3.86238 0
M  V30 21352 N 1988.04 -1.56898 0.148573 0
M  V30 21353 C 1988.97 -2.19852 -0.786585 0
M  V30 21354 C 1989.96 -1.14723 -1.2559 0
M  V30 21355 O 1991.14 -1.43071 -1.31317 0
M  V30 21356 C 1988.27 -2.82137 -2.02524 0
M  V30 21357 C 1987.22 -3.93108 -1.69264 0
M  V30 21358 C 1986.55 -4.42335 -3.00407 0
M  V30 21359 C 1987.85 -5.13807 -0.938092 0
M  V30 21360 H 1989.54 -2.98252 -0.261903 0
M  V30 21361 H 1987.09 -1.43461 -0.124531 0
M  V30 21362 H 1989.04 -3.24845 -2.68428 0
M  V30 21363 H 1987.77 -2.01071 -2.57368 0
M  V30 21364 H 1986.43 -3.5102 -1.05739 0
M  V30 21365 H 1986.07 -3.58089 -3.53244 0
M  V30 21366 H 1985.77 -5.17185 -2.78915 0
M  V30 21367 H 1987.3 -4.87714 -3.67378 0
M  V30 21368 H 1988.71 -5.53349 -1.49924 0
M  V30 21369 H 1987.11 -5.94429 -0.823062 0
M  V30 21370 H 1988.18 -4.8485 0.0698825 0
M  V30 21371 N 1989.52 0.125209 -1.57102 0
M  V30 21372 C 1990.77 0.832627 -1.83712 0
M  V30 21373 C 1991.08 1.81336 -0.733261 0
M  V30 21374 O 1992.29 2.56651 -0.885592 0
M  V30 21375 C 1990.75 1.53143 -3.25692 0
M  V30 21376 C 1990.35 0.592004 -4.44071 0
M  V30 21377 C 1992.1 2.22435 -3.61556 0
M  V30 21378 C 1990.01 1.29368 -5.77077 0
M  V30 21379 H 1988.94 0.314685 -0.685193 0
M  V30 21380 H 1991.59 0.0853544 -1.83301 0
M  V30 21381 H 1989.97 2.32511 -3.20554 0
M  V30 21382 H 1991.14 -0.16801 -4.60494 0
M  V30 21383 H 1989.46 0.00637692 -4.164 0
M  V30 21384 H 1992.05 2.75611 -4.58195 0
M  V30 21385 H 1992.4 2.99947 -2.88683 0
M  V30 21386 H 1992.93 1.49962 -3.68451 0
M  V30 21387 H 1989.67 0.559975 -6.53104 0
M  V30 21388 H 1989.19 2.02586 -5.64552 0
M  V30 21389 H 1990.87 1.8286 -6.20622 0
M  V30 21390 N 1991 1.52564 0.395213 0
M  V30 21391 C 1992.25 1.67552 1.14254 0
M  V30 21392 C 1992.58 0.411135 1.89798 0
M  V30 21393 O 1991.85 -0.590891 1.85307 0
M  V30 21394 C 1992.14 2.90657 2.1258 0
M  V30 21395 C 1991.99 4.27181 1.40841 0
M  V30 21396 C 1993.31 3.09301 3.13083 0
M  V30 21397 H 1990.43 0.609735 0.413995 0
M  V30 21398 H 1993.07 1.85148 0.426634 0
M  V30 21399 H 1991.22 2.75787 2.73631 0
M  V30 21400 H 1992.89 4.53808 0.82802 0
M  V30 21401 H 1991.14 4.27946 0.71028 0
M  V30 21402 H 1991.81 5.09393 2.12656 0
M  V30 21403 H 1994.28 3.23162 2.62118 0
M  V30 21404 H 1993.16 3.96925 3.79133 0
M  V30 21405 H 1993.42 2.23237 3.81599 0
M  V30 21406 N 1992.48 -0.653289 1.43422 0
M  V30 21407 C 1993.7 -1.4459 1.4869 0
M  V30 21408 C 1994.13 -1.87801 0.10599 0
M  V30 21409 O 1993.49 -1.5737 -0.90025 0
M  V30 21410 C 1993.53 -2.65713 2.43781 0
M  V30 21411 O 1992.64 -3.64767 1.92402 0
M  V30 21412 H 1991.98 -0.433532 0.502938 0
M  V30 21413 H 1994.51 -0.799423 1.88336 0
M  V30 21414 H 1994.52 -3.13528 2.61082 0
M  V30 21415 H 1993.19 -2.33604 3.44096 0
M  V30 21416 H 1991.77 -3.2391 1.84761 0
M  V30 21417 N 1993.96 -1.29952 -0.891648 0
M  V30 21418 C 1995.18 -1.21297 -1.67615 0
M  V30 21419 C 1995.6 0.225203 -1.87452 0
M  V30 21420 O 1994.96 1.14977 -1.41727 0
M  V30 21421 C 1995.01 -1.93074 -3.05622 0
M  V30 21422 O 1994.73 -3.31276 -2.86684 0
M  V30 21423 C 1996.23 -1.90996 -4.00044 0
M  V30 21424 H 1993.45 -0.420057 -0.523253 0
M  V30 21425 H 1995.99 -1.71463 -1.11448 0
M  V30 21426 H 1994.15 -1.46724 -3.5854 0
M  V30 21427 H 1994.56 -3.67538 -3.74187 0
M  V30 21428 H 1996.04 -2.45768 -4.94269 0
M  V30 21429 H 1996.51 -0.887331 -4.30143 0
M  V30 21430 H 1997.12 -2.37127 -3.53059 0
M  V30 21431 N 1995.44 1.1031 -1.12559 0
M  V30 21432 C 1996.68 1.81937 -0.879957 0
M  V30 21433 C 1997 1.85675 0.595811 0
M  V30 21434 O 1996.27 1.33574 1.433 0
M  V30 21435 H 1994.85 0.67377 -0.322556 0
M  V30 21436 H 1997.52 1.33464 -1.42033 0
M  V30 21437 H 1996.61 2.8542 -1.26261 0
M  V30 21438 N 1996.91 0.917694 1.28125 0
M  V30 21439 C 1998.16 0.552896 1.94806 0
M  V30 21440 C 1998.49 -0.904113 1.72209 0
M  V30 21441 O 1997.74 -1.65876 1.03844 0
M  V30 21442 C 1998.04 0.813214 3.48025 0
M  V30 21443 C 1997.71 2.25039 3.90728 0
M  V30 21444 C 1996.37 2.64331 4.02098 0
M  V30 21445 C 1998.72 3.18545 4.12527 0
M  V30 21446 C 1996.05 3.96274 4.32647 0
M  V30 21447 C 1998.4 4.50058 4.44557 0
M  V30 21448 C 1997.07 4.89198 4.54138 0
M  V30 21449 H 1996.34 0.202319 0.712845 0
M  V30 21450 H 1998.98 1.15976 1.52387 0
M  V30 21451 H 1997.29 0.123579 3.91605 0
M  V30 21452 H 1998.99 0.510076 3.97743 0
M  V30 21453 H 1995.58 1.93551 3.82408 0
M  V30 21454 H 1999.76 2.89395 4.03192 0
M  V30 21455 H 1995.02 4.26295 4.38272 0
M  V30 21456 H 1999.19 5.22523 4.60372 0
M  V30 21457 H 1996.82 5.91469 4.77565 0
M  V30 21458 N 1998.39 -1.42074 0.682102 0
M  V30 21459 C 1999.64 -2.01037 0.206997 0
M  V30 21460 C 1999.96 -1.5424 -1.19311 0
M  V30 21461 O 1999.23 -0.767197 -1.80252 0
M  V30 21462 H 1997.81 -0.743372 0.073537 0
M  V30 21463 H 2000.47 -1.7389 0.880247 0
M  V30 21464 H 1999.57 -3.11366 0.213942 0
M  V30 21465 N 1999.87 -0.425924 -1.51735 0
M  V30 21466 C 2001.09 0.145767 -2.06887 0
M  V30 21467 C 2001.52 1.36671 -1.29239 0
M  V30 21468 O 2000.88 1.78323 -0.327176 0
M  V30 21469 C 2000.93 0.457951 -3.5768 0
M  V30 21470 O 2000.03 1.54629 -3.82314 0
M  V30 21471 H 1999.37 0.00686619 -0.663964 0
M  V30 21472 H 2001.9 -0.603968 -1.95482 0
M  V30 21473 H 2001.91 0.71173 -4.01744 0
M  V30 21474 H 2000.59 -0.434483 -4.13624 0
M  V30 21475 H 1999.16 1.28336 -3.5012 0
M  V30 21476 N 2001.35 1.56817 -0.156891 0
M  V30 21477 C 2002.6 1.96051 0.490764 0
M  V30 21478 C 2002.92 1.04326 1.64746 0
M  V30 21479 O 2002.19 0.106736 1.95609 0
M  V30 21480 H 2000.77 0.72391 0.184293 0
M  V30 21481 H 2003.43 1.93482 -0.234704 0
M  V30 21482 H 2002.52 3.00007 0.86036 0
M  V30 21483 N 2002.83 -0.116876 1.57166 0
M  V30 21484 C 2003.76 -1.14443 2.03531 0
M  V30 21485 C 2004.74 -1.43063 0.920159 0
M  V30 21486 O 2005.92 -1.53468 1.19001 0
M  V30 21487 C 2003.05 -2.47006 2.44142 0
M  V30 21488 C 2002.01 -2.32843 3.59121 0
M  V30 21489 C 2001.33 -3.70388 3.85639 0
M  V30 21490 C 2002.63 -1.78717 4.90772 0
M  V30 21491 H 2004.33 -0.75878 2.89625 0
M  V30 21492 H 2001.87 -0.363551 1.39335 0
M  V30 21493 H 2003.82 -3.19143 2.75184 0
M  V30 21494 H 2002.55 -2.87465 1.55021 0
M  V30 21495 H 2001.21 -1.63155 3.28293 0
M  V30 21496 H 2000.86 -4.08335 2.9372 0
M  V30 21497 H 2000.56 -3.61764 4.63034 0
M  V30 21498 H 2002.08 -4.44026 4.19134 0
M  V30 21499 H 2003.49 -2.40673 5.20336 0
M  V30 21500 H 2001.89 -1.80909 5.72182 0
M  V30 21501 H 2002.96 -0.744891 4.79144 0
M  V30 21502 N 2004.3 -1.52772 -0.387116 0
M  V30 21503 C 2005.27 -1.77036 -1.45571 0
M  V30 21504 C 2006.27 -0.64041 -1.47497 0
M  V30 21505 O 2007.46 -0.908478 -1.48635 0
M  V30 21506 C 2004.59 -1.87284 -2.84846 0
M  V30 21507 H 2005.78 -2.72452 -1.25339 0
M  V30 21508 H 2003.33 -1.43522 -0.61897 0
M  V30 21509 H 2004.07 -0.9386 -3.1042 0
M  V30 21510 H 2003.85 -2.6945 -2.84849 0
M  V30 21511 H 2005.34 -2.07723 -3.62272 0
M  V30 21512 N 2005.78 0.645673 -1.43767 0
M  V30 21513 C 2007.01 1.43303 -1.49237 0
M  V30 21514 C 2007.42 1.88464 -0.11261 0
M  V30 21515 O 2006.78 1.59955 0.878664 0
M  V30 21516 C 2006.83 2.66302 -2.4447 0
M  V30 21517 O 2006.55 2.23028 -3.77081 0
M  V30 21518 C 2008.05 3.59583 -2.59259 0
M  V30 21519 H 2005.27 0.439978 -0.506617 0
M  V30 21520 H 2007.82 0.790924 -1.88586 0
M  V30 21521 H 2005.97 3.26636 -2.08296 0
M  V30 21522 H 2006.39 3.02664 -4.28363 0
M  V30 21523 H 2007.86 4.42532 -3.29953 0
M  V30 21524 H 2008.34 4.07431 -1.64001 0
M  V30 21525 H 2008.94 3.05126 -2.96274 0
M  V30 21526 N 2007.26 1.30423 0.884744 0
M  V30 21527 C 2008.51 1.19435 1.63899 0
M  V30 21528 C 2008.84 -0.25033 1.9258 0
M  V30 21529 O 2008.11 -1.17904 1.5469 0
M  V30 21530 C 2008.4 2.02357 2.97865 0
M  V30 21531 C 2008.25 3.55046 2.76156 0
M  V30 21532 C 2009.57 1.86156 3.98791 0
M  V30 21533 H 2006.69 0.435234 0.594761 0
M  V30 21534 H 2009.33 1.60058 1.0238 0
M  V30 21535 H 2007.48 1.67842 3.50373 0
M  V30 21536 H 2009.15 3.99622 2.30434 0
M  V30 21537 H 2007.39 3.79218 2.10657 0
M  V30 21538 H 2008.07 4.08356 3.71415 0
M  V30 21539 H 2010.54 2.16332 3.55443 0
M  V30 21540 H 2009.42 2.46501 4.90437 0
M  V30 21541 H 2009.68 0.820775 4.34414 0
M  V30 21542 N 2008.74 -1.09711 1.13142 0
M  V30 21543 C 2009.69 -2.14427 0.774935 0
M  V30 21544 C 2010.67 -1.59253 -0.229633 0
M  V30 21545 O 2011.86 -1.76967 -0.0339935 0
M  V30 21546 C 2008.99 -3.42464 0.239406 0
M  V30 21547 C 2008.08 -4.04553 1.27271 0
M  V30 21548 N 2008.47 -4.41238 2.4727 0
M  V30 21549 C 2006.77 -4.31713 1.11981 0
M  V30 21550 C 2007.47 -4.90112 3.13313 0
M  V30 21551 N 2006.44 -4.87385 2.40742 0
M  V30 21552 H 2010.25 -2.40592 1.68798 0
M  V30 21553 H 2007.76 -1.26909 1.0133 0
M  V30 21554 H 2009.76 -4.16886 -0.0342127 0
M  V30 21555 H 2008.42 -3.17754 -0.667996 0
M  V30 21556 H 2009.43 -4.32694 2.84598 0
M  V30 21557 H 2006.11 -4.16624 0.270323 0
M  V30 21558 H 2007.5 -5.27985 4.1555 0
M  V30 21559 N 2010.22 -0.924476 -1.27637 0
M  V30 21560 C 2011.46 -0.564054 -1.94798 0
M  V30 21561 C 2011.8 0.891863 -1.72509 0
M  V30 21562 O 2011.07 1.63577 -1.05228 0
M  V30 21563 C 2011.35 -0.886888 -3.49008 0
M  V30 21564 C 2011.21 -2.39632 -3.80653 0
M  V30 21565 C 2012.53 -0.390514 -4.38364 0
M  V30 21566 H 2009.64 -0.206399 -0.707509 0
M  V30 21567 H 2012.29 -1.15567 -1.50812 0
M  V30 21568 H 2010.44 -0.383406 -3.86603 0
M  V30 21569 H 2012.11 -2.97125 -3.52866 0
M  V30 21570 H 2010.35 -2.84685 -3.27318 0
M  V30 21571 H 2011.02 -2.57274 -4.88379 0
M  V30 21572 H 2013.5 -0.821972 -4.07901 0
M  V30 21573 H 2012.37 -0.645381 -5.45093 0
M  V30 21574 H 2012.64 0.709365 -4.36372 0
M  V30 21575 N 2011.69 1.41711 -0.689627 0
M  V30 21576 C 2012.92 2.05652 -0.226938 0
M  V30 21577 C 2013.34 1.51875 1.12158 0
M  V30 21578 O 2012.69 0.664544 1.69971 0
M  V30 21579 C 2012.75 3.61102 -0.169503 0
M  V30 21580 O 2012.47 4.12888 -1.46475 0
M  V30 21581 C 2013.97 4.4218 0.314894 0
M  V30 21582 H 2011.19 0.66244 -0.10684 0
M  V30 21583 H 2013.73 1.81588 -0.940538 0
M  V30 21584 H 2011.89 3.84226 0.49488 0
M  V30 21585 H 2012.3 5.06884 -1.34791 0
M  V30 21586 H 2013.77 5.51162 0.303964 0
M  V30 21587 H 2014.25 4.17848 1.35275 0
M  V30 21588 H 2014.86 4.24107 -0.318278 0
M  V30 21589 N 2013.17 0.433965 1.51507 0
M  V30 21590 C 2014.4 -0.132403 2.06476 0
M  V30 21591 C 2014.82 -1.3675 1.30172 0
M  V30 21592 O 2014.17 -1.78907 0.360351 0
M  V30 21593 C 2014.22 -0.458007 3.58587 0
M  V30 21594 O 2013.94 0.728069 4.32008 0
M  V30 21595 C 2015.45 -1.07541 4.30058 0
M  V30 21596 H 2012.67 -0.00941889 0.670934 0
M  V30 21597 H 2015.21 0.612075 1.95125 0
M  V30 21598 H 2013.36 -1.15238 3.69863 0
M  V30 21599 H 2013.78 0.450318 5.22563 0
M  V30 21600 H 2015.25 -1.25326 5.37585 0
M  V30 21601 H 2015.73 -2.0555 3.88131 0
M  V30 21602 H 2016.34 -0.420519 4.23216 0
M  V30 21603 N 2014.65 -1.56732 0.165206 0
M  V30 21604 C 2015.9 -1.96988 -0.482024 0
M  V30 21605 C 2016.23 -1.05093 -1.63307 0
M  V30 21606 O 2015.5 -0.0968503 -1.94259 0
M  V30 21607 C 2015.79 -3.46766 -0.970842 0
M  V30 21608 C 2015.64 -4.4944 0.179956 0
M  V30 21609 C 2016.96 -3.99487 -1.84657 0
M  V30 21610 H 2014.08 -0.716228 -0.173741 0
M  V30 21611 H 2016.72 -1.88347 0.250108 0
M  V30 21612 H 2014.87 -3.54261 -1.59472 0
M  V30 21613 H 2016.54 -4.5401 0.81687 0
M  V30 21614 H 2014.79 -4.25661 0.836383 0
M  V30 21615 H 2015.46 -5.51623 -0.20409 0
M  V30 21616 H 2017.93 -3.94585 -1.32068 0
M  V30 21617 H 2016.81 -5.04715 -2.15763 0
M  V30 21618 H 2017.07 -3.42935 -2.79013 0
M  V30 21619 N 2016.13 0.10854 -1.57226 0
M  V30 21620 C 2017.37 0.815673 -1.85673 0
M  V30 21621 C 2017.71 1.79031 -0.752441 0
M  V30 21622 O 2016.98 1.93004 0.240811 0
M  V30 21623 C 2017.27 1.55633 -3.24731 0
M  V30 21624 C 2017.12 0.600595 -4.45772 0
M  V30 21625 C 2018.44 2.51009 -3.61501 0
M  V30 21626 H 2015.56 0.295076 -0.675351 0
M  V30 21627 H 2018.2 0.079634 -1.89833 0
M  V30 21628 H 2016.35 2.18377 -3.21316 0
M  V30 21629 H 2018.02 -0.0187984 -4.61296 0
M  V30 21630 H 2016.26 -0.0870799 -4.33713 0
M  V30 21631 H 2016.93 1.15569 -5.39766 0
M  V30 21632 H 2019.41 1.98365 -3.65774 0
M  V30 21633 H 2018.29 2.99857 -4.59758 0
M  V30 21634 H 2018.55 3.34154 -2.89472 0
M  V30 21635 N 2017.61 1.52975 0.379009 0
M  V30 21636 C 2018.56 1.74843 1.46335 0
M  V30 21637 C 2019.54 0.602675 1.49187 0
M  V30 21638 O 2020.73 0.860871 1.54655 0
M  V30 21639 C 2017.86 1.9297 2.83932 0
M  V30 21640 C 2016.95 3.13508 2.85611 0
M  V30 21641 N 2017.34 4.35673 2.5695 0
M  V30 21642 C 2015.64 3.13957 3.16776 0
M  V30 21643 C 2016.34 5.17337 2.65966 0
M  V30 21644 N 2015.31 4.53245 3.00116 0
M  V30 21645 H 2019.12 2.66916 1.23017 0
M  V30 21646 H 2016.63 1.51418 0.587064 0
M  V30 21647 H 2018.63 2.06761 3.62016 0
M  V30 21648 H 2017.29 1.02117 3.08224 0
M  V30 21649 H 2018.3 4.63635 2.30787 0
M  V30 21650 H 2014.97 2.32949 3.46469 0
M  V30 21651 H 2016.36 6.24747 2.47266 0
M  V30 21652 N 2019.08 -0.63804 1.44107 0
M  V30 21653 C 2020.03 -1.75032 1.5044 0
M  V30 21654 C 2021 -1.62312 0.352721 0
M  V30 21655 O 2022.19 -1.82335 0.562 0
M  V30 21656 C 2019.33 -3.13253 1.44798 0
M  V30 21657 C 2018.44 -3.37 2.70287 0
M  V30 21658 C 2017.57 -4.65154 2.56526 0
M  V30 21659 C 2016.61 -4.82055 3.77212 0
M  V30 21660 N 2015.75 -6.0148 3.62169 0
M  V30 21661 H 2020.59 -1.68954 2.45476 0
M  V30 21662 H 2018.13 -0.82428 1.21836 0
M  V30 21663 H 2020.09 -3.9318 1.39518 0
M  V30 21664 H 2018.72 -3.18364 0.53334 0
M  V30 21665 H 2017.77 -2.51062 2.85783 0
M  V30 21666 H 2019.08 -3.4537 3.5989 0
M  V30 21667 H 2018.23 -5.5323 2.4904 0
M  V30 21668 H 2016.97 -4.5913 1.64472 0
M  V30 21669 H 2015.98 -3.9241 3.8509 0
M  V30 21670 H 2017.2 -4.89898 4.70294 0
M  V30 21671 H 2015.15 -5.96559 2.72861 0
M  V30 21672 H 2015.07 -6.10876 4.45384 0
M  V30 21673 H 2016.33 -6.92137 3.58562 0
M  V30 21674 N 2020.56 -1.3089 -0.877815 0
M  V30 21675 C 2021.79 -1.23068 -1.66319 0
M  V30 21676 C 2022.21 0.205309 -1.8768 0
M  V30 21677 O 2021.56 1.13467 -1.42939 0
M  V30 21678 C 2021.61 -1.96305 -3.03557 0
M  V30 21679 O 2021.33 -3.34298 -2.83154 0
M  V30 21680 C 2022.84 -1.95228 -3.97996 0
M  V30 21681 H 2020.06 -0.425583 -0.518768 0
M  V30 21682 H 2022.6 -1.72636 -1.09623 0
M  V30 21683 H 2020.75 -1.50518 -3.56964 0
M  V30 21684 H 2021.17 -3.71486 -3.70268 0
M  V30 21685 H 2022.64 -2.50997 -4.91635 0
M  V30 21686 H 2023.12 -0.932904 -4.29178 0
M  V30 21687 H 2023.73 -2.40858 -3.50525 0
M  V30 21688 N 2022.04 1.0911 -1.13723 0
M  V30 21689 C 2023.27 1.85648 -0.924643 0
M  V30 21690 C 2023.69 1.80727 0.521458 0
M  V30 21691 O 2023.05 1.18712 1.3703 0
M  V30 21692 C 2023.1 3.31415 -1.42115 0
M  V30 21693 O 2022.2 4.07886 -0.608521 0
M  V30 21694 H 2021.54 0.575539 -0.331136 0
M  V30 21695 H 2024.07 1.37763 -1.5127 0
M  V30 21696 H 2024.08 3.82262 -1.42619 0
M  V30 21697 H 2022.76 3.34311 -2.47404 0
M  V30 21698 H 2021.33 3.66802 -0.671625 0
M  V30 21699 N 2023.52 0.931232 1.27145 0
M  V30 21700 C 2024.75 0.589956 1.98311 0
M  V30 21701 C 2025.16 -0.832836 1.69438 0
M  V30 21702 O 2024.52 -1.55399 0.956935 0
M  V30 21703 C 2024.57 0.810592 3.52295 0
M  V30 21704 O 2024.29 2.17741 3.80158 0
M  V30 21705 C 2025.79 0.478508 4.4071 0
M  V30 21706 H 2023.01 0.223234 0.632778 0
M  V30 21707 H 2025.56 1.24922 1.6191 0
M  V30 21708 H 2023.71 0.198081 3.86893 0
M  V30 21709 H 2024.12 2.23003 4.74731 0
M  V30 21710 H 2025.6 0.683566 5.47751 0
M  V30 21711 H 2026.08 -0.586102 4.35272 0
M  V30 21712 H 2026.68 1.06931 4.11638 0
M  V30 21713 N 2025 -1.41343 0.697132 0
M  V30 21714 C 2026.22 -2.06049 0.236356 0
M  V30 21715 C 2026.65 -1.52124 -1.10634 0
M  V30 21716 O 2026.01 -0.648852 -1.69291 0
M  V30 21717 C 2026.05 -3.6001 0.206185 0
M  V30 21718 O 2025.16 -4.04197 -0.818466 0
M  V30 21719 H 2024.5 -0.65395 0.115091 0
M  V30 21720 H 2027.03 -1.8108 0.952431 0
M  V30 21721 H 2027.04 -4.07983 0.0375737 0
M  V30 21722 H 2025.71 -3.98628 1.18612 0
M  V30 21723 H 2024.29 -3.67725 -0.619082 0
M  V30 21724 N 2026.48 -0.441993 -1.51275 0
M  V30 21725 C 2027.39 0.373145 -2.31613 0
M  V30 21726 C 2028.4 1.02333 -1.40726 0
M  V30 21727 O 2029.58 1.01768 -1.73796 0
M  V30 21728 C 2026.64 1.45705 -3.14597 0
M  V30 21729 C 2025.7 0.826508 -4.21269 0
M  V30 21730 C 2024.94 1.85876 -5.00286 0
M  V30 21731 O 2025.16 3.08159 -4.79994 0
M  V30 21732 O 2024.09 1.44671 -5.84255 0
M  V30 21733 H 2027.92 -0.282837 -3.0238 0
M  V30 21734 H 2025.5 -0.204432 -1.47995 0
M  V30 21735 H 2027.39 2.08556 -3.66172 0
M  V30 21736 H 2026.06 2.09703 -2.46589 0
M  V30 21737 H 2024.97 0.15982 -3.73758 0
M  V30 21738 H 2026.3 0.229942 -4.91663 0
M  V30 21739 N 2027.95 1.56642 -0.173515 0
M  V30 21740 C 2028.86 2.2166 0.768363 0
M  V30 21741 C 2029.88 1.20892 1.25144 0
M  V30 21742 O 2031.06 1.53561 1.30311 0
M  V30 21743 C 2028.12 2.84632 1.97953 0
M  V30 21744 C 2027.18 4.00608 1.54312 0
M  V30 21745 C 2026.41 4.60567 2.69655 0
M  V30 21746 O 2026.64 4.19419 3.8658 0
M  V30 21747 O 2025.57 5.50401 2.43604 0
M  V30 21748 H 2029.4 3.02712 0.244753 0
M  V30 21749 H 2026.98 1.493 0.0547846 0
M  V30 21750 H 2028.86 3.24553 2.68782 0
M  V30 21751 H 2027.54 2.06575 2.49215 0
M  V30 21752 H 2026.45 3.65352 0.804264 0
M  V30 21753 H 2027.78 4.80264 1.07738 0
M  V30 21754 N 2029.43 -0.1002 1.57281 0
M  V30 21755 C 2030.68 -0.805815 1.86103 0
M  V30 21756 C 2031.01 -1.78629 0.761925 0
M  V30 21757 O 2030.29 -1.93128 -0.230572 0
M  V30 21758 C 2030.57 -1.53909 3.25552 0
M  V30 21759 C 2030.42 -0.576946 4.46084 0
M  V30 21760 C 2031.74 -2.49088 3.62827 0
M  V30 21761 H 2028.86 -0.29149 0.676907 0
M  V30 21762 H 2031.5 -0.0695656 1.89873 0
M  V30 21763 H 2029.65 -2.16669 3.2247 0
M  V30 21764 H 2031.32 0.0432618 4.6128 0
M  V30 21765 H 2029.57 0.11008 4.3366 0
M  V30 21766 H 2030.24 -1.12705 5.40372 0
M  V30 21767 H 2032.71 -1.96423 3.66821 0
M  V30 21768 H 2031.59 -2.97415 4.61341 0
M  V30 21769 H 2031.85 -3.32614 2.9124 0
M  V30 21770 N 2030.91 -1.53174 -0.370891 0
M  V30 21771 C 2032.15 -1.70797 -1.12284 0
M  V30 21772 C 2032.51 -0.44749 -1.86712 0
M  V30 21773 O 2033.71 -0.500342 -2.64102 0
M  V30 21774 C 2031.99 -2.92004 -2.06078 0
M  V30 21775 S 2033.54 -3.30307 -2.88864 0
M  V30 21776 H 2030.36 -0.601048 -0.379819 0
M  V30 21777 H 2032.96 -1.91263 -0.404795 0
M  V30 21778 H 2031.67 -3.81946 -1.50152 0
M  V30 21779 H 2031.2 -2.73925 -2.82363 0
M  V30 21780 H 2033.21 -2.81906 -4.08342 0
M  V30 21781 N 2032.39 0.630389 -1.44443 0
M  V30 21782 C 2033.61 1.42206 -1.50971 0
M  V30 21783 C 2034.04 1.87609 -0.135854 0
M  V30 21784 O 2033.4 1.58782 0.8751 0
M  V30 21785 C 2033.44 2.61801 -2.47977 0
M  V30 21786 O 2032.55 3.6166 -1.98181 0
M  V30 21787 H 2031.89 0.425475 -0.509771 0
M  V30 21788 H 2034.42 0.769359 -1.89584 0
M  V30 21789 H 2034.43 3.09335 -2.66037 0
M  V30 21790 H 2033.1 2.281 -3.47769 0
M  V30 21791 H 2031.68 3.2093 -1.89891 0
M  V30 21792 N 2033.87 1.31354 0.870861 0
M  V30 21793 C 2035.11 1.20988 1.62383 0
M  V30 21794 C 2035.44 -0.232177 1.93109 0
M  V30 21795 O 2034.7 -1.1807 1.56071 0
M  V30 21796 C 2034.99 1.99835 2.96312 0
M  V30 21797 C 2034.66 3.49342 2.85081 0
M  V30 21798 C 2033.32 3.90108 2.81725 0
M  V30 21799 C 2035.67 4.44485 2.72181 0
M  V30 21800 C 2033 5.24286 2.63327 0
M  V30 21801 C 2035.35 5.78787 2.5532 0
M  V30 21802 C 2034.02 6.18775 2.50347 0
M  V30 21803 H 2033.29 0.442726 0.594201 0
M  V30 21804 H 2035.94 1.62609 1.01146 0
M  V30 21805 H 2034.24 1.50892 3.61578 0
M  V30 21806 H 2035.94 1.89196 3.53562 0
M  V30 21807 H 2032.53 3.16954 2.8851 0
M  V30 21808 H 2036.71 4.13921 2.7383 0
M  V30 21809 H 2031.97 5.54344 2.57901 0
M  V30 21810 H 2036.14 6.52137 2.44315 0
M  V30 21811 H 2033.77 7.22689 2.3585 0
M  V30 21812 N 2035.34 -1.08505 1.143 0
M  V30 21813 C 2036.57 -1.84347 0.932715 0
M  V30 21814 C 2036.98 -1.81853 -0.522138 0
M  V30 21815 O 2036.32 -1.21982 -1.37354 0
M  V30 21816 C 2036.39 -3.32995 1.3548 0
M  V30 21817 C 2036.05 -3.59226 2.82499 0
M  V30 21818 C 2037.05 -3.54154 3.80619 0
M  V30 21819 C 2034.73 -3.87269 3.19888 0
M  V30 21820 C 2036.73 -3.76754 5.14135 0
M  V30 21821 C 2034.41 -4.09522 4.5358 0
M  V30 21822 C 2035.41 -4.04258 5.50513 0
M  V30 21823 O 2035.1 -4.25928 6.81792 0
M  V30 21824 H 2034.83 -0.58885 0.332012 0
M  V30 21825 H 2037.39 -1.37951 1.5218 0
M  V30 21826 H 2035.62 -3.80144 0.70904 0
M  V30 21827 H 2037.3 -3.90271 1.11548 0
M  V30 21828 H 2038.07 -3.32505 3.5308 0
M  V30 21829 H 2033.95 -3.90487 2.45033 0
M  V30 21830 H 2037.49 -3.72561 5.89783 0
M  V30 21831 H 2033.39 -4.30655 4.80839 0
M  V30 21832 H 2034.16 -4.43339 6.88036 0
M  V30 21833 N 2036.82 -0.937962 -1.26649 0
M  V30 21834 C 2037.75 -0.462649 -2.28871 0
M  V30 21835 C 2038.73 0.4824 -1.63116 0
M  V30 21836 O 2039.92 0.384947 -1.90347 0
M  V30 21837 C 2037.05 0.275964 -3.46202 0
M  V30 21838 C 2036 -0.582222 -4.24021 0
M  V30 21839 C 2035.33 0.286161 -5.33934 0
M  V30 21840 C 2036.63 -1.85193 -4.88365 0
M  V30 21841 H 2038.32 -1.31698 -2.68879 0
M  V30 21842 H 2035.87 -0.634709 -1.29257 0
M  V30 21843 H 2037.82 0.619496 -4.16822 0
M  V30 21844 H 2036.54 1.1644 -3.05138 0
M  V30 21845 H 2035.2 -0.908604 -3.55162 0
M  V30 21846 H 2034.85 1.17386 -4.89111 0
M  V30 21847 H 2034.55 -0.284618 -5.8691 0
M  V30 21848 H 2036.08 0.625035 -6.07393 0
M  V30 21849 H 2037.49 -1.57584 -5.51217 0
M  V30 21850 H 2035.89 -2.36702 -5.51445 0
M  V30 21851 H 2036.96 -2.56526 -4.11488 0
M  V30 21852 N 2038.3 1.40971 -0.704618 0
M  V30 21853 C 2039.25 2.30756 -0.0450323 0
M  V30 21854 C 2040.22 1.47598 0.761835 0
M  V30 21855 O 2041.4 1.76365 0.728023 0
M  V30 21856 C 2038.54 3.33723 0.878802 0
M  V30 21857 C 2037.65 4.31955 0.0625832 0
M  V30 21858 C 2036.79 5.2199 0.984889 0
M  V30 21859 C 2035.83 6.11885 0.16211 0
M  V30 21860 N 2034.97 6.94374 1.0387 0
M  V30 21861 H 2039.81 2.86598 -0.816414 0
M  V30 21862 H 2037.34 1.41145 -0.414306 0
M  V30 21863 H 2039.3 3.9198 1.42856 0
M  V30 21864 H 2037.93 2.79409 1.61648 0
M  V30 21865 H 2036.98 3.75571 -0.604216 0
M  V30 21866 H 2038.29 4.95476 -0.574897 0
M  V30 21867 H 2037.45 5.85125 1.60356 0
M  V30 21868 H 2036.19 4.58717 1.65621 0
M  V30 21869 H 2035.19 5.47791 -0.469576 0
M  V30 21870 H 2036.42 6.77216 -0.505547 0
M  V30 21871 H 2034.36 6.337 1.69588 0
M  V30 21872 H 2034.28 7.54617 0.457006 0
M  V30 21873 H 2035.55 7.61969 1.6439 0
M  V30 21874 N 2039.78 0.45001 1.51039 0
M  V30 21875 C 2041.03 -0.113761 2.01379 0
M  V30 21876 C 2041.34 -1.42669 1.33809 0
M  V30 21877 O 2042.55 -2.07416 1.75188 0
M  V30 21878 C 2041 -0.253272 3.59008 0
M  V30 21879 C 2040.61 1.04997 4.35522 0
M  V30 21880 C 2042.35 -0.770131 4.17456 0
M  V30 21881 C 2040.26 0.875408 5.84885 0
M  V30 21882 H 2039.19 -0.0462899 0.752578 0
M  V30 21883 H 2041.84 0.581702 1.74036 0
M  V30 21884 H 2040.22 -1.01203 3.8285 0
M  V30 21885 H 2041.4 1.81805 4.23419 0
M  V30 21886 H 2039.71 1.49632 3.88586 0
M  V30 21887 H 2042.31 -0.917427 5.26771 0
M  V30 21888 H 2042.65 -1.75596 3.77454 0
M  V30 21889 H 2043.19 -0.0693371 3.9774 0
M  V30 21890 H 2039.93 1.83398 6.29321 0
M  V30 21891 H 2039.45 0.14735 5.99619 0
M  V30 21892 H 2041.12 0.533614 6.44796 0
M  V30 21893 N 2041.26 -1.56548 0.18182 0
M  V30 21894 C 2042.53 -1.88906 -0.507337 0
M  V30 21895 C 2042.91 -1.09334 -1.80581 0
M  V30 21896 O 2042.26 -0.190397 -2.27705 0
M  V30 21897 C 2042.47 -3.41085 -0.73904 0
M  V30 21898 C 2043.82 -4.11043 -1.06435 0
M  V30 21899 O 2044.84 -3.46461 -0.82722 0
M  V30 21900 O 2043.7 -5.2516 -1.51225 0
M  V30 21901 H 2040.8 -0.784135 -0.262794 0
M  V30 21902 H 2043.34 -1.68254 0.221041 0
M  V30 21903 H 2042.11 -3.90893 0.17847 0
M  V30 21904 H 2041.74 -3.67384 -1.52036 0
M  V30 21905 N 2042.73 0.0918577 -1.57332 0
M  V30 21906 C 2043.96 0.808218 -1.90461 0
M  V30 21907 C 2044.38 1.72122 -0.775843 0
M  V30 21908 O 2043.73 1.80752 0.251995 0
M  V30 21909 C 2043.79 1.61885 -3.23227 0
M  V30 21910 O 2043.51 0.742563 -4.31761 0
M  V30 21911 C 2045.01 2.43798 -3.7024 0
M  V30 21912 H 2042.23 0.230915 -0.630015 0
M  V30 21913 H 2044.77 0.0681235 -2.04387 0
M  V30 21914 H 2042.93 2.31142 -3.1089 0
M  V30 21915 H 2043.34 1.30433 -5.08023 0
M  V30 21916 H 2044.81 2.96164 -4.65823 0
M  V30 21917 H 2045.29 3.2241 -2.98242 0
M  V30 21918 H 2045.9 1.79734 -3.85455 0
M  V30 21919 N 2044.21 1.53368 0.362763 0
M  V30 21920 C 2045.14 1.76293 1.4647 0
M  V30 21921 C 2046.16 0.643758 1.49531 0
M  V30 21922 O 2047.35 0.920081 1.5296 0
M  V30 21923 C 2044.45 1.83034 2.85222 0
M  V30 21924 C 2043.62 3.12714 3.05825 0
M  V30 21925 C 2042.68 3.1066 4.24708 0
M  V30 21926 O 2041.7 3.84449 4.19747 0
M  V30 21927 N 2042.91 2.31677 5.32265 0
M  V30 21928 H 2045.67 2.71376 1.27183 0
M  V30 21929 H 2043.23 1.52181 0.552508 0
M  V30 21930 H 2045.22 1.79134 3.62895 0
M  V30 21931 H 2043.79 0.952227 2.97744 0
M  V30 21932 H 2043.01 3.29893 2.15788 0
M  V30 21933 H 2044.3 3.98409 3.16461 0
M  V30 21934 H 2043.7 1.71243 5.39159 0
M  V30 21935 H 2042.26 2.33593 6.08504 0
M  V30 21936 N 2045.69 -0.62272 1.44776 0
M  V30 21937 C 2046.97 -1.38145 1.38475 0
M  V30 21938 C 2047.35 -2.11046 0.0476847 0
M  V30 21939 O 2046.7 -2.0689 -0.969982 0
M  V30 21940 C 2046.91 -2.34088 2.58851 0
M  V30 21941 C 2048.25 -2.97162 3.03282 0
M  V30 21942 O 2049.28 -2.44412 2.59116 0
M  V30 21943 O 2048.14 -3.92874 3.79885 0
M  V30 21944 H 2045.23 -0.618685 0.548779 0
M  V30 21945 H 2047.78 -0.647072 1.56879 0
M  V30 21946 H 2046.55 -1.79376 3.47764 0
M  V30 21947 H 2046.17 -3.1493 2.42703 0
M  V30 21948 N 2047.17 -1.31814 -0.863883 0
M  V30 21949 C 2048.42 -1.21205 -1.61221 0
M  V30 21950 C 2048.73 0.227073 -1.94277 0
M  V30 21951 O 2049.94 0.454922 -2.67662 0
M  V30 21952 C 2048.39 -2.12221 -2.90672 0
M  V30 21953 C 2048 -3.61163 -2.65076 0
M  V30 21954 C 2049.74 -2.10427 -3.68674 0
M  V30 21955 C 2047.65 -4.44169 -3.90471 0
M  V30 21956 H 2046.58 -0.450072 -0.604939 0
M  V30 21957 H 2049.23 -1.56711 -0.954668 0
M  V30 21958 H 2047.61 -1.6962 -3.57834 0
M  V30 21959 H 2048.79 -4.12049 -2.06283 0
M  V30 21960 H 2047.1 -3.64995 -2.00418 0
M  V30 21961 H 2049.7 -2.69684 -4.61708 0
M  V30 21962 H 2050.04 -1.09293 -4.01697 0
M  V30 21963 H 2050.58 -2.5126 -3.08404 0
M  V30 21964 H 2047.32 -5.46082 -3.62595 0
M  V30 21965 H 2046.84 -3.98039 -4.48693 0
M  V30 21966 H 2048.51 -4.56696 -4.58299 0
M  V30 21967 N 2048.65 1.07897 -1.14873 0
M  V30 21968 C 2049.56 2.18494 -0.854259 0
M  V30 21969 C 2050.57 1.73194 0.167297 0
M  V30 21970 O 2051.75 2.01399 -0.00544437 0
M  V30 21971 C 2048.81 3.45013 -0.341649 0
M  V30 21972 C 2047.87 4.0491 -1.42641 0
M  V30 21973 C 2047.11 5.2539 -0.938165 0
M  V30 21974 O 2047.33 5.69982 0.218391 0
M  V30 21975 O 2046.26 5.76818 -1.71943 0
M  V30 21976 H 2050.09 2.46164 -1.77867 0
M  V30 21977 H 2047.68 1.1713 -0.927406 0
M  V30 21978 H 2049.56 4.21354 -0.0619573 0
M  V30 21979 H 2048.23 3.18907 0.554969 0
M  V30 21980 H 2047.14 3.30133 -1.75963 0
M  V30 21981 H 2048.47 4.35276 -2.29774 0
M  V30 21982 N 2050.12 0.944665 1.2615 0
M  V30 21983 C 2051.09 0.461547 2.24505 0
M  V30 21984 C 2052.09 -0.429277 1.54964 0
M  V30 21985 O 2053.28 -0.227965 1.72702 0
M  V30 21986 C 2050.41 -0.334363 3.39256 0
M  V30 21987 H 2051.6 1.33075 2.68758 0
M  V30 21988 H 2049.16 0.726968 1.38365 0
M  V30 21989 H 2049.89 -1.22167 3.00409 0
M  V30 21990 H 2049.68 0.304588 3.90915 0
M  V30 21991 H 2051.17 -0.662181 4.12317 0
M  V30 21992 N 2051.6 -1.40596 0.712085 0
M  V30 21993 C 2052.83 -2.05787 0.258197 0
M  V30 21994 C 2053.25 -1.53289 -1.09015 0
M  V30 21995 O 2052.61 -0.666771 -1.68594 0
M  V30 21996 C 2052.66 -3.59771 0.244357 0
M  V30 21997 O 2051.76 -4.05042 -0.77555 0
M  V30 21998 H 2051.1 -0.652692 0.12202 0
M  V30 21999 H 2053.63 -1.80059 0.971583 0
M  V30 22000 H 2053.64 -4.0792 0.0808437 0
M  V30 22001 H 2052.32 -3.97347 1.22834 0
M  V30 22002 H 2050.9 -3.68361 -0.580045 0
M  V30 22003 N 2053.08 -0.458013 -1.50798 0
M  V30 22004 C 2054.03 0.361282 -2.25119 0
M  V30 22005 C 2055.01 0.972627 -1.28175 0
M  V30 22006 O 2056.21 0.887343 -1.53151 0
M  V30 22007 C 2053.34 1.45021 -3.11165 0
M  V30 22008 C 2052.42 0.847244 -4.15551 0
M  V30 22009 N 2052.81 -0.0246437 -5.05794 0
M  V30 22010 C 2051.11 1.11261 -4.31899 0
M  V30 22011 C 2051.81 -0.365487 -5.80551 0
M  V30 22012 N 2050.79 0.256092 -5.42996 0
M  V30 22013 H 2054.59 -0.310578 -2.92254 0
M  V30 22014 H 2052.1 -0.271346 -1.60117 0
M  V30 22015 H 2054.1 2.05021 -3.63004 0
M  V30 22016 H 2052.76 2.1242 -2.45577 0
M  V30 22017 H 2053.77 -0.392565 -5.1641 0
M  V30 22018 H 2050.45 1.78256 -3.77533 0
M  V30 22019 H 2051.84 -1.07624 -6.63224 0
M  V30 22020 N 2054.56 1.56449 -0.190119 0
M  V30 22021 C 2055.79 2.01527 0.455038 0
M  V30 22022 C 2056.2 1.06944 1.56076 0
M  V30 22023 O 2055.54 0.0656127 1.83583 0
M  V30 22024 C 2055.6 3.43008 1.07637 0
M  V30 22025 C 2055.27 4.56868 0.109996 0
M  V30 22026 C 2056.26 5.1545 -0.678755 0
M  V30 22027 C 2053.95 5.023 0.000358787 0
M  V30 22028 C 2055.94 6.1791 -1.56416 0
M  V30 22029 C 2053.63 6.04605 -0.888608 0
M  V30 22030 C 2054.63 6.62283 -1.66944 0
M  V30 22031 O 2054.32 7.62601 -2.54351 0
M  V30 22032 H 2054.05 0.66543 0.119076 0
M  V30 22033 H 2056.6 2.03276 -0.29461 0
M  V30 22034 H 2054.83 3.38229 1.87451 0
M  V30 22035 H 2056.52 3.71923 1.62566 0
M  V30 22036 H 2057.29 4.8122 -0.604329 0
M  V30 22037 H 2053.17 4.57106 0.59794 0
M  V30 22038 H 2056.71 6.62858 -2.17407 0
M  V30 22039 H 2052.61 6.38259 -0.964167 0
M  V30 22040 H 2053.37 7.80001 -2.48075 0
M  V30 22041 N 2056.04 -0.0835127 1.57379 0
M  V30 22042 C 2057.45 -0.438018 1.53472 0
M  V30 22043 C 2057.65 -1.79853 0.908578 0
M  V30 22044 O 2056.71 -2.47377 0.506047 0
M  V30 22045 C 2058.02 -0.389855 2.98162 0
M  V30 22046 C 2059.57 -0.470883 3.09438 0
M  V30 22047 C 2060.05 -0.452749 4.55757 0
M  V30 22048 N 2061.54 -0.513166 4.60349 0
M  V30 22049 C 2062.27 -0.52116 5.71027 0
M  V30 22050 N 2061.77 -0.484668 6.91103 0
M  V30 22051 N 2063.56 -0.566841 5.59235 0
M  V30 22052 H 2055.71 0.807491 1.96452 0
M  V30 22053 H 2057.97 0.301793 0.89868 0
M  V30 22054 H 2057.68 0.542902 3.47484 0
M  V30 22055 H 2057.55 -1.20449 3.57452 0
M  V30 22056 H 2059.94 -1.39406 2.60096 0
M  V30 22057 H 2060.02 0.372104 2.53079 0
M  V30 22058 H 2059.67 0.466533 5.05753 0
M  V30 22059 H 2059.6 -1.31311 5.09966 0
M  V30 22060 H 2062.09 -0.546093 3.73933 0
M  V30 22061 H 2062.4 -0.494371 7.71217 0
M  V30 22062 H 2060.75 -0.451537 6.93532 0
M  V30 22063 H 2063.94 -0.59296 4.64329 0
M  V30 22064 H 2064.11 -0.569602 6.45492 0
M  V30 22065 N 2057.52 -1.53558 -0.354624 0
M  V30 22066 C 2058.76 -1.69934 -1.09393 0
M  V30 22067 C 2059.08 -0.459423 -1.89511 0
M  V30 22068 O 2058.35 0.526608 -1.88689 0
M  V30 22069 H 2056.93 -0.626487 -0.406845 0
M  V30 22070 H 2059.6 -1.90781 -0.398582 0
M  V30 22071 H 2058.69 -2.56533 -1.77757 0
M  V30 22072 N 2058.99 0.615033 -1.45104 0
M  V30 22073 C 2060.22 1.39902 -1.52023 0
M  V30 22074 C 2060.63 1.88611 -0.149112 0
M  V30 22075 O 2059.97 1.6242 0.858222 0
M  V30 22076 C 2060.04 2.6429 -2.43703 0
M  V30 22077 C 2059.7 2.3727 -3.90579 0
M  V30 22078 C 2060.7 1.98094 -4.80682 0
M  V30 22079 C 2058.38 2.50412 -4.3543 0
M  V30 22080 C 2060.38 1.72411 -6.13639 0
M  V30 22081 C 2058.06 2.24342 -5.68431 0
M  V30 22082 C 2059.06 1.85402 -6.57354 0
M  V30 22083 O 2058.75 1.59633 -7.87891 0
M  V30 22084 H 2058.48 0.434923 -0.517511 0
M  V30 22085 H 2061.04 0.757868 -1.90907 0
M  V30 22086 H 2059.27 3.31099 -1.99775 0
M  V30 22087 H 2060.95 3.26322 -2.41389 0
M  V30 22088 H 2061.72 1.87483 -4.47297 0
M  V30 22089 H 2057.6 2.79689 -3.66463 0
M  V30 22090 H 2061.14 1.41942 -6.83007 0
M  V30 22091 H 2057.04 2.34567 -6.01372 0
M  V30 22092 H 2057.81 1.73747 -7.99846 0
M  V30 22093 N 2060.47 1.3227 0.85688 0
M  V30 22094 C 2061.72 1.22461 1.60772 0
M  V30 22095 C 2062.04 -0.214164 1.9382 0
M  V30 22096 O 2061.31 -1.13833 1.59433 0
M  V30 22097 H 2059.89 0.450259 0.596051 0
M  V30 22098 H 2062.55 1.65764 1.0251 0
M  V30 22099 H 2061.65 1.80566 2.54563 0
M  V30 22100 N 2061.95 -1.07287 1.15444 0
M  V30 22101 C 2062.9 -2.16605 0.847634 0
M  V30 22102 C 2063.89 -1.68449 -0.179217 0
M  V30 22103 O 2065.1 -1.79968 -0.0341862 0
M  V30 22104 H 2061.47 -0.706921 0.25645 0
M  V30 22105 H 2063.44 -2.397 1.77726 0
M  V30 22106 C 2062.19 -3.45893 0.354062 0
M  V30 22107 H 2061.52 -3.83333 1.1356 0
M  V30 22108 H 2062.96 -4.23626 0.178055 0
M  V30 22109 C 2061.41 -3.23966 -0.924544 0
M  V30 22110 O 2061.94 -3.48604 -1.99594 0
M  V30 22111 N 2060.15 -2.77449 -0.864314 0
M  V30 22112 H 2059.7 -2.57599 0.00774481 0
M  V30 22113 H 2059.66 -2.63157 -1.72034 0
M  V30 22114 N 2063.43 -0.951342 -1.25647 0
M  V30 22115 C 2064.65 -0.620954 -1.97886 0
M  V30 22116 C 2065.08 0.799383 -1.70269 0
M  V30 22117 O 2064.44 1.54005 -0.956672 0
M  V30 22118 C 2064.48 -0.881873 -3.4965 0
M  V30 22119 O 2063.59 0.0409801 -4.1238 0
M  V30 22120 H 2062.93 -0.236433 -0.62048 0
M  V30 22121 H 2065.46 -1.27704 -1.59852 0
M  V30 22122 H 2065.47 -0.806823 -3.99943 0
M  V30 22123 H 2064.14 -1.91708 -3.69081 0
M  V30 22124 H 2062.72 -0.0859938 -3.72801 0
M  V30 22125 N 2064.91 1.40216 -0.719531 0
M  V30 22126 C 2066.18 1.94697 -0.18772 0
M  V30 22127 C 2066.56 1.65742 1.30739 0
M  V30 22128 O 2065.91 0.97723 2.06549 0
M  V30 22129 C 2066.12 3.45332 -0.50469 0
M  V30 22130 C 2067.47 4.22256 -0.445515 0
M  V30 22131 O 2068.49 3.5346 -0.440978 0
M  V30 22132 O 2067.35 5.44833 -0.426487 0
M  V30 22133 H 2064.45 0.82649 -0.0290376 0
M  V30 22134 H 2066.99 1.49802 -0.797333 0
M  V30 22135 H 2065.76 3.5978 -1.53863 0
M  V30 22136 H 2065.39 3.97372 0.134684 0
M  V30 22137 N 2066.38 0.466004 1.50553 0
M  V30 22138 C 2067.61 -0.0884484 2.06411 0
M  V30 22139 C 2068.02 -1.34509 1.33057 0
M  V30 22140 O 2067.36 -1.79472 0.391869 0
M  V30 22141 C 2067.43 -0.44758 3.56703 0
M  V30 22142 C 2067.09 0.70631 4.51509 0
M  V30 22143 C 2068.09 1.58687 4.9509 0
M  V30 22144 C 2065.77 0.895191 4.94259 0
M  V30 22145 C 2067.77 2.64076 5.80123 0
M  V30 22146 C 2065.45 1.95231 5.79075 0
M  V30 22147 C 2066.45 2.82346 6.21908 0
M  V30 22148 O 2066.14 3.86239 7.05035 0
M  V30 22149 H 2065.87 0.00147065 0.675998 0
M  V30 22150 H 2068.43 0.652308 1.94767 0
M  V30 22151 H 2066.66 -1.24145 3.66231 0
M  V30 22152 H 2068.34 -0.93652 3.94948 0
M  V30 22153 H 2069.11 1.45261 4.62736 0
M  V30 22154 H 2064.99 0.226608 4.60443 0
M  V30 22155 H 2068.53 3.32103 6.13476 0
M  V30 22156 H 2064.43 2.08666 6.10843 0
M  V30 22157 H 2065.2 3.83166 7.23275 0
M  V30 22158 N 2067.86 -1.56346 0.198413 0
M  V30 22159 C 2068.81 -2.19245 -0.721128 0
M  V30 22160 C 2069.78 -1.14072 -1.20735 0
M  V30 22161 O 2070.96 -1.42336 -1.27063 0
M  V30 22162 C 2068.1 -2.85839 -1.93365 0
M  V30 22163 C 2067.22 -4.05546 -1.48849 0
M  V30 22164 C 2066.35 -4.59988 -2.65678 0
M  V30 22165 C 2065.39 -5.72046 -2.17784 0
M  V30 22166 N 2064.53 -6.20879 -3.27802 0
M  V30 22167 H 2069.37 -2.97468 -0.178003 0
M  V30 22168 H 2066.9 -1.46903 -0.076117 0
M  V30 22169 H 2068.86 -3.2262 -2.64522 0
M  V30 22170 H 2067.49 -2.10174 -2.45004 0
M  V30 22171 H 2066.54 -3.74405 -0.672674 0
M  V30 22172 H 2067.86 -4.86584 -1.09713 0
M  V30 22173 H 2067.01 -4.99092 -3.44952 0
M  V30 22174 H 2065.75 -3.78064 -3.08089 0
M  V30 22175 H 2064.75 -5.32467 -1.36964 0
M  V30 22176 H 2065.98 -6.5579 -1.76399 0
M  V30 22177 H 2063.93 -5.41876 -3.69738 0
M  V30 22178 H 2063.84 -6.96977 -2.92845 0
M  V30 22179 H 2065.11 -6.64637 -4.07281 0
M  V30 22180 N 2069.34 0.0751653 -1.57421 0
M  V30 22181 C 2070.76 0.429873 -1.53702 0
M  V30 22182 C 2070.96 1.79369 -0.918103 0
M  V30 22183 O 2070.01 2.47105 -0.519159 0
M  V30 22184 C 2071.33 0.374037 -2.98365 0
M  V30 22185 C 2072.87 0.454466 -3.09683 0
M  V30 22186 C 2073.35 0.428572 -4.5599 0
M  V30 22187 N 2074.84 0.488746 -4.60614 0
M  V30 22188 C 2075.57 0.49087 -5.71295 0
M  V30 22189 N 2075.07 0.448011 -6.9135 0
M  V30 22190 N 2076.86 0.537175 -5.59527 0
M  V30 22191 H 2069.01 -0.817897 -1.96021 0
M  V30 22192 H 2071.28 -0.306554 -0.897067 0
M  V30 22193 H 2070.98 -0.561323 -3.47192 0
M  V30 22194 H 2070.86 1.18551 -3.58086 0
M  V30 22195 H 2073.24 1.38025 -2.60832 0
M  V30 22196 H 2073.33 -0.385521 -2.52878 0
M  V30 22197 H 2072.97 -0.493347 -5.05498 0
M  V30 22198 H 2072.9 1.28605 -5.10655 0
M  V30 22199 H 2075.39 0.526255 -3.74218 0
M  V30 22200 H 2075.7 0.453464 -7.71468 0
M  V30 22201 H 2074.05 0.414751 -6.93761 0
M  V30 22202 H 2077.24 0.568327 -4.64637 0
M  V30 22203 H 2077.41 0.535362 -6.45785 0
M  V30 22204 N 2070.82 1.53744 0.346476 0
M  V30 22205 C 2072.07 1.70066 1.08445 0
M  V30 22206 C 2072.38 0.469013 1.89894 0
M  V30 22207 O 2073.59 0.513127 2.66607 0
M  V30 22208 C 2072.04 3.00716 1.97732 0
M  V30 22209 C 2071.65 4.31208 1.21504 0
M  V30 22210 C 2073.39 3.26404 2.71405 0
M  V30 22211 C 2071.3 5.52934 2.09804 0
M  V30 22212 H 2070.23 0.633711 0.408567 0
M  V30 22213 H 2072.88 1.80244 0.344133 0
M  V30 22214 H 2071.26 2.84388 2.75572 0
M  V30 22215 H 2072.44 4.5823 0.485955 0
M  V30 22216 H 2070.75 4.12111 0.596126 0
M  V30 22217 H 2073.35 4.14536 3.37733 0
M  V30 22218 H 2073.69 2.43286 3.37813 0
M  V30 22219 H 2074.23 3.43495 2.0064 0
M  V30 22220 H 2070.97 6.38587 1.47943 0
M  V30 22221 H 2070.49 5.30164 2.8051 0
M  V30 22222 H 2072.16 5.88463 2.68924 0
M  V30 22223 N 2072.3 -0.607329 1.45428 0
M  V30 22224 C 2073.54 -1.36835 1.49679 0
M  V30 22225 C 2073.88 -1.93708 0.138148 0
M  V30 22226 O 2073.15 -1.75069 -0.847414 0
M  V30 22227 C 2073.43 -2.51607 2.57616 0
M  V30 22228 C 2073.29 -1.99929 4.02925 0
M  V30 22229 C 2074.61 -3.53738 2.61835 0
M  V30 22230 H 2071.72 -0.496187 0.544947 0
M  V30 22231 H 2074.37 -0.684587 1.77238 0
M  V30 22232 H 2072.52 -3.09936 2.34247 0
M  V30 22233 H 2074.19 -1.46247 4.37504 0
M  V30 22234 H 2072.43 -1.30929 4.1357 0
M  V30 22235 H 2073.1 -2.82666 4.74135 0
M  V30 22236 H 2075.58 -3.0525 2.82775 0
M  V30 22237 H 2074.45 -4.31533 3.39221 0
M  V30 22238 H 2074.72 -4.09372 1.66935 0
M  V30 22239 N 2073.77 -1.32722 -0.849853 0
M  V30 22240 C 2074.74 -1.21991 -1.94038 0
M  V30 22241 C 2075.74 -0.141727 -1.60174 0
M  V30 22242 O 2076.93 -0.392477 -1.69721 0
M  V30 22243 C 2074.06 -0.877223 -3.2942 0
M  V30 22244 H 2075.25 -2.18913 -2.04981 0
M  V30 22245 H 2072.81 -1.16623 -1.04062 0
M  V30 22246 H 2073.54 0.0899704 -3.24175 0
M  V30 22247 H 2073.33 -1.65681 -3.55376 0
M  V30 22248 H 2074.82 -0.826588 -4.09338 0
M  V30 22249 N 2075.25 1.06673 -1.16011 0
M  V30 22250 C 2076.49 1.80988 -0.949872 0
M  V30 22251 C 2076.86 1.85009 0.513401 0
M  V30 22252 O 2078.06 2.55265 0.842212 0
M  V30 22253 C 2076.33 3.21772 -1.55556 0
M  V30 22254 S 2077.89 4.12749 -1.48941 0
M  V30 22255 H 2074.71 0.623514 -0.341689 0
M  V30 22256 H 2077.31 1.28097 -1.47687 0
M  V30 22257 H 2076.01 3.16438 -2.61333 0
M  V30 22258 H 2075.54 3.79738 -1.02773 0
M  V30 22259 H 2077.56 4.93804 -0.487028 0
M  V30 22260 N 2076.73 0.957992 1.25141 0
M  V30 22261 C 2077.69 0.485333 2.24003 0
M  V30 22262 C 2078.69 -0.412817 1.55411 0
M  V30 22263 O 2079.88 -0.209635 1.72934 0
M  V30 22264 C 2077.02 -0.298362 3.39592 0
M  V30 22265 H 2078.21 1.35918 2.67332 0
M  V30 22266 H 2075.76 0.741602 1.37586 0
M  V30 22267 H 2076.5 -1.18973 3.01688 0
M  V30 22268 H 2076.28 0.346033 3.9057 0
M  V30 22269 H 2077.77 -0.618412 4.12996 0
M  V30 22270 N 2078.21 -1.39832 0.726957 0
M  V30 22271 C 2079.43 -2.05501 0.280008 0
M  V30 22272 C 2079.86 -1.54436 -1.07383 0
M  V30 22273 O 2079.22 -0.684615 -1.67877 0
M  V30 22274 C 2079.26 -3.59492 0.282502 0
M  V30 22275 O 2078.37 -4.05842 -0.732546 0
M  V30 22276 H 2077.71 -0.651361 0.128936 0
M  V30 22277 H 2080.24 -1.79019 0.990626 0
M  V30 22278 H 2080.25 -4.07811 0.124104 0
M  V30 22279 H 2078.92 -3.96022 1.27041 0
M  V30 22280 H 2077.5 -3.68956 -0.540943 0
M  V30 22281 N 2079.69 -0.473982 -1.50304 0
M  V30 22282 C 2080.92 0.0775007 -2.06455 0
M  V30 22283 C 2081.32 1.33801 -1.33768 0
M  V30 22284 O 2080.67 1.79261 -0.401381 0
M  V30 22285 C 2080.73 0.428656 -3.56935 0
M  V30 22286 C 2080.39 -0.730244 -4.51128 0
M  V30 22287 C 2081.39 -1.6131 -4.94242 0
M  V30 22288 C 2079.08 -0.92139 -4.93777 0
M  V30 22289 C 2081.07 -2.67149 -5.78714 0
M  V30 22290 C 2078.76 -1.98299 -5.78032 0
M  V30 22291 C 2079.75 -2.85641 -6.20402 0
M  V30 22292 O 2079.44 -3.89973 -7.02977 0
M  V30 22293 H 2079.17 -0.00505561 -0.675981 0
M  V30 22294 H 2081.73 -0.662628 -1.94418 0
M  V30 22295 H 2079.96 1.22201 -3.66884 0
M  V30 22296 H 2081.65 0.915562 -3.95439 0
M  V30 22297 H 2082.41 -1.47713 -4.61959 0
M  V30 22298 H 2078.29 -0.251023 -4.60316 0
M  V30 22299 H 2081.84 -3.35352 -6.11706 0
M  V30 22300 H 2077.73 -2.11903 -6.09727 0
M  V30 22301 H 2078.5 -3.86996 -7.21232 0
M  V30 22302 N 2081.16 1.56239 -0.206702 0
M  V30 22303 C 2082.11 2.19624 0.709491 0
M  V30 22304 C 2083.08 1.1471 1.20128 0
M  V30 22305 O 2084.27 1.43008 1.26307 0
M  V30 22306 C 2081.41 2.8686 1.91847 0
M  V30 22307 C 2080.52 4.0633 1.46696 0
M  V30 22308 C 2079.65 4.6139 2.63235 0
M  V30 22309 C 2078.69 5.73193 2.14747 0
M  V30 22310 N 2077.83 6.22608 3.24505 0
M  V30 22311 H 2082.67 2.97558 0.162225 0
M  V30 22312 H 2080.21 1.46941 0.0683253 0
M  V30 22313 H 2082.17 3.24019 2.62807 0
M  V30 22314 H 2080.8 2.1147 2.43886 0
M  V30 22315 H 2079.85 3.74757 0.652809 0
M  V30 22316 H 2081.16 4.87159 1.07131 0
M  V30 22317 H 2080.31 5.00914 3.42301 0
M  V30 22318 H 2079.05 3.79693 3.0608 0
M  V30 22319 H 2078.06 5.33186 1.34139 0
M  V30 22320 H 2079.28 6.56716 1.72919 0
M  V30 22321 H 2077.23 5.43829 3.66859 0
M  V30 22322 H 2077.15 6.98521 2.89145 0
M  V30 22323 H 2078.41 6.66788 4.0375 0
M  V30 22324 N 2082.64 -0.0668159 1.57458 0
M  V30 22325 C 2084.05 -0.618057 1.76173 0
M  V30 22326 C 2084.4 -1.77647 0.83283 0
M  V30 22327 O 2083.53 -2.16392 0.0181509 0
M  V30 22328 C 2084.12 -1.12796 3.19472 0
M  V30 22329 C 2082.68 -1.62503 3.39514 0
M  V30 22330 C 2081.83 -0.546584 2.7186 0
M  V30 22331 H 2084.78 0.15937 1.57898 0
M  V30 22332 H 2084.8 -1.99663 3.23906 0
M  V30 22333 H 2084.31 -0.284643 3.87055 0
M  V30 22334 H 2082.42 -2.49144 2.77053 0
M  V30 22335 H 2082.53 -1.69854 4.4798 0
M  V30 22336 H 2080.89 -0.992807 2.34554 0
M  V30 22337 H 2081.68 0.286635 3.42101 0
M  V30 22338 N 2084.12 -1.53926 -0.338317 0
M  V30 22339 C 2085.35 -1.75682 -1.1023 0
M  V30 22340 C 2085.77 -0.497087 -1.81413 0
M  V30 22341 O 2085.13 0.550577 -1.72738 0
M  V30 22342 C 2085.18 -2.94038 -2.08743 0
M  V30 22343 O 2084.28 -2.64552 -3.16364 0
M  V30 22344 H 2083.62 -0.582603 -0.318544 0
M  V30 22345 H 2086.15 -2.00904 -0.387113 0
M  V30 22346 H 2086.16 -3.20973 -2.51873 0
M  V30 22347 H 2084.84 -3.854 -1.56331 0
M  V30 22348 H 2083.41 -2.48521 -2.78014 0
M  V30 22349 N 2085.6 0.599608 -1.45748 0
M  V30 22350 C 2087.02 0.921212 -1.3033 0
M  V30 22351 C 2087.22 1.99787 -0.262213 0
M  V30 22352 O 2086.27 2.50186 0.34109 0
M  V30 22353 C 2087.58 1.35457 -2.68462 0
M  V30 22354 C 2089.13 1.46835 -2.76421 0
M  V30 22355 C 2089.61 1.93544 -4.15096 0
M  V30 22356 N 2091.1 2.00765 -4.1743 0
M  V30 22357 C 2091.83 2.38145 -5.21608 0
M  V30 22358 N 2091.33 2.74437 -6.36126 0
M  V30 22359 N 2093.12 2.38554 -5.08968 0
M  V30 22360 H 2085.27 -0.111892 -2.12105 0
M  V30 22361 H 2087.54 0.0126042 -0.947916 0
M  V30 22362 H 2087.24 0.63759 -3.45872 0
M  V30 22363 H 2087.12 2.31951 -2.97453 0
M  V30 22364 H 2089.5 2.17623 -1.99309 0
M  V30 22365 H 2089.58 0.486356 -2.51134 0
M  V30 22366 H 2089.23 1.2334 -4.92696 0
M  V30 22367 H 2089.16 2.92672 -4.3778 0
M  V30 22368 H 2091.65 1.75275 -3.34794 0
M  V30 22369 H 2091.96 3.01865 -7.11405 0
M  V30 22370 H 2090.31 2.72115 -6.39514 0
M  V30 22371 H 2093.5 2.09612 -4.18546 0
M  V30 22372 H 2093.67 2.67359 -5.90274 0
M  V30 22373 N 2087.08 1.33171 0.842803 0
M  V30 22374 C 2087.99 1.25124 1.98447 0
M  V30 22375 C 2089 0.162551 1.73239 0
M  V30 22376 O 2090.18 0.385417 1.97678 0
M  V30 22377 C 2087.24 0.9866 3.32366 0
M  V30 22378 C 2086.31 2.16491 3.70716 0
M  V30 22379 C 2085.54 1.9128 4.98245 0
M  V30 22380 O 2085.76 0.861174 5.63862 0
M  V30 22381 O 2084.7 2.77708 5.34005 0
M  V30 22382 H 2088.52 2.21126 2.08175 0
M  V30 22383 H 2086.11 1.13178 0.975243 0
M  V30 22384 H 2087.99 0.856003 4.12614 0
M  V30 22385 H 2086.66 0.0568283 3.2365 0
M  V30 22386 H 2085.57 2.35103 2.90994 0
M  V30 22387 H 2086.9 3.07788 3.84093 0
M  V30 22388 N 2088.56 -1.06056 1.16576 0
M  V30 22389 C 2089.47 -2.17107 0.888912 0
M  V30 22390 C 2090.48 -1.73438 -0.139723 0
M  V30 22391 O 2091.66 -2.01365 0.0374846 0
M  V30 22392 C 2088.72 -3.44425 0.396494 0
M  V30 22393 C 2087.78 -4.02589 1.49065 0
M  V30 22394 C 2087.02 -5.2383 1.02163 0
M  V30 22395 O 2087.24 -5.70257 -0.127684 0
M  V30 22396 O 2086.17 -5.7401 1.81098 0
M  V30 22397 H 2090 -2.43304 1.81761 0
M  V30 22398 H 2087.58 -1.1564 0.945923 0
M  V30 22399 H 2089.47 -4.21203 0.128983 0
M  V30 22400 H 2088.14 -3.1975 -0.504164 0
M  V30 22401 H 2087.05 -3.27292 1.81193 0
M  V30 22402 H 2088.38 -4.31565 2.3667 0
M  V30 22403 N 2090.03 -0.964615 -1.24631 0
M  V30 22404 C 2091.26 -0.641907 -1.97216 0
M  V30 22405 C 2091.68 0.781279 -1.71107 0
M  V30 22406 O 2091.04 1.52981 -0.972952 0
M  V30 22407 C 2091.09 -0.918908 -3.48695 0
M  V30 22408 O 2090.19 -0.00276058 -4.124 0
M  V30 22409 H 2089.53 -0.243001 -0.617937 0
M  V30 22410 H 2092.06 -1.29393 -1.58489 0
M  V30 22411 H 2092.07 -0.849197 -3.99065 0
M  V30 22412 H 2090.75 -1.95612 -3.67027 0
M  V30 22413 H 2089.33 -0.125529 -3.72689 0
M  V30 22414 N 2091.51 1.39445 -0.734362 0
M  V30 22415 C 2092.74 2.0535 -0.290903 0
M  V30 22416 C 2093.16 1.55004 1.06562 0
M  V30 22417 O 2092.52 0.693509 1.67512 0
M  V30 22418 C 2092.57 3.59337 -0.301562 0
M  V30 22419 O 2091.67 4.06225 0.711013 0
M  V30 22420 H 2091.01 0.650668 -0.132389 0
M  V30 22421 H 2093.54 1.78491 -1.00011 0
M  V30 22422 H 2093.55 4.0774 -0.14573 0
M  V30 22423 H 2092.23 3.95343 -1.2914 0
M  V30 22424 H 2090.8 3.69237 0.521369 0
M  V30 22425 N 2092.99 0.481946 1.5005 0
M  V30 22426 C 2094.21 -0.0688814 2.07286 0
M  V30 22427 C 2094.64 -1.3178 1.34222 0
M  V30 22428 O 2094 -1.76986 0.393135 0
M  V30 22429 C 2094.05 -0.324885 3.59133 0
M  V30 22430 O 2093.15 -1.40333 3.87789 0
M  V30 22431 H 2092.49 0.0177812 0.663762 0
M  V30 22432 H 2095.02 0.676104 1.93106 0
M  V30 22433 H 2095.03 -0.562135 4.04109 0
M  V30 22434 H 2093.71 0.587698 4.11727 0
M  V30 22435 H 2092.28 -1.15253 3.54642 0
M  V30 22436 N 2094.47 -1.56127 0.214985 0
M  V30 22437 C 2095.72 -1.97737 -0.417663 0
M  V30 22438 C 2096.04 -1.10368 -1.6076 0
M  V30 22439 O 2095.31 -0.179261 -1.95078 0
M  V30 22440 H 2093.89 -0.730251 -0.157298 0
M  V30 22441 H 2096.55 -1.92477 0.306351 0
M  V30 22442 H 2095.64 -3.02994 -0.748421 0
M  V30 22443 N 2095.95 0.0584645 -1.57492 0
M  V30 22444 C 2097.17 0.771417 -1.9252 0
M  V30 22445 C 2097.6 1.69644 -0.812561 0
M  V30 22446 O 2096.95 1.79786 0.233784 0
M  V30 22447 C 2097 1.52975 -3.26544 0
M  V30 22448 O 2096.11 2.64128 -3.16718 0
M  V30 22449 H 2095.45 0.209569 -0.630061 0
M  V30 22450 H 2097.98 0.022721 -2.04587 0
M  V30 22451 H 2097.99 1.90612 -3.60737 0
M  V30 22452 H 2096.66 0.851136 -4.07098 0
M  V30 22453 H 2095.24 2.29251 -2.94106 0
M  V30 22454 N 2097.42 1.54103 0.330149 0
M  V30 22455 C 2098.65 1.76264 1.09297 0
M  V30 22456 C 2099.07 0.5067 1.81147 0
M  V30 22457 O 2098.43 -0.541409 1.73027 0
M  V30 22458 C 2098.48 2.95141 2.07181 0
M  V30 22459 O 2097.58 2.66226 3.14956 0
M  V30 22460 H 2096.92 0.584284 0.31545 0
M  V30 22461 H 2099.45 2.01107 0.376453 0
M  V30 22462 H 2099.46 3.22305 2.50167 0
M  V30 22463 H 2098.14 3.86224 1.54285 0
M  V30 22464 H 2096.72 2.49992 2.76692 0
M  V30 22465 N 2098.9 -0.59187 1.46064 0
M  V30 22466 C 2099.85 -1.69625 1.52352 0
M  V30 22467 C 2100.84 -1.56219 0.385282 0
M  V30 22468 O 2102.03 -1.65289 0.633129 0
M  V30 22469 C 2099.16 -3.08403 1.50807 0
M  V30 22470 C 2098.24 -3.27138 2.69891 0
M  V30 22471 N 2098.63 -3.1607 3.94884 0
M  V30 22472 C 2096.93 -3.58053 2.65921 0
M  V30 22473 C 2097.63 -3.36563 4.74447 0
M  V30 22474 N 2096.61 -3.6129 4.06165 0
M  V30 22475 H 2100.41 -1.59585 2.468 0
M  V30 22476 H 2097.93 -0.795623 1.41575 0
M  V30 22477 H 2099.92 -3.87653 1.53398 0
M  V30 22478 H 2098.58 -3.19581 0.574291 0
M  V30 22479 H 2099.59 -2.94133 4.2627 0
M  V30 22480 H 2096.27 -3.75972 1.81524 0
M  V30 22481 H 2097.66 -3.33266 5.83424 0
M  V30 22482 N 2100.38 -1.33616 -0.835729 0
M  V30 22483 C 2101.34 -1.24042 -1.92733 0
M  V30 22484 C 2102.34 -0.158708 -1.60015 0
M  V30 22485 O 2103.53 -0.410456 -1.69295 0
M  V30 22486 C 2100.67 -0.912113 -3.28471 0
M  V30 22487 H 2101.86 -2.21075 -2.02647 0
M  V30 22488 H 2099.41 -1.1772 -1.02819 0
M  V30 22489 H 2100.15 0.0555823 -3.24252 0
M  V30 22490 H 2099.93 -1.69441 -3.53599 0
M  V30 22491 H 2101.42 -0.869957 -4.08438 0
M  V30 22492 N 2101.86 1.05436 -1.17136 0
M  V30 22493 C 2103.1 1.78658 -0.959644 0
M  V30 22494 C 2103.44 1.87366 0.510659 0
M  V30 22495 O 2102.71 1.37162 1.37901 0
M  V30 22496 C 2103 3.22682 -1.59839 0
M  V30 22497 C 2102.85 3.22002 -3.14062 0
M  V30 22498 C 2104.17 4.20454 -1.30023 0
M  V30 22499 H 2101.29 0.648566 -0.350044 0
M  V30 22500 H 2103.93 1.23254 -1.44598 0
M  V30 22501 H 2102.08 3.69992 -1.18484 0
M  V30 22502 H 2103.75 2.82787 -3.64457 0
M  V30 22503 H 2101.99 2.60411 -3.46941 0
M  V30 22504 H 2102.66 4.23642 -3.53881 0
M  V30 22505 H 2105.14 3.81628 -1.65829 0
M  V30 22506 H 2104.02 5.19475 -1.77304 0
M  V30 22507 H 2104.28 4.41549 -0.220588 0
M  V30 22508 N 2103.34 0.971211 1.24118 0
M  V30 22509 C 2104.27 0.448828 2.23743 0
M  V30 22510 C 2105.25 -0.479005 1.55384 0
M  V30 22511 O 2106.43 -0.409573 1.83997 0
M  V30 22512 C 2103.56 -0.351705 3.36869 0
M  V30 22513 C 2102.6 0.518924 4.23331 0
M  V30 22514 S 2103.44 1.96125 4.98292 0
M  V30 22515 C 2104.59 1.1696 6.14875 0
M  V30 22516 H 2104.83 1.29308 2.67706 0
M  V30 22517 H 2102.36 0.776507 1.33453 0
M  V30 22518 H 2104.32 -0.8076 4.02477 0
M  V30 22519 H 2102.98 -1.17097 2.91457 0
M  V30 22520 H 2102.17 -0.095892 5.03909 0
M  V30 22521 H 2101.77 0.910689 3.62743 0
M  V30 22522 H 2104.07 0.426358 6.76157 0
M  V30 22523 H 2105.01 1.94988 6.80724 0
M  V30 22524 H 2105.42 0.692432 5.60237 0
M  V30 22525 N 2104.81 -1.39054 0.741747 0
M  V30 22526 C 2106.09 -1.94374 0.218671 0
M  V30 22527 C 2106.47 -1.67801 -1.28086 0
M  V30 22528 O 2105.82 -1.00997 -2.04968 0
M  V30 22529 C 2106.03 -3.44485 0.559566 0
M  V30 22530 C 2107.38 -4.21494 0.512635 0
M  V30 22531 O 2108.4 -3.52713 0.497155 0
M  V30 22532 O 2107.26 -5.44086 0.513112 0
M  V30 22533 H 2104.35 -0.825923 0.0421827 0
M  V30 22534 H 2106.9 -1.48515 0.821064 0
M  V30 22535 H 2105.67 -3.57287 1.59567 0
M  V30 22536 H 2105.3 -3.97536 -0.0714489 0
M  V30 22537 N 2106.29 -0.489897 -1.49792 0
M  V30 22538 C 2107.54 0.0603289 -2.0161 0
M  V30 22539 C 2107.85 1.39071 -1.37545 0
M  V30 22540 O 2109.06 2.02698 -1.80626 0
M  V30 22541 C 2107.52 0.157998 -3.59553 0
M  V30 22542 C 2107.12 -1.16507 -4.32585 0
M  V30 22543 C 2108.87 0.65918 -4.19351 0
M  V30 22544 C 2106.78 -1.03017 -5.82358 0
M  V30 22545 H 2105.71 0.0263203 -0.75354 0
M  V30 22546 H 2108.36 -0.627641 -1.72432 0
M  V30 22547 H 2106.74 0.910172 -3.85398 0
M  V30 22548 H 2107.91 -1.92967 -4.1845 0
M  V30 22549 H 2106.23 -1.59883 -3.84482 0
M  V30 22550 H 2108.82 0.77744 -5.29018 0
M  V30 22551 H 2109.17 1.65527 -3.81977 0
M  V30 22552 H 2109.7 -0.0361409 -3.97784 0
M  V30 22553 H 2106.44 -2.00019 -6.24238 0
M  V30 22554 H 2105.96 -0.306276 -5.99018 0
M  V30 22555 H 2107.64 -0.704383 -6.43154 0
M  V30 22556 N 2107.77 1.56011 -0.223262 0
M  V30 22557 C 2109 2.03189 0.415817 0
M  V30 22558 C 2109.42 1.102 1.52439 0
M  V30 22559 O 2108.78 0.0904999 1.81074 0
M  V30 22560 C 2108.83 3.48586 0.923053 0
M  V30 22561 O 2107.93 3.58734 2.03429 0
M  V30 22562 H 2107.27 0.65733 0.0938783 0
M  V30 22563 H 2109.8 2.01715 -0.342399 0
M  V30 22564 H 2109.81 3.88941 1.23243 0
M  V30 22565 H 2108.49 4.1575 0.11169 0
M  V30 22566 H 2107.06 3.30267 1.73142 0
M  V30 22567 N 2109.25 -0.0501116 1.5752 0
M  V30 22568 C 2110.18 -1.05708 2.08202 0
M  V30 22569 C 2111.16 -1.39032 0.980009 0
M  V30 22570 O 2112.34 -1.48283 1.25403 0
M  V30 22571 C 2109.47 -2.36429 2.54399 0
M  V30 22572 C 2108.43 -2.17402 3.68674 0
M  V30 22573 C 2107.75 -3.53698 4.01001 0
M  V30 22574 C 2109.05 -1.57741 4.97911 0
M  V30 22575 H 2110.75 -0.635258 2.92583 0
M  V30 22576 H 2108.29 -0.304127 1.40752 0
M  V30 22577 H 2110.25 -3.07184 2.88472 0
M  V30 22578 H 2108.97 -2.80631 1.67074 0
M  V30 22579 H 2107.63 -1.49084 3.34917 0
M  V30 22580 H 2107.28 -3.9551 3.10774 0
M  V30 22581 H 2106.98 -3.418 4.77961 0
M  V30 22582 H 2108.5 -4.25849 4.3759 0
M  V30 22583 H 2109.92 -2.18387 5.30075 0
M  V30 22584 H 2108.31 -1.56478 5.7934 0
M  V30 22585 H 2109.38 -0.540999 4.81873 0
M  V30 22586 N 2110.73 -1.54276 -0.321972 0
M  V30 22587 C 2112.14 -1.63778 -0.896309 0
M  V30 22588 C 2112.49 -0.532871 -1.88825 0
M  V30 22589 O 2111.61 0.33397 -2.13807 0
M  V30 22590 C 2112.21 -2.96878 -1.63245 0
M  V30 22591 C 2110.77 -3.0857 -2.15549 0
M  V30 22592 C 2109.91 -2.59353 -0.981385 0
M  V30 22593 H 2112.87 -1.58388 -0.0995121 0
M  V30 22594 H 2112.89 -2.87127 -2.49677 0
M  V30 22595 H 2112.4 -3.77274 -0.910251 0
M  V30 22596 H 2110.5 -2.32851 -2.9088 0
M  V30 22597 H 2110.61 -4.14398 -2.4044 0
M  V30 22598 H 2108.98 -2.15288 -1.361 0
M  V30 22599 H 2109.76 -3.42209 -0.273477 0
M  V30 22600 N 2112.2 0.584116 -1.46376 0
M  V30 22601 C 2113.43 1.36845 -1.55181 0
M  V30 22602 C 2113.85 1.87817 -0.192443 0
M  V30 22603 O 2113.2 1.63538 0.81003 0
M  V30 22604 C 2113.26 2.55694 -2.55545 0
M  V30 22605 O 2112.98 2.06834 -3.86201 0
M  V30 22606 C 2114.48 3.48263 -2.74277 0
M  V30 22607 H 2111.7 0.418095 -0.524822 0
M  V30 22608 H 2114.24 0.710227 -1.91771 0
M  V30 22609 H 2112.4 3.17508 -2.21963 0
M  V30 22610 H 2112.81 2.84224 -4.40814 0
M  V30 22611 H 2114.28 4.2814 -3.48426 0
M  V30 22612 H 2114.76 4.00109 -1.81134 0
M  V30 22613 H 2115.37 2.92285 -3.08949 0
M  V30 22614 N 2113.68 1.34058 0.828631 0
M  V30 22615 C 2114.93 1.25844 1.58138 0
M  V30 22616 C 2115.25 -0.173004 1.94231 0
M  V30 22617 O 2114.52 -1.10425 1.61812 0
M  V30 22618 H 2113.1 0.4628 0.586366 0
M  V30 22619 H 2115.76 1.67901 0.989709 0
M  V30 22620 H 2114.86 1.85925 2.50676 0
M  V30 22621 N 2115.16 -1.04814 1.17694 0
M  V30 22622 C 2116.41 -1.77277 0.962076 0
M  V30 22623 C 2116.72 -1.88834 -0.509992 0
M  V30 22624 O 2117.93 -2.58075 -0.843166 0
M  V30 22625 C 2116.39 -3.18693 1.67221 0
M  V30 22626 C 2115.99 -3.15253 3.18308 0
M  V30 22627 C 2117.74 -3.95585 1.53988 0
M  V30 22628 C 2115.64 -4.51481 3.81993 0
M  V30 22629 H 2114.57 -0.66449 0.356328 0
M  V30 22630 H 2117.23 -1.17451 1.40988 0
M  V30 22631 H 2115.61 -3.78868 1.15216 0
M  V30 22632 H 2116.78 -2.64573 3.77277 0
M  V30 22633 H 2115.1 -2.51859 3.31596 0
M  V30 22634 H 2117.69 -4.96315 1.98937 0
M  V30 22635 H 2118.04 -4.13394 0.491003 0
M  V30 22636 H 2118.57 -3.41967 2.03232 0
M  V30 22637 H 2115.31 -4.38877 4.86895 0
M  V30 22638 H 2114.83 -5.02295 3.27811 0
M  V30 22639 H 2116.51 -5.20413 3.84421 0
M  V30 22640 N 2116.64 -0.977779 -1.23601 0
M  V30 22641 C 2117.86 -0.662789 -1.96524 0
M  V30 22642 C 2118.29 0.763086 -1.71926 0
M  V30 22643 O 2117.65 1.51941 -0.989123 0
M  V30 22644 C 2117.7 -0.95584 -3.47701 0
M  V30 22645 O 2116.8 -0.046501 -4.12374 0
M  V30 22646 H 2116.14 -0.249541 -0.615325 0
M  V30 22647 H 2118.67 -1.31066 -1.57108 0
M  V30 22648 H 2118.68 -0.891475 -3.98142 0
M  V30 22649 H 2117.36 -1.99494 -3.64932 0
M  V30 22650 H 2115.93 -0.165051 -3.72535 0
M  V30 22651 N 2118.12 1.38658 -0.749111 0
M  V30 22652 C 2119.08 2.28849 -0.126757 0
M  V30 22653 C 2120.08 1.46977 0.652253 0
M  V30 22654 O 2121.27 1.6748 0.479181 0
M  V30 22655 C 2118.4 3.30665 0.829083 0
M  V30 22656 H 2119.6 2.85391 -0.921529 0
M  V30 22657 H 2117.15 1.47543 -0.515832 0
M  V30 22658 H 2117.88 2.79205 1.6497 0
M  V30 22659 H 2117.67 3.91149 0.272946 0
M  V30 22660 H 2119.16 3.98117 1.26067 0
M  V30 22661 N 2119.6 0.497834 1.49531 0
M  V30 22662 C 2120.54 -0.296019 2.30709 0
M  V30 22663 C 2121.54 -0.965727 1.39176 0
M  V30 22664 O 2122.74 -0.893777 1.56242 0
M  V30 22665 H 2119.12 -0.114319 0.74326 0
M  V30 22666 H 2121.09 0.408679 2.95588 0
M  V30 22667 C 2119.84 -1.34956 3.20441 0
M  V30 22668 H 2119.16 -0.843631 3.90798 0
M  V30 22669 H 2120.6 -1.87706 3.80187 0
M  V30 22670 C 2119.06 -2.36602 2.39836 0
M  V30 22671 O 2119.59 -3.4242 2.10027 0
M  V30 22672 N 2117.8 -2.08992 2.01918 0
M  V30 22673 H 2117.34 -1.2296 2.2636 0
M  V30 22674 H 2117.3 -2.7723 1.48293 0
M  V30 22675 N 2121.07 -1.5589 0.231532 0
M  V30 22676 C 2121.98 -2.24359 -0.685566 0
M  V30 22677 C 2123 -1.25454 -1.20571 0
M  V30 22678 O 2124.18 -1.58292 -1.24522 0
M  V30 22679 C 2121.24 -2.91783 -1.87252 0
M  V30 22680 C 2120.3 -4.06059 -1.39337 0
M  V30 22681 C 2119.53 -4.70258 -2.52375 0
M  V30 22682 O 2119.76 -4.33477 -3.70747 0
M  V30 22683 O 2118.69 -5.59063 -2.23008 0
M  V30 22684 H 2122.52 -3.03412 -0.132235 0
M  V30 22685 H 2120.1 -1.494 0.000664697 0
M  V30 22686 H 2121.98 -3.34305 -2.56551 0
M  V30 22687 H 2120.66 -2.15683 -2.41377 0
M  V30 22688 H 2119.57 -3.68086 -0.668112 0
M  V30 22689 H 2120.9 -4.83932 -0.898393 0
M  V30 22690 N 2122.55 0.0417572 -1.57545 0
M  V30 22691 C 2123.46 1.06351 -2.09109 0
M  V30 22692 C 2124.48 1.40464 -1.02694 0
M  V30 22693 O 2125.65 1.50038 -1.34352 0
M  V30 22694 C 2122.72 2.34925 -2.54973 0
M  V30 22695 C 2121.78 2.0751 -3.75816 0
M  V30 22696 C 2121.01 3.29954 -4.19483 0
M  V30 22697 O 2121.24 4.40174 -3.62772 0
M  V30 22698 O 2120.17 3.16399 -5.12031 0
M  V30 22699 H 2124 0.655348 -2.96545 0
M  V30 22700 H 2121.58 0.257909 -1.47157 0
M  V30 22701 H 2123.46 3.10537 -2.84859 0
M  V30 22702 H 2122.14 2.75062 -1.70653 0
M  V30 22703 H 2121.04 1.29507 -3.50968 0
M  V30 22704 H 2122.38 1.72237 -4.61081 0
M  V30 22705 N 2124.03 1.54445 0.313786 0
M  V30 22706 C 2125.31 1.63779 1.06939 0
M  V30 22707 C 2125.69 0.477876 2.0562 0
M  V30 22708 O 2125.03 -0.526814 2.22344 0
M  V30 22709 C 2125.24 3.01218 1.76263 0
M  V30 22710 C 2126.59 3.57599 2.28928 0
M  V30 22711 O 2127.62 3.03587 1.86316 0
M  V30 22712 O 2126.48 4.52141 3.06971 0
M  V30 22713 H 2123.57 0.663608 0.493511 0
M  V30 22714 H 2126.12 1.6679 0.312895 0
M  V30 22715 H 2124.89 3.77077 1.04539 0
M  V30 22716 H 2124.51 3.01928 2.58699 0
M  V30 22717 N 2125.51 -0.576345 1.46683 0
M  V30 22718 C 2126.44 -1.69505 1.60594 0
M  V30 22719 C 2127.42 -1.63873 0.456022 0
M  V30 22720 O 2128.6 -1.81791 0.683045 0
M  V30 22721 C 2125.73 -3.08148 1.60194 0
M  V30 22722 C 2124.69 -3.28615 2.7422 0
M  V30 22723 C 2124.01 -4.6785 2.58884 0
M  V30 22724 C 2125.31 -3.15834 4.15989 0
M  V30 22725 H 2127.01 -1.58119 2.54241 0
M  V30 22726 H 2124.55 -0.759271 1.22356 0
M  V30 22727 H 2126.51 -3.86237 1.68519 0
M  V30 22728 H 2125.23 -3.20447 0.630952 0
M  V30 22729 H 2123.89 -2.52927 2.65375 0
M  V30 22730 H 2123.54 -4.76923 1.59854 0
M  V30 22731 H 2123.24 -4.82495 3.35368 0
M  V30 22732 H 2124.76 -5.48099 2.69109 0
M  V30 22733 H 2126.18 -3.83761 4.25911 0
M  V30 22734 H 2124.57 -3.41998 4.9311 0
M  V30 22735 H 2125.64 -2.12828 4.35698 0
M  V30 22736 N 2126.99 -1.34495 -0.82151 0
M  V30 22737 C 2127.93 -1.26188 -1.93249 0
M  V30 22738 C 2128.9 -0.136822 -1.65536 0
M  V30 22739 O 2130.09 -0.318035 -1.88131 0
M  V30 22740 C 2127.23 -1.02467 -3.29537 0
M  V30 22741 C 2126.34 -2.2376 -3.69534 0
M  V30 22742 C 2125.48 -1.93311 -4.94777 0
M  V30 22743 C 2124.51 -3.10739 -5.27359 0
M  V30 22744 N 2123.65 -2.80164 -6.4378 0
M  V30 22745 H 2128.49 -2.21199 -1.99687 0
M  V30 22746 H 2126.03 -1.09974 -0.976936 0
M  V30 22747 H 2127.99 -0.867518 -4.08081 0
M  V30 22748 H 2126.62 -0.111236 -3.22608 0
M  V30 22749 H 2125.67 -2.50391 -2.86371 0
M  V30 22750 H 2126.98 -3.11491 -3.89583 0
M  V30 22751 H 2126.13 -1.7434 -5.81112 0
M  V30 22752 H 2124.87 -1.02842 -4.76733 0
M  V30 22753 H 2123.88 -3.30304 -4.39521 0
M  V30 22754 H 2125.1 -4.01988 -5.47341 0
M  V30 22755 H 2123.05 -1.92273 -6.2719 0
M  V30 22756 H 2122.97 -3.61428 -6.64007 0
M  V30 22757 H 2124.23 -2.647 -7.33181 0
M  V30 22758 N 2128.46 1.04188 -1.18248 0
M  V30 22759 C 2129.43 2.10339 -0.910507 0
M  V30 22760 C 2130.43 1.60466 0.103607 0
M  V30 22761 O 2131.62 1.73717 -0.129699 0
M  V30 22762 C 2128.75 3.38931 -0.36584 0
M  V30 22763 H 2129.94 2.359 -1.85179 0
M  V30 22764 H 2127.5 1.20593 -0.994332 0
M  V30 22765 H 2128.23 3.19033 0.582115 0
M  V30 22766 H 2128.02 3.76446 -1.09686 0
M  V30 22767 H 2129.51 4.17148 -0.194209 0
M  V30 22768 N 2129.94 0.98432 1.23081 0
M  V30 22769 C 2130.87 0.547274 2.26996 0
M  V30 22770 C 2131.85 -0.421528 1.64794 0
M  V30 22771 O 2133.04 -0.314036 1.91644 0
M  V30 22772 C 2130.17 -0.147283 3.46988 0
M  V30 22773 C 2129.12 0.739194 4.21568 0
M  V30 22774 C 2128.45 -0.0877981 5.34628 0
M  V30 22775 C 2129.75 2.03191 4.81156 0
M  V30 22776 H 2131.44 1.41586 2.63806 0
M  V30 22777 H 2128.99 0.682245 1.26813 0
M  V30 22778 H 2130.94 -0.464368 4.18834 0
M  V30 22779 H 2129.67 -1.05035 3.09249 0
M  V30 22780 H 2128.32 1.03979 3.51545 0
M  V30 22781 H 2127.97 -0.99152 4.93131 0
M  V30 22782 H 2127.67 0.50225 5.8545 0
M  V30 22783 H 2129.2 -0.399175 6.09294 0
M  V30 22784 H 2130.61 1.77933 5.44989 0
M  V30 22785 H 2129.01 2.57006 5.4228 0
M  V30 22786 H 2130.08 2.71622 4.01684 0
M  V30 22787 N 2131.42 -1.38259 0.756453 0
M  V30 22788 C 2132.67 -2.00349 0.314356 0
M  V30 22789 C 2133 -1.5991 -1.10192 0
M  V30 22790 O 2132.27 -0.837999 -1.75522 0
M  V30 22791 C 2132.56 -3.57396 0.440504 0
M  V30 22792 C 2132.41 -4.0779 1.8981 0
M  V30 22793 C 2133.73 -4.39793 -0.164403 0
M  V30 22794 H 2130.85 -0.727862 0.115697 0
M  V30 22795 H 2133.49 -1.6416 0.956635 0
M  V30 22796 H 2131.64 -3.88355 -0.106298 0
M  V30 22797 H 2133.31 -3.87461 2.50343 0
M  V30 22798 H 2131.56 -3.6055 2.41218 0
M  V30 22799 H 2132.23 -5.1688 1.9375 0
M  V30 22800 H 2134.7 -4.15003 0.301971 0
M  V30 22801 H 2133.58 -5.48881 -0.0459121 0
M  V30 22802 H 2133.84 -4.23971 -1.25303 0
M  V30 22803 N 2132.9 -0.505757 -1.49264 0
M  V30 22804 C 2133.81 0.274574 -2.32988 0
M  V30 22805 C 2134.82 0.962724 -1.4494 0
M  V30 22806 O 2136 0.943054 -1.77956 0
M  V30 22807 C 2133.07 1.32231 -3.20493 0
M  V30 22808 C 2132.13 0.64709 -4.24395 0
M  V30 22809 C 2131.36 1.6449 -5.07719 0
M  V30 22810 O 2131.58 2.87523 -4.92632 0
M  V30 22811 O 2130.52 1.19761 -5.89865 0
M  V30 22812 H 2134.34 -0.410833 -3.00908 0
M  V30 22813 H 2131.93 -0.267017 -1.46994 0
M  V30 22814 H 2133.81 1.92838 -3.74689 0
M  V30 22815 H 2132.48 1.99056 -2.55262 0
M  V30 22816 H 2131.39 0.00115278 -3.741 0
M  V30 22817 H 2132.72 0.0212046 -4.92195 0
M  V30 22818 N 2134.38 1.55765 -0.239796 0
M  V30 22819 C 2135.62 1.98377 0.386152 0
M  V30 22820 C 2135.95 1.12912 1.58984 0
M  V30 22821 O 2135.22 0.210274 1.94768 0
M  V30 22822 H 2133.8 0.732661 0.145661 0
M  V30 22823 H 2136.46 1.91966 -0.336934 0
M  V30 22824 H 2135.55 3.04146 0.700123 0
M  V30 22825 N 2135.85 -0.0334016 1.57565 0
M  V30 22826 C 2137.1 -0.726157 1.89354 0
M  V30 22827 C 2137.43 -1.75237 0.837002 0
M  V30 22828 O 2136.71 -1.93933 -0.148452 0
M  V30 22829 C 2136.99 -1.39963 3.31787 0
M  V30 22830 C 2136.84 -0.387227 4.4813 0
M  V30 22831 C 2138.16 -2.33475 3.73065 0
M  V30 22832 H 2135.28 -0.262518 0.688661 0
M  V30 22833 H 2137.92 0.0110285 1.89997 0
M  V30 22834 H 2136.07 -2.02797 3.31369 0
M  V30 22835 H 2137.75 0.238867 4.60681 0
M  V30 22836 H 2135.99 0.293911 4.32803 0
M  V30 22837 H 2136.66 -0.896846 5.44666 0
M  V30 22838 H 2139.14 -1.80688 3.74822 0
M  V30 22839 H 2138.01 -2.7758 4.73541 0
M  V30 22840 H 2138.27 -3.19962 3.05085 0
M  V30 22841 N 2137.33 -1.54609 -0.305591 0
M  V30 22842 C 2138.61 -1.64344 -1.06068 0
M  V30 22843 C 2138.99 -0.488774 -2.05364 0
M  V30 22844 O 2138.34 0.515015 -2.2262 0
M  V30 22845 C 2138.55 -3.02149 -1.74663 0
M  V30 22846 C 2139.9 -3.58808 -2.27029 0
M  V30 22847 O 2140.92 -3.04571 -1.84703 0
M  V30 22848 O 2139.78 -4.53762 -3.04568 0
M  V30 22849 H 2136.87 -0.666216 -0.489984 0
M  V30 22850 H 2139.42 -1.66954 -0.304046 0
M  V30 22851 H 2138.19 -3.77626 -1.02538 0
M  V30 22852 H 2137.81 -3.03296 -2.57094 0
M  V30 22853 N 2138.81 0.568558 -1.46987 0
M  V30 22854 C 2139.74 1.69147 -1.54668 0
M  V30 22855 C 2140.76 1.56914 -0.433789 0
M  V30 22856 O 2141.94 1.6408 -0.702853 0
M  V30 22857 C 2139.04 3.07522 -1.4242 0
M  V30 22858 C 2138.22 3.45619 -2.68078 0
M  V30 22859 C 2137.28 4.63111 -2.49829 0
M  V30 22860 O 2136.3 4.68261 -3.23605 0
M  V30 22861 N 2137.5 5.5889 -1.56914 0
M  V30 22862 H 2140.27 1.63008 -2.51492 0
M  V30 22863 H 2137.83 0.75491 -1.43223 0
M  V30 22864 H 2139.82 3.83937 -1.27963 0
M  V30 22865 H 2138.39 3.07949 -0.537222 0
M  V30 22866 H 2137.61 2.58767 -2.97378 0
M  V30 22867 H 2138.9 3.67844 -3.51523 0
M  V30 22868 H 2138.3 5.57477 -0.961042 0
M  V30 22869 H 2136.86 6.34678 -1.48414 0
M  V30 22870 N 2140.29 1.34929 0.814366 0
M  V30 22871 C 2141.22 1.29866 1.94055 0
M  V30 22872 C 2142.2 0.174504 1.69203 0
M  V30 22873 O 2143.38 0.368232 1.90677 0
M  V30 22874 C 2140.51 1.06201 3.30664 0
M  V30 22875 C 2139.47 2.15174 3.69978 0
M  V30 22876 C 2138.79 1.76686 5.04664 0
M  V30 22877 C 2140.09 3.57077 3.81174 0
M  V30 22878 H 2141.79 2.24095 1.98549 0
M  V30 22879 H 2139.33 1.07877 0.953865 0
M  V30 22880 H 2141.29 1.01301 4.09043 0
M  V30 22881 H 2140.01 0.0841549 3.26492 0
M  V30 22882 H 2138.67 2.19158 2.9388 0
M  V30 22883 H 2138.32 0.775388 4.96988 0
M  V30 22884 H 2138.02 2.49628 5.3194 0
M  V30 22885 H 2139.54 1.73297 5.85492 0
M  V30 22886 H 2140.96 3.55458 4.49803 0
M  V30 22887 H 2139.35 4.28713 4.19911 0
M  V30 22888 H 2140.42 3.93795 2.82937 0
M  V30 22889 N 2141.77 -1.0356 1.18799 0
M  V30 22890 C 2143.01 -1.76847 0.986484 0
M  V30 22891 C 2143.34 -1.88397 -0.483413 0
M  V30 22892 O 2142.6 -1.39239 -1.37517 0
M  V30 22893 C 2142.9 -3.19959 1.59252 0
M  V30 22894 C 2142.56 -3.28431 3.0894 0
M  V30 22895 C 2141.22 -3.30451 3.49794 0
M  V30 22896 C 2143.58 -3.2812 4.04953 0
M  V30 22897 C 2140.9 -3.29807 4.85226 0
M  V30 22898 C 2143.26 -3.29016 5.40306 0
M  V30 22899 C 2141.92 -3.2933 5.80601 0
M  V30 22900 H 2141.19 -0.647128 0.36098 0
M  V30 22901 H 2143.84 -1.21597 1.47941 0
M  V30 22902 H 2142.14 -3.78243 1.02172 0
M  V30 22903 H 2143.84 -3.75319 1.41197 0
M  V30 22904 H 2140.43 -3.27583 2.76382 0
M  V30 22905 H 2144.61 -3.25746 3.74437 0
M  V30 22906 H 2139.87 -3.2837 5.15736 0
M  V30 22907 H 2144.04 -3.27726 6.14466 0
M  V30 22908 H 2141.67 -3.28585 6.85519 0
M  V30 22909 N 2143.25 -0.990834 -1.22557 0
M  V30 22910 C 2144.47 -0.683901 -1.9527 0
M  V30 22911 C 2144.89 0.751046 -1.73219 0
M  V30 22912 O 2144.25 1.50657 -1.02999 0
M  V30 22913 C 2144.3 -0.977753 -3.48026 0
M  V30 22914 O 2144.02 -2.35631 -3.69337 0
M  V30 22915 C 2145.52 -0.688232 -4.37925 0
M  V30 22916 H 2142.74 -0.25317 -0.621406 0
M  V30 22917 H 2145.28 -1.32505 -1.55765 0
M  V30 22918 H 2143.44 -0.382447 -3.85508 0
M  V30 22919 H 2143.85 -2.45399 -4.63551 0
M  V30 22920 H 2145.33 -0.944126 -5.43866 0
M  V30 22921 H 2145.8 0.377761 -4.37572 0
M  V30 22922 H 2146.41 -1.26449 -4.06067 0
M  V30 22923 N 2144.72 1.37856 -0.763775 0
M  V30 22924 C 2146 1.94001 -0.249566 0
M  V30 22925 C 2146.38 1.69818 1.254 0
M  V30 22926 O 2145.73 1.04245 2.03335 0
M  V30 22927 C 2145.94 3.43551 -0.614299 0
M  V30 22928 C 2147.29 4.20625 -0.579627 0
M  V30 22929 O 2148.31 3.51878 -0.553206 0
M  V30 22930 O 2147.17 5.43201 -0.599606 0
M  V30 22931 H 2144.26 0.825148 -0.055317 0
M  V30 22932 H 2146.81 1.4719 -0.844588 0
M  V30 22933 H 2145.58 3.54703 -1.65231 0
M  V30 22934 H 2145.2 3.97599 0.00819535 0
M  V30 22935 N 2146.2 0.513665 1.48994 0
M  V30 22936 C 2147.43 -0.0227356 2.06587 0
M  V30 22937 C 2147.84 -1.30207 1.37269 0
M  V30 22938 O 2147.18 -1.78134 0.448768 0
M  V30 22939 C 2147.24 -0.333871 3.57946 0
M  V30 22940 C 2146.91 0.849596 4.49033 0
M  V30 22941 C 2147.91 1.74357 4.89791 0
M  V30 22942 C 2145.59 1.05198 4.9116 0
M  V30 22943 C 2147.58 2.82398 5.71428 0
M  V30 22944 C 2145.27 2.13555 5.72571 0
M  V30 22945 C 2146.27 3.01989 6.12611 0
M  V30 22946 O 2145.96 4.08474 6.9239 0
M  V30 22947 H 2145.69 0.0229763 0.675609 0
M  V30 22948 H 2148.24 0.713941 1.92593 0
M  V30 22949 H 2146.47 -1.12431 3.69995 0
M  V30 22950 H 2148.16 -0.810396 3.97728 0
M  V30 22951 H 2148.93 1.59909 4.5788 0
M  V30 22952 H 2144.81 0.372979 4.59489 0
M  V30 22953 H 2148.35 3.51453 6.026 0
M  V30 22954 H 2144.25 2.27994 6.03895 0
M  V30 22955 H 2145.02 4.05982 7.10718 0
M  V30 22956 N 2147.68 -1.55636 0.248053 0
M  V30 22957 C 2148.61 -2.18762 -0.683786 0
M  V30 22958 C 2149.62 -1.16427 -1.13791 0
M  V30 22959 O 2150.81 -1.43286 -1.06449 0
M  V30 22960 C 2147.91 -2.77789 -1.9413 0
M  V30 22961 C 2147.09 -4.05554 -1.63843 0
M  V30 22962 C 2146.15 -4.48887 -2.74566 0
M  V30 22963 O 2145.17 -5.15239 -2.41903 0
M  V30 22964 N 2146.37 -4.16768 -4.04085 0
M  V30 22965 H 2149.14 -2.99356 -0.143647 0
M  V30 22966 H 2146.7 -1.61757 0.0680612 0
M  V30 22967 H 2148.69 -3.03735 -2.67445 0
M  V30 22968 H 2147.26 -2.01346 -2.3912 0
M  V30 22969 H 2146.48 -3.87184 -0.740411 0
M  V30 22970 H 2147.77 -4.88851 -1.41074 0
M  V30 22971 H 2147.17 -3.63502 -4.33455 0
M  V30 22972 H 2145.72 -4.47548 -4.73861 0
M  V30 22973 N 2149.16 0.0250451 -1.5758 0
M  V30 22974 C 2150.41 0.714108 -1.88636 0
M  V30 22975 C 2150.72 1.76305 -0.847099 0
M  V30 22976 O 2151.93 2.50499 -1.04702 0
M  V30 22977 C 2150.38 1.3212 -3.34772 0
M  V30 22978 C 2149.99 0.308393 -4.46937 0
M  V30 22979 C 2151.73 1.98991 -3.74971 0
M  V30 22980 C 2149.64 0.924059 -5.84136 0
M  V30 22981 H 2148.57 0.270472 -0.703819 0
M  V30 22982 H 2151.22 -0.0313912 -1.83473 0
M  V30 22983 H 2149.6 2.11654 -3.34692 0
M  V30 22984 H 2150.78 -0.460527 -4.58493 0
M  V30 22985 H 2149.09 -0.258451 -4.15597 0
M  V30 22986 H 2151.69 2.45913 -4.74796 0
M  V30 22987 H 2152.03 2.8098 -3.07174 0
M  V30 22988 H 2152.57 1.26226 -3.77242 0
M  V30 22989 H 2149.3 0.143492 -6.55343 0
M  V30 22990 H 2148.82 1.66272 -5.76293 0
M  V30 22991 H 2150.5 1.4302 -6.30995 0
M  V30 22992 N 2150.64 1.54769 0.297388 0
M  V30 22993 C 2151.58 1.8597 1.36689 0
M  V30 22994 C 2152.55 0.708928 1.50211 0
M  V30 22995 O 2153.74 0.9579 1.65012 0
M  V30 22996 C 2150.88 2.11576 2.72635 0
M  V30 22997 C 2149.99 3.39191 2.67533 0
M  V30 22998 C 2149.13 3.54621 3.95496 0
M  V30 22999 C 2148.16 4.76015 3.84806 0
M  V30 23000 N 2147.3 4.88232 5.04553 0
M  V30 23001 H 2152.14 2.772 1.09381 0
M  V30 23002 H 2149.68 1.3726 0.528967 0
M  V30 23003 H 2151.64 2.24418 3.517 0
M  V30 23004 H 2150.27 1.23608 2.98196 0
M  V30 23005 H 2149.32 3.3495 1.80312 0
M  V30 23006 H 2150.63 4.28379 2.55525 0
M  V30 23007 H 2149.78 3.67147 4.82999 0
M  V30 23008 H 2148.52 2.63573 4.10342 0
M  V30 23009 H 2147.53 4.63518 2.95687 0
M  V30 23010 H 2148.75 5.68475 3.71502 0
M  V30 23011 H 2146.7 4.00108 5.19855 0
M  V30 23012 H 2146.62 5.71427 4.94982 0
M  V30 23013 H 2147.88 5.05119 5.93696 0
M  V30 23014 N 2152.11 -0.560755 1.47286 0
M  V30 23015 C 2153.39 -1.32148 1.4421 0
M  V30 23016 C 2153.77 -2.10654 0.137154 0
M  V30 23017 O 2153.12 -2.10818 -0.88136 0
M  V30 23018 C 2153.33 -2.22899 2.68546 0
M  V30 23019 C 2154.68 -2.84031 3.15613 0
M  V30 23020 O 2155.7 -2.33202 2.69249 0
M  V30 23021 O 2154.56 -3.76408 3.96206 0
M  V30 23022 H 2151.65 -0.594853 0.574525 0
M  V30 23023 H 2154.2 -0.579952 1.59482 0
M  V30 23024 H 2152.97 -1.64465 3.55059 0
M  V30 23025 H 2152.59 -3.04353 2.55842 0
M  V30 23026 N 2153.59 -1.35359 -0.807199 0
M  V30 23027 C 2154.84 -1.28344 -1.56116 0
M  V30 23028 C 2155.16 0.142081 -1.94482 0
M  V30 23029 O 2154.43 1.07837 -1.63548 0
M  V30 23030 H 2153.01 -0.47207 -0.578929 0
M  V30 23031 H 2155.67 -1.69454 -0.962872 0
M  V30 23032 H 2154.77 -1.89889 -2.47686 0
M  V30 23033 N 2155.07 1.02928 -1.19346 0
M  V30 23034 C 2156.02 2.09544 -0.898634 0
M  V30 23035 C 2157 1.60321 0.136393 0
M  V30 23036 O 2158.2 1.76865 -0.0692414 0
M  V30 23037 C 2155.32 3.40486 -0.438666 0
M  V30 23038 C 2154.41 3.96444 -1.50641 0
M  V30 23039 N 2154.8 4.26071 -2.72575 0
M  V30 23040 C 2153.1 4.2445 -1.3696 0
M  V30 23041 C 2153.8 4.71011 -3.41355 0
M  V30 23042 N 2152.78 4.7252 -2.68749 0
M  V30 23043 H 2156.58 2.30342 -1.82538 0
M  V30 23044 H 2154.09 1.20785 -1.08557 0
M  V30 23045 H 2156.09 4.16376 -0.208902 0
M  V30 23046 H 2154.75 3.21109 0.481599 0
M  V30 23047 H 2155.76 4.15365 -3.09341 0
M  V30 23048 H 2152.44 4.14339 -0.512767 0
M  V30 23049 H 2153.83 5.02859 -4.45626 0
M  V30 23050 N 2156.55 0.997319 1.2203 0
M  V30 23051 C 2157.79 0.676667 1.91178 0
M  V30 23052 C 2158.13 -0.789768 1.77416 0
M  V30 23053 O 2157.4 -1.57163 1.14586 0
M  V30 23054 C 2157.68 1.08886 3.43243 0
M  V30 23055 C 2157.54 2.61418 3.66034 0
M  V30 23056 C 2158.86 0.645428 4.35342 0
M  V30 23057 H 2155.98 0.247298 0.694271 0
M  V30 23058 H 2158.62 1.24163 1.43818 0
M  V30 23059 H 2156.77 0.608155 3.8371 0
M  V30 23060 H 2158.44 3.17192 3.34943 0
M  V30 23061 H 2156.68 3.03284 3.10163 0
M  V30 23062 H 2157.35 2.8531 4.72549 0
M  V30 23063 H 2159.83 1.05839 4.02414 0
M  V30 23064 H 2158.71 0.962088 5.40403 0
M  V30 23065 H 2158.97 -0.453741 4.39765 0
M  V30 23066 N 2158.03 -1.37449 0.771075 0
M  V30 23067 C 2159.28 -1.98953 0.331779 0
M  V30 23068 C 2159.59 -1.61903 -1.09758 0
M  V30 23069 O 2160.79 -2.16505 -1.63823 0
M  V30 23070 C 2159.25 -3.55792 0.542247 0
M  V30 23071 C 2158.86 -4.01781 1.98183 0
M  V30 23072 C 2160.6 -4.24173 0.16654 0
M  V30 23073 C 2158.51 -5.51327 2.13993 0
M  V30 23074 H 2157.44 -0.74434 0.120306 0
M  V30 23075 H 2160.09 -1.56988 0.950108 0
M  V30 23076 H 2158.47 -3.95733 -0.145529 0
M  V30 23077 H 2159.65 -3.73086 2.7045 0
M  V30 23078 H 2157.96 -3.46179 2.31406 0
M  V30 23079 H 2160.56 -5.34052 0.263191 0
M  V30 23080 H 2160.9 -4.06825 -0.883113 0
M  V30 23081 H 2161.43 -3.89532 0.806838 0
M  V30 23082 H 2158.17 -5.736 3.17275 0
M  V30 23083 H 2157.69 -5.81707 1.46208 0
M  V30 23084 H 2159.37 -6.17286 1.93822 0
M  V30 23085 N 2159.5 -0.52156 -1.4872 0
M  V30 23086 C 2160.43 0.234741 -2.32317 0
M  V30 23087 C 2161.42 0.943119 -1.4156 0
M  V30 23088 O 2162.6 0.930536 -1.70454 0
M  V30 23089 C 2159.73 1.28724 -3.22564 0
M  V30 23090 C 2158.68 0.697518 -4.22278 0
M  V30 23091 C 2158.01 1.85205 -5.016 0
M  V30 23092 C 2159.31 -0.325174 -5.21287 0
M  V30 23093 H 2161 -0.463097 -2.95797 0
M  V30 23094 H 2158.55 -0.224154 -1.42245 0
M  V30 23095 H 2160.5 1.82422 -3.79869 0
M  V30 23096 H 2159.23 2.01455 -2.57067 0
M  V30 23097 H 2157.89 0.182131 -3.66147 0
M  V30 23098 H 2157.53 2.56754 -4.32535 0
M  V30 23099 H 2157.23 1.46343 -5.69085 0
M  V30 23100 H 2158.76 2.39297 -5.61755 0
M  V30 23101 H 2160.17 0.124406 -5.73165 0
M  V30 23102 H 2158.57 -0.630729 -5.96776 0
M  V30 23103 H 2159.64 -1.23392 -4.68938 0
M  V30 23104 N 2160.98 1.55502 -0.256304 0
M  V30 23105 C 2161.91 2.19122 0.672174 0
M  V30 23106 C 2162.93 1.17029 1.13172 0
M  V30 23107 O 2164.12 1.43849 1.05687 0
M  V30 23108 C 2161.22 2.78814 1.92655 0
M  V30 23109 C 2160.39 4.06417 1.6169 0
M  V30 23110 C 2159.45 4.50337 2.72182 0
M  V30 23111 O 2158.47 5.16515 2.39167 0
M  V30 23112 N 2159.68 4.18905 4.01869 0
M  V30 23113 H 2162.44 2.99428 0.127769 0
M  V30 23114 H 2160 1.61719 -0.0766386 0
M  V30 23115 H 2161.99 3.05149 2.65831 0
M  V30 23116 H 2160.56 2.02611 2.38049 0
M  V30 23117 H 2159.78 3.87571 0.719867 0
M  V30 23118 H 2161.07 4.89593 1.38479 0
M  V30 23119 H 2160.47 3.65795 4.31521 0
M  V30 23120 H 2159.03 4.50054 4.71481 0
M  V30 23121 N 2162.46 -0.0166879 1.57591 0
M  V30 23122 C 2163.39 -1.01268 2.10398 0
M  V30 23123 C 2164.37 -1.36922 1.00928 0
M  V30 23124 O 2165.56 -1.45589 1.2852 0
M  V30 23125 C 2162.69 -2.30979 2.59357 0
M  V30 23126 C 2161.64 -2.09533 3.73202 0
M  V30 23127 C 2160.97 -3.45113 4.08413 0
M  V30 23128 C 2162.27 -1.47144 5.01145 0
M  V30 23129 H 2163.96 -0.573053 2.93865 0
M  V30 23130 H 2161.51 -0.274203 1.41365 0
M  V30 23131 H 2163.46 -3.00996 2.94923 0
M  V30 23132 H 2162.18 -2.77024 1.72989 0
M  V30 23133 H 2160.84 -1.41946 3.38004 0
M  V30 23134 H 2160.49 -3.88829 3.19094 0
M  V30 23135 H 2160.19 -3.31585 4.85104 0
M  V30 23136 H 2161.71 -4.16472 4.46524 0
M  V30 23137 H 2163.13 -2.07094 5.34588 0
M  V30 23138 H 2161.53 -1.44154 5.82529 0
M  V30 23139 H 2162.6 -0.438665 4.82912 0
M  V30 23140 N 2163.94 -1.54924 -0.289176 0
M  V30 23141 C 2164.89 -1.87462 -1.37698 0
M  V30 23142 C 2165.88 -0.749411 -1.51922 0
M  V30 23143 O 2167.09 -0.933558 -1.53898 0
M  V30 23144 H 2163.46 -0.59475 -0.460192 0
M  V30 23145 H 2165.43 -2.78365 -1.07498 0
M  V30 23146 C 2164.18 -2.14897 -2.7334 0
M  V30 23147 H 2163.5 -3.00958 -2.63181 0
M  V30 23148 H 2164.94 -2.41596 -3.48436 0
M  V30 23149 C 2163.4 -0.951304 -3.2319 0
M  V30 23150 O 2163.93 -0.177749 -4.01307 0
M  V30 23151 N 2162.14 -0.753431 -2.80663 0
M  V30 23152 H 2161.69 -1.38415 -2.17253 0
M  V30 23153 H 2161.64 0.0463293 -3.14366 0
M  V30 23154 N 2165.42 0.552936 -1.47582 0
M  V30 23155 C 2166.64 1.34003 -1.58297 0
M  V30 23156 C 2167.07 1.86625 -0.23511 0
M  V30 23157 O 2166.42 1.63197 0.789702 0
M  V30 23158 C 2166.47 2.48288 -2.61506 0
M  V30 23159 O 2165.58 3.50647 -2.17073 0
M  V30 23160 H 2164.92 0.397855 -0.531608 0
M  V30 23161 H 2167.45 0.667783 -1.93395 0
M  V30 23162 H 2167.46 2.94798 -2.8206 0
M  V30 23163 H 2166.13 2.09345 -3.59371 0
M  V30 23164 H 2164.71 3.10413 -2.06636 0
M  V30 23165 N 2166.89 1.35785 0.800009 0
M  V30 23166 C 2168.14 1.28759 1.55255 0
M  V30 23167 C 2168.46 -0.134123 1.9514 0
M  V30 23168 O 2169.66 -0.3267 2.69527 0
M  V30 23169 C 2168.12 2.25848 2.80215 0
M  V30 23170 C 2167.73 3.73399 2.47542 0
M  V30 23171 C 2169.47 2.27777 3.58215 0
M  V30 23172 C 2167.38 4.62293 3.68834 0
M  V30 23173 H 2166.31 0.478422 0.582777 0
M  V30 23174 H 2168.96 1.61087 0.878812 0
M  V30 23175 H 2167.34 1.86499 3.49334 0
M  V30 23176 H 2168.51 4.21421 1.86389 0
M  V30 23177 H 2166.83 3.74142 1.82775 0
M  V30 23178 H 2169.43 2.91406 4.48315 0
M  V30 23179 H 2169.77 1.28334 3.96025 0
M  V30 23180 H 2170.3 2.65688 2.96065 0
M  V30 23181 H 2167.04 5.6276 3.36127 0
M  V30 23182 H 2166.56 4.18993 4.29191 0
M  V30 23183 H 2168.24 4.78042 4.35987 0
M  V30 23184 N 2168.37 -1.02294 1.19891 0
M  V30 23185 C 2169.78 -1.5724 1.0066 0
M  V30 23186 C 2170.13 -1.9123 -0.43882 0
M  V30 23187 O 2169.26 -1.71541 -1.31919 0
M  V30 23188 C 2169.85 -2.85704 1.82094 0
M  V30 23189 C 2168.41 -3.37202 1.67248 0
M  V30 23190 C 2167.56 -2.10577 1.80424 0
M  V30 23191 H 2170.51 -0.84751 1.34175 0
M  V30 23192 H 2170.53 -3.56849 1.32056 0
M  V30 23193 H 2170.04 -2.60935 2.87289 0
M  V30 23194 H 2168.15 -3.66946 0.646645 0
M  V30 23195 H 2168.26 -4.09832 2.48142 0
M  V30 23196 H 2166.62 -2.2273 1.23545 0
M  V30 23197 H 2167.41 -1.88241 2.87089 0
M  V30 23198 N 2169.85 -1.00378 -1.21499 0
M  V30 23199 C 2171.08 -0.704325 -1.95074 0
M  V30 23200 C 2171.5 0.726447 -1.73506 0
M  V30 23201 O 2170.86 1.49809 -1.02113 0
M  V30 23202 C 2170.91 -1.02938 -3.45595 0
M  V30 23203 O 2170.01 -0.133961 -4.12182 0
M  V30 23204 H 2169.35 -0.262537 -0.609894 0
M  V30 23205 H 2171.88 -1.34369 -1.54292 0
M  V30 23206 H 2171.89 -0.975727 -3.96161 0
M  V30 23207 H 2170.57 -2.0719 -3.60618 0
M  V30 23208 H 2169.14 -0.244034 -3.72101 0
M  V30 23209 N 2171.33 1.37038 -0.778354 0
M  V30 23210 C 2172.55 2.0432 -0.356086 0
M  V30 23211 C 2172.98 1.58315 1.01577 0
M  V30 23212 O 2172.34 0.74645 1.65221 0
M  V30 23213 C 2172.38 3.58196 -0.41573 0
M  V30 23214 O 2171.49 4.08281 0.581416 0
M  V30 23215 H 2170.83 0.646127 -0.153022 0
M  V30 23216 H 2173.36 1.75219 -1.05639 0
M  V30 23217 H 2173.37 4.0707 -0.275375 0
M  V30 23218 H 2172.04 3.91034 -1.41652 0
M  V30 23219 H 2170.62 3.70709 0.403635 0
M  V30 23220 N 2172.81 0.529439 1.48441 0
M  V30 23221 C 2174.08 -0.0692247 1.95477 0
M  V30 23222 C 2174.46 -1.51345 1.47166 0
M  V30 23223 O 2173.81 -2.1758 0.697925 0
M  V30 23224 C 2174.02 0.0474683 3.48968 0
M  V30 23225 C 2175.37 -0.112074 4.24452 0
M  V30 23226 O 2176.39 -0.0263527 3.5619 0
M  V30 23227 O 2175.25 -0.291683 5.45721 0
M  V30 23228 H 2172.35 -0.079598 0.82316 0
M  V30 23229 H 2174.89 0.593999 1.58965 0
M  V30 23230 H 2173.67 1.05353 3.76851 0
M  V30 23231 H 2173.29 -0.65463 3.92174 0
M  V30 23232 N 2174.29 -1.55364 0.264547 0
M  V30 23233 C 2175.53 -1.9936 -0.355245 0
M  V30 23234 C 2175.86 -1.15288 -1.56649 0
M  V30 23235 O 2175.12 -0.207938 -1.94592 0
M  V30 23236 C 2175.41 -3.48523 -0.791605 0
M  V30 23237 C 2175.08 -4.49807 0.313834 0
M  V30 23238 C 2173.74 -4.77223 0.617396 0
M  V30 23239 C 2176.09 -5.10323 1.05925 0
M  V30 23240 C 2173.42 -5.62426 1.67014 0
M  V30 23241 C 2175.77 -5.96669 2.10163 0
M  V30 23242 C 2174.44 -6.22411 2.41165 0
M  V30 23243 H 2173.71 -0.729509 -0.129993 0
M  V30 23244 H 2176.36 -1.87771 0.376055 0
M  V30 23245 H 2174.66 -3.57534 -1.60241 0
M  V30 23246 H 2176.36 -3.79964 -1.28173 0
M  V30 23247 H 2172.95 -4.28547 0.0671074 0
M  V30 23248 H 2177.13 -4.89174 0.837979 0
M  V30 23249 H 2172.39 -5.8062 1.91547 0
M  V30 23250 H 2176.56 -6.42598 2.68403 0
M  V30 23251 H 2174.19 -6.88226 3.22876 0
M  V30 23252 N 2175.76 0.00833021 -1.57598 0
M  V30 23253 C 2176.69 1.0015 -2.10932 0
M  V30 23254 C 2177.67 1.36385 -1.01653 0
M  V30 23255 O 2178.86 1.44906 -1.2929 0
M  V30 23256 C 2175.99 2.296 -2.60578 0
M  V30 23257 C 2174.94 2.07551 -3.74308 0
M  V30 23258 C 2174.27 3.42942 -4.10238 0
M  V30 23259 C 2175.57 1.44484 -5.01918 0
M  V30 23260 H 2177.26 0.557461 -2.94164 0
M  V30 23261 H 2174.81 0.266703 -1.41509 0
M  V30 23262 H 2176.76 2.99428 -2.96515 0
M  V30 23263 H 2175.49 2.76103 -1.74456 0
M  V30 23264 H 2174.15 1.40152 -3.38752 0
M  V30 23265 H 2173.79 3.87132 -3.21151 0
M  V30 23266 H 2173.49 3.29007 -4.86855 0
M  V30 23267 H 2175.02 4.14098 -4.48726 0
M  V30 23268 H 2176.43 2.04256 -5.35679 0
M  V30 23269 H 2174.83 1.41063 -5.83285 0
M  V30 23270 H 2175.9 0.413049 -4.83138 0
M  V30 23271 N 2177.24 1.55075 0.280956 0
M  V30 23272 C 2178.48 1.77053 1.02135 0
M  V30 23273 C 2178.85 0.555587 1.83786 0
M  V30 23274 O 2180.05 0.65347 2.60736 0
M  V30 23275 C 2178.32 3.03523 1.88703 0
M  V30 23276 S 2179.88 3.46587 2.69115 0
M  V30 23277 H 2176.69 0.62217 0.34413 0
M  V30 23278 H 2179.3 1.93298 0.292595 0
M  V30 23279 H 2178 3.9005 1.27628 0
M  V30 23280 H 2177.53 2.89921 2.65912 0
M  V30 23281 H 2179.55 3.05234 3.91212 0
M  V30 23282 N 2178.72 -0.545102 1.47873 0
M  V30 23283 C 2179.97 -1.30364 1.55348 0
M  V30 23284 C 2180.3 -1.92948 0.220182 0
M  V30 23285 O 2179.57 -1.78506 -0.772398 0
M  V30 23286 C 2179.86 -2.40454 2.68055 0
M  V30 23287 C 2179.71 -1.8266 4.11042 0
M  V30 23288 C 2181.03 -3.42314 2.76603 0
M  V30 23289 H 2178.15 -0.472628 0.565502 0
M  V30 23290 H 2180.79 -0.608798 1.79982 0
M  V30 23291 H 2178.94 -2.99722 2.47182 0
M  V30 23292 H 2180.61 -1.2756 4.43313 0
M  V30 23293 H 2178.85 -1.1327 4.18751 0
M  V30 23294 H 2179.53 -2.62302 4.85697 0
M  V30 23295 H 2182 -2.92981 2.95468 0
M  V30 23296 H 2180.88 -4.16757 3.57218 0
M  V30 23297 H 2181.14 -4.01923 1.84147 0
M  V30 23298 N 2180.2 -1.36208 -0.792797 0
M  V30 23299 C 2181.61 -1.16547 -1.09036 0
M  V30 23300 C 2181.81 0.0127355 -2.01496 0
M  V30 23301 O 2180.87 0.679142 -2.43195 0
M  V30 23302 C 2182.18 -2.47477 -1.70808 0
M  V30 23303 C 2183.73 -2.5381 -1.83165 0
M  V30 23304 C 2184.21 -3.84818 -2.48352 0
M  V30 23305 N 2185.7 -3.86146 -2.55824 0
M  V30 23306 C 2186.43 -4.84251 -3.07064 0
M  V30 23307 N 2185.93 -5.92749 -3.58637 0
M  V30 23308 N 2187.72 -4.71674 -3.05745 0
M  V30 23309 H 2179.87 -2.11649 -0.178453 0
M  V30 23310 H 2182.13 -0.937338 -0.141777 0
M  V30 23311 H 2181.84 -3.33944 -1.10338 0
M  V30 23312 H 2181.71 -2.63037 -2.70354 0
M  V30 23313 H 2184.1 -1.67764 -2.42774 0
M  V30 23314 H 2184.18 -2.42153 -0.824343 0
M  V30 23315 H 2183.83 -4.71269 -1.89388 0
M  V30 23316 H 2183.76 -3.9377 -3.49647 0
M  V30 23317 H 2186.25 -3.07758 -2.19301 0
M  V30 23318 H 2186.56 -6.63584 -3.96075 0
M  V30 23319 H 2184.91 -5.96423 -3.56798 0
M  V30 23320 H 2188.1 -3.86044 -2.6474 0
M  V30 23321 H 2188.27 -5.48291 -3.4537 0
M  V30 23322 N 2181.68 1.01656 -1.20431 0
M  V30 23323 C 2182.92 1.75255 -1.01449 0
M  V30 23324 C 2183.25 1.89142 0.453379 0
M  V30 23325 O 2182.51 1.4141 1.35284 0
M  V30 23326 C 2182.8 3.17385 -1.64322 0
M  V30 23327 C 2182.47 3.23475 -3.14126 0
M  V30 23328 C 2181.13 3.24844 -3.55007 0
M  V30 23329 C 2183.48 3.21636 -4.10122 0
M  V30 23330 C 2180.81 3.22046 -4.90411 0
M  V30 23331 C 2183.16 3.20379 -5.45472 0
M  V30 23332 C 2181.83 3.20052 -5.85767 0
M  V30 23333 H 2181.1 0.641303 -0.37123 0
M  V30 23334 H 2183.75 1.19228 -1.49857 0
M  V30 23335 H 2182.05 3.7657 -1.08177 0
M  V30 23336 H 2183.75 3.73025 -1.4715 0
M  V30 23337 H 2180.34 3.23145 -2.81559 0
M  V30 23338 H 2184.52 3.19748 -3.79572 0
M  V30 23339 H 2179.78 3.20123 -5.20894 0
M  V30 23340 H 2183.95 3.17908 -6.19602 0
M  V30 23341 H 2181.58 3.17638 -6.90659 0
M  V30 23342 N 2183.15 1.01021 1.20965 0
M  V30 23343 C 2184.57 0.723934 1.42237 0
M  V30 23344 C 2184.77 -0.698897 1.88991 0
M  V30 23345 O 2183.83 -1.46754 2.05474 0
M  V30 23346 C 2185.14 1.74422 2.44944 0
M  V30 23347 C 2186.69 1.76162 2.5872 0
M  V30 23348 C 2187.16 2.771 3.64664 0
M  V30 23349 N 2188.65 2.758 3.72141 0
M  V30 23350 C 2189.39 3.5056 4.53757 0
M  V30 23351 N 2188.88 4.34977 5.39228 0
M  V30 23352 N 2190.68 3.39187 4.48229 0
M  V30 23353 H 2182.83 1.92886 0.889301 0
M  V30 23354 H 2185.09 0.832854 0.452834 0
M  V30 23355 H 2184.8 2.76323 2.17574 0
M  V30 23356 H 2184.67 1.55112 3.43831 0
M  V30 23357 H 2187.06 0.749493 2.85424 0
M  V30 23358 H 2187.14 1.99544 1.60049 0
M  V30 23359 H 2186.78 3.78473 3.38705 0
M  V30 23360 H 2186.71 2.50982 4.62942 0
M  V30 23361 H 2189.2 2.1456 3.11083 0
M  V30 23362 H 2189.52 4.88805 5.98573 0
M  V30 23363 H 2187.86 4.39057 5.38752 0
M  V30 23364 H 2191.05 2.72665 3.80488 0
M  V30 23365 H 2191.23 3.97705 5.116 0
M  V30 23366 N 2184.63 -1.36623 0.78561 0
M  V30 23367 C 2185.88 -1.98589 0.352861 0
M  V30 23368 C 2186.19 -1.63058 -1.08035 0
M  V30 23369 O 2187.4 -2.1823 -1.61518 0
M  V30 23370 C 2185.86 -3.55196 0.579953 0
M  V30 23371 C 2185.46 -3.99656 2.02433 0
M  V30 23372 C 2187.21 -4.23973 0.21152 0
M  V30 23373 C 2185.11 -5.49026 2.19828 0
M  V30 23374 H 2184.04 -0.743022 0.128194 0
M  V30 23375 H 2186.7 -1.55971 0.966705 0
M  V30 23376 H 2185.08 -3.95865 -0.103548 0
M  V30 23377 H 2186.25 -3.70197 2.74392 0
M  V30 23378 H 2184.57 -3.43705 2.35065 0
M  V30 23379 H 2187.16 -5.33743 0.319819 0
M  V30 23380 H 2187.51 -4.07739 -0.839914 0
M  V30 23381 H 2188.04 -3.88654 0.848108 0
M  V30 23382 H 2184.78 -5.70203 3.23341 0
M  V30 23383 H 2184.3 -5.80124 1.52369 0
M  V30 23384 H 2185.98 -6.15196 2.00358 0
M  V30 23385 N 2186.11 -0.537304 -1.48158 0
M  V30 23386 C 2187.36 -0.00588246 -2.02499 0
M  V30 23387 C 2187.68 1.33585 -1.41369 0
M  V30 23388 O 2186.94 1.87767 -0.551542 0
M  V30 23389 C 2187.24 0.157545 -3.57053 0
M  V30 23390 C 2186.9 -1.11076 -4.37005 0
M  V30 23391 C 2185.57 -1.45834 -4.58569 0
M  V30 23392 C 2187.92 -1.95212 -4.83261 0
M  V30 23393 C 2185.25 -2.64612 -5.23639 0
M  V30 23394 C 2187.6 -3.13176 -5.4964 0
M  V30 23395 C 2186.26 -3.4827 -5.69442 0
M  V30 23396 H 2185.53 -0.00215255 -0.740997 0
M  V30 23397 H 2188.18 -0.704805 -1.78058 0
M  V30 23398 H 2186.48 0.93929 -3.80374 0
M  V30 23399 H 2188.18 0.583759 -3.96728 0
M  V30 23400 H 2184.77 -0.830084 -4.20485 0
M  V30 23401 H 2188.96 -1.6967 -4.66397 0
M  V30 23402 H 2184.21 -2.91996 -5.37167 0
M  V30 23403 H 2188.39 -3.78671 -5.8445 0
M  V30 23404 H 2186.01 -4.40406 -6.19634 0
M  V30 23405 N 2187.59 1.55221 -0.272782 0
M  V30 23406 C 2188.5 2.26098 0.62584 0
M  V30 23407 C 2189.51 1.28606 1.17203 0
M  V30 23408 O 2190.69 1.61537 1.20281 0
M  V30 23409 C 2187.76 2.96645 1.7945 0
M  V30 23410 C 2186.82 4.0961 1.28522 0
M  V30 23411 C 2186.05 4.76784 2.39819 0
M  V30 23412 O 2186.27 4.43155 3.59124 0
M  V30 23413 O 2185.21 5.64779 2.08107 0
M  V30 23414 H 2189.03 3.03656 0.0517442 0
M  V30 23415 H 2186.62 1.49346 -0.0402752 0
M  V30 23416 H 2188.5 3.40989 2.47597 0
M  V30 23417 H 2187.17 2.22006 2.35573 0
M  V30 23418 H 2186.08 3.69728 0.570286 0
M  V30 23419 H 2187.41 4.86143 0.769772 0
M  V30 23420 N 2189.07 2.77022e-05 1.576 0
M  V30 23421 C 2190 -0.990304 2.1146 0
M  V30 23422 C 2190.98 -1.35844 1.02374 0
M  V30 23423 O 2192.16 -1.44218 1.30057 0
M  V30 23424 C 2189.29 -2.28215 2.61792 0
M  V30 23425 C 2188.25 -2.05563 3.75404 0
M  V30 23426 C 2187.57 -3.40761 4.12051 0
M  V30 23427 C 2188.87 -1.4182 5.02677 0
M  V30 23428 H 2190.57 -0.541853 2.94456 0
M  V30 23429 H 2188.11 -0.259194 1.41648 0
M  V30 23430 H 2190.07 -2.97851 2.98099 0
M  V30 23431 H 2188.79 -2.75174 1.75918 0
M  V30 23432 H 2187.45 -1.38353 3.39491 0
M  V30 23433 H 2187.1 -3.85423 3.232 0
M  V30 23434 H 2186.8 -3.26421 4.88593 0
M  V30 23435 H 2188.32 -4.11712 4.50916 0
M  V30 23436 H 2189.73 -2.01413 5.36755 0
M  V30 23437 H 2188.13 -1.37967 5.84025 0
M  V30 23438 H 2189.2 -0.387421 4.8335 0
M  V30 23439 N 2190.54 -1.55222 -0.272728 0
M  V30 23440 C 2191.79 -1.75841 -1.00429 0
M  V30 23441 C 2192.12 -0.559662 -1.86274 0
M  V30 23442 O 2191.37 0.457824 -1.90269 0
M  V30 23443 C 2191.67 -3.01679 -1.91637 0
M  V30 23444 C 2191.34 -4.34211 -1.2154 0
M  V30 23445 C 2190 -4.70231 -1.02158 0
M  V30 23446 C 2192.35 -5.1625 -0.716594 0
M  V30 23447 C 2189.68 -5.85847 -0.316231 0
M  V30 23448 C 2192.03 -6.32595 -0.0248364 0
M  V30 23449 C 2190.7 -6.67255 0.180696 0
M  V30 23450 H 2189.97 -0.643449 -0.367497 0
M  V30 23451 H 2192.61 -1.89492 -0.276563 0
M  V30 23452 H 2190.92 -2.82929 -2.71032 0
M  V30 23453 H 2192.62 -3.14828 -2.48363 0
M  V30 23454 H 2189.21 -4.05899 -1.37638 0
M  V30 23455 H 2193.39 -4.88898 -0.853961 0
M  V30 23456 H 2188.65 -6.11225 -0.14627 0
M  V30 23457 H 2192.82 -6.95419 0.369433 0
M  V30 23458 H 2190.45 -7.56694 0.729231 0
M  V30 23459 N 2192.02 0.537252 -1.4816 0
M  V30 23460 C 2192.93 1.66957 -1.6481 0
M  V30 23461 C 2193.95 1.6571 -0.53068 0
M  V30 23462 O 2195.12 1.84794 -0.800816 0
M  V30 23463 C 2192.19 3.03435 -1.67714 0
M  V30 23464 C 2191.25 3.15595 -2.9103 0
M  V30 23465 C 2190.48 4.45562 -2.93786 0
M  V30 23466 O 2190.71 5.32226 -2.05162 0
M  V30 23467 O 2189.64 4.61934 -3.85876 0
M  V30 23468 H 2193.47 1.55849 -2.60662 0
M  V30 23469 H 2191.05 0.709526 -1.31477 0
M  V30 23470 H 2192.93 3.84616 -1.72187 0
M  V30 23471 H 2191.61 3.14884 -0.750333 0
M  V30 23472 H 2190.52 2.33736 -2.92093 0
M  V30 23473 H 2191.85 3.09059 -3.83071 0
M  V30 23474 N 2193.5 1.36626 0.785562 0
M  V30 23475 C 2194.75 1.31264 1.54588 0
M  V30 23476 C 2195.08 -0.106789 1.93906 0
M  V30 23477 O 2194.35 -1.06105 1.63009 0
M  V30 23478 C 2194.64 2.23894 2.82034 0
M  V30 23479 C 2194.49 3.74553 2.49059 0
M  V30 23480 C 2195.81 2.15224 3.83884 0
M  V30 23481 H 2192.93 0.478152 0.560838 0
M  V30 23482 H 2195.57 1.67211 0.902248 0
M  V30 23483 H 2193.72 1.93369 3.36958 0
M  V30 23484 H 2195.39 4.15614 2.00157 0
M  V30 23485 H 2193.64 3.93799 1.81947 0
M  V30 23486 H 2194.31 4.34782 3.40101 0
M  V30 23487 H 2196.78 2.42101 3.38417 0
M  V30 23488 H 2195.66 2.82201 4.70801 0
M  V30 23489 H 2195.92 1.14075 4.27129 0
M  V30 23490 N 2194.98 -1.01016 1.20969 0
M  V30 23491 C 2196.23 -1.74369 1.02175 0
M  V30 23492 C 2196.55 -1.89822 -0.44638 0
M  V30 23493 O 2195.82 -1.44539 -1.32232 0
M  V30 23494 H 2194.4 -0.646008 0.375078 0
M  V30 23495 H 2197.06 -1.21756 1.52189 0
M  V30 23496 H 2196.16 -2.74484 1.48543 0
M  V30 23497 N 2196.46 -1.01661 -1.20428 0
M  V30 23498 C 2197.7 -0.70595 -1.89796 0
M  V30 23499 C 2198.03 0.764408 -1.78849 0
M  V30 23500 O 2197.29 1.571 -1.16697 0
M  V30 23501 C 2197.59 -1.0872 -3.40462 0
M  V30 23502 C 2197.25 -2.55377 -3.71609 0
M  V30 23503 C 2195.91 -2.95448 -3.79821 0
M  V30 23504 C 2198.27 -3.50319 -3.85909 0
M  V30 23505 C 2195.59 -4.29402 -3.99789 0
M  V30 23506 C 2197.95 -4.83961 -4.07387 0
M  V30 23507 C 2196.61 -5.23739 -4.13828 0
M  V30 23508 H 2195.88 -0.258325 -0.694513 0
M  V30 23509 H 2198.53 -1.27719 -1.42689 0
M  V30 23510 H 2196.83 -0.434378 -3.89385 0
M  V30 23511 H 2198.53 -0.82453 -3.92432 0
M  V30 23512 H 2195.12 -2.23327 -3.65818 0
M  V30 23513 H 2199.3 -3.2052 -3.7892 0
M  V30 23514 H 2194.56 -4.59775 -4.0301 0
M  V30 23515 H 2198.73 -5.57454 -4.17394 0
M  V30 23516 H 2196.36 -6.27549 -4.29053 0
M  V30 23517 N 2197.93 1.36205 -0.792844 0
M  V30 23518 C 2198.86 2.32573 -0.207894 0
M  V30 23519 C 2199.85 1.56815 0.659028 0
M  V30 23520 O 2201.03 1.84952 0.592143 0
M  V30 23521 C 2198.16 3.4106 0.655389 0
M  V30 23522 C 2197.11 4.27854 -0.111917 0
M  V30 23523 C 2196.44 5.27539 0.872181 0
M  V30 23524 C 2197.74 5.05784 -1.30308 0
M  V30 23525 H 2199.43 2.81743 -1.01299 0
M  V30 23526 H 2196.98 1.35459 -0.488564 0
M  V30 23527 H 2198.93 4.07469 1.07457 0
M  V30 23528 H 2197.66 2.90466 1.49323 0
M  V30 23529 H 2196.32 3.63005 -0.512116 0
M  V30 23530 H 2195.96 4.73217 1.70514 0
M  V30 23531 H 2195.66 5.86477 0.363188 0
M  V30 23532 H 2197.19 5.96821 1.28986 0
M  V30 23533 H 2198.6 5.65214 -0.959478 0
M  V30 23534 H 2197 5.7415 -1.7456 0
M  V30 23535 H 2198.07 4.37226 -2.0967 0
M  V30 23536 N 2199.41 0.545154 1.47871 0
M  V30 23537 C 2200.64 0.0190975 2.07391 0
M  V30 23538 C 2201.06 -1.25969 1.39691 0
M  V30 23539 O 2200.42 -1.7516 0.467847 0
M  V30 23540 C 2200.47 -0.172272 3.60188 0
M  V30 23541 O 2199.57 -1.23759 3.93392 0
M  V30 23542 H 2198.91 0.0459176 0.66241 0
M  V30 23543 H 2201.44 0.757399 1.90065 0
M  V30 23544 H 2201.45 -0.390233 4.0613 0
M  V30 23545 H 2200.13 0.761796 4.08864 0
M  V30 23546 H 2198.71 -1.00108 3.59211 0
M  V30 23547 N 2200.89 -1.55074 0.28101 0
M  V30 23548 C 2202.3 -1.85451 -0.215596 0
M  V30 23549 C 2202.65 -1.20303 -1.54989 0
M  V30 23550 O 2201.78 -0.493472 -2.10698 0
M  V30 23551 C 2202.37 -3.36455 -0.397967 0
M  V30 23552 C 2200.93 -3.66935 -0.838802 0
M  V30 23553 C 2200.08 -2.77225 0.0645067 0
M  V30 23554 H 2203.03 -1.5053 0.502627 0
M  V30 23555 H 2203.05 -3.59878 -1.23563 0
M  V30 23556 H 2202.56 -3.83842 0.573309 0
M  V30 23557 H 2200.66 -3.25051 -1.82134 0
M  V30 23558 H 2200.78 -4.74363 -0.67204 0
M  V30 23559 H 2199.14 -2.50642 -0.452819 0
M  V30 23560 H 2199.92 -3.27428 1.03177 0
M  V30 23561 N 2202.37 -0.00838561 -1.57598 0
M  V30 23562 C 2203.33 0.965206 -2.07886 0
M  V30 23563 C 2204.33 1.26723 -0.989847 0
M  V30 23564 O 2205.52 1.21101 -1.2522 0
M  V30 23565 C 2202.65 2.28775 -2.52735 0
M  V30 23566 H 2203.85 0.53006 -2.95179 0
M  V30 23567 H 2201.4 0.239256 -1.54458 0
M  V30 23568 H 2202.14 2.76961 -1.6871 0
M  V30 23569 H 2201.92 2.08172 -3.32276 0
M  V30 23570 H 2203.41 2.986 -2.91938 0
M  V30 23571 N 2203.85 1.55365 0.264492 0
M  V30 23572 C 2205.08 1.80407 1.01297 0
M  V30 23573 C 2205.49 0.581654 1.79617 0
M  V30 23574 O 2204.85 -0.449437 1.76879 0
M  V30 23575 C 2204.9 3.03442 1.96482 0
M  V30 23576 O 2204.62 4.20963 1.21334 0
M  V30 23577 C 2206.12 3.41152 2.83073 0
M  V30 23578 H 2203.34 0.600767 0.298865 0
M  V30 23579 H 2205.88 2.02394 0.2927 0
M  V30 23580 H 2204.04 2.83556 2.6396 0
M  V30 23581 H 2204.45 4.90577 1.85564 0
M  V30 23582 H 2205.93 4.3039 3.45642 0
M  V30 23583 H 2206.4 2.60938 3.53282 0
M  V30 23584 H 2207.01 3.63327 2.21073 0
M  V30 23585 N 2205.33 -0.529387 1.48443 0
M  V30 23586 C 2206.57 -1.28518 1.56491 0
M  V30 23587 C 2206.9 -1.93025 0.239076 0
M  V30 23588 O 2206.16 -1.79886 -0.770681 0
M  V30 23589 C 2206.45 -2.39553 2.65234 0
M  V30 23590 C 2206.12 -1.92695 4.07651 0
M  V30 23591 C 2204.78 -1.79633 4.46414 0
M  V30 23592 C 2207.13 -1.57291 4.96899 0
M  V30 23593 C 2204.46 -1.29504 5.72229 0
M  V30 23594 C 2206.81 -1.08625 6.23204 0
M  V30 23595 C 2205.48 -0.941803 6.60822 0
M  V30 23596 H 2204.75 -0.470282 0.572639 0
M  V30 23597 H 2207.4 -0.590688 1.82162 0
M  V30 23598 H 2205.7 -3.14675 2.33425 0
M  V30 23599 H 2207.4 -2.97681 2.68676 0
M  V30 23600 H 2203.99 -2.03812 3.77039 0
M  V30 23601 H 2208.17 -1.66242 4.67629 0
M  V30 23602 H 2203.43 -1.17009 6.00099 0
M  V30 23603 H 2207.6 -0.803015 6.91755 0
M  V30 23604 H 2205.23 -0.551167 7.58199 0
M  V30 23605 N 2206.8 -1.37041 -0.778305 0
M  V30 23606 C 2208.03 -1.35066 -1.56731 0
M  V30 23607 C 2208.45 0.0655266 -1.88686 0
M  V30 23608 O 2207.8 1.02552 -1.50962 0
M  V30 23609 C 2207.85 -2.18281 -2.88159 0
M  V30 23610 O 2207.58 -3.54381 -2.57577 0
M  V30 23611 C 2209.08 -2.24212 -3.82418 0
M  V30 23612 H 2206.3 -0.462891 -0.48577 0
M  V30 23613 H 2208.84 -1.80292 -0.965154 0
M  V30 23614 H 2207 -1.76582 -3.44815 0
M  V30 23615 H 2207.41 -3.97928 -3.41692 0
M  V30 23616 H 2208.88 -2.86774 -4.71662 0
M  V30 23617 H 2209.36 -1.24869 -4.21075 0
M  V30 23618 H 2209.97 -2.66196 -3.31693 0
M  V30 23619 N 2208.28 1.00373 -1.21503 0
M  V30 23620 C 2209.53 1.74427 -1.03456 0
M  V30 23621 C 2209.86 1.89363 0.430731 0
M  V30 23622 O 2209.14 1.42888 1.31959 0
M  V30 23623 C 2209.42 3.15612 -1.73381 0
M  V30 23624 C 2209.27 3.08391 -3.27437 0
M  V30 23625 C 2210.59 4.14561 -1.47739 0
M  V30 23626 H 2207.71 0.633136 -0.377237 0
M  V30 23627 H 2210.35 1.1701 -1.49695 0
M  V30 23628 H 2208.5 3.64633 -1.3407 0
M  V30 23629 H 2210.17 2.67075 -3.76123 0
M  V30 23630 H 2208.42 2.45462 -3.57674 0
M  V30 23631 H 2209.09 4.08251 -3.71531 0
M  V30 23632 H 2211.56 3.74251 -1.81866 0
M  V30 23633 H 2210.44 5.11488 -1.99178 0
M  V30 23634 H 2210.7 4.40216 -0.407666 0
M  V30 23635 N 2209.76 1.02298 1.19887 0
M  V30 23636 C 2210.99 0.734366 1.93108 0
M  V30 23637 C 2211.4 -0.709859 1.75379 0
M  V30 23638 O 2210.74 -1.49382 1.06915 0
M  V30 23639 C 2210.8 0.99833 3.4536 0
M  V30 23640 C 2210.47 2.43293 3.86856 0
M  V30 23641 C 2211.46 3.41404 3.92096 0
M  V30 23642 C 2209.15 2.77537 4.18663 0
M  V30 23643 C 2211.14 4.71817 4.28565 0
M  V30 23644 C 2208.83 4.08161 4.54806 0
M  V30 23645 C 2209.83 5.05111 4.5973 0
M  V30 23646 O 2209.52 6.33397 4.95039 0
M  V30 23647 H 2209.25 0.268467 0.620404 0
M  V30 23648 H 2211.8 1.36883 1.53141 0
M  V30 23649 H 2210.03 0.306713 3.85482 0
M  V30 23650 H 2211.72 0.700304 3.99813 0
M  V30 23651 H 2212.49 3.16286 3.67679 0
M  V30 23652 H 2208.37 2.02757 4.14018 0
M  V30 23653 H 2211.91 5.47487 4.32323 0
M  V30 23654 H 2207.81 4.33055 4.78679 0
M  V30 23655 H 2208.57 6.37781 5.13009 0
M  V30 23656 N 2211.24 -1.35782 0.800057 0
M  V30 23657 C 2212.15 -2.33683 0.207245 0
M  V30 23658 C 2213.16 -1.61552 -0.646282 0
M  V30 23659 O 2214.34 -1.9347 -0.55957 0
M  V30 23660 C 2211.4 -3.40749 -0.639599 0
M  V30 23661 C 2210.47 -4.28664 0.23366 0
M  V30 23662 C 2209.7 -5.30617 -0.572861 0
M  V30 23663 O 2209.92 -5.40986 -1.80806 0
M  V30 23664 O 2208.86 -6.01891 0.0328343 0
M  V30 23665 H 2212.68 -2.86167 1.01697 0
M  V30 23666 H 2210.27 -1.38438 0.561715 0
M  V30 23667 H 2212.15 -4.06184 -1.12216 0
M  V30 23668 H 2210.82 -2.90547 -1.42703 0
M  V30 23669 H 2209.73 -3.66232 0.763212 0
M  V30 23670 H 2211.06 -4.82246 0.984869 0
M  V30 23671 N 2212.72 -0.552988 -1.4758 0
M  V30 23672 C 2213.95 -0.0320454 -2.06575 0
M  V30 23673 C 2214.35 1.26522 -1.40673 0
M  V30 23674 O 2213.7 1.76882 -0.495839 0
M  V30 23675 C 2213.76 0.23885 -3.58706 0
M  V30 23676 C 2213.42 -0.968351 -4.46623 0
M  V30 23677 C 2214.42 -1.87282 -4.84996 0
M  V30 23678 C 2212.1 -1.18183 -4.88199 0
M  V30 23679 C 2214.1 -2.9745 -5.6374 0
M  V30 23680 C 2211.79 -2.28661 -5.66708 0
M  V30 23681 C 2212.78 -3.18125 -6.04388 0
M  V30 23682 O 2212.47 -4.26688 -6.81317 0
M  V30 23683 H 2212.2 -0.0408808 -0.674763 0
M  V30 23684 H 2214.76 -0.764753 -1.90632 0
M  V30 23685 H 2212.99 1.02582 -3.72846 0
M  V30 23686 H 2214.68 0.704661 -3.99737 0
M  V30 23687 H 2215.44 -1.71992 -4.53479 0
M  V30 23688 H 2211.32 -0.494674 -4.58338 0
M  V30 23689 H 2214.87 -3.67306 -5.9307 0
M  V30 23690 H 2210.76 -2.43925 -5.97638 0
M  V30 23691 H 2211.53 -4.24683 -6.99705 0
M  V30 23692 N 2214.19 1.54923 -0.28923 0
M  V30 23693 C 2215.14 2.19774 0.6069 0
M  V30 23694 C 2216.13 1.16689 1.10781 0
M  V30 23695 O 2217.32 1.42452 1.05054 0
M  V30 23696 C 2214.45 2.9331 1.78393 0
M  V30 23697 C 2213.53 4.03699 1.29954 0
M  V30 23698 N 2213.93 5.02991 0.532289 0
M  V30 23699 C 2212.22 4.17027 1.58129 0
M  V30 23700 C 2212.92 5.81046 0.27581 0
M  V30 23701 N 2211.9 5.36877 0.852271 0
M  V30 23702 H 2215.7 2.93897 0.0130262 0
M  V30 23703 H 2213.22 1.62131 -0.0934385 0
M  V30 23704 H 2215.21 3.38229 2.43735 0
M  V30 23705 H 2213.87 2.20701 2.38162 0
M  V30 23706 H 2214.88 5.17593 0.178289 0
M  V30 23707 H 2211.56 3.55616 2.18731 0
M  V30 23708 H 2212.95 6.71041 -0.33962 0
M  V30 23709 N 2215.67 0.0167433 1.57591 0
M  V30 23710 C 2217.09 -0.339529 1.55947 0
M  V30 23711 C 2217.29 -1.73711 1.02112 0
M  V30 23712 O 2216.34 -2.43658 0.662345 0
M  V30 23713 C 2217.66 -0.199446 3.00038 0
M  V30 23714 C 2219.2 -0.273139 3.11806 0
M  V30 23715 C 2219.68 -0.161988 4.57713 0
M  V30 23716 N 2221.17 -0.219363 4.6268 0
M  V30 23717 C 2221.91 -0.156954 5.73185 0
M  V30 23718 N 2221.4 -0.0441718 6.92786 0
M  V30 23719 N 2223.19 -0.210041 5.61707 0
M  V30 23720 H 2215.35 0.930792 1.90919 0
M  V30 23721 H 2217.61 0.358334 0.877668 0
M  V30 23722 H 2217.31 0.76279 3.43328 0
M  V30 23723 H 2217.19 -0.974722 3.64389 0
M  V30 23724 H 2219.58 -1.22583 2.68435 0
M  V30 23725 H 2219.66 0.5323 2.502 0
M  V30 23726 H 2219.3 0.787228 5.01762 0
M  V30 23727 H 2219.23 -0.986131 5.17284 0
M  V30 23728 H 2221.72 -0.30718 3.76649 0
M  V30 23729 H 2222.03 -0.00290485 7.728 0
M  V30 23730 H 2220.38 -0.00956241 6.94999 0
M  V30 23731 H 2223.57 -0.296464 4.6716 0
M  V30 23732 H 2223.74 -0.15794 6.47807 0
M  V30 23733 N 2217.15 -1.55503 -0.256249 0
M  V30 23734 C 2218.56 -1.67432 -0.826039 0
M  V30 23735 C 2218.91 -0.612478 -1.86395 0
M  V30 23736 O 2218.04 0.242987 -2.15031 0
M  V30 23737 C 2218.63 -3.03535 -1.50507 0
M  V30 23738 C 2217.19 -3.17435 -2.02267 0
M  V30 23739 C 2216.34 -2.63282 -0.870502 0
M  V30 23740 H 2219.29 -1.58667 -0.0322449 0
M  V30 23741 H 2219.31 -2.97458 -2.37274 0
M  V30 23742 H 2218.82 -3.80796 -0.749417 0
M  V30 23743 H 2216.92 -2.44979 -2.80742 0
M  V30 23744 H 2217.04 -4.24223 -2.22648 0
M  V30 23745 H 2215.4 -2.20866 -1.26847 0
M  V30 23746 H 2216.18 -3.43061 -0.128088 0
M  V30 23747 N 2218.63 0.521507 -1.48721 0
M  V30 23748 C 2219.91 1.28278 -1.47662 0
M  V30 23749 C 2220.29 2.10216 -0.192957 0
M  V30 23750 O 2219.63 2.13081 0.825155 0
M  V30 23751 C 2219.84 2.157 -2.74362 0
M  V30 23752 C 2221.19 2.75563 -3.23032 0
M  V30 23753 O 2222.22 2.25982 -2.75337 0
M  V30 23754 O 2221.07 3.65771 -4.06046 0
M  V30 23755 H 2218.17 0.579411 -0.590095 0
M  V30 23756 H 2220.71 0.537464 -1.60964 0
M  V30 23757 H 2219.49 1.54993 -3.59295 0
M  V30 23758 H 2219.11 2.97463 -2.63821 0
M  V30 23759 N 2220.11 1.37452 0.771027 0
M  V30 23760 C 2221.05 1.33273 1.88433 0
M  V30 23761 C 2222.02 0.198165 1.64914 0
M  V30 23762 O 2223.21 0.387639 1.86821 0
M  V30 23763 C 2220.35 1.14627 3.25507 0
M  V30 23764 C 2219.46 2.3732 3.60975 0
M  V30 23765 C 2218.6 2.11541 4.87261 0
M  V30 23766 C 2217.64 3.30097 5.15463 0
M  V30 23767 N 2216.77 3.03864 6.32938 0
M  V30 23768 H 2221.61 2.28458 1.9134 0
M  V30 23769 H 2219.15 1.13525 0.935446 0
M  V30 23770 H 2221.11 1.01838 4.0458 0
M  V30 23771 H 2219.74 0.230893 3.21973 0
M  V30 23772 H 2218.79 2.60847 2.76881 0
M  V30 23773 H 2220.1 3.25736 3.77754 0
M  V30 23774 H 2219.26 1.95787 5.74241 0
M  V30 23775 H 2217.99 1.20465 4.72588 0
M  V30 23776 H 2217 3.46389 4.26959 0
M  V30 23777 H 2218.22 4.22025 5.32045 0
M  V30 23778 H 2216.17 2.15418 6.19622 0
M  V30 23779 H 2216.09 3.85823 6.50136 0
M  V30 23780 H 2217.36 2.91729 7.22852 0
M  V30 23781 N 2221.58 -0.997276 1.22033 0
M  V30 23782 C 2222.52 -2.08844 0.944299 0
M  V30 23783 C 2223.53 -1.62625 -0.0754377 0
M  V30 23784 O 2224.72 -1.77799 0.158026 0
M  V30 23785 C 2221.82 -3.36557 0.397782 0
M  V30 23786 C 2220.99 -4.11826 1.4737 0
M  V30 23787 C 2220.05 -5.17826 0.935042 0
M  V30 23788 O 2219.08 -5.45652 1.62025 0
M  V30 23789 N 2220.28 -5.79979 -0.245793 0
M  V30 23790 H 2223.04 -2.33105 1.88367 0
M  V30 23791 H 2220.6 -1.1627 1.12663 0
M  V30 23792 H 2222.6 -4.04694 0.0228482 0
M  V30 23793 H 2221.17 -3.09393 -0.446592 0
M  V30 23794 H 2220.39 -3.38383 2.02214 0
M  V30 23795 H 2221.67 -4.58887 2.19772 0
M  V30 23796 H 2221.07 -5.59734 -0.819377 0
M  V30 23797 H 2219.63 -6.49371 -0.562158 0
M  V30 23798 N 2223.06 -1.02932 -1.19343 0
M  V30 23799 C 2224.3 -0.734761 -1.90737 0
M  V30 23800 C 2224.67 0.723383 -1.77852 0
M  V30 23801 O 2225.87 1.13104 -2.43846 0
M  V30 23802 C 2224.14 -1.17402 -3.37567 0
M  V30 23803 S 2225.7 -1.00336 -4.27174 0
M  V30 23804 H 2222.52 -0.267485 -0.658766 0
M  V30 23805 H 2225.12 -1.31925 -1.44278 0
M  V30 23806 H 2223.82 -2.23087 -3.44471 0
M  V30 23807 H 2223.35 -0.58284 -3.89059 0
M  V30 23808 H 2225.37 0.085828 -4.96126 0
M  V30 23809 N 2224.54 1.35356 -0.807246 0
M  V30 23810 C 2225.77 2.02988 -0.400413 0
M  V30 23811 C 2226.18 1.60834 0.988831 0
M  V30 23812 O 2225.54 0.806204 1.63727 0
M  V30 23813 C 2225.59 3.58367 -0.47493 0
M  V30 23814 O 2225.31 3.98989 -1.8094 0
M  V30 23815 C 2226.81 4.43258 -0.0609891 0
M  V30 23816 H 2224.03 0.651001 -0.162598 0
M  V30 23817 H 2226.58 1.72963 -1.09105 0
M  V30 23818 H 2224.73 3.87038 0.167466 0
M  V30 23819 H 2225.15 4.93637 -1.77265 0
M  V30 23820 H 2226.62 5.51756 -0.164242 0
M  V30 23821 H 2227.1 4.2781 0.993756 0
M  V30 23822 H 2227.7 4.19884 -0.676566 0
M  V30 23823 N 2226.02 0.560807 1.47284 0
M  V30 23824 C 2226.95 -0.232781 2.2701 0
M  V30 23825 C 2227.93 -0.917015 1.34274 0
M  V30 23826 O 2229.11 -0.935286 1.6366 0
M  V30 23827 C 2226.24 -1.332 3.11409 0
M  V30 23828 C 2225.29 -0.755945 4.19747 0
M  V30 23829 S 2226.12 0.400259 5.34002 0
M  V30 23830 C 2227.28 -0.700696 6.21965 0
M  V30 23831 H 2227.51 0.443735 2.9397 0
M  V30 23832 H 2225.04 0.347207 1.50445 0
M  V30 23833 H 2227 -1.9615 3.60604 0
M  V30 23834 H 2225.66 -1.98037 2.43803 0
M  V30 23835 H 2224.85 -1.58152 4.78544 0
M  V30 23836 H 2224.46 -0.202554 3.73451 0
M  V30 23837 H 2226.75 -1.59191 6.58532 0
M  V30 23838 H 2227.69 -0.150002 7.07941 0
M  V30 23839 H 2228.1 -0.994986 5.55662 0
M  V30 23840 N 2227.5 -1.54768 0.297442 0
M  V30 23841 C 2228.74 -2.00068 -0.312878 0
M  V30 23842 C 2229.07 -1.18584 -1.54169 0
M  V30 23843 O 2228.33 -0.249167 -1.94107 0
M  V30 23844 C 2228.63 -3.50124 -0.7175 0
M  V30 23845 C 2228.29 -4.4904 0.409174 0
M  V30 23846 C 2226.95 -4.75806 0.718483 0
M  V30 23847 C 2229.31 -5.07961 1.16726 0
M  V30 23848 C 2226.63 -5.58757 1.78906 0
M  V30 23849 C 2228.99 -5.92077 2.22772 0
M  V30 23850 C 2227.65 -6.17156 2.54313 0
M  V30 23851 H 2226.92 -0.732102 -0.11449 0
M  V30 23852 H 2229.57 -1.86931 0.4158 0
M  V30 23853 H 2227.87 -3.60852 -1.52621 0
M  V30 23854 H 2229.57 -3.82597 -1.20084 0
M  V30 23855 H 2226.16 -4.28309 0.157994 0
M  V30 23856 H 2230.34 -4.87287 0.941552 0
M  V30 23857 H 2225.6 -5.76426 2.0382 0
M  V30 23858 H 2229.77 -6.36761 2.81973 0
M  V30 23859 H 2227.4 -6.81223 3.37402 0
M  V30 23860 N 2228.97 -0.0251005 -1.5758 0
M  V30 23861 C 2230.2 0.663748 -1.95647 0
M  V30 23862 C 2230.61 1.66425 -0.899965 0
M  V30 23863 O 2229.96 1.83259 0.127159 0
M  V30 23864 C 2230.02 1.42994 -3.29838 0
M  V30 23865 C 2229.68 0.588225 -4.53199 0
M  V30 23866 C 2230.68 -0.134781 -5.19725 0
M  V30 23867 C 2228.36 0.526809 -4.9953 0
M  V30 23868 C 2230.36 -0.907921 -6.30901 0
M  V30 23869 C 2228.04 -0.250037 -6.10588 0
M  V30 23870 C 2229.04 -0.966113 -6.76133 0
M  V30 23871 O 2228.73 -1.73023 -7.85059 0
M  V30 23872 H 2228.46 0.188163 -0.649285 0
M  V30 23873 H 2231.02 -0.0799366 -2.05244 0
M  V30 23874 H 2229.25 2.21868 -3.1672 0
M  V30 23875 H 2230.94 2.00652 -3.52837 0
M  V30 23876 H 2231.7 -0.0966414 -4.84904 0
M  V30 23877 H 2227.58 1.07373 -4.48321 0
M  V30 23878 H 2231.12 -1.46736 -6.81993 0
M  V30 23879 H 2227.02 -0.289909 -6.44849 0
M  V30 23880 H 2227.79 -1.64958 -8.01705 0
M  V30 23881 N 2230.45 1.55637 0.247999 0
M  V30 23882 C 2231.68 1.8181 0.997996 0
M  V30 23883 C 2232.1 0.60201 1.78206 0
M  V30 23884 O 2231.46 -0.44893 1.75654 0
M  V30 23885 C 2231.51 3.05708 1.91245 0
M  V30 23886 O 2230.61 2.82547 3.00401 0
M  V30 23887 H 2229.95 0.600184 0.284035 0
M  V30 23888 H 2232.48 2.0282 0.269321 0
M  V30 23889 H 2232.49 3.35112 2.32731 0
M  V30 23890 H 2231.17 3.93859 1.33595 0
M  V30 23891 H 2229.75 2.64307 2.63051 0
M  V30 23892 N 2231.93 -0.513613 1.48996 0
M  V30 23893 C 2233.16 -1.29285 1.61533 0
M  V30 23894 C 2233.57 -1.86685 0.281834 0
M  V30 23895 O 2232.93 -1.67217 -0.731082 0
M  V30 23896 C 2232.98 -2.4321 2.67453 0
M  V30 23897 O 2232.7 -1.88172 3.9563 0
M  V30 23898 C 2234.2 -3.3478 2.9058 0
M  V30 23899 H 2231.42 -0.392578 0.544172 0
M  V30 23900 H 2233.97 -0.617922 1.94941 0
M  V30 23901 H 2232.12 -3.06556 2.36859 0
M  V30 23902 H 2232.54 -2.62868 4.53873 0
M  V30 23903 H 2234.01 -4.11028 3.68456 0
M  V30 23904 H 2234.49 -3.91011 2.00018 0
M  V30 23905 H 2235.09 -2.77212 3.22542 0
M  V30 23906 N 2233.41 -1.37859 -0.763727 0
M  V30 23907 C 2234.63 -1.36896 -1.55802 0
M  V30 23908 C 2235.06 0.0415805 -1.88054 0
M  V30 23909 O 2234.42 1.02086 -1.49827 0
M  V30 23910 C 2234.47 -2.22197 -2.84008 0
M  V30 23911 O 2233.57 -1.6321 -3.7873 0
M  V30 23912 H 2232.91 -0.467399 -0.47163 0
M  V30 23913 H 2235.44 -1.81488 -0.944625 0
M  V30 23914 H 2235.45 -2.35696 -3.33033 0
M  V30 23915 H 2234.13 -3.24721 -2.59864 0
M  V30 23916 H 2232.7 -1.58797 -3.37399 0
M  V30 23917 N 2234.89 0.990791 -1.22561 0
M  V30 23918 C 2235.84 2.10252 -0.994835 0
M  V30 23919 C 2236.83 1.69284 0.06275 0
M  V30 23920 O 2238.04 1.79776 -0.0898708 0
M  V30 23921 H 2234.41 0.687575 -0.304539 0
M  V30 23922 H 2236.38 2.26888 -1.93816 0
M  V30 23923 C 2235.13 3.42632 -0.591499 0
M  V30 23924 H 2234.45 3.746 -1.39697 0
M  V30 23925 H 2235.89 4.21393 -0.469459 0
M  V30 23926 C 2234.35 3.29565 0.699174 0
M  V30 23927 O 2234.88 3.61526 1.75106 0
M  V30 23928 N 2233.09 2.82744 0.671132 0
M  V30 23929 H 2232.64 2.56934 -0.185181 0
M  V30 23930 H 2232.59 2.74383 1.53497 0
M  V30 23931 N 2236.37 1.03564 1.18795 0
M  V30 23932 C 2237.61 0.731269 1.87977 0
M  V30 23933 C 2237.93 -0.743639 1.80913 0
M  V30 23934 O 2239.13 -1.16132 2.45409 0
M  V30 23935 C 2237.59 1.25774 3.37207 0
M  V30 23936 C 2237.2 2.76092 3.52814 0
M  V30 23937 C 2238.94 1.02967 4.11823 0
M  V30 23938 C 2236.85 3.22123 4.95975 0
M  V30 23939 H 2235.78 0.269848 0.704058 0
M  V30 23940 H 2238.43 1.25081 1.34264 0
M  V30 23941 H 2236.81 0.66608 3.90358 0
M  V30 23942 H 2237.99 3.40972 3.09959 0
M  V30 23943 H 2236.3 2.97254 2.91597 0
M  V30 23944 H 2238.9 1.34878 5.17409 0
M  V30 23945 H 2239.24 -0.0332814 4.16287 0
M  V30 23946 H 2239.77 1.58569 3.6483 0
M  V30 23947 H 2236.51 4.27777 4.96676 0
M  V30 23948 H 2236.03 2.61975 5.39564 0
M  V30 23949 H 2237.71 3.15854 5.64664 0
M  V30 23950 N 2237.84 -1.34926 0.814413 0
M  V30 23951 C 2238.79 -2.29668 0.228261 0
M  V30 23952 C 2239.76 -1.53186 -0.642137 0
M  V30 23953 O 2240.95 -1.81592 -0.585573 0
M  V30 23954 C 2238.09 -3.39651 -0.61083 0
M  V30 23955 C 2237.2 -4.31086 0.280868 0
M  V30 23956 C 2236.33 -5.28166 -0.566974 0
M  V30 23957 C 2235.37 -6.11239 0.324638 0
M  V30 23958 N 2234.51 -7.00432 -0.483633 0
M  V30 23959 H 2239.35 -2.79205 1.04158 0
M  V30 23960 H 2236.89 -1.37406 0.525157 0
M  V30 23961 H 2238.84 -4.02092 -1.11256 0
M  V30 23962 H 2237.47 -2.91371 -1.38934 0
M  V30 23963 H 2236.53 -3.69582 0.900753 0
M  V30 23964 H 2237.84 -4.89341 0.966809 0
M  V30 23965 H 2236.99 -5.96017 -1.13352 0
M  V30 23966 H 2235.73 -4.70427 -1.28645 0
M  V30 23967 H 2234.74 -5.42327 0.903394 0
M  V30 23968 H 2235.96 -6.71057 1.0421 0
M  V30 23969 H 2233.91 -6.45173 -1.18694 0
M  V30 23970 H 2233.82 -7.55863 0.144097 0
M  V30 23971 H 2235.09 -7.72622 -1.0332 0
M  V30 23972 N 2239.32 -0.56861 -1.46985 0
M  V30 23973 C 2240.57 -0.0466248 -2.01646 0
M  V30 23974 C 2240.88 1.31584 -1.44723 0
M  V30 23975 O 2242.09 1.92838 -1.91117 0
M  V30 23976 C 2240.55 -0.0328152 -3.59885 0
M  V30 23977 C 2240.15 -1.39274 -4.25801 0
M  V30 23978 C 2241.9 0.435964 -4.22255 0
M  V30 23979 C 2239.8 -1.33742 -5.76079 0
M  V30 23980 H 2238.73 -0.0136602 -0.753876 0
M  V30 23981 H 2241.39 -0.718161 -1.68863 0
M  V30 23982 H 2239.77 0.704601 -3.89681 0
M  V30 23983 H 2240.94 -2.14877 -4.07633 0
M  V30 23984 H 2239.26 -1.80038 -3.75467 0
M  V30 23985 H 2241.85 0.495926 -5.32395 0
M  V30 23986 H 2242.2 1.45046 -3.90214 0
M  V30 23987 H 2242.73 -0.246947 -3.97033 0
M  V30 23988 H 2239.47 -2.32827 -6.12757 0
M  V30 23989 H 2238.99 -0.623372 -5.96552 0
M  V30 23990 H 2240.67 -1.04431 -6.38516 0
M  V30 23991 N 2240.8 1.54608 -0.305646 0
M  V30 23992 C 2241.73 2.2115 0.602122 0
M  V30 23993 C 2242.74 1.20571 1.09392 0
M  V30 23994 O 2243.93 1.47138 1.01057 0
M  V30 23995 C 2241.03 2.84802 1.83687 0
M  V30 23996 C 2240.21 4.11356 1.48678 0
M  V30 23997 C 2239.27 4.58768 2.57717 0
M  V30 23998 O 2238.29 5.23862 2.22614 0
M  V30 23999 N 2239.49 4.31478 3.88339 0
M  V30 24000 H 2242.26 2.99682 0.0324439 0
M  V30 24001 H 2239.82 1.61393 -0.128049 0
M  V30 24002 H 2241.81 3.13452 2.55988 0
M  V30 24003 H 2240.38 2.10082 2.31483 0
M  V30 24004 H 2239.6 3.89665 0.5962 0
M  V30 24005 H 2240.89 4.9375 1.22833 0
M  V30 24006 H 2240.29 3.79339 4.19665 0
M  V30 24007 H 2238.84 4.64826 4.56924 0
M  V30 24008 N 2242.28 0.033457 1.57564 0
M  V30 24009 C 2243.22 -0.946944 2.10479 0
M  V30 24010 C 2244.19 -1.32025 1.00789 0
M  V30 24011 O 2245.38 -1.41282 1.28235 0
M  V30 24012 C 2242.52 -2.22259 2.63998 0
M  V30 24013 C 2241.63 -1.90534 3.87712 0
M  V30 24014 C 2240.77 -3.12425 4.29609 0
M  V30 24015 C 2239.81 -2.7654 5.4607 0
M  V30 24016 N 2238.94 -3.9107 5.83103 0
M  V30 24017 H 2243.78 -0.488794 2.93964 0
M  V30 24018 H 2241.32 -0.229664 1.45296 0
M  V30 24019 H 2243.28 -2.96878 2.93119 0
M  V30 24020 H 2241.91 -2.65682 1.83338 0
M  V30 24021 H 2240.96 -1.06138 3.65293 0
M  V30 24022 H 2242.27 -1.60107 4.72406 0
M  V30 24023 H 2241.43 -3.95361 4.60189 0
M  V30 24024 H 2240.17 -3.46017 3.43691 0
M  V30 24025 H 2239.17 -1.92017 5.15179 0
M  V30 24026 H 2240.4 -2.4416 6.3369 0
M  V30 24027 H 2238.34 -4.24495 5.0014 0
M  V30 24028 H 2238.26 -3.64282 6.62446 0
M  V30 24029 H 2239.53 -4.74697 6.1829 0
M  V30 24030 N 2243.76 -1.55766 -0.239741 0
M  V30 24031 C 2245 -1.78196 -0.968202 0
M  V30 24032 C 2245.33 -0.599971 -1.847 0
M  V30 24033 O 2244.61 0.401491 -1.90311 0
M  V30 24034 C 2244.89 -3.10567 -1.82264 0
M  V30 24035 C 2244.75 -4.39182 -0.971555 0
M  V30 24036 C 2246.06 -3.39226 -2.80382 0
M  V30 24037 H 2243.18 -0.648287 -0.350561 0
M  V30 24038 H 2245.83 -1.88501 -0.238226 0
M  V30 24039 H 2243.98 -3.01913 -2.44501 0
M  V30 24040 H 2245.65 -4.59835 -0.367327 0
M  V30 24041 H 2243.89 -4.3292 -0.2762 0
M  V30 24042 H 2244.56 -5.28201 -1.60337 0
M  V30 24043 H 2247.04 -3.47889 -2.28281 0
M  V30 24044 H 2245.91 -4.3305 -3.37282 0
M  V30 24045 H 2246.17 -2.60491 -3.57207 0
M  V30 24046 N 2245.23 0.505704 -1.49266 0
M  V30 24047 C 2246.47 1.27035 -1.6013 0
M  V30 24048 C 2246.84 1.89953 -0.27959 0
M  V30 24049 O 2248.04 2.67507 -0.263376 0
M  V30 24050 C 2246.31 2.31241 -2.72511 0
M  V30 24051 S 2247.87 3.17107 -3.03296 0
M  V30 24052 H 2244.69 0.43179 -0.56487 0
M  V30 24053 H 2247.29 0.573364 -1.86903 0
M  V30 24054 H 2245.99 1.8354 -3.67071 0
M  V30 24055 H 2245.52 3.05615 -2.47716 0
M  V30 24056 H 2247.54 4.31805 -2.44456 0
M  V30 24057 N 2246.71 1.38262 0.756405 0
M  V30 24058 C 2247.62 1.37491 1.90088 0
M  V30 24059 C 2248.64 0.272396 1.71855 0
M  V30 24060 O 2249.81 0.510353 1.94826 0
M  V30 24061 C 2246.88 1.19598 3.25419 0
M  V30 24062 C 2245.94 2.39629 3.56197 0
M  V30 24063 C 2245.17 2.22579 4.85071 0
M  V30 24064 O 2245.4 1.21803 5.57243 0
M  V30 24065 O 2244.33 3.11107 5.15263 0
M  V30 24066 H 2248.16 2.33918 1.93691 0
M  V30 24067 H 2245.74 1.19152 0.901292 0
M  V30 24068 H 2247.62 1.11668 4.06335 0
M  V30 24069 H 2246.3 0.262543 3.22634 0
M  V30 24070 H 2245.21 2.53133 2.75453 0
M  V30 24071 H 2246.54 3.31592 3.63741 0
M  V30 24072 N 2248.19 -0.984277 1.23084 0
M  V30 24073 C 2249.44 -1.72163 1.05851 0
M  V30 24074 C 2249.76 -1.90726 -0.406016 0
M  V30 24075 O 2249.03 -1.47311 -1.29136 0
M  V30 24076 H 2247.61 -0.637906 0.388696 0
M  V30 24077 H 2250.27 -1.185 1.54738 0
M  V30 24078 H 2249.37 -2.71271 1.54331 0
M  V30 24079 N 2249.67 -1.04192 -1.18244 0
M  V30 24080 C 2250.63 -0.638491 -2.20127 0
M  V30 24081 C 2251.63 0.304777 -1.57885 0
M  V30 24082 O 2252.82 0.0900063 -1.73967 0
M  V30 24083 C 2249.95 0.0637152 -3.4084 0
M  V30 24084 H 2251.15 -1.54012 -2.57333 0
M  V30 24085 H 2248.7 -0.834621 -1.32151 0
M  V30 24086 H 2249.43 0.979081 -3.09167 0
M  V30 24087 H 2249.22 -0.614266 -3.87259 0
M  V30 24088 H 2250.71 0.332439 -4.16275 0
M  V30 24089 N 2251.15 1.34492 -0.821557 0
M  V30 24090 C 2252.11 2.27856 -0.247887 0
M  V30 24091 C 2253.11 1.50228 0.573426 0
M  V30 24092 O 2254.3 1.69784 0.38973 0
M  V30 24093 C 2251.43 3.34594 0.652639 0
M  V30 24094 H 2252.62 2.80105 -1.07151 0
M  V30 24095 H 2250.18 1.44601 -0.593316 0
M  V30 24096 H 2250.91 2.87557 1.49938 0
M  V30 24097 H 2250.7 3.92046 0.0652231 0
M  V30 24098 H 2252.19 4.0424 1.04786 0
M  V30 24099 N 2252.62 0.576397 1.46681 0
M  V30 24100 C 2253.86 0.0621715 2.04305 0
M  V30 24101 C 2254.23 -1.27118 1.43893 0
M  V30 24102 O 2255.43 -1.87426 1.92679 0
M  V30 24103 C 2253.7 -0.00921639 3.57399 0
M  V30 24104 S 2255.26 -0.466783 4.3631 0
M  V30 24105 H 2252.08 0.0344141 0.710167 0
M  V30 24106 H 2254.68 0.767469 1.79806 0
M  V30 24107 H 2253.38 0.965249 3.98887 0
M  V30 24108 H 2252.91 -0.73748 3.86426 0
M  V30 24109 H 2254.93 -1.72278 4.65333 0
M  V30 24110 N 2254.1 -1.54444 0.313841 0
M  V30 24111 C 2255.05 -2.2399 -0.556511 0
M  V30 24112 C 2256.02 -1.22713 -1.11941 0
M  V30 24113 O 2257.2 -1.51369 -1.16155 0
M  V30 24114 C 2254.34 -2.99395 -1.7163 0
M  V30 24115 C 2253.46 -4.1547 -1.18357 0
M  V30 24116 C 2252.59 -4.78428 -2.30825 0
M  V30 24117 C 2251.63 -5.86625 -1.74751 0
M  V30 24118 N 2250.77 -6.43484 -2.80844 0
M  V30 24119 H 2255.61 -2.97969 0.0431417 0
M  V30 24120 H 2253.15 -1.47063 0.0330618 0
M  V30 24121 H 2255.1 -3.41353 -2.39862 0
M  V30 24122 H 2253.73 -2.27769 -2.28738 0
M  V30 24123 H 2252.79 -3.78363 -0.393096 0
M  V30 24124 H 2254.1 -4.93382 -0.733176 0
M  V30 24125 H 2253.25 -5.23305 -3.0698 0
M  V30 24126 H 2251.99 -3.99876 -2.79197 0
M  V30 24127 H 2251 -5.41159 -0.9709 0
M  V30 24128 H 2252.22 -6.67068 -1.27269 0
M  V30 24129 H 2250.17 -5.67809 -3.28525 0
M  V30 24130 H 2250.08 -7.1678 -2.40339 0
M  V30 24131 H 2251.35 -6.93017 -3.56857 0
M  V30 24132 N 2255.58 -0.0418125 -1.57545 0
M  V30 24133 C 2256.82 0.638056 -1.94186 0
M  V30 24134 C 2257.18 1.68557 -0.919368 0
M  V30 24135 O 2258.39 2.41884 -1.17241 0
M  V30 24136 C 2256.66 1.22708 -3.35675 0
M  V30 24137 S 2258.22 1.92626 -3.9426 0
M  V30 24138 H 2255.03 0.209752 -0.679356 0
M  V30 24139 H 2257.64 -0.108513 -1.95199 0
M  V30 24140 H 2256.34 0.452431 -4.07899 0
M  V30 24141 H 2255.87 2.01067 -3.38135 0
M  V30 24142 H 2257.89 3.20596 -3.78725 0
M  V30 24143 N 2257.06 1.55891 0.231477 0
M  V30 24144 C 2258.3 1.78707 0.958738 0
M  V30 24145 C 2258.64 0.609757 1.84379 0
M  V30 24146 O 2257.91 -0.391392 1.90521 0
M  V30 24147 C 2258.2 3.11529 1.80614 0
M  V30 24148 C 2258.05 4.39691 0.948251 0
M  V30 24149 C 2259.37 3.40708 2.78579 0
M  V30 24150 H 2256.49 0.650137 0.347118 0
M  V30 24151 H 2259.13 1.88624 0.228226 0
M  V30 24152 H 2257.28 3.03205 2.42897 0
M  V30 24153 H 2258.95 4.60024 0.342936 0
M  V30 24154 H 2257.19 4.3306 0.253237 0
M  V30 24155 H 2257.86 5.29044 1.57533 0
M  V30 24156 H 2260.34 3.49095 2.26433 0
M  V30 24157 H 2259.22 4.34832 3.34981 0
M  V30 24158 H 2259.48 2.62381 3.55821 0
M  V30 24159 N 2258.54 -0.497781 1.49532 0
M  V30 24160 C 2259.45 -1.62529 1.69179 0
M  V30 24161 C 2260.46 -1.64245 0.574429 0
M  V30 24162 O 2261.64 -1.82606 0.849529 0
M  V30 24163 C 2258.7 -2.98882 1.757 0
M  V30 24164 C 2257.76 -3.07768 2.99295 0
M  V30 24165 C 2257 -4.37616 3.05496 0
M  V30 24166 O 2257.22 -5.26599 2.19201 0
M  V30 24167 O 2256.15 -4.51541 3.97988 0
M  V30 24168 H 2259.98 -1.48883 2.64703 0
M  V30 24169 H 2257.57 -0.674418 1.33312 0
M  V30 24170 H 2259.45 -3.79916 1.82324 0
M  V30 24171 H 2258.12 -3.12784 0.833555 0
M  V30 24172 H 2257.03 -2.2591 2.98187 0
M  V30 24173 H 2258.36 -2.98794 3.9113 0
M  V30 24174 N 2260.01 -1.38661 -0.749062 0
M  V30 24175 C 2260.98 -1.36048 -1.84455 0
M  V30 24176 C 2261.98 -0.26015 -1.58682 0
M  V30 24177 O 2263.17 -0.517291 -1.66342 0
M  V30 24178 C 2260.3 -1.11916 -3.22006 0
M  V30 24179 H 2261.49 -2.33515 -1.88178 0
M  V30 24180 H 2259.05 -1.2402 -0.951244 0
M  V30 24181 H 2259.78 -0.150743 -3.23949 0
M  V30 24182 H 2259.57 -1.91585 -3.42108 0
M  V30 24183 H 2261.06 -1.12795 -4.02078 0
M  V30 24184 N 2261.49 0.977736 -1.23605 0
M  V30 24185 C 2262.77 1.69399 -0.977927 0
M  V30 24186 C 2263.15 2.05027 0.502702 0
M  V30 24187 O 2262.5 1.74554 1.47456 0
M  V30 24188 C 2262.71 2.93341 -1.89082 0
M  V30 24189 C 2264.06 3.65798 -2.15585 0
M  V30 24190 O 2265.08 3.03379 -1.86653 0
M  V30 24191 O 2263.94 4.78136 -2.64666 0
M  V30 24192 H 2261.03 0.740095 -0.369038 0
M  V30 24193 H 2263.58 1.03272 -1.34659 0
M  V30 24194 H 2262.35 2.63629 -2.89163 0
M  V30 24195 H 2261.97 3.67204 -1.52469 0
M  V30 24196 N 2262.97 1.04818 1.1769 0
M  V30 24197 C 2264.21 0.765013 1.89544 0
M  V30 24198 C 2264.58 -0.694996 1.7898 0
M  V30 24199 O 2265.78 -1.0921 2.45615 0
M  V30 24200 C 2264.05 1.22757 3.35657 0
M  V30 24201 S 2265.61 1.0712 4.25524 0
M  V30 24202 H 2262.42 0.277932 0.654427 0
M  V30 24203 H 2265.03 1.34203 1.42161 0
M  V30 24204 H 2263.73 2.28539 3.40878 0
M  V30 24205 H 2263.26 0.644662 3.88082 0
M  V30 24206 H 2265.28 -0.00688786 4.962 0
M  V30 24207 N 2264.45 -1.34055 0.828678 0
M  V30 24208 C 2265.7 -1.97716 0.418665 0
M  V30 24209 C 2266.02 -1.66004 -1.02311 0
M  V30 24210 O 2265.29 -0.953713 -1.71117 0
M  V30 24211 H 2263.87 -0.731409 0.151822 0
M  V30 24212 H 2266.53 -1.63594 1.05939 0
M  V30 24213 H 2265.63 -3.07351 0.542372 0
M  V30 24214 N 2265.93 -0.584167 -1.46374 0
M  V30 24215 C 2266.86 0.186078 -2.28443 0
M  V30 24216 C 2267.87 0.854091 -1.38597 0
M  V30 24217 O 2269.06 0.723409 -1.63184 0
M  V30 24218 C 2266.16 1.28305 -3.13673 0
M  V30 24219 C 2265.33 0.706682 -4.31654 0
M  V30 24220 C 2264.39 1.69155 -4.9827 0
M  V30 24221 O 2263.42 1.22702 -5.55817 0
M  V30 24222 N 2264.62 3.02566 -4.95413 0
M  V30 24223 H 2267.39 -0.518037 -2.95189 0
M  V30 24224 H 2264.95 -0.422038 -1.56302 0
M  V30 24225 H 2266.94 1.94121 -3.55104 0
M  V30 24226 H 2265.51 1.89001 -2.48993 0
M  V30 24227 H 2264.73 -0.128977 -3.93989 0
M  V30 24228 H 2266.02 0.301417 -5.07906 0
M  V30 24229 H 2265.42 3.42928 -4.49908 0
M  V30 24230 H 2263.97 3.63868 -5.40781 0
M  V30 24231 N 2267.41 1.54275 -0.322027 0
M  V30 24232 C 2268.34 2.20517 0.587141 0
M  V30 24233 C 2269.32 1.18169 1.1169 0
M  V30 24234 O 2270.5 1.46901 1.18119 0
M  V30 24235 C 2267.63 2.86565 1.80549 0
M  V30 24236 C 2266.67 4.0262 1.40711 0
M  V30 24237 S 2267.51 5.33647 0.445124 0
M  V30 24238 C 2268.66 6.03188 1.67079 0
M  V30 24239 H 2268.9 2.9729 0.0244352 0
M  V30 24240 H 2266.43 1.54035 -0.106114 0
M  V30 24241 H 2268.39 3.25241 2.50457 0
M  V30 24242 H 2267.05 2.09599 2.33938 0
M  V30 24243 H 2266.24 4.47691 2.31493 0
M  V30 24244 H 2265.84 3.6561 0.787755 0
M  V30 24245 H 2268.13 6.25273 2.60845 0
M  V30 24246 H 2269.08 6.96758 1.26227 0
M  V30 24247 H 2269.49 5.33079 1.85707 0
M  V30 24248 N 2268.88 0.0501669 1.5752 0
M  V30 24249 C 2269.82 -0.953723 2.08415 0
M  V30 24250 C 2270.83 -1.27542 1.01177 0
M  V30 24251 O 2272.02 -1.23639 1.28747 0
M  V30 24252 C 2269.12 -2.27554 2.51142 0
M  V30 24253 C 2268.29 -2.13591 3.81704 0
M  V30 24254 C 2267.35 -3.28888 4.10754 0
M  V30 24255 O 2266.38 -3.04837 4.8069 0
M  V30 24256 N 2267.58 -4.53333 3.62587 0
M  V30 24257 H 2270.34 -0.519331 2.95166 0
M  V30 24258 H 2267.9 -0.136099 1.61327 0
M  V30 24259 H 2269.9 -3.03552 2.67653 0
M  V30 24260 H 2268.47 -2.62564 1.69644 0
M  V30 24261 H 2267.69 -1.22191 3.74784 0
M  V30 24262 H 2268.97 -2.01488 4.67205 0
M  V30 24263 H 2268.37 -4.75764 3.06047 0
M  V30 24264 H 2266.93 -5.26429 3.84338 0
M  V30 24265 N 2270.36 -1.56011 -0.223207 0
M  V30 24266 C 2271.27 -1.95445 -1.29762 0
M  V30 24267 C 2272.29 -0.858055 -1.51372 0
M  V30 24268 O 2273.46 -1.16148 -1.64534 0
M  V30 24269 C 2270.53 -2.26172 -2.62768 0
M  V30 24270 C 2269.59 -3.49371 -2.49476 0
M  V30 24271 C 2268.82 -3.78623 -3.76139 0
M  V30 24272 O 2269.05 -3.09576 -4.79081 0
M  V30 24273 O 2267.98 -4.72116 -3.7335 0
M  V30 24274 H 2271.81 -2.87006 -0.993039 0
M  V30 24275 H 2269.39 -1.432 -0.425933 0
M  V30 24276 H 2271.27 -2.47137 -3.41323 0
M  V30 24277 H 2269.95 -1.37786 -2.92911 0
M  V30 24278 H 2268.85 -3.33687 -1.69127 0
M  V30 24279 H 2270.19 -4.38135 -2.24273 0
M  V30 24280 N 2271.84 0.489844 -1.49794 0
M  V30 24281 C 2272.75 1.6163 -1.70038 0
M  V30 24282 C 2273.77 1.63938 -0.583131 0
M  V30 24283 O 2274.94 1.82153 -0.859201 0
M  V30 24284 C 2272.01 2.97946 -1.77282 0
M  V30 24285 C 2271.07 3.06176 -3.00923 0
M  V30 24286 C 2270.3 4.3599 -3.07812 0
M  V30 24287 O 2270.52 5.2543 -2.21991 0
M  V30 24288 O 2269.46 4.49424 -4.00377 0
M  V30 24289 H 2273.28 1.47477 -2.65489 0
M  V30 24290 H 2270.87 0.667339 -1.33667 0
M  V30 24291 H 2272.75 3.78944 -1.84336 0
M  V30 24292 H 2271.43 3.12337 -0.850131 0
M  V30 24293 H 2270.33 2.24325 -2.99381 0
M  V30 24294 H 2271.67 2.96716 -3.92709 0
M  V30 24295 N 2273.32 1.39056 0.741698 0
M  V30 24296 C 2274.25 1.39969 1.86898 0
M  V30 24297 C 2275.23 0.263949 1.6804 0
M  V30 24298 O 2276.41 0.468788 1.88457 0
M  V30 24299 C 2273.54 1.2358 3.24569 0
M  V30 24300 C 2272.5 2.34484 3.58052 0
M  V30 24301 C 2271.82 2.03189 4.94589 0
M  V30 24302 C 2273.12 3.7678 3.6171 0
M  V30 24303 H 2274.82 2.34305 1.86391 0
M  V30 24304 H 2272.36 1.12781 0.895341 0
M  V30 24305 H 2274.32 1.22841 4.03098 0
M  V30 24306 H 2273.04 0.257103 3.25586 0
M  V30 24307 H 2271.7 2.34428 2.81849 0
M  V30 24308 H 2271.35 1.03774 4.92179 0
M  V30 24309 H 2271.05 2.77474 5.17959 0
M  V30 24310 H 2272.57 2.04089 5.75482 0
M  V30 24311 H 2273.99 3.78802 4.30328 0
M  V30 24312 H 2272.38 4.50369 3.96595 0
M  V30 24313 H 2273.45 4.08239 2.61665 0
M  V30 24314 N 2274.8 -0.971167 1.24121 0
M  V30 24315 C 2276.07 -1.68878 0.986897 0
M  V30 24316 C 2276.45 -2.05291 -0.491821 0
M  V30 24317 O 2275.8 -1.75333 -1.46528 0
M  V30 24318 C 2276.01 -2.92334 1.90635 0
M  V30 24319 C 2277.36 -3.6465 2.17522 0
M  V30 24320 O 2278.38 -3.02385 1.8826 0
M  V30 24321 O 2277.24 -4.76726 2.67198 0
M  V30 24322 H 2274.34 -0.738127 0.372957 0
M  V30 24323 H 2276.88 -1.02557 1.35204 0
M  V30 24324 H 2275.65 -2.62092 2.90557 0
M  V30 24325 H 2275.28 -3.6639 1.54415 0
M  V30 24326 N 2276.27 -1.05441 -1.17133 0
M  V30 24327 C 2277.2 -0.678688 -2.23419 0
M  V30 24328 C 2278.19 0.324731 -1.66972 0
M  V30 24329 O 2279.37 0.201768 -1.93149 0
M  V30 24330 C 2276.5 -0.055271 -3.47256 0
M  V30 24331 C 2275.45 -0.983723 -4.16542 0
M  V30 24332 C 2274.78 -0.224055 -5.3423 0
M  V30 24333 C 2276.08 -2.30898 -4.68491 0
M  V30 24334 H 2277.77 -1.56726 -2.55103 0
M  V30 24335 H 2275.32 -0.755019 -1.22619 0
M  V30 24336 H 2277.27 0.219386 -4.20829 0
M  V30 24337 H 2276 0.868264 -3.14847 0
M  V30 24338 H 2274.66 -1.24299 -3.44885 0
M  V30 24339 H 2274.3 0.702325 -4.98073 0
M  V30 24340 H 2274 -0.842729 -5.81525 0
M  V30 24341 H 2275.53 0.0432598 -6.10585 0
M  V30 24342 H 2276.94 -2.09405 -5.33688 0
M  V30 24343 H 2275.34 -2.88185 -5.26374 0
M  V30 24344 H 2276.41 -2.94579 -3.85164 0
M  V30 24345 N 2277.75 1.33613 -0.835776 0
M  V30 24346 C 2278.98 2.02093 -0.443379 0
M  V30 24347 C 2279.4 1.62895 0.954493 0
M  V30 24348 O 2278.75 0.840752 1.6198 0
M  V30 24349 C 2278.8 3.57279 -0.550838 0
M  V30 24350 O 2278.52 3.95061 -1.89363 0
M  V30 24351 C 2280.03 4.43029 -0.154997 0
M  V30 24352 H 2277.25 0.647406 -0.17637 0
M  V30 24353 H 2279.79 1.7061 -1.12749 0
M  V30 24354 H 2277.94 3.87306 0.0853316 0
M  V30 24355 H 2278.36 4.89766 -1.87696 0
M  V30 24356 H 2279.83 5.51283 -0.281241 0
M  V30 24357 H 2280.31 4.29821 0.902788 0
M  V30 24358 H 2280.92 4.18355 -0.765477 0
M  V30 24359 N 2279.23 0.591922 1.46062 0
M  V30 24360 C 2280.48 0.0786991 2.01546 0
M  V30 24361 C 2280.79 -1.29265 1.46799 0
M  V30 24362 O 2282 -1.89773 1.9416 0
M  V30 24363 C 2280.45 0.0900656 3.59787 0
M  V30 24364 C 2280.06 1.4603 4.23532 0
M  V30 24365 C 2281.81 -0.368732 4.22896 0
M  V30 24366 C 2279.71 1.4289 5.73878 0
M  V30 24367 H 2278.64 0.025652 0.753564 0
M  V30 24368 H 2281.29 0.744935 1.67699 0
M  V30 24369 H 2279.68 -0.642517 3.90753 0
M  V30 24370 H 2280.85 2.21335 4.04163 0
M  V30 24371 H 2279.17 1.85989 3.72555 0
M  V30 24372 H 2281.76 -0.411164 5.33117 0
M  V30 24373 H 2282.11 -1.3882 3.92473 0
M  V30 24374 H 2282.64 0.31008 3.9659 0
M  V30 24375 H 2279.38 2.42546 6.08976 0
M  V30 24376 H 2278.9 0.718199 5.95485 0
M  V30 24377 H 2280.58 1.14577 6.36774 0
M  V30 24378 N 2280.71 -1.54102 0.330204 0
M  V30 24379 C 2281.93 -2.05571 -0.274857 0
M  V30 24380 C 2282.36 -1.20439 -1.44485 0
M  V30 24381 O 2281.72 -0.215023 -1.8002 0
M  V30 24382 C 2281.76 -3.54116 -0.680727 0
M  V30 24383 O 2280.87 -3.71896 -1.78234 0
M  V30 24384 H 2280.21 -0.662236 -0.0483732 0
M  V30 24385 H 2282.74 -1.98877 0.480543 0
M  V30 24386 H 2282.75 -3.96507 -0.961565 0
M  V30 24387 H 2281.42 -4.15532 0.174976 0
M  V30 24388 H 2280 -3.4141 -1.49979 0
M  V30 24389 N 2282.19 -0.0585199 -1.57491 0
M  V30 24390 C 2283.15 0.89858 -2.10851 0
M  V30 24391 C 2284.15 1.2351 -1.02966 0
M  V30 24392 O 2285.34 1.17056 -1.29009 0
M  V30 24393 C 2282.47 2.20618 -2.59885 0
M  V30 24394 H 2283.66 0.435883 -2.96715 0
M  V30 24395 H 2281.22 0.189995 -1.55141 0
M  V30 24396 H 2281.95 2.71454 -1.77436 0
M  V30 24397 H 2281.74 1.97495 -3.3873 0
M  V30 24398 H 2283.23 2.89161 -3.0129 0
M  V30 24399 N 2283.66 1.56128 0.21493 0
M  V30 24400 C 2284.57 1.96131 1.28724 0
M  V30 24401 C 2285.59 0.866071 1.50915 0
M  V30 24402 O 2286.77 1.17019 1.63916 0
M  V30 24403 C 2283.83 2.27562 2.61565 0
M  V30 24404 C 2282.89 3.5069 2.47619 0
M  V30 24405 C 2282.13 3.80612 3.74125 0
M  V30 24406 O 2282.35 3.12112 4.77433 0
M  V30 24407 O 2281.28 4.74089 3.70841 0
M  V30 24408 H 2285.11 2.87529 0.977805 0
M  V30 24409 H 2282.69 1.43424 0.418333 0
M  V30 24410 H 2284.58 2.48944 3.40007 0
M  V30 24411 H 2283.25 1.39337 2.92176 0
M  V30 24412 H 2282.16 3.34579 1.67355 0
M  V30 24413 H 2283.49 4.39319 2.21946 0
M  V30 24414 N 2285.14 -0.481893 1.50052 0
M  V30 24415 C 2286.37 -1.25829 1.64239 0
M  V30 24416 C 2286.79 -1.86045 0.321369 0
M  V30 24417 O 2286.14 -1.6873 -0.695448 0
M  V30 24418 C 2286.19 -2.37482 2.72552 0
M  V30 24419 O 2285.91 -1.79738 3.99532 0
M  V30 24420 C 2287.42 -3.28541 2.97616 0
M  V30 24421 H 2284.64 -0.380947 0.552377 0
M  V30 24422 H 2287.18 -0.576433 1.96208 0
M  V30 24423 H 2285.33 -3.01463 2.43308 0
M  V30 24424 H 2285.75 -2.53182 4.59347 0
M  V30 24425 H 2287.22 -4.0312 3.77092 0
M  V30 24426 H 2287.7 -3.8668 2.08266 0
M  V30 24427 H 2288.31 -2.70308 3.2835 0
M  V30 24428 N 2286.62 -1.39448 -0.734313 0
M  V30 24429 C 2288.04 -1.21067 -1.03995 0
M  V30 24430 C 2288.24 -0.0727373 -2.01369 0
M  V30 24431 O 2287.29 0.575383 -2.45857 0
M  V30 24432 C 2288.61 -2.54499 -1.60158 0
M  V30 24433 C 2290.15 -2.6135 -1.72235 0
M  V30 24434 C 2290.63 -3.95006 -2.31807 0
M  V30 24435 N 2292.12 -3.96648 -2.39216 0
M  V30 24436 C 2292.85 -4.96839 -2.86249 0
M  V30 24437 N 2292.35 -6.07427 -3.33173 0
M  V30 24438 N 2294.14 -4.84218 -2.85464 0
M  V30 24439 H 2286.29 -2.12215 -0.0885251 0
M  V30 24440 H 2288.56 -0.942508 -0.101893 0
M  V30 24441 H 2288.26 -3.38323 -0.960752 0
M  V30 24442 H 2288.14 -2.74267 -2.58955 0
M  V30 24443 H 2290.52 -1.7791 -2.3544 0
M  V30 24444 H 2290.61 -2.45432 -0.720896 0
M  V30 24445 H 2290.25 -4.78877 -1.6923 0
M  V30 24446 H 2290.18 -4.08245 -3.32631 0
M  V30 24447 H 2292.67 -3.16783 -2.06051 0
M  V30 24448 H 2292.98 -6.79786 -3.67574 0
M  V30 24449 H 2291.33 -6.11019 -3.3118 0
M  V30 24450 H 2294.52 -3.96925 -2.48129 0
M  V30 24451 H 2294.69 -5.62446 -3.21804 0
M  V30 24452 N 2288.1 0.964571 -1.24635 0
M  V30 24453 C 2289.05 2.05966 -1.04148 0
M  V30 24454 C 2290.02 1.66036 0.0462328 0
M  V30 24455 O 2291.2 1.90488 -0.109006 0
M  V30 24456 C 2288.34 3.38814 -0.65569 0
M  V30 24457 C 2287.45 3.9192 -1.81721 0
M  V30 24458 C 2286.59 5.1305 -1.37671 0
M  V30 24459 C 2285.63 5.58361 -2.50798 0
M  V30 24460 N 2284.76 6.70708 -2.07593 0
M  V30 24461 H 2289.6 2.22823 -1.97873 0
M  V30 24462 H 2287.14 1.09206 -0.985519 0
M  V30 24463 H 2289.1 4.1515 -0.413027 0
M  V30 24464 H 2287.73 3.21872 0.24457 0
M  V30 24465 H 2286.78 3.12194 -2.17345 0
M  V30 24466 H 2288.09 4.21504 -2.66712 0
M  V30 24467 H 2287.25 5.96771 -1.09311 0
M  V30 24468 H 2285.99 4.85157 -0.497378 0
M  V30 24469 H 2284.99 4.7321 -2.79914 0
M  V30 24470 H 2286.22 5.88266 -3.39293 0
M  V30 24471 H 2284.16 6.44544 -1.22063 0
M  V30 24472 H 2284.08 6.99758 -2.86137 0
M  V30 24473 H 2285.35 7.57863 -1.82382 0
M  V30 24474 N 2289.58 1.0606 1.16572 0
M  V30 24475 C 2290.51 0.627278 2.20449 0
M  V30 24476 C 2291.52 -0.313506 1.59753 0
M  V30 24477 O 2292.71 -0.104865 1.78192 0
M  V30 24478 C 2289.81 -0.100915 3.3875 0
M  V30 24479 C 2288.98 0.852763 4.29007 0
M  V30 24480 C 2288.04 0.164245 5.25944 0
M  V30 24481 O 2287.07 0.801146 5.63534 0
M  V30 24482 N 2288.27 -1.09508 5.70077 0
M  V30 24483 H 2291.04 1.52082 2.58247 0
M  V30 24484 H 2288.6 0.943617 1.31558 0
M  V30 24485 H 2290.59 -0.57187 4.00639 0
M  V30 24486 H 2289.16 -0.896228 2.99477 0
M  V30 24487 H 2288.38 1.50314 3.64416 0
M  V30 24488 H 2289.67 1.49981 4.86193 0
M  V30 24489 H 2289.06 -1.6327 5.41627 0
M  V30 24490 H 2287.62 -1.50995 6.34069 0
M  V30 24491 N 2291.06 -1.33168 0.84285 0
M  V30 24492 C 2292.28 -2.01855 0.454091 0
M  V30 24493 C 2292.7 -1.63399 -0.945841 0
M  V30 24494 O 2292.06 -0.84933 -1.61532 0
M  V30 24495 C 2292.11 -3.56981 0.569777 0
M  V30 24496 O 2291.83 -3.94051 1.91455 0
M  V30 24497 C 2293.33 -4.42941 0.17849 0
M  V30 24498 H 2290.55 -0.646462 0.179801 0
M  V30 24499 H 2293.09 -1.7001 1.13653 0
M  V30 24500 H 2291.25 -3.87346 -0.0647906 0
M  V30 24501 H 2291.66 -4.88764 1.9029 0
M  V30 24502 H 2293.14 -5.51126 0.310473 0
M  V30 24503 H 2293.61 -4.30294 -0.879981 0
M  V30 24504 H 2294.22 -4.17943 0.787653 0
M  V30 24505 N 2292.53 -0.599659 -1.45746 0
M  V30 24506 C 2293.5 0.113794 -2.28917 0
M  V30 24507 C 2294.5 0.802705 -1.39332 0
M  V30 24508 O 2295.69 0.652074 -1.61535 0
M  V30 24509 C 2292.82 1.17108 -3.20154 0
M  V30 24510 H 2294.01 -0.617341 -2.93477 0
M  V30 24511 H 2291.56 -0.358354 -1.52136 0
M  V30 24512 H 2292.3 1.93324 -2.60377 0
M  V30 24513 H 2292.08 0.6814 -3.86134 0
M  V30 24514 H 2293.57 1.67098 -3.82711 0
M  V30 24515 N 2294.01 1.53925 -0.338371 0
M  V30 24516 C 2295.25 2.02738 0.260133 0
M  V30 24517 C 2295.62 1.22094 1.48179 0
M  V30 24518 O 2296.82 1.60781 2.15413 0
M  V30 24519 C 2295.09 3.528 0.571565 0
M  V30 24520 S 2296.65 4.23527 1.14762 0
M  V30 24521 H 2293.46 0.706733 0.0777786 0
M  V30 24522 H 2296.07 1.89643 -0.474932 0
M  V30 24523 H 2294.77 4.09107 -0.325464 0
M  V30 24524 H 2294.3 3.70004 1.33643 0
M  V30 24525 H 2296.32 4.32421 2.43364 0
M  V30 24526 N 2295.49 0.0668712 1.57458 0
M  V30 24527 C 2296.44 -0.902085 2.12441 0
M  V30 24528 C 2297.41 -1.29858 1.03567 0
M  V30 24529 O 2298.59 -1.3853 1.31203 0
M  V30 24530 C 2295.73 -2.16609 2.68653 0
M  V30 24531 C 2294.84 -1.82267 3.91667 0
M  V30 24532 C 2293.98 -3.03242 4.36139 0
M  V30 24533 C 2293.02 -2.64895 5.51813 0
M  V30 24534 N 2292.16 -3.78613 5.91267 0
M  V30 24535 H 2297 -0.42633 2.94935 0
M  V30 24536 H 2294.53 -0.198793 1.45751 0
M  V30 24537 H 2296.49 -2.90594 2.99351 0
M  V30 24538 H 2295.12 -2.61734 1.88932 0
M  V30 24539 H 2294.17 -0.983654 3.67462 0
M  V30 24540 H 2295.48 -1.50051 4.75695 0
M  V30 24541 H 2294.64 -3.85511 4.68472 0
M  V30 24542 H 2293.38 -3.38649 3.50954 0
M  V30 24543 H 2292.38 -1.81046 5.19136 0
M  V30 24544 H 2293.61 -2.30664 6.38726 0
M  V30 24545 H 2291.55 -4.13791 5.09032 0
M  V30 24546 H 2291.47 -3.50148 6.70024 0
M  V30 24547 H 2292.74 -4.61475 6.2822 0
M  V30 24548 N 2296.97 -1.56239 -0.206647 0
M  V30 24549 C 2298.38 -1.69975 -0.772353 0
M  V30 24550 C 2298.73 -0.671469 -1.84352 0
M  V30 24551 O 2297.85 0.174453 -2.15696 0
M  V30 24552 C 2298.45 -3.08169 -1.40774 0
M  V30 24553 C 2297.01 -3.23709 -1.92066 0
M  V30 24554 C 2296.16 -2.65918 -0.7863 0
M  V30 24555 H 2299.11 -1.5869 0.0182502 0
M  V30 24556 H 2299.13 -3.04856 -2.2769 0
M  V30 24557 H 2298.64 -3.82987 -0.62789 0
M  V30 24558 H 2296.74 -2.53787 -2.72806 0
M  V30 24559 H 2296.85 -4.31091 -2.09039 0
M  V30 24560 H 2295.22 -2.2479 -1.19756 0
M  V30 24561 H 2296 -3.43295 -0.0188812 0
M  V30 24562 N 2298.45 0.473929 -1.50305 0
M  V30 24563 C 2299.36 1.59817 -1.71743 0
M  V30 24564 C 2300.37 1.6331 -0.600486 0
M  V30 24565 O 2301.55 1.81231 -0.878473 0
M  V30 24566 C 2298.61 2.96049 -1.80433 0
M  V30 24567 C 2297.67 3.02967 -3.04154 0
M  V30 24568 C 2296.91 4.32701 -3.12419 0
M  V30 24569 O 2297.13 5.23045 -2.27551 0
M  V30 24570 O 2296.06 4.45152 -4.05121 0
M  V30 24571 H 2299.89 1.44653 -2.67038 0
M  V30 24572 H 2297.47 0.653124 -1.34368 0
M  V30 24573 H 2299.36 3.76967 -1.88345 0
M  V30 24574 H 2298.03 3.11418 -0.883211 0
M  V30 24575 H 2296.94 2.21137 -3.01744 0
M  V30 24576 H 2298.27 2.92534 -3.95834 0
M  V30 24577 N 2299.92 1.39835 0.726907 0
M  V30 24578 C 2301.17 1.36808 1.48211 0
M  V30 24579 C 2301.49 -0.0304947 1.95576 0
M  V30 24580 O 2302.69 -0.18337 2.7088 0
M  V30 24581 C 2301.15 2.40384 2.6785 0
M  V30 24582 C 2300.76 3.85996 2.27401 0
M  V30 24583 C 2302.5 2.46445 3.45637 0
M  V30 24584 C 2300.41 4.81195 3.43811 0
M  V30 24585 H 2299.34 0.508641 0.556597 0
M  V30 24586 H 2301.99 1.65519 0.792187 0
M  V30 24587 H 2300.37 2.04755 3.38957 0
M  V30 24588 H 2301.54 4.30709 1.63788 0
M  V30 24589 H 2299.86 3.83304 1.62686 0
M  V30 24590 H 2302.46 3.1476 4.32238 0
M  V30 24591 H 2302.8 1.49146 3.88666 0
M  V30 24592 H 2303.33 2.81009 2.81565 0
M  V30 24593 H 2300.07 5.79786 3.05824 0
M  V30 24594 H 2299.59 4.41155 4.06377 0
M  V30 24595 H 2301.27 5.00481 4.10034 0
M  V30 24596 N 2301.4 -0.957948 1.25144 0
M  V30 24597 C 2302.36 -2.03567 1.05324 0
M  V30 24598 C 2303.36 -1.60798 0.00718027 0
M  V30 24599 O 2304.55 -1.7241 0.24906 0
M  V30 24600 C 2301.69 -3.35606 0.598453 0
M  V30 24601 H 2302.88 -2.22583 2.0099 0
M  V30 24602 H 2300.43 -1.13457 1.07504 0
M  V30 24603 H 2301.17 -3.22285 -0.360957 0
M  V30 24604 H 2300.95 -3.67995 1.35358 0
M  V30 24605 H 2302.44 -4.14819 0.481113 0
M  V30 24606 N 2302.88 -1.06677 -1.16008 0
M  V30 24607 C 2304.11 -0.805531 -1.90249 0
M  V30 24608 C 2304.52 0.644279 -1.77892 0
M  V30 24609 O 2303.86 1.45311 -1.12385 0
M  V30 24610 C 2303.92 -1.12582 -3.41417 0
M  V30 24611 C 2303.59 -2.57484 -3.77559 0
M  V30 24612 C 2304.58 -3.55721 -3.79155 0
M  V30 24613 C 2302.27 -2.92884 -4.08074 0
M  V30 24614 C 2304.26 -4.87398 -4.10758 0
M  V30 24615 C 2301.95 -4.24759 -4.39344 0
M  V30 24616 C 2302.95 -5.21826 -4.40666 0
M  V30 24617 O 2302.64 -6.51333 -4.7119 0
M  V30 24618 H 2302.37 -0.291308 -0.610013 0
M  V30 24619 H 2304.92 -1.42472 -1.47955 0
M  V30 24620 H 2303.15 -0.44957 -3.84078 0
M  V30 24621 H 2304.84 -0.84821 -3.96939 0
M  V30 24622 H 2305.61 -3.29714 -3.55687 0
M  V30 24623 H 2301.49 -2.17984 -4.06207 0
M  V30 24624 H 2305.03 -5.63156 -4.11706 0
M  V30 24625 H 2300.93 -4.50522 -4.62277 0
M  V30 24626 H 2301.69 -6.56381 -4.88985 0
M  V30 24627 N 2304.36 1.32719 -0.8499 0
M  V30 24628 C 2305.32 2.27279 -0.296162 0
M  V30 24629 C 2306.32 1.51411 0.541432 0
M  V30 24630 O 2307.51 1.70573 0.353628 0
M  V30 24631 C 2304.64 3.35903 0.58152 0
M  V30 24632 H 2305.84 2.77769 -1.13069 0
M  V30 24633 H 2303.39 1.4331 -0.623855 0
M  V30 24634 H 2304.12 2.90673 1.43804 0
M  V30 24635 H 2303.91 3.92096 -0.0179503 0
M  V30 24636 H 2305.4 4.06371 0.961879 0
M  V30 24637 N 2305.84 0.60738 1.45426 0
M  V30 24638 C 2307.07 0.108692 2.06314 0
M  V30 24639 C 2307.47 -1.21214 1.45271 0
M  V30 24640 O 2306.82 -1.7492 0.561146 0
M  V30 24641 C 2306.88 -0.105554 3.59345 0
M  V30 24642 C 2306.54 1.13344 4.42721 0
M  V30 24643 C 2307.54 2.05153 4.77711 0
M  V30 24644 C 2305.23 1.36221 4.83476 0
M  V30 24645 C 2307.22 3.18167 5.52312 0
M  V30 24646 C 2304.91 2.49536 5.5783 0
M  V30 24647 C 2305.9 3.40337 5.92165 0
M  V30 24648 O 2305.59 4.5168 6.65011 0
M  V30 24649 H 2305.32 0.065896 0.672781 0
M  V30 24650 H 2307.88 0.834978 1.87663 0
M  V30 24651 H 2306.11 -0.88673 3.76396 0
M  V30 24652 H 2307.8 -0.555815 4.02076 0
M  V30 24653 H 2308.56 1.88705 4.46784 0
M  V30 24654 H 2304.44 0.664442 4.56187 0
M  V30 24655 H 2307.99 3.89064 5.79029 0
M  V30 24656 H 2303.88 2.65938 5.88173 0
M  V30 24657 H 2304.65 4.5036 6.83461 0
M  V30 24658 N 2307.31 -1.53743 0.34653 0
M  V30 24659 C 2308.26 -2.2512 -0.508874 0
M  V30 24660 C 2309.23 -1.2506 -1.09313 0
M  V30 24661 O 2310.42 -1.53799 -1.12918 0
M  V30 24662 C 2307.56 -3.02968 -1.65241 0
M  V30 24663 C 2306.67 -4.17888 -1.09517 0
M  V30 24664 C 2305.8 -4.83216 -2.20625 0
M  V30 24665 C 2304.84 -5.90199 -1.62269 0
M  V30 24666 N 2303.98 -6.49296 -2.67131 0
M  V30 24667 H 2308.82 -2.9781 0.106336 0
M  V30 24668 H 2306.36 -1.4696 0.0642485 0
M  V30 24669 H 2308.32 -3.46364 -2.32568 0
M  V30 24670 H 2306.95 -2.32569 -2.23856 0
M  V30 24671 H 2306 -3.79112 -0.312751 0
M  V30 24672 H 2307.31 -4.94826 -0.628357 0
M  V30 24673 H 2306.46 -5.29699 -2.95811 0
M  V30 24674 H 2305.2 -4.05708 -2.70652 0
M  V30 24675 H 2304.21 -5.43097 -0.855893 0
M  V30 24676 H 2305.43 -6.69617 -1.1309 0
M  V30 24677 H 2303.38 -5.7465 -3.16407 0
M  V30 24678 H 2303.3 -7.21717 -2.25081 0
M  V30 24679 H 2304.56 -7.00431 -3.42077 0
M  V30 24680 N 2308.79 -0.0752207 -1.5742 0
M  V30 24681 C 2310.04 0.593991 -1.93906 0
M  V30 24682 C 2310.37 1.69055 -0.955731 0
M  V30 24683 O 2309.65 1.94495 0.0145031 0
M  V30 24684 C 2309.93 1.16774 -3.4064 0
M  V30 24685 C 2309.78 0.0776002 -4.49733 0
M  V30 24686 C 2311.1 2.07221 -3.88262 0
M  V30 24687 H 2308.22 0.214454 -0.705109 0
M  V30 24688 H 2310.86 -0.141887 -1.89469 0
M  V30 24689 H 2309.01 1.79488 -3.44552 0
M  V30 24690 H 2310.68 -0.555653 -4.57941 0
M  V30 24691 H 2308.93 -0.591361 -4.2975 0
M  V30 24692 H 2309.6 0.519507 -5.4955 0
M  V30 24693 H 2312.07 1.54438 -3.86378 0
M  V30 24694 H 2310.95 2.44299 -4.91537 0
M  V30 24695 H 2311.21 2.98185 -3.26402 0
M  V30 24696 N 2310.27 1.56347 0.198358 0
M  V30 24697 C 2311.5 1.84893 0.93965 0
M  V30 24698 C 2311.92 0.6584 1.76201 0
M  V30 24699 O 2311.28 -0.39282 1.76993 0
M  V30 24700 C 2311.33 3.11638 1.81422 0
M  V30 24701 O 2310.43 2.91961 2.9126 0
M  V30 24702 H 2309.77 0.608916 0.264796 0
M  V30 24703 H 2312.3 2.03574 0.20466 0
M  V30 24704 H 2312.31 3.42347 2.21952 0
M  V30 24705 H 2310.99 3.9791 1.20997 0
M  V30 24706 H 2309.56 2.72542 2.54509 0
M  V30 24707 N 2311.75 -0.465951 1.50554 0
M  V30 24708 C 2313 -1.21445 1.6104 0
M  V30 24709 C 2313.31 -1.92986 0.318684 0
M  V30 24710 O 2314.52 -2.69809 0.302516 0
M  V30 24711 C 2312.97 -2.20701 2.84287 0
M  V30 24712 C 2312.58 -1.54939 4.20354 0
M  V30 24713 C 2314.32 -2.96161 3.0412 0
M  V30 24714 C 2312.23 -2.52511 5.34783 0
M  V30 24715 H 2311.16 -0.456995 0.599726 0
M  V30 24716 H 2313.81 -0.484393 1.76991 0
M  V30 24717 H 2312.19 -2.97021 2.61906 0
M  V30 24718 H 2313.37 -0.843732 4.5301 0
M  V30 24719 H 2311.68 -0.917404 4.06168 0
M  V30 24720 H 2314.28 -3.69195 3.8678 0
M  V30 24721 H 2314.62 -3.55848 2.16051 0
M  V30 24722 H 2315.16 -2.26953 3.26706 0
M  V30 24723 H 2311.9 -1.97555 6.25022 0
M  V30 24724 H 2311.42 -3.21214 5.06539 0
M  V30 24725 H 2313.09 -3.14235 5.65567 0
M  V30 24726 N 2313.23 -1.40218 -0.719481 0
M  V30 24727 C 2314.45 -1.41592 -1.50862 0
M  V30 24728 C 2314.87 -0.0145607 -1.88794 0
M  V30 24729 O 2314.23 0.960566 -1.55175 0
M  V30 24730 C 2314.28 -2.30307 -2.78641 0
M  V30 24731 O 2314 -3.64987 -2.42314 0
M  V30 24732 C 2315.5 -2.4023 -3.72564 0
M  V30 24733 H 2312.72 -0.483078 -0.4657 0
M  V30 24734 H 2315.26 -1.84223 -0.887817 0
M  V30 24735 H 2313.42 -1.91048 -3.37015 0
M  V30 24736 H 2313.83 -4.12062 -3.24507 0
M  V30 24737 H 2315.31 -3.0652 -4.59074 0
M  V30 24738 H 2315.78 -1.42616 -4.154 0
M  V30 24739 H 2316.39 -2.80024 -3.20104 0
M  V30 24740 N 2314.7 0.951297 -1.25651 0
M  V30 24741 C 2315.93 1.73622 -1.13446 0
M  V30 24742 C 2316.35 1.85569 0.307532 0
M  V30 24743 O 2315.71 1.33856 1.22279 0
M  V30 24744 C 2315.76 3.12618 -1.79728 0
M  V30 24745 O 2314.86 3.98029 -1.07919 0
M  V30 24746 H 2314.21 0.533079 -0.395882 0
M  V30 24747 H 2316.74 1.19217 -1.66278 0
M  V30 24748 H 2316.75 3.63061 -1.86147 0
M  V30 24749 H 2315.42 3.03239 -2.84638 0
M  V30 24750 H 2314 3.5649 -1.09404 0
M  V30 24751 N 2316.18 1.07291 1.1544 0
M  V30 24752 C 2317.43 0.790702 1.85555 0
M  V30 24753 C 2317.74 -0.685706 1.83187 0
M  V30 24754 O 2318.95 -1.08266 2.48979 0
M  V30 24755 C 2317.41 1.36439 3.33035 0
M  V30 24756 C 2317.01 2.87176 3.43851 0
M  V30 24757 C 2318.76 1.16017 4.08338 0
M  V30 24758 C 2316.67 3.37739 4.85476 0
M  V30 24759 H 2315.6 0.29211 0.695117 0
M  V30 24760 H 2318.25 1.2929 1.30217 0
M  V30 24761 H 2316.63 0.789932 3.88041 0
M  V30 24762 H 2317.8 3.5066 2.98955 0
M  V30 24763 H 2316.12 3.06381 2.81992 0
M  V30 24764 H 2318.71 1.51271 5.12856 0
M  V30 24765 H 2319.06 0.0991739 4.16182 0
M  V30 24766 H 2319.59 1.70095 3.596 0
M  V30 24767 H 2316.33 4.43361 4.82816 0
M  V30 24768 H 2315.85 2.79008 5.30956 0
M  V30 24769 H 2317.53 3.33658 5.5433 0
M  V30 24770 N 2317.66 -1.32267 0.856927 0
M  V30 24771 C 2318.89 -2.01362 0.475475 0
M  V30 24772 C 2319.3 -1.64393 -0.928457 0
M  V30 24773 O 2318.66 -0.866415 -1.60622 0
M  V30 24774 C 2318.71 -3.56357 0.607608 0
M  V30 24775 O 2318.43 -3.91999 1.95624 0
M  V30 24776 C 2319.93 -4.42726 0.225459 0
M  V30 24777 H 2317.15 -0.644518 0.186647 0
M  V30 24778 H 2319.7 -1.68795 1.15449 0
M  V30 24779 H 2317.85 -3.87393 -0.0237038 0
M  V30 24780 H 2318.27 -4.86718 1.95464 0
M  V30 24781 H 2319.74 -5.50766 0.368909 0
M  V30 24782 H 2320.22 -4.31203 -0.834293 0
M  V30 24783 H 2320.82 -4.17084 0.831937 0
M  V30 24784 N 2319.14 -0.615084 -1.45102 0
M  V30 24785 C 2320.38 -0.113382 -2.02483 0
M  V30 24786 C 2320.72 1.25561 -1.48149 0
M  V30 24787 O 2319.99 1.82991 -0.659136 0
M  V30 24788 C 2320.28 -0.0825911 -3.60005 0
M  V30 24789 C 2320.13 -1.48279 -4.24657 0
M  V30 24790 C 2321.45 0.601325 -4.35973 0
M  V30 24791 H 2318.57 -0.0426761 -0.735763 0
M  V30 24792 H 2321.21 -0.788491 -1.72866 0
M  V30 24793 H 2319.36 0.49231 -3.85368 0
M  V30 24794 H 2321.03 -2.10534 -4.10455 0
M  V30 24795 H 2319.27 -2.04134 -3.82769 0
M  V30 24796 H 2319.94 -1.41342 -5.33598 0
M  V30 24797 H 2322.42 0.112593 -4.15948 0
M  V30 24798 H 2321.3 0.592001 -5.45698 0
M  V30 24799 H 2321.56 1.66879 -4.09394 0
M  V30 24800 N 2320.62 1.53557 -0.354678 0
M  V30 24801 C 2321.53 2.29098 0.50511 0
M  V30 24802 C 2322.54 1.34638 1.10221 0
M  V30 24803 O 2323.72 1.67686 1.1155 0
M  V30 24804 C 2320.78 3.0574 1.63474 0
M  V30 24805 C 2319.85 4.15847 1.06629 0
M  V30 24806 C 2319.08 4.88826 2.14208 0
M  V30 24807 O 2319.3 4.61568 3.35129 0
M  V30 24808 O 2318.24 5.75016 1.77877 0
M  V30 24809 H 2322.06 3.03503 -0.10929 0
M  V30 24810 H 2319.65 1.48922 -0.119384 0
M  V30 24811 H 2321.53 3.53634 2.29174 0
M  V30 24812 H 2320.2 2.34182 2.23474 0
M  V30 24813 H 2319.11 3.72231 0.373499 0
M  V30 24814 H 2320.44 4.8954 0.510995 0
M  V30 24815 N 2322.1 0.083568 1.57378 0
M  V30 24816 C 2323.04 -0.897102 2.14604 0
M  V30 24817 C 2324.04 -1.30016 1.08591 0
M  V30 24818 O 2325.24 -1.27604 1.26954 0
M  V30 24819 H 2321.62 -0.307288 0.686351 0
M  V30 24820 H 2323.59 -0.389638 2.95845 0
M  V30 24821 C 2322.34 -2.15085 2.73192 0
M  V30 24822 H 2321.66 -1.84956 3.54445 0
M  V30 24823 H 2323.1 -2.81788 3.16815 0
M  V30 24824 C 2321.56 -2.91722 1.68522 0
M  V30 24825 O 2322.09 -3.8585 1.11725 0
M  V30 24826 N 2320.3 -2.55047 1.39282 0
M  V30 24827 H 2319.84 -1.78574 1.85659 0
M  V30 24828 H 2319.8 -3.06626 0.694845 0
M  V30 24829 N 2323.57 -1.5645 -0.190064 0
M  V30 24830 C 2324.82 -1.81186 -0.911021 0
M  V30 24831 C 2325.15 -0.658428 -1.82697 0
M  V30 24832 O 2324.43 0.340741 -1.91492 0
M  V30 24833 C 2324.71 -3.16208 -1.72291 0
M  V30 24834 C 2324.56 -4.42051 -0.831341 0
M  V30 24835 C 2325.88 -3.47974 -2.69448 0
M  V30 24836 H 2323 -0.659112 -0.329758 0
M  V30 24837 H 2325.64 -1.89163 -0.178135 0
M  V30 24838 H 2323.79 -3.09539 -2.34773 0
M  V30 24839 H 2325.47 -4.60771 -0.220848 0
M  V30 24840 H 2323.71 -4.33579 -0.13833 0
M  V30 24841 H 2324.38 -5.33034 -1.43451 0
M  V30 24842 H 2326.86 -3.54976 -2.17097 0
M  V30 24843 H 2325.73 -4.43561 -3.23334 0
M  V30 24844 H 2325.99 -2.71723 -3.48739 0
M  V30 24845 N 2325.05 0.45796 -1.50799 0
M  V30 24846 C 2326.3 1.20906 -1.62444 0
M  V30 24847 C 2326.63 1.91665 -0.330898 0
M  V30 24848 O 2325.88 1.83358 0.683978 0
M  V30 24849 C 2326.18 2.26625 -2.76362 0
M  V30 24850 C 2325.85 1.73026 -4.16381 0
M  V30 24851 C 2324.51 1.5813 -4.54476 0
M  V30 24852 C 2326.86 1.33405 -5.03838 0
M  V30 24853 C 2324.19 1.02055 -5.77756 0
M  V30 24854 C 2326.54 0.78767 -6.27677 0
M  V30 24855 C 2325.2 0.625444 -6.64563 0
M  V30 24856 H 2324.47 0.442425 -0.594425 0
M  V30 24857 H 2327.12 0.503103 -1.84773 0
M  V30 24858 H 2325.43 3.03179 -2.48172 0
M  V30 24859 H 2327.12 2.84523 -2.82573 0
M  V30 24860 H 2323.71 1.85591 -3.86334 0
M  V30 24861 H 2327.9 1.43742 -4.75028 0
M  V30 24862 H 2323.15 0.882441 -6.04998 0
M  V30 24863 H 2327.33 0.472055 -6.94798 0
M  V30 24864 H 2324.95 0.188792 -7.59966 0
M  V30 24865 N 2326.53 1.40598 0.712035 0
M  V30 24866 C 2327.78 1.39274 1.47413 0
M  V30 24867 C 2328.11 -0.00385377 1.942 0
M  V30 24868 O 2327.38 -0.97315 1.68404 0
M  V30 24869 C 2327.67 2.3853 2.6977 0
M  V30 24870 C 2327.52 3.87228 2.28855 0
M  V30 24871 C 2328.84 2.3527 3.71935 0
M  V30 24872 H 2325.96 0.507209 0.534704 0
M  V30 24873 H 2328.6 1.71758 0.812345 0
M  V30 24874 H 2326.75 2.10959 3.26234 0
M  V30 24875 H 2328.42 4.2564 1.77844 0
M  V30 24876 H 2326.66 4.0289 1.60817 0
M  V30 24877 H 2327.34 4.52199 3.16576 0
M  V30 24878 H 2329.81 2.597 3.25108 0
M  V30 24879 H 2328.69 3.06761 4.5518 0
M  V30 24880 H 2328.95 1.36556 4.20482 0
M  V30 24881 N 2328.01 -0.94462 1.26153 0
M  V30 24882 C 2328.95 -2.04283 1.07411 0
M  V30 24883 C 2329.92 -1.66088 -0.0198121 0
M  V30 24884 O 2331.11 -1.90291 0.139297 0
M  V30 24885 C 2328.25 -3.37728 0.709509 0
M  V30 24886 C 2327.36 -3.8898 1.87933 0
M  V30 24887 C 2326.5 -5.10795 1.45816 0
M  V30 24888 C 2325.54 -5.543 2.59649 0
M  V30 24889 N 2324.67 -6.67321 2.18238 0
M  V30 24890 H 2329.51 -2.19647 2.01393 0
M  V30 24891 H 2327.05 -1.07624 1.00277 0
M  V30 24892 H 2329.01 -4.14441 0.479021 0
M  V30 24893 H 2327.64 -3.22221 -0.193332 0
M  V30 24894 H 2326.69 -3.08697 2.22285 0
M  V30 24895 H 2328 -4.17208 2.73384 0
M  V30 24896 H 2327.16 -5.94957 1.18791 0
M  V30 24897 H 2325.9 -4.84304 0.5745 0
M  V30 24898 H 2324.9 -4.68697 2.87407 0
M  V30 24899 H 2326.13 -5.82794 3.48609 0
M  V30 24900 H 2324.07 -6.4252 1.32301 0
M  V30 24901 H 2323.99 -6.95118 2.97233 0
M  V30 24902 H 2325.26 -7.54866 1.94416 0
M  V30 24903 N 2329.49 -1.07901 -1.1487 0
M  V30 24904 C 2330.72 -0.825664 -1.89384 0
M  V30 24905 C 2331.12 0.625375 -1.78566 0
M  V30 24906 O 2330.47 1.44111 -1.1392 0
M  V30 24907 C 2330.53 -1.16197 -3.40204 0
M  V30 24908 C 2330.19 -2.61474 -3.74807 0
M  V30 24909 C 2331.19 -3.59723 -3.7536 0
M  V30 24910 C 2328.87 -2.97196 -4.04945 0
M  V30 24911 C 2330.87 -4.91727 -4.05566 0
M  V30 24912 C 2328.56 -4.29395 -4.34814 0
M  V30 24913 C 2329.55 -5.2647 -4.35107 0
M  V30 24914 O 2329.24 -6.56294 -4.64256 0
M  V30 24915 H 2328.97 -0.297761 -0.606889 0
M  V30 24916 H 2331.53 -1.44034 -1.46436 0
M  V30 24917 H 2329.76 -0.490282 -3.83579 0
M  V30 24918 H 2331.45 -0.890263 -3.96017 0
M  V30 24919 H 2332.21 -3.33468 -3.5217 0
M  V30 24920 H 2328.09 -2.2228 -4.03872 0
M  V30 24921 H 2331.64 -5.67491 -4.05709 0
M  V30 24922 H 2327.53 -4.554 -4.57472 0
M  V30 24923 H 2328.3 -6.61531 -4.81995 0
M  V30 24924 N 2330.96 1.31811 -0.863929 0
M  V30 24925 C 2331.91 2.28663 -0.313343 0
M  V30 24926 C 2332.88 1.55463 0.584841 0
M  V30 24927 O 2334.07 1.8364 0.517773 0
M  V30 24928 C 2331.21 3.41684 0.48435 0
M  V30 24929 C 2330.32 4.29747 -0.440669 0
M  V30 24930 C 2329.45 5.29906 0.370558 0
M  V30 24931 C 2328.49 6.09613 -0.551272 0
M  V30 24932 N 2327.63 7.01745 0.223339 0
M  V30 24933 H 2332.47 2.75146 -1.14449 0
M  V30 24934 H 2330.01 1.35363 -0.575793 0
M  V30 24935 H 2331.96 4.05944 0.962555 0
M  V30 24936 H 2330.59 2.96327 1.28024 0
M  V30 24937 H 2329.65 3.65984 -1.0373 0
M  V30 24938 H 2330.96 4.85415 -1.14776 0
M  V30 24939 H 2330.11 5.99813 0.911533 0
M  V30 24940 H 2328.85 4.74878 1.11097 0
M  V30 24941 H 2327.86 5.38601 -1.10405 0
M  V30 24942 H 2329.08 6.66727 -1.29044 0
M  V30 24943 H 2327.03 6.49133 0.946672 0
M  V30 24944 H 2326.94 7.54807 -0.424532 0
M  V30 24945 H 2328.21 7.75925 0.745739 0
M  V30 24946 N 2332.44 0.62277 1.44773 0
M  V30 24947 C 2333.4 -0.0773612 2.29069 0
M  V30 24948 C 2334.4 -0.780437 1.40591 0
M  V30 24949 O 2335.59 -0.626293 1.62552 0
M  V30 24950 C 2332.73 -1.12 3.21976 0
M  V30 24951 H 2333.92 0.663952 2.92458 0
M  V30 24952 H 2331.47 0.382512 1.51547 0
M  V30 24953 H 2332.21 -1.89157 2.6342 0
M  V30 24954 H 2331.99 -0.619883 3.87169 0
M  V30 24955 H 2333.48 -1.60988 3.85321 0
M  V30 24956 N 2333.92 -1.53367 0.362817 0
M  V30 24957 C 2335.15 -2.05634 -0.228577 0
M  V30 24958 C 2335.56 -1.23651 -1.42674 0
M  V30 24959 O 2334.92 -0.276502 -1.80393 0
M  V30 24960 C 2334.97 -3.5606 -0.624783 0
M  V30 24961 O 2334.69 -4.34934 0.525752 0
M  V30 24962 C 2336.19 -4.24573 -1.27486 0
M  V30 24963 H 2333.41 -0.669764 -0.0407066 0
M  V30 24964 H 2335.96 -1.97768 0.520386 0
M  V30 24965 H 2334.11 -3.64085 -1.32366 0
M  V30 24966 H 2334.53 -5.24095 0.206061 0
M  V30 24967 H 2336 -5.31153 -1.50267 0
M  V30 24968 H 2336.48 -3.7812 -2.23432 0
M  V30 24969 H 2337.08 -4.20794 -0.617484 0
M  V30 24970 N 2335.4 -0.091913 -1.57332 0
M  V30 24971 C 2336.33 0.865333 -2.16874 0
M  V30 24972 C 2337.31 1.29644 -1.1012 0
M  V30 24973 O 2338.49 1.3639 -1.38244 0
M  V30 24974 C 2335.62 2.12564 -2.74652 0
M  V30 24975 C 2334.58 1.83326 -3.8675 0
M  V30 24976 C 2333.9 3.16158 -4.31217 0
M  V30 24977 C 2335.2 1.12271 -5.10091 0
M  V30 24978 H 2336.9 0.369255 -2.97114 0
M  V30 24979 H 2334.44 0.176168 -1.42918 0
M  V30 24980 H 2336.4 2.79964 -3.14957 0
M  V30 24981 H 2335.12 2.64449 -1.91662 0
M  V30 24982 H 2333.78 1.18325 -3.4698 0
M  V30 24983 H 2333.43 3.65924 -3.45121 0
M  V30 24984 H 2333.13 2.97379 -5.06793 0
M  V30 24985 H 2334.65 3.84722 -4.74153 0
M  V30 24986 H 2336.07 1.69776 -5.47585 0
M  V30 24987 H 2334.46 1.03682 -5.91075 0
M  V30 24988 H 2335.53 0.104956 -4.84786 0
M  V30 24989 N 2336.88 1.56548 0.181765 0
M  V30 24990 C 2337.81 1.98625 1.22761 0
M  V30 24991 C 2338.79 0.860215 1.46746 0
M  V30 24992 O 2339.97 1.12553 1.58257 0
M  V30 24993 C 2337.1 2.3372 2.5689 0
M  V30 24994 C 2336.06 3.49186 2.47494 0
M  V30 24995 C 2335.38 3.69993 3.86017 0
M  V30 24996 C 2336.68 4.82963 1.98857 0
M  V30 24997 H 2338.38 2.8624 0.877892 0
M  V30 24998 H 2335.92 1.37713 0.420856 0
M  V30 24999 H 2337.88 2.61752 3.30248 0
M  V30 25000 H 2336.6 1.43002 2.93629 0
M  V30 25001 H 2335.26 3.21265 1.7659 0
M  V30 25002 H 2334.91 2.76584 4.20132 0
M  V30 25003 H 2334.61 4.47679 3.80601 0
M  V30 25004 H 2336.13 4.00415 4.60977 0
M  V30 25005 H 2337.54 5.09939 2.61983 0
M  V30 25006 H 2335.94 5.64212 2.04414 0
M  V30 25007 H 2337.01 4.75654 0.942381 0
M  V30 25008 N 2338.35 -0.449957 1.5104 0
M  V30 25009 C 2339.63 -1.21086 1.53615 0
M  V30 25010 C 2340.01 -2.09056 0.293034 0
M  V30 25011 O 2339.36 -2.16775 -0.722552 0
M  V30 25012 C 2339.57 -2.02365 2.84341 0
M  V30 25013 C 2340.92 -2.59837 3.35812 0
M  V30 25014 O 2341.94 -2.12588 2.85806 0
M  V30 25015 O 2340.8 -3.45982 4.23035 0
M  V30 25016 H 2337.89 -0.550597 0.617067 0
M  V30 25017 H 2340.44 -0.460054 1.63345 0
M  V30 25018 H 2339.21 -1.37674 3.66281 0
M  V30 25019 H 2338.84 -2.84537 2.77713 0
M  V30 25020 N 2339.83 -1.40974 -0.704569 0
M  V30 25021 C 2341.08 -1.39148 -1.46016 0
M  V30 25022 C 2341.39 -0.000623636 -1.956 0
M  V30 25023 O 2342.6 0.140252 -2.71138 0
M  V30 25024 C 2341.06 -2.44615 -2.63992 0
M  V30 25025 C 2340.66 -3.89565 -2.21231 0
M  V30 25026 C 2342.41 -2.51913 -3.41673 0
M  V30 25027 C 2340.32 -4.86603 -3.36112 0
M  V30 25028 H 2339.25 -0.517431 -0.548435 0
M  V30 25029 H 2341.9 -1.66759 -0.765754 0
M  V30 25030 H 2340.28 -2.10121 -3.35656 0
M  V30 25031 H 2341.45 -4.3326 -1.56915 0
M  V30 25032 H 2339.77 -3.85844 -1.56567 0
M  V30 25033 H 2342.36 -3.21597 -4.27176 0
M  V30 25034 H 2342.71 -1.5531 -3.86244 0
M  V30 25035 H 2343.24 -2.85453 -2.77059 0
M  V30 25036 H 2339.98 -5.84578 -2.96562 0
M  V30 25037 H 2339.5 -4.47564 -3.99307 0
M  V30 25038 H 2341.18 -5.06941 -4.0202 0
M  V30 25039 N 2341.31 0.937917 -1.26653 0
M  V30 25040 C 2342.54 1.71629 -1.15009 0
M  V30 25041 C 2342.95 1.86854 0.296993 0
M  V30 25042 O 2342.29 1.37788 1.21491 0
M  V30 25043 C 2342.35 3.14036 -1.7499 0
M  V30 25044 C 2342.02 3.22184 -3.24108 0
M  V30 25045 C 2343.01 3.05212 -4.20882 0
M  V30 25046 C 2340.7 3.4547 -3.64631 0
M  V30 25047 C 2342.69 3.11398 -5.56156 0
M  V30 25048 C 2340.38 3.51291 -5.00038 0
M  V30 25049 C 2341.38 3.34272 -5.9561 0
M  V30 25050 O 2341.07 3.39808 -7.28551 0
M  V30 25051 H 2340.8 0.544078 -0.401192 0
M  V30 25052 H 2343.35 1.1841 -1.67834 0
M  V30 25053 H 2341.58 3.68693 -1.1663 0
M  V30 25054 H 2343.27 3.73799 -1.58205 0
M  V30 25055 H 2344.04 2.87074 -3.90914 0
M  V30 25056 H 2339.92 3.57772 -2.90724 0
M  V30 25057 H 2343.46 2.98032 -6.30732 0
M  V30 25058 H 2339.36 3.6895 -5.29666 0
M  V30 25059 H 2340.13 3.5633 -7.36866 0
M  V30 25060 N 2342.79 1.08509 1.14296 0
M  V30 25061 C 2343.74 0.716003 2.19413 0
M  V30 25062 C 2344.71 -0.298297 1.634 0
M  V30 25063 O 2345.89 -0.182067 1.89929 0
M  V30 25064 C 2343.03 0.132594 3.44845 0
M  V30 25065 C 2342.14 1.1998 4.15005 0
M  V30 25066 C 2341.28 0.580141 5.28023 0
M  V30 25067 C 2340.32 1.62931 5.90017 0
M  V30 25068 N 2339.45 1.03137 6.94483 0
M  V30 25069 H 2344.29 1.6167 2.50333 0
M  V30 25070 H 2341.83 0.807904 1.22928 0
M  V30 25071 H 2343.79 -0.223381 4.16602 0
M  V30 25072 H 2342.42 -0.731412 3.14405 0
M  V30 25073 H 2341.47 1.67319 3.41626 0
M  V30 25074 H 2342.78 1.99481 4.57175 0
M  V30 25075 H 2341.94 0.172471 6.06455 0
M  V30 25076 H 2340.68 -0.246518 4.87077 0
M  V30 25077 H 2339.68 2.04663 5.10287 0
M  V30 25078 H 2340.91 2.45846 6.33037 0
M  V30 25079 H 2338.85 0.225826 6.55611 0
M  V30 25080 H 2338.77 1.76347 7.35145 0
M  V30 25081 H 2340.04 0.649594 7.76789 0
M  V30 25082 N 2344.27 -1.31351 0.870907 0
M  V30 25083 C 2345.49 -2.00847 0.496805 0
M  V30 25084 C 2345.91 -1.65369 -0.910969 0
M  V30 25085 O 2345.27 -0.883402 -1.59694 0
M  V30 25086 C 2345.32 -3.55693 0.64537 0
M  V30 25087 O 2345.04 -3.89902 1.99771 0
M  V30 25088 C 2346.54 -4.42462 0.272404 0
M  V30 25089 H 2343.76 -0.642502 0.193473 0
M  V30 25090 H 2346.3 -1.67561 1.17233 0
M  V30 25091 H 2344.46 -3.87396 0.0173857 0
M  V30 25092 H 2344.87 -4.84617 2.00615 0
M  V30 25093 H 2346.35 -5.50344 0.427305 0
M  V30 25094 H 2346.82 -4.32064 -0.788511 0
M  V30 25095 H 2347.43 -4.16178 0.876128 0
M  V30 25096 N 2345.74 -0.630439 -1.44441 0
M  V30 25097 C 2346.99 -0.134386 -2.01653 0
M  V30 25098 C 2347.31 1.24794 -1.49838 0
M  V30 25099 O 2346.58 1.82901 -0.701716 0
M  V30 25100 H 2345.16 -0.04669 -0.745539 0
M  V30 25101 H 2347.83 -0.816986 -1.7695 0
M  V30 25102 H 2346.92 -0.101552 -3.11935 0
M  V30 25103 N 2347.22 1.53172 -0.370945 0
M  V30 25104 C 2348.13 2.29621 0.480783 0
M  V30 25105 C 2349.15 1.358 1.08786 0
M  V30 25106 O 2350.32 1.6886 1.09765 0
M  V30 25107 C 2347.39 3.07457 1.60222 0
M  V30 25108 C 2346.45 4.16955 1.02212 0
M  V30 25109 C 2345.68 4.9107 2.09012 0
M  V30 25110 O 2345.91 4.65097 3.30214 0
M  V30 25111 O 2344.84 5.7687 1.71768 0
M  V30 25112 H 2348.67 3.0337 -0.141474 0
M  V30 25113 H 2346.25 1.48787 -0.135172 0
M  V30 25114 H 2348.13 3.56045 2.2541 0
M  V30 25115 H 2346.81 2.36539 2.20978 0
M  V30 25116 H 2345.72 3.72606 0.333998 0
M  V30 25117 H 2347.05 4.90055 0.459044 0
M  V30 25118 N 2348.7 0.100255 1.57281 0
M  V30 25119 C 2349.66 -0.842361 2.13159 0
M  V30 25120 C 2350.66 -1.20736 1.06205 0
M  V30 25121 O 2351.85 -1.13595 1.32068 0
M  V30 25122 C 2348.99 -2.13651 2.65643 0
M  V30 25123 H 2350.18 -0.357061 2.97767 0
M  V30 25124 H 2347.73 -0.148796 1.5559 0
M  V30 25125 H 2348.47 -2.66654 1.8457 0
M  V30 25126 H 2348.25 -1.88445 3.43847 0
M  V30 25127 H 2349.74 -2.81071 3.08851 0
M  V30 25128 N 2350.18 -1.56643 -0.17346 0
M  V30 25129 C 2351.43 -1.82142 -0.891752 0
M  V30 25130 C 2351.76 -0.677768 -1.81989 0
M  V30 25131 O 2351.03 0.320412 -1.91843 0
M  V30 25132 C 2351.32 -3.18018 -1.68928 0
M  V30 25133 C 2351.17 -4.42908 -0.784409 0
M  V30 25134 C 2352.49 -3.50812 -2.65742 0
M  V30 25135 H 2349.61 -0.662572 -0.322749 0
M  V30 25136 H 2352.25 -1.89341 -0.158062 0
M  V30 25137 H 2350.4 -3.12011 -2.31476 0
M  V30 25138 H 2352.07 -4.60979 -0.171965 0
M  V30 25139 H 2350.31 -4.33702 -0.0923355 0
M  V30 25140 H 2350.99 -5.34526 -1.3779 0
M  V30 25141 H 2353.46 -3.57259 -2.1332 0
M  V30 25142 H 2352.34 -4.46965 -3.18612 0
M  V30 25143 H 2352.6 -2.75407 -3.45838 0
M  V30 25144 N 2351.66 0.44194 -1.51277 0
M  V30 25145 C 2352.62 1.51859 -1.71673 0
M  V30 25146 C 2353.62 1.4971 -0.58682 0
M  V30 25147 O 2354.81 1.51813 -0.854303 0
M  V30 25148 C 2351.94 2.91413 -1.76894 0
M  V30 25149 H 2353.14 1.3508 -2.67756 0
M  V30 25150 H 2350.69 0.670308 -1.41197 0
M  V30 25151 H 2351.42 3.13602 -0.826081 0
M  V30 25152 H 2351.21 2.94378 -2.59006 0
M  V30 25153 H 2352.7 3.69525 -1.94528 0
M  V30 25154 N 2353.14 1.41345 0.697083 0
M  V30 25155 C 2354.05 1.4543 1.84085 0
M  V30 25156 C 2355.06 0.34504 1.70545 0
M  V30 25157 O 2356.24 0.592526 1.92487 0
M  V30 25158 C 2353.3 1.33292 3.20053 0
M  V30 25159 C 2352.36 2.5452 3.45713 0
M  V30 25160 C 2351.6 2.42952 4.75195 0
M  V30 25161 O 2351.82 1.45328 5.51576 0
M  V30 25162 O 2350.75 3.32681 5.01604 0
M  V30 25163 H 2354.58 2.41922 1.83595 0
M  V30 25164 H 2352.16 1.22867 0.849945 0
M  V30 25165 H 2354.05 1.28801 4.01233 0
M  V30 25166 H 2352.72 0.399146 3.2123 0
M  V30 25167 H 2351.63 2.64588 2.64469 0
M  V30 25168 H 2352.96 3.46721 3.4935 0
M  V30 25169 N 2354.61 -0.931187 1.27148 0
M  V30 25170 C 2355.56 -2.03132 1.09572 0
M  V30 25171 C 2356.53 -1.661 -0.00219513 0
M  V30 25172 O 2357.72 -1.90132 0.159472 0
M  V30 25173 C 2354.86 -3.36956 0.74529 0
M  V30 25174 C 2353.97 -3.86964 1.92048 0
M  V30 25175 C 2353.1 -5.09219 1.51225 0
M  V30 25176 C 2352.14 -5.51515 2.65514 0
M  V30 25177 N 2351.28 -6.64968 2.25303 0
M  V30 25178 H 2356.12 -2.17498 2.03712 0
M  V30 25179 H 2353.66 -1.06555 1.01413 0
M  V30 25180 H 2355.61 -4.13909 0.522951 0
M  V30 25181 H 2354.24 -3.22407 -0.159145 0
M  V30 25182 H 2353.3 -3.06322 2.25546 0
M  V30 25183 H 2354.61 -4.14285 2.77794 0
M  V30 25184 H 2353.76 -5.93663 1.25095 0
M  V30 25185 H 2352.5 -4.83668 0.625834 0
M  V30 25186 H 2351.51 -4.65623 2.92362 0
M  V30 25187 H 2352.73 -5.79064 3.54771 0
M  V30 25188 H 2350.68 -6.41081 1.39109 0
M  V30 25189 H 2350.59 -6.91926 3.04589 0
M  V30 25190 H 2351.86 -7.52762 2.02411 0
M  V30 25191 N 2356.09 -1.09114 -1.13719 0
M  V30 25192 C 2357.37 -0.737737 -1.81154 0
M  V30 25193 C 2357.75 0.777649 -1.96255 0
M  V30 25194 O 2357.1 1.69886 -1.5281 0
M  V30 25195 C 2357.31 -1.47305 -3.16389 0
M  V30 25196 C 2358.65 -1.63677 -3.91784 0
M  V30 25197 O 2359.68 -1.4353 -3.26003 0
M  V30 25198 O 2358.54 -1.96978 -5.09767 0
M  V30 25199 H 2355.63 -0.264644 -0.783513 0
M  V30 25200 H 2358.18 -1.19315 -1.20674 0
M  V30 25201 H 2356.95 -2.50503 -3.00606 0
M  V30 25202 H 2356.57 -1.0096 -3.84568 0
M  V30 25203 N 2357.57 1.30887 -0.877861 0
M  V30 25204 C 2358.79 2.01116 -0.506665 0
M  V30 25205 C 2359.22 1.65414 0.895535 0
M  V30 25206 O 2358.58 0.86695 1.59228 0
M  V30 25207 C 2358.63 3.54125 -0.680285 0
M  V30 25208 O 2357.73 4.11469 0.276961 0
M  V30 25209 H 2357.07 0.632996 -0.200529 0
M  V30 25210 H 2359.6 1.669 -1.18345 0
M  V30 25211 H 2359.61 4.03906 -0.576571 0
M  V30 25212 H 2358.29 3.79449 -1.70267 0
M  V30 25213 H 2356.86 3.72682 0.12754 0
M  V30 25214 N 2359.05 0.638091 1.44105 0
M  V30 25215 C 2359.96 -0.0636922 2.34514 0
M  V30 25216 C 2360.97 -0.828319 1.53019 0
M  V30 25217 O 2362.15 -0.779003 1.85724 0
M  V30 25218 C 2359.21 -1.02839 3.31097 0
M  V30 25219 C 2358.28 -0.262364 4.28498 0
M  V30 25220 C 2357.51 -1.18111 5.20467 0
M  V30 25221 O 2357.73 -2.42002 5.16518 0
M  V30 25222 O 2356.67 -0.661668 5.98252 0
M  V30 25223 H 2360.49 0.680082 2.95987 0
M  V30 25224 H 2358.08 0.398277 1.43993 0
M  V30 25225 H 2359.96 -1.5832 3.90529 0
M  V30 25226 H 2358.63 -1.75265 2.72147 0
M  V30 25227 H 2357.54 0.335667 3.72591 0
M  V30 25228 H 2358.87 0.422022 4.90387 0
M  V30 25229 N 2360.53 -1.52973 0.379063 0
M  V30 25230 C 2361.77 -2.00629 -0.207577 0
M  V30 25231 C 2362.09 -1.27008 -1.48756 0
M  V30 25232 O 2363.29 -1.65322 -2.15362 0
M  V30 25233 C 2361.75 -3.57435 -0.420467 0
M  V30 25234 C 2361.36 -4.39946 0.845664 0
M  V30 25235 C 2363.1 -4.13409 -0.964029 0
M  V30 25236 C 2361.01 -5.88332 0.601616 0
M  V30 25237 H 2359.94 -0.749599 -0.0813459 0
M  V30 25238 H 2362.59 -1.7656 0.499884 0
M  V30 25239 H 2360.97 -3.77712 -1.18952 0
M  V30 25240 H 2362.15 -4.31439 1.61855 0
M  V30 25241 H 2360.46 -3.95143 1.31343 0
M  V30 25242 H 2363.06 -5.21918 -1.16216 0
M  V30 25243 H 2363.4 -3.68852 -1.93012 0
M  V30 25244 H 2363.93 -3.96983 -0.2548 0
M  V30 25245 H 2360.67 -6.37191 1.53842 0
M  V30 25246 H 2360.19 -5.99654 -0.132523 0
M  V30 25247 H 2361.87 -6.46583 0.232247 0
M  V30 25248 N 2362 -0.108595 -1.57225 0
M  V30 25249 C 2363.23 0.559919 -1.9918 0
M  V30 25250 C 2363.65 1.60882 -0.988051 0
M  V30 25251 O 2363 1.82488 0.0205192 0
M  V30 25252 C 2363.05 1.19546 -3.41161 0
M  V30 25253 O 2362.78 0.1885 -4.37694 0
M  V30 25254 C 2364.28 1.9483 -3.98191 0
M  V30 25255 H 2361.5 0.149076 -0.65423 0
M  V30 25256 H 2364.04 -0.191866 -2.03598 0
M  V30 25257 H 2362.2 1.89809 -3.37715 0
M  V30 25258 H 2362.61 0.648922 -5.2047 0
M  V30 25259 H 2364.08 2.34639 -4.99648 0
M  V30 25260 H 2364.56 2.81945 -3.36755 0
M  V30 25261 H 2365.17 1.29353 -4.05152 0
M  V30 25262 N 2363.48 1.56732 0.16515 0
M  V30 25263 C 2364.73 1.82342 0.880775 0
M  V30 25264 C 2365.06 0.686653 1.81976 0
M  V30 25265 O 2364.31 -0.325663 1.92971 0
M  V30 25266 C 2364.61 3.14163 1.704 0
M  V30 25267 C 2364.28 4.41552 0.913397 0
M  V30 25268 C 2362.94 4.76151 0.69522 0
M  V30 25269 C 2365.29 5.1996 0.359257 0
M  V30 25270 C 2362.62 5.86634 -0.0880978 0
M  V30 25271 C 2364.97 6.31263 -0.411004 0
M  V30 25272 C 2363.63 6.64425 -0.639925 0
M  V30 25273 H 2362.9 0.667237 0.322299 0
M  V30 25274 H 2365.55 1.90947 0.145369 0
M  V30 25275 H 2363.86 3.00928 2.50898 0
M  V30 25276 H 2365.55 3.3119 2.26085 0
M  V30 25277 H 2362.14 4.14416 1.09349 0
M  V30 25278 H 2366.33 4.93619 0.515141 0
M  V30 25279 H 2361.58 6.10781 -0.275137 0
M  V30 25280 H 2365.76 6.91222 -0.847615 0
M  V30 25281 H 2363.38 7.49873 -1.24877 0
M  V30 25282 N 2364.96 -0.433911 1.51509 0
M  V30 25283 C 2366.21 -1.18002 1.6358 0
M  V30 25284 C 2366.52 -1.92267 0.359548 0
M  V30 25285 O 2367.73 -2.69107 0.359679 0
M  V30 25286 C 2366.18 -2.14621 2.88905 0
M  V30 25287 C 2365.79 -1.45988 4.23546 0
M  V30 25288 C 2367.54 -2.89644 3.10333 0
M  V30 25289 C 2365.44 -2.4111 5.40018 0
M  V30 25290 H 2364.37 -0.444171 0.609285 0
M  V30 25291 H 2367.02 -0.446741 1.77979 0
M  V30 25292 H 2365.41 -2.91398 2.68147 0
M  V30 25293 H 2366.58 -0.747452 4.54697 0
M  V30 25294 H 2364.89 -0.831043 4.08023 0
M  V30 25295 H 2367.49 -3.60908 3.94525 0
M  V30 25296 H 2367.84 -3.51185 2.2355 0
M  V30 25297 H 2368.37 -2.19972 3.31447 0
M  V30 25298 H 2365.11 -1.84253 6.29072 0
M  V30 25299 H 2364.63 -3.10397 5.13239 0
M  V30 25300 H 2366.31 -3.02167 5.72105 0
M  V30 25301 N 2366.44 -1.41713 -0.689577 0
M  V30 25302 C 2367.39 -1.44033 -1.80342 0
M  V30 25303 C 2368.36 -0.293977 -1.63478 0
M  V30 25304 O 2369.54 -0.495902 -1.84243 0
M  V30 25305 C 2366.68 -1.3341 -3.1827 0
M  V30 25306 C 2365.79 -2.57963 -3.46525 0
M  V30 25307 C 2364.93 -2.3959 -4.74099 0
M  V30 25308 C 2363.97 -3.59589 -4.95341 0
M  V30 25309 N 2363.1 -3.4025 -6.14145 0
M  V30 25310 H 2367.94 -2.39225 -1.77694 0
M  V30 25311 H 2365.48 -1.18785 -0.867667 0
M  V30 25312 H 2367.44 -1.25253 -3.97954 0
M  V30 25313 H 2366.07 -0.41822 -3.20079 0
M  V30 25314 H 2365.12 -2.76546 -2.61202 0
M  V30 25315 H 2366.43 -3.47206 -3.5812 0
M  V30 25316 H 2365.59 -2.28934 -5.61849 0
M  V30 25317 H 2364.33 -1.47813 -4.64761 0
M  V30 25318 H 2363.33 -3.70693 -4.06038 0
M  V30 25319 H 2364.56 -4.52327 -5.06534 0
M  V30 25320 H 2362.5 -2.51177 -6.06008 0
M  V30 25321 H 2362.42 -4.23072 -6.26535 0
M  V30 25322 H 2363.69 -3.33377 -7.04613 0
M  V30 25323 N 2367.92 0.924431 -1.2764 0
M  V30 25324 C 2368.86 2.02548 -1.10648 0
M  V30 25325 C 2369.83 1.66099 -0.00661358 0
M  V30 25326 O 2371.02 1.90045 -0.169553 0
M  V30 25327 C 2368.16 3.36556 -0.763149 0
M  V30 25328 C 2367.27 3.85941 -1.94098 0
M  V30 25329 C 2366.41 5.0841 -1.53923 0
M  V30 25330 C 2365.45 5.50099 -2.68435 0
M  V30 25331 N 2364.58 6.63764 -2.28826 0
M  V30 25332 H 2369.42 2.16415 -2.04862 0
M  V30 25333 H 2366.96 1.06015 -1.01976 0
M  V30 25334 H 2368.92 4.13626 -0.544894 0
M  V30 25335 H 2367.55 3.22487 0.142045 0
M  V30 25336 H 2366.6 3.05121 -2.27168 0
M  V30 25337 H 2367.91 4.12806 -2.79987 0
M  V30 25338 H 2367.07 5.92992 -1.28241 0
M  V30 25339 H 2365.8 4.83329 -0.651476 0
M  V30 25340 H 2364.81 4.64066 -2.94827 0
M  V30 25341 H 2366.03 5.77174 -3.57837 0
M  V30 25342 H 2363.98 6.40334 -1.42507 0
M  V30 25343 H 2363.9 6.90301 -3.08254 0
M  V30 25344 H 2365.17 7.51678 -2.064 0
M  V30 25345 N 2369.39 1.09715 1.13139 0
M  V30 25346 C 2370.64 0.836257 1.84755 0
M  V30 25347 C 2370.97 -0.636566 1.83471 0
M  V30 25348 O 2370.25 -1.46887 1.27493 0
M  V30 25349 C 2370.53 1.37584 3.3278 0
M  V30 25350 C 2370.38 2.91499 3.42562 0
M  V30 25351 C 2371.7 1.01206 4.28305 0
M  V30 25352 H 2368.82 0.305248 0.670815 0
M  V30 25353 H 2371.46 1.35905 1.32777 0
M  V30 25354 H 2369.61 0.931164 3.77176 0
M  V30 25355 H 2371.29 3.44438 3.06856 0
M  V30 25356 H 2369.53 3.2848 2.83343 0
M  V30 25357 H 2370.2 3.24332 4.46668 0
M  V30 25358 H 2372.68 1.39563 3.91997 0
M  V30 25359 H 2371.55 1.41662 5.30305 0
M  V30 25360 H 2371.81 -0.0794056 4.42029 0
M  V30 25361 N 2370.87 -1.30419 0.88479 0
M  V30 25362 C 2372.1 -2.00309 0.51808 0
M  V30 25363 C 2372.52 -1.66326 -0.893378 0
M  V30 25364 O 2371.87 -0.90029 -1.58748 0
M  V30 25365 C 2371.92 -3.54988 0.68306 0
M  V30 25366 O 2371.64 -3.87761 2.03895 0
M  V30 25367 C 2373.15 -4.42148 0.319317 0
M  V30 25368 H 2370.37 -0.640414 0.200277 0
M  V30 25369 H 2372.91 -1.66308 1.19004 0
M  V30 25370 H 2371.06 -3.87356 0.0584733 0
M  V30 25371 H 2371.48 -4.82462 2.05744 0
M  V30 25372 H 2372.95 -5.49859 0.485652 0
M  V30 25373 H 2373.43 -4.32876 -0.74264 0
M  V30 25374 H 2374.04 -4.15225 0.92022 0
M  V30 25375 N 2372.35 -0.645724 -1.43764 0
M  V30 25376 C 2373.59 -0.159577 -2.03776 0
M  V30 25377 C 2373.95 1.20108 -1.49794 0
M  V30 25378 O 2375.16 1.78019 -2.01402 0
M  V30 25379 C 2373.43 -0.161314 -3.57036 0
M  V30 25380 S 2374.99 0.258082 -4.3804 0
M  V30 25381 H 2371.8 -0.0682578 -0.707716 0
M  V30 25382 H 2374.41 -0.852383 -1.75939 0
M  V30 25383 H 2373.11 -1.15446 -3.93828 0
M  V30 25384 H 2372.64 0.552271 -3.89504 0
M  V30 25385 H 2374.66 1.49881 -4.73022 0
M  V30 25386 N 2373.83 1.5277 -0.38717 0
M  V30 25387 C 2375.06 2.05971 0.195833 0
M  V30 25388 C 2375.47 1.25905 1.40689 0
M  V30 25389 O 2374.83 0.305166 1.79931 0
M  V30 25390 C 2374.88 3.57009 0.568058 0
M  V30 25391 O 2374.6 4.34042 -0.594879 0
M  V30 25392 C 2376.1 4.26547 1.20715 0
M  V30 25393 H 2373.32 0.670327 0.0300461 0
M  V30 25394 H 2375.87 1.96915 -0.551784 0
M  V30 25395 H 2374.02 3.66145 1.26557 0
M  V30 25396 H 2374.43 5.23701 -0.289414 0
M  V30 25397 H 2375.91 5.33477 1.41798 0
M  V30 25398 H 2376.39 3.81627 2.17388 0
M  V30 25399 H 2376.99 4.21723 0.550461 0
M  V30 25400 N 2375.31 0.116931 1.57166 0
M  V30 25401 C 2376.25 -0.85138 2.16458 0
M  V30 25402 C 2377.25 -1.27684 1.11325 0
M  V30 25403 O 2378.45 -1.24882 1.29632 0
M  V30 25404 H 2374.83 -0.29266 0.692715 0
M  V30 25405 H 2376.8 -0.326797 2.96605 0
M  V30 25406 C 2375.55 -2.09241 2.77693 0
M  V30 25407 H 2374.87 -1.77396 3.58289 0
M  V30 25408 H 2376.31 -2.75004 3.22721 0
M  V30 25409 C 2374.77 -2.88082 1.74672 0
M  V30 25410 O 2375.3 -3.83394 1.19884 0
M  V30 25411 N 2373.51 -2.52035 1.44661 0
M  V30 25412 H 2373.05 -1.74596 1.89405 0
M  V30 25413 H 2373.01 -3.05083 0.759729 0
M  V30 25414 N 2376.78 -1.56818 -0.156836 0
M  V30 25415 C 2377.75 -1.96624 -1.17777 0
M  V30 25416 C 2378.75 -0.851579 -1.36399 0
M  V30 25417 O 2379.94 -1.11838 -1.33559 0
M  V30 25418 C 2377.07 -2.27365 -2.54004 0
M  V30 25419 H 2378.26 -2.87997 -0.836513 0
M  V30 25420 H 2375.82 -1.511 -0.399823 0
M  V30 25421 H 2376.55 -1.38753 -2.93118 0
M  V30 25422 H 2376.34 -3.08627 -2.4185 0
M  V30 25423 H 2377.83 -2.59034 -3.27553 0
M  V30 25424 N 2378.26 0.425871 -1.51737 0
M  V30 25425 C 2379.17 1.54272 -1.76741 0
M  V30 25426 C 2380.19 1.61317 -0.652138 0
M  V30 25427 O 2381.36 1.78345 -0.935686 0
M  V30 25428 C 2378.43 2.90159 -1.8976 0
M  V30 25429 C 2377.49 2.93137 -3.13638 0
M  V30 25430 C 2376.72 4.22542 -3.26027 0
M  V30 25431 O 2376.95 5.15541 -2.44076 0
M  V30 25432 O 2375.88 4.32038 -4.19078 0
M  V30 25433 H 2379.71 1.36084 -2.71505 0
M  V30 25434 H 2377.29 0.610045 -1.36377 0
M  V30 25435 H 2379.17 3.70784 -2.00242 0
M  V30 25436 H 2377.85 3.0845 -0.981839 0
M  V30 25437 H 2376.76 2.11425 -3.08626 0
M  V30 25438 H 2378.09 2.79792 -4.04941 0
M  V30 25439 N 2379.74 1.42077 0.682052 0
M  V30 25440 C 2380.67 1.4777 1.80793 0
M  V30 25441 C 2381.65 0.334983 1.66769 0
M  V30 25442 O 2382.84 0.548297 1.86299 0
M  V30 25443 C 2379.97 1.37235 3.19036 0
M  V30 25444 C 2378.92 2.49459 3.47785 0
M  V30 25445 C 2378.25 2.23983 4.85526 0
M  V30 25446 C 2379.55 3.91783 3.45404 0
M  V30 25447 H 2381.24 2.42 1.76285 0
M  V30 25448 H 2378.79 1.16477 0.846701 0
M  V30 25449 H 2380.74 1.39828 3.97525 0
M  V30 25450 H 2379.46 0.394964 3.24203 0
M  V30 25451 H 2378.12 2.46171 2.71653 0
M  V30 25452 H 2377.77 1.24556 4.87334 0
M  V30 25453 H 2377.47 2.99193 5.05725 0
M  V30 25454 H 2378.99 2.28314 5.66308 0
M  V30 25455 H 2380.41 3.96712 4.13875 0
M  V30 25456 H 2378.81 4.66784 3.77137 0
M  V30 25457 H 2379.88 4.1897 2.44115 0
M  V30 25458 N 2381.22 -0.917649 1.28129 0
M  V30 25459 C 2382.47 -1.66886 1.15226 0
M  V30 25460 C 2382.8 -1.9188 -0.299259 0
M  V30 25461 O 2382.07 -1.51639 -1.21803 0
M  V30 25462 C 2382.36 -3.02919 1.94711 0
M  V30 25463 C 2382.21 -2.85102 3.47903 0
M  V30 25464 C 2383.53 -4.03399 1.75946 0
M  V30 25465 H 2380.65 -0.605645 0.419956 0
M  V30 25466 H 2383.29 -1.0642 1.574 0
M  V30 25467 H 2381.44 -3.54531 1.58871 0
M  V30 25468 H 2383.11 -2.4053 3.93628 0
M  V30 25469 H 2381.35 -2.2024 3.73734 0
M  V30 25470 H 2382.03 -3.81687 3.98772 0
M  V30 25471 H 2384.5 -3.60834 2.07216 0
M  V30 25472 H 2383.38 -4.96552 2.3394 0
M  V30 25473 H 2383.64 -4.36362 0.709953 0
M  V30 25474 N 2382.7 -1.10314 -1.12555 0
M  V30 25475 C 2383.64 -0.750819 -2.18246 0
M  V30 25476 C 2384.61 0.272264 -1.63853 0
M  V30 25477 O 2385.8 0.151828 -1.90195 0
M  V30 25478 C 2382.94 -0.18744 -3.44591 0
M  V30 25479 C 2382.05 -1.26567 -4.13043 0
M  V30 25480 C 2381.19 -0.664071 -5.27033 0
M  V30 25481 C 2380.23 -1.72297 -5.8735 0
M  V30 25482 N 2379.36 -1.14173 -6.92755 0
M  V30 25483 H 2384.2 -1.65632 -2.47729 0
M  V30 25484 H 2381.74 -0.827358 -1.21627 0
M  V30 25485 H 2383.7 0.157075 -4.16904 0
M  V30 25486 H 2382.33 0.6813 -3.15528 0
M  V30 25487 H 2381.38 -1.72733 -3.38921 0
M  V30 25488 H 2382.69 -2.06729 -4.53943 0
M  V30 25489 H 2381.85 -0.26893 -6.06104 0
M  V30 25490 H 2380.59 0.168997 -4.87407 0
M  V30 25491 H 2379.59 -2.12755 -5.06967 0
M  V30 25492 H 2380.82 -2.55886 -6.29046 0
M  V30 25493 H 2378.76 -0.330099 -6.55169 0
M  V30 25494 H 2378.68 -1.8802 -7.32246 0
M  V30 25495 H 2379.95 -0.773092 -7.75657 0
M  V30 25496 N 2384.18 1.29948 -0.891694 0
M  V30 25497 C 2385.42 1.95493 -0.512521 0
M  V30 25498 C 2385.74 1.70697 0.942746 0
M  V30 25499 O 2385.01 1.03427 1.66372 0
M  V30 25500 H 2383.59 0.723332 -0.186546 0
M  V30 25501 H 2386.26 1.58353 -1.13624 0
M  V30 25502 H 2385.35 3.04413 -0.688395 0
M  V30 25503 N 2385.65 0.653339 1.4342 0
M  V30 25504 C 2387.07 0.320914 1.5634 0
M  V30 25505 C 2387.27 -1.17496 1.63698 0
M  V30 25506 O 2386.33 -1.95979 1.59212 0
M  V30 25507 C 2387.64 1.03238 2.82423 0
M  V30 25508 C 2389.19 1.01264 2.96167 0
M  V30 25509 C 2389.66 1.705 4.25081 0
M  V30 25510 N 2391.15 1.67264 4.31945 0
M  V30 25511 C 2391.89 2.1771 5.30462 0
M  V30 25512 N 2391.38 2.76445 6.35256 0
M  V30 25513 N 2393.18 2.08209 5.22116 0
M  V30 25514 H 2385.33 1.62406 1.36887 0
M  V30 25515 H 2387.59 0.682989 0.657442 0
M  V30 25516 H 2387.3 2.08749 2.83049 0
M  V30 25517 H 2387.17 0.584013 3.72651 0
M  V30 25518 H 2389.56 -0.0340717 2.9508 0
M  V30 25519 H 2389.64 1.49969 2.07227 0
M  V30 25520 H 2389.28 2.75128 4.26928 0
M  V30 25521 H 2389.21 1.1926 5.12918 0
M  V30 25522 H 2391.7 1.24404 3.56836 0
M  V30 25523 H 2392.02 3.12613 7.06748 0
M  V30 25524 H 2390.36 2.80506 6.35879 0
M  V30 25525 H 2393.55 1.62028 4.39163 0
M  V30 25526 H 2393.73 2.47832 5.98735 0
M  V30 25527 N 2387.13 -1.52563 0.395266 0
M  V30 25528 C 2388.06 -2.24284 -0.472161 0
M  V30 25529 C 2389.08 -1.26743 -1.02176 0
M  V30 25530 O 2390.27 -1.5278 -0.92307 0
M  V30 25531 C 2387.37 -2.95027 -1.6677 0
M  V30 25532 C 2386.54 -4.19324 -1.24442 0
M  V30 25533 C 2385.6 -4.73014 -2.30531 0
M  V30 25534 O 2384.62 -5.3595 -1.91692 0
M  V30 25535 N 2385.83 -4.53385 -3.62522 0
M  V30 25536 H 2388.59 -2.99362 0.142335 0
M  V30 25537 H 2386.15 -1.60372 0.221928 0
M  V30 25538 H 2388.14 -3.27844 -2.37278 0
M  V30 25539 H 2386.71 -2.23221 -2.18841 0
M  V30 25540 H 2385.93 -3.92479 -0.368 0
M  V30 25541 H 2387.22 -5.00072 -0.938369 0
M  V30 25542 H 2386.62 -4.03161 -3.96834 0
M  V30 25543 H 2385.18 -4.90676 -4.29046 0
M  V30 25544 N 2388.61 -0.125265 -1.57101 0
M  V30 25545 C 2389.84 0.53798 -1.99473 0
M  V30 25546 C 2390.25 1.60365 -1.00398 0
M  V30 25547 O 2389.59 1.83697 0.0103553 0
M  V30 25548 C 2389.65 1.21728 -3.38264 0
M  V30 25549 C 2389.32 0.298817 -4.56022 0
M  V30 25550 C 2390.31 -0.465034 -5.17816 0
M  V30 25551 C 2388 0.20806 -5.01869 0
M  V30 25552 C 2389.99 -1.30731 -6.23849 0
M  V30 25553 C 2387.68 -0.637843 -6.07762 0
M  V30 25554 C 2388.68 -1.39415 -6.6862 0
M  V30 25555 O 2388.37 -2.226 -7.72466 0
M  V30 25556 H 2388.1 0.14649 -0.659937 0
M  V30 25557 H 2390.65 -0.210303 -2.04321 0
M  V30 25558 H 2388.88 2.01276 -3.30189 0
M  V30 25559 H 2390.57 1.77806 -3.64883 0
M  V30 25560 H 2391.34 -0.404826 -4.83308 0
M  V30 25561 H 2387.22 0.786443 -4.54242 0
M  V30 25562 H 2390.76 -1.89812 -6.7128 0
M  V30 25563 H 2386.66 -0.699422 -6.417 0
M  V30 25564 H 2387.42 -2.1561 -7.89591 0
M  V30 25565 N 2390.09 1.56899 0.148518 0
M  V30 25566 C 2391.02 2.01184 1.18521 0
M  V30 25567 C 2392 0.891148 1.44888 0
M  V30 25568 O 2393.18 1.15885 1.55834 0
M  V30 25569 C 2390.31 2.39116 2.51874 0
M  V30 25570 C 2389.27 3.54357 2.40031 0
M  V30 25571 C 2388.59 3.78098 3.78082 0
M  V30 25572 C 2389.89 4.87072 1.88568 0
M  V30 25573 H 2391.59 2.88038 0.816979 0
M  V30 25574 H 2389.13 1.38574 0.39155 0
M  V30 25575 H 2391.09 2.68698 3.24622 0
M  V30 25576 H 2389.81 1.49198 2.9053 0
M  V30 25577 H 2388.47 3.24939 1.69736 0
M  V30 25578 H 2388.12 2.85433 4.1417 0
M  V30 25579 H 2387.82 4.55651 3.7102 0
M  V30 25580 H 2389.34 4.10103 4.5238 0
M  V30 25581 H 2390.76 5.15381 2.51108 0
M  V30 25582 H 2389.15 5.68421 1.924 0
M  V30 25583 H 2390.22 4.77546 0.841276 0
M  V30 25584 N 2391.57 -0.417818 1.51961 0
M  V30 25585 C 2392.81 -1.16261 1.64822 0
M  V30 25586 C 2393.13 -1.91875 0.37992 0
M  V30 25587 O 2394.33 -2.6871 0.388201 0
M  V30 25588 C 2392.79 -2.11545 2.91165 0
M  V30 25589 C 2392.4 -1.41487 4.25071 0
M  V30 25590 C 2394.14 -2.86336 3.13388 0
M  V30 25591 C 2392.05 -2.35369 5.42545 0
M  V30 25592 H 2390.98 -0.437684 0.613962 0
M  V30 25593 H 2393.63 -0.427839 1.78443 0
M  V30 25594 H 2392.01 -2.88538 2.71223 0
M  V30 25595 H 2393.19 -0.699183 4.55465 0
M  V30 25596 H 2391.5 -0.78772 4.08881 0
M  V30 25597 H 2394.1 -3.56703 3.9833 0
M  V30 25598 H 2394.44 -3.48794 2.27263 0
M  V30 25599 H 2394.97 -2.16445 3.33761 0
M  V30 25600 H 2391.71 -1.7757 6.3099 0
M  V30 25601 H 2391.23 -3.04936 5.16502 0
M  V30 25602 H 2392.91 -2.96083 5.75277 0
M  V30 25603 N 2393.04 -1.42436 -0.674508 0
M  V30 25604 C 2393.98 -1.40369 -1.79921 0
M  V30 25605 C 2394.95 -0.267927 -1.60377 0
M  V30 25606 O 2396.14 -0.458191 -1.82847 0
M  V30 25607 C 2393.27 -1.19484 -3.16925 0
M  V30 25608 C 2392.31 -2.36057 -3.55217 0
M  V30 25609 S 2393.14 -3.98589 -3.57613 0
M  V30 25610 C 2394.3 -3.80047 -4.97308 0
M  V30 25611 H 2394.53 -2.35544 -1.81401 0
M  V30 25612 H 2392.07 -1.29212 -0.845199 0
M  V30 25613 H 2394.02 -1.08121 -3.96005 0
M  V30 25614 H 2392.69 -0.258939 -3.13031 0
M  V30 25615 H 2391.88 -2.17193 -4.548 0
M  V30 25616 H 2391.48 -2.43937 -2.83498 0
M  V30 25617 H 2393.77 -3.41055 -5.85395 0
M  V30 25618 H 2394.72 -4.79307 -5.2122 0
M  V30 25619 H 2395.12 -3.12907 -4.6984 0
M  V30 25620 N 2394.52 0.910841 -1.28614 0
M  V30 25621 C 2395.77 1.65699 -1.15708 0
M  V30 25622 C 2396.09 1.92769 0.294126 0
M  V30 25623 O 2395.36 1.5459 1.20328 0
M  V30 25624 H 2393.94 0.614159 -0.425227 0
M  V30 25625 H 2396.6 1.09277 -1.61383 0
M  V30 25626 H 2395.7 2.61812 -1.69885 0
M  V30 25627 N 2396 1.10909 1.11969 0
M  V30 25628 C 2396.95 0.762383 2.17845 0
M  V30 25629 C 2397.92 -0.263571 1.63995 0
M  V30 25630 O 2399.1 -0.141739 1.90273 0
M  V30 25631 C 2396.24 0.205711 3.44486 0
M  V30 25632 C 2395.36 1.28756 4.12366 0
M  V30 25633 C 2394.49 0.692011 5.26673 0
M  V30 25634 C 2393.53 1.75409 5.86428 0
M  V30 25635 N 2392.67 1.17845 6.92139 0
M  V30 25636 H 2397.51 1.66944 2.46848 0
M  V30 25637 H 2395.04 0.833797 1.21187 0
M  V30 25638 H 2397 -0.134963 4.16982 0
M  V30 25639 H 2395.63 -0.664557 3.15885 0
M  V30 25640 H 2394.68 1.74528 3.38 0
M  V30 25641 H 2396 2.09133 4.52841 0
M  V30 25642 H 2395.15 0.30107 6.05953 0
M  V30 25643 H 2393.89 -0.143146 4.8749 0
M  V30 25644 H 2392.89 2.15441 5.05831 0
M  V30 25645 H 2394.12 2.59219 6.2768 0
M  V30 25646 H 2392.06 0.36484 6.54985 0
M  V30 25647 H 2391.98 1.919 7.31239 0
M  V30 25648 H 2393.25 0.814216 7.75236 0
M  V30 25649 N 2397.48 -1.29474 0.898573 0
M  V30 25650 C 2398.39 -2.31502 0.380014 0
M  V30 25651 C 2399.4 -1.65901 -0.524666 0
M  V30 25652 O 2400.58 -1.97088 -0.414517 0
M  V30 25653 C 2397.65 -3.44555 -0.385078 0
M  V30 25654 C 2396.71 -4.25749 0.550989 0
M  V30 25655 C 2395.94 -5.33404 -0.177685 0
M  V30 25656 O 2396.16 -5.52907 -1.40179 0
M  V30 25657 O 2395.1 -5.99989 0.479212 0
M  V30 25658 H 2398.92 -2.77835 1.22644 0
M  V30 25659 H 2396.51 -1.3389 0.662858 0
M  V30 25660 H 2398.39 -4.13389 -0.817769 0
M  V30 25661 H 2397.06 -3.00332 -1.20758 0
M  V30 25662 H 2395.97 -3.59562 1.03277 0
M  V30 25663 H 2397.3 -4.73612 1.33987 0
M  V30 25664 N 2398.96 -0.660936 -1.43071 0
M  V30 25665 C 2399.92 0.0166003 -2.29194 0
M  V30 25666 C 2400.92 0.742887 -1.42611 0
M  V30 25667 O 2402.11 0.582975 -1.64156 0
M  V30 25668 C 2399.24 1.03424 -3.24833 0
M  V30 25669 H 2400.43 -0.741259 -2.90595 0
M  V30 25670 H 2397.99 -0.422558 -1.5048 0
M  V30 25671 H 2398.72 1.82107 -2.68342 0
M  V30 25672 H 2398.51 0.517014 -3.88676 0
M  V30 25673 H 2400 1.50716 -3.89454 0
M  V30 25674 N 2400.43 1.52351 -0.403352 0
M  V30 25675 C 2401.36 2.29761 0.416165 0
M  V30 25676 C 2402.35 1.3373 1.0512 0
M  V30 25677 O 2403.53 1.62634 1.06131 0
M  V30 25678 C 2400.66 3.11478 1.53619 0
M  V30 25679 C 2399.61 4.15509 1.02645 0
M  V30 25680 C 2398.94 4.85535 2.23963 0
M  V30 25681 C 2400.24 5.22232 0.0845382 0
M  V30 25682 H 2401.93 2.98517 -0.229754 0
M  V30 25683 H 2399.48 1.43564 -0.111938 0
M  V30 25684 H 2401.43 3.64397 2.11644 0
M  V30 25685 H 2400.16 2.40481 2.2099 0
M  V30 25686 H 2398.82 3.63592 0.468646 0
M  V30 25687 H 2398.46 4.11073 2.89876 0
M  V30 25688 H 2398.16 5.55859 1.90511 0
M  V30 25689 H 2399.69 5.41264 2.82605 0
M  V30 25690 H 2401.1 5.70425 0.573409 0
M  V30 25691 H 2399.5 5.99884 -0.160889 0
M  V30 25692 H 2400.57 4.77168 -0.862454 0
M  V30 25693 N 2401.91 0.133594 1.57033 0
M  V30 25694 C 2402.84 -0.841906 2.13177 0
M  V30 25695 C 2403.86 -1.22 1.07796 0
M  V30 25696 O 2405.05 -1.1664 1.35119 0
M  V30 25697 C 2402.15 -2.13922 2.62851 0
M  V30 25698 C 2401.32 -1.93057 3.92489 0
M  V30 25699 C 2400.38 -3.06652 4.27611 0
M  V30 25700 O 2399.4 -2.78928 4.96173 0
M  V30 25701 N 2400.61 -4.33476 3.86107 0
M  V30 25702 H 2403.37 -0.36214 2.97504 0
M  V30 25703 H 2400.93 -0.0503915 1.61822 0
M  V30 25704 H 2402.92 -2.88937 2.83368 0
M  V30 25705 H 2401.49 -2.53202 1.83324 0
M  V30 25706 H 2400.71 -1.02152 3.80734 0
M  V30 25707 H 2402 -1.76439 4.77228 0
M  V30 25708 H 2401.4 -4.58872 3.30836 0
M  V30 25709 H 2399.96 -5.05316 4.11703 0
M  V30 25710 N 2403.39 -1.56975 -0.140195 0
M  V30 25711 C 2404.64 -1.82909 -0.85012 0
M  V30 25712 C 2404.95 -0.715924 -1.82027 0
M  V30 25713 O 2406.16 -0.861061 -2.57484 0
M  V30 25714 C 2404.61 -3.24216 -1.56244 0
M  V30 25715 C 2404.22 -4.43486 -0.634352 0
M  V30 25716 C 2405.97 -3.59417 -2.25875 0
M  V30 25717 C 2403.87 -5.75816 -1.34868 0
M  V30 25718 H 2402.8 -0.682159 -0.321209 0
M  V30 25719 H 2405.45 -1.83212 -0.102842 0
M  V30 25720 H 2403.84 -3.18321 -2.35559 0
M  V30 25721 H 2405.01 -4.60633 0.124061 0
M  V30 25722 H 2403.33 -4.16374 -0.0461104 0
M  V30 25723 H 2405.92 -4.55544 -2.7997 0
M  V30 25724 H 2406.27 -2.85807 -3.02688 0
M  V30 25725 H 2406.8 -3.67003 -1.53471 0
M  V30 25726 H 2403.54 -6.5254 -0.62227 0
M  V30 25727 H 2403.06 -5.62593 -2.07964 0
M  V30 25728 H 2404.74 -6.18849 -1.88773 0
M  V30 25729 N 2404.87 0.409753 -1.5218 0
M  V30 25730 C 2405.82 1.49921 -1.75478 0
M  V30 25731 C 2406.79 1.54993 -0.597202 0
M  V30 25732 O 2407.97 1.71574 -0.834685 0
M  V30 25733 C 2405.11 2.87375 -1.91076 0
M  V30 25734 C 2404.22 2.91617 -3.18722 0
M  V30 25735 C 2403.36 4.20366 -3.24755 0
M  V30 25736 C 2402.4 4.18581 -4.46606 0
M  V30 25737 N 2401.53 5.389 -4.50034 0
M  V30 25738 H 2406.37 1.29356 -2.6846 0
M  V30 25739 H 2403.91 0.627911 -1.33025 0
M  V30 25740 H 2405.87 3.67167 -1.98102 0
M  V30 25741 H 2404.5 3.06436 -1.01474 0
M  V30 25742 H 2403.55 2.0432 -3.2087 0
M  V30 25743 H 2404.86 2.86162 -4.08549 0
M  V30 25744 H 2404.02 5.0855 -3.3085 0
M  V30 25745 H 2402.76 4.28515 -2.32865 0
M  V30 25746 H 2401.76 3.28787 -4.40658 0
M  V30 25747 H 2402.99 4.12072 -5.3979 0
M  V30 25748 H 2400.93 5.47718 -3.61027 0
M  V30 25749 H 2400.85 5.35438 -5.33706 0
M  V30 25750 H 2402.12 6.2904 -4.60358 0
M  V30 25751 N 2406.35 1.42792 0.666944 0
M  V30 25752 C 2407.58 1.4688 1.45292 0
M  V30 25753 C 2407.98 0.0810194 1.89026 0
M  V30 25754 O 2407.33 -0.916218 1.5922 0
M  V30 25755 C 2407.39 2.34017 2.72904 0
M  V30 25756 C 2407.05 3.81772 2.51196 0
M  V30 25757 C 2408.05 4.73228 2.15294 0
M  V30 25758 C 2405.74 4.26119 2.65947 0
M  V30 25759 C 2407.73 6.07025 1.94421 0
M  V30 25760 C 2405.42 5.59974 2.44689 0
M  V30 25761 C 2406.41 6.50243 2.0898 0
M  V30 25762 O 2406.1 7.81624 1.87934 0
M  V30 25763 H 2405.83 0.501495 0.453297 0
M  V30 25764 H 2408.39 1.88051 0.826199 0
M  V30 25765 H 2406.62 1.87709 3.38086 0
M  V30 25766 H 2408.31 2.29468 3.34812 0
M  V30 25767 H 2409.07 4.40248 2.03487 0
M  V30 25768 H 2404.95 3.56142 2.92718 0
M  V30 25769 H 2408.5 6.77446 1.66473 0
M  V30 25770 H 2404.39 5.92525 2.56095 0
M  V30 25771 H 2405.16 7.93063 2.02469 0
M  V30 25772 N 2407.82 -0.904008 1.29095 0
M  V30 25773 C 2408.77 -2.02899 1.13731 0
M  V30 25774 C 2409.77 -1.69314 0.054015 0
M  V30 25775 O 2410.97 -1.78729 0.213501 0
M  V30 25776 H 2407.35 -0.664963 0.351182 0
M  V30 25777 H 2409.32 -2.12997 2.08985 0
M  V30 25778 C 2408.07 -3.37743 0.826126 0
M  V30 25779 H 2407.39 -3.64086 1.6517 0
M  V30 25780 H 2408.83 -4.17158 0.758633 0
M  V30 25781 C 2407.29 -3.33599 -0.470483 0
M  V30 25782 O 2407.82 -3.7273 -1.49785 0
M  V30 25783 N 2406.03 -2.86696 -0.474762 0
M  V30 25784 H 2405.57 -2.55047 0.361737 0
M  V30 25785 H 2405.53 -2.84305 -1.34231 0
M  V30 25786 N 2409.3 -1.11501 -1.11379 0
M  V30 25787 C 2410.55 -0.864264 -1.8313 0
M  V30 25788 C 2410.88 0.610082 -1.84684 0
M  V30 25789 O 2410.13 1.46644 -1.29592 0
M  V30 25790 C 2410.43 -1.37183 -3.30023 0
M  V30 25791 C 2410.1 -2.85952 -3.48629 0
M  V30 25792 C 2408.76 -3.26575 -3.53415 0
M  V30 25793 C 2411.11 -3.81765 -3.54831 0
M  V30 25794 C 2408.44 -4.61739 -3.61959 0
M  V30 25795 C 2410.79 -5.16746 -3.64906 0
M  V30 25796 C 2409.46 -5.56927 -3.67952 0
M  V30 25797 H 2408.73 -0.316256 -0.670122 0
M  V30 25798 H 2411.37 -1.39353 -1.31351 0
M  V30 25799 H 2409.68 -0.76282 -3.84302 0
M  V30 25800 H 2411.37 -1.15415 -3.84032 0
M  V30 25801 H 2407.96 -2.53527 -3.45575 0
M  V30 25802 H 2412.15 -3.51481 -3.50393 0
M  V30 25803 H 2407.4 -4.92276 -3.62594 0
M  V30 25804 H 2411.58 -5.90823 -3.68648 0
M  V30 25805 H 2409.21 -6.61653 -3.74325 0
M  V30 25806 N 2410.78 1.28995 -0.905426 0
M  V30 25807 C 2412.01 1.99996 -0.54921 0
M  V30 25808 C 2412.43 1.67276 0.860247 0
M  V30 25809 O 2411.79 0.90053 1.57354 0
M  V30 25810 C 2411.84 3.52602 -0.755247 0
M  V30 25811 O 2410.94 4.11964 0.18962 0
M  V30 25812 H 2410.28 0.6286 -0.21391 0
M  V30 25813 H 2412.81 1.64352 -1.21858 0
M  V30 25814 H 2412.82 4.02592 -0.662116 0
M  V30 25815 H 2411.5 3.75752 -1.78278 0
M  V30 25816 H 2410.07 3.72869 0.0484602 0
M  V30 25817 N 2412.26 0.668514 1.42719 0
M  V30 25818 C 2413.51 0.188176 2.01624 0
M  V30 25819 C 2413.83 -1.20315 1.52822 0
M  V30 25820 O 2413.09 -1.82039 0.718355 0
M  V30 25821 C 2413.39 0.164562 3.57021 0
M  V30 25822 C 2413.05 1.4997 4.25229 0
M  V30 25823 C 2411.72 1.86528 4.43577 0
M  V30 25824 C 2414.07 2.37929 4.63723 0
M  V30 25825 C 2411.4 3.10682 4.97688 0
M  V30 25826 C 2413.75 3.6139 5.19211 0
M  V30 25827 C 2412.41 3.98125 5.35773 0
M  V30 25828 H 2411.68 0.0688583 0.737794 0
M  V30 25829 H 2414.33 0.862255 1.7099 0
M  V30 25830 H 2412.63 -0.593011 3.87286 0
M  V30 25831 H 2414.33 -0.224201 4.00373 0
M  V30 25832 H 2410.92 1.20529 4.11304 0
M  V30 25833 H 2415.11 2.10972 4.49227 0
M  V30 25834 H 2410.36 3.39173 5.08696 0
M  V30 25835 H 2414.54 4.29753 5.47983 0
M  V30 25836 H 2412.16 4.94405 5.77467 0
M  V30 25837 N 2413.74 -1.52135 0.411426 0
M  V30 25838 C 2415.15 -1.59478 0.0624145 0
M  V30 25839 C 2415.35 -1.42413 -1.42551 0
M  V30 25840 O 2414.41 -1.25224 -2.19261 0
M  V30 25841 C 2415.72 -2.95451 0.559383 0
M  V30 25842 C 2417.27 -3.08691 0.517558 0
M  V30 25843 C 2417.75 -4.47148 0.991073 0
M  V30 25844 N 2419.24 -4.53395 0.947987 0
M  V30 25845 C 2419.97 -5.58804 1.28553 0
M  V30 25846 N 2419.47 -6.71754 1.69465 0
M  V30 25847 N 2421.26 -5.49024 1.20536 0
M  V30 25848 H 2413.41 -1.61475 1.37985 0
M  V30 25849 H 2415.67 -0.759754 0.56699 0
M  V30 25850 H 2415.38 -3.13227 1.59944 0
M  V30 25851 H 2415.25 -3.77188 -0.0297351 0
M  V30 25852 H 2417.64 -2.90599 -0.513454 0
M  V30 25853 H 2417.72 -2.28855 1.14276 0
M  V30 25854 H 2417.37 -4.65984 2.02042 0
M  V30 25855 H 2417.3 -5.25484 0.342663 0
M  V30 25856 H 2419.79 -3.72316 0.647223 0
M  V30 25857 H 2420.1 -7.48176 1.93527 0
M  V30 25858 H 2418.45 -6.73029 1.73371 0
M  V30 25859 H 2421.64 -4.59666 0.884585 0
M  V30 25860 H 2421.81 -6.31066 1.47172 0
M  V30 25861 N 2415.22 -0.14192 -1.5696 0
M  V30 25862 C 2416.45 0.516793 -2.00032 0
M  V30 25863 C 2416.85 1.59291 -1.02094 0
M  V30 25864 O 2416.2 1.83698 -0.00912886 0
M  V30 25865 C 2416.26 1.18134 -3.39536 0
M  V30 25866 C 2415.92 0.250433 -4.56313 0
M  V30 25867 C 2416.92 -0.51993 -5.17294 0
M  V30 25868 C 2414.6 0.154819 -5.02061 0
M  V30 25869 C 2416.6 -1.37341 -6.22428 0
M  V30 25870 C 2414.29 -0.702268 -6.07051 0
M  V30 25871 C 2415.28 -1.46499 -6.67103 0
M  V30 25872 O 2414.97 -2.30781 -7.70062 0
M  V30 25873 H 2414.7 0.139482 -0.661454 0
M  V30 25874 H 2417.26 -0.231962 -2.04086 0
M  V30 25875 H 2415.49 1.97763 -3.32305 0
M  V30 25876 H 2417.18 1.73926 -3.66748 0
M  V30 25877 H 2417.94 -0.456065 -4.82851 0
M  V30 25878 H 2413.82 0.73822 -4.55051 0
M  V30 25879 H 2417.37 -1.96921 -6.69229 0
M  V30 25880 H 2413.26 -0.767443 -6.40922 0
M  V30 25881 H 2414.03 -2.23973 -7.8726 0
M  V30 25882 N 2416.69 1.57047 0.131868 0
M  V30 25883 C 2417.94 1.83358 0.840408 0
M  V30 25884 C 2418.26 0.725567 1.81645 0
M  V30 25885 O 2419.46 0.874704 2.57024 0
M  V30 25886 C 2417.92 3.2504 1.54522 0
M  V30 25887 C 2417.53 4.43816 0.610823 0
M  V30 25888 C 2419.27 3.6061 2.23965 0
M  V30 25889 C 2417.18 5.76523 1.31813 0
M  V30 25890 H 2416.11 0.683853 0.317587 0
M  V30 25891 H 2418.76 1.83264 0.0931239 0
M  V30 25892 H 2417.14 3.19565 2.33867 0
M  V30 25893 H 2418.31 4.60561 -0.148488 0
M  V30 25894 H 2416.63 4.16393 0.0240284 0
M  V30 25895 H 2419.23 4.57023 2.7755 0
M  V30 25896 H 2419.57 2.87409 3.01168 0
M  V30 25897 H 2420.1 3.67812 1.51522 0
M  V30 25898 H 2416.84 6.52861 0.587656 0
M  V30 25899 H 2416.36 5.63688 2.04977 0
M  V30 25900 H 2418.04 6.19841 1.85489 0
M  V30 25901 N 2418.17 -0.401677 1.52395 0
M  V30 25902 C 2419.4 -1.16777 1.70431 0
M  V30 25903 C 2419.81 -1.84553 0.416734 0
M  V30 25904 O 2419.15 -1.73005 -0.617666 0
M  V30 25905 C 2419.21 -2.26809 2.78923 0
M  V30 25906 C 2418.88 -1.79106 4.2044 0
M  V30 25907 C 2419.88 -1.27474 5.0403 0
M  V30 25908 C 2417.56 -1.85713 4.66707 0
M  V30 25909 C 2419.55 -0.830802 6.31962 0
M  V30 25910 C 2417.24 -1.40932 5.94627 0
M  V30 25911 C 2418.24 -0.897009 6.77084 0
M  V30 25912 O 2417.93 -0.455681 8.02607 0
M  V30 25913 H 2417.66 -0.356624 0.574278 0
M  V30 25914 H 2420.21 -0.477689 1.99768 0
M  V30 25915 H 2418.44 -2.99203 2.44979 0
M  V30 25916 H 2420.13 -2.88536 2.85485 0
M  V30 25917 H 2420.9 -1.21735 4.69474 0
M  V30 25918 H 2416.78 -2.24532 4.02624 0
M  V30 25919 H 2420.32 -0.430245 6.96272 0
M  V30 25920 H 2416.22 -1.46351 6.2869 0
M  V30 25921 H 2416.99 -0.578314 8.16454 0
M  V30 25922 N 2419.65 -1.43144 -0.659362 0
M  V30 25923 C 2421.06 -1.39539 -1.24039 0
M  V30 25924 C 2421.41 -0.0963708 -1.95963 0
M  V30 25925 O 2420.54 0.804403 -2.00894 0
M  V30 25926 C 2421.13 -2.52768 -2.25596 0
M  V30 25927 C 2419.69 -2.52448 -2.7919 0
M  V30 25928 C 2418.84 -2.30781 -1.53739 0
M  V30 25929 H 2421.79 -1.52134 -0.451765 0
M  V30 25930 H 2421.81 -2.23905 -3.07647 0
M  V30 25931 H 2421.32 -3.47299 -1.7322 0
M  V30 25932 H 2419.42 -1.61779 -3.35646 0
M  V30 25933 H 2419.54 -3.5001 -3.27154 0
M  V30 25934 H 2417.9 -1.79331 -1.80866 0
M  V30 25935 H 2418.68 -3.27388 -1.03306 0
M  V30 25936 N 2421.13 0.897149 -1.29572 0
M  V30 25937 C 2422.06 2.01796 -1.17476 0
M  V30 25938 C 2423.04 1.69963 -0.0683529 0
M  V30 25939 O 2424.22 1.92606 -0.248273 0
M  V30 25940 C 2421.35 3.36658 -0.853158 0
M  V30 25941 C 2420.31 3.8271 -1.91617 0
M  V30 25942 C 2419.63 5.14726 -1.44782 0
M  V30 25943 C 2420.93 4.02757 -3.32542 0
M  V30 25944 H 2422.63 2.12174 -2.11241 0
M  V30 25945 H 2420.17 1.01946 -1.01701 0
M  V30 25946 H 2422.13 4.14577 -0.755238 0
M  V30 25947 H 2420.85 3.26379 0.120179 0
M  V30 25948 H 2419.51 3.07009 -2.00352 0
M  V30 25949 H 2419.16 5.00864 -0.463083 0
M  V30 25950 H 2418.86 5.46509 -2.15875 0
M  V30 25951 H 2420.38 5.95183 -1.36345 0
M  V30 25952 H 2421.8 4.71151 -3.26634 0
M  V30 25953 H 2420.19 4.45898 -4.01615 0
M  V30 25954 H 2421.26 3.07009 -3.75331 0
M  V30 25955 N 2422.61 1.1209 1.10786 0
M  V30 25956 C 2423.88 0.785508 1.79134 0
M  V30 25957 C 2424.26 -0.725342 1.98247 0
M  V30 25958 O 2423.61 -1.65775 1.57261 0
M  V30 25959 C 2423.82 1.55641 3.12373 0
M  V30 25960 C 2425.17 1.74007 3.87307 0
M  V30 25961 O 2426.19 1.52123 3.22082 0
M  V30 25962 O 2425.05 2.10424 5.04365 0
M  V30 25963 H 2422.15 0.285325 0.776221 0
M  V30 25964 H 2424.69 1.22472 1.17468 0
M  V30 25965 H 2423.46 2.58385 2.93859 0
M  V30 25966 H 2423.09 1.11121 3.81756 0
M  V30 25967 N 2424.08 -1.28513 0.912254 0
M  V30 25968 C 2425.31 -1.99702 0.559809 0
M  V30 25969 C 2425.73 -1.6773 -0.851364 0
M  V30 25970 O 2425.09 -0.908862 -1.56874 0
M  V30 25971 C 2425.14 -3.52197 0.773936 0
M  V30 25972 O 2424.24 -4.12059 -0.16777 0
M  V30 25973 H 2423.58 -0.627457 0.217241 0
M  V30 25974 H 2426.11 -1.63704 1.22728 0
M  V30 25975 H 2426.12 -4.02235 0.683457 0
M  V30 25976 H 2424.8 -3.74802 1.80268 0
M  V30 25977 H 2423.38 -3.72889 -0.0286853 0
M  V30 25978 N 2425.56 -0.676073 -1.42362 0
M  V30 25979 C 2426.49 -0.0125243 -2.33497 0
M  V30 25980 C 2427.47 0.787954 -1.50749 0
M  V30 25981 O 2428.66 0.744852 -1.79348 0
M  V30 25982 C 2425.79 0.938523 -3.34379 0
M  V30 25983 C 2424.74 0.246547 -4.27289 0
M  V30 25984 C 2424.07 1.31062 -5.18389 0
M  V30 25985 C 2425.37 -0.875215 -5.14915 0
M  V30 25986 H 2427.06 -0.773644 -2.89232 0
M  V30 25987 H 2424.61 -0.373484 -1.39072 0
M  V30 25988 H 2426.56 1.41181 -3.97046 0
M  V30 25989 H 2425.29 1.73108 -2.7695 0
M  V30 25990 H 2423.94 -0.20652 -3.66018 0
M  V30 25991 H 2423.59 2.0952 -4.57286 0
M  V30 25992 H 2423.29 0.852737 -5.8138 0
M  V30 25993 H 2424.82 1.78481 -5.83932 0
M  V30 25994 H 2426.23 -0.483084 -5.71261 0
M  V30 25995 H 2424.63 -1.25897 -5.86745 0
M  V30 25996 H 2425.7 -1.72343 -4.53239 0
M  V30 25997 N 2427.04 1.51915 -0.419488 0
M  V30 25998 C 2428.27 2.0634 0.1521 0
M  V30 25999 C 2428.68 1.28861 1.37986 0
M  V30 26000 O 2428.04 0.343263 1.79243 0
M  V30 26001 C 2428.09 3.58134 0.492203 0
M  V30 26002 O 2427.81 4.32683 -0.686812 0
M  V30 26003 C 2429.31 4.29012 1.1164 0
M  V30 26004 H 2426.53 0.670813 0.0158207 0
M  V30 26005 H 2429.08 1.957 -0.593428 0
M  V30 26006 H 2427.23 3.68747 1.18762 0
M  V30 26007 H 2427.65 5.22969 -0.400433 0
M  V30 26008 H 2429.12 5.36364 1.3045 0
M  V30 26009 H 2429.6 3.86152 2.09244 0
M  V30 26010 H 2430.2 4.22795 0.460884 0
M  V30 26011 N 2428.52 0.150242 1.56882 0
M  V30 26012 C 2429.76 -0.494393 1.973 0
M  V30 26013 C 2430.12 -1.62264 1.03383 0
M  V30 26014 O 2429.41 -1.91474 0.0694833 0
M  V30 26015 C 2429.61 -1.04431 3.41802 0
M  V30 26016 C 2429.44 0.0291242 4.49691 0
M  V30 26017 C 2428.21 0.471649 5.03094 0
M  V30 26018 C 2430.4 0.821792 5.07692 0
M  V30 26019 N 2428.39 1.52759 5.9459 0
M  V30 26020 C 2429.76 1.72816 5.95428 0
M  V30 26021 C 2431.81 0.86922 4.90254 0
M  V30 26022 C 2430.51 2.67789 6.67594 0
M  V30 26023 C 2432.54 1.8068 5.63124 0
M  V30 26024 C 2431.9 2.70068 6.50571 0
M  V30 26025 H 2428 -0.149625 0.767552 0
M  V30 26026 H 2430.59 0.245594 1.93145 0
M  V30 26027 H 2428.76 -1.7539 3.46544 0
M  V30 26028 H 2430.49 -1.65583 3.69275 0
M  V30 26029 H 2427.24 0.0732933 4.73543 0
M  V30 26030 H 2427.67 2.05542 6.45044 0
M  V30 26031 H 2432.31 0.192208 4.22363 0
M  V30 26032 H 2430.03 3.36489 7.34712 0
M  V30 26033 H 2433.61 1.84934 5.51626 0
M  V30 26034 H 2432.49 3.41436 7.05968 0
M  V30 26035 N 2430 -1.57115 -0.123538 0
M  V30 26036 C 2431.25 -1.83801 -0.830672 0
M  V30 26037 C 2431.56 -0.73519 -1.81258 0
M  V30 26038 O 2432.76 -0.888323 -2.56556 0
M  V30 26039 C 2431.22 -3.25855 -1.52796 0
M  V30 26040 C 2430.83 -4.44134 -0.587278 0
M  V30 26041 C 2432.57 -3.61793 -2.2205 0
M  V30 26042 C 2430.48 -5.77214 -1.28754 0
M  V30 26043 H 2429.41 -0.685528 -0.313955 0
M  V30 26044 H 2432.06 -1.8331 -0.0834037 0
M  V30 26045 H 2430.44 -3.20801 -2.32169 0
M  V30 26046 H 2431.62 -4.60475 0.17291 0
M  V30 26047 H 2429.93 -4.164 -0.00194572 0
M  V30 26048 H 2432.53 -4.58488 -2.75123 0
M  V30 26049 H 2432.87 -2.89002 -2.99639 0
M  V30 26050 H 2433.4 -3.68611 -1.4957 0
M  V30 26051 H 2430.14 -6.53163 -0.553025 0
M  V30 26052 H 2429.66 -5.64767 -2.01985 0
M  V30 26053 H 2431.34 -6.20816 -1.82199 0
M  V30 26054 N 2431.47 0.393589 -1.52606 0
M  V30 26055 C 2432.38 1.50489 -1.79973 0
M  V30 26056 C 2433.4 1.59897 -0.686209 0
M  V30 26057 O 2434.58 1.7632 -0.973305 0
M  V30 26058 C 2431.64 2.86068 -1.95872 0
M  V30 26059 C 2430.7 2.86419 -3.19786 0
M  V30 26060 C 2429.94 4.15532 -3.34916 0
M  V30 26061 O 2430.16 5.10248 -2.54957 0
M  V30 26062 O 2429.09 4.23052 -4.28148 0
M  V30 26063 H 2432.92 1.30294 -2.7433 0
M  V30 26064 H 2430.5 0.58098 -1.37641 0
M  V30 26065 H 2432.39 3.66453 -2.08062 0
M  V30 26066 H 2431.06 3.06298 -1.04704 0
M  V30 26067 H 2429.97 2.04831 -3.13041 0
M  V30 26068 H 2431.3 2.7114 -4.10784 0
M  V30 26069 N 2432.95 1.43492 0.651762 0
M  V30 26070 C 2434.18 1.48413 1.43726 0
M  V30 26071 C 2434.59 0.101064 1.8893 0
M  V30 26072 O 2433.93 -0.899279 1.60183 0
M  V30 26073 C 2434 2.36898 2.70406 0
M  V30 26074 C 2433.66 3.84414 2.47133 0
M  V30 26075 C 2434.66 4.75485 2.10263 0
M  V30 26076 C 2432.34 4.28916 2.61412 0
M  V30 26077 C 2434.34 6.09053 1.87972 0
M  V30 26078 C 2432.02 5.62537 2.38736 0
M  V30 26079 C 2433.02 6.52423 2.02072 0
M  V30 26080 O 2432.71 7.83573 1.79633 0
M  V30 26081 H 2432.44 0.506275 0.447953 0
M  V30 26082 H 2434.99 1.88917 0.806207 0
M  V30 26083 H 2433.22 1.91284 3.36076 0
M  V30 26084 H 2434.91 2.33006 3.3236 0
M  V30 26085 H 2435.68 4.42381 1.98806 0
M  V30 26086 H 2431.56 3.59227 2.88924 0
M  V30 26087 H 2435.1 6.79173 1.59278 0
M  V30 26088 H 2431 5.95208 2.49796 0
M  V30 26089 H 2431.77 7.95166 1.94046 0
M  V30 26090 N 2434.43 -0.890264 1.30046 0
M  V30 26091 C 2435.68 -1.64413 1.1975 0
M  V30 26092 C 2436.03 -1.90814 -0.246558 0
M  V30 26093 O 2435.32 -1.51421 -1.17398 0
M  V30 26094 C 2435.52 -2.99246 1.95415 0
M  V30 26095 C 2435.35 -2.86007 3.4703 0
M  V30 26096 C 2434.12 -2.86272 4.16385 0
M  V30 26097 C 2436.32 -2.62343 4.42358 0
M  V30 26098 N 2434.3 -2.63869 5.54298 0
M  V30 26099 C 2435.67 -2.49012 5.67797 0
M  V30 26100 C 2437.72 -2.47525 4.32013 0
M  V30 26101 C 2436.43 -2.22371 6.84064 0
M  V30 26102 C 2438.45 -2.22269 5.48042 0
M  V30 26103 C 2437.81 -2.0971 6.72459 0
M  V30 26104 H 2433.91 -0.606832 0.493234 0
M  V30 26105 H 2436.5 -1.04951 1.63992 0
M  V30 26106 H 2434.67 -3.5675 1.53571 0
M  V30 26107 H 2436.4 -3.63793 1.77304 0
M  V30 26108 H 2433.16 -2.97906 3.6817 0
M  V30 26109 H 2433.58 -2.55695 6.26857 0
M  V30 26110 H 2438.22 -2.55973 3.36508 0
M  V30 26111 H 2435.94 -2.12661 7.79616 0
M  V30 26112 H 2439.53 -2.11634 5.41943 0
M  V30 26113 H 2438.41 -1.9044 7.60725 0
M  V30 26114 N 2435.91 -1.12676 -1.1019 0
M  V30 26115 C 2437.32 -0.897633 -1.63705 0
M  V30 26116 C 2437.67 0.567513 -1.87813 0
M  V30 26117 O 2436.8 1.43251 -1.62198 0
M  V30 26118 C 2437.39 -1.62297 -2.97397 0
M  V30 26119 C 2435.95 -1.43992 -3.47769 0
M  V30 26120 C 2435.1 -1.65726 -2.22329 0
M  V30 26121 H 2438.05 -1.28118 -0.936565 0
M  V30 26122 H 2438.07 -1.07548 -3.64985 0
M  V30 26123 H 2437.58 -2.68929 -2.79819 0
M  V30 26124 H 2435.68 -0.396271 -3.70487 0
M  V30 26125 H 2435.79 -2.19773 -4.25719 0
M  V30 26126 H 2434.16 -1.08154 -2.30597 0
M  V30 26127 H 2434.94 -2.7366 -2.0728 0
M  V30 26128 N 2437.39 1.28028 -0.919057 0
M  V30 26129 C 2438.8 1.47149 -0.617998 0
M  V30 26130 C 2439 1.83375 0.83521 0
M  V30 26131 O 2438.06 1.94194 1.61385 0
M  V30 26132 C 2439.37 2.57042 -1.56045 0
M  V30 26133 C 2440.92 2.70907 -1.56774 0
M  V30 26134 C 2441.39 3.83948 -2.49695 0
M  V30 26135 N 2442.89 3.9131 -2.47852 0
M  V30 26136 C 2443.62 4.78174 -3.16445 0
M  V30 26137 N 2443.12 5.69589 -3.94386 0
M  V30 26138 N 2444.91 4.71829 -3.05506 0
M  V30 26139 H 2437.06 1.02795 -1.85868 0
M  V30 26140 H 2439.32 0.512517 -0.797515 0
M  V30 26141 H 2439.03 2.37195 -2.59675 0
M  V30 26142 H 2438.9 3.54252 -1.29557 0
M  V30 26143 H 2441.29 2.9014 -0.538796 0
M  V30 26144 H 2441.37 1.74211 -1.87308 0
M  V30 26145 H 2441.02 3.65471 -3.52695 0
M  V30 26146 H 2440.95 4.80054 -2.16461 0
M  V30 26147 H 2443.44 3.25938 -1.9124 0
M  V30 26148 H 2443.75 6.3271 -4.43732 0
M  V30 26149 H 2442.09 5.69412 -3.98491 0
M  V30 26150 H 2445.29 3.99406 -2.44115 0
M  V30 26151 H 2445.46 5.39309 -3.59234 0
M  V30 26152 N 2438.86 0.683613 1.42002 0
M  V30 26153 C 2440.14 0.13811 1.95112 0
M  V30 26154 C 2440.52 -1.34915 1.62361 0
M  V30 26155 O 2439.87 -2.08969 0.924348 0
M  V30 26156 C 2440.08 0.416642 3.46504 0
M  V30 26157 C 2441.43 0.337908 4.23253 0
M  V30 26158 O 2442.45 0.350882 3.54468 0
M  V30 26159 O 2441.31 0.287692 5.45742 0
M  V30 26160 H 2438.4 0.0079945 0.826961 0
M  V30 26161 H 2440.95 0.758951 1.51783 0
M  V30 26162 H 2439.72 1.44657 3.6358 0
M  V30 26163 H 2439.35 -0.23577 3.969 0
M  V30 26164 N 2440.34 -1.5169 0.427538 0
M  V30 26165 C 2441.57 -2.06418 -0.141155 0
M  V30 26166 C 2441.99 -1.29591 -1.37301 0
M  V30 26167 O 2441.34 -0.352764 -1.79058 0
M  V30 26168 C 2441.39 -3.5839 -0.473203 0
M  V30 26169 O 2441.12 -4.32313 0.709749 0
M  V30 26170 C 2442.62 -4.29598 -1.09363 0
M  V30 26171 H 2439.84 -0.670888 -0.012263 0
M  V30 26172 H 2442.38 -1.95383 0.603798 0
M  V30 26173 H 2440.54 -3.69371 -1.16805 0
M  V30 26174 H 2440.95 -5.22749 0.428162 0
M  V30 26175 H 2442.42 -5.37049 -1.27604 0
M  V30 26176 H 2442.9 -3.87256 -2.07193 0
M  V30 26177 H 2443.51 -4.23034 -0.438455 0
M  V30 26178 N 2441.82 -0.15856 -1.568 0
M  V30 26179 C 2443.05 0.496268 -2.0086 0
M  V30 26180 C 2443.46 1.57657 -1.03873 0
M  V30 26181 O 2442.82 1.82461 -0.0375485 0
M  V30 26182 C 2442.87 1.08632 -3.44792 0
M  V30 26183 O 2442.59 0.0491552 -4.38072 0
M  V30 26184 C 2444.09 1.82063 -4.04188 0
M  V30 26185 H 2441.31 0.128187 -0.658642 0
M  V30 26186 H 2443.86 -0.256542 -2.02884 0
M  V30 26187 H 2442.01 1.78969 -3.43582 0
M  V30 26188 H 2442.43 0.48301 -5.22271 0
M  V30 26189 H 2443.9 2.18624 -5.0686 0
M  V30 26190 H 2444.38 2.71089 -3.45554 0
M  V30 26191 H 2444.98 1.16397 -4.09062 0
M  V30 26192 N 2443.3 1.57178 0.115204 0
M  V30 26193 C 2444.54 1.86871 0.828166 0
M  V30 26194 C 2444.9 0.747033 1.76871 0
M  V30 26195 O 2446.1 0.92583 2.52353 0
M  V30 26196 C 2444.38 3.21794 1.55509 0
M  V30 26197 S 2445.93 3.73129 2.30911 0
M  V30 26198 H 2442.75 0.655106 0.276329 0
M  V30 26199 H 2445.35 1.95309 0.0863126 0
M  V30 26200 H 2444.06 4.0137 0.856178 0
M  V30 26201 H 2443.59 3.16443 2.33725 0
M  V30 26202 H 2445.6 3.44935 3.56699 0
M  V30 26203 N 2444.78 -0.38549 1.52813 0
M  V30 26204 C 2446 -1.1558 1.72209 0
M  V30 26205 C 2446.43 -1.82856 0.441066 0
M  V30 26206 O 2445.79 -1.70963 -0.603435 0
M  V30 26207 C 2445.83 -2.17687 2.8748 0
M  V30 26208 O 2444.94 -3.24349 2.54699 0
M  V30 26209 H 2444.28 -0.336309 0.572532 0
M  V30 26210 H 2446.81 -0.448709 1.99619 0
M  V30 26211 H 2446.82 -2.61624 3.13076 0
M  V30 26212 H 2445.49 -1.68108 3.80411 0
M  V30 26213 H 2444.07 -2.85524 2.39855 0
M  V30 26214 N 2446.26 -1.43835 -0.644143 0
M  V30 26215 C 2447.48 -1.49607 -1.4364 0
M  V30 26216 C 2447.91 -0.117946 -1.8773 0
M  V30 26217 O 2447.26 0.890211 -1.5794 0
M  V30 26218 C 2447.31 -2.45468 -2.64155 0
M  V30 26219 O 2446.42 -1.94721 -3.63535 0
M  V30 26220 H 2445.76 -0.505688 -0.43032 0
M  V30 26221 H 2448.29 -1.88841 -0.787415 0
M  V30 26222 H 2448.3 -2.63073 -3.1186 0
M  V30 26223 H 2446.97 -3.45576 -2.31408 0
M  V30 26224 H 2445.55 -1.8682 -3.22727 0
M  V30 26225 N 2447.73 0.883355 -1.30517 0
M  V30 26226 C 2448.97 1.64944 -1.20718 0
M  V30 26227 C 2449.34 1.90568 0.234038 0
M  V30 26228 O 2450.54 2.64916 0.455289 0
M  V30 26229 C 2448.81 2.95217 -2.01449 0
M  V30 26230 S 2450.37 3.86172 -2.08367 0
M  V30 26231 H 2447.19 0.566101 -0.430175 0
M  V30 26232 H 2449.79 1.04838 -1.65013 0
M  V30 26233 H 2448.49 2.74293 -3.05273 0
M  V30 26234 H 2448.02 3.60355 -1.57823 0
M  V30 26235 H 2450.04 4.81165 -1.21223 0
M  V30 26236 N 2449.21 1.13259 1.09591 0
M  V30 26237 C 2450.14 0.766205 2.16014 0
M  V30 26238 C 2451.16 -0.211274 1.61423 0
M  V30 26239 O 2452.35 0.00867083 1.78498 0
M  V30 26240 C 2449.45 0.114722 3.38706 0
M  V30 26241 C 2448.62 1.12387 4.22715 0
M  V30 26242 C 2447.68 0.498393 5.23834 0
M  V30 26243 O 2446.7 1.15791 5.57298 0
M  V30 26244 N 2447.91 -0.730316 5.75888 0
M  V30 26245 H 2450.67 1.68197 2.48052 0
M  V30 26246 H 2448.23 1.02537 1.25291 0
M  V30 26247 H 2450.22 -0.31592 4.03465 0
M  V30 26248 H 2448.79 -0.703957 3.04571 0
M  V30 26249 H 2448.01 1.73186 3.54119 0
M  V30 26250 H 2449.3 1.80597 4.7567 0
M  V30 26251 H 2448.7 -1.28494 5.50913 0
M  V30 26252 H 2447.26 -1.10365 6.42388 0
M  V30 26253 N 2450.69 -1.27539 0.925834 0
M  V30 26254 C 2451.65 -2.25165 0.428168 0
M  V30 26255 C 2452.65 -1.5431 -0.452234 0
M  V30 26256 O 2453.84 -1.72344 -0.253578 0
M  V30 26257 C 2450.97 -3.38723 -0.384689 0
M  V30 26258 H 2452.17 -2.70704 1.29071 0
M  V30 26259 H 2449.72 -1.39429 0.706347 0
M  V30 26260 H 2450.46 -2.98563 -1.26613 0
M  V30 26261 H 2450.24 -3.91324 0.246523 0
M  V30 26262 H 2451.73 -4.11288 -0.723317 0
M  V30 26263 N 2452.17 -0.691135 -1.41637 0
M  V30 26264 C 2453.41 -0.220228 -2.01299 0
M  V30 26265 C 2453.74 1.17868 -1.54717 0
M  V30 26266 O 2453 1.80873 -0.747225 0
M  V30 26267 C 2453.3 -0.22134 -3.56714 0
M  V30 26268 C 2452.96 -1.56716 -4.22789 0
M  V30 26269 C 2451.62 -1.93561 -4.40554 0
M  V30 26270 C 2453.98 -2.45277 -4.59879 0
M  V30 26271 C 2451.3 -3.18561 -4.92682 0
M  V30 26272 C 2453.66 -3.69604 -5.13396 0
M  V30 26273 C 2452.32 -4.06598 -5.29372 0
M  V30 26274 H 2451.59 -0.0805873 -0.736605 0
M  V30 26275 H 2454.24 -0.889349 -1.69596 0
M  V30 26276 H 2452.54 0.531322 -3.88181 0
M  V30 26277 H 2454.24 0.160476 -4.00679 0
M  V30 26278 H 2450.83 -1.27057 -4.09334 0
M  V30 26279 H 2455.01 -2.18092 -4.45813 0
M  V30 26280 H 2450.27 -3.47223 -5.03236 0
M  V30 26281 H 2454.44 -4.38417 -5.41077 0
M  V30 26282 H 2452.07 -5.03529 -5.69528 0
M  V30 26283 N 2453.65 1.51461 -0.435577 0
M  V30 26284 C 2454.58 2.30592 0.367336 0
M  V30 26285 C 2455.56 1.3593 1.0226 0
M  V30 26286 O 2456.74 1.64848 1.02658 0
M  V30 26287 C 2453.87 3.14667 1.46977 0
M  V30 26288 C 2452.83 4.17593 0.938088 0
M  V30 26289 C 2452.15 4.90177 2.13614 0
M  V30 26290 C 2453.45 5.22293 -0.0262539 0
M  V30 26291 H 2455.15 2.97963 -0.293022 0
M  V30 26292 H 2452.69 1.43295 -0.142365 0
M  V30 26293 H 2454.64 3.68804 2.03867 0
M  V30 26294 H 2453.37 2.45114 2.15839 0
M  V30 26295 H 2452.03 3.64504 0.391417 0
M  V30 26296 H 2451.68 4.17129 2.81091 0
M  V30 26297 H 2451.38 5.59775 1.78678 0
M  V30 26298 H 2452.9 5.47137 2.7106 0
M  V30 26299 H 2454.31 5.71513 0.452284 0
M  V30 26300 H 2452.71 5.99408 -0.288097 0
M  V30 26301 H 2453.78 4.75232 -0.963474 0
M  V30 26302 N 2455.12 0.166873 1.56714 0
M  V30 26303 C 2456.09 -0.751194 2.1654 0
M  V30 26304 C 2457.09 -1.16123 1.1123 0
M  V30 26305 O 2458.28 -1.07891 1.36767 0
M  V30 26306 C 2455.41 -2.02191 2.74466 0
M  V30 26307 H 2456.6 -0.230447 2.99013 0
M  V30 26308 H 2454.16 -0.0826708 1.56081 0
M  V30 26309 H 2454.89 -2.58586 1.95714 0
M  V30 26310 H 2454.68 -1.73691 3.5153 0
M  V30 26311 H 2456.17 -2.67719 3.20494 0
M  V30 26312 N 2456.6 -1.57237 -0.106866 0
M  V30 26313 C 2457.55 -2.02217 -1.1494 0
M  V30 26314 C 2458.54 -0.921165 -1.42165 0
M  V30 26315 O 2459.75 -1.10636 -1.41985 0
M  V30 26316 H 2456.13 -0.644276 -0.38783 0
M  V30 26317 H 2458.1 -2.88986 -0.743632 0
M  V30 26318 C 2456.85 -2.45255 -2.46466 0
M  V30 26319 H 2456.17 -3.29549 -2.26358 0
M  V30 26320 H 2457.61 -2.80514 -3.17944 0
M  V30 26321 C 2456.07 -1.32105 -3.09919 0
M  V30 26322 O 2456.6 -0.643691 -3.96509 0
M  V30 26323 N 2454.8 -1.07502 -2.69985 0
M  V30 26324 H 2454.35 -1.62764 -1.99664 0
M  V30 26325 H 2454.31 -0.319931 -3.12768 0
M  V30 26326 N 2458.08 0.377381 -1.53015 0
M  V30 26327 C 2459.01 1.46788 -1.81592 0
M  V30 26328 C 2459.99 1.56407 -0.66865 0
M  V30 26329 O 2461.18 1.71167 -0.917367 0
M  V30 26330 C 2458.31 2.84267 -1.99524 0
M  V30 26331 C 2457.26 2.8948 -3.15254 0
M  V30 26332 C 2456.59 4.29521 -3.18459 0
M  V30 26333 C 2457.89 2.58071 -4.54089 0
M  V30 26334 H 2459.58 1.23123 -2.72912 0
M  V30 26335 H 2457.13 0.59086 -1.3132 0
M  V30 26336 H 2459.08 3.60571 -2.18098 0
M  V30 26337 H 2457.8 3.09294 -1.04903 0
M  V30 26338 H 2456.46 2.15626 -2.96481 0
M  V30 26339 H 2456.11 4.51606 -2.21498 0
M  V30 26340 H 2455.81 4.33927 -3.96208 0
M  V30 26341 H 2457.33 5.07715 -3.39202 0
M  V30 26342 H 2458.75 3.2409 -4.72904 0
M  V30 26343 H 2457.15 2.73811 -5.33992 0
M  V30 26344 H 2458.22 1.53364 -4.60008 0
M  V30 26345 N 2459.56 1.44175 0.636506 0
M  V30 26346 C 2460.84 1.3715 1.3946 0
M  V30 26347 C 2461.22 0.0275441 2.11082 0
M  V30 26348 O 2460.56 -0.98968 2.05955 0
M  V30 26349 C 2460.77 2.56605 2.36548 0
M  V30 26350 C 2462.12 3.00433 3.00042 0
M  V30 26351 O 2463.15 2.56772 2.46874 0
M  V30 26352 O 2462 3.76118 3.96481 0
M  V30 26353 H 2459.1 0.54285 0.623893 0
M  V30 26354 H 2461.64 1.56255 0.662012 0
M  V30 26355 H 2460.42 3.46037 1.82686 0
M  V30 26356 H 2460.04 2.39687 3.17232 0
M  V30 26357 N 2461.04 -0.876421 1.30983 0
M  V30 26358 C 2461.95 -2.01567 1.20033 0
M  V30 26359 C 2462.96 -1.73597 0.11841 0
M  V30 26360 O 2464.14 -1.98595 0.334984 0
M  V30 26361 C 2461.2 -3.34769 0.901696 0
M  V30 26362 C 2460.26 -3.76105 2.06986 0
M  V30 26363 C 2459.5 -5.02951 1.78538 0
M  V30 26364 O 2459.72 -5.65871 0.717396 0
M  V30 26365 O 2458.65 -5.409 2.64028 0
M  V30 26366 H 2462.48 -2.13735 2.15757 0
M  V30 26367 H 2460.07 -1.00373 1.1066 0
M  V30 26368 H 2461.95 -4.14659 0.750718 0
M  V30 26369 H 2460.62 -3.2369 -0.0255572 0
M  V30 26370 H 2459.53 -2.96883 2.27621 0
M  V30 26371 H 2460.86 -3.91801 2.97914 0
M  V30 26372 N 2462.51 -1.13839 -1.08989 0
M  V30 26373 C 2463.76 -0.902914 -1.81256 0
M  V30 26374 C 2464.09 0.57077 -1.85937 0
M  V30 26375 O 2463.34 1.43862 -1.32673 0
M  V30 26376 C 2463.64 -1.44153 -3.27039 0
M  V30 26377 C 2463.31 -2.93282 -3.42485 0
M  V30 26378 C 2461.97 -3.33998 -3.46408 0
M  V30 26379 C 2464.32 -3.89206 -3.46653 0
M  V30 26380 C 2461.65 -4.69313 -3.52083 0
M  V30 26381 C 2464 -5.2437 -3.53863 0
M  V30 26382 C 2462.67 -5.64606 -3.56056 0
M  V30 26383 H 2461.94 -0.3304 -0.663262 0
M  V30 26384 H 2464.58 -1.42107 -1.28366 0
M  V30 26385 H 2462.89 -0.844165 -3.82598 0
M  V30 26386 H 2464.59 -1.23535 -3.81497 0
M  V30 26387 H 2461.18 -2.608 -3.40119 0
M  V30 26388 H 2465.36 -3.58834 -3.42859 0
M  V30 26389 H 2460.62 -4.99856 -3.52071 0
M  V30 26390 H 2464.79 -5.9851 -3.56033 0
M  V30 26391 H 2462.42 -6.69444 -3.60206 0
M  V30 26392 N 2463.99 1.27046 -0.932584 0
M  V30 26393 C 2464.96 2.24935 -0.440104 0
M  V30 26394 C 2465.96 1.54547 0.444044 0
M  V30 26395 O 2467.15 1.72477 0.244434 0
M  V30 26396 C 2464.28 3.38922 0.36672 0
M  V30 26397 H 2465.47 2.70016 -1.30505 0
M  V30 26398 H 2463.02 1.39052 -0.713732 0
M  V30 26399 H 2463.76 2.9923 1.25028 0
M  V30 26400 H 2463.54 3.91188 -0.267272 0
M  V30 26401 H 2465.03 4.11666 0.701495 0
M  V30 26402 N 2465.47 0.698636 1.41269 0
M  V30 26403 C 2466.38 0.0358304 2.34573 0
M  V30 26404 C 2467.4 -0.762673 1.56395 0
M  V30 26405 O 2468.57 -0.69953 1.88861 0
M  V30 26406 C 2465.64 -0.887031 3.35161 0
M  V30 26407 C 2464.7 -0.0803879 4.29225 0
M  V30 26408 C 2463.93 -0.959295 5.25008 0
M  V30 26409 O 2464.15 -2.19877 5.26318 0
M  V30 26410 O 2463.09 -0.407334 6.0052 0
M  V30 26411 H 2466.91 0.805009 2.92837 0
M  V30 26412 H 2464.5 0.458991 1.42175 0
M  V30 26413 H 2466.38 -1.41614 3.96892 0
M  V30 26414 H 2465.06 -1.63565 2.79335 0
M  V30 26415 H 2463.96 0.493394 3.70832 0
M  V30 26416 H 2465.3 0.629632 4.88156 0
M  V30 26417 N 2466.95 -1.51228 0.443603 0
M  V30 26418 C 2468.23 -1.94761 -0.181003 0
M  V30 26419 C 2468.61 -1.38262 -1.59521 0
M  V30 26420 O 2467.95 -0.572237 -2.21219 0
M  V30 26421 C 2468.16 -3.48667 -0.15236 0
M  V30 26422 C 2469.51 -4.23115 -0.354849 0
M  V30 26423 O 2470.54 -3.55455 -0.230194 0
M  V30 26424 O 2469.39 -5.43157 -0.603578 0
M  V30 26425 H 2466.49 -0.817255 -0.126586 0
M  V30 26426 H 2469.03 -1.62104 0.502033 0
M  V30 26427 H 2467.81 -3.82263 0.83609 0
M  V30 26428 H 2467.43 -3.87784 -0.878038 0
M  V30 26429 N 2468.43 -0.175182 -1.56623 0
M  V30 26430 C 2469.68 0.468887 -1.96174 0
M  V30 26431 C 2469.99 1.64127 -1.06404 0
M  V30 26432 O 2471.19 2.35182 -1.35652 0
M  V30 26433 C 2469.65 0.885572 -3.48835 0
M  V30 26434 C 2469.26 -0.261422 -4.47237 0
M  V30 26435 C 2471 1.49784 -3.97196 0
M  V30 26436 C 2468.91 0.17511 -5.91141 0
M  V30 26437 H 2467.84 0.178945 -0.732458 0
M  V30 26438 H 2470.49 -0.264029 -1.81591 0
M  V30 26439 H 2468.87 1.67458 -3.58851 0
M  V30 26440 H 2470.05 -1.03879 -4.48939 0
M  V30 26441 H 2468.36 -0.783898 -4.08955 0
M  V30 26442 H 2470.96 1.83656 -5.0217 0
M  V30 26443 H 2471.3 2.39716 -3.40355 0
M  V30 26444 H 2471.83 0.773199 -3.90213 0
M  V30 26445 H 2468.57 -0.689529 -6.51863 0
M  V30 26446 H 2468.09 0.917756 -5.92737 0
M  V30 26447 H 2469.77 0.617679 -6.44045 0
M  V30 26448 N 2469.91 1.57292 0.0985263 0
M  V30 26449 C 2471.15 1.85914 0.802645 0
M  V30 26450 C 2471.48 0.763217 1.789 0
M  V30 26451 O 2470.74 -0.243525 1.94179 0
M  V30 26452 C 2471.03 3.21108 1.56922 0
M  V30 26453 C 2470.7 4.45028 0.725298 0
M  V30 26454 C 2469.36 4.78672 0.492642 0
M  V30 26455 C 2471.71 5.21016 0.138401 0
M  V30 26456 C 2469.04 5.85732 -0.33683 0
M  V30 26457 C 2471.39 6.28952 -0.678375 0
M  V30 26458 C 2470.06 6.61113 -0.921155 0
M  V30 26459 H 2469.33 0.680306 0.293709 0
M  V30 26460 H 2471.98 1.91392 0.0642505 0
M  V30 26461 H 2470.28 3.11298 2.37909 0
M  V30 26462 H 2471.98 3.40481 2.11835 0
M  V30 26463 H 2468.57 4.18681 0.916741 0
M  V30 26464 H 2472.75 4.9536 0.305317 0
M  V30 26465 H 2468.01 6.09064 -0.533943 0
M  V30 26466 H 2472.18 6.87005 -1.14002 0
M  V30 26467 H 2469.81 7.43902 -1.56569 0
M  V30 26468 N 2471.38 -0.369261 1.53213 0
M  V30 26469 C 2472.31 -1.45823 1.82368 0
M  V30 26470 C 2473.29 -1.5605 0.676935 0
M  V30 26471 O 2474.48 -1.70678 0.926431 0
M  V30 26472 C 2471.61 -2.83205 2.01028 0
M  V30 26473 C 2470.56 -2.87805 3.16785 0
M  V30 26474 C 2469.89 -4.27826 3.20732 0
M  V30 26475 C 2471.19 -2.55659 4.55451 0
M  V30 26476 H 2472.88 -1.21674 2.73562 0
M  V30 26477 H 2470.43 -0.583888 1.31631 0
M  V30 26478 H 2472.38 -3.59409 2.20007 0
M  V30 26479 H 2471.11 -3.08734 1.06541 0
M  V30 26480 H 2469.77 -2.14051 2.9762 0
M  V30 26481 H 2469.41 -4.50425 2.23889 0
M  V30 26482 H 2469.11 -4.3182 3.98504 0
M  V30 26483 H 2470.64 -5.05909 3.4189 0
M  V30 26484 H 2472.05 -3.21578 4.74616 0
M  V30 26485 H 2470.45 -2.70975 5.35437 0
M  V30 26486 H 2471.52 -1.50922 4.60815 0
M  V30 26487 N 2472.86 -1.4451 -0.628851 0
M  V30 26488 C 2473.81 -1.51855 -1.7619 0
M  V30 26489 C 2474.8 -0.390071 -1.64848 0
M  V30 26490 O 2476.01 -0.565112 -1.70899 0
M  V30 26491 H 2472.38 -0.476557 -0.58172 0
M  V30 26492 H 2474.36 -2.47212 -1.67119 0
M  V30 26493 C 2473.1 -1.4821 -3.1453 0
M  V30 26494 H 2472.43 -2.3436 -3.23907 0
M  V30 26495 H 2473.87 -1.57409 -3.93698 0
M  V30 26496 C 2472.33 -0.203201 -3.36287 0
M  V30 26497 O 2472.86 0.725676 -3.95091 0
M  V30 26498 N 2471.06 -0.105614 -2.90408 0
M  V30 26499 H 2470.61 -0.862344 -2.42737 0
M  V30 26500 H 2470.57 0.749317 -3.0534 0
M  V30 26501 N 2474.34 0.869463 -1.31446 0
M  V30 26502 C 2475.59 1.61933 -1.20921 0
M  V30 26503 C 2475.91 1.93607 0.232649 0
M  V30 26504 O 2475.18 1.5834 1.15349 0
M  V30 26505 H 2473.76 0.60032 -0.44455 0
M  V30 26506 H 2476.42 1.04087 -1.64778 0
M  V30 26507 H 2475.52 2.56275 -1.78128 0
M  V30 26508 N 2475.82 1.14415 1.08383 0
M  V30 26509 C 2477.06 0.9229 1.82379 0
M  V30 26510 C 2477.42 -0.54081 1.84226 0
M  V30 26511 O 2478.62 -0.880014 2.53987 0
M  V30 26512 C 2476.89 1.50763 3.24045 0
M  V30 26513 S 2478.45 1.42798 4.14915 0
M  V30 26514 H 2475.27 0.332395 0.628518 0
M  V30 26515 H 2477.87 1.45769 1.30276 0
M  V30 26516 H 2476.58 2.56607 3.20283 0
M  V30 26517 H 2476.11 0.971245 3.81222 0
M  V30 26518 H 2478.12 0.413669 4.94473 0
M  V30 26519 O 2477.33 -1.20962 1.07007 0
M  V30 26520 H 2478.03 -1.7839 0.754768 0
M  V30 END ATOM
M  V30 BEGIN BOND
M  V30 END BOND
M  V30 END CTAB
M  END
$$$$
