drugbank_target|P47989 Xanthine dehydrogenase/oxidase (DB00437; DB00583; DB01685; DB03147; DB03328; DB03516; DB03841; DB04854; DB05262)
 OpenBabel12092120073D

  0  0  0     0  0            999 V3000
M  V30 BEGIN CTAB
M  V30 COUNTS 20560 20778 0 0 0
M  V30 BEGIN ATOM
M  V30 1 H -0.908 1.98254 -0.117106 0
M  V30 2 N 0 1.576 0 0
M  V30 3 C 0.933 2.03868 1.02534 0
M  V30 4 C 1.911 0.928543 1.3348 0
M  V30 5 O 3.095 1.19667 1.45644 0
M  V30 6 C 0.222 2.43627 2.35294 0
M  V30 7 C -0.732 3.65373 2.2001 0
M  V30 8 S 0.101 5.13292 1.52614 0
M  V30 9 C 1.257 5.56322 2.86805 0
M  V30 10 H 1.49 2.90518 0.631377 0
M  V30 11 H -0.977 1.52953 0.210867 0
M  V30 12 H 0.981 2.67203 3.11629 0
M  V30 13 H -0.358 1.57376 2.7183 0
M  V30 14 H -1.165 3.90944 3.18086 0
M  V30 15 H -1.563 3.418 1.51819 0
M  V30 16 H 0.729 5.58782 3.83104 0
M  V30 17 H 1.672 6.56266 2.65933 0
M  V30 18 H 2.08 4.83886 2.90714 0
M  V30 19 N 1.4781 -0.272755 1.55222 0
M  V30 20 C 2.7061 -1.02255 1.79865 0
M  V30 21 C 3.1211 -1.79924 0.572088 0
M  V30 22 O 2.4781 -1.76638 -0.458842 0
M  V30 23 C 2.5291 -1.98094 3.02392 0
M  V30 24 O 2.2501 -1.23572 4.20311 0
M  V30 25 C 3.7511 -2.84884 3.39641 0
M  V30 26 H 0.9711 -0.302057 0.599168 0
M  V30 27 H 3.5151 -0.303465 2.02236 0
M  V30 28 H 1.6701 -2.65465 2.82147 0
M  V30 29 H 2.0841 -1.88172 4.89583 0
M  V30 30 H 3.5581 -3.47927 4.28545 0
M  V30 31 H 4.0351 -3.54665 2.59055 0
M  V30 32 H 4.6411 -2.23003 3.62146 0
M  V30 33 N 2.9562 -1.48159 -0.537278 0
M  V30 34 C 3.9192 -1.61665 -1.62472 0
M  V30 35 C 4.9192 -0.490395 -1.5314 0
M  V30 36 O 6.1092 -0.755998 -1.5694 0
M  V30 37 C 3.2412 -1.57997 -3.02076 0
M  V30 38 H 4.4342 -2.58621 -1.51839 0
M  V30 39 H 1.9872 -1.36647 -0.758771 0
M  V30 40 H 2.7222 -0.624913 -3.18222 0
M  V30 41 H 2.5072 -2.39755 -3.10258 0
M  V30 42 H 3.9972 -1.70627 -3.81151 0
M  V30 43 N 4.4343 0.785586 -1.36625 0
M  V30 44 C 5.7113 1.53198 -1.21613 0
M  V30 45 C 6.0913 2.10187 0.196113 0
M  V30 46 O 5.4393 1.94318 1.20219 0
M  V30 47 C 5.6493 2.62388 -2.30116 0
M  V30 48 C 6.9973 3.30167 -2.66974 0
M  V30 49 O 8.0213 2.72674 -2.29188 0
M  V30 50 O 6.8803 4.34077 -3.32023 0
M  V30 51 H 3.9743 0.677865 -0.473738 0
M  V30 52 H 6.5203 0.823739 -1.48367 0
M  V30 53 H 5.2923 2.18299 -3.24748 0
M  V30 54 H 4.9153 3.40827 -2.0475 0
M  V30 55 N 5.9124 1.20967 1.01018 0
M  V30 56 C 6.8594 0.964281 2.09691 0
M  V30 57 C 7.8294 -0.107853 1.65749 0
M  V30 58 O 9.0144 0.0381987 1.90762 0
M  V30 59 C 6.1544 0.52943 3.41015 0
M  V30 60 C 5.2674 1.67043 3.98398 0
M  V30 61 C 4.4024 1.18525 5.17808 0
M  V30 62 C 3.4414 2.29892 5.67288 0
M  V30 63 N 2.5784 1.82546 6.77954 0
M  V30 64 H 7.4184 1.89463 2.30017 0
M  V30 65 H 4.9554 0.944289 1.1279 0
M  V30 66 H 6.9134 0.258588 4.16398 0
M  V30 67 H 5.5434 -0.363919 3.20742 0
M  V30 68 H 4.5954 2.05603 3.20049 0
M  V30 69 H 5.9074 2.50877 4.31117 0
M  V30 70 H 5.0614 0.870762 6.00419 0
M  V30 71 H 3.8004 0.316887 4.86669 0
M  V30 72 H 2.8054 2.6215 4.83278 0
M  V30 73 H 4.0304 3.17216 6.00459 0
M  V30 74 H 1.9764 0.980454 6.48632 0
M  V30 75 H 1.8934 2.59956 7.09901 0
M  V30 76 H 3.1614 1.54115 7.64113 0
M  V30 77 N 7.3905 -1.2043 1.01659 0
M  V30 78 C 8.3205 -2.25466 0.607226 0
M  V30 79 C 9.3015 -1.65853 -0.377716 0
M  V30 80 O 10.4865 -1.92409 -0.263149 0
M  V30 81 C 7.6165 -3.47256 -0.0552949 0
M  V30 82 C 6.5705 -4.19462 0.850632 0
M  V30 83 C 5.8965 -5.34673 0.0538859 0
M  V30 84 C 7.1965 -4.75603 2.15868 0
M  V30 85 H 8.8905 -2.59962 1.48526 0
M  V30 86 H 6.4365 -1.2496 0.715605 0
M  V30 87 H 8.3895 -4.19917 -0.353233 0
M  V30 88 H 7.1135 -3.11924 -0.968045 0
M  V30 89 H 5.7725 -3.48667 1.13257 0
M  V30 90 H 5.4205 -4.95585 -0.860514 0
M  V30 91 H 5.1205 -5.83913 0.657192 0
M  V30 92 H 6.6445 -6.10138 -0.237598 0
M  V30 93 H 8.0585 -5.40083 1.92311 0
M  V30 94 H 6.4555 -5.3528 2.71284 0
M  V30 95 H 7.5255 -3.94346 2.82169 0
M  V30 96 N 8.8686 -0.792821 -1.36206 0
M  V30 97 C 10.1146 -0.36733 -1.99446 0
M  V30 98 C 10.4476 1.05917 -1.62774 0
M  V30 99 O 9.7226 1.7324 -0.88421 0
M  V30 100 C 10.0056 -0.535044 -3.56103 0
M  V30 101 C 9.8586 -2.00548 -4.02617 0
M  V30 102 C 11.1776 0.0478191 -4.40074 0
M  V30 103 H 8.2966 -0.134941 -0.724541 0
M  V30 104 H 10.9386 -0.999794 -1.61568 0
M  V30 105 H 9.0886 0.00336329 -3.885 0
M  V30 106 H 10.7606 -2.60521 -3.80692 0
M  V30 107 H 9.0036 -2.50686 -3.54032 0
M  V30 108 H 9.6746 -2.07377 -5.11565 0
M  V30 109 H 12.1506 -0.411822 -4.14057 0
M  V30 110 H 11.0266 -0.0995336 -5.4881 0
M  V30 111 H 11.2876 1.14025 -4.27142 0
M  V30 112 N 10.3467 1.47872 -0.545128 0
M  V30 113 C 11.5937 2.02493 -0.0165858 0
M  V30 114 C 11.9217 1.42073 1.32836 0
M  V30 115 O 11.1767 0.561459 1.87473 0
M  V30 116 C 11.4757 3.57131 0.13867 0
M  V30 117 C 11.1417 4.36411 -1.13384 0
M  V30 118 C 9.8037 4.57792 -1.48256 0
M  V30 119 C 12.1557 4.82223 -1.97764 0
M  V30 120 C 9.4837 5.22233 -2.67376 0
M  V30 121 C 11.8357 5.47977 -3.16076 0
M  V30 122 C 10.4997 5.67593 -3.51275 0
M  V30 123 H 9.7697 0.740975 -0.00606918 0
M  V30 124 H 12.4167 1.77683 -0.714207 0
M  V30 125 H 10.7217 3.80865 0.919172 0
M  V30 126 H 12.4187 3.97031 0.562782 0
M  V30 127 H 9.0087 4.2004 -0.852297 0
M  V30 128 H 13.1927 4.65493 -1.72132 0
M  V30 129 H 8.4487 5.35616 -2.94831 0
M  V30 130 H 12.6227 5.8244 -3.81755 0
M  V30 131 H 10.2497 6.17298 -4.43675 0
M  V30 132 N 11.8248 0.280983 1.55075 0
M  V30 133 C 13.0718 -0.334115 1.99725 0
M  V30 134 C 13.3998 -1.5542 1.1694 0
M  V30 135 O 12.6548 -1.94361 0.228531 0
M  V30 136 C 12.9538 -0.754656 3.49342 0
M  V30 137 C 12.6198 0.361445 4.49449 0
M  V30 138 C 11.2818 0.667893 4.76542 0
M  V30 139 C 13.6338 1.11322 5.09173 0
M  V30 140 C 10.9618 1.7296 5.60626 0
M  V30 141 C 13.3138 2.1647 5.9441 0
M  V30 142 C 11.9778 2.47742 6.19822 0
M  V30 143 H 11.2478 -0.122261 0.730844 0
M  V30 144 H 13.8948 0.395917 1.87363 0
M  V30 145 H 12.1998 -1.56446 3.5921 0
M  V30 146 H 13.8968 -1.24142 3.813 0
M  V30 147 H 10.4868 0.112481 4.28452 0
M  V30 148 H 14.6708 0.88973 4.8826 0
M  V30 149 H 9.9268 1.97684 5.78559 0
M  V30 150 H 14.1008 2.75193 6.3972 0
M  V30 151 H 11.7278 3.30145 6.84769 0
M  V30 152 N 13.3029 -1.57598 0.00835791 0
M  V30 153 C 14.5489 -1.91211 -0.675732 0
M  V30 154 C 14.8819 -0.883139 -1.72958 0
M  V30 155 O 14.1569 0.097016 -1.94258 0
M  V30 156 C 14.4399 -3.35379 -1.31123 0
M  V30 157 C 14.2929 -4.48999 -0.268356 0
M  V30 158 C 15.6119 -3.7912 -2.23508 0
M  V30 159 H 12.7309 -0.695374 -0.244179 0
M  V30 160 H 15.3729 -1.89901 0.0613655 0
M  V30 161 H 13.5229 -3.36626 -1.93946 0
M  V30 162 H 15.1949 -4.59887 0.360844 0
M  V30 163 H 13.4379 -4.31873 0.408482 0
M  V30 164 H 14.1089 -5.46851 -0.752218 0
M  V30 165 H 16.5849 -3.79477 -1.70693 0
M  V30 166 H 15.4609 -4.80729 -2.64936 0
M  V30 167 H 15.7219 -3.13455 -3.11766 0
M  V30 168 N 14.781 0.264519 -1.55364 0
M  V30 169 C 15.729 1.34702 -1.89626 0
M  V30 170 C 16.723 1.50712 -0.773459 0
M  V30 171 O 17.929 1.52395 -0.957897 0
M  V30 172 H 14.304 0.450682 -0.601988 0
M  V30 173 H 16.275 1.0306 -2.80038 0
M  V30 174 C 15.024 2.6989 -2.19214 0
M  V30 175 H 14.347 2.58365 -3.05103 0
M  V30 176 H 15.787 3.44553 -2.47102 0
M  V30 177 C 14.246 3.21637 -1.00254 0
M  V30 178 O 14.776 4.00973 -0.241501 0
M  V30 179 N 12.982 2.7943 -0.797938 0
M  V30 180 H 12.529 2.15026 -1.4185 0
M  V30 181 H 12.487 3.144 -0.00363422 0
M  V30 182 N 16.2591 1.48442 0.529413 0
M  V30 183 C 17.5071 1.56179 1.28267 0
M  V30 184 C 17.8281 0.237721 1.93546 0
M  V30 185 O 17.0981 -0.740779 1.81354 0
M  V30 186 H 15.6781 0.575367 0.476405 0
M  V30 187 H 18.3401 1.84909 0.61602 0
M  V30 188 H 17.4361 2.34312 2.06165 0
M  V30 189 N 17.7372 -0.778329 1.37039 0
M  V30 190 C 19.1532 -1.07796 1.17695 0
M  V30 191 C 19.3532 -2.01498 0.00860115 0
M  V30 192 O 18.4092 -2.43901 -0.653352 0
M  V30 193 C 19.7222 -1.68178 2.49272 0
M  V30 194 C 21.2702 -1.80467 2.55735 0
M  V30 195 C 21.7452 -2.44263 3.87427 0
M  V30 196 N 23.2362 -2.51721 3.88833 0
M  V30 197 C 23.9712 -3.01919 4.87476 0
M  V30 198 N 23.4672 -3.5234 5.96513 0
M  V30 199 N 25.2602 -3.00733 4.74885 0
M  V30 200 H 17.4112 -0.156032 2.11826 0
M  V30 201 H 19.6742 -0.131844 0.938787 0
M  V30 202 H 19.3802 -1.06796 3.35093 0
M  V30 203 H 19.2542 -2.67554 2.65885 0
M  V30 204 H 21.6412 -2.40984 1.70325 0
M  V30 205 H 21.7222 -0.798656 2.43013 0
M  V30 206 H 21.3662 -1.84388 4.73248 0
M  V30 207 H 21.2962 -3.45458 3.9745 0
M  V30 208 H 23.7872 -2.1603 3.10063 0
M  V30 209 H 24.1002 -3.89027 6.67741 0
M  V30 210 H 22.4452 -3.50462 6.00168 0
M  V30 211 H 25.6362 -2.60638 3.88826 0
M  V30 212 H 25.8092 -3.39545 5.51918 0
M  V30 213 N 19.2153 -1.21501 -1.00376 0
M  V30 214 C 20.1623 -0.975387 -2.09177 0
M  V30 215 C 21.1323 0.0990615 -1.65804 0
M  V30 216 O 22.3173 -0.0483147 -1.90739 0
M  V30 217 C 19.4573 -0.547507 -3.40729 0
M  V30 218 C 18.5703 -1.69153 -3.97506 0
M  V30 219 C 17.7053 -1.2127 -5.17172 0
M  V30 220 C 16.7443 -2.32897 -5.66061 0
M  V30 221 N 15.8813 -1.86138 -6.76976 0
M  V30 222 H 20.7213 -1.9068 -2.29009 0
M  V30 223 H 18.2583 -0.950257 -1.12288 0
M  V30 224 H 20.2163 -0.280667 -4.16255 0
M  V30 225 H 18.8463 0.346904 -3.20931 0
M  V30 226 H 17.8983 -2.07298 -3.18954 0
M  V30 227 H 19.2103 -2.5316 -4.29781 0
M  V30 228 H 18.3643 -0.902591 -5.99948 0
M  V30 229 H 17.1033 -0.342692 -4.86495 0
M  V30 230 H 16.1083 -2.64709 -4.81881 0
M  V30 231 H 17.3333 -3.20396 -5.98768 0
M  V30 232 H 15.2793 -1.01484 -6.48103 0
M  V30 233 H 15.1963 -2.63717 -7.08512 0
M  V30 234 H 16.4643 -1.58165 -7.63285 0
M  V30 235 N 20.6934 1.19889 -1.02296 0
M  V30 236 C 21.9394 1.89701 -0.717033 0
M  V30 237 C 22.2724 1.7905 0.751989 0
M  V30 238 O 21.5474 1.17891 1.547 0
M  V30 239 C 21.8304 3.40858 -1.16136 0
M  V30 240 C 21.6834 3.60411 -2.69117 0
M  V30 241 C 23.0024 4.33876 -0.737549 0
M  V30 242 H 20.1214 0.688874 -0.261957 0
M  V30 243 H 22.7634 1.41154 -1.27183 0
M  V30 244 H 20.9134 3.82335 -0.689342 0
M  V30 245 H 22.5854 3.28145 -3.2422 0
M  V30 246 H 20.8284 3.03665 -3.0979 0
M  V30 247 H 21.4994 4.66396 -2.95261 0
M  V30 248 H 23.9754 4.00081 -1.14344 0
M  V30 249 H 22.8514 5.38242 -1.0764 0
M  V30 250 H 23.1124 4.40628 0.360436 0
M  V30 251 N 22.1715 0.800033 1.35784 0
M  V30 252 C 23.4175 0.377901 1.99248 0
M  V30 253 C 23.7505 -1.05052 1.63333 0
M  V30 254 O 23.0255 -1.72768 0.893385 0
M  V30 255 C 23.3085 0.553922 3.55814 0
M  V30 256 C 23.1615 2.0268 4.01548 0
M  V30 257 C 24.4805 -0.0244802 4.40093 0
M  V30 258 H 21.5995 0.138782 0.723815 0
M  V30 259 H 24.2415 1.00835 1.61035 0
M  V30 260 H 22.3915 0.0172398 3.88496 0
M  V30 261 H 24.0635 2.62536 3.79305 0
M  V30 262 H 22.3065 2.5256 3.52698 0
M  V30 263 H 22.9775 2.10087 5.10458 0
M  V30 264 H 25.4535 0.433775 4.13833 0
M  V30 265 H 24.3295 0.128637 5.48749 0
M  V30 266 H 24.5905 -1.11758 4.27741 0
M  V30 267 N 23.6496 -1.47581 0.552962 0
M  V30 268 C 24.5596 -2.33743 -0.200353 0
M  V30 269 C 25.5756 -1.47928 -0.916151 0
M  V30 270 O 26.7516 -1.80865 -0.885993 0
M  V30 271 C 23.8166 -3.24536 -1.21973 0
M  V30 272 C 22.8776 -4.26238 -0.511819 0
M  V30 273 C 22.1106 -5.12693 -1.48263 0
M  V30 274 O 22.3336 -5.01525 -2.71714 0
M  V30 275 O 21.2676 -5.93375 -1.00945 0
M  V30 276 H 25.0936 -2.9945 0.506304 0
M  V30 277 H 22.6786 -1.46071 0.313622 0
M  V30 278 H 24.5606 -3.80631 -1.80827 0
M  V30 279 H 23.2356 -2.61462 -1.90839 0
M  V30 280 H 22.1426 -3.73914 0.117799 0
M  V30 281 H 23.4756 -4.92014 0.135308 0
M  V30 282 N 25.1277 -0.289203 -1.54924 0
M  V30 283 C 26.0747 0.592115 -2.23075 0
M  V30 284 C 27.0447 1.13881 -1.20915 0
M  V30 285 O 28.2297 1.18551 -1.495 0
M  V30 286 C 25.3697 1.76376 -2.96623 0
M  V30 287 C 24.4827 1.24959 -4.13533 0
M  V30 288 C 23.6177 2.38416 -4.74691 0
M  V30 289 C 22.6567 1.84072 -5.83767 0
M  V30 290 N 21.7937 2.91057 -6.38929 0
M  V30 291 H 26.6337 0.00432038 -2.98 0
M  V30 292 H 24.1707 -0.00963529 -1.47097 0
M  V30 293 H 26.1287 2.45268 -3.3749 0
M  V30 294 H 24.7587 2.32337 -2.24097 0
M  V30 295 H 23.8107 0.453307 -3.77689 0
M  V30 296 H 25.1227 0.811662 -4.92152 0
M  V30 297 H 24.2767 3.15276 -5.18349 0
M  V30 298 H 23.0157 2.8553 -3.95378 0
M  V30 299 H 22.0207 1.05697 -5.39545 0
M  V30 300 H 23.2457 1.37877 -6.64956 0
M  V30 301 H 21.1917 3.37526 -5.62505 0
M  V30 302 H 21.1087 2.51724 -7.12861 0
M  V30 303 H 22.3767 3.6785 -6.87246 0
M  V30 304 N 26.6058 1.57591 -0.0167156 0
M  V30 305 C 27.5538 2.10604 0.987353 0
M  V30 306 C 28.5478 1.02977 1.34507 0
M  V30 307 O 29.7538 1.21425 1.32875 0
M  V30 308 H 26.1288 0.672695 0.336134 0
M  V30 309 H 28.0998 2.93925 0.514817 0
M  V30 310 C 26.8488 2.6382 2.26483 0
M  V30 311 H 26.1718 3.46278 1.99829 0
M  V30 312 H 27.6118 3.04573 2.94977 0
M  V30 313 C 26.0708 1.55992 2.9861 0
M  V30 314 O 26.6008 0.952521 3.90243 0
M  V30 315 N 24.8068 1.28335 2.60727 0
M  V30 316 H 24.3538 1.77914 1.86291 0
M  V30 317 H 24.3118 0.564115 3.09298 0
M  V30 318 N 28.0839 -0.256276 1.55502 0
M  V30 319 C 29.0469 -1.30047 1.88734 0
M  V30 320 C 30.0469 -1.4154 0.763086 0
M  V30 321 O 31.2369 -1.40403 1.03115 0
M  V30 322 C 28.3689 -2.67953 2.10747 0
M  V30 323 H 29.5619 -1.01802 2.82093 0
M  V30 324 H 27.1149 -0.495134 1.4825 0
M  V30 325 H 27.8499 -3.01351 1.19825 0
M  V30 326 H 27.6349 -2.60993 2.92617 0
M  V30 327 H 29.1249 -3.43368 2.37673 0
M  V30 328 N 29.562 -1.4872 -0.521534 0
M  V30 329 C 30.839 -1.4766 -1.2828 0
M  V30 330 C 31.219 -0.19292 -2.10217 0
M  V30 331 O 30.567 0.825193 -2.13079 0
M  V30 332 C 30.777 -2.74358 -2.15705 0
M  V30 333 C 32.125 -3.23028 -2.75569 0
M  V30 334 O 33.149 -2.75333 -2.25987 0
M  V30 335 O 32.008 -4.0604 -3.65778 0
M  V30 336 H 29.102 -0.590085 -0.579421 0
M  V30 337 H 31.648 -1.60963 -0.537492 0
M  V30 338 H 30.42 -3.59292 -1.54999 0
M  V30 339 H 30.043 -2.63816 -2.97467 0
M  V30 340 N 31.0401 0.771051 -1.3745 0
M  V30 341 C 32.4511 1.34737 -1.29239 0
M  V30 342 C 32.8021 1.96109 0.0596908 0
M  V30 343 O 31.9271 1.93865 0.961534 0
M  V30 344 C 32.5221 2.44973 -2.34037 0
M  V30 345 C 31.0811 2.98372 -2.29458 0
M  V30 346 C 30.2281 1.71595 -2.17831 0
M  V30 347 H 33.1791 0.571256 -1.48062 0
M  V30 348 H 33.2001 3.24471 -1.98744 0
M  V30 349 H 32.7121 2.00276 -3.32432 0
M  V30 350 H 30.8131 3.47443 -1.34589 0
M  V30 351 H 30.9261 3.53939 -3.229 0
M  V30 352 H 29.2901 1.94547 -1.64388 0
M  V30 353 H 30.0731 1.29001 -3.18141 0
M  V30 354 N 32.5182 1.22032 0.997298 0
M  V30 355 C 33.4282 1.00271 2.12092 0
M  V30 356 C 34.4442 -0.047621 1.73935 0
M  V30 357 O 35.6202 0.144136 2.00884 0
M  V30 358 C 32.6852 0.578449 3.4184 0
M  V30 359 C 31.7462 1.70189 3.94125 0
M  V30 360 C 30.9792 1.29778 5.17681 0
M  V30 361 O 31.2022 0.174676 5.70132 0
M  V30 362 O 30.1362 2.11261 5.63607 0
M  V30 363 H 33.9622 1.94398 2.3333 0
M  V30 364 H 31.5472 1.00587 1.10465 0
M  V30 365 H 33.4292 0.351998 4.19927 0
M  V30 366 H 32.1042 -0.334019 3.21972 0
M  V30 367 H 31.0112 1.98282 3.1723 0
M  V30 368 H 32.3442 2.59206 4.18417 0
M  V30 369 N 33.9963 -1.19345 1.0293 0
M  V30 370 C 35.2243 -1.92997 0.745644 0
M  V30 371 C 35.6393 -1.75519 -0.695589 0
M  V30 372 O 34.9963 -1.07737 -1.47306 0
M  V30 373 C 35.0473 -3.44741 1.08792 0
M  V30 374 O 34.7683 -3.61658 2.47256 0
M  V30 375 C 36.2693 -4.35515 0.827129 0
M  V30 376 H 33.4893 -0.613042 0.272801 0
M  V30 377 H 36.0333 -1.51473 1.3739 0
M  V30 378 H 34.1883 -3.84097 0.504832 0
M  V30 379 H 34.6023 -4.55514 2.60015 0
M  V30 380 H 36.0763 -5.40589 1.11658 0
M  V30 381 H 36.5533 -4.38552 -0.238436 0
M  V30 382 H 37.1593 -4.01841 1.39297 0
M  V30 383 N 35.4744 -0.807222 -1.35358 0
M  V30 384 C 36.7024 -0.400377 -2.02989 0
M  V30 385 C 37.1174 0.988859 -1.60832 0
M  V30 386 O 36.4744 1.63729 -0.806175 0
M  V30 387 C 36.5254 -0.474867 -3.58368 0
M  V30 388 O 36.2464 -1.80933 -3.98992 0
M  V30 389 C 37.7474 -0.0609112 -4.43258 0
M  V30 390 H 34.9674 -0.162587 -0.651004 0
M  V30 391 H 37.5114 -1.09102 -1.72965 0
M  V30 392 H 35.6664 0.167534 -3.87038 0
M  V30 393 H 36.0804 -1.77256 -4.9364 0
M  V30 394 H 37.5544 -0.164145 -5.51756 0
M  V30 395 H 38.0314 0.993831 -4.27808 0
M  V30 396 H 38.6374 -0.676492 -4.19885 0
M  V30 397 N 36.9525 1.47285 -0.560781 0
M  V30 398 C 37.8825 2.32857 0.173105 0
M  V30 399 C 38.8635 1.44009 0.905281 0
M  V30 400 O 40.0485 1.7286 0.885046 0
M  V30 401 C 37.1785 3.25861 1.20133 0
M  V30 402 C 36.1325 4.23978 0.585388 0
M  V30 403 C 35.4585 5.06332 1.7185 0
M  V30 404 C 36.7585 5.20242 -0.463178 0
M  V30 405 H 38.4525 2.94466 -0.541307 0
M  V30 406 H 35.9985 1.41601 -0.261764 0
M  V30 407 H 37.9515 3.84569 1.72293 0
M  V30 408 H 36.6755 2.62315 1.94573 0
M  V30 409 H 35.3345 3.66501 0.085054 0
M  V30 410 H 34.9825 4.39186 2.45203 0
M  V30 411 H 34.6825 5.72762 1.31213 0
M  V30 412 H 36.2065 5.67899 2.24329 0
M  V30 413 H 37.6205 5.73293 -0.027502 0
M  V30 414 H 36.0175 5.94896 -0.788627 0
M  V30 415 H 37.0875 4.65504 -1.35773 0
M  V30 416 N 38.4306 0.297415 1.54768 0
M  V30 417 C 39.3606 -0.573494 2.26348 0
M  V30 418 C 40.3416 -1.14085 1.26169 0
M  V30 419 O 41.5266 -1.17086 1.54934 0
M  V30 420 C 38.6566 -1.74716 3.00153 0
M  V30 421 C 37.6106 -1.31032 4.07449 0
M  V30 422 C 36.9366 -2.56887 4.68949 0
M  V30 423 C 38.2366 -0.444183 5.20408 0
M  V30 424 H 39.9306 0.0235131 2.99391 0
M  V30 425 H 37.4766 0.0127488 1.43994 0
M  V30 426 H 39.4296 -2.3625 3.48947 0
M  V30 427 H 38.1536 -2.37035 2.24682 0
M  V30 428 H 36.8126 -0.718066 3.59499 0
M  V30 429 H 36.4606 -3.17512 3.90122 0
M  V30 430 H 36.1606 -2.2836 5.41411 0
M  V30 431 H 37.6846 -3.19229 5.20505 0
M  V30 432 H 39.0986 -0.9651 5.65118 0
M  V30 433 H 37.4956 -0.252846 5.99567 0
M  V30 434 H 38.5656 0.531609 4.81977 0
M  V30 435 N 39.9087 -1.5758 0.0250728 0
M  V30 436 C 40.8717 -2.08896 -0.943139 0
M  V30 437 C 41.8717 -1.00321 -1.25668 0
M  V30 438 O 43.0617 -1.26495 -1.19769 0
M  V30 439 C 40.1937 -2.55143 -2.26086 0
M  V30 440 H 41.3867 -2.95723 -0.498775 0
M  V30 441 H 38.9397 -1.54703 -0.222888 0
M  V30 442 H 39.6747 -1.71633 -2.75159 0
M  V30 443 H 39.4597 -3.34461 -2.04641 0
M  V30 444 H 40.9497 -2.95083 -2.95492 0
M  V30 445 N 41.3868 0.248026 -1.55636 0
M  V30 446 C 42.6168 0.992367 -1.81206 0
M  V30 447 C 43.0248 1.7949 -0.598324 0
M  V30 448 O 42.3678 1.78292 0.442434 0
M  V30 449 C 42.4298 1.97926 -3.00109 0
M  V30 450 C 42.0938 1.36377 -4.36177 0
M  V30 451 C 43.0908 0.76682 -5.14214 0
M  V30 452 C 40.7758 1.38347 -4.82872 0
M  V30 453 C 42.7698 0.197778 -6.37093 0
M  V30 454 C 40.4568 0.810574 -6.057 0
M  V30 455 C 41.4548 0.218754 -6.8265 0
M  V30 456 O 41.1428 -0.345298 -8.03158 0
M  V30 457 H 40.8748 0.297704 -0.606917 0
M  V30 458 H 43.4288 0.276517 -2.0353 0
M  V30 459 H 41.6588 2.73339 -2.73538 0
M  V30 460 H 43.3478 2.58694 -3.12781 0
M  V30 461 H 44.1138 0.744114 -4.79258 0
M  V30 462 H 39.9928 1.8335 -4.2297 0
M  V30 463 H 43.5368 -0.264788 -6.97097 0
M  V30 464 H 39.4338 0.830604 -6.40134 0
M  V30 465 H 40.2018 -0.237055 -8.18157 0
M  V30 466 N 42.8649 1.48995 0.513639 0
M  V30 467 C 43.7949 1.67636 1.62544 0
M  V30 468 C 44.7759 0.525087 1.61793 0
M  V30 469 O 45.9609 0.759502 1.78732 0
M  V30 470 C 43.0909 1.73114 3.01079 0
M  V30 471 C 42.0449 2.87905 3.16693 0
M  V30 472 C 41.3709 2.78486 4.56453 0
M  V30 473 C 42.6709 4.29005 2.97913 0
M  V30 474 H 44.3649 2.60716 1.47198 0
M  V30 475 H 41.9109 1.25465 0.706714 0
M  V30 476 H 43.8639 1.84742 3.78746 0
M  V30 477 H 42.5879 0.766241 3.17484 0
M  V30 478 H 41.2469 2.75859 2.41448 0
M  V30 479 H 40.8949 1.7993 4.69717 0
M  V30 480 H 40.5949 3.55523 4.67843 0
M  V30 481 H 42.1189 2.92104 5.36197 0
M  V30 482 H 43.5329 4.41798 3.65359 0
M  V30 483 H 41.9299 5.07166 3.20785 0
M  V30 484 H 42.9999 4.44329 1.94165 0
M  V30 485 N 44.343 -0.763751 1.37857 0
M  V30 486 C 45.759 -1.06542 1.18832 0
M  V30 487 C 45.959 -2.01478 0.0299722 0
M  V30 488 O 45.015 -2.4458 -0.627447 0
M  V30 489 C 46.328 -1.65525 2.51042 0
M  V30 490 C 47.876 -1.77745 2.57635 0
M  V30 491 C 48.351 -2.4014 3.89996 0
M  V30 492 N 49.842 -2.47582 3.91481 0
M  V30 493 C 50.577 -2.96732 4.9065 0
M  V30 494 N 50.073 -3.45993 6.00217 0
M  V30 495 N 51.866 -2.95679 4.78048 0
M  V30 496 H 44.017 -0.133556 2.1198 0
M  V30 497 H 46.28 -0.121879 0.940133 0
M  V30 498 H 45.986 -1.03236 3.36207 0
M  V30 499 H 45.86 -2.64719 2.68707 0
M  V30 500 H 48.247 -2.39164 1.72872 0
M  V30 501 H 48.328 -0.772836 2.43846 0
M  V30 502 H 47.972 -1.79358 4.75177 0
M  V30 503 H 47.902 -3.41223 4.01092 0
M  V30 504 H 50.393 -2.1273 3.12337 0
M  V30 505 H 50.706 -3.81922 6.7183 0
M  V30 506 H 49.051 -3.44077 6.03851 0
M  V30 507 H 52.242 -2.56499 3.91568 0
M  V30 508 H 52.415 -3.33672 5.55488 0
M  V30 509 N 45.8211 -1.22559 -0.990812 0
M  V30 510 C 47.2371 -0.985996 -1.255 0
M  V30 511 C 47.4371 0.319173 -1.98956 0
M  V30 512 O 46.4931 1.04127 -2.3003 0
M  V30 513 C 47.8061 -2.18607 -2.06474 0
M  V30 514 C 49.3541 -2.22985 -2.19651 0
M  V30 515 C 49.8291 -3.4255 -3.04012 0
M  V30 516 N 51.3201 -3.42725 -3.11599 0
M  V30 517 C 52.0551 -4.31892 -3.7717 0
M  V30 518 N 51.5511 -5.31279 -4.44651 0
M  V30 519 N 53.3441 -4.19662 -3.73952 0
M  V30 520 H 45.4951 -2.06469 -0.49841 0
M  V30 521 H 47.7581 -0.904853 -0.282747 0
M  V30 522 H 47.4641 -3.13267 -1.59865 0
M  V30 523 H 47.3381 -2.18838 -3.07229 0
M  V30 524 H 49.7251 -1.28871 -2.65474 0
M  V30 525 H 49.8061 -2.26791 -1.18319 0
M  V30 526 H 49.4501 -4.36965 -2.58889 0
M  V30 527 H 49.3801 -3.35984 -4.0549 0
M  V30 528 H 51.8711 -2.70807 -2.63575 0
M  V30 529 H 52.1841 -5.95593 -4.92431 0
M  V30 530 H 50.5291 -5.3519 -4.43392 0
M  V30 531 H 53.7201 -3.41268 -3.20396 0
M  V30 532 H 53.8931 -4.89358 -4.24774 0
M  V30 533 N 47.2992 1.18797 -1.03562 0
M  V30 534 C 48.2462 2.22253 -0.622259 0
M  V30 535 C 49.2162 1.61987 0.36736 0
M  V30 536 O 50.4012 1.88986 0.262492 0
M  V30 537 C 47.5412 3.45097 0.0138462 0
M  V30 538 C 46.6542 4.19722 -1.02263 0
M  V30 539 C 45.7892 5.30009 -0.355573 0
M  V30 540 C 44.8282 5.96399 -1.37749 0
M  V30 541 N 43.9652 6.98234 -0.735766 0
M  V30 542 H 48.8052 2.56968 -1.50903 0
M  V30 543 H 46.3422 1.26245 -0.755017 0
M  V30 544 H 48.3002 4.15279 0.399948 0
M  V30 545 H 46.9302 3.11018 0.864158 0
M  V30 546 H 45.9822 3.48418 -1.52673 0
M  V30 547 H 47.2942 4.65227 -1.79903 0
M  V30 548 H 46.4482 6.0664 0.0850095 0
M  V30 549 H 45.1872 4.85592 0.452967 0
M  V30 550 H 44.1922 5.18512 -1.82826 0
M  V30 551 H 45.4172 6.42899 -2.18764 0
M  V30 552 H 43.3632 6.55979 0.0525597 0
M  V30 553 H 43.2802 7.41965 -1.44995 0
M  V30 554 H 44.5482 7.78845 -0.31941 0
M  V30 555 N 48.7773 0.814389 1.34928 0
M  V30 556 C 49.7073 0.244827 2.32213 0
M  V30 557 C 50.6883 -0.634024 1.57842 0
M  V30 558 O 51.8733 -0.562676 1.8587 0
M  V30 559 C 49.0033 -0.601106 3.42058 0
M  V30 560 C 47.9573 0.179896 4.27622 0
M  V30 561 C 47.2833 -0.788237 5.28858 0
M  V30 562 C 48.5833 1.38329 5.03649 0
M  V30 563 H 50.2773 1.05763 2.80097 0
M  V30 564 H 47.8233 0.510029 1.34665 0
M  V30 565 H 49.7763 -1.00968 4.09125 0
M  V30 566 H 48.5003 -1.44688 2.92802 0
M  V30 567 H 47.1593 0.569739 3.62146 0
M  V30 568 H 46.8073 -1.62973 4.75866 0
M  V30 569 H 46.5073 -0.269942 5.8698 0
M  V30 570 H 48.0313 -1.19485 5.98795 0
M  V30 571 H 49.4453 1.04918 5.63618 0
M  V30 572 H 47.8423 1.83662 5.71304 0
M  V30 573 H 48.9123 2.16592 4.33839 0
M  V30 574 N 50.2554 -1.46986 0.568584 0
M  V30 575 C 51.5034 -2.02041 0.0487022 0
M  V30 576 C 51.8244 -1.44408 -1.31039 0
M  V30 577 O 51.0944 -0.623477 -1.85714 0
M  V30 578 H 49.6744 -0.746849 0.015014 0
M  V30 579 H 52.3364 -1.80257 0.741168 0
M  V30 580 H 51.4324 -3.12085 -0.0308961 0
M  V30 581 N 51.7335 -0.305618 -1.54608 0
M  V30 582 C 52.6635 0.561482 -2.26649 0
M  V30 583 C 53.6445 1.13415 -1.26772 0
M  V30 584 O 54.8295 1.16262 -1.55553 0
M  V30 585 C 51.9595 1.73122 -3.01075 0
M  V30 586 C 50.9135 1.2887 -4.08138 0
M  V30 587 C 50.2395 2.54396 -4.70305 0
M  V30 588 C 51.5395 0.416578 -5.20636 0
M  V30 589 H 53.2335 -0.0393902 -2.99374 0
M  V30 590 H 50.7795 -0.020385 -1.43986 0
M  V30 591 H 52.7325 2.34396 -3.50195 0
M  V30 592 H 51.4565 2.3584 -2.25936 0
M  V30 593 H 50.1155 0.698991 -3.59875 0
M  V30 594 H 49.7635 3.15439 -3.918 0
M  V30 595 H 49.4635 2.25486 -5.42614 0
M  V30 596 H 50.9875 3.16464 -5.2219 0
M  V30 597 H 52.4015 0.935116 -5.65622 0
M  V30 598 H 50.7985 0.221046 -5.99693 0
M  V30 599 H 51.8685 -0.557162 -4.81688 0
M  V30 600 N 53.2116 1.57565 -0.0334293 0
M  V30 601 C 54.4366 1.96689 0.657895 0
M  V30 602 C 54.8616 0.910057 1.64619 0
M  V30 603 O 54.2196 -0.128598 1.80843 0
M  V30 604 C 54.2676 3.34905 1.33683 0
M  V30 605 O 53.3716 3.31574 2.45219 0
M  V30 606 H 52.7126 0.641205 0.172489 0
M  V30 607 H 55.2426 2.04372 -0.0965621 0
M  V30 608 H 55.2526 3.71234 1.69262 0
M  V30 609 H 53.9276 4.11366 0.612411 0
M  V30 610 H 52.5046 3.06968 2.11719 0
M  V30 611 N 54.6897 -0.239769 1.55765 0
M  V30 612 C 55.9377 -0.964892 1.77579 0
M  V30 613 C 56.2587 -1.85582 0.598699 0
M  V30 614 O 55.5287 -1.92075 -0.385226 0
M  V30 615 H 54.1087 -0.359265 0.654933 0
M  V30 616 H 56.7707 -0.256001 1.93211 0
M  V30 617 H 55.8667 -1.58243 2.69009 0
M  V30 618 N 56.1678 -1.49265 -0.50573 0
M  V30 619 C 57.3958 -1.62215 -1.28429 0
M  V30 620 C 57.8108 -0.291697 -1.86533 0
M  V30 621 O 57.1678 0.722233 -1.67601 0
M  V30 622 C 57.2188 -2.68735 -2.41793 0
M  V30 623 O 56.9398 -3.96619 -1.86078 0
M  V30 624 C 58.4408 -2.92346 -3.3324 0
M  V30 625 H 55.6608 -0.546239 -0.389697 0
M  V30 626 H 58.2048 -1.95265 -0.607609 0
M  V30 627 H 56.3598 -2.38476 -3.053 0
M  V30 628 H 56.7738 -4.55256 -2.60465 0
M  V30 629 H 58.2478 -3.70623 -4.09075 0
M  V30 630 H 58.7248 -2.02081 -3.89948 0
M  V30 631 H 59.3308 -3.24003 -2.75503 0
M  V30 632 N 57.6459 0.756429 -1.3826 0
M  V30 633 C 58.5929 1.87011 -1.35261 0
M  V30 634 C 59.5629 1.64695 -0.215616 0
M  V30 635 O 60.7479 1.864 -0.407399 0
M  V30 636 C 57.8879 3.24275 -1.18068 0
M  V30 637 C 57.0009 3.58442 -2.41129 0
M  V30 638 C 56.1359 4.84994 -2.16689 0
M  V30 639 C 55.1749 5.11939 -3.35537 0
M  V30 640 N 54.3119 6.29685 -3.10549 0
M  V30 641 H 59.1519 1.8891 -2.30472 0
M  V30 642 H 56.6889 0.923373 -1.14509 0
M  V30 643 H 58.6469 4.03479 -1.06116 0
M  V30 644 H 57.2769 3.21711 -0.264973 0
M  V30 645 H 56.3289 2.74103 -2.63764 0
M  V30 646 H 57.6409 3.74283 -3.29717 0
M  V30 647 H 56.7949 5.72135 -2.01857 0
M  V30 648 H 55.5339 4.71286 -1.25462 0
M  V30 649 H 54.5389 4.23268 -3.50891 0
M  V30 650 H 55.7639 5.27546 -4.27635 0
M  V30 651 H 53.7099 6.17306 -2.21967 0
M  V30 652 H 53.6269 6.46014 -3.92686 0
M  V30 653 H 54.8949 7.19722 -2.99367 0
M  V30 654 N 59.124 1.23083 0.984299 0
M  V30 655 C 60.054 1.03292 2.09411 0
M  V30 656 C 61.035 -0.048923 1.7003 0
M  V30 657 O 62.22 0.114967 1.93859 0
M  V30 658 C 59.35 0.619155 3.41736 0
M  V30 659 C 58.304 1.64791 3.95004 0
M  V30 660 C 57.63 1.0897 5.23478 0
M  V30 661 C 58.93 3.03999 4.24714 0
M  V30 662 H 60.624 1.96119 2.26225 0
M  V30 663 H 58.17 0.944344 1.08711 0
M  V30 664 H 60.123 0.467777 4.18796 0
M  V30 665 H 58.847 -0.344786 3.24775 0
M  V30 666 H 57.506 1.78721 3.20085 0
M  V30 667 H 57.154 0.11686 5.02864 0
M  V30 668 H 56.854 1.77704 5.60085 0
M  V30 669 H 58.378 0.950093 6.03163 0
M  V30 670 H 59.792 2.93393 4.92538 0
M  V30 671 H 58.189 3.69936 4.72512 0
M  V30 672 H 59.259 3.53285 3.32142 0
M  V30 673 N 60.6021 -1.18246 1.0419 0
M  V30 674 C 61.8501 -1.87886 0.744543 0
M  V30 675 C 62.1711 -1.8082 -0.730006 0
M  V30 676 O 61.4411 -1.22736 -1.52685 0
M  V30 677 H 60.0211 -0.695556 0.272417 0
M  V30 678 H 62.6831 -1.43494 1.31892 0
M  V30 679 H 61.7791 -2.9389 1.05049 0
M  V30 680 N 62.0802 -0.821533 -1.34494 0
M  V30 681 C 63.3202 -0.414785 -2.00147 0
M  V30 682 C 63.6842 1.00299 -1.6372 0
M  V30 683 O 64.8852 1.51255 -2.22206 0
M  V30 684 C 63.1562 -0.609403 -3.52166 0
M  V30 685 S 64.7152 -0.295297 -4.37805 0
M  V30 686 H 61.5332 -0.15679 -0.693497 0
M  V30 687 H 64.1352 -1.06705 -1.63812 0
M  V30 688 H 62.8392 -1.64096 -3.76166 0
M  V30 689 H 62.3702 0.0576414 -3.93358 0
M  V30 690 H 64.3852 0.891531 -4.88125 0
M  V30 691 N 63.5583 1.46682 -0.576371 0
M  V30 692 C 64.8063 2.02013 -0.0594163 0
M  V30 693 C 65.1273 1.45101 1.30271 0
M  V30 694 O 64.3973 0.633317 1.8538 0
M  V30 695 H 62.9773 0.746759 -0.0189745 0
M  V30 696 H 65.6393 1.79862 -0.750717 0
M  V30 697 H 64.7353 3.12097 0.014345 0
M  V30 698 N 65.0364 0.313813 1.54444 0
M  V30 699 C 65.9464 -0.565714 2.27677 0
M  V30 700 C 66.9624 -1.13754 1.31666 0
M  V30 701 O 68.1384 -1.15959 1.64668 0
M  V30 702 C 65.2034 -1.71528 3.01296 0
M  V30 703 C 64.2644 -1.17624 4.12872 0
M  V30 704 C 63.4974 -2.27102 4.8297 0
M  V30 705 O 63.7204 -3.47256 4.52514 0
M  V30 706 O 62.6544 -1.9307 5.70094 0
M  V30 707 H 66.4804 0.0287296 3.03686 0
M  V30 708 H 64.0654 0.0798312 1.49187 0
M  V30 709 H 65.9474 -2.38476 3.4743 0
M  V30 710 H 64.6224 -2.29608 2.2817 0
M  V30 711 H 63.5294 -0.472124 3.71109 0
M  V30 712 H 64.8624 -0.640695 4.88012 0
M  V30 713 N 66.5145 -1.57545 0.0417849 0
M  V30 714 C 67.7625 -1.91937 -0.632829 0
M  V30 715 C 68.0835 -0.919978 -1.71934 0
M  V30 716 O 67.3535 0.0366064 -1.95866 0
M  V30 717 H 65.9335 -0.708493 -0.236742 0
M  V30 718 H 68.5955 -1.9468 0.0925745 0
M  V30 719 H 67.6915 -2.92912 -1.07746 0
M  V30 720 N 67.9926 0.231505 -1.5589 0
M  V30 721 C 69.2406 0.955461 -1.78088 0
M  V30 722 C 69.5616 1.85262 -0.608533 0
M  V30 723 O 68.8316 1.92277 0.375035 0
M  V30 724 H 67.4116 0.355787 -0.656829 0
M  V30 725 H 70.0736 0.245751 -1.93344 0
M  V30 726 H 69.1696 1.56814 -2.69844 0
M  V30 727 N 69.4707 1.49531 0.497807 0
M  V30 728 C 70.7107 1.60799 1.26187 0
M  V30 729 C 71.0747 0.289627 1.89803 0
M  V30 730 O 72.2757 0.277512 2.67364 0
M  V30 731 C 70.5467 2.73729 2.29798 0
M  V30 732 S 72.1057 3.04968 3.155 0
M  V30 733 H 68.9237 0.567145 0.428798 0
M  V30 734 H 71.5257 1.87204 0.563477 0
M  V30 735 H 70.2297 3.68036 1.81597 0
M  V30 736 H 69.7607 2.49328 3.04301 0
M  V30 737 H 71.7757 2.46735 4.30507 0
M  V30 738 N 70.9488 -0.749086 1.3866 0
M  V30 739 C 72.1968 -1.50535 1.34847 0
M  V30 740 C 72.5178 -1.94909 -0.0595016 0
M  V30 741 O 71.7878 -1.67973 -1.00806 0
M  V30 742 H 70.3678 -0.558395 0.49619 0
M  V30 743 H 73.0298 -0.890165 1.73384 0
M  V30 744 H 72.1258 -2.39413 2.00219 0
M  V30 745 N 72.4269 -1.23603 -0.977757 0
M  V30 746 C 73.3899 -1.02069 -2.05218 0
M  V30 747 C 74.3899 0.0184305 -1.60789 0
M  V30 748 O 75.5799 -0.221569 -1.72785 0
M  V30 749 C 72.7119 -0.544926 -3.36517 0
M  V30 750 H 73.9049 -1.9742 -2.25755 0
M  V30 751 H 71.4579 -1.05684 -1.15155 0
M  V30 752 H 72.1929 0.412241 -3.21669 0
M  V30 753 H 71.9779 -1.2948 -3.70105 0
M  V30 754 H 73.4679 -0.414985 -4.15533 0
M  V30 755 N 73.905 1.17692 -1.04816 0
M  V30 756 C 75.145 1.89545 -0.764979 0
M  V30 757 C 75.509 1.78979 0.695028 0
M  V30 758 O 76.71 2.45613 1.09215 0
M  V30 759 C 74.981 3.35659 -1.22751 0
M  V30 760 S 76.54 4.25526 -1.07112 0
M  V30 761 H 73.358 0.654432 -0.27792 0
M  V30 762 H 75.96 1.42163 -1.34201 0
M  V30 763 H 74.664 3.40882 -2.28533 0
M  V30 764 H 74.195 3.88083 -0.644594 0
M  V30 765 H 76.21 4.962 0.00697508 0
M  V30 766 N 75.3831 0.828654 1.34056 0
M  V30 767 C 76.6111 0.43262 2.02326 0
M  V30 768 C 77.0261 -0.963147 1.62385 0
M  V30 769 O 76.3831 -1.62425 0.832121 0
M  V30 770 C 76.4341 0.53182 3.57567 0
M  V30 771 O 76.1551 1.87258 3.96063 0
M  V30 772 C 77.6561 0.131422 4.43105 0
M  V30 773 H 74.8761 0.172923 0.648335 0
M  V30 774 H 77.4201 1.1184 1.71208 0
M  V30 775 H 75.5751 -0.105938 3.87255 0
M  V30 776 H 75.9891 1.85087 4.90758 0
M  V30 777 H 77.4631 0.251904 5.51425 0
M  V30 778 H 77.9401 -0.925645 4.29335 0
M  V30 779 H 78.5461 0.743207 4.18756 0
M  V30 780 N 76.8612 -1.46375 0.584142 0
M  V30 781 C 78.1072 -2.02678 0.0703716 0
M  V30 782 C 78.4402 -1.4545 -1.28678 0
M  V30 783 O 77.7152 -0.62014 -1.84349 0
M  V30 784 C 77.9982 -3.60099 0.00614674 0
M  V30 785 C 77.8512 -4.27709 1.3923 0
M  V30 786 C 79.1702 -4.34598 -0.693742 0
M  V30 787 H 76.2892 -0.736504 0.027047 0
M  V30 788 H 78.9312 -1.74501 0.751615 0
M  V30 789 H 77.0812 -3.84236 -0.574009 0
M  V30 790 H 78.7532 -4.14832 2.01773 0
M  V30 791 H 76.9962 -3.87016 1.95962 0
M  V30 792 H 77.6672 -5.36478 1.29982 0
M  V30 793 H 80.1432 -4.15615 -0.200869 0
M  V30 794 H 79.0192 -5.44318 -0.707714 0
M  V30 795 H 79.2802 -4.05759 -1.75533 0
M  V30 796 N 78.3393 -0.321999 -1.54275 0
M  V30 797 C 79.2723 0.58718 -2.20516 0
M  V30 798 C 80.2503 1.11693 -1.18167 0
M  V30 799 O 81.4343 1.18122 -1.46899 0
M  V30 800 C 78.5613 1.80554 -2.86562 0
M  V30 801 C 77.6073 1.40718 -4.02617 0
M  V30 802 S 78.4403 0.445218 -5.33646 0
M  V30 803 C 79.5963 1.6709 -6.03185 0
M  V30 804 H 79.8293 0.0244875 -2.9729 0
M  V30 805 H 77.3623 -0.106087 -1.54035 0
M  V30 806 H 79.3203 2.50462 -3.25237 0
M  V30 807 H 77.9813 2.33942 -2.09595 0
M  V30 808 H 77.1743 2.31501 -4.47687 0
M  V30 809 H 76.7763 0.78782 -3.65608 0
M  V30 810 H 79.0683 2.60856 -6.25268 0
M  V30 811 H 80.0113 1.26239 -6.96756 0
M  V30 812 H 80.4193 1.85716 -5.33076 0
M  V30 813 N 79.8174 1.5752 -0.0501392 0
M  V30 814 C 80.7474 2.14502 0.922566 0
M  V30 815 C 81.7284 1.06642 1.3252 0
M  V30 816 O 82.9134 1.34577 1.4001 0
M  V30 817 C 80.0434 2.68916 2.19776 0
M  V30 818 C 78.9974 3.8175 1.93523 0
M  V30 819 C 78.3234 4.22677 3.27487 0
M  V30 820 C 79.6234 5.06932 1.25765 0
M  V30 821 H 81.3174 2.9603 0.447952 0
M  V30 822 H 78.8634 1.42401 0.214024 0
M  V30 823 H 80.8164 3.07419 2.88222 0
M  V30 824 H 79.5404 1.84578 2.69441 0
M  V30 825 H 78.1994 3.43718 1.27489 0
M  V30 826 H 77.8474 3.35291 3.74952 0
M  V30 827 H 77.5474 4.98725 3.1072 0
M  V30 828 H 79.0714 4.63779 3.97166 0
M  V30 829 H 80.4854 5.42888 1.84244 0
M  V30 830 H 78.8824 5.88116 1.19328 0
M  V30 831 H 79.9524 4.84337 0.233536 0
M  V30 832 N 81.2955 -0.223234 1.56011 0
M  V30 833 C 82.5205 -0.968978 1.83373 0
M  V30 834 C 82.9455 -1.77227 0.630254 0
M  V30 835 O 82.3035 -1.76345 -0.420959 0
M  V30 836 C 82.3515 -1.86363 3.08709 0
M  V30 837 O 81.4555 -2.95873 2.87285 0
M  V30 838 H 80.7965 -0.274461 0.604622 0
M  V30 839 H 83.3265 -0.237056 2.03222 0
M  V30 840 H 83.3365 -2.27376 3.38768 0
M  V30 841 H 82.0115 -1.27319 3.95933 0
M  V30 842 H 80.5885 -2.58818 2.68454 0
M  V30 843 N 82.7736 -1.49793 -0.48987 0
M  V30 844 C 83.7206 -1.67281 -1.59014 0
M  V30 845 C 84.6906 -0.514177 -1.57941 0
M  V30 846 O 85.8756 -0.742533 -1.75759 0
M  V30 847 C 83.0156 -1.75569 -2.97102 0
M  V30 848 C 82.1286 -3.0281 -3.08107 0
M  V30 849 C 81.2636 -3.02008 -4.36995 0
M  V30 850 C 80.3026 -4.23782 -4.41673 0
M  V30 851 N 79.4396 -4.20826 -5.62005 0
M  V30 852 H 84.2796 -2.61224 -1.43409 0
M  V30 853 H 81.8166 -1.29508 -0.697565 0
M  V30 854 H 83.7746 -1.78354 -3.77155 0
M  V30 855 H 82.4046 -0.850827 -3.11385 0
M  V30 856 H 81.4566 -3.09584 -2.21047 0
M  V30 857 H 82.7686 -3.92801 -3.07423 0
M  V30 858 H 81.9226 -3.03418 -5.25378 0
M  V30 859 H 80.6616 -2.09815 -4.4026 0
M  V30 860 H 79.6666 -4.22604 -3.5169 0
M  V30 861 H 80.8916 -5.17181 -4.40115 0
M  V30 862 H 78.8376 -3.31476 -5.66091 0
M  V30 863 H 78.7546 -5.04564 -5.62984 0
M  V30 864 H 80.0226 -4.26355 -6.52565 0
M  V30 865 N 84.2517 0.741722 -1.39055 0
M  V30 866 C 85.4817 1.52876 -1.3897 0
M  V30 867 C 85.8897 1.8919 0.0193266 0
M  V30 868 O 85.2327 1.54138 0.999356 0
M  V30 869 C 85.2947 2.84929 -2.19216 0
M  V30 870 C 84.9587 2.71086 -3.67915 0
M  V30 871 C 85.9557 2.40084 -4.61146 0
M  V30 872 C 83.6407 2.88168 -4.11418 0
M  V30 873 C 85.6347 2.26335 -5.95862 0
M  V30 874 C 83.3217 2.74037 -5.46211 0
M  V30 875 C 84.3197 2.43166 -6.38247 0
M  V30 876 O 84.0077 2.29115 -7.70559 0
M  V30 877 H 83.7397 0.479252 -0.476753 0
M  V30 878 H 86.2937 0.924751 -1.83405 0
M  V30 879 H 84.5237 3.47564 -1.69518 0
M  V30 880 H 86.2127 3.46509 -2.11392 0
M  V30 881 H 86.9787 2.26545 -4.28838 0
M  V30 882 H 82.8577 3.11191 -3.40119 0
M  V30 883 H 86.4017 2.0216 -6.67665 0
M  V30 884 H 82.2987 2.87153 -5.78112 0
M  V30 885 H 83.0667 2.44237 -7.81211 0
M  V30 886 N 85.7298 1.2412 0.971189 0
M  V30 887 C 87.0068 0.986867 1.6888 0
M  V30 888 C 87.3868 -0.491857 2.0529 0
M  V30 889 O 86.7348 -1.46531 1.75331 0
M  V30 890 C 86.9448 1.9063 2.92338 0
M  V30 891 C 88.2928 2.17515 3.64654 0
M  V30 892 O 89.3168 1.88254 3.02388 0
M  V30 893 O 88.1758 2.6719 4.7673 0
M  V30 894 H 85.2698 0.372944 0.738134 0
M  V30 895 H 87.8158 1.35203 1.02559 0
M  V30 896 H 86.5878 2.90552 2.62097 0
M  V30 897 H 86.2108 1.54408 3.66393 0
M  V30 898 N 87.2079 -1.17134 1.05439 0
M  V30 899 C 88.6239 -1.39454 0.776201 0
M  V30 900 C 88.8239 -1.91454 -0.628307 0
M  V30 901 O 87.8799 -2.10777 -1.39031 0
M  V30 902 C 89.1929 -2.38305 1.83388 0
M  V30 903 C 90.7409 -2.52006 1.85639 0
M  V30 904 C 91.2159 -3.54133 2.90437 0
M  V30 905 N 92.7069 -3.61653 2.89415 0
M  V30 906 C 93.4419 -4.4044 3.67152 0
M  V30 907 N 92.9379 -5.22721 4.54681 0
M  V30 908 N 94.7309 -4.35337 3.55581 0
M  V30 909 H 86.8819 -0.817134 1.96053 0
M  V30 910 H 89.1449 -0.421626 0.849079 0
M  V30 911 H 88.8509 -2.07173 2.84204 0
M  V30 912 H 88.7249 -3.37841 1.67761 0
M  V30 913 H 91.1119 -2.82447 0.85486 0
M  V30 914 H 91.1929 -1.52537 2.05344 0
M  V30 915 H 90.8369 -3.24431 3.90777 0
M  V30 916 H 90.7669 -4.53313 2.67983 0
M  V30 917 H 93.2579 -3.02909 2.25952 0
M  V30 918 H 93.5709 -5.80027 5.10674 0
M  V30 919 H 91.9159 -5.22093 4.58741 0
M  V30 920 H 95.1069 -3.70112 2.86592 0
M  V30 921 H 95.2799 -4.96494 4.1641 0
M  V30 922 N 88.686 -0.835752 -1.33615 0
M  V30 923 C 89.616 -0.281739 -2.31794 0
M  V30 924 C 90.597 0.608833 -1.58831 0
M  V30 925 O 91.782 0.533035 -1.86741 0
M  V30 926 C 88.912 0.546612 -3.42971 0
M  V30 927 C 87.866 -0.247904 -4.27281 0
M  V30 928 C 87.192 0.704001 -5.30045 0
M  V30 929 C 88.492 -1.46324 -5.01385 0
M  V30 930 H 90.186 -1.10206 -2.78379 0
M  V30 931 H 87.732 -0.531388 -1.33837 0
M  V30 932 H 89.685 0.944467 -4.1068 0
M  V30 933 H 88.409 1.40011 -2.95067 0
M  V30 934 H 87.068 -0.627281 -3.61194 0
M  V30 935 H 86.716 1.55381 -4.78399 0
M  V30 936 H 86.416 0.176524 -5.87335 0
M  V30 937 H 87.94 1.09944 -6.0062 0
M  V30 938 H 89.354 -1.13871 -5.61877 0
M  V30 939 H 87.751 -1.92728 -5.6831 0
M  V30 940 H 88.821 -2.23467 -4.30338 0
M  V30 941 N 90.1641 1.46063 -0.591896 0
M  V30 942 C 91.0961 2.28539 0.174001 0
M  V30 943 C 92.1091 1.39047 0.846753 0
M  V30 944 O 93.2981 1.63564 0.714774 0
M  V30 945 C 90.3981 3.14347 1.26645 0
M  V30 946 C 89.5711 4.32021 0.683856 0
M  V30 947 C 88.6301 4.99157 1.66518 0
M  V30 948 O 87.6561 5.56458 1.19763 0
M  V30 949 N 88.8581 4.97005 2.99943 0
M  V30 950 H 91.6231 2.94911 -0.533633 0
M  V30 951 H 89.1841 1.56077 -0.430294 0
M  V30 952 H 91.1761 3.56125 1.92242 0
M  V30 953 H 89.7461 2.49988 1.87682 0
M  V30 954 H 88.9661 3.93915 -0.1498 0
M  V30 955 H 90.2541 5.08059 0.274567 0
M  V30 956 H 89.6521 4.51714 3.40545 0
M  V30 957 H 88.2091 5.42696 3.61004 0
M  V30 958 N 91.6422 0.330177 1.54103 0
M  V30 959 C 92.5902 -0.548226 2.26047 0
M  V30 960 C 93.5842 -1.11309 1.27698 0
M  V30 961 O 94.7902 -1.06036 1.45452 0
M  V30 962 H 91.1652 -0.195456 0.726155 0
M  V30 963 H 93.1362 0.0807567 2.98291 0
M  V30 964 C 91.8852 -1.69415 3.03634 0
M  V30 965 H 91.2082 -1.26876 3.79134 0
M  V30 966 H 92.6482 -2.28423 3.5721 0
M  V30 967 C 91.1072 -2.61569 2.12328 0
M  V30 968 O 91.6372 -3.63462 1.7105 0
M  V30 969 N 89.8432 -2.29952 1.77681 0
M  V30 970 H 89.3902 -1.47134 2.11446 0
M  V30 971 H 89.3482 -2.91871 1.16869 0
M  V30 972 N 93.1203 -1.57491 0.0584922 0
M  V30 973 C 94.0673 -2.11958 -0.913376 0
M  V30 974 C 95.0373 -1.02875 -1.30407 0
M  V30 975 O 96.2223 -1.30464 -1.39226 0
M  V30 976 C 93.3623 -2.67497 -2.18035 0
M  V30 977 C 92.4753 -3.90691 -1.84349 0
M  V30 978 C 91.6103 -4.3452 -3.05559 0
M  V30 979 C 90.6493 -5.50395 -2.67827 0
M  V30 980 N 89.7863 -5.89244 -3.81754 0
M  V30 981 H 94.6263 -2.94704 -0.442017 0
M  V30 982 H 92.1633 -1.45643 -0.206545 0
M  V30 983 H 94.1213 -2.978 -2.92183 0
M  V30 984 H 92.7513 -1.87537 -2.62735 0
M  V30 985 H 91.8033 -3.66934 -1.00319 0
M  V30 986 H 93.1153 -4.7489 -1.5258 0
M  V30 987 H 92.2693 -4.66414 -3.87998 0
M  V30 988 H 91.0083 -3.49147 -3.40511 0
M  V30 989 H 90.0133 -5.18165 -1.83806 0
M  V30 990 H 91.2383 -6.3749 -2.34059 0
M  V30 991 H 89.1843 -5.06823 -4.16493 0
M  V30 992 H 89.1013 -6.68151 -3.53708 0
M  V30 993 H 90.3693 -6.25756 -4.64811 0
M  V30 994 N 94.5984 0.214957 -1.56127 0
M  V30 995 C 95.8474 0.936451 -1.78643 0
M  V30 996 C 96.1604 1.85237 -0.628229 0
M  V30 997 O 97.3664 2.613 -0.737186 0
M  V30 998 C 95.8224 1.7154 -3.16389 0
M  V30 999 C 95.4304 0.845299 -4.39953 0
M  V30 1000 C 97.1744 2.42772 -3.48227 0
M  V30 1001 C 95.0814 1.62198 -5.68723 0
M  V30 1002 H 94.0114 0.353401 -0.666051 0
M  V30 1003 H 96.6624 0.190169 -1.82512 0
M  V30 1004 H 95.0444 2.50484 -3.06715 0
M  V30 1005 H 96.2184 0.0959353 -4.607 0
M  V30 1006 H 94.5334 0.244789 -4.1568 0
M  V30 1007 H 97.1304 3.01394 -4.41663 0
M  V30 1008 H 97.4734 3.15984 -2.71035 0
M  V30 1009 H 98.0064 1.70813 -3.5926 0
M  V30 1010 H 94.7454 0.933011 -6.48826 0
M  V30 1011 H 94.2654 2.34579 -5.52026 0
M  V30 1012 H 95.9444 2.18095 -6.09133 0
M  V30 1013 N 96.0765 1.50051 0.48192 0
M  V30 1014 C 97.3225 1.60736 1.2366 0
M  V30 1015 C 97.6555 0.301786 1.91841 0
M  V30 1016 O 96.9305 -0.696025 1.8162 0
M  V30 1017 C 97.2135 2.78009 2.28874 0
M  V30 1018 C 97.0665 4.18416 1.65069 0
M  V30 1019 C 98.3855 2.90867 3.30279 0
M  V30 1020 H 95.5045 0.585031 0.448228 0
M  V30 1021 H 98.1465 1.82402 0.531946 0
M  V30 1022 H 96.2965 2.59667 2.88973 0
M  V30 1023 H 97.9685 4.48322 1.0865 0
M  V30 1024 H 96.2115 4.23177 0.954148 0
M  V30 1025 H 96.8825 4.96381 2.41474 0
M  V30 1026 H 99.3585 3.07623 2.80191 0
M  V30 1027 H 98.2345 3.74566 4.01238 0
M  V30 1028 H 98.4955 2.01021 3.93755 0
M  V30 1029 N 97.5546 -0.734337 1.39446 0
M  V30 1030 C 98.5046 -1.83949 1.34709 0
M  V30 1031 C 99.4886 -1.59279 0.227851 0
M  V30 1032 O 100.681 -1.70771 0.465438 0
M  V30 1033 C 97.8096 -3.21884 1.19356 0
M  V30 1034 C 96.8956 -3.52381 2.35984 0
M  V30 1035 N 97.2866 -3.53811 3.61457 0
M  V30 1036 C 95.5846 -3.82747 2.28956 0
M  V30 1037 C 96.2856 -3.82122 4.38586 0
M  V30 1038 N 95.2616 -3.9993 3.68181 0
M  V30 1039 H 99.0636 -1.83361 2.29687 0
M  V30 1040 H 96.5776 -0.932609 1.32952 0
M  V30 1041 H 98.5746 -4.00998 1.14046 0
M  V30 1042 H 97.2346 -3.23711 0.253295 0
M  V30 1043 H 98.2456 -3.35107 3.94872 0
M  V30 1044 H 94.9226 -3.92175 1.43194 0
M  V30 1045 H 96.3126 -3.89691 5.47349 0
M  V30 1046 N 99.0327 -1.24633 -0.964593 0
M  V30 1047 C 100.28 -1.08788 -1.70796 0
M  V30 1048 C 100.608 0.372783 -1.90894 0
M  V30 1049 O 99.8627 1.29167 -1.47018 0
M  V30 1050 C 100.162 -1.7763 -3.10133 0
M  V30 1051 C 99.8277 -3.27557 -3.09866 0
M  V30 1052 C 98.4897 -3.6846 -3.09501 0
M  V30 1053 C 100.842 -4.23389 -3.03959 0
M  V30 1054 C 98.1697 -5.03624 -3.00965 0
M  V30 1055 C 100.522 -5.58565 -2.96965 0
M  V30 1056 C 99.1857 -5.98809 -2.9493 0
M  V30 1057 H 98.4557 -0.398084 -0.624988 0
M  V30 1058 H 101.103 -1.54777 -1.12767 0
M  V30 1059 H 99.4077 -1.24044 -3.71645 0
M  V30 1060 H 101.105 -1.62832 -3.66451 0
M  V30 1061 H 97.6947 -2.95006 -3.10917 0
M  V30 1062 H 101.879 -3.92787 -3.03368 0
M  V30 1063 H 97.1347 -5.33998 -2.97752 0
M  V30 1064 H 101.309 -6.32523 -2.91354 0
M  V30 1065 H 98.9357 -7.03505 -2.88071 0
M  V30 1066 N 100.511 1.16574 -1.06058 0
M  V30 1067 C 101.736 1.91493 -0.796562 0
M  V30 1068 C 102.161 1.76773 0.642868 0
M  V30 1069 O 101.519 1.09142 1.44768 0
M  V30 1070 C 101.567 3.40293 -1.19303 0
M  V30 1071 O 100.671 4.11074 -0.330394 0
M  V30 1072 H 100.012 0.596678 -0.291326 0
M  V30 1073 H 102.542 1.47708 -1.41575 0
M  V30 1074 H 102.552 3.91057 -1.16356 0
M  V30 1075 H 101.227 3.50326 -2.24153 0
M  V30 1076 H 99.8038 3.70513 -0.421225 0
M  V30 1077 N 101.989 0.842826 1.3317 0
M  V30 1078 C 102.952 0.284065 2.27433 0
M  V30 1079 C 103.952 -0.54948 1.5112 0
M  V30 1080 O 105.142 -0.362699 1.70382 0
M  V30 1081 C 102.274 -0.599384 3.35589 0
M  V30 1082 H 103.467 1.11589 2.78366 0
M  V30 1083 H 101.02 0.616221 1.4364 0
M  V30 1084 H 101.755 -1.45349 2.89904 0
M  V30 1085 H 101.54 -0.00291266 3.921 0
M  V30 1086 H 103.03 -0.983488 4.05854 0
M  V30 1087 N 103.467 -1.45747 0.599634 0
M  V30 1088 C 104.415 -2.322 -0.136426 0
M  V30 1089 C 105.409 -1.45497 -0.867583 0
M  V30 1090 O 106.615 -1.62027 -0.78405 0
M  V30 1091 H 102.99 -0.749368 -0.0628588 0
M  V30 1092 H 104.961 -2.92072 0.611281 0
M  V30 1093 C 103.71 -3.28974 -1.12567 0
M  V30 1094 H 103.033 -3.9568 -0.572484 0
M  V30 1095 H 104.473 -3.92212 -1.61077 0
M  V30 1096 C 102.932 -2.55561 -2.19523 0
M  V30 1097 O 103.462 -2.33111 -3.27143 0
M  V30 1098 N 101.668 -2.15832 -1.94589 0
M  V30 1099 H 101.215 -2.3429 -1.07078 0
M  V30 1100 H 101.173 -1.67034 -2.66359 0
M  V30 1101 N 104.945 -0.338344 -1.53925 0
M  V30 1102 C 105.908 0.508299 -2.23493 0
M  V30 1103 C 106.908 1.03175 -1.23335 0
M  V30 1104 O 108.098 0.921826 -1.47811 0
M  V30 1105 C 105.23 1.70754 -2.95052 0
M  V30 1106 H 106.423 -0.100058 -2.99733 0
M  V30 1107 H 103.976 -0.0896198 -1.56043 0
M  V30 1108 H 104.711 2.35474 -2.22986 0
M  V30 1109 H 104.496 1.33946 -3.68512 0
M  V30 1110 H 105.986 2.30818 -3.48013 0
M  V30 1111 N 106.423 1.57458 -0.0668435 0
M  V30 1112 C 107.663 1.95175 0.607116 0
M  V30 1113 C 108.027 0.946039 1.67075 0
M  V30 1114 O 109.228 1.2107 2.39991 0
M  V30 1115 C 107.499 3.37582 1.17358 0
M  V30 1116 S 109.058 3.97271 1.86336 0
M  V30 1117 H 105.876 0.682604 0.19893 0
M  V30 1118 H 108.478 1.95002 -0.139519 0
M  V30 1119 H 107.182 4.08566 0.387553 0
M  V30 1120 H 106.713 3.41288 1.95669 0
M  V30 1121 H 108.728 3.83772 3.14537 0
M  V30 1122 N 107.901 -0.206675 1.56239 0
M  V30 1123 C 108.831 -1.25909 1.96645 0
M  V30 1124 C 109.812 -1.48097 0.836734 0
M  V30 1125 O 110.997 -1.6003 1.10019 0
M  V30 1126 C 108.127 -2.6058 2.29599 0
M  V30 1127 C 107.081 -2.53024 3.452 0
M  V30 1128 C 106.407 -3.91861 3.63798 0
M  V30 1129 C 107.707 -2.06524 4.79734 0
M  V30 1130 H 109.401 -0.923369 2.84806 0
M  V30 1131 H 106.947 -0.442735 1.37025 0
M  V30 1132 H 108.9 -3.34375 2.56459 0
M  V30 1133 H 107.624 -2.95869 1.38307 0
M  V30 1134 H 106.283 -1.81684 3.18412 0
M  V30 1135 H 105.931 -4.24483 2.69857 0
M  V30 1136 H 105.631 -3.87683 4.4156 0
M  V30 1137 H 107.155 -4.67296 3.93022 0
M  V30 1138 H 108.569 -2.70072 5.05702 0
M  V30 1139 H 106.966 -2.13374 5.60885 0
M  V30 1140 H 108.036 -1.01802 4.74093 0
M  V30 1141 N 109.379 -1.50304 -0.473955 0
M  V30 1142 C 110.342 -1.6841 -1.55469 0
M  V30 1143 C 111.342 -0.554905 -1.50922 0
M  V30 1144 O 112.532 -0.821882 -1.53593 0
M  V30 1145 C 109.664 -1.70667 -2.95102 0
M  V30 1146 H 110.857 -2.64828 -1.40733 0
M  V30 1147 H 108.41 -1.39742 -0.700132 0
M  V30 1148 H 109.145 -0.75932 -3.15285 0
M  V30 1149 H 108.93 -2.52698 -2.9981 0
M  V30 1150 H 110.42 -1.8664 -3.73571 0
M  V30 1151 N 110.857 0.726932 -1.39834 0
M  V30 1152 C 112.268 1.30558 -1.3346 0
M  V30 1153 C 112.619 1.962 -0.00273003 0
M  V30 1154 O 111.744 1.96826 0.899371 0
M  V30 1155 C 112.339 2.37404 -2.41713 0
M  V30 1156 C 110.898 2.90921 -2.38835 0
M  V30 1157 C 110.045 1.64578 -2.2318 0
M  V30 1158 H 112.996 0.523862 -1.49804 0
M  V30 1159 H 113.017 3.17984 -2.08966 0
M  V30 1160 H 112.529 1.89599 -3.38635 0
M  V30 1161 H 110.63 3.42985 -1.45575 0
M  V30 1162 H 110.743 3.43487 -3.33997 0
M  V30 1163 H 109.107 1.89219 -1.70494 0
M  V30 1164 H 109.89 1.18814 -3.22084 0
M  V30 1165 N 112.336 1.25143 0.95797 0
M  V30 1166 C 113.585 1.0909 1.69654 0
M  V30 1167 C 113.898 -0.368548 1.92097 0
M  V30 1168 O 115.104 -0.649455 2.63618 0
M  V30 1169 C 113.56 1.90395 3.05414 0
M  V30 1170 C 113.168 3.4081 2.90779 0
M  V30 1171 C 114.912 1.82901 3.83076 0
M  V30 1172 C 112.819 4.14423 4.21909 0
M  V30 1173 H 111.749 0.404625 0.636235 0
M  V30 1174 H 114.4 1.4931 1.06672 0
M  V30 1175 H 112.782 1.42996 3.69281 0
M  V30 1176 H 113.956 3.95859 2.35865 0
M  V30 1177 H 112.271 3.49361 2.26575 0
M  V30 1178 H 114.868 2.35196 4.80195 0
M  V30 1179 H 115.211 0.796224 4.08615 0
M  V30 1180 H 115.744 2.28033 3.25954 0
M  V30 1181 H 112.483 5.18102 4.01561 0
M  V30 1182 H 112.003 3.64159 4.76601 0
M  V30 1183 H 113.682 4.21956 4.90471 0
M  V30 1184 N 113.814 -1.1601 1.06675 0
M  V30 1185 C 115.054 -1.88304 0.795037 0
M  V30 1186 C 115.418 -1.80062 -0.666466 0
M  V30 1187 O 116.619 -2.47319 -1.05293 0
M  V30 1188 C 114.89 -3.33664 1.28076 0
M  V30 1189 S 116.449 -4.23768 1.13868 0
M  V30 1190 H 113.267 -0.649928 0.288296 0
M  V30 1191 H 115.869 -1.4001 1.36445 0
M  V30 1192 H 114.573 -3.37203 2.33927 0
M  V30 1193 H 114.104 -3.87009 0.706253 0
M  V30 1194 H 116.119 -4.96148 0.0719668 0
M  V30 1195 N 115.292 -0.849877 -1.32721 0
M  V30 1196 C 116.517 -0.463856 -2.02146 0
M  V30 1197 C 116.942 0.930449 -1.63476 0
M  V30 1198 O 116.3 1.61033 -0.832952 0
M  V30 1199 C 116.348 -0.604955 -3.55489 0
M  V30 1200 O 115.452 0.36425 -4.10788 0
M  V30 1201 H 114.793 -0.187046 -0.637111 0
M  V30 1202 H 117.323 -1.14775 -1.69375 0
M  V30 1203 H 117.333 -0.490696 -4.05038 0
M  V30 1204 H 116.008 -1.62174 -3.82978 0
M  V30 1205 H 114.585 0.206628 -3.72327 0
M  V30 1206 N 116.77 1.45427 -0.607355 0
M  V30 1207 C 117.7 2.3329 0.0989352 0
M  V30 1208 C 118.681 1.46816 0.859007 0
M  V30 1209 O 119.866 1.75588 0.829604 0
M  V30 1210 C 116.996 3.29518 1.09705 0
M  V30 1211 C 115.95 4.25626 0.450206 0
M  V30 1212 C 115.276 5.11542 1.55655 0
M  V30 1213 C 116.576 5.18505 -0.628455 0
M  V30 1214 H 118.27 2.92595 -0.634716 0
M  V30 1215 H 115.816 1.40696 -0.306681 0
M  V30 1216 H 117.769 3.89855 1.59971 0
M  V30 1217 H 116.493 2.68372 1.86129 0
M  V30 1218 H 115.152 3.66586 -0.0315886 0
M  V30 1219 H 114.8 4.46765 2.31107 0
M  V30 1220 H 114.5 5.76647 1.12925 0
M  V30 1221 H 116.024 5.74748 2.06148 0
M  V30 1222 H 117.438 5.72916 -0.209877 0
M  V30 1223 H 115.835 5.92085 -0.977489 0
M  V30 1224 H 116.905 4.60948 -1.50514 0
M  V30 1225 N 118.248 0.346503 1.53744 0
M  V30 1226 C 119.198 -0.524953 2.21874 0
M  V30 1227 C 120.182 -1.06376 1.20718 0
M  V30 1228 O 121.374 -0.996972 1.46251 0
M  V30 1229 C 118.503 -1.6739 2.99726 0
M  V30 1230 C 117.589 -1.14888 4.08242 0
M  V30 1231 N 117.98 -0.345329 5.0462 0
M  V30 1232 C 116.278 -1.4255 4.22606 0
M  V30 1233 C 116.979 -0.0600706 5.81669 0
M  V30 1234 N 115.955 -0.65252 5.39669 0
M  V30 1235 H 119.757 0.0960091 2.93743 0
M  V30 1236 H 117.271 0.15352 1.61673 0
M  V30 1237 H 119.268 -2.3102 3.47038 0
M  V30 1238 H 117.928 -2.29811 2.29384 0
M  V30 1239 H 118.939 0.0138439 5.17898 0
M  V30 1240 H 115.616 -2.05389 3.63486 0
M  V30 1241 H 117.006 0.588321 6.69319 0
M  V30 1242 N 119.726 -1.57421 0.075193 0
M  V30 1243 C 120.676 -2.09441 -0.901025 0
M  V30 1244 C 121.66 -1.00486 -1.25663 0
M  V30 1245 O 122.852 -1.2679 -1.23504 0
M  V30 1246 C 119.981 -2.66233 -2.16737 0
M  V30 1247 C 119.067 -3.82198 -1.83808 0
M  V30 1248 N 119.458 -4.91028 -1.21345 0
M  V30 1249 C 117.756 -3.91558 -2.13538 0
M  V30 1250 C 118.457 -5.71852 -1.06585 0
M  V30 1251 N 117.433 -5.20233 -1.57667 0
M  V30 1252 H 121.235 -2.90972 -0.413815 0
M  V30 1253 H 118.749 -1.6189 -0.128601 0
M  V30 1254 H 120.746 -3.01819 -2.87595 0
M  V30 1255 H 119.406 -1.8615 -2.66042 0
M  V30 1256 H 120.417 -5.10323 -0.88268 0
M  V30 1257 H 117.094 -3.22454 -2.65197 0
M  V30 1258 H 118.484 -6.69401 -0.578933 0
M  V30 1259 N 121.204 0.198386 -1.56346 0
M  V30 1260 C 122.45 0.920648 -1.80698 0
M  V30 1261 C 122.783 1.83045 -0.648697 0
M  V30 1262 O 122.058 1.91308 0.350925 0
M  V30 1263 C 122.341 1.73971 -3.15287 0
M  V30 1264 C 122.194 0.85485 -4.41602 0
M  V30 1265 C 123.513 2.71296 -3.46535 0
M  V30 1266 H 120.632 0.333261 -0.657348 0
M  V30 1267 H 123.274 0.188198 -1.89066 0
M  V30 1268 H 121.424 2.36416 -3.08285 0
M  V30 1269 H 123.096 0.245362 -4.60647 0
M  V30 1270 H 121.339 0.161398 -4.335 0
M  V30 1271 H 122.01 1.46286 -5.32264 0
M  V30 1272 H 124.486 2.18983 -3.53816 0
M  V30 1273 H 123.362 3.2569 -4.41834 0
M  V30 1274 H 123.623 3.5018 -2.69864 0
M  V30 1275 N 122.682 1.50554 0.465978 0
M  V30 1276 C 123.645 1.69233 1.54574 0
M  V30 1277 C 124.645 0.562901 1.50626 0
M  V30 1278 O 125.835 0.830016 1.53155 0
M  V30 1279 C 122.967 1.7223 2.94193 0
M  V30 1280 H 124.16 2.65571 1.39327 0
M  V30 1281 H 121.713 1.40111 0.692711 0
M  V30 1282 H 122.448 0.77603 3.14878 0
M  V30 1283 H 122.233 2.54285 2.98466 0
M  V30 1284 H 123.723 1.88618 3.72576 0
M  V30 1285 N 124.16 -0.719506 1.40217 0
M  V30 1286 C 125.406 -1.48152 1.38488 0
M  V30 1287 C 125.739 -1.94195 -0.0141867 0
M  V30 1288 O 125.014 -1.67884 -0.982096 0
M  V30 1289 C 125.297 -2.71035 2.37091 0
M  V30 1290 C 125.15 -2.30912 3.86005 0
M  V30 1291 C 126.469 -3.73182 2.33288 0
M  V30 1292 H 123.588 -0.537395 0.504357 0
M  V30 1293 H 126.23 -0.821472 1.71324 0
M  V30 1294 H 124.38 -3.27352 2.0922 0
M  V30 1295 H 126.052 -1.80107 4.24687 0
M  V30 1296 H 124.295 -1.62958 4.02029 0
M  V30 1297 H 124.966 -3.18978 4.50508 0
M  V30 1298 H 127.442 -3.26485 2.57966 0
M  V30 1299 H 126.318 -4.56806 3.04334 0
M  V30 1300 H 126.579 -4.21202 1.34317 0
M  V30 1301 N 125.638 -1.25649 -0.95132 0
M  V30 1302 C 126.866 -1.13343 -1.73092 0
M  V30 1303 C 127.281 0.312434 -1.86197 0
M  V30 1304 O 126.638 1.21465 -1.36207 0
M  V30 1305 C 126.689 -1.78602 -3.14299 0
M  V30 1306 O 126.41 -3.17537 -3.01831 0
M  V30 1307 C 127.911 -1.72119 -4.08522 0
M  V30 1308 H 125.131 -0.395181 -0.542285 0
M  V30 1309 H 127.675 -1.66076 -1.19328 0
M  V30 1310 H 125.83 -1.29832 -3.64996 0
M  V30 1311 H 126.244 -3.49676 -3.90931 0
M  V30 1312 H 127.718 -2.22435 -5.052 0
M  V30 1313 H 128.195 -0.685635 -4.33815 0
M  V30 1314 H 128.801 -2.20393 -3.63741 0
M  V30 1315 N 127.117 1.15442 -1.07289 0
M  V30 1316 C 128.345 1.90096 -0.81676 0
M  V30 1317 C 128.76 1.7798 0.629966 0
M  V30 1318 O 128.117 1.1313 1.43206 0
M  V30 1319 C 128.168 3.40466 -1.21512 0
M  V30 1320 O 127.889 3.52232 -2.60508 0
M  V30 1321 C 129.39 4.32145 -0.988198 0
M  V30 1322 H 126.61 0.602495 -0.295366 0
M  V30 1323 H 129.154 1.4627 -1.42918 0
M  V30 1324 H 127.309 3.81958 -0.647039 0
M  V30 1325 H 127.723 4.45549 -2.76742 0
M  V30 1326 H 129.197 5.36072 -1.31645 0
M  V30 1327 H 129.674 4.39135 0.0755063 0
M  V30 1328 H 130.28 3.96395 -1.54115 0
M  V30 1329 N 128.595 0.856903 1.32268 0
M  V30 1330 C 129.841 0.462069 1.97466 0
M  V30 1331 C 130.174 -0.980298 1.67642 0
M  V30 1332 O 129.449 -1.68824 0.965858 0
M  V30 1333 C 129.732 0.704336 3.53145 0
M  V30 1334 C 129.585 2.19529 3.9259 0
M  V30 1335 C 130.904 0.1622 4.39801 0
M  V30 1336 H 128.023 0.169357 0.717278 0
M  V30 1337 H 130.665 1.07574 1.56614 0
M  V30 1338 H 128.815 0.181999 3.88073 0
M  V30 1339 H 130.487 2.78387 3.67829 0
M  V30 1340 H 128.73 2.67292 3.41668 0
M  V30 1341 H 129.401 2.31549 5.01088 0
M  V30 1342 H 131.877 0.608905 4.11621 0
M  V30 1343 H 130.753 0.361265 5.4771 0
M  V30 1344 H 131.014 -0.935158 4.32096 0
M  V30 1345 N 130.073 -1.45103 0.615059 0
M  V30 1346 C 130.983 -2.34382 -0.101034 0
M  V30 1347 C 131.999 -1.51681 -0.852585 0
M  V30 1348 O 133.175 -1.8446 -0.808484 0
M  V30 1349 C 130.24 -3.29417 -1.08099 0
M  V30 1350 C 129.301 -4.28025 -0.330577 0
M  V30 1351 C 128.534 -5.1852 -1.26385 0
M  V30 1352 O 128.757 -5.12598 -2.50198 0
M  V30 1353 O 127.691 -5.97122 -0.756866 0
M  V30 1354 H 131.517 -2.97033 0.632855 0
M  V30 1355 H 129.102 -1.4461 0.375293 0
M  V30 1356 H 130.984 -3.87958 -1.6452 0
M  V30 1357 H 129.659 -2.69321 -1.79577 0
M  V30 1358 H 128.566 -3.73078 0.276283 0
M  V30 1359 H 129.899 -4.90997 0.343866 0
M  V30 1360 N 131.551 -0.354651 -1.53558 0
M  V30 1361 C 132.799 0.237972 -2.00694 0
M  V30 1362 C 133.12 1.50173 -1.24391 0
M  V30 1363 O 132.39 1.92673 -0.354135 0
M  V30 1364 H 130.97 0.0909256 -0.741446 0
M  V30 1365 H 133.632 -0.478368 -1.88938 0
M  V30 1366 H 132.728 0.47264 -3.085 0
M  V30 1367 N 133.029 1.57378 -0.0835403 0
M  V30 1368 C 134.278 1.93106 0.582498 0
M  V30 1369 C 134.591 0.96651 1.70053 0
M  V30 1370 O 135.797 1.21705 2.42693 0
M  V30 1371 C 134.253 3.43076 1.08751 0
M  V30 1372 C 133.861 4.48 -0.000146404 0
M  V30 1373 C 135.605 3.87785 1.72694 0
M  V30 1374 C 133.512 5.89113 0.519568 0
M  V30 1375 H 132.442 0.720775 0.221358 0
M  V30 1376 H 135.093 1.82821 -0.157675 0
M  V30 1377 H 133.475 3.48474 1.88101 0
M  V30 1378 H 134.649 4.54233 -0.775199 0
M  V30 1379 H 132.964 4.1283 -0.54406 0
M  V30 1380 H 135.561 4.90604 2.1263 0
M  V30 1381 H 135.904 3.25796 2.59158 0
M  V30 1382 H 136.437 3.8504 0.999457 0
M  V30 1383 H 133.176 6.54775 -0.308186 0
M  V30 1384 H 132.696 5.86376 1.26188 0
M  V30 1385 H 134.375 6.39346 0.992237 0
M  V30 1386 N 134.507 -0.190092 1.56449 0
M  V30 1387 C 135.755 -0.907908 1.80559 0
M  V30 1388 C 136.076 -1.83583 0.657438 0
M  V30 1389 O 135.346 -1.93203 -0.323924 0
M  V30 1390 H 133.926 -0.338247 0.666032 0
M  V30 1391 H 136.588 -0.194403 1.93928 0
M  V30 1392 H 135.684 -1.49604 2.73907 0
M  V30 1393 N 135.985 -1.50799 -0.457987 0
M  V30 1394 C 137.21 -1.66496 -1.23668 0
M  V30 1395 C 137.635 -0.353288 -1.84752 0
M  V30 1396 O 136.993 0.684346 -1.67888 0
M  V30 1397 C 137.041 -2.76763 -2.3116 0
M  V30 1398 O 136.145 -2.38928 -3.36136 0
M  V30 1399 H 135.486 -0.555828 -0.363252 0
M  V30 1400 H 138.016 -1.9725 -0.543474 0
M  V30 1401 H 138.026 -3.00232 -2.76269 0
M  V30 1402 H 136.701 -3.71954 -1.86073 0
M  V30 1403 H 135.278 -2.25953 -2.96647 0
M  V30 1404 N 137.463 0.71206 -1.40597 0
M  V30 1405 C 138.691 1.50111 -1.42388 0
M  V30 1406 C 139.106 1.88784 -0.0245395 0
M  V30 1407 O 138.463 1.55681 0.952351 0
M  V30 1408 C 138.514 2.7742 -2.31776 0
M  V30 1409 O 138.235 2.40382 -3.66262 0
M  V30 1410 C 139.736 3.7129 -2.42196 0
M  V30 1411 H 136.956 0.46314 -0.485533 0
M  V30 1412 H 139.5 0.878068 -1.8469 0
M  V30 1413 H 137.655 3.36001 -1.92827 0
M  V30 1414 H 138.069 3.22324 -4.13772 0
M  V30 1415 H 139.543 4.57448 -3.08943 0
M  V30 1416 H 140.02 4.14641 -1.44809 0
M  V30 1417 H 140.626 3.18619 -2.81712 0
M  V30 1418 N 138.941 1.26152 0.944643 0
M  V30 1419 C 139.888 1.07408 2.04285 0
M  V30 1420 C 140.858 -0.0198413 1.66088 0
M  V30 1421 O 142.043 0.139264 1.90291 0
M  V30 1422 C 139.183 0.70945 3.37729 0
M  V30 1423 C 138.296 1.87926 3.88983 0
M  V30 1424 C 137.431 1.45807 5.10797 0
M  V30 1425 C 136.47 2.5964 5.54305 0
M  V30 1426 N 135.607 2.18226 6.67324 0
M  V30 1427 H 140.447 2.01389 2.1965 0
M  V30 1428 H 137.984 1.00275 1.07626 0
M  V30 1429 H 139.942 0.478948 4.14442 0
M  V30 1430 H 138.572 -0.193389 3.2222 0
M  V30 1431 H 137.624 2.22279 3.08701 0
M  V30 1432 H 138.936 2.73377 4.17213 0
M  V30 1433 H 138.09 1.18781 5.94959 0
M  V30 1434 H 136.829 0.574414 4.84305 0
M  V30 1435 H 135.834 2.87399 4.68702 0
M  V30 1436 H 137.059 3.48599 5.828 0
M  V30 1437 H 135.005 1.3229 6.42523 0
M  V30 1438 H 134.922 2.97221 6.95123 0
M  V30 1439 H 136.19 1.94403 7.54869 0
M  V30 1440 N 140.419 -1.14872 1.07899 0
M  V30 1441 C 141.647 -1.89661 0.82683 0
M  V30 1442 C 142.062 -1.78312 -0.620519 0
M  V30 1443 O 141.419 -1.13888 -1.42604 0
M  V30 1444 C 141.47 -3.39817 1.23316 0
M  V30 1445 O 141.191 -3.50845 2.62372 0
M  V30 1446 C 142.692 -4.31615 1.0111 0
M  V30 1447 H 139.912 -0.60092 0.298557 0
M  V30 1448 H 142.456 -1.4551 1.43691 0
M  V30 1449 H 140.611 -3.8161 0.667286 0
M  V30 1450 H 141.025 -4.44076 2.79101 0
M  V30 1451 H 142.499 -5.35367 1.34486 0
M  V30 1452 H 142.976 -4.39169 -0.0522168 0
M  V30 1453 H 143.582 -3.95572 1.56215 0
M  V30 1454 N 141.898 -0.863906 -1.31812 0
M  V30 1455 C 143.314 -0.555004 -1.49639 0
M  V30 1456 C 143.514 0.912266 -1.79666 0
M  V30 1457 O 142.57 1.69479 -1.87171 0
M  V30 1458 C 143.883 -1.44998 -2.63431 0
M  V30 1459 C 145.431 -1.45138 -2.77316 0
M  V30 1460 C 145.906 -2.33179 -3.94197 0
M  V30 1461 N 147.397 -2.31025 -4.01474 0
M  V30 1462 C 148.132 -2.95871 -4.9117 0
M  V30 1463 N 147.628 -3.69863 -5.8581 0
M  V30 1464 N 149.421 -2.85211 -4.84367 0
M  V30 1465 H 141.572 -1.81339 -1.10589 0
M  V30 1466 H 143.835 -0.77505 -0.545895 0
M  V30 1467 H 143.541 -2.49377 -2.48 0
M  V30 1468 H 143.415 -1.14409 -3.59431 0
M  V30 1469 H 145.802 -0.415201 -2.92164 0
M  V30 1470 H 145.883 -1.79747 -1.82001 0
M  V30 1471 H 145.527 -3.3687 -3.80107 0
M  V30 1472 H 145.457 -1.95897 -4.88807 0
M  V30 1473 H 147.948 -1.77238 -3.33759 0
M  V30 1474 H 148.261 -4.16486 -6.50968 0
M  V30 1475 H 146.606 -3.73971 -5.85808 0
M  V30 1476 H 149.797 -2.26948 -4.09405 0
M  V30 1477 H 149.97 -3.36027 -5.54066 0
M  V30 1478 N 143.376 1.44774 -0.622745 0
M  V30 1479 C 144.306 2.33382 0.0741861 0
M  V30 1480 C 145.287 1.47719 0.843387 0
M  V30 1481 O 146.472 1.76458 0.810934 0
M  V30 1482 C 143.602 3.30663 1.06204 0
M  V30 1483 C 142.556 4.26079 0.405037 0
M  V30 1484 C 141.882 5.13165 1.5022 0
M  V30 1485 C 143.182 5.1781 -0.683414 0
M  V30 1486 H 144.876 2.91905 -0.665713 0
M  V30 1487 H 142.422 1.40363 -0.321587 0
M  V30 1488 H 144.375 3.9153 1.55827 0
M  V30 1489 H 143.099 2.70331 1.83272 0
M  V30 1490 H 141.758 3.66532 -0.0704683 0
M  V30 1491 H 141.406 4.49191 2.26355 0
M  V30 1492 H 141.106 5.77812 1.06803 0
M  V30 1493 H 142.63 5.76902 2.00041 0
M  V30 1494 H 144.044 5.72661 -0.270631 0
M  V30 1495 H 142.441 5.91015 -1.04023 0
M  V30 1496 H 143.511 4.59326 -1.55395 0
M  V30 1497 N 144.854 0.36279 1.53368 0
M  V30 1498 C 145.804 -0.501391 2.22419 0
M  V30 1499 C 146.788 -1.0509 1.2184 0
M  V30 1500 O 147.98 -0.981404 1.47301 0
M  V30 1501 C 145.109 -1.64201 3.01484 0
M  V30 1502 C 144.195 -1.10552 4.09438 0
M  V30 1503 N 144.586 -0.291788 5.04958 0
M  V30 1504 C 142.884 -1.3806 4.24094 0
M  V30 1505 C 143.585 0.00162655 5.817 0
M  V30 1506 N 142.561 -0.595244 5.40331 0
M  V30 1507 H 146.363 0.127159 2.93625 0
M  V30 1508 H 143.877 0.170658 1.61501 0
M  V30 1509 H 145.874 -2.27326 3.49469 0
M  V30 1510 H 144.534 -2.27365 2.31809 0
M  V30 1511 H 145.545 0.0687731 5.17854 0
M  V30 1512 H 142.222 -2.01522 3.65644 0
M  V30 1513 H 143.612 0.659278 6.68658 0
M  V30 1514 N 146.332 -1.57332 0.0918853 0
M  V30 1515 C 147.743 -1.81496 -0.437739 0
M  V30 1516 C 148.094 -1.00727 -1.6837 0
M  V30 1517 O 147.219 -0.235694 -2.15113 0
M  V30 1518 C 147.814 -3.29197 -0.800939 0
M  V30 1519 C 146.373 -3.54136 -1.27532 0
M  V30 1520 C 145.52 -2.75979 -0.270392 0
M  V30 1521 H 148.471 -1.55494 0.317366 0
M  V30 1522 H 148.492 -3.42344 -1.66074 0
M  V30 1523 H 148.004 -3.87955 0.106078 0
M  V30 1524 H 146.105 -3.00705 -2.20016 0
M  V30 1525 H 146.218 -4.62792 -1.23938 0
M  V30 1526 H 144.582 -2.43349 -0.751872 0
M  V30 1527 H 145.365 -3.37484 0.629248 0
M  V30 1528 N 147.81 0.181792 -1.56548 0
M  V30 1529 C 149.056 0.901431 -1.81665 0
M  V30 1530 C 149.389 1.82347 -0.668075 0
M  V30 1531 O 148.664 1.91669 0.330615 0
M  V30 1532 C 148.947 1.70618 -3.17115 0
M  V30 1533 C 148.8 0.807964 -4.42484 0
M  V30 1534 C 150.119 2.67605 -3.49393 0
M  V30 1535 H 147.238 0.32627 -0.660846 0
M  V30 1536 H 149.88 0.168134 -1.89255 0
M  V30 1537 H 148.03 2.33133 -3.10775 0
M  V30 1538 H 149.702 0.19649 -4.60881 0
M  V30 1539 H 147.945 0.115411 -4.33646 0
M  V30 1540 H 148.616 1.40632 -5.33785 0
M  V30 1541 H 151.092 2.15218 -3.56118 0
M  V30 1542 H 149.968 3.20985 -4.45264 0
M  V30 1543 H 150.229 3.47298 -2.73563 0
M  V30 1544 N 149.288 1.51039 0.449983 0
M  V30 1545 C 150.22 1.67617 1.56324 0
M  V30 1546 C 151.233 0.557083 1.52972 0
M  V30 1547 O 152.422 0.830989 1.57977 0
M  V30 1548 C 149.522 1.66402 2.95235 0
M  V30 1549 C 148.695 2.9469 3.23229 0
M  V30 1550 C 147.754 2.85832 4.41799 0
M  V30 1551 O 146.78 3.59785 4.41071 0
M  V30 1552 N 147.982 2.00821 5.44657 0
M  V30 1553 H 150.747 2.63648 1.42512 0
M  V30 1554 H 148.308 1.48767 0.638737 0
M  V30 1555 H 150.3 1.58062 3.72557 0
M  V30 1556 H 148.87 0.780182 3.02708 0
M  V30 1557 H 148.09 3.16996 2.34323 0
M  V30 1558 H 149.378 3.79636 3.38754 0
M  V30 1559 H 148.776 1.40091 5.48079 0
M  V30 1560 H 147.333 1.98368 6.20881 0
M  V30 1561 N 150.766 -0.704594 1.40972 0
M  V30 1562 C 151.676 -1.84856 1.44448 0
M  V30 1563 C 152.692 -1.70726 0.335961 0
M  V30 1564 O 153.868 -1.92799 0.582276 0
M  V30 1565 C 150.933 -3.20758 1.31587 0
M  V30 1566 C 149.994 -3.47063 2.52677 0
M  V30 1567 C 149.227 -4.76481 2.4042 0
M  V30 1568 O 149.45 -5.52341 1.42391 0
M  V30 1569 O 148.384 -5.03367 3.30007 0
M  V30 1570 H 152.21 -1.8488 2.40942 0
M  V30 1571 H 149.795 -0.85647 1.22413 0
M  V30 1572 H 151.677 -4.01913 1.26665 0
M  V30 1573 H 150.352 -3.21438 0.382049 0
M  V30 1574 H 149.259 -2.65873 2.63177 0
M  V30 1575 H 150.592 -3.5119 3.44858 0
M  V30 1576 N 152.244 -1.26651 -0.937939 0
M  V30 1577 C 153.66 -1.03834 -1.21205 0
M  V30 1578 C 153.86 0.234502 -2.00131 0
M  V30 1579 O 152.916 0.942767 -2.3424 0
M  V30 1580 C 154.229 -2.27167 -1.97017 0
M  V30 1581 C 155.777 -2.32101 -2.09996 0
M  V30 1582 C 156.252 -3.55136 -2.8921 0
M  V30 1583 N 157.743 -3.55632 -2.96783 0
M  V30 1584 C 158.478 -4.475 -3.58512 0
M  V30 1585 N 157.974 -5.4966 -4.21717 0
M  V30 1586 N 159.767 -4.35145 -3.55816 0
M  V30 1587 H 151.918 -2.08398 -0.410391 0
M  V30 1588 H 154.181 -0.916031 -0.244114 0
M  V30 1589 H 153.887 -3.19765 -1.46434 0
M  V30 1590 H 153.761 -2.31672 -2.97671 0
M  V30 1591 H 156.148 -1.40015 -2.59769 0
M  V30 1592 H 156.229 -2.31605 -1.08594 0
M  V30 1593 H 155.873 -4.47553 -2.40123 0
M  V30 1594 H 155.803 -3.5288 -3.90875 0
M  V30 1595 H 158.294 -2.81743 -2.51852 0
M  V30 1596 H 158.607 -6.15943 -4.66727 0
M  V30 1597 H 156.952 -5.53514 -4.20294 0
M  V30 1598 H 160.143 -3.5455 -3.05634 0
M  V30 1599 H 160.316 -5.06934 -4.03636 0
M  V30 1600 N 153.722 1.14298 -1.08507 0
M  V30 1601 C 154.971 1.84708 -0.810305 0
M  V30 1602 C 155.284 1.83903 0.666271 0
M  V30 1603 O 156.49 2.50112 1.05624 0
M  V30 1604 C 154.946 3.31572 -1.39957 0
M  V30 1605 C 154.554 3.40791 -2.90801 0
M  V30 1606 C 156.298 4.07087 -1.20334 0
M  V30 1607 C 154.205 4.81872 -3.4286 0
M  V30 1608 H 153.135 0.691985 -0.299454 0
M  V30 1609 H 155.786 1.28841 -1.30661 0
M  V30 1610 H 154.168 3.87183 -0.830976 0
M  V30 1611 H 155.342 2.95225 -3.53806 0
M  V30 1612 H 153.657 2.78732 -3.0935 0
M  V30 1613 H 156.254 5.11225 -1.56693 0
M  V30 1614 H 156.597 4.16054 -0.143237 0
M  V30 1615 H 157.13 3.57779 -1.73893 0
M  V30 1616 H 153.869 4.78094 -4.48449 0
M  V30 1617 H 153.389 5.27972 -2.84615 0
M  V30 1618 H 155.068 5.50765 -3.39509 0
M  V30 1619 N 155.201 0.870884 1.31352 0
M  V30 1620 C 156.164 0.332243 2.26779 0
M  V30 1621 C 157.164 -0.517302 1.52252 0
M  V30 1622 O 158.354 -0.326477 1.71113 0
M  V30 1623 C 155.486 -0.528066 3.36785 0
M  V30 1624 H 156.679 1.17469 2.75937 0
M  V30 1625 H 154.232 0.64655 1.423 0
M  V30 1626 H 154.967 -1.39167 2.92922 0
M  V30 1627 H 154.752 0.0802582 3.92018 0
M  V30 1628 H 156.242 -0.897179 4.07849 0
M  V30 1629 N 156.679 -1.44442 0.630414 0
M  V30 1630 C 157.626 -2.30678 -0.0749355 0
M  V30 1631 C 158.596 -1.4344 -0.837502 0
M  V30 1632 O 159.781 -1.72343 -0.818684 0
M  V30 1633 C 156.921 -3.28706 -1.05103 0
M  V30 1634 C 156.034 -4.31046 -0.286954 0
M  V30 1635 C 155.169 -5.16167 -1.2548 0
M  V30 1636 C 154.208 -6.10216 -0.479843 0
M  V30 1637 N 153.345 -6.88039 -1.39811 0
M  V30 1638 H 158.185 -2.90454 0.666386 0
M  V30 1639 H 155.722 -1.43107 0.340404 0
M  V30 1640 H 157.68 -3.84027 -1.63031 0
M  V30 1641 H 156.31 -2.70632 -1.75949 0
M  V30 1642 H 155.362 -3.78203 0.408243 0
M  V30 1643 H 156.674 -4.97794 0.316657 0
M  V30 1644 H 155.828 -5.76002 -1.90544 0
M  V30 1645 H 154.567 -4.49491 -1.89233 0
M  V30 1646 H 153.572 -5.49491 0.184295 0
M  V30 1647 H 154.797 -6.78928 0.152965 0
M  V30 1648 H 152.743 -6.24032 -2.02287 0
M  V30 1649 H 152.66 -7.51223 -0.848508 0
M  V30 1650 H 153.928 -7.52397 -2.03762 0
M  V30 1651 N 158.157 -0.370918 -1.53173 0
M  V30 1652 C 159.382 0.220293 -2.06227 0
M  V30 1653 C 159.807 1.41243 -1.24225 0
M  V30 1654 O 159.165 1.79387 -0.262645 0
M  V30 1655 C 159.213 0.586663 -3.55796 0
M  V30 1656 O 158.317 1.68317 -3.76488 0
M  V30 1657 H 157.658 0.0308099 -0.663285 0
M  V30 1658 H 160.188 -0.533068 -1.97534 0
M  V30 1659 H 160.198 0.85617 -3.98916 0
M  V30 1660 H 158.873 -0.285013 -4.14922 0
M  V30 1661 H 157.45 1.40881 -3.45264 0
M  V30 1662 N 159.635 1.57281 -0.100228 0
M  V30 1663 C 160.585 2.10848 0.86759 0
M  V30 1664 C 161.569 1.02473 1.24049 0
M  V30 1665 O 162.761 1.28739 1.21471 0
M  V30 1666 C 159.89 2.69648 2.12474 0
M  V30 1667 C 158.976 3.85074 1.77704 0
M  V30 1668 N 159.367 4.92897 1.13518 0
M  V30 1669 C 157.665 3.94905 2.07282 0
M  V30 1670 C 158.366 5.73475 0.974735 0
M  V30 1671 N 157.342 5.22675 1.4937 0
M  V30 1672 H 161.144 2.91594 0.367471 0
M  V30 1673 H 158.658 1.62074 0.102829 0
M  V30 1674 H 160.655 3.06356 2.82757 0
M  V30 1675 H 159.315 1.90359 2.63047 0
M  V30 1676 H 160.326 5.11662 0.801381 0
M  V30 1677 H 157.003 3.26633 2.60033 0
M  V30 1678 H 158.393 6.70238 0.472364 0
M  V30 1679 N 161.113 -0.173488 1.56642 0
M  V30 1680 C 162.361 -0.888706 1.81512 0
M  V30 1681 C 162.682 -1.82875 0.676872 0
M  V30 1682 O 161.952 -1.93536 -0.303414 0
M  V30 1683 H 160.532 -0.331164 0.669582 0
M  V30 1684 H 163.194 -0.173823 1.94123 0
M  V30 1685 H 162.29 -1.46691 2.75478 0
M  V30 1686 N 162.591 -1.51276 -0.441967 0
M  V30 1687 C 163.816 -1.67799 -1.21895 0
M  V30 1688 C 164.241 -0.372864 -1.84367 0
M  V30 1689 O 163.599 0.666501 -1.68604 0
M  V30 1690 C 163.647 -2.79199 -2.28211 0
M  V30 1691 O 162.751 -2.42479 -3.33583 0
M  V30 1692 H 162.092 -0.559649 -0.357336 0
M  V30 1693 H 164.622 -1.97815 -0.522522 0
M  V30 1694 H 164.632 -3.03146 -2.73069 0
M  V30 1695 H 163.307 -3.73906 -1.82118 0
M  V30 1696 H 161.884 -2.29087 -2.94234 0
M  V30 1697 N 164.069 0.697108 -1.41344 0
M  V30 1698 C 165.001 1.8224 -1.39001 0
M  V30 1699 C 166.014 1.60152 -0.292428 0
M  V30 1700 O 167.203 1.69684 -0.554048 0
M  V30 1701 C 164.303 3.18976 -1.14489 0
M  V30 1702 C 163.476 3.68105 -2.36258 0
M  V30 1703 C 162.535 4.83506 -2.07625 0
M  V30 1704 O 161.561 4.95201 -2.8065 0
M  V30 1705 N 162.763 5.70637 -1.06555 0
M  V30 1706 H 165.528 1.84742 -2.35988 0
M  V30 1707 H 163.089 0.87937 -1.35936 0
M  V30 1708 H 165.081 3.93801 -0.932885 0
M  V30 1709 H 163.651 3.11508 -0.261043 0
M  V30 1710 H 162.871 2.84204 -2.7317 0
M  V30 1711 H 164.159 3.97667 -3.17393 0
M  V30 1712 H 163.557 5.63817 -0.461125 0
M  V30 1713 H 162.114 6.45368 -0.913444 0
M  V30 1714 N 165.547 1.27147 0.931209 0
M  V30 1715 C 166.787 1.14511 1.69312 0
M  V30 1716 C 167.151 -0.304638 1.89568 0
M  V30 1717 O 168.352 -0.553343 2.63043 0
M  V30 1718 C 166.623 1.90349 3.02493 0
M  V30 1719 S 168.182 1.93884 3.93642 0
M  V30 1720 H 165 0.408858 0.581684 0
M  V30 1721 H 167.602 1.61006 1.10893 0
M  V30 1722 H 166.306 2.94877 2.85439 0
M  V30 1723 H 165.837 1.44333 3.65966 0
M  V30 1724 H 167.852 1.03273 4.85334 0
M  V30 1725 N 167.025 -1.13721 1.09112 0
M  V30 1726 C 168.273 -1.84559 0.823562 0
M  V30 1727 C 168.594 -1.83754 -0.652658 0
M  V30 1728 O 167.864 -1.29102 -1.47342 0
M  V30 1729 H 166.444 -0.683376 0.301673 0
M  V30 1730 H 169.106 -1.37771 1.37859 0
M  V30 1731 H 168.202 -2.8917 1.17419 0
M  V30 1732 N 168.503 -0.877838 -1.30888 0
M  V30 1733 C 169.75 -0.492696 -1.96415 0
M  V30 1734 C 170.078 0.956671 -1.69346 0
M  V30 1735 O 169.333 1.68993 -0.986913 0
M  V30 1736 C 169.632 -0.705748 -3.50363 0
M  V30 1737 C 169.298 -2.1291 -3.97467 0
M  V30 1738 C 167.96 -2.51834 -4.1004 0
M  V30 1739 C 170.312 -3.05702 -4.22132 0
M  V30 1740 C 167.64 -3.82775 -4.44635 0
M  V30 1741 C 169.992 -4.36166 -4.58194 0
M  V30 1742 C 168.656 -4.74993 -4.68975 0
M  V30 1743 H 167.926 -0.18029 -0.718733 0
M  V30 1744 H 170.573 -1.11233 -1.55883 0
M  V30 1745 H 168.878 -0.00303058 -3.918 0
M  V30 1746 H 170.575 -0.387456 -3.99124 0
M  V30 1747 H 167.165 -1.81694 -3.88182 0
M  V30 1748 H 171.349 -2.76853 -4.11906 0
M  V30 1749 H 166.605 -4.12609 -4.51181 0
M  V30 1750 H 170.779 -5.08111 -4.76231 0
M  V30 1751 H 168.406 -5.76495 -4.95537 0
M  V30 1752 N 169.982 1.44106 -0.638065 0
M  V30 1753 C 171.222 2.03858 -0.148733 0
M  V30 1754 C 171.586 1.49153 1.20903 0
M  V30 1755 O 172.787 2.00452 1.79088 0
M  V30 1756 C 171.058 3.57117 -0.142314 0
M  V30 1757 S 172.617 4.37897 0.281385 0
M  V30 1758 H 169.435 0.708069 -0.0644912 0
M  V30 1759 H 172.037 1.7639 -0.843009 0
M  V30 1760 H 170.741 3.94436 -1.13349 0
M  V30 1761 H 170.272 3.89205 0.572988 0
M  V30 1762 H 172.287 4.72218 1.52395 0
M  V30 1763 N 171.46 0.379036 1.52974 0
M  V30 1764 C 172.688 -0.20679 2.05864 0
M  V30 1765 C 173.103 -1.41356 1.25155 0
M  V30 1766 O 172.46 -1.8009 0.295588 0
M  V30 1767 C 172.511 -0.587045 3.56702 0
M  V30 1768 O 172.232 0.571776 4.34353 0
M  V30 1769 C 173.733 -1.22983 4.25899 0
M  V30 1770 H 170.953 -0.0336123 0.670158 0
M  V30 1771 H 173.497 0.541298 1.97206 0
M  V30 1772 H 171.652 -1.28504 3.65466 0
M  V30 1773 H 172.066 0.261544 5.23847 0
M  V30 1774 H 173.54 -1.44635 5.32715 0
M  V30 1775 H 174.017 -2.19416 3.80465 0
M  V30 1776 H 174.623 -0.572892 4.21424 0
M  V30 1777 N 172.938 -1.57226 0.108567 0
M  V30 1778 C 174.349 -1.8195 -0.418464 0
M  V30 1779 C 174.7 -1.02508 -1.67292 0
M  V30 1780 O 173.825 -0.258496 -2.14851 0
M  V30 1781 C 174.42 -3.30028 -0.765979 0
M  V30 1782 C 172.979 -3.55469 -1.23769 0
M  V30 1783 C 172.126 -2.7625 -0.241106 0
M  V30 1784 H 175.077 -1.55149 0.33384 0
M  V30 1785 H 175.098 -3.44086 -1.62434 0
M  V30 1786 H 174.61 -3.87821 0.147219 0
M  V30 1787 H 172.711 -3.03022 -2.16814 0
M  V30 1788 H 172.824 -4.6408 -1.19022 0
M  V30 1789 H 171.188 -2.44133 -0.72602 0
M  V30 1790 H 171.971 -3.36797 0.665007 0
M  V30 1791 N 174.416 0.165178 -1.56732 0
M  V30 1792 C 175.664 0.879068 -1.8198 0
M  V30 1793 C 175.985 1.82514 -0.686561 0
M  V30 1794 O 175.255 1.93694 0.293146 0
M  V30 1795 H 173.835 0.327608 -0.671329 0
M  V30 1796 H 176.497 0.163526 -1.94213 0
M  V30 1797 H 175.593 1.45228 -2.76252 0
M  V30 1798 N 175.894 1.51508 0.433938 0
M  V30 1799 C 177.143 1.63578 1.18005 0
M  V30 1800 C 177.456 0.359514 1.92268 0
M  V30 1801 O 178.662 0.359632 2.69108 0
M  V30 1802 C 177.118 2.88901 2.14626 0
M  V30 1803 C 176.726 4.23544 1.45995 0
M  V30 1804 C 178.47 3.10328 2.89649 0
M  V30 1805 C 176.377 5.40014 2.4112 0
M  V30 1806 H 175.307 0.609277 0.444182 0
M  V30 1807 H 177.958 1.77978 0.446773 0
M  V30 1808 H 176.34 2.68142 2.91403 0
M  V30 1809 H 177.514 4.54696 0.747532 0
M  V30 1810 H 175.829 4.08021 0.831115 0
M  V30 1811 H 178.426 3.94518 3.60915 0
M  V30 1812 H 178.769 2.23544 3.51189 0
M  V30 1813 H 179.302 3.31443 2.19978 0
M  V30 1814 H 176.041 6.29068 1.84264 0
M  V30 1815 H 175.561 5.13233 3.10406 0
M  V30 1816 H 177.24 5.72099 3.02177 0
M  V30 1817 N 177.372 -0.689602 1.41712 0
M  V30 1818 C 178.618 -1.45181 1.41599 0
M  V30 1819 C 178.951 -1.94181 0.0270081 0
M  V30 1820 O 178.226 -1.6993 -0.946265 0
M  V30 1821 C 178.509 -2.65945 2.42787 0
M  V30 1822 C 178.362 -2.22672 3.90816 0
M  V30 1823 C 179.681 -3.68149 2.41151 0
M  V30 1824 H 176.8 -0.526576 0.515642 0
M  V30 1825 H 179.442 -0.784947 1.73028 0
M  V30 1826 H 177.592 -3.2284 2.16116 0
M  V30 1827 H 179.264 -1.71058 4.28412 0
M  V30 1828 H 177.507 -1.54394 4.05395 0
M  V30 1829 H 178.178 -3.0935 4.57172 0
M  V30 1830 H 180.654 -3.2094 2.64834 0
M  V30 1831 H 179.53 -4.50248 3.13955 0
M  V30 1832 H 179.791 -4.18259 1.43221 0
M  V30 1833 N 178.85 -1.27639 -0.924453 0
M  V30 1834 C 179.783 -1.04966 -2.02626 0
M  V30 1835 C 180.761 0.0309505 -1.62571 0
M  V30 1836 O 181.945 -0.114846 -1.8815 0
M  V30 1837 C 179.072 -0.59292 -3.3347 0
M  V30 1838 C 178.118 -1.66858 -3.92506 0
M  V30 1839 S 178.951 -3.2619 -4.24689 0
M  V30 1840 C 180.107 -2.82325 -5.58609 0
M  V30 1841 H 180.34 -1.98252 -2.21547 0
M  V30 1842 H 177.873 -1.11506 -1.06798 0
M  V30 1843 H 179.831 -0.336086 -4.09122 0
M  V30 1844 H 178.492 0.319939 -3.12466 0
M  V30 1845 H 177.685 -1.30038 -4.86935 0
M  V30 1846 H 177.287 -1.87766 -3.2345 0
M  V30 1847 H 179.579 -2.2783 -6.38044 0
M  V30 1848 H 180.522 -3.75511 -6.00331 0
M  V30 1849 H 180.93 -2.21367 -5.19285 0
M  V30 1850 N 180.328 1.1314 -1.09713 0
M  V30 1851 C 181.553 1.88862 -0.857081 0
M  V30 1852 C 181.978 1.78729 0.586304 0
M  V30 1853 O 181.336 1.13692 1.41222 0
M  V30 1854 C 181.384 3.36325 -1.30069 0
M  V30 1855 O 180.488 4.09815 -0.461007 0
M  V30 1856 H 179.829 0.587108 -0.310162 0
M  V30 1857 H 182.359 1.43129 -1.46203 0
M  V30 1858 H 182.369 3.87157 -1.28738 0
M  V30 1859 H 181.044 3.43017 -2.35185 0
M  V30 1860 H 179.621 3.68986 -0.538888 0
M  V30 1861 N 181.806 0.884767 1.30421 0
M  V30 1862 C 182.739 0.295999 2.26272 0
M  V30 1863 C 183.717 -0.58332 1.51777 0
M  V30 1864 O 184.901 -0.53346 1.80794 0
M  V30 1865 C 182.028 -0.57944 3.33707 0
M  V30 1866 C 181.074 0.230525 4.25877 0
M  V30 1867 S 181.907 1.61867 5.1045 0
M  V30 1868 C 183.063 0.749756 6.21393 0
M  V30 1869 H 183.296 1.10848 2.75862 0
M  V30 1870 H 180.829 0.684178 1.38414 0
M  V30 1871 H 182.787 -1.07879 3.96071 0
M  V30 1872 H 181.448 -1.36601 2.82841 0
M  V30 1873 H 180.641 -0.437542 5.02097 0
M  V30 1874 H 180.243 0.662493 3.68086 0
M  V30 1875 H 182.535 -0.0333547 6.77492 0
M  V30 1876 H 183.478 1.48356 6.92384 0
M  V30 1877 H 183.886 0.310751 5.63644 0
M  V30 1878 N 183.284 -1.43765 0.645699 0
M  V30 1879 C 184.514 -2.05953 0.163318 0
M  V30 1880 C 184.922 -1.48432 -1.17322 0
M  V30 1881 O 184.265 -0.607295 -1.73371 0
M  V30 1882 C 184.327 -3.59499 -0.0103065 0
M  V30 1883 C 183.991 -4.39563 1.25035 0
M  V30 1884 C 184.988 -4.72108 2.17739 0
M  V30 1885 C 182.673 -4.79697 1.48983 0
M  V30 1886 C 184.667 -5.43688 3.3269 0
M  V30 1887 C 182.354 -5.51023 2.64229 0
M  V30 1888 C 183.352 -5.8294 3.55908 0
M  V30 1889 O 183.04 -6.5281 4.69142 0
M  V30 1890 H 182.772 -0.670798 0.0836986 0
M  V30 1891 H 185.326 -1.85384 0.884407 0
M  V30 1892 H 183.556 -3.78613 -0.78669 0
M  V30 1893 H 185.245 -4.03408 -0.449087 0
M  V30 1894 H 186.011 -4.41627 2.00476 0
M  V30 1895 H 181.89 -4.54266 0.785078 0
M  V30 1896 H 185.434 -5.68517 4.04269 0
M  V30 1897 H 181.331 -5.8092 2.81429 0
M  V30 1898 H 182.099 -6.71288 4.6831 0
M  V30 1899 N 184.763 -0.387143 -1.52771 0
M  V30 1900 C 185.991 0.195869 -2.05971 0
M  V30 1901 C 186.406 1.40691 -1.25903 0
M  V30 1902 O 185.763 1.79931 -0.305134 0
M  V30 1903 C 185.814 0.56812 -3.57008 0
M  V30 1904 O 185.535 -0.594803 -4.34043 0
M  V30 1905 C 187.036 1.20723 -4.26545 0
M  V30 1906 H 184.256 0.0300578 -0.670326 0
M  V30 1907 H 186.8 -0.551749 -1.96916 0
M  V30 1908 H 184.955 1.26564 -3.66143 0
M  V30 1909 H 185.369 -0.289322 -5.23701 0
M  V30 1910 H 186.843 1.41807 -5.33474 0
M  V30 1911 H 187.32 2.17395 -3.81623 0
M  V30 1912 H 187.926 0.550535 -4.21722 0
M  V30 1913 N 186.241 1.57166 -0.116904 0
M  V30 1914 C 187.171 2.18222 0.830759 0
M  V30 1915 C 188.152 1.12167 1.27877 0
M  V30 1916 O 189.337 1.40394 1.34176 0
M  V30 1917 C 186.467 2.77996 2.08172 0
M  V30 1918 C 185.421 3.89614 1.77157 0
M  V30 1919 C 184.747 4.36187 3.09265 0
M  V30 1920 C 186.047 5.1181 1.04151 0
M  V30 1921 H 187.741 2.97664 0.321992 0
M  V30 1922 H 185.287 1.4318 0.153434 0
M  V30 1923 H 187.24 3.19366 2.74924 0
M  V30 1924 H 185.964 1.9584 2.6137 0
M  V30 1925 H 184.623 3.48816 1.12796 0
M  V30 1926 H 184.271 3.50893 3.60393 0
M  V30 1927 H 183.971 5.11455 2.89288 0
M  V30 1928 H 185.495 4.80207 3.77139 0
M  V30 1929 H 186.909 5.50214 1.61052 0
M  V30 1930 H 185.306 5.92648 0.942762 0
M  V30 1931 H 186.376 4.84892 0.0279022 0
M  V30 1932 N 187.719 -0.156864 1.56817 0
M  V30 1933 C 188.649 -1.19589 2.00551 0
M  V30 1934 C 189.63 -1.4536 0.883426 0
M  V30 1935 O 190.815 -1.56449 1.15054 0
M  V30 1936 C 187.945 -2.53143 2.37773 0
M  V30 1937 C 186.899 -2.41913 3.53075 0
M  V30 1938 C 186.225 -3.80088 3.76081 0
M  V30 1939 C 187.525 -1.91157 4.86062 0
M  V30 1940 H 189.219 -0.832293 2.87599 0
M  V30 1941 H 186.765 -0.398918 1.38364 0
M  V30 1942 H 188.718 -3.26047 2.66967 0
M  V30 1943 H 187.442 -2.91319 1.4765 0
M  V30 1944 H 186.101 -1.71462 3.24031 0
M  V30 1945 H 185.749 -4.15683 2.83225 0
M  V30 1946 H 185.449 -3.73439 4.53671 0
M  V30 1947 H 186.973 -4.54556 4.0769 0
M  V30 1948 H 188.387 -2.53846 5.14038 0
M  V30 1949 H 186.784 -1.95422 5.67389 0
M  V30 1950 H 187.854 -0.866673 4.77092 0
M  V30 1951 N 189.197 -1.51736 -0.425897 0
M  V30 1952 C 190.613 -1.40166 -0.76326 0
M  V30 1953 C 190.813 -0.492962 -1.95377 0
M  V30 1954 O 189.869 0.0475815 -2.52455 0
M  V30 1955 C 191.182 -2.82403 -1.03291 0
M  V30 1956 C 192.73 -2.91632 -1.13665 0
M  V30 1957 C 193.205 -4.34801 -1.43916 0
M  V30 1958 N 194.696 -4.3796 -1.50816 0
M  V30 1959 C 195.431 -5.4578 -1.75817 0
M  V30 1960 N 194.927 -6.63744 -1.98534 0
M  V30 1961 N 196.72 -5.33274 -1.77694 0
M  V30 1962 H 188.871 -2.09361 0.358 0
M  V30 1963 H 191.134 -0.942941 0.0978094 0
M  V30 1964 H 190.84 -3.50943 -0.230696 0
M  V30 1965 H 190.714 -3.22428 -1.95754 0
M  V30 1966 H 193.101 -2.23284 -1.92947 0
M  V30 1967 H 193.182 -2.55088 -0.190756 0
M  V30 1968 H 192.826 -5.03703 -0.65157 0
M  V30 1969 H 192.756 -4.68868 -2.39729 0
M  V30 1970 H 195.247 -3.52919 -1.35118 0
M  V30 1971 H 195.56 -7.41704 -2.17013 0
M  V30 1972 H 193.905 -6.66839 -1.95832 0
M  V30 1973 H 197.096 -4.40098 -1.59473 0
M  V30 1974 H 197.269 -6.1738 -1.9684 0
M  V30 1975 N 190.675 0.682077 -1.42076 0
M  V30 1976 C 191.623 1.81707 -1.45208 0
M  V30 1977 C 192.617 1.66183 -0.328591 0
M  V30 1978 O 193.823 1.7288 -0.501264 0
M  V30 1979 H 190.198 0.599014 -0.454628 0
M  V30 1980 H 192.169 1.76183 -2.40836 0
M  V30 1981 C 190.918 3.19816 -1.36428 0
M  V30 1982 H 190.241 3.32385 -2.22171 0
M  V30 1983 H 191.681 3.99272 -1.42681 0
M  V30 1984 C 190.14 3.36809 -0.078191 0
M  V30 1985 O 190.67 3.92124 0.87188 0
M  V30 1986 N 188.876 2.906 0.00229266 0
M  V30 1987 H 188.423 2.45772 -0.771616 0
M  V30 1988 H 188.381 3.02347 0.862179 0
M  V30 1989 N 192.153 1.28127 0.917671 0
M  V30 1990 C 193.085 1.07517 2.02417 0
M  V30 1991 C 194.098 0.0281099 1.62776 0
M  V30 1992 O 195.287 0.270748 1.76435 0
M  V30 1993 C 192.387 0.610957 3.33347 0
M  V30 1994 C 191.56 1.73255 4.01624 0
M  V30 1995 C 190.619 1.26238 5.10833 0
M  V30 1996 O 189.645 1.96389 5.34247 0
M  V30 1997 N 190.847 0.123448 5.80369 0
M  V30 1998 H 193.612 2.02806 2.20658 0
M  V30 1999 H 191.173 1.19827 1.08871 0
M  V30 2000 H 193.165 0.280101 4.0373 0
M  V30 2001 H 191.735 -0.24898 3.11607 0
M  V30 2002 H 190.955 2.23319 3.24842 0
M  V30 2003 H 192.243 2.48503 4.43986 0
M  V30 2004 H 191.641 -0.461847 5.63812 0
M  V30 2005 H 190.198 -0.148158 6.51632 0
M  V30 2006 N 193.631 -1.12557 1.10312 0
M  V30 2007 C 195.042 -1.65574 0.862678 0
M  V30 2008 C 195.393 -1.86566 -0.607256 0
M  V30 2009 O 194.518 -1.59121 -1.46662 0
M  V30 2010 C 195.113 -3.00776 1.55947 0
M  V30 2011 C 193.672 -3.50748 1.36576 0
M  V30 2012 C 192.819 -2.25797 1.60968 0
M  V30 2013 H 195.77 -0.963552 1.26101 0
M  V30 2014 H 195.791 -3.67185 0.997753 0
M  V30 2015 H 195.303 -2.85465 2.62928 0
M  V30 2016 H 193.404 -3.71245 0.317531 0
M  V30 2017 H 193.517 -4.30289 2.10686 0
M  V30 2018 H 191.881 -2.32841 1.03234 0
M  V30 2019 H 192.664 -2.13043 2.69198 0
M  V30 2020 N 195.109 -0.891671 -1.2995 0
M  V30 2021 C 196.019 -0.367691 -2.31701 0
M  V30 2022 C 197.035 0.533486 -1.6562 0
M  V30 2023 O 198.211 0.424997 -1.96865 0
M  V30 2024 C 195.276 0.403406 -3.44345 0
M  V30 2025 C 194.337 -0.528328 -4.26037 0
M  V30 2026 C 193.57 0.206063 -5.33302 0
M  V30 2027 O 193.793 1.43119 -5.52153 0
M  V30 2028 O 192.727 -0.447281 -6.00236 0
M  V30 2029 H 196.553 -1.21163 -2.78484 0
M  V30 2030 H 194.138 -0.655725 -1.34241 0
M  V30 2031 H 196.02 0.839753 -4.12948 0
M  V30 2032 H 194.695 1.22354 -2.99685 0
M  V30 2033 H 193.602 -1.01362 -3.60106 0
M  V30 2034 H 194.935 -1.31465 -4.74318 0
M  V30 2035 N 196.587 1.43421 -0.653314 0
M  V30 2036 C 197.998 1.85065 -0.246537 0
M  V30 2037 C 198.349 1.54688 1.2069 0
M  V30 2038 O 197.474 0.995896 1.92122 0
M  V30 2039 C 198.069 3.35922 -0.440666 0
M  V30 2040 C 196.628 3.76297 -0.0882064 0
M  V30 2041 C 195.775 2.67147 -0.743484 0
M  V30 2042 H 198.726 1.33572 -0.856979 0
M  V30 2043 H 198.747 3.79204 0.313798 0
M  V30 2044 H 198.259 3.58 -1.49858 0
M  V30 2045 H 196.36 3.5983 0.96711 0
M  V30 2046 H 196.473 4.76338 -0.513738 0
M  V30 2047 H 194.837 2.54086 -0.176712 0
M  V30 2048 H 195.62 2.92053 -1.80443 0
M  V30 2049 N 198.065 0.39524 1.52563 0
M  V30 2050 C 199.293 -0.184943 2.06072 0
M  V30 2051 C 199.708 -1.40021 1.26647 0
M  V30 2052 O 199.065 -1.79767 0.314672 0
M  V30 2053 C 199.116 -0.549179 3.57304 0
M  V30 2054 O 198.837 0.617813 4.33722 0
M  V30 2055 C 200.338 -1.18459 4.2718 0
M  V30 2056 H 197.558 -0.0265025 0.670476 0
M  V30 2057 H 200.102 0.562184 1.96621 0
M  V30 2058 H 198.257 -1.2462 3.66809 0
M  V30 2059 H 198.671 0.317091 5.23541 0
M  V30 2060 H 200.145 -1.38976 5.34219 0
M  V30 2061 H 200.622 -2.15368 3.82771 0
M  V30 2062 H 201.228 -0.528163 4.22008 0
M  V30 2063 N 199.544 -1.57102 0.125237 0
M  V30 2064 C 200.477 -2.11371 -0.860094 0
M  V30 2065 C 201.455 -1.03168 -1.25679 0
M  V30 2066 O 202.639 -1.30862 -1.35674 0
M  V30 2067 C 199.766 -2.61555 -2.1519 0
M  V30 2068 C 198.812 -3.81701 -1.9028 0
M  V30 2069 S 199.645 -5.23797 -1.11343 0
M  V30 2070 C 200.801 -5.77353 -2.41689 0
M  V30 2071 H 201.034 -2.94617 -0.39852 0
M  V30 2072 H 198.567 -1.54145 -0.0886555 0
M  V30 2073 H 200.525 -2.91122 -2.89411 0
M  V30 2074 H 199.186 -1.78479 -2.58465 0
M  V30 2075 H 198.379 -4.14985 -2.86014 0
M  V30 2076 H 197.981 -3.52783 -1.24178 0
M  V30 2077 H 200.273 -5.87458 -3.37489 0
M  V30 2078 H 201.216 -6.75323 -2.12942 0
M  V30 2079 H 201.624 -5.05457 -2.51342 0
M  V30 2080 N 201.022 0.148545 -1.56898 0
M  V30 2081 C 201.932 1.20293 -2.01412 0
M  V30 2082 C 202.948 1.47107 -0.929273 0
M  V30 2083 O 204.124 1.58807 -1.23863 0
M  V30 2084 C 201.189 2.51682 -2.38447 0
M  V30 2085 C 200.25 2.32529 -3.60872 0
M  V30 2086 C 199.483 3.57653 -3.96132 0
M  V30 2087 O 199.706 4.63771 -3.32073 0
M  V30 2088 O 198.64 3.50408 -4.89385 0
M  V30 2089 H 202.466 0.855025 -2.91416 0
M  V30 2090 H 200.051 0.357151 -1.45068 0
M  V30 2091 H 201.933 3.29147 -2.63135 0
M  V30 2092 H 200.608 2.86006 -1.51599 0
M  V30 2093 H 199.515 1.53019 -3.41373 0
M  V30 2094 H 200.848 2.03121 -4.48333 0
M  V30 2095 N 202.5 1.5196 0.417844 0
M  V30 2096 C 203.41 1.77554 1.53336 0
M  V30 2097 C 204.426 0.660655 1.6097 0
M  V30 2098 O 205.602 0.945099 1.77848 0
M  V30 2099 C 202.667 1.91291 2.89152 0
M  V30 2100 C 201.728 3.15183 2.91475 0
M  V30 2101 C 200.961 3.28256 4.20813 0
M  V30 2102 O 201.184 2.46798 5.14244 0
M  V30 2103 O 200.118 4.21356 4.29817 0
M  V30 2104 H 203.944 2.7222 1.34647 0
M  V30 2105 H 201.529 1.36698 0.602828 0
M  V30 2106 H 203.411 2.02199 3.69721 0
M  V30 2107 H 202.086 0.998129 3.07927 0
M  V30 2108 H 200.993 3.09739 2.09791 0
M  V30 2109 H 202.326 4.06414 2.77648 0
M  V30 2110 N 203.978 -0.674533 1.42435 0
M  V30 2111 C 205.227 -1.43034 1.42212 0
M  V30 2112 C 205.54 -1.95555 0.0420788 0
M  V30 2113 O 206.746 -2.71374 -0.0827558 0
M  V30 2114 C 205.202 -2.58748 2.50155 0
M  V30 2115 C 204.81 -2.12925 3.94166 0
M  V30 2116 C 206.554 -3.36257 2.59098 0
M  V30 2117 C 204.461 -3.25723 4.93618 0
M  V30 2118 H 203.391 -0.537345 0.528939 0
M  V30 2119 H 206.042 -0.73024 1.68344 0
M  V30 2120 H 204.424 -3.31128 2.17188 0
M  V30 2121 H 205.598 -1.47697 4.36488 0
M  V30 2122 H 203.913 -1.48354 3.89076 0
M  V30 2123 H 206.51 -4.20264 3.30578 0
M  V30 2124 H 206.853 -3.82866 1.63461 0
M  V30 2125 H 207.386 -2.70947 2.9126 0
M  V30 2126 H 204.125 -2.84105 5.90732 0
M  V30 2127 H 203.645 -3.89732 4.55926 0
M  V30 2128 H 205.324 -3.91186 5.15347 0
M  V30 2129 N 205.456 -1.28612 -0.910864 0
M  V30 2130 C 206.366 -1.14643 -2.0468 0
M  V30 2131 C 207.382 -0.0723121 -1.7385 0
M  V30 2132 O 208.558 -0.282178 -1.99413 0
M  V30 2133 C 205.623 -0.812561 -3.37044 0
M  V30 2134 C 204.684 -1.96935 -3.81465 0
M  V30 2135 C 203.917 -1.65131 -5.07511 0
M  V30 2136 O 204.14 -0.567013 -5.67575 0
M  V30 2137 O 203.074 -2.49585 -5.47714 0
M  V30 2138 H 206.9 -2.1001 -2.19384 0
M  V30 2139 H 204.485 -1.07958 -1.03274 0
M  V30 2140 H 206.367 -0.640441 -4.16505 0
M  V30 2141 H 205.042 0.111426 -3.23508 0
M  V30 2142 H 203.949 -2.19664 -3.02818 0
M  V30 2143 H 205.282 -2.87414 -3.99567 0
M  V30 2144 N 206.934 1.1197 -1.10907 0
M  V30 2145 C 207.882 2.19927 -0.757303 0
M  V30 2146 C 208.876 1.67564 0.248747 0
M  V30 2147 O 210.082 1.79672 0.108605 0
M  V30 2148 H 206.457 0.716925 -0.226987 0
M  V30 2149 H 208.428 2.46847 -1.67658 0
M  V30 2150 C 207.177 3.47061 -0.210671 0
M  V30 2151 H 206.5 3.87703 -0.976049 0
M  V30 2152 H 207.94 4.24 -0.0026584 0
M  V30 2153 C 206.399 3.19864 1.05777 0
M  V30 2154 O 206.929 3.40049 2.13845 0
M  V30 2155 N 205.135 2.73636 0.978349 0
M  V30 2156 H 204.682 2.5741 0.0988246 0
M  V30 2157 H 204.64 2.55815 1.82773 0
M  V30 2158 N 208.412 0.89855 1.29475 0
M  V30 2159 C 209.375 0.380272 2.26023 0
M  V30 2160 C 210.375 -0.484891 1.53315 0
M  V30 2161 O 211.565 -0.290108 1.71767 0
M  V30 2162 C 208.697 -0.45651 3.3783 0
M  V30 2163 H 209.89 1.23295 2.73383 0
M  V30 2164 H 207.443 0.676589 1.40897 0
M  V30 2165 H 208.178 -1.32922 2.95808 0
M  V30 2166 H 207.963 0.163393 3.91759 0
M  V30 2167 H 209.453 -0.810466 4.0966 0
M  V30 2168 N 209.89 -1.43072 0.660911 0
M  V30 2169 C 211.137 -2.01721 0.177445 0
M  V30 2170 C 211.465 -1.5218 -1.21126 0
M  V30 2171 O 210.72 -0.708659 -1.82419 0
M  V30 2172 C 211.019 -3.57103 0.145563 0
M  V30 2173 C 210.685 -4.26021 1.47705 0
M  V30 2174 C 209.347 -4.44563 1.84165 0
M  V30 2175 C 211.699 -4.64983 2.35458 0
M  V30 2176 C 209.027 -4.99334 3.0803 0
M  V30 2177 C 211.379 -5.21127 3.58622 0
M  V30 2178 C 210.043 -5.37884 3.95268 0
M  V30 2179 H 209.313 -0.73815 0.0649317 0
M  V30 2180 H 211.96 -1.71446 0.853144 0
M  V30 2181 H 210.265 -3.86965 -0.61361 0
M  V30 2182 H 211.962 -4.00248 -0.2455 0
M  V30 2183 H 208.552 -4.11939 1.18339 0
M  V30 2184 H 212.736 -4.50343 2.08579 0
M  V30 2185 H 207.992 -5.10493 3.36462 0
M  V30 2186 H 212.166 -5.50262 4.26831 0
M  V30 2187 H 209.793 -5.80089 4.91325 0
M  V30 2188 N 211.368 -0.403325 -1.52352 0
M  V30 2189 C 212.3 0.4603 -2.2453 0
M  V30 2190 C 213.313 1.01505 -1.27282 0
M  V30 2191 O 214.502 0.914982 -1.53266 0
M  V30 2192 C 211.602 1.65208 -2.95905 0
M  V30 2193 C 210.775 1.22224 -4.19976 0
M  V30 2194 C 209.834 2.28028 -4.74226 0
M  V30 2195 O 208.86 1.88857 -5.36956 0
M  V30 2196 N 210.062 3.6012 -4.55295 0
M  V30 2197 H 212.827 -0.158156 -2.99282 0
M  V30 2198 H 210.388 -0.230402 -1.60252 0
M  V30 2199 H 212.38 2.35541 -3.29093 0
M  V30 2200 H 210.95 2.17658 -2.24374 0
M  V30 2201 H 210.17 0.34725 -3.92668 0
M  V30 2202 H 211.458 0.911924 -5.00561 0
M  V30 2203 H 210.856 3.94698 -4.05253 0
M  V30 2204 H 209.413 4.26447 -4.92936 0
M  V30 2205 N 212.846 1.57033 -0.133567 0
M  V30 2206 C 214.094 1.953 0.519848 0
M  V30 2207 C 214.415 1.01866 1.66278 0
M  V30 2208 O 213.685 0.0776513 1.95746 0
M  V30 2209 H 212.265 0.721091 0.195032 0
M  V30 2210 H 214.927 1.93809 -0.205921 0
M  V30 2211 H 214.023 2.98695 0.904854 0
M  V30 2212 N 214.325 -0.140222 1.56975 0
M  V30 2213 C 215.273 -1.19207 1.99731 0
M  V30 2214 C 216.267 -1.44089 0.890777 0
M  V30 2215 O 217.473 -1.44301 1.07597 0
M  V30 2216 H 213.848 -0.40142 0.635898 0
M  V30 2217 H 215.819 -0.804813 2.87342 0
M  V30 2218 C 214.568 -2.51617 2.39967 0
M  V30 2219 H 213.891 -2.33303 3.24669 0
M  V30 2220 H 215.331 -3.23827 2.73701 0
M  V30 2221 C 213.79 -3.12654 1.25496 0
M  V30 2222 O 214.32 -3.97786 0.559371 0
M  V30 2223 N 212.526 -2.72206 1.01746 0
M  V30 2224 H 212.073 -2.03074 1.58489 0
M  V30 2225 H 212.031 -3.13377 0.253461 0
M  V30 2226 N 215.803 -1.52179 -0.40978 0
M  V30 2227 C 216.733 -1.78435 -1.5061 0
M  V30 2228 C 217.714 -0.635295 -1.57791 0
M  V30 2229 O 218.899 -0.880823 -1.73076 0
M  V30 2230 C 216.029 -1.93444 -2.88439 0
M  V30 2231 C 214.983 -3.09038 -2.96108 0
M  V30 2232 C 214.309 -3.09268 -4.36185 0
M  V30 2233 C 215.609 -4.48508 -2.67652 0
M  V30 2234 H 217.303 -2.70237 -1.28889 0
M  V30 2235 H 214.849 -1.30036 -0.618605 0
M  V30 2236 H 216.802 -2.10394 -3.65119 0
M  V30 2237 H 215.526 -0.983129 -3.11452 0
M  V30 2238 H 214.185 -2.91837 -2.21872 0
M  V30 2239 H 213.833 -2.11861 -4.56206 0
M  V30 2240 H 213.533 -3.86907 -4.42241 0
M  V30 2241 H 215.057 -3.28348 -5.14801 0
M  V30 2242 H 216.471 -4.65918 -3.34056 0
M  V30 2243 H 214.868 -5.28059 -2.85085 0
M  V30 2244 H 215.938 -4.56649 -1.63095 0
M  V30 2245 N 217.281 0.66697 -1.42791 0
M  V30 2246 C 218.521 1.43892 -1.4517 0
M  V30 2247 C 218.885 1.91877 -0.0687551 0
M  V30 2248 O 220.086 2.6878 0.0327455 0
M  V30 2249 C 218.357 2.59839 -2.45395 0
M  V30 2250 S 219.916 3.48572 -2.66539 0
M  V30 2251 H 216.734 0.491356 -0.513897 0
M  V30 2252 H 219.336 0.775656 -1.79454 0
M  V30 2253 H 218.04 2.22838 -3.44632 0
M  V30 2254 H 217.571 3.3103 -2.12562 0
M  V30 2255 H 219.586 4.56094 -1.95429 0
M  V30 2256 N 218.759 1.29093 0.90403 0
M  V30 2257 C 220.175 1.07011 1.1841 0
M  V30 2258 C 220.375 -0.181358 2.00682 0
M  V30 2259 O 219.431 -0.880331 2.36657 0
M  V30 2260 C 220.744 2.32311 1.90924 0
M  V30 2261 C 222.292 2.37587 2.03768 0
M  V30 2262 C 222.767 3.62679 2.79693 0
M  V30 2263 N 224.258 3.63376 2.87249 0
M  V30 2264 C 224.993 4.56848 3.46522 0
M  V30 2265 N 224.489 5.60648 4.06996 0
M  V30 2266 N 226.282 4.44426 3.44154 0
M  V30 2267 H 218.433 2.09412 0.354993 0
M  V30 2268 H 220.696 0.922181 0.219742 0
M  V30 2269 H 220.402 3.23536 1.37905 0
M  V30 2270 H 220.276 2.39483 2.91424 0
M  V30 2271 H 222.663 1.46853 2.55965 0
M  V30 2272 H 222.744 2.34403 1.02415 0
M  V30 2273 H 222.388 4.53762 2.28173 0
M  V30 2274 H 222.318 3.63119 3.81381 0
M  V30 2275 H 224.809 2.88321 2.44293 0
M  V30 2276 H 225.122 6.28101 4.50232 0
M  V30 2277 H 223.467 5.64463 4.05471 0
M  V30 2278 H 226.658 3.62529 2.96126 0
M  V30 2279 H 226.831 5.17457 3.90054 0
M  V30 2280 N 220.237 -1.11381 1.11499 0
M  V30 2281 C 221.477 -1.84763 0.874188 0
M  V30 2282 C 221.841 -1.82726 -0.589496 0
M  V30 2283 O 223.042 -2.51562 -0.947089 0
M  V30 2284 C 221.313 -3.27931 1.42112 0
M  V30 2285 S 222.872 -4.18557 1.31739 0
M  V30 2286 H 219.69 -0.637115 0.315603 0
M  V30 2287 H 222.292 -1.34097 1.42261 0
M  V30 2288 H 220.996 -3.26978 2.48019 0
M  V30 2289 H 220.527 -3.83665 0.869761 0
M  V30 2290 H 222.542 -4.95396 0.282335 0
M  V30 2291 N 221.715 -0.905404 -1.28997 0
M  V30 2292 C 222.943 -0.549846 -1.9946 0
M  V30 2293 C 223.358 0.866834 -1.67724 0
M  V30 2294 O 222.715 1.57298 -0.925404 0
M  V30 2295 C 222.766 -0.739387 -3.53858 0
M  V30 2296 O 222.487 -2.10031 -3.84472 0
M  V30 2297 C 223.988 -0.389541 -4.41585 0
M  V30 2298 H 221.208 -0.210429 -0.637151 0
M  V30 2299 H 223.752 -1.21632 -1.64396 0
M  V30 2300 H 221.907 -0.120023 -3.87214 0
M  V30 2301 H 222.321 -2.13385 -4.79132 0
M  V30 2302 H 223.795 -0.572972 -5.49018 0
M  V30 2303 H 224.272 0.673756 -4.34001 0
M  V30 2304 H 224.878 -0.986089 -4.1371 0
M  V30 2305 N 223.193 1.4272 -0.668489 0
M  V30 2306 C 224.441 2.01226 -0.187769 0
M  V30 2307 C 224.762 1.53092 1.2078 0
M  V30 2308 O 224.032 0.74993 1.80977 0
M  V30 2309 H 222.612 0.744041 -0.0664272 0
M  V30 2310 H 225.274 1.74723 -0.863583 0
M  V30 2311 H 224.37 3.11556 -0.184166 0
M  V30 2312 N 224.671 0.411399 1.52136 0
M  V30 2313 C 225.901 -0.16284 2.05957 0
M  V30 2314 C 226.309 -1.3922 1.28119 0
M  V30 2315 O 225.652 -1.80768 0.326881 0
M  V30 2316 C 225.714 -0.575946 3.54856 0
M  V30 2317 C 225.378 0.542998 4.53763 0
M  V30 2318 C 226.375 1.40726 5.00492 0
M  V30 2319 C 224.06 0.716337 4.97166 0
M  V30 2320 C 226.054 2.4298 5.8927 0
M  V30 2321 C 223.741 1.74218 5.8574 0
M  V30 2322 C 224.739 2.59731 6.31687 0
M  V30 2323 O 224.427 3.60558 7.18507 0
M  V30 2324 H 224.159 -0.0229125 0.675612 0
M  V30 2325 H 226.713 0.581634 1.96993 0
M  V30 2326 H 224.943 -1.37274 3.61515 0
M  V30 2327 H 226.632 -1.07836 3.91313 0
M  V30 2328 H 227.398 1.28476 4.67674 0
M  V30 2329 H 223.277 0.0603857 4.6096 0
M  V30 2330 H 226.821 3.0976 6.25055 0
M  V30 2331 H 222.718 1.86498 6.17971 0
M  V30 2332 H 223.486 3.56829 7.36624 0
M  V30 2333 N 226.149 -1.5696 0.141893 0
M  V30 2334 C 227.565 -1.58151 -0.21456 0
M  V30 2335 C 227.765 -1.1559 -1.65049 0
M  V30 2336 O 226.821 -0.853832 -2.37626 0
M  V30 2337 C 228.134 -3.00674 0.0395576 0
M  V30 2338 C 229.682 -3.1299 -0.0245529 0
M  V30 2339 C 230.157 -4.57554 0.202167 0
M  V30 2340 N 231.648 -4.62961 0.148919 0
M  V30 2341 C 232.383 -5.7262 0.298924 0
M  V30 2342 N 231.879 -6.90947 0.50637 0
M  V30 2343 N 233.672 -5.61601 0.236886 0
M  V30 2344 H 225.823 -1.8292 1.07953 0
M  V30 2345 H 228.086 -0.846425 0.42693 0
M  V30 2346 H 227.792 -3.36183 1.03315 0
M  V30 2347 H 227.666 -3.70981 -0.682143 0
M  V30 2348 H 230.053 -2.77326 -1.00869 0
M  V30 2349 H 230.134 -2.4518 0.729396 0
M  V30 2350 H 229.778 -4.93922 1.18338 0
M  V30 2351 H 229.708 -5.23484 -0.572044 0
M  V30 2352 H 232.199 -3.77899 -0.00697015 0
M  V30 2353 H 232.512 -7.7038 0.611076 0
M  V30 2354 H 230.857 -6.92878 0.542628 0
M  V30 2355 H 234.048 -4.68039 0.0756209 0
M  V30 2356 H 234.221 -6.47015 0.357227 0
M  V30 2357 N 227.627 0.131896 -1.57047 0
M  V30 2358 C 229.038 0.690407 -1.73465 0
M  V30 2359 C 229.389 1.8094 -0.758629 0
M  V30 2360 O 228.514 2.16282 0.0713813 0
M  V30 2361 C 229.109 1.25916 -3.14532 0
M  V30 2362 C 227.668 1.76409 -3.32501 0
M  V30 2363 C 226.815 0.658579 -2.69366 0
M  V30 2364 H 229.766 -0.0939144 -1.58422 0
M  V30 2365 H 229.787 2.12892 -3.15369 0
M  V30 2366 H 229.299 0.444515 -3.85546 0
M  V30 2367 H 227.4 2.60391 -2.66509 0
M  V30 2368 H 227.513 1.88241 -4.4057 0
M  V30 2369 H 225.877 1.08899 -2.30246 0
M  V30 2370 H 226.66 -0.14487 -3.42994 0
M  V30 2371 N 229.106 1.52395 0.401703 0
M  V30 2372 C 230.355 1.66044 1.14509 0
M  V30 2373 C 230.668 0.400216 1.91462 0
M  V30 2374 O 231.874 0.416632 2.68284 0
M  V30 2375 C 230.33 2.93388 2.0845 0
M  V30 2376 C 229.938 4.26545 1.36978 0
M  V30 2377 C 231.682 3.16402 2.83001 0
M  V30 2378 C 229.589 5.45007 2.29611 0
M  V30 2379 H 228.519 0.618562 0.431158 0
M  V30 2380 H 231.17 1.78886 0.40892 0
M  V30 2381 H 229.552 2.74263 2.8565 0
M  V30 2382 H 230.726 4.56179 0.650916 0
M  V30 2383 H 229.041 4.09692 0.74438 0
M  V30 2384 H 231.638 4.02085 3.52465 0
M  V30 2385 H 231.981 2.30943 3.46368 0
M  V30 2386 H 232.514 3.36034 2.12898 0
M  V30 2387 H 229.253 6.32835 1.70879 0
M  V30 2388 H 228.773 5.19702 2.9945 0
M  V30 2389 H 230.452 5.7838 2.89974 0
M  V30 2390 N 230.584 -0.659388 1.43143 0
M  V30 2391 C 231.514 -1.78422 1.50625 0
M  V30 2392 C 232.495 -1.66216 0.361443 0
M  V30 2393 O 233.68 -1.85404 0.577834 0
M  V30 2394 C 230.81 -3.16815 1.42287 0
M  V30 2395 C 229.764 -3.43777 2.54954 0
M  V30 2396 C 229.09 -4.81905 2.31671 0
M  V30 2397 C 230.39 -3.39134 3.97222 0
M  V30 2398 H 232.084 -1.72417 2.44771 0
M  V30 2399 H 229.63 -0.828084 1.17808 0
M  V30 2400 H 231.583 -3.95253 1.46127 0
M  V30 2401 H 230.307 -3.23534 0.446435 0
M  V30 2402 H 228.966 -2.67707 2.50457 0
M  V30 2403 H 228.614 -4.85294 1.32284 0
M  V30 2404 H 228.314 -5.00906 3.07192 0
M  V30 2405 H 229.838 -5.62609 2.37284 0
M  V30 2406 H 231.252 -4.07518 4.03239 0
M  V30 2407 H 229.649 -3.69671 4.72719 0
M  V30 2408 H 230.719 -2.37426 4.22797 0
M  V30 2409 N 232.062 -1.29571 -0.897171 0
M  V30 2410 C 232.994 -1.10724 -2.00681 0
M  V30 2411 C 234.007 -0.0540026 -1.6271 0
M  V30 2412 O 235.196 -0.298783 -1.75982 0
M  V30 2413 C 232.296 -0.663912 -3.32333 0
M  V30 2414 C 231.469 -1.79622 -3.98816 0
M  V30 2415 C 230.528 -1.34349 -5.0876 0
M  V30 2416 O 229.554 -2.04864 -5.31055 0
M  V30 2417 N 230.756 -0.215764 -5.80099 0
M  V30 2418 H 233.521 -2.06291 -2.17403 0
M  V30 2419 H 231.082 -1.21544 -1.06951 0
M  V30 2420 H 233.074 -0.344295 -4.03233 0
M  V30 2421 H 231.644 0.199375 -3.11964 0
M  V30 2422 H 230.864 -2.28459 -3.21248 0
M  V30 2423 H 232.152 -2.55535 -4.39976 0
M  V30 2424 H 231.55 0.372091 -5.64475 0
M  V30 2425 H 230.107 0.0444707 -6.51785 0
M  V30 2426 N 233.54 1.10788 -1.12088 0
M  V30 2427 C 234.788 1.8231 -0.872205 0
M  V30 2428 C 235.109 1.85419 0.603709 0
M  V30 2429 O 234.379 1.32963 1.43867 0
M  V30 2430 H 232.959 0.675137 -0.319686 0
M  V30 2431 H 235.621 1.34068 -1.41463 0
M  V30 2432 H 234.717 2.85955 -1.25045 0
M  V30 2433 N 235.018 0.912232 1.28515 0
M  V30 2434 C 236.265 0.544599 1.95039 0
M  V30 2435 C 236.593 -0.911435 1.71823 0
M  V30 2436 O 235.848 -1.66317 1.03137 0
M  V30 2437 C 236.147 0.798392 3.48368 0
M  V30 2438 C 235.813 2.23374 3.91682 0
M  V30 2439 C 234.475 2.62617 4.03219 0
M  V30 2440 C 236.827 3.16786 4.13879 0
M  V30 2441 C 234.155 3.94429 4.3433 0
M  V30 2442 C 236.507 4.48161 4.46469 0
M  V30 2443 C 235.171 4.8726 4.56217 0
M  V30 2444 H 234.441 0.199283 0.7137 0
M  V30 2445 H 237.088 1.15327 1.52879 0
M  V30 2446 H 235.393 0.106908 3.91654 0
M  V30 2447 H 237.09 0.493141 3.97956 0
M  V30 2448 H 233.68 1.91922 3.83228 0
M  V30 2449 H 237.864 2.87677 4.0442 0
M  V30 2450 H 233.12 4.24426 4.40082 0
M  V30 2451 H 237.294 5.20559 4.62592 0
M  V30 2452 H 234.921 5.89431 4.80078 0
M  V30 2453 N 236.496 -1.42363 0.676048 0
M  V30 2454 C 237.912 -1.55811 0.345718 0
M  V30 2455 C 238.112 -1.65544 -1.14879 0
M  V30 2456 O 237.168 -1.62306 -1.93424 0
M  V30 2457 C 238.481 -2.80746 1.07713 0
M  V30 2458 C 240.029 -2.9452 1.05958 0
M  V30 2459 C 240.504 -4.22318 1.77233 0
M  V30 2460 N 241.995 -4.29233 1.74108 0
M  V30 2461 C 242.73 -5.26935 2.26113 0
M  V30 2462 N 242.226 -6.30783 2.86505 0
M  V30 2463 N 244.019 -5.18741 2.1648 0
M  V30 2464 H 236.17 -1.34289 1.6456 0
M  V30 2465 H 238.433 -0.646506 0.69335 0
M  V30 2466 H 238.139 -2.79696 2.13221 0
M  V30 2467 H 238.013 -3.71676 0.64316 0
M  V30 2468 H 240.4 -2.95097 0.0128255 0
M  V30 2469 H 240.481 -2.04817 1.53244 0
M  V30 2470 H 240.125 -4.22502 2.81877 0
M  V30 2471 H 240.055 -5.10958 1.27396 0
M  V30 2472 H 242.546 -3.54814 1.30059 0
M  V30 2473 H 242.859 -7.01691 3.23805 0
M  V30 2474 H 241.204 -6.31341 2.90575 0
M  V30 2475 H 244.395 -4.36533 1.68987 0
M  V30 2476 H 244.568 -5.94721 2.57316 0
M  V30 2477 N 237.974 -0.419461 -1.51915 0
M  V30 2478 C 239.202 0.152136 -2.0634 0
M  V30 2479 C 239.617 1.37988 -1.28859 0
M  V30 2480 O 238.974 1.79243 -0.343232 0
M  V30 2481 C 239.025 0.492266 -3.58133 0
M  V30 2482 O 238.746 -0.686736 -4.32684 0
M  V30 2483 C 240.247 1.11648 -4.2901 0
M  V30 2484 H 237.467 0.0158325 -0.670813 0
M  V30 2485 H 240.011 -0.593394 -1.95702 0
M  V30 2486 H 238.166 1.18769 -3.68745 0
M  V30 2487 H 238.58 -0.400341 -5.2297 0
M  V30 2488 H 240.054 1.3046 -5.36362 0
M  V30 2489 H 240.531 2.09251 -3.86148 0
M  V30 2490 H 241.137 0.460958 -4.22795 0
M  V30 2491 N 239.452 1.56882 -0.150215 0
M  V30 2492 C 240.699 1.96228 0.500093 0
M  V30 2493 C 241.027 1.03522 1.64661 0
M  V30 2494 O 240.282 0.0650683 1.95592 0
M  V30 2495 C 240.581 3.41801 1.04437 0
M  V30 2496 C 240.247 4.50897 0.0159671 0
M  V30 2497 C 238.909 4.8046 -0.266731 0
M  V30 2498 C 241.261 5.16703 -0.683192 0
M  V30 2499 C 238.589 5.73135 -1.25434 0
M  V30 2500 C 240.941 6.10441 -1.65964 0
M  V30 2501 C 239.605 6.38382 -1.95 0
M  V30 2502 H 238.875 0.718048 0.182997 0
M  V30 2503 H 241.522 1.90019 -0.237724 0
M  V30 2504 H 239.827 3.44857 1.85959 0
M  V30 2505 H 241.524 3.69573 1.55618 0
M  V30 2506 H 238.114 4.27891 0.246485 0
M  V30 2507 H 242.298 4.93993 -0.477983 0
M  V30 2508 H 237.554 5.93074 -1.48571 0
M  V30 2509 H 241.728 6.60507 -2.20689 0
M  V30 2510 H 239.355 7.09996 -2.71679 0
M  V30 2511 N 240.93 -0.123565 1.57115 0
M  V30 2512 C 241.893 -1.13583 1.99076 0
M  V30 2513 C 242.893 -1.34564 0.880296 0
M  V30 2514 O 244.083 -1.31158 1.14644 0
M  V30 2515 C 241.215 -2.49128 2.32698 0
M  V30 2516 H 242.408 -0.775287 2.89706 0
M  V30 2517 H 239.961 -0.36771 1.51913 0
M  V30 2518 H 240.696 -2.90111 1.44934 0
M  V30 2519 H 240.481 -2.35255 3.13684 0
M  V30 2520 H 241.971 -3.2199 2.65918 0
M  V30 2521 N 242.408 -1.52605 -0.393616 0
M  V30 2522 C 243.824 -1.41753 -0.733357 0
M  V30 2523 C 244.024 -0.534293 -1.94287 0
M  V30 2524 O 243.08 -0.0059787 -2.52499 0
M  V30 2525 C 244.393 -2.84531 -0.972772 0
M  V30 2526 C 245.941 -2.93978 -1.07453 0
M  V30 2527 C 246.416 -4.37756 -1.3466 0
M  V30 2528 N 247.907 -4.4106 -1.41492 0
M  V30 2529 C 248.642 -5.49387 -1.642 0
M  V30 2530 N 248.138 -6.67806 -1.8441 0
M  V30 2531 N 249.931 -5.36923 -1.66342 0
M  V30 2532 H 242.082 -2.08555 0.402328 0
M  V30 2533 H 244.345 -0.940654 0.117789 0
M  V30 2534 H 244.051 -3.51353 -0.156204 0
M  V30 2535 H 243.925 -3.26508 -1.88871 0
M  V30 2536 H 246.312 -2.27326 -1.88167 0
M  V30 2537 H 246.393 -2.55435 -0.136605 0
M  V30 2538 H 246.037 -5.04972 -0.544581 0
M  V30 2539 H 245.967 -4.73848 -2.2973 0
M  V30 2540 H 248.458 -3.55705 -1.27601 0
M  V30 2541 H 248.771 -7.46141 -2.01231 0
M  V30 2542 H 247.116 -6.70843 -1.81644 0
M  V30 2543 H 250.307 -4.43381 -1.50102 0
M  V30 2544 H 250.48 -6.21416 -1.837 0
M  V30 2545 N 243.887 0.651787 -1.4349 0
M  V30 2546 C 245.164 1.40909 -1.35661 0
M  V30 2547 C 245.544 2.11099 -0.00511733 0
M  V30 2548 O 244.892 2.04892 1.0115 0
M  V30 2549 C 245.102 2.3926 -2.54078 0
M  V30 2550 C 246.45 3.03217 -2.97228 0
M  V30 2551 O 247.474 2.49588 -2.54135 0
M  V30 2552 O 246.333 4.00455 -3.71885 0
M  V30 2553 H 243.427 0.629625 -0.536191 0
M  V30 2554 H 245.973 0.678575 -1.55542 0
M  V30 2555 H 244.745 1.86352 -3.44076 0
M  V30 2556 H 244.368 3.1976 -2.36303 0
M  V30 2557 N 245.365 1.30045 0.890287 0
M  V30 2558 C 246.613 1.18327 1.63839 0
M  V30 2559 C 246.934 -0.263455 1.93212 0
M  V30 2560 O 246.204 -1.17856 1.56482 0
M  V30 2561 H 244.784 0.434933 0.607324 0
M  V30 2562 H 247.446 1.631 1.06698 0
M  V30 2563 H 246.542 1.74024 2.59079 0
M  V30 2564 N 246.843 -1.10192 1.12674 0
M  V30 2565 C 248.091 -1.81845 0.881861 0
M  V30 2566 C 248.412 -1.85737 -0.593867 0
M  V30 2567 O 247.682 -1.33724 -1.4316 0
M  V30 2568 H 246.262 -0.673432 0.323261 0
M  V30 2569 H 248.924 -1.33316 1.42172 0
M  V30 2570 H 248.02 -2.85288 1.2656 0
M  V30 2571 N 248.321 -0.919034 -1.28029 0
M  V30 2572 C 249.561 -0.562107 -1.96519 0
M  V30 2573 C 249.925 0.878784 -1.70708 0
M  V30 2574 O 251.126 1.34355 -2.32813 0
M  V30 2575 C 249.397 -0.868953 -3.46676 0
M  V30 2576 S 250.956 -0.619237 -4.34409 0
M  V30 2577 H 247.774 -0.2078 -0.679956 0
M  V30 2578 H 250.376 -1.18562 -1.55446 0
M  V30 2579 H 249.08 -1.91547 -3.62957 0
M  V30 2580 H 248.611 -0.234301 -3.92702 0
M  V30 2581 H 250.626 0.526995 -4.93394 0
M  V30 2582 N 249.799 1.42003 -0.683588 0
M  V30 2583 C 251.039 2.03282 -0.213513 0
M  V30 2584 C 251.403 1.52924 1.16097 0
M  V30 2585 O 252.604 2.06048 1.7262 0
M  V30 2586 C 250.875 3.56483 -0.255856 0
M  V30 2587 S 252.434 4.3857 0.14193 0
M  V30 2588 H 249.252 0.705659 -0.0869853 0
M  V30 2589 H 251.854 1.73619 -0.8987 0
M  V30 2590 H 250.558 3.90631 -1.25841 0
M  V30 2591 H 250.089 3.90831 0.448875 0
M  V30 2592 H 252.104 4.76828 1.37295 0
M  V30 2593 N 251.277 0.427512 1.51691 0
M  V30 2594 C 252.525 -0.141948 2.01601 0
M  V30 2595 C 252.846 -1.44067 1.31414 0
M  V30 2596 O 252.116 -1.90763 0.445658 0
M  V30 2597 H 250.696 -0.0554468 0.744939 0
M  V30 2598 H 253.358 0.567968 1.86441 0
M  V30 2599 H 252.454 -0.324913 3.10404 0
M  V30 2600 N 252.755 -1.56801 0.158532 0
M  V30 2601 C 254.003 -1.96102 -0.488712 0
M  V30 2602 C 254.324 -1.04498 -1.64636 0
M  V30 2603 O 253.594 -0.108783 -1.95598 0
M  V30 2604 H 252.174 -0.724102 -0.183535 0
M  V30 2605 H 254.836 -1.93457 0.236728 0
M  V30 2606 H 253.932 -3.00097 -0.857219 0
M  V30 2607 N 254.233 0.115231 -1.57178 0
M  V30 2608 C 255.51 0.852873 -1.76027 0
M  V30 2609 C 255.89 1.97892 -0.73498 0
M  V30 2610 O 255.238 2.27232 0.24036 0
M  V30 2611 C 255.448 1.36608 -3.21153 0
M  V30 2612 C 256.796 1.81692 -3.83762 0
M  V30 2613 O 257.82 1.46278 -3.24779 0
M  V30 2614 O 256.679 2.47104 -4.87444 0
M  V30 2615 H 253.773 0.405296 -0.720877 0
M  V30 2616 H 256.319 0.0986785 -1.69413 0
M  V30 2617 H 255.091 0.558357 -3.87296 0
M  V30 2618 H 254.714 2.18287 -3.3232 0
M  V30 2619 N 255.711 1.52812 0.385517 0
M  V30 2620 C 256.959 1.67694 1.12797 0
M  V30 2621 C 257.28 0.421115 1.90399 0
M  V30 2622 O 256.55 -0.564551 1.87589 0
M  V30 2623 H 255.13 0.618155 0.419396 0
M  V30 2624 H 257.792 1.89938 0.436972 0
M  V30 2625 H 256.888 2.52896 1.82894 0
M  V30 2626 N 257.189 -0.644168 1.43834 0
M  V30 2627 C 258.137 -1.77793 1.49974 0
M  V30 2628 C 259.131 -1.65253 0.372536 0
M  V30 2629 O 260.337 -1.7149 0.546924 0
M  V30 2630 H 256.712 -0.58675 0.47035 0
M  V30 2631 H 258.683 -1.69736 2.45423 0
M  V30 2632 C 257.432 -3.16087 1.4486 0
M  V30 2633 H 256.755 -3.26378 2.30905 0
M  V30 2634 H 258.195 -3.95349 1.53217 0
M  V30 2635 C 256.654 -3.36484 0.167463 0
M  V30 2636 O 257.184 -3.94298 -0.767609 0
M  V30 2637 N 255.39 -2.90504 0.0747556 0
M  V30 2638 H 254.937 -2.4364 0.836507 0
M  V30 2639 H 254.895 -3.04527 -0.781714 0
M  V30 2640 N 258.668 -1.30515 -0.883378 0
M  V30 2641 C 259.616 -1.16941 -2.01066 0
M  V30 2642 C 260.61 -0.0809148 -1.69207 0
M  V30 2643 O 261.816 -0.241877 -1.78367 0
M  V30 2644 H 258.191 -0.361705 -0.659298 0
M  V30 2645 H 260.162 -2.12344 -2.09649 0
M  V30 2646 C 258.911 -0.879694 -3.36388 0
M  V30 2647 H 258.234 -1.70936 -3.61415 0
M  V30 2648 H 259.674 -0.82483 -4.159 0
M  V30 2649 C 258.133 0.417409 -3.34304 0
M  V30 2650 O 258.663 1.43843 -3.75063 0
M  V30 2651 N 256.869 0.429141 -2.87414 0
M  V30 2652 H 256.416 -0.402222 -2.5444 0
M  V30 2653 H 256.374 1.29696 -2.86403 0
M  V30 2654 N 260.146 1.09593 -1.13257 0
M  V30 2655 C 261.557 1.63229 -0.906274 0
M  V30 2656 C 261.908 1.8811 0.557578 0
M  V30 2657 O 261.033 1.62953 1.42391 0
M  V30 2658 C 261.628 2.96535 -1.63867 0
M  V30 2659 C 260.187 3.47003 -1.45828 0
M  V30 2660 C 259.334 2.2145 -1.66898 0
M  V30 2661 H 262.285 0.92978 -1.28611 0
M  V30 2662 H 262.306 3.64411 -1.09476 0
M  V30 2663 H 261.818 2.78394 -2.70404 0
M  V30 2664 H 259.919 3.70272 -0.415848 0
M  V30 2665 H 260.032 4.24551 -2.2202 0
M  V30 2666 H 258.396 2.30022 -1.09371 0
M  V30 2667 H 259.179 2.0583 -2.74752 0
M  V30 2668 N 261.624 0.925811 1.2754 0
M  V30 2669 C 262.572 0.413897 2.28888 0
M  V30 2670 C 263.566 -0.500779 1.61829 0
M  V30 2671 O 264.772 -0.38069 1.75928 0
M  V30 2672 H 261.147 0.115274 0.743112 0
M  V30 2673 H 263.118 1.28151 2.69481 0
M  V30 2674 C 261.867 -0.319792 3.46226 0
M  V30 2675 H 261.19 0.374846 3.98039 0
M  V30 2676 H 262.63 -0.642435 4.19105 0
M  V30 2677 C 261.089 -1.53209 3.00048 0
M  V30 2678 O 261.619 -2.6309 3.03557 0
M  V30 2679 N 259.825 -1.38326 2.55566 0
M  V30 2680 H 259.372 -0.489292 2.5291 0
M  V30 2681 H 259.33 -2.19564 2.25031 0
M  V30 2682 N 263.102 -1.41638 0.69111 0
M  V30 2683 C 264.342 -2.03166 0.224291 0
M  V30 2684 C 264.706 -1.53537 -1.15284 0
M  V30 2685 O 265.907 -2.0696 -1.71525 0
M  V30 2686 C 264.178 -3.56342 0.274758 0
M  V30 2687 S 265.737 -4.3864 -0.118669 0
M  V30 2688 H 262.555 -0.705188 0.0907263 0
M  V30 2689 H 265.157 -1.7314 0.907895 0
M  V30 2690 H 263.861 -3.89958 1.2791 0
M  V30 2691 H 263.392 -3.91063 -0.428142 0
M  V30 2692 H 265.407 -4.77549 -1.34764 0
M  V30 2693 N 264.58 -0.43555 -1.51462 0
M  V30 2694 C 265.82 0.130708 -2.03982 0
M  V30 2695 C 266.184 1.40117 -1.31268 0
M  V30 2696 O 267.385 2.04755 -1.74152 0
M  V30 2697 C 265.656 0.346102 -3.5572 0
M  V30 2698 S 267.215 0.876022 -4.29967 0
M  V30 2699 H 264.033 0.0326881 -0.710248 0
M  V30 2700 H 266.635 -0.594544 -1.8624 0
M  V30 2701 H 265.339 -0.584911 -4.0621 0
M  V30 2702 H 264.87 1.09849 -3.77752 0
M  V30 2703 H 266.885 2.15379 -4.47019 0
M  V30 2704 N 266.058 1.56714 -0.166846 0
M  V30 2705 C 266.991 2.13577 0.80375 0
M  V30 2706 C 267.969 1.06464 1.22899 0
M  V30 2707 O 269.153 1.34413 1.32157 0
M  V30 2708 C 266.28 2.67168 2.0818 0
M  V30 2709 C 265.326 3.86612 1.80093 0
M  V30 2710 S 266.159 5.26565 0.97416 0
M  V30 2711 C 267.315 5.83558 2.26297 0
M  V30 2712 H 267.548 2.9557 0.320267 0
M  V30 2713 H 265.081 1.54326 0.0477555 0
M  V30 2714 H 267.039 2.98692 2.8159 0
M  V30 2715 H 265.7 1.85269 2.53642 0
M  V30 2716 H 264.893 4.22422 2.7491 0
M  V30 2717 H 264.495 3.55951 1.14781 0
M  V30 2718 H 266.787 5.962 3.21795 0
M  V30 2719 H 267.73 6.80731 1.94962 0
M  V30 2720 H 268.138 5.11944 2.37853 0
M  V30 2721 N 267.536 -0.106894 1.57237 0
M  V30 2722 C 268.484 -1.14944 2.02215 0
M  V30 2723 C 269.478 -1.42167 0.92114 0
M  V30 2724 O 270.684 -1.41987 1.10634 0
M  V30 2725 H 267.059 -0.387841 0.64427 0
M  V30 2726 H 269.03 -0.743683 2.88984 0
M  V30 2727 C 267.779 -2.4647 2.4525 0
M  V30 2728 H 267.102 -2.26363 3.29545 0
M  V30 2729 H 268.542 -3.17948 2.80508 0
M  V30 2730 C 267.001 -3.09921 1.321 0
M  V30 2731 O 267.531 -3.9651 0.643622 0
M  V30 2732 N 265.737 -2.69986 1.07497 0
M  V30 2733 H 265.284 -1.99667 1.62761 0
M  V30 2734 H 265.242 -3.12769 0.319876 0
M  V30 2735 N 269.014 -1.53014 -0.377408 0
M  V30 2736 C 269.946 -1.74884 -1.48149 0
M  V30 2737 C 270.959 -0.629433 -1.5014 0
M  V30 2738 O 272.148 -0.905416 -1.53833 0
M  V30 2739 C 269.248 -1.80299 -2.86959 0
M  V30 2740 C 268.421 -3.09776 -3.08801 0
M  V30 2741 C 267.48 -3.06586 -4.27658 0
M  V30 2742 O 266.506 -3.80419 -4.23403 0
M  V30 2743 N 267.708 -2.26578 -5.34455 0
M  V30 2744 H 270.473 -2.70147 -1.29771 0
M  V30 2745 H 268.034 -1.51646 -0.56703 0
M  V30 2746 H 270.026 -1.75657 -3.64591 0
M  V30 2747 H 268.596 -0.92372 -2.98641 0
M  V30 2748 H 267.816 -3.27815 -2.18931 0
M  V30 2749 H 269.104 -3.95366 -3.20255 0
M  V30 2750 H 268.502 -1.66081 -5.40771 0
M  V30 2751 H 267.059 -2.27766 -6.10709 0
M  V30 2752 N 270.492 0.636531 -1.44174 0
M  V30 2753 C 271.439 1.74875 -1.50624 0
M  V30 2754 C 272.409 1.62275 -0.35442 0
M  V30 2755 O 273.594 1.82276 -0.563908 0
M  V30 2756 C 270.734 3.13102 -1.45125 0
M  V30 2757 C 269.847 3.36717 -2.7064 0
M  V30 2758 C 268.982 4.64885 -2.57013 0
M  V30 2759 C 268.021 4.8166 -3.77717 0
M  V30 2760 N 267.158 6.01101 -3.62798 0
M  V30 2761 H 271.998 1.68697 -2.45653 0
M  V30 2762 H 269.535 0.823004 -1.21922 0
M  V30 2763 H 271.493 3.93034 -1.39929 0
M  V30 2764 H 270.123 3.18308 -0.536671 0
M  V30 2765 H 269.175 2.50763 -2.86046 0
M  V30 2766 H 270.487 3.44993 -3.60252 0
M  V30 2767 H 269.641 5.52969 -2.49619 0
M  V30 2768 H 268.38 4.58957 -1.64953 0
M  V30 2769 H 267.385 3.92007 -3.85501 0
M  V30 2770 H 268.61 4.89406 -4.70807 0
M  V30 2771 H 266.556 5.96273 -2.73486 0
M  V30 2772 H 266.473 6.10409 -4.46023 0
M  V30 2773 H 267.741 6.91761 -3.59286 0
M  V30 2774 N 271.97 1.30982 0.876444 0
M  V30 2775 C 272.917 1.18085 1.98304 0
M  V30 2776 C 273.887 0.0682263 1.6596 0
M  V30 2777 O 275.072 0.239937 1.89285 0
M  V30 2778 C 272.212 0.887475 3.33493 0
M  V30 2779 C 271.325 2.08281 3.78475 0
M  V30 2780 C 270.46 1.72678 5.0235 0
M  V30 2781 C 269.499 2.88657 5.39762 0
M  V30 2782 N 268.636 2.53292 6.54819 0
M  V30 2783 H 273.476 2.1275 2.08666 0
M  V30 2784 H 271.013 1.05839 1.02159 0
M  V30 2785 H 272.971 0.697961 4.1132 0
M  V30 2786 H 271.601 -0.022315 3.22792 0
M  V30 2787 H 270.653 2.3833 2.96484 0
M  V30 2788 H 271.965 2.95108 4.02135 0
M  V30 2789 H 271.119 1.50151 5.87826 0
M  V30 2790 H 269.858 0.830327 4.8058 0
M  V30 2791 H 268.863 3.1184 4.52809 0
M  V30 2792 H 270.088 3.79002 5.63502 0
M  V30 2793 H 268.034 1.66163 6.34607 0
M  V30 2794 H 267.951 3.3365 6.7839 0
M  V30 2795 H 269.219 2.34143 7.43503 0
M  V30 2796 N 273.449 -1.08991 1.13837 0
M  V30 2797 C 274.726 -1.77863 0.813876 0
M  V30 2798 C 275.106 -1.99375 -0.693746 0
M  V30 2799 O 274.454 -1.59875 -1.63255 0
M  V30 2800 C 274.664 -3.0986 1.60586 0
M  V30 2801 C 276.012 -3.84493 1.8014 0
M  V30 2802 O 277.036 -3.19624 1.57222 0
M  V30 2803 O 275.895 -5.00957 2.18413 0
M  V30 2804 H 272.989 -0.771589 0.297624 0
M  V30 2805 H 275.535 -1.15507 1.24323 0
M  V30 2806 H 274.307 -2.89715 2.63022 0
M  V30 2807 H 273.93 -3.79942 1.17173 0
M  V30 2808 N 274.927 -0.932562 -1.27047 0
M  V30 2809 C 275.877 -0.406392 -2.24349 0
M  V30 2810 C 276.861 0.492066 -1.53191 0
M  V30 2811 O 278.053 0.328717 -1.73921 0
M  V30 2812 C 275.182 0.335214 -3.41659 0
M  V30 2813 C 274.268 -0.58004 -4.20115 0
M  V30 2814 N 274.659 -1.70203 -4.76303 0
M  V30 2815 C 272.957 -0.383974 -4.44344 0
M  V30 2816 C 273.658 -2.27167 -5.35509 0
M  V30 2817 N 272.634 -1.56068 -5.20715 0
M  V30 2818 H 276.436 -1.26299 -2.65378 0
M  V30 2819 H 273.95 -0.787408 -1.42034 0
M  V30 2820 H 275.947 0.729142 -4.10474 0
M  V30 2821 H 274.607 1.18868 -3.0216 0
M  V30 2822 H 275.618 -2.08433 -4.74106 0
M  V30 2823 H 272.295 0.428436 -4.15296 0
M  V30 2824 H 273.685 -3.21654 -5.89905 0
M  V30 2825 N 276.405 1.4127 -0.698611 0
M  V30 2826 C 277.63 2.06024 -0.238512 0
M  V30 2827 C 278.055 1.5224 1.10475 0
M  V30 2828 O 277.413 0.650623 1.69223 0
M  V30 2829 C 277.461 3.59988 -0.209952 0
M  V30 2830 O 276.565 4.04282 0.814235 0
M  V30 2831 H 275.906 0.653829 -0.115775 0
M  V30 2832 H 278.436 1.8098 -0.954326 0
M  V30 2833 H 278.446 4.07979 -0.0418436 0
M  V30 2834 H 277.121 3.98503 -1.1903 0
M  V30 2835 H 275.698 3.6779 0.615234 0
M  V30 2836 N 277.883 0.443576 1.51229 0
M  V30 2837 C 279.129 -0.120975 2.02439 0
M  V30 2838 C 279.462 -1.41815 1.32674 0
M  V30 2839 O 278.737 -1.89373 0.443622 0
M  V30 2840 C 279.02 -0.333291 3.58554 0
M  V30 2841 C 278.873 0.982968 4.38928 0
M  V30 2842 C 280.192 -1.10028 4.26124 0
M  V30 2843 H 277.311 -0.0424923 0.735774 0
M  V30 2844 H 279.953 0.583794 1.80809 0
M  V30 2845 H 278.103 -0.933614 3.77115 0
M  V30 2846 H 279.775 1.61775 4.32003 0
M  V30 2847 H 278.018 1.58611 4.03763 0
M  V30 2848 H 278.689 0.788379 5.46341 0
M  V30 2849 H 281.165 -0.591711 4.11871 0
M  V30 2850 H 280.041 -1.21761 5.35225 0
M  V30 2851 H 280.302 -2.12996 3.87408 0
M  V30 2852 N 279.361 -1.56624 0.175154 0
M  V30 2853 C 280.586 -2.01813 -0.478137 0
M  V30 2854 C 281.011 -1.05457 -1.55757 0
M  V30 2855 O 280.369 -0.0347439 -1.81267 0
M  V30 2856 C 280.417 -3.45581 -1.02987 0
M  V30 2857 O 279.521 -3.52305 -2.14371 0
M  V30 2858 H 278.862 -0.65413 -0.114059 0
M  V30 2859 H 281.392 -2.02673 0.280173 0
M  V30 2860 H 281.402 -3.84965 -1.35151 0
M  V30 2861 H 280.077 -4.1521 -0.239556 0
M  V30 2862 H 278.654 -3.24783 -1.83222 0
M  V30 2863 N 280.839 0.0985539 -1.57292 0
M  V30 2864 C 281.769 1.12064 -2.04851 0
M  V30 2865 C 282.75 1.41981 -0.936767 0
M  V30 2866 O 283.935 1.52071 -1.20781 0
M  V30 2867 C 281.065 2.44144 -2.47004 0
M  V30 2868 C 280.019 2.28643 -3.6181 0
M  V30 2869 C 279.345 3.65869 -3.89929 0
M  V30 2870 C 280.645 1.72986 -4.92822 0
M  V30 2871 H 282.339 0.724979 -2.9049 0
M  V30 2872 H 279.885 0.34729 -1.39749 0
M  V30 2873 H 281.838 3.15914 -2.78884 0
M  V30 2874 H 280.562 2.85639 -1.5836 0
M  V30 2875 H 279.221 1.59318 -3.30172 0
M  V30 2876 H 278.869 4.04885 -2.98458 0
M  V30 2877 H 278.569 3.56344 -4.67218 0
M  V30 2878 H 280.093 4.39112 -4.2428 0
M  V30 2879 H 281.507 2.34593 -5.23105 0
M  V30 2880 H 279.904 1.74229 -5.74251 0
M  V30 2881 H 280.974 0.689007 -4.7998 0
M  V30 2882 N 282.317 1.53212 0.369288 0
M  V30 2883 C 283.542 1.73423 1.1375 0
M  V30 2884 C 283.967 0.460404 1.82378 0
M  V30 2885 O 283.325 -0.585298 1.71592 0
M  V30 2886 C 283.373 2.89769 2.1463 0
M  V30 2887 O 282.477 2.58119 3.21634 0
M  V30 2888 H 281.818 0.576061 0.330227 0
M  V30 2889 H 284.348 2.00083 0.427547 0
M  V30 2890 H 284.358 3.15829 2.58294 0
M  V30 2891 H 283.033 3.8217 1.64071 0
M  V30 2892 H 281.61 2.42864 2.82969 0
M  V30 2893 N 283.795 -0.628877 1.44509 0
M  V30 2894 C 285.206 -1.21054 1.42137 0
M  V30 2895 C 285.557 -1.95715 0.137881 0
M  V30 2896 O 284.682 -2.02554 -0.761645 0
M  V30 2897 C 285.277 -2.20189 2.57493 0
M  V30 2898 C 283.836 -2.73777 2.58308 0
M  V30 2899 C 282.983 -1.48813 2.33987 0
M  V30 2900 H 285.934 -0.41942 1.53057 0
M  V30 2901 H 285.955 -3.02833 2.30375 0
M  V30 2902 H 285.467 -1.6582 3.50892 0
M  V30 2903 H 283.568 -3.32142 1.68856 0
M  V30 2904 H 283.681 -3.19662 3.56865 0
M  V30 2905 H 282.045 -1.77024 1.83124 0
M  V30 2906 H 282.828 -0.963442 3.29504 0
M  V30 2907 N 285.273 -1.31445 -0.869486 0
M  V30 2908 C 286.498 -1.24256 -1.66058 0
M  V30 2909 C 286.923 0.188928 -1.87149 0
M  V30 2910 O 286.281 1.13522 -1.4136 0
M  V30 2911 C 286.329 -1.9924 -3.00559 0
M  V30 2912 O 285.433 -1.33007 -3.90362 0
M  V30 2913 H 284.774 -0.428973 -0.506831 0
M  V30 2914 H 287.304 -1.73521 -1.08404 0
M  V30 2915 H 287.314 -2.08854 -3.50491 0
M  V30 2916 H 285.989 -3.03342 -2.84528 0
M  V30 2917 H 284.566 -1.31848 -3.48813 0
M  V30 2918 N 286.751 1.08385 -1.14413 0
M  V30 2919 C 287.681 2.17321 -0.854044 0
M  V30 2920 C 288.662 1.69024 0.191049 0
M  V30 2921 O 289.847 1.94141 0.0476779 0
M  V30 2922 C 286.977 3.45719 -0.330983 0
M  V30 2923 C 285.931 4.07409 -1.31155 0
M  V30 2924 C 285.257 5.30762 -0.64778 0
M  V30 2925 C 286.557 4.48665 -2.67388 0
M  V30 2926 H 288.251 2.41845 -1.76498 0
M  V30 2927 H 285.797 1.16233 -0.850051 0
M  V30 2928 H 287.75 4.21241 -0.115645 0
M  V30 2929 H 286.474 3.2075 0.615381 0
M  V30 2930 H 285.133 3.33919 -1.51306 0
M  V30 2931 H 284.781 5.02078 0.304398 0
M  V30 2932 H 284.481 5.72992 -1.30207 0
M  V30 2933 H 286.005 6.08998 -0.441972 0
M  V30 2934 H 287.419 5.15364 -2.51143 0
M  V30 2935 H 285.816 5.01814 -3.29093 0
M  V30 2936 H 286.886 3.60543 -3.24248 0
M  V30 2937 N 288.23 0.939286 1.26551 0
M  V30 2938 C 289.477 0.585847 1.9384 0
M  V30 2939 C 289.805 -0.874784 1.73718 0
M  V30 2940 O 289.06 -1.64092 1.06642 0
M  V30 2941 C 289.359 0.872106 3.46596 0
M  V30 2942 C 289.025 2.31632 3.86856 0
M  V30 2943 C 287.687 2.71111 3.97558 0
M  V30 2944 C 290.039 3.25494 4.07066 0
M  V30 2945 C 287.367 4.03553 4.25866 0
M  V30 2946 C 289.719 4.57531 4.36862 0
M  V30 2947 C 288.383 4.96828 4.45778 0
M  V30 2948 H 287.653 0.214377 0.709312 0
M  V30 2949 H 290.3 1.18544 1.50398 0
M  V30 2950 H 288.605 0.18996 3.91339 0
M  V30 2951 H 290.302 0.577442 3.96821 0
M  V30 2952 H 286.892 2.00008 3.79071 0
M  V30 2953 H 291.076 2.9619 3.98227 0
M  V30 2954 H 286.332 4.33665 4.30981 0
M  V30 2955 H 290.506 5.30254 4.51446 0
M  V30 2956 H 288.133 5.99482 4.67468 0
M  V30 2957 N 289.708 -1.40897 0.706093 0
M  V30 2958 C 290.655 -2.30751 0.0474474 0
M  V30 2959 C 291.625 -1.47678 -0.76029 0
M  V30 2960 O 292.81 -1.76441 -0.726177 0
M  V30 2961 C 289.95 -3.33815 -0.875309 0
M  V30 2962 C 289.063 -4.31961 -0.0580623 0
M  V30 2963 C 288.198 -5.22093 -0.979425 0
M  V30 2964 C 287.237 -6.11902 -0.155706 0
M  V30 2965 N 286.374 -6.94482 -1.03144 0
M  V30 2966 H 291.214 -2.86513 0.819413 0
M  V30 2967 H 288.751 -1.41102 0.415783 0
M  V30 2968 H 290.709 -3.92129 -1.42446 0
M  V30 2969 H 289.339 -2.79579 -1.61356 0
M  V30 2970 H 288.391 -3.75507 0.608147 0
M  V30 2971 H 289.703 -4.95415 0.580082 0
M  V30 2972 H 288.857 -5.85292 -1.59744 0
M  V30 2973 H 287.596 -4.5889 -1.65141 0
M  V30 2974 H 286.601 -5.47742 0.475309 0
M  V30 2975 H 287.826 -6.77162 0.512635 0
M  V30 2976 H 285.772 -6.33877 -1.68924 0
M  V30 2977 H 285.689 -7.54665 -0.449108 0
M  V30 2978 H 286.957 -7.6214 -1.63593 0
M  V30 2979 N 291.186 -0.45159 -1.50991 0
M  V30 2980 C 292.597 0.00818571 -1.86698 0
M  V30 2981 C 292.948 1.40661 -1.3678 0
M  V30 2982 O 292.073 2.0391 -0.724546 0
M  V30 2983 C 292.668 0.0216303 -3.38793 0
M  V30 2984 C 291.227 0.425865 -3.73983 0
M  V30 2985 C 290.374 -0.372163 -2.74791 0
M  V30 2986 H 293.325 -0.666785 -1.44013 0
M  V30 2987 H 293.346 0.828078 -3.7138 0
M  V30 2988 H 292.858 -0.996288 -3.75094 0
M  V30 2989 H 290.959 1.44886 -3.43277 0
M  V30 2990 H 291.072 0.140761 -4.78893 0
M  V30 2991 H 289.436 0.171498 -2.54122 0
M  V30 2992 H 290.219 -1.38922 -3.13935 0
M  V30 2993 N 292.664 1.56529 -0.183458 0
M  V30 2994 C 293.574 2.22144 0.754272 0
M  V30 2995 C 294.59 1.21684 1.24374 0
M  V30 2996 O 295.766 1.54385 1.29333 0
M  V30 2997 C 292.831 2.85884 1.96141 0
M  V30 2998 C 291.892 4.01579 1.51765 0
M  V30 2999 C 291.125 4.6227 2.66725 0
M  V30 3000 O 291.348 4.21865 3.83909 0
M  V30 3001 O 290.282 5.51936 2.40104 0
M  V30 3002 H 294.108 3.02861 0.225527 0
M  V30 3003 H 291.693 1.49331 0.0453032 0
M  V30 3004 H 293.575 3.26253 2.66715 0
M  V30 3005 H 292.25 2.08154 2.47899 0
M  V30 3006 H 291.157 3.65856 0.781049 0
M  V30 3007 H 292.49 4.80938 1.04686 0
M  V30 3008 N 294.142 -0.090211 1.57342 0
M  V30 3009 C 295.052 -1.12735 2.05738 0
M  V30 3010 C 296.068 -1.43557 0.983231 0
M  V30 3011 O 297.244 -1.54101 1.29672 0
M  V30 3012 C 294.309 -2.42659 2.47624 0
M  V30 3013 C 293.37 -2.18975 3.69254 0
M  V30 3014 C 292.603 -3.42704 4.09133 0
M  V30 3015 O 292.826 -4.51127 3.49057 0
M  V30 3016 O 291.76 -3.32003 5.02053 0
M  V30 3017 H 295.586 -0.746279 2.94388 0
M  V30 3018 H 293.171 -0.303064 1.46294 0
M  V30 3019 H 295.053 -3.19155 2.7517 0
M  V30 3020 H 293.728 -2.80182 1.62109 0
M  V30 3021 H 292.635 -1.40244 3.46818 0
M  V30 3022 H 293.968 -1.86342 4.55563 0
M  V30 3023 N 295.62 -1.53406 -0.361157 0
M  V30 3024 C 296.867 -1.69802 -1.10333 0
M  V30 3025 C 297.195 -0.452087 -1.89173 0
M  V30 3026 O 296.45 0.566017 -1.87336 0
M  V30 3027 C 296.749 -2.90211 -2.08596 0
M  V30 3028 C 296.415 -4.26539 -1.46203 0
M  V30 3029 C 295.077 -4.6361 -1.28915 0
M  V30 3030 C 297.429 -5.113 -1.01101 0
M  V30 3031 C 294.757 -5.83075 -0.651157 0
M  V30 3032 C 297.109 -6.31415 -0.387007 0
M  V30 3033 C 295.773 -6.67195 -0.201657 0
M  V30 3034 H 295.043 -0.621351 -0.403737 0
M  V30 3035 H 297.69 -1.87598 -0.384609 0
M  V30 3036 H 295.995 -2.66946 -2.86788 0
M  V30 3037 H 297.692 -3.00091 -2.65982 0
M  V30 3038 H 294.282 -3.97352 -1.60653 0
M  V30 3039 H 298.466 -4.83206 -1.13249 0
M  V30 3040 H 293.722 -6.09385 -0.496006 0
M  V30 3041 H 297.896 -6.96394 -0.0293563 0
M  V30 3042 H 295.523 -7.59628 0.294766 0
M  V30 3043 N 297.098 0.621204 -1.44841 0
M  V30 3044 C 298.326 1.40752 -1.51646 0
M  V30 3045 C 298.741 1.88246 -0.144549 0
M  V30 3046 O 298.098 1.61422 0.851416 0
M  V30 3047 C 298.149 2.62119 -2.4895 0
M  V30 3048 O 297.87 2.16602 -3.80808 0
M  V30 3049 C 299.371 3.55135 -2.65319 0
M  V30 3050 H 296.591 0.431325 -0.514004 0
M  V30 3051 H 299.135 0.758835 -1.899 0
M  V30 3052 H 297.29 3.23058 -2.13805 0
M  V30 3053 H 297.704 2.95358 -4.33433 0
M  V30 3054 H 299.178 4.36874 -3.37409 0
M  V30 3055 H 299.655 4.04592 -1.70886 0
M  V30 3056 H 300.261 3.00058 -3.01405 0
M  V30 3057 N 298.576 1.31904 0.862503 0
M  V30 3058 C 299.987 1.19803 1.43193 0
M  V30 3059 C 300.338 -0.192567 1.95253 0
M  V30 3060 O 299.463 -1.09081 1.86896 0
M  V30 3061 C 300.058 2.16883 2.60283 0
M  V30 3062 C 298.617 2.08692 3.13248 0
M  V30 3063 C 297.764 2.05691 1.85975 0
M  V30 3064 H 300.715 1.43846 0.670365 0
M  V30 3065 H 300.736 1.76278 3.37204 0
M  V30 3066 H 300.248 3.18083 2.22363 0
M  V30 3067 H 298.349 1.10713 3.55771 0
M  V30 3068 H 298.462 2.9815 3.75025 0
M  V30 3069 H 296.826 1.50814 2.05249 0
M  V30 3070 H 297.609 3.08659 1.50282 0
M  V30 3071 N 300.054 -1.07777 1.14986 0
M  V30 3072 C 300.984 -2.16865 0.865557 0
M  V30 3073 C 301.965 -1.69123 -0.182083 0
M  V30 3074 O 303.15 -1.94164 -0.0373815 0
M  V30 3075 C 300.28 -3.45539 0.349313 0
M  V30 3076 C 299.234 -4.06708 1.33313 0
M  V30 3077 C 298.56 -5.30411 0.675918 0
M  V30 3078 C 299.86 -4.47241 2.69764 0
M  V30 3079 H 301.554 -2.40905 1.77778 0
M  V30 3080 H 299.1 -1.15781 0.856203 0
M  V30 3081 H 301.053 -4.21174 0.137983 0
M  V30 3082 H 299.777 -3.21072 -0.598362 0
M  V30 3083 H 298.436 -3.33112 1.53075 0
M  V30 3084 H 298.084 -5.02232 -0.277767 0
M  V30 3085 H 297.784 -5.72293 1.33244 0
M  V30 3086 H 299.308 -6.08755 0.474262 0
M  V30 3087 H 300.722 -5.14025 2.53873 0
M  V30 3088 H 299.119 -5.00062 3.3175 0
M  V30 3089 H 300.189 -3.58818 3.26156 0
M  V30 3090 N 301.532 -0.945985 -1.26051 0
M  V30 3091 C 302.809 -0.513816 -1.88731 0
M  V30 3092 C 303.189 1.00872 -1.8544 0
M  V30 3093 O 302.537 1.8708 -1.312 0
M  V30 3094 C 302.747 -1.08062 -3.31849 0
M  V30 3095 C 304.095 -1.1522 -4.08668 0
M  V30 3096 O 305.119 -1.03155 -3.40936 0
M  V30 3097 O 303.978 -1.34044 -5.29806 0
M  V30 3098 H 301.072 -0.168193 -0.809716 0
M  V30 3099 H 303.618 -1.03886 -1.34186 0
M  V30 3100 H 302.39 -2.1241 -3.2863 0
M  V30 3101 H 302.013 -0.538307 -3.93939 0
M  V30 3102 N 303.011 1.40521 -0.713556 0
M  V30 3103 C 304.422 1.83853 -0.324807 0
M  V30 3104 C 304.773 1.59667 1.14021 0
M  V30 3105 O 303.898 1.07649 1.87725 0
M  V30 3106 C 304.493 3.33751 -0.582746 0
M  V30 3107 C 303.052 3.75584 -0.247727 0
M  V30 3108 C 302.199 2.63753 -0.856121 0
M  V30 3109 H 305.15 1.29817 -0.91286 0
M  V30 3110 H 305.171 3.80194 0.152682 0
M  V30 3111 H 304.683 3.51322 -1.64908 0
M  V30 3112 H 302.784 3.63608 0.813624 0
M  V30 3113 H 302.897 4.7373 -0.715307 0
M  V30 3114 H 301.261 2.53108 -0.28432 0
M  V30 3115 H 302.044 2.84137 -1.92668 0
M  V30 3116 N 304.489 0.459591 1.5075 0
M  V30 3117 C 305.717 -0.0973749 2.06671 0
M  V30 3118 C 306.132 -1.34524 1.32472 0
M  V30 3119 O 305.489 -1.7827 0.390634 0
M  V30 3120 C 305.54 -0.39714 3.59312 0
M  V30 3121 O 305.261 0.801214 4.30711 0
M  V30 3122 C 306.762 -1.00234 4.31819 0
M  V30 3123 H 303.982 0.00195854 0.670997 0
M  V30 3124 H 306.526 0.645072 1.94059 0
M  V30 3125 H 304.681 -1.08951 3.71764 0
M  V30 3126 H 305.095 0.538857 5.21725 0
M  V30 3127 H 306.569 -1.16193 5.39632 0
M  V30 3128 H 307.046 -1.98939 3.91561 0
M  V30 3129 H 307.652 -0.348699 4.23868 0
M  V30 3130 N 305.967 -1.56429 0.191757 0
M  V30 3131 C 306.899 -2.16154 -0.762245 0
M  V30 3132 C 307.912 -1.12247 -1.17917 0
M  V30 3133 O 309.101 -1.39353 -1.11548 0
M  V30 3134 C 306.201 -2.70606 -2.04024 0
M  V30 3135 C 305.374 -3.99381 -1.78364 0
M  V30 3136 C 304.433 -4.38692 -2.90578 0
M  V30 3137 O 303.459 -5.06179 -2.6033 0
M  V30 3138 N 304.661 -4.01922 -4.18854 0
M  V30 3139 H 307.426 -2.98643 -0.251526 0
M  V30 3140 H 304.987 -1.61897 0.00967373 0
M  V30 3141 H 306.979 -2.93891 -2.78227 0
M  V30 3142 H 305.549 -1.9259 -2.46227 0
M  V30 3143 H 304.769 -3.84262 -0.879581 0
M  V30 3144 H 306.057 -4.83445 -1.58614 0
M  V30 3145 H 305.455 -3.47631 -4.46283 0
M  V30 3146 H 304.012 -4.30165 -4.89695 0
M  V30 3147 N 307.445 0.0818655 -1.57387 0
M  V30 3148 C 308.355 1.11642 -2.06333 0
M  V30 3149 C 309.371 1.43033 -0.99083 0
M  V30 3150 O 310.547 1.53411 -1.30488 0
M  V30 3151 C 307.612 2.41342 -2.48907 0
M  V30 3152 C 306.673 2.17014 -3.7041 0
M  V30 3153 C 305.906 3.4053 -4.10944 0
M  V30 3154 O 306.129 4.4927 -3.51444 0
M  V30 3155 O 305.063 3.29336 -5.03807 0
M  V30 3156 H 308.889 0.730657 -2.9478 0
M  V30 3157 H 306.474 0.295301 -1.46452 0
M  V30 3158 H 308.356 3.17691 -2.76858 0
M  V30 3159 H 307.031 2.79319 -1.63593 0
M  V30 3160 H 305.938 1.38403 -3.47556 0
M  V30 3161 H 307.271 1.83923 -4.56545 0
M  V30 3162 N 308.923 1.53595 0.353017 0
M  V30 3163 C 310.334 1.61937 0.929153 0
M  V30 3164 C 310.685 0.494686 1.89861 0
M  V30 3165 O 309.81 -0.377017 2.1309 0
M  V30 3166 C 310.405 2.93526 1.69199 0
M  V30 3167 C 308.964 3.04161 2.21727 0
M  V30 3168 C 308.111 2.57322 1.03348 0
M  V30 3169 H 311.062 1.58155 0.131431 0
M  V30 3170 H 311.083 2.82034 2.55416 0
M  V30 3171 H 310.595 3.75362 0.986144 0
M  V30 3172 H 308.696 2.26938 2.95516 0
M  V30 3173 H 308.809 4.09465 2.48748 0
M  V30 3174 H 307.173 2.12499 1.40414 0
M  V30 3175 H 307.956 3.41588 0.342428 0
M  V30 3176 N 310.401 -0.613514 1.45168 0
M  V30 3177 C 311.65 -1.36874 1.4815 0
M  V30 3178 C 311.963 -1.952 0.124982 0
M  V30 3179 O 313.169 -2.71481 0.0324176 0
M  V30 3180 C 311.625 -2.47905 2.60904 0
M  V30 3181 C 311.233 -1.96016 4.02842 0
M  V30 3182 C 312.977 -3.24965 2.73126 0
M  V30 3183 C 310.884 -3.04494 5.06988 0
M  V30 3184 H 309.814 -0.514428 0.551253 0
M  V30 3185 H 312.465 -0.658182 1.7129 0
M  V30 3186 H 310.847 -3.21618 2.31037 0
M  V30 3187 H 312.021 -1.29051 4.4236 0
M  V30 3188 H 310.336 -1.31719 3.95018 0
M  V30 3189 H 312.933 -4.05865 3.48106 0
M  V30 3190 H 313.276 -3.75588 1.79553 0
M  V30 3191 H 313.809 -2.5835 3.0249 0
M  V30 3192 H 310.548 -2.58795 6.0225 0
M  V30 3193 H 310.068 -3.70044 4.72046 0
M  V30 3194 H 311.747 -3.68976 5.31475 0
M  V30 3195 N 311.879 -1.3236 -0.855495 0
M  V30 3196 C 313.126 -1.22872 -1.60962 0
M  V30 3197 C 313.454 0.209658 -1.93367 0
M  V30 3198 O 312.709 1.16243 -1.57436 0
M  V30 3199 C 313.008 -2.03275 -2.93963 0
M  V30 3200 C 312.674 -3.5264 -2.80991 0
M  V30 3201 C 311.336 -3.93364 -2.7716 0
M  V30 3202 C 313.688 -4.47626 -2.66983 0
M  V30 3203 C 311.016 -5.27319 -2.572 0
M  V30 3204 C 313.368 -5.81723 -2.48558 0
M  V30 3205 C 312.032 -6.2165 -2.4312 0
M  V30 3206 H 311.302 -0.44962 -0.589001 0
M  V30 3207 H 313.949 -1.63777 -0.992442 0
M  V30 3208 H 312.254 -1.55095 -3.59795 0
M  V30 3209 H 313.951 -1.93303 -3.51333 0
M  V30 3210 H 310.541 -3.20295 -2.84797 0
M  V30 3211 H 314.725 -4.17084 -2.68988 0
M  V30 3212 H 309.981 -5.57311 -2.51424 0
M  V30 3213 H 314.155 -6.5494 -2.36699 0
M  V30 3214 H 311.782 -7.25388 -2.27412 0
M  V30 3215 N 313.357 1.07166 -1.15556 0
M  V30 3216 C 314.768 1.6127 -0.940693 0
M  V30 3217 C 315.119 1.89251 0.517551 0
M  V30 3218 O 314.244 1.65937 1.38903 0
M  V30 3219 C 314.839 2.92993 -1.7012 0
M  V30 3220 C 313.398 3.43832 -1.53156 0
M  V30 3221 C 312.545 2.1786 -1.71558 0
M  V30 3222 H 315.496 0.90229 -1.30554 0
M  V30 3223 H 315.517 3.62007 -1.17181 0
M  V30 3224 H 315.029 2.72596 -2.76248 0
M  V30 3225 H 313.13 3.69307 -0.494294 0
M  V30 3226 H 313.243 4.19747 -2.30975 0
M  V30 3227 H 311.607 2.2765 -1.14225 0
M  V30 3228 H 312.39 1.99956 -2.79056 0
M  V30 3229 N 314.835 0.952656 1.25548 0
M  V30 3230 C 316.246 0.647392 1.75116 0
M  V30 3231 C 316.597 -0.837274 1.77438 0
M  V30 3232 O 315.722 -1.65525 1.39393 0
M  V30 3233 C 316.317 1.16845 3.18014 0
M  V30 3234 C 314.876 0.913382 3.6515 0
M  V30 3235 C 314.023 1.31265 2.44264 0
M  V30 3236 H 316.974 1.12968 1.11462 0
M  V30 3237 H 316.995 0.527606 3.76824 0
M  V30 3238 H 316.507 2.24902 3.16292 0
M  V30 3239 H 314.608 -0.152316 3.72289 0
M  V30 3240 H 314.721 1.54845 4.53387 0
M  V30 3241 H 313.085 0.731028 2.43984 0
M  V30 3242 H 313.868 2.40239 2.45234 0
M  V30 3243 N 316.313 -1.40141 0.720998 0
M  V30 3244 C 317.223 -2.34486 0.0731031 0
M  V30 3245 C 318.239 -1.57587 -0.737723 0
M  V30 3246 O 319.415 -1.89949 -0.669429 0
M  V30 3247 C 316.48 -3.36528 -0.833656 0
M  V30 3248 C 315.541 -4.29298 -0.0121673 0
M  V30 3249 C 314.774 -5.26466 -0.875742 0
M  V30 3250 O 314.997 -5.29745 -2.11485 0
M  V30 3251 O 313.931 -6.01092 -0.31185 0
M  V30 3252 H 317.757 -2.9152 0.851444 0
M  V30 3253 H 315.342 -1.41427 0.481527 0
M  V30 3254 H 317.224 -3.99093 -1.35289 0
M  V30 3255 H 315.899 -2.81899 -1.59105 0
M  V30 3256 H 314.806 -3.70001 0.552262 0
M  V30 3257 H 316.139 -4.87094 0.707129 0
M  V30 3258 N 317.792 -0.46758 -1.50504 0
M  V30 3259 C 318.722 0.318381 -2.31319 0
M  V30 3260 C 319.703 0.993564 -1.38066 0
M  V30 3261 O 320.888 0.991411 -1.66987 0
M  V30 3262 C 318.018 1.40275 -3.17711 0
M  V30 3263 C 316.972 0.849373 -4.19487 0
M  V30 3264 C 316.298 2.03177 -4.94594 0
M  V30 3265 C 317.598 -0.136942 -5.2212 0
M  V30 3266 H 319.292 -0.356106 -2.97275 0
M  V30 3267 H 316.838 -0.172703 -1.42961 0
M  V30 3268 H 318.791 1.96004 -3.73042 0
M  V30 3269 H 317.515 2.10596 -2.49634 0
M  V30 3270 H 316.174 0.314076 -3.65252 0
M  V30 3271 H 315.822 2.72187 -4.22993 0
M  V30 3272 H 315.522 1.66774 -5.63436 0
M  V30 3273 H 317.046 2.59403 -5.52759 0
M  V30 3274 H 318.46 0.331056 -5.72343 0
M  V30 3275 H 316.857 -0.41507 -5.98663 0
M  V30 3276 H 317.927 -1.06398 -4.73083 0
M  V30 3277 N 319.27 1.56325 -0.20005 0
M  V30 3278 C 320.2 2.22318 0.713916 0
M  V30 3279 C 321.181 1.18788 1.21752 0
M  V30 3280 O 322.366 1.47309 1.26545 0
M  V30 3281 C 319.496 2.88639 1.93144 0
M  V30 3282 C 318.45 3.98457 1.56255 0
M  V30 3283 C 317.776 4.51967 2.85709 0
M  V30 3284 C 319.076 5.16612 0.768747 0
M  V30 3285 H 320.77 2.98952 0.163755 0
M  V30 3286 H 318.316 1.43792 0.0773219 0
M  V30 3287 H 320.269 3.33491 2.57608 0
M  V30 3288 H 318.993 2.09419 2.50621 0
M  V30 3289 H 317.652 3.54305 0.941471 0
M  V30 3290 H 317.3 3.69503 3.41287 0
M  V30 3291 H 317 5.26071 2.6177 0
M  V30 3292 H 318.524 4.99523 3.51154 0
M  V30 3293 H 319.938 5.57977 1.3166 0
M  V30 3294 H 318.335 5.96812 0.627286 0
M  V30 3295 H 319.405 4.84358 -0.229168 0
M  V30 3296 N 320.748 -0.0735177 1.57428 0
M  V30 3297 C 322.164 -0.428264 1.53747 0
M  V30 3298 C 322.364 -1.79272 0.91998 0
M  V30 3299 O 321.42 -2.47051 0.521745 0
M  V30 3300 C 322.733 -0.370914 2.98404 0
M  V30 3301 C 324.281 -0.451224 3.0973 0
M  V30 3302 C 324.756 -0.4238 4.56035 0
M  V30 3303 N 326.247 -0.483925 4.60665 0
M  V30 3304 C 326.982 -0.484891 5.71346 0
M  V30 3305 N 326.478 -0.440775 6.91396 0
M  V30 3306 N 328.271 -0.531319 5.59583 0
M  V30 3307 H 320.422 0.819949 1.95935 0
M  V30 3308 H 322.685 0.307493 0.896745 0
M  V30 3309 H 322.391 0.564956 3.47133 0
M  V30 3310 H 322.265 -1.18176 3.5821 0
M  V30 3311 H 324.652 -1.37752 2.60976 0
M  V30 3312 H 324.733 0.388167 2.52838 0
M  V30 3313 H 324.377 0.498638 5.05446 0
M  V30 3314 H 324.307 -1.2807 5.10789 0
M  V30 3315 H 326.798 -0.522338 3.74273 0
M  V30 3316 H 327.111 -0.44539 7.71515 0
M  V30 3317 H 325.456 -0.40749 6.93804 0
M  V30 3318 H 328.647 -0.563464 4.64696 0
M  V30 3319 H 328.82 -0.528603 6.4584 0
M  V30 3320 N 322.226 -1.5378 -0.344866 0
M  V30 3321 C 323.156 -1.84662 -1.42906 0
M  V30 3322 C 324.137 -0.701648 -1.54955 0
M  V30 3323 O 325.322 -0.953438 -1.69184 0
M  V30 3324 C 322.452 -2.05503 -2.79974 0
M  V30 3325 C 321.406 -3.21318 -2.82734 0
M  V30 3326 C 320.732 -3.2749 -4.22675 0
M  V30 3327 C 322.032 -4.59456 -2.48389 0
M  V30 3328 H 323.726 -2.75461 -1.17311 0
M  V30 3329 H 321.272 -1.32542 -0.562896 0
M  V30 3330 H 323.225 -2.25691 -3.55867 0
M  V30 3331 H 321.949 -1.11434 -3.07002 0
M  V30 3332 H 320.608 -3.00984 -2.09294 0
M  V30 3333 H 320.256 -2.31019 -4.4681 0
M  V30 3334 H 319.956 -4.05316 -4.25433 0
M  V30 3335 H 321.48 -3.49887 -5.00412 0
M  V30 3336 H 322.894 -4.79667 -3.13995 0
M  V30 3337 H 321.291 -5.39675 -2.62432 0
M  V30 3338 H 322.361 -4.63155 -1.4358 0
M  V30 3339 N 323.704 0.605807 -1.45491 0
M  V30 3340 C 324.651 1.7164 -1.54299 0
M  V30 3341 C 325.621 1.61486 -0.388761 0
M  V30 3342 O 326.806 1.81039 -0.602445 0
M  V30 3343 C 323.946 3.09953 -1.51734 0
M  V30 3344 C 323.059 3.309 -2.77721 0
M  V30 3345 C 322.194 4.59329 -2.66816 0
M  V30 3346 C 321.233 4.7354 -3.87848 0
M  V30 3347 N 320.37 5.9327 -3.75467 0
M  V30 3348 H 325.21 1.63449 -2.49176 0
M  V30 3349 H 322.747 0.796957 -1.23641 0
M  V30 3350 H 324.705 3.89977 -1.48235 0
M  V30 3351 H 323.335 3.17098 -0.604068 0
M  V30 3352 H 322.387 2.44639 -2.913 0
M  V30 3353 H 323.699 3.37274 -3.67488 0
M  V30 3354 H 322.853 5.4755 -2.61292 0
M  V30 3355 H 321.592 4.55355 -1.74651 0
M  V30 3356 H 320.597 3.83741 -3.93729 0
M  V30 3357 H 321.822 4.79309 -4.81082 0
M  V30 3358 H 319.768 5.90338 -2.86072 0
M  V30 3359 H 319.685 6.00811 -4.5887 0
M  V30 3360 H 320.953 6.83984 -3.73879 0
M  V30 3361 N 325.182 1.32811 0.848464 0
M  V30 3362 C 326.459 1.14334 1.58704 0
M  V30 3363 C 326.839 -0.293948 2.09043 0
M  V30 3364 O 326.187 -1.29153 1.88499 0
M  V30 3365 C 326.397 2.17626 2.72837 0
M  V30 3366 C 327.745 2.51282 3.42261 0
M  V30 3367 O 328.769 2.16219 2.83068 0
M  V30 3368 O 327.628 3.11413 4.49093 0
M  V30 3369 H 324.722 0.441601 0.699226 0
M  V30 3370 H 327.268 1.44362 0.892053 0
M  V30 3371 H 326.04 3.14211 2.3321 0
M  V30 3372 H 325.663 1.88628 3.50008 0
M  V30 3373 N 326.66 -1.06551 1.16123 0
M  V30 3374 C 327.888 -1.83005 0.965237 0
M  V30 3375 C 328.303 -1.82423 -0.486542 0
M  V30 3376 O 327.66 -1.24152 -1.33763 0
M  V30 3377 C 327.711 -3.29733 1.48183 0
M  V30 3378 O 327.432 -3.30416 2.87674 0
M  V30 3379 C 328.933 -4.22926 1.32848 0
M  V30 3380 H 326.153 -0.577118 0.342309 0
M  V30 3381 H 328.697 -1.3445 1.54089 0
M  V30 3382 H 326.852 -3.75609 0.948517 0
M  V30 3383 H 327.266 -4.22149 3.11272 0
M  V30 3384 H 328.74 -5.23916 1.73827 0
M  V30 3385 H 329.217 -4.38346 0.273692 0
M  V30 3386 H 329.823 -3.82894 1.85127 0
M  V30 3387 N 328.138 -0.959301 -1.25041 0
M  V30 3388 C 329.549 -0.65667 -1.74771 0
M  V30 3389 C 329.9 0.827852 -1.77879 0
M  V30 3390 O 329.025 1.64783 -1.40269 0
M  V30 3391 C 329.62 -1.1853 -3.1739 0
M  V30 3392 C 328.179 -0.932734 -3.6466 0
M  V30 3393 C 327.326 -1.32558 -2.43564 0
M  V30 3394 H 330.277 -1.13558 -1.10862 0
M  V30 3395 H 330.298 -0.547582 -3.76539 0
M  V30 3396 H 329.81 -2.26576 -3.15095 0
M  V30 3397 H 327.911 0.13257 -3.72364 0
M  V30 3398 H 328.024 -1.57248 -4.52559 0
M  V30 3399 H 326.388 -0.743956 -2.43593 0
M  V30 3400 H 327.171 -2.41537 -2.43957 0
M  V30 3401 N 329.616 1.39756 -0.72842 0
M  V30 3402 C 331.032 1.5442 -0.403308 0
M  V30 3403 C 331.232 1.69694 1.08656 0
M  V30 3404 O 330.288 1.69373 1.87267 0
M  V30 3405 C 331.601 2.76555 -1.18058 0
M  V30 3406 C 333.149 2.90384 -1.16815 0
M  V30 3407 C 333.624 4.15449 -1.92785 0
M  V30 3408 N 335.115 4.22475 -1.89918 0
M  V30 3409 C 335.85 5.1818 -2.45514 0
M  V30 3410 N 335.346 6.19714 -3.09719 0
M  V30 3411 N 337.139 5.1035 -2.35584 0
M  V30 3412 H 329.29 1.28089 -1.69431 0
M  V30 3413 H 331.553 0.620327 -0.716867 0
M  V30 3414 H 331.259 2.7159 -2.23455 0
M  V30 3415 H 331.133 3.69033 -0.780662 0
M  V30 3416 H 333.52 2.94846 -0.12234 0
M  V30 3417 H 333.601 1.98988 -1.6074 0
M  V30 3418 H 333.245 4.11749 -2.97364 0
M  V30 3419 H 333.175 5.05877 -1.46272 0
M  V30 3420 H 335.666 3.49743 -1.43138 0
M  V30 3421 H 335.979 6.8919 -3.49625 0
M  V30 3422 H 334.324 6.20121 -3.13807 0
M  V30 3423 H 337.515 4.2996 -1.85072 0
M  V30 3424 H 337.688 5.84761 -2.79211 0
M  V30 3425 N 331.094 0.475555 1.50254 0
M  V30 3426 C 332.041 -0.316293 2.28622 0
M  V30 3427 C 333.011 -0.983227 1.33873 0
M  V30 3428 O 334.196 -0.994805 1.62814 0
M  V30 3429 C 331.336 -1.38975 3.1588 0
M  V30 3430 C 330.449 -0.737146 4.25664 0
M  V30 3431 C 329.584 -1.78887 5.00173 0
M  V30 3432 C 328.623 -1.11676 6.01826 0
M  V30 3433 N 327.76 -2.11154 6.69596 0
M  V30 3434 H 332.6 0.358297 2.95838 0
M  V30 3435 H 330.137 0.188541 1.45887 0
M  V30 3436 H 332.095 -2.02383 3.64825 0
M  V30 3437 H 330.725 -2.03344 2.50701 0
M  V30 3438 H 329.777 0.0096065 3.80399 0
M  V30 3439 H 331.089 -0.206816 4.98371 0
M  V30 3440 H 330.243 -2.49865 5.52859 0
M  V30 3441 H 328.982 -2.35302 4.27182 0
M  V30 3442 H 327.987 -0.392633 5.48396 0
M  V30 3443 H 329.212 -0.55945 6.76792 0
M  V30 3444 H 327.158 -2.66577 5.99394 0
M  V30 3445 H 327.075 -1.63118 7.38193 0
M  V30 3446 H 328.343 -2.81497 7.26897 0
M  V30 3447 N 332.573 -1.56217 0.208337 0
M  V30 3448 C 333.505 -2.1695 -0.739276 0
M  V30 3449 C 334.518 -1.13492 -1.1672 0
M  V30 3450 O 335.707 -1.40529 -1.10063 0
M  V30 3451 C 332.807 -2.72755 -2.01142 0
M  V30 3452 C 331.98 -4.0125 -1.74118 0
M  V30 3453 C 331.039 -4.41749 -2.85909 0
M  V30 3454 O 330.065 -5.08912 -2.54946 0
M  V30 3455 N 331.267 -4.06342 -4.14568 0
M  V30 3456 H 334.032 -2.98893 -0.219837 0
M  V30 3457 H 331.593 -1.61878 0.0268445 0
M  V30 3458 H 333.585 -2.96826 -2.75094 0
M  V30 3459 H 332.155 -1.95191 -2.4417 0
M  V30 3460 H 331.375 -3.85173 -0.838775 0
M  V30 3461 H 332.663 -4.851 -1.53477 0
M  V30 3462 H 332.061 -3.52345 -4.42571 0
M  V30 3463 H 330.618 -4.35335 -4.85105 0
M  V30 3464 N 334.051 0.0651679 -1.57465 0
M  V30 3465 C 334.981 1.07693 -2.07182 0
M  V30 3466 C 335.962 1.39962 -0.966673 0
M  V30 3467 O 337.147 1.49475 -1.2398 0
M  V30 3468 C 334.277 2.3885 -2.52127 0
M  V30 3469 C 333.231 2.20917 -3.66579 0
M  V30 3470 C 332.557 3.57515 -3.97601 0
M  V30 3471 C 333.857 1.62493 -4.9638 0
M  V30 3472 H 335.551 0.663199 -2.91962 0
M  V30 3473 H 333.097 0.317569 -1.40455 0
M  V30 3474 H 335.05 3.09928 -2.85522 0
M  V30 3475 H 333.774 2.82215 -1.64384 0
M  V30 3476 H 332.433 1.52279 -3.33477 0
M  V30 3477 H 332.081 3.98463 -3.06979 0
M  V30 3478 H 331.781 3.46353 -4.74672 0
M  V30 3479 H 333.305 4.30013 -4.33499 0
M  V30 3480 H 334.719 2.23445 -5.27963 0
M  V30 3481 H 333.116 1.62009 -5.77818 0
M  V30 3482 H 334.186 0.587041 -4.81333 0
M  V30 3483 N 335.529 1.53961 0.336706 0
M  V30 3484 C 336.945 1.44378 0.680241 0
M  V30 3485 C 337.145 0.606034 1.9217 0
M  V30 3486 O 336.201 0.099688 2.52303 0
M  V30 3487 C 337.514 2.87945 0.8665 0
M  V30 3488 C 339.062 2.97763 0.964682 0
M  V30 3489 C 339.537 4.42453 1.18321 0
M  V30 3490 N 341.028 4.46008 1.25025 0
M  V30 3491 C 341.763 5.55102 1.43697 0
M  V30 3492 N 341.259 6.7419 1.59498 0
M  V30 3493 N 343.052 5.42727 1.463 0
M  V30 3494 H 335.203 2.06918 -0.479455 0
M  V30 3495 H 337.466 0.935634 -0.152619 0
M  V30 3496 H 337.172 3.51691 0.0256937 0
M  V30 3497 H 337.046 3.33293 1.76623 0
M  V30 3498 H 339.433 2.34153 1.796 0
M  V30 3499 H 339.514 2.55766 0.041708 0
M  V30 3500 H 339.158 5.06645 0.356788 0
M  V30 3501 H 339.088 4.82048 2.11985 0
M  V30 3502 H 341.579 3.60196 1.14312 0
M  V30 3503 H 341.892 7.53095 1.734 0
M  V30 3504 H 340.237 6.77123 1.56621 0
M  V30 3505 H 343.428 4.48647 1.33543 0
M  V30 3506 H 343.601 6.27806 1.6051 0
M  V30 3507 N 337.007 -0.598083 1.45811 0
M  V30 3508 C 338.254 -1.35681 1.50323 0
M  V30 3509 C 338.582 -1.9393 0.148739 0
M  V30 3510 O 337.837 -1.76094 -0.853787 0
M  V30 3511 C 338.136 -2.51669 2.53766 0
M  V30 3512 C 337.802 -2.11508 3.98215 0
M  V30 3513 C 336.464 -2.0027 4.37545 0
M  V30 3514 C 338.816 -1.80308 4.89018 0
M  V30 3515 C 336.144 -1.56067 5.65562 0
M  V30 3516 C 338.496 -1.37589 6.17456 0
M  V30 3517 C 337.16 -1.24916 6.55708 0
M  V30 3518 H 336.43 -0.496492 0.550069 0
M  V30 3519 H 339.077 -0.675052 1.79207 0
M  V30 3520 H 337.382 -3.25225 2.18486 0
M  V30 3521 H 339.079 -3.09895 2.54492 0
M  V30 3522 H 335.669 -2.21185 3.67117 0
M  V30 3523 H 339.853 -1.87884 4.59362 0
M  V30 3524 H 335.109 -1.44886 5.93985 0
M  V30 3525 H 339.283 -1.12495 6.87254 0
M  V30 3526 H 336.91 -0.904386 7.54801 0
M  V30 3527 N 338.485 -1.33259 -0.841409 0
M  V30 3528 C 339.395 -1.25332 -1.98316 0
M  V30 3529 C 340.411 -0.164364 -1.73222 0
M  V30 3530 O 341.587 -0.387486 -1.97637 0
M  V30 3531 C 338.652 -0.990078 -3.32262 0
M  V30 3532 C 337.713 -2.16879 -3.70489 0
M  V30 3533 C 336.946 -1.91801 -4.98044 0
M  V30 3534 O 337.169 -0.867075 -5.63771 0
M  V30 3535 O 336.103 -2.78267 -5.33714 0
M  V30 3536 H 339.929 -2.21344 -2.07944 0
M  V30 3537 H 337.514 -1.1328 -0.974058 0
M  V30 3538 H 339.396 -0.860321 -4.12524 0
M  V30 3539 H 338.071 -0.0602155 -3.23644 0
M  V30 3540 H 336.978 -2.35407 -2.90748 0
M  V30 3541 H 338.311 -3.0819 -3.8377 0
M  V30 3542 N 339.963 1.05934 -1.16686 0
M  V30 3543 C 341.211 1.78447 -0.948744 0
M  V30 3544 C 341.532 1.87813 0.524523 0
M  V30 3545 O 340.802 1.38945 1.38098 0
M  V30 3546 H 339.382 0.660971 -0.348033 0
M  V30 3547 H 342.044 1.27947 -1.47022 0
M  V30 3548 H 341.14 2.80394 -1.37061 0
M  V30 3549 N 341.441 0.965919 1.2453 0
M  V30 3550 C 342.351 0.502154 2.29163 0
M  V30 3551 C 343.367 -0.436017 1.68448 0
M  V30 3552 O 344.543 -0.309497 1.99008 0
M  V30 3553 C 341.608 -0.201956 3.46111 0
M  V30 3554 C 340.669 0.775821 4.22232 0
M  V30 3555 C 339.902 0.105217 5.33596 0
M  V30 3556 O 340.125 -1.10683 5.59558 0
M  V30 3557 O 339.059 0.796475 5.96607 0
M  V30 3558 H 342.885 1.37194 2.70946 0
M  V30 3559 H 340.47 0.732875 1.30189 0
M  V30 3560 H 342.352 -0.597564 4.17142 0
M  V30 3561 H 341.027 -1.04673 3.06309 0
M  V30 3562 H 339.934 1.22185 3.53584 0
M  V30 3563 H 341.267 1.58896 4.65846 0
M  V30 3564 N 342.919 -1.39368 0.735821 0
M  V30 3565 C 344.335 -1.54204 0.411492 0
M  V30 3566 C 344.535 -1.70268 -1.07755 0
M  V30 3567 O 343.591 -1.70364 -1.86366 0
M  V30 3568 C 344.904 -2.75925 1.19523 0
M  V30 3569 C 346.452 -2.89761 1.18354 0
M  V30 3570 C 346.927 -4.14421 1.94986 0
M  V30 3571 N 348.418 -4.21462 1.92156 0
M  V30 3572 C 349.153 -5.16871 2.48258 0
M  V30 3573 N 348.649 -6.18063 3.13001 0
M  V30 3574 N 350.442 -5.09093 2.38287 0
M  V30 3575 H 342.593 -1.27189 1.70108 0
M  V30 3576 H 344.856 -0.616517 0.720147 0
M  V30 3577 H 344.562 -2.70401 2.24892 0
M  V30 3578 H 344.436 -3.68614 0.800222 0
M  V30 3579 H 346.823 -2.94777 0.137975 0
M  V30 3580 H 346.904 -1.98133 1.61793 0
M  V30 3581 H 346.548 -4.10166 2.99543 0
M  V30 3582 H 346.478 -5.05095 1.48953 0
M  V30 3583 H 348.969 -3.48979 1.44991 0
M  V30 3584 H 349.282 -6.87326 3.53275 0
M  V30 3585 H 347.627 -6.18448 3.17091 0
M  V30 3586 H 350.818 -4.28973 1.8735 0
M  V30 3587 H 350.991 -5.83272 2.82308 0
M  V30 3588 N 344.397 -0.483516 -1.5 0
M  V30 3589 C 345.643 0.0672592 -2.02688 0
M  V30 3590 C 345.976 1.38247 -1.36387 0
M  V30 3591 O 345.251 1.88131 -0.493675 0
M  V30 3592 C 345.534 0.238109 -3.59312 0
M  V30 3593 C 345.387 -1.099 -4.36168 0
M  V30 3594 C 346.706 0.986916 -4.28892 0
M  V30 3595 H 343.825 0.0229696 -0.736642 0
M  V30 3596 H 346.467 -0.631527 -1.79197 0
M  V30 3597 H 344.617 0.8333 -3.79458 0
M  V30 3598 H 346.289 -1.73172 -4.27562 0
M  V30 3599 H 344.532 -1.69261 -3.99416 0
M  V30 3600 H 345.203 -0.932954 -5.44059 0
M  V30 3601 H 347.679 0.482302 -4.13295 0
M  V30 3602 H 346.555 1.07527 -5.38265 0
M  V30 3603 H 346.816 2.0265 -3.92919 0
M  V30 3604 N 345.875 1.56104 -0.216619 0
M  V30 3605 C 347.103 2.02563 0.421413 0
M  V30 3606 C 347.518 1.0965 1.53695 0
M  V30 3607 O 346.875 0.10521 1.82196 0
M  V30 3608 C 346.926 3.48584 0.957665 0
M  V30 3609 O 346.647 4.37953 -0.113389 0
M  V30 3610 C 348.148 4.10664 1.66943 0
M  V30 3611 H 345.368 0.662944 0.103665 0
M  V30 3612 H 347.912 2.01793 -0.331629 0
M  V30 3613 H 346.067 3.49985 1.661 0
M  V30 3614 H 346.481 5.23704 0.288932 0
M  V30 3615 H 347.955 5.14622 1.99671 0
M  V30 3616 H 348.432 3.55373 2.58083 0
M  V30 3617 H 349.038 4.13098 1.01142 0
M  V30 3618 N 347.353 -0.0568162 1.57498 0
M  V30 3619 C 348.599 -0.748893 1.89111 0
M  V30 3620 C 348.954 -1.74422 0.81208 0
M  V30 3621 O 348.247 -1.90731 -0.182247 0
M  V30 3622 C 348.441 -1.48359 3.25153 0
M  V30 3623 C 348.27 -0.560924 4.46188 0
M  V30 3624 C 347.04 -0.192264 5.04934 0
M  V30 3625 C 349.238 0.148824 5.14085 0
M  V30 3626 N 347.22 0.734555 6.0949 0
M  V30 3627 C 348.591 0.932286 6.12951 0
M  V30 3628 C 350.646 0.218713 4.97419 0
M  V30 3629 C 349.349 1.77917 6.96949 0
M  V30 3630 C 351.375 1.05262 5.81957 0
M  V30 3631 C 350.737 1.82409 6.80372 0
M  V30 3632 H 346.836 -0.249002 0.741298 0
M  V30 3633 H 349.42 -0.00984926 1.94698 0
M  V30 3634 H 347.591 -2.19326 3.20547 0
M  V30 3635 H 349.323 -2.12586 3.44368 0
M  V30 3636 H 346.078 -0.548421 4.70414 0
M  V30 3637 H 346.502 1.19165 6.6643 0
M  V30 3638 H 351.144 -0.363407 4.21235 0
M  V30 3639 H 348.862 2.3722 7.72497 0
M  V30 3640 H 352.448 1.10987 5.71116 0
M  V30 3641 H 351.328 2.45895 7.44651 0
M  V30 3642 N 348.832 -1.54138 -0.328536 0
M  V30 3643 C 350.081 -1.71318 -1.06456 0
M  V30 3644 C 350.394 -0.491109 -1.89334 0
M  V30 3645 O 351.6 -0.54416 -2.65991 0
M  V30 3646 C 350.056 -3.03 -1.94214 0
M  V30 3647 C 349.664 -4.32595 -1.16471 0
M  V30 3648 C 351.408 -3.29544 -2.67583 0
M  V30 3649 C 349.315 -5.55341 -2.03347 0
M  V30 3650 H 348.245 -0.638429 -0.401155 0
M  V30 3651 H 350.896 -1.80633 -0.323106 0
M  V30 3652 H 349.278 -2.87579 -2.72239 0
M  V30 3653 H 350.452 -4.58766 -0.432525 0
M  V30 3654 H 348.767 -4.12777 -0.548063 0
M  V30 3655 H 351.364 -4.18444 -3.3288 0
M  V30 3656 H 351.707 -2.47206 -3.34955 0
M  V30 3657 H 352.24 -3.45809 -1.96623 0
M  V30 3658 H 348.979 -6.40268 -1.40491 0
M  V30 3659 H 348.499 -5.33397 -2.74313 0
M  V30 3660 H 350.178 -5.91557 -2.62049 0
M  V30 3661 N 350.31 0.590341 -1.46126 0
M  V30 3662 C 351.242 1.71427 -1.52136 0
M  V30 3663 C 352.255 1.57542 -0.41042 0
M  V30 3664 O 353.444 1.65106 -0.678389 0
M  V30 3665 C 350.544 3.09605 -1.37834 0
M  V30 3666 C 349.717 3.49566 -2.62912 0
M  V30 3667 C 348.776 4.66773 -2.42918 0
M  V30 3668 O 347.802 4.73019 -3.1661 0
M  V30 3669 N 349.004 5.61161 -1.4859 0
M  V30 3670 H 351.769 1.66728 -2.49042 0
M  V30 3671 H 349.33 0.776113 -1.42085 0
M  V30 3672 H 351.322 3.85796 -1.22243 0
M  V30 3673 H 349.892 3.08714 -0.491393 0
M  V30 3674 H 349.112 2.63158 -2.93499 0
M  V30 3675 H 350.4 3.73028 -3.46017 0
M  V30 3676 H 349.798 5.58844 -0.87808 0
M  V30 3677 H 348.355 6.36814 -1.38965 0
M  V30 3678 N 351.788 1.33704 0.83433 0
M  V30 3679 C 352.751 1.24244 1.92603 0
M  V30 3680 C 353.751 0.160383 1.59998 0
M  V30 3681 O 354.941 0.412228 1.69252 0
M  V30 3682 C 352.073 0.91555 3.28376 0
M  V30 3683 H 353.266 2.21287 2.02416 0
M  V30 3684 H 350.819 1.17827 1.02696 0
M  V30 3685 H 351.554 -0.0521886 3.24258 0
M  V30 3686 H 351.339 1.69811 3.53422 0
M  V30 3687 H 352.829 0.874231 4.08347 0
M  V30 3688 N 353.266 -1.05314 1.17247 0
M  V30 3689 C 354.491 -1.82509 0.985148 0
M  V30 3690 C 354.916 -1.82343 -0.461788 0
M  V30 3691 O 354.274 -1.23151 -1.33055 0
M  V30 3692 C 354.322 -3.26566 1.52929 0
M  V30 3693 O 353.426 -4.05666 0.742225 0
M  V30 3694 H 352.767 -0.564347 0.349869 0
M  V30 3695 H 355.297 -1.32718 1.55715 0
M  V30 3696 H 355.307 -3.77369 1.55103 0
M  V30 3697 H 353.982 -3.26001 2.58256 0
M  V30 3698 H 352.559 -3.64397 0.791794 0
M  V30 3699 N 354.744 -0.972509 -1.24016 0
M  V30 3700 C 355.972 -0.654803 -1.96265 0
M  V30 3701 C 356.387 0.776708 -1.72083 0
M  V30 3702 O 355.744 1.52171 -1.00748 0
M  V30 3703 C 355.795 -0.92592 -3.49441 0
M  V30 3704 O 355.516 -2.30116 -3.72798 0
M  V30 3705 C 357.017 -0.623068 -4.38899 0
M  V30 3706 H 354.237 -0.243907 -0.6251 0
M  V30 3707 H 356.781 -1.30175 -1.57717 0
M  V30 3708 H 354.936 -0.325108 -3.86033 0
M  V30 3709 H 355.35 -2.38483 -4.67147 0
M  V30 3710 H 356.824 -0.863189 -5.45209 0
M  V30 3711 H 357.301 0.442754 -4.36963 0
M  V30 3712 H 357.907 -1.204 -4.07902 0
M  V30 3713 N 356.222 1.38976 -0.743202 0
M  V30 3714 C 357.152 2.33171 -0.123873 0
M  V30 3715 C 358.133 1.54336 0.71516 0
M  V30 3716 O 359.318 1.82696 0.658467 0
M  V30 3717 C 356.448 3.38474 0.777978 0
M  V30 3718 C 355.402 4.27979 0.0424758 0
M  V30 3719 C 354.728 5.2405 1.06189 0
M  V30 3720 C 356.028 5.10155 -1.1198 0
M  V30 3721 H 357.722 2.85213 -0.910709 0
M  V30 3722 H 355.268 1.37133 -0.439388 0
M  V30 3723 H 357.221 4.03328 1.22084 0
M  V30 3724 H 355.945 2.84891 1.59702 0
M  V30 3725 H 354.604 3.64616 -0.380853 0
M  V30 3726 H 354.252 4.66758 1.87472 0
M  V30 3727 H 353.952 5.84785 0.574485 0
M  V30 3728 H 355.476 5.9178 1.50428 0
M  V30 3729 H 356.89 5.68307 -0.75499 0
M  V30 3730 H 355.287 5.80073 -1.53738 0
M  V30 3731 H 356.357 4.44504 -1.93764 0
M  V30 3732 N 357.7 0.491464 1.49741 0
M  V30 3733 C 358.647 -0.292027 2.28945 0
M  V30 3734 C 359.617 -0.968973 1.34908 0
M  V30 3735 O 360.802 -0.97748 1.6386 0
M  V30 3736 C 357.942 -1.35617 3.17336 0
M  V30 3737 C 357.055 -0.691957 4.26422 0
M  V30 3738 C 356.19 -1.73572 5.02042 0
M  V30 3739 C 355.229 -1.05286 6.02977 0
M  V30 3740 N 354.366 -2.0404 6.71798 0
M  V30 3741 H 359.206 0.389654 2.95442 0
M  V30 3742 H 356.743 0.204003 1.45679 0
M  V30 3743 H 358.701 -1.98502 3.66951 0
M  V30 3744 H 357.331 -2.00674 2.52844 0
M  V30 3745 H 356.383 0.0499523 3.80367 0
M  V30 3746 H 357.695 -0.153946 4.98562 0
M  V30 3747 H 356.849 -2.43987 5.55478 0
M  V30 3748 H 355.588 -2.30757 4.29654 0
M  V30 3749 H 354.593 -0.334446 5.48782 0
M  V30 3750 H 355.818 -0.487636 6.77347 0
M  V30 3751 H 353.764 -2.60205 6.02187 0
M  V30 3752 H 353.681 -1.55279 7.39881 0
M  V30 3753 H 354.949 -2.73772 7.29842 0
M  V30 3754 N 359.178 -1.55987 0.224894 0
M  V30 3755 C 360.088 -2.24066 -0.69511 0
M  V30 3756 C 361.104 -1.24939 -1.21104 0
M  V30 3757 O 362.28 -1.5776 -1.25195 0
M  V30 3758 C 359.345 -2.90983 -1.88493 0
M  V30 3759 C 358.406 -4.05462 -1.41064 0
M  V30 3760 C 357.639 -4.69179 -2.54375 0
M  V30 3761 O 357.862 -4.31895 -3.72589 0
M  V30 3762 O 356.796 -5.58108 -2.25386 0
M  V30 3763 H 360.622 -3.03353 -0.145149 0
M  V30 3764 H 358.207 -1.49399 -0.00569476 0
M  V30 3765 H 360.089 -3.33209 -2.57972 0
M  V30 3766 H 358.764 -2.14653 -2.42293 0
M  V30 3767 H 357.671 -3.67798 -0.683774 0
M  V30 3768 H 359.004 -4.83545 -0.918985 0
M  V30 3769 N 360.656 0.0484629 -1.57525 0
M  V30 3770 C 361.586 1.0549 -2.08313 0
M  V30 3771 C 362.567 1.38929 -0.981463 0
M  V30 3772 O 363.752 1.48151 -1.25558 0
M  V30 3773 C 360.882 2.36162 -2.54646 0
M  V30 3774 C 359.836 2.17016 -3.68901 0
M  V30 3775 C 359.162 3.53278 -4.01371 0
M  V30 3776 C 360.462 1.57219 -4.98076 0
M  V30 3777 H 362.156 0.632195 -2.92649 0
M  V30 3778 H 359.702 0.302654 -1.40784 0
M  V30 3779 H 361.655 3.06882 -2.88793 0
M  V30 3780 H 360.379 2.80456 -1.67368 0
M  V30 3781 H 359.038 1.48733 -3.35073 0
M  V30 3782 H 358.686 3.95185 -3.11188 0
M  V30 3783 H 358.386 3.41299 -4.78318 0
M  V30 3784 H 359.91 4.25391 -4.38035 0
M  V30 3785 H 361.324 2.17832 -5.30304 0
M  V30 3786 H 359.721 1.55871 -5.79503 0
M  V30 3787 H 360.791 0.535956 -4.81929 0
M  V30 3788 N 362.134 1.5431 0.320358 0
M  V30 3789 C 363.064 1.86912 1.3995 0
M  V30 3790 C 364.045 0.726211 1.53819 0
M  V30 3791 O 365.23 0.980233 1.67646 0
M  V30 3792 C 362.36 2.09932 2.7667 0
M  V30 3793 C 361.314 3.25776 2.77586 0
M  V30 3794 C 360.64 3.34173 4.17412 0
M  V30 3795 C 361.94 4.6335 2.41048 0
M  V30 3796 H 363.634 2.77292 1.12914 0
M  V30 3797 H 361.18 1.33421 0.541738 0
M  V30 3798 H 363.133 2.31324 3.52232 0
M  V30 3799 H 361.857 1.16304 3.0519 0
M  V30 3800 H 360.516 3.04276 2.04479 0
M  V30 3801 H 360.164 2.38098 4.43078 0
M  V30 3802 H 359.864 4.12033 4.18931 0
M  V30 3803 H 361.388 3.57803 4.94782 0
M  V30 3804 H 362.802 4.84602 3.06324 0
M  V30 3805 H 361.199 5.43782 2.53813 0
M  V30 3806 H 362.269 4.65381 1.36193 0
M  V30 3807 N 363.613 -0.582584 1.46437 0
M  V30 3808 C 364.89 -1.34276 1.4223 0
M  V30 3809 C 365.27 -2.10835 0.10583 0
M  V30 3810 O 364.618 -2.09485 -0.912596 0
M  V30 3811 C 364.828 -2.26865 2.65204 0
M  V30 3812 C 366.176 -2.88691 3.11356 0
M  V30 3813 O 367.2 -2.37178 2.65753 0
M  V30 3814 O 366.059 -3.82255 3.90568 0
M  V30 3815 H 363.153 -0.603326 0.565621 0
M  V30 3816 H 365.699 -0.603591 1.58603 0
M  V30 3817 H 364.471 -1.69724 3.52576 0
M  V30 3818 H 364.094 -3.08122 2.5129 0
M  V30 3819 N 365.091 -1.34144 -0.827227 0
M  V30 3820 C 366.021 -1.28005 -1.95287 0
M  V30 3821 C 367.002 -0.158321 -1.69362 0
M  V30 3822 O 368.187 -0.349987 -1.9102 0
M  V30 3823 C 365.317 -1.03036 -3.31664 0
M  V30 3824 C 364.271 -2.11628 -3.72019 0
M  V30 3825 C 363.597 -1.71854 -5.0633 0
M  V30 3826 C 364.897 -3.53417 -3.8457 0
M  V30 3827 H 366.591 -2.22187 -2.00682 0
M  V30 3828 H 364.137 -1.0696 -0.964135 0
M  V30 3829 H 366.09 -0.973863 -4.09993 0
M  V30 3830 H 364.814 -0.0529391 -3.26557 0
M  V30 3831 H 363.473 -2.16339 -2.95961 0
M  V30 3832 H 363.121 -0.727841 -4.97706 0
M  V30 3833 H 362.821 -2.44531 -5.34302 0
M  V30 3834 H 364.345 -1.67692 -5.87122 0
M  V30 3835 H 365.759 -3.51142 -4.5318 0
M  V30 3836 H 364.156 -4.24679 -4.2399 0
M  V30 3837 H 365.226 -3.91072 -2.86689 0
M  V30 3838 N 366.569 1.04691 -1.17803 0
M  V30 3839 C 367.516 2.12557 -0.899343 0
M  V30 3840 C 368.486 1.65339 0.158771 0
M  V30 3841 O 369.671 1.90789 0.0204797 0
M  V30 3842 C 366.811 3.42481 -0.424315 0
M  V30 3843 C 365.924 4.03346 -1.54713 0
M  V30 3844 C 365.059 5.21208 -1.02546 0
M  V30 3845 C 364.098 5.74089 -2.12339 0
M  V30 3846 N 363.235 6.83247 -1.61612 0
M  V30 3847 H 368.075 2.35734 -1.823 0
M  V30 3848 H 365.612 1.1564 -0.909159 0
M  V30 3849 H 367.57 4.16996 -0.130421 0
M  V30 3850 H 366.2 3.19471 0.462377 0
M  V30 3851 H 365.252 3.2622 -1.95664 0
M  V30 3852 H 366.564 4.38628 -2.37501 0
M  V30 3853 H 365.718 6.02812 -0.685718 0
M  V30 3854 H 364.457 4.87414 -0.167084 0
M  V30 3855 H 363.462 4.91111 -2.47165 0
M  V30 3856 H 364.687 6.0993 -2.98601 0
M  V30 3857 H 362.633 6.5134 -0.780533 0
M  V30 3858 H 362.55 7.17559 -2.38003 0
M  V30 3859 H 363.818 7.68491 -1.30545 0
M  V30 3860 N 368.047 0.979072 1.23499 0
M  V30 3861 C 369.01 0.523244 2.23147 0
M  V30 3862 C 370.01 -0.386406 1.56088 0
M  V30 3863 O 371.2 -0.180283 1.73265 0
M  V30 3864 C 368.332 -0.240739 3.40049 0
M  V30 3865 H 369.525 1.40432 2.64989 0
M  V30 3866 H 367.078 0.764824 1.36309 0
M  V30 3867 H 367.813 -1.13841 3.03662 0
M  V30 3868 H 367.598 0.412207 3.89927 0
M  V30 3869 H 369.088 -0.548297 4.13985 0
M  V30 3870 N 369.525 -1.3858 0.750561 0
M  V30 3871 C 370.457 -2.29057 0.0810714 0
M  V30 3872 C 371.47 -1.47596 -0.686973 0
M  V30 3873 O 372.659 -1.70495 -0.528563 0
M  V30 3874 C 369.759 -3.26475 -0.909247 0
M  V30 3875 C 368.932 -4.36945 -0.199478 0
M  V30 3876 C 367.991 -5.14572 -1.10011 0
M  V30 3877 O 367.017 -5.66321 -0.57177 0
M  V30 3878 N 368.219 -5.27262 -2.42849 0
M  V30 3879 H 370.984 -2.87153 0.858087 0
M  V30 3880 H 368.545 -1.50328 0.60109 0
M  V30 3881 H 370.537 -3.75285 -1.51471 0
M  V30 3882 H 369.107 -2.69298 -1.58736 0
M  V30 3883 H 368.327 -3.8981 0.586664 0
M  V30 3884 H 369.615 -5.07963 0.291783 0
M  V30 3885 H 369.013 -4.86763 -2.88233 0
M  V30 3886 H 367.57 -5.79456 -2.98453 0
M  V30 3887 N 371.003 -0.499398 -1.49478 0
M  V30 3888 C 371.953 0.299103 -2.2603 0
M  V30 3889 C 372.937 0.936934 -1.30807 0
M  V30 3890 O 374.129 0.844798 -1.55538 0
M  V30 3891 C 371.258 1.36391 -3.15044 0
M  V30 3892 C 370.344 0.732398 -4.17728 0
M  V30 3893 N 370.735 -0.164028 -5.05534 0
M  V30 3894 C 369.033 0.993162 -4.34801 0
M  V30 3895 C 369.734 -0.525345 -5.79323 0
M  V30 3896 N 368.71 0.106348 -5.43496 0
M  V30 3897 H 372.512 -0.391003 -2.91287 0
M  V30 3898 H 370.026 -0.31537 -1.59308 0
M  V30 3899 H 372.023 1.94939 -3.68516 0
M  V30 3900 H 370.683 2.05571 -2.51338 0
M  V30 3901 H 371.694 -0.534736 -5.15132 0
M  V30 3902 H 368.371 1.67783 -3.82302 0
M  V30 3903 H 369.761 -1.25862 -6.60006 0
M  V30 3904 N 372.481 1.55866 -0.233164 0
M  V30 3905 C 373.892 1.847 0.272554 0
M  V30 3906 C 374.243 1.15477 1.58617 0
M  V30 3907 O 373.368 0.42841 2.12117 0
M  V30 3908 C 373.963 3.35071 0.501299 0
M  V30 3909 C 372.522 3.6418 0.951304 0
M  V30 3910 C 371.669 2.77292 0.0208209 0
M  V30 3911 H 374.62 1.52005 -0.456074 0
M  V30 3912 H 374.641 3.55906 1.34577 0
M  V30 3913 H 374.153 3.85424 -0.454936 0
M  V30 3914 H 372.254 3.19293 1.92049 0
M  V30 3915 H 372.367 4.72071 0.817675 0
M  V30 3916 H 370.731 2.49131 0.529723 0
M  V30 3917 H 371.514 3.30448 -0.93054 0
M  V30 3918 N 373.959 -0.0401083 1.57549 0
M  V30 3919 C 375.236 -0.767917 1.79896 0
M  V30 3920 C 375.616 -1.9416 0.82856 0
M  V30 3921 O 374.964 -2.2812 -0.131671 0
M  V30 3922 C 375.174 -1.2113 3.27305 0
M  V30 3923 C 376.522 -1.63175 3.91994 0
M  V30 3924 O 377.546 -1.30616 3.31388 0
M  V30 3925 O 376.405 -2.23565 4.98679 0
M  V30 3926 H 373.499 -0.370441 0.739393 0
M  V30 3927 H 376.045 -0.017737 1.69691 0
M  V30 3928 H 374.817 -0.372937 3.89519 0
M  V30 3929 H 374.44 -2.02183 3.42356 0
M  V30 3930 N 375.437 -1.54477 -0.31217 0
M  V30 3931 C 376.4 -1.83923 -1.36766 0
M  V30 3932 C 377.4 -0.711563 -1.44199 0
M  V30 3933 O 378.59 -0.979866 -1.44029 0
M  V30 3934 C 375.722 -2.0095 -2.75376 0
M  V30 3935 H 376.915 -2.78239 -1.11906 0
M  V30 3936 H 374.468 -1.46369 -0.548257 0
M  V30 3937 H 375.203 -1.08883 -3.05475 0
M  V30 3938 H 374.988 -2.83018 -2.71373 0
M  V30 3939 H 376.478 -2.2514 -3.51713 0
M  V30 3940 N 376.915 0.57481 -1.46744 0
M  V30 3941 C 377.862 1.68329 -1.57905 0
M  V30 3942 C 378.832 1.60625 -0.422927 0
M  V30 3943 O 380.017 1.79721 -0.640711 0
M  V30 3944 C 377.157 3.06665 -1.58274 0
M  V30 3945 C 376.27 3.24935 -2.84678 0
M  V30 3946 C 375.405 4.53566 -2.76499 0
M  V30 3947 C 374.444 4.65207 -3.97806 0
M  V30 3948 N 373.581 5.85172 -3.87967 0
M  V30 3949 H 378.421 1.58127 -2.52587 0
M  V30 3950 H 375.958 0.770552 -1.25303 0
M  V30 3951 H 377.916 3.86745 -1.56473 0
M  V30 3952 H 376.546 3.15745 -0.671194 0
M  V30 3953 H 375.598 2.38405 -2.96424 0
M  V30 3954 H 376.91 3.29403 -3.7456 0
M  V30 3955 H 376.064 5.41885 -2.72848 0
M  V30 3956 H 374.803 4.51548 -1.8427 0
M  V30 3957 H 373.808 3.75304 -4.0178 0
M  V30 3958 H 375.033 4.68997 -4.9114 0
M  V30 3959 H 372.979 5.84137 -2.98529 0
M  V30 3960 H 372.896 5.90943 -4.71511 0
M  V30 3961 H 374.164 6.759 -3.88303 0
M  V30 3962 N 378.394 1.34581 0.820102 0
M  V30 3963 C 379.324 1.29038 1.94606 0
M  V30 3964 C 380.305 0.1673 1.69275 0
M  V30 3965 O 381.49 0.360112 1.90832 0
M  V30 3966 C 378.62 1.04793 3.31113 0
M  V30 3967 C 377.574 2.13597 3.70891 0
M  V30 3968 C 376.9 1.74537 5.05412 0
M  V30 3969 C 378.2 3.55451 3.8269 0
M  V30 3970 H 379.894 2.23248 1.99501 0
M  V30 3971 H 377.44 1.0747 0.958449 0
M  V30 3972 H 379.393 0.995592 4.0947 0
M  V30 3973 H 378.117 0.0702565 3.26524 0
M  V30 3974 H 376.776 2.17905 2.9481 0
M  V30 3975 H 376.424 0.754226 4.97313 0
M  V30 3976 H 376.124 2.47361 5.32997 0
M  V30 3977 H 377.648 1.70803 5.86224 0
M  V30 3978 H 379.062 3.5354 4.51312 0
M  V30 3979 H 377.459 4.26922 4.21732 0
M  V30 3980 H 378.529 3.92587 2.84611 0
M  V30 3981 N 379.872 -1.04064 1.18357 0
M  V30 3982 C 381.118 -1.77528 0.980397 0
M  V30 3983 C 381.451 -1.87948 -0.48879 0
M  V30 3984 O 380.726 -1.3876 -1.36293 0
M  V30 3985 C 381.009 -3.20797 1.63588 0
M  V30 3986 C 380.862 -3.1832 3.17793 0
M  V30 3987 C 382.181 -4.18911 1.34914 0
M  V30 3988 H 379.3 -0.644443 0.357578 0
M  V30 3989 H 381.942 -1.2156 1.46024 0
M  V30 3990 H 380.092 -3.68586 1.22788 0
M  V30 3991 H 381.764 -2.78521 3.67728 0
M  V30 3992 H 380.007 -2.56351 3.49952 0
M  V30 3993 H 380.678 -4.19489 3.58794 0
M  V30 3994 H 383.154 -3.7967 1.70265 0
M  V30 3995 H 382.03 -5.17374 1.83346 0
M  V30 3996 H 382.291 -4.41262 0.272027 0
M  V30 3997 N 381.35 -0.985608 -1.22978 0
M  V30 3998 C 382.596 -0.65836 -1.91816 0
M  V30 3999 C 382.929 0.806692 -1.76653 0
M  V30 4000 O 382.204 1.58252 -1.13078 0
M  V30 4001 C 382.487 -1.056 -3.44268 0
M  V30 4002 C 382.34 -2.57906 -3.68516 0
M  V30 4003 C 383.659 -0.603781 -4.35939 0
M  V30 4004 H 380.778 -0.24065 -0.696604 0
M  V30 4005 H 383.42 -1.22783 -1.44998 0
M  V30 4006 H 381.57 -0.571445 -3.84274 0
M  V30 4007 H 383.242 -3.13976 -3.3796 0
M  V30 4008 H 381.485 -3.00305 -3.13048 0
M  V30 4009 H 382.156 -2.80779 -4.75255 0
M  V30 4010 H 384.632 -1.01987 -4.03408 0
M  V30 4011 H 383.508 -0.910383 -5.41298 0
M  V30 4012 H 383.769 0.495761 -4.39312 0
M  V30 4013 N 382.828 1.3818 -0.7579 0
M  V30 4014 C 384.076 1.99624 -0.315361 0
M  V30 4015 C 384.397 1.60464 1.10799 0
M  V30 4016 O 383.667 0.863507 1.75842 0
M  V30 4017 H 382.247 0.73831 -0.113611 0
M  V30 4018 H 384.909 1.68878 -0.972952 0
M  V30 4019 H 384.005 3.09754 -0.381931 0
M  V30 4020 N 384.306 0.507319 1.49211 0
M  V30 4021 C 385.254 -0.281364 2.30892 0
M  V30 4022 C 386.248 -0.95687 1.39787 0
M  V30 4023 O 387.454 -0.883838 1.56807 0
M  V30 4024 H 383.829 -0.109597 0.743971 0
M  V30 4025 H 385.8 0.42744 2.95323 0
M  V30 4026 C 384.549 -1.32918 3.21291 0
M  V30 4027 H 383.872 -0.818799 3.91326 0
M  V30 4028 H 385.312 -1.85288 3.81372 0
M  V30 4029 C 383.771 -2.35074 2.41333 0
M  V30 4030 O 384.301 -3.4108 2.12197 0
M  V30 4031 N 382.507 -2.07705 2.03241 0
M  V30 4032 H 382.054 -1.2152 2.27136 0
M  V30 4033 H 382.012 -2.76283 1.50051 0
M  V30 4034 N 385.784 -1.5574 0.241426 0
M  V30 4035 C 387.012 -2.03208 -0.389134 0
M  V30 4036 C 387.427 -1.12082 -1.51931 0
M  V30 4037 O 386.784 -0.134183 -1.82006 0
M  V30 4038 C 386.835 -3.50064 -0.902087 0
M  V30 4039 O 386.556 -4.37717 0.18305 0
M  V30 4040 C 388.057 -4.13268 -1.60389 0
M  V30 4041 H 385.277 -0.664509 -0.0931053 0
M  V30 4042 H 387.821 -2.0124 0.36369 0
M  V30 4043 H 385.976 -3.52583 -1.60511 0
M  V30 4044 H 386.39 -5.24097 -0.205579 0
M  V30 4045 H 387.864 -5.17733 -1.91458 0
M  V30 4046 H 388.341 -3.59434 -2.52397 0
M  V30 4047 H 388.947 -4.14655 -0.945576 0
M  V30 4048 N 387.262 0.0317525 -1.57568 0
M  V30 4049 C 388.172 1.05021 -2.0978 0
M  V30 4050 C 389.188 1.39809 -1.03583 0
M  V30 4051 O 390.364 1.49182 -1.35302 0
M  V30 4052 C 387.429 2.33301 -2.56459 0
M  V30 4053 C 386.49 2.0512 -3.77127 0
M  V30 4054 C 385.723 3.27283 -4.2157 0
M  V30 4055 O 385.946 4.37861 -3.65559 0
M  V30 4056 O 384.88 3.13141 -5.14029 0
M  V30 4057 H 388.706 0.636505 -2.96955 0
M  V30 4058 H 386.291 0.248559 -1.47318 0
M  V30 4059 H 388.173 3.08722 -2.86825 0
M  V30 4060 H 386.848 2.73973 -1.72397 0
M  V30 4061 H 385.755 1.27276 -3.51784 0
M  V30 4062 H 387.088 1.69305 -4.62165 0
M  V30 4063 N 388.74 1.54641 0.303973 0
M  V30 4064 C 389.989 1.7299 1.03717 0
M  V30 4065 C 390.302 0.521168 1.88529 0
M  V30 4066 O 391.508 0.586408 2.65092 0
M  V30 4067 C 389.964 3.06051 1.89369 0
M  V30 4068 C 389.572 4.34393 1.09574 0
M  V30 4069 C 391.316 3.3376 2.62306 0
M  V30 4070 C 389.223 5.58506 1.94486 0
M  V30 4071 H 388.153 0.64473 0.390947 0
M  V30 4072 H 390.804 1.81124 0.294328 0
M  V30 4073 H 389.186 2.91874 2.67629 0
M  V30 4074 H 390.36 4.59396 0.359485 0
M  V30 4075 H 388.675 4.13597 0.482324 0
M  V30 4076 H 391.272 4.23687 3.26181 0
M  V30 4077 H 391.615 2.52503 3.3098 0
M  V30 4078 H 392.148 3.48894 1.91097 0
M  V30 4079 H 388.887 6.42422 1.30287 0
M  V30 4080 H 388.407 5.37694 2.65792 0
M  V30 4081 H 390.086 5.95651 2.52605 0
M  V30 4082 N 390.218 -0.567019 1.47046 0
M  V30 4083 C 391.466 -1.322 1.52864 0
M  V30 4084 C 391.787 -1.94088 0.188388 0
M  V30 4085 O 391.057 -1.7941 -0.786693 0
M  V30 4086 H 389.637 -0.490894 0.563056 0
M  V30 4087 H 392.299 -0.662879 1.83281 0
M  V30 4088 H 391.395 -2.12062 2.2899 0
M  V30 4089 N 391.696 -1.35014 -0.812953 0
M  V30 4090 C 392.945 -1.27269 -1.56479 0
M  V30 4091 C 393.258 0.152771 -1.95002 0
M  V30 4092 O 394.464 0.352451 -2.69203 0
M  V30 4093 C 392.92 -2.23159 -2.82362 0
M  V30 4094 C 392.528 -3.71016 -2.511 0
M  V30 4095 C 394.272 -2.24342 -3.60376 0
M  V30 4096 C 392.179 -4.58746 -3.73237 0
M  V30 4097 H 391.109 -0.472829 -0.587324 0
M  V30 4098 H 393.76 -1.6024 -0.894171 0
M  V30 4099 H 392.142 -1.83151 -3.51101 0
M  V30 4100 H 393.316 -4.1962 -1.90409 0
M  V30 4101 H 391.631 -3.72378 -1.86343 0
M  V30 4102 H 394.228 -2.87107 -4.51081 0
M  V30 4103 H 394.571 -1.24542 -3.97234 0
M  V30 4104 H 395.104 -2.62846 -2.98591 0
M  V30 4105 H 391.843 -5.59521 -3.41492 0
M  V30 4106 H 391.363 -4.14871 -4.33176 0
M  V30 4107 H 393.042 -4.73852 -4.40537 0
M  V30 4108 N 393.175 1.03435 -1.18907 0
M  V30 4109 C 394.085 2.15075 -0.937015 0
M  V30 4110 C 395.101 1.73706 0.101085 0
M  V30 4111 O 396.277 2.01232 -0.0822948 0
M  V30 4112 C 393.342 3.43458 -0.473057 0
M  V30 4113 C 392.403 3.99172 -1.57989 0
M  V30 4114 C 391.636 5.21427 -1.13797 0
M  V30 4115 O 391.859 5.704 0.000725941 0
M  V30 4116 O 390.793 5.69837 -1.9383 0
M  V30 4117 H 394.619 2.39198 -1.87131 0
M  V30 4118 H 392.204 1.13506 -0.971427 0
M  V30 4119 H 394.086 4.20811 -0.222702 0
M  V30 4120 H 392.761 3.20793 0.432869 0
M  V30 4121 H 391.668 3.23178 -1.88433 0
M  V30 4122 H 393.001 4.2619 -2.46217 0
M  V30 4123 N 394.653 0.992116 1.22453 0
M  V30 4124 C 395.586 0.486701 2.22949 0
M  V30 4125 C 396.564 -0.45259 1.56174 0
M  V30 4126 O 397.748 -0.378317 1.84665 0
M  V30 4127 C 394.875 -0.294537 3.37417 0
M  V30 4128 C 393.921 0.590628 4.22391 0
M  V30 4129 S 394.754 2.04546 4.94895 0
M  V30 4130 C 395.91 1.27369 6.12803 0
M  V30 4131 H 396.143 1.33828 2.65475 0
M  V30 4132 H 393.676 0.799023 1.32117 0
M  V30 4133 H 395.634 -0.739241 4.03789 0
M  V30 4134 H 394.295 -1.12139 2.934 0
M  V30 4135 H 393.488 -0.0104375 5.03999 0
M  V30 4136 H 393.09 0.972064 3.61147 0
M  V30 4137 H 395.382 0.540943 6.75337 0
M  V30 4138 H 396.325 2.06502 6.7732 0
M  V30 4139 H 396.733 0.787324 5.58983 0
M  V30 4140 N 396.131 -1.37776 0.765217 0
M  V30 4141 C 397.078 -2.30342 0.145274 0
M  V30 4142 C 398.048 -1.5077 -0.696971 0
M  V30 4143 O 399.233 -1.79362 -0.650689 0
M  V30 4144 C 396.373 -3.37227 -0.732939 0
M  V30 4145 C 395.486 -4.31819 0.125199 0
M  V30 4146 C 394.621 -5.25777 -0.757107 0
M  V30 4147 C 393.66 -6.12012 0.103963 0
M  V30 4148 N 392.797 -6.98232 -0.735953 0
M  V30 4149 H 397.637 -2.8278 0.940195 0
M  V30 4150 H 395.174 -1.39211 0.475255 0
M  V30 4151 H 397.132 -3.97818 -1.25686 0
M  V30 4152 H 395.762 -2.86171 -1.49353 0
M  V30 4153 H 394.814 -3.7259 0.766865 0
M  V30 4154 H 396.126 -4.92509 0.789683 0
M  V30 4155 H 395.28 -5.91541 -1.34776 0
M  V30 4156 H 394.019 -4.65481 -1.45529 0
M  V30 4157 H 393.024 -5.45233 0.707197 0
M  V30 4158 H 394.249 -6.74379 0.799381 0
M  V30 4159 H 392.195 -6.40472 -1.41887 0
M  V30 4160 H 392.112 -7.55891 -0.128624 0
M  V30 4161 H 393.38 -7.68393 -1.31121 0
M  V30 4162 N 397.609 -0.515225 -1.4894 0
M  V30 4163 C 398.856 0.024215 -2.02486 0
M  V30 4164 C 399.184 1.35671 -1.39368 0
M  V30 4165 O 398.439 1.88566 -0.523574 0
M  V30 4166 C 398.738 0.210595 -3.56779 0
M  V30 4167 C 398.404 -1.04569 -4.38607 0
M  V30 4168 C 397.066 -1.39002 -4.60686 0
M  V30 4169 C 399.418 -1.88008 -4.86109 0
M  V30 4170 C 396.746 -2.568 -5.27514 0
M  V30 4171 C 399.098 -3.04972 -5.54234 0
M  V30 4172 C 397.762 -3.39768 -5.74555 0
M  V30 4173 H 397.032 0.00886088 -0.740947 0
M  V30 4174 H 399.679 -0.678263 -1.79086 0
M  V30 4175 H 397.984 0.99572 -3.78936 0
M  V30 4176 H 399.681 0.642659 -3.95817 0
M  V30 4177 H 396.271 -0.767497 -4.21672 0
M  V30 4178 H 400.455 -1.62719 -4.68867 0
M  V30 4179 H 395.711 -2.8398 -5.41447 0
M  V30 4180 H 399.885 -3.69943 -5.90013 0
M  V30 4181 H 397.512 -4.31148 -6.26112 0
M  V30 4182 N 399.087 1.5561 -0.249682 0
M  V30 4183 C 400.034 2.21496 0.648694 0
M  V30 4184 C 401.004 1.17977 1.16921 0
M  V30 4185 O 402.189 1.46434 1.22318 0
M  V30 4186 C 399.329 2.92039 1.83868 0
M  V30 4187 C 398.442 4.10219 1.35442 0
M  V30 4188 C 397.577 4.6847 2.50419 0
M  V30 4189 C 396.616 5.78893 1.98869 0
M  V30 4190 N 395.753 6.31315 3.07223 0
M  V30 4191 H 400.593 2.97892 0.0801582 0
M  V30 4192 H 398.13 1.47074 0.0278031 0
M  V30 4193 H 400.088 3.31138 2.53778 0
M  V30 4194 H 398.718 2.18111 2.37965 0
M  V30 4195 H 397.77 3.76413 0.54928 0
M  V30 4196 H 399.082 4.89927 0.936649 0
M  V30 4197 H 398.236 5.10158 3.28366 0
M  V30 4198 H 396.975 3.87984 2.95499 0
M  V30 4199 H 395.98 5.3668 1.19393 0
M  V30 4200 H 397.205 6.61232 1.54755 0
M  V30 4201 H 395.151 5.53733 3.51732 0
M  V30 4202 H 395.068 7.06224 2.69784 0
M  V30 4203 H 396.336 6.77662 3.8522 0
M  V30 4204 N 400.565 -0.0233959 1.57583 0
M  V30 4205 C 401.513 -1.04063 2.08023 0
M  V30 4206 C 402.507 -1.37084 0.995204 0
M  V30 4207 O 403.713 -1.35923 1.18004 0
M  V30 4208 H 400.088 -0.353144 0.663922 0
M  V30 4209 H 402.059 -0.589453 2.9252 0
M  V30 4210 C 400.808 -2.33123 2.57971 0
M  V30 4211 H 400.131 -2.08577 3.4108 0
M  V30 4212 H 401.571 -3.02632 2.96967 0
M  V30 4213 C 400.03 -3.02483 1.48342 0
M  V30 4214 O 400.56 -3.92541 0.852898 0
M  V30 4215 N 398.766 -2.63909 1.21658 0
M  V30 4216 H 398.313 -1.90758 1.73116 0
M  V30 4217 H 398.271 -3.10633 0.485218 0
M  V30 4218 N 402.043 -1.548 -0.295768 0
M  V30 4219 C 402.976 -1.81003 -1.38972 0
M  V30 4220 C 403.954 -0.661544 -1.48534 0
M  V30 4221 O 405.138 -0.902074 -1.65514 0
M  V30 4222 C 402.265 -1.95141 -2.76835 0
M  V30 4223 C 401.311 -3.17592 -2.84671 0
M  V30 4224 S 402.144 -4.75531 -2.46232 0
M  V30 4225 C 403.3 -4.92613 -3.86114 0
M  V30 4226 H 403.533 -2.73507 -1.16537 0
M  V30 4227 H 401.066 -1.46278 -0.494168 0
M  V30 4228 H 403.024 -2.03972 -3.56238 0
M  V30 4229 H 401.685 -1.03565 -2.96535 0
M  V30 4230 H 400.878 -3.24303 -3.85803 0
M  V30 4231 H 400.48 -3.07235 -2.13267 0
M  V30 4232 H 402.772 -4.76957 -4.81164 0
M  V30 4233 H 403.715 -5.94698 -3.8437 0
M  V30 4234 H 404.123 -4.2073 -3.76359 0
M  V30 4235 N 403.521 0.559213 -1.47345 0
M  V30 4236 C 404.451 1.67622 -1.62558 0
M  V30 4237 C 405.432 1.63331 -0.475087 0
M  V30 4238 O 406.617 1.80983 -0.704182 0
M  V30 4239 C 403.747 3.0626 -1.63774 0
M  V30 4240 C 402.701 3.25397 -2.7803 0
M  V30 4241 C 402.027 4.64801 -2.64318 0
M  V30 4242 C 403.327 3.10965 -4.19641 0
M  V30 4243 H 405.021 1.55146 -2.56067 0
M  V30 4244 H 402.567 0.744961 -1.23233 0
M  V30 4245 H 404.52 3.84247 -1.73008 0
M  V30 4246 H 403.244 3.1969 -0.66825 0
M  V30 4247 H 401.903 2.49817 -2.68304 0
M  V30 4248 H 401.551 4.75028 -1.65401 0
M  V30 4249 H 401.251 4.78555 -3.40968 0
M  V30 4250 H 402.775 5.44926 -2.75478 0
M  V30 4251 H 404.189 3.78772 -4.30354 0
M  V30 4252 H 402.586 3.36229 -4.97062 0
M  V30 4253 H 403.656 2.07736 -4.38148 0
M  V30 4254 N 404.999 1.35443 0.805782 0
M  V30 4255 C 406.246 1.28761 1.56291 0
M  V30 4256 C 406.574 -0.137747 1.94012 0
M  V30 4257 O 405.829 -1.1032 1.61642 0
M  V30 4258 C 406.128 2.14045 2.86216 0
M  V30 4259 C 405.794 3.62826 2.67709 0
M  V30 4260 C 404.456 4.0338 2.6237 0
M  V30 4261 C 406.808 4.57227 2.50186 0
M  V30 4262 C 404.136 5.36501 2.37451 0
M  V30 4263 C 406.488 5.90547 2.26797 0
M  V30 4264 C 405.152 6.30245 2.1988 0
M  V30 4265 H 404.422 0.471171 0.571908 0
M  V30 4266 H 407.069 1.67347 0.930974 0
M  V30 4267 H 405.374 1.68342 3.53791 0
M  V30 4268 H 407.071 2.0621 3.43917 0
M  V30 4269 H 403.661 3.30644 2.72713 0
M  V30 4270 H 407.845 4.2678 2.53323 0
M  V30 4271 H 403.101 5.66259 2.30567 0
M  V30 4272 H 407.275 6.63274 2.12228 0
M  V30 4273 H 404.902 7.33328 2.00333 0
M  V30 4274 N 406.477 -1.02803 1.19454 0
M  V30 4275 C 407.888 -1.57667 0.999899 0
M  V30 4276 C 408.239 -1.91041 -0.446956 0
M  V30 4277 O 407.364 -1.70978 -1.32648 0
M  V30 4278 C 407.959 -2.86477 1.80877 0
M  V30 4279 C 406.518 -3.37911 1.65811 0
M  V30 4280 C 405.665 -2.11343 1.79526 0
M  V30 4281 H 408.616 -0.853214 1.33813 0
M  V30 4282 H 408.637 -3.57408 1.30536 0
M  V30 4283 H 408.149 -2.62155 2.86175 0
M  V30 4284 H 406.25 -3.67218 0.63102 0
M  V30 4285 H 406.363 -4.10885 2.46395 0
M  V30 4286 H 404.727 -2.23254 1.22596 0
M  V30 4287 H 405.51 -1.89461 2.86285 0
M  V30 4288 N 407.956 -0.998596 -1.21925 0
M  V30 4289 C 408.889 -0.498517 -2.22688 0
M  V30 4290 C 409.867 0.444301 -1.56412 0
M  V30 4291 O 411.051 0.368518 -1.84863 0
M  V30 4292 C 408.178 0.276639 -3.37568 0
M  V30 4293 C 407.224 -0.61302 -4.22071 0
M  V30 4294 S 408.057 -2.07168 -4.93803 0
M  V30 4295 C 409.213 -1.30617 -6.12119 0
M  V30 4296 H 409.446 -1.35234 -2.64762 0
M  V30 4297 H 406.979 -0.806018 -1.31692 0
M  V30 4298 H 408.937 0.717817 -4.04175 0
M  V30 4299 H 407.598 1.10581 -2.93991 0
M  V30 4300 H 406.791 -0.0162909 -5.03997 0
M  V30 4301 H 406.393 -0.991202 -3.60626 0
M  V30 4302 H 408.685 -0.57675 -6.75041 0
M  V30 4303 H 409.628 -2.10091 -6.76215 0
M  V30 4304 H 410.036 -0.816957 -5.58557 0
M  V30 4305 N 409.434 1.37368 -0.772513 0
M  V30 4306 C 410.683 1.98918 -0.333861 0
M  V30 4307 C 410.996 1.62017 1.09589 0
M  V30 4308 O 412.202 2.16676 1.63596 0
M  V30 4309 C 410.658 3.55735 -0.545971 0
M  V30 4310 C 410.266 4.01573 -1.98603 0
M  V30 4311 C 412.01 4.24156 -0.170979 0
M  V30 4312 C 409.917 5.51102 -2.1457 0
M  V30 4313 H 408.847 0.744214 -0.121085 0
M  V30 4314 H 411.498 1.56888 -0.95175 0
M  V30 4315 H 409.88 3.95748 0.141387 0
M  V30 4316 H 411.054 3.72803 -2.7084 0
M  V30 4317 H 409.369 3.45937 -2.31769 0
M  V30 4318 H 411.966 5.34024 -0.26878 0
M  V30 4319 H 412.309 4.06917 0.878855 0
M  V30 4320 H 412.842 3.89447 -0.810914 0
M  V30 4321 H 409.581 5.73268 -3.17875 0
M  V30 4322 H 409.101 5.81554 -1.46817 0
M  V30 4323 H 410.78 6.17083 -1.94468 0
M  V30 4324 N 410.912 0.523116 1.48665 0
M  V30 4325 C 412.158 -0.0134963 2.02796 0
M  V30 4326 C 412.491 -1.34582 1.40004 0
M  V30 4327 O 411.766 -1.86756 0.543381 0
M  V30 4328 C 412.049 -0.14276 3.59817 0
M  V30 4329 C 411.902 1.21425 4.331 0
M  V30 4330 C 413.221 -0.872856 4.31357 0
M  V30 4331 H 410.34 -0.00343074 0.736992 0
M  V30 4332 H 412.982 0.678816 1.7746 0
M  V30 4333 H 411.132 -0.732401 3.81534 0
M  V30 4334 H 412.804 1.84447 4.2282 0
M  V30 4335 H 411.047 1.79791 3.94788 0
M  V30 4336 H 411.718 1.07687 5.41394 0
M  V30 4337 H 414.194 -0.372555 4.14429 0
M  V30 4338 H 413.07 -0.932185 5.40927 0
M  V30 4339 H 413.331 -1.92161 3.98154 0
M  V30 4340 N 412.39 -1.55475 0.257931 0
M  V30 4341 C 413.63 -2.01112 -0.365129 0
M  V30 4342 C 413.994 -1.1423 -1.54323 0
M  V30 4343 O 415.195 -1.49371 -2.23477 0
M  V30 4344 C 413.466 -3.49353 -0.754117 0
M  V30 4345 S 415.025 -4.16992 -1.36614 0
M  V30 4346 H 411.843 -0.701737 -0.114397 0
M  V30 4347 H 414.445 -1.91855 0.375747 0
M  V30 4348 H 413.149 -4.10246 0.112441 0
M  V30 4349 H 412.68 -3.6256 -1.52689 0
M  V30 4350 H 414.695 -4.19191 -2.65505 0
M  V30 4351 N 413.868 0.0150385 -1.57593 0
M  V30 4352 C 415.279 0.559832 -1.78109 0
M  V30 4353 C 415.63 1.74814 -0.890756 0
M  V30 4354 O 414.755 2.16216 -0.0892482 0
M  V30 4355 C 415.35 1.02238 -3.23006 0
M  V30 4356 C 413.909 1.51258 -3.44671 0
M  V30 4357 C 413.056 0.456955 -2.73509 0
M  V30 4358 H 416.007 -0.211169 -1.57289 0
M  V30 4359 H 416.028 1.88912 -3.30292 0
M  V30 4360 H 415.54 0.157302 -3.87781 0
M  V30 4361 H 413.641 2.39905 -2.8509 0
M  V30 4362 H 413.754 1.55042 -4.5332 0
M  V30 4363 H 412.118 0.915196 -2.37689 0
M  V30 4364 H 412.901 -0.398896 -3.40975 0
M  V30 4365 N 415.346 1.54954 0.287554 0
M  V30 4366 C 416.309 1.86076 1.33823 0
M  V30 4367 C 417.309 0.734414 1.43049 0
M  V30 4368 O 418.499 1.00266 1.42452 0
M  V30 4369 C 415.631 2.05305 2.72144 0
M  V30 4370 H 416.824 2.79984 1.07465 0
M  V30 4371 H 414.377 1.47223 0.524902 0
M  V30 4372 H 415.112 1.1373 3.03704 0
M  V30 4373 H 414.897 2.873 2.66836 0
M  V30 4374 H 416.387 2.30706 3.48087 0
M  V30 4375 N 416.824 -0.551391 1.4764 0
M  V30 4376 C 418.07 -1.30789 1.55774 0
M  V30 4377 C 418.425 -1.91143 0.219562 0
M  V30 4378 O 417.718 -1.7521 -0.775375 0
M  V30 4379 C 417.912 -2.43469 2.61644 0
M  V30 4380 C 417.741 -1.94157 4.05627 0
M  V30 4381 C 416.511 -1.77734 4.7301 0
M  V30 4382 C 418.709 -1.48262 4.92466 0
M  V30 4383 N 416.691 -1.22823 6.01488 0
M  V30 4384 C 418.062 -1.05156 6.11017 0
M  V30 4385 C 420.117 -1.36367 4.78862 0
M  V30 4386 C 418.82 -0.513357 7.17466 0
M  V30 4387 C 420.846 -0.839484 5.85411 0
M  V30 4388 C 420.208 -0.418377 7.03156 0
M  V30 4389 H 416.307 -0.470406 0.624694 0
M  V30 4390 H 418.891 -0.624331 1.84419 0
M  V30 4391 H 417.062 -3.09348 2.34859 0
M  V30 4392 H 418.794 -3.10477 2.59589 0
M  V30 4393 H 415.549 -2.00623 4.29007 0
M  V30 4394 H 415.973 -0.974393 6.69951 0
M  V30 4395 H 420.615 -1.67535 3.88191 0
M  V30 4396 H 418.333 -0.189318 8.07878 0
M  V30 4397 H 421.919 -0.750921 5.76934 0
M  V30 4398 H 420.799 -0.0190538 7.84198 0
M  V30 4399 N 418.302 -1.35869 -0.798587 0
M  V30 4400 C 419.551 -1.28921 -1.5512 0
M  V30 4401 C 419.864 0.13208 -1.95154 0
M  V30 4402 O 421.07 0.323879 -2.69561 0
M  V30 4403 C 419.526 -2.26141 -2.79979 0
M  V30 4404 C 419.134 -3.73658 -2.47151 0
M  V30 4405 C 420.878 -2.28152 -3.57976 0
M  V30 4406 C 418.785 -4.62679 -3.6835 0
M  V30 4407 H 417.715 -0.479031 -0.582276 0
M  V30 4408 H 420.366 -1.61179 -0.877125 0
M  V30 4409 H 418.748 -1.86865 -3.49138 0
M  V30 4410 H 419.922 -4.21616 -1.85947 0
M  V30 4411 H 418.237 -3.74333 -1.82383 0
M  V30 4412 H 420.834 -2.91875 -4.4801 0
M  V30 4413 H 421.177 -1.28748 -3.95891 0
M  V30 4414 H 421.71 -2.65998 -2.95787 0
M  V30 4415 H 418.449 -5.63111 -3.35538 0
M  V30 4416 H 417.969 -4.19442 -4.28752 0
M  V30 4417 H 419.648 -4.78498 -4.35487 0
M  V30 4418 N 419.78 1.02168 -1.19998 0
M  V30 4419 C 421.191 1.57135 -1.00825 0
M  V30 4420 C 421.542 1.91276 0.436818 0
M  V30 4421 O 420.667 1.71679 1.3174 0
M  V30 4422 C 421.262 2.85514 -1.82393 0
M  V30 4423 C 419.821 3.37027 -1.67601 0
M  V30 4424 C 418.968 2.10388 -1.80644 0
M  V30 4425 H 421.919 0.846106 -1.34264 0
M  V30 4426 H 421.94 3.56711 -1.32429 0
M  V30 4427 H 421.452 2.60634 -2.87561 0
M  V30 4428 H 419.553 3.66878 -0.650485 0
M  V30 4429 H 419.666 4.09572 -2.4857 0
M  V30 4430 H 418.03 2.22601 -1.23778 0
M  V30 4431 H 418.813 1.8794 -2.87286 0
M  V30 4432 N 421.258 1.00505 1.21394 0
M  V30 4433 C 422.168 0.574806 2.27449 0
M  V30 4434 C 423.184 -0.382206 1.6975 0
M  V30 4435 O 424.36 -0.246027 1.99892 0
M  V30 4436 C 421.425 -0.0917414 3.46579 0
M  V30 4437 C 420.486 0.909758 4.1955 0
M  V30 4438 C 419.719 0.274924 5.32991 0
M  V30 4439 O 419.942 -0.928254 5.62796 0
M  V30 4440 O 418.876 0.985877 5.93771 0
M  V30 4441 H 422.702 1.45744 2.66444 0
M  V30 4442 H 420.287 0.773923 1.27792 0
M  V30 4443 H 422.169 -0.464551 4.18832 0
M  V30 4444 H 420.844 -0.948755 3.09484 0
M  V30 4445 H 419.751 1.33372 3.49518 0
M  V30 4446 H 421.084 1.73636 4.60555 0
M  V30 4447 N 422.737 -1.36956 0.779787 0
M  V30 4448 C 423.667 -2.32761 0.185651 0
M  V30 4449 C 424.648 -1.56177 -0.673989 0
M  V30 4450 O 425.833 -1.84378 -0.609797 0
M  V30 4451 C 422.963 -3.40418 -0.687964 0
M  V30 4452 C 421.917 -4.27941 0.0710102 0
M  V30 4453 C 421.243 -5.26681 -0.922573 0
M  V30 4454 C 422.543 -5.07006 1.25467 0
M  V30 4455 H 424.237 -2.82698 0.986008 0
M  V30 4456 H 421.783 -1.3592 0.475592 0
M  V30 4457 H 423.736 -4.06423 -1.11348 0
M  V30 4458 H 422.46 -2.89025 -1.52093 0
M  V30 4459 H 421.119 -3.63478 0.47739 0
M  V30 4460 H 420.767 -4.71565 -1.7503 0
M  V30 4461 H 420.467 -5.86103 -0.419237 0
M  V30 4462 H 421.991 -5.9556 -1.34686 0
M  V30 4463 H 423.405 -5.66105 0.905401 0
M  V30 4464 H 421.802 -5.75793 1.69063 0
M  V30 4465 H 422.872 -4.3921 2.05481 0
M  V30 4466 N 424.215 -0.530993 -1.48385 0
M  V30 4467 C 425.163 0.244595 -2.3131 0
M  V30 4468 C 426.157 0.93451 -1.41291 0
M  V30 4469 O 427.363 0.85878 -1.58193 0
M  V30 4470 H 423.738 0.0977472 -0.74562 0
M  V30 4471 H 425.709 -0.474369 -2.94605 0
M  V30 4472 C 424.458 1.2779 -3.23365 0
M  V30 4473 H 423.781 0.756439 -3.92579 0
M  V30 4474 H 425.221 1.79198 -3.84271 0
M  V30 4475 C 423.68 2.31205 -2.45042 0
M  V30 4476 O 424.21 3.37661 -2.17596 0
M  V30 4477 N 422.416 2.04446 -2.0652 0
M  V30 4478 H 421.963 1.17891 -2.2904 0
M  V30 4479 H 421.921 2.73861 -1.54427 0
M  V30 4480 N 425.693 1.55336 -0.266172 0
M  V30 4481 C 426.918 2.04258 0.359661 0
M  V30 4482 C 427.343 1.14359 1.49344 0
M  V30 4483 O 426.701 0.140369 1.80756 0
M  V30 4484 C 426.749 3.50997 0.826635 0
M  V30 4485 O 425.853 3.64204 1.93466 0
M  V30 4486 H 425.194 0.659668 0.075727 0
M  V30 4487 H 427.724 2.00694 -0.39786 0
M  V30 4488 H 427.734 3.9219 1.12477 0
M  V30 4489 H 426.409 4.159 -0.00293032 0
M  V30 4490 H 424.986 3.34913 1.63974 0
M  V30 4491 N 427.171 -0.0066808 1.57599 0
M  V30 4492 C 428.417 -0.693947 1.90558 0
M  V30 4493 C 428.75 -1.73792 0.866594 0
M  V30 4494 O 428.025 -1.94156 -0.115548 0
M  V30 4495 C 428.308 -1.34317 3.34112 0
M  V30 4496 C 428.161 -0.311189 4.48722 0
M  V30 4497 C 429.48 -2.27116 3.7697 0
M  V30 4498 H 426.599 -0.250803 0.693013 0
M  V30 4499 H 429.241 0.043242 1.89951 0
M  V30 4500 H 427.391 -1.9715 3.3476 0
M  V30 4501 H 429.063 0.316944 4.6021 0
M  V30 4502 H 427.306 0.367253 4.32243 0
M  V30 4503 H 427.977 -0.804366 5.46108 0
M  V30 4504 H 430.453 -1.74306 3.77831 0
M  V30 4505 H 429.329 -2.69511 4.78179 0
M  V30 4506 H 429.59 -3.14743 3.10466 0
M  V30 4507 N 428.649 -1.55105 -0.279332 0
M  V30 4508 C 429.559 -1.90638 -1.36727 0
M  V30 4509 C 430.575 -0.802899 -1.54368 0
M  V30 4510 O 431.751 -1.10138 -1.68616 0
M  V30 4511 C 428.816 -2.16547 -2.70755 0
M  V30 4512 C 427.877 -3.40146 -2.61915 0
M  V30 4513 C 427.11 -3.6481 -3.8955 0
M  V30 4514 O 427.333 -2.92095 -4.89935 0
M  V30 4515 O 426.267 -4.58343 -3.90135 0
M  V30 4516 H 430.093 -2.83237 -1.09591 0
M  V30 4517 H 427.678 -1.4157 -0.477306 0
M  V30 4518 H 429.56 -2.34665 -3.50014 0
M  V30 4519 H 428.235 -1.27131 -2.9769 0
M  V30 4520 H 427.142 -3.2737 -1.81052 0
M  V30 4521 H 428.475 -4.29761 -2.3993 0
M  V30 4522 N 430.127 0.543554 -1.4793 0
M  V30 4523 C 431.077 1.64527 -1.57844 0
M  V30 4524 C 432.061 1.54869 -0.436408 0
M  V30 4525 O 433.253 1.63119 -0.687101 0
M  V30 4526 C 430.382 3.03281 -1.6086 0
M  V30 4527 C 429.468 3.18093 -2.80495 0
M  V30 4528 N 429.859 3.02923 -4.05057 0
M  V30 4529 C 428.157 3.49121 -2.77543 0
M  V30 4530 C 428.858 3.20791 -4.85251 0
M  V30 4531 N 427.834 3.47749 -4.17818 0
M  V30 4532 H 431.636 1.51388 -2.5191 0
M  V30 4533 H 429.15 0.748671 -1.44113 0
M  V30 4534 H 431.147 3.82403 -1.66054 0
M  V30 4535 H 429.807 3.17521 -0.678996 0
M  V30 4536 H 430.818 2.79966 -4.35705 0
M  V30 4537 H 427.495 3.69804 -1.93781 0
M  V30 4538 H 428.885 3.13915 -5.9406 0
M  V30 4539 N 431.605 1.3629 0.791371 0
M  V30 4540 C 432.853 1.30154 1.5461 0
M  V30 4541 C 433.174 -0.119409 1.94634 0
M  V30 4542 O 432.444 -1.05924 1.64794 0
M  V30 4543 H 431.024 0.478784 0.573389 0
M  V30 4544 H 433.686 1.70565 0.94306 0
M  V30 4545 H 432.782 1.92762 2.45457 0
M  V30 4546 N 433.083 -1.0153 1.20538 0
M  V30 4547 C 434.494 -1.56598 1.01657 0
M  V30 4548 C 434.845 -1.91505 -0.426668 0
M  V30 4549 O 433.97 -1.72375 -1.30827 0
M  V30 4550 C 434.565 -2.84542 1.83905 0
M  V30 4551 C 433.124 -3.36133 1.69386 0
M  V30 4552 C 432.271 -2.09427 1.81757 0
M  V30 4553 H 435.222 -0.838974 1.34711 0
M  V30 4554 H 435.243 -3.56004 1.34319 0
M  V30 4555 H 434.755 -2.59105 2.8894 0
M  V30 4556 H 432.856 -3.66528 0.669933 0
M  V30 4557 H 432.969 -4.08248 2.50739 0
M  V30 4558 H 431.333 -2.21941 1.24957 0
M  V30 4559 H 432.116 -1.86414 2.88279 0
M  V30 4560 N 434.561 -1.01147 -1.20859 0
M  V30 4561 C 435.838 -0.613136 -1.85742 0
M  V30 4562 C 436.218 0.909004 -1.90526 0
M  V30 4563 O 435.566 1.79862 -1.40932 0
M  V30 4564 C 435.776 -1.255 -3.25654 0
M  V30 4565 C 437.124 -1.3672 -4.01986 0
M  V30 4566 O 438.148 -1.21082 -3.34989 0
M  V30 4567 O 437.007 -1.6194 -5.21956 0
M  V30 4568 H 434.101 -0.210878 -0.799662 0
M  V30 4569 H 436.647 -1.10853 -1.2849 0
M  V30 4570 H 435.419 -2.29532 -3.16908 0
M  V30 4571 H 435.042 -0.746369 -3.90532 0
M  V30 4572 N 436.039 1.36541 -0.78704 0
M  V30 4573 C 437.287 1.98911 -0.357633 0
M  V30 4574 C 437.608 1.62778 1.07371 0
M  V30 4575 O 436.878 0.900612 1.73971 0
M  V30 4576 H 435.458 0.735734 -0.129246 0
M  V30 4577 H 438.12 1.66776 -1.00855 0
M  V30 4578 H 437.216 3.08874 -0.447549 0
M  V30 4579 N 437.518 0.538854 1.48102 0
M  V30 4580 C 438.767 0.0059532 2.01699 0
M  V30 4581 C 439.08 -1.34476 1.42041 0
M  V30 4582 O 440.286 -1.96653 1.87189 0
M  V30 4583 C 438.742 -0.0397627 3.59878 0
M  V30 4584 C 438.35 1.30659 4.28523 0
M  V30 4585 C 440.094 -0.521024 4.2129 0
M  V30 4586 C 438.001 1.22098 5.78659 0
M  V30 4587 H 436.931 -0.00154456 0.753998 0
M  V30 4588 H 439.582 0.683963 1.70277 0
M  V30 4589 H 437.964 -0.783037 3.88181 0
M  V30 4590 H 439.138 2.06613 4.11883 0
M  V30 4591 H 437.453 1.7243 3.79021 0
M  V30 4592 H 440.05 -0.603184 5.31287 0
M  V30 4593 H 440.393 -1.52885 3.8721 0
M  V30 4594 H 440.926 0.166834 3.9745 0
M  V30 4595 H 437.665 2.20424 6.17328 0
M  V30 4596 H 437.185 0.50295 5.97688 0
M  V30 4597 H 438.864 0.915345 6.40492 0
M  V30 4598 N 438.996 -1.55193 0.274407 0
M  V30 4599 C 440.221 -2.04446 -0.348824 0
M  V30 4600 C 440.646 -1.15149 -1.48735 0
M  V30 4601 O 440.004 -0.149952 -1.80679 0
M  V30 4602 C 440.052 -3.51431 -0.808009 0
M  V30 4603 O 439.156 -3.65225 -1.91531 0
M  V30 4604 H 438.497 -0.66006 -0.0722276 0
M  V30 4605 H 441.027 -2.00481 0.408498 0
M  V30 4606 H 441.037 -3.92781 -1.10395 0
M  V30 4607 H 439.712 -4.15892 0.0249865 0
M  V30 4608 H 438.289 -3.35778 -1.62196 0
M  V30 4609 N 440.474 -0.00167713 -1.576 0
M  V30 4610 C 441.721 0.68282 -1.90641 0
M  V30 4611 C 442.049 1.73686 -0.875415 0
M  V30 4612 O 441.304 1.95334 0.119575 0
M  V30 4613 C 441.603 1.36189 -3.30435 0
M  V30 4614 C 441.269 0.440887 -4.48739 0
M  V30 4615 C 439.931 0.187312 -4.80835 0
M  V30 4616 C 442.283 -0.193134 -5.20842 0
M  V30 4617 C 439.611 -0.70855 -5.82406 0
M  V30 4618 C 441.963 -1.07688 -6.23367 0
M  V30 4619 C 440.627 -1.33962 -6.53919 0
M  V30 4620 H 439.897 0.249862 -0.697603 0
M  V30 4621 H 442.544 -0.0575642 -1.91413 0
M  V30 4622 H 440.849 2.17636 -3.25794 0
M  V30 4623 H 442.546 1.89759 -3.5326 0
M  V30 4624 H 439.136 0.648694 -4.23663 0
M  V30 4625 H 443.32 -0.0102445 -4.96299 0
M  V30 4626 H 438.576 -0.920097 -6.04437 0
M  V30 4627 H 442.75 -1.57451 -6.78367 0
M  V30 4628 H 440.377 -2.03549 -7.32442 0
M  V30 4629 N 441.952 1.55251 0.271103 0
M  V30 4630 C 443.2 1.75599 1.00047 0
M  V30 4631 C 443.521 0.561188 1.8675 0
M  V30 4632 O 442.791 -0.423846 1.9126 0
M  V30 4633 H 441.371 0.647562 0.372387 0
M  V30 4634 H 444.033 1.92656 0.294876 0
M  V30 4635 H 443.129 2.65766 1.6363 0
M  V30 4636 N 443.43 -0.535701 1.48216 0
M  V30 4637 C 444.393 -1.623 1.61838 0
M  V30 4638 C 445.393 -1.53087 0.492024 0
M  V30 4639 O 446.583 -1.5686 0.757668 0
M  V30 4640 C 443.715 -3.01907 1.58319 0
M  V30 4641 H 444.908 -1.51564 2.58783 0
M  V30 4642 H 442.461 -0.757317 1.36727 0
M  V30 4643 H 443.196 -3.18155 0.628299 0
M  V30 4644 H 442.981 -3.10003 2.40085 0
M  V30 4645 H 444.471 -3.80969 1.71033 0
M  V30 4646 N 444.908 -1.36708 -0.784132 0
M  V30 4647 C 445.871 -1.31307 -1.87859 0
M  V30 4648 C 446.871 -0.219654 -1.59293 0
M  V30 4649 O 448.061 -0.47476 -1.67606 0
M  V30 4650 C 445.193 -1.03679 -3.24751 0
M  V30 4651 H 446.386 -2.28647 -1.94064 0
M  V30 4652 H 443.939 -1.21558 -0.98252 0
M  V30 4653 H 444.674 -0.0681936 -3.24228 0
M  V30 4654 H 444.459 -1.82811 -3.46876 0
M  V30 4655 H 445.949 -1.02518 -4.04821 0
M  V30 4656 N 446.386 1.0089 -1.21074 0
M  V30 4657 C 447.626 1.76142 -1.03699 0
M  V30 4658 C 447.99 1.87292 0.422587 0
M  V30 4659 O 449.191 2.59068 0.716752 0
M  V30 4660 C 447.462 3.13805 -1.7106 0
M  V30 4661 S 449.021 4.04996 -1.68889 0
M  V30 4662 H 445.839 0.606113 -0.371683 0
M  V30 4663 H 448.441 1.20744 -1.53756 0
M  V30 4664 H 447.145 3.0332 -2.76451 0
M  V30 4665 H 446.676 3.74276 -1.21166 0
M  V30 4666 H 448.691 4.90842 -0.727211 0
M  V30 4667 N 447.864 1.01787 1.20321 0
M  V30 4668 C 449.275 0.739307 1.71438 0
M  V30 4669 C 449.626 -0.742041 1.81627 0
M  V30 4670 O 448.751 -1.57903 1.47971 0
M  V30 4671 C 449.346 1.33538 3.11373 0
M  V30 4672 C 447.905 1.10566 3.59795 0
M  V30 4673 C 447.052 1.44028 2.36962 0
M  V30 4674 H 450.003 1.18718 1.05317 0
M  V30 4675 H 450.024 0.726611 3.73498 0
M  V30 4676 H 449.536 2.41352 3.03926 0
M  V30 4677 H 447.637 0.0452405 3.72573 0
M  V30 4678 H 447.75 1.78661 4.44542 0
M  V30 4679 H 446.114 0.85933 2.39766 0
M  V30 4680 H 446.897 2.52901 2.32155 0
M  V30 4681 N 449.342 -1.36122 0.79427 0
M  V30 4682 C 450.272 -2.32551 0.210328 0
M  V30 4683 C 451.253 -1.56884 -0.657386 0
M  V30 4684 O 452.438 -1.85014 -0.590207 0
M  V30 4685 C 449.568 -3.41128 -0.651819 0
M  V30 4686 C 448.522 -4.27842 0.116395 0
M  V30 4687 C 447.848 -5.2763 -0.86666 0
M  V30 4688 C 449.148 -5.05647 1.30837 0
M  V30 4689 H 450.842 -2.81636 1.01594 0
M  V30 4690 H 448.388 -1.35407 0.489981 0
M  V30 4691 H 450.341 -4.07581 -1.07031 0
M  V30 4692 H 449.065 -2.90622 -1.49019 0
M  V30 4693 H 447.724 -3.62952 0.515915 0
M  V30 4694 H 447.372 -4.73395 -1.70019 0
M  V30 4695 H 447.072 -5.86514 -0.35705 0
M  V30 4696 H 448.596 -5.96955 -1.28361 0
M  V30 4697 H 450.01 -5.65113 0.965393 0
M  V30 4698 H 448.407 -5.73967 1.75161 0
M  V30 4699 H 449.477 -4.37006 2.10128 0
M  V30 4700 N 450.82 -0.546701 -1.47814 0
M  V30 4701 C 452.045 -0.021268 -2.07389 0
M  V30 4702 C 452.47 1.25822 -1.39822 0
M  V30 4703 O 451.828 1.75111 -0.46968 0
M  V30 4704 C 451.876 0.168502 -3.60206 0
M  V30 4705 O 450.98 1.23347 -3.93522 0
M  V30 4706 H 450.321 -0.0466108 -0.662362 0
M  V30 4707 H 452.851 -0.759387 -1.89985 0
M  V30 4708 H 452.861 0.385982 -4.0617 0
M  V30 4709 H 451.536 -0.766075 -4.08784 0
M  V30 4710 H 450.113 0.997319 -3.59316 0
M  V30 4711 N 452.299 1.55045 -0.282633 0
M  V30 4712 C 453.548 1.98938 0.332667 0
M  V30 4713 C 453.861 1.17455 1.56409 0
M  V30 4714 O 455.067 1.51527 2.25282 0
M  V30 4715 C 453.523 3.54105 0.643226 0
M  V30 4716 C 453.131 4.44374 -0.568814 0
M  V30 4717 C 454.875 4.06569 1.22074 0
M  V30 4718 C 452.782 5.90943 -0.232426 0
M  V30 4719 H 451.712 0.743043 0.128075 0
M  V30 4720 H 454.363 1.79341 -0.388464 0
M  V30 4721 H 452.745 3.69532 1.42346 0
M  V30 4722 H 453.919 4.40718 -1.34551 0
M  V30 4723 H 452.234 4.02585 -1.06369 0
M  V30 4724 H 454.831 5.13626 1.48635 0
M  V30 4725 H 455.174 3.56057 2.15707 0
M  V30 4726 H 455.707 3.94612 0.502621 0
M  V30 4727 H 452.446 6.45567 -1.13683 0
M  V30 4728 H 451.966 5.9765 0.507357 0
M  V30 4729 H 453.645 6.4677 0.172657 0
M  V30 4730 N 453.777 0.010035 1.57597 0
M  V30 4731 C 455.023 -0.673697 1.91283 0
M  V30 4732 C 455.356 -1.72863 0.884979 0
M  V30 4733 O 454.631 -1.94268 -0.0949487 0
M  V30 4734 C 454.914 -1.30766 3.35518 0
M  V30 4735 C 454.767 -0.263578 4.49027 0
M  V30 4736 C 456.086 -2.23105 3.79358 0
M  V30 4737 H 453.205 -0.243439 0.695634 0
M  V30 4738 H 455.847 0.0633864 1.89894 0
M  V30 4739 H 453.997 -1.93588 3.36832 0
M  V30 4740 H 455.669 0.365738 4.59848 0
M  V30 4741 H 453.912 0.413077 4.31829 0
M  V30 4742 H 454.583 -0.746398 5.4693 0
M  V30 4743 H 457.059 -1.70289 3.79659 0
M  V30 4744 H 455.935 -2.64424 4.81011 0
M  V30 4745 H 456.196 -3.11433 3.13787 0
M  V30 4746 N 455.255 -1.55392 -0.262866 0
M  V30 4747 C 456.165 -1.92077 -1.34698 0
M  V30 4748 C 457.181 -0.819227 -1.53508 0
M  V30 4749 O 458.357 -1.11921 -1.67439 0
M  V30 4750 C 455.422 -2.19407 -2.68443 0
M  V30 4751 C 454.483 -3.42905 -2.58292 0
M  V30 4752 C 453.716 -3.68921 -3.85659 0
M  V30 4753 O 453.939 -2.97275 -4.8681 0
M  V30 4754 O 452.873 -4.62455 -3.85252 0
M  V30 4755 H 456.699 -2.84384 -1.06581 0
M  V30 4756 H 454.284 -1.42069 -0.462264 0
M  V30 4757 H 456.166 -2.38365 -3.47506 0
M  V30 4758 H 454.841 -1.30282 -2.96325 0
M  V30 4759 H 453.748 -3.29272 -1.7757 0
M  V30 4760 H 455.081 -4.32282 -2.35358 0
M  V30 4761 N 456.733 0.527833 -1.48498 0
M  V30 4762 C 457.68 1.6322 -1.6318 0
M  V30 4763 C 458.65 1.59199 -0.473815 0
M  V30 4764 O 459.835 1.77591 -0.697563 0
M  V30 4765 C 456.975 3.01474 -1.67951 0
M  V30 4766 C 456.088 3.15713 -2.94871 0
M  V30 4767 C 455.223 4.44539 -2.90789 0
M  V30 4768 C 454.262 4.52315 -4.12404 0
M  V30 4769 N 453.399 5.72533 -4.06387 0
M  V30 4770 H 458.239 1.50011 -2.57489 0
M  V30 4771 H 455.776 0.730298 -1.27691 0
M  V30 4772 H 457.734 3.81572 -1.68698 0
M  V30 4773 H 456.364 3.1345 -0.771306 0
M  V30 4774 H 455.416 2.28854 -3.03859 0
M  V30 4775 H 456.728 3.1732 -3.8485 0
M  V30 4776 H 455.882 5.3293 -2.89949 0
M  V30 4777 H 454.621 4.45457 -1.98542 0
M  V30 4778 H 453.626 3.62331 -4.13517 0
M  V30 4779 H 454.851 4.53134 -5.05812 0
M  V30 4780 H 452.797 5.74344 -3.16962 0
M  V30 4781 H 452.714 5.75643 -4.90073 0
M  V30 4782 H 453.982 6.63204 -4.0961 0
M  V30 4783 N 458.211 1.37122 0.776871 0
M  V30 4784 C 459.439 1.3523 1.5659 0
M  V30 4785 C 459.854 -0.0635518 1.88693 0
M  V30 4786 O 459.211 -1.02394 1.51069 0
M  V30 4787 C 459.262 2.18583 2.8793 0
M  V30 4788 O 458.983 3.5465 2.57206 0
M  V30 4789 C 460.484 2.24612 3.82183 0
M  V30 4790 H 457.704 0.4634 0.485285 0
M  V30 4791 H 460.248 1.80392 0.963266 0
M  V30 4792 H 458.403 1.76943 3.4463 0
M  V30 4793 H 458.817 3.98286 3.41275 0
M  V30 4794 H 460.291 2.87267 4.71361 0
M  V30 4795 H 460.768 1.25309 4.20944 0
M  V30 4796 H 461.374 2.66543 3.31414 0
M  V30 4797 N 459.689 -1.00246 1.21608 0
M  V30 4798 C 460.619 -2.10921 1.00172 0
M  V30 4799 C 461.6 -1.69938 -0.0741587 0
M  V30 4800 O 462.785 -1.94009 0.0861753 0
M  V30 4801 C 459.915 -3.42618 0.568355 0
M  V30 4802 C 458.869 -3.97407 1.58909 0
M  V30 4803 C 458.195 -5.25038 1.01187 0
M  V30 4804 C 459.495 -4.2918 2.97661 0
M  V30 4805 H 461.189 -2.29112 1.92739 0
M  V30 4806 H 458.735 -1.10101 0.928102 0
M  V30 4807 H 460.688 -4.19444 0.405555 0
M  V30 4808 H 459.412 -3.24227 -0.392961 0
M  V30 4809 H 458.071 -3.22703 1.73949 0
M  V30 4810 H 457.719 -5.02982 0.0421965 0
M  V30 4811 H 457.419 -5.62661 1.6937 0
M  V30 4812 H 458.943 -6.04507 0.860448 0
M  V30 4813 H 460.357 -4.96839 2.86049 0
M  V30 4814 H 458.754 -4.77952 3.6288 0
M  V30 4815 H 459.824 -3.3735 3.48315 0
M  V30 4816 N 461.167 -1.02423 -1.1978 0
M  V30 4817 C 462.413 -0.719051 -1.89625 0
M  V30 4818 C 462.746 0.750083 -1.7913 0
M  V30 4819 O 462.021 1.54574 -1.18056 0
M  V30 4820 C 462.304 -1.16499 -3.40735 0
M  V30 4821 C 462.157 -2.695 -3.60125 0
M  V30 4822 C 463.476 -0.742166 -4.33797 0
M  V30 4823 H 460.595 -0.26269 -0.688595 0
M  V30 4824 H 463.237 -1.27333 -1.41018 0
M  V30 4825 H 461.387 -0.69341 -3.82262 0
M  V30 4826 H 463.059 -3.24569 -3.278 0
M  V30 4827 H 461.302 -3.10113 -3.03336 0
M  V30 4828 H 461.973 -2.95757 -4.66081 0
M  V30 4829 H 464.449 -1.1477 -3.99959 0
M  V30 4830 H 463.325 -1.08213 -5.38127 0
M  V30 4831 H 463.586 0.355747 -4.40666 0
M  V30 4832 N 462.645 1.35699 -0.801477 0
M  V30 4833 C 463.922 1.9324 -0.302937 0
M  V30 4834 C 464.302 1.73209 1.20672 0
M  V30 4835 O 463.65 1.09809 2.00385 0
M  V30 4836 C 463.86 3.41728 -0.708747 0
M  V30 4837 C 465.208 4.18868 -0.695328 0
M  V30 4838 O 466.232 3.5022 -0.649971 0
M  V30 4839 O 465.091 5.41342 -0.749081 0
M  V30 4840 H 462.185 0.82331 -0.0780367 0
M  V30 4841 H 464.731 1.44806 -0.884832 0
M  V30 4842 H 463.503 3.50015 -1.74944 0
M  V30 4843 H 463.126 3.97471 -0.101384 0
M  V30 4844 N 464.123 0.554532 1.47522 0
M  V30 4845 C 465.086 -0.184174 2.28459 0
M  V30 4846 C 466.086 -0.845195 1.36796 0
M  V30 4847 O 467.276 -0.701467 1.59452 0
M  V30 4848 C 464.408 -1.26903 3.16399 0
M  V30 4849 H 465.601 0.526751 2.95238 0
M  V30 4850 H 463.154 0.311375 1.53167 0
M  V30 4851 H 463.889 -2.01244 2.54306 0
M  V30 4852 H 463.674 -0.799883 3.83854 0
M  V30 4853 H 465.164 -1.78794 3.77389 0
M  V30 4854 N 465.601 -1.54893 0.290851 0
M  V30 4855 C 466.847 -2.0023 -0.321867 0
M  V30 4856 C 467.18 -1.179 -1.54316 0
M  V30 4857 O 466.455 -0.25293 -1.92848 0
M  V30 4858 C 466.738 -3.53456 -0.688515 0
M  V30 4859 C 466.591 -4.46532 0.541209 0
M  V30 4860 C 467.91 -4.13057 -1.51895 0
M  V30 4861 H 465.029 -0.727891 -0.115515 0
M  V30 4862 H 467.671 -1.85722 0.400931 0
M  V30 4863 H 465.821 -3.6595 -1.30433 0
M  V30 4864 H 467.493 -4.4596 1.17973 0
M  V30 4865 H 465.736 -4.17545 1.17636 0
M  V30 4866 H 466.407 -5.51475 0.240675 0
M  V30 4867 H 468.883 -4.03937 -0.99872 0
M  V30 4868 H 467.759 -5.20448 -1.74429 0
M  V30 4869 H 468.02 -3.64284 -2.50498 0
M  V30 4870 N 467.08 -0.0183926 -1.57589 0
M  V30 4871 C 468.043 0.951986 -2.08494 0
M  V30 4872 C 469.043 1.26092 -0.997874 0
M  V30 4873 O 470.233 1.20304 -1.25987 0
M  V30 4874 C 467.365 2.27165 -2.54182 0
M  V30 4875 H 468.558 0.511307 -2.95509 0
M  V30 4876 H 466.111 0.229444 -1.54607 0
M  V30 4877 H 466.846 2.75884 -1.70465 0
M  V30 4878 H 466.631 2.06057 -3.33591 0
M  V30 4879 H 468.121 2.9674 -2.93828 0
M  V30 4880 N 468.558 1.5553 0.254621 0
M  V30 4881 C 469.505 1.89666 1.31512 0
M  V30 4882 C 470.475 0.750057 1.482 0
M  V30 4883 O 471.66 1.00301 1.62309 0
M  V30 4884 C 468.8 2.19009 2.667 0
M  V30 4885 C 467.913 3.46435 2.58083 0
M  V30 4886 C 467.048 3.65386 3.85573 0
M  V30 4887 C 466.087 4.8644 3.71541 0
M  V30 4888 N 465.224 5.01952 4.90906 0
M  V30 4889 H 470.064 2.80109 1.017 0
M  V30 4890 H 467.601 1.38666 0.490938 0
M  V30 4891 H 469.559 2.34025 3.45381 0
M  V30 4892 H 468.189 1.31779 2.94676 0
M  V30 4893 H 467.241 3.39792 1.71013 0
M  V30 4894 H 468.553 4.35258 2.43622 0
M  V30 4895 H 467.707 3.80319 4.72697 0
M  V30 4896 H 466.446 2.74781 4.02922 0
M  V30 4897 H 465.451 4.71491 2.82801 0
M  V30 4898 H 466.676 5.78497 3.55694 0
M  V30 4899 H 464.622 4.14283 5.08631 0
M  V30 4900 H 464.539 5.84851 4.79046 0
M  V30 4901 H 465.807 5.21289 5.7955 0
M  V30 4902 N 470.036 -0.519951 1.48776 0
M  V30 4903 C 470.966 -1.63253 1.66945 0
M  V30 4904 C 471.947 -1.62014 0.518224 0
M  V30 4905 O 473.132 -1.79053 0.751919 0
M  V30 4906 C 470.262 -3.0181 1.71836 0
M  V30 4907 C 469.216 -3.17911 2.8656 0
M  V30 4908 C 468.542 -4.5763 2.76548 0
M  V30 4909 C 469.842 -2.99729 4.27738 0
M  V30 4910 H 471.536 -1.48302 2.6009 0
M  V30 4911 H 469.082 -0.712026 1.25165 0
M  V30 4912 H 471.035 -3.79525 1.83135 0
M  V30 4913 H 469.759 -3.17806 0.752775 0
M  V30 4914 H 468.418 -2.42616 2.74833 0
M  V30 4915 H 468.066 -4.70476 1.77937 0
M  V30 4916 H 467.766 -4.69346 3.53536 0
M  V30 4917 H 469.29 -5.37431 2.89828 0
M  V30 4918 H 470.704 -3.67228 4.40246 0
M  V30 4919 H 469.101 -3.22932 5.05801 0
M  V30 4920 H 470.171 -1.96047 4.43502 0
M  V30 4921 N 471.514 -1.37532 -0.769588 0
M  V30 4922 C 472.925 -1.29382 -1.346 0
M  V30 4923 C 473.276 0.0576039 -1.96115 0
M  V30 4924 O 472.401 0.95947 -1.93967 0
M  V30 4925 C 472.996 -2.34298 -2.44724 0
M  V30 4926 C 471.555 -2.29776 -2.98128 0
M  V30 4927 C 470.702 -2.18013 -1.71364 0
M  V30 4928 H 473.653 -1.48123 -0.56968 0
M  V30 4929 H 473.674 -1.99089 -3.24259 0
M  V30 4930 H 473.186 -3.32645 -1.99922 0
M  V30 4931 H 471.287 -1.34959 -3.47299 0
M  V30 4932 H 471.4 -3.23276 -3.53595 0
M  V30 4933 H 469.764 -1.64595 -1.94372 0
M  V30 4934 H 470.547 -3.18278 -1.28662 0
M  V30 4935 N 472.992 0.995999 -1.22138 0
M  V30 4936 C 473.955 2.06711 -0.990109 0
M  V30 4937 C 474.955 1.60744 0.0422978 0
M  V30 4938 O 476.145 1.73095 -0.195895 0
M  V30 4939 C 473.277 3.37288 -0.49491 0
M  V30 4940 H 474.47 2.28661 -1.94047 0
M  V30 4941 H 472.023 1.16711 -1.03963 0
M  V30 4942 H 472.758 3.21022 0.459948 0
M  V30 4943 H 472.543 3.71986 -1.23971 0
M  V30 4944 H 474.033 4.16103 -0.353253 0
M  V30 4945 N 474.47 1.03057 1.19235 0
M  V30 4946 C 475.402 0.570932 2.21975 0
M  V30 4947 C 476.415 -0.354088 1.58903 0
M  V30 4948 O 477.604 -0.150211 1.77867 0
M  V30 4949 C 474.704 -0.187152 3.38383 0
M  V30 4950 C 473.877 0.743231 4.31039 0
M  V30 4951 C 472.936 0.0302493 5.26191 0
M  V30 4952 O 471.962 0.657371 5.65391 0
M  V30 4953 N 473.164 -1.23991 5.67104 0
M  V30 4954 H 475.929 1.45456 2.62036 0
M  V30 4955 H 473.49 0.909807 1.33918 0
M  V30 4956 H 475.482 -0.673715 3.99053 0
M  V30 4957 H 474.052 -0.972205 2.97098 0
M  V30 4958 H 473.272 1.40985 3.68126 0
M  V30 4959 H 474.56 1.3755 4.89854 0
M  V30 4960 H 473.958 -1.77011 5.37293 0
M  V30 4961 H 472.515 -1.67093 6.30018 0
M  V30 4962 N 475.948 -1.35272 0.808662 0
M  V30 4963 C 476.895 -2.29764 0.218482 0
M  V30 4964 C 477.865 -1.52911 -0.648652 0
M  V30 4965 O 479.05 -1.81341 -0.593297 0
M  V30 4966 C 476.19 -3.39388 -0.625282 0
M  V30 4967 C 475.303 -4.31202 0.262516 0
M  V30 4968 C 474.438 -5.27919 -0.589451 0
M  V30 4969 C 473.477 -6.11371 0.298617 0
M  V30 4970 N 472.614 -7.0022 -0.513443 0
M  V30 4971 H 477.454 -2.79645 1.02968 0
M  V30 4972 H 474.991 -1.37629 0.519303 0
M  V30 4973 H 476.949 -4.01615 -1.12966 0
M  V30 4974 H 475.579 -2.90777 -1.40173 0
M  V30 4975 H 474.631 -3.69962 0.885013 0
M  V30 4976 H 475.943 -4.89748 0.945971 0
M  V30 4977 H 475.097 -5.95529 -1.15888 0
M  V30 4978 H 473.836 -4.69875 -1.30647 0
M  V30 4979 H 472.841 -5.42707 0.880301 0
M  V30 4980 H 474.066 -6.71494 1.01352 0
M  V30 4981 H 472.012 -6.44662 -1.21439 0
M  V30 4982 H 471.929 -7.55917 0.111922 0
M  V30 4983 H 473.197 -7.72175 -1.06608 0
M  V30 4984 N 477.426 -0.562348 -1.47226 0
M  V30 4985 C 478.654 -0.0452275 -2.06851 0
M  V30 4986 C 479.069 1.25078 -1.41424 0
M  V30 4987 O 478.426 1.75156 -0.512513 0
M  V30 4988 C 478.477 0.148674 -3.61194 0
M  V30 4989 O 478.198 -1.09602 -4.24169 0
M  V30 4990 C 479.699 0.702488 -4.37699 0
M  V30 4991 H 476.919 -0.0481775 -0.669268 0
M  V30 4992 H 479.463 -0.777223 -1.89155 0
M  V30 4993 H 477.618 0.830817 -3.78386 0
M  V30 4994 H 478.032 -0.896982 -5.16773 0
M  V30 4995 H 479.506 0.78743 -5.46355 0
M  V30 4996 H 479.983 1.71493 -4.04335 0
M  V30 4997 H 480.589 0.0558772 -4.25263 0
M  V30 4998 N 478.904 1.54736 -0.299062 0
M  V30 4999 C 479.814 2.27127 0.587413 0
M  V30 5000 C 480.83 1.30575 1.15005 0
M  V30 5001 O 482.006 1.63554 1.17525 0
M  V30 5002 C 479.071 2.99645 1.74395 0
M  V30 5003 C 478.132 4.11731 1.21559 0
M  V30 5004 C 477.365 4.80781 2.317 0
M  V30 5005 O 477.588 4.4918 3.51558 0
M  V30 5006 O 476.522 5.68226 1.98501 0
M  V30 5007 H 480.348 3.037 0.000250109 0
M  V30 5008 H 477.933 1.49256 -0.0655919 0
M  V30 5009 H 479.815 3.45138 2.4178 0
M  V30 5010 H 478.49 2.25969 2.31775 0
M  V30 5011 H 477.397 3.70641 0.507514 0
M  V30 5012 H 478.73 4.87379 0.687233 0
M  V30 5013 N 480.382 0.0267497 1.57577 0
M  V30 5014 C 481.628 -0.653371 1.91987 0
M  V30 5015 C 481.961 -1.71915 0.903263 0
M  V30 5016 O 481.236 -1.94358 -0.0743387 0
M  V30 5017 C 481.519 -1.272 3.36886 0
M  V30 5018 C 481.372 -0.215938 4.49281 0
M  V30 5019 C 482.691 -2.19069 3.81703 0
M  V30 5020 H 479.81 -0.236047 0.698177 0
M  V30 5021 H 482.452 0.0835236 1.89816 0
M  V30 5022 H 480.602 -1.90005 3.38866 0
M  V30 5023 H 482.274 0.41449 4.59434 0
M  V30 5024 H 480.517 0.458855 4.31366 0
M  V30 5025 H 481.188 -0.688347 5.47691 0
M  V30 5026 H 483.664 -1.66253 3.81444 0
M  V30 5027 H 482.54 -2.59307 4.83788 0
M  V30 5028 H 482.801 -3.08087 3.17072 0
M  V30 5029 N 481.861 -1.55662 -0.24637 0
M  V30 5030 C 483.108 -1.77519 -0.974335 0
M  V30 5031 C 483.436 -0.591165 -1.85298 0
M  V30 5032 O 482.691 0.425497 -1.91018 0
M  V30 5033 C 482.99 -3.04885 -1.86494 0
M  V30 5034 C 482.656 -4.36209 -1.14161 0
M  V30 5035 C 481.318 -4.71896 -0.941701 0
M  V30 5036 C 483.67 -5.17391 -0.628957 0
M  V30 5037 C 480.998 -5.86299 -0.216852 0
M  V30 5038 C 483.35 -6.32546 0.0824273 0
M  V30 5039 C 482.014 -6.66853 0.293807 0
M  V30 5040 H 481.284 -0.649588 -0.356535 0
M  V30 5041 H 483.931 -1.89934 -0.244394 0
M  V30 5042 H 482.236 -2.87484 -2.66196 0
M  V30 5043 H 483.933 -3.18994 -2.42989 0
M  V30 5044 H 480.523 -4.08174 -1.30736 0
M  V30 5045 H 484.707 -4.90276 -0.770943 0
M  V30 5046 H 479.963 -6.11385 -0.0426124 0
M  V30 5047 H 484.137 -6.94693 0.487292 0
M  V30 5048 H 481.764 -7.55349 0.857428 0
M  V30 5049 N 483.339 0.512053 -1.4905 0
M  V30 5050 C 484.755 0.84224 -1.35567 0
M  V30 5051 C 484.955 1.97878 -0.380319 0
M  V30 5052 O 484.011 2.51769 0.19201 0
M  V30 5053 C 485.324 1.19286 -2.76028 0
M  V30 5054 C 486.872 1.30171 -2.84648 0
M  V30 5055 C 487.347 1.68568 -4.25851 0
M  V30 5056 N 488.838 1.75638 -4.28609 0
M  V30 5057 C 489.573 2.06769 -5.34821 0
M  V30 5058 N 489.069 2.36201 -6.51292 0
M  V30 5059 N 490.862 2.07927 -5.22229 0
M  V30 5060 H 483.013 -0.237574 -2.11067 0
M  V30 5061 H 485.276 -0.0436747 -0.946993 0
M  V30 5062 H 484.982 0.431199 -3.49047 0
M  V30 5063 H 484.856 2.13889 -3.10695 0
M  V30 5064 H 487.243 2.05411 -2.11873 0
M  V30 5065 H 487.324 0.336457 -2.53578 0
M  V30 5066 H 486.968 0.938824 -4.99148 0
M  V30 5067 H 486.898 2.66174 -4.54377 0
M  V30 5068 H 489.389 1.55097 -3.44606 0
M  V30 5069 H 489.702 2.59112 -7.28066 0
M  V30 5070 H 488.047 2.33681 -6.54536 0
M  V30 5071 H 491.238 1.84403 -4.30248 0
M  V30 5072 H 491.411 2.31856 -6.05101 0
M  V30 5073 N 484.817 1.37938 0.762283 0
M  V30 5074 C 486.065 1.33404 1.51815 0
M  V30 5075 C 486.386 -0.0780975 1.94844 0
M  V30 5076 O 485.656 -1.02405 1.67003 0
M  V30 5077 H 484.236 0.490839 0.563104 0
M  V30 5078 H 486.898 1.72527 0.906669 0
M  V30 5079 H 485.994 1.97926 2.41313 0
M  V30 5080 N 486.295 -0.989507 1.22664 0
M  V30 5081 C 487.541 -1.7321 1.05481 0
M  V30 5082 C 487.874 -1.89852 -0.408635 0
M  V30 5083 O 487.149 -1.44416 -1.30285 0
M  V30 5084 C 487.432 -3.1357 1.77047 0
M  V30 5085 C 487.285 -3.04555 3.31008 0
M  V30 5086 C 488.604 -4.12812 1.5256 0
M  V30 5087 H 485.723 -0.628697 0.384589 0
M  V30 5088 H 488.365 -1.15258 1.51049 0
M  V30 5089 H 486.515 -3.63046 1.3831 0
M  V30 5090 H 488.187 -2.62674 3.7921 0
M  V30 5091 H 486.43 -2.41278 3.6051 0
M  V30 5092 H 487.101 -4.03894 3.76263 0
M  V30 5093 H 489.577 -3.72106 1.86215 0
M  V30 5094 H 488.453 -5.09132 2.05124 0
M  V30 5095 H 488.714 -4.39711 0.458936 0
M  V30 5096 N 487.773 -1.03688 -1.18687 0
M  V30 5097 C 488.703 -0.645407 -2.24403 0
M  V30 5098 C 489.684 0.349511 -1.66471 0
M  V30 5099 O 490.869 0.230453 -1.92828 0
M  V30 5100 C 487.999 -0.00365337 -3.473 0
M  V30 5101 C 486.953 -0.921705 -4.17958 0
M  V30 5102 C 486.279 -0.144629 -5.34504 0
M  V30 5103 C 487.579 -2.23909 -4.71871 0
M  V30 5104 H 489.273 -1.52917 -2.57404 0
M  V30 5105 H 486.819 -0.736711 -1.23728 0
M  V30 5106 H 488.772 0.281908 -4.20456 0
M  V30 5107 H 487.496 0.914963 -3.13522 0
M  V30 5108 H 486.155 -1.19159 -3.46694 0
M  V30 5109 H 485.803 0.776274 -4.96974 0
M  V30 5110 H 485.503 -0.756206 -5.82714 0
M  V30 5111 H 487.027 0.134004 -6.10453 0
M  V30 5112 H 488.441 -2.0145 -5.36741 0
M  V30 5113 H 486.838 -2.8033 -5.30599 0
M  V30 5114 H 487.908 -2.88822 -3.895 0
M  V30 5115 N 489.251 1.34841 -0.815825 0
M  V30 5116 C 490.161 2.33425 -0.234462 0
M  V30 5117 C 491.177 1.62295 0.627413 0
M  V30 5118 O 492.353 1.94109 0.536987 0
M  V30 5119 C 489.418 3.41471 0.599849 0
M  V30 5120 C 488.479 4.28362 -0.283596 0
M  V30 5121 C 487.712 5.31248 0.51099 0
M  V30 5122 O 487.935 5.43056 1.7449 0
M  V30 5123 O 486.869 6.01812 -0.10297 0
M  V30 5124 H 490.695 2.84962 -1.05024 0
M  V30 5125 H 488.28 1.37774 -0.577809 0
M  V30 5126 H 490.162 4.07464 1.07475 0
M  V30 5127 H 488.837 2.9219 1.39308 0
M  V30 5128 H 487.744 3.65318 -0.805836 0
M  V30 5129 H 489.077 4.81066 -1.041 0
M  V30 5130 N 490.729 0.570148 1.46925 0
M  V30 5131 C 491.661 -0.207909 2.28255 0
M  V30 5132 C 492.674 -0.867301 1.37774 0
M  V30 5133 O 493.863 -0.738976 1.62485 0
M  V30 5134 C 490.963 -1.31298 3.12433 0
M  V30 5135 C 490.136 -0.747915 4.30958 0
M  V30 5136 C 489.195 -1.7391 4.9663 0
M  V30 5137 O 488.221 -1.2801 5.54619 0
M  V30 5138 N 489.423 -3.07288 4.92498 0
M  V30 5139 H 492.188 0.489794 2.95671 0
M  V30 5140 H 489.749 0.407076 1.56699 0
M  V30 5141 H 491.741 -1.97507 3.53232 0
M  V30 5142 H 490.311 -1.91373 2.47175 0
M  V30 5143 H 489.531 0.0913066 3.94094 0
M  V30 5144 H 490.819 -0.349958 5.07595 0
M  V30 5145 H 490.217 -3.47213 4.46609 0
M  V30 5146 H 488.774 -3.69021 5.37277 0
M  V30 5147 N 492.207 -1.54576 0.307264 0
M  V30 5148 C 493.137 -2.26708 -0.55907 0
M  V30 5149 C 494.118 -1.26893 -1.1328 0
M  V30 5150 O 495.303 -1.55677 -1.16097 0
M  V30 5151 C 492.433 -3.01259 -1.72801 0
M  V30 5152 C 491.387 -4.08275 -1.28435 0
M  V30 5153 C 490.713 -4.70575 -2.53895 0
M  V30 5154 C 492.013 -5.2068 -0.411038 0
M  V30 5155 H 493.707 -2.9937 0.042576 0
M  V30 5156 H 491.253 -1.43983 0.0219173 0
M  V30 5157 H 493.206 -3.50444 -2.34023 0
M  V30 5158 H 491.93 -2.26187 -2.356 0
M  V30 5159 H 490.589 -3.59949 -0.695161 0
M  V30 5160 H 490.237 -3.92136 -3.15021 0
M  V30 5161 H 489.937 -5.42854 -2.24908 0
M  V30 5162 H 491.461 -5.22527 -3.15908 0
M  V30 5163 H 492.875 -5.65721 -0.929097 0
M  V30 5164 H 491.272 -5.99716 -0.214664 0
M  V30 5165 H 492.342 -4.81629 0.562287 0
M  V30 5166 N 493.685 -0.035106 -1.57561 0
M  V30 5167 C 495.101 0.321334 -1.56332 0
M  V30 5168 C 495.301 1.72509 -1.04129 0
M  V30 5169 O 494.357 2.4287 -0.690694 0
M  V30 5170 C 495.67 0.164469 -3.0025 0
M  V30 5171 C 497.218 0.236786 -3.12103 0
M  V30 5172 C 497.693 0.10864 -4.57871 0
M  V30 5173 N 499.184 0.165433 -4.62904 0
M  V30 5174 C 499.919 0.0901506 -5.73329 0
M  V30 5175 N 499.415 -0.0365606 -6.9279 0
M  V30 5176 N 501.208 0.144572 -5.61914 0
M  V30 5177 H 493.359 -0.952976 -1.89821 0
M  V30 5178 H 495.622 -0.368537 -0.873432 0
M  V30 5179 H 495.328 -0.802746 -3.42416 0
M  V30 5180 H 495.202 0.932194 -3.655 0
M  V30 5181 H 497.589 1.19446 -2.69845 0
M  V30 5182 H 497.67 -0.561419 -2.49563 0
M  V30 5183 H 497.314 -0.845644 -5.00811 0
M  V30 5184 H 497.244 0.925786 -5.18398 0
M  V30 5185 H 499.735 0.263269 -3.76982 0
M  V30 5186 H 500.048 -0.0871487 -7.72751 0
M  V30 5187 H 498.393 -0.0714256 -6.94963 0
M  V30 5188 H 501.584 0.242006 -4.67474 0
M  V30 5189 H 501.757 0.0824413 -6.47948 0
M  V30 5190 N 495.163 1.55791 0.238111 0
M  V30 5191 C 496.409 1.79211 0.962035 0
M  V30 5192 C 496.764 0.605463 1.82625 0
M  V30 5193 O 496.057 -0.40104 1.87356 0
M  V30 5194 C 496.251 3.05869 1.84875 0
M  V30 5195 C 496.08 4.36739 1.07186 0
M  V30 5196 C 494.85 4.99346 0.773424 0
M  V30 5197 C 497.048 5.1237 0.445168 0
M  V30 5198 N 495.03 6.13894 -0.0266037 0
M  V30 5199 C 496.401 6.19613 -0.219023 0
M  V30 5200 C 498.456 4.96622 0.356522 0
M  V30 5201 C 497.159 7.1282 -0.963358 0
M  V30 5202 C 499.185 5.90214 -0.374304 0
M  V30 5203 C 498.547 6.96872 -1.0271 0
M  V30 5204 H 494.646 0.707627 0.332849 0
M  V30 5205 H 497.23 1.93284 0.234368 0
M  V30 5206 H 495.401 2.93108 2.54837 0
M  V30 5207 H 497.133 3.17547 2.5089 0
M  V30 5208 H 493.888 4.60948 1.08738 0
M  V30 5209 H 494.312 6.75727 -0.414968 0
M  V30 5210 H 498.954 4.14232 0.846878 0
M  V30 5211 H 496.672 7.94704 -1.46529 0
M  V30 5212 H 500.258 5.80106 -0.443678 0
M  V30 5213 H 499.138 7.68045 -1.58358 0
M  V30 5214 N 496.642 -0.504142 1.49319 0
M  V30 5215 C 497.889 -1.25846 1.58647 0
M  V30 5216 C 498.217 -1.92592 0.27177 0
M  V30 5217 O 497.472 -1.81167 -0.74007 0
M  V30 5218 C 497.771 -2.35021 2.69258 0
M  V30 5219 C 497.437 -1.85755 4.1086 0
M  V30 5220 C 496.099 -1.72038 4.49395 0
M  V30 5221 C 498.451 -1.48844 4.99495 0
M  V30 5222 C 495.779 -1.19783 5.74342 0
M  V30 5223 C 498.131 -0.980422 6.24956 0
M  V30 5224 C 496.795 -0.829622 6.62324 0
M  V30 5225 H 496.065 -0.460505 0.580531 0
M  V30 5226 H 498.712 -0.559716 1.83138 0
M  V30 5227 H 497.017 -3.10672 2.38726 0
M  V30 5228 H 498.714 -2.93083 2.73685 0
M  V30 5229 H 495.304 -1.9739 3.80441 0
M  V30 5230 H 499.488 -1.5829 4.70381 0
M  V30 5231 H 494.744 -1.06817 6.01997 0
M  V30 5232 H 498.918 -0.685608 6.93017 0
M  V30 5233 H 496.545 -0.42253 7.59025 0
M  V30 5234 N 498.12 -1.38341 -0.754957 0
M  V30 5235 C 499.083 -1.35262 -1.85032 0
M  V30 5236 C 500.083 -0.253393 -1.58791 0
M  V30 5237 O 501.273 -0.510205 -1.66561 0
M  V30 5238 C 498.405 -1.10544 -3.22479 0
M  V30 5239 H 499.598 -2.32712 -1.8917 0
M  V30 5240 H 497.151 -1.23614 -0.956515 0
M  V30 5241 H 497.886 -0.136952 -3.24011 0
M  V30 5242 H 497.671 -1.90127 -3.4292 0
M  V30 5243 H 499.161 -1.11082 -4.02555 0
M  V30 5244 N 499.598 0.982988 -1.23187 0
M  V30 5245 C 500.846 1.72052 -1.06031 0
M  V30 5246 C 501.167 1.90769 0.404019 0
M  V30 5247 O 500.437 1.47446 1.28982 0
M  V30 5248 H 499.017 0.637499 -0.389363 0
M  V30 5249 H 501.679 1.18338 -1.54862 0
M  V30 5250 H 500.775 2.7111 -1.54615 0
M  V30 5251 N 501.076 1.04316 1.18135 0
M  V30 5252 C 502.023 0.636398 2.21853 0
M  V30 5253 C 502.993 -0.357039 1.62217 0
M  V30 5254 O 504.178 -0.250453 1.89149 0
M  V30 5255 C 501.318 0.00812779 3.45099 0
M  V30 5256 C 500.431 1.04933 4.19062 0
M  V30 5257 C 499.566 0.389313 5.29771 0
M  V30 5258 C 498.605 1.41544 5.9551 0
M  V30 5259 N 497.742 0.78021 6.97751 0
M  V30 5260 H 502.582 1.52536 2.56002 0
M  V30 5261 H 500.119 0.76304 1.25762 0
M  V30 5262 H 502.077 -0.373497 4.15525 0
M  V30 5263 H 500.707 -0.844336 3.11562 0
M  V30 5264 H 499.759 1.54888 3.47439 0
M  V30 5265 H 501.071 1.82862 4.64072 0
M  V30 5266 H 500.225 -0.0463805 6.06682 0
M  V30 5267 H 498.964 -0.422038 4.8587 0
M  V30 5268 H 497.969 1.86124 5.17337 0
M  V30 5269 H 499.194 2.22854 6.41493 0
M  V30 5270 H 497.14 -0.0107899 6.55999 0
M  V30 5271 H 497.057 1.49716 7.41027 0
M  V30 5272 H 498.325 0.368996 7.78626 0
M  V30 5273 N 502.554 -1.34406 0.822964 0
M  V30 5274 C 503.486 -2.28305 0.202375 0
M  V30 5275 C 504.499 -1.5103 -0.60777 0
M  V30 5276 O 505.688 -1.73057 -0.437444 0
M  V30 5277 C 502.788 -3.30836 -0.734911 0
M  V30 5278 C 501.961 -4.37388 0.0324177 0
M  V30 5279 C 501.02 -5.1968 -0.825803 0
M  V30 5280 O 500.046 -5.68556 -0.270771 0
M  V30 5281 N 501.248 -5.39393 -2.14558 0
M  V30 5282 H 504.013 -2.82201 1.00909 0
M  V30 5283 H 501.574 -1.4693 0.67993 0
M  V30 5284 H 503.566 -3.82786 -1.31365 0
M  V30 5285 H 502.136 -2.77334 -1.44238 0
M  V30 5286 H 501.356 -3.86152 0.792469 0
M  V30 5287 H 502.644 -5.05702 0.560633 0
M  V30 5288 H 502.042 -5.01357 -2.62025 0
M  V30 5289 H 500.599 -5.94461 -2.67318 0
M  V30 5290 N 504.032 -0.577932 -1.46621 0
M  V30 5291 C 505.278 -0.0617793 -2.02706 0
M  V30 5292 C 505.611 1.29294 -1.44903 0
M  V30 5293 O 504.886 1.8461 -0.61232 0
M  V30 5294 C 505.169 0.00911824 -3.60099 0
M  V30 5295 C 505.022 -1.37416 -4.28295 0
M  V30 5296 C 506.341 0.712159 -4.343 0
M  V30 5297 H 503.46 -0.0239246 -0.736612 0
M  V30 5298 H 506.102 -0.744211 -1.74818 0
M  V30 5299 H 504.252 0.590292 -3.83989 0
M  V30 5300 H 505.924 -2.00013 -4.15683 0
M  V30 5301 H 504.167 -1.94319 -3.87843 0
M  V30 5302 H 504.838 -1.27707 -5.37024 0
M  V30 5303 H 507.314 0.218486 -4.15526 0
M  V30 5304 H 506.19 0.730782 -5.44014 0
M  V30 5305 H 506.451 1.77251 -4.05012 0
M  V30 5306 N 505.51 1.54411 -0.315457 0
M  V30 5307 C 506.457 2.24048 0.554166 0
M  V30 5308 C 507.427 1.2283 1.11812 0
M  V30 5309 O 508.612 1.51491 1.15997 0
M  V30 5310 C 505.752 2.99574 1.71316 0
M  V30 5311 C 504.865 4.15594 1.17922 0
M  V30 5312 C 504 4.78669 2.30324 0
M  V30 5313 C 503.039 5.86807 1.74137 0
M  V30 5314 N 502.176 6.43777 2.8017 0
M  V30 5315 H 507.016 2.97964 -0.0462602 0
M  V30 5316 H 504.553 1.47059 -0.0346009 0
M  V30 5317 H 506.511 3.41604 2.39505 0
M  V30 5318 H 505.141 2.28008 2.285 0
M  V30 5319 H 504.193 3.78404 0.389136 0
M  V30 5320 H 505.505 4.93459 0.728012 0
M  V30 5321 H 504.659 5.23626 3.06433 0
M  V30 5322 H 503.398 4.00168 2.78778 0
M  V30 5323 H 502.403 5.41261 0.965236 0
M  V30 5324 H 503.628 6.67201 1.2657 0
M  V30 5325 H 501.574 5.68153 3.2793 0
M  V30 5326 H 501.491 7.17031 2.39588 0
M  V30 5327 H 502.759 6.9339 3.56132 0
M  V30 5328 N 506.988 0.0434614 1.5754 0
M  V30 5329 C 508.213 -0.645358 1.97104 0
M  V30 5330 C 508.638 -1.64037 0.920521 0
M  V30 5331 O 507.996 -1.80922 -0.11708 0
M  V30 5332 C 508.044 -1.31547 3.35749 0
M  V30 5333 O 507.148 -2.43103 3.33129 0
M  V30 5334 H 506.489 -0.168403 0.64229 0
M  V30 5335 H 509.019 0.109573 2.04306 0
M  V30 5336 H 509.029 -1.66895 3.72304 0
M  V30 5337 H 507.704 -0.586205 4.11748 0
M  V30 5338 H 506.281 -2.0976 3.0831 0
M  V30 5339 N 508.466 -1.55915 -0.229846 0
M  V30 5340 C 509.712 -1.78807 -0.956868 0
M  V30 5341 C 510.045 -0.611687 -1.84315 0
M  V30 5342 O 509.32 0.389398 -1.90562 0
M  V30 5343 C 509.603 -3.11718 -1.80288 0
M  V30 5344 C 509.456 -4.3979 -0.943649 0
M  V30 5345 C 510.775 -3.40999 -2.78222 0
M  V30 5346 H 507.894 -0.6505 -0.346437 0
M  V30 5347 H 510.536 -1.88648 -0.226252 0
M  V30 5348 H 508.686 -3.03459 -2.42579 0
M  V30 5349 H 510.358 -4.60059 -0.338121 0
M  V30 5350 H 508.601 -4.33086 -0.248705 0
M  V30 5351 H 509.272 -5.29208 -1.5698 0
M  V30 5352 H 511.748 -3.49332 -2.26067 0
M  V30 5353 H 510.624 -4.35183 -3.34526 0
M  V30 5354 H 510.885 -2.62754 -3.55546 0
M  V30 5355 N 509.944 0.496216 -1.49584 0
M  V30 5356 C 510.907 1.57952 -1.66084 0
M  V30 5357 C 511.907 1.51729 -0.53244 0
M  V30 5358 O 513.097 1.54796 -0.79899 0
M  V30 5359 C 510.229 2.97604 -1.66268 0
M  V30 5360 H 511.422 1.44649 -2.6271 0
M  V30 5361 H 508.975 0.7208 -1.38687 0
M  V30 5362 H 509.71 3.16378 -0.712432 0
M  V30 5363 H 509.495 3.03528 -2.4822 0
M  V30 5364 H 510.985 3.76301 -1.81073 0
M  V30 5365 N 511.423 1.38739 0.74761 0
M  V30 5366 C 512.648 1.38702 1.54197 0
M  V30 5367 C 513.073 -0.019664 1.8809 0
M  V30 5368 O 512.431 -1.00333 1.51006 0
M  V30 5369 C 512.479 2.25492 2.814 0
M  V30 5370 O 511.583 1.67613 3.76802 0
M  V30 5371 H 510.924 0.472863 0.466151 0
M  V30 5372 H 513.454 1.82577 0.923413 0
M  V30 5373 H 513.464 2.39561 3.30264 0
M  V30 5374 H 512.139 3.27727 2.56062 0
M  V30 5375 H 510.716 1.62718 3.35526 0
M  V30 5376 N 512.901 -0.976442 1.23707 0
M  V30 5377 C 514.147 -1.72081 1.07312 0
M  V30 5378 C 514.48 -1.90275 -0.388476 0
M  V30 5379 O 513.755 -1.4579 -1.28746 0
M  V30 5380 C 514.038 -3.11675 1.80363 0
M  V30 5381 C 513.891 -3.01027 3.3422 0
M  V30 5382 C 515.21 -4.1117 1.5693 0
M  V30 5383 H 512.329 -0.624583 0.391236 0
M  V30 5384 H 514.971 -1.13649 1.52263 0
M  V30 5385 H 513.121 -3.61559 1.42153 0
M  V30 5386 H 514.793 -2.58637 3.81975 0
M  V30 5387 H 513.036 -2.3744 3.63049 0
M  V30 5388 H 513.707 -3.9988 3.80525 0
M  V30 5389 H 516.183 -3.7011 1.90151 0
M  V30 5390 H 515.059 -5.06928 2.10513 0
M  V30 5391 H 515.32 -4.392 0.505548 0
M  V30 5392 N 514.379 -1.04941 -1.1758 0
M  V30 5393 C 515.627 -0.756492 -1.87408 0
M  V30 5394 C 515.948 0.718478 -1.81281 0
M  V30 5395 O 515.218 1.519 -1.23706 0
M  V30 5396 H 513.798 -0.276841 -0.693807 0
M  V30 5397 H 516.46 -1.32803 -1.42652 0
M  V30 5398 H 515.556 -1.06918 -2.93215 0
M  V30 5399 N 515.857 1.33968 -0.830081 0
M  V30 5400 C 517.105 1.97672 -0.420734 0
M  V30 5401 C 517.426 1.66111 1.02138 0
M  V30 5402 O 516.696 0.955503 1.71017 0
M  V30 5403 H 515.276 0.73125 -0.152587 0
M  V30 5404 H 517.938 1.63483 -1.0611 0
M  V30 5405 H 517.034 3.07294 -0.545588 0
M  V30 5406 N 517.335 0.585699 1.46312 0
M  V30 5407 C 518.283 -0.158577 2.32059 0
M  V30 5408 C 519.277 -0.881427 1.44662 0
M  V30 5409 O 520.483 -0.799476 1.61271 0
M  V30 5410 H 516.858 -0.0700066 0.748734 0
M  V30 5411 H 518.829 0.583383 2.92642 0
M  V30 5412 C 517.578 -1.15701 3.27885 0
M  V30 5413 H 516.901 -0.610215 3.95116 0
M  V30 5414 H 518.341 -1.64812 3.90657 0
M  V30 5415 C 516.8 -2.21951 2.53455 0
M  V30 5416 O 517.33 -3.29352 2.29978 0
M  V30 5417 N 515.536 -1.9664 2.13965 0
M  V30 5418 H 515.083 -1.09309 2.33258 0
M  V30 5419 H 515.041 -2.6794 1.64485 0
M  V30 5420 N 518.813 -1.54241 0.323641 0
M  V30 5421 C 520.062 -1.9975 -0.279806 0
M  V30 5422 C 520.375 -1.2156 -1.5324 0
M  V30 5423 O 521.581 -1.57447 -2.21185 0
M  V30 5424 C 520.037 -3.55686 -0.549115 0
M  V30 5425 C 519.645 -4.4271 0.686432 0
M  V30 5426 C 521.389 -4.09663 -1.11251 0
M  V30 5427 C 519.296 -5.90119 0.389022 0
M  V30 5428 H 518.226 -0.746177 -0.10833 0
M  V30 5429 H 520.877 -1.78248 0.435877 0
M  V30 5430 H 519.259 -3.73176 -1.32499 0
M  V30 5431 H 520.433 -4.36996 1.46188 0
M  V30 5432 H 518.748 -3.99623 1.17005 0
M  V30 5433 H 521.345 -5.17386 -1.34965 0
M  V30 5434 H 521.688 -3.61651 -2.06191 0
M  V30 5435 H 522.221 -3.95806 -0.39782 0
M  V30 5436 H 518.96 -6.42326 1.30759 0
M  V30 5437 H 518.48 -5.98785 -0.348722 0
M  V30 5438 H 520.159 -6.47 -0.0011164 0
M  V30 5439 N 520.291 -0.0518155 -1.57515 0
M  V30 5440 C 521.54 0.621286 -1.91893 0
M  V30 5441 C 521.853 1.71966 -0.932052 0
M  V30 5442 O 523.059 2.45096 -1.16791 0
M  V30 5443 C 521.515 1.15641 -3.40816 0
M  V30 5444 C 521.123 0.0901146 -4.47909 0
M  V30 5445 C 522.867 1.80472 -3.84227 0
M  V30 5446 C 520.774 0.638154 -5.87947 0
M  V30 5447 H 519.704 0.235835 -0.716169 0
M  V30 5448 H 522.355 -0.120809 -1.83102 0
M  V30 5449 H 520.737 1.95084 -3.44613 0
M  V30 5450 H 521.911 -0.683525 -4.55702 0
M  V30 5451 H 520.226 -0.460774 -4.13843 0
M  V30 5452 H 522.823 2.22471 -4.86221 0
M  V30 5453 H 523.166 2.65669 -3.20508 0
M  V30 5454 H 523.699 1.07683 -3.82948 0
M  V30 5455 H 520.438 -0.176202 -6.55263 0
M  V30 5456 H 519.958 1.37976 -5.83714 0
M  V30 5457 H 521.637 1.12085 -6.37217 0
M  V30 5458 N 521.769 1.56035 0.221574 0
M  V30 5459 C 522.997 1.8313 0.962864 0
M  V30 5460 C 523.412 0.630934 1.77946 0
M  V30 5461 O 522.769 -0.400519 1.78051 0
M  V30 5462 C 522.82 3.08742 1.88045 0
M  V30 5463 O 522.541 4.24147 1.09686 0
M  V30 5464 C 524.042 3.48824 2.73563 0
M  V30 5465 H 521.262 0.608775 0.282194 0
M  V30 5466 H 523.806 2.03124 0.23681 0
M  V30 5467 H 521.961 2.90723 2.56045 0
M  V30 5468 H 522.375 4.95505 1.71974 0
M  V30 5469 H 523.849 4.39752 3.3365 0
M  V30 5470 H 524.326 2.70575 3.45956 0
M  V30 5471 H 524.932 3.69282 2.10976 0
M  V30 5472 N 523.247 -0.488276 1.49845 0
M  V30 5473 C 524.21 -1.57069 1.66919 0
M  V30 5474 C 525.21 -1.51445 0.540479 0
M  V30 5475 O 526.4 -1.5437 0.807188 0
M  V30 5476 C 523.532 -2.96718 1.67844 0
M  V30 5477 H 524.725 -1.43254 2.63474 0
M  V30 5478 H 522.278 -0.713435 1.39068 0
M  V30 5479 H 523.013 -3.15996 0.7292 0
M  V30 5480 H 522.798 -3.02208 2.49826 0
M  V30 5481 H 524.288 -3.75335 1.83066 0
M  V30 5482 N 524.725 -1.39134 -0.740242 0
M  V30 5483 C 525.95 -1.39518 -1.53459 0
M  V30 5484 C 526.375 0.00968883 -1.88098 0
M  V30 5485 O 525.733 0.995312 -1.51536 0
M  V30 5486 C 525.781 -2.26981 -2.802 0
M  V30 5487 O 524.885 -1.69609 -3.75908 0
M  V30 5488 H 524.226 -0.475328 -0.463637 0
M  V30 5489 H 526.756 -1.83064 -0.913717 0
M  V30 5490 H 526.766 -2.41309 -3.28989 0
M  V30 5491 H 525.441 -3.29081 -2.5432 0
M  V30 5492 H 524.018 -1.64495 -3.34658 0
M  V30 5493 N 526.204 0.969867 -1.24223 0
M  V30 5494 C 527.615 1.52717 -1.07399 0
M  V30 5495 C 527.966 1.92956 0.355298 0
M  V30 5496 O 527.091 1.77112 1.2434 0
M  V30 5497 C 527.686 2.77521 -1.94339 0
M  V30 5498 C 526.245 3.29615 -1.81744 0
M  V30 5499 C 525.392 2.02537 -1.89405 0
M  V30 5500 H 528.343 0.788399 -1.37732 0
M  V30 5501 H 528.364 3.50773 -1.47439 0
M  V30 5502 H 527.876 2.48203 -2.98357 0
M  V30 5503 H 525.977 3.63789 -0.805505 0
M  V30 5504 H 526.09 3.98661 -2.65718 0
M  V30 5505 H 524.454 2.17151 -1.33108 0
M  V30 5506 H 525.237 1.75587 -2.94999 0
M  V30 5507 N 527.682 1.05563 1.17022 0
M  V30 5508 C 528.931 0.763036 1.8671 0
M  V30 5509 C 529.244 -0.712857 1.82147 0
M  V30 5510 O 530.45 -1.11955 2.47343 0
M  V30 5511 C 528.906 1.31474 3.35026 0
M  V30 5512 C 528.514 2.82034 3.48081 0
M  V30 5513 C 530.258 1.09935 4.10018 0
M  V30 5514 C 528.165 3.30486 4.90442 0
M  V30 5515 H 527.095 0.281747 0.699382 0
M  V30 5516 H 529.746 1.2734 1.32124 0
M  V30 5517 H 528.128 0.732171 3.89173 0
M  V30 5518 H 529.302 3.46178 3.04133 0
M  V30 5519 H 527.617 3.02156 2.86515 0
M  V30 5520 H 530.214 1.43632 5.15048 0
M  V30 5521 H 530.557 0.0373072 4.16283 0
M  V30 5522 H 531.09 1.64732 3.62089 0
M  V30 5523 H 527.829 4.36137 4.89352 0
M  V30 5524 H 527.349 2.71086 5.35044 0
M  V30 5525 H 529.028 3.25382 5.59227 0
M  V30 5526 N 529.16 -1.33526 0.837174 0
M  V30 5527 C 530.385 -2.0258 0.444545 0
M  V30 5528 C 530.81 -1.6258 -0.946006 0
M  V30 5529 O 530.168 -0.817548 -1.6182 0
M  V30 5530 C 530.216 -3.5605 0.571006 0
M  V30 5531 O 529.32 -4.10422 -0.403431 0
M  V30 5532 H 528.661 -0.638866 0.180958 0
M  V30 5533 H 531.191 -1.70462 1.13154 0
M  V30 5534 H 531.201 -4.05488 0.452024 0
M  V30 5535 H 529.876 -3.84509 1.58512 0
M  V30 5536 H 528.453 -3.72113 -0.242147 0
M  V30 5537 N 530.638 -0.59345 -1.46 0
M  V30 5538 C 531.915 -0.0157933 -1.95594 0
M  V30 5539 C 532.295 1.44807 -1.53604 0
M  V30 5540 O 531.643 2.14342 -0.791824 0
M  V30 5541 C 531.853 -0.199081 -3.48432 0
M  V30 5542 C 533.201 -0.0724943 -4.24538 0
M  V30 5543 O 534.225 -0.128469 -3.55968 0
M  V30 5544 O 533.084 0.0542426 -5.46473 0
M  V30 5545 H 530.178 0.043749 -0.825842 0
M  V30 5546 H 532.724 -0.662522 -1.56233 0
M  V30 5547 H 531.496 -1.21631 -3.71916 0
M  V30 5548 H 531.119 0.483576 -3.94648 0
M  V30 5549 N 532.116 1.54067 -0.331816 0
M  V30 5550 C 533.046 2.27569 0.522932 0
M  V30 5551 C 534.027 1.28679 1.11247 0
M  V30 5552 O 535.212 1.57504 1.13605 0
M  V30 5553 C 532.342 3.0397 1.67987 0
M  V30 5554 C 531.296 4.10267 1.21924 0
M  V30 5555 C 530.622 4.74555 2.46377 0
M  V30 5556 C 531.922 5.21268 0.32815 0
M  V30 5557 H 533.616 2.99264 -0.0901977 0
M  V30 5558 H 531.162 1.4393 -0.044821 0
M  V30 5559 H 533.115 3.54123 2.28418 0
M  V30 5560 H 531.839 2.29906 2.31971 0
M  V30 5561 H 530.498 3.61009 0.637809 0
M  V30 5562 H 530.146 3.97098 3.08743 0
M  V30 5563 H 529.846 5.46363 2.16243 0
M  V30 5564 H 531.37 5.27487 3.07555 0
M  V30 5565 H 532.784 5.67128 0.838978 0
M  V30 5566 H 531.181 5.99982 0.119228 0
M  V30 5567 H 532.251 4.80673 -0.638839 0
M  V30 5568 N 533.594 0.0601682 1.57485 0
M  V30 5569 C 534.542 -0.928899 2.13247 0
M  V30 5570 C 535.536 -1.31616 1.06647 0
M  V30 5571 O 536.742 -1.29476 1.25043 0
M  V30 5572 H 533.117 -0.317455 0.681708 0
M  V30 5573 H 535.088 -0.433566 2.95233 0
M  V30 5574 C 533.837 -2.19121 2.69965 0
M  V30 5575 H 533.16 -1.90204 3.51657 0
M  V30 5576 H 534.6 -2.86465 3.12592 0
M  V30 5577 C 533.059 -2.94195 1.64168 0
M  V30 5578 O 533.589 -3.87468 1.05978 0
M  V30 5579 N 531.795 -2.57089 1.35476 0
M  V30 5580 H 531.342 -1.81314 1.82984 0
M  V30 5581 H 531.3 -3.07624 0.649196 0
M  V30 5582 N 535.072 -1.5615 -0.213296 0
M  V30 5583 C 536.483 -1.69645 -0.779582 0
M  V30 5584 C 536.834 -0.663615 -1.84636 0
M  V30 5585 O 535.959 0.183633 -2.15619 0
M  V30 5586 C 536.554 -3.07567 -1.42084 0
M  V30 5587 C 535.113 -3.22889 -1.93442 0
M  V30 5588 C 534.26 -2.65581 -0.797612 0
M  V30 5589 H 537.211 -1.58696 0.0114951 0
M  V30 5590 H 537.232 -3.03884 -2.28986 0
M  V30 5591 H 536.744 -3.82716 -0.644187 0
M  V30 5592 H 534.845 -2.52623 -2.73884 0
M  V30 5593 H 534.958 -4.30197 -2.10872 0
M  V30 5594 H 533.322 -2.24278 -1.20712 0
M  V30 5595 H 534.105 -3.43284 -0.033494 0
M  V30 5596 N 536.55 0.480323 -1.50102 0
M  V30 5597 C 537.796 1.23489 -1.60867 0
M  V30 5598 C 538.129 1.91809 -0.303827 0
M  V30 5599 O 537.404 1.81694 0.694092 0
M  V30 5600 C 537.687 2.28578 -2.78252 0
M  V30 5601 C 537.54 1.64624 -4.18592 0
M  V30 5602 C 538.859 3.2997 -2.91218 0
M  V30 5603 H 535.978 0.447605 -0.585507 0
M  V30 5604 H 538.62 0.530005 -1.82458 0
M  V30 5605 H 536.77 2.88697 -2.59974 0
M  V30 5606 H 538.442 1.08173 -4.48438 0
M  V30 5607 H 536.685 0.949645 -4.23278 0
M  V30 5608 H 537.356 2.40946 -4.96638 0
M  V30 5609 H 539.832 2.79864 -3.07921 0
M  V30 5610 H 538.708 4.00839 -3.74993 0
M  V30 5611 H 538.969 3.93541 -2.0144 0
M  V30 5612 N 538.028 1.39524 0.732853 0
M  V30 5613 C 539.275 1.36865 1.49246 0
M  V30 5614 C 539.603 -0.0347118 1.94469 0
M  V30 5615 O 538.858 -1.01596 1.67262 0
M  V30 5616 C 539.157 2.28916 2.74468 0
M  V30 5617 C 538.823 3.76506 2.481 0
M  V30 5618 C 537.485 4.16721 2.40619 0
M  V30 5619 C 539.837 4.69846 2.25598 0
M  V30 5620 C 537.165 5.48334 2.08679 0
M  V30 5621 C 539.517 6.01739 1.95174 0
M  V30 5622 C 538.181 6.41015 1.86163 0
M  V30 5623 H 537.451 0.500824 0.546129 0
M  V30 5624 H 540.098 1.72047 0.840958 0
M  V30 5625 H 538.403 1.86859 3.4437 0
M  V30 5626 H 540.1 2.2415 3.32502 0
M  V30 5627 H 536.69 3.44635 2.54803 0
M  V30 5628 H 540.874 4.39608 2.30344 0
M  V30 5629 H 536.13 5.77685 2.00226 0
M  V30 5630 H 540.304 6.73591 1.76771 0
M  V30 5631 H 537.931 7.42917 1.61179 0
M  V30 5632 N 539.506 -0.963266 1.24736 0
M  V30 5633 C 540.439 -2.05758 0.986852 0
M  V30 5634 C 541.417 -1.62398 -0.0809272 0
M  V30 5635 O 542.601 -1.88414 0.0569347 0
M  V30 5636 C 539.728 -3.35135 0.490095 0
M  V30 5637 C 538.774 -3.97451 1.54709 0
M  V30 5638 S 539.607 -4.34519 3.12976 0
M  V30 5639 C 540.763 -5.67026 2.65014 0
M  V30 5640 H 540.996 -2.27539 1.91346 0
M  V30 5641 H 538.529 -1.10176 1.08169 0
M  V30 5642 H 540.487 -4.09962 0.21012 0
M  V30 5643 H 539.148 -3.11335 -0.415873 0
M  V30 5644 H 538.341 -4.90704 1.15003 0
M  V30 5645 H 537.943 -3.29071 1.77731 0
M  V30 5646 H 540.235 -6.44748 2.08102 0
M  V30 5647 H 541.178 -6.11594 3.56873 0
M  V30 5648 H 541.586 -5.25847 2.05294 0
M  V30 5649 N 540.985 -1.06182 -1.16461 0
M  V30 5650 C 541.948 -0.675723 -2.19013 0
M  V30 5651 C 542.948 0.277963 -1.58379 0
M  V30 5652 O 544.138 0.0604962 -1.74095 0
M  V30 5653 C 541.27 0.00591459 -3.40899 0
M  V30 5654 H 542.463 -1.58353 -2.54685 0
M  V30 5655 H 540.016 -0.856908 -1.30716 0
M  V30 5656 H 540.751 0.92652 -3.10783 0
M  V30 5657 H 540.536 -0.67984 -3.86161 0
M  V30 5658 H 542.026 0.26181 -4.16778 0
M  V30 5659 N 542.463 1.3308 -0.844243 0
M  V30 5660 C 543.688 2.02341 -0.455282 0
M  V30 5661 C 544.113 1.6308 0.93737 0
M  V30 5662 O 543.471 0.826118 1.61385 0
M  V30 5663 C 543.519 3.55743 -0.58988 0
M  V30 5664 O 542.623 4.1063 0.38166 0
M  V30 5665 H 541.964 0.637898 -0.184343 0
M  V30 5666 H 544.494 1.6986 -1.14056 0
M  V30 5667 H 544.504 4.05243 -0.473522 0
M  V30 5668 H 543.179 3.83662 -1.60549 0
M  V30 5669 H 541.756 3.72236 0.22241 0
M  V30 5670 N 543.941 0.601185 1.45683 0
M  V30 5671 C 545.189 0.0936957 2.01883 0
M  V30 5672 C 545.51 -1.2779 1.47291 0
M  V30 5673 O 544.78 -1.84279 0.664691 0
M  V30 5674 H 543.36 0.0316466 0.746329 0
M  V30 5675 H 546.022 0.781137 1.78562 0
M  V30 5676 H 545.118 0.0386297 3.12076 0
M  V30 5677 N 545.419 -1.53889 0.339982 0
M  V30 5678 C 546.382 -2.23547 -0.50592 0
M  V30 5679 C 547.382 -1.23445 -1.03044 0
M  V30 5680 O 548.572 -1.47909 -0.920253 0
M  V30 5681 C 545.704 -2.95234 -1.7044 0
M  V30 5682 H 546.897 -2.99722 0.103247 0
M  V30 5683 H 544.45 -1.56033 0.0912804 0
M  V30 5684 H 545.185 -2.23236 -2.35236 0
M  V30 5685 H 544.97 -3.68654 -1.33553 0
M  V30 5686 H 546.46 -3.48258 -2.30447 0
M  V30 5687 N 546.897 -0.0685191 -1.57451 0
M  V30 5688 C 547.844 0.899861 -2.12535 0
M  V30 5689 C 548.814 1.29749 -1.03703 0
M  V30 5690 O 549.999 1.38392 -1.31348 0
M  V30 5691 C 547.139 2.16328 -2.6888 0
M  V30 5692 C 546.252 1.81857 -3.91857 0
M  V30 5693 C 545.387 3.02786 -4.36457 0
M  V30 5694 C 544.426 2.64317 -5.5209 0
M  V30 5695 N 543.563 3.77994 -5.91663 0
M  V30 5696 H 548.403 0.423243 -2.94979 0
M  V30 5697 H 545.94 0.197268 -1.45771 0
M  V30 5698 H 547.898 2.90281 -2.99655 0
M  V30 5699 H 546.528 2.61536 -1.89206 0
M  V30 5700 H 545.58 0.979808 -3.67565 0
M  V30 5701 H 546.892 1.49553 -4.75852 0
M  V30 5702 H 546.046 3.85021 -4.68875 0
M  V30 5703 H 544.785 3.38281 -3.51308 0
M  V30 5704 H 543.79 1.80503 -5.19325 0
M  V30 5705 H 545.015 2.29995 -6.38967 0
M  V30 5706 H 542.961 4.13258 -5.09464 0
M  V30 5707 H 542.878 3.49447 -6.7039 0
M  V30 5708 H 544.146 4.60818 -6.28703 0
M  V30 5709 N 548.375 1.56261 0.205012 0
M  V30 5710 C 549.305 1.96779 1.257 0
M  V30 5711 C 550.286 0.838309 1.48008 0
M  V30 5712 O 551.471 1.10189 1.59913 0
M  V30 5713 C 548.601 2.29876 2.60335 0
M  V30 5714 C 547.555 3.45469 2.52656 0
M  V30 5715 C 546.881 3.64215 3.91473 0
M  V30 5716 C 548.181 4.79954 2.06014 0
M  V30 5717 H 549.875 2.84904 0.920338 0
M  V30 5718 H 547.421 1.37072 0.441277 0
M  V30 5719 H 549.374 2.56814 3.34102 0
M  V30 5720 H 548.098 1.38622 2.95722 0
M  V30 5721 H 546.757 3.18605 1.81345 0
M  V30 5722 H 546.405 2.70309 4.24196 0
M  V30 5723 H 546.105 4.41973 3.87213 0
M  V30 5724 H 547.629 3.93519 4.66878 0
M  V30 5725 H 549.043 5.05989 2.69533 0
M  V30 5726 H 547.44 5.61111 2.12777 0
M  V30 5727 H 548.51 4.74201 1.01297 0
M  V30 5728 N 549.853 -0.472356 1.50355 0
M  V30 5729 C 551.081 -1.24784 1.65035 0
M  V30 5730 C 551.496 -1.85837 0.333176 0
M  V30 5731 O 550.853 -1.69168 -0.68472 0
M  V30 5732 C 550.904 -2.35747 2.74054 0
M  V30 5733 O 550.625 -1.77197 4.00665 0
M  V30 5734 C 552.126 -3.26645 2.99696 0
M  V30 5735 H 549.346 -0.377432 0.554785 0
M  V30 5736 H 551.89 -0.563962 1.9657 0
M  V30 5737 H 550.045 -2.99912 2.45217 0
M  V30 5738 H 550.459 -2.5026 4.60945 0
M  V30 5739 H 551.933 -4.00718 3.79644 0
M  V30 5740 H 552.41 -3.8535 2.10718 0
M  V30 5741 H 553.016 -2.68218 3.3006 0
M  V30 5742 N 551.331 -1.39911 -0.725443 0
M  V30 5743 C 552.261 -1.42138 -1.85254 0
M  V30 5744 C 553.242 -0.283513 -1.67721 0
M  V30 5745 O 554.427 -0.490717 -1.87898 0
M  V30 5746 C 551.557 -1.27354 -3.23107 0
M  V30 5747 C 550.511 -2.3864 -3.55296 0
M  V30 5748 C 549.837 -2.08939 -4.92188 0
M  V30 5749 C 551.137 -3.8097 -3.57295 0
M  V30 5750 H 552.831 -2.36461 -1.83648 0
M  V30 5751 H 550.377 -1.13817 -0.882138 0
M  V30 5752 H 552.33 -1.2753 -4.01639 0
M  V30 5753 H 551.054 -0.295025 -3.25265 0
M  V30 5754 H 549.713 -2.37696 -2.79099 0
M  V30 5755 H 549.361 -1.09502 -4.90936 0
M  V30 5756 H 549.061 -2.83491 -5.14691 0
M  V30 5757 H 550.585 -2.10781 -5.73065 0
M  V30 5758 H 551.999 -3.8379 -4.25885 0
M  V30 5759 H 550.396 -4.5496 -3.9132 0
M  V30 5760 H 551.466 -4.11261 -2.5689 0
M  V30 5761 N 552.809 0.956637 -1.25245 0
M  V30 5762 C 554.055 1.70352 -1.10036 0
M  V30 5763 C 554.388 1.90869 0.358156 0
M  V30 5764 O 553.663 1.47819 1.26411 0
M  V30 5765 C 553.946 3.08766 -1.85298 0
M  V30 5766 C 553.799 2.95672 -3.38966 0
M  V30 5767 C 555.118 4.08622 -1.63451 0
M  V30 5768 H 552.237 0.618279 -0.401123 0
M  V30 5769 H 554.879 1.11212 -1.54051 0
M  V30 5770 H 553.029 3.59252 -1.47887 0
M  V30 5771 H 554.701 2.52527 -3.86041 0
M  V30 5772 H 552.944 2.31634 -3.6678 0
M  V30 5773 H 553.615 3.93776 -3.86839 0
M  V30 5774 H 556.091 3.67038 -1.96015 0
M  V30 5775 H 554.967 5.03514 -2.18551 0
M  V30 5776 H 555.228 4.3834 -0.575357 0
M  V30 5777 N 554.287 1.06798 1.15896 0
M  V30 5778 C 555.512 0.808739 1.90982 0
M  V30 5779 C 555.937 -0.6316 1.77179 0
M  V30 5780 O 555.295 -1.4407 1.10061 0
M  V30 5781 C 555.343 1.21468 3.39526 0
M  V30 5782 O 554.447 0.356562 4.10856 0
M  V30 5783 H 553.788 0.29512 0.594811 0
M  V30 5784 H 556.318 1.42513 1.46804 0
M  V30 5785 H 556.328 1.18844 3.90308 0
M  V30 5786 H 555.003 2.26379 3.48891 0
M  V30 5787 H 553.58 0.444808 3.70238 0
M  V30 5788 N 555.766 -1.3263 0.851289 0
M  V30 5789 C 557.182 -1.50162 0.5407 0
M  V30 5790 C 557.382 -1.78788 -0.929369 0
M  V30 5791 O 556.438 -1.85545 -1.71258 0
M  V30 5792 C 557.751 -2.64803 1.42478 0
M  V30 5793 C 559.299 -2.78688 1.42485 0
M  V30 5794 C 559.774 -3.96405 2.29407 0
M  V30 5795 N 561.265 -4.0366 2.27184 0
M  V30 5796 C 562 -4.93971 2.9117 0
M  V30 5797 N 561.496 -5.89313 3.64256 0
M  V30 5798 N 563.289 -4.87066 2.80576 0
M  V30 5799 H 555.44 -1.12315 1.80275 0
M  V30 5800 H 557.703 -0.553266 0.769806 0
M  V30 5801 H 557.409 -2.50368 2.46999 0
M  V30 5802 H 557.283 -3.60506 1.10974 0
M  V30 5803 H 559.67 -2.92547 0.387304 0
M  V30 5804 H 559.751 -1.83708 1.78002 0
M  V30 5805 H 559.395 -3.83304 3.33228 0
M  V30 5806 H 559.325 -4.90654 1.91224 0
M  V30 5807 H 561.816 -3.35435 1.74045 0
M  V30 5808 H 562.129 -6.54913 4.10255 0
M  V30 5809 H 560.474 -5.8935 3.68364 0
M  V30 5810 H 563.665 -4.11552 2.23031 0
M  V30 5811 H 563.838 -5.57248 3.30725 0
M  V30 5812 N 557.244 -0.608902 -1.45362 0
M  V30 5813 C 558.492 -0.104401 -2.0183 0
M  V30 5814 C 558.813 1.27007 -1.47967 0
M  V30 5815 O 558.083 1.83924 -0.674455 0
M  V30 5816 H 556.663 -0.0356042 -0.746151 0
M  V30 5817 H 559.325 -0.790596 -1.78145 0
M  V30 5818 H 558.421 -0.0551793 -3.12051 0
M  V30 5819 N 558.722 1.53707 -0.348139 0
M  V30 5820 C 559.95 2.05406 0.248224 0
M  V30 5821 C 560.365 1.22282 1.43849 0
M  V30 5822 O 559.722 0.259244 1.80649 0
M  V30 5823 C 559.773 3.55446 0.658793 0
M  V30 5824 O 559.494 4.35417 -0.484149 0
M  V30 5825 C 560.995 4.23335 1.31539 0
M  V30 5826 H 558.215 0.669344 0.0471075 0
M  V30 5827 H 560.759 1.98257 -0.501456 0
M  V30 5828 H 558.914 3.62803 1.35841 0
M  V30 5829 H 559.328 5.24268 -0.155949 0
M  V30 5830 H 560.802 5.29692 1.55338 0
M  V30 5831 H 561.279 3.75967 2.27036 0
M  V30 5832 H 561.885 4.20184 0.657683 0
M  V30 5833 N 560.2 0.0768682 1.57412 0
M  V30 5834 C 561.616 -0.279772 1.57129 0
M  V30 5835 C 561.816 -1.69688 1.08666 0
M  V30 5836 O 560.872 -2.40953 0.754843 0
M  V30 5837 C 562.185 -0.0848055 3.0058 0
M  V30 5838 C 563.733 -0.153954 3.12621 0
M  V30 5839 C 564.208 0.0127946 4.57998 0
M  V30 5840 N 565.699 -0.0426435 4.6318 0
M  V30 5841 C 566.434 0.0618892 5.73367 0
M  V30 5842 N 565.93 0.220229 6.9245 0
M  V30 5843 N 567.723 0.00446072 5.621 0
M  V30 5844 H 559.874 1.00297 1.87228 0
M  V30 5845 H 562.137 0.391565 0.863354 0
M  V30 5846 H 561.843 0.89325 3.40168 0
M  V30 5847 H 561.717 -0.834961 3.67843 0
M  V30 5848 H 564.104 -1.1225 2.72917 0
M  V30 5849 H 564.185 0.627389 2.47987 0
M  V30 5850 H 563.829 0.978128 4.98392 0
M  V30 5851 H 563.759 -0.788016 5.20671 0
M  V30 5852 H 566.25 -0.163226 3.77547 0
M  V30 5853 H 566.563 0.291999 7.72248 0
M  V30 5854 H 564.908 0.255658 6.9453 0
M  V30 5855 H 568.099 -0.117979 4.67951 0
M  V30 5856 H 568.272 0.0893796 6.47938 0
M  V30 5857 N 561.678 -1.56367 -0.196722 0
M  V30 5858 C 563.094 -1.49916 -0.54749 0
M  V30 5859 C 563.294 -0.77659 -1.85934 0
M  V30 5860 O 562.35 -0.32644 -2.50381 0
M  V30 5861 C 563.663 -2.94577 -0.603734 0
M  V30 5862 C 565.211 -3.05239 -0.692677 0
M  V30 5863 C 565.686 -4.51308 -0.780046 0
M  V30 5864 N 567.177 -4.55453 -0.843616 0
M  V30 5865 C 567.912 -5.65786 -0.931358 0
M  V30 5866 N 567.408 -6.85812 -0.981503 0
M  V30 5867 N 569.201 -5.53695 -0.968421 0
M  V30 5868 H 561.352 -2.01761 0.663803 0
M  V30 5869 H 563.615 -0.918094 0.236238 0
M  V30 5870 H 563.321 -3.50494 0.29105 0
M  V30 5871 H 563.195 -3.47841 -1.45898 0
M  V30 5872 H 565.582 -2.49372 -1.57789 0
M  V30 5873 H 565.663 -2.55103 0.188736 0
M  V30 5874 H 565.307 -5.078 0.100811 0
M  V30 5875 H 565.237 -4.99176 -1.67724 0
M  V30 5876 H 567.728 -3.69025 -0.814176 0
M  V30 5877 H 568.041 -7.65648 -1.04892 0
M  V30 5878 H 566.386 -6.88474 -0.950208 0
M  V30 5879 H 569.577 -4.58848 -0.926072 0
M  V30 5880 H 569.75 -6.39708 -1.03334 0
M  V30 5881 N 563.156 0.464375 -1.50603 0
M  V30 5882 C 564.384 1.23907 -1.65695 0
M  V30 5883 C 564.799 1.85658 -0.343027 0
M  V30 5884 O 564.156 1.69529 0.675739 0
M  V30 5885 C 564.207 2.3429 -2.75301 0
M  V30 5886 O 563.928 1.7507 -4.01599 0
M  V30 5887 C 565.429 3.25051 -3.01424 0
M  V30 5888 H 562.649 0.374485 -0.556778 0
M  V30 5889 H 565.193 0.55353 -1.96866 0
M  V30 5890 H 563.348 2.98607 -2.46804 0
M  V30 5891 H 563.762 2.47812 -4.62266 0
M  V30 5892 H 565.236 3.98699 -3.81763 0
M  V30 5893 H 565.713 3.84227 -2.12758 0
M  V30 5894 H 566.319 2.66463 -3.31477 0
M  V30 5895 N 564.634 1.40294 0.718013 0
M  V30 5896 C 565.88 1.38645 1.48005 0
M  V30 5897 C 566.213 -0.0121202 1.94196 0
M  V30 5898 O 565.488 -0.980309 1.67989 0
M  V30 5899 C 565.771 2.37379 2.70782 0
M  V30 5900 C 565.624 3.8625 2.30501 0
M  V30 5901 C 566.943 2.33685 3.72933 0
M  V30 5902 H 564.062 0.504928 0.536858 0
M  V30 5903 H 566.704 1.71411 0.819649 0
M  V30 5904 H 564.854 2.09568 3.27129 0
M  V30 5905 H 566.526 4.24879 1.79655 0
M  V30 5906 H 564.769 4.02202 1.6253 0
M  V30 5907 H 565.44 4.50847 3.18498 0
M  V30 5908 H 567.916 2.58314 3.2621 0
M  V30 5909 H 566.792 3.0482 4.56482 0
M  V30 5910 H 567.053 1.34765 4.21059 0
M  V30 5911 N 566.112 -0.949982 1.2575 0
M  V30 5912 C 567.044 -2.05088 1.02331 0
M  V30 5913 C 568.057 -1.62795 -0.0133247 0
M  V30 5914 O 569.246 -1.77067 0.225759 0
M  V30 5915 C 566.346 -3.34794 0.525924 0
M  V30 5916 C 565.519 -4.05903 1.62978 0
M  V30 5917 C 564.578 -5.1388 1.13196 0
M  V30 5918 O 563.604 -5.39072 1.82729 0
M  V30 5919 N 564.806 -5.80495 -0.0242926 0
M  V30 5920 H 567.571 -2.25747 1.97125 0
M  V30 5921 H 565.132 -1.11886 1.17018 0
M  V30 5922 H 567.124 -4.04312 0.177263 0
M  V30 5923 H 565.694 -3.10872 -0.328202 0
M  V30 5924 H 564.914 -3.3042 2.1498 0
M  V30 5925 H 566.202 -4.50166 2.37124 0
M  V30 5926 H 565.6 -5.62454 -0.605184 0
M  V30 5927 H 564.157 -6.51043 -0.313947 0
M  V30 5928 N 567.59 -1.07411 -1.15328 0
M  V30 5929 C 568.523 -0.63913 -2.19067 0
M  V30 5930 C 569.501 0.343929 -1.58921 0
M  V30 5931 O 570.685 0.250207 -1.86832 0
M  V30 5932 C 567.812 0.0613977 -3.38644 0
M  V30 5933 C 566.858 -0.880201 -4.17318 0
M  V30 5934 S 567.691 -2.38152 -4.79629 0
M  V30 5935 C 568.847 -1.69281 -6.02573 0
M  V30 5936 H 569.08 -1.51799 -2.55626 0
M  V30 5937 H 566.613 -0.888138 -1.26299 0
M  V30 5938 H 568.571 0.459323 -4.07922 0
M  V30 5939 H 567.232 0.916605 -3.00428 0
M  V30 5940 H 566.425 -0.336781 -5.02874 0
M  V30 5941 H 566.027 -1.21854 -3.53592 0
M  V30 5942 H 568.319 -1.00488 -6.70006 0
M  V30 5943 H 569.262 -2.52671 -6.61485 0
M  V30 5944 H 569.67 -1.17053 -5.52231 0
M  V30 5945 N 569.068 1.32177 -0.85831 0
M  V30 5946 C 570.345 1.91781 -0.384624 0
M  V30 5947 C 570.725 1.78171 1.13217 0
M  V30 5948 O 570.073 1.18209 1.95548 0
M  V30 5949 C 570.283 3.38414 -0.853047 0
M  V30 5950 C 571.631 4.15542 -0.872359 0
M  V30 5951 O 572.655 3.47148 -0.797926 0
M  V30 5952 O 571.514 5.37678 -0.978009 0
M  V30 5953 H 568.608 0.819259 -0.112886 0
M  V30 5954 H 571.154 1.40923 -0.945453 0
M  V30 5955 H 569.926 3.4228 -1.89632 0
M  V30 5956 H 569.549 3.96683 -0.269874 0
M  V30 5957 N 570.547 0.616602 1.45037 0
M  V30 5958 C 571.497 -0.118543 2.27692 0
M  V30 5959 C 572.481 -0.830025 1.37838 0
M  V30 5960 O 573.673 -0.718528 1.6176 0
M  V30 5961 C 570.802 -1.10924 3.24886 0
M  V30 5962 C 569.888 -0.398134 4.22227 0
M  V30 5963 N 570.279 0.565233 5.02632 0
M  V30 5964 C 568.577 -0.644506 4.41319 0
M  V30 5965 C 569.278 0.984043 5.73316 0
M  V30 5966 N 568.254 0.325879 5.42622 0
M  V30 5967 H 572.056 0.621239 2.87259 0
M  V30 5968 H 569.57 0.440968 1.56299 0
M  V30 5969 H 571.567 -1.65038 3.82842 0
M  V30 5970 H 570.227 -1.84948 2.66879 0
M  V30 5971 H 571.238 0.942395 5.09254 0
M  V30 5972 H 567.915 -1.36873 3.94426 0
M  V30 5973 H 569.305 1.77911 6.47918 0
M  V30 5974 N 572.025 -1.5352 0.356285 0
M  V30 5975 C 573.253 -2.05534 -0.237328 0
M  V30 5976 C 573.668 -1.23043 -1.43199 0
M  V30 5977 O 573.025 -0.268821 -1.80509 0
M  V30 5978 C 573.076 -3.55791 -0.639933 0
M  V30 5979 O 572.797 -4.35154 0.507233 0
M  V30 5980 C 574.298 -4.24027 -1.29292 0
M  V30 5981 H 571.518 -0.669585 -0.0435572 0
M  V30 5982 H 574.062 -1.97988 0.511963 0
M  V30 5983 H 572.217 -3.63518 -1.33915 0
M  V30 5984 H 572.631 -5.24178 0.18375 0
M  V30 5985 H 574.105 -5.30509 -1.52527 0
M  V30 5986 H 574.582 -3.77166 -2.25039 0
M  V30 5987 H 575.188 -4.20527 -0.63539 0
M  V30 5988 N 573.503 -0.0852151 -1.57369 0
M  V30 5989 C 574.75 0.580806 -1.93992 0
M  V30 5990 C 575.078 1.68801 -0.966252 0
M  V30 5991 O 574.333 1.95694 0.0158649 0
M  V30 5992 C 574.632 1.18482 -3.3719 0
M  V30 5993 C 574.298 0.2024 -4.50446 0
M  V30 5994 C 572.96 -0.0678318 -4.81152 0
M  V30 5995 C 575.312 -0.46895 -5.19086 0
M  V30 5996 C 572.64 -1.01627 -5.77831 0
M  V30 5997 C 574.992 -1.4058 -6.16782 0
M  V30 5998 C 573.656 -1.68436 -6.45899 0
M  V30 5999 H 572.926 0.212532 -0.709867 0
M  V30 6000 H 575.573 -0.158947 -1.90839 0
M  V30 6001 H 573.878 2.0006 -3.36873 0
M  V30 6002 H 575.575 1.70767 -3.62822 0
M  V30 6003 H 572.165 0.423208 -4.26505 0
M  V30 6004 H 576.349 -0.273307 -4.95547 0
M  V30 6005 H 571.605 -1.2392 -5.9871 0
M  V30 6006 H 575.779 -1.93188 -6.69068 0
M  V30 6007 H 573.406 -2.42088 -7.20623 0
M  V30 6008 N 574.981 1.5647 0.188427 0
M  V30 6009 C 576.228 1.81013 0.907779 0
M  V30 6010 C 576.556 0.65953 1.82977 0
M  V30 6011 O 575.811 -0.354308 1.92466 0
M  V30 6012 C 576.11 3.11596 1.7505 0
M  V30 6013 C 575.776 4.40145 0.978922 0
M  V30 6014 C 574.438 4.75066 0.765912 0
M  V30 6015 C 576.79 5.19369 0.436498 0
M  V30 6016 C 574.118 5.867 -0.00089868 0
M  V30 6017 C 576.47 6.31805 -0.317136 0
M  V30 6018 C 575.134 6.65303 -0.541103 0
M  V30 6019 H 574.404 0.662373 0.33218 0
M  V30 6020 H 577.051 1.9071 0.173732 0
M  V30 6021 H 575.356 2.97165 2.55343 0
M  V30 6022 H 577.053 3.27793 2.30983 0
M  V30 6023 H 573.643 4.12745 1.15497 0
M  V30 6024 H 577.827 4.92799 0.588449 0
M  V30 6025 H 573.083 6.11122 -0.184329 0
M  V30 6026 H 577.257 6.92406 -0.744788 0
M  V30 6027 H 574.884 7.51646 -1.13718 0
M  V30 6028 N 576.459 -0.456382 1.50847 0
M  V30 6029 C 577.87 -1.03685 1.55262 0
M  V30 6030 C 578.221 -1.92779 0.364771 0
M  V30 6031 O 577.346 -2.10043 -0.52068 0
M  V30 6032 C 577.941 -1.88718 2.81374 0
M  V30 6033 C 576.5 -2.41847 2.88422 0
M  V30 6034 C 575.647 -1.20564 2.49719 0
M  V30 6035 H 578.598 -0.238399 1.56899 0
M  V30 6036 H 578.619 -2.73957 2.6406 0
M  V30 6037 H 578.131 -1.23847 3.67809 0
M  V30 6038 H 576.232 -3.10228 2.06372 0
M  V30 6039 H 576.345 -2.75947 3.9165 0
M  V30 6040 H 574.709 -1.54504 2.02486 0
M  V30 6041 H 575.492 -0.573326 3.38479 0
M  V30 6042 N 577.937 -1.40673 -0.710563 0
M  V30 6043 C 579.185 -1.38947 -1.46759 0
M  V30 6044 C 579.506 0.00572879 -1.94999 0
M  V30 6045 O 578.776 0.961358 -1.70689 0
M  V30 6046 H 577.356 -0.5114 -0.544499 0
M  V30 6047 H 580.018 -1.75773 -0.842012 0
M  V30 6048 H 579.114 -2.06745 -2.33801 0
M  V30 6049 N 579.415 0.9433 -1.26252 0
M  V30 6050 C 580.645 1.72117 -1.14277 0
M  V30 6051 C 581.053 1.86726 0.304944 0
M  V30 6052 O 580.396 1.3727 1.22076 0
M  V30 6053 C 580.458 3.14778 -1.73651 0
M  V30 6054 C 580.122 3.23561 -3.22734 0
M  V30 6055 C 581.119 3.07001 -4.19579 0
M  V30 6056 C 578.804 3.47019 -3.63157 0
M  V30 6057 C 580.798 3.13763 -5.54826 0
M  V30 6058 C 578.485 3.53416 -4.98538 0
M  V30 6059 C 579.483 3.36804 -5.94182 0
M  V30 6060 O 579.171 3.42906 -7.27098 0
M  V30 6061 H 578.903 0.545781 -0.398873 0
M  V30 6062 H 581.457 1.19123 -1.67328 0
M  V30 6063 H 579.687 3.69186 -1.1506 0
M  V30 6064 H 581.376 3.74469 -1.56613 0
M  V30 6065 H 582.142 2.88736 -3.89688 0
M  V30 6066 H 578.021 3.59006 -2.89199 0
M  V30 6067 H 581.565 3.00714 -6.29458 0
M  V30 6068 H 577.462 3.71201 -5.28091 0
M  V30 6069 H 578.23 3.59463 -7.35342 0
M  V30 6070 N 580.893 1.08022 1.14757 0
M  V30 6071 C 582.309 0.807072 1.3769 0
M  V30 6072 C 582.509 -0.585504 1.92806 0
M  V30 6073 O 581.565 -1.34301 2.13821 0
M  V30 6074 C 582.878 1.88651 2.34161 0
M  V30 6075 C 584.426 1.91206 2.47809 0
M  V30 6076 C 584.901 2.98253 3.47576 0
M  V30 6077 N 586.392 2.974 3.55117 0
M  V30 6078 C 587.127 3.76872 4.32152 0
M  V30 6079 N 586.623 4.66212 5.12463 0
M  V30 6080 N 588.416 3.6519 4.27309 0
M  V30 6081 H 580.567 1.97824 0.77326 0
M  V30 6082 H 582.83 0.85826 0.402608 0
M  V30 6083 H 582.536 2.88749 2.00791 0
M  V30 6084 H 582.41 1.75244 3.3402 0
M  V30 6085 H 584.797 0.917564 2.80472 0
M  V30 6086 H 584.878 2.08691 1.47925 0
M  V30 6087 H 584.522 3.97907 3.15646 0
M  V30 6088 H 584.452 2.78014 4.47231 0
M  V30 6089 H 586.943 2.32643 2.97801 0
M  V30 6090 H 587.256 5.23468 5.68508 0
M  V30 6091 H 585.601 4.70257 5.11745 0
M  V30 6092 H 588.792 2.94765 3.63636 0
M  V30 6093 H 588.965 4.27366 4.87095 0
M  V30 6094 N 582.371 -1.3172 0.865308 0
M  V30 6095 C 583.318 -2.2863 0.315736 0
M  V30 6096 C 584.288 -1.55524 -0.583213 0
M  V30 6097 O 585.473 -1.83694 -0.51585 0
M  V30 6098 C 582.613 -3.41735 -0.480773 0
M  V30 6099 C 581.726 -4.297 0.445167 0
M  V30 6100 C 580.861 -5.29944 -0.365012 0
M  V30 6101 C 579.9 -6.09554 0.557651 0
M  V30 6102 N 579.037 -7.01768 -0.215994 0
M  V30 6103 H 583.877 -2.75026 1.14736 0
M  V30 6104 H 581.414 -1.35302 0.577209 0
M  V30 6105 H 583.372 -4.06045 -0.958306 0
M  V30 6106 H 582.002 -2.96461 -1.27714 0
M  V30 6107 H 581.054 -3.65875 1.04113 0
M  V30 6108 H 582.366 -4.85295 1.15284 0
M  V30 6109 H 581.52 -5.99908 -0.905255 0
M  V30 6110 H 580.259 -4.74994 -1.106 0
M  V30 6111 H 579.264 -5.38485 1.10969 0
M  V30 6112 H 580.489 -6.66591 1.29742 0
M  V30 6113 H 578.435 -6.49232 -0.939878 0
M  V30 6114 H 578.352 -7.54762 0.432431 0
M  V30 6115 H 579.62 -7.76002 -0.737618 0
M  V30 6116 N 583.85 -0.624285 -1.44708 0
M  V30 6117 C 585.077 -0.132919 -2.06473 0
M  V30 6118 C 585.493 1.18967 -1.46602 0
M  V30 6119 O 584.85 1.72824 -0.586341 0
M  V30 6120 C 584.901 -0.00465418 -3.615 0
M  V30 6121 O 584.622 -1.27494 -4.19138 0
M  V30 6122 C 586.123 0.516213 -4.40284 0
M  V30 6123 H 583.343 -0.0765201 -0.666623 0
M  V30 6124 H 585.887 -0.856751 -1.85688 0
M  V30 6125 H 584.042 0.669583 -3.8157 0
M  V30 6126 H 584.456 -1.11536 -5.12504 0
M  V30 6127 H 585.93 0.554994 -5.49203 0
M  V30 6128 H 586.407 1.5419 -4.11245 0
M  V30 6129 H 587.013 -0.124542 -4.25118 0
M  V30 6130 N 585.328 1.53329 -0.364422 0
M  V30 6131 C 586.258 2.28627 0.474543 0
M  V30 6132 C 587.239 1.31009 1.08492 0
M  V30 6133 O 588.424 1.59878 1.10239 0
M  V30 6134 C 585.554 3.07465 1.61501 0
M  V30 6135 C 584.508 4.1276 1.13194 0
M  V30 6136 C 583.834 4.79674 2.36255 0
M  V30 6137 C 585.134 5.21847 0.217507 0
M  V30 6138 H 586.828 2.99005 -0.153656 0
M  V30 6139 H 584.374 1.43803 -0.0753406 0
M  V30 6140 H 586.327 3.58889 2.20855 0
M  V30 6141 H 585.051 2.34775 2.27042 0
M  V30 6142 H 583.71 3.62281 0.56109 0
M  V30 6143 H 583.358 4.03557 3.00251 0
M  V30 6144 H 583.058 5.50827 2.04606 0
M  V30 6145 H 584.582 5.33892 2.96297 0
M  V30 6146 H 585.996 5.6878 0.718493 0
M  V30 6147 H 584.393 6.00099 -0.00806408 0
M  V30 6148 H 585.463 4.7921 -0.740653 0
M  V30 6149 N 586.806 0.0935595 1.57322 0
M  V30 6150 C 587.736 -0.863062 2.16964 0
M  V30 6151 C 588.717 -1.29528 1.10256 0
M  V30 6152 O 589.902 -1.36245 1.38387 0
M  V30 6153 C 587.032 -2.12276 2.74875 0
M  V30 6154 C 585.986 -1.82921 3.86942 0
M  V30 6155 C 585.312 -3.15707 4.31548 0
M  V30 6156 C 586.612 -1.11737 5.10208 0
M  V30 6157 H 588.306 -0.366145 2.97153 0
M  V30 6158 H 585.852 -0.174673 1.42937 0
M  V30 6159 H 587.805 -2.79634 3.1525 0
M  V30 6160 H 586.529 -2.64248 1.91938 0
M  V30 6161 H 585.188 -1.17961 3.47103 0
M  V30 6162 H 584.836 -3.65563 3.45504 0
M  V30 6163 H 584.536 -2.96849 5.07104 0
M  V30 6164 H 586.06 -3.84226 4.74555 0
M  V30 6165 H 587.474 -1.69203 5.47762 0
M  V30 6166 H 585.871 -1.03064 5.91183 0
M  V30 6167 H 586.941 -0.0998818 4.84797 0
M  V30 6168 N 588.284 -1.56567 -0.180126 0
M  V30 6169 C 589.509 -1.85975 -0.918041 0
M  V30 6170 C 589.934 -0.678888 -1.75422 0
M  V30 6171 O 589.292 0.372168 -1.77439 0
M  V30 6172 C 589.34 -3.13731 -1.77779 0
M  V30 6173 O 588.444 -2.95335 -2.87838 0
M  V30 6174 H 587.785 -0.61196 -0.257683 0
M  V30 6175 H 590.315 -2.03798 -0.180923 0
M  V30 6176 H 590.325 -3.4491 -2.17948 0
M  V30 6177 H 589 -3.99293 -1.16352 0
M  V30 6178 H 587.577 -2.7549 -2.51316 0
M  V30 6179 N 589.762 0.448376 -1.51087 0
M  V30 6180 C 591.173 1.0286 -1.5581 0
M  V30 6181 C 591.524 1.92583 -0.374989 0
M  V30 6182 O 590.649 2.10316 0.509533 0
M  V30 6183 C 591.244 1.87223 -2.8237 0
M  V30 6184 C 589.803 2.40314 -2.897 0
M  V30 6185 C 588.95 1.19238 -2.50355 0
M  V30 6186 H 591.901 0.230075 -1.57023 0
M  V30 6187 H 591.922 2.72553 -2.6551 0
M  V30 6188 H 591.434 1.21894 -3.68461 0
M  V30 6189 H 589.535 3.09129 -2.08014 0
M  V30 6190 H 589.648 2.73866 -3.93108 0
M  V30 6191 H 588.012 1.53428 -2.03303 0
M  V30 6192 H 588.795 0.555367 -3.38778 0
M  V30 6193 N 591.24 1.41047 0.703093 0
M  V30 6194 C 592.15 1.44645 1.84703 0
M  V30 6195 C 593.166 0.337778 1.7069 0
M  V30 6196 O 594.342 0.584327 1.92737 0
M  V30 6197 C 591.407 1.31928 3.20618 0
M  V30 6198 C 590.468 2.53047 3.46794 0
M  V30 6199 C 589.701 2.40927 4.76224 0
M  V30 6200 O 589.924 1.42978 5.5219 0
M  V30 6201 O 588.858 3.30543 5.03016 0
M  V30 6202 H 592.684 2.41139 1.84624 0
M  V30 6203 H 590.269 1.22504 0.855167 0
M  V30 6204 H 592.151 1.27092 4.01778 0
M  V30 6205 H 590.826 0.385469 3.21397 0
M  V30 6206 H 589.733 2.6346 2.65593 0
M  V30 6207 H 591.066 3.45231 3.50822 0
M  V30 6208 N 592.718 -0.936591 1.26751 0
M  V30 6209 C 593.628 -2.06949 1.10496 0
M  V30 6210 C 594.644 -1.7396 0.037271 0
M  V30 6211 O 595.82 -1.99941 0.241944 0
M  V30 6212 C 592.885 -3.38612 0.744491 0
M  V30 6213 C 591.946 -3.85355 1.89209 0
M  V30 6214 C 591.179 -5.10735 1.54873 0
M  V30 6215 O 591.402 -5.68602 0.452546 0
M  V30 6216 O 590.336 -5.52632 2.38499 0
M  V30 6217 H 594.162 -2.23571 2.05547 0
M  V30 6218 H 591.747 -1.05428 1.05855 0
M  V30 6219 H 593.629 -4.17711 0.556396 0
M  V30 6220 H 592.304 -3.23218 -0.176582 0
M  V30 6221 H 591.211 -3.07182 2.13518 0
M  V30 6222 H 592.544 -4.05277 2.79305 0
M  V30 6223 N 594.196 -1.08629 -1.14182 0
M  V30 6224 C 595.445 -0.812271 -1.84621 0
M  V30 6225 C 595.758 0.664313 -1.83973 0
M  V30 6226 O 596.964 1.05357 -2.50224 0
M  V30 6227 C 595.42 -1.4031 -3.31423 0
M  V30 6228 C 595.028 -2.91164 -3.40481 0
M  V30 6229 C 596.772 -1.20767 -4.06959 0
M  V30 6230 C 594.679 -3.43373 -4.81507 0
M  V30 6231 H 593.609 -0.30019 -0.691666 0
M  V30 6232 H 596.26 -1.30798 -1.28701 0
M  V30 6233 H 594.642 -0.835096 -3.87094 0
M  V30 6234 H 595.816 -3.5412 -2.94848 0
M  V30 6235 H 594.131 -3.09646 -2.78403 0
M  V30 6236 H 596.728 -1.57237 -5.11058 0
M  V30 6237 H 597.071 -0.147664 -4.16038 0
M  V30 6238 H 597.604 -1.74274 -3.57594 0
M  V30 6239 H 594.343 -4.48958 -4.77616 0
M  V30 6240 H 593.863 -2.85176 -5.27669 0
M  V30 6241 H 595.542 -3.40095 -5.50404 0
M  V30 6242 N 595.674 1.31259 -0.872281 0
M  V30 6243 C 596.604 2.30929 -0.345554 0
M  V30 6244 C 597.585 1.60449 0.5648 0
M  V30 6245 O 598.77 1.8814 0.481335 0
M  V30 6246 C 595.9 3.44348 0.451823 0
M  V30 6247 C 594.854 4.26435 -0.365641 0
M  V30 6248 C 594.18 5.31785 0.557562 0
M  V30 6249 C 595.48 4.97159 -1.60095 0
M  V30 6250 H 597.174 2.75234 -1.17841 0
M  V30 6251 H 594.72 1.3232 -0.568094 0
M  V30 6252 H 596.673 4.13128 0.830854 0
M  V30 6253 H 595.397 2.98816 1.31821 0
M  V30 6254 H 594.056 3.59326 -0.726649 0
M  V30 6255 H 593.704 4.82502 1.4213 0
M  V30 6256 H 593.404 5.87598 0.0144878 0
M  V30 6257 H 594.928 6.03424 0.933387 0
M  V30 6258 H 596.342 5.58523 -1.29323 0
M  V30 6259 H 594.739 5.62779 -2.08327 0
M  V30 6260 H 595.809 4.24012 -2.35249 0
M  V30 6261 N 597.152 0.631951 1.44375 0
M  V30 6262 C 598.082 -0.0593243 2.33425 0
M  V30 6263 C 599.063 -0.833964 1.48253 0
M  V30 6264 O 600.248 -0.799682 1.76971 0
M  V30 6265 C 597.378 -1.04096 3.31333 0
M  V30 6266 C 596.332 -0.377899 4.26328 0
M  V30 6267 C 595.658 -1.4695 5.14111 0
M  V30 6268 C 596.958 0.716371 5.17364 0
M  V30 6269 H 598.652 0.684287 2.91475 0
M  V30 6270 H 596.198 0.330518 1.40156 0
M  V30 6271 H 598.151 -1.53331 3.92514 0
M  V30 6272 H 596.875 -1.81547 2.71493 0
M  V30 6273 H 595.534 0.0938054 3.6648 0
M  V30 6274 H 595.182 -2.2349 4.50623 0
M  V30 6275 H 594.882 -1.03121 5.78481 0
M  V30 6276 H 596.406 -1.96363 5.78164 0
M  V30 6277 H 597.82 0.307089 5.72477 0
M  V30 6278 H 596.217 1.07784 5.90341 0
M  V30 6279 H 597.287 1.58316 4.58327 0
M  V30 6280 N 598.631 -1.53133 0.372548 0
M  V30 6281 C 599.856 -2.0625 -0.218098 0
M  V30 6282 C 600.281 -1.24375 -1.41111 0
M  V30 6283 O 599.639 -0.264554 -1.79359 0
M  V30 6284 C 599.687 -3.55858 -0.582876 0
M  V30 6285 O 598.791 -3.76667 -1.67917 0
M  V30 6286 H 598.132 -0.663317 -0.030104 0
M  V30 6287 H 600.662 -1.97477 0.535169 0
M  V30 6288 H 600.672 -3.99007 -0.851925 0
M  V30 6289 H 599.347 -4.14892 0.289428 0
M  V30 6290 H 597.924 -3.45413 -1.40513 0
M  V30 6291 N 600.109 -0.101901 -1.5727 0
M  V30 6292 C 601.358 0.559922 -1.93772 0
M  V30 6293 C 601.671 1.68913 -0.98629 0
M  V30 6294 O 602.877 2.41256 -1.24529 0
M  V30 6295 C 601.333 1.04739 -3.44322 0
M  V30 6296 C 600.941 -0.05243 -4.47969 0
M  V30 6297 C 602.685 1.68157 -3.89774 0
M  V30 6298 C 600.592 0.450781 -5.8968 0
M  V30 6299 H 599.522 0.212931 -0.723309 0
M  V30 6300 H 602.173 -0.179001 -1.82625 0
M  V30 6301 H 600.555 1.84021 -3.50645 0
M  V30 6302 H 601.729 -0.828157 -4.53297 0
M  V30 6303 H 600.044 -0.592202 -4.12167 0
M  V30 6304 H 602.641 2.0689 -4.93052 0
M  V30 6305 H 602.984 2.55338 -3.28798 0
M  V30 6306 H 603.517 0.954453 -3.8618 0
M  V30 6307 H 600.256 -0.38458 -6.54371 0
M  V30 6308 H 599.776 1.19336 -5.87809 0
M  V30 6309 H 601.455 0.917555 -6.40461 0
M  V30 6310 N 601.587 1.56661 0.17182 0
M  V30 6311 C 602.497 1.99604 1.2327 0
M  V30 6312 C 603.513 0.907333 1.4847 0
M  V30 6313 O 604.689 1.21492 1.60629 0
M  V30 6314 C 601.754 2.34685 2.55194 0
M  V30 6315 C 600.815 3.57381 2.3786 0
M  V30 6316 C 600.048 3.90779 3.63494 0
M  V30 6317 O 600.271 3.25152 4.6865 0
M  V30 6318 O 599.205 4.84129 3.57634 0
M  V30 6319 H 603.031 2.90114 0.898192 0
M  V30 6320 H 600.616 1.44522 0.378647 0
M  V30 6321 H 602.498 2.5822 3.33017 0
M  V30 6322 H 601.173 1.47336 2.88225 0
M  V30 6323 H 600.08 3.39064 1.5807 0
M  V30 6324 H 601.413 4.45268 2.09754 0
M  V30 6325 N 603.065 -0.440357 1.51323 0
M  V30 6326 C 604.314 -1.18697 1.63076 0
M  V30 6327 C 604.627 -1.92418 0.35136 0
M  V30 6328 O 605.833 -2.69258 0.348221 0
M  V30 6329 C 604.289 -2.15849 2.87988 0
M  V30 6330 C 603.897 -1.47789 4.22921 0
M  V30 6331 C 605.641 -2.90962 3.09098 0
M  V30 6332 C 603.548 -2.43407 5.38987 0
M  V30 6333 H 602.478 -0.44676 0.607389 0
M  V30 6334 H 605.129 -0.454313 1.77787 0
M  V30 6335 H 603.511 -2.92537 2.66905 0
M  V30 6336 H 604.685 -0.7668 4.54375 0
M  V30 6337 H 603 -0.848404 4.07665 0
M  V30 6338 H 605.597 -3.62584 3.92985 0
M  V30 6339 H 605.94 -3.52133 2.22053 0
M  V30 6340 H 606.473 -2.21381 3.30507 0
M  V30 6341 H 603.212 -1.86929 6.28282 0
M  V30 6342 H 602.732 -3.12579 5.11913 0
M  V30 6343 H 604.411 -3.046 5.70813 0
M  V30 6344 N 604.543 -1.41418 -0.695603 0
M  V30 6345 C 605.954 -1.36335 -1.27552 0
M  V30 6346 C 606.305 -0.0464336 -1.96145 0
M  V30 6347 O 605.43 0.855304 -1.9878 0
M  V30 6348 C 606.025 -2.46941 -2.3196 0
M  V30 6349 C 604.584 -2.45256 -2.85529 0
M  V30 6350 C 603.731 -2.2679 -1.59566 0
M  V30 6351 H 606.682 -1.50934 -0.490362 0
M  V30 6352 H 606.703 -2.15997 -3.1325 0
M  V30 6353 H 606.215 -3.42775 -1.82008 0
M  V30 6354 H 604.316 -1.53179 -3.39657 0
M  V30 6355 H 604.429 -3.41565 -3.35961 0
M  V30 6356 H 602.793 -1.74667 -1.85374 0
M  V30 6357 H 603.576 -3.24651 -1.1161 0
M  V30 6358 N 606.021 0.929856 -1.27246 0
M  V30 6359 C 607.251 1.70895 -1.16096 0
M  V30 6360 C 607.659 1.87039 0.285122 0
M  V30 6361 O 607.002 1.38557 1.20614 0
M  V30 6362 C 607.064 3.12919 -1.7698 0
M  V30 6363 C 606.728 3.2012 -3.26148 0
M  V30 6364 C 607.725 3.02533 -4.22812 0
M  V30 6365 C 605.41 3.43148 -3.66817 0
M  V30 6366 C 607.404 3.07861 -5.58122 0
M  V30 6367 C 605.091 3.48109 -5.02258 0
M  V30 6368 C 606.089 3.30483 -5.97721 0
M  V30 6369 O 605.777 3.35175 -7.30694 0
M  V30 6370 H 605.509 0.54152 -0.404639 0
M  V30 6371 H 608.063 1.17342 -1.68582 0
M  V30 6372 H 606.293 3.67945 -1.18969 0
M  V30 6373 H 607.982 3.72787 -1.60576 0
M  V30 6374 H 608.748 2.84586 -3.92728 0
M  V30 6375 H 604.627 3.55918 -2.9299 0
M  V30 6376 H 608.171 2.94021 -6.32612 0
M  V30 6377 H 604.068 3.65579 -5.31998 0
M  V30 6378 H 604.836 3.51644 -7.39114 0
M  V30 6379 N 607.499 1.09233 1.13605 0
M  V30 6380 C 608.724 0.849067 1.89224 0
M  V30 6381 C 609.149 -0.593875 1.78479 0
M  V30 6382 O 608.507 -1.41703 1.13092 0
M  V30 6383 C 608.555 1.28642 3.36873 0
M  V30 6384 O 607.659 0.44363 4.10007 0
M  V30 6385 H 607 0.30767 0.588417 0
M  V30 6386 H 609.53 1.45595 1.43748 0
M  V30 6387 H 609.54 1.27096 3.87699 0
M  V30 6388 H 608.215 2.33729 3.44011 0
M  V30 6389 H 606.792 0.523241 3.69211 0
M  V30 6390 N 608.977 -1.30795 0.87923 0
M  V30 6391 C 610.393 -1.48981 0.57243 0
M  V30 6392 C 610.593 -1.80719 -0.891236 0
M  V30 6393 O 609.649 -1.89136 -1.67283 0
M  V30 6394 C 610.962 -2.61721 1.48063 0
M  V30 6395 C 612.51 -2.75603 1.48365 0
M  V30 6396 C 612.985 -3.91449 2.37763 0
M  V30 6397 N 614.476 -3.98751 2.35695 0
M  V30 6398 C 615.211 -4.87684 3.01583 0
M  V30 6399 N 614.707 -5.81454 3.76674 0
M  V30 6400 N 616.5 -4.81005 2.90844 0
M  V30 6401 H 608.651 -1.08465 1.82617 0
M  V30 6402 H 610.914 -0.536813 0.781368 0
M  V30 6403 H 610.62 -2.45073 2.52254 0
M  V30 6404 H 610.494 -3.58071 1.18596 0
M  V30 6405 H 612.881 -2.9166 0.44927 0
M  V30 6406 H 612.962 -1.79891 1.81859 0
M  V30 6407 H 612.606 -3.76149 3.41283 0
M  V30 6408 H 612.536 -4.86487 2.01589 0
M  V30 6409 H 615.027 -3.31668 1.81121 0
M  V30 6410 H 615.34 -6.46063 4.24054 0
M  V30 6411 H 613.685 -5.81403 3.80782 0
M  V30 6412 H 616.876 -4.06728 2.31711 0
M  V30 6413 H 617.049 -5.50107 3.42471 0
M  V30 6414 N 610.455 -0.639598 -1.44038 0
M  V30 6415 C 611.365 0.0612377 -2.3452 0
M  V30 6416 C 612.381 0.826717 -1.53106 0
M  V30 6417 O 613.557 0.777059 -1.85806 0
M  V30 6418 C 610.622 1.02492 -3.31204 0
M  V30 6419 C 609.683 0.25788 -4.28525 0
M  V30 6420 C 608.916 1.17566 -5.2059 0
M  V30 6421 O 609.139 2.41461 -5.16771 0
M  V30 6422 O 608.073 0.655407 -5.98321 0
M  V30 6423 H 611.899 -0.68318 -2.95916 0
M  V30 6424 H 609.484 -0.399784 -1.43952 0
M  V30 6425 H 611.366 1.57911 -3.90694 0
M  V30 6426 H 610.041 1.7498 -2.7233 0
M  V30 6427 H 608.948 -0.339566 -3.72556 0
M  V30 6428 H 610.281 -0.427154 -4.90343 0
M  V30 6429 N 611.933 1.52934 -0.380664 0
M  V30 6430 C 613.181 2.01069 0.203874 0
M  V30 6431 C 613.502 1.26922 1.4804 0
M  V30 6432 O 612.772 0.386787 1.92044 0
M  V30 6433 H 611.352 0.742882 0.0783279 0
M  V30 6434 H 614.014 1.88099 -0.510368 0
M  V30 6435 H 613.11 3.09258 0.42021 0
M  V30 6436 N 613.412 0.11024 1.57214 0
M  V30 6437 C 614.322 -0.857077 2.18383 0
M  V30 6438 C 615.338 -1.29915 1.1575 0
M  V30 6439 O 616.514 -1.36394 1.48184 0
M  V30 6440 C 613.579 -2.09264 2.76423 0
M  V30 6441 C 612.64 -1.70333 3.94063 0
M  V30 6442 C 611.873 -2.87999 4.49324 0
M  V30 6443 O 612.096 -4.0317 4.03497 0
M  V30 6444 O 611.03 -2.6559 5.40135 0
M  V30 6445 H 614.856 -0.366561 3.0148 0
M  V30 6446 H 612.441 -0.114914 1.48957 0
M  V30 6447 H 614.323 -2.81644 3.13456 0
M  V30 6448 H 612.998 -2.57339 1.96363 0
M  V30 6449 H 611.905 -0.950864 3.61814 0
M  V30 6450 H 613.238 -1.27007 4.75531 0
M  V30 6451 N 614.89 -1.56749 -0.16351 0
M  V30 6452 C 616.12 -1.86307 -0.892936 0
M  V30 6453 C 616.528 -0.6945 -1.75992 0
M  V30 6454 O 615.871 0.345384 -1.80424 0
M  V30 6455 C 615.933 -3.10372 -1.81409 0
M  V30 6456 C 615.597 -4.42913 -1.12593 0
M  V30 6457 C 616.594 -5.17608 -0.487661 0
M  V30 6458 C 614.279 -4.89646 -1.12035 0
M  V30 6459 C 616.273 -6.3723 0.14699 0
M  V30 6460 C 613.96 -6.09197 -0.481883 0
M  V30 6461 C 614.958 -6.82834 0.150678 0
M  V30 6462 O 614.646 -8.00116 0.779065 0
M  V30 6463 H 614.378 -0.622126 -0.264452 0
M  V30 6464 H 616.932 -2.04728 -0.166063 0
M  V30 6465 H 615.162 -2.87917 -2.58148 0
M  V30 6466 H 616.851 -3.26312 -2.41403 0
M  V30 6467 H 617.617 -4.8258 -0.483888 0
M  V30 6468 H 613.496 -4.32265 -1.60212 0
M  V30 6469 H 617.04 -6.94646 0.641325 0
M  V30 6470 H 612.937 -6.43688 -0.483266 0
M  V30 6471 H 613.705 -8.15678 0.679089 0
M  V30 6472 N 616.368 0.432326 -1.51554 0
M  V30 6473 C 617.615 1.18134 -1.64471 0
M  V30 6474 C 617.943 1.91076 -0.363349 0
M  V30 6475 O 617.198 1.84492 0.65279 0
M  V30 6476 C 617.497 2.21907 -2.80164 0
M  V30 6477 C 617.163 1.65941 -4.19255 0
M  V30 6478 C 615.825 1.50401 -4.57092 0
M  V30 6479 C 618.177 1.24843 -5.06027 0
M  V30 6480 C 615.505 0.922443 -5.79403 0
M  V30 6481 C 617.857 0.68113 -6.28922 0
M  V30 6482 C 616.521 0.512673 -6.65528 0
M  V30 6483 H 615.791 0.432283 -0.601841 0
M  V30 6484 H 618.438 0.471701 -1.856 0
M  V30 6485 H 616.743 2.98928 -2.53277 0
M  V30 6486 H 618.44 2.79691 -2.87357 0
M  V30 6487 H 615.03 1.79014 -3.89425 0
M  V30 6488 H 619.214 1.35667 -4.77397 0
M  V30 6489 H 614.47 0.779733 -6.06408 0
M  V30 6490 H 618.644 0.35418 -6.95499 0
M  V30 6491 H 616.271 0.0599084 -7.60176 0
M  V30 6492 N 617.846 1.41785 0.688094 0
M  V30 6493 C 619.071 1.45117 1.48175 0
M  V30 6494 C 619.496 0.060129 1.88004 0
M  V30 6495 O 618.854 -0.938385 1.55126 0
M  V30 6496 C 618.902 2.37224 2.71583 0
M  V30 6497 O 618.006 1.83443 3.69354 0
M  V30 6498 H 617.347 0.492208 0.445676 0
M  V30 6499 H 619.877 1.86329 0.845145 0
M  V30 6500 H 619.887 2.53353 3.19806 0
M  V30 6501 H 618.562 3.38293 2.41931 0
M  V30 6502 H 617.139 1.76802 3.28322 0
M  V30 6503 N 619.324 -0.923095 1.27737 0
M  V30 6504 C 620.287 -2.00587 1.10894 0
M  V30 6505 C 621.287 -1.60718 0.0514927 0
M  V30 6506 O 622.477 -1.71658 0.296481 0
M  V30 6507 C 619.609 -3.33829 0.690717 0
M  V30 6508 H 620.802 -2.16959 2.07048 0
M  V30 6509 H 618.355 -1.10451 1.1059 0
M  V30 6510 H 619.09 -3.23157 -0.272 0
M  V30 6511 H 618.875 -3.64125 1.45448 0
M  V30 6512 H 620.365 -4.13336 0.595252 0
M  V30 6513 N 620.802 -1.09834 -1.13024 0
M  V30 6514 C 622.049 -0.83695 -1.84395 0
M  V30 6515 C 622.377 0.637463 -1.83757 0
M  V30 6516 O 621.632 1.48554 -1.27398 0
M  V30 6517 C 621.931 -1.32263 -3.32026 0
M  V30 6518 C 621.597 -2.80739 -3.52841 0
M  V30 6519 C 620.259 -3.21286 -3.5823 0
M  V30 6520 C 622.611 -3.76449 -3.60466 0
M  V30 6521 C 619.939 -4.56308 -3.68781 0
M  V30 6522 C 622.291 -5.11266 -3.72546 0
M  V30 6523 C 620.955 -5.51397 -3.76189 0
M  V30 6524 H 620.225 -0.306262 -0.674748 0
M  V30 6525 H 622.872 -1.37385 -1.33408 0
M  V30 6526 H 621.177 -0.705618 -3.85394 0
M  V30 6527 H 622.874 -1.09695 -3.85705 0
M  V30 6528 H 619.464 -2.48363 -3.49305 0
M  V30 6529 H 623.648 -3.46234 -3.55578 0
M  V30 6530 H 618.904 -4.86832 -3.69871 0
M  V30 6531 H 623.078 -5.85279 -3.77388 0
M  V30 6532 H 620.705 -6.56017 -3.84117 0
M  V30 6533 N 622.28 1.30327 -0.886154 0
M  V30 6534 C 623.227 2.28099 -0.352069 0
M  V30 6535 C 624.197 1.56433 0.558397 0
M  V30 6536 O 625.382 1.84492 0.486561 0
M  V30 6537 C 622.522 3.42456 0.426346 0
M  V30 6538 C 621.635 4.28938 -0.513472 0
M  V30 6539 C 620.77 5.30458 0.280657 0
M  V30 6540 C 619.809 6.0859 -0.654556 0
M  V30 6541 N 618.946 7.02022 0.104322 0
M  V30 6542 H 623.786 2.73166 -1.19097 0
M  V30 6543 H 621.323 1.34367 -0.598662 0
M  V30 6544 H 623.281 4.07518 0.893587 0
M  V30 6545 H 621.911 2.98455 1.22981 0
M  V30 6546 H 620.963 3.64173 -1.09921 0
M  V30 6547 H 622.275 4.83399 -1.2299 0
M  V30 6548 H 621.429 6.01273 0.8097 0
M  V30 6549 H 620.168 4.76693 1.03029 0
M  V30 6550 H 619.173 5.36651 -1.19522 0
M  V30 6551 H 620.398 6.64443 -1.4033 0
M  V30 6552 H 618.344 6.50645 0.836472 0
M  V30 6553 H 618.261 7.53979 -0.552453 0
M  V30 6554 H 619.529 7.77077 0.614069 0
M  V30 6555 N 623.758 0.647228 1.43697 0
M  V30 6556 C 624.69 -0.0866232 2.29036 0
M  V30 6557 C 625.703 -0.793051 1.42178 0
M  V30 6558 O 626.892 -0.651807 1.66174 0
M  V30 6559 C 623.992 -1.14552 3.18953 0
M  V30 6560 C 623.165 -0.518422 4.34317 0
M  V30 6561 C 622.224 -1.4734 5.05151 0
M  V30 6562 O 621.25 -0.984312 5.60625 0
M  V30 6563 N 622.452 -2.8075 5.08094 0
M  V30 6564 H 625.217 0.645834 2.92659 0
M  V30 6565 H 622.778 0.489567 1.54321 0
M  V30 6566 H 624.77 -1.78505 3.63205 0
M  V30 6567 H 623.34 -1.78001 2.56971 0
M  V30 6568 H 622.56 0.300079 3.93056 0
M  V30 6569 H 623.848 -0.080401 5.08736 0
M  V30 6570 H 623.246 -3.23052 4.64386 0
M  V30 6571 H 621.803 -3.40022 5.56083 0
M  V30 6572 N 625.236 -1.5273 0.388769 0
M  V30 6573 C 626.199 -2.25043 -0.434544 0
M  V30 6574 C 627.199 -1.26661 -0.990644 0
M  V30 6575 O 628.389 -1.50762 -0.872731 0
M  V30 6576 C 625.521 -3.00507 -1.60961 0
M  V30 6577 H 626.714 -2.99242 0.198549 0
M  V30 6578 H 624.267 -1.55664 0.140875 0
M  V30 6579 H 625.002 -2.30607 -2.28015 0
M  V30 6580 H 624.787 -3.72716 -1.21757 0
M  V30 6581 H 626.277 -3.55413 -2.19251 0
M  V30 6582 N 626.714 -0.118576 -1.57153 0
M  V30 6583 C 627.939 0.550582 -1.99958 0
M  V30 6584 C 628.364 1.59458 -0.997736 0
M  V30 6585 O 627.722 1.81274 0.0306269 0
M  V30 6586 C 627.77 1.15379 -3.41643 0
M  V30 6587 O 626.874 2.26932 -3.44348 0
M  V30 6588 H 626.215 0.137567 -0.649593 0
M  V30 6589 H 628.745 -0.206926 -2.03551 0
M  V30 6590 H 628.755 1.48942 -3.79843 0
M  V30 6591 H 627.43 0.389087 -4.14076 0
M  V30 6592 H 626.007 1.94812 -3.17967 0
M  V30 6593 N 628.193 1.56834 0.155195 0
M  V30 6594 C 629.609 1.51315 0.50755 0
M  V30 6595 C 629.809 0.825614 1.83809 0
M  V30 6596 O 628.865 0.39271 2.49427 0
M  V30 6597 C 630.178 2.96074 0.52542 0
M  V30 6598 C 631.726 3.06968 0.611505 0
M  V30 6599 C 632.201 4.53218 0.660115 0
M  V30 6600 N 633.692 4.5753 0.722564 0
M  V30 6601 C 634.427 5.68056 0.781023 0
M  V30 6602 N 633.923 6.88173 0.799327 0
M  V30 6603 N 635.716 5.56068 0.821278 0
M  V30 6604 H 627.867 1.9993 -0.717063 0
M  V30 6605 H 630.13 0.911507 -0.260496 0
M  V30 6606 H 629.836 3.49599 -0.383875 0
M  V30 6607 H 629.71 3.51587 1.36624 0
M  V30 6608 H 632.097 2.53468 1.51122 0
M  V30 6609 H 632.178 2.54513 -0.256306 0
M  V30 6610 H 631.822 5.07354 -0.23541 0
M  V30 6611 H 631.752 5.03447 1.5443 0
M  V30 6612 H 634.243 3.71054 0.716049 0
M  V30 6613 H 634.556 7.6816 0.845553 0
M  V30 6614 H 632.901 6.90751 0.767337 0
M  V30 6615 H 636.092 4.61142 0.804091 0
M  V30 6616 H 636.265 6.42223 0.863372 0
M  V30 6617 N 629.671 -0.424282 1.51781 0
M  V30 6618 C 631.087 -0.761768 1.40247 0
M  V30 6619 C 631.287 -1.95324 0.495041 0
M  V30 6620 O 630.343 -2.5246 -0.0448949 0
M  V30 6621 C 631.656 -1.0299 2.82513 0
M  V30 6622 C 633.204 -1.13354 2.91753 0
M  V30 6623 C 633.679 -1.43453 4.34954 0
M  V30 6624 N 635.17 -1.5035 4.3812 0
M  V30 6625 C 635.905 -1.75236 5.45967 0
M  V30 6626 N 635.401 -1.97827 6.63955 0
M  V30 6627 N 637.194 -1.77126 5.33463 0
M  V30 6628 H 629.345 0.360228 2.09323 0
M  V30 6629 H 631.608 0.0988128 0.942836 0
M  V30 6630 H 631.314 -0.226961 3.50967 0
M  V30 6631 H 631.188 -1.95411 3.22637 0
M  V30 6632 H 633.575 -1.92709 2.23489 0
M  V30 6633 H 633.656 -0.188041 2.55108 0
M  V30 6634 H 633.3 -0.646209 5.03772 0
M  V30 6635 H 633.23 -2.3923 4.69123 0
M  V30 6636 H 635.721 -1.34742 3.53062 0
M  V30 6637 H 636.034 -2.16223 7.41935 0
M  V30 6638 H 634.379 -1.95123 6.67047 0
M  V30 6639 H 637.57 -1.59005 4.40267 0
M  V30 6640 H 637.743 -1.96182 6.17589 0
M  V30 6641 N 631.149 -1.42148 -0.680565 0
M  V30 6642 C 632.059 -1.47565 -1.82378 0
M  V30 6643 C 633.075 -0.36489 -1.70131 0
M  V30 6644 O 634.251 -0.614916 -1.91783 0
M  V30 6645 C 631.316 -1.37013 -3.18478 0
M  V30 6646 C 630.377 -2.58532 -3.42724 0
M  V30 6647 C 629.61 -2.48473 -4.72331 0
M  V30 6648 O 629.833 -1.51745 -5.49845 0
M  V30 6649 O 628.767 -3.38503 -4.97694 0
M  V30 6650 H 632.593 -2.44045 -1.80764 0
M  V30 6651 H 630.178 -1.23849 -0.835569 0
M  V30 6652 H 632.06 -1.33468 -3.99705 0
M  V30 6653 H 630.735 -0.436552 -3.20743 0
M  V30 6654 H 629.642 -2.67652 -2.61368 0
M  V30 6655 H 630.975 -3.50769 -3.45286 0
M  V30 6656 N 632.627 0.916307 -1.28225 0
M  V30 6657 C 633.904 1.64429 -1.05936 0
M  V30 6658 C 634.284 2.07234 0.402139 0
M  V30 6659 O 633.632 1.81535 1.3877 0
M  V30 6660 C 633.842 2.83773 -2.03159 0
M  V30 6661 C 635.19 3.54852 -2.33164 0
M  V30 6662 O 636.214 2.93918 -2.01223 0
M  V30 6663 O 635.073 4.64663 -2.87664 0
M  V30 6664 H 632.167 0.721221 -0.404683 0
M  V30 6665 H 634.713 0.965838 -1.39534 0
M  V30 6666 H 633.485 2.49217 -3.01673 0
M  V30 6667 H 633.108 3.59333 -1.70192 0
M  V30 6668 N 634.105 1.10431 1.1244 0
M  V30 6669 C 635.382 0.758797 1.80282 0
M  V30 6670 C 635.762 -0.754727 1.97147 0
M  V30 6671 O 635.11 -1.68094 1.54779 0
M  V30 6672 C 635.32 1.50982 3.14651 0
M  V30 6673 C 636.668 1.68232 3.8985 0
M  V30 6674 O 637.692 1.47319 3.24308 0
M  V30 6675 O 636.551 2.02905 5.07437 0
M  V30 6676 H 633.645 0.273756 0.780376 0
M  V30 6677 H 636.191 1.20713 1.19275 0
M  V30 6678 H 634.963 2.53989 2.97666 0
M  V30 6679 H 634.586 1.05435 3.83366 0
M  V30 6680 N 635.583 -1.29855 0.893053 0
M  V30 6681 C 636.832 -1.95104 0.511597 0
M  V30 6682 C 637.145 -1.71226 -0.945567 0
M  V30 6683 O 638.351 -2.30525 -1.43424 0
M  V30 6684 C 636.807 -3.49374 0.864034 0
M  V30 6685 C 636.415 -3.82061 2.33952 0
M  V30 6686 C 638.159 -4.20894 0.552167 0
M  V30 6687 C 636.066 -5.29546 2.63316 0
M  V30 6688 H 634.996 -0.73029 0.187597 0
M  V30 6689 H 637.647 -1.47682 1.08914 0
M  V30 6690 H 636.029 -3.95413 0.215493 0
M  V30 6691 H 637.203 -3.46904 3.03305 0
M  V30 6692 H 635.518 -3.23665 2.61973 0
M  V30 6693 H 638.115 -5.29435 0.748489 0
M  V30 6694 H 638.458 -4.13178 -0.508924 0
M  V30 6695 H 638.991 -3.80564 1.15825 0
M  V30 6696 H 635.73 -5.4232 3.68197 0
M  V30 6697 H 635.25 -5.65974 1.9858 0
M  V30 6698 H 636.929 -5.97068 2.49236 0
M  V30 6699 N 637.061 -0.65484 -1.43351 0
M  V30 6700 C 638.024 0.0263562 -2.29185 0
M  V30 6701 C 639.024 0.748951 -1.42293 0
M  V30 6702 O 640.214 0.589957 -1.63906 0
M  V30 6703 C 637.346 1.04806 -3.2439 0
M  V30 6704 H 638.539 -0.728883 -2.90908 0
M  V30 6705 H 636.092 -0.416149 -1.50658 0
M  V30 6706 H 636.827 1.83247 -2.67565 0
M  V30 6707 H 636.612 0.533554 -3.88453 0
M  V30 6708 H 638.102 1.52372 -3.88809 0
M  V30 6709 N 638.539 1.52521 -0.396863 0
M  V30 6710 C 639.486 2.26671 0.434624 0
M  V30 6711 C 640.456 1.28584 1.05144 0
M  V30 6712 O 641.641 1.57426 1.07804 0
M  V30 6713 C 638.781 3.08234 1.55196 0
M  V30 6714 C 637.894 4.21261 0.957262 0
M  V30 6715 C 637.029 4.90205 2.04627 0
M  V30 6716 C 636.068 5.95213 1.42787 0
M  V30 6717 N 635.205 6.57723 2.45651 0
M  V30 6718 H 640.045 2.973 -0.204139 0
M  V30 6719 H 637.582 1.46669 -0.112505 0
M  V30 6720 H 639.54 3.53819 2.2106 0
M  V30 6721 H 638.17 2.398 2.16092 0
M  V30 6722 H 637.222 3.79935 0.188005 0
M  V30 6723 H 638.534 4.96624 0.465416 0
M  V30 6724 H 637.688 5.39133 2.78246 0
M  V30 6725 H 636.427 4.14383 2.57174 0
M  V30 6726 H 635.432 5.45616 0.676968 0
M  V30 6727 H 636.657 6.72972 0.910255 0
M  V30 6728 H 634.603 5.84737 2.97353 0
M  V30 6729 H 634.52 7.28723 2.01243 0
M  V30 6730 H 635.788 7.11293 3.18876 0
M  V30 6731 N 640.017 0.126909 1.57088 0
M  V30 6732 C 641.263 -0.529952 1.95753 0
M  V30 6733 C 641.596 -1.65823 1.01077 0
M  V30 6734 O 640.871 -1.94437 0.0494162 0
M  V30 6735 C 641.154 -1.05517 3.44294 0
M  V30 6736 C 641.007 0.0702253 4.49745 0
M  V30 6737 C 642.326 -1.9435 3.94862 0
M  V30 6738 H 639.445 -0.191168 0.711775 0
M  V30 6739 H 642.087 0.204071 1.88901 0
M  V30 6740 H 640.237 -1.68069 3.50264 0
M  V30 6741 H 641.909 0.705834 4.55868 0
M  V30 6742 H 640.152 0.732259 4.27575 0
M  V30 6743 H 640.823 -0.338642 5.5096 0
M  V30 6744 H 643.299 -1.41658 3.91244 0
M  V30 6745 H 642.175 -2.28015 4.993 0
M  V30 6746 H 642.436 -2.87299 3.36024 0
M  V30 6747 N 641.495 -1.56914 -0.146875 0
M  V30 6748 C 642.723 -1.87515 -0.874394 0
M  V30 6749 C 643.138 -0.715116 -1.74733 0
M  V30 6750 O 642.495 0.315113 -1.79759 0
M  V30 6751 C 642.546 -3.17362 -1.731 0
M  V30 6752 O 642.267 -4.28897 -0.893245 0
M  V30 6753 C 643.768 -3.61479 -2.56609 0
M  V30 6754 H 640.988 -0.621546 -0.252827 0
M  V30 6755 H 643.532 -2.04023 -0.139627 0
M  V30 6756 H 641.687 -3.02608 -2.41883 0
M  V30 6757 H 642.101 -5.03146 -1.48137 0
M  V30 6758 H 643.575 -4.5517 -3.12289 0
M  V30 6759 H 644.052 -2.86773 -3.32653 0
M  V30 6760 H 644.658 -3.78927 -1.93117 0
M  V30 6761 N 642.974 0.416227 -1.52004 0
M  V30 6762 C 644.199 1.19029 -1.69843 0
M  V30 6763 C 644.624 1.83708 -0.404103 0
M  V30 6764 O 643.982 1.69711 0.637787 0
M  V30 6765 C 644.03 2.23439 -2.83032 0
M  V30 6766 O 643.134 3.29419 -2.48106 0
M  V30 6767 H 642.475 0.347785 -0.565634 0
M  V30 6768 H 645.005 0.488871 -1.98674 0
M  V30 6769 H 645.015 2.67884 -3.07737 0
M  V30 6770 H 643.69 1.75745 -3.76944 0
M  V30 6771 H 642.267 2.90303 -2.34048 0
M  V30 6772 N 644.452 1.42507 0.673017 0
M  V30 6773 C 645.7 1.42789 1.43023 0
M  V30 6774 C 646.021 0.0459738 1.94946 0
M  V30 6775 O 645.291 -0.915765 1.73178 0
M  V30 6776 H 643.871 0.525657 0.530748 0
M  V30 6777 H 646.533 1.77944 0.795113 0
M  V30 6778 H 645.629 2.12872 2.28237 0
M  V30 6779 N 645.93 -0.909495 1.28709 0
M  V30 6780 C 646.863 -2.01388 1.07323 0
M  V30 6781 C 647.841 -1.62596 -0.0119757 0
M  V30 6782 O 649.025 -1.88003 0.136796 0
M  V30 6783 C 646.152 -3.32755 0.631797 0
M  V30 6784 C 645.198 -3.90532 1.71428 0
M  V30 6785 S 646.031 -4.20853 3.31124 0
M  V30 6786 C 647.187 -5.55276 2.88825 0
M  V30 6787 H 647.42 -2.19219 2.00824 0
M  V30 6788 H 644.953 -1.05489 1.12745 0
M  V30 6789 H 646.911 -4.08702 0.38381 0
M  V30 6790 H 645.572 -3.12818 -0.283451 0
M  V30 6791 H 644.765 -4.85385 1.35712 0
M  V30 6792 H 644.367 -3.21237 1.91528 0
M  V30 6793 H 646.659 -6.35341 2.3526 0
M  V30 6794 H 647.602 -5.95907 3.82492 0
M  V30 6795 H 648.01 -5.16666 2.27412 0
M  V30 6796 N 647.408 -1.11026 -1.11852 0
M  V30 6797 C 648.824 -0.843294 -1.35502 0
M  V30 6798 C 649.024 0.534179 -1.9429 0
M  V30 6799 O 648.08 1.28585 -2.17307 0
M  V30 6800 C 649.393 -1.94793 -2.29077 0
M  V30 6801 C 650.941 -1.97709 -2.42652 0
M  V30 6802 C 651.416 -3.07364 -3.39546 0
M  V30 6803 N 652.907 -3.0671 -3.47107 0
M  V30 6804 C 653.642 -3.88197 -4.22008 0
M  V30 6805 N 653.138 -4.79635 -4.99922 0
M  V30 6806 N 654.931 -3.76391 -4.17476 0
M  V30 6807 H 647.082 -1.99805 -0.720538 0
M  V30 6808 H 649.345 -0.868633 -0.379711 0
M  V30 6809 H 649.051 -2.93971 -1.93065 0
M  V30 6810 H 648.925 -1.84039 -3.29256 0
M  V30 6811 H 651.312 -0.991604 -2.77941 0
M  V30 6812 H 651.393 -2.1254 -1.4234 0
M  V30 6813 H 651.037 -4.06136 -3.04985 0
M  V30 6814 H 650.967 -2.89774 -4.39703 0
M  V30 6815 H 653.458 -2.40457 -2.91528 0
M  V30 6816 H 653.771 -5.38357 -5.54429 0
M  V30 6817 H 652.116 -4.8366 -4.99097 0
M  V30 6818 H 655.307 -3.04303 -3.55693 0
M  V30 6819 H 655.48 -4.40131 -4.75593 0
M  V30 6820 N 648.886 1.2938 -0.899927 0
M  V30 6821 C 650.132 1.9584 -0.526742 0
M  V30 6822 C 650.465 1.70774 0.924651 0
M  V30 6823 O 649.74 1.02084 1.65557 0
M  V30 6824 C 650.023 3.50638 -0.820062 0
M  V30 6825 C 649.876 3.85161 -2.32317 0
M  V30 6826 C 651.195 4.3903 -0.30671 0
M  V30 6827 H 648.314 0.711322 -0.192848 0
M  V30 6828 H 650.956 1.52992 -1.12665 0
M  V30 6829 H 649.106 3.87265 -0.309491 0
M  V30 6830 H 650.778 3.58477 -2.9033 0
M  V30 6831 H 649.021 3.32696 -2.78381 0
M  V30 6832 H 649.692 4.93204 -2.47898 0
M  V30 6833 H 652.168 4.09396 -0.743908 0
M  V30 6834 H 651.044 5.46226 -0.541144 0
M  V30 6835 H 651.305 4.34937 0.792588 0
M  V30 6836 N 650.364 0.662433 1.43002 0
M  V30 6837 C 651.294 -0.00979809 2.33498 0
M  V30 6838 C 652.275 -0.802329 1.49989 0
M  V30 6839 O 653.46 -0.761964 1.78627 0
M  V30 6840 C 650.59 -0.970446 3.33466 0
M  V30 6841 C 649.544 -0.287383 4.27034 0
M  V30 6842 C 648.87 -1.36012 5.17112 0
M  V30 6843 C 650.17 0.82595 5.15728 0
M  V30 6844 H 651.864 0.745959 2.89958 0
M  V30 6845 H 649.41 0.360172 1.39423 0
M  V30 6846 H 651.363 -1.44971 3.95679 0
M  V30 6847 H 650.087 -1.75748 2.75282 0
M  V30 6848 H 648.746 0.17152 3.66199 0
M  V30 6849 H 648.394 -2.13882 4.55262 0
M  V30 6850 H 648.094 -0.908276 5.80538 0
M  V30 6851 H 649.618 -1.84056 5.82199 0
M  V30 6852 H 651.032 0.42845 5.71697 0
M  V30 6853 H 649.429 1.20282 5.87922 0
M  V30 6854 H 650.499 1.68003 4.54866 0
M  V30 6855 N 651.842 -1.52309 0.404946 0
M  V30 6856 C 653.089 -2.01767 -0.1722 0
M  V30 6857 C 653.417 -1.29075 -1.45498 0
M  V30 6858 O 652.672 -0.3843 -1.9189 0
M  V30 6859 C 652.971 -3.54284 -0.470895 0
M  V30 6860 C 652.637 -4.45079 0.722194 0
M  V30 6861 C 651.299 -4.69617 1.04946 0
M  V30 6862 C 653.651 -4.98555 1.51962 0
M  V30 6863 C 650.979 -5.44878 2.17543 0
M  V30 6864 C 653.331 -5.75049 2.63632 0
M  V30 6865 C 651.995 -5.9786 2.9685 0
M  V30 6866 H 651.265 -0.738316 -0.0630125 0
M  V30 6867 H 653.912 -1.83566 0.545506 0
M  V30 6868 H 652.217 -3.70642 -1.27012 0
M  V30 6869 H 653.914 -3.90058 -0.930346 0
M  V30 6870 H 650.504 -4.26155 0.457131 0
M  V30 6871 H 654.688 -4.79509 1.28002 0
M  V30 6872 H 649.944 -5.60762 2.43631 0
M  V30 6873 H 654.118 -6.15483 3.25813 0
M  V30 6874 H 651.745 -6.5596 3.84215 0
M  V30 6875 N 653.32 -0.135238 -1.57019 0
M  V30 6876 C 654.267 0.808908 -2.1616 0
M  V30 6877 C 655.237 1.25234 -1.09113 0
M  V30 6878 O 656.422 1.32697 -1.37099 0
M  V30 6879 C 653.562 2.04729 -2.77813 0
M  V30 6880 C 652.675 1.65074 -3.99218 0
M  V30 6881 C 651.81 2.84002 -4.48906 0
M  V30 6882 C 650.849 2.40663 -5.62803 0
M  V30 6883 N 649.986 3.5256 -6.07162 0
M  V30 6884 H 654.826 0.297751 -2.96509 0
M  V30 6885 H 652.363 0.135264 -1.46477 0
M  V30 6886 H 654.321 2.7731 -3.11697 0
M  V30 6887 H 652.951 2.53275 -2.00128 0
M  V30 6888 H 652.003 0.823029 -3.7139 0
M  V30 6889 H 653.315 1.29236 -4.81767 0
M  V30 6890 H 652.469 3.64788 -4.84783 0
M  V30 6891 H 651.208 3.23076 -3.65339 0
M  V30 6892 H 650.213 1.58314 -5.26514 0
M  V30 6893 H 651.438 2.02687 -6.48147 0
M  V30 6894 H 649.384 3.91278 -5.26534 0
M  V30 6895 H 649.301 3.20699 -6.84608 0
M  V30 6896 H 650.569 4.33738 -6.47682 0
M  V30 6897 N 654.798 1.5699 0.138552 0
M  V30 6898 C 656.209 1.73171 0.697754 0
M  V30 6899 C 656.56 0.750952 1.8126 0
M  V30 6900 O 655.685 -0.080549 2.1625 0
M  V30 6901 C 656.28 3.13996 1.27248 0
M  V30 6902 C 654.839 3.3175 1.77816 0
M  V30 6903 C 653.986 2.69084 0.669991 0
M  V30 6904 H 656.937 1.5846 -0.0871979 0
M  V30 6905 H 656.958 3.14463 2.14227 0
M  V30 6906 H 656.47 3.85354 0.460855 0
M  V30 6907 H 654.571 2.65403 2.61519 0
M  V30 6908 H 654.684 4.39768 1.90107 0
M  V30 6909 H 653.048 2.29782 1.09874 0
M  V30 6910 H 653.831 3.43053 -0.130329 0
M  V30 6911 N 656.276 -0.40816 1.52223 0
M  V30 6912 C 657.524 -1.15274 1.66001 0
M  V30 6913 C 657.845 -1.91003 0.392803 0
M  V30 6914 O 657.115 -1.8673 -0.592336 0
M  V30 6915 H 655.695 -0.428526 0.611861 0
M  V30 6916 H 658.357 -0.46512 1.89269 0
M  V30 6917 H 657.453 -1.86628 2.50153 0
M  V30 6918 N 657.755 -1.42862 -0.66545 0
M  V30 6919 C 658.983 -1.47246 -1.45349 0
M  V30 6920 C 659.398 -0.0865944 -1.88601 0
M  V30 6921 O 658.755 0.900652 -1.58728 0
M  V30 6922 C 658.806 -2.40772 -2.6965 0
M  V30 6923 O 658.527 -3.73968 -2.2821 0
M  V30 6924 C 660.028 -2.54272 -3.63126 0
M  V30 6925 H 657.248 -0.500497 -0.446927 0
M  V30 6926 H 659.792 -1.87477 -0.816871 0
M  V30 6927 H 657.947 -2.0377 -3.29479 0
M  V30 6928 H 658.361 -4.24146 -3.08546 0
M  V30 6929 H 659.835 -3.23815 -4.47043 0
M  V30 6930 H 660.312 -1.58364 -4.09656 0
M  V30 6931 H 660.918 -2.92036 -3.09185 0
M  V30 6932 N 659.233 0.902656 -1.29189 0
M  V30 6933 C 660.461 1.68639 -1.19869 0
M  V30 6934 C 660.876 1.87254 0.241121 0
M  V30 6935 O 660.233 1.40745 1.16177 0
M  V30 6936 C 660.284 3.07251 -1.90471 0
M  V30 6937 O 660.005 2.89488 -3.28829 0
M  V30 6938 C 661.506 4.01653 -1.8759 0
M  V30 6939 H 658.726 0.526802 -0.415596 0
M  V30 6940 H 661.27 1.12901 -1.7051 0
M  V30 6941 H 659.425 3.59774 -1.43672 0
M  V30 6942 H 659.839 3.77296 -3.64346 0
M  V30 6943 H 661.313 4.96339 -2.4156 0
M  V30 6944 H 661.79 4.30881 -0.850756 0
M  V30 6945 H 662.396 3.55061 -2.34119 0
M  V30 6946 N 660.711 1.11618 1.11262 0
M  V30 6947 C 661.621 0.78898 2.20935 0
M  V30 6948 C 662.637 -0.21867 1.7262 0
M  V30 6949 O 663.813 -0.0543826 2.01327 0
M  V30 6950 C 660.878 0.239014 3.45875 0
M  V30 6951 C 659.939 1.3055 4.08968 0
M  V30 6952 C 659.172 0.781687 5.27944 0
M  V30 6953 O 659.395 -0.387605 5.69082 0
M  V30 6954 O 658.329 1.54734 5.81671 0
M  V30 6955 H 662.155 1.70477 2.51339 0
M  V30 6956 H 659.74 0.892203 1.19834 0
M  V30 6957 H 661.622 -0.0632312 4.21353 0
M  V30 6958 H 660.297 -0.649454 3.17118 0
M  V30 6959 H 659.204 1.66079 3.35214 0
M  V30 6960 H 660.537 2.16743 4.41909 0
M  V30 6961 N 662.189 -1.289 0.906776 0
M  V30 6962 C 663.435 -1.95558 0.53712 0
M  V30 6963 C 663.768 -1.71262 -0.915582 0
M  V30 6964 O 663.043 -1.02961 -1.65013 0
M  V30 6965 C 663.326 -3.50198 0.838645 0
M  V30 6966 C 663.179 -3.83923 2.34357 0
M  V30 6967 C 664.498 -4.38861 0.329988 0
M  V30 6968 H 661.617 -0.710289 0.196617 0
M  V30 6969 H 664.259 -1.52392 1.13475 0
M  V30 6970 H 662.409 -3.87096 0.330024 0
M  V30 6971 H 664.081 -3.56933 2.92227 0
M  V30 6972 H 662.324 -3.31215 2.80141 0
M  V30 6973 H 662.995 -4.91883 2.5051 0
M  V30 6974 H 665.471 -4.08996 0.765609 0
M  V30 6975 H 664.347 -5.45931 0.570105 0
M  V30 6976 H 664.608 -4.35352 -0.769511 0
M  V30 6977 N 663.667 -0.670007 -1.42649 0
M  V30 6978 C 664.599 0.0501746 -2.29145 0
M  V30 6979 C 665.612 0.770331 -1.43422 0
M  V30 6980 O 666.801 0.625288 -1.6719 0
M  V30 6981 C 663.901 1.09463 -3.20735 0
M  V30 6982 C 663.074 0.44926 -4.35087 0
M  V30 6983 C 662.133 1.39285 -5.07431 0
M  V30 6984 O 661.159 0.894997 -5.6212 0
M  V30 6985 N 662.361 2.72631 -5.12496 0
M  V30 6986 H 665.126 -0.692312 -2.91594 0
M  V30 6987 H 662.687 -0.514056 -1.53522 0
M  V30 6988 H 664.679 1.72705 -3.65999 0
M  V30 6989 H 663.249 1.73891 -2.59771 0
M  V30 6990 H 662.469 -0.362573 -3.92529 0
M  V30 6991 H 663.757 -0.000544776 -5.088 0
M  V30 6992 H 663.155 3.15623 -4.69467 0
M  V30 6993 H 661.712 3.31132 -5.61422 0
M  V30 6994 N 665.145 1.52092 -0.413018 0
M  V30 6995 C 666.055 2.30858 0.417318 0
M  V30 6996 C 667.071 1.38746 1.05003 0
M  V30 6997 O 668.247 1.71821 1.05069 0
M  V30 6998 C 665.312 3.11756 1.51687 0
M  V30 6999 C 664.373 4.19613 0.906825 0
M  V30 7000 C 663.606 4.96644 1.95399 0
M  V30 7001 O 663.829 4.7402 3.17271 0
M  V30 7002 O 662.763 5.81385 1.55805 0
M  V30 7003 H 666.589 3.02865 -0.225028 0
M  V30 7004 H 664.174 1.48358 -0.176126 0
M  V30 7005 H 666.056 3.62122 2.15512 0
M  V30 7006 H 664.731 2.42539 2.14375 0
M  V30 7007 H 663.638 3.73385 0.231183 0
M  V30 7008 H 664.971 4.91134 0.323814 0
M  V30 7009 N 666.623 0.143563 1.56945 0
M  V30 7010 C 667.553 -0.7936 2.196 0
M  V30 7011 C 668.534 -1.25955 1.14321 0
M  V30 7012 O 669.719 -1.31773 1.42651 0
M  V30 7013 C 666.849 -2.03424 2.81489 0
M  V30 7014 C 665.803 -1.70519 3.92565 0
M  V30 7015 C 665.129 -3.01817 4.41373 0
M  V30 7016 C 666.429 -0.95449 5.13504 0
M  V30 7017 H 668.123 -0.271423 2.98167 0
M  V30 7018 H 665.669 -0.12911 1.4342 0
M  V30 7019 H 667.622 -2.69463 3.23987 0
M  V30 7020 H 666.346 -2.58008 2.00248 0
M  V30 7021 H 665.005 -1.06859 3.5068 0
M  V30 7022 H 664.653 -3.54386 3.56959 0
M  V30 7023 H 664.353 -2.80565 5.16292 0
M  V30 7024 H 665.877 -3.68934 4.86539 0
M  V30 7025 H 667.291 -1.5169 5.52868 0
M  V30 7026 H 665.688 -0.842035 5.94163 0
M  V30 7027 H 666.758 0.0544033 4.84869 0
M  V30 7028 N 668.101 -1.57061 -0.130224 0
M  V30 7029 C 669.064 -1.98593 -1.14426 0
M  V30 7030 C 670.064 -0.874584 -1.34936 0
M  V30 7031 O 671.254 -1.14086 -1.31643 0
M  V30 7032 C 668.386 -2.31639 -2.50112 0
M  V30 7033 H 669.579 -2.89374 -0.787561 0
M  V30 7034 H 667.132 -1.51756 -0.374146 0
M  V30 7035 H 667.867 -1.43703 -2.90723 0
M  V30 7036 H 667.652 -3.12684 -2.36583 0
M  V30 7037 H 669.142 -2.64551 -3.23114 0
M  V30 7038 N 669.579 0.400081 -1.52437 0
M  V30 7039 C 670.509 1.4947 -1.7939 0
M  V30 7040 C 671.49 1.57383 -0.645329 0
M  V30 7041 O 672.675 1.72511 -0.891826 0
M  V30 7042 C 669.805 2.87201 -1.95276 0
M  V30 7043 C 668.759 2.94134 -3.10917 0
M  V30 7044 C 668.085 4.34207 -3.1204 0
M  V30 7045 C 669.385 2.64791 -4.50203 0
M  V30 7046 H 671.079 1.27165 -2.71052 0
M  V30 7047 H 668.625 0.610312 -1.30427 0
M  V30 7048 H 670.578 3.63772 -2.12715 0
M  V30 7049 H 669.302 3.10819 -1.00294 0
M  V30 7050 H 667.961 2.20009 -2.93243 0
M  V30 7051 H 667.609 4.54848 -2.14761 0
M  V30 7052 H 667.309 4.39768 -3.89715 0
M  V30 7053 H 668.833 5.127 -3.31619 0
M  V30 7054 H 670.247 3.31083 -4.68035 0
M  V30 7055 H 668.644 2.81717 -5.29864 0
M  V30 7056 H 669.714 1.60184 -4.57678 0
M  V30 7057 N 671.057 1.43213 0.657864 0
M  V30 7058 C 672.297 1.46083 1.42965 0
M  V30 7059 C 672.661 0.0809712 1.91829 0
M  V30 7060 O 673.862 -0.0156305 2.68795 0
M  V30 7061 C 672.133 2.47044 2.58271 0
M  V30 7062 S 673.692 2.68753 3.46868 0
M  V30 7063 H 670.51 0.517015 0.488074 0
M  V30 7064 H 673.112 1.79945 0.764213 0
M  V30 7065 H 671.816 3.46044 2.20639 0
M  V30 7066 H 671.347 2.14665 3.2967 0
M  V30 7067 H 673.362 1.98329 4.54841 0
M  V30 7068 N 672.536 -0.895792 1.29666 0
M  V30 7069 C 673.766 -1.67757 1.20586 0
M  V30 7070 C 674.174 -1.87729 -0.235432 0
M  V30 7071 O 673.517 -1.41706 -1.16898 0
M  V30 7072 C 673.579 -3.08117 1.85215 0
M  V30 7073 C 673.243 -3.1136 3.3452 0
M  V30 7074 C 674.24 -2.91217 4.30684 0
M  V30 7075 C 671.925 -3.33302 3.75786 0
M  V30 7076 C 673.919 -2.92955 5.66089 0
M  V30 7077 C 671.606 -3.3467 5.11311 0
M  V30 7078 C 672.604 -3.14519 6.06273 0
M  V30 7079 O 672.292 -3.15684 7.39323 0
M  V30 7080 H 672.024 -0.530601 0.418854 0
M  V30 7081 H 674.578 -1.12831 1.71634 0
M  V30 7082 H 672.808 -3.64661 1.28683 0
M  V30 7083 H 674.497 -3.68399 1.70403 0
M  V30 7084 H 675.263 -2.74074 4.00136 0
M  V30 7085 H 671.142 -3.48025 3.02324 0
M  V30 7086 H 674.686 -2.77145 6.40185 0
M  V30 7087 H 670.583 -3.51346 5.41504 0
M  V30 7088 H 671.351 -3.31924 7.48177 0
M  V30 7089 N 674.014 -1.12206 -1.10668 0
M  V30 7090 C 675.262 -0.874144 -1.82217 0
M  V30 7091 C 675.583 0.601736 -1.85484 0
M  V30 7092 O 674.853 1.43725 -1.33116 0
M  V30 7093 H 673.433 -0.320404 -0.674797 0
M  V30 7094 H 676.095 -1.41606 -1.33917 0
M  V30 7095 H 675.191 -1.25349 -2.85822 0
M  V30 7096 N 675.492 1.28418 -0.913599 0
M  V30 7097 C 676.74 1.94596 -0.545594 0
M  V30 7098 C 677.061 1.7227 0.913668 0
M  V30 7099 O 676.331 1.06233 1.64595 0
M  V30 7100 H 674.911 0.720065 -0.198783 0
M  V30 7101 H 677.573 1.56404 -1.16292 0
M  V30 7102 H 676.669 3.03202 -0.739911 0
M  V30 7103 N 676.97 0.677563 1.42291 0
M  V30 7104 C 677.903 -0.0492638 2.28147 0
M  V30 7105 C 678.881 -0.805936 1.41221 0
M  V30 7106 O 680.065 -0.80049 1.70659 0
M  V30 7107 C 677.192 -1.07697 3.21122 0
M  V30 7108 C 676.238 -0.41556 4.24471 0
M  V30 7109 S 677.071 0.828876 5.29046 0
M  V30 7110 C 678.227 -0.197687 6.25588 0
M  V30 7111 H 678.46 0.678965 2.89443 0
M  V30 7112 H 675.993 0.467201 1.47162 0
M  V30 7113 H 677.951 -1.66482 3.75225 0
M  V30 7114 H 676.612 -1.77766 2.58956 0
M  V30 7115 H 675.805 -1.19112 4.89723 0
M  V30 7116 H 675.407 0.0987632 3.7387 0
M  V30 7117 H 677.699 -1.05656 6.69211 0
M  V30 7118 H 678.642 0.420437 7.06851 0
M  V30 7119 H 679.05 -0.544401 5.61869 0
M  V30 7120 N 678.448 -1.51871 0.421078 0
M  V30 7121 C 679.411 -2.25914 -0.386712 0
M  V30 7122 C 680.411 -1.28733 -0.963555 0
M  V30 7123 O 681.601 -1.52579 -0.840556 0
M  V30 7124 C 678.733 -3.03853 -1.54551 0
M  V30 7125 H 679.926 -2.98754 0.261978 0
M  V30 7126 H 677.479 -1.5533 0.173862 0
M  V30 7127 H 678.214 -2.35392 -2.23072 0
M  V30 7128 H 677.999 -3.75215 -1.13824 0
M  V30 7129 H 679.489 -3.59984 -2.11663 0
M  V30 7130 N 679.926 -0.151884 -1.56866 0
M  V30 7131 C 680.874 0.80299 -2.183 0
M  V30 7132 C 681.868 1.25174 -1.14139 0
M  V30 7133 O 683.074 1.21966 -1.3238 0
M  V30 7134 H 679.449 0.277169 -0.699057 0
M  V30 7135 H 681.42 0.260699 -2.97259 0
M  V30 7136 C 680.169 2.03009 -2.82281 0
M  V30 7137 H 679.492 1.69377 -3.62148 0
M  V30 7138 H 680.932 2.67753 -3.28762 0
M  V30 7139 C 679.391 2.84123 -1.81041 0
M  V30 7140 O 679.921 3.8063 -1.28388 0
M  V30 7141 N 678.127 2.48753 -1.50234 0
M  V30 7142 H 677.674 1.70337 -1.93244 0
M  V30 7143 H 677.632 3.03316 -0.827445 0
M  V30 7144 N 681.404 1.57128 0.121893 0
M  V30 7145 C 682.82 1.52357 0.47534 0
M  V30 7146 C 683.02 0.864417 1.82017 0
M  V30 7147 O 682.076 0.445529 2.48538 0
M  V30 7148 C 683.389 2.97122 0.4625 0
M  V30 7149 C 684.937 3.08196 0.546255 0
M  V30 7150 C 685.412 4.54516 0.563833 0
M  V30 7151 N 686.903 4.58959 0.625353 0
M  V30 7152 C 687.638 5.69585 0.660354 0
M  V30 7153 N 687.134 6.89714 0.653175 0
M  V30 7154 N 688.927 5.57685 0.703143 0
M  V30 7155 H 681.078 1.98364 -0.75931 0
M  V30 7156 H 683.341 0.905777 -0.279772 0
M  V30 7157 H 683.047 3.48706 -0.457943 0
M  V30 7158 H 682.921 3.54406 1.29136 0
M  V30 7159 H 685.308 2.56617 1.45712 0
M  V30 7160 H 685.389 2.53912 -0.310234 0
M  V30 7161 H 685.033 5.06741 -0.342974 0
M  V30 7162 H 684.963 5.06609 1.43716 0
M  V30 7163 H 687.454 3.72489 0.637182 0
M  V30 7164 H 687.767 7.69781 0.682425 0
M  V30 7165 H 686.112 6.92223 0.620646 0
M  V30 7166 H 689.303 4.62744 0.706095 0
M  V30 7167 H 689.476 6.43909 0.726952 0
M  V30 7168 N 682.882 -0.391992 1.52647 0
M  V30 7169 C 684.11 -1.1586 1.71418 0
M  V30 7170 C 684.525 -1.8381 0.431216 0
M  V30 7171 O 683.882 -1.7256 -0.594085 0
M  V30 7172 C 683.933 -2.20888 2.86165 0
M  V30 7173 O 683.654 -1.5571 4.09495 0
M  V30 7174 C 685.155 -3.103 3.1659 0
M  V30 7175 H 682.375 -0.347494 0.574011 0
M  V30 7176 H 684.919 -0.458972 1.99283 0
M  V30 7177 H 683.074 -2.86492 2.6077 0
M  V30 7178 H 683.488 -2.25474 4.73563 0
M  V30 7179 H 684.962 -3.8003 4.00351 0
M  V30 7180 H 685.439 -3.73639 2.30848 0
M  V30 7181 H 686.045 -2.50345 3.43813 0
M  V30 7182 N 684.36 -1.4356 -0.65026 0
M  V30 7183 C 685.609 -1.44619 -1.406 0
M  V30 7184 C 685.922 -0.0752645 -1.95455 0
M  V30 7185 O 687.128 0.0366832 -2.71475 0
M  V30 7186 C 685.584 -2.54511 -2.54465 0
M  V30 7187 C 685.192 -3.97723 -2.06204 0
M  V30 7188 C 686.936 -2.64768 -3.31811 0
M  V30 7189 C 684.843 -4.99075 -3.17298 0
M  V30 7190 H 683.773 -0.537983 -0.52829 0
M  V30 7191 H 686.424 -1.69559 -0.701561 0
M  V30 7192 H 684.806 -2.22777 -3.27393 0
M  V30 7193 H 685.98 -4.38932 -1.40267 0
M  V30 7194 H 684.295 -3.91538 -1.41729 0
M  V30 7195 H 686.892 -3.37664 -4.14593 0
M  V30 7196 H 687.235 -1.69936 -3.80036 0
M  V30 7197 H 687.768 -2.95817 -2.65964 0
M  V30 7198 H 684.507 -5.95469 -2.74038 0
M  V30 7199 H 684.027 -4.62476 -3.81937 0
M  V30 7200 H 685.706 -5.21913 -3.82382 0
M  V30 7201 N 685.838 0.888903 -1.30139 0
M  V30 7202 C 687.063 1.67884 -1.21777 0
M  V30 7203 C 687.488 1.86848 0.216689 0
M  V30 7204 O 686.846 1.39659 1.15608 0
M  V30 7205 C 686.894 3.03483 -1.94757 0
M  V30 7206 O 685.998 3.92294 -1.27198 0
M  V30 7207 H 685.339 0.513144 -0.421402 0
M  V30 7208 H 687.869 1.10968 -1.71893 0
M  V30 7209 H 687.879 3.53553 -2.03627 0
M  V30 7210 H 686.554 2.89 -2.99085 0
M  V30 7211 H 685.131 3.50732 -1.26655 0
M  V30 7212 N 687.317 1.12792 1.10072 0
M  V30 7213 C 688.28 0.802264 2.14701 0
M  V30 7214 C 689.28 -0.18515 1.59731 0
M  V30 7215 O 690.47 0.041109 1.74151 0
M  V30 7216 C 687.602 0.19285 3.40354 0
M  V30 7217 H 688.795 1.72932 2.45019 0
M  V30 7218 H 686.348 0.931662 1.25498 0
M  V30 7219 H 687.083 -0.743748 3.15656 0
M  V30 7220 H 686.868 0.903827 3.81541 0
M  V30 7221 H 688.358 -0.0183704 4.17596 0
M  V30 7222 N 688.795 -1.27931 0.920396 0
M  V30 7223 C 689.725 -2.29487 0.431024 0
M  V30 7224 C 690.706 -1.62435 -0.504861 0
M  V30 7225 O 691.891 -1.89797 -0.411176 0
M  V30 7226 C 689.021 -3.45788 -0.323709 0
M  V30 7227 C 687.975 -4.24784 0.523658 0
M  V30 7228 C 687.301 -5.33488 -0.359809 0
M  V30 7229 C 688.601 -4.90874 1.78437 0
M  V30 7230 H 690.295 -2.70671 1.27975 0
M  V30 7231 H 687.841 -1.30121 0.616813 0
M  V30 7232 H 689.794 -4.15927 -0.676952 0
M  V30 7233 H 688.518 -3.03502 -1.2064 0
M  V30 7234 H 687.177 -3.56382 0.85951 0
M  V30 7235 H 686.825 -4.87445 -1.24124 0
M  V30 7236 H 686.525 -5.87247 0.203605 0
M  V30 7237 H 688.049 -6.06472 -0.708787 0
M  V30 7238 H 689.463 -5.53339 1.49963 0
M  V30 7239 H 687.86 -5.54659 2.29071 0
M  V30 7240 H 688.93 -4.14988 2.50824 0
M  V30 7241 N 690.273 -0.685099 -1.4193 0
M  V30 7242 C 691.22 -0.0131869 -2.30796 0
M  V30 7243 C 692.19 0.782129 -1.46533 0
M  V30 7244 O 693.375 0.75229 -1.75343 0
M  V30 7245 C 690.515 0.924768 -3.32479 0
M  V30 7246 C 689.628 0.122181 -4.31827 0
M  V30 7247 C 688.763 1.05682 -5.20581 0
M  V30 7248 C 687.802 0.246526 -6.11603 0
M  V30 7249 N 686.939 1.13442 -6.92875 0
M  V30 7250 H 691.779 -0.776789 -2.87698 0
M  V30 7251 H 689.316 -0.394791 -1.41703 0
M  V30 7252 H 691.274 1.48251 -3.89971 0
M  V30 7253 H 689.904 1.65488 -2.77152 0
M  V30 7254 H 688.956 -0.552335 -3.76369 0
M  V30 7255 H 690.268 -0.506473 -4.96222 0
M  V30 7256 H 689.422 1.68415 -5.82856 0
M  V30 7257 H 688.161 1.71935 -4.56388 0
M  V30 7258 H 687.166 -0.393944 -5.48387 0
M  V30 7259 H 688.391 -0.412053 -6.77849 0
M  V30 7260 H 686.337 1.78316 -6.313 0
M  V30 7261 H 686.254 0.561089 -7.53915 0
M  V30 7262 H 687.522 1.74889 -7.59628 0
M  V30 7263 N 691.751 1.51645 -0.429126 0
M  V30 7264 C 692.979 2.06433 0.138994 0
M  V30 7265 C 693.394 1.29735 1.37165 0
M  V30 7266 O 692.751 0.354638 1.79021 0
M  V30 7267 C 692.802 3.58439 0.469452 0
M  V30 7268 O 692.523 4.32238 -0.714273 0
M  V30 7269 C 694.024 4.29712 1.08914 0
M  V30 7270 H 691.244 0.6709 0.0115608 0
M  V30 7271 H 693.788 1.9532 -0.605843 0
M  V30 7272 H 691.943 3.69494 1.16419 0
M  V30 7273 H 692.357 5.22704 -0.433633 0
M  V30 7274 H 693.831 5.37182 1.27042 0
M  V30 7275 H 694.308 3.87473 2.06788 0
M  V30 7276 H 694.914 4.2308 0.434028 0
M  V30 7277 N 693.229 0.160201 1.56784 0
M  V30 7278 C 694.457 -0.494165 2.00912 0
M  V30 7279 C 694.872 -1.57548 1.04038 0
M  V30 7280 O 694.229 -1.82457 0.0394581 0
M  V30 7281 C 694.28 -1.08271 3.44905 0
M  V30 7282 O 694.001 -0.0445704 4.38077 0
M  V30 7283 C 695.502 -1.8164 4.04378 0
M  V30 7284 H 692.722 -0.127498 0.658776 0
M  V30 7285 H 695.266 0.258665 2.02858 0
M  V30 7286 H 693.421 -1.78609 3.4377 0
M  V30 7287 H 693.835 -0.477544 5.22322 0
M  V30 7288 H 695.309 -2.18094 5.07089 0
M  V30 7289 H 695.786 -2.70727 3.45838 0
M  V30 7290 H 696.392 -1.15969 4.09184 0
M  V30 7291 N 694.707 -1.5719 -0.113559 0
M  V30 7292 C 695.639 -1.97393 -1.16484 0
M  V30 7293 C 696.652 -0.873964 -1.37352 0
M  V30 7294 O 697.841 -1.15222 -1.36331 0
M  V30 7295 C 694.941 -2.26174 -2.52386 0
M  V30 7296 C 694.114 -3.57479 -2.52046 0
M  V30 7297 C 693.173 -3.74409 -3.69735 0
M  V30 7298 O 692.199 -4.46463 -3.53071 0
M  V30 7299 N 693.401 -3.13588 -4.88511 0
M  V30 7300 H 696.166 -2.88184 -0.822814 0
M  V30 7301 H 693.727 -1.59044 -0.302769 0
M  V30 7302 H 695.719 -2.3471 -3.29687 0
M  V30 7303 H 694.289 -1.41483 -2.7875 0
M  V30 7304 H 693.509 -3.60081 -1.60421 0
M  V30 7305 H 694.797 -4.43775 -2.48881 0
M  V30 7306 H 694.195 -2.55026 -5.04953 0
M  V30 7307 H 692.752 -3.27637 -5.63469 0
M  V30 7308 N 696.185 0.383891 -1.52853 0
M  V30 7309 C 697.601 0.724316 -1.42218 0
M  V30 7310 C 697.801 1.93943 -0.546654 0
M  V30 7311 O 696.857 2.5249 -0.0220562 0
M  V30 7312 C 698.17 0.954635 -2.85144 0
M  V30 7313 C 699.718 1.05579 -2.94656 0
M  V30 7314 C 700.193 1.3187 -4.38605 0
M  V30 7315 N 701.684 1.38681 -4.41952 0
M  V30 7316 C 702.419 1.60699 -5.50421 0
M  V30 7317 N 701.915 1.80154 -6.68967 0
M  V30 7318 N 703.708 1.6292 -5.37972 0
M  V30 7319 H 695.859 -0.4156 -2.08294 0
M  V30 7320 H 698.122 -0.123776 -0.939885 0
M  V30 7321 H 697.828 0.133829 -3.51445 0
M  V30 7322 H 697.702 1.86788 -3.27704 0
M  V30 7323 H 700.089 1.86716 -2.2852 0
M  V30 7324 H 700.17 0.120338 -2.55517 0
M  V30 7325 H 699.814 0.512416 -5.05309 0
M  V30 7326 H 699.744 2.26708 -4.75301 0
M  V30 7327 H 702.235 1.25334 -3.56511 0
M  V30 7328 H 702.548 1.96476 -7.47407 0
M  V30 7329 H 700.893 1.77368 -6.71986 0
M  V30 7330 H 704.084 1.47276 -4.44328 0
M  V30 7331 H 704.257 1.79739 -6.22574 0
M  V30 7332 N 697.663 1.43903 0.642637 0
M  V30 7333 C 698.595 1.45857 1.768 0
M  V30 7334 C 699.608 0.353358 1.58919 0
M  V30 7335 O 700.797 0.618426 1.67445 0
M  V30 7336 C 697.897 1.26583 3.14372 0
M  V30 7337 C 697.07 2.50139 3.58817 0
M  V30 7338 C 696.129 2.25933 4.75227 0
M  V30 7339 O 695.155 2.99351 4.84125 0
M  V30 7340 N 696.357 1.28263 5.66153 0
M  V30 7341 H 699.122 2.42869 1.75598 0
M  V30 7342 H 696.683 1.39194 0.826832 0
M  V30 7343 H 698.675 1.08255 3.89953 0
M  V30 7344 H 697.245 0.37978 3.10284 0
M  V30 7345 H 696.465 2.83821 2.73568 0
M  V30 7346 H 697.753 3.32344 3.8526 0
M  V30 7347 H 697.151 0.676041 5.61646 0
M  V30 7348 H 695.708 1.15916 6.4141 0
M  V30 7349 N 699.141 -0.881989 1.30609 0
M  V30 7350 C 700.071 -2.00413 1.1982 0
M  V30 7351 C 701.052 -1.69871 0.0881538 0
M  V30 7352 O 702.237 -1.92304 0.2707 0
M  V30 7353 C 699.367 -3.35641 0.89233 0
M  V30 7354 C 698.321 -3.80451 1.96064 0
M  V30 7355 C 697.647 -5.13003 1.5077 0
M  V30 7356 C 698.947 -3.98855 3.37213 0
M  V30 7357 H 700.641 -2.09698 2.13699 0
M  V30 7358 H 698.187 -1.00754 1.02882 0
M  V30 7359 H 700.14 -4.13669 0.803497 0
M  V30 7360 H 698.864 -3.26497 -0.0821381 0
M  V30 7361 H 697.523 -3.04654 2.03916 0
M  V30 7362 H 697.171 -5.0029 0.521417 0
M  V30 7363 H 696.871 -5.43956 2.22229 0
M  V30 7364 H 698.395 -5.93554 1.43271 0
M  V30 7365 H 699.809 -4.67312 3.32103 0
M  V30 7366 H 698.206 -4.41188 4.06784 0
M  V30 7367 H 699.276 -3.02614 3.78883 0
M  V30 7368 N 700.619 -1.13374 -1.09472 0
M  V30 7369 C 701.844 -0.918711 -1.85942 0
M  V30 7370 C 702.269 0.527225 -1.8056 0
M  V30 7371 O 701.627 1.37408 -1.18274 0
M  V30 7372 C 701.675 -1.41056 -3.31867 0
M  V30 7373 O 700.779 -0.595496 -4.08078 0
M  V30 7374 H 700.12 -0.329297 -0.576593 0
M  V30 7375 H 702.65 -1.50829 -1.38245 0
M  V30 7376 H 702.66 -1.41398 -3.82715 0
M  V30 7377 H 701.335 -2.46335 -3.35099 0
M  V30 7378 H 699.912 -0.659911 -3.67014 0
M  V30 7379 N 702.098 1.27442 -0.927168 0
M  V30 7380 C 703.045 2.26863 -0.424459 0
M  V30 7381 C 704.015 1.5813 0.508346 0
M  V30 7382 O 705.2 1.85946 0.42762 0
M  V30 7383 C 702.34 3.43639 0.31718 0
M  V30 7384 C 701.453 4.27087 -0.649675 0
M  V30 7385 C 700.588 5.31082 0.111753 0
M  V30 7386 C 699.627 6.062 -0.847843 0
M  V30 7387 N 698.764 7.01999 -0.119074 0
M  V30 7388 H 703.604 2.69239 -1.27728 0
M  V30 7389 H 701.141 1.32394 -0.641106 0
M  V30 7390 H 703.099 4.10155 0.763486 0
M  V30 7391 H 701.729 3.02217 1.13424 0
M  V30 7392 H 700.781 3.60491 -1.21451 0
M  V30 7393 H 702.093 4.79242 -1.38307 0
M  V30 7394 H 701.247 6.03544 0.618 0
M  V30 7395 H 699.986 4.7973 0.878114 0
M  V30 7396 H 698.991 5.32577 -1.36534 0
M  V30 7397 H 700.216 6.59642 -1.61398 0
M  V30 7398 H 698.162 6.52977 0.629051 0
M  V30 7399 H 698.079 7.5184 -0.792046 0
M  V30 7400 H 699.347 7.78638 0.366537 0
M  V30 7401 N 703.576 0.692616 1.41565 0
M  V30 7402 C 704.506 0.0397325 2.33466 0
M  V30 7403 C 705.487 -0.770334 1.51657 0
M  V30 7404 O 706.672 -0.723903 1.80203 0
M  V30 7405 C 703.802 -0.899495 3.3545 0
M  V30 7406 C 702.756 -0.196738 4.27548 0
M  V30 7407 C 702.082 -1.25012 5.19881 0
M  V30 7408 C 703.382 0.935158 5.1386 0
M  V30 7409 H 705.076 0.807296 2.88311 0
M  V30 7410 H 702.622 0.389665 1.38628 0
M  V30 7411 H 704.575 -1.36545 3.98665 0
M  V30 7412 H 703.299 -1.69869 2.78948 0
M  V30 7413 H 701.958 0.249158 3.65752 0
M  V30 7414 H 701.606 -2.04177 4.59696 0
M  V30 7415 H 701.306 -0.784931 5.82334 0
M  V30 7416 H 702.83 -1.71665 5.85972 0
M  V30 7417 H 704.244 0.549619 5.70659 0
M  V30 7418 H 702.641 1.32726 5.85238 0
M  V30 7419 H 703.711 1.77613 4.512 0
M  V30 7420 N 705.054 -1.51416 0.437162 0
M  V30 7421 C 706.3 -2.03035 -0.121818 0
M  V30 7422 C 706.655 -1.31551 -1.404 0
M  V30 7423 O 705.948 -0.421623 -1.86903 0
M  V30 7424 C 706.142 -3.55203 -0.39564 0
M  V30 7425 C 705.971 -4.4143 0.858452 0
M  V30 7426 C 704.741 -4.85751 1.39192 0
M  V30 7427 C 706.939 -4.83808 1.74454 0
M  V30 7428 N 704.921 -5.5619 2.59857 0
M  V30 7429 C 706.292 -5.53312 2.79724 0
M  V30 7430 C 708.347 -4.65795 1.75897 0
M  V30 7431 C 707.05 -6.06713 3.86383 0
M  V30 7432 C 709.076 -5.20112 2.81492 0
M  V30 7433 C 708.438 -5.89562 3.85482 0
M  V30 7434 H 704.537 -0.781981 -0.00541671 0
M  V30 7435 H 707.121 -1.85296 0.597792 0
M  V30 7436 H 705.292 -3.72958 -1.08429 0
M  V30 7437 H 707.024 -3.93489 -0.945963 0
M  V30 7438 H 703.779 -4.64058 0.945879 0
M  V30 7439 H 704.203 -5.96037 3.21044 0
M  V30 7440 H 708.845 -4.11562 0.968306 0
M  V30 7441 H 706.563 -6.6 4.66288 0
M  V30 7442 H 710.149 -5.08026 2.83551 0
M  V30 7443 H 709.029 -6.30838 4.65847 0
M  V30 7444 N 706.532 -0.168513 -1.56696 0
M  V30 7445 C 707.479 0.762875 -2.17828 0
M  V30 7446 C 708.449 1.22892 -1.11745 0
M  V30 7447 O 709.634 1.29759 -1.39883 0
M  V30 7448 C 706.774 1.9879 -2.82093 0
M  V30 7449 C 705.887 1.56568 -4.02629 0
M  V30 7450 C 705.022 2.74416 -4.54829 0
M  V30 7451 C 704.061 2.28671 -5.67782 0
M  V30 7452 N 703.198 3.39602 -6.14504 0
M  V30 7453 H 708.038 0.23479 -2.97074 0
M  V30 7454 H 705.575 0.104163 -1.46731 0
M  V30 7455 H 707.533 2.70636 -3.17509 0
M  V30 7456 H 706.163 2.48973 -2.05456 0
M  V30 7457 H 705.215 0.744067 -3.73052 0
M  V30 7458 H 706.527 1.18988 -4.844 0
M  V30 7459 H 705.681 3.54423 -4.92412 0
M  V30 7460 H 704.42 3.15254 -3.7211 0
M  V30 7461 H 703.425 1.4711 -5.29753 0
M  V30 7462 H 704.65 1.88894 -6.52301 0
M  V30 7463 H 702.596 3.80021 -5.34715 0
M  V30 7464 H 702.513 3.06105 -6.91257 0
M  V30 7465 H 703.781 4.19902 -6.56737 0
M  V30 7466 N 708.01 1.57248 0.105221 0
M  V30 7467 C 708.92 2.04653 1.14693 0
M  V30 7468 C 709.936 0.969488 1.44489 0
M  V30 7469 O 711.112 1.28196 1.55331 0
M  V30 7470 C 708.177 2.45297 2.45011 0
M  V30 7471 C 707.238 3.67148 2.22489 0
M  V30 7472 C 706.471 4.05844 3.46592 0
M  V30 7473 O 706.694 3.44736 4.54437 0
M  V30 7474 O 705.628 4.98862 3.36779 0
M  V30 7475 H 709.454 2.93663 0.774336 0
M  V30 7476 H 707.039 1.45998 0.31701 0
M  V30 7477 H 708.921 2.72112 3.21766 0
M  V30 7478 H 707.596 1.59429 2.81717 0
M  V30 7479 H 706.503 3.45463 1.43547 0
M  V30 7480 H 707.836 4.53764 1.9068 0
M  V30 7481 N 709.488 -0.375779 1.53054 0
M  V30 7482 C 710.398 -1.48381 1.81715 0
M  V30 7483 C 711.414 -1.59087 0.704795 0
M  V30 7484 O 712.59 -1.75174 0.993785 0
M  V30 7485 C 709.655 -2.83767 1.99192 0
M  V30 7486 C 708.716 -2.82673 3.23102 0
M  V30 7487 C 707.949 -4.11601 3.39736 0
M  V30 7488 O 708.172 -5.07243 2.60885 0
M  V30 7489 O 707.106 -4.18034 4.33049 0
M  V30 7490 H 710.932 -1.27089 2.7583 0
M  V30 7491 H 708.517 -0.564902 1.38308 0
M  V30 7492 H 710.399 -3.64004 2.12318 0
M  V30 7493 H 709.074 -3.05057 1.08267 0
M  V30 7494 H 707.981 -2.0117 3.15407 0
M  V30 7495 H 709.314 -2.66335 4.13916 0
M  V30 7496 N 710.966 -1.44241 -0.634997 0
M  V30 7497 C 711.896 -1.53632 -1.7584 0
M  V30 7498 C 712.877 -0.389603 -1.65578 0
M  V30 7499 O 714.062 -0.609219 -1.84397 0
M  V30 7500 C 711.192 -1.47644 -3.14354 0
M  V30 7501 C 710.146 -2.60752 -3.394 0
M  V30 7502 C 709.472 -2.39817 -4.77904 0
M  V30 7503 C 710.772 -4.02921 -3.32343 0
M  V30 7504 H 712.466 -2.47662 -1.68238 0
M  V30 7505 H 710.012 -1.19197 -0.807969 0
M  V30 7506 H 711.965 -1.52815 -3.92716 0
M  V30 7507 H 710.689 -0.501284 -3.2273 0
M  V30 7508 H 709.348 -2.54965 -2.63417 0
M  V30 7509 H 708.996 -1.40502 -4.82978 0
M  V30 7510 H 708.696 -3.15649 -4.9562 0
M  V30 7511 H 710.22 -2.46799 -5.585 0
M  V30 7512 H 711.634 -4.10098 -4.00615 0
M  V30 7513 H 710.031 -4.78925 -3.61595 0
M  V30 7514 H 711.101 -4.26766 -2.30215 0
M  V30 7515 N 712.444 0.87505 -1.31075 0
M  V30 7516 C 713.374 1.99775 -1.20881 0
M  V30 7517 C 714.355 1.69822 -0.0971612 0
M  V30 7518 O 715.54 1.92158 -0.280895 0
M  V30 7519 C 712.67 3.35163 -0.910118 0
M  V30 7520 C 711.624 3.79406 -1.98078 0
M  V30 7521 C 710.95 5.12197 -1.53488 0
M  V30 7522 C 712.25 3.97061 -3.39323 0
M  V30 7523 H 713.944 2.08562 -2.14808 0
M  V30 7524 H 711.49 1.00207 -1.03415 0
M  V30 7525 H 713.443 4.13237 -0.825423 0
M  V30 7526 H 712.167 3.26536 0.064822 0
M  V30 7527 H 710.826 3.03568 -2.05528 0
M  V30 7528 H 710.474 5.00007 -0.547941 0
M  V30 7529 H 710.174 5.4277 -2.2511 0
M  V30 7530 H 711.698 5.92785 -1.46417 0
M  V30 7531 H 713.112 4.65545 -3.34576 0
M  V30 7532 H 711.509 4.39025 -4.09118 0
M  V30 7533 H 712.579 3.00601 -3.80483 0
M  V30 7534 N 713.922 1.13953 1.08869 0
M  V30 7535 C 714.854 0.779906 2.15523 0
M  V30 7536 C 715.867 -0.20102 1.61554 0
M  V30 7537 O 717.056 0.0200049 1.78489 0
M  V30 7538 C 714.156 0.136226 3.38626 0
M  V30 7539 C 713.329 1.15069 4.21993 0
M  V30 7540 C 712.388 0.531645 5.23507 0
M  V30 7541 O 711.414 1.19327 5.56552 0
M  V30 7542 N 712.616 -0.693734 5.7634 0
M  V30 7543 H 715.381 1.69769 2.46979 0
M  V30 7544 H 712.942 1.03331 1.24637 0
M  V30 7545 H 714.934 -0.290295 4.03658 0
M  V30 7546 H 713.504 -0.684603 3.05011 0
M  V30 7547 H 712.724 1.75431 3.53012 0
M  V30 7548 H 714.012 1.83614 4.74514 0
M  V30 7549 H 713.41 -1.24994 5.51718 0
M  V30 7550 H 711.967 -1.06283 6.43076 0
M  V30 7551 N 715.4 -1.26948 0.933913 0
M  V30 7552 C 716.677 -1.89212 0.495784 0
M  V30 7553 C 717.057 -1.84469 -1.02637 0
M  V30 7554 O 716.405 -1.29409 -1.88323 0
M  V30 7555 C 716.615 -3.32865 1.0489 0
M  V30 7556 C 717.963 -4.09749 1.11315 0
M  V30 7557 O 718.987 -3.41905 0.998966 0
M  V30 7558 O 717.846 -5.31061 1.28983 0
M  V30 7559 H 714.94 -0.811284 0.160459 0
M  V30 7560 H 717.486 -1.35171 1.02601 0
M  V30 7561 H 716.258 -3.30642 2.09265 0
M  V30 7562 H 715.881 -3.94435 0.500692 0
M  V30 7563 N 716.879 -0.700114 -1.41195 0
M  V30 7564 C 718.125 -0.233351 -2.01453 0
M  V30 7565 C 718.458 1.16548 -1.55339 0
M  V30 7566 O 717.733 1.78756 -0.766575 0
M  V30 7567 C 718.016 -0.2961 -3.58881 0
M  V30 7568 C 717.869 -1.7322 -4.15108 0
M  V30 7569 C 719.188 0.341525 -4.38773 0
M  V30 7570 H 716.307 -0.0862667 -0.731934 0
M  V30 7571 H 718.949 -0.889693 -1.67882 0
M  V30 7572 H 717.099 0.262736 -3.87611 0
M  V30 7573 H 718.771 -2.34523 -3.97236 0
M  V30 7574 H 717.014 -2.2649 -3.69979 0
M  V30 7575 H 717.685 -1.7276 -5.24269 0
M  V30 7576 H 720.161 -0.134461 -4.15883 0
M  V30 7577 H 719.037 0.267098 -5.4825 0
M  V30 7578 H 719.298 1.42289 -4.18577 0
M  V30 7579 N 718.357 1.51182 -0.445186 0
M  V30 7580 C 719.597 2.04061 0.117717 0
M  V30 7581 C 719.961 1.32158 1.39278 0
M  V30 7582 O 721.162 1.75452 2.03642 0
M  V30 7583 C 719.433 3.55933 0.323445 0
M  V30 7584 S 720.992 4.30516 0.848627 0
M  V30 7585 H 717.81 0.710442 0.028165 0
M  V30 7586 H 720.412 1.85858 -0.606391 0
M  V30 7587 H 719.116 4.0583 -0.610764 0
M  V30 7588 H 718.647 3.78444 1.07441 0
M  V30 7589 H 720.662 4.48382 2.12528 0
M  V30 7590 N 719.835 0.176821 1.56605 0
M  V30 7591 C 720.798 -0.737429 2.17013 0
M  V30 7592 C 721.798 -1.15414 1.11965 0
M  V30 7593 O 722.988 -1.0702 1.37449 0
M  V30 7594 C 720.12 -2.00445 2.75744 0
M  V30 7595 H 721.313 -0.211455 2.99154 0
M  V30 7596 H 718.866 -0.0727582 1.56131 0
M  V30 7597 H 719.601 -2.57338 1.97352 0
M  V30 7598 H 719.386 -1.71456 3.52626 0
M  V30 7599 H 720.876 -2.65679 3.22187 0
M  V30 7600 N 721.313 -1.57302 -0.09688 0
M  V30 7601 C 722.561 -1.8563 -0.799117 0
M  V30 7602 C 722.882 -0.765263 -1.79356 0
M  V30 7603 O 722.152 0.208657 -1.94786 0
M  V30 7604 H 720.732 -0.684937 -0.298111 0
M  V30 7605 H 723.394 -1.9474 -0.0789341 0
M  V30 7606 H 722.49 -2.82305 -1.3308 0
M  V30 7607 N 722.791 0.367657 -1.53252 0
M  V30 7608 C 723.721 1.45632 -1.8252 0
M  V30 7609 C 724.702 1.55979 -0.678568 0
M  V30 7610 O 725.887 1.70581 -0.928217 0
M  V30 7611 C 723.017 2.82994 -2.01325 0
M  V30 7612 C 721.971 2.87473 -3.17086 0
M  V30 7613 C 721.297 4.2749 -3.21179 0
M  V30 7614 C 722.597 2.55182 -4.55719 0
M  V30 7615 H 724.291 1.21387 -2.73689 0
M  V30 7616 H 721.837 0.58251 -1.31692 0
M  V30 7617 H 723.79 3.59179 -2.20383 0
M  V30 7618 H 722.514 3.08622 -1.06864 0
M  V30 7619 H 721.173 2.13739 -2.97844 0
M  V30 7620 H 720.821 4.5019 -2.24361 0
M  V30 7621 H 720.521 4.31403 -3.98955 0
M  V30 7622 H 722.045 5.0555 -3.42419 0
M  V30 7623 H 723.459 3.21081 -4.74953 0
M  V30 7624 H 721.856 2.70414 -5.3572 0
M  V30 7625 H 722.926 1.5044 -4.60973 0
M  V30 7626 N 724.269 1.44576 0.627338 0
M  V30 7627 C 725.232 1.51372 1.72102 0
M  V30 7628 C 726.232 0.395329 1.55865 0
M  V30 7629 O 727.422 0.658094 1.61291 0
M  V30 7630 C 724.554 1.39129 3.11217 0
M  V30 7631 H 725.747 2.48798 1.6745 0
M  V30 7632 H 723.3 1.31724 0.841336 0
M  V30 7633 H 724.035 0.428114 3.21462 0
M  V30 7634 H 723.82 2.20229 3.24409 0
M  V30 7635 H 725.31 1.46874 3.90919 0
M  V30 7636 N 725.747 -0.868086 1.31537 0
M  V30 7637 C 726.657 -2.00801 1.21311 0
M  V30 7638 C 727.673 -1.73518 0.129431 0
M  V30 7639 O 728.849 -1.98378 0.347588 0
M  V30 7640 C 725.914 -3.3419 0.922935 0
M  V30 7641 C 724.975 -3.74783 2.0937 0
M  V30 7642 C 724.208 -5.01807 1.81728 0
M  V30 7643 O 724.431 -5.65404 0.753313 0
M  V30 7644 O 723.365 -5.39213 2.67457 0
M  V30 7645 H 727.191 -2.12361 2.17109 0
M  V30 7646 H 724.776 -0.996684 1.11295 0
M  V30 7647 H 726.658 -4.14174 0.777033 0
M  V30 7648 H 725.333 -3.237 -0.00500301 0
M  V30 7649 H 724.24 -2.95432 2.29501 0
M  V30 7650 H 725.573 -3.89902 3.00396 0
M  V30 7651 N 727.225 -1.14528 -1.08264 0
M  V30 7652 C 728.135 -0.84728 -2.18765 0
M  V30 7653 C 729.151 0.172826 -1.7314 0
M  V30 7654 O 730.327 0.000985336 -2.014 0
M  V30 7655 C 727.392 -0.330633 -3.4512 0
M  V30 7656 C 726.453 -1.41348 -4.05363 0
M  V30 7657 C 725.686 -0.921387 -5.25686 0
M  V30 7658 O 725.909 0.236587 -5.69909 0
M  V30 7659 O 724.843 -1.70101 -5.77364 0
M  V30 7660 H 728.669 -1.7708 -2.46731 0
M  V30 7661 H 726.254 -0.923661 -1.17426 0
M  V30 7662 H 728.136 -0.0485053 -4.21372 0
M  V30 7663 H 726.811 0.565147 -3.18728 0
M  V30 7664 H 725.718 -1.74908 -3.30693 0
M  V30 7665 H 727.051 -2.28383 -4.36007 0
M  V30 7666 N 728.703 1.26451 -0.940633 0
M  V30 7667 C 729.633 2.28773 -0.467479 0
M  V30 7668 C 730.614 1.63218 0.478955 0
M  V30 7669 O 731.799 1.90427 0.380929 0
M  V30 7670 C 728.929 3.46259 0.268656 0
M  V30 7671 C 727.883 4.23898 -0.591171 0
M  V30 7672 C 727.209 5.33993 0.274891 0
M  V30 7673 C 728.509 4.87974 -1.86223 0
M  V30 7674 H 730.203 2.68601 -1.32265 0
M  V30 7675 H 727.749 1.29123 -0.637436 0
M  V30 7676 H 729.702 4.16951 0.610696 0
M  V30 7677 H 728.426 3.05383 1.15796 0
M  V30 7678 H 727.085 3.54969 -0.916098 0
M  V30 7679 H 726.733 4.89358 1.16353 0
M  V30 7680 H 726.433 5.86849 -0.297006 0
M  V30 7681 H 727.957 6.07523 0.612213 0
M  V30 7682 H 729.371 5.50883 -1.58747 0
M  V30 7683 H 727.768 5.50945 -2.37866 0
M  V30 7684 H 728.838 4.10945 -2.57394 0
M  V30 7685 N 730.181 0.707592 1.40822 0
M  V30 7686 C 731.131 0.0265008 2.27985 0
M  V30 7687 C 732.115 -0.740685 1.42838 0
M  V30 7688 O 733.307 -0.6142 1.66002 0
M  V30 7689 C 730.436 -0.900382 3.31282 0
M  V30 7690 C 729.522 -0.128807 4.23904 0
M  V30 7691 N 729.913 0.883744 4.9802 0
M  V30 7692 C 728.211 -0.362539 4.44524 0
M  V30 7693 C 728.912 1.34666 5.65898 0
M  V30 7694 N 727.888 0.670306 5.39451 0
M  V30 7695 H 731.69 0.802667 2.82727 0
M  V30 7696 H 729.204 0.539475 1.53178 0
M  V30 7697 H 731.201 -1.40357 3.92563 0
M  V30 7698 H 729.861 -1.67601 2.781 0
M  V30 7699 H 730.872 1.26435 5.0223 0
M  V30 7700 H 727.549 -1.11512 4.02332 0
M  V30 7701 H 728.939 2.18756 6.35292 0
M  V30 7702 N 731.66 -1.50943 0.453197 0
M  V30 7703 C 732.59 -2.31005 -0.34044 0
M  V30 7704 C 733.571 -1.37112 -1.00669 0
M  V30 7705 O 734.756 -1.66033 -1.0073 0
M  V30 7706 C 731.886 -3.16358 -1.433 0
M  V30 7707 C 730.84 -4.18658 -0.889363 0
M  V30 7708 C 730.166 -4.92633 -2.07887 0
M  V30 7709 C 731.466 -5.22227 0.0871142 0
M  V30 7710 H 733.16 -2.97601 0.327723 0
M  V30 7711 H 730.706 -1.43119 0.159054 0
M  V30 7712 H 732.659 -3.71155 -1.99555 0
M  V30 7713 H 731.383 -2.47613 -2.12968 0
M  V30 7714 H 730.042 -3.64936 -0.348915 0
M  V30 7715 H 729.69 -4.20376 -2.76211 0
M  V30 7716 H 729.39 -5.61819 -1.72143 0
M  V30 7717 H 730.914 -5.50258 -2.64666 0
M  V30 7718 H 732.328 -5.72001 -0.385656 0
M  V30 7719 H 730.725 -5.99032 0.357926 0
M  V30 7720 H 731.795 -4.74077 1.01879 0
M  V30 7721 N 733.138 -0.185124 -1.56509 0
M  V30 7722 C 734.549 0.329221 -1.83774 0
M  V30 7723 C 734.9 1.62093 -1.10545 0
M  V30 7724 O 734.025 2.13334 -0.36298 0
M  V30 7725 C 734.62 0.604099 -3.33371 0
M  V30 7726 C 733.179 1.06284 -3.61083 0
M  V30 7727 C 732.326 0.10608 -2.77097 0
M  V30 7728 H 735.277 -0.409116 -1.53336 0
M  V30 7729 H 735.298 1.45458 -3.51599 0
M  V30 7730 H 734.81 -0.336201 -3.86641 0
M  V30 7731 H 732.911 2.01777 -3.13236 0
M  V30 7732 H 733.024 0.962453 -4.69333 0
M  V30 7733 H 731.388 0.606082 -2.47384 0
M  V30 7734 H 732.171 -0.828486 -3.33153 0
M  V30 7735 N 734.616 1.57351 0.0885366 0
M  V30 7736 C 736.027 1.75303 0.642308 0
M  V30 7737 C 736.378 0.808238 1.78779 0
M  V30 7738 O 735.503 -0.01171 2.16397 0
M  V30 7739 C 736.098 3.17885 1.17194 0
M  V30 7740 C 734.657 3.37239 1.67172 0
M  V30 7741 C 733.804 2.7108 0.584045 0
M  V30 7742 H 736.755 1.58103 -0.137567 0
M  V30 7743 H 736.776 3.2112 2.04114 0
M  V30 7744 H 736.288 3.86625 0.338024 0
M  V30 7745 H 734.389 2.73588 2.52943 0
M  V30 7746 H 734.502 4.45594 1.76019 0
M  V30 7747 H 732.866 2.33161 1.02508 0
M  V30 7748 H 733.649 3.42464 -0.239403 0
M  V30 7749 N 736.094 -0.359525 1.53444 0
M  V30 7750 C 737.371 -1.11756 1.6053 0
M  V30 7751 C 737.751 -2.06949 0.416587 0
M  V30 7752 O 737.099 -2.20681 -0.592628 0
M  V30 7753 C 737.309 -1.85133 2.95849 0
M  V30 7754 C 738.657 -2.3945 3.50641 0
M  V30 7755 O 739.681 -1.95251 2.97918 0
M  V30 7756 O 738.54 -3.20266 4.42823 0
M  V30 7757 H 735.634 -0.513005 0.648656 0
M  V30 7758 H 738.18 -0.362301 1.65787 0
M  V30 7759 H 736.952 -1.15694 3.73806 0
M  V30 7760 H 736.575 -2.67554 2.9411 0
M  V30 7761 N 737.572 -1.44907 -0.619662 0
M  V30 7762 C 738.535 -1.52282 -1.71297 0
M  V30 7763 C 739.535 -0.40359 -1.55653 0
M  V30 7764 O 740.725 -0.666638 -1.6094 0
M  V30 7765 C 737.857 -1.40778 -3.10474 0
M  V30 7766 H 739.05 -2.49683 -1.66128 0
M  V30 7767 H 736.603 -1.32168 -0.834339 0
M  V30 7768 H 737.338 -0.445156 -3.2123 0
M  V30 7769 H 737.123 -2.21947 -3.23237 0
M  V30 7770 H 738.613 -1.48946 -3.90135 0
M  V30 7771 N 739.05 0.861098 -1.31996 0
M  V30 7772 C 740.461 1.43065 -1.19955 0
M  V30 7773 C 740.812 1.95273 0.190489 0
M  V30 7774 O 739.937 1.87012 1.08882 0
M  V30 7775 C 740.532 2.60052 -2.1716 0
M  V30 7776 C 739.091 3.13026 -2.09026 0
M  V30 7777 C 738.238 1.85756 -2.05888 0
M  V30 7778 H 741.189 0.668834 -1.43918 0
M  V30 7779 H 741.21 3.37016 -1.76637 0
M  V30 7780 H 740.722 2.22024 -3.18319 0
M  V30 7781 H 738.823 3.55653 -1.11092 0
M  V30 7782 H 738.936 3.74707 -2.98549 0
M  V30 7783 H 737.3 2.05088 -1.51033 0
M  V30 7784 H 738.083 1.49954 -3.08818 0
M  V30 7785 N 740.528 1.15101 1.07655 0
M  V30 7786 C 741.776 0.922149 1.79836 0
M  V30 7787 C 742.097 -0.552346 1.87014 0
M  V30 7788 O 741.367 -1.40145 1.3688 0
M  V30 7789 H 739.947 0.338182 0.666064 0
M  V30 7790 H 742.609 1.45107 1.30115 0
M  V30 7791 H 741.705 1.32883 2.82398 0
M  V30 7792 N 742.006 -1.2595 0.947325 0
M  V30 7793 C 743.254 -1.93081 0.596996 0
M  V30 7794 C 743.575 -1.74632 -0.867672 0
M  V30 7795 O 742.845 -1.1056 -1.6172 0
M  V30 7796 H 741.425 -0.714542 0.217805 0
M  V30 7797 H 744.087 -1.53265 1.20398 0
M  V30 7798 H 743.183 -3.01134 0.82004 0
M  V30 7799 N 743.484 -0.715051 -1.40445 0
M  V30 7800 C 744.417 -0.0112426 -2.28197 0
M  V30 7801 C 745.395 0.768211 -1.43308 0
M  V30 7802 O 746.579 0.754961 -1.72721 0
M  V30 7803 C 743.706 0.991453 -3.23864 0
M  V30 7804 C 742.752 0.302873 -4.25423 0
M  V30 7805 S 743.585 -0.968852 -5.26663 0
M  V30 7806 C 744.741 0.0317538 -6.25892 0
M  V30 7807 H 744.974 -0.755467 -2.87541 0
M  V30 7808 H 742.507 -0.506054 -1.45871 0
M  V30 7809 H 744.465 1.56475 -3.79507 0
M  V30 7810 H 743.126 1.70838 -2.63578 0
M  V30 7811 H 742.319 1.06086 -4.92709 0
M  V30 7812 H 741.921 -0.197853 -3.73476 0
M  V30 7813 H 744.213 0.878764 -6.71777 0
M  V30 7814 H 745.156 -0.607698 -7.05488 0
M  V30 7815 H 745.564 0.39524 -5.63115 0
M  V30 7816 N 744.962 1.50701 -0.461195 0
M  V30 7817 C 746.208 2.02566 0.0973411 0
M  V30 7818 C 746.541 1.3432 1.40257 0
M  V30 7819 O 745.816 0.465692 1.88843 0
M  V30 7820 C 746.099 3.58919 0.291423 0
M  V30 7821 C 745.952 4.37751 -1.03413 0
M  V30 7822 C 747.271 4.27379 1.05048 0
M  V30 7823 H 744.39 0.73622 0.0339026 0
M  V30 7824 H 747.032 1.80115 -0.604855 0
M  V30 7825 H 745.182 3.78179 0.889539 0
M  V30 7826 H 746.854 4.30085 -1.66806 0
M  V30 7827 H 745.097 4.01885 -1.63313 0
M  V30 7828 H 745.768 5.45384 -0.852085 0
M  V30 7829 H 748.244 4.12534 0.543603 0
M  V30 7830 H 747.12 5.36609 1.15506 0
M  V30 7831 H 747.381 3.89868 2.0846 0
M  V30 7832 N 746.441 0.193421 1.56409 0
M  V30 7833 C 747.718 -0.493318 1.89277 0
M  V30 7834 C 748.098 -1.79765 1.10669 0
M  V30 7835 O 747.446 -2.27558 0.207274 0
M  V30 7836 C 747.656 -0.713732 3.41624 0
M  V30 7837 C 749.004 -1.03385 4.11821 0
M  V30 7838 O 750.028 -0.801511 3.47065 0
M  V30 7839 O 748.887 -1.47327 5.26267 0
M  V30 7840 H 745.981 -0.256973 0.786062 0
M  V30 7841 H 748.527 0.23351 1.68086 0
M  V30 7842 H 747.299 0.207446 3.9075 0
M  V30 7843 H 746.922 -1.49308 3.68501 0
M  V30 7844 N 747.919 -1.57396 -0.0801906 0
M  V30 7845 C 749.166 -1.86836 -0.780927 0
M  V30 7846 C 749.494 -0.784012 -1.77999 0
M  V30 7847 O 748.749 0.220881 -1.94449 0
M  V30 7848 C 749.048 -3.22915 -1.53169 0
M  V30 7849 C 748.714 -4.45843 -0.67339 0
M  V30 7850 C 747.376 -4.79213 -0.436829 0
M  V30 7851 C 749.728 -5.21142 -0.0776786 0
M  V30 7852 C 747.056 -5.853 0.405062 0
M  V30 7853 C 749.408 -6.28119 0.751619 0
M  V30 7854 C 748.072 -6.59995 0.998131 0
M  V30 7855 H 747.342 -0.683682 -0.285761 0
M  V30 7856 H 749.989 -1.91454 -0.0419435 0
M  V30 7857 H 748.294 -3.14049 -2.34265 0
M  V30 7858 H 749.991 -3.42926 -2.07853 0
M  V30 7859 H 746.581 -4.19721 -0.867891 0
M  V30 7860 H 750.765 -4.95682 -0.247572 0
M  V30 7861 H 746.021 -6.084 0.60488 0
M  V30 7862 H 750.195 -6.8563 1.22 0
M  V30 7863 H 747.822 -7.42027 1.65227 0
M  V30 7864 N 749.397 0.351382 -1.53633 0
M  V30 7865 C 750.813 0.693987 -1.43722 0
M  V30 7866 C 751.013 1.9274 -0.587669 0
M  V30 7867 O 750.069 2.52387 -0.0756082 0
M  V30 7868 C 751.382 0.893937 -2.87105 0
M  V30 7869 C 752.93 0.993051 -2.96829 0
M  V30 7870 C 753.405 1.22537 -4.41303 0
M  V30 7871 N 754.896 1.29275 -4.44795 0
M  V30 7872 C 755.631 1.48988 -5.53706 0
M  V30 7873 N 755.127 1.65924 -6.72637 0
M  V30 7874 N 756.92 1.51472 -5.41306 0
M  V30 7875 H 749.071 -0.459688 -2.07366 0
M  V30 7876 H 751.334 -0.143684 -0.937048 0
M  V30 7877 H 751.04 0.0592517 -3.5165 0
M  V30 7878 H 750.914 1.79795 -3.31592 0
M  V30 7879 H 753.301 1.81827 -2.32429 0
M  V30 7880 H 753.382 0.0661119 -2.55715 0
M  V30 7881 H 753.026 0.405117 -5.06282 0
M  V30 7882 H 752.956 2.16575 -4.80003 0
M  V30 7883 H 755.447 1.17743 -3.59089 0
M  V30 7884 H 755.76 1.80578 -7.51406 0
M  V30 7885 H 754.105 1.63075 -6.75597 0
M  V30 7886 H 757.296 1.37818 -4.47352 0
M  V30 7887 H 757.469 1.66493 -6.26246 0
M  V30 7888 N 750.875 1.45233 0.611969 0
M  V30 7889 C 752.115 1.50558 1.38245 0
M  V30 7890 C 752.479 0.141959 1.91474 0
M  V30 7891 O 753.68 0.0698926 2.68709 0
M  V30 7892 C 751.951 2.55136 2.50281 0
M  V30 7893 S 753.51 2.79652 3.38142 0
M  V30 7894 H 750.328 0.532281 0.471378 0
M  V30 7895 H 752.93 1.82285 0.706578 0
M  V30 7896 H 751.634 3.52888 2.09518 0
M  V30 7897 H 751.165 2.25045 3.22674 0
M  V30 7898 H 753.18 2.12699 4.48301 0
M  V30 7899 N 752.353 -0.854086 1.3245 0
M  V30 7900 C 753.581 -1.64074 1.26045 0
M  V30 7901 C 753.996 -1.8802 -0.171456 0
M  V30 7902 O 753.353 -1.4496 -1.10873 0
M  V30 7903 C 753.404 -2.9997 2.01743 0
M  V30 7904 O 753.125 -2.77084 3.39346 0
M  V30 7905 C 754.626 -3.94414 2.02368 0
M  V30 7906 H 751.846 -0.511015 0.434862 0
M  V30 7907 H 754.39 -1.06494 1.74583 0
M  V30 7908 H 752.545 -3.54193 1.56926 0
M  V30 7909 H 752.959 -3.63514 3.78098 0
M  V30 7910 H 754.433 -4.87032 2.59815 0
M  V30 7911 H 754.91 -4.27427 1.01009 0
M  V30 7912 H 755.516 -3.46127 2.47135 0
M  V30 7913 N 753.831 -1.1567 -1.07043 0
M  V30 7914 C 754.761 -0.879348 -2.16309 0
M  V30 7915 C 755.742 0.171311 -1.69235 0
M  V30 7916 O 756.927 0.0250175 -1.94184 0
M  V30 7917 C 754.057 -0.371307 -3.45309 0
M  V30 7918 C 753.011 -1.359 -4.05851 0
M  V30 7919 C 752.337 -0.709678 -5.29969 0
M  V30 7920 C 753.637 -2.72606 -4.45514 0
M  V30 7921 H 755.331 -1.79308 -2.39768 0
M  V30 7922 H 752.877 -0.863558 -1.15233 0
M  V30 7923 H 754.83 -0.164798 -4.21078 0
M  V30 7924 H 753.554 0.577906 -3.21446 0
M  V30 7925 H 752.213 -1.55193 -3.32131 0
M  V30 7926 H 751.861 0.245782 -5.02399 0
M  V30 7927 H 751.561 -1.36886 -5.71433 0
M  V30 7928 H 753.085 -0.513015 -6.08441 0
M  V30 7929 H 754.499 -2.57141 -5.12398 0
M  V30 7930 H 752.896 -3.34927 -4.97939 0
M  V30 7931 H 753.966 -3.28434 -3.56734 0
M  V30 7932 N 755.309 1.25446 -0.953992 0
M  V30 7933 C 756.537 1.97215 -0.625595 0
M  V30 7934 C 756.952 1.70911 0.802168 0
M  V30 7935 O 756.309 0.984782 1.5365 0
M  V30 7936 C 756.36 3.50777 -0.873943 0
M  V30 7937 O 756.081 3.76173 -2.24556 0
M  V30 7938 C 757.582 4.39776 -0.557845 0
M  V30 7939 H 754.802 0.628652 -0.2346 0
M  V30 7940 H 757.346 1.59632 -1.27819 0
M  V30 7941 H 755.501 3.86474 -0.267765 0
M  V30 7942 H 755.915 4.70636 -2.31522 0
M  V30 7943 H 757.389 5.46431 -0.782157 0
M  V30 7944 H 757.866 4.36257 0.507573 0
M  V30 7945 H 758.472 4.09644 -1.14332 0
M  V30 7946 N 756.787 0.722489 1.40064 0
M  V30 7947 C 757.717 0.0892452 2.33329 0
M  V30 7948 C 758.698 -0.737992 1.53257 0
M  V30 7949 O 759.883 -0.685516 1.81698 0
M  V30 7950 C 757.013 -0.828139 3.37282 0
M  V30 7951 C 755.967 -0.106005 4.27869 0
M  V30 7952 C 755.293 -1.13957 5.22415 0
M  V30 7953 C 756.593 1.04395 5.11761 0
M  V30 7954 H 758.287 0.868269 2.86534 0
M  V30 7955 H 755.833 0.418982 1.3777 0
M  V30 7956 H 757.786 -1.28058 4.01471 0
M  V30 7957 H 756.51 -1.63914 2.82489 0
M  V30 7958 H 755.169 0.326683 3.65142 0
M  V30 7959 H 754.817 -1.9438 4.63924 0
M  V30 7960 H 754.517 -0.661233 5.83868 0
M  V30 7961 H 756.041 -1.59197 5.89482 0
M  V30 7962 H 757.455 0.670541 5.69365 0
M  V30 7963 H 755.852 1.4511 5.82291 0
M  V30 7964 H 756.922 1.87144 4.47331 0
M  V30 7965 N 758.265 -1.50454 0.469181 0
M  V30 7966 C 759.49 -2.0722 -0.0864892 0
M  V30 7967 C 759.915 -1.33098 -1.32916 0
M  V30 7968 O 759.273 -0.378084 -1.77314 0
M  V30 7969 C 759.321 -3.58845 -0.355384 0
M  V30 7970 O 758.425 -3.86583 -1.43622 0
M  V30 7971 H 757.766 -0.663889 0.0121414 0
M  V30 7972 H 760.296 -1.93674 0.659674 0
M  V30 7973 H 760.306 -4.03617 -0.596447 0
M  V30 7974 H 758.981 -4.12211 0.552698 0
M  V30 7975 H 757.558 -3.5365 -1.18262 0
M  V30 7976 N 759.743 -0.201713 -1.56304 0
M  V30 7977 C 760.99 0.435307 -1.97766 0
M  V30 7978 C 761.318 1.61169 -1.0888 0
M  V30 7979 O 760.573 1.95272 -0.12934 0
M  V30 7980 C 760.872 0.931432 -3.45049 0
M  V30 7981 C 760.538 -0.132287 -4.50706 0
M  V30 7982 C 759.2 -0.424552 -4.79323 0
M  V30 7983 C 761.552 -0.852703 -5.14177 0
M  V30 7984 C 758.88 -1.4421 -5.68701 0
M  V30 7985 C 761.232 -1.85944 -6.04655 0
M  V30 7986 C 759.896 -2.15884 -6.31625 0
M  V30 7987 H 759.166 0.15929 -0.723676 0
M  V30 7988 H 761.813 -0.300069 -1.89134 0
M  V30 7989 H 760.118 1.7452 -3.50785 0
M  V30 7990 H 761.815 1.43383 -3.74489 0
M  V30 7991 H 758.405 0.105671 -4.2847 0
M  V30 7992 H 762.589 -0.640139 -4.92154 0
M  V30 7993 H 757.845 -1.6799 -5.87869 0
M  V30 7994 H 762.019 -2.42286 -6.52894 0
M  V30 7995 H 759.646 -2.94875 -7.0068 0
M  V30 7996 N 761.222 1.57436 0.0718424 0
M  V30 7997 C 762.469 1.87248 0.771007 0
M  V30 7998 C 762.797 0.793441 1.7758 0
M  V30 7999 O 762.052 -0.210565 1.94564 0
M  V30 8000 C 762.351 3.23723 1.51455 0
M  V30 8001 C 762.017 4.46194 0.649736 0
M  V30 8002 C 760.679 4.79438 0.411409 0
M  V30 8003 C 763.031 5.21176 0.05004 0
M  V30 8004 C 760.359 5.85077 -0.436096 0
M  V30 8005 C 762.711 6.27712 -0.784919 0
M  V30 8006 C 761.375 6.59457 -1.03312 0
M  V30 8007 H 760.645 0.685188 0.282132 0
M  V30 8008 H 763.292 1.91474 0.0317896 0
M  V30 8009 H 761.597 3.15287 2.32597 0
M  V30 8010 H 763.294 3.44023 2.06031 0
M  V30 8011 H 759.884 4.20175 0.84562 0
M  V30 8012 H 764.068 4.95806 0.221282 0
M  V30 8013 H 759.324 6.08071 -0.637136 0
M  V30 8014 H 763.498 6.84974 -1.25635 0
M  V30 8015 H 761.125 7.4114 -1.6916 0
M  V30 8016 N 762.7 -0.34323 1.53817 0
M  V30 8017 C 763.947 -1.08344 1.71079 0
M  V30 8018 C 764.275 -1.88633 0.474133 0
M  V30 8019 O 763.53 -1.87984 -0.544116 0
M  V30 8020 C 763.829 -2.05195 2.92626 0
M  V30 8021 C 763.495 -1.41215 4.28216 0
M  V30 8022 C 762.157 -1.23495 4.65083 0
M  V30 8023 C 764.509 -0.951273 5.12445 0
M  V30 8024 C 761.837 -0.583065 5.83796 0
M  V30 8025 C 764.189 -0.313292 6.31824 0
M  V30 8026 C 762.853 -0.123779 6.67385 0
M  V30 8027 H 762.123 -0.396458 0.626021 0
M  V30 8028 H 764.77 -0.362689 1.88034 0
M  V30 8029 H 763.075 -2.83653 2.70275 0
M  V30 8030 H 764.772 -2.62462 3.03175 0
M  V30 8031 H 761.362 -1.56005 3.992 0
M  V30 8032 H 765.546 -1.07602 4.84495 0
M  V30 8033 H 760.802 -0.424854 6.09922 0
M  V30 8034 H 764.976 0.0519179 6.96381 0
M  V30 8035 H 762.603 0.383398 7.59233 0
M  V30 8036 N 764.178 -1.45556 -0.604258 0
M  V30 8037 C 765.125 -1.54482 -1.71476 0
M  V30 8038 C 766.095 -0.390479 -1.61445 0
M  V30 8039 O 767.28 -0.604371 -1.80975 0
M  V30 8040 C 764.42 -1.52064 -3.09791 0
M  V30 8041 C 763.533 -2.78073 -3.30604 0
M  V30 8042 C 762.668 -2.67304 -4.59044 0
M  V30 8043 C 761.707 -3.88352 -4.73127 0
M  V30 8044 N 760.844 -3.76098 -5.9287 0
M  V30 8045 H 765.684 -2.49349 -1.63184 0
M  V30 8046 H 763.221 -1.23725 -0.795641 0
M  V30 8047 H 765.179 -1.48649 -3.89819 0
M  V30 8048 H 763.809 -0.607442 -3.17033 0
M  V30 8049 H 762.861 -2.91561 -2.44329 0
M  V30 8050 H 764.173 -3.67847 -3.36883 0
M  V30 8051 H 763.327 -2.61875 -5.47272 0
M  V30 8052 H 762.066 -1.75135 -4.55169 0
M  V30 8053 H 761.071 -3.94137 -3.83322 0
M  V30 8054 H 762.296 -4.81591 -4.78797 0
M  V30 8055 H 760.242 -2.867 -5.90033 0
M  V30 8056 H 760.159 -4.59509 -6.00323 0
M  V30 8057 H 761.427 -3.74607 -6.83586 0
M  V30 8058 N 765.656 0.84705 -1.32902 0
M  V30 8059 C 766.903 1.60176 -1.23894 0
M  V30 8060 C 767.231 1.93496 0.197341 0
M  V30 8061 O 766.486 1.58173 1.15238 0
M  V30 8062 C 766.785 2.92663 -2.05142 0
M  V30 8063 C 766.451 2.7874 -3.54422 0
M  V30 8064 C 765.113 2.7465 -3.95121 0
M  V30 8065 C 767.465 2.64128 -4.49317 0
M  V30 8066 C 764.793 2.53837 -5.28946 0
M  V30 8067 C 767.145 2.44849 -5.83294 0
M  V30 8068 C 765.809 2.39156 -6.23186 0
M  V30 8069 H 765.079 0.586127 -0.453361 0
M  V30 8070 H 767.726 0.981994 -1.64405 0
M  V30 8071 H 766.031 3.588 -1.57383 0
M  V30 8072 H 767.728 3.50095 -1.95537 0
M  V30 8073 H 764.318 2.82751 -3.22102 0
M  V30 8074 H 768.502 2.66327 -4.18788 0
M  V30 8075 H 763.758 2.4787 -5.58901 0
M  V30 8076 H 767.932 2.32524 -6.56434 0
M  V30 8077 H 765.559 2.22789 -7.26821 0
M  V30 8078 N 767.134 1.16236 1.06428 0
M  V30 8079 C 768.364 0.965782 1.82637 0
M  V30 8080 C 768.772 -0.489284 1.82764 0
M  V30 8081 O 768.115 -1.35133 1.24438 0
M  V30 8082 C 768.177 1.41458 3.30499 0
M  V30 8083 C 767.841 2.88926 3.54077 0
M  V30 8084 C 768.838 3.86939 3.47238 0
M  V30 8085 C 766.523 3.26814 3.81442 0
M  V30 8086 C 768.517 5.20841 3.67428 0
M  V30 8087 C 766.204 4.60886 4.01282 0
M  V30 8088 C 767.202 5.57708 3.94272 0
M  V30 8089 O 766.89 6.89357 4.13573 0
M  V30 8090 H 766.622 0.342569 0.582772 0
M  V30 8091 H 769.176 1.54641 1.35187 0
M  V30 8092 H 767.406 0.777426 3.78805 0
M  V30 8093 H 769.095 1.18563 3.88198 0
M  V30 8094 H 769.861 3.59014 3.26089 0
M  V30 8095 H 765.74 2.5203 3.86008 0
M  V30 8096 H 769.284 5.96401 3.61873 0
M  V30 8097 H 765.181 4.88522 4.21921 0
M  V30 8098 H 765.949 6.95913 4.30869 0
M  V30 8099 N 768.612 -1.24939 0.960631 0
M  V30 8100 C 769.542 -2.28 0.503815 0
M  V30 8101 C 770.523 -1.63959 -0.452928 0
M  V30 8102 O 771.708 -1.91009 -0.350585 0
M  V30 8103 C 768.838 -3.46643 -0.213535 0
M  V30 8104 C 767.792 -4.22903 0.658535 0
M  V30 8105 C 767.118 -5.34363 -0.189902 0
M  V30 8106 C 768.418 -4.84949 1.93963 0
M  V30 8107 H 770.112 -2.66462 1.36521 0
M  V30 8108 H 767.658 -1.28093 0.657897 0
M  V30 8109 H 769.611 -4.1787 -0.544286 0
M  V30 8110 H 768.335 -3.07187 -1.10923 0
M  V30 8111 H 766.994 -3.53467 0.972455 0
M  V30 8112 H 766.642 -4.91147 -1.08553 0
M  V30 8113 H 766.342 -5.86302 0.390331 0
M  V30 8114 H 767.866 -6.0842 -0.515484 0
M  V30 8115 H 769.28 -5.48288 1.67491 0
M  V30 8116 H 767.677 -5.47091 2.46601 0
M  V30 8117 H 768.747 -4.06799 2.639 0
M  V30 8118 N 770.09 -0.729906 -1.39679 0
M  V30 8119 C 771.318 -0.285709 -2.04918 0
M  V30 8120 C 771.733 1.07765 -1.55023 0
M  V30 8121 O 771.09 1.67999 -0.712923 0
M  V30 8122 C 771.141 -0.272793 -3.60469 0
M  V30 8123 O 770.862 -1.58233 -4.08527 0
M  V30 8124 C 772.363 0.188199 -4.429 0
M  V30 8125 H 769.583 -0.125758 -0.65911 0
M  V30 8126 H 772.127 -0.992129 -1.78821 0
M  V30 8127 H 770.282 0.384699 -3.85485 0
M  V30 8128 H 770.696 -1.49245 -5.02818 0
M  V30 8129 H 772.17 0.14608 -5.51807 0
M  V30 8130 H 772.647 1.2326 -4.21549 0
M  V30 8131 H 773.253 -0.439541 -4.23023 0
M  V30 8132 N 771.568 1.50203 -0.477153 0
M  V30 8133 C 772.814 2.02658 0.0758507 0
M  V30 8134 C 773.147 1.358 1.38824 0
M  V30 8135 O 772.422 0.485696 1.88338 0
M  V30 8136 C 772.705 3.59208 0.253339 0
M  V30 8137 C 772.558 4.36629 -1.0805 0
M  V30 8138 C 773.877 4.28469 1.00509 0
M  V30 8139 H 770.996 0.736538 0.0260921 0
M  V30 8140 H 773.638 1.79464 -0.623925 0
M  V30 8141 H 771.788 3.79101 0.849378 0
M  V30 8142 H 773.46 4.28292 -1.71358 0
M  V30 8143 H 771.703 4.0013 -1.67566 0
M  V30 8144 H 772.374 5.44449 -0.909883 0
M  V30 8145 H 774.85 4.13087 0.499818 0
M  V30 8146 H 773.726 5.37804 1.09808 0
M  V30 8147 H 773.987 3.92057 2.04314 0
M  V30 8148 N 773.046 0.209999 1.56195 0
M  V30 8149 C 773.976 -0.699746 2.22769 0
M  V30 8150 C 774.957 -1.20993 1.1956 0
M  V30 8151 O 776.142 -1.25605 1.48112 0
M  V30 8152 C 773.272 -1.91302 2.89863 0
M  V30 8153 C 772.226 -1.53715 3.99444 0
M  V30 8154 C 771.552 -2.82826 4.53777 0
M  V30 8155 C 772.852 -0.735836 5.17091 0
M  V30 8156 H 774.546 -0.144716 2.9905 0
M  V30 8157 H 772.092 -0.0681645 1.43839 0
M  V30 8158 H 774.045 -2.5548 3.35124 0
M  V30 8159 H 772.769 -2.49283 2.11011 0
M  V30 8160 H 771.428 -0.918892 3.54897 0
M  V30 8161 H 771.076 -3.38927 3.71669 0
M  V30 8162 H 770.776 -2.58415 5.27727 0
M  V30 8163 H 772.3 -3.47966 5.01749 0
M  V30 8164 H 773.714 -1.28105 5.58804 0
M  V30 8165 H 772.111 -0.589272 5.972 0
M  V30 8166 H 773.181 0.260004 4.84202 0
M  V30 8167 N 774.524 -1.57472 -0.0634922 0
M  V30 8168 C 775.456 -2.00999 -1.10145 0
M  V30 8169 C 776.469 -0.917219 -1.34503 0
M  V30 8170 O 777.658 -1.19501 -1.32596 0
M  V30 8171 C 774.758 -2.34089 -2.45063 0
M  V30 8172 C 773.931 -3.65317 -2.40546 0
M  V30 8173 C 772.99 -3.85982 -3.57637 0
M  V30 8174 O 772.016 -4.5747 -3.38689 0
M  V30 8175 N 773.218 -3.28971 -4.78287 0
M  V30 8176 H 775.983 -2.90656 -0.730714 0
M  V30 8177 H 773.544 -1.59926 -0.252017 0
M  V30 8178 H 775.536 -2.4508 -3.22053 0
M  V30 8179 H 774.106 -1.50279 -2.74107 0
M  V30 8180 H 773.326 -3.65003 -1.48885 0
M  V30 8181 H 774.614 -4.51468 -2.34636 0
M  V30 8182 H 774.012 -2.70962 -4.96584 0
M  V30 8183 H 772.569 -3.45398 -5.5276 0
M  V30 8184 N 776.003 0.335068 -1.53997 0
M  V30 8185 C 776.95 1.41187 -1.82579 0
M  V30 8186 C 777.92 1.51897 -0.672061 0
M  V30 8187 O 779.105 1.673 -0.917346 0
M  V30 8188 C 776.245 2.77717 -2.0486 0
M  V30 8189 C 775.358 2.7573 -3.32561 0
M  V30 8190 C 774.493 4.04032 -3.44864 0
M  V30 8191 C 773.532 3.96308 -4.66483 0
M  V30 8192 N 772.669 5.16317 -4.75774 0
M  V30 8193 H 777.509 1.16113 -2.74448 0
M  V30 8194 H 775.046 0.562305 -1.35928 0
M  V30 8195 H 777.004 3.57071 -2.15768 0
M  V30 8196 H 775.634 3.01124 -1.16294 0
M  V30 8197 H 774.686 1.88432 -3.3045 0
M  V30 8198 H 775.998 2.65902 -4.22016 0
M  V30 8199 H 775.152 4.91814 -3.55251 0
M  V30 8200 H 773.891 4.16652 -2.53481 0
M  V30 8201 H 772.896 3.06911 -4.56164 0
M  V30 8202 H 774.121 3.85263 -5.5924 0
M  V30 8203 H 772.067 5.29464 -3.87303 0
M  V30 8204 H 771.984 5.08779 -5.59178 0
M  V30 8205 H 773.252 6.05846 -4.9048 0
M  V30 8206 N 777.481 1.45874 0.596531 0
M  V30 8207 C 778.411 1.5824 1.71705 0
M  V30 8208 C 779.392 0.433366 1.64487 0
M  V30 8209 O 780.577 0.657895 1.82717 0
M  V30 8210 C 777.707 1.55927 3.10329 0
M  V30 8211 C 776.661 2.69659 3.32367 0
M  V30 8212 C 775.987 2.52403 4.71377 0
M  V30 8213 C 777.287 4.11591 3.21544 0
M  V30 8214 H 778.981 2.52035 1.61613 0
M  V30 8215 H 776.527 1.21297 0.776082 0
M  V30 8216 H 778.48 1.63173 3.88526 0
M  V30 8217 H 777.204 0.586674 3.21288 0
M  V30 8218 H 775.863 2.61859 2.56564 0
M  V30 8219 H 775.511 1.53258 4.79083 0
M  V30 8220 H 775.211 3.28679 4.87077 0
M  V30 8221 H 776.735 2.6152 5.5176 0
M  V30 8222 H 778.149 4.20576 3.89601 0
M  V30 8223 H 776.546 4.88344 3.4877 0
M  V30 8224 H 777.616 4.32719 2.1882 0
M  V30 8225 N 778.959 -0.83999 1.33349 0
M  V30 8226 C 780.207 -1.59202 1.24496 0
M  V30 8227 C 780.528 -1.94077 -0.189499 0
M  V30 8228 O 779.798 -1.60868 -1.11796 0
M  V30 8229 H 778.378 -0.590276 0.457802 0
M  V30 8230 H 781.04 -1.00394 1.67054 0
M  V30 8231 H 780.136 -2.52247 1.83788 0
M  V30 8232 N 780.437 -1.16799 -1.0581 0
M  V30 8233 C 781.369 -0.836774 -2.13379 0
M  V30 8234 C 782.382 0.158116 -1.6203 0
M  V30 8235 O 783.571 -0.0673211 -1.78373 0
M  V30 8236 C 780.671 -0.225959 -3.38146 0
M  V30 8237 C 779.844 -1.26217 -4.18794 0
M  V30 8238 C 778.903 -0.670257 -5.21914 0
M  V30 8239 O 777.929 -1.34042 -5.53192 0
M  V30 8240 N 779.131 0.540683 -5.77977 0
M  V30 8241 H 781.896 -1.76257 -2.42391 0
M  V30 8242 H 779.457 -1.06599 -1.21853 0
M  V30 8243 H 781.449 0.18317 -4.04285 0
M  V30 8244 H 780.019 0.603494 -3.06719 0
M  V30 8245 H 779.239 -1.84729 -3.48237 0
M  V30 8246 H 780.527 -1.9613 -4.69479 0
M  V30 8247 H 779.925 1.10322 -5.54838 0
M  V30 8248 H 778.482 0.891958 -6.45668 0
M  V30 8249 N 781.915 1.24427 -0.967243 0
M  V30 8250 C 782.825 2.29109 -0.504592 0
M  V30 8251 C 783.841 1.68495 0.434224 0
M  V30 8252 O 785.017 1.99041 0.307379 0
M  V30 8253 C 782.082 3.46133 0.198273 0
M  V30 8254 C 781.143 4.22149 -0.780313 0
M  V30 8255 C 780.376 5.33585 -0.110896 0
M  V30 8256 O 780.599 5.59676 1.10088 0
M  V30 8257 O 779.533 5.96522 -0.802823 0
M  V30 8258 H 783.359 2.708 -1.37482 0
M  V30 8259 H 780.944 1.30111 -0.73426 0
M  V30 8260 H 782.826 4.17205 0.593124 0
M  V30 8261 H 781.501 3.0642 1.04347 0
M  V30 8262 H 780.408 3.53454 -1.22561 0
M  V30 8263 H 781.741 4.65677 -1.59392 0
M  V30 8264 N 783.393 0.737304 1.3929 0
M  V30 8265 C 784.341 0.0879867 2.32434 0
M  V30 8266 C 785.335 -0.723324 1.53181 0
M  V30 8267 O 786.541 -0.624251 1.68829 0
M  V30 8268 H 782.916 0.00965277 0.751938 0
M  V30 8269 H 784.887 0.889915 2.84821 0
M  V30 8270 C 783.636 -0.803384 3.38291 0
M  V30 8271 H 782.959 -0.18849 3.99355 0
M  V30 8272 H 784.399 -1.22528 4.0591 0
M  V30 8273 C 782.858 -1.93872 2.75527 0
M  V30 8274 O 783.388 -3.03154 2.63553 0
M  V30 8275 N 781.594 -1.72883 2.3358 0
M  V30 8276 H 781.141 -0.840005 2.43519 0
M  V30 8277 H 781.099 -2.49021 1.91927 0
M  V30 8278 N 784.871 -1.49948 0.485112 0
M  V30 8279 C 785.801 -2.31675 -0.291364 0
M  V30 8280 C 786.782 -1.39216 -0.977383 0
M  V30 8281 O 787.967 -1.68133 -0.971855 0
M  V30 8282 C 785.097 -3.19326 -1.36558 0
M  V30 8283 C 784.051 -4.2045 -0.800359 0
M  V30 8284 C 783.377 -4.96931 -1.97391 0
M  V30 8285 C 784.677 -5.21925 0.197867 0
M  V30 8286 H 786.371 -2.96839 0.390775 0
M  V30 8287 H 783.917 -1.42749 0.189375 0
M  V30 8288 H 785.87 -3.75304 -1.91638 0
M  V30 8289 H 784.594 -2.52074 -2.07668 0
M  V30 8290 H 783.253 -3.65594 -0.271428 0
M  V30 8291 H 782.901 -4.26141 -2.67232 0
M  V30 8292 H 782.601 -5.65344 -1.60187 0
M  V30 8293 H 784.125 -5.55749 -2.52935 0
M  V30 8294 H 785.539 -5.72691 -0.264239 0
M  V30 8295 H 783.936 -5.98138 0.484908 0
M  V30 8296 H 785.006 -4.71809 1.11912 0
M  V30 8297 N 786.349 -0.21828 -1.56081 0
M  V30 8298 C 787.259 0.704602 -2.23769 0
M  V30 8299 C 788.275 1.21633 -1.24425 0
M  V30 8300 O 789.451 1.25862 -1.57228 0
M  V30 8301 C 786.516 1.89725 -2.90182 0
M  V30 8302 C 785.577 1.42782 -4.0486 0
M  V30 8303 C 784.81 2.56361 -4.68097 0
M  V30 8304 O 785.033 3.74417 -4.30312 0
M  V30 8305 O 783.967 2.2775 -5.57148 0
M  V30 8306 H 787.793 0.158007 -3.03289 0
M  V30 8307 H 785.378 0.0120279 -1.49395 0
M  V30 8308 H 787.26 2.59382 -3.32113 0
M  V30 8309 H 785.935 2.432 -2.13624 0
M  V30 8310 H 784.842 0.699359 -3.67505 0
M  V30 8311 H 786.175 0.939474 -4.83151 0
M  V30 8312 N 787.827 1.57504 0.0551401 0
M  V30 8313 C 789.104 1.79155 0.785048 0
M  V30 8314 C 789.484 0.809995 1.94942 0
M  V30 8315 O 788.832 -0.153432 2.27984 0
M  V30 8316 C 789.042 3.26134 1.24247 0
M  V30 8317 C 790.39 3.90419 1.66908 0
M  V30 8318 O 791.414 3.30126 1.33772 0
M  V30 8319 O 790.273 4.96523 2.28314 0
M  V30 8320 H 787.367 0.735825 0.377479 0
M  V30 8321 H 789.913 1.69666 0.0339285 0
M  V30 8322 H 788.685 3.89145 0.410089 0
M  V30 8323 H 788.308 3.40411 2.05441 0
M  V30 8324 N 789.305 -0.326896 1.54172 0
M  V30 8325 C 790.252 -1.40216 1.83325 0
M  V30 8326 C 791.222 -1.51538 0.680107 0
M  V30 8327 O 792.407 -1.66811 0.926206 0
M  V30 8328 C 789.547 -2.76626 2.0633 0
M  V30 8329 C 788.66 -2.73963 3.34019 0
M  V30 8330 C 787.795 -4.02198 3.47002 0
M  V30 8331 C 786.834 -3.93828 4.68578 0
M  V30 8332 N 785.971 -5.13787 4.78506 0
M  V30 8333 H 790.811 -1.14656 2.7506 0
M  V30 8334 H 788.348 -0.555089 1.36225 0
M  V30 8335 H 790.306 -3.55922 2.17659 0
M  V30 8336 H 788.936 -3.00503 1.1789 0
M  V30 8337 H 787.988 -1.86677 3.31445 0
M  V30 8338 H 789.3 -2.6366 4.2342 0
M  V30 8339 H 788.454 -4.89923 3.57855 0
M  V30 8340 H 787.193 -4.15302 2.55687 0
M  V30 8341 H 786.198 -3.04487 4.57786 0
M  V30 8342 H 787.423 -3.82292 5.61275 0
M  V30 8343 H 785.369 -5.27403 3.90105 0
M  V30 8344 H 785.286 -5.05807 5.61868 0
M  V30 8345 H 786.554 -6.03236 4.93686 0
M  V30 8346 N 790.784 -1.46188 -0.588786 0
M  V30 8347 C 792.024 -1.52738 -1.35833 0
M  V30 8348 C 792.388 -0.172403 -1.91224 0
M  V30 8349 O 793.589 -0.112633 -2.68564 0
M  V30 8350 C 791.86 -2.59085 -2.4619 0
M  V30 8351 S 793.419 -2.84997 -3.3365 0
M  V30 8352 H 790.237 -0.539713 -0.462851 0
M  V30 8353 H 792.839 -1.83386 -0.677489 0
M  V30 8354 H 791.543 -3.56177 -2.03878 0
M  V30 8355 H 791.074 -2.3015 -3.19053 0
M  V30 8356 H 793.089 -2.19804 -4.4486 0
M  V30 8357 N 792.262 0.832906 -1.33792 0
M  V30 8358 C 793.51 1.58539 -1.25338 0
M  V30 8359 C 793.831 1.94175 0.179204 0
M  V30 8360 O 793.101 1.61458 1.10941 0
M  V30 8361 H 791.681 0.58784 -0.460926 0
M  V30 8362 H 794.343 0.995064 -1.67584 0
M  V30 8363 H 793.439 2.51268 -1.85123 0
M  V30 8364 N 793.74 1.17359 1.05189 0
M  V30 8365 C 794.687 0.890325 2.12936 0
M  V30 8366 C 795.657 -0.165779 1.65271 0
M  V30 8367 O 796.842 -0.0285672 1.90779 0
M  V30 8368 C 793.982 0.409793 3.42658 0
M  V30 8369 C 793.095 1.53002 4.03998 0
M  V30 8370 C 792.23 1.00336 5.21638 0
M  V30 8371 C 791.269 2.09903 5.74984 0
M  V30 8372 N 790.406 1.58714 6.83926 0
M  V30 8373 H 795.246 1.81299 2.36505 0
M  V30 8374 H 792.783 0.904249 1.16025 0
M  V30 8375 H 794.741 0.112743 4.17048 0
M  V30 8376 H 793.371 -0.475915 3.19272 0
M  V30 8377 H 792.423 1.9428 3.27047 0
M  V30 8378 H 793.735 2.3564 4.39631 0
M  V30 8379 H 792.889 0.660158 6.03098 0
M  V30 8380 H 791.628 0.14642 4.8748 0
M  V30 8381 H 790.633 2.45081 4.92154 0
M  V30 8382 H 791.858 2.96013 6.1119 0
M  V30 8383 H 789.804 0.752915 6.51665 0
M  V30 8384 H 789.721 2.34959 7.18561 0
M  V30 8385 H 790.989 1.27287 7.69037 0
M  V30 8386 N 795.218 -1.23913 0.973828 0
M  V30 8387 C 796.148 -2.27453 0.527969 0
M  V30 8388 C 797.129 -1.6443 -0.435513 0
M  V30 8389 O 798.314 -1.9137 -0.330306 0
M  V30 8390 C 795.444 -3.4685 -0.176757 0
M  V30 8391 C 794.398 -4.22181 0.703352 0
M  V30 8392 C 793.724 -5.34534 -0.133215 0
M  V30 8393 C 795.024 -4.82865 1.99096 0
M  V30 8394 H 796.718 -2.65 1.3934 0
M  V30 8395 H 794.264 -1.27388 0.671446 0
M  V30 8396 H 796.217 -4.18424 -0.499934 0
M  V30 8397 H 794.941 -3.08346 -1.07659 0
M  V30 8398 H 793.6 -3.52416 1.00989 0
M  V30 8399 H 793.248 -4.92271 -1.03338 0
M  V30 8400 H 792.948 -5.85855 0.452494 0
M  V30 8401 H 794.472 -6.08933 -0.450924 0
M  V30 8402 H 795.886 -5.46481 1.73297 0
M  V30 8403 H 794.283 -5.44444 2.52389 0
M  V30 8404 H 795.353 -4.03977 2.68199 0
M  V30 8405 N 796.696 -0.74468 -1.38897 0
M  V30 8406 C 797.973 -0.222773 -1.94327 0
M  V30 8407 C 798.353 1.27731 -1.68071 0
M  V30 8408 O 797.701 2.04754 -1.01429 0
M  V30 8409 C 797.911 -0.566836 -3.44366 0
M  V30 8410 C 799.259 -0.521531 -4.21385 0
M  V30 8411 O 800.283 -0.504599 -3.52608 0
M  V30 8412 O 799.142 -0.524595 -5.43976 0
M  V30 8413 H 796.236 -0.0439259 -0.825833 0
M  V30 8414 H 798.782 -0.824197 -1.48341 0
M  V30 8415 H 797.554 -1.60321 -3.56949 0
M  V30 8416 H 797.177 0.0630577 -3.9755 0
M  V30 8417 N 798.174 1.49689 -0.493057 0
M  V30 8418 C 799.585 1.8665 -0.0433032 0
M  V30 8419 C 799.936 1.40607 1.36836 0
M  V30 8420 O 799.061 0.780503 2.01834 0
M  V30 8421 C 799.656 3.38724 -0.0718069 0
M  V30 8422 C 798.215 3.75015 0.32257 0
M  V30 8423 C 797.362 2.7366 -0.4478 0
M  V30 8424 H 800.313 1.42119 -0.706246 0
M  V30 8425 H 800.334 3.73522 0.725347 0
M  V30 8426 H 799.846 3.72204 -1.09935 0
M  V30 8427 H 797.947 3.47142 1.35364 0
M  V30 8428 H 798.06 4.79099 0.00864259 0
M  V30 8429 H 796.424 2.54498 0.101354 0
M  V30 8430 H 797.207 3.09985 -1.47527 0
M  V30 8431 N 799.652 0.226554 1.55963 0
M  V30 8432 C 800.88 -0.408507 2.02827 0
M  V30 8433 C 801.295 -1.52994 1.10627 0
M  V30 8434 O 800.652 -1.82126 0.116809 0
M  V30 8435 C 800.703 -0.93545 3.49187 0
M  V30 8436 O 800.424 0.141273 4.37872 0
M  V30 8437 C 801.925 -1.64325 4.11719 0
M  V30 8438 H 799.145 -0.099442 0.66359 0
M  V30 8439 H 801.689 0.344471 2.01578 0
M  V30 8440 H 799.844 -1.63868 3.51036 0
M  V30 8441 H 800.258 -0.25558 5.23877 0
M  V30 8442 H 801.732 -1.9639 5.15883 0
M  V30 8443 H 802.209 -2.55815 3.57009 0
M  V30 8444 H 802.815 -0.9851 4.13734 0
M  V30 8445 N 801.13 -1.57531 -0.0467866 0
M  V30 8446 C 802.377 -1.88451 -0.74112 0
M  V30 8447 C 802.705 -0.821592 -1.76296 0
M  V30 8448 O 801.96 0.179585 -1.94874 0
M  V30 8449 C 802.259 -3.26091 -1.46285 0
M  V30 8450 C 801.925 -4.47171 -0.578669 0
M  V30 8451 C 800.587 -4.80032 -0.335083 0
M  V30 8452 C 802.939 -5.2119 0.0328809 0
M  V30 8453 C 800.267 -5.84309 0.529121 0
M  V30 8454 C 802.619 -6.26383 0.884684 0
M  V30 8455 C 801.283 -6.57729 1.1379 0
M  V30 8456 H 800.553 -0.68959 -0.271195 0
M  V30 8457 H 803.2 -1.915 -0.00132378 0
M  V30 8458 H 801.505 -3.18948 -2.27551 0
M  V30 8459 H 803.202 -3.47258 -2.00532 0
M  V30 8460 H 799.792 -4.21467 -0.778666 0
M  V30 8461 H 803.976 -4.96096 -0.142375 0
M  V30 8462 H 799.232 -6.06981 0.733794 0
M  V30 8463 H 803.406 -6.82888 1.36516 0
M  V30 8464 H 801.033 -7.38355 1.80929 0
M  V30 8465 N 802.608 0.318715 -1.54344 0
M  V30 8466 C 803.571 1.37545 -1.83342 0
M  V30 8467 C 804.571 1.445 -0.705444 0
M  V30 8468 O 805.761 1.44443 -0.973752 0
M  V30 8469 C 802.893 2.76225 -1.99781 0
M  V30 8470 H 804.086 1.13084 -2.77762 0
M  V30 8471 H 801.639 0.554457 -1.46135 0
M  V30 8472 H 802.374 3.05934 -1.07588 0
M  V30 8473 H 802.159 2.7257 -2.81865 0
M  V30 8474 H 803.649 3.52664 -2.23647 0
M  V30 8475 N 804.086 1.46499 0.581025 0
M  V30 8476 C 805.311 1.55708 1.37002 0
M  V30 8477 C 805.736 0.19942 1.8704 0
M  V30 8478 O 805.094 -0.820731 1.61659 0
M  V30 8479 C 805.142 2.56716 2.53238 0
M  V30 8480 O 804.246 2.10336 3.54729 0
M  V30 8481 H 803.587 0.523912 0.407937 0
M  V30 8482 H 806.117 1.92085 0.704602 0
M  V30 8483 H 806.127 2.76378 3.00132 0
M  V30 8484 H 804.802 3.55307 2.16171 0
M  V30 8485 H 803.379 2.00669 3.14303 0
M  V30 8486 N 805.565 -0.825799 1.34232 0
M  V30 8487 C 806.528 -1.91808 1.25468 0
M  V30 8488 C 807.528 -1.59893 0.170567 0
M  V30 8489 O 808.718 -1.68986 0.422996 0
M  V30 8490 C 805.85 -3.27786 0.93644 0
M  V30 8491 H 807.043 -2.01003 2.22571 0
M  V30 8492 H 804.596 -1.01944 1.18479 0
M  V30 8493 H 805.331 -3.24285 -0.0315408 0
M  V30 8494 H 805.116 -3.52333 1.72057 0
M  V30 8495 H 806.606 -4.07782 0.900214 0
M  V30 8496 N 807.043 -1.17915 -1.04565 0
M  V30 8497 C 808.271 -0.99616 -1.8134 0
M  V30 8498 C 808.686 0.455509 -1.83223 0
M  V30 8499 O 808.043 1.31636 -1.26405 0
M  V30 8500 C 808.094 -1.53758 -3.27171 0
M  V30 8501 O 807.815 -2.93241 -3.25486 0
M  V30 8502 C 809.316 -1.40007 -4.2061 0
M  V30 8503 H 806.536 -0.352055 -0.571225 0
M  V30 8504 H 809.08 -1.56349 -1.31815 0
M  V30 8505 H 807.235 -1.01213 -3.73945 0
M  V30 8506 H 807.649 -3.18392 -4.16805 0
M  V30 8507 H 809.123 -1.82695 -5.2089 0
M  V30 8508 H 809.6 -0.348054 -4.37819 0
M  V30 8509 H 810.206 -1.916 -3.79697 0
M  V30 8510 N 808.521 1.23394 -0.980386 0
M  V30 8511 C 809.451 2.2717 -0.540024 0
M  V30 8512 C 810.432 1.64659 0.426787 0
M  V30 8513 O 811.617 1.91543 0.320153 0
M  V30 8514 C 808.747 3.46939 0.15836 0
M  V30 8515 C 807.701 4.21802 -0.725732 0
M  V30 8516 C 807.027 5.34597 0.104866 0
M  V30 8517 C 808.327 4.81802 -2.01654 0
M  V30 8518 H 810.021 2.64257 -1.40743 0
M  V30 8519 H 807.567 1.2703 -0.678193 0
M  V30 8520 H 809.52 4.18683 0.477737 0
M  V30 8521 H 808.244 3.08912 1.06022 0
M  V30 8522 H 806.903 3.51875 -1.02857 0
M  V30 8523 H 806.551 4.92812 1.00726 0
M  V30 8524 H 806.251 5.85607 -0.483557 0
M  V30 8525 H 807.775 6.09163 0.418624 0
M  V30 8526 H 809.189 5.45554 -1.76193 0
M  V30 8527 H 807.586 5.43098 -2.55273 0
M  V30 8528 H 808.656 4.02549 -2.70338 0
M  V30 8529 N 809.999 0.752036 1.385 0
M  V30 8530 C 810.929 0.138718 2.33088 0
M  V30 8531 C 811.91 -0.705318 1.54788 0
M  V30 8532 O 813.095 -0.646821 1.83112 0
M  V30 8533 C 810.225 -0.75641 3.38963 0
M  V30 8534 C 809.179 -0.0152239 4.27997 0
M  V30 8535 C 808.505 -1.0285 5.24715 0
M  V30 8536 C 809.805 1.15226 5.09431 0
M  V30 8537 H 811.499 0.928852 2.84627 0
M  V30 8538 H 809.045 0.448111 1.3685 0
M  V30 8539 H 810.998 -1.19513 4.04097 0
M  V30 8540 H 809.722 -1.57885 2.85902 0
M  V30 8541 H 808.381 0.404061 3.64366 0
M  V30 8542 H 808.029 -1.84496 4.67943 0
M  V30 8543 H 807.729 -0.537238 5.85139 0
M  V30 8544 H 809.253 -1.46657 5.92726 0
M  V30 8545 H 810.667 0.791161 5.67815 0
M  V30 8546 H 809.064 1.57428 5.79082 0
M  V30 8547 H 810.134 1.9659 4.43261 0
M  V30 8548 N 811.477 -1.49425 0.500989 0
M  V30 8549 C 812.724 -2.02453 -0.0435355 0
M  V30 8550 C 813.052 -1.38067 -1.36995 0
M  V30 8551 O 812.307 -0.505557 -1.89057 0
M  V30 8552 C 812.606 -3.56562 -0.24463 0
M  V30 8553 C 812.272 -4.39585 1.00379 0
M  V30 8554 C 810.934 -4.61992 1.346 0
M  V30 8555 C 813.286 -4.87881 1.83361 0
M  V30 8556 C 810.614 -5.2994 2.51755 0
M  V30 8557 C 812.966 -5.57119 2.99669 0
M  V30 8558 C 811.63 -5.77771 3.3427 0
M  V30 8559 H 810.9 -0.740829 -0.0159308 0
M  V30 8560 H 813.547 -1.79725 0.661143 0
M  V30 8561 H 811.852 -3.77969 -1.03183 0
M  V30 8562 H 813.549 -3.95185 -0.6804 0
M  V30 8563 H 810.139 -4.22385 0.727225 0
M  V30 8564 H 814.323 -4.70398 1.58237 0
M  V30 8565 H 809.579 -5.44133 2.788 0
M  V30 8566 H 813.753 -5.93516 3.64296 0
M  V30 8567 H 811.38 -6.30197 4.25154 0
M  V30 8568 N 812.955 -0.234822 -1.55841 0
M  V30 8569 C 813.887 0.702346 -2.18174 0
M  V30 8570 C 814.9 1.14776 -1.15457 0
M  V30 8571 O 816.089 1.07662 -1.42377 0
M  V30 8572 C 813.189 1.96483 -2.76129 0
M  V30 8573 C 812.362 1.67283 -4.04148 0
M  V30 8574 C 811.421 2.7837 -4.46539 0
M  V30 8575 O 810.447 2.46272 -5.13166 0
M  V30 8576 N 811.649 4.07611 -4.1332 0
M  V30 8577 H 814.414 0.169074 -2.99223 0
M  V30 8578 H 811.975 -0.0543164 -1.61809 0
M  V30 8579 H 813.967 2.70016 -3.01452 0
M  V30 8580 H 812.537 2.40822 -1.99307 0
M  V30 8581 H 811.757 0.773278 -3.86541 0
M  V30 8582 H 813.045 1.45222 -4.87635 0
M  V30 8583 H 812.443 4.36527 -3.59806 0
M  V30 8584 H 811 4.77646 -4.43506 0
M  V30 8585 N 814.433 1.57553 0.0384317 0
M  V30 8586 C 815.38 2.05942 1.04194 0
M  V30 8587 C 816.35 0.946637 1.36484 0
M  V30 8588 O 817.535 1.21658 1.46983 0
M  V30 8589 C 814.675 2.53588 2.34066 0
M  V30 8590 C 813.788 3.7862 2.08017 0
M  V30 8591 C 812.923 4.14915 3.31692 0
M  V30 8592 C 811.962 5.32891 3.01155 0
M  V30 8593 N 811.099 5.64662 4.17254 0
M  V30 8594 H 815.939 2.91429 0.622341 0
M  V30 8595 H 813.476 1.44098 0.295684 0
M  V30 8596 H 815.434 2.79276 3.09937 0
M  V30 8597 H 814.064 1.71031 2.73767 0
M  V30 8598 H 813.116 3.60073 1.22686 0
M  V30 8599 H 814.428 4.64613 1.81484 0
M  V30 8600 H 813.582 4.41681 4.15936 0
M  V30 8601 H 812.321 3.27555 3.6133 0
M  V30 8602 H 811.326 5.05887 2.15311 0
M  V30 8603 H 812.551 6.21896 2.72804 0
M  V30 8604 H 810.497 4.80261 4.46861 0
M  V30 8605 H 810.414 6.45145 3.94112 0
M  V30 8606 H 811.682 5.96 5.02399 0
M  V30 8607 N 815.911 -0.310526 1.54511 0
M  V30 8608 C 817.188 -1.06593 1.64004 0
M  V30 8609 C 817.568 -2.05519 0.482216 0
M  V30 8610 O 816.916 -2.22455 -0.52212 0
M  V30 8611 C 817.126 -1.75627 3.01589 0
M  V30 8612 C 818.474 -2.28173 3.58081 0
M  V30 8613 O 819.498 -1.85674 3.03979 0
M  V30 8614 O 818.357 -3.06015 4.52788 0
M  V30 8615 H 815.451 -0.492109 0.664649 0
M  V30 8616 H 817.997 -0.309374 1.66856 0
M  V30 8617 H 816.769 -1.03743 3.77297 0
M  V30 8618 H 816.392 -2.58061 3.02473 0
M  V30 8619 N 817.389 -1.46805 -0.573248 0
M  V30 8620 C 818.8 -1.46655 -1.15539 0
M  V30 8621 C 819.151 -0.2125 -1.95046 0
M  V30 8622 O 818.276 0.683759 -2.05314 0
M  V30 8623 C 818.871 -2.65711 -2.10198 0
M  V30 8624 C 817.43 -2.68572 -2.63716 0
M  V30 8625 C 816.577 -2.39498 -1.39772 0
M  V30 8626 H 819.528 -1.54547 -0.36068 0
M  V30 8627 H 819.549 -2.41768 -2.93817 0
M  V30 8628 H 819.061 -3.56967 -1.52303 0
M  V30 8629 H 817.162 -1.81414 -3.25453 0
M  V30 8630 H 817.275 -3.68809 -3.05805 0
M  V30 8631 H 815.639 -1.89749 -1.69904 0
M  V30 8632 H 816.422 -3.32942 -0.836943 0
M  V30 8633 N 818.867 0.818669 -1.34668 0
M  V30 8634 C 820.278 1.39177 -1.24446 0
M  V30 8635 C 820.629 1.9578 0.128268 0
M  V30 8636 O 819.754 1.90382 1.02877 0
M  V30 8637 C 820.349 2.53012 -2.25323 0
M  V30 8638 C 818.908 3.06218 -2.18878 0
M  V30 8639 C 818.055 1.79112 -2.11694 0
M  V30 8640 H 821.006 0.622709 -1.45973 0
M  V30 8641 H 821.027 3.31226 -1.8727 0
M  V30 8642 H 820.539 2.11784 -3.25221 0
M  V30 8643 H 818.64 3.51939 -1.22351 0
M  V30 8644 H 818.753 3.65019 -3.10319 0
M  V30 8645 H 817.117 2.0018 -1.57481 0
M  V30 8646 H 817.9 1.40053 -3.13433 0
M  V30 8647 N 820.346 1.18468 1.03938 0
M  V30 8648 C 821.309 0.914944 2.10146 0
M  V30 8649 C 822.309 -0.10022 1.60487 0
M  V30 8650 O 823.499 0.133365 1.73689 0
M  V30 8651 C 820.631 0.372993 3.38853 0
M  V30 8652 H 821.824 1.85677 2.35508 0
M  V30 8653 H 819.377 0.996876 1.20383 0
M  V30 8654 H 820.112 -0.57538 3.19155 0
M  V30 8655 H 819.897 1.1048 3.76213 0
M  V30 8656 H 821.387 0.203014 4.17106 0
M  V30 8657 N 821.824 -1.22873 0.986916 0
M  V30 8658 C 823.101 -1.86939 0.575589 0
M  V30 8659 C 823.481 -1.88656 -0.947205 0
M  V30 8660 O 822.829 -1.3728 -1.82665 0
M  V30 8661 C 823.039 -3.28117 1.18914 0
M  V30 8662 C 824.387 -4.04659 1.28593 0
M  V30 8663 O 825.411 -3.3736 1.14308 0
M  V30 8664 O 824.27 -5.25112 1.51391 0
M  V30 8665 H 821.364 -0.803748 0.194724 0
M  V30 8666 H 823.91 -1.30698 1.08241 0
M  V30 8667 H 822.682 -3.21468 2.231 0
M  V30 8668 H 822.305 -3.91956 0.667535 0
M  V30 8669 N 823.302 -0.75937 -1.38099 0
M  V30 8670 C 824.548 -0.318584 -2.00282 0
M  V30 8671 C 824.881 1.09854 -1.60143 0
M  V30 8672 O 824.156 1.75344 -0.841702 0
M  V30 8673 C 824.439 -0.448047 -3.57302 0
M  V30 8674 C 824.292 -1.9067 -4.07388 0
M  V30 8675 C 825.611 0.155119 -4.39827 0
M  V30 8676 H 822.73 -0.117233 -0.727616 0
M  V30 8677 H 825.372 -0.960097 -1.63958 0
M  V30 8678 H 823.522 0.0981003 -3.88376 0
M  V30 8679 H 825.194 -2.5116 -3.86932 0
M  V30 8680 H 823.437 -2.41979 -3.6004 0
M  V30 8681 H 824.108 -1.94841 -5.1647 0
M  V30 8682 H 826.584 -0.31073 -4.14938 0
M  V30 8683 H 825.46 0.0343264 -5.48889 0
M  V30 8684 H 825.721 1.24407 -4.24235 0
M  V30 8685 N 824.78 1.49157 -0.508906 0
M  V30 8686 C 825.712 2.272 0.302115 0
M  V30 8687 C 826.725 1.3407 0.923529 0
M  V30 8688 O 827.914 1.5929 0.805532 0
M  V30 8689 C 825.014 3.06736 1.44105 0
M  V30 8690 C 824.187 4.27497 0.925477 0
M  V30 8691 C 823.246 4.89014 1.94297 0
M  V30 8692 O 822.272 5.48851 1.50834 0
M  V30 8693 N 823.474 4.7937 3.2739 0
M  V30 8694 H 826.239 2.97443 -0.367115 0
M  V30 8695 H 823.8 1.58248 -0.341933 0
M  V30 8696 H 825.792 3.44763 2.11944 0
M  V30 8697 H 824.362 2.3905 2.0143 0
M  V30 8698 H 823.582 3.94135 0.0717301 0
M  V30 8699 H 824.87 5.05714 0.55955 0
M  V30 8700 H 824.268 4.31869 3.65384 0
M  V30 8701 H 822.825 5.21559 3.90922 0
M  V30 8702 N 826.258 0.243083 1.55714 0
M  V30 8703 C 827.188 -0.652336 2.24203 0
M  V30 8704 C 828.169 -1.1843 1.221 0
M  V30 8705 O 829.354 -1.22435 1.50743 0
M  V30 8706 C 826.484 -1.85111 2.93856 0
M  V30 8707 C 825.438 -1.45208 4.02615 0
M  V30 8708 C 824.764 -2.73137 4.59674 0
M  V30 8709 C 826.064 -0.625988 5.18535 0
M  V30 8710 H 827.758 -0.0812504 2.9929 0
M  V30 8711 H 825.304 -0.0376388 1.43951 0
M  V30 8712 H 827.257 -2.48314 3.40468 0
M  V30 8713 H 825.981 -2.44751 2.16251 0
M  V30 8714 H 824.64 -0.843406 3.56766 0
M  V30 8715 H 824.288 -3.30967 3.78774 0
M  V30 8716 H 823.988 -2.47163 5.33089 0
M  V30 8717 H 825.512 -3.37245 5.09017 0
M  V30 8718 H 826.926 -1.16223 5.61396 0
M  V30 8719 H 825.323 -0.462465 5.98315 0
M  V30 8720 H 826.393 0.362652 4.83542 0
M  V30 8721 N 827.736 -1.57571 -0.0300757 0
M  V30 8722 C 828.983 -1.89226 -0.721091 0
M  V30 8723 C 829.311 -0.840244 -1.75414 0
M  V30 8724 O 828.566 0.158906 -1.95054 0
M  V30 8725 C 828.865 -3.27624 -1.42818 0
M  V30 8726 C 828.531 -4.4776 -0.531208 0
M  V30 8727 C 827.193 -4.8036 -0.28415 0
M  V30 8728 C 829.545 -5.21125 0.0881582 0
M  V30 8729 C 826.873 -5.83715 0.591065 0
M  V30 8730 C 829.225 -6.2541 0.95107 0
M  V30 8731 C 827.889 -6.56486 1.2076 0
M  V30 8732 H 827.159 -0.692428 -0.263866 0
M  V30 8733 H 829.806 -1.91491 0.0189874 0
M  V30 8734 H 828.111 -3.21343 -2.24155 0
M  V30 8735 H 829.808 -3.49365 -1.96838 0
M  V30 8736 H 826.398 -4.2227 -0.73392 0
M  V30 8737 H 830.582 -4.96219 -0.0897496 0
M  V30 8738 H 825.838 -6.06168 0.798132 0
M  V30 8739 H 830.012 -6.81402 1.43751 0
M  V30 8740 H 827.639 -7.36395 1.88751 0
M  V30 8741 N 829.214 0.302327 -1.54673 0
M  V30 8742 C 830.146 1.39443 -1.81902 0
M  V30 8743 C 831.159 1.46891 -0.701914 0
M  V30 8744 O 832.348 1.49233 -0.979369 0
M  V30 8745 C 829.448 2.77824 -1.9408 0
M  V30 8746 C 828.621 2.93324 -3.24468 0
M  V30 8747 C 827.68 4.12196 -3.27079 0
M  V30 8748 O 826.706 4.04344 -4.00617 0
M  V30 8749 N 827.908 5.22768 -2.52376 0
M  V30 8750 H 830.673 1.1644 -2.76155 0
M  V30 8751 H 828.234 0.492392 -1.54231 0
M  V30 8752 H 830.226 3.5559 -1.9323 0
M  V30 8753 H 828.796 2.9378 -1.06828 0
M  V30 8754 H 828.016 2.02682 -3.38103 0
M  V30 8755 H 829.304 3.0059 -4.10516 0
M  V30 8756 H 828.702 5.32027 -1.92259 0
M  V30 8757 H 827.259 5.98874 -2.57281 0
M  V30 8758 N 830.692 1.47107 0.565454 0
M  V30 8759 C 831.602 1.61591 1.70075 0
M  V30 8760 C 832.618 0.498931 1.66693 0
M  V30 8761 O 833.794 0.765372 1.8629 0
M  V30 8762 C 830.859 1.61887 3.06583 0
M  V30 8763 C 829.92 2.84949 3.21096 0
M  V30 8764 C 829.153 2.85221 4.51093 0
M  V30 8765 O 829.376 1.94959 5.36048 0
M  V30 8766 O 828.31 3.76982 4.69221 0
M  V30 8767 H 832.136 2.57638 1.60799 0
M  V30 8768 H 829.721 1.30097 0.73451 0
M  V30 8769 H 831.603 1.64809 3.87835 0
M  V30 8770 H 830.278 0.69005 3.16259 0
M  V30 8771 H 829.185 2.87575 2.39273 0
M  V30 8772 H 830.518 3.77098 3.1632 0
M  V30 8773 N 832.17 -0.811516 1.35101 0
M  V30 8774 C 833.416 -1.57068 1.28287 0
M  V30 8775 C 833.749 -1.93667 -0.143808 0
M  V30 8776 O 833.024 -1.60953 -1.09199 0
M  V30 8777 C 833.307 -2.86259 2.18466 0
M  V30 8778 C 833.16 -2.56168 3.69727 0
M  V30 8779 C 834.479 -3.87924 2.07852 0
M  V30 8780 H 831.598 -0.569869 0.467353 0
M  V30 8781 H 834.24 -0.934023 1.65457 0
M  V30 8782 H 832.39 -3.4059 1.86898 0
M  V30 8783 H 834.062 -2.08059 4.11715 0
M  V30 8784 H 832.305 -1.89436 3.90252 0
M  V30 8785 H 832.976 -3.48344 4.28206 0
M  V30 8786 H 835.452 -3.4298 2.35593 0
M  V30 8787 H 834.328 -4.76106 2.73157 0
M  V30 8788 H 834.589 -4.2923 1.05896 0
M  V30 8789 N 833.648 -1.19017 -1.03309 0
M  V30 8790 C 835.059 -0.993206 -1.5809 0
M  V30 8791 C 835.41 0.45505 -1.9085 0
M  V30 8792 O 834.535 1.33372 -1.70414 0
M  V30 8793 C 835.13 -1.79661 -2.87241 0
M  V30 8794 C 833.689 -1.64377 -3.38611 0
M  V30 8795 C 832.836 -1.78628 -2.12102 0
M  V30 8796 H 835.787 -1.3345 -0.858879 0
M  V30 8797 H 835.808 -1.29019 -3.57958 0
M  V30 8798 H 835.32 -2.85061 -2.63366 0
M  V30 8799 H 833.421 -0.615447 -3.67482 0
M  V30 8800 H 833.534 -2.44651 -4.11926 0
M  V30 8801 H 831.898 -1.21648 -2.23772 0
M  V30 8802 H 832.681 -2.8548 -1.90673 0
M  V30 8803 N 835.127 1.22348 -0.993418 0
M  V30 8804 C 836.074 2.24294 -0.544118 0
M  V30 8805 C 837.044 1.60602 0.42381 0
M  V30 8806 O 838.229 1.87952 0.328453 0
M  V30 8807 C 835.369 3.44837 0.134578 0
M  V30 8808 C 834.482 4.23043 -0.875151 0
M  V30 8809 C 833.617 5.30928 -0.169919 0
M  V30 8810 C 832.656 6.00853 -1.16798 0
M  V30 8811 N 831.793 7.00381 -0.491021 0
M  V30 8812 H 836.633 2.6209 -1.4182 0
M  V30 8813 H 834.17 1.2881 -0.710384 0
M  V30 8814 H 836.128 4.13625 0.544998 0
M  V30 8815 H 834.758 3.07804 0.972446 0
M  V30 8816 H 833.81 3.53546 -1.40389 0
M  V30 8817 H 835.122 4.71237 -1.63516 0
M  V30 8818 H 834.276 6.05972 0.297205 0
M  V30 8819 H 833.015 4.8371 0.622586 0
M  V30 8820 H 832.02 5.24591 -1.64573 0
M  V30 8821 H 833.245 6.50159 -1.96137 0
M  V30 8822 H 831.191 6.55393 0.282037 0
M  V30 8823 H 831.108 7.46584 -1.18947 0
M  V30 8824 H 832.376 7.79486 -0.0467169 0
M  V30 8825 N 836.605 0.766683 1.37694 0
M  V30 8826 C 837.853 0.328065 1.9942 0
M  V30 8827 C 838.174 -1.09775 1.61166 0
M  V30 8828 O 837.444 -1.75288 0.874686 0
M  V30 8829 H 836.024 0.11831 0.737572 0
M  V30 8830 H 838.686 0.983686 1.68255 0
M  V30 8831 H 837.782 0.401647 3.09505 0
M  V30 8832 N 838.083 -1.48885 0.516809 0
M  V30 8833 C 839.015 -2.27357 -0.290061 0
M  V30 8834 C 840.028 -1.34558 -0.916406 0
M  V30 8835 O 841.217 -1.59715 -0.797073 0
M  V30 8836 C 838.317 -3.07496 -1.42476 0
M  V30 8837 C 837.49 -4.27982 -0.902793 0
M  V30 8838 C 836.549 -4.90038 -1.91701 0
M  V30 8839 O 835.575 -5.49643 -1.47922 0
M  V30 8840 N 836.777 -4.811 -3.24843 0
M  V30 8841 H 839.542 -2.97244 0.382884 0
M  V30 8842 H 837.103 -1.58064 0.35032 0
M  V30 8843 H 839.095 -3.45882 -2.10113 0
M  V30 8844 H 837.665 -2.40115 -2.00159 0
M  V30 8845 H 836.885 -3.94167 -0.0508272 0
M  V30 8846 H 838.173 -5.06003 -0.532723 0
M  V30 8847 H 837.571 -4.33801 -3.63088 0
M  V30 8848 H 836.128 -5.23625 -3.8815 0
M  V30 8849 N 839.561 -0.251338 -1.55583 0
M  V30 8850 C 840.786 0.379136 -2.03905 0
M  V30 8851 C 841.211 1.50428 -1.12929 0
M  V30 8852 O 840.569 1.80882 -0.123114 0
M  V30 8853 C 840.617 0.86009 -3.50193 0
M  V30 8854 O 839.721 1.96932 -3.62342 0
M  V30 8855 H 839.062 0.0820183 -0.658915 0
M  V30 8856 H 841.592 -0.378692 -2.01065 0
M  V30 8857 H 841.602 1.16214 -3.91099 0
M  V30 8858 H 840.277 0.0367559 -4.15884 0
M  V30 8859 H 838.854 1.67163 -3.33333 0
M  V30 8860 N 841.039 1.57585 0.0217189 0
M  V30 8861 C 841.949 2.10444 1.03684 0
M  V30 8862 C 842.965 1.04472 1.39146 0
M  V30 8863 O 844.141 1.36249 1.48317 0
M  V30 8864 C 841.206 2.5794 2.31664 0
M  V30 8865 C 840.267 3.78425 2.02714 0
M  V30 8866 C 839.5 4.23646 3.24592 0
M  V30 8867 O 839.723 3.6834 4.35525 0
M  V30 8868 O 838.657 5.16013 3.09862 0
M  V30 8869 H 842.483 2.97354 0.617584 0
M  V30 8870 H 840.068 1.47473 0.239174 0
M  V30 8871 H 841.95 2.88785 3.06889 0
M  V30 8872 H 840.625 1.74138 2.7287 0
M  V30 8873 H 839.532 3.52587 1.25033 0
M  V30 8874 H 840.865 4.63234 1.66359 0
M  V30 8875 N 842.517 -0.29412 1.54831 0
M  V30 8876 C 843.427 -1.3854 1.89325 0
M  V30 8877 C 844.443 -1.55127 0.788133 0
M  V30 8878 O 845.619 -1.6966 1.08524 0
M  V30 8879 C 842.684 -2.72809 2.13954 0
M  V30 8880 C 841.745 -2.65148 3.37631 0
M  V30 8881 C 840.978 -3.93014 3.61076 0
M  V30 8882 O 841.201 -4.927 2.87406 0
M  V30 8883 O 840.135 -3.94491 4.54599 0
M  V30 8884 H 843.961 -1.12289 2.82179 0
M  V30 8885 H 841.546 -0.490793 1.41108 0
M  V30 8886 H 843.428 -3.52238 2.31315 0
M  V30 8887 H 842.103 -2.9889 1.24285 0
M  V30 8888 H 841.01 -1.84168 3.25627 0
M  V30 8889 H 842.343 -2.4402 4.27452 0
M  V30 8890 N 843.995 -1.47404 -0.557645 0
M  V30 8891 C 845.272 -1.44488 -1.31843 0
M  V30 8892 C 845.652 -0.1416 -2.10625 0
M  V30 8893 O 845 0.876908 -2.11004 0
M  V30 8894 C 845.21 -2.69016 -2.22331 0
M  V30 8895 C 846.558 -3.16212 -2.83364 0
M  V30 8896 O 847.582 -2.69741 -2.32634 0
M  V30 8897 O 846.441 -3.96999 -3.75571 0
M  V30 8898 H 843.535 -0.57578 -0.593639 0
M  V30 8899 H 846.081 -1.59605 -0.576584 0
M  V30 8900 H 844.853 -3.55406 -1.63715 0
M  V30 8901 H 844.476 -2.56484 -3.03812 0
M  V30 8902 N 845.473 0.80434 -1.35529 0
M  V30 8903 C 846.406 1.92222 -1.22987 0
M  V30 8904 C 847.384 1.62177 -0.117269 0
M  V30 8905 O 848.568 1.86321 -0.285761 0
M  V30 8906 C 845.695 3.26682 -0.894223 0
M  V30 8907 C 844.741 3.75674 -2.01919 0
M  V30 8908 S 845.574 3.93209 -3.6352 0
M  V30 8909 C 846.73 5.30568 -3.32037 0
M  V30 8910 H 846.963 2.02567 -2.1761 0
M  V30 8911 H 844.496 0.961961 -1.20771 0
M  V30 8912 H 846.454 4.04359 -0.707371 0
M  V30 8913 H 845.115 3.14082 0.0339729 0
M  V30 8914 H 844.308 4.73065 -1.73854 0
M  V30 8915 H 843.91 3.05001 -2.16449 0
M  V30 8916 H 846.202 6.14637 -2.85004 0
M  V30 8917 H 847.145 5.63628 -4.28636 0
M  V30 8918 H 847.553 4.96961 -2.6775 0
M  V30 8919 N 846.951 1.19563 1.02676 0
M  V30 8920 C 848.197 1.00105 1.76371 0
M  V30 8921 C 848.53 -0.466823 1.88506 0
M  V30 8922 O 847.805 -1.34665 1.40341 0
M  V30 8923 C 848.088 1.67321 3.18866 0
M  V30 8924 C 847.941 3.21486 3.1459 0
M  V30 8925 C 849.26 1.39794 4.17308 0
M  V30 8926 H 846.379 0.365075 0.640226 0
M  V30 8927 H 849.021 1.47433 1.19848 0
M  V30 8928 H 847.171 1.27081 3.67128 0
M  V30 8929 H 848.843 3.70953 2.7421 0
M  V30 8930 H 847.086 3.5292 2.52249 0
M  V30 8931 H 847.757 3.63665 4.15273 0
M  V30 8932 H 850.233 1.74685 3.77657 0
M  V30 8933 H 849.109 1.89371 5.15199 0
M  V30 8934 H 849.37 0.323505 4.40915 0
M  V30 8935 N 848.429 -1.21819 0.999893 0
M  V30 8936 C 849.677 -1.90375 0.678351 0
M  V30 8937 C 849.998 -1.78155 -0.792824 0
M  V30 8938 O 849.268 -1.17319 -1.56885 0
M  V30 8939 H 847.848 -0.704661 0.247915 0
M  V30 8940 H 850.51 -1.48021 1.2679 0
M  V30 8941 H 849.606 -2.97385 0.947023 0
M  V30 8942 N 849.908 -0.773975 -1.37286 0
M  V30 8943 C 851.324 -0.45386 -1.53011 0
M  V30 8944 C 851.524 1.03018 -1.73175 0
M  V30 8945 O 850.58 1.81597 -1.75438 0
M  V30 8946 C 851.893 -1.27087 -2.72524 0
M  V30 8947 C 853.441 -1.26299 -2.86387 0
M  V30 8948 C 853.916 -2.0634 -4.08886 0
M  V30 8949 N 855.407 -2.03706 -4.16003 0
M  V30 8950 C 856.142 -2.62418 -5.09828 0
M  V30 8951 N 855.638 -3.29926 -6.09197 0
M  V30 8952 N 857.431 -2.52236 -5.02328 0
M  V30 8953 H 849.582 -1.73551 -1.22449 0
M  V30 8954 H 851.845 -0.736874 -0.596423 0
M  V30 8955 H 851.551 -2.32263 -2.64096 0
M  V30 8956 H 851.425 -0.90157 -3.66267 0
M  V30 8957 H 853.812 -0.219213 -2.94285 0
M  V30 8958 H 853.893 -1.67195 -1.93596 0
M  V30 8959 H 853.537 -3.10741 -4.01749 0
M  V30 8960 H 853.467 -1.62825 -5.00795 0
M  V30 8961 H 855.958 -1.54559 -3.44848 0
M  V30 8962 H 856.271 -3.72095 -6.77322 0
M  V30 8963 H 854.616 -3.34026 -6.09469 0
M  V30 8964 H 857.807 -1.99108 -4.23643 0
M  V30 8965 H 857.98 -2.98286 -5.75265 0
M  V30 8966 N 851.386 1.48609 -0.524698 0
M  V30 8967 C 852.797 1.86516 -0.0828846 0
M  V30 8968 C 853.148 1.43478 1.33822 0
M  V30 8969 O 852.273 0.823139 2.00133 0
M  V30 8970 C 852.868 3.38495 -0.143639 0
M  V30 8971 C 851.427 3.75615 0.242951 0
M  V30 8972 C 850.574 2.72649 -0.505747 0
M  V30 8973 H 853.525 1.40589 -0.736233 0
M  V30 8974 H 853.546 3.74977 0.645955 0
M  V30 8975 H 853.058 3.69789 -1.17805 0
M  V30 8976 H 851.159 3.49935 1.27971 0
M  V30 8977 H 851.272 4.7901 -0.0929834 0
M  V30 8978 H 849.636 2.54656 0.0473482 0
M  V30 8979 H 850.419 3.06786 -1.54069 0
M  V30 8980 N 852.864 0.259585 1.55447 0
M  V30 8981 C 853.794 -0.62852 2.24882 0
M  V30 8982 C 854.775 -1.17128 1.23349 0
M  V30 8983 O 855.96 -1.20829 1.52033 0
M  V30 8984 C 853.09 -1.81983 2.95803 0
M  V30 8985 C 852.044 -1.40929 4.04132 0
M  V30 8986 C 851.37 -2.68246 4.62545 0
M  V30 8987 C 852.67 -0.570956 5.1917 0
M  V30 8988 H 854.364 -0.0495021 2.99359 0
M  V30 8989 H 851.91 -0.0223688 1.43983 0
M  V30 8990 H 853.863 -2.44689 3.43082 0
M  V30 8991 H 852.587 -2.42444 2.18835 0
M  V30 8992 H 851.246 -0.805519 3.57641 0
M  V30 8993 H 850.894 -3.26931 3.82263 0
M  V30 8994 H 850.594 -2.41495 5.35681 0
M  V30 8995 H 852.118 -3.31827 5.12565 0
M  V30 8996 H 853.532 -1.10262 5.62597 0
M  V30 8997 H 851.929 -0.398979 5.98772 0
M  V30 8998 H 852.999 0.413918 4.8313 0
M  V30 8999 N 854.342 -1.57594 -0.0133615 0
M  V30 9000 C 855.753 -1.78168 -0.557937 0
M  V30 9001 C 856.104 -0.892616 -1.74719 0
M  V30 9002 O 855.229 -0.0915491 -2.16206 0
M  V30 9003 C 855.824 -3.23115 -1.01894 0
M  V30 9004 C 854.383 -3.44831 -1.50892 0
M  V30 9005 C 853.53 -2.73558 -0.454044 0
M  V30 9006 H 856.481 -1.57266 0.212843 0
M  V30 9007 H 856.502 -3.30493 -1.8856 0
M  V30 9008 H 856.014 -3.87798 -0.153175 0
M  V30 9009 H 854.115 -2.85345 -2.39602 0
M  V30 9010 H 854.228 -4.53485 -1.54559 0
M  V30 9011 H 852.592 -2.37787 -0.912666 0
M  V30 9012 H 853.375 -3.40932 0.402524 0
M  V30 9013 N 855.82 0.285905 -1.54985 0
M  V30 9014 C 856.77 1.35505 -1.83364 0
M  V30 9015 C 857.754 1.45273 -0.691698 0
M  V30 9016 O 858.946 1.49172 -0.952725 0
M  V30 9017 C 856.075 2.71756 -2.0977 0
M  V30 9018 C 855.161 2.6615 -3.30189 0
M  V30 9019 N 855.552 2.30161 -4.50399 0
M  V30 9020 C 853.85 2.97232 -3.3252 0
M  V30 9021 C 854.551 2.34228 -5.32459 0
M  V30 9022 N 853.527 2.72187 -4.70548 0
M  V30 9023 H 857.329 1.06668 -2.7386 0
M  V30 9024 H 854.843 0.494521 -1.54688 0
M  V30 9025 H 856.84 3.48864 -2.28253 0
M  V30 9026 H 855.5 3.01492 -1.20551 0
M  V30 9027 H 856.511 2.02358 -4.7673 0
M  V30 9028 H 853.188 3.31764 -2.53454 0
M  V30 9029 H 854.578 2.09074 -6.38543 0
M  V30 9030 N 857.298 1.47698 0.54982 0
M  V30 9031 C 858.228 1.63622 1.66583 0
M  V30 9032 C 859.209 0.485477 1.63025 0
M  V30 9033 O 860.394 0.715692 1.80531 0
M  V30 9034 C 857.524 1.65721 3.05211 0
M  V30 9035 C 856.478 2.80097 3.2362 0
M  V30 9036 C 855.804 2.67272 4.63109 0
M  V30 9037 C 857.104 4.21612 3.08286 0
M  V30 9038 H 858.798 2.57049 1.53512 0
M  V30 9039 H 856.344 1.23705 0.737099 0
M  V30 9040 H 858.297 1.75451 3.83138 0
M  V30 9041 H 857.021 0.688593 3.19258 0
M  V30 9042 H 855.68 2.69889 2.48104 0
M  V30 9043 H 855.328 1.68422 4.73965 0
M  V30 9044 H 855.028 3.44008 4.76374 0
M  V30 9045 H 856.552 2.78942 5.43161 0
M  V30 9046 H 857.966 4.32758 3.76024 0
M  V30 9047 H 856.363 4.99193 3.33057 0
M  V30 9048 H 857.433 4.39462 2.04942 0
M  V30 9049 N 858.776 -0.797141 1.35954 0
M  V30 9050 C 859.739 -1.89104 1.29508 0
M  V30 9051 C 860.739 -1.59495 0.204444 0
M  V30 9052 O 861.929 -1.68051 0.458746 0
M  V30 9053 C 859.061 -3.25726 1.00576 0
M  V30 9054 H 860.254 -1.96237 2.26785 0
M  V30 9055 H 857.807 -0.994075 1.20614 0
M  V30 9056 H 858.542 -3.24279 0.0372519 0
M  V30 9057 H 858.327 -3.48604 1.79492 0
M  V30 9058 H 859.817 -4.0578 0.986508 0
M  V30 9059 N 860.254 -1.20106 -1.0204 0
M  V30 9060 C 861.217 -0.948261 -2.08664 0
M  V30 9061 C 862.217 0.0746753 -1.60627 0
M  V30 9062 O 863.407 -0.160981 -1.73455 0
M  V30 9063 C 860.539 -0.426854 -3.38217 0
M  V30 9064 H 861.732 -1.894 -2.32524 0
M  V30 9065 H 859.285 -1.0159 -1.18782 0
M  V30 9066 H 860.02 0.524532 -3.2003 0
M  V30 9067 H 859.805 -1.16451 -3.74408 0
M  V30 9068 H 861.295 -0.269346 -4.1673 0
M  V30 9069 N 861.732 1.21287 -1.00634 0
M  V30 9070 C 863.009 1.86 -0.605257 0
M  V30 9071 C 863.389 1.90139 0.917072 0
M  V30 9072 O 862.737 1.40169 1.80458 0
M  V30 9073 C 862.947 3.26183 -1.24119 0
M  V30 9074 C 864.295 4.02562 -1.35015 0
M  V30 9075 O 865.319 3.35499 -1.19661 0
M  V30 9076 O 864.178 5.22638 -1.59726 0
M  V30 9077 H 861.272 0.800549 -0.207486 0
M  V30 9078 H 863.818 1.28959 -1.10307 0
M  V30 9079 H 862.59 3.17878 -2.28186 0
M  V30 9080 H 862.213 3.90845 -0.729807 0
M  V30 9081 N 863.21 0.781244 1.36873 0
M  V30 9082 C 864.143 0.120106 2.27884 0
M  V30 9083 C 865.121 -0.698961 1.4681 0
M  V30 9084 O 866.305 -0.671694 1.76126 0
M  V30 9085 C 863.432 -0.835804 3.28226 0
M  V30 9086 C 862.478 -0.0995527 4.26384 0
M  V30 9087 S 863.311 1.21903 5.2144 0
M  V30 9088 C 864.467 0.266904 6.25331 0
M  V30 9089 H 864.7 0.891796 2.83609 0
M  V30 9090 H 862.233 0.575075 1.43291 0
M  V30 9091 H 864.191 -1.3819 3.86541 0
M  V30 9092 H 862.852 -1.58068 2.71428 0
M  V30 9093 H 862.045 -0.82457 4.97209 0
M  V30 9094 H 861.647 0.375818 3.72107 0
M  V30 9095 H 863.939 -0.55725 6.75204 0
M  V30 9096 H 864.882 0.943603 7.01785 0
M  V30 9097 H 865.29 -0.126121 5.64359 0
M  V30 9098 N 864.689 -1.48329 0.532571 0
M  V30 9099 C 865.621 -2.27652 -0.265931 0
M  V30 9100 C 866.634 -1.35522 -0.902083 0
M  V30 9101 O 867.823 -1.60552 -0.780088 0
M  V30 9102 C 864.923 -3.0899 -1.39207 0
M  V30 9103 C 864.096 -4.28915 -0.857349 0
M  V30 9104 C 863.155 -4.92044 -1.86493 0
M  V30 9105 O 862.181 -5.51181 -1.42084 0
M  V30 9106 N 863.383 -4.84518 -3.19723 0
M  V30 9107 H 866.148 -2.96821 0.414389 0
M  V30 9108 H 863.709 -1.57684 0.367066 0
M  V30 9109 H 865.701 -3.48091 -2.06433 0
M  V30 9110 H 864.271 -2.42224 -1.97601 0
M  V30 9111 H 863.491 -3.94199 -0.00901765 0
M  V30 9112 H 864.779 -5.0654 -0.479025 0
M  V30 9113 H 864.177 -4.37628 -3.58467 0
M  V30 9114 H 862.734 -5.27712 -3.82575 0
M  V30 9115 N 866.167 -0.267825 -1.55308 0
M  V30 9116 C 867.13 0.60965 -2.20943 0
M  V30 9117 C 868.13 1.0869 -1.18504 0
M  V30 9118 O 869.32 0.988248 -1.43455 0
M  V30 9119 C 866.452 1.84027 -2.86961 0
M  V30 9120 H 867.645 0.0366806 -2.99878 0
M  V30 9121 H 865.198 -0.0183941 -1.56289 0
M  V30 9122 H 865.933 2.45394 -2.1202 0
M  V30 9123 H 865.718 1.50605 -3.62023 0
M  V30 9124 H 867.208 2.46442 -3.37129 0
M  V30 9125 N 867.645 1.57599 0.00500368 0
M  V30 9126 C 868.87 1.95026 0.705663 0
M  V30 9127 C 869.295 0.869643 1.6679 0
M  V30 9128 O 868.653 -0.172659 1.80476 0
M  V30 9129 C 868.701 3.31545 1.4181 0
M  V30 9130 O 867.805 3.25495 2.53232 0
M  V30 9131 H 867.146 0.636808 0.188074 0
M  V30 9132 H 869.676 2.04547 -0.046696 0
M  V30 9133 H 869.686 3.66996 1.78265 0
M  V30 9134 H 868.361 4.09751 0.712543 0
M  V30 9135 H 866.938 3.01714 2.19142 0
M  V30 9136 N 869.123 -0.277682 1.55134 0
M  V30 9137 C 870.371 -1.00791 1.75173 0
M  V30 9138 C 870.692 -1.86987 0.553266 0
M  V30 9139 O 869.962 -1.91079 -0.43195 0
M  V30 9140 H 868.542 -0.375129 0.645978 0
M  V30 9141 H 871.204 -0.303041 1.9253 0
M  V30 9142 H 870.3 -1.64756 2.6507 0
M  V30 9143 N 870.601 -1.47988 -0.541979 0
M  V30 9144 C 871.511 -1.64276 -1.67483 0
M  V30 9145 C 872.527 -0.525387 -1.65879 0
M  V30 9146 O 873.703 -0.794912 -1.85049 0
M  V30 9147 C 870.768 -1.66744 -3.03969 0
M  V30 9148 C 869.829 -2.90021 -3.16522 0
M  V30 9149 C 869.062 -2.92362 -4.46498 0
M  V30 9150 O 869.285 -2.03462 -5.32878 0
M  V30 9151 O 868.219 -3.84399 -4.63164 0
M  V30 9152 H 872.045 -2.60164 -1.5668 0
M  V30 9153 H 869.63 -1.31249 -0.71372 0
M  V30 9154 H 871.512 -1.70958 -3.85164 0
M  V30 9155 H 870.187 -0.740277 -3.15122 0
M  V30 9156 H 869.094 -2.91345 -2.34667 0
M  V30 9157 H 870.427 -3.82082 -3.10281 0
M  V30 9158 N 872.079 0.78992 -1.36375 0
M  V30 9159 C 873.042 1.88414 -1.30509 0
M  V30 9160 C 874.042 1.59384 -0.2129 0
M  V30 9161 O 875.232 1.67805 -0.467651 0
M  V30 9162 C 872.364 3.25188 -1.02302 0
M  V30 9163 H 873.557 1.95031 -2.27822 0
M  V30 9164 H 871.11 0.987664 -1.2114 0
M  V30 9165 H 871.845 3.24254 -0.0544486 0
M  V30 9166 H 871.63 3.47647 -1.81338 0
M  V30 9167 H 873.12 4.05252 -1.00801 0
M  V30 9168 N 873.557 1.20646 1.01402 0
M  V30 9169 C 874.803 1.0197 1.753 0
M  V30 9170 C 875.136 -0.446803 1.8899 0
M  V30 9171 O 874.411 -1.33169 1.41762 0
M  V30 9172 C 874.694 1.70693 3.17074 0
M  V30 9173 C 874.547 3.24805 3.11162 0
M  V30 9174 C 875.866 1.44212 4.15802 0
M  V30 9175 H 872.985 0.371844 0.636318 0
M  V30 9176 H 875.627 1.48696 1.18277 0
M  V30 9177 H 873.777 1.30968 3.65759 0
M  V30 9178 H 875.449 3.73841 2.70261 0
M  V30 9179 H 873.692 3.55576 2.48492 0
M  V30 9180 H 874.363 3.68049 4.11393 0
M  V30 9181 H 876.839 1.7868 3.75783 0
M  V30 9182 H 875.715 1.94825 5.13161 0
M  V30 9183 H 875.976 0.370252 4.40547 0
M  V30 9184 N 875.035 -1.20752 1.01276 0
M  V30 9185 C 876.265 -1.93725 0.717934 0
M  V30 9186 C 876.673 -1.74769 -0.724732 0
M  V30 9187 O 876.016 -1.05642 -1.50285 0
M  V30 9188 C 876.078 -3.46196 0.968954 0
M  V30 9189 C 875.742 -3.88909 2.39998 0
M  V30 9190 C 876.739 -3.94982 3.38061 0
M  V30 9191 C 874.424 -4.21006 2.7397 0
M  V30 9192 C 876.418 -4.32558 4.68159 0
M  V30 9193 C 874.105 -4.58257 4.04282 0
M  V30 9194 C 875.103 -4.64004 5.01187 0
M  V30 9195 O 874.791 -5.00403 6.29168 0
M  V30 9196 H 874.523 -0.622663 0.263186 0
M  V30 9197 H 877.077 -1.54299 1.35577 0
M  V30 9198 H 875.307 -3.85728 0.273952 0
M  V30 9199 H 876.996 -4.00394 0.666312 0
M  V30 9200 H 877.762 -3.70353 3.13151 0
M  V30 9201 H 873.641 -4.15725 1.99233 0
M  V30 9202 H 877.185 -4.36959 5.43795 0
M  V30 9203 H 873.082 -4.82341 4.28973 0
M  V30 9204 H 873.85 -5.18409 6.33399 0
M  V30 9205 N 876.513 -0.788492 -1.36457 0
M  V30 9206 C 877.753 -0.365855 -2.01099 0
M  V30 9207 C 878.117 1.04262 -1.61225 0
M  V30 9208 O 879.318 1.56628 -2.18451 0
M  V30 9209 C 877.589 -0.523344 -3.53548 0
M  V30 9210 S 879.148 -0.188448 -4.38395 0
M  V30 9211 H 875.966 -0.139832 -0.697114 0
M  V30 9212 H 878.568 -1.02678 -1.66365 0
M  V30 9213 H 877.272 -1.54874 -3.80055 0
M  V30 9214 H 876.803 0.153547 -3.931 0
M  V30 9215 H 878.818 1.0103 -4.85806 0
M  V30 9216 N 877.991 1.48044 -0.54043 0
M  V30 9217 C 879.268 1.95523 0.0547302 0
M  V30 9218 C 879.648 1.48284 1.5025 0
M  V30 9219 O 878.996 0.714037 2.17057 0
M  V30 9220 C 879.206 3.48923 -0.0733393 0
M  V30 9221 C 880.554 4.24523 0.0806026 0
M  V30 9222 O 881.578 3.562 -5.58687e-05 0
M  V30 9223 O 880.437 5.45922 0.251216 0
M  V30 9224 H 877.531 0.823728 0.073493 0
M  V30 9225 H 880.077 1.5852 -0.605768 0
M  V30 9226 H 878.849 3.76059 -1.08144 0
M  V30 9227 H 878.472 3.92648 0.625536 0
M  V30 9228 N 879.47 0.276058 1.55163 0
M  V30 9229 C 880.747 -0.392292 1.91626 0
M  V30 9230 C 881.127 -1.73646 1.20043 0
M  V30 9231 O 880.475 -2.26139 0.327606 0
M  V30 9232 C 880.685 -0.531641 3.44927 0
M  V30 9233 C 882.033 -0.8141 4.16722 0
M  V30 9234 O 883.057 -0.616413 3.50826 0
M  V30 9235 O 881.916 -1.19224 5.33337 0
M  V30 9236 H 879.01 -0.214945 0.798579 0
M  V30 9237 H 881.556 0.32228 1.66612 0
M  V30 9238 H 880.328 0.414282 3.89101 0
M  V30 9239 H 879.951 -1.29564 3.75897 0
M  V30 9240 N 880.948 -1.576 0.00335426 0
M  V30 9241 C 882.197 -1.89892 -0.680001 0
M  V30 9242 C 882.51 -0.878731 -1.7475 0
M  V30 9243 O 883.716 -1.09199 -2.48572 0
M  V30 9244 C 882.172 -3.37098 -1.26066 0
M  V30 9245 C 881.78 -4.4742 -0.227807 0
M  V30 9246 C 883.524 -3.78495 -1.92202 0
M  V30 9247 C 881.431 -5.85706 -0.81865 0
M  V30 9248 H 880.361 -0.708578 -0.257746 0
M  V30 9249 H 883.012 -1.83387 0.0644472 0
M  V30 9250 H 881.394 -3.38451 -2.05589 0
M  V30 9251 H 882.568 -4.57589 0.54307 0
M  V30 9252 H 880.883 -4.15064 0.333297 0
M  V30 9253 H 883.48 -4.7915 -2.37318 0
M  V30 9254 H 883.823 -3.12187 -2.75399 0
M  V30 9255 H 884.356 -3.79456 -1.19408 0
M  V30 9256 H 881.095 -6.55495 -0.0253787 0
M  V30 9257 H 880.615 -5.79196 -1.55861 0
M  V30 9258 H 882.294 -6.33469 -1.31627 0
M  V30 9259 N 882.426 0.269451 -1.5528 0
M  V30 9260 C 883.837 0.840233 -1.66724 0
M  V30 9261 C 884.188 1.86909 -0.596621 0
M  V30 9262 O 883.313 2.14817 0.261246 0
M  V30 9263 C 883.908 1.5308 -3.02245 0
M  V30 9264 C 882.467 2.04957 -3.15705 0
M  V30 9265 C 881.614 0.892838 -2.62533 0
M  V30 9266 H 884.565 0.0457236 -1.58634 0
M  V30 9267 H 884.586 2.39792 -2.95432 0
M  V30 9268 H 884.098 0.781741 -3.80145 0
M  V30 9269 H 882.199 2.82813 -2.42585 0
M  V30 9270 H 882.312 2.26244 -4.22316 0
M  V30 9271 H 880.676 1.28719 -2.19781 0
M  V30 9272 H 881.459 0.157229 -3.4294 0
M  V30 9273 N 883.904 1.48273 0.534124 0
M  V30 9274 C 885.32 1.34302 0.862272 0
M  V30 9275 C 885.52 0.350902 1.98421 0
M  V30 9276 O 884.576 -0.229364 2.51456 0
M  V30 9277 C 885.889 2.74227 1.23371 0
M  V30 9278 C 887.437 2.82684 1.34383 0
M  V30 9279 C 887.912 4.23301 1.74871 0
M  V30 9280 N 889.403 4.25954 1.81981 0
M  V30 9281 C 890.138 5.31693 2.14686 0
M  V30 9282 N 889.634 6.47714 2.45844 0
M  V30 9283 N 891.427 5.19084 2.15657 0
M  V30 9284 H 883.578 2.11397 -0.206215 0
M  V30 9285 H 885.841 0.947537 -0.0296116 0
M  V30 9286 H 885.547 3.48368 0.482967 0
M  V30 9287 H 885.421 3.07485 2.18478 0
M  V30 9288 H 887.808 2.08801 2.08534 0
M  V30 9289 H 887.889 2.5305 0.374063 0
M  V30 9290 H 887.533 4.97699 1.01282 0
M  V30 9291 H 887.463 4.50376 2.7289 0
M  V30 9292 H 889.954 3.42266 1.60196 0
M  V30 9293 H 890.267 7.2414 2.69892 0
M  V30 9294 H 888.612 6.50995 2.43372 0
M  V30 9295 H 891.803 4.27463 1.9077 0
M  V30 9296 H 891.976 6.01592 2.40813 0
M  V30 9297 N 885.382 -0.782676 1.36792 0
M  V30 9298 C 886.612 -1.56934 1.3437 0
M  V30 9299 C 887.02 -1.89049 -0.0754828 0
M  V30 9300 O 886.363 -1.51103 -1.04467 0
M  V30 9301 C 886.425 -2.91311 2.10661 0
M  V30 9302 C 886.089 -2.81889 3.59705 0
M  V30 9303 C 887.086 -2.53668 4.53815 0
M  V30 9304 C 884.771 -3.00254 4.02682 0
M  V30 9305 C 886.765 -2.43925 5.8888 0
M  V30 9306 C 884.452 -2.90132 5.37835 0
M  V30 9307 C 885.45 -2.62006 6.30747 0
M  V30 9308 O 885.138 -2.5189 7.63418 0
M  V30 9309 H 884.87 -0.493194 0.462316 0
M  V30 9310 H 887.424 -0.978791 1.80579 0
M  V30 9311 H 885.654 -3.52443 1.59125 0
M  V30 9312 H 887.343 -3.52632 2.01012 0
M  V30 9313 H 888.109 -2.39176 4.21924 0
M  V30 9314 H 883.988 -3.21151 3.30731 0
M  V30 9315 H 887.532 -2.21892 6.6137 0
M  V30 9316 H 883.429 -3.04189 5.69332 0
M  V30 9317 H 884.197 -2.67321 7.73616 0
M  V30 9318 N 886.86 -1.21182 -1.00761 0
M  V30 9319 C 887.77 -0.984691 -2.12934 0
M  V30 9320 C 888.786 0.0623657 -1.73888 0
M  V30 9321 O 889.962 -0.1271 -2.00999 0
M  V30 9322 C 887.027 -0.549447 -3.42319 0
M  V30 9323 C 886.088 -1.66841 -3.95553 0
M  V30 9324 C 885.321 -1.25384 -5.18763 0
M  V30 9325 O 885.544 -0.126333 -5.7026 0
M  V30 9326 O 884.478 -2.06475 -5.65377 0
M  V30 9327 H 888.304 -1.92413 -2.3497 0
M  V30 9328 H 885.889 -0.99647 -1.11314 0
M  V30 9329 H 887.771 -0.316384 -4.20211 0
M  V30 9330 H 886.446 0.361304 -3.21677 0
M  V30 9331 H 885.353 -1.95585 -3.189 0
M  V30 9332 H 886.686 -2.55649 -4.206 0
M  V30 9333 N 888.338 1.20213 -1.01915 0
M  V30 9334 C 889.286 2.25125 -0.584936 0
M  V30 9335 C 890.28 1.65138 0.377602 0
M  V30 9336 O 891.486 1.78294 0.247245 0
M  V30 9337 H 887.861 0.732333 -0.170858 0
M  V30 9338 H 889.832 2.59075 -1.48063 0
M  V30 9339 C 888.581 3.47651 0.058389 0
M  V30 9340 H 887.904 3.9409 -0.673263 0
M  V30 9341 H 889.344 4.2275 0.325285 0
M  V30 9342 C 887.803 3.10725 1.30199 0
M  V30 9343 O 888.333 3.22491 2.39505 0
M  V30 9344 N 886.539 2.6525 1.18706 0
M  V30 9345 H 886.086 2.55875 0.297618 0
M  V30 9346 H 886.044 2.40913 2.02011 0
M  V30 9347 N 889.816 0.795718 1.36037 0
M  V30 9348 C 890.726 0.199784 2.33748 0
M  V30 9349 C 891.742 -0.651436 1.61345 0
M  V30 9350 O 892.918 -0.565743 1.93291 0
M  V30 9351 C 889.983 -0.650475 3.40543 0
M  V30 9352 C 889.044 0.219974 4.28736 0
M  V30 9353 C 888.277 -0.589798 5.30431 0
M  V30 9354 O 888.5 -1.82532 5.40406 0
M  V30 9355 O 887.434 0.0136187 6.01898 0
M  V30 9356 H 891.26 1.00782 2.8649 0
M  V30 9357 H 888.845 0.557293 1.38617 0
M  V30 9358 H 890.727 -1.13512 4.05824 0
M  V30 9359 H 889.402 -1.4363 2.9009 0
M  V30 9360 H 888.309 0.751516 3.66474 0
M  V30 9361 H 889.642 0.969468 4.82558 0
M  V30 9362 N 891.294 -1.47756 0.548274 0
M  V30 9363 C 892.224 -2.32702 -0.19284 0
M  V30 9364 C 893.205 -1.43237 -0.917457 0
M  V30 9365 O 894.39 -1.72103 -0.89967 0
M  V30 9366 C 891.52 -3.24831 -1.22891 0
M  V30 9367 C 890.474 -4.23466 -0.621312 0
M  V30 9368 C 889.8 -5.04856 -1.76137 0
M  V30 9369 C 891.1 -5.20616 0.419055 0
M  V30 9370 H 892.794 -2.94914 0.516323 0
M  V30 9371 H 890.34 -1.41818 0.24975 0
M  V30 9372 H 892.293 -3.83094 -1.75547 0
M  V30 9373 H 891.017 -2.60656 -1.9679 0
M  V30 9374 H 889.676 -3.66416 -0.116123 0
M  V30 9375 H 889.324 -4.37091 -2.48918 0
M  V30 9376 H 889.024 -5.71629 -1.36065 0
M  V30 9377 H 890.548 -5.65976 -2.29136 0
M  V30 9378 H 891.962 -5.73296 -0.0211034 0
M  V30 9379 H 890.359 -5.95543 0.738163 0
M  V30 9380 H 891.429 -4.66638 1.31822 0
M  V30 9381 N 892.772 -0.284283 -1.55015 0
M  V30 9382 C 893.997 0.335799 -2.04664 0
M  V30 9383 C 894.422 1.47999 -1.16094 0
M  V30 9384 O 893.78 1.8058 -0.161454 0
M  V30 9385 C 893.828 0.785615 -3.51938 0
M  V30 9386 O 892.932 1.89202 -3.66437 0
M  V30 9387 H 892.273 0.0680233 -0.660506 0
M  V30 9388 H 894.803 -0.421255 -2.00216 0
M  V30 9389 H 894.813 1.07892 -3.93476 0
M  V30 9390 H 893.488 -0.0514675 -4.15868 0
M  V30 9391 H 892.065 1.60055 -3.36804 0
M  V30 9392 N 894.251 1.57596 -0.0117121 0
M  V30 9393 C 895.181 2.12188 0.9746 0
M  V30 9394 C 896.162 1.03379 1.35081 0
M  V30 9395 O 897.347 1.31123 1.4325 0
M  V30 9396 C 894.477 2.63477 2.26268 0
M  V30 9397 C 893.431 3.76917 2.02774 0
M  V30 9398 C 892.757 4.14566 3.37697 0
M  V30 9399 C 894.057 5.03715 1.38089 0
M  V30 9400 H 895.751 2.9485 0.520007 0
M  V30 9401 H 893.297 1.41836 0.248685 0
M  V30 9402 H 895.25 3.00299 2.95633 0
M  V30 9403 H 893.974 1.77953 2.73862 0
M  V30 9404 H 892.633 3.40507 1.35832 0
M  V30 9405 H 892.281 3.26048 3.83016 0
M  V30 9406 H 891.981 4.91 3.22789 0
M  V30 9407 H 893.505 4.53956 4.08358 0
M  V30 9408 H 894.919 5.38233 1.97428 0
M  V30 9409 H 893.316 5.85032 1.33634 0
M  V30 9410 H 894.386 4.83624 0.351575 0
M  V30 9411 N 895.729 -0.261212 1.5542 0
M  V30 9412 C 897.145 -0.609012 1.47524 0
M  V30 9413 C 897.345 -1.88986 0.699042 0
M  V30 9414 O 896.401 -2.51517 0.222628 0
M  V30 9415 C 897.714 -0.725025 2.91828 0
M  V30 9416 C 899.262 -0.818302 3.02114 0
M  V30 9417 C 899.737 -0.965996 4.47697 0
M  V30 9418 N 901.228 -1.03123 4.51575 0
M  V30 9419 C 901.963 -1.16451 5.6145 0
M  V30 9420 N 901.459 -1.26425 6.81167 0
M  V30 9421 N 903.252 -1.19655 5.49217 0
M  V30 9422 H 895.403 0.579807 2.04333 0
M  V30 9423 H 897.666 0.198072 0.927077 0
M  V30 9424 H 897.372 0.145871 3.51397 0
M  V30 9425 H 897.246 -1.60156 3.41511 0
M  V30 9426 H 899.633 -1.67966 2.42634 0
M  V30 9427 H 899.714 0.0830895 2.55665 0
M  V30 9428 H 899.358 -0.109251 5.07782 0
M  V30 9429 H 899.288 -1.88221 4.91813 0
M  V30 9430 H 901.779 -0.966072 3.65343 0
M  V30 9431 H 902.092 -1.36462 7.60656 0
M  V30 9432 H 900.437 -1.23408 6.83956 0
M  V30 9433 H 903.628 -1.11501 4.54626 0
M  V30 9434 H 903.801 -1.29698 6.34888 0
M  V30 9435 N 897.207 -1.48554 -0.526253 0
M  V30 9436 C 898.137 -1.66252 -1.63959 0
M  V30 9437 C 899.118 -0.511351 -1.62232 0
M  V30 9438 O 900.303 -0.744322 -1.7937 0
M  V30 9439 C 897.433 -1.70556 -3.02536 0
M  V30 9440 C 896.387 -2.8521 -3.19123 0
M  V30 9441 C 895.713 -2.74606 -4.58798 0
M  V30 9442 C 897.013 -4.26463 -3.0154 0
M  V30 9443 H 898.707 -2.59459 -1.49404 0
M  V30 9444 H 896.253 -1.24862 -0.717326 0
M  V30 9445 H 898.206 -1.81524 -3.80298 0
M  V30 9446 H 896.93 -0.739297 -3.18123 0
M  V30 9447 H 895.589 -2.73802 -2.43779 0
M  V30 9448 H 895.237 -1.75941 -4.71226 0
M  V30 9449 H 894.937 -3.51544 -4.70841 0
M  V30 9450 H 896.461 -2.87548 -5.38655 0
M  V30 9451 H 897.875 -4.38685 -3.69091 0
M  V30 9452 H 896.272 -5.04428 -3.25073 0
M  V30 9453 H 897.342 -4.42667 -1.97925 0
M  V30 9454 N 898.685 0.775411 -1.37205 0
M  V30 9455 C 899.931 1.53611 -1.32407 0
M  V30 9456 C 900.264 1.9398 0.0924103 0
M  V30 9457 O 899.539 1.63791 1.04893 0
M  V30 9458 C 899.822 2.80367 -2.25979 0
M  V30 9459 C 899.675 2.46275 -3.76389 0
M  V30 9460 C 900.994 3.82277 -2.18064 0
M  V30 9461 H 898.113 0.557278 -0.482297 0
M  V30 9462 H 900.755 0.889826 -1.67875 0
M  V30 9463 H 898.905 3.35515 -1.95862 0
M  V30 9464 H 900.577 1.9707 -4.17087 0
M  V30 9465 H 898.82 1.79023 -3.95137 0
M  V30 9466 H 899.491 3.36868 -4.37291 0
M  V30 9467 H 901.967 3.36613 -2.44604 0
M  V30 9468 H 900.843 4.68696 -2.85684 0
M  V30 9469 H 901.104 4.26272 -1.17239 0
M  V30 9470 N 900.163 1.21714 1.00117 0
M  V30 9471 C 901.391 1.06278 1.77518 0
M  V30 9472 C 901.806 -0.387193 1.84787 0
M  V30 9473 O 901.163 -1.26854 1.31203 0
M  V30 9474 C 901.214 1.65795 3.21239 0
M  V30 9475 O 900.935 3.05119 3.14378 0
M  V30 9476 C 902.436 1.55521 4.15124 0
M  V30 9477 H 899.656 0.373013 0.557765 0
M  V30 9478 H 902.2 1.61133 1.25922 0
M  V30 9479 H 900.355 1.15022 3.69931 0
M  V30 9480 H 900.769 3.33643 4.04701 0
M  V30 9481 H 902.243 2.01902 5.13751 0
M  V30 9482 H 902.72 0.510307 4.36225 0
M  V30 9483 H 903.326 2.0556 3.72324 0
M  V30 9484 N 901.641 -1.19671 1.02551 0
M  V30 9485 C 902.866 -1.93774 0.739363 0
M  V30 9486 C 903.291 -1.74787 -0.695064 0
M  V30 9487 O 902.649 -1.04796 -1.47944 0
M  V30 9488 C 902.697 -3.43684 1.09149 0
M  V30 9489 O 901.801 -4.11874 0.208213 0
M  V30 9490 H 901.142 -0.605064 0.273484 0
M  V30 9491 H 903.672 -1.51846 1.37128 0
M  V30 9492 H 903.682 -3.94339 1.04695 0
M  V30 9493 H 902.357 -3.56826 2.13654 0
M  V30 9494 H 900.934 -3.716 0.311045 0
M  V30 9495 N 903.119 -0.802921 -1.35613 0
M  V30 9496 C 904.347 -0.39393 -2.03115 0
M  V30 9497 C 904.762 0.993961 -1.60517 0
M  V30 9498 O 904.119 1.63984 -0.800973 0
M  V30 9499 C 904.17 -0.463486 -3.58516 0
M  V30 9500 O 903.891 -1.79666 -3.99565 0
M  V30 9501 C 905.392 -0.0468377 -4.43275 0
M  V30 9502 H 902.612 -0.160519 -0.651517 0
M  V30 9503 H 905.156 -1.08552 -1.73311 0
M  V30 9504 H 903.311 0.179821 -3.86982 0
M  V30 9505 H 903.725 -1.75688 -4.942 0
M  V30 9506 H 905.199 -0.146626 -5.51805 0
M  V30 9507 H 905.676 1.00741 -4.2749 0
M  V30 9508 H 906.282 -0.663158 -4.20098 0
M  V30 9509 N 904.597 1.47463 -0.556102 0
M  V30 9510 C 906.013 1.58134 -0.21579 0
M  V30 9511 C 906.213 1.55486 1.28166 0
M  V30 9512 O 905.269 1.45768 2.06174 0
M  V30 9513 C 906.582 2.88686 -0.841464 0
M  V30 9514 C 908.13 3.02268 -0.812591 0
M  V30 9515 C 908.605 4.35518 -1.41731 0
M  V30 9516 N 910.096 4.42151 -1.38045 0
M  V30 9517 C 910.831 5.43817 -1.81799 0
M  V30 9518 N 910.327 6.52299 -2.33404 0
M  V30 9519 N 912.12 5.34855 -1.72877 0
M  V30 9520 H 904.271 1.47428 -1.52901 0
M  V30 9521 H 906.534 0.701586 -0.637559 0
M  V30 9522 H 906.24 2.96358 -1.8938 0
M  V30 9523 H 906.114 3.7572 -0.333846 0
M  V30 9524 H 908.501 2.94194 0.231056 0
M  V30 9525 H 908.582 2.16779 -1.35796 0
M  V30 9526 H 908.226 4.44348 -2.46002 0
M  V30 9527 H 908.156 5.19737 -0.847402 0
M  V30 9528 H 910.647 3.64348 -1.00296 0
M  V30 9529 H 910.96 7.26047 -2.64717 0
M  V30 9530 H 909.305 6.53192 -2.37414 0
M  V30 9531 H 912.496 4.49004 -1.32338 0
M  V30 9532 H 912.669 6.13949 -2.07294 0
M  V30 9533 N 906.075 0.2925 1.54862 0
M  V30 9534 C 907.038 -0.574423 2.21885 0
M  V30 9535 C 908.038 -1.06791 1.20218 0
M  V30 9536 O 909.228 -0.9653 1.45009 0
M  V30 9537 C 906.36 -1.79438 2.89853 0
M  V30 9538 H 907.553 0.0110319 2.99898 0
M  V30 9539 H 905.106 0.043256 1.5624 0
M  V30 9540 H 905.841 -2.4199 2.15897 0
M  V30 9541 H 905.626 -1.44827 3.64373 0
M  V30 9542 H 907.116 -2.41048 3.41007 0
M  V30 9543 N 907.553 -1.57587 0.0200696 0
M  V30 9544 C 908.503 -2.0616 -0.973751 0
M  V30 9545 C 909.487 -0.960282 -1.29102 0
M  V30 9546 O 910.679 -1.22391 -1.27865 0
M  V30 9547 C 907.808 -2.58487 -2.25919 0
M  V30 9548 C 906.894 -3.75533 -1.97068 0
M  V30 9549 N 907.285 -4.86482 -1.38451 0
M  V30 9550 C 905.583 -3.83847 -2.27107 0
M  V30 9551 C 906.284 -5.67773 -1.26527 0
M  V30 9552 N 905.26 -5.14398 -1.75772 0
M  V30 9553 H 909.062 -2.89346 -0.515365 0
M  V30 9554 H 906.576 -1.61341 -0.185163 0
M  V30 9555 H 908.573 -2.91572 -2.97979 0
M  V30 9556 H 907.233 -1.76728 -2.72392 0
M  V30 9557 H 908.244 -5.06922 -1.06069 0
M  V30 9558 H 904.921 -3.12978 -2.76316 0
M  V30 9559 H 906.311 -6.66966 -0.812785 0
M  V30 9560 N 909.032 0.252966 -1.55557 0
M  V30 9561 C 909.995 1.29645 -1.8901 0
M  V30 9562 C 910.995 1.41378 -0.766096 0
M  V30 9563 O 912.185 1.40183 -1.03414 0
M  V30 9564 C 909.317 2.67504 -2.11316 0
M  V30 9565 H 910.51 1.01202 -2.82309 0
M  V30 9566 H 908.063 0.491977 -1.48355 0
M  V30 9567 H 908.798 3.01095 -1.20466 0
M  V30 9568 H 908.583 2.6037 -2.93172 0
M  V30 9569 H 910.073 3.42861 -2.38403 0
M  V30 9570 N 910.51 1.48831 0.518367 0
M  V30 9571 C 911.457 1.64216 1.62178 0
M  V30 9572 C 912.427 0.483942 1.58894 0
M  V30 9573 O 913.612 0.708857 1.77144 0
M  V30 9574 C 910.752 1.69867 3.00399 0
M  V30 9575 C 909.865 2.96875 3.1383 0
M  V30 9576 C 909 2.93613 4.42679 0
M  V30 9577 C 908.039 4.15276 4.4968 0
M  V30 9578 N 907.176 4.10024 5.69934 0
M  V30 9579 H 912.016 2.58439 1.48368 0
M  V30 9580 H 909.553 1.28154 0.722152 0
M  V30 9581 H 911.511 1.71124 3.8049 0
M  V30 9582 H 910.141 0.791249 3.12952 0
M  V30 9583 H 909.193 3.0531 2.26914 0
M  V30 9584 H 910.505 3.86863 3.14863 0
M  V30 9585 H 909.659 2.93337 5.31073 0
M  V30 9586 H 908.398 2.01375 4.44184 0
M  V30 9587 H 907.403 4.15816 3.59691 0
M  V30 9588 H 908.628 5.08687 4.49904 0
M  V30 9589 H 906.574 3.20613 5.72314 0
M  V30 9590 H 906.491 4.93728 5.72511 0
M  V30 9591 H 907.759 4.13824 6.60583 0
M  V30 9592 N 911.988 -0.768124 1.37614 0
M  V30 9593 C 913.237 -1.5221 1.32345 0
M  V30 9594 C 913.55 -1.95399 -0.0885761 0
M  V30 9595 O 914.756 -2.70216 -0.263752 0
M  V30 9596 C 913.212 -2.74872 2.32322 0
M  V30 9597 C 912.82 -2.38767 3.79071 0
M  V30 9598 C 914.564 -3.52805 2.36069 0
M  V30 9599 C 912.471 -3.57953 4.7077 0
M  V30 9600 H 911.401 -0.571461 0.491883 0
M  V30 9601 H 914.052 -0.841004 1.63093 0
M  V30 9602 H 912.434 -3.44889 1.94596 0
M  V30 9603 H 913.608 -1.7651 4.25654 0
M  V30 9604 H 911.923 -1.74 3.78303 0
M  V30 9605 H 914.52 -4.41397 3.01782 0
M  V30 9606 H 914.863 -3.92925 1.37535 0
M  V30 9607 H 915.396 -2.89788 2.72521 0
M  V30 9608 H 912.135 -3.22911 5.70446 0
M  V30 9609 H 911.655 -4.19302 4.28889 0
M  V30 9610 H 913.334 -4.2472 4.8808 0
M  V30 9611 N 913.466 -1.22244 -0.994698 0
M  V30 9612 C 914.413 -0.990906 -2.08446 0
M  V30 9613 C 915.383 0.086737 -1.65873 0
M  V30 9614 O 916.568 -0.0624882 -1.90698 0
M  V30 9615 C 913.708 -0.572813 -3.40313 0
M  V30 9616 C 912.821 -1.72103 -3.96238 0
M  V30 9617 C 911.956 -1.2511 -5.16257 0
M  V30 9618 C 910.995 -2.37098 -5.64315 0
M  V30 9619 N 910.132 -1.91164 -6.75574 0
M  V30 9620 H 914.972 -1.92377 -2.27585 0
M  V30 9621 H 912.509 -0.958576 -1.11578 0
M  V30 9622 H 914.467 -0.311594 -4.16035 0
M  V30 9623 H 913.097 0.323044 -3.21179 0
M  V30 9624 H 912.149 -2.09662 -3.17405 0
M  V30 9625 H 913.461 -2.56347 -4.27888 0
M  V30 9626 H 912.615 -0.947152 -5.99261 0
M  V30 9627 H 911.354 -0.378836 -4.86226 0
M  V30 9628 H 910.359 -2.68283 -4.799 0
M  V30 9629 H 911.584 -3.24837 -5.96371 0
M  V30 9630 H 909.53 -1.06298 -6.47331 0
M  V30 9631 H 909.447 -2.68975 -7.06533 0
M  V30 9632 H 910.715 -1.63833 -7.62088 0
M  V30 9633 N 914.944 1.19125 -1.03184 0
M  V30 9634 C 916.169 1.93379 -0.749628 0
M  V30 9635 C 916.594 1.75153 0.685785 0
M  V30 9636 O 915.952 1.05579 1.47386 0
M  V30 9637 C 916 3.43101 -1.1097 0
M  V30 9638 O 915.104 4.11758 -0.230053 0
M  V30 9639 H 914.445 0.603605 -0.276689 0
M  V30 9640 H 916.975 1.51116 -1.37931 0
M  V30 9641 H 916.985 3.93778 -1.06785 0
M  V30 9642 H 915.66 3.55688 -2.15544 0
M  V30 9643 H 914.237 3.7143 -0.330748 0
M  V30 9644 N 916.422 0.810101 1.35185 0
M  V30 9645 C 917.671 0.388589 1.97921 0
M  V30 9646 C 917.984 -1.05079 1.64978 0
M  V30 9647 O 919.19 -1.57559 2.21105 0
M  V30 9648 C 917.646 0.643864 3.54094 0
M  V30 9649 C 917.254 2.09602 3.95943 0
M  V30 9650 C 918.998 0.287883 4.23523 0
M  V30 9651 C 916.905 2.29686 5.44976 0
M  V30 9652 H 915.835 0.141562 0.740592 0
M  V30 9653 H 918.486 0.994653 1.54204 0
M  V30 9654 H 916.868 -0.0321978 3.95987 0
M  V30 9655 H 918.042 2.81018 3.65192 0
M  V30 9656 H 916.357 2.4122 3.39414 0
M  V30 9657 H 918.954 0.415946 5.3308 0
M  V30 9658 H 919.297 -0.766305 4.09186 0
M  V30 9659 H 919.83 0.918004 3.87063 0
M  V30 9660 H 916.569 3.33563 5.64284 0
M  V30 9661 H 916.089 1.62798 5.77284 0
M  V30 9662 H 917.768 2.11411 6.11485 0
M  V30 9663 N 917.9 -1.47166 0.563914 0
M  V30 9664 C 919.177 -1.95586 -0.0236172 0
M  V30 9665 C 919.557 -1.50655 -1.47872 0
M  V30 9666 O 918.905 -0.748479 -2.15894 0
M  V30 9667 C 919.115 -3.48762 0.128841 0
M  V30 9668 C 920.463 -4.24598 -0.0130544 0
M  V30 9669 O 921.487 -3.56155 0.0567242 0
M  V30 9670 O 920.346 -5.46253 -0.164332 0
M  V30 9671 H 917.44 -0.824793 -0.0603789 0
M  V30 9672 H 919.986 -1.57536 0.63091 0
M  V30 9673 H 918.758 -3.74291 1.14113 0
M  V30 9674 H 918.381 -3.93594 -0.56299 0
M  V30 9675 N 919.378 -0.300708 -1.54705 0
M  V30 9676 C 920.606 0.31127 -2.04545 0
M  V30 9677 C 921.021 1.47542 -1.178 0
M  V30 9678 O 920.378 1.81361 -0.203571 0
M  V30 9679 C 920.429 0.767783 -3.53253 0
M  V30 9680 O 920.15 -0.350027 -4.36699 0
M  V30 9681 C 921.651 1.44494 -4.1909 0
M  V30 9682 H 918.871 0.067668 -0.667579 0
M  V30 9683 H 921.415 -0.440254 -1.99705 0
M  V30 9684 H 919.57 1.46933 -3.58454 0
M  V30 9685 H 919.984 0.00534038 -5.245 0
M  V30 9686 H 921.458 1.71553 -5.24665 0
M  V30 9687 H 921.935 2.3849 -3.68808 0
M  V30 9688 H 922.541 0.786581 -4.17963 0
M  V30 9689 N 920.856 1.57574 -0.0284266 0
M  V30 9690 C 922.081 1.96479 0.664137 0
M  V30 9691 C 922.506 0.904826 1.64908 0
M  V30 9692 O 921.864 -0.134339 1.80802 0
M  V30 9693 C 921.912 3.34479 1.34745 0
M  V30 9694 O 921.016 3.30794 2.46271 0
M  V30 9695 H 920.357 0.640654 0.174524 0
M  V30 9696 H 922.887 2.04402 -0.0900729 0
M  V30 9697 H 922.897 3.70694 1.7044 0
M  V30 9698 H 921.572 4.1117 0.625468 0
M  V30 9699 H 920.149 3.06294 2.12693 0
M  V30 9700 N 922.334 -0.244713 1.55689 0
M  V30 9701 C 923.244 -1.32447 1.93636 0
M  V30 9702 C 924.26 -1.52541 0.837086 0
M  V30 9703 O 925.436 -1.66121 1.13867 0
M  V30 9704 C 922.501 -2.65864 2.22525 0
M  V30 9705 C 921.562 -2.54273 3.45896 0
M  V30 9706 C 920.795 -3.81327 3.73397 0
M  V30 9707 O 921.018 -4.83307 3.02936 0
M  V30 9708 O 919.952 -3.79829 4.66919 0
M  V30 9709 H 923.778 -1.03255 2.85608 0
M  V30 9710 H 921.363 -0.445652 1.42598 0
M  V30 9711 H 923.245 -3.447 2.42404 0
M  V30 9712 H 921.92 -2.94784 1.33731 0
M  V30 9713 H 920.827 -1.73715 3.31321 0
M  V30 9714 H 922.16 -2.30297 4.34999 0
M  V30 9715 N 923.813 -1.49104 -0.510467 0
M  V30 9716 C 924.776 -1.64569 -1.59529 0
M  V30 9717 C 925.776 -0.517937 -1.5223 0
M  V30 9718 O 926.966 -0.784183 -1.55551 0
M  V30 9719 C 924.098 -1.6342 -2.99177 0
M  V30 9720 H 925.291 -2.61318 -1.4715 0
M  V30 9721 H 922.844 -1.37993 -0.734001 0
M  V30 9722 H 923.579 -0.68221 -3.17043 0
M  V30 9723 H 923.364 -2.45312 -3.05883 0
M  V30 9724 H 924.854 -1.77474 -3.78011 0
M  V30 9725 N 925.291 0.760815 -1.38019 0
M  V30 9726 C 926.238 1.8744 -1.34666 0
M  V30 9727 C 927.208 1.64762 -0.210386 0
M  V30 9728 O 928.393 1.86528 -0.401479 0
M  V30 9729 C 925.533 3.24648 -1.17037 0
M  V30 9730 C 924.646 3.59206 -2.3999 0
M  V30 9731 C 923.781 4.8568 -2.15148 0
M  V30 9732 C 922.82 5.13002 -3.3391 0
M  V30 9733 N 921.957 6.30668 -3.08549 0
M  V30 9734 H 926.797 1.8964 -2.29871 0
M  V30 9735 H 924.334 0.927004 -1.14215 0
M  V30 9736 H 926.292 4.03814 -1.04834 0
M  V30 9737 H 924.922 3.21793 -0.254758 0
M  V30 9738 H 923.974 2.74939 -2.62893 0
M  V30 9739 H 925.286 3.75328 -3.28527 0
M  V30 9740 H 924.44 5.72773 -2.00039 0
M  V30 9741 H 923.179 4.71682 -1.23965 0
M  V30 9742 H 922.184 4.2438 -3.49545 0
M  V30 9743 H 923.409 5.28901 -4.25958 0
M  V30 9744 H 921.355 6.18008 -2.20006 0
M  V30 9745 H 921.272 6.47257 -3.90633 0
M  V30 9746 H 922.54 7.20669 -2.9708 0
M  V30 9747 N 926.769 1.22769 0.988202 0
M  V30 9748 C 927.716 1.00195 2.07917 0
M  V30 9749 C 928.686 -0.0779391 1.65917 0
M  V30 9750 O 929.871 0.0726005 1.90662 0
M  V30 9751 C 927.011 0.590853 3.40004 0
M  V30 9752 C 926.124 1.74202 3.9532 0
M  V30 9753 C 925.259 1.27846 5.15586 0
M  V30 9754 C 924.298 2.40087 5.63049 0
M  V30 9755 N 923.435 1.94744 6.74551 0
M  V30 9756 H 928.275 1.93581 2.26562 0
M  V30 9757 H 925.812 0.96448 1.11068 0
M  V30 9758 H 927.77 0.333653 4.15864 0
M  V30 9759 H 926.4 -0.306007 3.21346 0
M  V30 9760 H 925.452 2.11342 3.16289 0
M  V30 9761 H 926.764 2.58612 4.26522 0
M  V30 9762 H 925.918 0.978919 5.9875 0
M  V30 9763 H 924.657 0.404617 4.86019 0
M  V30 9764 H 923.662 2.70824 4.78471 0
M  V30 9765 H 924.887 3.27995 5.9464 0
M  V30 9766 H 922.833 1.09729 6.46758 0
M  V30 9767 H 922.75 2.72718 7.05096 0
M  V30 9768 H 924.018 1.67873 7.61209 0
M  V30 9769 N 928.247 -1.18576 1.03814 0
M  V30 9770 C 929.493 -1.88773 0.741132 0
M  V30 9771 C 929.826 -1.79993 -0.729127 0
M  V30 9772 O 929.101 -1.19851 -1.53186 0
M  V30 9773 C 929.384 -3.39352 1.20468 0
M  V30 9774 C 929.237 -3.56955 2.73684 0
M  V30 9775 C 930.556 -4.32901 0.792741 0
M  V30 9776 H 927.675 -0.685482 0.270708 0
M  V30 9777 H 930.317 -1.39523 1.2897 0
M  V30 9778 H 928.467 -3.81427 0.737974 0
M  V30 9779 H 930.139 -3.2399 3.28372 0
M  V30 9780 H 928.382 -2.99696 3.13632 0
M  V30 9781 H 929.053 -4.62598 3.01176 0
M  V30 9782 H 931.529 -3.98592 1.1943 0
M  V30 9783 H 930.405 -5.36828 1.14486 0
M  V30 9784 H 930.666 -4.41052 -0.304295 0
M  V30 9785 N 929.725 -0.817259 -1.34754 0
M  V30 9786 C 931.136 -0.462215 -1.80888 0
M  V30 9787 C 931.487 1.01685 -1.67794 0
M  V30 9788 O 930.612 1.79094 -1.21468 0
M  V30 9789 C 931.207 -0.832204 -3.2842 0
M  V30 9790 C 929.766 -0.52961 -3.72655 0
M  V30 9791 C 928.913 -1.05214 -2.56564 0
M  V30 9792 H 931.864 -1.00795 -1.22581 0
M  V30 9793 H 931.885 -0.133804 -3.80265 0
M  V30 9794 H 931.397 -1.90873 -3.37919 0
M  V30 9795 H 929.498 0.537743 -3.68699 0
M  V30 9796 H 929.611 -1.06971 -4.67005 0
M  V30 9797 H 927.975 -0.473949 -2.50251 0
M  V30 9798 H 928.758 -2.135 -2.68836 0
M  V30 9799 N 931.203 1.46865 -0.571711 0
M  V30 9800 C 932.451 2.0203 -0.0530022 0
M  V30 9801 C 932.772 1.44687 1.30731 0
M  V30 9802 O 932.042 0.627429 1.85581 0
M  V30 9803 H 930.622 0.746815 -0.0166035 0
M  V30 9804 H 933.284 1.80099 -0.745003 0
M  V30 9805 H 932.38 3.12091 0.0242538 0
M  V30 9806 N 932.681 0.308908 1.54543 0
M  V30 9807 C 933.928 -0.298036 2.00295 0
M  V30 9808 C 934.256 -1.53285 1.19724 0
M  V30 9809 O 933.511 -1.93917 0.263551 0
M  V30 9810 C 933.81 -0.691522 3.50646 0
M  V30 9811 C 933.476 0.442454 4.48724 0
M  V30 9812 C 932.138 0.753739 4.7526 0
M  V30 9813 C 934.49 1.20488 5.07082 0
M  V30 9814 C 931.818 1.83044 5.57415 0
M  V30 9815 C 934.17 2.27156 5.90409 0
M  V30 9816 C 932.834 2.58882 6.15253 0
M  V30 9817 H 932.104 -0.109059 0.73293 0
M  V30 9818 H 934.751 0.429647 1.86618 0
M  V30 9819 H 933.056 -1.49941 3.61974 0
M  V30 9820 H 934.753 -1.17244 3.83477 0
M  V30 9821 H 931.343 0.189744 4.2818 0
M  V30 9822 H 935.527 0.977653 4.86575 0
M  V30 9823 H 930.783 2.08088 5.749 0
M  V30 9824 H 934.957 2.86687 6.34652 0
M  V30 9825 H 932.584 3.42443 6.78702 0
M  V30 9826 N 934.159 -1.57557 0.0367827 0
M  V30 9827 C 935.405 -1.92399 -0.641133 0
M  V30 9828 C 935.738 -0.914191 -1.71336 0
M  V30 9829 O 935.013 0.0619616 -1.94401 0
M  V30 9830 C 935.296 -3.37689 -1.25052 0
M  V30 9831 C 935.149 -4.4941 -0.187326 0
M  V30 9832 C 936.468 -3.8309 -2.16634 0
M  V30 9833 H 933.587 -0.699666 -0.231597 0
M  V30 9834 H 936.229 -1.89759 0.0956083 0
M  V30 9835 H 934.379 -3.40069 -1.87843 0
M  V30 9836 H 936.051 -4.59161 0.443736 0
M  V30 9837 H 934.294 -4.31065 0.486313 0
M  V30 9838 H 934.965 -5.48119 -0.653459 0
M  V30 9839 H 937.441 -3.82494 -1.63821 0
M  V30 9840 H 936.317 -4.85429 -2.56222 0
M  V30 9841 H 936.578 -3.19028 -3.06062 0
M  V30 9842 N 935.637 0.236453 -1.55816 0
M  V30 9843 C 936.877 0.970249 -1.79904 0
M  V30 9844 C 937.241 1.8212 -0.607965 0
M  V30 9845 O 938.442 2.58759 -0.727833 0
M  V30 9846 C 936.713 1.79938 -3.088 0
M  V30 9847 S 938.272 2.59084 -3.54148 0
M  V30 9848 H 935.09 0.32618 -0.631765 0
M  V30 9849 H 937.692 0.237147 -1.94056 0
M  V30 9850 H 936.396 1.16412 -3.93544 0
M  V30 9851 H 935.927 2.57504 -2.97414 0
M  V30 9852 H 937.942 3.82315 -3.16306 0
M  V30 9853 N 937.115 1.49373 0.502552 0
M  V30 9854 C 938.362 1.58781 1.25678 0
M  V30 9855 C 938.69 0.273819 1.92563 0
M  V30 9856 O 937.945 -0.738141 1.81246 0
M  V30 9857 C 938.244 2.69508 2.34735 0
M  V30 9858 C 937.91 4.11057 1.85318 0
M  V30 9859 C 936.572 4.49578 1.7156 0
M  V30 9860 C 938.924 4.99653 1.48312 0
M  V30 9861 C 936.252 5.74469 1.19172 0
M  V30 9862 C 938.604 6.2506 0.97377 0
M  V30 9863 C 937.268 6.62412 0.822573 0
M  V30 9864 H 936.538 0.581021 0.459887 0
M  V30 9865 H 939.185 1.83197 0.557767 0
M  V30 9866 H 937.49 2.39057 3.10418 0
M  V30 9867 H 939.187 2.73997 2.92791 0
M  V30 9868 H 935.777 3.80651 1.96985 0
M  V30 9869 H 939.961 4.70549 1.57789 0
M  V30 9870 H 935.217 6.0211 1.06176 0
M  V30 9871 H 939.391 6.93089 0.678233 0
M  V30 9872 H 937.018 7.59069 0.414453 0
M  V30 9873 N 938.594 -0.753485 1.38421 0
M  V30 9874 C 939.843 -1.50797 1.33952 0
M  V30 9875 C 940.156 -1.95482 -0.0678464 0
M  V30 9876 O 941.362 -2.7048 -0.235078 0
M  V30 9877 C 939.818 -2.72393 2.35224 0
M  V30 9878 C 939.426 -2.34733 3.81582 0
M  V30 9879 C 941.17 -3.50281 2.39798 0
M  V30 9880 C 939.077 -3.52939 4.7454 0
M  V30 9881 H 938.007 -0.566211 0.497916 0
M  V30 9882 H 940.658 -0.823659 1.63976 0
M  V30 9883 H 939.04 -3.42806 1.98243 0
M  V30 9884 H 940.214 -1.71985 4.27502 0
M  V30 9885 H 938.529 -1.69978 3.80127 0
M  V30 9886 H 941.126 -4.38172 3.06447 0
M  V30 9887 H 941.469 -3.91444 1.41695 0
M  V30 9888 H 942.002 -2.86881 2.75579 0
M  V30 9889 H 938.741 -3.16843 5.73839 0
M  V30 9890 H 938.261 -4.1473 4.33312 0
M  V30 9891 H 939.94 -4.19519 4.92557 0
M  V30 9892 N 940.072 -1.23292 -0.981677 0
M  V30 9893 C 941.297 -1.09176 -1.76339 0
M  V30 9894 C 941.722 0.352726 -1.84763 0
M  V30 9895 O 941.08 1.25509 -1.30832 0
M  V30 9896 C 941.128 -1.72046 -3.16911 0
M  V30 9897 O 940.232 -0.98174 -4.00544 0
M  V30 9898 H 939.573 -0.382755 -0.542581 0
M  V30 9899 H 942.103 -1.63319 -1.23239 0
M  V30 9900 H 942.113 -1.77232 -3.67495 0
M  V30 9901 H 940.788 -2.77154 -3.10095 0
M  V30 9902 H 939.365 -1.00672 -3.59054 0
M  V30 9903 N 941.55 1.18024 -1.04442 0
M  V30 9904 C 942.513 2.19992 -0.643136 0
M  V30 9905 C 943.513 1.57949 0.301444 0
M  V30 9906 O 944.703 1.73986 0.0863341 0
M  V30 9907 C 941.835 3.40853 0.0565208 0
M  V30 9908 H 943.028 2.57008 -1.54554 0
M  V30 9909 H 940.581 1.31974 -0.837408 0
M  V30 9910 H 941.316 3.09373 0.972553 0
M  V30 9911 H 941.101 3.87128 -0.622439 0
M  V30 9912 H 942.591 4.16344 0.323652 0
M  V30 9913 N 943.028 0.824394 1.34319 0
M  V30 9914 C 944.305 0.335692 1.92698 0
M  V30 9915 C 944.685 -1.17715 1.75232 0
M  V30 9916 O 944.033 -1.98493 1.13194 0
M  V30 9917 C 944.243 0.766647 3.40475 0
M  V30 9918 C 945.591 0.766323 4.17627 0
M  V30 9919 O 946.615 0.709321 3.49066 0
M  V30 9920 O 945.474 0.840856 5.39992 0
M  V30 9921 H 942.568 0.0919996 0.821867 0
M  V30 9922 H 945.114 0.909282 1.43283 0
M  V30 9923 H 943.886 1.80859 3.46995 0
M  V30 9924 H 943.509 0.168833 3.97241 0
M  V30 9925 N 944.506 -1.46559 0.579492 0
M  V30 9926 C 945.783 -1.956 -0.00287136 0
M  V30 9927 C 946.163 -1.52215 -1.46266 0
M  V30 9928 O 945.511 -0.771335 -2.15088 0
M  V30 9929 C 945.721 -3.48606 0.165824 0
M  V30 9930 C 947.069 -4.24588 0.0319807 0
M  V30 9931 O 948.093 -3.56075 0.094496 0
M  V30 9932 O 946.952 -5.46396 -0.106386 0
M  V30 9933 H 944.046 -0.825387 -0.0516274 0
M  V30 9934 H 946.592 -1.56858 0.647584 0
M  V30 9935 H 945.364 -3.7306 1.18076 0
M  V30 9936 H 944.987 -3.94169 -0.521212 0
M  V30 9937 N 945.984 -0.3171 -1.54377 0
M  V30 9938 C 947.23 0.287836 -2.00747 0
M  V30 9939 C 947.563 1.52292 -1.20502 0
M  V30 9940 O 946.838 1.92391 -0.285626 0
M  V30 9941 C 947.121 0.628423 -3.54574 0
M  V30 9942 C 946.974 -0.616922 -4.45549 0
M  V30 9943 C 948.293 1.44862 -4.15575 0
M  V30 9944 H 945.412 0.103144 -0.729747 0
M  V30 9945 H 948.054 -0.432396 -1.85014 0
M  V30 9946 H 946.204 1.24203 -3.68111 0
M  V30 9947 H 947.876 -1.25526 -4.43893 0
M  V30 9948 H 946.119 -1.24706 -4.15489 0
M  V30 9949 H 946.79 -0.334243 -5.50987 0
M  V30 9950 H 949.266 0.930015 -4.05574 0
M  V30 9951 H 948.142 1.6557 -5.23333 0
M  V30 9952 H 948.403 2.44279 -3.68484 0
M  V30 9953 N 947.462 1.57535 -0.0451378 0
M  V30 9954 C 948.873 1.80116 0.491426 0
M  V30 9955 C 949.224 0.956846 1.71286 0
M  V30 9956 O 948.349 0.17173 2.15718 0
M  V30 9957 C 948.944 3.26674 0.898315 0
M  V30 9958 C 947.503 3.50194 1.37989 0
M  V30 9959 C 946.65 2.75054 0.352202 0
M  V30 9960 H 949.601 1.56368 -0.271065 0
M  V30 9961 H 949.622 3.37263 1.76164 0
M  V30 9962 H 949.134 3.88099 0.009141 0
M  V30 9963 H 947.235 2.94041 2.28846 0
M  V30 9964 H 947.348 4.58909 1.37622 0
M  V30 9965 H 945.712 2.4101 0.823784 0
M  V30 9966 H 946.495 3.39203 -0.528782 0
M  V30 9967 N 948.94 -0.228186 1.55939 0
M  V30 9968 C 950.188 -0.951668 1.78291 0
M  V30 9969 C 950.509 -1.85132 0.612474 0
M  V30 9970 O 949.779 -1.92356 -0.370942 0
M  V30 9971 H 948.359 -0.354388 0.657585 0
M  V30 9972 H 951.021 -0.241635 1.93396 0
M  V30 9973 H 950.117 -1.56239 2.70177 0
M  V30 9974 N 950.418 -1.49637 -0.494624 0
M  V30 9975 C 951.643 -1.63431 -1.27691 0
M  V30 9976 C 952.068 -0.30813 -1.85559 0
M  V30 9977 O 951.426 0.725083 -1.66169 0
M  V30 9978 C 951.474 -2.71043 -2.3784 0
M  V30 9979 O 950.578 -2.3066 -3.41862 0
M  V30 9980 H 949.919 -0.546804 -0.376698 0
M  V30 9981 H 952.449 -1.95866 -0.591413 0
M  V30 9982 H 952.459 -2.93406 -2.83508 0
M  V30 9983 H 951.134 -3.67306 -1.95088 0
M  V30 9984 H 949.711 -2.18652 -3.02069 0
M  V30 9985 N 951.896 0.746133 -1.38819 0
M  V30 9986 C 952.844 1.88137 -1.36774 0
M  V30 9987 C 953.838 1.67508 -0.252495 0
M  V30 9988 O 955.044 1.74985 -0.421935 0
M  V30 9989 H 951.419 0.619116 -0.426849 0
M  V30 9990 H 953.39 1.86978 -2.32555 0
M  V30 9991 C 952.139 3.25703 -1.21708 0
M  V30 9992 H 951.462 3.42168 -2.06788 0
M  V30 9993 H 952.902 4.05361 -1.24332 0
M  V30 9994 C 951.361 3.36816 0.0754257 0
M  V30 9995 O 951.891 3.87742 1.04972 0
M  V30 9996 N 950.097 2.90287 0.134761 0
M  V30 9997 H 949.644 2.49034 -0.658779 0
M  V30 9998 H 949.602 2.98103 0.999109 0
M  V30 9999 N 953.375 1.23811 0.975125 0
M  V30 10000 C 954.624 1.06741 1.71141 0
M  V30 10001 C 954.937 -0.394986 1.9157 0
M  V30 10002 O 956.143 -0.685723 2.62698 0
M  V30 10003 C 954.599 1.86168 3.08009 0
M  V30 10004 C 954.207 3.36771 2.95448 0
M  V30 10005 C 955.951 1.77604 3.85561 0
M  V30 10006 C 953.858 4.0857 4.2758 0
M  V30 10007 H 952.788 0.395819 0.64175 0
M  V30 10008 H 955.439 1.47825 1.0872 0
M  V30 10009 H 953.821 1.37893 3.71216 0
M  V30 10010 H 954.995 3.92571 2.41298 0
M  V30 10011 H 953.31 3.46205 2.31368 0
M  V30 10012 H 955.907 2.28556 4.83391 0
M  V30 10013 H 956.25 0.739837 4.09673 0
M  V30 10014 H 956.783 2.23519 3.29065 0
M  V30 10015 H 953.522 5.12518 4.08663 0
M  V30 10016 H 953.042 3.57556 4.81574 0
M  V30 10017 H 954.721 4.15157 4.9624 0
M  V30 10018 N 954.853 -1.17469 1.05066 0
M  V30 10019 C 956.081 -1.9162 0.780334 0
M  V30 10020 C 956.496 -1.76745 -0.663817 0
M  V30 10021 O 955.853 -1.10377 -1.45338 0
M  V30 10022 C 955.904 -3.42723 1.14992 0
M  V30 10023 O 955.625 -3.57139 2.53739 0
M  V30 10024 C 957.126 -4.33952 0.905549 0
M  V30 10025 H 954.346 -0.608022 0.283814 0
M  V30 10026 H 956.89 -1.4897 1.401 0
M  V30 10027 H 955.045 -3.83124 0.57403 0
M  V30 10028 H 955.459 -4.5075 2.68189 0
M  V30 10029 H 956.933 -5.38487 1.21391 0
M  V30 10030 H 957.41 -4.38911 -0.159295 0
M  V30 10031 H 958.016 -3.99263 1.46522 0
M  V30 10032 N 956.331 -0.831506 -1.3388 0
M  V30 10033 C 957.579 -0.422837 -1.97627 0
M  V30 10034 C 957.9 1.01961 -1.6622 0
M  V30 10035 O 957.17 1.70916 -0.957323 0
M  V30 10036 H 955.75 -0.153365 -0.731087 0
M  V30 10037 H 958.412 -1.06284 -1.6337 0
M  V30 10038 H 957.508 -0.548858 -3.07236 0
M  V30 10039 N 957.809 1.4625 -0.587256 0
M  V30 10040 C 959.058 2.01571 -0.0722643 0
M  V30 10041 C 959.371 1.46385 1.29733 0
M  V30 10042 O 960.577 1.93554 1.90392 0
M  V30 10043 C 959.033 3.59814 -0.078579 0
M  V30 10044 C 958.641 4.23996 -1.44678 0
M  V30 10045 C 960.385 4.22776 0.382231 0
M  V30 10046 C 958.292 5.74332 -1.41057 0
M  V30 10047 H 957.222 0.753642 -0.0232461 0
M  V30 10048 H 959.873 1.67936 -0.739577 0
M  V30 10049 H 958.255 3.90546 0.654988 0
M  V30 10050 H 959.429 4.04867 -2.20043 0
M  V30 10051 H 957.744 3.73147 -1.84799 0
M  V30 10052 H 960.341 5.32983 0.428182 0
M  V30 10053 H 960.684 3.92027 1.40072 0
M  V30 10054 H 961.217 3.96687 -0.297417 0
M  V30 10055 H 957.956 6.09747 -2.40601 0
M  V30 10056 H 957.476 5.95711 -0.699185 0
M  V30 10057 H 959.155 6.37137 -1.12543 0
M  V30 10058 N 959.287 0.325282 1.54207 0
M  V30 10059 C 960.527 -0.277347 2.0251 0
M  V30 10060 C 960.891 -1.49211 1.20831 0
M  V30 10061 O 962.092 -2.16771 1.58945 0
M  V30 10062 C 960.363 -0.601517 3.52302 0
M  V30 10063 S 961.922 -1.18356 4.22537 0
M  V30 10064 H 958.74 -0.08378 0.706047 0
M  V30 10065 H 961.342 0.458804 1.9004 0
M  V30 10066 H 960.046 0.290696 4.09369 0
M  V30 10067 H 959.577 -1.36782 3.68855 0
M  V30 10068 H 961.592 -2.47029 4.30338 0
M  V30 10069 N 960.765 -1.57509 0.0534917 0
M  V30 10070 C 961.713 -2.12851 -0.937931 0
M  V30 10071 C 962.707 -1.06088 -1.32067 0
M  V30 10072 O 963.913 -1.24494 -1.30005 0
M  V30 10073 H 960.288 -0.680357 -0.320342 0
M  V30 10074 H 962.259 -2.95047 -0.446077 0
M  V30 10075 C 961.008 -2.69034 -2.20264 0
M  V30 10076 H 960.331 -3.50848 -1.91693 0
M  V30 10077 H 961.771 -3.11375 -2.87788 0
M  V30 10078 C 960.23 -1.62919 -2.94888 0
M  V30 10079 O 960.76 -1.04334 -3.87914 0
M  V30 10080 N 958.966 -1.34385 -2.57661 0
M  V30 10081 H 958.513 -1.82214 -1.82088 0
M  V30 10082 H 958.471 -0.636149 -3.07897 0
M  V30 10083 N 962.243 0.219913 -1.56058 0
M  V30 10084 C 963.52 0.968493 -1.6994 0
M  V30 10085 C 963.9 2.02358 -0.601219 0
M  V30 10086 O 963.248 2.25121 0.391534 0
M  V30 10087 C 963.458 1.57745 -3.11316 0
M  V30 10088 C 964.806 2.06908 -3.70775 0
M  V30 10089 O 965.83 1.67636 -3.14288 0
M  V30 10090 O 964.689 2.79096 -4.69859 0
M  V30 10091 H 961.783 0.452521 -0.692209 0
M  V30 10092 H 964.329 0.211566 -1.68376 0
M  V30 10093 H 963.101 0.815687 -3.82704 0
M  V30 10094 H 962.724 2.39987 -3.17005 0
M  V30 10095 N 963.721 1.49897 0.486681 0
M  V30 10096 C 964.631 1.70379 1.6127 0
M  V30 10097 C 965.647 0.58659 1.63814 0
M  V30 10098 O 966.823 0.863044 1.81971 0
M  V30 10099 C 963.888 1.77911 2.97571 0
M  V30 10100 C 962.949 3.01569 3.0554 0
M  V30 10101 C 962.182 3.08732 4.35339 0
M  V30 10102 O 962.405 2.23099 5.2496 0
M  V30 10103 O 961.339 4.01325 4.48578 0
M  V30 10104 H 965.165 2.65799 1.46916 0
M  V30 10105 H 962.75 1.33808 0.664516 0
M  V30 10106 H 964.632 1.85135 3.78554 0
M  V30 10107 H 963.307 0.856722 3.12157 0
M  V30 10108 H 962.214 2.99854 2.23693 0
M  V30 10109 H 963.547 3.93335 2.95886 0
M  V30 10110 N 965.199 -0.738761 1.39212 0
M  V30 10111 C 966.427 -1.52801 1.39497 0
M  V30 10112 C 966.842 -1.88797 -0.0114917 0
M  V30 10113 O 966.199 -1.53835 -0.981887 0
M  V30 10114 C 966.25 -2.81793 2.2644 0
M  V30 10115 O 965.971 -2.47328 3.61608 0
M  V30 10116 C 967.472 -3.75844 2.35067 0
M  V30 10117 H 964.692 -0.472322 0.476606 0
M  V30 10118 H 967.236 -0.913153 1.8298 0
M  V30 10119 H 965.391 -3.3962 1.8638 0
M  V30 10120 H 965.805 -3.30162 4.07545 0
M  V30 10121 H 967.279 -4.6326 3.00157 0
M  V30 10122 H 967.756 -4.17329 1.3687 0
M  V30 10123 H 968.362 -3.23937 2.75581 0
M  V30 10124 N 966.677 -1.24326 -0.968545 0
M  V30 10125 C 967.923 -1.08406 -1.71394 0
M  V30 10126 C 968.256 0.376353 -1.90518 0
M  V30 10127 O 967.531 1.27816 -1.46606 0
M  V30 10128 C 967.814 -1.82344 -3.1052 0
M  V30 10129 C 967.667 -3.3613 -2.98893 0
M  V30 10130 C 968.986 -1.59545 -4.10163 0
M  V30 10131 H 966.105 -0.395205 -0.622079 0
M  V30 10132 H 968.747 -1.52983 -1.12677 0
M  V30 10133 H 966.897 -1.44452 -3.60646 0
M  V30 10134 H 968.569 -3.83614 -2.56199 0
M  V30 10135 H 966.812 -3.64553 -2.35124 0
M  V30 10136 H 967.483 -3.83064 -3.97449 0
M  V30 10137 H 969.959 -1.92504 -3.68892 0
M  V30 10138 H 968.835 -2.13736 -5.05577 0
M  V30 10139 H 969.096 -0.533503 -4.38869 0
M  V30 10140 N 968.156 1.1691 -1.05688 0
M  V30 10141 C 969.403 1.87292 -0.76993 0
M  V30 10142 C 969.731 1.81339 0.703295 0
M  V30 10143 O 968.986 1.21959 1.5305 0
M  V30 10144 C 969.285 3.36578 -1.20207 0
M  V30 10145 C 968.951 3.62732 -2.67836 0
M  V30 10146 C 967.613 3.69579 -3.08163 0
M  V30 10147 C 969.965 3.73803 -3.63209 0
M  V30 10148 C 967.293 3.84992 -4.42717 0
M  V30 10149 C 969.645 3.90735 -4.97503 0
M  V30 10150 C 968.309 3.95823 -5.37476 0
M  V30 10151 H 967.579 0.68535 -0.281737 0
M  V30 10152 H 970.226 1.38274 -1.32486 0
M  V30 10153 H 968.531 3.87687 -0.566222 0
M  V30 10154 H 970.228 3.89409 -0.957183 0
M  V30 10155 H 966.818 3.58031 -2.35609 0
M  V30 10156 H 971.002 3.67829 -3.3319 0
M  V30 10157 H 966.258 3.87181 -4.73182 0
M  V30 10158 H 970.432 3.98243 -5.71293 0
M  V30 10159 H 968.059 4.07518 -6.41742 0
M  V30 10160 N 969.634 0.838594 1.33437 0
M  V30 10161 C 970.597 0.276843 2.27522 0
M  V30 10162 C 971.597 -0.554275 1.50945 0
M  V30 10163 O 972.787 -0.368107 1.70266 0
M  V30 10164 C 969.919 -0.610036 3.35397 0
M  V30 10165 H 971.112 1.10705 2.78719 0
M  V30 10166 H 968.665 0.611657 1.43835 0
M  V30 10167 H 969.4 -1.46269 2.89441 0
M  V30 10168 H 969.185 -0.0153615 3.92097 0
M  V30 10169 H 970.675 -0.996368 4.05539 0
M  V30 10170 N 971.112 -1.45937 0.595003 0
M  V30 10171 C 972.059 -2.30427 -0.131165 0
M  V30 10172 C 973.029 -1.41355 -0.872232 0
M  V30 10173 O 974.214 -1.70296 -0.860467 0
M  V30 10174 C 971.354 -3.26045 -1.13087 0
M  V30 10175 C 970.467 -4.30218 -0.391982 0
M  V30 10176 C 969.602 -5.12953 -1.3803 0
M  V30 10177 C 968.641 -6.08865 -0.628505 0
M  V30 10178 N 967.778 -6.84425 -1.56548 0
M  V30 10179 H 972.618 -2.91992 0.595359 0
M  V30 10180 H 970.155 -1.43895 0.305405 0
M  V30 10181 H 972.113 -3.79937 -1.72348 0
M  V30 10182 H 970.743 -2.66261 -1.82496 0
M  V30 10183 H 969.795 -3.79086 0.315895 0
M  V30 10184 H 971.107 -4.98418 0.195173 0
M  V30 10185 H 970.261 -5.71184 -2.04534 0
M  V30 10186 H 969 -4.44743 -2.00138 0
M  V30 10187 H 968.005 -5.49777 0.0502431 0
M  V30 10188 H 969.23 -6.79099 -0.012641 0
M  V30 10189 H 967.176 -6.18913 -2.17444 0
M  V30 10190 H 967.093 -7.48931 -1.03145 0
M  V30 10191 H 968.361 -7.47204 -2.22049 0
M  V30 10192 N 972.59 -0.333456 -1.54032 0
M  V30 10193 C 973.867 0.320902 -1.9295 0
M  V30 10194 C 974.247 1.69071 -1.26405 0
M  V30 10195 O 973.595 2.24768 -0.411311 0
M  V30 10196 C 973.805 0.403257 -3.46662 0
M  V30 10197 C 975.153 0.658875 -4.19457 0
M  V30 10198 O 976.177 0.485781 -3.52872 0
M  V30 10199 O 975.036 0.993475 -5.37394 0
M  V30 10200 H 972.13 0.185158 -0.806006 0
M  V30 10201 H 974.676 -0.383895 -1.65301 0
M  V30 10202 H 973.448 -0.558409 -3.87295 0
M  V30 10203 H 973.071 1.15524 -3.80447 0
M  V30 10204 N 974.068 1.57479 -0.061844 0
M  V30 10205 C 975.015 2.12152 0.908862 0
M  V30 10206 C 975.985 1.03152 1.30188 0
M  V30 10207 O 977.17 1.3076 1.38948 0
M  V30 10208 C 974.31 2.6796 2.17465 0
M  V30 10209 C 973.423 3.91083 1.83517 0
M  V30 10210 C 972.558 4.35169 3.04633 0
M  V30 10211 C 971.597 5.50964 2.66655 0
M  V30 10212 N 970.734 5.90055 3.80499 0
M  V30 10213 H 975.574 2.94797 0.435743 0
M  V30 10214 H 973.111 1.45686 0.203445 0
M  V30 10215 H 975.069 2.98421 2.91548 0
M  V30 10216 H 973.699 1.88096 2.62335 0
M  V30 10217 H 972.751 3.67146 0.995381 0
M  V30 10218 H 974.063 4.75214 1.51569 0
M  V30 10219 H 973.217 4.67239 3.87005 0
M  V30 10220 H 971.956 3.49871 3.39767 0
M  V30 10221 H 970.961 5.18556 1.82703 0
M  V30 10222 H 972.186 6.37986 2.32702 0
M  V30 10223 H 970.132 5.07708 4.15414 0
M  V30 10224 H 970.049 6.68903 3.52285 0
M  V30 10225 H 971.317 6.26744 4.63479 0
M  V30 10226 N 975.546 -0.211634 1.56173 0
M  V30 10227 C 976.792 -0.935935 1.79911 0
M  V30 10228 C 977.125 -1.83589 0.633155 0
M  V30 10229 O 976.4 -1.91004 -0.367132 0
M  V30 10230 C 976.683 -1.76638 3.13801 0
M  V30 10231 C 976.536 -0.892259 4.40861 0
M  V30 10232 C 977.855 -2.74224 3.44223 0
M  V30 10233 H 974.974 -0.338822 0.654499 0
M  V30 10234 H 977.616 -0.20422 1.88899 0
M  V30 10235 H 975.766 -2.39021 3.0627 0
M  V30 10236 H 977.438 -0.284407 4.60422 0
M  V30 10237 H 975.681 -0.198145 4.33347 0
M  V30 10238 H 976.352 -1.50793 5.31004 0
M  V30 10239 H 978.828 -2.21975 3.51946 0
M  V30 10240 H 977.704 -3.29424 4.39057 0
M  V30 10241 H 977.965 -3.52455 2.66885 0
M  V30 10242 N 977.024 -1.50153 -0.478725 0
M  V30 10243 C 978.252 -1.64505 -1.25482 0
M  V30 10244 C 978.667 -0.325295 -1.85977 0
M  V30 10245 O 978.024 0.691885 -1.68876 0
M  V30 10246 C 978.075 -2.73052 -2.36906 0
M  V30 10247 O 977.796 -3.99911 -1.78894 0
M  V30 10248 C 979.297 -2.98309 -3.27912 0
M  V30 10249 H 976.517 -0.55318 -0.379781 0
M  V30 10250 H 979.061 -1.96329 -0.57229 0
M  V30 10251 H 977.216 -2.43944 -3.00949 0
M  V30 10252 H 977.63 -4.5988 -2.52211 0
M  V30 10253 H 979.104 -3.77942 -4.02323 0
M  V30 10254 H 979.581 -2.09082 -3.8624 0
M  V30 10255 H 980.187 -3.2892 -2.69614 0
M  V30 10256 N 978.502 0.731368 -1.39602 0
M  V30 10257 C 979.742 1.5036 -1.3846 0
M  V30 10258 C 980.106 1.91991 0.018784 0
M  V30 10259 O 981.307 2.68351 0.155236 0
M  V30 10260 C 979.578 2.70755 -2.33295 0
M  V30 10261 S 981.137 3.6036 -2.50372 0
M  V30 10262 H 977.955 0.514271 -0.490964 0
M  V30 10263 H 980.557 0.856654 -1.75732 0
M  V30 10264 H 979.261 2.38316 -3.34116 0
M  V30 10265 H 978.792 3.40376 -1.97251 0
M  V30 10266 H 980.807 4.64529 -1.74435 0
M  V30 10267 N 979.98 1.24838 0.961938 0
M  V30 10268 C 981.226 1.09313 1.70817 0
M  V30 10269 C 981.559 -0.366244 1.90715 0
M  V30 10270 O 980.834 -1.27036 1.47282 0
M  V30 10271 C 981.117 1.83988 3.09549 0
M  V30 10272 C 980.97 3.3771 2.97106 0
M  V30 10273 C 982.289 1.61718 4.09311 0
M  V30 10274 H 979.408 0.398498 0.619974 0
M  V30 10275 H 982.05 1.53579 1.11864 0
M  V30 10276 H 980.2 1.46363 3.59875 0
M  V30 10277 H 981.872 3.84967 2.54161 0
M  V30 10278 H 980.115 3.65795 2.33187 0
M  V30 10279 H 980.786 3.85166 3.95412 0
M  V30 10280 H 983.262 1.94458 3.67866 0
M  V30 10281 H 982.138 2.16415 5.04436 0
M  V30 10282 H 982.399 0.55677 4.3858 0
M  V30 10283 N 981.458 -1.16348 1.06306 0
M  V30 10284 C 982.706 -1.86512 0.778311 0
M  V30 10285 C 983.027 -1.82107 -0.697273 0
M  V30 10286 O 982.297 -1.2547 -1.50446 0
M  V30 10287 H 980.877 -0.690529 0.284919 0
M  V30 10288 H 983.539 -1.41092 1.34458 0
M  V30 10289 H 982.635 -2.91947 1.10333 0
M  V30 10290 N 982.937 -0.845659 -1.3299 0
M  V30 10291 C 983.887 -0.2557 -2.26562 0
M  V30 10292 C 984.871 0.593245 -1.49564 0
M  V30 10293 O 986.063 0.444101 -1.71338 0
M  V30 10294 C 983.192 0.562573 -3.38659 0
M  V30 10295 C 982.278 -0.298259 -4.2305 0
M  V30 10296 N 982.669 -1.38023 -4.86604 0
M  V30 10297 C 980.967 -0.0864539 -4.45916 0
M  V30 10298 C 981.668 -1.90907 -5.49481 0
M  V30 10299 N 980.644 -1.20955 -5.29973 0
M  V30 10300 H 984.446 -1.083 -2.73219 0
M  V30 10301 H 981.96 -0.690823 -1.46974 0
M  V30 10302 H 983.957 1.00157 -4.0469 0
M  V30 10303 H 982.617 1.38777 -2.93549 0
M  V30 10304 H 983.628 -1.76314 -4.86964 0
M  V30 10305 H 980.305 0.70475 -4.11509 0
M  V30 10306 H 981.695 -2.81552 -6.10064 0
M  V30 10307 N 984.415 1.45619 -0.602734 0
M  V30 10308 C 985.664 2.01483 -0.0936395 0
M  V30 10309 C 985.977 1.47753 1.28173 0
M  V30 10310 O 987.183 1.95562 1.88329 0
M  V30 10311 C 985.639 3.59711 -0.116738 0
M  V30 10312 C 985.247 4.22437 -1.49166 0
M  V30 10313 C 986.991 4.23157 0.337368 0
M  V30 10314 C 984.898 5.72803 -1.47141 0
M  V30 10315 H 983.828 0.753353 -0.0312382 0
M  V30 10316 H 986.479 1.67142 -0.757347 0
M  V30 10317 H 984.861 3.91218 0.613529 0
M  V30 10318 H 986.035 4.02511 -2.24325 0
M  V30 10319 H 984.35 3.71166 -1.88746 0
M  V30 10320 H 986.947 5.33407 0.371628 0
M  V30 10321 H 987.29 3.93491 1.35906 0
M  V30 10322 H 987.823 3.96349 -0.339474 0
M  V30 10323 H 984.562 6.07161 -2.47055 0
M  V30 10324 H 984.082 5.94936 -0.762329 0
M  V30 10325 H 985.761 6.35907 -1.19294 0
M  V30 10326 N 985.893 0.34162 1.53853 0
M  V30 10327 C 987.142 -0.256475 2.00063 0
M  V30 10328 C 987.455 -1.51811 1.23341 0
M  V30 10329 O 988.661 -2.19332 1.60017 0
M  V30 10330 C 987.117 -0.507567 3.56303 0
M  V30 10331 C 986.725 0.738052 4.41879 0
M  V30 10332 C 988.469 -1.06463 4.10933 0
M  V30 10333 C 986.376 0.457865 5.89625 0
M  V30 10334 H 985.306 -0.0996143 0.747391 0
M  V30 10335 H 987.957 0.456649 1.77727 0
M  V30 10336 H 986.339 -1.28134 3.74697 0
M  V30 10337 H 987.513 1.51278 4.3526 0
M  V30 10338 H 985.828 1.21661 3.98231 0
M  V30 10339 H 988.425 -1.28918 5.18926 0
M  V30 10340 H 988.768 -2.01956 3.64032 0
M  V30 10341 H 989.301 -0.351601 3.96243 0
M  V30 10342 H 986.04 1.38247 6.40756 0
M  V30 10343 H 985.56 -0.278818 5.99152 0
M  V30 10344 H 987.239 0.0743914 6.46957 0
M  V30 10345 N 987.371 -1.57444 0.0701946 0
M  V30 10346 C 988.619 -1.93047 -0.598106 0
M  V30 10347 C 988.94 -0.950841 -1.70247 0
M  V30 10348 O 988.21 0.00127177 -1.959 0
M  V30 10349 H 986.79 -0.712648 -0.223924 0
M  V30 10350 H 989.452 -1.94481 0.127674 0
M  V30 10351 H 988.548 -2.94807 -1.02445 0
M  V30 10352 N 988.849 0.203349 -1.56283 0
M  V30 10353 C 989.812 1.23566 -1.93039 0
M  V30 10354 C 990.812 1.38869 -0.810687 0
M  V30 10355 O 992.002 1.36822 -1.07821 0
M  V30 10356 C 989.134 2.60645 -2.1972 0
M  V30 10357 H 990.327 0.921692 -2.85385 0
M  V30 10358 H 987.88 0.44453 -1.49845 0
M  V30 10359 H 988.615 2.9711 -1.29985 0
M  V30 10360 H 988.4 2.50911 -3.01307 0
M  V30 10361 H 989.89 3.35103 -2.4919 0
M  V30 10362 N 990.327 1.50405 0.470755 0
M  V30 10363 C 991.573 1.6165 1.22462 0
M  V30 10364 C 991.906 0.316034 1.91611 0
M  V30 10365 O 991.181 -0.682509 1.82132 0
M  V30 10366 C 991.464 2.79702 2.26801 0
M  V30 10367 C 991.317 4.19631 1.61955 0
M  V30 10368 C 992.636 2.93313 3.28109 0
M  V30 10369 H 989.755 0.588345 0.443868 0
M  V30 10370 H 992.397 1.82792 0.518376 0
M  V30 10371 H 990.547 2.61807 2.87036 0
M  V30 10372 H 992.219 4.49117 1.05316 0
M  V30 10373 H 990.462 4.23874 0.922674 0
M  V30 10374 H 991.133 4.98162 2.37779 0
M  V30 10375 H 993.609 3.09697 2.77897 0
M  V30 10376 H 992.485 3.77537 3.98443 0
M  V30 10377 H 992.746 2.03942 3.9225 0
M  V30 10378 N 991.805 -0.723954 1.39988 0
M  V30 10379 C 993.051 -1.48591 1.38017 0
M  V30 10380 C 993.384 -1.94189 -0.0203522 0
M  V30 10381 O 992.659 -1.67572 -0.987422 0
M  V30 10382 C 992.942 -2.71786 2.36229 0
M  V30 10383 C 992.795 -2.32136 3.8527 0
M  V30 10384 C 994.114 -3.73921 2.32102 0
M  V30 10385 H 991.233 -0.538993 0.502648 0
M  V30 10386 H 993.875 -0.826908 1.71062 0
M  V30 10387 H 992.025 -3.28015 2.0818 0
M  V30 10388 H 993.697 -1.81454 4.24113 0
M  V30 10389 H 991.94 -1.64234 4.01509 0
M  V30 10390 H 992.611 -3.20406 4.49493 0
M  V30 10391 H 995.087 -3.27303 2.56928 0
M  V30 10392 H 993.963 -4.5777 3.02882 0
M  V30 10393 H 994.224 -4.21627 1.32979 0
M  V30 10394 N 993.283 -1.25346 -0.955304 0
M  V30 10395 C 994.246 -1.05754 -2.03344 0
M  V30 10396 C 995.246 -0.0105743 -1.60797 0
M  V30 10397 O 996.436 -0.252699 -1.72357 0
M  V30 10398 C 993.568 -0.605536 -3.35479 0
M  V30 10399 H 994.761 -2.01459 -2.22158 0
M  V30 10400 H 992.314 -1.07744 -1.1323 0
M  V30 10401 H 993.049 0.354154 -3.2236 0
M  V30 10402 H 992.834 -1.36134 -3.67709 0
M  V30 10403 H 994.324 -0.489867 -4.14717 0
M  V30 10404 N 994.761 1.15782 -1.06922 0
M  V30 10405 C 996.038 1.8253 -0.703 0
M  V30 10406 C 996.418 1.94733 0.814994 0
M  V30 10407 O 995.766 1.49537 1.72774 0
M  V30 10408 C 995.976 3.19145 -1.41234 0
M  V30 10409 C 997.324 3.94839 -1.56164 0
M  V30 10410 O 998.348 3.28685 -1.37277 0
M  V30 10411 O 997.207 5.13436 -1.87205 0
M  V30 10412 H 994.301 0.788425 -0.24963 0
M  V30 10413 H 996.847 1.22931 -1.16988 0
M  V30 10414 H 995.619 3.05336 -2.44715 0
M  V30 10415 H 995.242 3.86427 -0.935959 0
M  V30 10416 N 996.239 0.8527 1.3254 0
M  V30 10417 C 997.467 0.469044 2.01513 0
M  V30 10418 C 997.882 -0.933701 1.64096 0
M  V30 10419 O 997.239 -1.60898 0.861283 0
M  V30 10420 C 997.29 0.596228 3.56549 0
M  V30 10421 O 997.011 1.94371 3.92621 0
M  V30 10422 C 998.512 0.211324 4.42796 0
M  V30 10423 H 995.732 0.184589 0.645111 0
M  V30 10424 H 998.276 1.1491 1.69163 0
M  V30 10425 H 996.431 -0.0360712 3.87383 0
M  V30 10426 H 996.845 1.93909 4.87339 0
M  V30 10427 H 998.319 0.351324 5.50881 0
M  V30 10428 H 998.796 -0.848055 4.30935 0
M  V30 10429 H 999.402 0.818617 4.17347 0
M  V30 10430 N 997.718 -1.45297 0.610449 0
M  V30 10431 C 999.129 -1.85715 0.191488 0
M  V30 10432 C 999.48 -1.51036 -1.25229 0
M  V30 10433 O 998.605 -0.938422 -1.94994 0
M  V30 10434 C 999.2 -3.37082 0.340747 0
M  V30 10435 C 997.759 -3.76393 -0.0235433 0
M  V30 10436 C 996.906 -2.69237 0.663849 0
M  V30 10437 H 999.857 -1.36058 0.816948 0
M  V30 10438 H 999.878 -3.78105 -0.426233 0
M  V30 10439 H 999.39 -3.62291 1.39164 0
M  V30 10440 H 997.491 -3.56801 -1.07351 0
M  V30 10441 H 997.604 -4.77653 0.372102 0
M  V30 10442 H 995.968 -2.54499 0.101204 0
M  V30 10443 H 996.751 -2.97281 1.71694 0
M  V30 10444 N 999.196 -0.349774 -1.5367 0
M  V30 10445 C 1000.11 0.512421 -2.28935 0
M  V30 10446 C 1001.12 1.1065 -1.34286 0
M  V30 10447 O 1002.3 1.12084 -1.67329 0
M  V30 10448 C 999.363 1.64449 -3.05217 0
M  V30 10449 C 998.424 1.07956 -4.15505 0
M  V30 10450 C 997.657 2.15768 -4.88139 0
M  V30 10451 O 997.88 3.366 -4.60496 0
M  V30 10452 O 996.814 1.79712 -5.74445 0
M  V30 10453 H 1000.64 -0.0996001 -3.03537 0
M  V30 10454 H 998.225 -0.114629 -1.4896 0
M  V30 10455 H 1000.11 2.30302 -3.52901 0
M  V30 10456 H 998.782 2.24221 -2.33467 0
M  V30 10457 H 997.689 0.385381 -3.7211 0
M  V30 10458 H 999.022 0.526621 -4.89375 0
M  V30 10459 N 1000.67 1.57404 -0.0785433 0
M  V30 10460 C 1001.62 2.09632 0.896565 0
M  V30 10461 C 1002.61 1.00754 1.25449 0
M  V30 10462 O 1003.8 1.27053 1.23234 0
M  V30 10463 C 1000.93 2.66694 2.16169 0
M  V30 10464 C 1000.01 3.82588 1.82994 0
M  V30 10465 N 1000.41 4.91286 1.203 0
M  V30 10466 C 998.704 3.92011 2.12704 0
M  V30 10467 C 999.405 5.72077 1.05367 0
M  V30 10468 N 998.381 5.20567 1.56559 0
M  V30 10469 H 1002.18 2.9106 0.407621 0
M  V30 10470 H 999.697 1.61917 0.125155 0
M  V30 10471 H 1001.69 3.0243 2.86952 0
M  V30 10472 H 1000.35 1.86716 2.65645 0
M  V30 10473 H 1001.36 5.10509 0.871817 0
M  V30 10474 H 998.042 3.23018 2.6451 0
M  V30 10475 H 999.432 6.69523 0.564685 0
M  V30 10476 N 1002.15 -0.195058 1.56388 0
M  V30 10477 C 1003.38 -0.931642 1.84738 0
M  V30 10478 C 1003.79 -1.76849 0.661046 0
M  V30 10479 O 1003.15 -1.78705 -0.370241 0
M  V30 10480 C 1003.2 -1.82777 3.11889 0
M  V30 10481 O 1002.92 -1.02471 4.25948 0
M  V30 10482 C 1004.42 -2.67603 3.53417 0
M  V30 10483 H 1001.64 -0.271821 0.613477 0
M  V30 10484 H 1004.19 -0.202299 2.03497 0
M  V30 10485 H 1002.34 -2.51074 2.95027 0
M  V30 10486 H 1002.76 -1.63539 4.98353 0
M  V30 10487 H 1004.23 -3.26138 4.45352 0
M  V30 10488 H 1004.71 -3.41314 2.76408 0
M  V30 10489 H 1005.31 -2.04678 3.7281 0
M  V30 10490 N 1003.63 -1.50653 -0.462772 0
M  V30 10491 C 1004.56 -1.66286 -1.5774 0
M  V30 10492 C 1005.57 -0.544094 -1.53439 0
M  V30 10493 O 1006.76 -0.817566 -1.58676 0
M  V30 10494 C 1003.86 -1.63893 -2.96635 0
M  V30 10495 C 1003.04 -2.91939 -3.25716 0
M  V30 10496 C 1002.1 -2.82076 -4.44206 0
M  V30 10497 O 1001.12 -3.56032 -4.44106 0
M  V30 10498 N 1002.32 -1.96196 -5.4634 0
M  V30 10499 H 1005.09 -2.6243 -1.44742 0
M  V30 10500 H 1002.65 -1.48221 -0.651326 0
M  V30 10501 H 1004.64 -1.54897 -3.73884 0
M  V30 10502 H 1003.21 -0.75449 -3.03358 0
M  V30 10503 H 1002.43 -3.14998 -2.37002 0
M  V30 10504 H 1003.72 -3.7675 -3.4196 0
M  V30 10505 H 1003.12 -1.35439 -5.49247 0
M  V30 10506 H 1001.67 -1.93097 -6.2254 0
M  V30 10507 N 1005.11 0.71652 -1.4037 0
M  V30 10508 C 1006.52 1.02447 -1.22379 0
M  V30 10509 C 1006.72 2.0126 -0.0983394 0
M  V30 10510 O 1005.78 2.46569 0.544071 0
M  V30 10511 C 1007.09 1.56909 -2.56515 0
M  V30 10512 C 1008.64 1.68898 -2.6352 0
M  V30 10513 C 1009.12 2.26765 -3.97922 0
M  V30 10514 N 1010.61 2.34152 -3.99658 0
M  V30 10515 C 1011.34 2.79907 -5.00439 0
M  V30 10516 N 1010.84 3.25422 -6.11615 0
M  V30 10517 N 1012.63 2.79283 -4.87809 0
M  V30 10518 H 1004.78 0.0615306 -2.12311 0
M  V30 10519 H 1007.05 0.0898994 -0.943728 0
M  V30 10520 H 1006.75 0.917649 -3.39517 0
M  V30 10521 H 1006.63 2.55446 -2.77538 0
M  V30 10522 H 1009.01 2.33159 -1.8089 0
M  V30 10523 H 1009.09 0.689626 -2.46329 0
M  V30 10524 H 1008.74 1.63126 -4.80991 0
M  V30 10525 H 1008.67 3.27413 -4.12442 0
M  V30 10526 H 1011.16 2.02006 -3.19378 0
M  V30 10527 H 1011.47 3.58899 -6.84406 0
M  V30 10528 H 1009.82 3.23383 -6.15181 0
M  V30 10529 H 1013.01 2.43061 -4.00049 0
M  V30 10530 H 1013.18 3.14626 -5.66493 0
M  V30 10531 N 1006.59 1.25851 0.948643 0
M  V30 10532 C 1007.55 1.0683 2.0278 0
M  V30 10533 C 1008.55 0.0191016 1.60789 0
M  V30 10534 O 1009.74 0.261836 1.72221 0
M  V30 10535 C 1006.87 0.623318 3.35153 0
M  V30 10536 H 1008.06 2.02635 2.21086 0
M  V30 10537 H 1005.62 1.08343 1.12657 0
M  V30 10538 H 1006.35 -0.337053 3.22544 0
M  V30 10539 H 1006.14 1.38082 3.66982 0
M  V30 10540 H 1007.63 0.511854 4.14451 0
M  V30 10541 N 1008.06 -1.15214 1.07534 0
M  V30 10542 C 1009.03 -2.18209 0.701237 0
M  V30 10543 C 1010.03 -1.58693 -0.25946 0
M  V30 10544 O 1011.22 -1.74154 -0.0401744 0
M  V30 10545 C 1008.35 -3.40883 0.0338703 0
M  V30 10546 H 1009.54 -2.5282 1.61314 0
M  V30 10547 H 1007.1 -1.29707 0.872105 0
M  V30 10548 H 1007.83 -3.11843 -0.890187 0
M  V30 10549 H 1007.62 -3.85342 0.72486 0
M  V30 10550 H 1009.11 -4.17056 -0.213152 0
M  V30 10551 N 1009.54 -0.859717 -1.32086 0
M  V30 10552 C 1010.47 -0.265258 -2.2766 0
M  V30 10553 C 1011.49 0.565889 -1.52648 0
M  V30 10554 O 1012.68 0.389554 -1.74197 0
M  V30 10555 C 1009.78 0.643397 -3.32737 0
M  V30 10556 C 1008.95 -0.153024 -4.37132 0
M  V30 10557 C 1008.01 0.682176 -5.21759 0
M  V30 10558 O 1007.03 0.113878 -5.69086 0
M  V30 10559 N 1008.24 1.99602 -5.45105 0
M  V30 10560 H 1011 -1.08653 -2.79311 0
M  V30 10561 H 1008.56 -0.720191 -1.45 0
M  V30 10562 H 1010.55 1.20759 -3.86263 0
M  V30 10563 H 1009.12 1.36535 -2.81206 0
M  V30 10564 H 1008.34 -0.898657 -3.8382 0
M  V30 10565 H 1009.63 -0.699877 -5.03963 0
M  V30 10566 H 1009.03 2.481 -5.08393 0
M  V30 10567 H 1007.59 2.50823 -6.01607 0
M  V30 10568 N 1011.02 1.44971 -0.618145 0
M  V30 10569 C 1012.27 2.0176 -0.11725 0
M  V30 10570 C 1012.59 1.48773 1.26062 0
M  V30 10571 O 1011.86 0.686152 1.83491 0
M  V30 10572 H 1010.44 0.745909 -0.0403545 0
M  V30 10573 H 1013.1 1.77638 -0.801923 0
M  V30 10574 H 1012.2 3.1201 -0.0750477 0
M  V30 10575 N 1012.5 0.357919 1.53482 0
M  V30 10576 C 1013.74 -0.23451 2.0144 0
M  V30 10577 C 1014.08 -1.49044 1.24497 0
M  V30 10578 O 1013.35 -1.91566 0.336535 0
M  V30 10579 C 1013.64 -0.534193 3.56116 0
M  V30 10580 C 1013.49 0.734834 4.43757 0
M  V30 10581 C 1014.81 -1.33793 4.1927 0
M  V30 10582 H 1011.93 -0.0837595 0.732225 0
M  V30 10583 H 1014.57 0.481297 1.83803 0
M  V30 10584 H 1012.72 -1.144 3.71275 0
M  V30 10585 H 1014.39 1.37251 4.40409 0
M  V30 10586 H 1012.63 1.35678 4.12036 0
M  V30 10587 H 1013.3 0.48021 5.49907 0
M  V30 10588 H 1015.78 -0.822158 4.07897 0
M  V30 10589 H 1014.66 -1.51636 5.27539 0
M  V30 10590 H 1014.92 -2.34423 3.74831 0
M  V30 10591 N 1013.98 -1.5736 0.0868897 0
M  V30 10592 C 1014.92 -2.13571 -0.874996 0
M  V30 10593 C 1015.89 -1.0521 -1.2853 0
M  V30 10594 O 1017.08 -1.32954 -1.3685 0
M  V30 10595 C 1014.22 -2.71386 -2.13175 0
M  V30 10596 C 1013.33 -3.93953 -1.77272 0
M  V30 10597 C 1012.47 -4.3996 -2.97671 0
M  V30 10598 C 1011.51 -5.55137 -2.57856 0
M  V30 10599 N 1010.64 -5.96034 -3.71064 0
M  V30 10600 H 1015.48 -2.95453 -0.388789 0
M  V30 10601 H 1013.02 -1.45992 -0.180242 0
M  V30 10602 H 1014.98 -3.03022 -2.86764 0
M  V30 10603 H 1013.61 -1.92245 -2.5931 0
M  V30 10604 H 1012.66 -3.68683 -0.936845 0
M  V30 10605 H 1013.97 -4.77565 -1.43989 0
M  V30 10606 H 1013.13 -4.73337 -3.79522 0
M  V30 10607 H 1011.86 -3.55232 -3.34158 0
M  V30 10608 H 1010.87 -5.21397 -1.7443 0
M  V30 10609 H 1012.09 -6.41608 -2.22522 0
M  V30 10610 H 1010.04 -5.14253 -4.07284 0
M  V30 10611 H 1009.96 -6.74423 -3.41599 0
M  V30 10612 H 1011.23 -6.34038 -4.53449 0
M  V30 10613 N 1015.45 0.186762 -1.56489 0
M  V30 10614 C 1016.7 0.904077 -1.80303 0
M  V30 10615 C 1017.02 1.84073 -0.661538 0
M  V30 10616 O 1018.22 2.59928 -0.784197 0
M  V30 10617 C 1016.68 1.65806 -3.19432 0
M  V30 10618 C 1016.29 0.765807 -4.41406 0
M  V30 10619 C 1018.03 2.36451 -3.52549 0
M  V30 10620 C 1015.94 1.51913 -5.71556 0
M  V30 10621 H 1014.87 0.34133 -0.672317 0
M  V30 10622 H 1017.52 0.157218 -1.82825 0
M  V30 10623 H 1015.9 2.44911 -3.11183 0
M  V30 10624 H 1017.07 0.0128225 -4.60798 0
M  V30 10625 H 1015.39 0.169772 -4.16054 0
M  V30 10626 H 1017.99 2.93378 -4.47027 0
M  V30 10627 H 1018.33 3.11044 -2.7669 0
M  V30 10628 H 1018.86 1.64305 -3.62283 0
M  V30 10629 H 1015.6 0.815829 -6.50403 0
M  V30 10630 H 1015.12 2.24583 -5.56168 0
M  V30 10631 H 1016.8 2.07073 -6.12968 0
M  V30 10632 N 1016.93 1.50896 0.454776 0
M  V30 10633 C 1018.16 1.6648 1.22849 0
M  V30 10634 C 1018.58 0.354841 1.85435 0
M  V30 10635 O 1017.93 -0.664931 1.69956 0
M  V30 10636 C 1017.98 2.76787 2.32532 0
M  V30 10637 O 1017.7 4.02706 1.72509 0
M  V30 10638 C 1019.21 3.03488 3.23125 0
M  V30 10639 H 1016.43 0.559152 0.370932 0
M  V30 10640 H 1018.97 1.97215 0.540983 0
M  V30 10641 H 1017.12 2.48701 2.9703 0
M  V30 10642 H 1017.54 4.63834 2.44863 0
M  V30 10643 H 1019.01 3.84294 3.9626 0
M  V30 10644 H 1019.49 2.152 3.82865 0
M  V30 10645 H 1020.1 3.33167 2.64347 0
M  V30 10646 N 1018.41 -0.709066 1.40748 0
M  V30 10647 C 1019.64 -1.49591 1.425 0
M  V30 10648 C 1020.05 -1.89184 0.0248343 0
M  V30 10649 O 1019.39 -1.56429 -0.963109 0
M  V30 10650 C 1019.45 -2.79735 2.25807 0
M  V30 10651 C 1019.12 -2.62426 3.74141 0
M  V30 10652 C 1020.11 -2.29256 4.66624 0
M  V30 10653 C 1017.8 -2.78487 4.18032 0
M  V30 10654 C 1019.79 -2.12366 6.00982 0
M  V30 10655 C 1017.48 -2.61215 5.52458 0
M  V30 10656 C 1018.48 -2.28203 6.43749 0
M  V30 10657 O 1018.17 -2.11069 7.75697 0
M  V30 10658 H 1017.9 -0.467994 0.487809 0
M  V30 10659 H 1020.45 -0.881694 1.85514 0
M  V30 10660 H 1018.68 -3.43513 1.77584 0
M  V30 10661 H 1020.37 -3.41481 2.19421 0
M  V30 10662 H 1021.14 -2.16474 4.34009 0
M  V30 10663 H 1017.02 -3.03168 3.4729 0
M  V30 10664 H 1020.56 -1.86522 6.72202 0
M  V30 10665 H 1016.46 -2.73582 5.84656 0
M  V30 10666 H 1017.23 -2.25938 7.86698 0
M  V30 10667 N 1019.89 -1.26353 -0.941956 0
M  V30 10668 C 1020.8 -1.09618 -2.07415 0
M  V30 10669 C 1021.82 -0.0298963 -1.73974 0
M  V30 10670 O 1022.99 -0.233466 -2.00042 0
M  V30 10671 C 1020.06 -0.73013 -3.38925 0
M  V30 10672 C 1019.12 -1.87574 -3.86153 0
M  V30 10673 C 1018.35 -1.52706 -5.11387 0
M  V30 10674 O 1018.57 -0.428438 -5.68789 0
M  V30 10675 O 1017.51 -2.36154 -5.53638 0
M  V30 10676 H 1021.33 -2.04598 -2.2444 0
M  V30 10677 H 1018.92 -1.05407 -1.05876 0
M  V30 10678 H 1020.8 -0.538684 -4.17943 0
M  V30 10679 H 1019.48 0.190282 -3.2314 0
M  V30 10680 H 1018.38 -2.12214 -3.08084 0
M  V30 10681 H 1019.72 -2.77585 -4.06457 0
M  V30 10682 N 1021.37 1.14642 -1.08144 0
M  V30 10683 C 1022.28 2.23257 -0.720668 0
M  V30 10684 C 1023.29 1.71866 0.271648 0
M  V30 10685 O 1024.47 2.01064 0.116266 0
M  V30 10686 C 1021.53 3.46447 -0.132542 0
M  V30 10687 C 1020.6 4.12789 -1.17913 0
M  V30 10688 C 1019.83 5.30099 -0.618971 0
M  V30 10689 O 1020.05 5.6762 0.562418 0
M  V30 10690 O 1018.99 5.86154 -1.36774 0
M  V30 10691 H 1022.81 2.56463 -1.62667 0
M  V30 10692 H 1020.4 1.22521 -0.854932 0
M  V30 10693 H 1022.28 4.20959 0.19277 0
M  V30 10694 H 1020.95 3.14971 0.746662 0
M  V30 10695 H 1019.86 3.40163 -1.55693 0
M  V30 10696 H 1021.19 4.48365 -2.03051 0
M  V30 10697 N 1022.85 0.866709 1.31628 0
M  V30 10698 C 1023.78 0.335762 2.31073 0
M  V30 10699 C 1024.76 -0.571597 1.60209 0
M  V30 10700 O 1025.94 -0.489306 1.87935 0
M  V30 10701 C 1023.07 -0.466416 3.44154 0
M  V30 10702 C 1022.03 0.347561 4.26586 0
M  V30 10703 C 1021.35 -0.5801 5.31544 0
M  V30 10704 C 1022.65 1.57986 4.97833 0
M  V30 10705 H 1024.35 1.16673 2.75731 0
M  V30 10706 H 1021.89 0.56248 1.3256 0
M  V30 10707 H 1023.84 -0.84836 4.12772 0
M  V30 10708 H 1022.57 -1.33086 2.98254 0
M  V30 10709 H 1021.23 0.71141 3.59631 0
M  V30 10710 H 1020.88 -1.44174 4.81895 0
M  V30 10711 H 1020.58 -0.0393965 5.87587 0
M  V30 10712 H 1022.1 -0.958958 6.03023 0
M  V30 10713 H 1023.51 1.26954 5.59067 0
M  V30 10714 H 1021.91 2.05939 5.63657 0
M  V30 10715 H 1022.98 2.3345 4.25005 0
M  V30 10716 N 1024.32 -1.44642 0.625825 0
M  V30 10717 C 1025.73 -1.85502 0.211175 0
M  V30 10718 C 1026.09 -1.52356 -1.2362 0
M  V30 10719 O 1025.21 -0.959051 -1.93988 0
M  V30 10720 C 1025.81 -3.36702 0.37648 0
M  V30 10721 C 1024.36 -3.76396 0.0163795 0
M  V30 10722 C 1023.51 -2.68517 0.692368 0
M  V30 10723 H 1026.46 -1.35183 0.831333 0
M  V30 10724 H 1026.48 -3.78536 -0.386106 0
M  V30 10725 H 1026 -3.60795 1.42999 0
M  V30 10726 H 1024.1 -3.57919 -1.0356 0
M  V30 10727 H 1024.21 -4.77231 0.422742 0
M  V30 10728 H 1022.57 -2.54377 0.128191 0
M  V30 10729 H 1023.36 -2.95444 1.74837 0
M  V30 10730 N 1025.8 -0.366053 -1.5329 0
M  V30 10731 C 1026.76 0.467904 -2.24373 0
M  V30 10732 C 1027.76 1.00934 -1.25176 0
M  V30 10733 O 1028.95 0.895015 -1.49449 0
M  V30 10734 C 1026.09 1.65405 -2.98084 0
M  V30 10735 H 1027.28 -0.154105 -2.99504 0
M  V30 10736 H 1024.83 -0.117751 -1.55856 0
M  V30 10737 H 1025.57 2.31413 -2.27197 0
M  V30 10738 H 1025.35 1.27277 -3.70868 0
M  V30 10739 H 1026.84 2.24503 -3.52119 0
M  V30 10740 N 1027.28 1.57312 -0.0952337 0
M  V30 10741 C 1028.53 1.93533 0.568131 0
M  V30 10742 C 1028.84 0.979121 1.6933 0
M  V30 10743 O 1030.05 1.23506 2.41782 0
M  V30 10744 C 1028.5 3.43875 1.06198 0
M  V30 10745 C 1028.11 4.47988 -0.0334397 0
M  V30 10746 C 1029.86 3.89057 1.69807 0
M  V30 10747 C 1027.76 5.89483 0.475774 0
M  V30 10748 H 1026.69 0.7224 0.215995 0
M  V30 10749 H 1029.34 1.82699 -0.171257 0
M  V30 10750 H 1027.73 3.49862 1.85506 0
M  V30 10751 H 1028.9 4.53644 -0.808934 0
M  V30 10752 H 1027.21 4.12415 -0.574725 0
M  V30 10753 H 1029.81 4.92171 2.08978 0
M  V30 10754 H 1030.15 3.27713 2.5673 0
M  V30 10755 H 1030.69 3.85772 0.970815 0
M  V30 10756 H 1027.43 6.54528 -0.356837 0
M  V30 10757 H 1026.95 5.87297 1.21827 0
M  V30 10758 H 1028.63 6.40066 0.944697 0
M  V30 10759 N 1028.76 -0.17846 1.56586 0
M  V30 10760 C 1030.01 -0.894502 1.8078 0
M  V30 10761 C 1030.32 -1.8372 0.67129 0
M  V30 10762 O 1031.53 -2.59509 0.797971 0
M  V30 10763 C 1029.98 -1.64109 3.20306 0
M  V30 10764 C 1029.59 -0.742387 4.41806 0
M  V30 10765 C 1031.33 -2.34578 3.53798 0
M  V30 10766 C 1029.24 -1.4888 5.72354 0
M  V30 10767 H 1028.17 -0.33776 0.674117 0
M  V30 10768 H 1030.82 -0.14752 1.82906 0
M  V30 10769 H 1029.2 -2.43257 3.12477 0
M  V30 10770 H 1030.38 0.011615 4.60799 0
M  V30 10771 H 1028.69 -0.147705 4.16138 0
M  V30 10772 H 1031.29 -2.91004 4.48577 0
M  V30 10773 H 1031.63 -3.09572 2.78336 0
M  V30 10774 H 1032.17 -1.62381 3.63149 0
M  V30 10775 H 1028.9 -0.781325 6.50827 0
M  V30 10776 H 1028.42 -2.21631 5.57351 0
M  V30 10777 H 1030.1 -2.03819 6.14058 0
M  V30 10778 N 1030.24 -1.51135 -0.446768 0
M  V30 10779 C 1031.46 -1.67129 -1.21965 0
M  V30 10780 C 1031.88 -0.36467 -1.85245 0
M  V30 10781 O 1031.24 0.655908 -1.70306 0
M  V30 10782 C 1031.29 -2.78016 -2.31061 0
M  V30 10783 O 1031.01 -4.03615 -1.70371 0
M  V30 10784 C 1032.51 -3.05197 -3.21511 0
M  V30 10785 H 1029.73 -0.561111 -0.367961 0
M  V30 10786 H 1032.27 -1.97499 -0.530517 0
M  V30 10787 H 1030.43 -2.50272 -2.95707 0
M  V30 10788 H 1030.84 -4.65126 -2.424 0
M  V30 10789 H 1032.32 -3.8639 -3.94216 0
M  V30 10790 H 1032.79 -2.17228 -3.81718 0
M  V30 10791 H 1033.4 -3.34565 -2.62577 0
M  V30 10792 N 1031.71 0.701592 -1.41122 0
M  V30 10793 C 1032.96 1.45722 -1.39456 0
M  V30 10794 C 1033.28 1.95599 -0.00475228 0
M  V30 10795 O 1034.48 2.71166 0.134529 0
M  V30 10796 C 1032.94 2.63475 -2.45172 0
M  V30 10797 C 1032.55 2.20409 -3.90031 0
M  V30 10798 C 1034.29 3.4114 -2.52633 0
M  V30 10799 C 1032.2 3.35084 -4.87312 0
M  V30 10800 H 1031.13 0.547341 -0.518588 0
M  V30 10801 H 1033.78 0.762233 -1.6692 0
M  V30 10802 H 1032.16 3.35212 -2.10829 0
M  V30 10803 H 1033.33 1.56 -4.3359 0
M  V30 10804 H 1031.65 1.55752 -3.86174 0
M  V30 10805 H 1034.25 4.26496 -3.22498 0
M  V30 10806 H 1034.59 3.85915 -1.56125 0
M  V30 10807 H 1035.12 2.76456 -2.86037 0
M  V30 10808 H 1031.86 2.95327 -5.85203 0
M  V30 10809 H 1031.38 3.98362 -4.48406 0
M  V30 10810 H 1033.06 4.00949 -5.07788 0
M  V30 10811 N 1033.19 1.2685 0.935242 0
M  V30 10812 C 1034.1 1.10716 2.06831 0
M  V30 10813 C 1035.12 0.0391222 1.73956 0
M  V30 10814 O 1036.29 0.244071 1.99916 0
M  V30 10815 C 1033.36 0.748093 3.38533 0
M  V30 10816 C 1032.42 1.89619 3.85153 0
M  V30 10817 C 1031.65 1.55416 5.1057 0
M  V30 10818 O 1031.88 0.458596 5.68553 0
M  V30 10819 O 1030.81 2.39087 5.52378 0
M  V30 10820 H 1034.64 2.05785 2.23352 0
M  V30 10821 H 1032.22 1.05967 1.05315 0
M  V30 10822 H 1034.1 0.560841 4.17651 0
M  V30 10823 H 1032.78 -0.173142 3.23237 0
M  V30 10824 H 1031.68 2.13845 3.06954 0
M  V30 10825 H 1033.02 2.79737 4.04979 0
M  V30 10826 N 1034.67 -1.14067 1.0875 0
M  V30 10827 C 1035.95 -1.81389 0.73195 0
M  V30 10828 C 1036.33 -1.96005 -0.78391 0
M  V30 10829 O 1035.68 -1.52267 -1.70373 0
M  V30 10830 C 1035.89 -3.16858 1.46294 0
M  V30 10831 C 1037.23 -3.92305 1.62426 0
M  V30 10832 O 1038.26 -3.26459 1.42488 0
M  V30 10833 O 1037.12 -5.10393 1.9535 0
M  V30 10834 H 1034.21 -0.784354 0.262141 0
M  V30 10835 H 1036.76 -1.21054 1.18929 0
M  V30 10836 H 1035.53 -3.01404 2.49542 0
M  V30 10837 H 1035.15 -3.84889 0.997318 0
M  V30 10838 N 1036.15 -0.873678 -1.31166 0
M  V30 10839 C 1037.11 -0.337069 -2.26708 0
M  V30 10840 C 1038.11 0.51406 -1.52362 0
M  V30 10841 O 1039.3 0.322834 -1.71182 0
M  V30 10842 C 1036.43 0.520897 -3.36897 0
M  V30 10843 H 1037.63 -1.18056 -2.75686 0
M  V30 10844 H 1035.18 -0.649577 -1.42163 0
M  V30 10845 H 1035.91 1.38543 -2.93217 0
M  V30 10846 H 1035.7 -0.0886015 -3.92 0
M  V30 10847 H 1037.19 0.888497 -4.08039 0
M  V30 10848 N 1037.63 1.44308 -0.633487 0
M  V30 10849 C 1038.88 2.01239 -0.136356 0
M  V30 10850 C 1039.19 1.50438 1.25011 0
M  V30 10851 O 1040.39 1.99513 1.84138 0
M  V30 10852 C 1038.85 3.59382 -0.193011 0
M  V30 10853 C 1038.46 4.19178 -1.58093 0
M  V30 10854 C 1040.2 4.23778 0.247534 0
M  V30 10855 C 1038.11 5.69553 -1.59258 0
M  V30 10856 H 1037.04 0.752521 -0.0472109 0
M  V30 10857 H 1039.69 1.65498 -0.79263 0
M  V30 10858 H 1038.07 3.92432 0.530408 0
M  V30 10859 H 1039.25 3.97662 -2.32813 0
M  V30 10860 H 1037.56 3.67079 -1.96576 0
M  V30 10861 H 1040.16 5.34075 0.258401 0
M  V30 10862 H 1040.5 3.96285 1.27529 0
M  V30 10863 H 1041.03 3.9554 -0.423469 0
M  V30 10864 H 1037.77 6.01784 -2.59878 0
M  V30 10865 H 1037.29 5.93185 -0.888352 0
M  V30 10866 H 1038.97 6.33234 -1.32756 0
M  V30 10867 N 1039.1 0.374177 1.53094 0
M  V30 10868 C 1040.05 -0.468226 2.26001 0
M  V30 10869 C 1041.02 -1.07041 1.27009 0
M  V30 10870 O 1042.21 -1.10129 1.55809 0
M  V30 10871 C 1039.35 -1.59754 3.05896 0
M  V30 10872 C 1038.46 -1.01969 4.19793 0
M  V30 10873 C 1037.59 -2.11882 4.87113 0
M  V30 10874 C 1036.63 -1.51607 5.93028 0
M  V30 10875 N 1035.77 -2.55388 6.54004 0
M  V30 10876 H 1040.61 0.159983 2.9757 0
M  V30 10877 H 1038.15 0.0907196 1.4682 0
M  V30 10878 H 1040.11 -2.26288 3.50499 0
M  V30 10879 H 1038.74 -2.19628 2.36565 0
M  V30 10880 H 1037.79 -0.244386 3.79614 0
M  V30 10881 H 1039.1 -0.539089 4.95878 0
M  V30 10882 H 1038.25 -2.86218 5.34943 0
M  V30 10883 H 1036.99 -2.63297 4.10519 0
M  V30 10884 H 1036 -0.757891 5.44551 0
M  V30 10885 H 1037.22 -1.01006 6.71546 0
M  V30 10886 H 1035.17 -3.06 5.80258 0
M  V30 10887 H 1035.09 -2.12039 7.25655 0
M  V30 10888 H 1036.35 -3.294 7.06481 0
M  V30 10889 N 1040.58 -1.57259 0.103575 0
M  V30 10890 C 1041.53 -2.15727 -0.869739 0
M  V30 10891 C 1042.52 -1.10236 -1.28625 0
M  V30 10892 O 1043.73 -1.28567 -1.25979 0
M  V30 10893 H 1040.11 -0.690204 -0.298535 0
M  V30 10894 H 1042.08 -2.96317 -0.351984 0
M  V30 10895 C 1040.83 -2.75905 -2.11593 0
M  V30 10896 H 1040.15 -3.56768 -1.80434 0
M  V30 10897 H 1041.59 -3.20373 -2.77736 0
M  V30 10898 C 1040.05 -1.72218 -2.89556 0
M  V30 10899 O 1040.58 -1.16623 -3.84398 0
M  V30 10900 N 1038.78 -1.42514 -2.53255 0
M  V30 10901 H 1038.33 -1.87914 -1.76198 0
M  V30 10902 H 1038.29 -0.733782 -3.05717 0
M  V30 10903 N 1042.06 0.170153 -1.56679 0
M  V30 10904 C 1043.01 1.22997 -1.9742 0
M  V30 10905 C 1044 1.45762 -0.863117 0
M  V30 10906 O 1045.21 1.46328 -1.04824 0
M  V30 10907 H 1041.58 0.413482 -0.628122 0
M  V30 10908 H 1043.55 0.859502 -2.85754 0
M  V30 10909 C 1042.3 2.5615 -2.35122 0
M  V30 10910 H 1041.63 2.39456 -3.20158 0
M  V30 10911 H 1043.07 3.28991 -2.67471 0
M  V30 10912 C 1041.53 3.14992 -1.19507 0
M  V30 10913 O 1042.06 3.98781 -0.483357 0
M  V30 10914 N 1040.26 2.74098 -0.965332 0
M  V30 10915 H 1039.81 2.06062 -1.54585 0
M  V30 10916 H 1039.77 3.13803 -0.193611 0
M  V30 10917 N 1043.54 1.5137 0.438746 0
M  V30 10918 C 1044.76 1.68058 1.21537 0
M  V30 10919 C 1045.19 0.376787 1.84288 0
M  V30 10920 O 1044.55 -0.662911 1.68746 0
M  V30 10921 C 1044.59 2.79684 2.27616 0
M  V30 10922 O 1043.7 2.43189 3.33066 0
M  V30 10923 H 1043.04 0.560408 0.356144 0
M  V30 10924 H 1045.57 1.97926 0.518311 0
M  V30 10925 H 1045.58 3.03726 2.72423 0
M  V30 10926 H 1044.25 3.74293 1.81321 0
M  V30 10927 H 1042.83 2.29713 2.93746 0
M  V30 10928 N 1045.02 -0.694098 1.41492 0
M  V30 10929 C 1046.26 -1.45415 1.40929 0
M  V30 10930 C 1046.59 -1.94491 0.0189301 0
M  V30 10931 O 1045.85 -1.7 -0.96945 0
M  V30 10932 C 1046.15 -2.6805 2.36398 0
M  V30 10933 C 1045.81 -2.37623 3.83205 0
M  V30 10934 C 1044.47 -2.29035 4.23198 0
M  V30 10935 C 1046.83 -2.12555 4.75888 0
M  V30 10936 C 1044.15 -1.93478 5.5388 0
M  V30 10937 C 1046.51 -1.78506 6.06892 0
M  V30 10938 C 1045.17 -1.68415 6.45905 0
M  V30 10939 H 1044.44 -0.53211 0.515694 0
M  V30 10940 H 1047.09 -0.793193 1.74301 0
M  V30 10941 H 1045.39 -3.39086 1.96285 0
M  V30 10942 H 1047.09 -3.26194 2.33234 0
M  V30 10943 H 1043.68 -2.45202 3.51531 0
M  V30 10944 H 1047.86 -2.18133 4.45793 0
M  V30 10945 H 1043.12 -1.84219 5.82986 0
M  V30 10946 H 1047.29 -1.58128 6.7821 0
M  V30 10947 H 1044.92 -1.40631 7.47079 0
M  V30 10948 N 1046.49 -1.27344 -0.928501 0
M  V30 10949 C 1047.72 -1.16278 -1.70772 0
M  V30 10950 C 1048.13 0.283131 -1.8707 0
M  V30 10951 O 1047.48 1.20466 -1.38685 0
M  V30 10952 C 1047.54 -1.77313 -3.1273 0
M  V30 10953 C 1047.2 -3.26488 -3.19773 0
M  V30 10954 C 1048.2 -4.23133 -3.02083 0
M  V30 10955 C 1045.88 -3.67182 -3.42757 0
M  V30 10956 C 1047.88 -5.5845 -3.07267 0
M  V30 10957 C 1045.56 -5.02629 -3.47574 0
M  V30 10958 C 1046.56 -5.98072 -3.29847 0
M  V30 10959 O 1046.25 -7.3105 -3.34397 0
M  V30 10960 H 1045.98 -0.405215 -0.541089 0
M  V30 10961 H 1048.54 -1.68707 -1.17163 0
M  V30 10962 H 1046.77 -1.19361 -3.67818 0
M  V30 10963 H 1048.46 -1.60972 -3.72616 0
M  V30 10964 H 1049.22 -3.93031 -2.84168 0
M  V30 10965 H 1045.1 -2.93369 -3.55606 0
M  V30 10966 H 1048.64 -6.32924 -2.93348 0
M  V30 10967 H 1044.54 -5.32387 -3.65013 0
M  V30 10968 H 1045.31 -7.39488 -3.50857 0
M  V30 10969 N 1047.97 1.13488 -1.09353 0
M  V30 10970 C 1049.22 1.84383 -0.827488 0
M  V30 10971 C 1049.54 1.83892 0.648745 0
M  V30 10972 O 1048.81 1.29415 1.47066 0
M  V30 10973 H 1047.39 0.682732 -0.303127 0
M  V30 10974 H 1050.05 1.37477 -1.38152 0
M  V30 10975 H 1049.15 2.88919 -1.18035 0
M  V30 10976 N 1049.45 0.880621 1.30701 0
M  V30 10977 C 1050.86 0.547993 1.78477 0
M  V30 10978 C 1051.21 -0.935633 1.72454 0
M  V30 10979 O 1050.34 -1.73094 1.29874 0
M  V30 10980 C 1050.93 0.98795 3.24076 0
M  V30 10981 C 1049.49 0.706805 3.69704 0
M  V30 10982 C 1048.64 1.17335 2.51252 0
M  V30 10983 H 1051.59 1.06528 1.17633 0
M  V30 10984 H 1051.61 0.31508 3.79193 0
M  V30 10985 H 1051.12 2.06778 3.28427 0
M  V30 10986 H 1049.22 -0.36122 3.70845 0
M  V30 10987 H 1049.34 1.2913 4.6137 0
M  V30 10988 H 1047.7 0.592808 2.47705 0
M  V30 10989 H 1048.48 2.26083 2.58343 0
M  V30 10990 N 1050.93 -1.4397 0.641131 0
M  V30 10991 C 1051.84 -2.34526 -0.058742 0
M  V30 10992 C 1052.86 -1.53194 -0.825088 0
M  V30 10993 O 1054.03 -1.85888 -0.775081 0
M  V30 10994 C 1051.1 -3.31313 -1.02139 0
M  V30 10995 C 1050.16 -4.28552 -0.253319 0
M  V30 10996 C 1049.39 -5.20715 -1.17012 0
M  V30 10997 O 1049.61 -5.17028 -2.40911 0
M  V30 10998 O 1048.55 -5.9839 -0.649039 0
M  V30 10999 H 1052.37 -2.95843 0.686329 0
M  V30 11000 H 1049.96 -1.43909 0.401316 0
M  V30 11001 H 1051.84 -3.90862 -1.57496 0
M  V30 11002 H 1050.52 -2.72516 -1.7469 0
M  V30 11003 H 1049.42 -3.72519 0.343531 0
M  V30 11004 H 1050.76 -4.90297 0.432372 0
M  V30 11005 N 1052.41 -0.382291 -1.52893 0
M  V30 11006 C 1053.34 0.447829 -2.29165 0
M  V30 11007 C 1054.32 1.06956 -1.32267 0
M  V30 11008 O 1055.5 1.08365 -1.61154 0
M  V30 11009 C 1052.63 1.57902 -3.09329 0
M  V30 11010 C 1051.59 1.08369 -4.14053 0
M  V30 11011 C 1050.91 2.30641 -4.82399 0
M  V30 11012 C 1052.21 0.156591 -5.22065 0
M  V30 11013 H 1053.91 -0.188541 -2.98806 0
M  V30 11014 H 1051.45 -0.0921179 -1.43705 0
M  V30 11015 H 1053.41 2.16652 -3.61442 0
M  V30 11016 H 1052.13 2.24287 -2.37409 0
M  V30 11017 H 1050.79 0.518772 -3.62911 0
M  V30 11018 H 1050.44 2.9552 -4.07034 0
M  V30 11019 H 1050.14 1.98163 -5.53177 0
M  V30 11020 H 1051.66 2.90047 -5.37313 0
M  V30 11021 H 1053.08 0.652065 -5.6958 0
M  V30 11022 H 1051.47 -0.0780978 -6.00049 0
M  V30 11023 H 1052.54 -0.796529 -4.78313 0
M  V30 11024 N 1053.89 1.57202 -0.111913 0
M  V30 11025 C 1054.83 2.14936 0.840908 0
M  V30 11026 C 1055.8 1.07242 1.2684 0
M  V30 11027 O 1056.99 1.35114 1.34718 0
M  V30 11028 C 1054.13 2.74743 2.0883 0
M  V30 11029 C 1053.24 3.96723 1.70982 0
M  V30 11030 C 1052.38 4.4464 2.90634 0
M  V30 11031 C 1051.41 5.59169 2.48992 0
M  V30 11032 N 1050.55 6.01862 3.61534 0
M  V30 11033 H 1055.39 2.96034 0.341735 0
M  V30 11034 H 1052.93 1.4626 0.156993 0
M  V30 11035 H 1054.89 3.07546 2.81907 0
M  V30 11036 H 1053.52 1.96346 2.56218 0
M  V30 11037 H 1052.57 3.70127 0.878072 0
M  V30 11038 H 1053.88 4.79795 1.36373 0
M  V30 11039 H 1053.03 4.79315 3.71944 0
M  V30 11040 H 1051.77 3.60503 3.28464 0
M  V30 11041 H 1050.78 5.24106 1.66113 0
M  V30 11042 H 1052 6.45067 2.12287 0
M  V30 11043 H 1049.95 5.20667 3.99051 0
M  V30 11044 H 1049.87 6.79772 3.30827 0
M  V30 11045 H 1051.13 6.41172 4.43305 0
M  V30 11046 N 1055.36 -0.161842 1.56767 0
M  V30 11047 C 1056.61 -0.875278 1.81719 0
M  V30 11048 C 1056.93 -1.82998 0.690739 0
M  V30 11049 O 1058.13 -2.58648 0.82545 0
M  V30 11050 C 1056.59 -1.60703 3.22029 0
M  V30 11051 C 1056.2 -0.695486 4.42569 0
M  V30 11052 C 1057.94 -2.30813 3.56266 0
M  V30 11053 C 1055.85 -1.42801 5.73901 0
M  V30 11054 H 1054.78 -0.330591 0.677662 0
M  V30 11055 H 1057.43 -0.128112 1.83052 0
M  V30 11056 H 1055.81 -2.39929 3.1504 0
M  V30 11057 H 1056.98 0.0604882 4.6076 0
M  V30 11058 H 1055.3 -0.10356 4.16271 0
M  V30 11059 H 1057.9 -2.86229 4.51638 0
M  V30 11060 H 1058.24 -3.06603 2.81604 0
M  V30 11061 H 1058.77 -1.5852 3.64851 0
M  V30 11062 H 1055.51 -0.712253 6.51619 0
M  V30 11063 H 1055.03 -2.15707 5.5967 0
M  V30 11064 H 1056.71 -1.97295 6.16185 0
M  V30 11065 N 1056.84 -1.516 -0.430713 0
M  V30 11066 C 1057.75 -1.76247 -1.54836 0
M  V30 11067 C 1058.77 -0.646985 -1.61524 0
M  V30 11068 O 1059.94 -0.929987 -1.78643 0
M  V30 11069 C 1057.01 -1.88833 -2.90763 0
M  V30 11070 C 1056.07 -3.12701 -2.94137 0
M  V30 11071 C 1055.3 -3.24676 -4.23581 0
M  V30 11072 O 1055.53 -2.42429 -5.16318 0
M  V30 11073 O 1054.46 -4.17697 -4.33374 0
M  V30 11074 H 1058.29 -2.71069 -1.3695 0
M  V30 11075 H 1055.87 -1.36182 -0.614396 0
M  V30 11076 H 1057.75 -1.99057 -3.71422 0
M  V30 11077 H 1056.43 -0.971987 -3.08762 0
M  V30 11078 H 1055.33 -3.0795 -2.1241 0
M  V30 11079 H 1056.67 -4.04045 -2.81084 0
M  V30 11080 N 1058.32 0.686584 -1.41858 0
M  V30 11081 C 1059.27 1.80038 -1.44413 0
M  V30 11082 C 1060.24 1.63415 -0.297427 0
M  V30 11083 O 1061.42 1.84138 -0.499789 0
M  V30 11084 C 1058.56 3.17988 -1.34082 0
M  V30 11085 C 1057.67 3.45979 -2.58693 0
M  V30 11086 C 1056.81 4.73592 -2.4059 0
M  V30 11087 C 1055.85 4.94581 -3.60633 0
M  V30 11088 N 1054.99 6.13426 -3.41545 0
M  V30 11089 H 1059.83 1.77189 -2.396 0
M  V30 11090 H 1057.36 0.865158 -1.18968 0
M  V30 11091 H 1059.32 3.97689 -1.26092 0
M  V30 11092 H 1057.95 3.1999 -0.424975 0
M  V30 11093 H 1057 2.60617 -2.77097 0
M  V30 11094 H 1058.31 3.57386 -3.47961 0
M  V30 11095 H 1057.47 5.61364 -2.30119 0
M  V30 11096 H 1056.21 4.64448 -1.48794 0
M  V30 11097 H 1055.21 4.05254 -3.71549 0
M  V30 11098 H 1056.44 5.05578 -4.53395 0
M  V30 11099 H 1054.38 6.05477 -2.52456 0
M  V30 11100 H 1054.3 6.25641 -4.24393 0
M  V30 11101 H 1055.57 7.03908 -3.34864 0
M  V30 11102 N 1059.8 1.27835 0.921735 0
M  V30 11103 C 1061.05 1.14296 1.66676 0
M  V30 11104 C 1061.37 -0.310493 1.92512 0
M  V30 11105 O 1060.64 -1.21637 1.53562 0
M  V30 11106 H 1059.22 0.419994 0.617749 0
M  V30 11107 H 1061.88 1.60449 1.10644 0
M  V30 11108 H 1060.97 1.67654 2.63246 0
M  V30 11109 N 1061.28 -1.12907 1.09954 0
M  V30 11110 C 1062.55 -1.80602 0.751148 0
M  V30 11111 C 1062.93 -1.96826 -0.763077 0
M  V30 11112 O 1062.28 -1.54066 -1.68749 0
M  V30 11113 C 1062.49 -3.15289 1.49646 0
M  V30 11114 C 1063.84 -3.9056 1.66578 0
M  V30 11115 O 1064.86 -3.24929 1.45943 0
M  V30 11116 O 1063.72 -5.08292 2.00752 0
M  V30 11117 H 1060.82 -0.781529 0.270446 0
M  V30 11118 H 1063.36 -1.19786 1.20206 0
M  V30 11119 H 1062.13 -2.9874 2.52725 0
M  V30 11120 H 1061.76 -3.83809 1.03808 0
M  V30 11121 N 1062.75 -0.88754 -1.30232 0
M  V30 11122 C 1063.68 -0.372481 -2.3051 0
M  V30 11123 C 1064.66 0.546037 -1.61098 0
M  V30 11124 O 1065.85 0.459345 -1.88689 0
M  V30 11125 C 1062.98 0.411605 -3.44852 0
M  V30 11126 C 1061.93 -0.415383 -4.2598 0
M  V30 11127 C 1061.26 0.495463 -5.324 0
M  V30 11128 C 1062.56 -1.65886 -4.95257 0
M  V30 11129 H 1064.25 -1.21045 -2.7384 0
M  V30 11130 H 1061.8 -0.583498 -1.31648 0
M  V30 11131 H 1063.75 0.782584 -4.1407 0
M  V30 11132 H 1062.48 1.28325 -3.00334 0
M  V30 11133 H 1061.14 -0.768534 -3.58454 0
M  V30 11134 H 1060.78 1.36489 -4.84128 0
M  V30 11135 H 1060.48 -0.0540885 -5.87575 0
M  V30 11136 H 1062.01 0.862901 -6.04472 0
M  V30 11137 H 1063.42 -1.35832 -5.56976 0
M  V30 11138 H 1061.82 -2.14881 -5.60309 0
M  V30 11139 H 1062.89 -2.40181 -4.21237 0
M  V30 11140 N 1064.23 1.43628 -0.648757 0
M  V30 11141 C 1065.18 2.30755 0.0455536 0
M  V30 11142 C 1066.15 1.44495 0.819168 0
M  V30 11143 O 1067.33 1.73372 0.79667 0
M  V30 11144 C 1064.47 3.30017 1.00908 0
M  V30 11145 C 1063.59 4.31376 0.232039 0
M  V30 11146 C 1062.72 5.17723 1.18897 0
M  V30 11147 C 1061.76 6.10778 0.402096 0
M  V30 11148 N 1060.9 6.89763 1.31038 0
M  V30 11149 H 1065.74 2.89581 -0.70332 0
M  V30 11150 H 1063.28 1.42662 -0.3586 0
M  V30 11151 H 1065.23 3.86072 1.58128 0
M  V30 11152 H 1063.86 2.72851 1.72488 0
M  V30 11153 H 1062.92 3.77652 -0.456373 0
M  V30 11154 H 1064.23 4.9735 -0.380023 0
M  V30 11155 H 1063.38 5.78381 1.83194 0
M  V30 11156 H 1062.12 4.51864 1.83494 0
M  V30 11157 H 1061.13 5.49212 -0.254255 0
M  V30 11158 H 1062.35 6.78678 -0.239411 0
M  V30 11159 H 1060.3 6.26557 1.94324 0
M  V30 11160 H 1060.21 7.52243 0.752774 0
M  V30 11161 H 1061.48 7.54931 1.94164 0
M  V30 11162 N 1065.71 0.390394 1.52688 0
M  V30 11163 C 1066.66 -0.444229 2.26485 0
M  V30 11164 C 1067.63 -1.05688 1.28138 0
M  V30 11165 O 1068.81 -1.0847 1.56968 0
M  V30 11166 C 1065.95 -1.56501 3.07574 0
M  V30 11167 C 1065.07 -0.975111 4.20851 0
M  V30 11168 C 1064.2 -2.06704 4.89333 0
M  V30 11169 C 1063.24 -1.45309 5.94602 0
M  V30 11170 N 1062.38 -2.48437 6.56676 0
M  V30 11171 H 1067.22 0.191535 2.97384 0
M  V30 11172 H 1064.75 0.106287 1.46716 0
M  V30 11173 H 1066.71 -2.22558 3.52879 0
M  V30 11174 H 1065.34 -2.17107 2.38881 0
M  V30 11175 H 1064.39 -0.204109 3.79852 0
M  V30 11176 H 1065.71 -0.486465 4.96422 0
M  V30 11177 H 1064.86 -2.80528 5.37949 0
M  V30 11178 H 1063.6 -2.58928 4.13289 0
M  V30 11179 H 1062.6 -0.700091 5.45324 0
M  V30 11180 H 1063.83 -0.938775 6.7258 0
M  V30 11181 H 1061.77 -2.99829 5.83471 0
M  V30 11182 H 1061.69 -2.04331 7.27863 0
M  V30 11183 H 1062.96 -3.21888 7.09935 0
M  V30 11184 N 1067.19 -1.57141 0.120249 0
M  V30 11185 C 1068.44 -1.94852 -0.536387 0
M  V30 11186 C 1068.76 -1.00452 -1.67136 0
M  V30 11187 O 1068.03 -0.061053 -1.95805 0
M  V30 11188 H 1066.61 -0.719411 -0.201138 0
M  V30 11189 H 1069.27 -1.93977 0.189482 0
M  V30 11190 H 1068.37 -2.97917 -0.930145 0
M  V30 11191 N 1068.67 0.153526 -1.5685 0
M  V30 11192 C 1069.91 0.867232 -1.8299 0
M  V30 11193 C 1070.24 1.81462 -0.700125 0
M  V30 11194 O 1069.5 1.93207 0.311348 0
M  V30 11195 C 1069.8 1.68066 -3.15418 0
M  V30 11196 C 1069.46 0.880635 -4.42217 0
M  V30 11197 C 1068.12 0.659899 -4.76654 0
M  V30 11198 C 1070.48 0.320698 -5.20212 0
M  V30 11199 C 1067.8 -0.131588 -5.86552 0
M  V30 11200 C 1070.16 -0.457794 -6.30941 0
M  V30 11201 C 1068.82 -0.689168 -6.63933 0
M  V30 11202 H 1068.09 0.317343 -0.669608 0
M  V30 11203 H 1070.74 0.131208 -1.9105 0
M  V30 11204 H 1069.04 2.4866 -3.02779 0
M  V30 11205 H 1070.74 2.23623 -3.32857 0
M  V30 11206 H 1067.33 1.06274 -4.15215 0
M  V30 11207 H 1071.51 0.47853 -4.93988 0
M  V30 11208 H 1066.77 -0.320413 -6.1056 0
M  V30 11209 H 1070.94 -0.898839 -6.90575 0
M  V30 11210 H 1068.57 -1.30433 -7.48927 0
M  V30 11211 N 1070.14 1.51827 0.422667 0
M  V30 11212 C 1071.37 1.69337 1.19748 0
M  V30 11213 C 1071.79 0.396312 1.83878 0
M  V30 11214 O 1071.15 -0.644976 1.6944 0
M  V30 11215 C 1071.2 2.82082 2.24637 0
M  V30 11216 O 1070.3 2.46708 3.30468 0
M  V30 11217 H 1069.65 0.564154 0.35018 0
M  V30 11218 H 1072.18 1.98465 0.497289 0
M  V30 11219 H 1072.19 3.06599 2.69186 0
M  V30 11220 H 1070.86 3.76195 1.77341 0
M  V30 11221 H 1069.44 2.32815 2.91293 0
M  V30 11222 N 1071.62 -0.679052 1.4222 0
M  V30 11223 C 1072.53 -1.82221 1.47759 0
M  V30 11224 C 1073.55 -1.70092 0.3667 0
M  V30 11225 O 1074.72 -1.91718 0.616957 0
M  V30 11226 C 1071.79 -3.18332 1.37351 0
M  V30 11227 C 1070.85 -3.42449 2.58896 0
M  V30 11228 C 1070.08 -4.72067 2.48976 0
M  V30 11229 O 1070.31 -5.49683 1.5233 0
M  V30 11230 O 1069.24 -4.97333 3.39033 0
M  V30 11231 H 1073.07 -1.80504 2.44238 0
M  V30 11232 H 1070.65 -0.834251 1.23938 0
M  V30 11233 H 1072.53 -3.99563 1.33893 0
M  V30 11234 H 1071.21 -3.20696 0.439965 0
M  V30 11235 H 1070.12 -2.61083 2.6793 0
M  V30 11236 H 1071.45 -3.44912 3.51136 0
M  V30 11237 N 1073.1 -1.28322 -0.914942 0
M  V30 11238 C 1074.06 -1.12169 -1.99877 0
M  V30 11239 C 1075.06 -0.0617252 -1.60681 0
M  V30 11240 O 1076.25 -0.307405 -1.71466 0
M  V30 11241 C 1073.39 -0.711959 -3.33383 0
M  V30 11242 H 1074.58 -2.08425 -2.15636 0
M  V30 11243 H 1072.13 -1.11291 -1.09745 0
M  V30 11244 H 1072.87 0.251418 -3.23324 0
M  V30 11245 H 1072.65 -1.47764 -3.63192 0
M  V30 11246 H 1074.14 -0.621558 -4.12948 0
M  V30 11247 N 1074.58 1.12322 -1.10551 0
M  V30 11248 C 1075.86 1.80201 -0.760715 0
M  V30 11249 C 1076.24 1.97228 0.752628 0
M  V30 11250 O 1075.58 1.54958 1.67929 0
M  V30 11251 C 1075.79 3.14491 -1.51316 0
M  V30 11252 C 1077.14 3.89671 -1.68647 0
M  V30 11253 O 1078.17 3.24151 -1.47664 0
M  V30 11254 O 1077.02 5.0722 -2.03445 0
M  V30 11255 H 1074.12 0.780084 -0.274587 0
M  V30 11256 H 1076.66 1.19147 -1.20839 0
M  V30 11257 H 1075.44 2.97396 -2.54306 0
M  V30 11258 H 1075.06 3.83253 -1.05842 0
M  V30 11259 N 1076.06 0.894434 1.2976 0
M  V30 11260 C 1077 0.357958 2.29829 0
M  V30 11261 C 1078 -0.540093 1.6056 0
M  V30 11262 O 1079.2 -0.423478 1.74948 0
M  V30 11263 H 1075.58 0.0971183 0.745702 0
M  V30 11264 H 1077.55 1.21542 2.72526 0
M  V30 11265 C 1076.3 -0.404126 3.45343 0
M  V30 11266 H 1075.62 0.277671 3.98835 0
M  V30 11267 H 1077.06 -0.744446 4.17413 0
M  V30 11268 C 1075.52 -1.6048 2.96222 0
M  V30 11269 O 1076.05 -2.70414 2.97051 0
M  V30 11270 N 1074.26 -1.44517 2.52117 0
M  V30 11271 H 1073.8 -0.55082 2.51642 0
M  V30 11272 H 1073.76 -2.24987 2.1961 0
M  V30 11273 N 1077.53 -1.43282 0.656365 0
M  V30 11274 C 1078.78 -2.02075 0.171293 0
M  V30 11275 C 1079.11 -1.51682 -1.21269 0
M  V30 11276 O 1078.39 -0.711243 -1.81029 0
M  V30 11277 C 1078.67 -3.59621 0.185602 0
M  V30 11278 C 1078.52 -4.20239 1.60373 0
M  V30 11279 C 1079.84 -4.37515 -0.476289 0
M  V30 11280 H 1076.96 -0.73424 0.0637185 0
M  V30 11281 H 1079.6 -1.70539 0.837648 0
M  V30 11282 H 1077.75 -3.86619 -0.381804 0
M  V30 11283 H 1079.43 -4.0426 2.22197 0
M  V30 11284 H 1077.67 -3.76769 2.15006 0
M  V30 11285 H 1078.34 -5.29333 1.56557 0
M  V30 11286 H 1080.82 -4.16099 0.00651073 0
M  V30 11287 H 1079.69 -5.47169 -0.435562 0
M  V30 11288 H 1079.95 -4.14003 -1.55093 0
M  V30 11289 N 1079.01 -0.398486 -1.52479 0
M  V30 11290 C 1080.26 0.181019 -2.0199 0
M  V30 11291 C 1080.59 1.45691 -1.28405 0
M  V30 11292 O 1079.87 1.90607 -0.387207 0
M  V30 11293 C 1080.15 0.439587 -3.57407 0
M  V30 11294 C 1080 -0.85223 -4.41653 0
M  V30 11295 C 1081.32 1.2263 -4.2267 0
M  V30 11296 H 1078.44 0.0643164 -0.734188 0
M  V30 11297 H 1081.08 -0.52986 -1.82462 0
M  V30 11298 H 1079.23 1.04516 -3.74177 0
M  V30 11299 H 1080.91 -1.48879 -4.36615 0
M  V30 11300 H 1079.15 -1.46555 -4.08294 0
M  V30 11301 H 1079.82 -0.625839 -5.48441 0
M  V30 11302 H 1082.3 0.713722 -4.09933 0
M  V30 11303 H 1081.17 1.37596 -5.31374 0
M  V30 11304 H 1081.43 2.24403 -3.80914 0
M  V30 11305 N 1080.49 1.57075 -0.12858 0
M  V30 11306 C 1081.72 2.00305 0.537839 0
M  V30 11307 C 1082.14 1.00787 1.58819 0
M  V30 11308 O 1081.5 -0.0190839 1.8129 0
M  V30 11309 C 1081.55 3.42371 1.13201 0
M  V30 11310 O 1080.65 3.45786 2.24735 0
M  V30 11311 H 1079.99 0.650456 0.133428 0
M  V30 11312 H 1082.52 2.03415 -0.219882 0
M  V30 11313 H 1082.53 3.80783 1.4652 0
M  V30 11314 H 1081.21 4.14315 0.362713 0
M  V30 11315 H 1079.78 3.19201 1.92783 0
M  V30 11316 N 1081.97 -0.145205 1.5693 0
M  V30 11317 C 1083.22 -0.855822 1.83085 0
M  V30 11318 C 1083.54 -1.81625 0.709747 0
M  V30 11319 O 1082.81 -1.94052 -0.268456 0
M  V30 11320 H 1081.39 -0.319032 0.675446 0
M  V30 11321 H 1084.05 -0.138781 1.94405 0
M  V30 11322 H 1083.15 -1.41698 2.78079 0
M  V30 11323 N 1083.45 -1.52049 -0.414609 0
M  V30 11324 C 1084.36 -1.7788 -1.52958 0
M  V30 11325 C 1085.37 -0.66408 -1.60829 0
M  V30 11326 O 1086.55 -0.948882 -1.77646 0
M  V30 11327 C 1083.61 -1.91906 -2.88744 0
M  V30 11328 C 1082.68 -3.15803 -2.90804 0
M  V30 11329 C 1081.91 -3.29151 -4.20114 0
M  V30 11330 O 1082.13 -2.47892 -5.13718 0
M  V30 11331 O 1081.07 -4.2227 -4.28919 0
M  V30 11332 H 1084.89 -2.72506 -1.34067 0
M  V30 11333 H 1082.48 -1.36826 -0.599918 0
M  V30 11334 H 1084.36 -2.02986 -3.6929 0
M  V30 11335 H 1083.03 -1.00468 -3.07714 0
M  V30 11336 H 1081.94 -3.10185 -2.09131 0
M  V30 11337 H 1083.27 -4.07004 -2.76783 0
M  V30 11338 N 1084.93 0.6715 -1.42579 0
M  V30 11339 C 1086.17 1.42731 -1.42516 0
M  V30 11340 C 1086.49 1.95545 -0.0462407 0
M  V30 11341 O 1087.69 2.71391 0.0769798 0
M  V30 11342 C 1086.15 2.58215 -2.50705 0
M  V30 11343 C 1085.76 2.12086 -3.94618 0
M  V30 11344 C 1087.5 3.35705 -2.59813 0
M  V30 11345 C 1085.41 3.24672 -4.9431 0
M  V30 11346 H 1084.34 0.536218 -0.530081 0
M  V30 11347 H 1086.99 0.726655 -1.68499 0
M  V30 11348 H 1085.37 3.30665 -2.17892 0
M  V30 11349 H 1086.55 1.46768 -4.36802 0
M  V30 11350 H 1084.86 1.47526 -3.89391 0
M  V30 11351 H 1087.46 4.1956 -3.31472 0
M  V30 11352 H 1087.8 3.82517 -1.64276 0
M  V30 11353 H 1088.33 2.70326 -2.91836 0
M  V30 11354 H 1085.07 2.82848 -5.91335 0
M  V30 11355 H 1084.59 3.88761 -4.56755 0
M  V30 11356 H 1086.27 3.90088 -5.16179 0
M  V30 11357 N 1086.4 1.28806 0.908124 0
M  V30 11358 C 1087.63 1.1898 1.689 0
M  V30 11359 C 1088.04 -0.253334 1.87496 0
M  V30 11360 O 1087.38 -1.18245 1.40584 0
M  V30 11361 C 1087.45 1.82266 3.0987 0
M  V30 11362 C 1087.11 3.31534 3.14538 0
M  V30 11363 C 1088.11 4.27886 2.95313 0
M  V30 11364 C 1085.79 3.72589 3.36872 0
M  V30 11365 C 1087.79 5.63267 2.98343 0
M  V30 11366 C 1085.47 5.08095 3.39534 0
M  V30 11367 C 1086.47 6.03244 3.2029 0
M  V30 11368 O 1086.16 7.36277 3.22724 0
M  V30 11369 H 1085.89 0.413772 0.534574 0
M  V30 11370 H 1088.45 1.7055 1.14464 0
M  V30 11371 H 1086.68 1.25197 3.65872 0
M  V30 11372 H 1088.36 1.6688 3.70008 0
M  V30 11373 H 1089.13 3.97502 2.77879 0
M  V30 11374 H 1085.01 2.98989 3.50894 0
M  V30 11375 H 1088.55 6.37511 2.83241 0
M  V30 11376 H 1084.45 5.38126 3.56497 0
M  V30 11377 H 1085.22 7.44976 3.39048 0
M  V30 11378 N 1087.88 -1.11734 1.11145 0
M  V30 11379 C 1089.13 -1.82766 0.853194 0
M  V30 11380 C 1089.44 -1.85408 -0.623168 0
M  V30 11381 O 1090.65 -2.52509 -0.997574 0
M  V30 11382 C 1089.11 -3.28215 1.47658 0
M  V30 11383 C 1088.71 -3.33911 2.98676 0
M  V30 11384 C 1090.46 -4.04168 1.29803 0
M  V30 11385 C 1088.36 -4.73739 3.54013 0
M  V30 11386 H 1087.29 -0.684807 0.315523 0
M  V30 11387 H 1089.95 -1.25756 1.33633 0
M  V30 11388 H 1088.33 -3.85138 0.921116 0
M  V30 11389 H 1089.5 -2.86887 3.606 0
M  V30 11390 H 1087.82 -2.71437 3.15771 0
M  V30 11391 H 1090.41 -5.07429 1.68582 0
M  V30 11392 H 1090.76 -4.15606 0.240302 0
M  V30 11393 H 1091.29 -3.53623 1.82196 0
M  V30 11394 H 1088.03 -4.67497 4.59485 0
M  V30 11395 H 1087.55 -5.21186 2.9686 0
M  V30 11396 H 1089.23 -5.42691 3.52271 0
M  V30 11397 N 1089.36 -0.901303 -1.29284 0
M  V30 11398 C 1090.61 -0.527 -1.95108 0
M  V30 11399 C 1090.93 0.930065 -1.71391 0
M  V30 11400 O 1090.2 1.65601 -1.04658 0
M  V30 11401 H 1088.78 -0.191903 -0.721929 0
M  V30 11402 H 1091.44 -1.14795 -1.57506 0
M  V30 11403 H 1090.54 -0.710945 -3.03895 0
M  V30 11404 N 1090.84 1.42931 -0.663954 0
M  V30 11405 C 1092.09 2.01284 -0.181379 0
M  V30 11406 C 1092.41 1.52708 1.21265 0
M  V30 11407 O 1091.68 0.744181 1.81215 0
M  V30 11408 H 1090.26 0.744248 -0.0640646 0
M  V30 11409 H 1092.92 1.74997 -0.858031 0
M  V30 11410 H 1092.01 3.11613 -0.174273 0
M  V30 11411 N 1092.32 0.406567 1.52266 0
M  V30 11412 C 1093.25 -0.45552 2.24628 0
M  V30 11413 C 1094.26 -1.01234 1.27497 0
M  V30 11414 O 1095.45 -0.911718 1.5346 0
M  V30 11415 C 1092.55 -1.64578 2.96256 0
M  V30 11416 C 1091.72 -1.2133 4.20235 0
M  V30 11417 C 1090.78 -2.27018 4.7471 0
M  V30 11418 O 1089.81 -1.87714 5.37357 0
M  V30 11419 N 1091.01 -3.5915 4.56061 0
M  V30 11420 H 1093.77 0.164525 2.99248 0
M  V30 11421 H 1091.34 0.233812 1.60203 0
M  V30 11422 H 1093.33 -2.3484 3.29594 0
M  V30 11423 H 1091.9 -2.1718 2.24837 0
M  V30 11424 H 1091.12 -0.338892 3.92741 0
M  V30 11425 H 1092.41 -0.901268 5.00754 0
M  V30 11426 H 1091.8 -3.93834 4.06092 0
M  V30 11427 H 1090.36 -4.25397 4.93843 0
M  V30 11428 N 1093.79 -1.57004 0.136909 0
M  V30 11429 C 1094.7 -2.19807 -0.819887 0
M  V30 11430 C 1095.72 -1.17939 -1.27932 0
M  V30 11431 O 1096.9 -1.50478 -1.3386 0
M  V30 11432 C 1093.96 -2.79935 -2.04542 0
M  V30 11433 C 1093.02 -3.96897 -1.6362 0
M  V30 11434 C 1092.26 -4.54148 -2.80331 0
M  V30 11435 O 1092.48 -4.10282 -3.96264 0
M  V30 11436 O 1091.41 -5.44565 -2.56384 0
M  V30 11437 H 1095.24 -3.02058 -0.315337 0
M  V30 11438 H 1092.82 -1.49131 -0.0896151 0
M  V30 11439 H 1094.71 -3.18191 -2.76283 0
M  V30 11440 H 1093.38 -2.00703 -2.53969 0
M  V30 11441 H 1092.29 -3.63376 -0.889316 0
M  V30 11442 H 1093.62 -4.77618 -1.18918 0
M  V30 11443 N 1095.27 0.136881 -1.57004 0
M  V30 11444 C 1096.22 1.17411 -1.95445 0
M  V30 11445 C 1097.21 1.38019 -0.827015 0
M  V30 11446 O 1098.4 1.39412 -1.09057 0
M  V30 11447 C 1095.53 2.50525 -2.34717 0
M  V30 11448 C 1094.61 2.33467 -3.54054 0
M  V30 11449 N 1095 1.86184 -4.70286 0
M  V30 11450 C 1093.3 2.64185 -3.59336 0
M  V30 11451 C 1094 1.82411 -5.5236 0
M  V30 11452 N 1092.98 2.26098 -4.94349 0
M  V30 11453 H 1096.78 0.8008 -2.8278 0
M  V30 11454 H 1094.3 0.344831 -1.58697 0
M  V30 11455 H 1096.29 3.2552 -2.60465 0
M  V30 11456 H 1094.95 2.8863 -1.48738 0
M  V30 11457 H 1095.96 1.55998 -4.93847 0
M  V30 11458 H 1092.64 3.06096 -2.83922 0
M  V30 11459 H 1094.03 1.4726 -6.55564 0
M  V30 11460 N 1096.75 1.52266 0.40654 0
M  V30 11461 C 1098 1.66452 1.15325 0
M  V30 11462 C 1098.33 0.395728 1.90432 0
M  V30 11463 O 1097.58 -0.621382 1.85573 0
M  V30 11464 C 1097.88 2.8389 2.1712 0
M  V30 11465 C 1097.55 4.22011 1.58801 0
M  V30 11466 C 1096.21 4.59579 1.42621 0
M  V30 11467 C 1098.56 5.08074 1.16236 0
M  V30 11468 C 1095.89 5.80885 0.823967 0
M  V30 11469 C 1098.24 6.29988 0.574284 0
M  V30 11470 C 1096.9 6.66303 0.399638 0
M  V30 11471 H 1096.17 0.609092 0.422005 0
M  V30 11472 H 1098.82 1.86374 0.440131 0
M  V30 11473 H 1097.13 2.58314 2.94586 0
M  V30 11474 H 1098.82 2.92063 2.74774 0
M  V30 11475 H 1095.41 3.92408 1.72378 0
M  V30 11476 H 1099.6 4.79631 1.27544 0
M  V30 11477 H 1094.85 6.07644 0.676694 0
M  V30 11478 H 1099.03 6.96 0.236081 0
M  V30 11479 H 1096.65 7.60169 -0.0691262 0
M  V30 11480 N 1098.23 -0.663929 1.42933 0
M  V30 11481 C 1099.46 -1.44981 1.47187 0
M  V30 11482 C 1099.87 -1.89009 0.0850091 0
M  V30 11483 O 1099.21 -1.59413 -0.912855 0
M  V30 11484 C 1099.27 -2.72409 2.34592 0
M  V30 11485 C 1098.94 -2.5039 3.82301 0
M  V30 11486 C 1099.93 -2.14295 4.73681 0
M  V30 11487 C 1097.62 -2.65047 4.2668 0
M  V30 11488 C 1099.61 -1.93139 6.07434 0
M  V30 11489 C 1097.3 -2.43506 5.60489 0
M  V30 11490 C 1098.3 -2.07607 6.50683 0
M  V30 11491 O 1097.98 -1.86284 7.82019 0
M  V30 11492 H 1097.72 -0.452238 0.502451 0
M  V30 11493 H 1100.27 -0.822228 1.88225 0
M  V30 11494 H 1098.5 -3.37689 1.88422 0
M  V30 11495 H 1100.19 -3.34327 2.30174 0
M  V30 11496 H 1100.96 -2.02557 4.40676 0
M  V30 11497 H 1096.83 -2.91966 3.56759 0
M  V30 11498 H 1100.38 -1.65042 6.77796 0
M  V30 11499 H 1096.28 -2.54844 5.93064 0
M  V30 11500 H 1097.04 -2.00795 7.93488 0
M  V30 11501 N 1099.71 -1.29285 -0.901281 0
M  V30 11502 C 1100.64 -1.16832 -2.0217 0
M  V30 11503 C 1101.62 -0.0629265 -1.69984 0
M  V30 11504 O 1102.8 -0.242123 -1.92685 0
M  V30 11505 C 1099.93 -0.842406 -3.36929 0
M  V30 11506 C 1098.89 -1.90394 -3.8332 0
M  V30 11507 C 1098.21 -1.43138 -5.15185 0
M  V30 11508 C 1099.51 -3.31254 -4.03817 0
M  V30 11509 H 1101.21 -2.10562 -2.12847 0
M  V30 11510 H 1098.75 -1.01375 -1.0227 0
M  V30 11511 H 1100.71 -0.741999 -4.14816 0
M  V30 11512 H 1099.43 0.130598 -3.26339 0
M  V30 11513 H 1098.09 -1.99371 -3.07647 0
M  V30 11514 H 1097.74 -0.447091 -5.01009 0
M  V30 11515 H 1097.44 -2.14129 -5.47195 0
M  V30 11516 H 1098.96 -1.34444 -5.95615 0
M  V30 11517 H 1100.37 -3.25129 -4.72191 0
M  V30 11518 H 1098.77 -4.00189 -4.47178 0
M  V30 11519 H 1099.84 -3.74349 -3.08206 0
M  V30 11520 N 1101.18 1.11143 -1.11736 0
M  V30 11521 C 1102.09 2.20851 -0.791331 0
M  V30 11522 C 1103.11 1.72644 0.216833 0
M  V30 11523 O 1104.29 2.01332 0.0522401 0
M  V30 11524 C 1101.35 3.4585 -0.242694 0
M  V30 11525 C 1100.41 4.08829 -1.30986 0
M  V30 11526 C 1099.65 5.27861 -0.787305 0
M  V30 11527 O 1099.87 5.69122 0.381549 0
M  V30 11528 O 1098.8 5.81506 -1.55352 0
M  V30 11529 H 1102.63 2.51158 -1.70744 0
M  V30 11530 H 1100.21 1.19739 -0.893478 0
M  V30 11531 H 1102.1 4.21359 0.0587472 0
M  V30 11532 H 1100.77 3.17187 0.646079 0
M  V30 11533 H 1099.68 3.35037 -1.66436 0
M  V30 11534 H 1101.01 4.41678 -2.17213 0
M  V30 11535 N 1102.66 0.908147 1.28804 0
M  V30 11536 C 1103.89 0.55409 1.99343 0
M  V30 11537 C 1104.31 -0.863262 1.67908 0
M  V30 11538 O 1103.66 -1.571 0.92875 0
M  V30 11539 C 1103.71 0.746916 3.537 0
M  V30 11540 O 1103.43 2.10849 3.84024 0
M  V30 11541 C 1104.94 0.398939 4.41501 0
M  V30 11542 H 1102.16 0.211784 0.636701 0
M  V30 11543 H 1104.7 1.21981 1.64137 0
M  V30 11544 H 1102.85 0.128264 3.87188 0
M  V30 11545 H 1103.27 2.14404 4.78676 0
M  V30 11546 H 1104.74 0.584656 5.48895 0
M  V30 11547 H 1105.22 -0.664517 4.34144 0
M  V30 11548 H 1105.83 0.994892 4.135 0
M  V30 11549 N 1104.14 -1.42577 0.671525 0
M  V30 11550 C 1105.09 -2.27978 -0.0315286 0
M  V30 11551 C 1106.07 -1.40907 -0.776796 0
M  V30 11552 O 1107.27 -1.64385 -0.656248 0
M  V30 11553 C 1104.4 -3.28884 -0.9844 0
M  V30 11554 C 1103.48 -4.23439 -0.236647 0
M  V30 11555 N 1103.87 -5.00107 0.756714 0
M  V30 11556 C 1102.17 -4.43457 -0.475551 0
M  V30 11557 C 1102.87 -5.69141 1.20221 0
M  V30 11558 N 1101.85 -5.40983 0.532802 0
M  V30 11559 H 1105.65 -2.84678 0.730455 0
M  V30 11560 H 1103.16 -1.54501 0.500317 0
M  V30 11561 H 1105.16 -3.88864 -1.50302 0
M  V30 11562 H 1103.82 -2.73745 -1.74625 0
M  V30 11563 H 1104.83 -5.05285 1.13613 0
M  V30 11564 H 1101.51 -3.99364 -1.21715 0
M  V30 11565 H 1102.9 -6.40653 2.02517 0
M  V30 11566 N 1105.62 -0.414636 -1.52048 0
M  V30 11567 C 1106.86 0.158807 -2.03782 0
M  V30 11568 C 1107.22 1.41912 -1.29325 0
M  V30 11569 O 1108.42 2.07136 -1.71313 0
M  V30 11570 C 1106.69 0.395092 -3.55209 0
M  V30 11571 S 1108.25 0.935193 -4.28719 0
M  V30 11572 H 1105.07 0.0424729 -0.70973 0
M  V30 11573 H 1107.67 -0.568822 -1.87042 0
M  V30 11574 H 1106.38 -0.528875 -4.06978 0
M  V30 11575 H 1105.91 1.15044 -3.76203 0
M  V30 11576 H 1107.92 2.21519 -4.44009 0
M  V30 11577 N 1107.1 1.56929 -0.145233 0
M  V30 11578 C 1108.32 2.00431 0.513314 0
M  V30 11579 C 1108.74 1.0253 1.58534 0
M  V30 11580 O 1108.1 0.0220459 1.82487 0
M  V30 11581 C 1108.15 3.43856 1.11557 0
M  V30 11582 O 1107.87 4.38015 0.0863707 0
M  V30 11583 C 1109.37 4.02627 1.8549 0
M  V30 11584 H 1106.59 0.657529 0.133778 0
M  V30 11585 H 1109.13 2.03095 -0.239296 0
M  V30 11586 H 1107.29 3.4205 1.81881 0
M  V30 11587 H 1107.7 5.21842 0.527363 0
M  V30 11588 H 1109.18 5.04985 2.22923 0
M  V30 11589 H 1109.65 3.43239 2.74014 0
M  V30 11590 H 1110.26 4.08058 1.19869 0
M  V30 11591 N 1108.58 -0.128553 1.57075 0
M  V30 11592 C 1109.82 -0.836536 1.83535 0
M  V30 11593 C 1110.14 -1.81491 0.7294 0
M  V30 11594 O 1111.34 -2.56838 0.880128 0
M  V30 11595 C 1109.8 -1.53836 3.25365 0
M  V30 11596 C 1109.41 -0.601454 4.43944 0
M  V30 11597 C 1111.15 -2.23204 3.61082 0
M  V30 11598 C 1109.06 -1.30596 5.768 0
M  V30 11599 H 1107.99 -0.316142 0.684522 0
M  V30 11600 H 1110.64 -0.0892555 1.83283 0
M  V30 11601 H 1109.02 -2.33192 3.20058 0
M  V30 11602 H 1110.2 0.158209 4.60528 0
M  V30 11603 H 1108.51 -0.0152393 4.16397 0
M  V30 11604 H 1111.11 -2.76585 4.57608 0
M  V30 11605 H 1111.45 -3.0056 2.88044 0
M  V30 11606 H 1111.98 -1.50746 3.68131 0
M  V30 11607 H 1108.72 -0.573874 6.52983 0
M  V30 11608 H 1108.24 -2.03787 5.6412 0
M  V30 11609 H 1109.92 -1.8418 6.20231 0
M  V30 11610 N 1110.05 -1.5248 -0.398459 0
M  V30 11611 C 1111.02 -1.75949 -1.46883 0
M  V30 11612 C 1112.02 -0.629431 -1.47969 0
M  V30 11613 O 1113.21 -0.897407 -1.49306 0
M  V30 11614 C 1110.34 -1.85162 -2.8623 0
M  V30 11615 H 1111.53 -2.71513 -1.2736 0
M  V30 11616 H 1109.08 -1.43058 -0.629619 0
M  V30 11617 H 1109.82 -0.915505 -3.11109 0
M  V30 11618 H 1109.6 -2.67326 -2.86844 0
M  V30 11619 H 1111.09 -2.05025 -3.63805 0
M  V30 11620 N 1111.53 0.65634 -1.43283 0
M  V30 11621 C 1112.78 1.41837 -1.44949 0
M  V30 11622 C 1113.11 1.94065 -0.0723212 0
M  V30 11623 O 1112.39 1.72092 0.906346 0
M  V30 11624 C 1112.67 2.60206 -2.48927 0
M  V30 11625 C 1112.52 2.1349 -3.95907 0
M  V30 11626 C 1113.84 3.62421 -2.49678 0
M  V30 11627 H 1110.96 0.514398 -0.527792 0
M  V30 11628 H 1113.6 0.74435 -1.74813 0
M  V30 11629 H 1111.75 3.17708 -2.23592 0
M  V30 11630 H 1113.42 1.61012 -4.32288 0
M  V30 11631 H 1111.67 1.4489 -4.08888 0
M  V30 11632 H 1112.34 2.98596 -4.64268 0
M  V30 11633 H 1114.81 3.14671 -2.72252 0
M  V30 11634 H 1113.69 4.42798 -3.24378 0
M  V30 11635 H 1113.95 4.14802 -1.52944 0
M  V30 11636 N 1113.01 1.29761 0.894412 0
M  V30 11637 C 1114.42 1.16275 1.46072 0
M  V30 11638 C 1114.77 -0.240123 1.94725 0
M  V30 11639 O 1113.9 -1.13606 1.84181 0
M  V30 11640 C 1114.49 2.10471 2.65494 0
M  V30 11641 C 1113.05 2.00992 3.18244 0
M  V30 11642 C 1112.2 2.01094 1.90936 0
M  V30 11643 H 1115.15 1.42169 0.705243 0
M  V30 11644 H 1115.17 1.68003 3.41402 0
M  V30 11645 H 1114.68 3.12566 2.30053 0
M  V30 11646 H 1112.78 1.02005 3.58365 0
M  V30 11647 H 1112.9 2.88916 3.82184 0
M  V30 11648 H 1111.26 1.45764 2.08866 0
M  V30 11649 H 1112.04 3.04902 1.57764 0
M  V30 11650 N 1114.49 -1.10549 1.12324 0
M  V30 11651 C 1115.43 -2.16858 0.790024 0
M  V30 11652 C 1116.4 -1.64317 -0.242694 0
M  V30 11653 O 1117.59 -1.90438 -0.117531 0
M  V30 11654 C 1114.73 -3.44197 0.249503 0
M  V30 11655 C 1113.84 -4.10696 1.33989 0
M  V30 11656 C 1112.98 -5.25751 0.758932 0
M  V30 11657 C 1112.02 -5.8415 1.82853 0
M  V30 11658 N 1111.15 -6.90585 1.26637 0
M  V30 11659 H 1115.99 -2.44705 1.7007 0
M  V30 11660 H 1113.53 -1.20117 0.849141 0
M  V30 11661 H 1115.49 -4.1712 -0.0819251 0
M  V30 11662 H 1114.12 -3.16705 -0.624332 0
M  V30 11663 H 1113.17 -3.35754 1.78812 0
M  V30 11664 H 1114.48 -4.50144 2.14875 0
M  V30 11665 H 1113.64 -6.05521 0.378104 0
M  V30 11666 H 1112.38 -4.87632 -0.0811405 0
M  V30 11667 H 1111.38 -5.03051 2.21856 0
M  V30 11668 H 1112.61 -6.24333 2.6718 0
M  V30 11669 H 1110.55 -6.54468 0.448105 0
M  V30 11670 H 1110.47 -7.28739 2.01184 0
M  V30 11671 H 1111.74 -7.74138 0.912737 0
M  V30 11672 N 1115.97 -0.914965 -1.28321 0
M  V30 11673 C 1117.21 -0.547665 -1.94538 0
M  V30 11674 C 1117.53 0.911834 -1.72368 0
M  V30 11675 O 1116.8 1.64481 -1.06408 0
M  V30 11676 H 1115.38 -0.199549 -0.719853 0
M  V30 11677 H 1118.05 -1.16459 -1.5628 0
M  V30 11678 H 1117.14 -0.743138 -3.03124 0
M  V30 11679 N 1117.44 1.42219 -0.679077 0
M  V30 11680 C 1118.35 2.346 -0.00345919 0
M  V30 11681 C 1119.37 1.55327 0.784181 0
M  V30 11682 O 1120.55 1.87878 0.725524 0
M  V30 11683 C 1117.61 3.33905 0.933194 0
M  V30 11684 C 1116.67 4.29073 0.139607 0
M  V30 11685 C 1115.9 5.23634 1.03165 0
M  V30 11686 O 1116.13 5.23234 2.27119 0
M  V30 11687 O 1115.06 5.99901 0.490159 0
M  V30 11688 H 1118.89 2.9392 -0.764525 0
M  V30 11689 H 1116.47 1.42794 -0.439329 0
M  V30 11690 H 1118.35 3.949 1.47077 0
M  V30 11691 H 1117.03 2.77052 1.67404 0
M  V30 11692 H 1115.94 3.71478 -0.442177 0
M  V30 11693 H 1117.27 4.88979 -0.562214 0
M  V30 11694 N 1118.92 0.422693 1.51826 0
M  V30 11695 C 1119.88 -0.384307 2.25955 0
M  V30 11696 C 1120.88 -0.962184 1.28836 0
M  V30 11697 O 1122.07 -0.838931 1.52668 0
M  V30 11698 C 1119.21 -1.54228 3.04018 0
M  V30 11699 H 1120.4 0.265157 2.98726 0
M  V30 11700 H 1117.95 0.175515 1.55311 0
M  V30 11701 H 1118.69 -2.22822 2.35629 0
M  V30 11702 H 1118.47 -1.13425 3.75336 0
M  V30 11703 H 1119.96 -2.1128 3.60209 0
M  V30 11704 N 1120.4 -1.5685 0.153553 0
M  V30 11705 C 1121.65 -1.95946 -0.494936 0
M  V30 11706 C 1121.97 -1.03975 -1.64967 0
M  V30 11707 O 1121.24 -0.102572 -1.95631 0
M  V30 11708 H 1119.82 -0.723516 -0.185833 0
M  V30 11709 H 1122.48 -1.93531 0.230585 0
M  V30 11710 H 1121.58 -2.99823 -0.866743 0
M  V30 11711 N 1121.88 0.120221 -1.57141 0
M  V30 11712 C 1122.79 1.16641 -2.03549 0
M  V30 11713 C 1123.8 1.45407 -0.955656 0
M  V30 11714 O 1124.98 1.56547 -1.26708 0
M  V30 11715 C 1122.04 2.4734 -2.42948 0
M  V30 11716 C 1121.11 2.25982 -3.65008 0
M  V30 11717 C 1120.34 3.50449 -4.02518 0
M  V30 11718 O 1120.56 4.57706 -3.40384 0
M  V30 11719 O 1119.5 3.41524 -4.95626 0
M  V30 11720 H 1123.32 0.802323 -2.9291 0
M  V30 11721 H 1120.91 0.330927 -1.45689 0
M  V30 11722 H 1122.79 3.24348 -2.69029 0
M  V30 11723 H 1121.46 2.83225 -1.56733 0
M  V30 11724 H 1120.37 1.46837 -3.44078 0
M  V30 11725 H 1121.7 1.95002 -4.51924 0
M  V30 11726 N 1123.36 1.52689 0.390367 0
M  V30 11727 C 1124.29 1.72118 1.49836 0
M  V30 11728 C 1125.27 0.568986 1.5232 0
M  V30 11729 O 1126.45 0.798623 1.70746 0
M  V30 11730 C 1123.58 1.77754 2.88307 0
M  V30 11731 C 1122.62 2.99492 3.03655 0
M  V30 11732 S 1123.46 4.59496 2.74998 0
M  V30 11733 C 1124.61 4.67946 4.15665 0
M  V30 11734 H 1124.85 2.65826 1.3313 0
M  V30 11735 H 1122.38 1.42964 0.583153 0
M  V30 11736 H 1124.34 1.81687 3.68103 0
M  V30 11737 H 1123 0.851406 3.02341 0
M  V30 11738 H 1122.19 2.99973 4.05009 0
M  V30 11739 H 1121.79 2.93544 2.3175 0
M  V30 11740 H 1124.09 4.46476 5.09573 0
M  V30 11741 H 1125.03 5.69945 4.202 0
M  V30 11742 H 1125.44 3.96799 4.01511 0
M  V30 11743 N 1124.83 -0.648732 1.43629 0
M  V30 11744 C 1125.74 -1.79046 1.51591 0
M  V30 11745 C 1126.76 -1.69276 0.402697 0
M  V30 11746 O 1127.94 -1.90366 0.657484 0
M  V30 11747 C 1125 -3.15347 1.44073 0
M  V30 11748 C 1124.06 -3.3688 2.66102 0
M  V30 11749 C 1123.3 -4.66679 2.58933 0
M  V30 11750 O 1123.52 -5.46328 1.63956 0
M  V30 11751 O 1122.45 -4.9003 3.49506 0
M  V30 11752 H 1126.28 -1.75283 2.48011 0
M  V30 11753 H 1123.86 -0.807774 1.2568 0
M  V30 11754 H 1125.75 -3.96633 1.42339 0
M  V30 11755 H 1124.42 -3.19691 0.50789 0
M  V30 11756 H 1123.33 -2.55341 2.73407 0
M  V30 11757 H 1124.66 -3.37386 3.58373 0
M  V30 11758 N 1126.31 -1.30234 -0.887518 0
M  V30 11759 C 1127.24 -1.18969 -2.00919 0
M  V30 11760 C 1128.22 -0.080952 -1.69907 0
M  V30 11761 O 1129.41 -0.262546 -1.92417 0
M  V30 11762 C 1126.54 -0.878094 -3.36016 0
M  V30 11763 C 1125.49 -1.94449 -3.81279 0
M  V30 11764 C 1124.82 -1.48594 -5.13638 0
M  V30 11765 C 1126.12 -3.35519 -4.00281 0
M  V30 11766 H 1127.81 -2.12808 -2.10602 0
M  V30 11767 H 1125.36 -1.02454 -1.01189 0
M  V30 11768 H 1127.31 -0.785954 -4.14006 0
M  V30 11769 H 1126.04 0.0959779 -3.26459 0
M  V30 11770 H 1124.69 -2.02622 -3.05516 0
M  V30 11771 H 1124.34 -0.500204 -5.00507 0
M  V30 11772 H 1124.04 -2.19921 -5.44893 0
M  V30 11773 H 1125.57 -1.40754 -5.94156 0
M  V30 11774 H 1126.98 -3.30119 -4.68716 0
M  V30 11775 H 1125.38 -4.0491 -4.42909 0
M  V30 11776 H 1126.45 -3.77597 -3.04218 0
M  V30 11777 N 1127.79 1.09952 -1.12909 0
M  V30 11778 C 1129.04 1.82016 -0.887482 0
M  V30 11779 C 1129.37 1.85445 0.586546 0
M  V30 11780 O 1128.62 1.31446 1.44984 0
M  V30 11781 C 1128.92 3.28252 -1.41369 0
M  V30 11782 C 1128.59 3.44965 -2.90362 0
M  V30 11783 C 1127.25 3.49233 -3.31043 0
M  V30 11784 C 1129.6 3.49947 -3.86247 0
M  V30 11785 C 1126.93 3.56057 -4.66305 0
M  V30 11786 C 1129.28 3.58305 -5.21345 0
M  V30 11787 C 1127.94 3.6084 -5.61561 0
M  V30 11788 H 1127.21 0.666046 -0.324753 0
M  V30 11789 H 1129.86 1.29568 -1.41012 0
M  V30 11790 H 1128.17 3.83301 -0.81163 0
M  V30 11791 H 1129.86 3.82533 -1.20289 0
M  V30 11792 H 1126.45 3.42323 -2.57901 0
M  V30 11793 H 1130.64 3.45895 -3.55908 0
M  V30 11794 H 1125.89 3.56305 -4.96847 0
M  V30 11795 H 1130.07 3.61104 -5.95463 0
M  V30 11796 H 1127.69 3.6588 -6.6636 0
M  V30 11797 N 1129.27 0.921757 1.27833 0
M  V30 11798 C 1130.51 0.559906 1.94918 0
M  V30 11799 C 1130.85 -0.895532 1.72319 0
M  V30 11800 O 1130.12 -1.638 1.04879 0
M  V30 11801 C 1130.41 0.879458 3.49196 0
M  V30 11802 C 1130.26 2.38821 3.81162 0
M  V30 11803 C 1131.58 0.381183 4.38446 0
M  V30 11804 H 1128.7 0.204893 0.707946 0
M  V30 11805 H 1131.34 1.15246 1.51058 0
M  V30 11806 H 1129.49 0.375177 3.86684 0
M  V30 11807 H 1131.16 2.96373 3.53498 0
M  V30 11808 H 1129.4 2.83988 3.27923 0
M  V30 11809 H 1130.07 2.56234 4.88926 0
M  V30 11810 H 1132.55 0.813289 4.08075 0
M  V30 11811 H 1131.43 0.633778 5.45229 0
M  V30 11812 H 1131.69 -0.718651 4.3622 0
M  V30 11813 N 1130.75 -1.41857 0.686609 0
M  V30 11814 C 1131.97 -2.06219 0.221037 0
M  V30 11815 C 1132.4 -1.51298 -1.11762 0
M  V30 11816 O 1131.75 -0.636253 -1.69769 0
M  V30 11817 C 1131.8 -3.60153 0.179425 0
M  V30 11818 O 1130.91 -4.03577 -0.848481 0
M  V30 11819 H 1130.25 -0.654787 0.110228 0
M  V30 11820 H 1132.78 -1.81783 0.938948 0
M  V30 11821 H 1132.79 -4.07999 0.00725332 0
M  V30 11822 H 1131.46 -3.99498 1.15647 0
M  V30 11823 H 1130.04 -3.67255 -0.646393 0
M  V30 11824 N 1132.22 -0.430739 -1.51599 0
M  V30 11825 C 1133.45 0.136797 -2.06447 0
M  V30 11826 C 1133.87 1.37027 -1.29881 0
M  V30 11827 O 1133.22 1.78983 -0.356543 0
M  V30 11828 C 1133.28 0.465637 -3.58489 0
M  V30 11829 O 1133 -0.718873 -4.32162 0
M  V30 11830 C 1134.5 1.08456 -4.29828 0
M  V30 11831 H 1131.72 0.0108468 -0.670912 0
M  V30 11832 H 1134.26 -0.607921 -1.95255 0
M  V30 11833 H 1132.42 1.16025 -3.69617 0
M  V30 11834 H 1132.83 -0.439195 -5.22658 0
M  V30 11835 H 1134.3 1.2647 -5.37317 0
M  V30 11836 H 1134.78 2.06376 -3.87693 0
M  V30 11837 H 1135.39 0.429525 -4.23125 0
M  V30 11838 N 1133.7 1.56767 -0.161869 0
M  V30 11839 C 1134.63 2.1466 0.803356 0
M  V30 11840 C 1135.65 1.09977 1.20037 0
M  V30 11841 O 1136.84 1.37199 1.14187 0
M  V30 11842 C 1133.94 2.66663 2.09151 0
M  V30 11843 C 1133.11 3.95904 1.85953 0
M  V30 11844 C 1132.17 4.33067 2.98897 0
M  V30 11845 O 1131.19 5.01119 2.69942 0
M  V30 11846 N 1132.4 3.93856 4.26448 0
M  V30 11847 H 1135.16 2.98108 0.308472 0
M  V30 11848 H 1132.72 1.61886 0.0212238 0
M  V30 11849 H 1134.71 2.88528 2.83784 0
M  V30 11850 H 1133.28 1.87856 2.49857 0
M  V30 11851 H 1132.5 3.82513 0.952751 0
M  V30 11852 H 1133.79 4.8033 1.67811 0
M  V30 11853 H 1133.19 3.39051 4.52836 0
M  V30 11854 H 1131.75 4.20741 4.97815 0
M  V30 11855 N 1135.18 -0.111886 1.57202 0
M  V30 11856 C 1136.13 -1.15585 2.01849 0
M  V30 11857 C 1137.12 -1.42458 0.916621 0
M  V30 11858 O 1138.33 -1.42337 1.10182 0
M  V30 11859 H 1134.7 -0.389885 0.643035 0
M  V30 11860 H 1136.67 -0.752854 2.88747 0
M  V30 11861 C 1135.42 -2.47247 2.44467 0
M  V30 11862 H 1134.75 -2.27409 3.28824 0
M  V30 11863 H 1136.19 -3.18837 2.79497 0
M  V30 11864 C 1134.65 -3.10339 1.31115 0
M  V30 11865 O 1135.18 -3.96713 0.631029 0
M  V30 11866 N 1133.38 -2.70326 1.0664 0
M  V30 11867 H 1132.93 -2.00182 1.62126 0
M  V30 11868 H 1132.89 -3.12869 0.309944 0
M  V30 11869 N 1136.66 -1.52894 -0.382264 0
M  V30 11870 C 1137.89 -1.72152 -1.14766 0
M  V30 11871 C 1138.3 -0.442911 -1.83531 0
M  V30 11872 O 1137.66 0.583085 -1.72935 0
M  V30 11873 C 1137.71 -2.87566 -2.19062 0
M  V30 11874 O 1137.43 -4.10478 -1.53099 0
M  V30 11875 C 1138.93 -3.18559 -3.08277 0
M  V30 11876 H 1136.15 -0.576212 -0.343832 0
M  V30 11877 H 1138.7 -1.99571 -0.446273 0
M  V30 11878 H 1136.85 -2.62589 -2.84826 0
M  V30 11879 H 1137.26 -4.74989 -2.22454 0
M  V30 11880 H 1138.74 -4.02763 -3.77473 0
M  V30 11881 H 1139.22 -2.33222 -3.72161 0
M  V30 11882 H 1139.82 -3.454 -2.48151 0
M  V30 11883 N 1138.14 0.641106 -1.43971 0
M  V30 11884 C 1139.07 1.76599 -1.44527 0
M  V30 11885 C 1140.05 1.59709 -0.305257 0
M  V30 11886 O 1141.23 1.81728 -0.50071 0
M  V30 11887 C 1138.36 3.14052 -1.26843 0
M  V30 11888 C 1137.41 3.49615 -2.44278 0
M  V30 11889 S 1138.24 3.4822 -4.06821 0
M  V30 11890 C 1139.39 4.8831 -3.91541 0
M  V30 11891 H 1139.63 1.75858 -2.3971 0
M  V30 11892 H 1137.16 0.814834 -1.31148 0
M  V30 11893 H 1139.12 3.93376 -1.17327 0
M  V30 11894 H 1137.78 3.12342 -0.331872 0
M  V30 11895 H 1136.97 4.49611 -2.2774 0
M  V30 11896 H 1136.57 2.77732 -2.50482 0
M  V30 11897 H 1138.87 5.77282 -3.54615 0
M  V30 11898 H 1139.81 5.099 -4.91333 0
M  V30 11899 H 1140.22 4.62414 -3.2378 0
M  V30 11900 N 1139.62 1.30703 0.880598 0
M  V30 11901 C 1140.56 1.17455 1.98678 0
M  V30 11902 C 1141.53 0.0629569 1.65981 0
M  V30 11903 O 1142.72 0.233926 1.89361 0
M  V30 11904 C 1139.86 0.876882 3.33774 0
M  V30 11905 C 1138.97 2.07078 3.79134 0
M  V30 11906 C 1138.11 1.71082 5.02896 0
M  V30 11907 C 1137.14 2.86942 5.40676 0
M  V30 11908 N 1136.28 2.51212 6.55619 0
M  V30 11909 H 1141.12 2.12086 2.09341 0
M  V30 11910 H 1138.66 1.05514 1.02495 0
M  V30 11911 H 1140.62 0.684899 4.1154 0
M  V30 11912 H 1139.25 -0.0325633 3.22784 0
M  V30 11913 H 1138.3 2.37388 2.97239 0
M  V30 11914 H 1139.61 2.9383 4.0307 0
M  V30 11915 H 1138.76 1.48284 5.883 0
M  V30 11916 H 1137.5 0.815064 4.80841 0
M  V30 11917 H 1136.51 3.10401 4.53797 0
M  V30 11918 H 1137.73 3.77211 5.64703 0
M  V30 11919 H 1135.68 1.64147 6.35131 0
M  V30 11920 H 1135.6 3.31495 6.79446 0
M  V30 11921 H 1136.86 2.31781 7.44243 0
M  V30 11922 N 1141.09 -1.09351 1.1349 0
M  V30 11923 C 1142.32 -1.85304 0.920324 0
M  V30 11924 C 1142.74 -1.81182 -0.530883 0
M  V30 11925 O 1142.09 -1.20853 -1.36751 0
M  V30 11926 C 1142.14 -3.33249 1.40098 0
M  V30 11927 O 1141.87 -3.37333 2.79531 0
M  V30 11928 C 1143.37 -4.2604 1.22495 0
M  V30 11929 H 1140.59 -0.585294 0.328134 0
M  V30 11930 H 1143.13 -1.38168 1.50765 0
M  V30 11931 H 1141.29 -3.7781 0.85664 0
M  V30 11932 H 1141.7 -4.29614 3.00885 0
M  V30 11933 H 1143.17 -5.27999 1.61 0
M  V30 11934 H 1143.65 -4.38883 0.166717 0
M  V30 11935 H 1144.26 -3.87295 1.75735 0
M  V30 11936 N 1142.57 -0.928524 -1.27343 0
M  V30 11937 C 1143.5 -0.385563 -2.25934 0
M  V30 11938 C 1144.52 0.484178 -1.55433 0
M  V30 11939 O 1145.71 0.296668 -1.76017 0
M  V30 11940 C 1142.81 0.466116 -3.35679 0
M  V30 11941 C 1141.98 -0.384523 -4.35707 0
M  V30 11942 C 1141.04 0.404644 -5.24642 0
M  V30 11943 O 1140.06 -0.187943 -5.6889 0
M  V30 11944 N 1141.27 1.70426 -5.54919 0
M  V30 11945 H 1144.03 -1.23306 -2.73159 0
M  V30 11946 H 1141.59 -0.796039 -1.40978 0
M  V30 11947 H 1143.58 1.00115 -3.92121 0
M  V30 11948 H 1142.15 1.21437 -2.88048 0
M  V30 11949 H 1141.37 -1.10085 -3.78517 0
M  V30 11950 H 1142.66 -0.966033 -4.99545 0
M  V30 11951 H 1142.06 2.20802 -5.20829 0
M  V30 11952 H 1140.62 2.1858 -6.14057 0
M  V30 11953 N 1144.05 1.41491 -0.694123 0
M  V30 11954 C 1145.27 2.06099 -0.23197 0
M  V30 11955 C 1145.7 1.51888 1.10958 0
M  V30 11956 O 1145.06 0.645247 1.69429 0
M  V30 11957 C 1145.11 3.60053 -0.198522 0
M  V30 11958 O 1144.21 4.04021 0.827067 0
M  V30 11959 H 1143.55 0.654193 -0.113699 0
M  V30 11960 H 1146.08 1.81282 -0.948575 0
M  V30 11961 H 1146.09 4.0799 -0.0288904 0
M  V30 11962 H 1144.77 3.98879 -1.17764 0
M  V30 11963 H 1143.34 3.67593 0.626908 0
M  V30 11964 N 1145.53 0.438773 1.51369 0
M  V30 11965 C 1146.77 -0.127213 2.021 0
M  V30 11966 C 1147.1 -1.42587 1.32284 0
M  V30 11967 O 1146.36 -1.90986 0.426949 0
M  V30 11968 C 1146.66 -0.39186 3.55245 0
M  V30 11969 C 1146.32 0.821158 4.4336 0
M  V30 11970 C 1144.98 1.15381 4.67162 0
M  V30 11971 C 1147.34 1.6303 4.95046 0
M  V30 11972 C 1144.66 2.29626 5.39897 0
M  V30 11973 C 1147.02 2.76376 5.69033 0
M  V30 11974 C 1145.68 3.10094 5.91099 0
M  V30 11975 H 1144.95 -0.0465505 0.739536 0
M  V30 11976 H 1147.6 0.586261 1.82305 0
M  V30 11977 H 1145.9 -1.18724 3.73379 0
M  V30 11978 H 1147.6 -0.843228 3.92034 0
M  V30 11979 H 1144.19 0.551946 4.25031 0
M  V30 11980 H 1148.37 1.38651 4.76539 0
M  V30 11981 H 1143.63 2.56062 5.55196 0
M  V30 11982 H 1147.8 3.39442 6.08072 0
M  V30 11983 H 1145.43 3.98731 6.47238 0
M  V30 11984 N 1147.01 -1.56678 0.170181 0
M  V30 11985 C 1148.25 -1.9714 -0.475767 0
M  V30 11986 C 1148.58 -1.05611 -1.62972 0
M  V30 11987 O 1147.86 -0.103017 -1.94227 0
M  V30 11988 C 1148.14 -3.47072 -0.959828 0
M  V30 11989 C 1148 -4.4938 0.194225 0
M  V30 11990 C 1149.31 -4.00071 -1.83387 0
M  V30 11991 H 1146.43 -0.716776 -0.171466 0
M  V30 11992 H 1149.08 -1.88266 0.256086 0
M  V30 11993 H 1147.23 -3.54766 -1.58346 0
M  V30 11994 H 1148.9 -4.53748 0.83128 0
M  V30 11995 H 1147.14 -4.25393 0.849893 0
M  V30 11996 H 1147.81 -5.51685 -0.186575 0
M  V30 11997 H 1150.29 -3.95002 -1.30815 0
M  V30 11998 H 1149.16 -5.05398 -2.14159 0
M  V30 11999 H 1149.42 -3.43819 -2.77923 0
M  V30 12000 N 1148.48 0.103547 -1.57259 0
M  V30 12001 C 1149.45 1.11039 -2.00507 0
M  V30 12002 C 1150.45 1.33432 -0.897361 0
M  V30 12003 O 1151.64 1.29688 -1.16304 0
M  V30 12004 C 1148.77 2.46144 -2.35851 0
M  V30 12005 H 1149.96 0.738332 -2.90669 0
M  V30 12006 H 1147.51 0.348334 -1.52369 0
M  V30 12007 H 1148.25 2.88242 -1.48617 0
M  V30 12008 H 1148.03 2.31241 -3.16654 0
M  V30 12009 H 1149.52 3.18577 -2.69997 0
M  V30 12010 N 1149.96 1.53094 0.37415 0
M  V30 12011 C 1150.91 1.78927 1.45787 0
M  V30 12012 C 1151.88 0.633187 1.53558 0
M  V30 12013 O 1153.06 0.874472 1.69581 0
M  V30 12014 C 1150.2 1.97726 2.8284 0
M  V30 12015 C 1149.32 3.25436 2.84104 0
M  V30 12016 C 1148.45 3.3447 4.12678 0
M  V30 12017 C 1147.49 4.56246 4.08051 0
M  V30 12018 N 1146.63 4.6248 5.28258 0
M  V30 12019 H 1151.47 2.71404 1.2306 0
M  V30 12020 H 1149 1.34453 0.596716 0
M  V30 12021 H 1150.96 2.06611 3.62447 0
M  V30 12022 H 1149.59 1.08593 3.03986 0
M  V30 12023 H 1148.64 3.25548 1.96781 0
M  V30 12024 H 1149.96 4.15112 2.76556 0
M  V30 12025 H 1149.11 3.4262 5.00696 0
M  V30 12026 H 1147.85 2.42795 4.22968 0
M  V30 12027 H 1146.85 4.48206 3.1842 0
M  V30 12028 H 1148.08 5.49254 3.99371 0
M  V30 12029 H 1146.03 3.73703 5.3915 0
M  V30 12030 H 1145.94 5.46049 5.22845 0
M  V30 12031 H 1147.21 4.74903 6.18132 0
M  V30 12032 N 1151.44 -0.633461 1.44309 0
M  V30 12033 C 1152.37 -1.7583 1.45462 0
M  V30 12034 C 1153.35 -1.59545 0.313723 0
M  V30 12035 O 1154.53 -1.8146 0.51034 0
M  V30 12036 C 1151.66 -3.13375 1.28506 0
M  V30 12037 C 1150.71 -3.48315 2.46128 0
M  V30 12038 S 1151.54 -3.46058 4.08662 0
M  V30 12039 C 1152.7 -4.86226 3.94125 0
M  V30 12040 H 1152.93 -1.74585 2.4064 0
M  V30 12041 H 1150.46 -0.807868 1.31578 0
M  V30 12042 H 1152.42 -3.92748 1.19411 0
M  V30 12043 H 1151.08 -3.12161 0.348432 0
M  V30 12044 H 1150.27 -4.48397 2.30122 0
M  V30 12045 H 1149.88 -2.76399 2.51951 0
M  V30 12046 H 1152.17 -5.75393 3.57671 0
M  V30 12047 H 1153.11 -5.07287 4.9403 0
M  V30 12048 H 1153.52 -4.60691 3.26227 0
M  V30 12049 N 1152.92 -1.31168 -0.873655 0
M  V30 12050 C 1153.85 -1.21094 -1.99646 0
M  V30 12051 C 1154.83 -0.0989684 -1.69812 0
M  V30 12052 O 1156.01 -0.282939 -1.92128 0
M  V30 12053 C 1153.14 -0.913684 -3.35066 0
M  V30 12054 C 1152.1 -1.98482 -3.79195 0
M  V30 12055 C 1151.42 -1.54033 -5.12033 0
M  V30 12056 C 1152.72 -3.39745 -3.96699 0
M  V30 12057 H 1154.42 -2.1503 -2.08333 0
M  V30 12058 H 1151.96 -1.03521 -1.00097 0
M  V30 12059 H 1153.92 -0.829821 -4.13149 0
M  V30 12060 H 1152.64 0.0613471 -3.26542 0
M  V30 12061 H 1151.3 -2.05851 -3.03349 0
M  V30 12062 H 1150.95 -0.553261 -4.99948 0
M  V30 12063 H 1150.65 -2.25688 -5.4253 0
M  V30 12064 H 1152.17 -1.47047 -5.92629 0
M  V30 12065 H 1153.59 -3.35071 -4.65188 0
M  V30 12066 H 1151.98 -4.09585 -4.38589 0
M  V30 12067 H 1153.05 -3.80802 -3.00196 0
M  V30 12068 N 1154.4 1.08748 -1.14068 0
M  V30 12069 C 1155.64 1.80707 -0.904947 0
M  V30 12070 C 1155.97 1.86478 0.570167 0
M  V30 12071 O 1155.24 1.35536 1.41445 0
M  V30 12072 H 1153.82 0.669261 -0.331811 0
M  V30 12073 H 1156.48 1.31494 -1.43859 0
M  V30 12074 H 1155.57 2.83653 -1.30182 0
M  V30 12075 N 1155.87 0.935264 1.26849 0
M  V30 12076 C 1157.12 0.580548 1.94313 0
M  V30 12077 C 1157.45 -0.877205 1.73259 0
M  V30 12078 O 1156.73 -1.62679 1.06611 0
M  V30 12079 C 1157.01 0.916445 3.48243 0
M  V30 12080 C 1156.86 2.42851 3.78607 0
M  V30 12081 C 1158.18 0.427665 4.38017 0
M  V30 12082 H 1155.3 0.21239 0.705733 0
M  V30 12083 H 1157.94 1.16841 1.49827 0
M  V30 12084 H 1156.09 0.416169 3.86265 0
M  V30 12085 H 1157.77 3.00106 3.50335 0
M  V30 12086 H 1156.01 2.8745 3.24892 0
M  V30 12087 H 1156.68 2.61405 4.8618 0
M  V30 12088 H 1159.16 0.856525 4.07189 0
M  V30 12089 H 1158.03 0.691571 5.44526 0
M  V30 12090 H 1158.29 -0.672344 4.36958 0
M  V30 12091 N 1157.35 -1.41121 0.701616 0
M  V30 12092 C 1158.76 -1.84122 0.309208 0
M  V30 12093 C 1159.11 -1.58695 -1.15371 0
M  V30 12094 O 1158.24 -1.06053 -1.88631 0
M  V30 12095 C 1158.83 -3.34233 0.554429 0
M  V30 12096 C 1157.39 -3.7578 0.215876 0
M  V30 12097 C 1156.54 -2.6447 0.833729 0
M  V30 12098 H 1159.49 -1.30587 0.901822 0
M  V30 12099 H 1159.51 -3.8005 -0.18491 0
M  V30 12100 H 1159.02 -3.52707 1.61923 0
M  V30 12101 H 1157.13 -3.62905 -0.844421 0
M  V30 12102 H 1157.24 -4.74319 0.675118 0
M  V30 12103 H 1155.6 -2.5334 0.262851 0
M  V30 12104 H 1156.39 -2.85761 1.90252 0
M  V30 12105 N 1158.83 -0.446794 -1.51134 0
M  V30 12106 C 1159.79 0.348311 -2.26538 0
M  V30 12107 C 1160.79 0.941566 -1.3035 0
M  V30 12108 O 1161.98 0.814537 -1.53984 0
M  V30 12109 C 1159.12 1.49371 -3.06433 0
M  V30 12110 H 1160.31 -0.312648 -2.98266 0
M  V30 12111 H 1157.86 -0.200201 -1.55013 0
M  V30 12112 H 1158.6 2.19045 -2.39144 0
M  V30 12113 H 1158.38 1.07439 -3.77093 0
M  V30 12114 H 1159.87 2.05522 -3.63525 0
M  V30 12115 N 1160.31 1.56586 -0.178487 0
M  V30 12116 C 1161.26 2.19631 0.765822 0
M  V30 12117 C 1162.25 1.16247 1.23219 0
M  V30 12118 O 1163.46 1.34431 1.19701 0
M  V30 12119 H 1159.83 0.703661 0.265264 0
M  V30 12120 H 1161.8 2.97659 0.210207 0
M  V30 12121 C 1160.55 2.85686 1.98188 0
M  V30 12122 H 1159.87 3.64971 1.63206 0
M  V30 12123 H 1161.31 3.33259 2.62134 0
M  V30 12124 C 1159.77 1.85837 2.81009 0
M  V30 12125 O 1160.3 1.3483 3.78396 0
M  V30 12126 N 1158.51 1.54435 2.46167 0
M  V30 12127 H 1158.06 1.96107 1.67032 0
M  V30 12128 H 1158.01 0.878808 3.01868 0
M  V30 12129 N 1161.79 -0.095206 1.57312 0
M  V30 12130 C 1163.2 -0.449411 1.53142 0
M  V30 12131 C 1163.4 -1.80523 0.895187 0
M  V30 12132 O 1162.46 -2.47746 0.487649 0
M  V30 12133 C 1163.77 -0.412002 2.97864 0
M  V30 12134 C 1165.32 -0.493866 3.09079 0
M  V30 12135 C 1165.79 -0.486606 4.55408 0
M  V30 12136 N 1167.29 -0.547363 4.59955 0
M  V30 12137 C 1168.02 -0.563582 5.70624 0
M  V30 12138 N 1167.52 -0.536015 6.90723 0
M  V30 12139 N 1169.31 -0.608385 5.58798 0
M  V30 12140 H 1161.46 0.792869 1.97047 0
M  V30 12141 H 1163.72 0.295106 0.900898 0
M  V30 12142 H 1163.43 0.517064 3.47878 0
M  V30 12143 H 1163.3 -1.23102 3.56547 0
M  V30 12144 H 1165.69 -1.41335 2.59053 0
M  V30 12145 H 1165.77 0.353286 2.53349 0
M  V30 12146 H 1165.42 0.428935 5.06086 0
M  V30 12147 H 1165.35 -1.35097 5.08976 0
M  V30 12148 H 1167.84 -0.573867 3.73517 0
M  V30 12149 H 1168.15 -0.551671 7.70828 0
M  V30 12150 H 1166.49 -0.503064 6.93177 0
M  V30 12151 H 1169.69 -0.627451 4.63876 0
M  V30 12152 H 1169.86 -0.617556 6.45051 0
M  V30 12153 N 1163.26 -1.53291 -0.366026 0
M  V30 12154 C 1164.51 -1.68671 -1.10602 0
M  V30 12155 C 1164.83 -0.444793 -1.90476 0
M  V30 12156 O 1166.03 -0.479135 -2.67239 0
M  V30 12157 C 1164.49 -2.98174 -2.01545 0
M  V30 12158 C 1164.1 -4.29626 -1.26986 0
M  V30 12159 C 1165.84 -3.22921 -2.7554 0
M  V30 12160 C 1163.75 -5.50218 -2.16828 0
M  V30 12161 H 1162.68 -0.628456 -0.416604 0
M  V30 12162 H 1165.33 -1.79791 -0.367058 0
M  V30 12163 H 1163.71 -2.80855 -2.79171 0
M  V30 12164 H 1164.88 -4.57574 -0.544269 0
M  V30 12165 H 1163.2 -4.11318 -0.648558 0
M  V30 12166 H 1165.8 -4.10202 -3.42985 0
M  V30 12167 H 1166.14 -2.38964 -3.40884 0
M  V30 12168 H 1166.67 -3.40912 -2.04997 0
M  V30 12169 H 1163.41 -6.36651 -1.56063 0
M  V30 12170 H 1162.93 -5.26549 -2.87238 0
M  V30 12171 H 1164.61 -5.84991 -2.76396 0
M  V30 12172 N 1164.74 0.6258 -1.44643 0
M  V30 12173 C 1165.99 1.3873 -1.47925 0
M  V30 12174 C 1166.32 1.93868 -0.113469 0
M  V30 12175 O 1165.6 1.73976 0.869639 0
M  V30 12176 C 1165.88 2.54867 -2.54391 0
M  V30 12177 C 1165.73 2.05044 -4.00346 0
M  V30 12178 C 1167.05 3.57043 -2.57309 0
M  V30 12179 H 1164.17 0.503087 -0.538584 0
M  V30 12180 H 1166.81 0.707102 -1.76352 0
M  V30 12181 H 1164.96 3.12894 -2.30281 0
M  V30 12182 H 1166.63 1.51807 -4.35606 0
M  V30 12183 H 1164.88 1.36185 -4.11869 0
M  V30 12184 H 1165.55 2.88681 -4.70497 0
M  V30 12185 H 1168.02 3.08826 -2.78865 0
M  V30 12186 H 1166.9 4.35818 -3.33698 0
M  V30 12187 H 1167.16 4.11464 -1.61708 0
M  V30 12188 N 1166.22 1.31629 0.866686 0
M  V30 12189 C 1167.47 1.21683 1.62238 0
M  V30 12190 C 1167.8 -0.223767 1.92907 0
M  V30 12191 O 1167.07 -1.15761 1.563 0
M  V30 12192 C 1167.36 2.06443 2.95048 0
M  V30 12193 C 1167.21 3.58818 2.71237 0
M  V30 12194 C 1168.53 1.91634 3.96187 0
M  V30 12195 H 1165.65 0.443389 0.588707 0
M  V30 12196 H 1168.29 1.61453 1.00164 0
M  V30 12197 H 1166.44 1.72654 3.48027 0
M  V30 12198 H 1168.11 4.0276 2.24905 0
M  V30 12199 H 1166.36 3.82085 2.05411 0
M  V30 12200 H 1167.03 4.13436 3.65752 0
M  V30 12201 H 1169.5 2.21209 3.52428 0
M  V30 12202 H 1168.38 2.53236 4.86993 0
M  V30 12203 H 1168.64 0.880564 4.33242 0
M  V30 12204 N 1167.7 -1.08142 1.14644 0
M  V30 12205 C 1169.12 -1.32656 0.887388 0
M  V30 12206 C 1169.32 -1.95942 -0.470012 0
M  V30 12207 O 1168.37 -2.21417 -1.21371 0
M  V30 12208 C 1169.68 -2.22549 2.02219 0
M  V30 12209 C 1171.23 -2.36021 2.0558 0
M  V30 12210 C 1171.71 -3.29257 3.18361 0
M  V30 12211 N 1173.2 -3.36835 3.17957 0
M  V30 12212 C 1173.93 -4.09017 4.01862 0
M  V30 12213 N 1173.43 -4.83882 4.95812 0
M  V30 12214 N 1175.22 -4.04875 3.89913 0
M  V30 12215 H 1167.37 -0.654457 2.02066 0
M  V30 12216 H 1169.64 -0.350947 0.880648 0
M  V30 12217 H 1169.34 -1.83296 3.00159 0
M  V30 12218 H 1169.22 -3.23027 1.94765 0
M  V30 12219 H 1171.6 -2.74531 1.08245 0
M  V30 12220 H 1171.68 -1.35275 2.17105 0
M  V30 12221 H 1171.33 -2.91468 4.15944 0
M  V30 12222 H 1171.26 -4.29938 3.04074 0
M  V30 12223 H 1173.75 -2.83465 2.49912 0
M  V30 12224 H 1174.06 -5.3643 5.56294 0
M  V30 12225 H 1172.41 -4.82926 4.99808 0
M  V30 12226 H 1175.6 -3.45496 3.15833 0
M  V30 12227 H 1175.77 -4.60866 4.55529 0
M  V30 12228 N 1169.18 -0.941978 -1.26351 0
M  V30 12229 C 1170.42 -0.590845 -1.94002 0
M  V30 12230 C 1170.76 0.868004 -1.73722 0
M  V30 12231 O 1170.03 1.62111 -1.07472 0
M  V30 12232 C 1170.31 -0.934901 -3.47752 0
M  V30 12233 C 1170.17 -2.44855 -3.77314 0
M  V30 12234 C 1171.49 -0.450888 -4.37784 0
M  V30 12235 H 1168.61 -0.21613 -0.704597 0
M  V30 12236 H 1171.25 -1.17634 -1.49205 0
M  V30 12237 H 1169.4 -0.436648 -3.86038 0
M  V30 12238 H 1171.07 -3.01959 -3.48738 0
M  V30 12239 H 1169.31 -2.89169 -3.23363 0
M  V30 12240 H 1169.98 -2.6398 -4.84787 0
M  V30 12241 H 1172.46 -0.878107 -4.06729 0
M  V30 12242 H 1171.34 -0.720439 -5.44152 0
M  V30 12243 H 1171.6 0.649162 -4.37308 0
M  V30 12244 N 1170.66 1.40747 -0.709091 0
M  V30 12245 C 1171.6 2.30741 -0.0523584 0
M  V30 12246 C 1172.57 1.4784 0.757145 0
M  V30 12247 O 1173.76 1.76595 0.72242 0
M  V30 12248 C 1170.9 3.34 0.868203 0
M  V30 12249 C 1170.01 4.31972 0.0488686 0
M  V30 12250 C 1169.15 5.223 0.968311 0
M  V30 12251 C 1168.18 6.11934 0.142682 0
M  V30 12252 N 1167.32 6.947 1.01665 0
M  V30 12253 H 1172.16 2.86338 -0.825509 0
M  V30 12254 H 1169.7 1.41013 -0.418785 0
M  V30 12255 H 1171.66 3.92431 1.41611 0
M  V30 12256 H 1170.29 2.79921 1.6076 0
M  V30 12257 H 1169.34 3.75377 -0.616137 0
M  V30 12258 H 1170.65 4.95291 -0.590625 0
M  V30 12259 H 1169.8 5.85631 1.58498 0
M  V30 12260 H 1168.54 4.5924 1.64164 0
M  V30 12261 H 1167.55 5.47639 -0.486965 0
M  V30 12262 H 1168.77 6.77052 -0.527046 0
M  V30 12263 H 1166.72 6.34236 1.67575 0
M  V30 12264 H 1166.64 7.54759 0.433045 0
M  V30 12265 H 1167.9 7.62487 1.6197 0
M  V30 12266 N 1172.13 0.454803 1.50895 0
M  V30 12267 C 1173.55 0.108037 1.59234 0
M  V30 12268 C 1173.75 -1.38416 1.46435 0
M  V30 12269 O 1172.81 -2.15586 1.31449 0
M  V30 12270 C 1174.12 0.643721 2.93729 0
M  V30 12271 C 1175.67 0.605703 3.07083 0
M  V30 12272 C 1176.14 1.11865 4.44128 0
M  V30 12273 N 1177.63 1.07738 4.50496 0
M  V30 12274 C 1178.37 1.44495 5.54895 0
M  V30 12275 N 1177.86 1.88624 6.66628 0
M  V30 12276 N 1179.66 1.36201 5.45349 0
M  V30 12277 H 1171.81 1.4255 1.57459 0
M  V30 12278 H 1174.07 0.588504 0.743214 0
M  V30 12279 H 1173.78 1.68844 3.0852 0
M  V30 12280 H 1173.65 0.0782404 3.77119 0
M  V30 12281 H 1176.04 -0.430065 2.91949 0
M  V30 12282 H 1176.12 1.2078 2.2549 0
M  V30 12283 H 1175.76 2.15297 4.6001 0
M  V30 12284 H 1175.69 0.492933 5.24288 0
M  V30 12285 H 1178.18 0.753526 3.70311 0
M  V30 12286 H 1178.5 2.14863 7.4233 0
M  V30 12287 H 1176.84 1.92564 6.6779 0
M  V30 12288 H 1180.03 1.01579 4.56946 0
M  V30 12289 H 1180.21 1.65175 6.26595 0
M  V30 12290 N 1173.61 -1.56489 0.186789 0
M  V30 12291 C 1174.54 -2.14583 -0.776487 0
M  V30 12292 C 1175.52 -1.0802 -1.21534 0
M  V30 12293 O 1176.71 -1.36085 -1.30434 0
M  V30 12294 C 1173.83 -2.69798 -2.04761 0
M  V30 12295 C 1172.88 -3.88874 -1.75155 0
M  V30 12296 S 1173.71 -5.27763 -0.907026 0
M  V30 12297 C 1174.87 -5.86393 -2.18847 0
M  V30 12298 H 1175.1 -2.95954 -0.282602 0
M  V30 12299 H 1172.63 -1.54374 -0.0280989 0
M  V30 12300 H 1174.59 -3.02254 -2.77764 0
M  V30 12301 H 1173.25 -1.88484 -2.51262 0
M  V30 12302 H 1172.45 -4.25888 -2.69509 0
M  V30 12303 H 1172.05 -3.57384 -1.10239 0
M  V30 12304 H 1174.34 -6.00249 -3.14177 0
M  V30 12305 H 1175.28 -6.83159 -1.86278 0
M  V30 12306 H 1175.69 -5.14931 -2.31314 0
M  V30 12307 N 1175.09 0.086862 -1.5736 0
M  V30 12308 C 1176.34 0.787281 -1.86135 0
M  V30 12309 C 1176.66 1.78866 -0.776667 0
M  V30 12310 O 1175.93 1.94915 0.19625 0
M  V30 12311 H 1174.51 0.293744 -0.686821 0
M  V30 12312 H 1177.17 0.0665326 -1.94786 0
M  V30 12313 H 1176.27 1.3128 -2.83147 0
M  V30 12314 N 1176.57 1.53483 0.357892 0
M  V30 12315 C 1177.82 1.69701 1.09754 0
M  V30 12316 C 1178.14 0.455389 1.89608 0
M  V30 12317 O 1177.41 -0.530623 1.88577 0
M  V30 12318 H 1175.99 0.62562 0.408178 0
M  V30 12319 H 1178.65 1.90696 0.402641 0
M  V30 12320 H 1177.74 2.56154 1.78302 0
M  V30 12321 N 1178.05 -0.61812 1.44973 0
M  V30 12322 C 1179.29 -1.37468 1.48145 0
M  V30 12323 C 1179.61 -1.94628 0.120366 0
M  V30 12324 O 1178.88 -1.76548 -0.848982 0
M  V30 12325 H 1177.46 -0.510293 0.545536 0
M  V30 12326 H 1180.13 -0.726598 1.8085 0
M  V30 12327 H 1179.22 -2.19944 2.2143 0
M  V30 12328 N 1179.52 -1.32087 -0.859693 0
M  V30 12329 C 1180.77 -1.2236 -1.61351 0
M  V30 12330 C 1181.1 0.215796 -1.93299 0
M  V30 12331 O 1180.35 1.16742 -1.57066 0
M  V30 12332 C 1180.65 -2.0234 -2.94607 0
M  V30 12333 C 1180.32 -3.51746 -2.82109 0
M  V30 12334 C 1178.98 -3.92482 -2.78408 0
M  V30 12335 C 1181.33 -4.46776 -2.68403 0
M  V30 12336 C 1178.66 -5.265 -2.58873 0
M  V30 12337 C 1181.01 -5.80931 -2.50404 0
M  V30 12338 C 1179.68 -6.20875 -2.45092 0
M  V30 12339 H 1178.95 -0.447748 -0.590426 0
M  V30 12340 H 1181.59 -1.63461 -0.997637 0
M  V30 12341 H 1179.9 -1.53952 -3.60286 0
M  V30 12342 H 1181.6 -1.92187 -3.51945 0
M  V30 12343 H 1178.19 -3.19389 -2.85812 0
M  V30 12344 H 1182.37 -4.16228 -2.70311 0
M  V30 12345 H 1177.63 -5.5651 -2.53192 0
M  V30 12346 H 1181.8 -6.54185 -2.38777 0
M  V30 12347 H 1179.43 -7.24662 -2.29714 0
M  V30 12348 N 1181 1.07532 -1.15215 0
M  V30 12349 C 1182.25 1.79737 -0.924062 0
M  V30 12350 C 1182.57 1.87072 0.550356 0
M  V30 12351 O 1181.84 1.37029 1.4 0
M  V30 12352 H 1180.42 0.665704 -0.338891 0
M  V30 12353 H 1183.08 1.29961 -1.45245 0
M  V30 12354 H 1182.18 2.82256 -1.33184 0
M  V30 12355 N 1182.48 0.948665 1.2585 0
M  V30 12356 C 1183.73 0.59905 1.93018 0
M  V30 12357 C 1184.05 -0.865813 1.74725 0
M  V30 12358 O 1183.32 -1.61602 1.10732 0
M  V30 12359 H 1181.9 0.218565 0.71431 0
M  V30 12360 H 1184.56 1.20561 1.53137 0
M  V30 12361 H 1183.66 0.823244 3.01047 0
M  V30 12362 N 1183.96 -1.40369 0.716545 0
M  V30 12363 C 1184.91 -2.3071 0.0645944 0
M  V30 12364 C 1185.88 -1.48239 -0.749294 0
M  V30 12365 O 1187.06 -1.76975 -0.713045 0
M  V30 12366 C 1184.2 -3.34456 -0.850478 0
M  V30 12367 C 1183.31 -4.31992 -0.0259594 0
M  V30 12368 C 1182.45 -5.22806 -0.940599 0
M  V30 12369 C 1181.49 -6.12001 -0.110228 0
M  V30 12370 N 1180.62 -6.9523 -0.979796 0
M  V30 12371 H 1185.46 -2.85896 0.840682 0
M  V30 12372 H 1183 -1.40789 0.426258 0
M  V30 12373 H 1184.96 -3.93177 -1.39528 0
M  V30 12374 H 1183.59 -2.8077 -1.59274 0
M  V30 12375 H 1182.64 -3.75045 0.636036 0
M  V30 12376 H 1183.95 -4.94971 0.616883 0
M  V30 12377 H 1183.11 -5.86463 -1.5539 0
M  V30 12378 H 1181.85 -4.60104 -1.61726 0
M  V30 12379 H 1180.85 -5.47373 0.516001 0
M  V30 12380 H 1182.08 -6.76763 0.562944 0
M  V30 12381 H 1180.02 -6.35115 -1.64209 0
M  V30 12382 H 1179.94 -7.54978 -0.393012 0
M  V30 12383 H 1181.21 -7.63335 -1.57924 0
M  V30 12384 N 1185.44 -0.462799 -1.50652 0
M  V30 12385 C 1186.35 0.341191 -2.32106 0
M  V30 12386 C 1187.36 1.00384 -1.42123 0
M  V30 12387 O 1188.54 0.993635 -1.75182 0
M  V30 12388 C 1185.6 1.41356 -3.16575 0
M  V30 12389 C 1184.66 0.768375 -4.22368 0
M  V30 12390 C 1183.9 1.78964 -5.028 0
M  V30 12391 O 1184.12 3.01515 -4.84195 0
M  V30 12392 O 1183.05 1.36606 -5.86193 0
M  V30 12393 H 1186.88 -0.324482 -3.01962 0
M  V30 12394 H 1184.47 -0.224807 -1.47699 0
M  V30 12395 H 1186.35 2.0349 -3.69012 0
M  V30 12396 H 1185.02 2.06285 -2.49456 0
M  V30 12397 H 1183.93 0.108297 -3.73943 0
M  V30 12398 H 1185.26 0.162164 -4.91933 0
M  V30 12399 N 1186.91 1.56388 -0.195085 0
M  V30 12400 C 1188.14 2.01963 0.449289 0
M  V30 12401 C 1188.56 1.07522 1.55192 0
M  V30 12402 O 1187.91 0.0800915 1.82324 0
M  V30 12403 C 1187.97 3.47231 1.00561 0
M  V30 12404 O 1187.69 4.38068 -0.0530241 0
M  V30 12405 C 1189.19 4.08324 1.72587 0
M  V30 12406 H 1186.41 0.661452 0.112792 0
M  V30 12407 H 1188.95 2.02231 -0.303788 0
M  V30 12408 H 1187.11 3.47663 1.70907 0
M  V30 12409 H 1187.52 5.23256 0.361076 0
M  V30 12410 H 1188.99 5.11821 2.06744 0
M  V30 12411 H 1189.47 3.51782 2.62956 0
M  V30 12412 H 1190.08 4.11665 1.06826 0
M  V30 12413 N 1188.39 -0.0785156 1.57404 0
M  V30 12414 C 1189.81 -0.433143 1.5361 0
M  V30 12415 C 1190.01 -1.79564 0.914283 0
M  V30 12416 O 1189.06 -2.47215 0.513899 0
M  V30 12417 C 1190.38 -0.380387 2.98284 0
M  V30 12418 C 1191.93 -0.461056 3.09586 0
M  V30 12419 C 1192.4 -0.438276 4.55898 0
M  V30 12420 N 1193.89 -0.498548 4.60509 0
M  V30 12421 C 1194.63 -0.503028 5.71189 0
M  V30 12422 N 1194.12 -0.462724 6.91253 0
M  V30 12423 N 1195.92 -0.549083 5.59412 0
M  V30 12424 H 1188.07 0.813724 1.96195 0
M  V30 12425 H 1190.33 0.304644 0.897717 0
M  V30 12426 H 1190.04 0.553932 3.4731 0
M  V30 12427 H 1189.91 -1.19313 3.57833 0
M  V30 12428 H 1192.3 -1.3858 2.60537 0
M  V30 12429 H 1192.38 0.380138 2.5296 0
M  V30 12430 H 1192.02 0.482588 5.05602 0
M  V30 12431 H 1191.95 -1.29691 5.1038 0
M  V30 12432 H 1194.44 -0.534219 3.74105 0
M  V30 12433 H 1194.76 -0.469883 7.7137 0
M  V30 12434 H 1193.1 -0.429515 6.93672 0
M  V30 12435 H 1196.29 -0.578215 4.64515 0
M  V30 12436 H 1196.46 -0.549105 6.45669 0
M  V30 12437 N 1189.87 -1.5367 -0.349747 0
M  V30 12438 C 1191.1 -1.74858 -1.11532 0
M  V30 12439 C 1191.52 -0.483591 -1.81777 0
M  V30 12440 O 1190.88 0.563399 -1.72324 0
M  V30 12441 C 1190.93 -2.92479 -2.10923 0
M  V30 12442 O 1190.03 -2.62194 -3.18321 0
M  V30 12443 H 1189.37 -0.580219 -0.322865 0
M  V30 12444 H 1191.9 -2.00611 -0.402033 0
M  V30 12445 H 1191.91 -3.19093 -2.54252 0
M  V30 12446 H 1190.59 -3.84228 -1.59191 0
M  V30 12447 H 1189.16 -2.46448 -2.79853 0
M  V30 12448 N 1191.35 0.610423 -1.45298 0
M  V30 12449 C 1192.58 1.39621 -1.52688 0
M  V30 12450 C 1192.99 1.88133 -0.158535 0
M  V30 12451 O 1192.35 1.62051 0.839396 0
M  V30 12452 C 1192.4 2.60261 -2.50891 0
M  V30 12453 O 1192.12 2.13766 -3.82408 0
M  V30 12454 C 1193.62 3.53154 -2.6795 0
M  V30 12455 H 1190.84 0.427493 -0.517195 0
M  V30 12456 H 1193.39 0.744701 -1.90459 0
M  V30 12457 H 1191.54 3.2146 -2.162 0
M  V30 12458 H 1191.95 2.92128 -4.35616 0
M  V30 12459 H 1193.43 4.34355 -3.40647 0
M  V30 12460 H 1193.91 4.03311 -1.73888 0
M  V30 12461 H 1194.51 2.9781 -3.03627 0
M  V30 12462 N 1192.83 1.32541 0.852676 0
M  V30 12463 C 1194.07 1.23397 1.60938 0
M  V30 12464 C 1194.41 -0.203294 1.93133 0
M  V30 12465 O 1193.68 -1.14097 1.57519 0
M  V30 12466 C 1193.96 2.0956 2.92842 0
M  V30 12467 C 1193.82 3.61675 2.67416 0
M  V30 12468 C 1195.14 1.95825 3.94133 0
M  V30 12469 H 1192.25 0.449608 0.583971 0
M  V30 12470 H 1194.9 1.62507 0.98446 0
M  V30 12471 H 1193.05 1.76336 3.46176 0
M  V30 12472 H 1194.72 4.05122 2.20621 0
M  V30 12473 H 1192.96 3.84242 2.01347 0
M  V30 12474 H 1193.63 4.17292 3.61347 0
M  V30 12475 H 1196.11 2.24935 3.50062 0
M  V30 12476 H 1194.98 2.58387 4.8428 0
M  V30 12477 H 1195.25 0.926466 4.32284 0
M  V30 12478 N 1194.3 -1.0692 1.15784 0
M  V30 12479 C 1195.55 -1.79866 0.936815 0
M  V30 12480 C 1195.88 -1.867 -0.534477 0
M  V30 12481 O 1195.16 -1.35395 -1.39637 0
M  V30 12482 C 1195.44 -3.24691 1.55717 0
M  V30 12483 C 1195.29 -3.25975 3.09936 0
M  V30 12484 C 1196.61 -4.22076 1.24658 0
M  V30 12485 H 1193.73 -0.652971 0.341756 0
M  V30 12486 H 1196.37 -1.25085 1.43016 0
M  V30 12487 H 1194.52 -3.7147 1.13763 0
M  V30 12488 H 1196.2 -2.87405 3.60827 0
M  V30 12489 H 1194.44 -2.64808 3.43597 0
M  V30 12490 H 1195.11 -4.28114 3.48458 0
M  V30 12491 H 1197.59 -3.83709 1.60956 0
M  V30 12492 H 1196.46 -5.21691 1.70675 0
M  V30 12493 H 1196.72 -4.41794 0.164341 0
M  V30 12494 N 1195.78 -0.955326 -1.25345 0
M  V30 12495 C 1197.01 -0.627233 -1.97688 0
M  V30 12496 C 1197.43 0.793973 -1.70522 0
M  V30 12497 O 1196.79 1.537 -0.961556 0
M  V30 12498 C 1196.84 -0.892969 -3.49369 0
M  V30 12499 O 1195.94 0.0278871 -4.12391 0
M  V30 12500 H 1195.28 -0.238402 -0.619726 0
M  V30 12501 H 1197.81 -1.28211 -1.59446 0
M  V30 12502 H 1197.82 -0.819517 -3.99685 0
M  V30 12503 H 1196.5 -1.92879 -3.6847 0
M  V30 12504 H 1195.08 -0.0978295 -3.72772 0
M  V30 12505 N 1197.26 1.39987 -0.723979 0
M  V30 12506 C 1198.49 2.05037 -0.27702 0
M  V30 12507 C 1198.9 1.54565 1.08421 0
M  V30 12508 O 1198.26 0.705795 1.683 0
M  V30 12509 C 1198.31 3.60582 -0.25751 0
M  V30 12510 O 1198.03 4.09194 -1.565 0
M  V30 12511 C 1199.53 4.42817 0.206972 0
M  V30 12512 H 1196.75 0.659637 -0.122963 0
M  V30 12513 H 1199.3 1.7924 -0.98454 0
M  V30 12514 H 1197.45 3.85319 0.401037 0
M  V30 12515 H 1197.87 5.03447 -1.47112 0
M  V30 12516 H 1199.34 5.5174 0.16947 0
M  V30 12517 H 1199.82 4.21023 1.25045 0
M  V30 12518 H 1200.42 4.23205 -0.421604 0
M  V30 12519 N 1198.74 0.470782 1.50404 0
M  V30 12520 C 1199.7 -0.312227 2.27063 0
M  V30 12521 C 1200.7 -0.920709 1.31832 0
M  V30 12522 O 1201.89 -0.789937 1.5526 0
M  V30 12523 C 1199.02 -1.44477 3.0877 0
M  V30 12524 H 1200.22 0.36006 2.97731 0
M  V30 12525 H 1197.77 0.224837 1.54674 0
M  V30 12526 H 1198.51 -2.15212 2.42599 0
M  V30 12527 H 1198.29 -1.01426 3.78755 0
M  V30 12528 H 1199.78 -1.99713 3.66749 0
M  V30 12529 N 1200.22 -1.56282 0.203376 0
M  V30 12530 C 1201.46 -1.98105 -0.433844 0
M  V30 12531 C 1201.8 -1.09044 -1.60695 0
M  V30 12532 O 1201.07 -0.144193 -1.93965 0
M  V30 12533 C 1201.35 -3.4903 -0.885992 0
M  V30 12534 C 1201.21 -4.48867 0.289501 0
M  V30 12535 C 1202.53 -4.03871 -1.7486 0
M  V30 12536 H 1199.65 -0.720252 -0.156224 0
M  V30 12537 H 1202.29 -1.87681 0.295963 0
M  V30 12538 H 1200.44 -3.58045 -1.50785 0
M  V30 12539 H 1202.11 -4.51883 0.92734 0
M  V30 12540 H 1200.35 -4.23495 0.939934 0
M  V30 12541 H 1201.02 -5.51956 -0.0695128 0
M  V30 12542 H 1203.5 -3.97688 -1.22407 0
M  V30 12543 H 1202.38 -5.09827 -2.03391 0
M  V30 12544 H 1202.64 -3.49637 -2.70567 0
M  V30 12545 N 1201.7 0.070167 -1.57444 0
M  V30 12546 C 1202.66 1.06761 -2.02817 0
M  V30 12547 C 1203.66 1.31498 -0.925462 0
M  V30 12548 O 1204.85 1.27192 -1.19029 0
M  V30 12549 C 1201.98 2.41086 -2.41019 0
M  V30 12550 H 1203.17 0.67651 -2.9217 0
M  V30 12551 H 1200.73 0.315936 -1.53074 0
M  V30 12552 H 1201.46 2.85025 -1.54697 0
M  V30 12553 H 1201.25 2.24472 -3.21488 0
M  V30 12554 H 1202.74 3.12778 -2.76694 0
M  V30 12555 N 1203.17 1.53854 0.341593 0
M  V30 12556 C 1204.1 1.84966 1.42513 0
M  V30 12557 C 1205.08 0.704944 1.54805 0
M  V30 12558 O 1206.27 0.957036 1.68981 0
M  V30 12559 C 1203.4 2.06099 2.79536 0
M  V30 12560 C 1202.35 3.21919 2.82049 0
M  V30 12561 C 1201.68 3.28389 4.21977 0
M  V30 12562 C 1202.98 4.59984 2.4741 0
M  V30 12563 H 1204.67 2.7571 1.16724 0
M  V30 12564 H 1202.22 1.32662 0.560073 0
M  V30 12565 H 1204.17 2.26448 3.55386 0
M  V30 12566 H 1202.9 1.12087 3.06764 0
M  V30 12567 H 1201.56 3.01429 2.08653 0
M  V30 12568 H 1201.2 2.3197 4.46317 0
M  V30 12569 H 1200.9 4.0622 4.24569 0
M  V30 12570 H 1202.43 3.50951 4.99666 0
M  V30 12571 H 1203.84 4.80334 3.12973 0
M  V30 12572 H 1202.24 5.40233 2.61282 0
M  V30 12573 H 1203.31 4.6346 1.42594 0
M  V30 12574 N 1204.65 -0.602709 1.4562 0
M  V30 12575 C 1205.61 -1.69508 1.54271 0
M  V30 12576 C 1206.61 -1.55171 0.421727 0
M  V30 12577 O 1207.8 -1.60151 0.685375 0
M  V30 12578 C 1204.94 -3.0881 1.44392 0
M  V30 12579 H 1206.13 -1.63203 2.51605 0
M  V30 12580 H 1203.68 -0.818857 1.33133 0
M  V30 12581 H 1204.42 -3.20689 0.482614 0
M  V30 12582 H 1204.2 -3.20625 2.25704 0
M  V30 12583 H 1205.69 -3.8837 1.53488 0
M  V30 12584 N 1206.13 -1.32992 -0.845635 0
M  V30 12585 C 1207.09 -1.22607 -1.9365 0
M  V30 12586 C 1208.09 -0.146812 -1.60128 0
M  V30 12587 O 1209.28 -0.397863 -1.69596 0
M  V30 12588 C 1206.41 -0.887677 -3.2914 0
M  V30 12589 H 1207.61 -2.19563 -2.04285 0
M  V30 12590 H 1205.16 -1.16952 -1.03691 0
M  V30 12591 H 1205.9 0.0796777 -3.24202 0
M  V30 12592 H 1205.68 -1.66808 -3.54849 0
M  V30 12593 H 1207.17 -0.83958 -4.09073 0
M  V30 12594 N 1207.61 1.06304 -1.1635 0
M  V30 12595 C 1208.84 1.82534 -0.967725 0
M  V30 12596 C 1209.25 1.82816 0.487338 0
M  V30 12597 O 1208.59 1.24581 1.35001 0
M  V30 12598 C 1208.65 3.30349 -1.4181 0
M  V30 12599 C 1208.31 3.53769 -2.89303 0
M  V30 12600 C 1209.31 3.46826 -3.87308 0
M  V30 12601 C 1207 3.81094 -3.2722 0
M  V30 12602 C 1208.99 3.66874 -5.21232 0
M  V30 12603 C 1206.68 4.00792 -4.61313 0
M  V30 12604 C 1207.68 3.93679 -5.58127 0
M  V30 12605 O 1207.36 4.12839 -6.89796 0
M  V30 12606 H 1207.1 0.582407 -0.343189 0
M  V30 12607 H 1209.65 1.35022 -1.54784 0
M  V30 12608 H 1207.88 3.78722 -0.781456 0
M  V30 12609 H 1209.57 3.88072 -1.18976 0
M  V30 12610 H 1210.33 3.25706 -3.59361 0
M  V30 12611 H 1206.21 3.85739 -2.5244 0
M  V30 12612 H 1209.76 3.61238 -5.96786 0
M  V30 12613 H 1205.65 4.214 -4.8897 0
M  V30 12614 H 1206.42 4.30128 -6.96371 0
M  V30 12615 N 1209.09 0.96196 1.24836 0
M  V30 12616 C 1210.03 0.48686 2.25607 0
M  V30 12617 C 1211 -0.464546 1.59472 0
M  V30 12618 O 1212.19 -0.376179 1.87055 0
M  V30 12619 C 1209.33 -0.222294 3.44383 0
M  V30 12620 C 1208.44 0.767206 4.25133 0
M  V30 12621 C 1207.58 0.0347458 5.31189 0
M  V30 12622 C 1206.61 1.01469 6.03631 0
M  V30 12623 N 1205.75 0.312619 7.01404 0
M  V30 12624 H 1210.59 1.35104 2.65614 0
M  V30 12625 H 1208.13 0.677373 1.30576 0
M  V30 12626 H 1210.09 -0.650087 4.12104 0
M  V30 12627 H 1208.72 -1.05047 3.0523 0
M  V30 12628 H 1207.77 1.31346 3.57005 0
M  V30 12629 H 1209.08 1.5147 4.75245 0
M  V30 12630 H 1208.23 -0.451325 6.05019 0
M  V30 12631 H 1206.97 -0.745485 4.81969 0
M  V30 12632 H 1205.98 1.51169 5.28609 0
M  V30 12633 H 1207.2 1.79527 6.5494 0
M  V30 12634 H 1205.15 -0.44874 6.54463 0
M  V30 12635 H 1205.07 0.999079 7.49369 0
M  V30 12636 H 1206.33 -0.151673 7.79352 0
M  V30 12637 N 1210.56 -1.39601 0.731392 0
M  V30 12638 C 1211.79 -2.04887 0.28789 0
M  V30 12639 C 1212.21 -1.55138 -1.076 0
M  V30 12640 O 1211.56 -0.71471 -1.67923 0
M  V30 12641 C 1211.61 -3.6044 0.276629 0
M  V30 12642 O 1211.34 -4.08358 1.58668 0
M  V30 12643 C 1212.84 -4.4292 -0.183485 0
M  V30 12644 H 1210.06 -0.658976 0.126459 0
M  V30 12645 H 1212.6 -1.78716 0.994031 0
M  V30 12646 H 1210.76 -3.85526 -0.380597 0
M  V30 12647 H 1211.17 -5.02659 1.4978 0
M  V30 12648 H 1212.64 -5.51822 -0.140207 0
M  V30 12649 H 1213.12 -4.2168 -1.22811 0
M  V30 12650 H 1213.73 -4.22976 0.444042 0
M  V30 12651 N 1212.04 -0.478751 -1.50152 0
M  V30 12652 C 1213.29 0.0734397 -2.01967 0
M  V30 12653 C 1213.61 1.39523 -1.36229 0
M  V30 12654 O 1212.88 1.89141 -0.510149 0
M  V30 12655 H 1211.46 0.0301305 -0.746392 0
M  V30 12656 H 1214.12 -0.630921 -1.84406 0
M  V30 12657 H 1213.22 0.21937 -3.11328 0
M  V30 12658 N 1213.52 1.56172 -0.211661 0
M  V30 12659 C 1214.94 1.5895 0.143907 0
M  V30 12660 C 1215.14 1.22826 1.59737 0
M  V30 12661 O 1214.19 0.958823 2.33587 0
M  V30 12662 C 1215.51 3.00199 -0.173438 0
M  V30 12663 C 1217.05 3.12789 -0.114877 0
M  V30 12664 C 1217.53 4.56199 -0.405759 0
M  V30 12665 N 1219.02 4.61838 -0.354973 0
M  V30 12666 C 1219.75 5.70721 -0.553671 0
M  V30 12667 N 1219.25 6.88006 -0.813613 0
M  V30 12668 N 1221.04 5.59988 -0.486787 0
M  V30 12669 H 1213.19 1.77931 -1.15993 0
M  V30 12670 H 1215.46 0.826569 -0.464206 0
M  V30 12671 H 1215.16 3.31248 -1.18186 0
M  V30 12672 H 1215.04 3.73651 0.516232 0
M  V30 12673 H 1217.42 2.81543 0.884166 0
M  V30 12674 H 1217.51 2.41688 -0.837875 0
M  V30 12675 H 1217.15 4.88161 -1.40219 0
M  V30 12676 H 1217.08 5.25512 0.338318 0
M  V30 12677 H 1219.57 3.77555 -0.161352 0
M  V30 12678 H 1219.88 7.66894 -0.953594 0
M  V30 12679 H 1218.23 6.89774 -0.850696 0
M  V30 12680 H 1221.42 4.67238 -0.284009 0
M  V30 12681 H 1221.59 6.44781 -0.645051 0
M  V30 12682 N 1215 -0.0618163 1.57479 0
M  V30 12683 C 1216.41 -0.612461 1.76368 0
M  V30 12684 C 1216.76 -1.77381 0.838466 0
M  V30 12685 O 1215.89 -2.16386 0.0250211 0
M  V30 12686 C 1216.48 -1.11782 3.19829 0
M  V30 12687 C 1215.04 -1.61424 3.40028 0
M  V30 12688 C 1214.19 -0.53795 2.72032 0
M  V30 12689 H 1217.14 0.164382 1.57846 0
M  V30 12690 H 1217.16 -1.98634 3.24538 0
M  V30 12691 H 1216.67 -0.272353 3.87143 0
M  V30 12692 H 1214.77 -2.48263 2.77842 0
M  V30 12693 H 1214.88 -1.68431 4.48517 0
M  V30 12694 H 1213.25 -0.985355 2.34868 0
M  V30 12695 H 1214.03 0.297495 3.42009 0
M  V30 12696 N 1216.48 -1.54033 -0.333429 0
M  V30 12697 C 1217.72 -1.72019 -1.07411 0
M  V30 12698 C 1218.06 -0.487265 -1.87988 0
M  V30 12699 O 1217.33 0.515757 -1.87537 0
M  V30 12700 C 1217.61 -2.98986 -2.00698 0
M  V30 12701 C 1217.47 -4.32509 -1.23517 0
M  V30 12702 C 1218.79 -3.21663 -3.00368 0
M  V30 12703 H 1215.9 -0.625919 -0.389094 0
M  V30 12704 H 1218.55 -1.86717 -0.351697 0
M  V30 12705 H 1216.7 -2.86586 -2.62298 0
M  V30 12706 H 1218.37 -4.56775 -0.644522 0
M  V30 12707 H 1216.61 -4.3046 -0.537298 0
M  V30 12708 H 1217.28 -5.17547 -1.91962 0
M  V30 12709 H 1219.76 -3.33459 -2.48886 0
M  V30 12710 H 1218.63 -4.11877 -3.62834 0
M  V30 12711 H 1218.9 -2.3843 -3.72295 0
M  V30 12712 N 1217.95 0.594978 -1.45938 0
M  V30 12713 C 1219.37 0.917069 -1.30622 0
M  V30 12714 C 1219.57 1.99702 -0.268554 0
M  V30 12715 O 1218.63 2.50293 0.333146 0
M  V30 12716 C 1219.94 1.34604 -2.68891 0
M  V30 12717 C 1221.49 1.45957 -2.76886 0
M  V30 12718 C 1221.96 1.92225 -4.15708 0
M  V30 12719 N 1223.45 1.99439 -4.18065 0
M  V30 12720 C 1224.19 2.36488 -5.22361 0
M  V30 12721 N 1223.68 2.72416 -6.36994 0
M  V30 12722 N 1225.48 2.36936 -5.09723 0
M  V30 12723 H 1217.63 -0.118625 -2.12068 0
M  V30 12724 H 1219.89 0.00959453 -0.947951 0
M  V30 12725 H 1219.6 0.626605 -3.46073 0
M  V30 12726 H 1219.47 2.31006 -2.98188 0
M  V30 12727 H 1221.86 2.16989 -1.99999 0
M  V30 12728 H 1221.94 0.47838 -2.51287 0
M  V30 12729 H 1221.58 1.21775 -4.93085 0
M  V30 12730 H 1221.51 2.9128 -4.38707 0
M  V30 12731 H 1224 1.74212 -3.35349 0
M  V30 12732 H 1224.32 2.99604 -7.1236 0
M  V30 12733 H 1222.66 2.70083 -6.40375 0
M  V30 12734 H 1225.85 2.08282 -4.19209 0
M  V30 12735 H 1226.03 2.65483 -5.9112 0
M  V30 12736 N 1219.43 1.33438 0.838571 0
M  V30 12737 C 1220.67 1.26245 1.60753 0
M  V30 12738 C 1221.04 -0.169255 1.91253 0
M  V30 12739 O 1222.24 -0.365157 2.66308 0
M  V30 12740 C 1220.51 2.11348 2.88213 0
M  V30 12741 S 1222.07 2.21348 3.78881 0
M  V30 12742 H 1218.89 0.449132 0.551182 0
M  V30 12743 H 1221.49 1.68474 0.991798 0
M  V30 12744 H 1220.19 3.14402 2.63779 0
M  V30 12745 H 1219.72 1.69957 3.54793 0
M  V30 12746 H 1221.74 1.37477 4.76775 0
M  V30 12747 N 1220.91 -1.05686 1.16912 0
M  V30 12748 C 1221.84 -2.12775 0.824755 0
M  V30 12749 C 1222.82 -1.61286 -0.206289 0
M  V30 12750 O 1224.01 -1.8829 -0.0889616 0
M  V30 12751 C 1221.13 -3.37922 0.229422 0
M  V30 12752 C 1220.18 -4.08226 1.23506 0
M  V30 12753 S 1221.01 -4.57424 2.78431 0
M  V30 12754 C 1222.17 -5.85825 2.20364 0
M  V30 12755 H 1222.4 -2.41657 1.73174 0
M  V30 12756 H 1219.93 -1.18212 0.99324 0
M  V30 12757 H 1221.89 -4.10359 -0.107588 0
M  V30 12758 H 1220.55 -3.07186 -0.655424 0
M  V30 12759 H 1219.75 -4.98129 0.767059 0
M  V30 12760 H 1219.35 -3.41832 1.51747 0
M  V30 12761 H 1221.64 -6.58912 1.57611 0
M  V30 12762 H 1222.58 -6.37364 3.08501 0
M  V30 12763 H 1222.99 -5.4015 1.64008 0
M  V30 12764 N 1222.39 -0.968567 -1.24324 0
M  V30 12765 C 1223.32 -0.518323 -2.27674 0
M  V30 12766 C 1224.3 0.442479 -1.64244 0
M  V30 12767 O 1225.48 0.338416 -1.91229 0
M  V30 12768 C 1222.61 0.191459 -3.46772 0
M  V30 12769 C 1221.57 -0.685449 -4.22476 0
M  V30 12770 C 1220.89 0.155873 -5.34473 0
M  V30 12771 C 1222.19 -1.97047 -4.83704 0
M  V30 12772 H 1223.89 -1.38215 -2.65588 0
M  V30 12773 H 1221.43 -0.66604 -1.27671 0
M  V30 12774 H 1223.39 0.517667 -4.18208 0
M  V30 12775 H 1222.11 1.08965 -3.07887 0
M  V30 12776 H 1220.77 -0.994942 -3.52841 0
M  V30 12777 H 1220.42 1.05424 -4.91828 0
M  V30 12778 H 1220.12 -0.427655 -5.86042 0
M  V30 12779 H 1221.64 0.476733 -6.08736 0
M  V30 12780 H 1223.06 -1.70979 -5.4721 0
M  V30 12781 H 1221.45 -2.50079 -5.45509 0
M  V30 12782 H 1222.52 -2.66484 -4.0511 0
M  V30 12783 N 1223.87 1.39211 -0.738786 0
M  V30 12784 C 1225.14 1.9442 -0.214533 0
M  V30 12785 C 1225.52 1.67528 1.28443 0
M  V30 12786 O 1224.87 1.0056 2.05183 0
M  V30 12787 C 1225.08 3.44603 -0.552232 0
M  V30 12788 C 1226.43 4.21602 -0.503663 0
M  V30 12789 O 1227.45 3.52819 -0.489647 0
M  V30 12790 O 1226.31 5.44194 -0.50153 0
M  V30 12791 H 1223.41 0.826011 -0.0404247 0
M  V30 12792 H 1225.95 1.48689 -0.817902 0
M  V30 12793 H 1224.72 3.57626 -1.58806 0
M  V30 12794 H 1224.35 3.9752 0.0799096 0
M  V30 12795 N 1225.34 0.486708 1.49896 0
M  V30 12796 C 1226.76 0.141788 1.58969 0
M  V30 12797 C 1226.96 -1.35279 1.49338 0
M  V30 12798 O 1226.02 -2.1275 1.35992 0
M  V30 12799 C 1227.33 0.70588 2.92297 0
M  V30 12800 C 1228.88 0.670704 3.0573 0
M  V30 12801 C 1229.35 1.21261 4.41656 0
M  V30 12802 N 1230.84 1.17269 4.4811 0
M  V30 12803 C 1231.58 1.56233 5.51705 0
M  V30 12804 N 1231.07 2.02721 6.62477 0
M  V30 12805 N 1232.87 1.47738 5.42337 0
M  V30 12806 H 1225.02 1.45858 1.544 0
M  V30 12807 H 1227.28 0.604137 0.730563 0
M  V30 12808 H 1226.99 1.7535 3.04869 0
M  V30 12809 H 1226.86 0.158215 3.76868 0
M  V30 12810 H 1229.25 -0.368041 2.92796 0
M  V30 12811 H 1229.33 1.25535 2.22878 0
M  V30 12812 H 1228.97 2.25006 4.5534 0
M  V30 12813 H 1228.9 0.604031 5.23124 0
M  V30 12814 H 1231.39 0.831905 3.6863 0
M  V30 12815 H 1231.71 2.3056 7.37606 0
M  V30 12816 H 1230.05 2.06686 6.63556 0
M  V30 12817 H 1233.24 1.11249 4.54688 0
M  V30 12818 H 1233.42 1.78429 6.2295 0
M  V30 12819 N 1226.82 -1.56058 0.219941 0
M  V30 12820 C 1228.1 -1.90087 -0.46112 0
M  V30 12821 C 1228.48 -1.13705 -1.77861 0
M  V30 12822 O 1227.83 -0.245868 -2.27173 0
M  V30 12823 C 1228.04 -3.42786 -0.655644 0
M  V30 12824 C 1229.39 -4.13517 -0.963803 0
M  V30 12825 O 1230.41 -3.48376 -0.742488 0
M  V30 12826 O 1229.27 -5.28692 -1.38374 0
M  V30 12827 H 1226.36 -0.790311 -0.243595 0
M  V30 12828 H 1228.91 -1.67665 0.262005 0
M  V30 12829 H 1227.68 -3.90341 0.273738 0
M  V30 12830 H 1227.3 -3.70982 -1.43032 0
M  V30 12831 N 1228.3 0.053464 -1.57509 0
M  V30 12832 C 1229.21 1.07902 -2.08313 0
M  V30 12833 C 1230.23 1.41223 -1.01647 0
M  V30 12834 O 1231.4 1.51032 -1.33233 0
M  V30 12835 C 1228.47 2.36813 -2.5322 0
M  V30 12836 C 1227.53 2.10297 -3.74264 0
M  V30 12837 C 1226.76 3.33062 -4.1702 0
M  V30 12838 O 1226.99 4.42857 -3.59491 0
M  V30 12839 O 1225.92 3.20195 -5.09665 0
M  V30 12840 H 1229.75 0.677368 -2.9605 0
M  V30 12841 H 1227.33 0.268838 -1.46961 0
M  V30 12842 H 1229.21 3.12645 -2.82544 0
M  V30 12843 H 1227.89 2.76323 -1.68605 0
M  V30 12844 H 1226.79 1.32111 -3.49996 0
M  V30 12845 H 1228.13 1.75658 -4.59788 0
M  V30 12846 N 1229.78 1.54207 0.325255 0
M  V30 12847 C 1231.06 1.6298 1.08153 0
M  V30 12848 C 1231.44 0.462583 2.05969 0
M  V30 12849 O 1230.78 -0.543323 2.21947 0
M  V30 12850 C 1230.99 2.999 1.78497 0
M  V30 12851 C 1232.34 3.55888 2.3158 0
M  V30 12852 O 1233.37 3.02194 1.88566 0
M  V30 12853 O 1232.23 4.49847 3.10322 0
M  V30 12854 H 1229.32 0.659923 0.498429 0
M  V30 12855 H 1231.87 1.66553 0.325282 0
M  V30 12856 H 1230.64 3.7629 1.07338 0
M  V30 12857 H 1230.26 2.99997 2.60936 0
M  V30 12858 N 1231.26 -0.58723 1.46251 0
M  V30 12859 C 1232.19 -1.71113 1.50982 0
M  V30 12860 C 1233.17 -1.58466 0.364322 0
M  V30 12861 O 1234.35 -1.79745 0.567812 0
M  V30 12862 C 1231.48 -3.09128 1.38411 0
M  V30 12863 C 1230.53 -3.40308 2.57085 0
M  V30 12864 S 1231.36 -3.32881 4.19464 0
M  V30 12865 C 1232.51 -4.73441 4.09395 0
M  V30 12866 H 1232.75 -1.66841 2.46072 0
M  V30 12867 H 1230.28 -0.765598 1.34082 0
M  V30 12868 H 1232.24 -3.88751 1.31846 0
M  V30 12869 H 1230.9 -3.10895 0.447567 0
M  V30 12870 H 1230.09 -4.40849 2.4427 0
M  V30 12871 H 1229.69 -2.68244 2.60617 0
M  V30 12872 H 1231.99 -5.63723 3.75796 0
M  V30 12873 H 1232.93 -4.91313 5.09919 0
M  V30 12874 H 1233.34 -4.50079 3.40719 0
M  V30 12875 N 1232.74 -1.33881 -0.831482 0
M  V30 12876 C 1233.67 -1.27384 -1.95693 0
M  V30 12877 C 1234.65 -0.152943 -1.69411 0
M  V30 12878 O 1235.83 -0.34392 -1.9113 0
M  V30 12879 C 1232.96 -1.01982 -3.31989 0
M  V30 12880 C 1231.92 -2.10445 -3.72689 0
M  V30 12881 C 1231.24 -1.70245 -5.06873 0
M  V30 12882 C 1232.54 -3.52194 -3.8569 0
M  V30 12883 H 1234.24 -2.21549 -2.01386 0
M  V30 12884 H 1231.78 -1.06653 -0.967526 0
M  V30 12885 H 1233.73 -0.960841 -4.103 0
M  V30 12886 H 1232.46 -0.0425709 -3.26572 0
M  V30 12887 H 1231.12 -2.15398 -2.96647 0
M  V30 12888 H 1230.77 -0.712036 -4.97935 0
M  V30 12889 H 1230.47 -2.42834 -5.35075 0
M  V30 12890 H 1231.99 -1.65827 -5.87651 0
M  V30 12891 H 1233.4 -3.49701 -4.54293 0
M  V30 12892 H 1231.8 -4.23331 -4.25336 0
M  V30 12893 H 1232.87 -3.9016 -2.87929 0
M  V30 12894 N 1234.21 1.05064 -1.1747 0
M  V30 12895 C 1235.46 1.77481 -0.958301 0
M  V30 12896 C 1235.78 1.88725 0.51401 0
M  V30 12897 O 1236.98 2.57895 0.848657 0
M  V30 12898 C 1235.44 3.19048 -1.66543 0
M  V30 12899 C 1235.05 3.1593 -3.17636 0
M  V30 12900 C 1236.79 3.95912 -1.53146 0
M  V30 12901 C 1234.7 4.52293 -3.81032 0
M  V30 12902 H 1233.63 0.665247 -0.354913 0
M  V30 12903 H 1236.28 1.17751 -1.40737 0
M  V30 12904 H 1234.66 3.79113 -1.1441 0
M  V30 12905 H 1235.83 2.65375 -3.76713 0
M  V30 12906 H 1234.15 2.52564 -3.31059 0
M  V30 12907 H 1236.75 4.96737 -1.9788 0
M  V30 12908 H 1237.09 4.13498 -0.482203 0
M  V30 12909 H 1237.62 3.42399 -2.02504 0
M  V30 12910 H 1234.36 4.39913 -4.8596 0
M  V30 12911 H 1233.88 5.02991 -3.26741 0
M  V30 12912 H 1235.56 5.2123 -3.83312 0
M  V30 12913 N 1235.69 0.975146 1.23809 0
M  V30 12914 C 1236.92 0.658978 1.96125 0
M  V30 12915 C 1237.33 -0.773044 1.72248 0
M  V30 12916 O 1236.69 -1.51956 1.01072 0
M  V30 12917 C 1236.74 0.933355 3.49243 0
M  V30 12918 O 1236.46 2.30909 3.72307 0
M  V30 12919 C 1237.96 0.632408 4.38766 0
M  V30 12920 H 1235.18 0.245237 0.62458 0
M  V30 12921 H 1237.73 1.3051 1.5744 0
M  V30 12922 H 1235.88 0.333323 3.85963 0
M  V30 12923 H 1236.3 2.39476 4.66638 0
M  V30 12924 H 1237.77 0.874791 5.45024 0
M  V30 12925 H 1238.25 -0.433453 4.37056 0
M  V30 12926 H 1238.85 1.21268 4.07645 0
M  V30 12927 N 1237.17 -1.38817 0.746158 0
M  V30 12928 C 1238.42 -1.99885 0.298425 0
M  V30 12929 C 1238.74 -1.59518 -1.12156 0
M  V30 12930 O 1238.01 -0.848568 -1.76568 0
M  V30 12931 H 1236.59 -0.739247 0.107347 0
M  V30 12932 H 1239.25 -1.69696 0.9586 0
M  V30 12933 H 1238.35 -3.10067 0.355656 0
M  V30 12934 N 1238.65 -0.49465 -1.49636 0
M  V30 12935 C 1239.9 0.0520143 -2.02033 0
M  V30 12936 C 1240.22 1.38071 -1.37701 0
M  V30 12937 O 1239.49 1.88589 -0.530181 0
M  V30 12938 H 1238.07 0.0222123 -0.74667 0
M  V30 12939 H 1240.73 -0.650445 -1.83726 0
M  V30 12940 H 1239.82 0.186337 -3.11543 0
M  V30 12941 N 1240.13 1.55939 -0.228214 0
M  V30 12942 C 1241.54 1.59094 0.12704 0
M  V30 12943 C 1241.74 1.24514 1.58425 0
M  V30 12944 O 1240.8 0.983544 2.32557 0
M  V30 12945 C 1242.11 2.99999 -0.205268 0
M  V30 12946 C 1243.66 3.1265 -0.148046 0
M  V30 12947 C 1244.13 4.55743 -0.454122 0
M  V30 12948 N 1245.62 4.61435 -0.403937 0
M  V30 12949 C 1246.36 5.70101 -0.614173 0
M  V30 12950 N 1245.86 6.87104 -0.88654 0
M  V30 12951 N 1247.65 5.5944 -0.546153 0
M  V30 12952 H 1239.8 1.7669 -1.17874 0
M  V30 12953 H 1242.06 0.821599 -0.472947 0
M  V30 12954 H 1241.77 3.29976 -1.21692 0
M  V30 12955 H 1241.64 3.74177 0.476573 0
M  V30 12956 H 1244.03 2.82465 0.854255 0
M  V30 12957 H 1244.11 2.40786 -0.863462 0
M  V30 12958 H 1243.75 4.86646 -1.45389 0
M  V30 12959 H 1243.68 5.25841 0.282561 0
M  V30 12960 H 1246.18 3.77363 -0.201388 0
M  V30 12961 H 1246.49 7.65839 -1.03488 0
M  V30 12962 H 1244.83 6.88833 -0.923808 0
M  V30 12963 H 1248.02 4.6691 -0.33355 0
M  V30 12964 H 1248.2 6.44061 -0.713402 0
M  V30 12965 N 1241.6 -0.0451101 1.57535 0
M  V30 12966 C 1242.55 -1.05817 2.01958 0
M  V30 12967 C 1243.54 -1.32963 0.906077 0
M  V30 12968 O 1244.73 -1.32816 1.16999 0
M  V30 12969 C 1241.86 -2.36414 2.48924 0
M  V30 12970 C 1240.95 -2.12428 3.67063 0
M  V30 12971 N 1241.34 -1.58448 4.80341 0
M  V30 12972 C 1239.63 -2.42785 3.74128 0
M  V30 12973 C 1240.34 -1.49896 5.62055 0
M  V30 12974 N 1239.31 -1.96892 5.0669 0
M  V30 12975 H 1243.11 -0.634569 2.86968 0
M  V30 12976 H 1240.63 -0.251719 1.60437 0
M  V30 12977 H 1242.62 -3.09781 2.79001 0
M  V30 12978 H 1241.28 -2.79467 1.65313 0
M  V30 12979 H 1242.3 -1.26939 5.02102 0
M  V30 12980 H 1238.97 -2.89022 3.01285 0
M  V30 12981 H 1240.36 -1.08788 6.63035 0
M  V30 12982 N 1243.08 -1.54377 -0.317073 0
M  V30 12983 C 1244.49 -1.64062 -0.891105 0
M  V30 12984 C 1244.84 -0.538863 -1.88655 0
M  V30 12985 O 1243.97 0.32718 -2.13912 0
M  V30 12986 C 1244.56 -2.97395 -1.62302 0
M  V30 12987 C 1243.12 -3.09253 -2.14568 0
M  V30 12988 C 1242.27 -2.59664 -0.973146 0
M  V30 12989 H 1245.22 -1.58418 -0.0944829 0
M  V30 12990 H 1245.24 -2.87918 -2.48764 0
M  V30 12991 H 1244.75 -3.77562 -0.898268 0
M  V30 12992 H 1242.86 -2.33774 -2.90139 0
M  V30 12993 H 1242.97 -4.15159 -2.39123 0
M  V30 12994 H 1241.33 -2.15719 -1.35416 0
M  V30 12995 H 1242.12 -3.42294 -0.262611 0
M  V30 12996 N 1244.56 0.579466 -1.4656 0
M  V30 12997 C 1245.81 1.33756 -1.52038 0
M  V30 12998 C 1246.14 1.93725 -0.173423 0
M  V30 12999 O 1245.39 1.77167 0.831293 0
M  V30 13000 C 1245.69 2.48417 -2.56951 0
M  V30 13001 C 1245.36 2.0642 -4.00876 0
M  V30 13002 C 1244.02 1.94682 -4.4006 0
M  V30 13003 C 1246.37 1.74066 -4.91274 0
M  V30 13004 C 1243.7 1.48852 -5.67503 0
M  V30 13005 C 1246.05 1.29714 -6.19158 0
M  V30 13006 C 1244.71 1.16555 -6.57245 0
M  V30 13007 H 1243.98 0.489447 -0.556347 0
M  V30 13008 H 1246.63 0.652176 -1.80053 0
M  V30 13009 H 1244.94 3.22416 -2.2261 0
M  V30 13010 H 1246.63 3.06629 -2.58418 0
M  V30 13011 H 1243.22 2.16492 -3.69904 0
M  V30 13012 H 1247.41 1.82019 -4.61717 0
M  V30 13013 H 1242.66 1.3731 -5.95782 0
M  V30 13014 H 1246.84 1.03734 -6.88631 0
M  V30 13015 H 1244.46 0.808193 -7.55892 0
M  V30 13016 N 1246.04 1.3432 0.824371 0
M  V30 13017 C 1246.97 1.2842 1.95014 0
M  V30 13018 C 1247.95 0.161925 1.69328 0
M  V30 13019 O 1249.13 0.354052 1.90945 0
M  V30 13020 C 1246.26 1.03741 3.31444 0
M  V30 13021 C 1245.22 2.12419 3.71567 0
M  V30 13022 C 1244.54 1.72931 5.05963 0
M  V30 13023 C 1245.84 3.54235 3.83817 0
M  V30 13024 H 1247.54 2.22614 2.00209 0
M  V30 13025 H 1245.08 1.07165 0.961856 0
M  V30 13026 H 1247.04 0.982586 4.09784 0
M  V30 13027 H 1245.76 0.0598892 3.26545 0
M  V30 13028 H 1244.42 2.16968 2.955 0
M  V30 13029 H 1244.07 0.738433 4.9755 0
M  V30 13030 H 1243.77 2.45668 5.3378 0
M  V30 13031 H 1245.29 1.68941 5.86763 0
M  V30 13032 H 1246.71 3.52106 4.52432 0
M  V30 13033 H 1245.1 4.25581 4.23085 0
M  V30 13034 H 1246.17 3.91682 2.85856 0
M  V30 13035 N 1247.52 -1.0444 1.18026 0
M  V30 13036 C 1248.48 -2.10532 0.906028 0
M  V30 13037 C 1249.48 -1.60443 -0.107022 0
M  V30 13038 O 1250.67 -1.73744 0.126001 0
M  V30 13039 C 1247.8 -3.39008 0.358625 0
M  V30 13040 H 1248.99 -2.36293 1.84677 0
M  V30 13041 H 1246.55 -1.20805 0.991763 0
M  V30 13042 H 1247.28 -3.18908 -0.588904 0
M  V30 13043 H 1247.07 -3.76678 1.08884 0
M  V30 13044 H 1248.56 -4.17189 0.185331 0
M  V30 13045 N 1248.99 -0.981699 -1.2329 0
M  V30 13046 C 1250.41 -0.690539 -1.43888 0
M  V30 13047 C 1250.61 0.742816 -1.87309 0
M  V30 13048 O 1249.67 1.5151 -2.01993 0
M  V30 13049 C 1250.98 -1.68657 -2.48948 0
M  V30 13050 C 1252.53 -1.70076 -2.62761 0
M  V30 13051 C 1253 -2.68513 -3.71032 0
M  V30 13052 N 1254.49 -2.67039 -3.78476 0
M  V30 13053 C 1255.23 -3.39874 -4.61815 0
M  V30 13054 N 1254.72 -4.22273 -5.49233 0
M  V30 13055 N 1256.52 -3.28633 -4.56023 0
M  V30 13056 H 1248.67 -1.90758 -0.934077 0
M  V30 13057 H 1250.93 -0.822058 -0.472149 0
M  V30 13058 H 1250.64 -2.7117 -2.23964 0
M  V30 13059 H 1250.51 -1.47045 -3.47358 0
M  V30 13060 H 1252.9 -0.682673 -2.87095 0
M  V30 13061 H 1252.98 -1.95754 -1.64663 0
M  V30 13062 H 1252.62 -3.70464 -3.47446 0
M  V30 13063 H 1252.55 -2.40109 -4.68674 0
M  V30 13064 H 1255.04 -2.07241 -3.16006 0
M  V30 13065 H 1255.36 -4.74702 -6.09818 0
M  V30 13066 H 1253.7 -4.26364 -5.48852 0
M  V30 13067 H 1256.89 -2.6371 -3.86749 0
M  V30 13068 H 1257.07 -3.85656 -5.20743 0
M  V30 13069 N 1250.47 1.3842 -0.753509 0
M  V30 13070 C 1251.7 2.04107 -0.319985 0
M  V30 13071 C 1252.11 1.56951 1.05655 0
M  V30 13072 O 1251.45 0.737807 1.68232 0
M  V30 13073 C 1251.52 3.58529 -0.26402 0
M  V30 13074 C 1251.18 4.28741 -1.58209 0
M  V30 13075 C 1252.18 4.54118 -2.53126 0
M  V30 13076 C 1249.86 4.66931 -1.8515 0
M  V30 13077 C 1251.86 5.16719 -3.73203 0
M  V30 13078 C 1249.54 5.29256 -3.05502 0
M  V30 13079 C 1250.54 5.54085 -3.99348 0
M  V30 13080 O 1250.23 6.15112 -5.17584 0
M  V30 13081 H 1249.96 0.662457 -0.134636 0
M  V30 13082 H 1252.51 1.78096 -1.02328 0
M  V30 13083 H 1250.74 3.83512 0.495516 0
M  V30 13084 H 1252.43 4.05659 0.139979 0
M  V30 13085 H 1253.2 4.25043 -2.33588 0
M  V30 13086 H 1249.08 4.46952 -1.12939 0
M  V30 13087 H 1252.62 5.36014 -4.46469 0
M  V30 13088 H 1248.52 5.57754 -3.24932 0
M  V30 13089 H 1249.29 6.33599 -5.18164 0
M  V30 13090 N 1251.95 0.502579 1.49372 0
M  V30 13091 C 1252.9 -0.275004 2.29156 0
M  V30 13092 C 1253.87 -0.95892 1.35624 0
M  V30 13093 O 1255.05 -0.965276 1.64581 0
M  V30 13094 C 1252.19 -1.33255 3.18335 0
M  V30 13095 C 1251.31 -0.660248 4.26925 0
M  V30 13096 C 1250.44 -1.69837 5.03318 0
M  V30 13097 C 1249.48 -1.00802 6.03743 0
M  V30 13098 N 1248.62 -1.99042 6.73295 0
M  V30 13099 H 1253.46 0.411599 2.95144 0
M  V30 13100 H 1250.99 0.214824 1.45523 0
M  V30 13101 H 1252.95 -1.95769 3.68416 0
M  V30 13102 H 1251.58 -1.98789 2.54328 0
M  V30 13103 H 1250.63 0.0782181 3.8032 0
M  V30 13104 H 1251.95 -0.11689 4.98663 0
M  V30 13105 H 1251.1 -2.39852 5.57275 0
M  V30 13106 H 1249.84 -2.27558 4.31357 0
M  V30 13107 H 1248.84 -0.293654 5.49015 0
M  V30 13108 H 1250.07 -0.437285 6.77691 0
M  V30 13109 H 1248.01 -2.55722 6.04104 0
M  V30 13110 H 1247.93 -1.49776 7.41015 0
M  V30 13111 H 1249.2 -2.6834 7.31856 0
M  V30 13112 N 1253.43 -1.55816 0.23648 0
M  V30 13113 C 1254.67 -1.98981 -0.391725 0
M  V30 13114 C 1255.01 -1.12428 -1.58346 0
M  V30 13115 O 1254.28 -0.185303 -1.93615 0
M  V30 13116 C 1254.57 -3.50831 -0.811759 0
M  V30 13117 C 1254.42 -4.48152 0.384648 0
M  V30 13118 C 1255.74 -4.07489 -1.66254 0
M  V30 13119 H 1252.86 -0.723404 -0.140911 0
M  V30 13120 H 1255.5 -1.87011 0.335706 0
M  V30 13121 H 1253.65 -3.61162 -1.43157 0
M  V30 13122 H 1255.32 -4.49814 1.02298 0
M  V30 13123 H 1253.56 -4.21406 1.02955 0
M  V30 13124 H 1254.23 -5.51979 0.0475809 0
M  V30 13125 H 1256.71 -4.00195 -1.13944 0
M  V30 13126 H 1255.59 -5.14026 -1.92531 0
M  V30 13127 H 1255.85 -3.55297 -2.6309 0
M  V30 13128 N 1254.91 0.036755 -1.57557 0
M  V30 13129 C 1256.15 0.727665 -1.88546 0
M  V30 13130 C 1256.48 1.76304 -0.833179 0
M  V30 13131 O 1255.75 1.9544 0.13414 0
M  V30 13132 H 1254.33 0.271744 -0.695819 0
M  V30 13133 H 1256.99 0.00452915 -1.94899 0
M  V30 13134 H 1256.08 1.22205 -2.8718 0
M  V30 13135 N 1256.39 1.54543 0.308881 0
M  V30 13136 C 1257.63 1.73449 1.04506 0
M  V30 13137 C 1257.96 0.516034 1.8753 0
M  V30 13138 O 1257.22 -0.502106 1.89149 0
M  V30 13139 C 1257.51 2.97124 1.98626 0
M  V30 13140 C 1257.18 4.31256 1.31641 0
M  V30 13141 C 1255.84 4.67719 1.13105 0
M  V30 13142 C 1258.19 5.14437 0.836888 0
M  V30 13143 C 1255.52 5.84949 0.452878 0
M  V30 13144 C 1257.87 6.32365 0.172473 0
M  V30 13145 C 1256.54 6.67495 -0.0249143 0
M  V30 13146 H 1255.81 0.634697 0.382415 0
M  V30 13147 H 1258.46 1.88795 0.320714 0
M  V30 13148 H 1256.76 2.76526 2.77562 0
M  V30 13149 H 1258.46 3.08946 2.55643 0
M  V30 13150 H 1255.05 4.02576 1.47074 0
M  V30 13151 H 1259.23 4.86772 0.967834 0
M  V30 13152 H 1254.49 6.10717 0.288886 0
M  V30 13153 H 1258.66 6.96092 -0.207027 0
M  V30 13154 H 1256.29 7.5819 -0.552425 0
M  V30 13155 N 1257.86 -0.571685 1.46866 0
M  V30 13156 C 1258.8 -1.69502 1.52788 0
M  V30 13157 C 1259.77 -1.58071 0.381109 0
M  V30 13158 O 1260.96 -1.79132 0.586844 0
M  V30 13159 C 1258.09 -3.07642 1.41682 0
M  V30 13160 C 1257.13 -3.37562 2.6068 0
M  V30 13161 S 1257.96 -3.28413 4.22971 0
M  V30 13162 C 1259.12 -4.69073 4.14393 0
M  V30 13163 H 1259.35 -1.64221 2.47828 0
M  V30 13164 H 1256.89 -0.751334 1.34886 0
M  V30 13165 H 1258.84 -3.8733 1.35962 0
M  V30 13166 H 1257.51 -3.10403 0.480517 0
M  V30 13167 H 1256.7 -4.38233 2.48933 0
M  V30 13168 H 1256.3 -2.65464 2.63448 0
M  V30 13169 H 1258.59 -5.59706 3.81754 0
M  V30 13170 H 1259.54 -4.85877 5.15101 0
M  V30 13171 H 1259.94 -4.4644 3.45473 0
M  V30 13172 N 1259.34 -1.34755 -0.817236 0
M  V30 13173 C 1260.29 -1.26801 -1.92848 0
M  V30 13174 C 1261.26 -0.142077 -1.65491 0
M  V30 13175 O 1262.44 -0.324006 -1.88029 0
M  V30 13176 C 1259.58 -1.03513 -3.2921 0
M  V30 13177 C 1258.7 -2.24932 -3.68822 0
M  V30 13178 C 1257.83 -1.94881 -4.94161 0
M  V30 13179 C 1256.87 -3.12411 -5.2637 0
M  V30 13180 N 1256.01 -2.82207 -6.42887 0
M  V30 13181 H 1260.85 -2.21832 -1.98983 0
M  V30 13182 H 1258.38 -1.10284 -0.973439 0
M  V30 13183 H 1260.34 -0.88047 -4.07803 0
M  V30 13184 H 1258.97 -0.121478 -3.22571 0
M  V30 13185 H 1258.02 -2.51299 -2.85575 0
M  V30 13186 H 1259.34 -3.12726 -3.88592 0
M  V30 13187 H 1258.49 -1.76184 -5.80555 0
M  V30 13188 H 1257.23 -1.04355 -4.76405 0
M  V30 13189 H 1256.23 -3.31698 -4.3847 0
M  V30 13190 H 1257.46 -4.03724 -5.46062 0
M  V30 13191 H 1255.41 -1.94263 -6.26576 0
M  V30 13192 H 1255.32 -3.63534 -6.62857 0
M  V30 13193 H 1256.59 -2.67026 -7.32337 0
M  V30 13194 N 1260.82 1.03812 -1.18578 0
M  V30 13195 C 1262.05 1.80702 -1.00769 0
M  V30 13196 C 1262.46 1.83509 0.443833 0
M  V30 13197 O 1261.82 1.2724 1.30829 0
M  V30 13198 C 1261.87 3.26185 -1.55838 0
M  V30 13199 O 1261.59 3.23612 -2.95308 0
M  V30 13200 C 1263.09 4.1971 -1.42682 0
M  V30 13201 H 1260.31 0.568972 -0.355685 0
M  V30 13202 H 1262.86 1.30817 -1.57185 0
M  V30 13203 H 1261.01 3.73293 -1.03592 0
M  V30 13204 H 1261.43 4.14769 -3.2104 0
M  V30 13205 H 1262.9 5.19716 -1.86008 0
M  V30 13206 H 1263.38 4.37588 -0.375924 0
M  V30 13207 H 1263.98 3.78469 -1.94013 0
M  V30 13208 N 1262.3 0.988223 1.22768 0
M  V30 13209 C 1263.55 0.660154 1.91014 0
M  V30 13210 C 1263.87 -0.809788 1.77391 0
M  V30 13211 O 1263.14 -1.57998 1.15817 0
M  V30 13212 H 1261.72 0.24118 0.706995 0
M  V30 13213 H 1264.38 1.25372 1.49224 0
M  V30 13214 H 1263.47 0.918603 2.98275 0
M  V30 13215 N 1263.78 -1.38018 0.760839 0
M  V30 13216 C 1265 -2.04231 0.331285 0
M  V30 13217 C 1265.42 -1.57385 -1.04285 0
M  V30 13218 O 1264.78 -0.750168 -1.66369 0
M  V30 13219 C 1264.83 -3.59772 0.353021 0
M  V30 13220 O 1264.55 -4.049 1.67294 0
M  V30 13221 C 1266.05 -4.4321 -0.0894942 0
M  V30 13222 H 1263.27 -0.656145 0.140408 0
M  V30 13223 H 1265.81 -1.76567 1.03172 0
M  V30 13224 H 1263.97 -3.86246 -0.298735 0
M  V30 13225 H 1264.38 -4.99369 1.60408 0
M  V30 13226 H 1265.86 -5.51995 -0.0231262 0
M  V30 13227 H 1266.33 -4.2419 -1.13839 0
M  V30 13228 H 1266.94 -4.21939 0.533661 0
M  V30 13229 N 1265.25 -0.510493 -1.49103 0
M  V30 13230 C 1266.5 0.030689 -2.02777 0
M  V30 13231 C 1266.83 1.35765 -1.38858 0
M  V30 13232 O 1266.11 1.87209 -0.527528 0
M  V30 13233 C 1266.39 0.173261 -3.59683 0
M  V30 13234 C 1266.24 -1.17749 -4.34114 0
M  V30 13235 C 1267.56 0.909395 -4.30602 0
M  V30 13236 H 1264.68 0.0096789 -0.736936 0
M  V30 13237 H 1267.32 -0.663746 -1.78029 0
M  V30 13238 H 1265.47 0.764721 -3.80899 0
M  V30 13239 H 1267.15 -1.80856 -4.24369 0
M  V30 13240 H 1265.39 -1.76438 -3.96298 0
M  V30 13241 H 1266.06 -1.03094 -5.42287 0
M  V30 13242 H 1268.54 0.407677 -4.14098 0
M  V30 13243 H 1267.41 0.978012 -5.40117 0
M  V30 13244 H 1267.67 1.9553 -3.96511 0
M  V30 13245 N 1266.73 1.55688 -0.24474 0
M  V30 13246 C 1267.98 1.99186 0.381167 0
M  V30 13247 C 1268.31 1.13266 1.57748 0
M  V30 13248 O 1267.59 0.195568 1.93514 0
M  V30 13249 C 1267.87 3.51257 0.793142 0
M  V30 13250 C 1267.72 4.47942 -0.408409 0
M  V30 13251 C 1269.04 4.08365 1.64091 0
M  V30 13252 H 1266.16 0.724141 0.137073 0
M  V30 13253 H 1268.8 1.8683 -0.345619 0
M  V30 13254 H 1266.95 3.61917 1.4124 0
M  V30 13255 H 1268.62 4.49265 -1.04682 0
M  V30 13256 H 1266.87 4.20854 -1.05189 0
M  V30 13257 H 1267.54 5.51946 -0.0768531 0
M  V30 13258 H 1270.01 4.00794 1.1182 0
M  V30 13259 H 1268.89 5.1504 1.89802 0
M  V30 13260 H 1269.15 3.56687 2.61202 0
M  V30 13261 N 1268.21 -0.0283989 1.57574 0
M  V30 13262 C 1269.17 -1.01346 2.05576 0
M  V30 13263 C 1270.17 -1.28999 0.960001 0
M  V30 13264 O 1271.36 -1.23991 1.2236 0
M  V30 13265 C 1268.49 -2.34611 2.47327 0
M  V30 13266 H 1269.69 -0.598809 2.93861 0
M  V30 13267 H 1267.24 -0.27524 1.53857 0
M  V30 13268 H 1267.98 -2.80823 1.622 0
M  V30 13269 H 1267.76 -2.1587 3.27326 0
M  V30 13270 H 1269.25 -3.05332 2.84889 0
M  V30 13271 N 1269.69 -1.54705 -0.300681 0
M  V30 13272 C 1270.62 -1.88679 -1.37559 0
M  V30 13273 C 1271.6 -0.74574 -1.52881 0
M  V30 13274 O 1272.78 -1.0015 -1.66384 0
M  V30 13275 C 1269.91 -2.13438 -2.73974 0
M  V30 13276 C 1268.87 -3.29284 -2.73415 0
M  V30 13277 C 1268.19 -3.39462 -4.13122 0
M  V30 13278 C 1269.49 -4.66382 -2.35128 0
M  V30 13279 H 1271.19 -2.78707 -1.09373 0
M  V30 13280 H 1268.73 -1.341 -0.524704 0
M  V30 13281 H 1270.69 -2.35791 -3.49257 0
M  V30 13282 H 1269.41 -1.20181 -3.03684 0
M  V30 13283 H 1268.07 -3.06855 -2.00588 0
M  V30 13284 H 1267.72 -2.43721 -4.4001 0
M  V30 13285 H 1267.42 -4.17334 -4.1365 0
M  V30 13286 H 1268.94 -3.64075 -4.90185 0
M  V30 13287 H 1270.36 -4.88463 -3.00128 0
M  V30 13288 H 1268.75 -5.4697 -2.46867 0
M  V30 13289 H 1269.82 -4.67078 -1.30256 0
M  V30 13290 N 1271.17 0.563888 -1.47167 0
M  V30 13291 C 1272.08 1.69903 -1.61772 0
M  V30 13292 C 1273.09 1.6664 -0.500705 0
M  V30 13293 O 1274.27 1.86209 -0.767354 0
M  V30 13294 C 1271.33 3.06411 -1.62213 0
M  V30 13295 C 1270.39 3.20793 -2.8529 0
M  V30 13296 C 1269.63 4.50789 -2.85701 0
M  V30 13297 O 1269.85 5.3584 -1.95529 0
M  V30 13298 O 1268.78 4.68819 -3.77481 0
M  V30 13299 H 1272.61 1.60525 -2.57809 0
M  V30 13300 H 1270.2 0.733125 -1.30175 0
M  V30 13301 H 1272.08 3.87659 -1.65221 0
M  V30 13302 H 1270.75 3.16186 -0.693415 0
M  V30 13303 H 1269.66 2.38967 -2.87829 0
M  V30 13304 H 1270.99 3.15918 -3.77434 0
M  V30 13305 N 1272.64 1.35187 0.810078 0
M  V30 13306 C 1273.89 1.28454 1.56931 0
M  V30 13307 C 1274.22 -0.141747 1.93682 0
M  V30 13308 O 1273.5 -1.09028 1.61069 0
M  V30 13309 C 1273.78 2.18771 2.86027 0
M  V30 13310 C 1273.63 3.69999 2.55774 0
M  V30 13311 C 1274.95 2.08265 3.87703 0
M  V30 13312 H 1272.07 0.467959 0.569371 0
M  V30 13313 H 1274.71 1.65556 0.932262 0
M  V30 13314 H 1272.86 1.8726 3.40391 0
M  V30 13315 H 1274.54 4.11936 2.07621 0
M  V30 13316 H 1272.78 3.90453 1.89021 0
M  V30 13317 H 1273.45 4.28577 3.47888 0
M  V30 13318 H 1275.93 2.35958 3.42729 0
M  V30 13319 H 1274.8 2.73663 4.75815 0
M  V30 13320 H 1275.06 1.06352 4.29117 0
M  V30 13321 N 1274.12 -1.03182 1.19127 0
M  V30 13322 C 1275.4 -1.73586 0.901507 0
M  V30 13323 C 1275.78 -2.02585 -0.593521 0
M  V30 13324 O 1275.13 -1.67813 -1.55084 0
M  V30 13325 C 1275.34 -3.01472 1.75829 0
M  V30 13326 C 1276.69 -3.75037 1.99078 0
M  V30 13327 O 1277.71 -3.11392 1.72956 0
M  V30 13328 O 1276.57 -4.8945 2.43108 0
M  V30 13329 H 1273.66 -0.755797 0.335708 0
M  V30 13330 H 1276.21 -1.09167 1.29925 0
M  V30 13331 H 1274.98 -2.76247 2.77134 0
M  V30 13332 H 1274.6 -3.73631 1.35963 0
M  V30 13333 N 1275.6 -0.99472 -1.22242 0
M  V30 13334 C 1276.55 -0.517696 -2.22045 0
M  V30 13335 C 1277.53 0.415108 -1.55453 0
M  V30 13336 O 1278.73 0.241632 -1.75343 0
M  V30 13337 C 1275.86 0.164524 -3.42906 0
M  V30 13338 C 1274.94 -0.788692 -4.16702 0
M  V30 13339 N 1275.33 -1.93729 -4.67229 0
M  V30 13340 C 1273.63 -0.604946 -4.41878 0
M  V30 13341 C 1274.33 -2.53573 -5.23522 0
M  V30 13342 N 1273.31 -1.81825 -5.12289 0
M  V30 13343 H 1277.11 -1.39368 -2.58754 0
M  V30 13344 H 1274.62 -0.857215 -1.37933 0
M  V30 13345 H 1276.62 0.523668 -4.13598 0
M  V30 13346 H 1275.28 1.03662 -3.07708 0
M  V30 13347 H 1276.29 -2.31802 -4.63129 0
M  V30 13348 H 1272.97 0.220932 -4.16915 0
M  V30 13349 H 1274.36 -3.50653 -5.73142 0
M  V30 13350 N 1277.08 1.37613 -0.768148 0
M  V30 13351 C 1278.33 1.99779 -0.330841 0
M  V30 13352 C 1278.65 1.60978 1.09162 0
M  V30 13353 O 1277.91 0.845778 1.7648 0
M  V30 13354 C 1278.21 3.54952 -0.417608 0
M  V30 13355 C 1277.87 4.13509 -1.7978 0
M  V30 13356 C 1276.54 4.29216 -2.17549 0
M  V30 13357 C 1278.89 4.45662 -2.7025 0
M  V30 13358 C 1276.22 4.74376 -3.45231 0
M  V30 13359 C 1278.57 4.92245 -3.97338 0
M  V30 13360 C 1277.23 5.06157 -4.35157 0
M  V30 13361 H 1276.5 0.731044 -0.121063 0
M  V30 13362 H 1279.15 1.64437 -0.98147 0
M  V30 13363 H 1277.45 3.90519 0.316567 0
M  V30 13364 H 1279.15 4.00954 -0.0606037 0
M  V30 13365 H 1275.74 4.01709 -1.49425 0
M  V30 13366 H 1279.92 4.33116 -2.42332 0
M  V30 13367 H 1275.18 4.83333 -3.74431 0
M  V30 13368 H 1279.35 5.16091 -4.67572 0
M  V30 13369 H 1276.98 5.4091 -5.34154 0
M  V30 13370 N 1278.56 0.518393 1.4883 0
M  V30 13371 C 1279.78 -0.0183131 2.07392 0
M  V30 13372 C 1280.21 -1.28468 1.37396 0
M  V30 13373 O 1279.56 -1.75975 0.436177 0
M  V30 13374 C 1279.61 -0.237211 3.59819 0
M  V30 13375 O 1278.72 -1.30835 3.91096 0
M  V30 13376 H 1278.06 0.0339621 0.663131 0
M  V30 13377 H 1280.59 0.722993 1.914 0
M  V30 13378 H 1280.6 -0.463424 4.0536 0
M  V30 13379 H 1279.27 0.687925 4.10171 0
M  V30 13380 H 1277.85 -1.06571 3.57347 0
M  V30 13381 N 1280.03 -1.55556 0.252993 0
M  V30 13382 C 1280.98 -2.23035 -0.660161 0
M  V30 13383 C 1281.98 -1.21994 -1.17532 0
M  V30 13384 O 1283.18 -1.39989 -1.13151 0
M  V30 13385 H 1279.56 -0.715516 -0.23139 0
M  V30 13386 H 1281.53 -2.98323 -0.0679506 0
M  V30 13387 C 1280.28 -2.94817 -1.84332 0
M  V30 13388 H 1279.6 -3.72342 -1.45607 0
M  V30 13389 H 1281.04 -3.45386 -2.45936 0
M  V30 13390 C 1279.5 -1.99033 -2.71822 0
M  V30 13391 O 1280.03 -1.5273 -3.71533 0
M  V30 13392 N 1278.24 -1.66004 -2.38518 0
M  V30 13393 H 1277.78 -2.03853 -1.57485 0
M  V30 13394 H 1277.74 -1.02183 -2.97331 0
M  V30 13395 N 1281.51 0.0200419 -1.57587 0
M  V30 13396 C 1282.76 0.710078 -1.89962 0
M  V30 13397 C 1283.09 1.74521 -0.851829 0
M  V30 13398 O 1282.37 1.94052 0.132005 0
M  V30 13399 C 1282.65 1.37145 -3.32961 0
M  V30 13400 C 1282.5 0.349221 -4.48442 0
M  V30 13401 C 1283.82 2.30304 -3.75031 0
M  V30 13402 H 1280.94 0.25667 -0.690862 0
M  V30 13403 H 1283.58 -0.0271362 -1.89981 0
M  V30 13404 H 1281.73 1.99981 -3.33076 0
M  V30 13405 H 1283.4 -0.277916 -4.60462 0
M  V30 13406 H 1281.65 -0.330594 -4.32538 0
M  V30 13407 H 1282.32 0.850636 -5.45406 0
M  V30 13408 H 1284.79 1.77503 -3.7634 0
M  V30 13409 H 1283.67 2.73555 -4.75877 0
M  V30 13410 H 1283.93 3.17364 -3.07786 0
M  V30 13411 N 1282.99 1.54862 0.292472 0
M  V30 13412 C 1284.24 1.74203 1.02458 0
M  V30 13413 C 1284.56 0.535398 1.87506 0
M  V30 13414 O 1283.83 -0.450164 1.90658 0
M  V30 13415 H 1282.41 0.642369 0.381276 0
M  V30 13416 H 1285.07 1.92232 0.321398 0
M  V30 13417 H 1284.17 2.63486 1.67277 0
M  V30 13418 N 1284.47 -0.556076 1.47464 0
M  V30 13419 C 1285.42 -1.68406 1.60444 0
M  V30 13420 C 1286.41 -1.627 0.471713 0
M  V30 13421 O 1287.62 -1.67871 0.649551 0
M  V30 13422 H 1283.99 -0.557255 0.504946 0
M  V30 13423 H 1285.96 -1.54595 2.55231 0
M  V30 13424 C 1284.71 -3.06756 1.63695 0
M  V30 13425 H 1284.03 -3.11829 2.50206 0
M  V30 13426 H 1285.47 -3.85368 1.76827 0
M  V30 13427 C 1283.93 -3.34857 0.370485 0
M  V30 13428 O 1284.46 -3.98216 -0.527942 0
M  V30 13429 N 1282.67 -2.89521 0.250163 0
M  V30 13430 H 1282.22 -2.3814 0.982204 0
M  V30 13431 H 1282.17 -3.08694 -0.596268 0
M  V30 13432 N 1285.95 -1.35615 -0.802897 0
M  V30 13433 C 1287.18 -1.32217 -1.59142 0
M  V30 13434 C 1287.59 0.0995496 -1.88537 0
M  V30 13435 O 1286.95 1.05258 -1.49087 0
M  V30 13436 C 1287 -2.13048 -2.92049 0
M  V30 13437 O 1286.72 -3.49677 -2.63927 0
M  V30 13438 C 1288.22 -2.17278 -3.864 0
M  V30 13439 H 1285.44 -0.454054 -0.49404 0
M  V30 13440 H 1287.98 -1.78521 -0.997516 0
M  V30 13441 H 1286.14 -1.70334 -3.47944 0
M  V30 13442 H 1286.55 -3.917 -3.48814 0
M  V30 13443 H 1288.03 -2.7822 -4.76758 0
M  V30 13444 H 1288.5 -1.17253 -4.23259 0
M  V30 13445 H 1289.11 -2.6017 -3.3644 0
M  V30 13446 N 1287.43 1.02549 -1.19673 0
M  V30 13447 C 1288.36 2.10991 -0.8953 0
M  V30 13448 C 1289.37 1.62405 0.113373 0
M  V30 13449 O 1290.56 1.7812 -0.116485 0
M  V30 13450 C 1287.66 3.37394 -0.319124 0
M  V30 13451 C 1286.83 4.15154 -1.37718 0
M  V30 13452 C 1285.89 5.19867 -0.81393 0
M  V30 13453 O 1284.92 5.49285 -1.49246 0
M  V30 13454 N 1286.12 5.79248 0.381089 0
M  V30 13455 H 1288.88 2.37438 -1.82875 0
M  V30 13456 H 1286.45 1.18867 -1.09919 0
M  V30 13457 H 1288.44 4.04637 0.0716106 0
M  V30 13458 H 1287.01 3.08267 0.518681 0
M  V30 13459 H 1286.23 3.4301 -1.94262 0
M  V30 13460 H 1287.52 4.63892 -2.09003 0
M  V30 13461 H 1286.91 5.5767 0.949791 0
M  V30 13462 H 1285.47 6.47882 0.713563 0
M  V30 13463 N 1288.9 1.00119 1.21713 0
M  V30 13464 C 1290.18 0.597366 1.86255 0
M  V30 13465 C 1290.56 -0.925124 1.89749 0
M  V30 13466 O 1289.91 -1.8105 1.39402 0
M  V30 13467 C 1290.12 1.22735 3.26707 0
M  V30 13468 C 1291.47 1.33307 4.03131 0
M  V30 13469 O 1292.49 1.18237 3.36003 0
M  V30 13470 O 1291.35 1.57509 5.2331 0
M  V30 13471 H 1288.44 0.204091 0.801421 0
M  V30 13472 H 1290.99 1.09759 1.29426 0
M  V30 13473 H 1289.76 2.26837 3.18843 0
M  V30 13474 H 1289.38 0.713232 3.91151 0
M  V30 13475 N 1290.38 -1.37203 0.775435 0
M  V30 13476 C 1291.31 -2.32819 0.17826 0
M  V30 13477 C 1292.29 -1.55963 -0.678944 0
M  V30 13478 O 1293.48 -1.84183 -0.615648 0
M  V30 13479 C 1290.61 -3.40198 -0.698768 0
M  V30 13480 C 1289.56 -4.27961 0.057423 0
M  V30 13481 C 1288.89 -5.26385 -0.93929 0
M  V30 13482 C 1290.19 -5.07402 1.23856 0
M  V30 13483 H 1291.88 -2.8301 0.977028 0
M  V30 13484 H 1289.43 -1.3607 0.471274 0
M  V30 13485 H 1291.38 -4.06067 -1.12637 0
M  V30 13486 H 1290.1 -2.88541 -1.53009 0
M  V30 13487 H 1288.76 -3.63628 0.465848 0
M  V30 13488 H 1288.41 -4.71007 -1.76527 0
M  V30 13489 H 1288.11 -5.85966 -0.437844 0
M  V30 13490 H 1289.64 -5.9513 -1.36576 0
M  V30 13491 H 1291.05 -5.6639 0.887423 0
M  V30 13492 H 1289.45 -5.76327 1.67234 0
M  V30 13493 H 1290.52 -4.3986 2.04085 0
M  V30 13494 N 1291.86 -0.526279 -1.48553 0
M  V30 13495 C 1293.08 0.00731432 -2.07399 0
M  V30 13496 C 1293.51 1.27737 -1.38075 0
M  V30 13497 O 1292.87 1.75741 -0.445503 0
M  V30 13498 C 1292.92 0.218126 -3.5994 0
M  V30 13499 O 1292.02 1.28759 -3.91784 0
M  V30 13500 H 1291.36 -0.0374784 -0.662941 0
M  V30 13501 H 1293.89 -0.733133 -1.91014 0
M  V30 13502 H 1293.9 0.44192 -4.056 0
M  V30 13503 H 1292.58 -0.709668 -4.09801 0
M  V30 13504 H 1291.15 1.04674 -3.57907 0
M  V30 13505 N 1293.34 1.5542 -0.261239 0
M  V30 13506 C 1294.27 2.19334 0.665214 0
M  V30 13507 C 1295.28 1.17388 1.128 0
M  V30 13508 O 1296.47 1.44183 1.0523 0
M  V30 13509 C 1293.57 2.79425 1.91768 0
M  V30 13510 C 1292.74 4.06929 1.60399 0
M  V30 13511 C 1291.8 4.51199 2.70751 0
M  V30 13512 O 1290.83 5.17272 2.37526 0
M  V30 13513 N 1292.03 4.20179 4.00537 0
M  V30 13514 H 1294.8 2.99467 0.118262 0
M  V30 13515 H 1292.36 1.61693 -0.0817727 0
M  V30 13516 H 1294.35 3.05992 2.64861 0
M  V30 13517 H 1292.92 2.03366 2.37405 0
M  V30 13518 H 1292.14 3.87798 0.707559 0
M  V30 13519 H 1293.43 4.9003 1.36924 0
M  V30 13520 H 1292.83 3.67164 4.30357 0
M  V30 13521 H 1291.38 4.51549 4.7005 0
M  V30 13522 N 1294.82 -0.0116844 1.57596 0
M  V30 13523 C 1296.04 -0.713924 1.94725 0
M  V30 13524 C 1296.47 -1.67157 0.862565 0
M  V30 13525 O 1295.82 -1.80401 -0.180308 0
M  V30 13526 C 1295.87 -1.43214 3.30941 0
M  V30 13527 O 1294.98 -2.5461 3.24419 0
M  V30 13528 H 1294.32 -0.190772 0.636005 0
M  V30 13529 H 1296.85 0.0380247 2.04565 0
M  V30 13530 H 1296.86 -1.79819 3.66237 0
M  V30 13531 H 1295.53 -0.729906 4.09445 0
M  V30 13532 H 1294.11 -2.20419 3.00782 0
M  V30 13533 N 1296.29 -1.55015 -0.284256 0
M  V30 13534 C 1297.54 -1.74297 -1.01506 0
M  V30 13535 C 1297.86 -0.545134 -1.8785 0
M  V30 13536 O 1299.06 -0.620118 -2.64323 0
M  V30 13537 C 1297.52 -3.08438 -1.85456 0
M  V30 13538 C 1297.13 -4.35753 -1.04034 0
M  V30 13539 C 1298.87 -3.37073 -2.58035 0
M  V30 13540 C 1296.78 -5.60938 -1.87358 0
M  V30 13541 H 1295.71 -0.649656 -0.382705 0
M  V30 13542 H 1298.36 -1.81484 -0.271239 0
M  V30 13543 H 1296.74 -2.95259 -2.63891 0
M  V30 13544 H 1297.91 -4.59816 -0.300954 0
M  V30 13545 H 1296.23 -4.14178 -0.429616 0
M  V30 13546 H 1298.83 -4.27806 -3.20759 0
M  V30 13547 H 1299.17 -2.56698 -3.27738 0
M  V30 13548 H 1299.7 -3.51299 -1.86638 0
M  V30 13549 H 1296.44 -6.44029 -1.22096 0
M  V30 13550 H 1295.96 -5.41035 -2.58923 0
M  V30 13551 H 1297.64 -5.98819 -2.44999 0
M  V30 13552 N 1297.77 0.548248 -1.47757 0
M  V30 13553 C 1298.7 1.6705 -1.55466 0
M  V30 13554 C 1299.68 1.57444 -0.406208 0
M  V30 13555 O 1300.87 1.78176 -0.615268 0
M  V30 13556 C 1297.99 3.0535 -1.46558 0
M  V30 13557 C 1297.04 3.33372 -2.66017 0
M  V30 13558 S 1297.87 3.21643 -4.28143 0
M  V30 13559 C 1299.03 4.62421 -4.21803 0
M  V30 13560 H 1299.26 1.60258 -2.50409 0
M  V30 13561 H 1296.79 0.72978 -1.36065 0
M  V30 13562 H 1298.75 3.85118 -1.42106 0
M  V30 13563 H 1297.41 3.09599 -0.529838 0
M  V30 13564 H 1296.61 4.34218 -2.55873 0
M  V30 13565 H 1296.21 2.6124 -2.67638 0
M  V30 13566 H 1298.5 5.53561 -3.9061 0
M  V30 13567 H 1299.44 4.77621 -5.22766 0
M  V30 13568 H 1299.85 4.40887 -3.52532 0
M  V30 13569 N 1299.25 1.36039 0.795694 0
M  V30 13570 C 1300.16 1.31991 1.93948 0
M  V30 13571 C 1301.18 0.223064 1.72564 0
M  V30 13572 O 1302.35 0.454344 1.96208 0
M  V30 13573 C 1299.42 1.10228 3.28711 0
M  V30 13574 C 1298.48 2.29328 3.62914 0
M  V30 13575 C 1297.71 2.08595 4.91247 0
M  V30 13576 O 1297.93 1.05793 5.60503 0
M  V30 13577 O 1296.87 2.96222 5.23962 0
M  V30 13578 H 1300.69 2.28274 2.00311 0
M  V30 13579 H 1298.28 1.16521 0.935048 0
M  V30 13580 H 1300.16 0.999842 4.09367 0
M  V30 13581 H 1298.84 0.17003 3.23253 0
M  V30 13582 H 1297.74 2.4514 2.8259 0
M  V30 13583 H 1299.08 3.21038 3.73089 0
M  V30 13584 N 1300.73 -1.01913 1.20215 0
M  V30 13585 C 1302.14 -1.27766 0.956459 0
M  V30 13586 C 1302.34 -1.98158 -0.365486 0
M  V30 13587 O 1301.4 -2.27539 -1.09463 0
M  V30 13588 C 1302.71 -2.11516 2.13732 0
M  V30 13589 C 1304.26 -2.24792 2.17802 0
M  V30 13590 C 1304.74 -3.11919 3.35367 0
M  V30 13591 N 1306.23 -3.19507 3.35364 0
M  V30 13592 C 1306.96 -3.8714 4.22978 0
M  V30 13593 N 1306.46 -4.5692 5.20765 0
M  V30 13594 N 1308.25 -3.83638 4.10827 0
M  V30 13595 H 1300.4 -0.546426 2.05251 0
M  V30 13596 H 1302.67 -0.303772 0.898012 0
M  V30 13597 H 1302.37 -1.67127 3.09453 0
M  V30 13598 H 1302.25 -3.12249 2.11614 0
M  V30 13599 H 1304.63 -2.68407 1.22645 0
M  V30 13600 H 1304.71 -1.23576 2.2397 0
M  V30 13601 H 1304.36 -2.6901 4.30809 0
M  V30 13602 H 1304.29 -4.13215 3.26436 0
M  V30 13603 H 1306.78 -2.69819 2.64587 0
M  V30 13604 H 1307.09 -5.06188 5.83947 0
M  V30 13605 H 1305.44 -4.55753 5.24704 0
M  V30 13606 H 1308.63 -3.28268 3.33703 0
M  V30 13607 H 1308.8 -4.36071 4.79318 0
M  V30 13608 N 1302.21 -1.00763 -1.2118 0
M  V30 13609 C 1303.17 -0.575183 -2.21865 0
M  V30 13610 C 1304.17 0.349871 -1.56948 0
M  V30 13611 O 1305.36 0.139795 -1.73638 0
M  V30 13612 C 1302.49 0.161308 -3.40518 0
M  V30 13613 H 1303.68 -1.46578 -2.61639 0
M  V30 13614 H 1301.24 -0.79643 -1.34487 0
M  V30 13615 H 1301.97 1.06723 -3.06236 0
M  V30 13616 H 1301.76 -0.503101 -3.88859 0
M  V30 13617 H 1303.25 0.451527 -4.15152 0
M  V30 13618 N 1303.68 1.3679 -0.7827 0
M  V30 13619 C 1304.61 2.32721 -0.190604 0
M  V30 13620 C 1305.6 1.56321 0.670663 0
M  V30 13621 O 1306.78 1.84507 0.605871 0
M  V30 13622 C 1303.91 3.40564 0.680717 0
M  V30 13623 C 1302.86 4.27925 -0.080118 0
M  V30 13624 C 1302.19 5.26876 0.911361 0
M  V30 13625 C 1303.49 5.06738 -1.26545 0
M  V30 13626 H 1305.18 2.82488 -0.992023 0
M  V30 13627 H 1302.73 1.35818 -0.478484 0
M  V30 13628 H 1304.68 4.06659 1.10482 0
M  V30 13629 H 1303.41 2.89348 1.51477 0
M  V30 13630 H 1302.07 3.63376 -0.485125 0
M  V30 13631 H 1301.71 4.71936 1.74026 0
M  V30 13632 H 1301.41 5.8619 0.406762 0
M  V30 13633 H 1302.94 5.95846 1.33418 0
M  V30 13634 H 1304.35 5.65911 -0.917448 0
M  V30 13635 H 1302.75 5.75432 -1.70289 0
M  V30 13636 H 1303.82 4.38772 -2.06415 0
M  V30 13637 N 1305.16 0.53415 1.48272 0
M  V30 13638 C 1306.41 0.00157259 2.025 0
M  V30 13639 C 1306.74 -1.33886 1.41085 0
M  V30 13640 O 1305.99 -1.87884 0.547544 0
M  V30 13641 C 1306.29 -0.165144 3.57018 0
M  V30 13642 C 1305.96 1.10146 4.3724 0
M  V30 13643 C 1304.62 1.44857 4.58879 0
M  V30 13644 C 1306.97 1.94183 4.83676 0
M  V30 13645 C 1304.3 2.63497 5.24201 0
M  V30 13646 C 1306.65 3.12005 5.50305 0
M  V30 13647 C 1305.32 3.47058 5.70182 0
M  V30 13648 H 1304.59 0.00057545 0.741 0
M  V30 13649 H 1307.23 0.701014 1.78208 0
M  V30 13650 H 1305.54 -0.947384 3.80173 0
M  V30 13651 H 1307.23 -0.592202 3.96603 0
M  V30 13652 H 1303.82 0.821132 4.20661 0
M  V30 13653 H 1308.01 1.68677 4.66757 0
M  V30 13654 H 1303.26 2.90852 5.37787 0
M  V30 13655 H 1307.44 3.77426 5.85254 0
M  V30 13656 H 1305.07 4.39086 6.2057 0
M  V30 13657 N 1306.64 -1.55279 0.269478 0
M  V30 13658 C 1307.59 -2.18984 -0.634838 0
M  V30 13659 C 1308.57 -1.15269 -1.12258 0
M  V30 13660 O 1309.77 -1.41103 -1.0686 0
M  V30 13661 C 1306.9 -2.91014 -1.82114 0
M  V30 13662 C 1305.98 -4.02011 -1.35084 0
M  V30 13663 N 1306.37 -5.02273 -0.596299 0
M  V30 13664 C 1304.67 -4.14979 -1.63427 0
M  V30 13665 C 1305.37 -5.80647 -0.349781 0
M  V30 13666 N 1304.35 -5.35749 -0.92057 0
M  V30 13667 H 1308.15 -2.93857 -0.0504516 0
M  V30 13668 H 1305.66 -1.62237 0.0727843 0
M  V30 13669 H 1307.66 -3.35098 -2.48022 0
M  V30 13670 H 1306.32 -2.1765 -2.40953 0
M  V30 13671 H 1307.33 -5.17324 -0.244188 0
M  V30 13672 H 1304.01 -3.52802 -2.23242 0
M  V30 13673 H 1305.4 -6.71419 0.254139 0
M  V30 13674 N 1308.12 0.00332656 -1.576 0
M  V30 13675 C 1309.05 1.02964 -2.03651 0
M  V30 13676 C 1310.03 1.33675 -0.925724 0
M  V30 13677 O 1311.21 1.45896 -1.19359 0
M  V30 13678 C 1308.34 2.35808 -2.4313 0
M  V30 13679 C 1307.39 2.20781 -3.64908 0
M  V30 13680 S 1308.22 1.53697 -5.12969 0
M  V30 13681 C 1309.38 2.87978 -5.55715 0
M  V30 13682 H 1309.61 0.637508 -2.90384 0
M  V30 13683 H 1307.14 0.214095 -1.52908 0
M  V30 13684 H 1309.1 3.12193 -2.66544 0
M  V30 13685 H 1307.76 2.72162 -1.56802 0
M  V30 13686 H 1306.95 3.1891 -3.90272 0
M  V30 13687 H 1306.56 1.5254 -3.41478 0
M  V30 13688 H 1308.85 3.84283 -5.57972 0
M  V30 13689 H 1309.79 2.67318 -6.55703 0
M  V30 13690 H 1310.2 2.91735 -4.83271 0
M  V30 13691 N 1309.6 1.55164 0.276031 0
M  V30 13692 C 1310.87 1.66338 1.02913 0
M  V30 13693 C 1311.25 0.527876 2.04393 0
M  V30 13694 O 1310.6 -0.472437 2.23563 0
M  V30 13695 C 1310.81 3.05427 1.68865 0
M  V30 13696 C 1312.16 3.63075 2.2014 0
M  V30 13697 O 1313.18 3.0804 1.78857 0
M  V30 13698 O 1312.04 4.59492 2.95854 0
M  V30 13699 H 1309.14 0.675446 0.477181 0
M  V30 13700 H 1311.68 1.67504 0.272129 0
M  V30 13701 H 1310.45 3.79514 0.953125 0
M  V30 13702 H 1310.08 3.08147 2.5126 0
M  V30 13703 N 1311.07 -0.540404 1.48045 0
M  V30 13704 C 1312.02 -1.66695 1.62221 0
M  V30 13705 C 1313.02 -1.6219 0.488943 0
M  V30 13706 O 1314.22 -1.67173 0.66732 0
M  V30 13707 H 1310.6 -0.551868 0.510828 0
M  V30 13708 H 1312.57 -1.51879 2.56856 0
M  V30 13709 C 1311.32 -3.05002 1.6694 0
M  V30 13710 H 1310.64 -3.09157 2.53499 0
M  V30 13711 H 1312.08 -3.8347 1.80904 0
M  V30 13712 C 1310.54 -3.34445 0.40598 0
M  V30 13713 O 1311.07 -3.98753 -0.485676 0
M  V30 13714 N 1309.28 -2.8924 0.280857 0
M  V30 13715 H 1308.82 -2.37085 1.00741 0
M  V30 13716 H 1308.78 -3.09309 -0.563493 0
M  V30 13717 N 1312.55 -1.36459 -0.788468 0
M  V30 13718 C 1313.79 -1.32124 -1.55957 0
M  V30 13719 C 1314.16 0.0981565 -1.91749 0
M  V30 13720 O 1315.36 0.266067 -2.6748 0
M  V30 13721 C 1313.63 -2.219 -2.8017 0
M  V30 13722 S 1315.19 -2.35257 -3.70405 0
M  V30 13723 H 1312.01 -0.469279 -0.534133 0
M  V30 13724 H 1314.61 -1.72039 -0.928587 0
M  V30 13725 H 1313.31 -3.23976 -2.51928 0
M  V30 13726 H 1312.84 -1.83008 -3.48241 0
M  V30 13727 H 1314.86 -1.55077 -4.71344 0
M  V30 13728 N 1314.03 1.01274 -1.20754 0
M  V30 13729 C 1315.26 1.78265 -1.04427 0
M  V30 13730 C 1315.67 1.84718 0.409361 0
M  V30 13731 O 1315.01 1.30195 1.29595 0
M  V30 13732 C 1315.07 3.24037 -1.55693 0
M  V30 13733 C 1314.74 3.41181 -3.04047 0
M  V30 13734 C 1315.73 3.30087 -4.0167 0
M  V30 13735 C 1313.42 3.66872 -3.43089 0
M  V30 13736 C 1315.41 3.44436 -5.36323 0
M  V30 13737 C 1313.1 3.80865 -4.77896 0
M  V30 13738 C 1314.1 3.69652 -5.74322 0
M  V30 13739 O 1313.79 3.83211 -7.06686 0
M  V30 13740 H 1313.52 0.567327 -0.367582 0
M  V30 13741 H 1316.07 1.28336 -1.60372 0
M  V30 13742 H 1314.3 3.75067 -0.941382 0
M  V30 13743 H 1315.99 3.82676 -1.35328 0
M  V30 13744 H 1316.76 3.10172 -3.72852 0
M  V30 13745 H 1312.64 3.74685 -2.68574 0
M  V30 13746 H 1316.18 3.35601 -6.1157 0
M  V30 13747 H 1312.08 4.00282 -5.06403 0
M  V30 13748 H 1312.85 4.00205 -7.13987 0
M  V30 13749 N 1315.51 1.01404 1.20644 0
M  V30 13750 C 1316.46 0.582109 2.23339 0
M  V30 13751 C 1317.43 -0.39649 1.61298 0
M  V30 13752 O 1318.61 -0.296504 1.88482 0
M  V30 13753 C 1315.75 -0.076029 3.45016 0
M  V30 13754 C 1314.86 0.946829 4.21496 0
M  V30 13755 C 1314 0.26001 5.30563 0
M  V30 13756 C 1313.04 1.2698 5.98784 0
M  V30 13757 N 1312.18 0.609827 6.99447 0
M  V30 13758 H 1317.02 1.46248 2.59645 0
M  V30 13759 H 1314.55 0.732145 1.27585 0
M  V30 13760 H 1316.51 -0.474714 4.1449 0
M  V30 13761 H 1315.14 -0.920062 3.0941 0
M  V30 13762 H 1314.19 1.4637 3.51113 0
M  V30 13763 H 1315.5 1.71491 4.68393 0
M  V30 13764 H 1314.66 -0.19431 6.06389 0
M  V30 13765 H 1313.4 -0.540395 4.84697 0
M  V30 13766 H 1312.4 1.73453 5.21722 0
M  V30 13767 H 1313.63 2.07144 6.46737 0
M  V30 13768 H 1311.57 -0.170756 6.55778 0
M  V30 13769 H 1311.49 1.31601 7.44458 0
M  V30 13770 H 1312.76 0.179014 7.79294 0
M  V30 13771 N 1316.99 -1.36373 0.789944 0
M  V30 13772 C 1318.24 -1.98476 0.359165 0
M  V30 13773 C 1318.55 -1.634 -1.07517 0
M  V30 13774 O 1319.76 -2.18742 -1.60824 0
M  V30 13775 C 1318.21 -3.55011 0.591228 0
M  V30 13776 C 1317.82 -3.99011 2.03701 0
M  V30 13777 C 1319.56 -4.23903 0.224979 0
M  V30 13778 C 1317.47 -5.48325 2.2157 0
M  V30 13779 H 1316.4 -0.742612 0.130552 0
M  V30 13780 H 1319.05 -1.55664 0.971652 0
M  V30 13781 H 1317.43 -3.95895 -0.0909788 0
M  V30 13782 H 1318.61 -3.69324 2.75566 0
M  V30 13783 H 1316.92 -3.42957 2.36155 0
M  V30 13784 H 1319.52 -5.33638 0.336764 0
M  V30 13785 H 1319.86 -4.08004 -0.826964 0
M  V30 13786 H 1320.4 -3.88383 0.860443 0
M  V30 13787 H 1317.13 -5.69173 3.25149 0
M  V30 13788 H 1316.65 -5.79637 1.54211 0
M  V30 13789 H 1318.33 -6.14556 2.0231 0
M  V30 13790 N 1318.47 -0.542005 -1.47987 0
M  V30 13791 C 1319.88 -0.104646 -1.86406 0
M  V30 13792 C 1320.23 1.32139 -1.4503 0
M  V30 13793 O 1319.35 1.99159 -0.846439 0
M  V30 13794 C 1319.95 -0.183133 -3.38305 0
M  V30 13795 C 1318.51 0.199098 -3.75873 0
M  V30 13796 C 1317.65 -0.537532 -2.7204 0
M  V30 13797 H 1320.6 -0.75259 -1.3972 0
M  V30 13798 H 1320.63 0.602149 -3.75705 0
M  V30 13799 H 1320.14 -1.22113 -3.68389 0
M  V30 13800 H 1318.24 1.23878 -3.51404 0
M  V30 13801 H 1318.35 -0.14888 -4.78869 0
M  V30 13802 H 1316.72 0.0176255 -2.54694 0
M  V30 13803 H 1317.5 -1.57639 -3.04967 0
M  V30 13804 N 1319.94 1.55134 -0.277709 0
M  V30 13805 C 1320.89 2.24057 0.624594 0
M  V30 13806 C 1321.89 1.23848 1.15577 0
M  V30 13807 O 1323.09 1.41771 1.1091 0
M  V30 13808 H 1319.47 0.719106 0.219977 0
M  V30 13809 H 1321.44 2.98393 0.0204815 0
M  V30 13810 C 1320.19 2.97712 1.79618 0
M  V30 13811 H 1319.51 3.74611 1.39665 0
M  V30 13812 H 1320.95 3.49255 2.4041 0
M  V30 13813 C 1319.41 2.03332 2.68622 0
M  V30 13814 O 1319.94 1.58622 3.69056 0
M  V30 13815 N 1318.14 1.69778 2.35847 0
M  V30 13816 H 1317.69 2.06333 1.54222 0
M  V30 13817 H 1317.65 1.06901 2.95668 0
M  V30 13818 N 1321.42 0.00503138 1.57599 0
M  V30 13819 C 1322.67 -0.677979 1.89964 0
M  V30 13820 C 1322.98 -1.74657 0.88059 0
M  V30 13821 O 1324.19 -2.48455 1.09463 0
M  V30 13822 C 1322.65 -1.25708 3.37232 0
M  V30 13823 C 1322.25 -0.223045 4.47444 0
M  V30 13824 C 1324 -1.91799 3.787 0
M  V30 13825 C 1321.9 -0.812416 5.85793 0
M  V30 13826 H 1320.83 -0.256991 0.708852 0
M  V30 13827 H 1323.49 0.0663988 1.8338 0
M  V30 13828 H 1321.87 -2.05228 3.3867 0
M  V30 13829 H 1323.04 0.54794 4.57531 0
M  V30 13830 H 1321.36 0.337714 4.15028 0
M  V30 13831 H 1323.95 -2.36808 4.79402 0
M  V30 13832 H 1324.3 -2.75067 3.1248 0
M  V30 13833 H 1324.83 -1.19004 3.79583 0
M  V30 13834 H 1321.57 -0.0184031 6.55497 0
M  V30 13835 H 1321.09 -1.55244 5.79361 0
M  V30 13836 H 1322.77 -1.30952 6.33609 0
M  V30 13837 N 1322.9 -1.55308 -0.267798 0
M  V30 13838 C 1324.32 -1.47264 -0.61526 0
M  V30 13839 C 1324.52 -0.691025 -1.8928 0
M  V30 13840 O 1323.57 -0.211964 -2.51609 0
M  V30 13841 C 1324.88 -2.91519 -0.73739 0
M  V30 13842 C 1326.43 -3.01764 -0.831102 0
M  V30 13843 C 1326.91 -4.47283 -0.984965 0
M  V30 13844 N 1328.4 -4.51134 -1.05036 0
M  V30 13845 C 1329.13 -5.60952 -1.1883 0
M  V30 13846 N 1328.63 -6.80625 -1.29311 0
M  V30 13847 N 1330.42 -5.48705 -1.21982 0
M  V30 13848 H 1322.57 -2.04577 0.57114 0
M  V30 13849 H 1324.84 -0.927908 0.194141 0
M  V30 13850 H 1324.54 -3.51456 0.130974 0
M  V30 13851 H 1324.42 -3.40829 -1.61603 0
M  V30 13852 H 1326.8 -2.4192 -1.68993 0
M  V30 13853 H 1326.88 -2.55698 0.0722509 0
M  V30 13854 H 1326.53 -5.07732 -0.130776 0
M  V30 13855 H 1326.46 -4.91011 -1.90305 0
M  V30 13856 H 1328.95 -3.6493 -0.981551 0
M  V30 13857 H 1329.26 -7.60071 -1.39685 0
M  V30 13858 H 1327.61 -6.83426 -1.26306 0
M  V30 13859 H 1330.8 -4.5415 -1.13428 0
M  V30 13860 H 1330.97 -6.34332 -1.32388 0
M  V30 13861 N 1324.38 0.532545 -1.4833 0
M  V30 13862 C 1325.63 1.28597 -1.55908 0
M  V30 13863 C 1325.95 1.93595 -0.233635 0
M  V30 13864 O 1325.22 1.81197 0.744605 0
M  V30 13865 H 1323.8 0.477619 -0.57436 0
M  V30 13866 H 1326.46 0.619922 -1.84778 0
M  V30 13867 H 1325.55 2.0666 -2.33877 0
M  V30 13868 N 1325.86 1.36875 0.78122 0
M  V30 13869 C 1327.08 1.34732 1.57019 0
M  V30 13870 C 1327.5 -0.0695423 1.88672 0
M  V30 13871 O 1326.86 -1.02873 1.50743 0
M  V30 13872 C 1326.91 2.17668 2.88623 0
M  V30 13873 O 1326.63 3.53832 2.5833 0
M  V30 13874 C 1328.13 2.23398 3.82895 0
M  V30 13875 H 1325.35 0.461857 0.486754 0
M  V30 13876 H 1327.89 1.80086 0.968989 0
M  V30 13877 H 1326.05 1.75848 3.4519 0
M  V30 13878 H 1326.46 3.972 3.42538 0
M  V30 13879 H 1327.94 2.85769 4.72271 0
M  V30 13880 H 1328.41 1.23972 4.2134 0
M  V30 13881 H 1329.02 2.65489 3.32258 0
M  V30 13882 N 1327.33 -1.00632 1.21289 0
M  V30 13883 C 1328.58 -1.74044 1.02728 0
M  V30 13884 C 1328.9 -1.89963 -0.440351 0
M  V30 13885 O 1328.17 -1.44958 -1.31772 0
M  V30 13886 H 1326.75 -0.644813 0.377127 0
M  V30 13887 H 1329.41 -1.21272 1.52575 0
M  V30 13888 H 1328.51 -2.74011 1.49413 0
M  V30 13889 N 1328.81 -1.02043 -1.20104 0
M  V30 13890 C 1330.23 -0.735967 -1.41618 0
M  V30 13891 C 1330.43 0.68285 -1.89577 0
M  V30 13892 O 1329.48 1.45007 -2.06711 0
M  V30 13893 C 1330.8 -1.76492 -2.43457 0
M  V30 13894 C 1332.34 -1.78349 -2.57217 0
M  V30 13895 C 1332.82 -2.80181 -3.62302 0
M  V30 13896 N 1334.31 -2.78945 -3.69789 0
M  V30 13897 C 1335.05 -3.54395 -4.50768 0
M  V30 13898 N 1334.54 -4.39533 -5.35521 0
M  V30 13899 N 1336.33 -3.42974 -4.45337 0
M  V30 13900 H 1328.49 -1.93634 -0.872916 0
M  V30 13901 H 1330.75 -0.836663 -0.445757 0
M  V30 13902 H 1330.45 -2.78158 -2.15223 0
M  V30 13903 H 1330.33 -1.58022 -3.42504 0
M  V30 13904 H 1332.72 -0.773665 -2.84778 0
M  V30 13905 H 1332.8 -2.00894 -1.58352 0
M  V30 13906 H 1332.44 -3.81331 -3.35484 0
M  V30 13907 H 1332.37 -2.54898 -4.60798 0
M  V30 13908 H 1334.86 -2.17189 -3.09253 0
M  V30 13909 H 1335.17 -4.93863 -5.94407 0
M  V30 13910 H 1333.52 -4.43609 -5.3501 0
M  V30 13911 H 1336.71 -2.75881 -3.78163 0
M  V30 13912 H 1336.88 -4.02028 -5.0821 0
M  V30 13913 N 1330.29 1.35952 -0.797165 0
M  V30 13914 C 1331.22 2.32506 -0.215277 0
M  V30 13915 C 1332.2 1.57023 0.654046 0
M  V30 13916 O 1333.39 1.85139 0.586268 0
M  V30 13917 C 1330.52 3.41266 0.644557 0
M  V30 13918 C 1329.47 4.27816 -0.125501 0
M  V30 13919 C 1328.8 5.27813 0.855428 0
M  V30 13920 C 1330.1 5.05367 -1.31913 0
M  V30 13921 H 1331.79 2.8142 -1.02193 0
M  V30 13922 H 1329.34 1.35303 -0.492862 0
M  V30 13923 H 1331.29 4.07808 1.06163 0
M  V30 13924 H 1330.01 2.90938 1.484 0
M  V30 13925 H 1328.67 3.62841 -0.523639 0
M  V30 13926 H 1328.32 4.73755 1.69011 0
M  V30 13927 H 1328.02 5.86589 0.344566 0
M  V30 13928 H 1329.54 5.97227 1.2709 0
M  V30 13929 H 1330.96 5.64907 -0.977418 0
M  V30 13930 H 1329.36 5.73593 -1.76382 0
M  V30 13931 H 1330.43 4.36558 -2.11057 0
M  V30 13932 N 1331.77 0.549846 1.47697 0
M  V30 13933 C 1333.01 0.0253105 2.04384 0
M  V30 13934 C 1333.37 -1.29692 1.41576 0
M  V30 13935 O 1334.57 -1.9087 1.89267 0
M  V30 13936 C 1332.84 -0.0736795 3.57324 0
M  V30 13937 S 1334.4 -0.545405 4.35397 0
M  V30 13938 H 1331.22 0.0215991 0.710672 0
M  V30 13939 H 1333.82 0.734912 1.81161 0
M  V30 13940 H 1332.53 0.893144 4.00563 0
M  V30 13941 H 1332.06 -0.80706 3.85033 0
M  V30 13942 H 1334.07 -1.80644 4.6215 0
M  V30 13943 N 1333.25 -1.54984 0.285932 0
M  V30 13944 C 1334.19 -2.2295 -0.596822 0
M  V30 13945 C 1335.16 -1.20674 -1.14136 0
M  V30 13946 O 1336.35 -1.49249 -1.18867 0
M  V30 13947 C 1333.49 -2.9625 -1.77002 0
M  V30 13948 C 1332.6 -4.13268 -1.25831 0
M  V30 13949 C 1331.74 -4.74187 -2.39417 0
M  V30 13950 C 1330.78 -5.83377 -1.85304 0
M  V30 13951 N 1329.91 -6.38313 -2.92405 0
M  V30 13952 H 1334.75 -2.97998 -0.0106104 0
M  V30 13953 H 1332.29 -1.47099 0.00653041 0
M  V30 13954 H 1334.25 -3.36971 -2.4598 0
M  V30 13955 H 1332.88 -2.23606 -2.3281 0
M  V30 13956 H 1331.93 -3.77593 -0.461278 0
M  V30 13957 H 1333.24 -4.91979 -0.822049 0
M  V30 13958 H 1332.4 -5.17683 -3.16369 0
M  V30 13959 H 1331.13 -3.94775 -2.86364 0
M  V30 13960 H 1330.14 -5.3932 -1.06835 0
M  V30 13961 H 1331.36 -6.64664 -1.3928 0
M  V30 13962 H 1329.31 -5.61791 -3.38713 0
M  V30 13963 H 1329.23 -7.12328 -2.53228 0
M  V30 13964 H 1330.5 -6.86468 -3.69299 0
M  V30 13965 N 1334.72 -0.0133892 -1.57594 0
M  V30 13966 C 1335.95 0.679255 -1.95432 0
M  V30 13967 C 1336.37 1.66558 -0.889028 0
M  V30 13968 O 1335.72 1.82031 0.130755 0
M  V30 13969 C 1335.78 1.39943 -3.33314 0
M  V30 13970 O 1335.5 0.452643 -4.35755 0
M  V30 13971 C 1337 2.18535 -3.85691 0
M  V30 13972 H 1334.22 0.188337 -0.644026 0
M  V30 13973 H 1336.76 -0.0684861 -2.04385 0
M  V30 13974 H 1334.92 2.0987 -3.25628 0
M  V30 13975 H 1335.33 0.962243 -5.15598 0
M  V30 13976 H 1336.8 2.64403 -4.84557 0
M  V30 13977 H 1337.28 3.01779 -3.19102 0
M  V30 13978 H 1337.89 1.53598 -3.96595 0
M  V30 13979 N 1336.2 1.55448 0.259558 0
M  V30 13980 C 1337.15 1.90056 1.34096 0
M  V30 13981 C 1338.14 0.778267 1.50464 0
M  V30 13982 O 1339.35 0.962758 1.52089 0
M  V30 13983 H 1335.73 0.603424 0.448758 0
M  V30 13984 H 1337.7 2.80365 1.02166 0
M  V30 13985 C 1336.45 2.20074 2.69189 0
M  V30 13986 H 1335.77 3.05926 2.57389 0
M  V30 13987 H 1337.21 2.48201 3.43762 0
M  V30 13988 C 1335.67 1.01281 3.21316 0
M  V30 13989 O 1336.2 0.2543 4.00894 0
M  V30 13990 N 1334.4 0.806855 2.79174 0
M  V30 13991 H 1333.95 1.42536 2.14572 0
M  V30 13992 H 1333.91 0.0136714 3.14397 0
M  V30 13993 N 1337.68 -0.524672 1.4861 0
M  V30 13994 C 1338.61 -1.63782 1.66426 0
M  V30 13995 C 1339.59 -1.62177 0.513077 0
M  V30 13996 O 1340.78 -1.7929 0.74623 0
M  V30 13997 C 1337.91 -3.02354 1.70877 0
M  V30 13998 C 1336.86 -3.18819 2.85549 0
M  V30 13999 C 1336.19 -4.58506 2.75094 0
M  V30 14000 C 1337.49 -3.01086 4.26784 0
M  V30 14001 H 1339.18 -1.49127 2.59618 0
M  V30 14002 H 1336.73 -0.715997 1.24938 0
M  V30 14003 H 1338.68 -3.80105 1.81929 0
M  V30 14004 H 1337.4 -3.18044 0.742682 0
M  V30 14005 H 1336.06 -2.43487 2.74061 0
M  V30 14006 H 1335.71 -4.71038 1.76443 0
M  V30 14007 H 1335.41 -4.70466 3.52044 0
M  V30 14008 H 1336.93 -5.38348 2.88121 0
M  V30 14009 H 1338.35 -3.68624 4.39077 0
M  V30 14010 H 1336.75 -3.24536 5.04774 0
M  V30 14011 H 1337.82 -1.97454 4.42877 0
M  V30 14012 N 1339.16 -1.37287 -0.77395 0
M  V30 14013 C 1340.57 -1.28954 -1.3501 0
M  V30 14014 C 1340.92 0.0638301 -1.96096 0
M  V30 14015 O 1340.05 0.965624 -1.93661 0
M  V30 14016 C 1340.64 -2.3352 -2.45467 0
M  V30 14017 C 1339.2 -2.28828 -2.98856 0
M  V30 14018 C 1338.35 -2.17468 -1.72055 0
M  V30 14019 H 1341.3 -1.47941 -0.57438 0
M  V30 14020 H 1341.32 -1.98058 -3.24889 0
M  V30 14021 H 1340.83 -3.32009 -2.00977 0
M  V30 14022 H 1338.93 -1.33855 -3.47726 0
M  V30 14023 H 1339.04 -3.22152 -3.54619 0
M  V30 14024 H 1337.41 -1.63977 -1.94894 0
M  V30 14025 H 1338.19 -3.17868 -1.29672 0
M  V30 14026 N 1340.64 0.999871 -1.21821 0
M  V30 14027 C 1341.86 1.7794 -1.06546 0
M  V30 14028 C 1342.29 1.84219 0.380115 0
M  V30 14029 O 1341.64 1.28955 1.27438 0
M  V30 14030 C 1341.69 3.1943 -1.67322 0
M  V30 14031 O 1340.8 4.01957 -0.922171 0
M  V30 14032 H 1340.14 0.548204 -0.374658 0
M  V30 14033 H 1342.67 1.2565 -1.61472 0
M  V30 14034 H 1342.68 3.70086 -1.71757 0
M  V30 14035 H 1341.35 3.14175 -2.7252 0
M  V30 14036 H 1339.93 3.60509 -0.95331 0
M  V30 14037 N 1342.11 1.02678 1.19562 0
M  V30 14038 C 1343.06 0.599259 2.24748 0
M  V30 14039 C 1344.06 -0.367079 1.65375 0
M  V30 14040 O 1345.26 -0.235887 1.78448 0
M  V30 14041 H 1341.64 0.175517 0.73123 0
M  V30 14042 H 1343.61 1.4971 2.58127 0
M  V30 14043 C 1342.36 -0.0362515 3.47681 0
M  V30 14044 H 1341.68 0.698343 3.93654 0
M  V30 14045 H 1343.12 -0.298361 4.22949 0
M  V30 14046 C 1341.58 -1.28218 3.11547 0
M  V30 14047 O 1342.11 -2.37446 3.24009 0
M  V30 14048 N 1340.32 -1.17014 2.66 0
M  V30 14049 H 1339.86 -0.28132 2.56059 0
M  V30 14050 H 1339.82 -2.00473 2.42194 0
M  V30 14051 N 1343.59 -1.35528 0.804364 0
M  V30 14052 C 1344.82 -2.03073 0.396091 0
M  V30 14053 C 1345.24 -1.60623 -0.992252 0
M  V30 14054 O 1344.59 -0.802718 -1.63898 0
M  V30 14055 C 1344.64 -3.58467 0.467301 0
M  V30 14056 O 1344.36 -3.99373 1.80091 0
M  V30 14057 C 1345.87 -4.4327 0.0515549 0
M  V30 14058 H 1343.09 -0.651346 0.161212 0
M  V30 14059 H 1345.63 -1.73195 1.08737 0
M  V30 14060 H 1343.78 -3.87001 -0.175703 0
M  V30 14061 H 1344.2 -4.94013 1.76214 0
M  V30 14062 H 1345.67 -5.51789 0.152499 0
M  V30 14063 H 1346.15 -4.27597 -1.00286 0
M  V30 14064 H 1346.76 -4.20027 0.667628 0
M  V30 14065 N 1345.07 -0.557671 -1.47404 0
M  V30 14066 C 1346.03 0.179311 -2.28498 0
M  V30 14067 C 1347.03 0.842281 -1.36975 0
M  V30 14068 O 1348.22 0.698072 -1.59601 0
M  V30 14069 C 1345.36 1.26229 -3.16668 0
M  V30 14070 H 1346.55 -0.533033 -2.95125 0
M  V30 14071 H 1344.1 -0.314634 -1.531 0
M  V30 14072 H 1344.84 2.00702 -2.54733 0
M  V30 14073 H 1344.62 0.791712 -3.84024 0
M  V30 14074 H 1346.11 1.77991 -3.77768 0
M  V30 14075 N 1346.55 1.54831 -0.294147 0
M  V30 14076 C 1347.8 2.00001 0.317135 0
M  V30 14077 C 1348.12 1.18256 1.54421 0
M  V30 14078 O 1347.38 0.245035 1.9416 0
M  V30 14079 C 1347.68 3.4997 0.72495 0
M  V30 14080 C 1347.34 4.49126 -0.399616 0
M  V30 14081 C 1346.01 4.75958 -0.708354 0
M  V30 14082 C 1348.36 5.08208 -1.15644 0
M  V30 14083 C 1345.69 5.59137 -1.77716 0
M  V30 14084 C 1348.04 5.9255 -2.21512 0
M  V30 14085 C 1346.7 6.17695 -2.52999 0
M  V30 14086 H 1345.97 0.731856 0.116048 0
M  V30 14087 H 1348.62 1.87019 -0.41182 0
M  V30 14088 H 1346.92 3.60526 1.53388 0
M  V30 14089 H 1348.62 3.82341 1.20898 0
M  V30 14090 H 1345.21 4.28341 -0.148877 0
M  V30 14091 H 1349.4 4.87486 -0.931178 0
M  V30 14092 H 1344.65 5.76859 -2.02592 0
M  V30 14093 H 1348.83 6.37359 -2.80617 0
M  V30 14094 H 1346.45 6.81939 -3.35951 0
M  V30 14095 N 1348.03 0.0217466 1.57585 0
M  V30 14096 C 1349.44 -0.334576 1.56054 0
M  V30 14097 C 1349.64 -1.73386 1.02663 0
M  V30 14098 O 1348.7 -2.43447 0.670078 0
M  V30 14099 C 1350.01 -0.189919 3.001 0
M  V30 14100 C 1351.56 -0.263238 3.11891 0
M  V30 14101 C 1352.04 -0.147455 4.57763 0
M  V30 14102 N 1353.53 -0.204672 4.62748 0
M  V30 14103 C 1354.26 -0.138755 5.73232 0
M  V30 14104 N 1353.76 -0.0221762 6.92796 0
M  V30 14105 N 1355.55 -0.192206 5.61771 0
M  V30 14106 H 1347.7 0.936849 1.90622 0
M  V30 14107 H 1349.96 0.361119 0.876526 0
M  V30 14108 H 1349.67 0.773687 3.43084 0
M  V30 14109 H 1349.54 -0.963148 3.64696 0
M  V30 14110 H 1351.93 -1.2173 2.68823 0
M  V30 14111 H 1352.01 0.540241 2.5003 0
M  V30 14112 H 1351.66 0.803155 5.0151 0
M  V30 14113 H 1351.59 -0.969703 5.17595 0
M  V30 14114 H 1354.08 -0.29522 3.76745 0
M  V30 14115 H 1354.39 0.021631 7.72797 0
M  V30 14116 H 1352.74 0.0125033 6.94999 0
M  V30 14117 H 1355.93 -0.28163 4.67252 0
M  V30 14118 H 1356.1 -0.137372 6.47854 0
M  V30 14119 N 1349.51 -1.55583 -0.251311 0
M  V30 14120 C 1350.75 -1.76859 -0.978031 0
M  V30 14121 C 1351.07 -0.584924 -1.86021 0
M  V30 14122 O 1350.34 0.399456 -1.91784 0
M  V30 14123 H 1348.92 -0.652252 -0.364111 0
M  V30 14124 H 1351.59 -1.93016 -0.270319 0
M  V30 14125 H 1350.68 -2.67828 -1.60233 0
M  V30 14126 N 1350.98 0.516783 -1.48886 0
M  V30 14127 C 1352.23 1.27187 -1.57574 0
M  V30 14128 C 1352.56 1.92815 -0.255432 0
M  V30 14129 O 1351.81 1.80533 0.755403 0
M  V30 14130 C 1352.11 2.37296 -2.67256 0
M  V30 14131 C 1351.78 1.89232 -4.0927 0
M  V30 14132 C 1350.44 1.75842 -4.47921 0
M  V30 14133 C 1352.79 1.53073 -4.98215 0
M  V30 14134 C 1350.12 1.24648 -5.73306 0
M  V30 14135 C 1352.47 1.03337 -6.24103 0
M  V30 14136 C 1351.14 0.885744 -6.61597 0
M  V30 14137 H 1350.41 0.46541 -0.576606 0
M  V30 14138 H 1353.05 0.575223 -1.82657 0
M  V30 14139 H 1351.36 3.12685 -2.36084 0
M  V30 14140 H 1353.06 2.95393 -2.7119 0
M  V30 14141 H 1349.65 2.00608 -3.78754 0
M  V30 14142 H 1353.83 1.62272 -4.69022 0
M  V30 14143 H 1349.09 1.11917 -6.0107 0
M  V30 14144 H 1353.26 0.744338 -6.92411 0
M  V30 14145 H 1350.89 0.486866 -7.58639 0
M  V30 14146 N 1352.46 1.37696 0.766659 0
M  V30 14147 C 1353.71 1.32922 1.52237 0
M  V30 14148 C 1354.03 -0.0842833 1.94818 0
M  V30 14149 O 1353.3 -1.02934 1.66677 0
M  V30 14150 H 1351.88 0.489049 0.564659 0
M  V30 14151 H 1354.54 1.72238 0.912142 0
M  V30 14152 H 1353.64 1.97158 2.4194 0
M  V30 14153 N 1353.94 -0.993397 1.22349 0
M  V30 14154 C 1355.19 -1.72945 1.04568 0
M  V30 14155 C 1355.51 -1.90419 -0.420178 0
M  V30 14156 O 1354.78 -1.46348 -1.30227 0
M  V30 14157 H 1353.36 -0.640777 0.383945 0
M  V30 14158 H 1356.02 -1.19647 1.53853 0
M  V30 14159 H 1355.12 -2.72411 1.52311 0
M  V30 14160 N 1355.42 -1.03311 -1.19015 0
M  V30 14161 C 1356.83 -0.761079 -1.70483 0
M  V30 14162 C 1357.18 0.718851 -1.82557 0
M  V30 14163 O 1356.3 1.56006 -1.4997 0
M  V30 14164 C 1356.9 -1.37492 -3.09647 0
M  V30 14165 C 1355.46 -1.15138 -3.58358 0
M  V30 14166 C 1354.61 -1.47034 -2.35109 0
M  V30 14167 H 1357.56 -1.2005 -1.03797 0
M  V30 14168 H 1357.58 -0.774115 -3.72542 0
M  V30 14169 H 1357.09 -2.45203 -3.00828 0
M  V30 14170 H 1355.19 -0.0926822 -3.72485 0
M  V30 14171 H 1355.3 -1.84307 -4.4223 0
M  V30 14172 H 1353.67 -0.889794 -2.38652 0
M  V30 14173 H 1354.45 -2.55837 -2.28916 0
M  V30 14174 N 1356.9 1.35099 -0.81154 0
M  V30 14175 C 1357.83 2.28468 -0.183012 0
M  V30 14176 C 1358.84 1.50509 0.620553 0
M  V30 14177 O 1360.03 1.7268 0.4521 0
M  V30 14178 C 1357.13 3.30201 0.762933 0
M  V30 14179 C 1356.3 4.374 0.00466561 0
M  V30 14180 C 1355.36 5.18961 0.869832 0
M  V30 14181 O 1354.39 5.68306 0.318964 0
M  V30 14182 N 1355.59 5.37555 2.19123 0
M  V30 14183 H 1358.35 2.83046 -0.985132 0
M  V30 14184 H 1355.92 1.47502 -0.667449 0
M  V30 14185 H 1357.91 3.81659 1.34606 0
M  V30 14186 H 1356.48 2.76101 1.46584 0
M  V30 14187 H 1355.7 3.8681 -0.759702 0
M  V30 14188 H 1356.99 5.06159 -0.517739 0
M  V30 14189 H 1356.38 4.99118 2.66266 0
M  V30 14190 H 1354.94 5.92174 2.72348 0
M  V30 14191 N 1358.37 0.56548 1.47106 0
M  V30 14192 C 1359.62 0.0444375 2.02051 0
M  V30 14193 C 1359.94 -1.31344 1.44131 0
M  V30 14194 O 1359.21 -1.85845 0.619556 0
M  V30 14195 H 1357.79 0.0134375 0.746879 0
M  V30 14196 H 1360.45 0.737362 1.80413 0
M  V30 14197 H 1359.55 -0.0374834 3.12077 0
M  V30 14198 N 1359.85 -1.54672 0.302354 0
M  V30 14199 C 1360.79 -2.19752 -0.615175 0
M  V30 14200 C 1361.76 -1.16737 -1.13186 0
M  V30 14201 O 1362.95 -1.45385 -1.19981 0
M  V30 14202 C 1360.07 -2.84243 -1.84184 0
M  V30 14203 C 1359.12 -4.00795 -1.45827 0
M  V30 14204 S 1359.95 -5.33037 -0.513046 0
M  V30 14205 C 1361.11 -6.01011 -1.74747 0
M  V30 14206 H 1361.34 -2.97235 -0.0622917 0
M  V30 14207 H 1358.88 -1.54158 0.0864897 0
M  V30 14208 H 1360.83 -3.22025 -2.54578 0
M  V30 14209 H 1359.49 -2.06603 -2.36589 0
M  V30 14210 H 1358.69 -4.44707 -2.37175 0
M  V30 14211 H 1358.29 -3.64577 -0.83425 0
M  V30 14212 H 1360.58 -6.21901 -2.68786 0
M  V30 14213 H 1361.52 -6.95095 -1.35089 0
M  V30 14214 H 1361.93 -5.30671 -1.9248 0
M  V30 14215 N 1361.33 -0.0301034 -1.57571 0
M  V30 14216 C 1362.26 0.94977 -2.13311 0
M  V30 14217 C 1363.24 1.33865 -1.04948 0
M  V30 14218 O 1364.43 1.4171 -1.32786 0
M  V30 14219 C 1361.56 2.23178 -2.66099 0
M  V30 14220 C 1360.51 1.98362 -3.79258 0
M  V30 14221 C 1359.84 3.32836 -4.18479 0
M  V30 14222 C 1361.14 1.32201 -5.05292 0
M  V30 14223 H 1362.83 0.485562 -2.95436 0
M  V30 14224 H 1360.38 0.232116 -1.42117 0
M  V30 14225 H 1362.33 2.92108 -3.03728 0
M  V30 14226 H 1361.05 2.71766 -1.81137 0
M  V30 14227 H 1359.71 1.31849 -3.42069 0
M  V30 14228 H 1359.36 3.79185 -3.30496 0
M  V30 14229 H 1359.06 3.17037 -4.94733 0
M  V30 14230 H 1360.58 4.03032 -4.58691 0
M  V30 14231 H 1362 1.91133 -5.40501 0
M  V30 14232 H 1360.4 1.26797 -5.86551 0
M  V30 14233 H 1361.47 0.29511 -4.84001 0
M  V30 14234 N 1362.81 1.55714 0.243056 0
M  V30 14235 C 1364.06 1.76927 0.96849 0
M  V30 14236 C 1364.37 0.594748 1.86339 0
M  V30 14237 O 1365.58 0.689981 2.62586 0
M  V30 14238 C 1364.03 3.13246 1.77214 0
M  V30 14239 C 1363.64 4.38358 0.92444 0
M  V30 14240 C 1365.38 3.43796 2.49007 0
M  V30 14241 C 1363.29 5.65708 1.7242 0
M  V30 14242 H 1362.22 0.659574 0.365346 0
M  V30 14243 H 1364.87 1.8214 0.223026 0
M  V30 14244 H 1363.25 3.02151 2.5597 0
M  V30 14245 H 1364.43 4.60452 0.178936 0
M  V30 14246 H 1362.74 4.15171 0.319653 0
M  V30 14247 H 1365.34 4.3616 3.09303 0
M  V30 14248 H 1365.68 2.65297 3.20817 0
M  V30 14249 H 1366.22 3.56124 1.77259 0
M  V30 14250 H 1362.96 6.47039 1.04978 0
M  V30 14251 H 1362.48 5.4771 2.44488 0
M  V30 14252 H 1364.15 6.05105 2.29036 0
M  V30 14253 N 1364.29 -0.50888 1.49158 0
M  V30 14254 C 1365.25 -1.59354 1.64739 0
M  V30 14255 C 1366.25 -1.52175 0.519557 0
M  V30 14256 O 1367.44 -1.55468 0.785838 0
M  V30 14257 C 1364.57 -2.99002 1.63739 0
M  V30 14258 H 1365.76 -1.46871 2.61474 0
M  V30 14259 H 1363.32 -0.732532 1.38071 0
M  V30 14260 H 1364.05 -3.1697 0.685583 0
M  V30 14261 H 1363.84 -3.05622 2.45637 0
M  V30 14262 H 1365.33 -3.77822 1.77877 0
M  V30 14263 N 1365.76 -1.381 -0.759346 0
M  V30 14264 C 1366.67 -1.37086 -1.9038 0
M  V30 14265 C 1367.69 -0.268738 -1.71912 0
M  V30 14266 O 1368.87 -0.506205 -1.94935 0
M  V30 14267 C 1365.93 -1.18905 -3.25672 0
M  V30 14268 C 1364.99 -2.3887 -3.56707 0
M  V30 14269 C 1364.23 -2.21546 -4.85544 0
M  V30 14270 O 1364.45 -1.20616 -5.57501 0
M  V30 14271 O 1363.38 -3.10009 -5.15924 0
M  V30 14272 H 1367.21 -2.33505 -1.94188 0
M  V30 14273 H 1364.79 -1.18959 -0.903826 0
M  V30 14274 H 1366.68 -1.10803 -4.06572 0
M  V30 14275 H 1365.35 -0.255675 -3.22689 0
M  V30 14276 H 1364.26 -2.52546 -2.75992 0
M  V30 14277 H 1365.59 -3.30817 -3.64446 0
M  V30 14278 N 1367.24 0.986894 -1.22875 0
M  V30 14279 C 1368.48 1.74243 -1.06859 0
M  V30 14280 C 1368.85 1.88024 0.388736 0
M  V30 14281 O 1370.05 2.60318 0.669907 0
M  V30 14282 C 1368.32 3.10668 -1.76692 0
M  V30 14283 S 1369.88 4.01884 -1.76166 0
M  V30 14284 H 1366.7 0.59931 -0.382555 0
M  V30 14285 H 1369.3 1.17951 -1.55909 0
M  V30 14286 H 1368 2.98285 -2.81877 0
M  V30 14287 H 1367.53 3.7203 -1.27897 0
M  V30 14288 H 1369.55 4.89451 -0.815627 0
M  V30 14289 N 1368.72 1.0394 1.18466 0
M  V30 14290 C 1369.97 0.752904 1.88952 0
M  V30 14291 C 1370.32 -0.711542 1.78759 0
M  V30 14292 O 1369.61 -1.51248 1.17621 0
M  V30 14293 C 1369.81 1.15198 3.38326 0
M  V30 14294 C 1369.64 2.65367 3.63057 0
M  V30 14295 C 1368.41 3.32495 3.80493 0
M  V30 14296 C 1370.61 3.63586 3.63744 0
M  V30 14297 N 1368.59 4.71659 3.92952 0
M  V30 14298 C 1369.96 4.88417 3.81901 0
M  V30 14299 C 1372.01 3.57234 3.46826 0
M  V30 14300 C 1370.72 6.0766 3.84891 0
M  V30 14301 C 1372.74 4.75903 3.51098 0
M  V30 14302 C 1372.1 5.99553 3.69751 0
M  V30 14303 H 1368.2 0.327542 0.710099 0
M  V30 14304 H 1370.79 1.32883 1.42303 0
M  V30 14305 H 1368.96 0.604141 3.83673 0
M  V30 14306 H 1370.69 0.816625 3.96375 0
M  V30 14307 H 1367.45 2.829 3.79822 0
M  V30 14308 H 1367.87 5.43981 4.03006 0
M  V30 14309 H 1372.51 2.62613 3.31352 0
M  V30 14310 H 1370.23 7.02639 3.99153 0
M  V30 14311 H 1373.82 4.72629 3.39284 0
M  V30 14312 H 1372.7 6.89842 3.72945 0
M  V30 14313 N 1370.2 -1.34667 0.818693 0
M  V30 14314 C 1371.13 -2.27466 0.182904 0
M  V30 14315 C 1372.11 -1.48682 -0.65821 0
M  V30 14316 O 1373.29 -1.77912 -0.622868 0
M  V30 14317 C 1370.42 -3.30406 -0.744971 0
M  V30 14318 C 1369.47 -4.26496 0.018069 0
M  V30 14319 S 1370.3 -5.1788 1.36236 0
M  V30 14320 C 1371.46 -6.24357 0.43925 0
M  V30 14321 H 1371.69 -2.81042 0.969668 0
M  V30 14322 H 1369.22 -1.4165 0.614372 0
M  V30 14323 H 1371.18 -3.90205 -1.27478 0
M  V30 14324 H 1369.84 -2.75684 -1.50522 0
M  V30 14325 H 1369.03 -4.99294 -0.687141 0
M  V30 14326 H 1368.64 -3.70929 0.478291 0
M  V30 14327 H 1370.93 -6.76484 -0.370837 0
M  V30 14328 H 1371.87 -6.98916 1.13678 0
M  V30 14329 H 1372.28 -5.64492 0.0295605 0
M  V30 14330 N 1371.68 -0.573274 -1.46804 0
M  V30 14331 C 1372.9 -0.0586717 -2.07317 0
M  V30 14332 C 1373.33 1.2328 -1.42069 0
M  V30 14333 O 1372.68 1.74235 -0.501188 0
M  V30 14334 C 1372.73 0.103503 -3.60451 0
M  V30 14335 O 1371.84 1.16229 -3.95682 0
M  V30 14336 H 1371.18 -0.0585504 -0.661414 0
M  V30 14337 H 1373.71 -0.793532 -1.88585 0
M  V30 14338 H 1373.72 0.312658 -4.068 0
M  V30 14339 H 1372.39 -0.839684 -4.07335 0
M  V30 14340 H 1370.97 0.932347 -3.61056 0
M  V30 14341 N 1373.15 1.5451 -0.310553 0
M  V30 14342 C 1374.06 2.27557 0.570518 0
M  V30 14343 C 1375.08 1.31426 1.14032 0
M  V30 14344 O 1376.26 1.64423 1.16306 0
M  V30 14345 C 1373.32 3.00933 1.72163 0
M  V30 14346 C 1372.38 4.12623 1.18495 0
M  V30 14347 C 1371.62 4.8249 2.28121 0
M  V30 14348 O 1371.84 4.5178 3.48211 0
M  V30 14349 O 1370.77 5.69686 1.94273 0
M  V30 14350 H 1374.6 3.03692 -0.0223195 0
M  V30 14351 H 1372.18 1.49203 -0.0766821 0
M  V30 14352 H 1374.07 3.46925 2.39208 0
M  V30 14353 H 1372.74 2.27685 2.3009 0
M  V30 14354 H 1371.65 3.71008 0.479956 0
M  V30 14355 H 1372.98 4.87876 0.650994 0
M  V30 14356 N 1374.63 0.0384594 1.57553 0
M  V30 14357 C 1375.88 -0.639085 1.92467 0
M  V30 14358 C 1376.21 -1.71239 0.916014 0
M  V30 14359 O 1375.49 -1.94408 -0.0598928 0
M  V30 14360 C 1375.77 -1.24693 3.37822 0
M  V30 14361 C 1375.62 -0.182544 4.49429 0
M  V30 14362 C 1376.94 -2.16226 3.8332 0
M  V30 14363 H 1374.06 -0.230852 0.699912 0
M  V30 14364 H 1376.7 0.0976276 1.89749 0
M  V30 14365 H 1374.85 -1.87481 3.40269 0
M  V30 14366 H 1376.53 0.448622 4.59113 0
M  V30 14367 H 1374.77 0.4909 4.31013 0
M  V30 14368 H 1375.44 -0.647626 5.48188 0
M  V30 14369 H 1377.92 -1.63413 3.82669 0
M  V30 14370 H 1376.79 -2.55705 4.85702 0
M  V30 14371 H 1377.05 -3.05722 3.19353 0
M  V30 14372 N 1376.11 -1.55841 -0.234795 0
M  V30 14373 C 1377.07 -1.9051 -1.2743 0
M  V30 14374 C 1378.07 -0.782543 -1.40474 0
M  V30 14375 O 1379.26 -1.05043 -1.38966 0
M  V30 14376 C 1376.4 -2.14424 -2.65019 0
M  V30 14377 H 1377.59 -2.83471 -0.979003 0
M  V30 14378 H 1375.14 -1.48919 -0.47463 0
M  V30 14379 H 1375.88 -1.23972 -2.99669 0
M  V30 14380 H 1375.66 -2.96191 -2.56931 0
M  V30 14381 H 1377.15 -2.42388 -3.40056 0
M  V30 14382 N 1377.59 0.500963 -1.49426 0
M  V30 14383 C 1378.84 1.25694 -1.5915 0
M  V30 14384 C 1379.17 1.92209 -0.277365 0
M  V30 14385 O 1378.44 1.8072 0.719065 0
M  V30 14386 C 1378.73 2.32391 -2.75076 0
M  V30 14387 C 1378.58 1.70377 -4.16283 0
M  V30 14388 C 1379.9 3.33952 -2.86643 0
M  V30 14389 H 1377.02 0.455631 -0.579283 0
M  V30 14390 H 1379.66 0.555099 -1.8171 0
M  V30 14391 H 1377.81 2.92252 -2.55971 0
M  V30 14392 H 1379.48 1.14343 -4.46904 0
M  V30 14393 H 1377.72 1.00789 -4.21929 0
M  V30 14394 H 1378.4 2.47767 -4.9327 0
M  V30 14395 H 1380.87 2.84081 -3.04035 0
M  V30 14396 H 1379.75 4.05969 -3.69433 0
M  V30 14397 H 1380.01 3.96279 -1.95998 0
M  V30 14398 N 1379.07 1.38501 0.752011 0
M  V30 14399 C 1380.3 1.38032 1.54125 0
M  V30 14400 C 1380.71 -0.0295066 1.88777 0
M  V30 14401 O 1380.07 -0.996522 1.52891 0
M  V30 14402 C 1380.12 2.23741 2.83941 0
M  V30 14403 O 1379.84 3.59232 2.50767 0
M  V30 14404 C 1381.34 2.31469 3.7807 0
M  V30 14405 H 1378.56 0.472077 0.476848 0
M  V30 14406 H 1381.1 1.82101 0.930572 0
M  V30 14407 H 1379.26 1.8313 3.41383 0
M  V30 14408 H 1379.67 4.04376 3.34036 0
M  V30 14409 H 1381.15 2.95722 4.66103 0
M  V30 14410 H 1381.62 1.32882 4.18616 0
M  V30 14411 H 1382.23 2.72477 3.26552 0
M  V30 14412 N 1380.55 -0.980364 1.23396 0
M  V30 14413 C 1381.79 -1.73674 1.07781 0
M  V30 14414 C 1382.15 -1.88227 -0.378759 0
M  V30 14415 O 1383.35 -2.6067 -0.656092 0
M  V30 14416 C 1381.62 -3.09727 1.78337 0
M  V30 14417 S 1383.18 -4.00944 1.78295 0
M  V30 14418 H 1380 -0.597273 0.385728 0
M  V30 14419 H 1382.6 -1.17123 1.56533 0
M  V30 14420 H 1381.3 -2.96786 2.83455 0
M  V30 14421 H 1380.84 -3.71346 1.29868 0
M  V30 14422 H 1382.85 -4.89011 0.841572 0
M  V30 14423 N 1382.02 -1.04567 -1.17913 0
M  V30 14424 C 1383.27 -0.750538 -1.87647 0
M  V30 14425 C 1383.59 0.72423 -1.81052 0
M  V30 14426 O 1382.86 1.52292 -1.23223 0
M  V30 14427 H 1381.44 -0.274636 -0.694683 0
M  V30 14428 H 1384.1 -1.32349 -1.43072 0
M  V30 14429 H 1383.2 -1.05987 -2.93553 0
M  V30 14430 N 1383.5 1.34231 -0.825823 0
M  V30 14431 C 1384.43 2.27366 -0.194964 0
M  V30 14432 C 1385.41 1.49029 0.650315 0
M  V30 14433 O 1386.6 1.7824 0.613424 0
M  V30 14434 C 1383.72 3.30796 0.727439 0
M  V30 14435 C 1382.77 4.26481 -0.0406869 0
M  V30 14436 S 1383.6 5.17151 -1.38981 0
M  V30 14437 C 1384.76 6.24115 -0.472354 0
M  V30 14438 H 1384.99 2.80524 -0.984559 0
M  V30 14439 H 1382.52 1.41323 -0.621875 0
M  V30 14440 H 1384.48 3.90875 1.25406 0
M  V30 14441 H 1383.14 2.76479 1.49058 0
M  V30 14442 H 1382.34 4.99651 0.660652 0
M  V30 14443 H 1381.94 3.7067 -0.497956 0
M  V30 14444 H 1384.23 6.76671 0.334956 0
M  V30 14445 H 1385.17 6.98303 -1.17383 0
M  V30 14446 H 1385.58 5.64469 -0.0594964 0
M  V30 14447 N 1384.98 0.581051 1.46498 0
M  V30 14448 C 1386.39 0.154032 1.86064 0
M  V30 14449 C 1386.74 -1.28247 1.48483 0
M  V30 14450 O 1385.87 -1.96845 0.898945 0
M  V30 14451 C 1386.46 0.272764 3.377 0
M  V30 14452 C 1385.02 -0.0993724 3.76269 0
M  V30 14453 C 1384.17 0.60947 2.70519 0
M  V30 14454 H 1387.12 0.78937 1.37676 0
M  V30 14455 H 1387.14 -0.502326 3.7717 0
M  V30 14456 H 1386.65 1.31837 3.65021 0
M  V30 14457 H 1384.75 -1.14517 3.54565 0
M  V30 14458 H 1384.87 0.275791 4.78306 0
M  V30 14459 H 1383.23 0.0499083 2.54651 0
M  V30 14460 H 1384.01 1.65669 3.0068 0
M  V30 14461 N 1386.46 -1.54343 0.318742 0
M  V30 14462 C 1387.42 -2.22828 -0.536679 0
M  V30 14463 C 1388.42 -1.22013 -1.04735 0
M  V30 14464 O 1389.61 -1.46626 -0.940549 0
M  V30 14465 C 1386.74 -2.92857 -1.74493 0
M  V30 14466 H 1387.94 -2.99836 0.0619325 0
M  V30 14467 H 1385.49 -1.56144 0.0697687 0
M  V30 14468 H 1386.22 -2.19973 -2.3829 0
M  V30 14469 H 1386.01 -3.66779 -1.38621 0
M  V30 14470 H 1387.5 -3.45049 -2.35225 0
M  V30 14471 N 1387.94 -0.0468143 -1.5753 0
M  V30 14472 C 1388.85 0.944362 -2.14753 0
M  V30 14473 C 1389.86 1.34473 -1.10422 0
M  V30 14474 O 1391.04 1.42254 -1.42569 0
M  V30 14475 C 1388.1 2.2023 -2.67768 0
M  V30 14476 C 1387.16 1.8607 -3.8688 0
M  V30 14477 C 1386.4 3.05867 -4.37357 0
M  V30 14478 O 1386.62 4.19099 -3.86927 0
M  V30 14479 O 1385.55 2.87134 -5.28997 0
M  V30 14480 H 1389.38 0.48772 -2.99758 0
M  V30 14481 H 1386.96 0.174831 -1.48374 0
M  V30 14482 H 1388.85 2.94044 -3.01855 0
M  V30 14483 H 1387.52 2.65041 -1.85836 0
M  V30 14484 H 1386.43 1.09586 -3.5769 0
M  V30 14485 H 1387.76 1.46062 -4.70028 0
M  V30 14486 N 1389.41 1.55964 0.226527 0
M  V30 14487 C 1390.32 1.95169 1.30178 0
M  V30 14488 C 1391.34 0.854831 1.51554 0
M  V30 14489 O 1392.52 1.15798 1.64781 0
M  V30 14490 C 1389.58 2.25612 2.63249 0
M  V30 14491 C 1388.64 3.4884 2.50219 0
M  V30 14492 C 1387.88 3.77822 3.76944 0
M  V30 14493 O 1388.1 3.08556 4.79739 0
M  V30 14494 O 1387.03 4.7132 3.74354 0
M  V30 14495 H 1390.86 2.86794 0.999145 0
M  V30 14496 H 1388.44 1.43109 0.42898 0
M  V30 14497 H 1390.33 2.4641 3.41848 0
M  V30 14498 H 1389 1.37162 2.93203 0
M  V30 14499 H 1387.91 3.33326 1.69836 0
M  V30 14500 H 1389.24 4.37657 2.25205 0
M  V30 14501 N 1390.89 -0.493031 1.4969 0
M  V30 14502 C 1392.14 -1.24849 1.59814 0
M  V30 14503 C 1392.47 -1.92059 0.287555 0
M  V30 14504 O 1391.75 -1.81099 -0.709471 0
M  V30 14505 C 1392.03 -2.30929 2.76304 0
M  V30 14506 C 1391.88 -1.68167 4.17181 0
M  V30 14507 C 1393.2 -3.32427 2.8841 0
M  V30 14508 H 1390.32 -0.452553 0.581691 0
M  V30 14509 H 1392.96 -0.545455 1.82002 0
M  V30 14510 H 1391.11 -2.9089 2.57517 0
M  V30 14511 H 1392.78 -1.11971 4.47504 0
M  V30 14512 H 1391.03 -0.985496 4.22458 0
M  V30 14513 H 1391.7 -2.45148 4.94577 0
M  V30 14514 H 1394.17 -2.82464 3.05537 0
M  V30 14515 H 1393.05 -4.04004 3.71581 0
M  V30 14516 H 1393.31 -3.95234 1.98097 0
M  V30 14517 N 1392.37 -1.38898 -0.744656 0
M  V30 14518 C 1393.79 -1.20291 -1.04892 0
M  V30 14519 C 1393.99 -0.0577705 -2.01417 0
M  V30 14520 O 1393.04 0.593638 -2.45422 0
M  V30 14521 C 1394.36 -2.53302 -1.62045 0
M  V30 14522 C 1395.9 -2.60063 -1.74173 0
M  V30 14523 C 1396.38 -3.93272 -2.34736 0
M  V30 14524 N 1397.87 -3.9486 -2.42157 0
M  V30 14525 C 1398.6 -4.94698 -2.89933 0
M  V30 14526 N 1398.1 -6.04934 -3.37678 0
M  V30 14527 N 1399.89 -4.82083 -2.89055 0
M  V30 14528 H 1392.04 -2.12144 -0.104294 0
M  V30 14529 H 1394.31 -0.941725 -0.108895 0
M  V30 14530 H 1394.01 -3.376 -0.985868 0
M  V30 14531 H 1393.89 -2.72335 -2.60986 0
M  V30 14532 H 1396.27 -1.76155 -2.36756 0
M  V30 14533 H 1396.36 -2.44889 -0.739115 0
M  V30 14534 H 1396 -4.77607 -1.72784 0
M  V30 14535 H 1395.93 -4.05762 -3.35656 0
M  V30 14536 H 1398.42 -3.15243 -2.08399 0
M  V30 14537 H 1398.73 -6.77036 -3.72616 0
M  V30 14538 H 1397.08 -6.08541 -3.35712 0
M  V30 14539 H 1400.27 -3.9507 -2.51072 0
M  V30 14540 H 1400.44 -5.60039 -3.25975 0
M  V30 14541 N 1393.85 0.973806 -1.23914 0
M  V30 14542 C 1395.26 1.24128 -1.00322 0
M  V30 14543 C 1395.46 1.99378 0.29169 0
M  V30 14544 O 1394.52 2.31445 1.00943 0
M  V30 14545 C 1395.83 2.03438 -2.21435 0
M  V30 14546 C 1397.38 2.16553 -2.25995 0
M  V30 14547 C 1397.86 2.99257 -3.46712 0
M  V30 14548 N 1399.35 3.0684 -3.46992 0
M  V30 14549 C 1400.08 3.71174 -4.37055 0
M  V30 14550 N 1399.58 4.37277 -5.37364 0
M  V30 14551 N 1401.37 3.68126 -4.24782 0
M  V30 14552 H 1393.52 0.469872 -2.07138 0
M  V30 14553 H 1395.79 0.270234 -0.908668 0
M  V30 14554 H 1395.49 1.55527 -3.15443 0
M  V30 14555 H 1395.37 3.0418 -2.23057 0
M  V30 14556 H 1397.75 2.6367 -1.32522 0
M  V30 14557 H 1397.83 1.15179 -2.28402 0
M  V30 14558 H 1397.48 2.52835 -4.40496 0
M  V30 14559 H 1397.41 4.00815 -3.41547 0
M  V30 14560 H 1399.9 2.59813 -2.74419 0
M  V30 14561 H 1400.21 4.84166 -6.02331 0
M  V30 14562 H 1398.56 4.35965 -5.41257 0
M  V30 14563 H 1401.75 3.15657 -3.45656 0
M  V30 14564 H 1401.92 4.17981 -4.95173 0
M  V30 14565 N 1395.33 1.05191 1.17357 0
M  V30 14566 C 1396.27 0.652868 2.21374 0
M  V30 14567 C 1397.24 -0.344974 1.62478 0
M  V30 14568 O 1398.43 -0.23639 1.8933 0
M  V30 14569 C 1395.57 0.0337737 3.45083 0
M  V30 14570 C 1394.68 1.08045 4.18271 0
M  V30 14571 C 1393.82 0.428673 5.29468 0
M  V30 14572 C 1392.86 1.45966 5.94441 0
M  V30 14573 N 1391.99 0.832042 6.97152 0
M  V30 14574 H 1396.83 1.54434 2.54861 0
M  V30 14575 H 1394.37 0.772365 1.25192 0
M  V30 14576 H 1396.33 -0.342607 4.15791 0
M  V30 14577 H 1394.96 -0.821159 3.12181 0
M  V30 14578 H 1394.01 1.57466 3.46278 0
M  V30 14579 H 1395.32 1.86305 4.62701 0
M  V30 14580 H 1394.48 -0.00129344 6.067 0
M  V30 14581 H 1393.21 -0.385919 4.86171 0
M  V30 14582 H 1392.22 1.89964 5.1594 0
M  V30 14583 H 1393.44 2.27615 6.39819 0
M  V30 14584 H 1391.39 0.0379612 6.55989 0
M  V30 14585 H 1391.31 1.55219 7.39894 0
M  V30 14586 H 1392.58 0.42685 7.7833 0
M  V30 14587 N 1396.8 -1.33791 0.83293 0
M  V30 14588 C 1397.75 -2.31249 0.250357 0
M  V30 14589 C 1398.75 -1.57865 -0.614403 0
M  V30 14590 O 1399.95 -1.72782 -0.504627 0
M  V30 14591 H 1396.33 -0.749421 0.0622268 0
M  V30 14592 H 1398.3 -2.77899 1.08697 0
M  V30 14593 C 1397.05 -3.43082 -0.564783 0
M  V30 14594 H 1396.37 -3.99696 0.0913189 0
M  V30 14595 H 1397.81 -4.13486 -0.938351 0
M  V30 14596 C 1396.27 -2.88414 -1.74124 0
M  V30 14597 O 1396.8 -2.84113 -2.83976 0
M  V30 14598 N 1395.01 -2.45101 -1.56121 0
M  V30 14599 H 1394.55 -2.48799 -0.667607 0
M  V30 14600 H 1394.51 -2.08875 -2.34986 0
M  V30 14601 N 1398.28 -0.588812 -1.46187 0
M  V30 14602 C 1399.21 0.128595 -2.33146 0
M  V30 14603 C 1400.19 0.877608 -1.45712 0
M  V30 14604 O 1401.38 0.851866 -1.74519 0
M  V30 14605 C 1398.51 1.13886 -3.28096 0
M  V30 14606 C 1397.46 0.504296 -4.25019 0
M  V30 14607 C 1396.79 1.62147 -5.09522 0
M  V30 14608 C 1398.09 -0.562466 -5.19263 0
M  V30 14609 H 1399.78 -0.597455 -2.93378 0
M  V30 14610 H 1397.33 -0.288764 -1.41075 0
M  V30 14611 H 1399.28 1.64916 -3.8779 0
M  V30 14612 H 1398.01 1.89527 -2.65983 0
M  V30 14613 H 1396.66 0.0150325 -3.66597 0
M  V30 14614 H 1396.31 2.36769 -4.4379 0
M  V30 14615 H 1396.01 1.20249 -5.75164 0
M  V30 14616 H 1397.54 2.13441 -5.7208 0
M  V30 14617 H 1398.95 -0.137003 -5.73136 0
M  V30 14618 H 1397.35 -0.902115 -5.93281 0
M  V30 14619 H 1398.42 -1.4464 -4.62825 0
M  V30 14620 N 1399.76 1.54172 -0.326923 0
M  V30 14621 C 1400.99 2.04747 0.276107 0
M  V30 14622 C 1401.4 1.20251 1.4607 0
M  V30 14623 O 1400.74 0.226753 1.82295 0
M  V30 14624 C 1400.8 3.51143 0.770651 0
M  V30 14625 C 1400.47 4.56066 -0.292079 0
M  V30 14626 C 1401.46 5.07487 -1.12928 0
M  V30 14627 C 1399.15 5.00358 -0.441232 0
M  V30 14628 C 1401.14 6.01767 -2.10133 0
M  V30 14629 C 1398.83 5.94452 -1.4167 0
M  V30 14630 C 1399.83 6.45042 -2.24521 0
M  V30 14631 O 1399.52 7.37288 -3.20409 0
M  V30 14632 H 1399.25 0.673322 0.0601144 0
M  V30 14633 H 1401.8 1.99899 -0.472176 0
M  V30 14634 H 1400.03 3.53399 1.5699 0
M  V30 14635 H 1401.72 3.84775 1.2924 0
M  V30 14636 H 1402.49 4.74044 -1.02505 0
M  V30 14637 H 1398.37 4.60593 0.193767 0
M  V30 14638 H 1401.91 6.41178 -2.74839 0
M  V30 14639 H 1397.81 6.27311 -1.52155 0
M  V30 14640 H 1398.58 7.55171 -3.15687 0
M  V30 14641 N 1401.24 0.0551678 1.57503 0
M  V30 14642 C 1402.19 -0.917847 2.11764 0
M  V30 14643 C 1403.16 -1.30624 1.02599 0
M  V30 14644 O 1404.34 -1.39501 1.30169 0
M  V30 14645 C 1401.48 -2.18599 2.67036 0
M  V30 14646 C 1400.59 -1.85173 3.90301 0
M  V30 14647 C 1399.73 -3.06475 4.33874 0
M  V30 14648 C 1398.77 -2.68988 5.49829 0
M  V30 14649 N 1397.9 -3.82997 5.88437 0
M  V30 14650 H 1402.74 -0.448236 2.9461 0
M  V30 14651 H 1400.28 -0.209619 1.45599 0
M  V30 14652 H 1402.24 -2.92811 2.97183 0
M  V30 14653 H 1400.87 -2.6313 1.86982 0
M  V30 14654 H 1399.92 -1.01094 3.66721 0
M  V30 14655 H 1401.23 -1.53582 4.74567 0
M  V30 14656 H 1400.39 -3.88982 4.65594 0
M  V30 14657 H 1399.13 -3.41247 3.48427 0
M  V30 14658 H 1398.13 -1.84899 5.17776 0
M  V30 14659 H 1399.36 -2.35404 6.36994 0
M  V30 14660 H 1397.3 -4.17562 5.05942 0
M  V30 14661 H 1397.22 -3.55118 6.67403 0
M  V30 14662 H 1398.49 -4.66131 6.24773 0
M  V30 14663 N 1402.72 -1.56081 -0.218252 0
M  V30 14664 C 1403.63 -1.95856 -1.29141 0
M  V30 14665 C 1404.64 -0.862857 -1.51099 0
M  V30 14666 O 1405.82 -1.1667 -1.64165 0
M  V30 14667 C 1402.88 -2.27005 -2.62049 0
M  V30 14668 C 1401.94 -3.50162 -2.48365 0
M  V30 14669 C 1401.18 -3.79815 -3.74935 0
M  V30 14670 O 1401.4 -3.11095 -4.78096 0
M  V30 14671 O 1400.33 -4.73299 -3.71849 0
M  V30 14672 H 1404.16 -2.8732 -0.983922 0
M  V30 14673 H 1401.75 -1.43334 -0.421385 0
M  V30 14674 H 1403.63 -2.4822 -3.40536 0
M  V30 14675 H 1402.3 -1.38715 -2.92472 0
M  V30 14676 H 1401.21 -3.34222 -1.68066 0
M  V30 14677 H 1402.54 -4.38845 -2.22881 0
M  V30 14678 N 1404.2 0.485086 -1.49949 0
M  V30 14679 C 1405.44 1.23571 -1.5992 0
M  V30 14680 C 1405.76 1.92754 -0.295108 0
M  V30 14681 O 1405.03 1.83474 0.686582 0
M  V30 14682 H 1403.61 0.459104 -0.589264 0
M  V30 14683 H 1406.28 0.560822 -1.86657 0
M  V30 14684 H 1405.37 1.99114 -2.40333 0
M  V30 14685 N 1405.67 1.39291 0.737279 0
M  V30 14686 C 1406.95 1.26901 1.48847 0
M  V30 14687 C 1407.33 -0.122417 2.10745 0
M  V30 14688 O 1406.68 -1.13343 1.98408 0
M  V30 14689 C 1406.89 2.3916 2.54172 0
M  V30 14690 C 1408.24 2.78368 3.20619 0
M  V30 14691 O 1409.26 2.38593 2.64484 0
M  V30 14692 O 1408.12 3.47014 4.22189 0
M  V30 14693 H 1405.21 0.497176 0.660867 0
M  V30 14694 H 1407.76 1.51159 0.771299 0
M  V30 14695 H 1406.53 3.3219 2.06797 0
M  V30 14696 H 1406.15 2.16555 3.33451 0
M  V30 14697 N 1407.15 -0.967221 1.24429 0
M  V30 14698 C 1408.08 -2.07966 1.06172 0
M  V30 14699 C 1409.06 -1.70081 -0.0254566 0
M  V30 14700 O 1410.25 -1.93682 0.141705 0
M  V30 14701 C 1407.38 -3.4085 0.666251 0
M  V30 14702 C 1406.33 -3.92692 1.70225 0
M  V30 14703 C 1405.66 -5.21925 1.16183 0
M  V30 14704 C 1406.96 -4.20478 3.09831 0
M  V30 14705 H 1408.65 -2.23497 1.99222 0
M  V30 14706 H 1406.2 -1.07398 0.959255 0
M  V30 14707 H 1408.15 -4.1811 0.52552 0
M  V30 14708 H 1406.87 -3.2522 -0.299939 0
M  V30 14709 H 1405.53 -3.17588 1.83121 0
M  V30 14710 H 1405.18 -5.02655 0.186237 0
M  V30 14711 H 1404.88 -5.57579 1.85416 0
M  V30 14712 H 1406.41 -6.01795 1.03323 0
M  V30 14713 H 1407.82 -4.88442 3.00162 0
M  V30 14714 H 1406.22 -4.67362 3.7642 0
M  V30 14715 H 1407.29 -3.27235 3.57834 0
M  V30 14716 N 1408.63 -1.05812 -1.16797 0
M  V30 14717 C 1409.86 -0.792519 -1.9112 0
M  V30 14718 C 1410.27 0.652549 -1.77164 0
M  V30 14719 O 1409.63 1.44633 -1.113 0
M  V30 14720 C 1409.68 -1.17172 -3.41984 0
M  V30 14721 O 1409.4 -2.56008 -3.55516 0
M  V30 14722 C 1410.9 -0.933162 -4.33367 0
M  V30 14723 H 1408.12 -0.28768 -0.606202 0
M  V30 14724 H 1410.67 -1.41046 -1.48075 0
M  V30 14725 H 1408.82 -0.598413 -3.8275 0
M  V30 14726 H 1409.24 -2.71053 -4.49033 0
M  V30 14727 H 1410.71 -1.24817 -5.37703 0
M  V30 14728 H 1411.19 0.131345 -4.39004 0
M  V30 14729 H 1411.79 -1.49062 -3.98322 0
M  V30 14730 N 1410.11 1.33347 -0.840014 0
M  V30 14731 C 1411.06 2.26668 -0.246093 0
M  V30 14732 C 1412.04 1.49311 0.59958 0
M  V30 14733 O 1413.23 1.71148 0.45136 0
M  V30 14734 C 1410.36 3.38418 0.576924 0
M  V30 14735 C 1409.45 4.23173 -0.280322 0
M  V30 14736 N 1409.84 4.87185 -1.35959 0
M  V30 14737 C 1408.14 4.45949 -0.0675504 0
M  V30 14738 C 1408.84 5.50285 -1.88576 0
M  V30 14739 N 1407.81 5.3048 -1.18707 0
M  V30 14740 H 1411.62 2.73675 -1.0714 0
M  V30 14741 H 1409.13 1.47266 -0.684586 0
M  V30 14742 H 1411.13 4.04262 1.01871 0
M  V30 14743 H 1409.79 2.92958 1.4002 0
M  V30 14744 H 1410.8 4.87707 -1.74248 0
M  V30 14745 H 1407.48 4.11206 0.722188 0
M  V30 14746 H 1408.87 6.11252 -2.78963 0
M  V30 14747 N 1411.59 0.596556 1.45873 0
M  V30 14748 C 1412.83 0.0874583 2.02311 0
M  V30 14749 C 1413.16 -1.27781 1.46636 0
M  V30 14750 O 1412.42 -1.85393 0.62674 0
M  V30 14751 C 1412.71 -0.0135714 3.57397 0
M  V30 14752 C 1412.38 1.28591 4.32175 0
M  V30 14753 C 1411.04 1.6419 4.52322 0
M  V30 14754 C 1413.39 2.14523 4.75005 0
M  V30 14755 C 1410.72 2.85493 5.12553 0
M  V30 14756 C 1413.07 3.35065 5.36577 0
M  V30 14757 C 1411.74 3.70929 5.54949 0
M  V30 14758 H 1411.01 0.0320033 0.740309 0
M  V30 14759 H 1413.66 0.775967 1.75074 0
M  V30 14760 H 1411.96 -0.785287 3.8385 0
M  V30 14761 H 1413.66 -0.423456 3.98758 0
M  V30 14762 H 1410.25 0.99881 4.16799 0
M  V30 14763 H 1414.43 1.88321 4.59183 0
M  V30 14764 H 1409.69 3.134 5.24967 0
M  V30 14765 H 1413.86 4.01909 5.6872 0
M  V30 14766 H 1411.49 4.65011 6.01389 0
M  V30 14767 N 1413.06 -1.53996 0.335095 0
M  V30 14768 C 1414.01 -2.26221 -0.541007 0
M  V30 14769 C 1415.01 -1.28053 -1.109 0
M  V30 14770 O 1416.21 -1.4579 -1.05571 0
M  V30 14771 H 1412.59 -0.726775 -0.193136 0
M  V30 14772 H 1414.56 -2.98263 0.0902792 0
M  V30 14773 C 1413.31 -3.04173 -1.68445 0
M  V30 14774 H 1412.63 -3.79537 -1.25665 0
M  V30 14775 H 1414.07 -3.57937 -2.27282 0
M  V30 14776 C 1412.53 -2.13162 -2.6089 0
M  V30 14777 O 1413.06 -1.7221 -3.62914 0
M  V30 14778 N 1411.26 -1.78414 -2.29384 0
M  V30 14779 H 1410.81 -2.11914 -1.46458 0
M  V30 14780 H 1410.77 -1.178 -2.91497 0
M  V30 14781 N 1414.54 -0.0635198 -1.57472 0
M  V30 14782 C 1415.47 0.93602 -2.09216 0
M  V30 14783 C 1416.49 1.2668 -1.02255 0
M  V30 14784 O 1417.68 1.22543 -1.2979 0
M  V30 14785 C 1414.78 2.25417 -2.53062 0
M  V30 14786 C 1413.95 2.10347 -3.83501 0
M  V30 14787 C 1413.01 3.25394 -4.13528 0
M  V30 14788 O 1412.03 3.00751 -4.83257 0
M  V30 14789 N 1413.24 4.50243 -3.66417 0
M  V30 14790 H 1416 0.494288 -2.95596 0
M  V30 14791 H 1413.56 0.122416 -1.61437 0
M  V30 14792 H 1415.55 3.01272 -2.70217 0
M  V30 14793 H 1414.12 2.61116 -1.71864 0
M  V30 14794 H 1413.34 1.19009 -3.75807 0
M  V30 14795 H 1414.63 1.97519 -4.68896 0
M  V30 14796 H 1414.03 4.73152 -3.1007 0
M  V30 14797 H 1412.59 5.23152 -3.88787 0
M  V30 14798 N 1416.02 1.56195 0.209972 0
M  V30 14799 C 1416.97 1.93355 1.26026 0
M  V30 14800 C 1417.94 0.792195 1.45991 0
M  V30 14801 O 1419.12 1.04909 1.5937 0
M  V30 14802 C 1416.26 2.26558 2.60318 0
M  V30 14803 C 1415.37 3.53685 2.48055 0
M  V30 14804 C 1414.51 3.76279 3.7495 0
M  V30 14805 C 1413.55 4.96881 3.57457 0
M  V30 14806 N 1412.69 5.15806 4.76328 0
M  V30 14807 H 1417.53 2.82907 0.936357 0
M  V30 14808 H 1415.06 1.40015 0.451022 0
M  V30 14809 H 1417.02 2.43821 3.38537 0
M  V30 14810 H 1415.65 1.40165 2.90781 0
M  V30 14811 H 1414.7 3.44551 1.61211 0
M  V30 14812 H 1416.01 4.42057 2.31056 0
M  V30 14813 H 1415.17 3.93702 4.6161 0
M  V30 14814 H 1413.91 2.86209 3.94887 0
M  V30 14815 H 1412.91 4.79397 2.69181 0
M  V30 14816 H 1414.14 5.88447 3.38979 0
M  V30 14817 H 1412.08 4.28681 4.96557 0
M  V30 14818 H 1412 5.98332 4.62099 0
M  V30 14819 H 1413.27 5.37674 5.64382 0
M  V30 14820 N 1417.5 -0.477127 1.50204 0
M  V30 14821 C 1418.43 -1.58405 1.71552 0
M  V30 14822 C 1419.41 -1.60463 0.564413 0
M  V30 14823 O 1420.59 -1.76826 0.802893 0
M  V30 14824 C 1417.72 -2.96765 1.8041 0
M  V30 14825 C 1416.68 -3.09573 2.95548 0
M  V30 14826 C 1416 -4.49522 2.89542 0
M  V30 14827 C 1417.3 -2.87356 4.36147 0
M  V30 14828 H 1419 -1.40792 2.64231 0
M  V30 14829 H 1416.54 -0.675886 1.27153 0
M  V30 14830 H 1418.5 -3.74125 1.9393 0
M  V30 14831 H 1417.22 -3.1552 0.843489 0
M  V30 14832 H 1415.88 -2.34645 2.81669 0
M  V30 14833 H 1415.53 -4.65186 1.91339 0
M  V30 14834 H 1415.23 -4.59028 3.66834 0
M  V30 14835 H 1416.75 -5.28909 3.05102 0
M  V30 14836 H 1418.17 -3.54469 4.50583 0
M  V30 14837 H 1416.56 -3.08313 5.14843 0
M  V30 14838 H 1417.63 -1.83264 4.48935 0
M  V30 14839 N 1418.98 -1.3968 -0.729882 0
M  V30 14840 C 1419.89 -1.41094 -1.87429 0
M  V30 14841 C 1420.9 -0.305142 -1.71303 0
M  V30 14842 O 1422.08 -0.54744 -1.93817 0
M  V30 14843 C 1419.14 -1.25786 -3.23077 0
M  V30 14844 C 1418.2 -2.46382 -3.5156 0
M  V30 14845 C 1417.44 -2.31795 -4.80735 0
M  V30 14846 O 1417.66 -1.32415 -5.54818 0
M  V30 14847 O 1416.59 -3.20883 -5.09232 0
M  V30 14848 H 1420.42 -2.37571 -1.89192 0
M  V30 14849 H 1418.01 -1.2085 -0.878389 0
M  V30 14850 H 1419.89 -1.19402 -4.0413 0
M  V30 14851 H 1418.56 -0.324065 -3.22074 0
M  V30 14852 H 1417.47 -2.58343 -2.70573 0
M  V30 14853 H 1418.8 -3.38473 -3.57347 0
M  V30 14854 N 1420.45 0.960609 -1.2494 0
M  V30 14855 C 1421.7 1.70111 -1.09117 0
M  V30 14856 C 1422.02 1.91466 0.369544 0
M  V30 14857 O 1421.29 1.49749 1.26302 0
M  V30 14858 H 1419.87 0.630372 -0.400799 0
M  V30 14859 H 1422.54 1.15525 -1.56971 0
M  V30 14860 H 1421.63 2.68277 -1.5948 0
M  V30 14861 N 1421.93 1.0643 1.16234 0
M  V30 14862 C 1423.18 0.78184 1.86798 0
M  V30 14863 C 1423.51 -0.691734 1.81784 0
M  V30 14864 O 1422.76 -1.52271 1.22931 0
M  V30 14865 C 1423.06 1.22348 3.35806 0
M  V30 14866 C 1422.73 2.7014 3.61019 0
M  V30 14867 C 1421.39 3.1051 3.6761 0
M  V30 14868 C 1423.74 3.65582 3.71482 0
M  V30 14869 C 1421.07 4.45159 3.82165 0
M  V30 14870 C 1423.42 4.99981 3.87559 0
M  V30 14871 C 1422.09 5.39986 3.92392 0
M  V30 14872 H 1421.36 0.286096 0.683542 0
M  V30 14873 H 1424 1.33364 1.37427 0
M  V30 14874 H 1422.31 0.590896 3.87319 0
M  V30 14875 H 1424 0.981959 3.88791 0
M  V30 14876 H 1420.59 2.37884 3.56524 0
M  V30 14877 H 1424.78 3.35525 3.657 0
M  V30 14878 H 1420.03 4.75637 3.8416 0
M  V30 14879 H 1424.21 5.73817 3.94597 0
M  V30 14880 H 1421.84 6.44324 4.03423 0
M  V30 14881 N 1423.41 -1.329 0.847073 0
M  V30 14882 C 1424.64 -2.0171 0.460497 0
M  V30 14883 C 1425.05 -1.63699 -0.940649 0
M  V30 14884 O 1424.41 -0.854454 -1.61262 0
M  V30 14885 C 1424.46 -3.56799 0.581108 0
M  V30 14886 O 1424.18 -3.93442 1.92705 0
M  V30 14887 C 1425.68 -4.42882 0.192552 0
M  V30 14888 H 1422.9 -0.645887 0.181853 0
M  V30 14889 H 1425.45 -1.69648 1.14192 0
M  V30 14890 H 1423.6 -3.87364 -0.0524924 0
M  V30 14891 H 1424.02 -4.88157 1.91841 0
M  V30 14892 H 1425.49 -5.51025 0.327969 0
M  V30 14893 H 1425.97 -4.30571 -0.866315 0
M  V30 14894 H 1426.57 -4.17691 0.800918 0
M  V30 14895 N 1424.89 -0.604284 -1.45555 0
M  V30 14896 C 1425.82 0.103859 -2.33269 0
M  V30 14897 C 1426.8 0.862104 -1.46635 0
M  V30 14898 O 1427.98 0.833308 -1.75413 0
M  V30 14899 C 1425.11 1.104 -3.29286 0
M  V30 14900 C 1424.07 0.459189 -4.2553 0
M  V30 14901 C 1423.39 1.56734 -5.11213 0
M  V30 14902 C 1424.69 -0.617509 -5.18637 0
M  V30 14903 H 1426.39 -0.628538 -2.92728 0
M  V30 14904 H 1423.93 -0.303711 -1.40761 0
M  V30 14905 H 1425.89 1.60794 -3.89517 0
M  V30 14906 H 1424.61 1.86695 -2.67979 0
M  V30 14907 H 1423.27 -0.0238508 -3.66592 0
M  V30 14908 H 1422.92 2.32049 -4.46276 0
M  V30 14909 H 1422.62 1.14142 -5.76407 0
M  V30 14910 H 1424.14 2.07361 -5.74312 0
M  V30 14911 H 1425.56 -0.197784 -5.72959 0
M  V30 14912 H 1423.95 -0.96499 -5.9229 0
M  V30 14913 H 1425.02 -1.49541 -4.61265 0
M  V30 14914 N 1426.37 1.53816 -0.343257 0
M  V30 14915 C 1427.78 1.86169 0.140709 0
M  V30 14916 C 1428.13 1.26449 1.50017 0
M  V30 14917 O 1427.25 0.577955 2.08539 0
M  V30 14918 C 1427.85 3.37785 0.262097 0
M  V30 14919 C 1426.41 3.70016 0.690294 0
M  V30 14920 C 1425.55 2.7674 -0.17614 0
M  V30 14921 H 1428.51 1.48383 -0.562863 0
M  V30 14922 H 1428.53 3.64564 1.08964 0
M  V30 14923 H 1428.04 3.81221 -0.727481 0
M  V30 14924 H 1426.14 3.32124 1.68891 0
M  V30 14925 H 1426.25 4.76686 0.480388 0
M  V30 14926 H 1424.62 2.52263 0.351476 0
M  V30 14927 H 1425.4 3.23006 -1.16285 0
M  V30 14928 N 1427.84 0.0718701 1.57436 0
M  V30 14929 C 1429.26 -0.28476 1.57039 0
M  V30 14930 C 1429.46 -1.70032 1.08127 0
M  V30 14931 O 1428.52 -2.41191 0.747189 0
M  V30 14932 C 1429.83 -0.0943482 3.00552 0
M  V30 14933 C 1431.38 -0.163879 3.12571 0
M  V30 14934 C 1431.85 -0.00174658 4.58 0
M  V30 14935 N 1433.34 -0.0573489 4.63164 0
M  V30 14936 C 1434.08 0.0436849 5.73383 0
M  V30 14937 N 1433.57 0.198243 6.92516 0
M  V30 14938 N 1435.37 -0.0133856 5.62098 0
M  V30 14939 H 1427.52 0.99702 1.87545 0
M  V30 14940 H 1429.78 0.388822 0.864593 0
M  V30 14941 H 1429.49 0.882445 3.40449 0
M  V30 14942 H 1429.36 -0.846636 3.67576 0
M  V30 14943 H 1431.75 -1.13116 2.7256 0
M  V30 14944 H 1431.83 0.619513 2.48185 0
M  V30 14945 H 1431.47 0.9623 4.98701 0
M  V30 14946 H 1431.4 -0.804543 5.20418 0
M  V30 14947 H 1433.89 -0.175212 3.77494 0
M  V30 14948 H 1434.21 0.267479 7.72337 0
M  V30 14949 H 1432.55 0.233606 6.94607 0
M  V30 14950 H 1435.74 -0.132835 4.67911 0
M  V30 14951 H 1435.92 0.0688076 6.47963 0
M  V30 14952 N 1429.32 -1.56304 -0.201686 0
M  V30 14953 C 1430.56 -1.82021 -0.929934 0
M  V30 14954 C 1430.93 -0.648382 -1.80721 0
M  V30 14955 O 1432.13 -0.785292 -2.57073 0
M  V30 14956 C 1430.4 -3.12731 -1.73014 0
M  V30 14957 S 1431.96 -3.59831 -2.51131 0
M  V30 14958 H 1428.78 -0.638874 -0.312027 0
M  V30 14959 H 1431.38 -1.94536 -0.193861 0
M  V30 14960 H 1430.08 -3.96039 -1.07616 0
M  V30 14961 H 1429.61 -3.03076 -2.50816 0
M  V30 14962 H 1431.63 -3.24744 -3.75174 0
M  V30 14963 N 1430.8 0.469154 -1.50455 0
M  V30 14964 C 1432.05 1.22002 -1.62748 0
M  V30 14965 C 1432.4 1.89642 -0.324611 0
M  V30 14966 O 1431.69 1.79218 0.677597 0
M  V30 14967 C 1431.89 2.28673 -2.7467 0
M  V30 14968 C 1431.72 1.71498 -4.15714 0
M  V30 14969 C 1430.49 1.51386 -4.8209 0
M  V30 14970 C 1432.69 1.20886 -4.99891 0
M  V30 14971 N 1430.67 0.894745 -6.07345 0
M  V30 14972 C 1432.04 0.713084 -6.15886 0
M  V30 14973 C 1434.09 1.09759 -4.85652 0
M  V30 14974 C 1432.8 0.117016 -7.19205 0
M  V30 14975 C 1434.82 0.515452 -5.89149 0
M  V30 14976 C 1434.18 0.0300686 -7.04394 0
M  V30 14977 H 1430.28 0.435249 -0.649679 0
M  V30 14978 H 1432.87 0.521706 -1.8758 0
M  V30 14979 H 1431.04 2.95929 -2.51557 0
M  V30 14980 H 1432.77 2.95693 -2.76311 0
M  V30 14981 H 1429.53 1.76665 -4.39416 0
M  V30 14982 H 1429.95 0.603547 -6.74304 0
M  V30 14983 H 1434.59 1.45878 -3.96837 0
M  V30 14984 H 1432.31 -0.256378 -8.07693 0
M  V30 14985 H 1435.9 0.431698 -5.80196 0
M  V30 14986 H 1434.78 -0.413327 -7.8311 0
M  V30 14987 N 1432.28 1.40065 0.722464 0
M  V30 14988 C 1433.19 1.42086 1.86678 0
M  V30 14989 C 1434.2 0.314223 1.71139 0
M  V30 14990 O 1435.38 0.55771 1.93524 0
M  V30 14991 C 1432.45 1.27498 3.22405 0
M  V30 14992 C 1431.51 2.48243 3.50248 0
M  V30 14993 C 1430.74 2.34342 4.79499 0
M  V30 14994 O 1430.96 1.35355 5.54108 0
M  V30 14995 O 1429.9 3.23579 5.07523 0
M  V30 14996 H 1433.72 2.38571 1.87929 0
M  V30 14997 H 1431.31 1.21314 0.871968 0
M  V30 14998 H 1433.19 1.21543 4.03491 0
M  V30 14999 H 1431.86 0.341141 3.21897 0
M  V30 15000 H 1430.77 2.59775 2.69199 0
M  V30 15001 H 1432.1 3.40364 3.55547 0
M  V30 15002 N 1433.76 -0.95397 1.25448 0
M  V30 15003 C 1434.67 -2.08452 1.07634 0
M  V30 15004 C 1435.68 -1.73995 0.013294 0
M  V30 15005 O 1436.86 -2.00256 0.214367 0
M  V30 15006 C 1433.92 -3.39606 0.697756 0
M  V30 15007 C 1432.99 -3.87926 1.83881 0
M  V30 15008 C 1432.22 -5.12821 1.47819 0
M  V30 15009 O 1432.44 -5.69172 0.374143 0
M  V30 15010 O 1431.38 -5.55866 2.3086 0
M  V30 15011 H 1435.2 -2.26382 2.02447 0
M  V30 15012 H 1432.79 -1.06877 1.04392 0
M  V30 15013 H 1434.67 -4.18438 0.498778 0
M  V30 15014 H 1433.34 -3.22944 -0.221108 0
M  V30 15015 H 1432.25 -3.10095 2.09265 0
M  V30 15016 H 1433.58 -4.09087 2.73694 0
M  V30 15017 N 1435.24 -1.07045 -1.15668 0
M  V30 15018 C 1436.48 -0.801045 -1.8805 0
M  V30 15019 C 1436.84 0.660714 -1.80274 0
M  V30 15020 O 1438.04 1.04503 -2.47654 0
M  V30 15021 C 1436.31 -1.2914 -3.33253 0
M  V30 15022 S 1437.87 -1.15221 -4.23402 0
M  V30 15023 H 1434.69 -0.29037 -0.649004 0
M  V30 15024 H 1437.29 -1.36892 -1.39574 0
M  V30 15025 H 1435.99 -2.35003 -3.36455 0
M  V30 15026 H 1435.53 -0.718605 -3.86781 0
M  V30 15027 H 1437.54 -0.087806 -4.96122 0
M  V30 15028 N 1436.71 1.32449 -0.85411 0
M  V30 15029 C 1437.64 2.31383 -0.313697 0
M  V30 15030 C 1438.62 1.59656 0.586858 0
M  V30 15031 O 1439.81 1.87459 0.507216 0
M  V30 15032 C 1436.94 3.43693 0.499235 0
M  V30 15033 C 1435.89 4.26899 -0.306839 0
M  V30 15034 C 1435.22 5.30966 0.630795 0
M  V30 15035 C 1436.52 4.99318 -1.53229 0
M  V30 15036 H 1438.21 2.76832 -1.14037 0
M  V30 15037 H 1435.76 1.33091 -0.549805 0
M  V30 15038 H 1437.71 4.11944 0.887709 0
M  V30 15039 H 1436.44 2.96971 1.35926 0
M  V30 15040 H 1435.1 3.60294 -0.677061 0
M  V30 15041 H 1434.74 4.80498 1.48765 0
M  V30 15042 H 1434.44 5.87522 0.0954635 0
M  V30 15043 H 1435.97 6.0208 1.01646 0
M  V30 15044 H 1437.38 5.60253 -1.21614 0
M  V30 15045 H 1435.78 5.65596 -2.00552 0
M  V30 15046 H 1436.85 4.27213 -2.29383 0
M  V30 15047 N 1438.19 0.611994 1.45232 0
M  V30 15048 C 1439.15 -0.0943825 2.29006 0
M  V30 15049 C 1440.15 -0.790863 1.40007 0
M  V30 15050 O 1441.34 -0.638356 1.62082 0
M  V30 15051 C 1438.48 -1.1439 3.21135 0
M  V30 15052 H 1439.67 0.6422 2.92943 0
M  V30 15053 H 1437.22 0.37124 1.51827 0
M  V30 15054 H 1437.96 -1.9111 2.62007 0
M  V30 15055 H 1437.74 -0.648638 3.86698 0
M  V30 15056 H 1439.23 -1.63848 3.84114 0
M  V30 15057 N 1439.67 -1.53632 0.351409 0
M  V30 15058 C 1440.89 -2.0593 -0.246501 0
M  V30 15059 C 1441.32 -1.22419 -1.42812 0
M  V30 15060 O 1440.68 -0.239811 -1.79707 0
M  V30 15061 C 1440.73 -3.55021 -0.631862 0
M  V30 15062 O 1439.83 -3.74317 -1.73092 0
M  V30 15063 H 1439.17 -0.662839 -0.0392424 0
M  V30 15064 H 1441.7 -1.98196 0.507904 0
M  V30 15065 H 1441.71 -3.97795 -0.906831 0
M  V30 15066 H 1440.39 -4.15251 0.232224 0
M  V30 15067 H 1438.96 -3.43444 -1.4526 0
M  V30 15068 N 1441.15 -0.0802183 -1.57396 0
M  V30 15069 C 1442.37 0.599179 -1.98556 0
M  V30 15070 C 1442.8 1.61844 -0.958555 0
M  V30 15071 O 1442.16 1.81146 0.0748226 0
M  V30 15072 C 1442.2 1.23675 -3.38728 0
M  V30 15073 O 1441.31 2.35262 -3.38712 0
M  V30 15074 H 1440.65 0.153366 -0.646045 0
M  V30 15075 H 1443.18 -0.157227 -2.03995 0
M  V30 15076 H 1443.19 1.5816 -3.76098 0
M  V30 15077 H 1441.86 0.489946 -4.13004 0
M  V30 15078 H 1440.44 2.02507 -3.13122 0
M  V30 15079 N 1442.63 1.56409 0.193394 0
M  V30 15080 C 1443.56 1.91211 1.26377 0
M  V30 15081 C 1444.57 0.802944 1.41622 0
M  V30 15082 O 1445.76 1.08136 1.42017 0
M  V30 15083 C 1442.86 2.13039 2.63567 0
M  V30 15084 C 1442.03 3.44192 2.69909 0
M  V30 15085 C 1441.09 3.55111 3.88307 0
M  V30 15086 O 1440.12 4.2792 3.75331 0
M  V30 15087 N 1441.32 2.88325 5.03834 0
M  V30 15088 H 1444.08 2.83624 0.968383 0
M  V30 15089 H 1441.65 1.57297 0.383302 0
M  V30 15090 H 1443.64 2.1763 3.41202 0
M  V30 15091 H 1442.21 1.27116 2.85588 0
M  V30 15092 H 1441.43 3.51452 1.78535 0
M  V30 15093 H 1442.72 4.30536 2.71139 0
M  V30 15094 H 1442.11 2.29003 5.17276 0
M  V30 15095 H 1440.67 2.98542 5.7941 0
M  V30 15096 N 1444.1 -0.461169 1.50702 0
M  V30 15097 C 1445.33 -1.23375 1.65717 0
M  V30 15098 C 1445.74 -1.86047 0.343992 0
M  V30 15099 O 1445.08 -1.70447 -0.68508 0
M  V30 15100 C 1445.15 -2.3758 2.69808 0
M  V30 15101 C 1444.81 -1.95467 4.13088 0
M  V30 15102 C 1445.81 -1.47154 4.9864 0
M  V30 15103 C 1443.49 -2.03885 4.5906 0
M  V30 15104 C 1445.49 -1.07815 6.28215 0
M  V30 15105 C 1443.17 -1.64157 5.88639 0
M  V30 15106 C 1444.17 -1.16201 6.73043 0
M  V30 15107 O 1443.86 -0.770282 8.00201 0
M  V30 15108 H 1443.59 -0.378885 0.559841 0
M  V30 15109 H 1446.15 -0.555712 1.9774 0
M  V30 15110 H 1444.38 -3.08586 2.33049 0
M  V30 15111 H 1446.06 -2.99517 2.73942 0
M  V30 15112 H 1446.83 -1.40064 4.64335 0
M  V30 15113 H 1442.71 -2.40159 3.93503 0
M  V30 15114 H 1446.25 -0.703139 6.94047 0
M  V30 15115 H 1442.15 -1.70909 6.22463 0
M  V30 15116 H 1442.92 -0.898254 8.13556 0
M  V30 15117 N 1445.58 -1.40446 -0.715026 0
M  V30 15118 C 1446.53 -1.37235 -1.82073 0
M  V30 15119 C 1447.52 -0.249808 -1.58949 0
M  V30 15120 O 1448.71 -0.488958 -1.70112 0
M  V30 15121 C 1445.84 -1.23786 -3.20206 0
M  V30 15122 C 1444.92 -2.40824 -3.49091 0
M  V30 15123 N 1445.31 -3.66305 -3.4879 0
M  V30 15124 C 1443.61 -2.34215 -3.79551 0
M  V30 15125 C 1444.31 -4.43817 -3.76034 0
M  V30 15126 N 1443.29 -3.73664 -3.94811 0
M  V30 15127 H 1447.09 -2.32195 -1.80174 0
M  V30 15128 H 1444.6 -1.34226 -0.914175 0
M  V30 15129 H 1446.6 -1.19568 -3.99386 0
M  V30 15130 H 1445.26 -0.297938 -3.2333 0
M  V30 15131 H 1446.27 -3.99458 -3.29626 0
M  V30 15132 H 1442.95 -1.48592 -3.90162 0
M  V30 15133 H 1444.34 -5.52674 -3.82101 0
M  V30 15134 N 1447.06 0.947303 -1.25952 0
M  V30 15135 C 1448.02 2.02667 -1.07046 0
M  V30 15136 C 1449.02 1.60787 -0.0208127 0
M  V30 15137 O 1450.21 1.72193 -0.263668 0
M  V30 15138 C 1447.34 3.35087 -0.626885 0
M  V30 15139 H 1448.54 2.20871 -2.0287 0
M  V30 15140 H 1446.09 1.12541 -1.08462 0
M  V30 15141 H 1446.83 3.22579 0.333621 0
M  V30 15142 H 1446.61 3.66835 -1.38473 0
M  V30 15143 H 1448.1 4.14397 -0.516264 0
M  V30 15144 N 1448.54 1.07657 1.15099 0
M  V30 15145 C 1449.95 0.802696 1.37945 0
M  V30 15146 C 1450.15 -0.591622 1.92619 0
M  V30 15147 O 1449.21 -1.34979 2.13394 0
M  V30 15148 C 1450.52 1.87907 2.34759 0
M  V30 15149 C 1452.07 1.90418 2.48415 0
M  V30 15150 C 1452.55 2.97148 3.48521 0
M  V30 15151 N 1454.04 2.96271 3.56059 0
M  V30 15152 C 1454.77 3.75498 4.33346 0
M  V30 15153 N 1454.27 4.64583 5.1394 0
M  V30 15154 N 1456.06 3.63831 4.28466 0
M  V30 15155 H 1448.21 1.97578 0.779537 0
M  V30 15156 H 1450.48 0.856978 0.405331 0
M  V30 15157 H 1450.18 2.8811 2.01707 0
M  V30 15158 H 1450.06 1.74183 3.34575 0
M  V30 15159 H 1452.44 0.908655 2.80762 0
M  V30 15160 H 1452.52 2.0822 1.48586 0
M  V30 15161 H 1452.17 3.96903 3.16908 0
M  V30 15162 H 1452.1 2.76593 4.48112 0
M  V30 15163 H 1454.59 2.31697 2.98538 0
M  V30 15164 H 1454.9 5.2166 5.70167 0
M  V30 15165 H 1453.25 4.6863 5.13236 0
M  V30 15166 H 1456.44 2.93609 3.6457 0
M  V30 15167 H 1456.61 4.25818 4.8845 0
M  V30 15168 N 1450.02 -1.31994 0.861122 0
M  V30 15169 C 1450.96 -2.28729 0.308476 0
M  V30 15170 C 1451.93 -1.55338 -0.588148 0
M  V30 15171 O 1453.12 -1.8353 -0.52168 0
M  V30 15172 C 1450.26 -3.4158 -0.491621 0
M  V30 15173 C 1449.37 -4.29839 0.431522 0
M  V30 15174 C 1448.51 -5.29826 -0.381836 0
M  V30 15175 C 1447.55 -6.09728 0.538296 0
M  V30 15176 N 1446.68 -7.01696 -0.238274 0
M  V30 15177 H 1451.52 -2.75389 1.13863 0
M  V30 15178 H 1449.06 -1.35485 0.572911 0
M  V30 15179 H 1451.02 -4.05738 -0.971193 0
M  V30 15180 H 1449.65 -2.96054 -1.28654 0
M  V30 15181 H 1448.7 -3.66204 1.02951 0
M  V30 15182 H 1450.01 -4.85658 1.13742 0
M  V30 15183 H 1449.17 -5.99618 -0.924297 0
M  V30 15184 H 1447.9 -4.7464 -1.12107 0
M  V30 15185 H 1446.91 -5.38834 1.09259 0
M  V30 15186 H 1448.13 -6.67 1.27625 0
M  V30 15187 H 1446.08 -6.4893 -0.960486 0
M  V30 15188 H 1446 -7.54896 0.408466 0
M  V30 15189 H 1447.27 -7.75764 -0.762252 0
M  V30 15190 N 1451.49 -0.619688 -1.44906 0
M  V30 15191 C 1452.72 -0.124598 -2.07025 0
M  V30 15192 C 1453.14 1.18698 -1.45919 0
M  V30 15193 O 1452.5 1.72552 -0.556366 0
M  V30 15194 C 1452.55 -0.0112238 -3.60598 0
M  V30 15195 O 1451.65 1.03582 -3.9918 0
M  V30 15196 H 1451 -0.0795631 -0.659216 0
M  V30 15197 H 1453.53 -0.853127 -1.85965 0
M  V30 15198 H 1453.54 0.183079 -4.07589 0
M  V30 15199 H 1452.21 -0.968849 -4.04458 0
M  V30 15200 H 1450.79 0.817008 -3.6384 0
M  V30 15201 N 1452.97 1.53444 -0.359552 0
M  V30 15202 C 1453.88 2.29257 0.497834 0
M  V30 15203 C 1454.9 1.34987 1.09793 0
M  V30 15204 O 1456.07 1.68039 1.11017 0
M  V30 15205 C 1453.14 3.06258 1.62502 0
M  V30 15206 C 1452.2 4.16183 1.05308 0
M  V30 15207 C 1451.43 4.89503 2.12655 0
M  V30 15208 O 1451.66 4.6263 3.33661 0
M  V30 15209 O 1450.59 5.75578 1.76051 0
M  V30 15210 H 1454.42 3.03467 -0.118925 0
M  V30 15211 H 1452 1.48884 -0.124111 0
M  V30 15212 H 1453.88 3.5436 2.2805 0
M  V30 15213 H 1452.56 2.3489 2.22729 0
M  V30 15214 H 1451.47 3.72348 0.361679 0
M  V30 15215 H 1452.8 4.897 0.49545 0
M  V30 15216 N 1454.45 0.0885642 1.57351 0
M  V30 15217 C 1455.7 -0.57753 1.94403 0
M  V30 15218 C 1456.03 -1.68238 0.970029 0
M  V30 15219 O 1455.3 -1.945 0.00198684 0
M  V30 15220 C 1455.59 -1.13882 3.41618 0
M  V30 15221 C 1455.44 -0.0394686 4.49783 0
M  V30 15222 C 1456.76 -2.03922 3.90005 0
M  V30 15223 H 1453.88 -0.208468 0.706902 0
M  V30 15224 H 1456.52 0.157945 1.89342 0
M  V30 15225 H 1454.67 -1.76561 3.46061 0
M  V30 15226 H 1456.34 0.594458 4.57454 0
M  V30 15227 H 1454.59 0.627775 4.29234 0
M  V30 15228 H 1455.26 -0.472897 5.49971 0
M  V30 15229 H 1457.73 -1.51156 3.87674 0
M  V30 15230 H 1456.61 -2.40123 4.93591 0
M  V30 15231 H 1456.87 -2.95407 3.28918 0
M  V30 15232 N 1455.93 -1.56509 -0.185096 0
M  V30 15233 C 1457.21 -1.72055 -0.930398 0
M  V30 15234 C 1457.59 -0.646145 -2.00968 0
M  V30 15235 O 1456.93 0.34129 -2.25937 0
M  V30 15236 C 1457.14 -3.14752 -1.50771 0
M  V30 15237 C 1458.49 -3.75292 -1.98597 0
M  V30 15238 O 1459.52 -3.17944 -1.60593 0
M  V30 15239 O 1458.37 -4.7596 -2.68561 0
M  V30 15240 H 1455.47 -0.702118 -0.436989 0
M  V30 15241 H 1458.01 -1.68806 -0.174007 0
M  V30 15242 H 1456.79 -3.84426 -0.730236 0
M  V30 15243 H 1456.41 -3.22272 -2.32866 0
M  V30 15244 N 1457.41 0.45317 -1.50944 0
M  V30 15245 C 1458.35 1.54885 -1.71112 0
M  V30 15246 C 1459.32 1.56639 -0.552566 0
M  V30 15247 O 1460.51 1.73894 -0.785203 0
M  V30 15248 C 1457.65 2.92729 -1.82766 0
M  V30 15249 C 1456.76 3.00626 -3.10239 0
M  V30 15250 C 1455.9 4.29495 -3.12582 0
M  V30 15251 C 1454.94 4.312 -4.34434 0
M  V30 15252 N 1454.07 5.51568 -4.34415 0
M  V30 15253 H 1458.91 1.36992 -2.64645 0
M  V30 15254 H 1456.45 0.665753 -1.31172 0
M  V30 15255 H 1458.41 3.7269 -1.87505 0
M  V30 15256 H 1457.04 3.09216 -0.926561 0
M  V30 15257 H 1456.09 2.13426 -3.14886 0
M  V30 15258 H 1457.4 2.97746 -4.00186 0
M  V30 15259 H 1456.56 5.17817 -3.16149 0
M  V30 15260 H 1455.29 4.35009 -2.20496 0
M  V30 15261 H 1454.3 3.41272 -4.3106 0
M  V30 15262 H 1455.52 4.27363 -5.27767 0
M  V30 15263 H 1453.47 5.57834 -3.45192 0
M  V30 15264 H 1453.39 5.50504 -5.18152 0
M  V30 15265 H 1454.66 6.41966 -4.42153 0
M  V30 15266 N 1458.88 1.40823 0.707568 0
M  V30 15267 C 1460.13 1.39535 1.46753 0
M  V30 15268 C 1460.46 0.000370511 1.945 0
M  V30 15269 O 1459.71 -0.985628 1.69068 0
M  V30 15270 C 1460.01 2.33829 2.70294 0
M  V30 15271 C 1459.68 3.8092 2.41269 0
M  V30 15272 C 1458.34 4.20993 2.33063 0
M  V30 15273 C 1460.69 4.73839 2.17086 0
M  V30 15274 C 1458.02 5.52009 1.98754 0
M  V30 15275 C 1460.37 6.05161 1.84289 0
M  V30 15276 C 1459.04 6.44268 1.74571 0
M  V30 15277 H 1458.31 0.510593 0.537006 0
M  V30 15278 H 1460.95 1.73536 0.809789 0
M  V30 15279 H 1459.26 1.9304 3.40944 0
M  V30 15280 H 1460.96 2.30111 3.28405 0
M  V30 15281 H 1457.55 3.49175 2.48545 0
M  V30 15282 H 1461.73 4.43691 2.22377 0
M  V30 15283 H 1456.99 5.81202 1.89774 0
M  V30 15284 H 1461.16 6.7667 1.64593 0
M  V30 15285 H 1458.79 7.45703 1.47753 0
M  V30 15286 N 1460.36 -0.94061 1.26453 0
M  V30 15287 C 1461.31 -2.06073 1.07873 0
M  V30 15288 C 1462.3 -1.69399 0.0055001 0
M  V30 15289 O 1463.51 -1.79267 0.162224 0
M  V30 15290 H 1459.89 -0.674748 0.331993 0
M  V30 15291 H 1461.86 -2.18895 2.02799 0
M  V30 15292 C 1460.61 -3.39971 0.729054 0
M  V30 15293 H 1459.93 -3.68667 1.54675 0
M  V30 15294 H 1461.37 -4.1916 0.638844 0
M  V30 15295 C 1459.83 -3.32114 -0.565835 0
M  V30 15296 O 1460.36 -3.68287 -1.60399 0
M  V30 15297 N 1458.56 -2.85218 -0.556679 0
M  V30 15298 H 1458.11 -2.55979 0.288541 0
M  V30 15299 H 1458.07 -2.80344 -1.42318 0
M  V30 15300 N 1461.84 -1.08266 -1.14527 0
M  V30 15301 C 1462.79 -0.711332 -2.19565 0
M  V30 15302 C 1463.76 0.301774 -1.63336 0
M  V30 15303 O 1464.94 0.186109 -1.8989 0
M  V30 15304 C 1462.08 -0.125255 -3.44873 0
M  V30 15305 C 1461.2 -1.19096 -4.15259 0
M  V30 15306 C 1460.33 -0.568901 -5.28145 0
M  V30 15307 C 1459.37 -1.61675 -5.90362 0
M  V30 15308 N 1458.51 -1.01659 -6.94701 0
M  V30 15309 H 1463.35 -1.61137 -2.50677 0
M  V30 15310 H 1460.88 -0.805286 -1.231 0
M  V30 15311 H 1462.84 0.232247 -4.16553 0
M  V30 15312 H 1461.47 0.738101 -3.14248 0
M  V30 15313 H 1460.52 -1.66591 -3.41982 0
M  V30 15314 H 1461.84 -1.98508 -4.57598 0
M  V30 15315 H 1460.99 -0.159563 -6.0649 0
M  V30 15316 H 1459.73 0.256884 -4.87023 0
M  V30 15317 H 1458.73 -2.03576 -5.10722 0
M  V30 15318 H 1459.96 -2.44498 -6.33559 0
M  V30 15319 H 1457.9 -0.211872 -6.55658 0
M  V30 15320 H 1457.82 -1.74781 -7.35518 0
M  V30 15321 H 1459.09 -0.63306 -7.76925 0
M  V30 15322 N 1463.32 1.31536 -0.86811 0
M  V30 15323 C 1464.23 2.32326 -0.32588 0
M  V30 15324 C 1465.25 1.64632 0.563243 0
M  V30 15325 O 1466.42 1.96067 0.460403 0
M  V30 15326 C 1463.49 3.43562 0.46539 0
M  V30 15327 C 1462.55 4.26919 -0.451472 0
M  V30 15328 C 1461.78 5.32844 0.302129 0
M  V30 15329 O 1462 5.49485 1.53045 0
M  V30 15330 O 1460.94 6.00944 -0.339048 0
M  V30 15331 H 1464.76 2.80622 -1.16126 0
M  V30 15332 H 1462.35 1.35401 -0.631428 0
M  V30 15333 H 1464.23 4.11368 0.914028 0
M  V30 15334 H 1462.91 2.97432 1.27734 0
M  V30 15335 H 1461.81 3.61874 -0.948571 0
M  V30 15336 H 1463.15 4.7661 -1.22897 0
M  V30 15337 N 1464.8 0.627364 1.44575 0
M  V30 15338 C 1465.75 -0.0920488 2.32418 0
M  V30 15339 C 1466.74 -0.839633 1.47128 0
M  V30 15340 O 1467.95 -0.752958 1.63495 0
M  V30 15341 H 1464.32 -0.0485336 0.750432 0
M  V30 15342 H 1466.29 0.666959 2.90851 0
M  V30 15343 C 1465.04 -1.06262 3.31064 0
M  V30 15344 H 1464.36 -0.4968 3.96701 0
M  V30 15345 H 1465.8 -1.53556 3.95217 0
M  V30 15346 C 1464.26 -2.14601 2.59707 0
M  V30 15347 O 1464.79 -3.2263 2.39317 0
M  V30 15348 N 1463 -1.90431 2.19509 0
M  V30 15349 H 1462.55 -1.02584 2.36293 0
M  V30 15350 H 1462.5 -2.6312 1.72091 0
M  V30 15351 N 1466.28 -1.53251 0.367684 0
M  V30 15352 C 1467.52 -2.03197 -0.221396 0
M  V30 15353 C 1467.88 -1.249 -1.45822 0
M  V30 15354 O 1469.08 -1.64863 -2.12306 0
M  V30 15355 C 1467.35 -3.53827 -0.504134 0
M  V30 15356 S 1468.91 -4.2564 -1.06658 0
M  V30 15357 H 1465.73 -0.708089 -0.0642774 0
M  V30 15358 H 1468.33 -1.88703 0.511037 0
M  V30 15359 H 1467.03 -4.08412 0.403477 0
M  V30 15360 H 1466.57 -3.72487 -1.26558 0
M  V30 15361 H 1468.58 -4.36987 -2.35068 0
M  V30 15362 N 1467.75 -0.0969077 -1.57302 0
M  V30 15363 C 1469 0.561074 -1.95508 0
M  V30 15364 C 1469.35 1.6568 -0.97816 0
M  V30 15365 O 1468.65 1.91599 -0.00445428 0
M  V30 15366 C 1468.84 1.15972 -3.38061 0
M  V30 15367 C 1468.67 0.123524 -4.4953 0
M  V30 15368 C 1467.44 -0.30062 -5.04405 0
M  V30 15369 C 1469.64 -0.649001 -5.10189 0
M  V30 15370 N 1467.62 -1.3249 -5.99433 0
M  V30 15371 C 1468.99 -1.52506 -6.00951 0
M  V30 15372 C 1471.05 -0.70232 -4.92922 0
M  V30 15373 C 1469.75 -2.44976 -6.76298 0
M  V30 15374 C 1471.78 -1.61463 -5.68932 0
M  V30 15375 C 1471.14 -2.47831 -6.59363 0
M  V30 15376 H 1467.24 0.175591 -0.762031 0
M  V30 15377 H 1469.82 -0.179896 -1.93867 0
M  V30 15378 H 1467.99 1.87051 -3.40392 0
M  V30 15379 H 1469.72 1.78022 -3.63442 0
M  V30 15380 H 1466.48 0.0874763 -4.73519 0
M  V30 15381 H 1466.9 -1.8353 -6.51648 0
M  V30 15382 H 1471.54 -0.0487412 -4.22772 0
M  V30 15383 H 1469.26 -3.11358 -7.45709 0
M  V30 15384 H 1472.85 -1.66104 -5.57585 0
M  V30 15385 H 1471.73 -3.17278 -7.1715 0
M  V30 15386 N 1469.23 1.56605 0.176793 0
M  V30 15387 C 1470.18 1.95985 1.21896 0
M  V30 15388 C 1471.15 0.822983 1.44278 0
M  V30 15389 O 1472.33 1.08266 1.57109 0
M  V30 15390 C 1469.47 2.32029 2.55454 0
M  V30 15391 C 1468.59 3.58867 2.40497 0
M  V30 15392 C 1467.72 3.84148 3.66884 0
M  V30 15393 C 1466.76 5.04352 3.46837 0
M  V30 15394 N 1465.9 5.25794 4.6528 0
M  V30 15395 H 1470.74 2.84829 0.876137 0
M  V30 15396 H 1468.27 1.4094 0.421221 0
M  V30 15397 H 1470.23 2.50947 3.33289 0
M  V30 15398 H 1468.86 1.46301 2.87743 0
M  V30 15399 H 1467.91 3.47893 1.53866 0
M  V30 15400 H 1469.23 4.46859 2.21627 0
M  V30 15401 H 1468.38 4.03404 4.53155 0
M  V30 15402 H 1467.12 2.9452 3.88727 0
M  V30 15403 H 1466.12 4.84999 2.58952 0
M  V30 15404 H 1467.35 5.95505 3.26421 0
M  V30 15405 H 1465.3 4.39117 4.87352 0
M  V30 15406 H 1465.21 6.07999 4.49303 0
M  V30 15407 H 1466.48 5.49524 5.5285 0
M  V30 15408 N 1470.71 -0.445159 1.51182 0
M  V30 15409 C 1471.66 -1.53975 1.71931 0
M  V30 15410 C 1472.63 -1.56344 0.560865 0
M  V30 15411 O 1473.81 -1.73475 0.794414 0
M  V30 15412 C 1470.95 -2.91756 1.84316 0
M  V30 15413 C 1470.06 -2.98976 3.11829 0
M  V30 15414 C 1469.2 -4.27831 3.14855 0
M  V30 15415 C 1468.24 -4.2889 4.36715 0
M  V30 15416 N 1467.38 -5.49257 4.37334 0
M  V30 15417 H 1472.22 -1.35586 2.65368 0
M  V30 15418 H 1469.75 -0.658787 1.31523 0
M  V30 15419 H 1471.71 -3.7169 1.89479 0
M  V30 15420 H 1470.34 -3.08721 0.942947 0
M  V30 15421 H 1469.39 -2.11753 3.16014 0
M  V30 15422 H 1470.7 -2.95619 4.01759 0
M  V30 15423 H 1469.86 -5.16134 3.1889 0
M  V30 15424 H 1468.6 -4.33833 2.228 0
M  V30 15425 H 1467.6 -3.38982 4.32864 0
M  V30 15426 H 1468.83 -4.24558 5.30026 0
M  V30 15427 H 1466.77 -5.55995 3.48145 0
M  V30 15428 H 1466.69 -5.47748 5.21064 0
M  V30 15429 H 1467.96 -6.39613 4.45551 0
M  V30 15430 N 1472.19 -1.41197 -0.700089 0
M  V30 15431 C 1473.6 -1.23567 -1.01012 0
M  V30 15432 C 1473.8 -0.121821 -2.01131 0
M  V30 15433 O 1472.86 0.515258 -2.47187 0
M  V30 15434 C 1474.17 -2.58329 -1.53904 0
M  V30 15435 C 1475.72 -2.65473 -1.65811 0
M  V30 15436 C 1476.2 -4.00541 -2.22106 0
M  V30 15437 N 1477.69 -4.02364 -2.29472 0
M  V30 15438 C 1478.42 -5.03672 -2.74048 0
M  V30 15439 N 1477.92 -6.15371 -3.18262 0
M  V30 15440 N 1479.71 -4.91035 -2.73571 0
M  V30 15441 H 1471.86 -2.12368 -0.0367488 0
M  V30 15442 H 1474.12 -0.944713 -0.0788795 0
M  V30 15443 H 1473.83 -3.40565 -0.877964 0
M  V30 15444 H 1473.7 -2.805 -2.5219 0
M  V30 15445 H 1476.09 -1.83598 -2.31032 0
M  V30 15446 H 1476.17 -2.47117 -0.660831 0
M  V30 15447 H 1475.82 -4.82862 -1.57502 0
M  V30 15448 H 1475.75 -4.16235 -3.22577 0
M  V30 15449 H 1478.24 -3.21713 -1.98265 0
M  V30 15450 H 1478.55 -6.88548 -3.50888 0
M  V30 15451 H 1476.9 -6.18914 -3.16182 0
M  V30 15452 H 1480.09 -4.02858 -2.38376 0
M  V30 15453 H 1480.26 -5.70127 -3.07993 0
M  V30 15454 N 1473.67 0.933891 -1.2695 0
M  V30 15455 C 1474.91 1.67759 -1.12701 0
M  V30 15456 C 1475.23 1.92207 0.328848 0
M  V30 15457 O 1474.5 1.52394 1.23097 0
M  V30 15458 H 1473.08 0.621729 -0.41408 0
M  V30 15459 H 1475.75 1.1217 -1.59386 0
M  V30 15460 H 1474.84 2.64834 -1.65135 0
M  V30 15461 N 1475.14 1.08871 1.13951 0
M  V30 15462 C 1476.07 0.744715 2.21306 0
M  V30 15463 C 1477.05 -0.275019 1.67862 0
M  V30 15464 O 1478.24 -0.144339 1.93663 0
M  V30 15465 C 1475.37 0.158336 3.46939 0
M  V30 15466 C 1474.32 1.10695 4.13438 0
M  V30 15467 C 1473.65 0.382552 5.3333 0
M  V30 15468 C 1474.95 2.44704 4.61429 0
M  V30 15469 H 1476.64 1.6423 2.50337 0
M  V30 15470 H 1474.19 0.791088 1.20324 0
M  V30 15471 H 1476.14 -0.0943587 4.21294 0
M  V30 15472 H 1474.87 -0.774413 3.17286 0
M  V30 15473 H 1473.53 1.34482 3.41043 0
M  V30 15474 H 1473.17 -0.554153 4.99938 0
M  V30 15475 H 1472.87 1.01499 5.78767 0
M  V30 15476 H 1474.4 0.138023 6.10444 0
M  V30 15477 H 1475.81 2.25156 5.27236 0
M  V30 15478 H 1474.21 3.03684 5.17586 0
M  V30 15479 H 1475.28 3.05883 3.76249 0
M  V30 15480 N 1476.62 -1.31073 0.875073 0
M  V30 15481 C 1477.86 -1.98313 0.495116 0
M  V30 15482 C 1478.23 -1.67629 -0.93619 0
M  V30 15483 O 1479.43 -2.28122 -1.42176 0
M  V30 15484 C 1477.7 -3.49424 0.750847 0
M  V30 15485 S 1479.26 -4.36259 0.471512 0
M  V30 15486 H 1476.07 -0.686614 0.184613 0
M  V30 15487 H 1478.68 -1.59378 1.1322 0
M  V30 15488 H 1477.38 -3.69246 1.79124 0
M  V30 15489 H 1476.91 -3.9327 0.100946 0
M  V30 15490 H 1478.93 -4.91322 -0.69407 0
M  V30 15491 N 1478.1 -0.635022 -1.4424 0
M  V30 15492 C 1479.35 -0.138497 -2.01224 0
M  V30 15493 C 1479.66 1.2485 -1.50571 0
M  V30 15494 O 1480.87 1.83926 -1.99709 0
M  V30 15495 C 1479.32 -0.196836 -3.59361 0
M  V30 15496 C 1478.93 -1.58539 -4.1901 0
M  V30 15497 C 1480.68 0.243025 -4.23804 0
M  V30 15498 C 1478.58 -1.59864 -5.69384 0
M  V30 15499 H 1477.51 -0.0480117 -0.75247 0
M  V30 15500 H 1480.16 -0.794391 -1.65414 0
M  V30 15501 H 1478.55 0.526231 -3.92488 0
M  V30 15502 H 1479.72 -2.33236 -3.97414 0
M  V30 15503 H 1478.04 -1.96967 -3.66869 0
M  V30 15504 H 1480.63 0.252717 -5.34102 0
M  V30 15505 H 1480.98 1.27107 -3.96421 0
M  V30 15506 H 1481.51 -0.427678 -3.95494 0
M  V30 15507 H 1478.25 -2.60518 -6.01507 0
M  V30 15508 H 1477.77 -0.894664 -5.9309 0
M  V30 15509 H 1479.45 -1.3343 -6.33092 0
M  V30 15510 N 1479.58 1.53054 -0.375806 0
M  V30 15511 C 1480.83 2.00584 0.211847 0
M  V30 15512 C 1481.14 1.26692 1.49025 0
M  V30 15513 O 1482.35 1.64863 2.15713 0
M  V30 15514 C 1480.8 3.57345 0.428074 0
M  V30 15515 C 1480.41 4.40125 -0.836299 0
M  V30 15516 C 1482.15 4.13203 0.972825 0
M  V30 15517 C 1480.06 5.88459 -0.589093 0
M  V30 15518 H 1478.99 0.749424 0.0829412 0
M  V30 15519 H 1481.64 1.76666 -0.496126 0
M  V30 15520 H 1480.02 3.77458 1.19756 0
M  V30 15521 H 1481.2 4.31782 -1.60936 0
M  V30 15522 H 1479.51 3.95422 -1.30501 0
M  V30 15523 H 1482.11 5.21669 1.17326 0
M  V30 15524 H 1482.45 3.68441 1.93797 0
M  V30 15525 H 1482.99 3.96928 0.263249 0
M  V30 15526 H 1479.73 6.37517 -1.52485 0
M  V30 15527 H 1479.25 5.99624 0.145285 0
M  V30 15528 H 1480.92 6.46631 -0.218485 0
M  V30 15529 N 1481.06 0.105248 1.57248 0
M  V30 15530 C 1482.47 -0.422304 1.81861 0
M  V30 15531 C 1482.82 -1.67508 1.02154 0
M  V30 15532 O 1481.94 -2.14905 0.253961 0
M  V30 15533 C 1482.54 -0.772943 3.29865 0
M  V30 15534 C 1481.1 -1.24519 3.55207 0
M  V30 15535 C 1480.24 -0.246936 2.76198 0
M  V30 15536 H 1483.2 0.330565 1.55219 0
M  V30 15537 H 1483.22 -1.6316 3.43743 0
M  V30 15538 H 1482.73 0.139033 3.87851 0
M  V30 15539 H 1480.83 -2.17453 3.02564 0
M  V30 15540 H 1480.94 -1.20001 4.63828 0
M  V30 15541 H 1479.31 -0.731171 2.43979 0
M  V30 15542 H 1480.09 0.657896 3.36937 0
M  V30 15543 N 1482.53 -1.56697 -0.168486 0
M  V30 15544 C 1483.76 -1.86292 -0.900152 0
M  V30 15545 C 1484.18 -0.690968 -1.75702 0
M  V30 15546 O 1483.53 0.339855 -1.79308 0
M  V30 15547 C 1483.59 -3.14946 -1.77457 0
M  V30 15548 O 1483.31 -4.27625 -0.952267 0
M  V30 15549 C 1484.81 -3.57908 -2.61566 0
M  V30 15550 H 1482.03 -0.618003 -0.261369 0
M  V30 15551 H 1484.57 -2.03811 -0.16773 0
M  V30 15552 H 1482.73 -2.99246 -2.4603 0
M  V30 15553 H 1483.14 -5.01057 -1.55056 0
M  V30 15554 H 1484.61 -4.50823 -3.18532 0
M  V30 15555 H 1485.09 -2.82162 -3.36573 0
M  V30 15556 H 1485.7 -3.7623 -1.98321 0
M  V30 15557 N 1484.01 0.437135 -1.51416 0
M  V30 15558 C 1484.96 1.53061 -1.72745 0
M  V30 15559 C 1485.93 1.56045 -0.569149 0
M  V30 15560 O 1487.11 1.73052 -0.803602 0
M  V30 15561 C 1484.25 2.90774 -1.85861 0
M  V30 15562 C 1483.37 2.97318 -3.1341 0
M  V30 15563 C 1482.5 4.26156 -3.1712 0
M  V30 15564 C 1481.54 4.26568 -4.38983 0
M  V30 15565 N 1480.68 5.4693 -4.40241 0
M  V30 15566 H 1485.52 1.34177 -2.66084 0
M  V30 15567 H 1483.06 0.651803 -1.31871 0
M  V30 15568 H 1485.01 3.7068 -1.91447 0
M  V30 15569 H 1483.64 3.08216 -0.959306 0
M  V30 15570 H 1482.7 2.10074 -3.17132 0
M  V30 15571 H 1484.01 2.93485 -4.03321 0
M  V30 15572 H 1483.16 5.14435 -3.21623 0
M  V30 15573 H 1481.9 4.32646 -2.25098 0
M  V30 15574 H 1480.91 3.36681 -4.34656 0
M  V30 15575 H 1482.13 4.21741 -5.3227 0
M  V30 15576 H 1480.08 5.54141 -3.51089 0
M  V30 15577 H 1479.99 5.44977 -5.23962 0
M  V30 15578 H 1481.26 6.37241 -4.48937 0
M  V30 15579 N 1485.49 1.41566 0.692592 0
M  V30 15580 C 1486.74 1.41083 1.45265 0
M  V30 15581 C 1487.07 0.0209998 1.94489 0
M  V30 15582 O 1486.32 -0.96764 1.70104 0
M  V30 15583 C 1486.62 2.36683 2.67799 0
M  V30 15584 C 1486.29 3.83458 2.37215 0
M  V30 15585 C 1484.95 4.23441 2.28585 0
M  V30 15586 C 1487.3 4.76114 2.12048 0
M  V30 15587 C 1484.63 5.54086 1.92888 0
M  V30 15588 C 1486.98 6.07082 1.7786 0
M  V30 15589 C 1485.64 6.46083 1.67727 0
M  V30 15590 H 1484.91 0.51626 0.531561 0
M  V30 15591 H 1487.56 1.74385 0.791337 0
M  V30 15592 H 1485.87 1.96645 3.38877 0
M  V30 15593 H 1487.56 2.33581 3.25946 0
M  V30 15594 H 1484.15 3.51792 2.44828 0
M  V30 15595 H 1488.34 4.46025 2.17659 0
M  V30 15596 H 1483.59 5.83182 1.83599 0
M  V30 15597 H 1487.77 6.78378 1.57407 0
M  V30 15598 H 1485.39 7.47228 1.39836 0
M  V30 15599 N 1486.97 -0.927146 1.27443 0
M  V30 15600 C 1488.22 -1.67159 1.13589 0
M  V30 15601 C 1488.54 -1.92379 -0.31865 0
M  V30 15602 O 1487.81 -1.53045 -1.22287 0
M  V30 15603 H 1486.39 -0.619524 0.417371 0
M  V30 15604 H 1489.05 -1.11323 1.59979 0
M  V30 15605 H 1488.15 -2.63954 1.66537 0
M  V30 15606 N 1488.45 -1.09474 -1.13372 0
M  V30 15607 C 1489.7 -0.825968 -1.84013 0
M  V30 15608 C 1490.01 0.650623 -1.84462 0
M  V30 15609 O 1491.21 1.03495 -2.51 0
M  V30 15610 C 1489.67 -1.42769 -3.30371 0
M  V30 15611 C 1489.28 -2.93686 -3.38308 0
M  V30 15612 C 1491.02 -1.23788 -4.0605 0
M  V30 15613 C 1488.93 -3.46942 -4.78942 0
M  V30 15614 H 1487.86 -0.305322 -0.689416 0
M  V30 15615 H 1490.51 -1.31751 -1.27726 0
M  V30 15616 H 1488.89 -0.86384 -3.86463 0
M  V30 15617 H 1490.07 -3.56302 -2.92208 0
M  V30 15618 H 1488.38 -3.11706 -2.76094 0
M  V30 15619 H 1490.98 -1.61031 -5.09876 0
M  V30 15620 H 1491.32 -0.178578 -4.15917 0
M  V30 15621 H 1491.85 -1.76927 -3.56289 0
M  V30 15622 H 1488.59 -4.52495 -4.74267 0
M  V30 15623 H 1488.11 -2.8909 -5.25535 0
M  V30 15624 H 1489.79 -3.44176 -5.47861 0
M  V30 15625 N 1489.92 1.30607 -0.882012 0
M  V30 15626 C 1491.15 2.00954 -0.513048 0
M  V30 15627 C 1491.57 1.65697 0.890279 0
M  V30 15628 O 1490.93 0.872001 1.58952 0
M  V30 15629 C 1490.98 3.53907 -0.691525 0
M  V30 15630 O 1490.08 4.11555 0.263896 0
M  V30 15631 H 1489.43 0.632356 -0.202537 0
M  V30 15632 H 1491.96 1.66524 -1.18874 0
M  V30 15633 H 1491.97 4.0372 -0.589392 0
M  V30 15634 H 1490.64 3.78907 -1.71471 0
M  V30 15635 H 1489.22 3.7272 0.115707 0
M  V30 15636 N 1491.4 0.642663 1.43901 0
M  V30 15637 C 1492.65 0.151778 2.0193 0
M  V30 15638 C 1492.98 -1.23052 1.50627 0
M  V30 15639 O 1492.23 -1.83305 0.685404 0
M  V30 15640 C 1492.53 0.100139 3.5726 0
M  V30 15641 C 1492.2 1.42276 4.27865 0
M  V30 15642 C 1490.86 1.78497 4.46869 0
M  V30 15643 C 1493.21 2.29526 4.67939 0
M  V30 15644 C 1490.54 3.01655 5.03211 0
M  V30 15645 C 1492.89 3.51966 5.25645 0
M  V30 15646 C 1491.56 3.88396 5.42867 0
M  V30 15647 H 1490.83 0.0555394 0.738916 0
M  V30 15648 H 1493.47 0.831273 1.72517 0
M  V30 15649 H 1491.78 -0.66277 3.86154 0
M  V30 15650 H 1493.47 -0.29638 3.99903 0
M  V30 15651 H 1490.06 1.13091 4.13411 0
M  V30 15652 H 1494.25 2.02835 4.52959 0
M  V30 15653 H 1489.5 3.29943 5.14731 0
M  V30 15654 H 1493.68 4.19799 5.55645 0
M  V30 15655 H 1491.31 4.83909 5.8629 0
M  V30 15656 N 1492.88 -1.52852 0.383918 0
M  V30 15657 C 1494.11 -2.05929 -0.200216 0
M  V30 15658 C 1494.52 -1.25606 -1.40956 0
M  V30 15659 O 1493.88 -0.301336 -1.79995 0
M  V30 15660 C 1493.93 -3.56887 -0.575655 0
M  V30 15661 O 1493.65 -4.34168 0.58564 0
M  V30 15662 C 1495.15 -4.2629 -1.21623 0
M  V30 15663 H 1492.37 -0.670261 -0.0314727 0
M  V30 15664 H 1494.92 -1.97032 0.547591 0
M  V30 15665 H 1493.07 -3.65875 -1.27336 0
M  V30 15666 H 1493.49 -5.23761 0.278267 0
M  V30 15667 H 1494.96 -5.33174 -1.42933 0
M  V30 15668 H 1495.44 -3.81163 -2.182 0
M  V30 15669 H 1496.04 -4.21605 -0.559435 0
M  V30 15670 N 1494.36 -0.113586 -1.5719 0
M  V30 15671 C 1495.61 0.546529 -1.95297 0
M  V30 15672 C 1495.94 1.66674 -0.996671 0
M  V30 15673 O 1495.21 1.94472 -0.0329298 0
M  V30 15674 C 1495.5 1.08433 -3.43387 0
M  V30 15675 C 1495.35 -0.0320929 -4.49789 0
M  V30 15676 C 1496.67 1.97691 -3.932 0
M  V30 15677 H 1493.79 0.197195 -0.710129 0
M  V30 15678 H 1496.43 -0.188048 -1.89067 0
M  V30 15679 H 1494.58 1.71033 -3.48827 0
M  V30 15680 H 1496.25 -0.66716 -4.5645 0
M  V30 15681 H 1494.49 -0.695983 -4.2818 0
M  V30 15682 H 1495.17 0.385341 -5.50653 0
M  V30 15683 H 1497.64 1.4497 -3.90029 0
M  V30 15684 H 1496.52 2.3224 -4.97349 0
M  V30 15685 H 1496.78 2.90137 -3.33576 0
M  V30 15686 N 1495.84 1.56784 0.160173 0
M  V30 15687 C 1497.25 1.72193 0.721552 0
M  V30 15688 C 1497.6 0.725901 1.82278 0
M  V30 15689 O 1496.72 -0.110343 2.16118 0
M  V30 15690 C 1497.32 3.12212 1.31563 0
M  V30 15691 C 1495.88 3.29268 1.82371 0
M  V30 15692 C 1495.03 2.68136 0.70701 0
M  V30 15693 H 1497.98 1.58565 -0.0653521 0
M  V30 15694 H 1498 3.11481 2.1854 0
M  V30 15695 H 1497.51 3.84682 0.513917 0
M  V30 15696 H 1495.61 2.61774 2.65152 0
M  V30 15697 H 1495.72 4.37107 1.96149 0
M  V30 15698 H 1494.09 2.28246 1.1303 0
M  V30 15699 H 1494.87 3.432 -0.0830407 0
M  V30 15700 N 1497.32 -0.429099 1.51646 0
M  V30 15701 C 1498.56 -1.17784 1.64722 0
M  V30 15702 C 1498.89 -1.90998 0.367415 0
M  V30 15703 O 1498.15 -1.8463 -0.648862 0
M  V30 15704 C 1498.44 -2.2131 2.80636 0
M  V30 15705 C 1498.11 -1.65048 4.19607 0
M  V30 15706 C 1496.77 -1.49428 4.57411 0
M  V30 15707 C 1499.12 -1.23765 5.06292 0
M  V30 15708 C 1496.45 -0.910109 5.79598 0
M  V30 15709 C 1498.8 -0.667743 6.29066 0
M  V30 15710 C 1497.47 -0.498507 6.65636 0
M  V30 15711 H 1496.74 -0.431001 0.60276 0
M  V30 15712 H 1499.39 -0.46775 1.857 0
M  V30 15713 H 1497.69 -2.98388 2.53913 0
M  V30 15714 H 1499.39 -2.79079 2.87951 0
M  V30 15715 H 1495.98 -1.78185 3.89805 0
M  V30 15716 H 1500.16 -1.3465 4.77685 0
M  V30 15717 H 1495.42 -0.766825 6.06572 0
M  V30 15718 H 1499.59 -0.339377 6.95573 0
M  V30 15719 H 1497.22 -0.0437292 7.60187 0
M  V30 15720 N 1498.79 -1.41931 -0.685074 0
M  V30 15721 C 1499.72 -1.47385 -1.81107 0
M  V30 15722 C 1500.7 -0.331433 -1.6684 0
M  V30 15723 O 1501.89 -0.544331 -1.86415 0
M  V30 15724 C 1499.02 -1.36555 -3.19327 0
M  V30 15725 C 1497.97 -2.48718 -3.48315 0
M  V30 15726 C 1497.3 -2.2295 -4.86002 0
M  V30 15727 C 1498.6 -3.91047 -3.46237 0
M  V30 15728 H 1500.29 -2.41624 -1.768 0
M  V30 15729 H 1497.84 -1.16297 -0.849178 0
M  V30 15730 H 1499.79 -1.38981 -3.97822 0
M  V30 15731 H 1498.52 -0.388063 -3.24286 0
M  V30 15732 H 1497.18 -2.45592 -2.72176 0
M  V30 15733 H 1496.82 -1.23518 -4.87598 0
M  V30 15734 H 1496.52 -2.98116 -5.0636 0
M  V30 15735 H 1498.05 -2.27108 -5.66793 0
M  V30 15736 H 1499.46 -3.95831 -4.14718 0
M  V30 15737 H 1497.86 -4.65981 -3.7813 0
M  V30 15738 H 1498.93 -4.1845 -2.45006 0
M  V30 15739 N 1500.27 0.920374 -1.27933 0
M  V30 15740 C 1501.22 2.04331 -1.11138 0
M  V30 15741 C 1502.21 1.69369 -0.0324493 0
M  V30 15742 O 1503.42 1.78987 -0.190723 0
M  V30 15743 H 1499.79 0.669381 -0.342685 0
M  V30 15744 H 1501.77 2.15641 -2.06256 0
M  V30 15745 C 1500.51 3.38768 -0.783049 0
M  V30 15746 H 1499.84 3.6616 -1.60521 0
M  V30 15747 H 1501.28 4.1809 -0.705448 0
M  V30 15748 C 1499.74 3.32972 0.512927 0
M  V30 15749 O 1500.27 3.70792 1.54519 0
M  V30 15750 N 1498.47 2.86068 0.511232 0
M  V30 15751 H 1498.02 2.55487 -0.329229 0
M  V30 15752 H 1497.98 2.82573 1.3784 0
M  V30 15753 N 1501.75 1.10074 1.1279 0
M  V30 15754 C 1502.68 0.704023 2.1812 0
M  V30 15755 C 1503.69 -0.25742 1.60752 0
M  V30 15756 O 1504.88 -0.0424559 1.7845 0
M  V30 15757 C 1501.98 0.0176666 3.38895 0
M  V30 15758 C 1501.16 1.00234 4.2576 0
M  V30 15759 C 1500.22 0.348158 5.25047 0
M  V30 15760 O 1499.24 0.997821 5.60386 0
M  V30 15761 N 1500.44 -0.894955 5.7356 0
M  V30 15762 H 1503.21 1.61024 2.52767 0
M  V30 15763 H 1500.77 0.989068 1.28176 0
M  V30 15764 H 1502.76 -0.431346 4.02395 0
M  V30 15765 H 1501.33 -0.7909 3.02429 0
M  V30 15766 H 1500.55 1.62972 3.58934 0
M  V30 15767 H 1501.84 1.669 4.80647 0
M  V30 15768 H 1501.24 -1.4422 5.47007 0
M  V30 15769 H 1499.79 -1.28718 6.38964 0
M  V30 15770 N 1503.23 -1.30138 0.888926 0
M  V30 15771 C 1504.19 -2.26299 0.363504 0
M  V30 15772 C 1505.19 -1.52951 -0.496244 0
M  V30 15773 O 1506.38 -1.71548 -0.302834 0
M  V30 15774 C 1503.51 -3.37482 -0.481544 0
M  V30 15775 H 1504.71 -2.7429 1.21265 0
M  V30 15776 H 1502.26 -1.41395 0.666124 0
M  V30 15777 H 1502.99 -2.94814 -1.35112 0
M  V30 15778 H 1502.78 -3.9187 0.134344 0
M  V30 15779 H 1504.27 -4.09048 -0.840816 0
M  V30 15780 N 1504.71 -0.650285 -1.43559 0
M  V30 15781 C 1505.95 -0.162164 -2.01448 0
M  V30 15782 C 1506.27 1.22717 -1.51544 0
M  V30 15783 O 1505.54 1.81917 -0.726855 0
M  V30 15784 H 1504.12 -0.0569599 -0.744825 0
M  V30 15785 H 1506.79 -0.841294 -1.75807 0
M  V30 15786 H 1505.88 -0.144531 -3.11765 0
M  V30 15787 N 1506.18 1.52647 -0.392018 0
M  V30 15788 C 1507.15 2.25135 0.429754 0
M  V30 15789 C 1508.15 1.26871 0.987946 0
M  V30 15790 O 1509.34 1.50947 0.86952 0
M  V30 15791 C 1506.47 3.00849 1.60321 0
M  V30 15792 H 1507.66 2.99199 -0.204918 0
M  V30 15793 H 1505.21 1.55634 -0.144188 0
M  V30 15794 H 1505.95 2.31092 2.27524 0
M  V30 15795 H 1505.73 3.72975 1.20964 0
M  V30 15796 H 1507.22 3.55879 2.18494 0
M  V30 15797 N 1507.66 0.121921 1.57128 0
M  V30 15798 C 1508.59 -0.823788 2.18486 0
M  V30 15799 C 1509.57 -1.27519 1.12574 0
M  V30 15800 O 1510.76 -1.33727 1.40822 0
M  V30 15801 C 1507.89 -2.07284 2.78659 0
M  V30 15802 C 1506.84 -1.75912 3.90178 0
M  V30 15803 C 1506.17 -3.07871 4.37172 0
M  V30 15804 C 1507.47 -1.02517 5.1214 0
M  V30 15805 H 1509.16 -0.312488 2.97765 0
M  V30 15806 H 1506.71 -0.148862 1.43228 0
M  V30 15807 H 1508.66 -2.73903 3.20242 0
M  V30 15808 H 1507.39 -2.60743 1.96673 0
M  V30 15809 H 1506.04 -1.11681 3.49174 0
M  V30 15810 H 1505.69 -3.59271 3.52041 0
M  V30 15811 H 1505.39 -2.87653 5.12376 0
M  V30 15812 H 1506.92 -3.75604 4.81409 0
M  V30 15813 H 1508.33 -1.59295 5.50725 0
M  V30 15814 H 1506.73 -0.923836 5.92946 0
M  V30 15815 H 1507.8 -0.0124219 4.84898 0
M  V30 15816 N 1509.14 -1.56867 -0.151857 0
M  V30 15817 C 1510.07 -2.00932 -1.18949 0
M  V30 15818 C 1511.05 -0.888062 -1.45077 0
M  V30 15819 O 1512.24 -1.15553 -1.56081 0
M  V30 15820 C 1509.37 -2.3858 -2.52383 0
M  V30 15821 C 1508.32 -3.53845 -2.40785 0
M  V30 15822 C 1507.65 -3.77292 -3.78886 0
M  V30 15823 C 1508.95 -4.8667 -1.89605 0
M  V30 15824 H 1510.64 -2.87863 -0.823107 0
M  V30 15825 H 1508.19 -1.38491 -0.394499 0
M  V30 15826 H 1510.14 -2.68006 -3.25193 0
M  V30 15827 H 1508.86 -1.48579 -2.90847 0
M  V30 15828 H 1507.52 -3.24577 -1.70427 0
M  V30 15829 H 1507.17 -2.84551 -4.14777 0
M  V30 15830 H 1506.87 -4.54861 -3.71989 0
M  V30 15831 H 1508.39 -4.09139 -4.53252 0
M  V30 15832 H 1509.81 -5.14846 -2.52204 0
M  V30 15833 H 1508.21 -5.6801 -1.93609 0
M  V30 15834 H 1509.28 -4.77366 -0.851438 0
M  V30 15835 N 1510.62 0.421051 -1.51871 0
M  V30 15836 C 1511.57 1.51101 -1.70741 0
M  V30 15837 C 1512.55 1.50792 -0.561305 0
M  V30 15838 O 1513.74 1.5697 -0.817894 0
M  V30 15839 C 1510.87 2.89145 -1.85067 0
M  V30 15840 C 1509.96 2.94148 -3.05512 0
M  V30 15841 N 1510.35 2.68866 -4.28421 0
M  V30 15842 C 1508.65 3.25314 -3.05101 0
M  V30 15843 C 1509.35 2.80131 -5.09805 0
M  V30 15844 N 1508.33 3.12501 -4.44797 0
M  V30 15845 H 1512.13 1.30331 -2.63422 0
M  V30 15846 H 1509.64 0.628598 -1.49741 0
M  V30 15847 H 1511.64 3.6758 -1.96699 0
M  V30 15848 H 1510.3 3.10923 -0.935788 0
M  V30 15849 H 1511.31 2.43485 -4.57094 0
M  V30 15850 H 1507.99 3.52762 -2.23306 0
M  V30 15851 H 1509.38 2.64401 -6.17691 0
M  V30 15852 N 1512.1 1.42293 0.677538 0
M  V30 15853 C 1513.34 1.42827 1.43973 0
M  V30 15854 C 1513.68 0.0435041 1.94151 0
M  V30 15855 O 1512.95 -0.931794 1.70727 0
M  V30 15856 C 1513.23 2.45037 2.63873 0
M  V30 15857 C 1513.09 3.92694 2.19344 0
M  V30 15858 C 1514.41 2.4427 3.66087 0
M  V30 15859 H 1511.52 0.520097 0.522176 0
M  V30 15860 H 1514.17 1.73688 0.770219 0
M  V30 15861 H 1512.32 2.18851 3.20993 0
M  V30 15862 H 1513.99 4.2985 1.67412 0
M  V30 15863 H 1512.23 4.06692 1.50944 0
M  V30 15864 H 1512.9 4.59784 3.05455 0
M  V30 15865 H 1515.38 2.67551 3.18678 0
M  V30 15866 H 1514.25 3.17769 4.47564 0
M  V30 15867 H 1514.52 1.46769 4.17027 0
M  V30 15868 N 1513.57 -0.913576 1.28419 0
M  V30 15869 C 1514.8 -1.69403 1.18263 0
M  V30 15870 C 1515.21 -1.87387 -0.26128 0
M  V30 15871 O 1514.56 -1.40082 -1.18839 0
M  V30 15872 C 1514.62 -3.1064 1.80951 0
M  V30 15873 C 1514.28 -3.15941 3.30198 0
M  V30 15874 C 1515.28 -2.97124 4.2663 0
M  V30 15875 C 1512.96 -3.38449 3.71157 0
M  V30 15876 C 1514.96 -3.00728 5.61998 0
M  V30 15877 C 1512.64 -3.41685 5.06651 0
M  V30 15878 C 1513.64 -3.22845 6.01881 0
M  V30 15879 O 1513.33 -3.25842 7.34903 0
M  V30 15880 H 1513.06 -0.536323 0.411502 0
M  V30 15881 H 1515.62 -1.15186 1.70063 0
M  V30 15882 H 1513.85 -3.664 1.23645 0
M  V30 15883 H 1515.54 -3.70712 1.6531 0
M  V30 15884 H 1516.3 -2.79562 3.96321 0
M  V30 15885 H 1512.18 -3.52158 2.97499 0
M  V30 15886 H 1515.72 -2.85941 6.36304 0
M  V30 15887 H 1511.62 -3.58775 5.3661 0
M  V30 15888 H 1512.39 -3.42203 7.43532 0
M  V30 15889 N 1515.05 -1.1067 -1.12204 0
M  V30 15890 C 1516.28 -0.872867 -1.87586 0
M  V30 15891 C 1516.7 0.57682 -1.79773 0
M  V30 15892 O 1516.05 1.39782 -1.17334 0
M  V30 15893 C 1516.1 -1.31572 -3.36706 0
M  V30 15894 O 1515.82 -2.70856 -3.44338 0
M  V30 15895 C 1517.33 -1.11613 -4.29019 0
M  V30 15896 H 1514.55 -0.313132 -0.593455 0
M  V30 15897 H 1517.09 -1.47199 -1.4196 0
M  V30 15898 H 1515.24 -0.760212 -3.79868 0
M  V30 15899 H 1515.66 -2.89854 -4.37132 0
M  V30 15900 H 1517.13 -1.4751 -5.31925 0
M  V30 15901 H 1517.61 -0.0549698 -4.39166 0
M  V30 15902 H 1518.22 -1.65822 -3.91642 0
M  V30 15903 N 1516.53 1.29665 -0.895815 0
M  V30 15904 C 1517.81 1.90601 -0.439394 0
M  V30 15905 C 1518.19 1.81341 1.08068 0
M  V30 15906 O 1517.54 1.23761 1.92082 0
M  V30 15907 C 1517.75 3.35832 -0.949622 0
M  V30 15908 C 1519.09 4.12873 -0.991015 0
M  V30 15909 O 1520.12 3.4472 -0.897025 0
M  V30 15910 O 1518.98 5.34656 -1.1316 0
M  V30 15911 H 1516.07 0.81569 -0.136304 0
M  V30 15912 H 1518.62 1.38157 -0.985426 0
M  V30 15913 H 1517.39 3.36708 -1.99357 0
M  V30 15914 H 1517.01 3.95747 -0.383376 0
M  V30 15915 N 1518.01 0.657889 1.43212 0
M  V30 15916 C 1519.26 0.172845 2.0136 0
M  V30 15917 C 1519.58 -1.21911 1.52193 0
M  V30 15918 O 1518.85 -1.81529 0.736492 0
M  V30 15919 H 1517.43 0.0609091 0.744513 0
M  V30 15920 H 1520.09 0.850605 1.75359 0
M  V30 15921 H 1519.19 0.161062 3.11684 0
M  V30 15922 N 1519.49 -1.52437 0.400108 0
M  V30 15923 C 1520.71 -2.0661 -0.180861 0
M  V30 15924 C 1521.14 -1.269 -1.38845 0
M  V30 15925 O 1520.49 -0.296862 -1.78853 0
M  V30 15926 C 1520.54 -3.56851 -0.518595 0
M  V30 15927 O 1519.65 -3.79634 -1.61095 0
M  V30 15928 H 1518.99 -0.663752 -0.0181348 0
M  V30 15929 H 1521.52 -1.96479 0.570702 0
M  V30 15930 H 1521.53 -4.00478 -0.779817 0
M  V30 15931 H 1520.2 -4.14302 0.364216 0
M  V30 15932 H 1518.78 -3.47892 -1.3426 0
M  V30 15933 N 1520.96 -0.130252 -1.57061 0
M  V30 15934 C 1522.21 0.525784 -1.95866 0
M  V30 15935 C 1522.54 1.65607 -1.01429 0
M  V30 15936 O 1521.82 1.94426 -0.0535544 0
M  V30 15937 C 1522.1 1.04784 -3.44517 0
M  V30 15938 C 1521.95 -0.0797972 -4.49729 0
M  V30 15939 C 1523.27 1.9351 -3.95275 0
M  V30 15940 H 1520.39 0.189652 -0.71218 0
M  V30 15941 H 1523.03 -0.208091 -1.88857 0
M  V30 15942 H 1521.18 1.67324 -3.50621 0
M  V30 15943 H 1522.86 -0.715535 -4.55717 0
M  V30 15944 H 1521.1 -0.741358 -4.27418 0
M  V30 15945 H 1521.77 0.326915 -5.51031 0
M  V30 15946 H 1524.25 1.40825 -3.91545 0
M  V30 15947 H 1523.12 2.26952 -4.99784 0
M  V30 15948 H 1523.38 2.86583 -3.36634 0
M  V30 15949 N 1522.44 1.56945 0.143535 0
M  V30 15950 C 1523.37 2.0156 1.17881 0
M  V30 15951 C 1524.35 0.895744 1.44604 0
M  V30 15952 O 1525.54 1.16379 1.55466 0
M  V30 15953 C 1522.67 2.39915 2.51114 0
M  V30 15954 C 1521.62 3.55117 2.38905 0
M  V30 15955 C 1520.95 3.79296 3.7688 0
M  V30 15956 C 1522.25 4.87668 1.87021 0
M  V30 15957 H 1523.94 2.88296 0.80783 0
M  V30 15958 H 1521.49 1.38698 0.387149 0
M  V30 15959 H 1523.44 2.69727 3.23767 0
M  V30 15960 H 1522.17 1.5012 2.90055 0
M  V30 15961 H 1520.83 3.25476 1.68703 0
M  V30 15962 H 1520.47 2.86747 4.13262 0
M  V30 15963 H 1520.17 4.56827 3.69571 0
M  V30 15964 H 1521.7 4.11537 4.51076 0
M  V30 15965 H 1523.11 5.16176 2.4947 0
M  V30 15966 H 1521.51 5.69029 1.90594 0
M  V30 15967 H 1522.58 4.77811 0.82611 0
M  V30 15968 N 1523.92 -0.412991 1.52093 0
M  V30 15969 C 1524.85 -1.50986 1.78117 0
M  V30 15970 C 1525.83 -1.57925 0.631963 0
M  V30 15971 O 1527.02 -1.73261 0.877168 0
M  V30 15972 C 1524.15 -2.88846 1.92835 0
M  V30 15973 C 1523.1 -2.96759 3.08412 0
M  V30 15974 C 1522.43 -4.36837 3.08347 0
M  V30 15975 C 1523.73 -2.68599 4.47942 0
M  V30 15976 H 1525.42 -1.29459 2.69964 0
M  V30 15977 H 1522.97 -0.621348 1.29905 0
M  V30 15978 H 1524.92 -3.65563 2.09623 0
M  V30 15979 H 1523.64 -3.11658 0.976553 0
M  V30 15980 H 1522.3 -2.22487 2.91368 0
M  V30 15981 H 1521.95 -4.56652 2.10897 0
M  V30 15982 H 1521.65 -4.43056 3.85973 0
M  V30 15983 H 1523.18 -5.15493 3.2726 0
M  V30 15984 H 1524.59 -3.35039 4.65212 0
M  V30 15985 H 1522.99 -2.86199 5.27456 0
M  V30 15986 H 1524.06 -1.64058 4.56304 0
M  V30 15987 N 1525.4 -1.4265 -0.669982 0
M  V30 15988 C 1526.63 -1.46784 -1.45816 0
M  V30 15989 C 1527.04 -0.080606 -1.88628 0
M  V30 15990 O 1526.4 0.905687 -1.58441 0
M  V30 15991 C 1526.45 -2.39915 -2.70413 0
M  V30 15992 O 1526.17 -3.73241 -2.29396 0
M  V30 15993 C 1527.67 -2.53118 -3.63931 0
M  V30 15994 H 1524.89 -0.499076 -0.448513 0
M  V30 15995 H 1527.44 -1.87216 -0.822819 0
M  V30 15996 H 1525.59 -2.02722 -3.30125 0
M  V30 15997 H 1526.01 -4.23164 -3.09891 0
M  V30 15998 H 1527.48 -3.22395 -4.48069 0
M  V30 15999 H 1527.96 -1.57062 -4.10156 0
M  V30 16000 H 1528.56 -2.91052 -3.10111 0
M  V30 16001 N 1526.88 0.906753 -1.28902 0
M  V30 16002 C 1527.83 1.99676 -1.10061 0
M  V30 16003 C 1528.81 1.60885 -0.0221442 0
M  V30 16004 O 1530 1.75323 -0.24307 0
M  V30 16005 C 1527.13 3.34511 -0.771823 0
M  V30 16006 C 1526.22 3.79683 -1.88948 0
M  V30 16007 N 1526.61 3.97159 -3.13207 0
M  V30 16008 C 1524.91 4.089 -1.78092 0
M  V30 16009 C 1525.61 4.35108 -3.86078 0
M  V30 16010 N 1524.58 4.43759 -3.13973 0
M  V30 16011 H 1528.39 2.11247 -2.04333 0
M  V30 16012 H 1525.9 1.09508 -1.19924 0
M  V30 16013 H 1527.9 4.12295 -0.617909 0
M  V30 16014 H 1526.56 3.2429 0.16305 0
M  V30 16015 H 1527.57 3.82884 -3.4874 0
M  V30 16016 H 1524.25 4.07276 -0.918291 0
M  V30 16017 H 1525.64 4.56533 -4.92978 0
M  V30 16018 N 1528.36 1.11264 1.11616 0
M  V30 16019 C 1529.6 0.858664 1.82952 0
M  V30 16020 C 1529.92 -0.617439 1.84967 0
M  V30 16021 O 1529.19 -1.44849 1.31893 0
M  V30 16022 H 1527.77 0.314671 0.677489 0
M  V30 16023 H 1530.44 1.40466 1.35113 0
M  V30 16024 H 1529.53 1.22921 2.86874 0
M  V30 16025 N 1529.83 -1.29188 0.902679 0
M  V30 16026 C 1531.08 -1.95052 0.529076 0
M  V30 16027 C 1531.4 -1.7149 -0.92824 0
M  V30 16028 O 1530.67 -1.04834 -1.65489 0
M  V30 16029 H 1529.25 -0.721725 0.192671 0
M  V30 16030 H 1531.91 -1.57384 1.14962 0
M  V30 16031 H 1531.01 -3.03819 0.714179 0
M  V30 16032 N 1531.31 -0.665475 -1.42861 0
M  V30 16033 C 1532.54 -0.192 -2.06007 0
M  V30 16034 C 1532.95 1.1472 -1.49949 0
M  V30 16035 O 1532.31 1.71074 -0.635599 0
M  V30 16036 C 1532.36 -0.108189 -3.61338 0
M  V30 16037 O 1532.08 -1.39446 -4.15315 0
M  V30 16038 C 1533.58 0.3899 -4.41582 0
M  V30 16039 H 1530.8 -0.0955812 -0.664158 0
M  V30 16040 H 1533.35 -0.909582 -1.83158 0
M  V30 16041 H 1531.5 0.560024 -3.83331 0
M  V30 16042 H 1531.92 -1.26168 -5.09099 0
M  V30 16043 H 1533.39 0.39747 -5.50567 0
M  V30 16044 H 1533.87 1.42348 -4.15492 0
M  V30 16045 H 1534.47 -0.246248 -4.24587 0
M  V30 16046 N 1532.79 1.52222 -0.408187 0
M  V30 16047 C 1533.7 2.30725 0.424645 0
M  V30 16048 C 1534.72 1.38412 1.05442 0
M  V30 16049 O 1535.89 1.71486 1.05614 0
M  V30 16050 C 1532.96 3.11273 1.52677 0
M  V30 16051 C 1532.02 4.19323 0.920143 0
M  V30 16052 C 1531.25 4.96021 1.96974 0
M  V30 16053 O 1531.47 4.73011 3.18774 0
M  V30 16054 O 1530.41 5.80887 1.5765 0
M  V30 16055 H 1534.23 3.02935 -0.215411 0
M  V30 16056 H 1531.82 1.48413 -0.171414 0
M  V30 16057 H 1533.7 3.61436 2.16661 0
M  V30 16058 H 1532.38 2.41857 2.15144 0
M  V30 16059 H 1531.28 3.7331 0.243037 0
M  V30 16060 H 1532.62 4.91028 0.339405 0
M  V30 16061 N 1534.27 0.138579 1.5699 0
M  V30 16062 C 1535.2 -0.842105 2.12094 0
M  V30 16063 C 1536.18 -1.24798 1.04232 0
M  V30 16064 O 1537.36 -1.34557 1.3201 0
M  V30 16065 C 1534.49 -2.1296 2.63373 0
M  V30 16066 C 1533.54 -1.8703 3.83304 0
M  V30 16067 S 1534.37 -1.06889 5.24724 0
M  V30 16068 C 1535.52 -2.36776 5.79386 0
M  V30 16069 H 1535.76 -0.373475 2.94945 0
M  V30 16070 H 1533.29 -0.0755566 1.54215 0
M  V30 16071 H 1535.25 -2.86927 2.9357 0
M  V30 16072 H 1533.91 -2.56939 1.80668 0
M  V30 16073 H 1533.1 -2.82478 4.17399 0
M  V30 16074 H 1532.7 -1.21176 3.53825 0
M  V30 16075 H 1535 -3.32486 5.90304 0
M  V30 16076 H 1535.94 -2.07197 6.77108 0
M  V30 16077 H 1536.35 -2.47039 5.07575 0
M  V30 16078 N 1535.75 -1.57019 -0.13521 0
M  V30 16079 C 1536.99 -1.83626 -0.844147 0
M  V30 16080 C 1537.31 -0.721298 -1.81169 0
M  V30 16081 O 1536.58 0.256095 -1.94219 0
M  V30 16082 H 1535.16 -0.677464 -0.314725 0
M  V30 16083 H 1537.83 -1.9449 -0.126399 0
M  V30 16084 H 1536.92 -2.78976 -1.39925 0
M  V30 16085 N 1537.22 0.404919 -1.52309 0
M  V30 16086 C 1538.16 1.51276 -1.72186 0
M  V30 16087 C 1539.17 1.5125 -0.602276 0
M  V30 16088 O 1540.36 1.55439 -0.877549 0
M  V30 16089 C 1537.46 2.90162 -1.75099 0
M  V30 16090 C 1536.63 3.14333 -3.04161 0
M  V30 16091 C 1535.69 4.33113 -2.9883 0
M  V30 16092 O 1534.72 4.30189 -3.72728 0
M  V30 16093 N 1535.92 5.38451 -2.16911 0
M  V30 16094 H 1538.68 1.34618 -2.67765 0
M  V30 16095 H 1536.24 0.594264 -1.50599 0
M  V30 16096 H 1538.24 3.67697 -1.69058 0
M  V30 16097 H 1536.81 3.00257 -0.869756 0
M  V30 16098 H 1536.03 2.24803 -3.23817 0
M  V30 16099 H 1537.31 3.27327 -3.89531 0
M  V30 16100 H 1536.71 5.43676 -1.56309 0
M  V30 16101 H 1535.27 6.14715 -2.16724 0
M  V30 16102 N 1538.7 1.43003 0.662408 0
M  V30 16103 C 1539.95 1.43848 1.41958 0
M  V30 16104 C 1540.27 0.06046 1.94906 0
M  V30 16105 O 1539.54 -0.90287 1.73854 0
M  V30 16106 H 1538.12 0.529587 0.526827 0
M  V30 16107 H 1540.78 1.7853 0.781867 0
M  V30 16108 H 1539.88 2.14562 2.26649 0
M  V30 16109 N 1540.18 -0.899904 1.29381 0
M  V30 16110 C 1541.11 -2.02045 1.17047 0
M  V30 16111 C 1542.09 -1.69977 0.0647354 0
M  V30 16112 O 1543.28 -1.92659 0.244173 0
M  V30 16113 C 1540.41 -3.36839 0.845991 0
M  V30 16114 C 1539.36 -3.83117 1.90802 0
M  V30 16115 C 1538.69 -5.15032 1.43686 0
M  V30 16116 C 1539.99 -4.03464 3.31684 0
M  V30 16117 H 1541.68 -2.12623 2.10789 0
M  V30 16118 H 1539.23 -1.02162 1.01484 0
M  V30 16119 H 1541.18 -4.14737 0.746413 0
M  V30 16120 H 1539.9 -3.26352 -0.127125 0
M  V30 16121 H 1538.56 -3.07435 1.99698 0
M  V30 16122 H 1538.21 -5.00961 0.452422 0
M  V30 16123 H 1537.91 -5.46967 2.14711 0
M  V30 16124 H 1539.43 -5.95472 1.35078 0
M  V30 16125 H 1540.85 -4.71845 3.25631 0
M  V30 16126 H 1539.25 -4.46752 4.00665 0
M  V30 16127 H 1540.32 -3.07807 3.74677 0
M  V30 16128 N 1541.66 -1.11854 -1.11024 0
M  V30 16129 C 1542.61 -0.749858 -2.15316 0
M  V30 16130 C 1543.59 0.248202 -1.58974 0
M  V30 16131 O 1544.78 0.054644 -1.76916 0
M  V30 16132 C 1541.91 -0.199423 -3.4272 0
M  V30 16133 C 1541 -1.22541 -4.06011 0
M  V30 16134 N 1541.39 -2.42104 -4.44094 0
M  V30 16135 C 1539.69 -1.06935 -4.32991 0
M  V30 16136 C 1540.39 -3.07572 -4.93735 0
M  V30 16137 N 1539.37 -2.35038 -4.90161 0
M  V30 16138 H 1543.17 -1.65978 -2.42546 0
M  V30 16139 H 1540.68 -0.998423 -1.28083 0
M  V30 16140 H 1542.68 0.0828628 -4.16818 0
M  V30 16141 H 1541.34 0.705033 -3.16953 0
M  V30 16142 H 1542.35 -2.79529 -4.35986 0
M  V30 16143 H 1539.03 -0.221683 -4.16911 0
M  V30 16144 H 1540.42 -4.0936 -5.32799 0
M  V30 16145 N 1543.14 1.28707 -0.909517 0
M  V30 16146 C 1544.36 1.99283 -0.556211 0
M  V30 16147 C 1544.78 1.68 0.861475 0
M  V30 16148 O 1544.14 0.930421 1.57001 0
M  V30 16149 C 1544.19 3.5362 -0.75068 0
M  V30 16150 O 1543.91 3.83799 -2.11258 0
M  V30 16151 C 1545.41 4.41459 -0.403637 0
M  V30 16152 H 1542.63 0.636476 -0.212462 0
M  V30 16153 H 1545.17 1.64007 -1.22156 0
M  V30 16154 H 1543.33 3.87174 -0.132384 0
M  V30 16155 H 1543.74 4.78448 -2.14913 0
M  V30 16156 H 1545.22 5.48833 -0.590496 0
M  V30 16157 H 1545.69 4.34214 0.659897 0
M  V30 16158 H 1546.3 4.13394 -0.999292 0
M  V30 16159 N 1544.61 0.673042 1.42506 0
M  V30 16160 C 1545.56 -0.00638067 2.30799 0
M  V30 16161 C 1546.53 -0.794524 1.45865 0
M  V30 16162 O 1547.72 -0.767129 1.74699 0
M  V30 16163 C 1544.86 -0.952923 3.31683 0
M  V30 16164 C 1543.97 -0.158787 4.31708 0
M  V30 16165 C 1543.1 -1.10092 5.19666 0
M  V30 16166 C 1542.14 -0.29837 6.11372 0
M  V30 16167 N 1541.28 -1.19312 6.91888 0
M  V30 16168 H 1546.12 0.75237 2.88346 0
M  V30 16169 H 1543.66 0.382763 1.42033 0
M  V30 16170 H 1545.62 -1.51552 3.887 0
M  V30 16171 H 1544.25 -1.67832 2.75739 0
M  V30 16172 H 1543.3 0.520406 3.76823 0
M  V30 16173 H 1544.61 0.464385 4.96634 0
M  V30 16174 H 1543.76 -1.7335 5.81407 0
M  V30 16175 H 1542.5 -1.75798 4.54914 0
M  V30 16176 H 1541.51 0.347437 5.48701 0
M  V30 16177 H 1542.73 0.354569 6.78174 0
M  V30 16178 H 1540.68 -1.83661 6.29765 0
M  V30 16179 H 1540.6 -0.624986 7.53412 0
M  V30 16180 H 1541.86 -1.81323 7.58118 0
M  V30 16181 N 1546.09 -1.52004 0.416254 0
M  V30 16182 C 1547.03 -2.2371 -0.450474 0
M  V30 16183 C 1548 -1.24812 -1.04215 0
M  V30 16184 O 1549.19 -1.53885 -1.08866 0
M  V30 16185 C 1546.31 -2.97122 -1.62592 0
M  V30 16186 C 1545.36 -4.10508 -1.15695 0
M  V30 16187 S 1546.19 -5.35374 -0.116239 0
M  V30 16188 C 1547.35 -6.12318 -1.29684 0
M  V30 16189 H 1547.58 -2.96878 0.158361 0
M  V30 16190 H 1545.12 -1.53091 0.200602 0
M  V30 16191 H 1547.07 -3.40022 -2.2999 0
M  V30 16192 H 1545.73 -2.23583 -2.20611 0
M  V30 16193 H 1544.93 -4.61075 -2.03534 0
M  V30 16194 H 1544.53 -3.69761 -0.561518 0
M  V30 16195 H 1546.82 -6.40125 -2.21914 0
M  V30 16196 H 1547.76 -7.032 -0.831569 0
M  V30 16197 H 1548.17 -5.43487 -1.52586 0
M  V30 16198 N 1547.57 -0.146903 -1.56914 0
M  V30 16199 C 1548.82 0.504981 -1.96412 0
M  V30 16200 C 1549.15 1.64522 -1.0318 0
M  V30 16201 O 1548.42 1.94359 -0.0741728 0
M  V30 16202 C 1548.71 1.01125 -3.45609 0
M  V30 16203 C 1548.56 -0.127493 -4.49619 0
M  V30 16204 C 1549.88 1.89306 -3.97305 0
M  V30 16205 H 1547 0.182088 -0.714152 0
M  V30 16206 H 1549.64 -0.22811 -1.88626 0
M  V30 16207 H 1547.79 1.63595 -3.52376 0
M  V30 16208 H 1549.46 -0.763829 -4.54932 0
M  V30 16209 H 1547.71 -0.786649 -4.26608 0
M  V30 16210 H 1548.38 0.268453 -5.51347 0
M  V30 16211 H 1550.85 1.36664 -3.93017 0
M  V30 16212 H 1549.73 2.21638 -5.02163 0
M  V30 16213 H 1549.99 2.82996 -3.39655 0
M  V30 16214 N 1549.05 1.57088 0.126881 0
M  V30 16215 C 1549.98 1.96399 1.18153 0
M  V30 16216 C 1550.99 0.862288 1.38089 0
M  V30 16217 O 1552.18 1.14062 1.37303 0
M  V30 16218 C 1549.28 2.24026 2.54295 0
M  V30 16219 C 1548.46 3.5533 2.55068 0
M  V30 16220 C 1547.51 3.71261 3.72896 0
M  V30 16221 O 1546.54 4.43454 3.56844 0
M  V30 16222 N 1547.74 3.09435 4.91152 0
M  V30 16223 H 1550.51 2.87476 0.847217 0
M  V30 16224 H 1548.07 1.58781 0.316242 0
M  V30 16225 H 1550.06 2.31906 3.31665 0
M  V30 16226 H 1548.63 1.39114 2.79939 0
M  V30 16227 H 1547.85 3.58708 1.63468 0
M  V30 16228 H 1549.14 4.41649 2.52634 0
M  V30 16229 H 1548.54 2.50736 5.07097 0
M  V30 16230 H 1547.09 3.22848 5.66226 0
M  V30 16231 N 1550.53 -0.396836 1.52522 0
M  V30 16232 C 1551.77 -1.14432 1.67431 0
M  V30 16233 C 1552.11 -1.89842 0.409115 0
M  V30 16234 O 1551.38 -1.85244 -0.592863 0
M  V30 16235 C 1551.66 -2.12889 2.90431 0
M  V30 16236 C 1551.52 -1.41295 4.27031 0
M  V30 16237 C 1552.84 -3.13412 3.08967 0
M  V30 16238 H 1549.95 -0.414643 0.609295 0
M  V30 16239 H 1552.6 -0.428604 1.85103 0
M  V30 16240 H 1550.75 -2.73924 2.75495 0
M  V30 16241 H 1552.42 -0.832848 4.53719 0
M  V30 16242 H 1550.66 -0.714834 4.2787 0
M  V30 16243 H 1551.33 -2.13198 5.09167 0
M  V30 16244 H 1553.81 -2.62462 3.22883 0
M  V30 16245 H 1552.68 -3.79555 3.96522 0
M  V30 16246 H 1552.95 -3.81836 2.22831 0
M  V30 16247 N 1552.01 -1.43353 -0.654814 0
M  V30 16248 C 1552.97 -1.4806 -1.7496 0
M  V30 16249 C 1553.97 -0.365513 -1.56591 0
M  V30 16250 O 1555.16 -0.627194 -1.62517 0
M  V30 16251 C 1552.29 -1.33165 -3.13815 0
M  V30 16252 H 1553.48 -2.45557 -1.72167 0
M  V30 16253 H 1551.04 -1.30094 -0.86632 0
M  V30 16254 H 1551.77 -0.366689 -3.2222 0
M  V30 16255 H 1551.56 -2.13998 -3.28553 0
M  V30 16256 H 1553.05 -1.39388 -3.93651 0
M  V30 16257 N 1553.48 0.89303 -1.29857 0
M  V30 16258 C 1554.71 1.6827 -1.21243 0
M  V30 16259 C 1555.13 1.86778 0.222621 0
M  V30 16260 O 1554.49 1.39291 1.1605 0
M  V30 16261 C 1554.54 3.041 -1.93792 0
M  V30 16262 O 1553.64 3.92696 -1.25951 0
M  V30 16263 H 1552.98 0.514479 -0.419771 0
M  V30 16264 H 1555.51 1.11513 -1.7154 0
M  V30 16265 H 1555.52 3.54198 -2.02504 0
M  V30 16266 H 1554.2 2.89948 -2.98166 0
M  V30 16267 H 1552.78 3.51132 -1.25541 0
M  V30 16268 N 1554.96 1.12442 1.10429 0
M  V30 16269 C 1556.38 0.860481 1.34417 0
M  V30 16270 C 1556.58 -0.509394 1.94955 0
M  V30 16271 O 1555.63 -1.25807 2.18927 0
M  V30 16272 C 1556.95 1.97694 2.26578 0
M  V30 16273 C 1558.49 2.00783 2.40115 0
M  V30 16274 C 1558.97 3.11663 3.35604 0
M  V30 16275 N 1560.46 3.11106 3.43173 0
M  V30 16276 C 1561.2 3.9354 4.1703 0
M  V30 16277 N 1560.69 4.85963 4.93773 0
M  V30 16278 N 1562.48 3.81677 4.12649 0
M  V30 16279 H 1554.64 2.00706 0.695036 0
M  V30 16280 H 1556.9 0.873398 0.368619 0
M  V30 16281 H 1556.6 2.96405 1.89306 0
M  V30 16282 H 1556.48 1.88217 3.26886 0
M  V30 16283 H 1558.87 1.02692 2.76656 0
M  V30 16284 H 1558.95 2.14335 1.39621 0
M  V30 16285 H 1558.59 4.09987 2.99789 0
M  V30 16286 H 1558.52 2.9535 4.35977 0
M  V30 16287 H 1561.01 2.4415 2.88442 0
M  V30 16288 H 1561.32 5.45373 5.47529 0
M  V30 16289 H 1559.67 4.89976 4.92898 0
M  V30 16290 H 1562.86 3.08808 3.51789 0
M  V30 16291 H 1563.03 4.46151 4.6995 0
M  V30 16292 N 1556.44 -1.28223 0.91633 0
M  V30 16293 C 1557.4 -2.25477 0.411423 0
M  V30 16294 C 1558.4 -1.53969 -0.463689 0
M  V30 16295 O 1559.59 -1.72151 -0.266379 0
M  V30 16296 C 1556.72 -3.38427 -0.409851 0
M  V30 16297 H 1557.92 -2.71656 1.27056 0
M  V30 16298 H 1555.47 -1.3995 0.695966 0
M  V30 16299 H 1556.21 -2.97614 -1.28828 0
M  V30 16300 H 1555.99 -3.91497 0.217435 0
M  V30 16301 H 1557.48 -4.10739 -0.753862 0
M  V30 16302 N 1557.92 -0.68059 -1.42147 0
M  V30 16303 C 1558.85 -0.0199376 -2.33491 0
M  V30 16304 C 1559.83 0.783164 -1.50999 0
M  V30 16305 O 1561.01 0.739154 -1.79583 0
M  V30 16306 C 1558.14 0.927902 -3.34675 0
M  V30 16307 C 1557.1 0.232979 -4.27365 0
M  V30 16308 C 1556.42 1.29415 -5.18802 0
M  V30 16309 C 1557.72 -0.891559 -5.14634 0
M  V30 16310 H 1559.42 -0.782823 -2.88985 0
M  V30 16311 H 1556.96 -0.377898 -1.38953 0
M  V30 16312 H 1558.92 1.3992 -3.97493 0
M  V30 16313 H 1557.64 1.72228 -2.77498 0
M  V30 16314 H 1556.3 -0.21814 -3.6595 0
M  V30 16315 H 1555.95 2.08067 -4.57949 0
M  V30 16316 H 1555.65 0.834274 -5.81647 0
M  V30 16317 H 1557.17 1.76627 -5.84496 0
M  V30 16318 H 1558.59 -0.501219 -5.71105 0
M  V30 16319 H 1556.98 -1.27759 -5.86343 0
M  V30 16320 H 1558.05 -1.73781 -4.5269 0
M  V30 16321 N 1559.4 1.51781 -0.424309 0
M  V30 16322 C 1560.34 2.27418 0.393668 0
M  V30 16323 C 1561.31 1.3046 1.02808 0
M  V30 16324 O 1562.5 1.59345 1.04946 0
M  V30 16325 C 1559.64 3.10983 1.49611 0
M  V30 16326 C 1558.75 4.22919 0.881123 0
M  V30 16327 C 1557.89 4.93816 1.95752 0
M  V30 16328 C 1556.92 5.97691 1.32028 0
M  V30 16329 N 1556.06 6.62047 2.33747 0
M  V30 16330 H 1560.9 2.96883 -0.257731 0
M  V30 16331 H 1558.44 1.46442 -0.138942 0
M  V30 16332 H 1560.4 3.57749 2.14642 0
M  V30 16333 H 1559.03 2.43658 2.11732 0
M  V30 16334 H 1558.08 3.80212 0.119445 0
M  V30 16335 H 1559.39 4.97383 0.375764 0
M  V30 16336 H 1558.54 5.44064 2.68476 0
M  V30 16337 H 1557.28 4.18954 2.49658 0
M  V30 16338 H 1556.29 5.46749 0.578444 0
M  V30 16339 H 1557.51 6.74504 0.788722 0
M  V30 16340 H 1555.46 5.90005 2.86757 0
M  V30 16341 H 1555.38 7.32234 1.88066 0
M  V30 16342 H 1556.64 7.16929 3.05995 0
M  V30 16343 N 1560.87 0.155222 1.56834 0
M  V30 16344 C 1562.12 -0.493831 1.95561 0
M  V30 16345 C 1562.44 -1.65468 1.04305 0
M  V30 16346 O 1563.64 -2.36891 1.32646 0
M  V30 16347 C 1562.1 -0.929923 3.47679 0
M  V30 16348 C 1561.71 0.204447 4.47533 0
M  V30 16349 C 1563.45 -1.5483 3.95257 0
M  V30 16350 C 1561.36 -0.250375 5.9087 0
M  V30 16351 H 1560.29 -0.188258 0.73012 0
M  V30 16352 H 1562.94 0.240883 1.81912 0
M  V30 16353 H 1561.32 -1.72014 3.56689 0
M  V30 16354 H 1562.49 0.981535 4.50225 0
M  V30 16355 H 1560.81 0.731756 4.0992 0
M  V30 16356 H 1563.41 -1.90036 4.9979 0
M  V30 16357 H 1563.75 -2.44031 3.37275 0
M  V30 16358 H 1564.28 -0.822828 3.89197 0
M  V30 16359 H 1561.02 0.606461 6.52689 0
M  V30 16360 H 1560.54 -0.993164 5.9152 0
M  V30 16361 H 1562.22 -0.699645 6.43206 0
M  V30 16362 N 1562.35 -1.57153 -0.118549 0
M  V30 16363 C 1563.76 -1.74046 -0.675645 0
M  V30 16364 C 1564.11 -0.773974 -1.80289 0
M  V30 16365 O 1563.24 0.0530041 -2.16335 0
M  V30 16366 C 1563.83 -3.15591 -1.23239 0
M  V30 16367 C 1562.39 -3.33988 -1.73577 0
M  V30 16368 C 1561.54 -2.69916 -0.63567 0
M  V30 16369 H 1564.49 -1.58336 0.10737 0
M  V30 16370 H 1564.51 -3.17166 -2.10205 0
M  V30 16371 H 1564.02 -3.8591 -0.411744 0
M  V30 16372 H 1562.12 -2.68712 -2.58118 0
M  V30 16373 H 1562.24 -4.42154 -1.84491 0
M  V30 16374 H 1560.6 -2.31163 -1.06939 0
M  V30 16375 H 1561.38 -3.42859 0.174005 0
M  V30 16376 N 1563.83 0.388742 -1.5273 0
M  V30 16377 C 1565.06 1.15495 -1.71664 0
M  V30 16378 C 1565.47 1.83717 -0.435127 0
M  V30 16379 O 1564.83 1.72686 0.590411 0
M  V30 16380 C 1564.88 2.20279 -2.86635 0
M  V30 16381 O 1564.6 1.54838 -4.09825 0
M  V30 16382 C 1566.1 3.09625 -3.1725 0
M  V30 16383 H 1563.32 0.346271 -0.57475 0
M  V30 16384 H 1565.87 0.454729 -1.9938 0
M  V30 16385 H 1564.02 2.85936 -2.61379 0
M  V30 16386 H 1564.44 2.24466 -4.74042 0
M  V30 16387 H 1565.91 3.79177 -4.01159 0
M  V30 16388 H 1566.39 3.73147 -2.31643 0
M  V30 16389 H 1566.99 2.49612 -3.44345 0
M  V30 16390 N 1565.31 1.43698 0.647203 0
M  V30 16391 C 1566.53 1.49301 1.43958 0
M  V30 16392 C 1566.96 0.11395 1.87755 0
M  V30 16393 O 1566.32 -0.893571 1.5775 0
M  V30 16394 C 1566.36 2.44905 2.64677 0
M  V30 16395 O 1565.47 1.93947 3.63948 0
M  V30 16396 H 1564.81 0.504771 0.431396 0
M  V30 16397 H 1567.34 1.88673 0.791432 0
M  V30 16398 H 1567.35 2.62409 3.12419 0
M  V30 16399 H 1566.02 3.45083 2.32143 0
M  V30 16400 H 1564.6 1.86133 3.23124 0
M  V30 16401 N 1566.79 -0.886131 1.30328 0
M  V30 16402 C 1567.73 -1.99174 1.16612 0
M  V30 16403 C 1568.7 -1.66006 0.0559202 0
M  V30 16404 O 1569.89 -1.89458 0.225897 0
M  V30 16405 C 1567.03 -3.34142 0.862726 0
M  V30 16406 C 1566.14 -3.80008 2.05469 0
M  V30 16407 C 1565.28 -5.03617 1.68949 0
M  V30 16408 C 1564.32 -5.41888 2.84647 0
M  V30 16409 N 1563.45 -6.56678 2.48431 0
M  V30 16410 H 1568.29 -2.10238 2.11197 0
M  V30 16411 H 1565.83 -1.02941 1.05079 0
M  V30 16412 H 1567.79 -4.11826 0.667447 0
M  V30 16413 H 1566.42 -3.22767 -0.0462461 0
M  V30 16414 H 1565.47 -2.98243 2.36126 0
M  V30 16415 H 1566.78 -4.04312 2.92119 0
M  V30 16416 H 1565.94 -5.88923 1.45789 0
M  V30 16417 H 1564.67 -4.81182 0.794674 0
M  V30 16418 H 1563.68 -4.55109 3.08474 0
M  V30 16419 H 1564.9 -5.66296 3.74813 0
M  V30 16420 H 1562.85 -6.35821 1.61453 0
M  V30 16421 H 1562.77 -6.80846 3.28611 0
M  V30 16422 H 1564.04 -7.45219 2.28624 0
M  V30 16423 N 1568.26 -1.13026 -1.09832 0
M  V30 16424 C 1569.51 -0.884093 -1.81292 0
M  V30 16425 C 1569.83 0.591608 -1.86439 0
M  V30 16426 O 1571.03 0.954571 -2.54166 0
M  V30 16427 C 1569.49 -1.53207 -3.25662 0
M  V30 16428 C 1569.1 -3.043 -3.28794 0
M  V30 16429 C 1570.84 -1.36644 -4.01906 0
M  V30 16430 C 1568.75 -3.62003 -4.67662 0
M  V30 16431 H 1567.68 -0.327101 -0.679353 0
M  V30 16432 H 1570.33 -1.35748 -1.2347 0
M  V30 16433 H 1568.71 -0.986353 -3.83519 0
M  V30 16434 H 1569.88 -3.65418 -2.80725 0
M  V30 16435 H 1568.2 -3.20332 -2.66038 0
M  V30 16436 H 1570.8 -1.7717 -5.04495 0
M  V30 16437 H 1571.14 -0.310809 -4.15138 0
M  V30 16438 H 1571.67 -1.88172 -3.5048 0
M  V30 16439 H 1568.41 -4.67354 -4.59631 0
M  V30 16440 H 1567.93 -3.05663 -5.16072 0
M  V30 16441 H 1569.61 -3.61432 -5.36634 0
M  V30 16442 N 1569.74 1.27735 -0.923117 0
M  V30 16443 C 1570.97 1.98394 -0.57648 0
M  V30 16444 C 1571.38 1.69093 0.848778 0
M  V30 16445 O 1570.72 0.945385 1.57506 0
M  V30 16446 C 1570.79 3.52278 -0.716984 0
M  V30 16447 C 1570.45 4.05191 -2.11351 0
M  V30 16448 C 1571.45 4.18314 -3.08722 0
M  V30 16449 C 1569.13 4.39652 -2.42922 0
M  V30 16450 C 1571.13 4.65166 -4.35774 0
M  V30 16451 C 1568.81 4.86196 -3.70211 0
M  V30 16452 C 1569.81 4.98911 -4.66451 0
M  V30 16453 O 1569.5 5.44437 -5.91476 0
M  V30 16454 H 1569.23 0.640008 -0.217636 0
M  V30 16455 H 1571.78 1.63666 -1.24107 0
M  V30 16456 H 1570.01 3.867 0.00469601 0
M  V30 16457 H 1571.7 4.04154 -0.376077 0
M  V30 16458 H 1572.47 3.91955 -2.85651 0
M  V30 16459 H 1568.35 4.29 -1.6876 0
M  V30 16460 H 1571.89 4.75006 -5.10896 0
M  V30 16461 H 1567.79 5.11997 -3.93103 0
M  V30 16462 H 1568.56 5.62701 -5.94399 0
M  V30 16463 N 1571.22 0.688118 1.41784 0
M  V30 16464 C 1572.47 0.213085 2.00571 0
M  V30 16465 C 1572.78 -1.19176 1.55101 0
M  V30 16466 O 1573.99 -1.76387 2.06397 0
M  V30 16467 C 1572.44 0.330075 3.58383 0
M  V30 16468 C 1572.05 1.73981 4.12837 0
M  V30 16469 C 1573.8 -0.0855651 4.24414 0
M  V30 16470 C 1571.7 1.80886 5.63058 0
M  V30 16471 H 1570.63 0.075906 0.750169 0
M  V30 16472 H 1573.28 0.855236 1.62351 0
M  V30 16473 H 1571.67 -0.380199 3.94171 0
M  V30 16474 H 1572.84 2.47825 3.88484 0
M  V30 16475 H 1571.16 2.10447 3.59306 0
M  V30 16476 H 1573.75 -0.0543142 5.34672 0
M  V30 16477 H 1574.1 -1.12307 4.00865 0
M  V30 16478 H 1574.63 0.574169 3.93635 0
M  V30 16479 H 1571.37 2.82663 5.91424 0
M  V30 16480 H 1570.89 1.11417 5.89361 0
M  V30 16481 H 1572.57 1.56835 6.27704 0
M  V30 16482 N 1572.7 -1.51554 0.432352 0
M  V30 16483 C 1573.92 -2.06947 -0.136995 0
M  V30 16484 C 1574.35 -1.29817 -1.36122 0
M  V30 16485 O 1573.71 -0.334733 -1.78183 0
M  V30 16486 C 1573.75 -3.57871 -0.442785 0
M  V30 16487 O 1572.86 -3.82966 -1.53007 0
M  V30 16488 H 1572.2 -0.663988 -0.00405152 0
M  V30 16489 H 1574.73 -1.95225 0.612249 0
M  V30 16490 H 1574.74 -4.02042 -0.694694 0
M  V30 16491 H 1573.41 -4.13436 0.452013 0
M  V30 16492 H 1571.99 -3.50661 -1.26851 0
M  V30 16493 N 1574.18 -0.163538 -1.56749 0
M  V30 16494 C 1575.09 0.782461 -2.21167 0
M  V30 16495 C 1576.1 1.25911 -1.20093 0
M  V30 16496 O 1577.28 1.31286 -1.52728 0
M  V30 16497 C 1574.34 1.99761 -2.83366 0
M  V30 16498 C 1573.4 1.56859 -3.99617 0
M  V30 16499 C 1572.64 2.72582 -4.58841 0
M  V30 16500 O 1572.86 3.89243 -4.16949 0
M  V30 16501 O 1571.79 2.47104 -5.48838 0
M  V30 16502 H 1575.62 0.264023 -3.0255 0
M  V30 16503 H 1573.21 0.06429 -1.49262 0
M  V30 16504 H 1575.09 2.70843 -3.22835 0
M  V30 16505 H 1573.76 2.50526 -2.04984 0
M  V30 16506 H 1572.67 0.827511 -3.64833 0
M  V30 16507 H 1574 1.10794 -4.79568 0
M  V30 16508 N 1575.65 1.57214 0.110213 0
M  V30 16509 C 1576.88 1.89505 0.830391 0
M  V30 16510 C 1577.3 0.755702 1.73016 0
M  V30 16511 O 1576.65 -0.273072 1.80445 0
M  V30 16512 C 1576.71 3.21316 1.65646 0
M  V30 16513 O 1576.43 4.30865 0.7929 0
M  V30 16514 C 1577.93 3.67369 2.48102 0
M  V30 16515 H 1575.15 0.627277 0.238252 0
M  V30 16516 H 1577.69 2.04293 0.0919716 0
M  V30 16517 H 1575.85 3.08171 2.34754 0
M  V30 16518 H 1576.26 5.06466 1.36353 0
M  V30 16519 H 1577.73 4.62335 3.0158 0
M  V30 16520 H 1578.21 2.94459 3.25869 0
M  V30 16521 H 1578.82 3.83331 1.8422 0
M  V30 16522 N 1577.13 -0.380637 1.52934 0
M  V30 16523 C 1578.36 -1.15033 1.72575 0
M  V30 16524 C 1578.78 -1.82715 0.446869 0
M  V30 16525 O 1578.14 -1.71154 -0.598004 0
M  V30 16526 C 1578.19 -2.16773 2.8817 0
M  V30 16527 O 1577.29 -3.23539 2.55727 0
M  V30 16528 H 1576.63 -0.334489 0.573597 0
M  V30 16529 H 1579.16 -0.442369 1.9976 0
M  V30 16530 H 1579.17 -2.60629 3.13905 0
M  V30 16531 H 1577.85 -1.669 3.80943 0
M  V30 16532 H 1576.43 -2.84761 2.4076 0
M  V30 16533 N 1578.61 -1.44039 -0.639573 0
M  V30 16534 C 1579.84 -1.49844 -1.42669 0
M  V30 16535 C 1580.25 -0.120599 -1.88414 0
M  V30 16536 O 1579.61 0.871875 -1.60327 0
M  V30 16537 C 1579.66 -2.45597 -2.65263 0
M  V30 16538 O 1579.38 -3.78023 -2.21427 0
M  V30 16539 C 1580.88 -2.60781 -3.5848 0
M  V30 16540 H 1578.1 -0.508477 -0.437826 0
M  V30 16541 H 1580.65 -1.88919 -0.782923 0
M  V30 16542 H 1578.8 -2.09679 -3.2575 0
M  V30 16543 H 1579.22 -4.29642 -3.00846 0
M  V30 16544 H 1580.69 -3.31826 -4.4113 0
M  V30 16545 H 1581.17 -1.65727 -4.06732 0
M  V30 16546 H 1581.77 -2.97565 -3.03867 0
M  V30 16547 N 1580.09 0.879207 -1.30796 0
M  V30 16548 C 1581.04 2.00692 -1.17582 0
M  V30 16549 C 1582.03 1.6918 -0.0863163 0
M  V30 16550 O 1583.24 1.78289 -0.24757 0
M  V30 16551 H 1579.61 0.65814 -0.363808 0
M  V30 16552 H 1581.58 2.0897 -2.13012 0
M  V30 16553 C 1580.33 3.36105 -0.890429 0
M  V30 16554 H 1579.65 3.60868 -1.72088 0
M  V30 16555 H 1581.09 4.15634 -0.838103 0
M  V30 16556 C 1579.55 3.34436 0.406734 0
M  V30 16557 O 1580.08 3.7552 1.42645 0
M  V30 16558 N 1578.29 2.87549 0.419963 0
M  V30 16559 H 1577.84 2.54311 -0.410343 0
M  V30 16560 H 1577.79 2.86815 1.28781 0
M  V30 16561 N 1581.57 1.13606 1.09231 0
M  V30 16562 C 1582.8 0.922295 1.85206 0
M  V30 16563 C 1583.21 -0.528954 1.81239 0
M  V30 16564 O 1582.57 -1.36622 1.20999 0
M  V30 16565 C 1582.62 1.40453 3.331 0
M  V30 16566 O 1582.34 2.7989 3.37036 0
M  V30 16567 C 1583.84 1.22948 4.25909 0
M  V30 16568 H 1581.06 0.328757 0.584945 0
M  V30 16569 H 1583.6 1.50911 1.38007 0
M  V30 16570 H 1581.76 0.86066 3.77719 0
M  V30 16571 H 1582.17 3.01342 4.29294 0
M  V30 16572 H 1583.65 1.61562 5.27827 0
M  V30 16573 H 1584.12 0.171387 4.38865 0
M  V30 16574 H 1584.73 1.76147 3.87108 0
M  V30 16575 N 1583.05 -1.27244 0.929878 0
M  V30 16576 C 1584.29 -1.94557 0.572306 0
M  V30 16577 C 1584.62 -1.72886 -0.884542 0
M  V30 16578 O 1583.9 -1.0592 -1.63129 0
M  V30 16579 C 1584.18 -3.48629 0.901675 0
M  V30 16580 C 1584.04 -3.79633 2.41244 0
M  V30 16581 C 1585.35 -4.38195 0.409093 0
M  V30 16582 H 1582.47 -0.706627 0.209397 0
M  V30 16583 H 1585.12 -1.50321 1.16205 0
M  V30 16584 H 1583.27 -3.86437 0.399791 0
M  V30 16585 H 1584.94 -3.51604 2.98618 0
M  V30 16586 H 1583.18 -3.26108 2.8607 0
M  V30 16587 H 1583.85 -4.87284 2.59342 0
M  V30 16588 H 1586.33 -4.07548 0.839256 0
M  V30 16589 H 1585.2 -5.44814 0.668482 0
M  V30 16590 H 1585.46 -4.36669 -0.690861 0
M  V30 16591 N 1584.52 -0.695628 -1.41417 0
M  V30 16592 C 1585.93 -0.3014 -1.84251 0
M  V30 16593 C 1586.29 1.16042 -1.58204 0
M  V30 16594 O 1585.41 1.89079 -1.05253 0
M  V30 16595 C 1586.01 -0.540256 -3.34465 0
M  V30 16596 C 1584.56 -0.199944 -3.75869 0
M  V30 16597 C 1583.71 -0.822511 -2.64821 0
M  V30 16598 H 1586.66 -0.896278 -1.30968 0
M  V30 16599 H 1586.68 0.201019 -3.79969 0
M  V30 16600 H 1586.2 -1.60427 -3.53391 0
M  V30 16601 H 1584.3 0.859798 -3.62544 0
M  V30 16602 H 1584.41 -0.655005 -4.74601 0
M  V30 16603 H 1582.77 -0.252109 -2.53449 0
M  V30 16604 H 1583.56 -1.89039 -2.86564 0
M  V30 16605 N 1586 1.51322 -0.440383 0
M  V30 16606 C 1586.95 2.2941 0.383883 0
M  V30 16607 C 1587.94 1.35388 1.01816 0
M  V30 16608 O 1589.15 1.52716 0.952775 0
M  V30 16609 H 1585.52 0.738354 0.142611 0
M  V30 16610 H 1587.5 2.96933 -0.295532 0
M  V30 16611 C 1586.24 3.15055 1.47091 0
M  V30 16612 H 1585.57 3.87292 0.992214 0
M  V30 16613 H 1587.01 3.72744 2.02084 0
M  V30 16614 C 1585.47 2.30628 2.45586 0
M  V30 16615 O 1586 1.96801 3.50189 0
M  V30 16616 N 1584.2 1.93792 2.16548 0
M  V30 16617 H 1583.75 2.215 1.31512 0
M  V30 16618 H 1583.71 1.37601 2.82689 0
M  V30 16619 N 1587.48 0.171848 1.5666 0
M  V30 16620 C 1588.71 -0.479221 2.01274 0
M  V30 16621 C 1589.12 -1.56771 1.05206 0
M  V30 16622 O 1588.48 -1.82423 0.0530164 0
M  V30 16623 C 1588.53 -1.05705 3.457 0
M  V30 16624 O 1588.25 -0.0120133 4.38098 0
M  V30 16625 C 1589.75 -1.78629 4.05717 0
M  V30 16626 H 1586.97 -0.122598 0.659705 0
M  V30 16627 H 1589.52 0.273733 2.0266 0
M  V30 16628 H 1587.67 -1.7605 3.45087 0
M  V30 16629 H 1588.09 -0.438714 5.22662 0
M  V30 16630 H 1589.56 -2.14319 5.08696 0
M  V30 16631 H 1590.04 -2.68149 3.4784 0
M  V30 16632 H 1590.64 -1.12925 4.10034 0
M  V30 16633 N 1588.96 -1.5727 -0.101874 0
M  V30 16634 C 1590.18 -1.90319 -0.824215 0
M  V30 16635 C 1590.61 -0.765469 -1.7182 0
M  V30 16636 O 1589.97 0.283275 -1.79073 0
M  V30 16637 C 1590.01 -3.22201 -1.61922 0
M  V30 16638 O 1589.12 -3.09313 -2.72762 0
M  V30 16639 H 1588.46 -0.624042 -0.226864 0
M  V30 16640 H 1590.99 -2.04447 -0.0791314 0
M  V30 16641 H 1591 -3.55343 -2.00487 0
M  V30 16642 H 1589.67 -4.04596 -0.963078 0
M  V30 16643 H 1588.25 -2.87672 -2.37274 0
M  V30 16644 N 1590.44 0.372521 -1.53134 0
M  V30 16645 C 1591.85 0.949671 -1.60742 0
M  V30 16646 C 1592.2 1.90475 -0.470501 0
M  V30 16647 O 1591.32 2.12594 0.404085 0
M  V30 16648 C 1591.92 1.72918 -2.9135 0
M  V30 16649 C 1590.48 2.25577 -3.01317 0
M  V30 16650 C 1589.62 1.06612 -2.55986 0
M  V30 16651 H 1592.57 0.151533 -1.57975 0
M  V30 16652 H 1592.6 2.58982 -2.78763 0
M  V30 16653 H 1592.11 1.0338 -3.74078 0
M  V30 16654 H 1590.21 2.98378 -2.23162 0
M  V30 16655 H 1590.32 2.53935 -4.06268 0
M  V30 16656 H 1588.69 1.43105 -2.10697 0
M  V30 16657 H 1589.47 0.38584 -3.41125 0
M  V30 16658 N 1591.91 1.44376 0.631925 0
M  V30 16659 C 1593.14 1.50598 1.41873 0
M  V30 16660 C 1593.56 0.130589 1.88348 0
M  V30 16661 O 1592.91 -0.86336 1.60787 0
M  V30 16662 C 1592.96 2.47 2.63957 0
M  V30 16663 O 1592.69 3.79192 2.1942 0
M  V30 16664 C 1594.19 2.62678 3.57092 0
M  V30 16665 H 1591.41 0.510792 0.435124 0
M  V30 16666 H 1593.95 1.89332 0.772893 0
M  V30 16667 H 1592.11 2.11404 3.24634 0
M  V30 16668 H 1592.52 4.31231 2.98563 0
M  V30 16669 H 1593.99 3.34161 4.39364 0
M  V30 16670 H 1594.47 1.67881 4.05848 0
M  V30 16671 H 1595.08 2.99172 3.02285 0
M  V30 16672 N 1593.39 -0.872258 1.31261 0
M  V30 16673 C 1594.35 -1.96081 1.1868 0
M  V30 16674 C 1595.35 -1.60392 0.11452 0
M  V30 16675 O 1596.54 -1.70363 0.363613 0
M  V30 16676 C 1593.68 -3.30862 0.821183 0
M  V30 16677 H 1594.87 -2.08667 2.15402 0
M  V30 16678 H 1592.42 -1.06026 1.14839 0
M  V30 16679 H 1593.16 -3.23976 -0.14498 0
M  V30 16680 H 1592.94 -3.58137 1.59625 0
M  V30 16681 H 1594.43 -4.10682 0.756991 0
M  V30 16682 N 1594.87 -1.14184 -1.08627 0
M  V30 16683 C 1595.83 -0.82954 -2.13662 0
M  V30 16684 C 1596.83 0.164794 -1.59953 0
M  V30 16685 O 1598.02 -0.0632831 -1.74085 0
M  V30 16686 C 1595.15 -0.236176 -3.40081 0
M  V30 16687 H 1596.35 -1.76038 -2.42797 0
M  V30 16688 H 1593.9 -0.947568 -1.24301 0
M  V30 16689 H 1594.64 0.70349 -3.16578 0
M  V30 16690 H 1594.42 -0.952341 -3.80359 0
M  V30 16691 H 1595.91 -0.03481 -4.17585 0
M  V30 16692 N 1596.35 1.26749 -0.936613 0
M  V30 16693 C 1597.57 1.98597 -0.597817 0
M  V30 16694 C 1598 1.69324 0.8192 0
M  V30 16695 O 1597.36 0.938634 1.55111 0
M  V30 16696 C 1597.4 3.50656 -0.841007 0
M  V30 16697 O 1596.51 4.12304 0.0891038 0
M  V30 16698 H 1595.85 0.623197 -0.229176 0
M  V30 16699 H 1598.38 1.61332 -1.2583 0
M  V30 16700 H 1598.39 4.00857 -0.760093 0
M  V30 16701 H 1597.06 3.71293 -1.87388 0
M  V30 16702 H 1595.64 3.72876 -0.0424804 0
M  V30 16703 N 1597.83 0.703118 1.41046 0
M  V30 16704 C 1599.07 0.237638 2.01403 0
M  V30 16705 C 1599.41 -1.16217 1.55587 0
M  V30 16706 O 1598.68 -1.78593 0.770377 0
M  V30 16707 C 1598.96 0.303738 3.58817 0
M  V30 16708 C 1598.82 1.74103 4.14739 0
M  V30 16709 C 1600.14 -0.332186 4.38845 0
M  V30 16710 H 1597.25 0.0878243 0.731749 0
M  V30 16711 H 1599.9 0.893264 1.67693 0
M  V30 16712 H 1598.05 -0.254485 3.87666 0
M  V30 16713 H 1599.72 2.35368 3.96736 0
M  V30 16714 H 1597.96 2.27277 3.69496 0
M  V30 16715 H 1598.63 1.73876 5.239 0
M  V30 16716 H 1601.11 0.143312 4.15853 0
M  V30 16717 H 1599.98 -0.255429 5.48305 0
M  V30 16718 H 1600.25 -1.41397 4.18878 0
M  V30 16719 N 1599.3 -1.51086 0.448402 0
M  V30 16720 C 1600.53 -2.07081 -0.115038 0
M  V30 16721 C 1600.95 -1.31253 -1.34737 0
M  V30 16722 O 1600.31 -0.353613 -1.77818 0
M  V30 16723 C 1600.36 -3.58321 -0.404803 0
M  V30 16724 O 1599.46 -3.84567 -1.48936 0
M  V30 16725 H 1598.81 -0.663993 0.00299118 0
M  V30 16726 H 1601.34 -1.94564 0.632921 0
M  V30 16727 H 1601.35 -4.02756 -0.652013 0
M  V30 16728 H 1600.02 -4.12934 0.495838 0
M  V30 16729 H 1598.6 -3.51987 -1.23124 0
M  V30 16730 N 1600.78 -0.180154 -1.56567 0
M  V30 16731 C 1601.75 0.732809 -2.17169 0
M  V30 16732 C 1602.75 1.15176 -1.1221 0
M  V30 16733 O 1603.94 1.06728 -1.37677 0
M  V30 16734 C 1601.07 1.99857 -2.7617 0
M  V30 16735 H 1602.26 0.205088 -2.99198 0
M  V30 16736 H 1599.81 0.0694351 -1.56146 0
M  V30 16737 H 1600.55 2.56917 -1.97899 0
M  V30 16738 H 1600.33 1.70705 -3.5299 0
M  V30 16739 H 1601.82 2.64992 -3.22752 0
M  V30 16740 N 1602.26 1.57322 0.0935319 0
M  V30 16741 C 1603.54 1.77187 0.828503 0
M  V30 16742 C 1603.92 0.762216 1.96859 0
M  V30 16743 O 1603.27 -0.208982 2.27542 0
M  V30 16744 C 1603.48 3.23007 1.32163 0
M  V30 16745 C 1604.82 3.86233 1.76379 0
M  V30 16746 O 1605.85 3.26766 1.41783 0
M  V30 16747 O 1604.71 4.90808 2.40354 0
M  V30 16748 H 1601.8 0.726401 0.395311 0
M  V30 16749 H 1604.35 1.69533 0.0752924 0
M  V30 16750 H 1603.12 3.88029 0.504863 0
M  V30 16751 H 1602.74 3.353 2.13681 0
M  V30 16752 N 1603.74 -0.364395 1.53329 0
M  V30 16753 C 1604.67 -1.45243 1.8283 0
M  V30 16754 C 1605.65 -1.55834 0.681886 0
M  V30 16755 O 1606.83 -1.70383 0.931845 0
M  V30 16756 C 1603.96 -2.82565 2.01926 0
M  V30 16757 C 1602.92 -2.86797 3.17697 0
M  V30 16758 C 1602.24 -4.26806 3.22089 0
M  V30 16759 C 1603.54 -2.54212 4.56261 0
M  V30 16760 H 1605.24 -1.20804 2.73946 0
M  V30 16761 H 1602.78 -0.579705 1.31816 0
M  V30 16762 H 1604.74 -3.58709 2.21147 0
M  V30 16763 H 1603.46 -3.08394 1.07521 0
M  V30 16764 H 1602.12 -2.13105 2.98298 0
M  V30 16765 H 1601.77 -4.49712 2.25318 0
M  V30 16766 H 1601.47 -4.30553 3.99873 0
M  V30 16767 H 1602.99 -5.04821 3.43495 0
M  V30 16768 H 1604.41 -3.20069 4.75635 0
M  V30 16769 H 1602.8 -2.69273 5.36295 0
M  V30 16770 H 1603.87 -1.49458 4.61292 0
M  V30 16771 N 1605.22 -1.44709 -0.62426 0
M  V30 16772 C 1606.16 -1.52413 -1.75707 0
M  V30 16773 C 1607.16 -0.395303 -1.64723 0
M  V30 16774 O 1608.36 -0.570535 -1.70719 0
M  V30 16775 H 1604.74 -0.478401 -0.580204 0
M  V30 16776 H 1606.71 -2.47742 -1.66333 0
M  V30 16777 C 1605.46 -1.49208 -3.14058 0
M  V30 16778 H 1604.78 -2.35387 -3.23161 0
M  V30 16779 H 1606.22 -1.58658 -3.93197 0
M  V30 16780 C 1604.68 -0.213877 -3.3622 0
M  V30 16781 O 1605.21 0.713128 -3.95319 0
M  V30 16782 N 1603.42 -0.114834 -2.90373 0
M  V30 16783 H 1602.96 -0.870047 -2.42462 0
M  V30 16784 H 1602.92 0.739619 -3.05576 0
M  V30 16785 N 1606.69 0.865285 -1.31722 0
M  V30 16786 C 1607.94 1.61549 -1.21435 0
M  V30 16787 C 1608.26 1.9368 0.226501 0
M  V30 16788 O 1607.53 1.58705 1.14846 0
M  V30 16789 H 1606.11 0.598905 -0.446454 0
M  V30 16790 H 1608.78 1.03563 -1.65108 0
M  V30 16791 H 1607.87 2.55708 -1.78941 0
M  V30 16792 N 1608.17 1.14759 1.0802 0
M  V30 16793 C 1609.1 0.795901 2.14937 0
M  V30 16794 C 1610.12 -0.189008 1.61699 0
M  V30 16795 O 1611.31 0.0332689 1.78469 0
M  V30 16796 C 1608.41 0.161388 3.38516 0
M  V30 16797 C 1607.58 1.18202 4.21126 0
M  V30 16798 C 1606.64 0.570535 5.23098 0
M  V30 16799 O 1605.66 1.2346 5.55649 0
M  V30 16800 N 1606.87 -0.650883 5.76839 0
M  V30 16801 H 1609.63 1.716 2.4571 0
M  V30 16802 H 1607.19 1.04254 1.23866 0
M  V30 16803 H 1609.18 -0.260289 4.03862 0
M  V30 16804 H 1607.75 -0.661917 3.05512 0
M  V30 16805 H 1606.97 1.78049 3.51699 0
M  V30 16806 H 1608.26 1.87135 4.73136 0
M  V30 16807 H 1607.66 -1.2089 5.52632 0
M  V30 16808 H 1606.22 -1.01501 6.43848 0
M  V30 16809 N 1609.65 -1.26251 0.943322 0
M  V30 16810 C 1610.61 -2.24554 0.459158 0
M  V30 16811 C 1611.61 -1.54918 -0.430926 0
M  V30 16812 O 1612.8 -1.72678 -0.229803 0
M  V30 16813 C 1609.94 -3.39221 -0.337973 0
M  V30 16814 H 1611.13 -2.689 1.32789 0
M  V30 16815 H 1608.68 -1.38442 0.725495 0
M  V30 16816 H 1609.42 -3.00279 -1.22486 0
M  V30 16817 H 1609.2 -3.90947 0.300428 0
M  V30 16818 H 1610.69 -4.12246 -0.666568 0
M  V30 16819 N 1611.13 -0.710588 -1.40671 0
M  V30 16820 C 1612.38 -0.248316 -2.01274 0
M  V30 16821 C 1612.71 1.1539 -1.56201 0
M  V30 16822 O 1611.98 1.78182 -0.779838 0
M  V30 16823 C 1612.27 -0.322762 -3.58651 0
M  V30 16824 C 1612.12 -1.763 -4.1381 0
M  V30 16825 C 1613.44 0.308908 -4.39015 0
M  V30 16826 H 1610.56 -0.0917037 -0.731272 0
M  V30 16827 H 1613.2 -0.902145 -1.67216 0
M  V30 16828 H 1611.35 0.233923 -3.87795 0
M  V30 16829 H 1613.02 -2.37468 -3.95483 0
M  V30 16830 H 1611.26 -2.29233 -3.68286 0
M  V30 16831 H 1611.94 -1.76652 -5.22971 0
M  V30 16832 H 1614.41 -0.165363 -4.15771 0
M  V30 16833 H 1613.29 0.226347 -5.48433 0
M  V30 16834 H 1613.55 1.39174 -4.19622 0
M  V30 16835 N 1612.61 1.50847 -0.456408 0
M  V30 16836 C 1613.84 2.0635 0.10159 0
M  V30 16837 C 1614.25 1.32198 1.35353 0
M  V30 16838 O 1613.59 0.380433 1.79718 0
M  V30 16839 C 1613.65 3.56411 0.470283 0
M  V30 16840 C 1613.31 4.51949 -0.677546 0
M  V30 16841 C 1614.31 4.96091 -1.55531 0
M  V30 16842 C 1612 4.94819 -0.863701 0
M  V30 16843 C 1613.99 5.81793 -2.60377 0
M  V30 16844 C 1611.68 5.80306 -1.9154 0
M  V30 16845 C 1612.68 6.23693 -2.78381 0
M  V30 16846 O 1612.36 7.0748 -3.81742 0
M  V30 16847 H 1612.1 0.675994 0.00283373 0
M  V30 16848 H 1614.65 1.95178 -0.639893 0
M  V30 16849 H 1612.88 3.65433 1.26475 0
M  V30 16850 H 1614.57 3.94344 0.961649 0
M  V30 16851 H 1615.33 4.63651 -1.42311 0
M  V30 16852 H 1611.21 4.60578 -0.197285 0
M  V30 16853 H 1614.76 6.15578 -3.2819 0
M  V30 16854 H 1610.65 6.12159 -2.04773 0
M  V30 16855 H 1611.42 7.257 -3.78553 0
M  V30 16856 N 1614.09 0.188454 1.56469 0
M  V30 16857 C 1615.05 -0.721282 2.17555 0
M  V30 16858 C 1616.05 -1.14579 1.1282 0
M  V30 16859 O 1617.24 -1.05996 1.38241 0
M  V30 16860 C 1614.37 -1.9839 2.77226 0
M  V30 16861 H 1615.56 -0.189218 2.99302 0
M  V30 16862 H 1613.12 -0.0611533 1.5618 0
M  V30 16863 H 1613.85 -2.55864 1.99259 0
M  V30 16864 H 1613.64 -1.68831 3.53891 0
M  V30 16865 H 1615.13 -2.63277 3.24153 0
M  V30 16866 N 1615.56 -1.5737 -0.0851874 0
M  V30 16867 C 1616.53 -2.01789 -1.08692 0
M  V30 16868 C 1617.53 -0.912872 -1.32376 0
M  V30 16869 O 1618.72 -1.1781 -1.28322 0
M  V30 16870 C 1615.85 -2.38708 -2.43375 0
M  V30 16871 H 1617.04 -2.91511 -0.704359 0
M  V30 16872 H 1614.59 -1.52765 -0.330528 0
M  V30 16873 H 1615.33 -1.5197 -2.86488 0
M  V30 16874 H 1615.11 -3.19331 -2.2753 0
M  V30 16875 H 1616.6 -2.73697 -3.15404 0
M  V30 16876 N 1617.04 0.356258 -1.53521 0
M  V30 16877 C 1618.28 1.10649 -1.71861 0
M  V30 16878 C 1618.65 1.86277 -0.465286 0
M  V30 16879 O 1619.85 2.63613 -0.52552 0
M  V30 16880 C 1618.12 2.03282 -2.93958 0
M  V30 16881 S 1619.68 2.85699 -3.33048 0
M  V30 16882 H 1616.49 0.374066 -0.604645 0
M  V30 16883 H 1619.1 0.386526 -1.91641 0
M  V30 16884 H 1617.8 1.46501 -3.83361 0
M  V30 16885 H 1617.33 2.79736 -2.76607 0
M  V30 16886 H 1619.35 4.05634 -2.85789 0
M  V30 16887 N 1618.52 1.45038 0.616577 0
M  V30 16888 C 1619.45 1.49023 1.7414 0
M  V30 16889 C 1620.46 0.381965 1.58256 0
M  V30 16890 O 1621.65 0.648527 1.66302 0
M  V30 16891 C 1618.75 1.32233 3.12038 0
M  V30 16892 C 1617.93 2.5657 3.54246 0
M  V30 16893 C 1616.99 2.34468 4.71075 0
M  V30 16894 O 1616.01 3.08035 4.78647 0
M  V30 16895 N 1617.21 1.38454 5.63747 0
M  V30 16896 H 1619.98 2.45997 1.71189 0
M  V30 16897 H 1617.54 1.40663 0.80159 0
M  V30 16898 H 1619.53 1.15271 3.87936 0
M  V30 16899 H 1618.1 0.435685 3.09549 0
M  V30 16900 H 1617.32 2.88709 2.68404 0
M  V30 16901 H 1618.61 3.39239 3.79203 0
M  V30 16902 H 1618.01 0.777236 5.60335 0
M  V30 16903 H 1616.56 1.27467 6.39215 0
M  V30 16904 N 1620 -0.858287 1.32179 0
M  V30 16905 C 1621.23 -1.64473 1.25523 0
M  V30 16906 C 1621.64 -1.87964 -0.177425 0
M  V30 16907 O 1621 -1.44607 -1.11333 0
M  V30 16908 C 1621.05 -3.00609 2.0079 0
M  V30 16909 O 1620.77 -2.7816 3.38465 0
M  V30 16910 C 1622.27 -3.95054 2.01115 0
M  V30 16911 H 1619.49 -0.512393 0.433237 0
M  V30 16912 H 1622.03 -1.07048 1.74244 0
M  V30 16913 H 1620.19 -3.5469 1.55801 0
M  V30 16914 H 1620.6 -3.64712 3.76942 0
M  V30 16915 H 1622.08 -4.87854 2.58268 0
M  V30 16916 H 1622.55 -4.27746 0.996513 0
M  V30 16917 H 1623.16 -3.4691 2.46035 0
M  V30 16918 N 1621.48 -1.1533 -1.07409 0
M  V30 16919 C 1622.72 -0.922348 -1.79376 0
M  V30 16920 C 1623.04 0.551929 -1.87652 0
M  V30 16921 O 1624.24 0.900444 -2.56133 0
M  V30 16922 C 1622.7 -1.60081 -3.22339 0
M  V30 16923 C 1622.31 -3.11206 -3.22265 0
M  V30 16924 C 1624.05 -1.45138 -3.98917 0
M  V30 16925 C 1621.96 -3.71842 -4.59878 0
M  V30 16926 H 1620.89 -0.341438 -0.672262 0
M  V30 16927 H 1623.54 -1.38336 -1.20562 0
M  V30 16928 H 1621.92 -1.06748 -3.81341 0
M  V30 16929 H 1623.1 -3.7129 -2.72911 0
M  V30 16930 H 1621.41 -3.25903 -2.59183 0
M  V30 16931 H 1624.01 -1.87832 -5.00623 0
M  V30 16932 H 1624.35 -0.398796 -4.14385 0
M  V30 16933 H 1624.88 -1.95564 -3.46409 0
M  V30 16934 H 1621.62 -4.76998 -4.49614 0
M  V30 16935 H 1621.14 -3.16541 -5.09472 0
M  V30 16936 H 1622.82 -3.72733 -5.28847 0
M  V30 16937 N 1622.95 1.25748 -0.950004 0
M  V30 16938 C 1623.88 2.28419 -0.484467 0
M  V30 16939 C 1624.86 1.63569 0.466813 0
M  V30 16940 O 1626.05 1.90705 0.366766 0
M  V30 16941 C 1623.18 3.46449 0.242916 0
M  V30 16942 C 1622.13 4.23447 -0.622657 0
M  V30 16943 C 1621.46 5.34182 0.235199 0
M  V30 16944 C 1622.76 4.86576 -1.89845 0
M  V30 16945 H 1624.45 2.6761 -1.34257 0
M  V30 16946 H 1622 1.28646 -0.647014 0
M  V30 16947 H 1623.95 4.17394 0.579693 0
M  V30 16948 H 1622.68 3.06235 1.13523 0
M  V30 16949 H 1621.34 3.54279 -0.942453 0
M  V30 16950 H 1620.98 4.90209 1.12713 0
M  V30 16951 H 1620.68 5.86612 -0.340609 0
M  V30 16952 H 1622.21 6.07961 0.567048 0
M  V30 16953 H 1623.62 5.49688 -1.62837 0
M  V30 16954 H 1622.02 5.49162 -2.41954 0
M  V30 16955 H 1623.09 4.09021 -2.60441 0
M  V30 16956 N 1624.43 0.718038 1.40292 0
M  V30 16957 C 1625.38 0.0670495 2.30703 0
M  V30 16958 C 1626.35 -0.747716 1.48319 0
M  V30 16959 O 1627.53 -0.711161 1.77051 0
M  V30 16960 C 1624.67 -0.846918 3.34546 0
M  V30 16961 C 1623.79 -0.0213622 4.31995 0
M  V30 16962 C 1622.92 -0.935035 5.22906 0
M  V30 16963 C 1621.96 -0.103715 6.12012 0
M  V30 16964 N 1621.1 -0.972397 6.95334 0
M  V30 16965 H 1625.94 0.843724 2.85806 0
M  V30 16966 H 1623.47 0.427756 1.40743 0
M  V30 16967 H 1625.43 -1.39109 3.93325 0
M  V30 16968 H 1624.06 -1.58975 2.80939 0
M  V30 16969 H 1623.11 0.640026 3.74977 0
M  V30 16970 H 1624.43 0.62215 4.94905 0
M  V30 16971 H 1623.58 -1.54766 5.86628 0
M  V30 16972 H 1622.32 -1.61236 4.60276 0
M  V30 16973 H 1621.32 0.521826 5.47318 0
M  V30 16974 H 1622.55 0.570146 6.76702 0
M  V30 16975 H 1620.5 -1.63533 6.3529 0
M  V30 16976 H 1620.41 -0.384977 7.55019 0
M  V30 16977 H 1621.68 -1.57112 7.63503 0
M  V30 16978 N 1625.91 -1.50602 0.464402 0
M  V30 16979 C 1627.33 -1.59162 0.118173 0
M  V30 16980 C 1627.53 -1.47313 -1.37481 0
M  V30 16981 O 1626.58 -1.32819 -2.14745 0
M  V30 16982 C 1627.9 -2.93313 0.662411 0
M  V30 16983 C 1629.44 -3.06692 0.625244 0
M  V30 16984 C 1629.92 -4.43407 1.14691 0
M  V30 16985 N 1631.41 -4.49801 1.10604 0
M  V30 16986 C 1632.14 -5.53964 1.48026 0
M  V30 16987 N 1631.64 -6.65413 1.92865 0
M  V30 16988 N 1633.43 -5.44471 1.39671 0
M  V30 16989 H 1625.58 -1.56548 1.4355 0
M  V30 16990 H 1627.85 -0.739451 0.593225 0
M  V30 16991 H 1627.55 -3.07439 1.70805 0
M  V30 16992 H 1627.43 -3.77061 0.102251 0
M  V30 16993 H 1629.81 -2.92217 -0.411466 0
M  V30 16994 H 1629.9 -2.24717 1.22213 0
M  V30 16995 H 1629.54 -4.5863 2.18222 0
M  V30 16996 H 1629.47 -5.23963 0.526306 0
M  V30 16997 H 1631.96 -3.69824 0.77709 0
M  V30 16998 H 1632.27 -7.40947 2.19585 0
M  V30 16999 H 1630.62 -6.66551 1.96812 0
M  V30 17000 H 1633.81 -4.56289 1.04487 0
M  V30 17001 H 1633.98 -6.25531 1.69161 0
M  V30 17002 N 1627.39 -0.19675 -1.56367 0
M  V30 17003 C 1628.32 0.718607 -2.22167 0
M  V30 17004 C 1629.3 1.22002 -1.1853 0
M  V30 17005 O 1630.48 1.26856 -1.47042 0
M  V30 17006 C 1627.61 1.93753 -2.88231 0
M  V30 17007 C 1626.57 1.57096 -3.98127 0
M  V30 17008 C 1625.89 2.86663 -4.51363 0
M  V30 17009 C 1627.19 0.779649 -5.16448 0
M  V30 17010 H 1628.89 0.170064 -2.98917 0
M  V30 17011 H 1626.43 0.0803568 -1.43776 0
M  V30 17012 H 1628.39 2.58312 -3.32946 0
M  V30 17013 H 1627.11 2.51063 -2.0889 0
M  V30 17014 H 1625.77 0.948947 -3.54105 0
M  V30 17015 H 1625.42 3.42066 -3.68782 0
M  V30 17016 H 1625.12 2.6288 -5.25517 0
M  V30 17017 H 1626.64 3.52207 -4.98781 0
M  V30 17018 H 1628.06 1.32838 -5.57698 0
M  V30 17019 H 1626.45 0.639882 -5.96679 0
M  V30 17020 H 1627.52 -0.218944 -4.84405 0
M  V30 17021 N 1628.87 1.57413 0.0768405 0
M  V30 17022 C 1629.78 2.06688 1.10983 0
M  V30 17023 C 1630.79 0.995392 1.42716 0
M  V30 17024 O 1631.97 1.30977 1.52994 0
M  V30 17025 C 1629.03 2.49676 2.40546 0
M  V30 17026 C 1628.09 3.71101 2.1583 0
M  V30 17027 C 1627.33 4.1203 3.39216 0
M  V30 17028 O 1627.55 3.52877 4.48145 0
M  V30 17029 O 1626.48 5.04856 3.27726 0
M  V30 17030 H 1630.31 2.95012 0.721242 0
M  V30 17031 H 1627.9 1.46546 0.290624 0
M  V30 17032 H 1629.78 2.77871 3.16805 0
M  V30 17033 H 1628.45 1.64484 2.78795 0
M  V30 17034 H 1627.36 3.47996 1.37293 0
M  V30 17035 H 1628.69 4.5713 1.82465 0
M  V30 17036 N 1630.34 -0.348112 1.53707 0
M  V30 17037 C 1631.76 -0.923978 1.62233 0
M  V30 17038 C 1632.11 -1.89702 0.500744 0
M  V30 17039 O 1631.23 -2.1321 -0.370212 0
M  V30 17040 C 1631.83 -1.68261 2.94064 0
M  V30 17041 C 1630.39 -2.20755 3.04867 0
M  V30 17042 C 1629.53 -1.02526 2.5765 0
M  V30 17043 H 1632.48 -0.126381 1.58196 0
M  V30 17044 H 1632.5 -2.54514 2.82848 0
M  V30 17045 H 1632.02 -0.974155 3.75675 0
M  V30 17046 H 1630.12 -2.9479 2.27881 0
M  V30 17047 H 1630.23 -2.47439 4.10257 0
M  V30 17048 H 1628.59 -1.39735 2.12947 0
M  V30 17049 H 1629.38 -0.331521 3.41696 0
M  V30 17050 N 1631.82 -1.45363 -0.608876 0
M  V30 17051 C 1633.05 -1.52614 -1.39257 0
M  V30 17052 C 1633.46 -0.157106 -1.88547 0
M  V30 17053 O 1632.8 0.851329 -1.62782 0
M  V30 17054 C 1632.87 -2.44821 -2.63255 0
M  V30 17055 C 1632.53 -3.91582 -2.35612 0
M  V30 17056 C 1633.53 -4.81517 -1.96054 0
M  V30 17057 C 1631.21 -4.36488 -2.48564 0
M  V30 17058 C 1633.21 -6.14365 -1.69808 0
M  V30 17059 C 1630.89 -5.69377 -2.21931 0
M  V30 17060 C 1631.89 -6.58135 -1.82614 0
M  V30 17061 O 1631.58 -7.88561 -1.56292 0
M  V30 17062 H 1631.31 -0.51935 -0.432726 0
M  V30 17063 H 1633.86 -1.91227 -0.749768 0
M  V30 17064 H 1632.09 -2.01177 -3.30249 0
M  V30 17065 H 1633.78 -2.4277 -3.25296 0
M  V30 17066 H 1634.55 -4.48088 -1.85585 0
M  V30 17067 H 1630.43 -3.67646 -2.78133 0
M  V30 17068 H 1633.97 -6.83602 -1.39045 0
M  V30 17069 H 1629.87 -6.02361 -2.32016 0
M  V30 17070 H 1630.64 -8.00576 -1.70355 0
M  V30 17071 N 1633.3 0.851265 -1.32632 0
M  V30 17072 C 1634.25 1.96012 -1.21852 0
M  V30 17073 C 1635.22 1.65799 -0.0999141 0
M  V30 17074 O 1636.4 1.88793 -0.276049 0
M  V30 17075 C 1633.54 3.31737 -0.951014 0
M  V30 17076 C 1632.66 3.74427 -2.15472 0
M  V30 17077 C 1631.79 4.9896 -1.82242 0
M  V30 17078 C 1630.83 5.3415 -2.98914 0
M  V30 17079 N 1629.97 6.49861 -2.65754 0
M  V30 17080 H 1634.81 2.04565 -2.16696 0
M  V30 17081 H 1632.34 1.00119 -1.07771 0
M  V30 17082 H 1634.3 4.09912 -0.776401 0
M  V30 17083 H 1632.93 3.22776 -0.0393461 0
M  V30 17084 H 1631.98 2.91878 -2.4395 0
M  V30 17085 H 1633.3 3.96425 -3.02736 0
M  V30 17086 H 1632.45 5.84851 -1.61352 0
M  V30 17087 H 1631.19 4.78906 -0.921971 0
M  V30 17088 H 1630.19 4.4677 -3.20432 0
M  V30 17089 H 1631.42 5.5616 -3.89696 0
M  V30 17090 H 1629.36 6.31317 -1.78254 0
M  V30 17091 H 1629.28 6.71894 -3.46547 0
M  V30 17092 H 1630.55 7.38895 -2.48302 0
M  V30 17093 N 1634.78 1.15898 1.06796 0
M  V30 17094 C 1635.73 0.860895 2.14143 0
M  V30 17095 C 1636.7 -0.188539 1.65026 0
M  V30 17096 O 1637.88 -0.0548558 1.90721 0
M  V30 17097 C 1635.02 0.362533 3.4319 0
M  V30 17098 C 1634.13 1.4742 4.06068 0
M  V30 17099 C 1633.27 0.931377 5.22971 0
M  V30 17100 C 1632.31 2.0196 5.77822 0
M  V30 17101 N 1631.44 1.49274 6.86048 0
M  V30 17102 H 1636.28 1.78023 2.38981 0
M  V30 17103 H 1633.82 0.888173 1.1726 0
M  V30 17104 H 1635.78 0.0552592 4.17163 0
M  V30 17105 H 1634.41 -0.519869 3.18586 0
M  V30 17106 H 1633.46 1.89754 3.29693 0
M  V30 17107 H 1634.77 2.29559 4.42836 0
M  V30 17108 H 1633.93 0.576982 6.0395 0
M  V30 17109 H 1632.67 0.0792265 4.87636 0
M  V30 17110 H 1631.67 2.38275 4.95485 0
M  V30 17111 H 1632.9 2.87562 6.15211 0
M  V30 17112 H 1630.84 0.663037 6.52641 0
M  V30 17113 H 1630.76 2.25035 7.21731 0
M  V30 17114 H 1632.03 1.16676 7.70718 0
M  V30 17115 N 1636.26 -1.25243 0.956659 0
M  V30 17116 C 1637.2 -2.25811 0.477292 0
M  V30 17117 C 1638.17 -1.59273 -0.471301 0
M  V30 17118 O 1639.36 -1.86894 -0.384105 0
M  V30 17119 C 1636.5 -3.44286 -0.236891 0
M  V30 17120 C 1635.61 -4.25454 0.749177 0
M  V30 17121 C 1634.75 -5.31199 0.012228 0
M  V30 17122 C 1633.79 -6.04056 0.989094 0
M  V30 17123 N 1632.92 -7.0153 0.282883 0
M  V30 17124 H 1637.76 -2.66185 1.33977 0
M  V30 17125 H 1635.3 -1.30862 0.671832 0
M  V30 17126 H 1637.26 -4.11825 -0.66755 0
M  V30 17127 H 1635.89 -3.04781 -1.06339 0
M  V30 17128 H 1634.94 -3.57558 1.29831 0
M  V30 17129 H 1636.25 -4.75883 1.49454 0
M  V30 17130 H 1635.41 -6.04822 -0.476968 0
M  V30 17131 H 1634.14 -4.81648 -0.76591 0
M  V30 17132 H 1633.15 -5.29245 1.48927 0
M  V30 17133 H 1634.37 -6.55695 1.76749 0
M  V30 17134 H 1632.32 -6.54267 -0.476479 0
M  V30 17135 H 1632.24 -7.49786 0.967304 0
M  V30 17136 H 1633.51 -7.79281 -0.184709 0
M  V30 17137 N 1637.73 -0.725468 -1.3991 0
M  V30 17138 C 1638.68 -0.0682776 -2.325 0
M  V30 17139 C 1639.68 0.736285 -1.52562 0
M  V30 17140 O 1640.88 0.638542 -1.68293 0
M  V30 17141 H 1637.26 -0.00327742 -0.751993 0
M  V30 17142 H 1639.23 -0.865735 -2.85565 0
M  V30 17143 C 1637.98 0.832036 -3.37598 0
M  V30 17144 H 1637.3 0.222341 -3.99181 0
M  V30 17145 H 1638.74 1.25965 -4.04856 0
M  V30 17146 C 1637.2 1.96201 -2.73874 0
M  V30 17147 O 1637.73 3.05378 -2.60974 0
M  V30 17148 N 1635.94 1.74857 -2.32106 0
M  V30 17149 H 1635.48 0.860621 -2.42798 0
M  V30 17150 H 1635.44 2.50639 -1.89808 0
M  V30 17151 N 1639.21 1.50354 -0.472382 0
M  V30 17152 C 1640.62 1.86692 -0.0175768 0
M  V30 17153 C 1640.97 1.38708 1.3876 0
M  V30 17154 O 1640.1 0.752614 2.02891 0
M  V30 17155 C 1640.69 3.38791 -0.0251205 0
M  V30 17156 C 1639.25 3.74535 0.37422 0
M  V30 17157 C 1638.4 2.74252 -0.410045 0
M  V30 17158 H 1641.35 1.43079 -0.686593 0
M  V30 17159 H 1641.37 3.72487 0.776754 0
M  V30 17160 H 1640.88 3.73684 -1.04795 0
M  V30 17161 H 1638.99 3.45243 1.40135 0
M  V30 17162 H 1639.1 4.79042 0.0746666 0
M  V30 17163 H 1637.46 2.54334 0.136417 0
M  V30 17164 H 1638.25 3.11989 -1.43241 0
M  V30 17165 N 1640.69 0.205039 1.56261 0
M  V30 17166 C 1641.92 -0.439502 2.0269 0
M  V30 17167 C 1642.34 -1.53715 1.08413 0
M  V30 17168 O 1641.7 -1.81167 0.0693616 0
M  V30 17169 C 1641.75 -0.963672 3.47485 0
M  V30 17170 O 1640.85 -2.07602 3.56336 0
M  V30 17171 H 1640.19 -0.101543 0.65619 0
M  V30 17172 H 1642.72 0.318835 2.021 0
M  V30 17173 H 1642.73 -1.27773 3.87476 0
M  V30 17174 H 1641.41 -0.160203 4.15591 0
M  V30 17175 H 1639.98 -1.76985 3.28224 0
M  V30 17176 N 1642.17 -1.57451 -0.0684915 0
M  V30 17177 C 1643.42 -1.87041 -0.765505 0
M  V30 17178 C 1643.74 -0.797489 -1.77947 0
M  V30 17179 O 1643.01 0.17349 -1.9513 0
M  V30 17180 H 1641.59 -0.690203 -0.285708 0
M  V30 17181 H 1644.25 -1.94851 -0.0437957 0
M  V30 17182 H 1643.35 -2.8466 -1.27966 0
M  V30 17183 N 1643.65 0.339955 -1.5389 0
M  V30 17184 C 1644.87 1.10417 -1.75564 0
M  V30 17185 C 1645.3 1.81466 -0.495156 0
M  V30 17186 O 1644.66 1.72679 0.552415 0
M  V30 17187 C 1644.7 2.09056 -2.93816 0
M  V30 17188 O 1643.81 3.16645 -2.64215 0
M  V30 17189 H 1643.15 0.319164 -0.582263 0
M  V30 17190 H 1645.68 0.389251 -2.00863 0
M  V30 17191 H 1645.69 2.52215 -3.20705 0
M  V30 17192 H 1644.36 1.56741 -3.85234 0
M  V30 17193 H 1642.94 2.78278 -2.48225 0
M  V30 17194 N 1645.13 1.45684 0.601159 0
M  V30 17195 C 1646.37 1.51248 1.35999 0
M  V30 17196 C 1646.73 0.154593 1.91778 0
M  V30 17197 O 1646.02 -0.834366 1.72479 0
M  V30 17198 C 1646.21 2.53235 2.52204 0
M  V30 17199 C 1646.04 3.98807 2.07806 0
M  V30 17200 C 1644.81 4.66708 1.93678 0
M  V30 17201 C 1647.01 4.87153 1.64883 0
M  V30 17202 N 1644.99 5.96975 1.43157 0
M  V30 17203 C 1646.36 6.07098 1.25823 0
M  V30 17204 C 1648.42 4.7396 1.52533 0
M  V30 17205 C 1647.12 7.15311 0.756454 0
M  V30 17206 C 1649.15 5.82227 1.0376 0
M  V30 17207 C 1648.51 7.01332 0.656674 0
M  V30 17208 H 1644.61 0.608376 0.491327 0
M  V30 17209 H 1647.19 1.82194 0.686534 0
M  V30 17210 H 1645.36 2.24229 3.17137 0
M  V30 17211 H 1647.1 2.48907 3.19104 0
M  V30 17212 H 1643.85 4.21955 2.15061 0
M  V30 17213 H 1644.27 6.6626 1.20111 0
M  V30 17214 H 1648.92 3.82284 1.80607 0
M  V30 17215 H 1646.63 8.06771 0.463273 0
M  V30 17216 H 1650.22 5.74054 0.946207 0
M  V30 17217 H 1649.1 7.83682 0.285073 0
M  V30 17218 N 1646.6 -0.84422 1.33082 0
M  V30 17219 C 1647.51 -1.9858 1.24913 0
M  V30 17220 C 1648.53 -1.73256 0.160708 0
M  V30 17221 O 1649.71 -1.97719 0.383313 0
M  V30 17222 C 1646.77 -3.32471 0.983063 0
M  V30 17223 C 1645.83 -3.70946 2.16096 0
M  V30 17224 C 1645.06 -4.98448 1.90749 0
M  V30 17225 O 1645.29 -5.63953 0.855173 0
M  V30 17226 O 1644.22 -5.34301 2.7714 0
M  V30 17227 H 1648.05 -2.0841 2.20905 0
M  V30 17228 H 1645.63 -0.976447 1.13075 0
M  V30 17229 H 1647.51 -4.12705 0.851612 0
M  V30 17230 H 1646.19 -3.23656 0.053384 0
M  V30 17231 H 1645.1 -2.91244 2.34793 0
M  V30 17232 H 1646.43 -3.8442 3.07379 0
M  V30 17233 N 1648.08 -1.16463 -1.0618 0
M  V30 17234 C 1649.36 -0.857038 -1.75824 0
M  V30 17235 C 1649.74 0.644886 -2.01009 0
M  V30 17236 O 1649.09 1.59305 -1.63812 0
M  V30 17237 C 1649.3 -1.681 -3.05849 0
M  V30 17238 C 1650.64 -1.8947 -3.79982 0
M  V30 17239 O 1651.67 -1.64975 -3.15692 0
M  V30 17240 O 1650.53 -2.30573 -4.95478 0
M  V30 17241 H 1647.62 -0.316364 -0.764096 0
M  V30 17242 H 1650.17 -1.27105 -1.12438 0
M  V30 17243 H 1648.94 -2.70014 -2.8321 0
M  V30 17244 H 1648.56 -1.2641 -3.7697 0
M  V30 17245 N 1649.56 1.24734 -0.963288 0
M  V30 17246 C 1650.81 1.93291 -0.63327 0
M  V30 17247 C 1651.16 1.7396 0.821935 0
M  V30 17248 O 1650.45 1.07933 1.58307 0
M  V30 17249 C 1650.65 3.44867 -0.938151 0
M  V30 17250 C 1650.48 3.78941 -2.42144 0
M  V30 17251 C 1649.25 4.00541 -3.08051 0
M  V30 17252 C 1651.44 3.85769 -3.40128 0
M  V30 17253 N 1649.43 4.21677 -4.46163 0
M  V30 17254 C 1650.8 4.11696 -4.6358 0
M  V30 17255 C 1652.85 3.68486 -3.34846 0
M  V30 17256 C 1651.56 4.22138 -5.82402 0
M  V30 17257 C 1653.58 3.80172 -4.53016 0
M  V30 17258 C 1652.94 4.0652 -5.75258 0
M  V30 17259 H 1649.04 0.729192 -0.282495 0
M  V30 17260 H 1651.63 1.50334 -1.23724 0
M  V30 17261 H 1649.8 3.867 -0.363032 0
M  V30 17262 H 1651.53 4.00706 -0.567156 0
M  V30 17263 H 1648.28 3.96769 -2.58595 0
M  V30 17264 H 1648.71 4.36234 -5.17715 0
M  V30 17265 H 1653.35 3.47126 -2.41378 0
M  V30 17266 H 1651.07 4.42311 -6.76303 0
M  V30 17267 H 1654.65 3.68175 -4.50487 0
M  V30 17268 H 1653.53 4.15354 -6.6517 0
M  V30 17269 N 1651.04 0.732878 1.39523 0
M  V30 17270 C 1652.28 0.280305 2.00854 0
M  V30 17271 C 1652.62 -1.12891 1.58017 0
M  V30 17272 O 1651.89 -1.76919 0.808086 0
M  V30 17273 C 1652.17 0.37978 3.58092 0
M  V30 17274 C 1652.03 1.82861 4.10953 0
M  V30 17275 C 1653.35 -0.239026 4.3945 0
M  V30 17276 H 1650.47 0.103326 0.729721 0
M  V30 17277 H 1653.11 0.928634 1.6576 0
M  V30 17278 H 1651.26 -0.172198 3.88118 0
M  V30 17279 H 1652.93 2.4373 3.91655 0
M  V30 17280 H 1651.17 2.35064 3.64592 0
M  V30 17281 H 1651.84 1.84949 5.20094 0
M  V30 17282 H 1654.32 0.231488 4.15456 0
M  V30 17283 H 1653.2 -0.139068 5.48724 0
M  V30 17284 H 1653.46 -1.32481 4.21783 0
M  V30 17285 N 1652.52 -1.50101 0.480349 0
M  V30 17286 C 1653.74 -2.06785 -0.068848 0
M  V30 17287 C 1654.16 -1.34316 -1.32683 0
M  V30 17288 O 1653.52 -0.415196 -1.77714 0
M  V30 17289 C 1653.57 -3.59826 -0.347522 0
M  V30 17290 O 1653.29 -4.29565 0.860569 0
M  V30 17291 C 1654.79 -4.33161 -0.94266 0
M  V30 17292 H 1652.01 -0.670906 0.0112172 0
M  V30 17293 H 1654.55 -1.93151 0.671788 0
M  V30 17294 H 1652.71 -3.73232 -1.0381 0
M  V30 17295 H 1653.12 -5.20931 0.610796 0
M  V30 17296 H 1654.6 -5.41184 -1.08736 0
M  V30 17297 H 1655.07 -3.94268 -1.93518 0
M  V30 17298 H 1655.68 -4.24309 -0.290178 0
M  V30 17299 N 1653.99 -0.213323 -1.5615 0
M  V30 17300 C 1654.96 0.686579 -2.18675 0
M  V30 17301 C 1655.96 1.1277 -1.14628 0
M  V30 17302 O 1657.15 1.03783 -1.39909 0
M  V30 17303 C 1654.28 1.93954 -2.80347 0
M  V30 17304 H 1655.47 0.141578 -2.99566 0
M  V30 17305 H 1653.02 0.0362987 -1.56258 0
M  V30 17306 H 1653.76 2.52661 -2.03304 0
M  V30 17307 H 1653.54 1.63179 -3.56532 0
M  V30 17308 H 1655.03 2.58087 -3.283 0
M  V30 17309 N 1655.47 1.57485 0.0601405 0
M  V30 17310 C 1656.44 2.03493 1.05467 0
M  V30 17311 C 1657.44 0.933816 1.30907 0
M  V30 17312 O 1658.63 1.19837 1.26431 0
M  V30 17313 C 1655.76 2.42549 2.39547 0
M  V30 17314 H 1656.95 2.92595 0.657893 0
M  V30 17315 H 1654.5 1.53272 0.306183 0
M  V30 17316 H 1655.24 1.56509 2.84034 0
M  V30 17317 H 1655.02 3.22911 2.22421 0
M  V30 17318 H 1656.51 2.7868 3.1101 0
M  V30 17319 N 1656.95 -0.331789 1.54068 0
M  V30 17320 C 1658.18 -1.08886 1.75577 0
M  V30 17321 C 1658.59 -1.82462 0.50043 0
M  V30 17322 O 1657.93 -1.7564 -0.53816 0
M  V30 17323 C 1657.99 -2.13858 2.88972 0
M  V30 17324 C 1657.66 -1.59754 4.28168 0
M  V30 17325 C 1658.65 -1.04365 5.09317 0
M  V30 17326 C 1656.34 -1.64245 4.74688 0
M  V30 17327 C 1658.33 -0.541856 6.35093 0
M  V30 17328 C 1656.02 -1.13679 6.00433 0
M  V30 17329 C 1657.02 -0.587426 6.80469 0
M  V30 17330 O 1656.71 -0.0893367 8.0385 0
M  V30 17331 H 1656.44 -0.330075 0.589938 0
M  V30 17332 H 1658.99 -0.386127 2.01738 0
M  V30 17333 H 1657.22 -2.87724 2.58363 0
M  V30 17334 H 1658.91 -2.75223 2.98341 0
M  V30 17335 H 1659.68 -1.00208 4.74535 0
M  V30 17336 H 1655.56 -2.05945 4.12441 0
M  V30 17337 H 1659.1 -0.1124 6.97509 0
M  V30 17338 H 1655 -1.1754 6.34708 0
M  V30 17339 H 1655.77 -0.205529 8.18242 0
M  V30 17340 N 1658.43 -1.46001 -0.593424 0
M  V30 17341 C 1659.36 -1.50255 -1.71752 0
M  V30 17342 C 1660.34 -0.357601 -1.58619 0
M  V30 17343 O 1661.52 -0.560187 -1.79984 0
M  V30 17344 C 1658.65 -1.37099 -3.09712 0
M  V30 17345 C 1657.7 -2.5564 -3.41395 0
M  V30 17346 S 1658.53 -4.1805 -3.34656 0
M  V30 17347 C 1659.69 -4.07384 -4.75173 0
M  V30 17348 H 1659.92 -2.45363 -1.67882 0
M  V30 17349 H 1657.45 -1.33756 -0.771275 0
M  V30 17350 H 1659.41 -1.30197 -3.89306 0
M  V30 17351 H 1658.07 -0.434384 -3.11082 0
M  V30 17352 H 1657.26 -2.42399 -4.41881 0
M  V30 17353 H 1656.87 -2.59478 -2.69346 0
M  V30 17354 H 1659.16 -3.73403 -5.65311 0
M  V30 17355 H 1660.1 -5.07831 -4.9347 0
M  V30 17356 H 1660.51 -3.38808 -4.51519 0
M  V30 17357 N 1659.91 0.83715 -1.33527 0
M  V30 17358 C 1661.18 1.57727 -1.15678 0
M  V30 17359 C 1661.56 2.09286 0.276178 0
M  V30 17360 O 1660.91 1.89589 1.27547 0
M  V30 17361 C 1661.12 2.70978 -2.19936 0
M  V30 17362 C 1662.47 3.40114 -2.5418 0
M  V30 17363 O 1663.49 2.81221 -2.18616 0
M  V30 17364 O 1662.35 4.46431 -3.15217 0
M  V30 17365 H 1659.45 0.69545 -0.447525 0
M  V30 17366 H 1661.99 0.879756 -1.45115 0
M  V30 17367 H 1660.76 2.30532 -3.16181 0
M  V30 17368 H 1660.39 3.48393 -1.91594 0
M  V30 17369 N 1661.38 1.17024 1.05561 0
M  V30 17370 C 1662.61 0.98075 1.82178 0
M  V30 17371 C 1663.03 -0.471027 1.8283 0
M  V30 17372 O 1662.38 -1.32703 1.25284 0
M  V30 17373 C 1662.44 1.50979 3.28463 0
M  V30 17374 O 1662.16 2.90471 3.27961 0
M  V30 17375 C 1663.66 1.36436 4.21782 0
M  V30 17376 H 1660.88 0.3472 0.574189 0
M  V30 17377 H 1663.42 1.55226 1.33136 0
M  V30 17378 H 1661.58 0.980393 3.74789 0
M  V30 17379 H 1661.99 3.14847 4.19489 0
M  V30 17380 H 1663.46 1.78272 5.2242 0
M  V30 17381 H 1663.94 0.310922 4.38098 0
M  V30 17382 H 1664.55 1.88374 3.81308 0
M  V30 17383 N 1662.86 -1.24221 0.969889 0
M  V30 17384 C 1664.11 -1.92638 0.633913 0
M  V30 17385 C 1664.44 -1.75612 -0.829092 0
M  V30 17386 O 1663.72 -1.11057 -1.59677 0
M  V30 17387 C 1664 -3.45583 1.01213 0
M  V30 17388 C 1663.85 -3.71766 2.53199 0
M  V30 17389 C 1665.17 -4.36671 0.548294 0
M  V30 17390 H 1662.29 -0.699608 0.231772 0
M  V30 17391 H 1664.93 -1.46548 1.20929 0
M  V30 17392 H 1663.08 -3.8497 0.522531 0
M  V30 17393 H 1664.75 -3.41925 3.09653 0
M  V30 17394 H 1663 -3.16842 2.963 0
M  V30 17395 H 1663.67 -4.78787 2.74713 0
M  V30 17396 H 1666.14 -4.04672 0.968489 0
M  V30 17397 H 1665.02 -5.42412 0.841472 0
M  V30 17398 H 1665.28 -4.38646 -0.551588 0
M  V30 17399 N 1664.34 -0.740267 -1.39132 0
M  V30 17400 C 1665.57 -0.299605 -2.05225 0
M  V30 17401 C 1665.99 1.05904 -1.55454 0
M  V30 17402 O 1665.35 1.67216 -0.700603 0
M  V30 17403 C 1665.4 -0.316792 -3.59206 0
M  V30 17404 O 1664.5 0.693786 -4.06522 0
M  V30 17405 H 1663.84 -0.135146 -0.650101 0
M  V30 17406 H 1666.37 -1.00766 -1.78065 0
M  V30 17407 H 1666.38 -0.163013 -4.07674 0
M  V30 17408 H 1665.06 -1.30814 -3.94792 0
M  V30 17409 H 1663.63 0.505712 -3.69455 0
M  V30 17410 N 1665.82 1.49844 -0.488302 0
M  V30 17411 C 1666.75 2.31737 0.286432 0
M  V30 17412 C 1667.73 1.39424 0.974418 0
M  V30 17413 O 1668.91 1.68339 0.968274 0
M  V30 17414 C 1666.04 3.19616 1.35878 0
M  V30 17415 C 1665 4.20619 0.791409 0
M  V30 17416 C 1664.32 4.9735 1.96333 0
M  V30 17417 C 1665.62 5.21882 -0.208975 0
M  V30 17418 H 1667.32 2.96755 -0.397092 0
M  V30 17419 H 1664.86 1.42709 -0.192413 0
M  V30 17420 H 1666.82 3.75711 1.90838 0
M  V30 17421 H 1665.54 2.52516 2.07131 0
M  V30 17422 H 1664.2 3.65651 0.263647 0
M  V30 17423 H 1663.85 4.26708 2.66325 0
M  V30 17424 H 1663.55 5.65684 1.58983 0
M  V30 17425 H 1665.07 5.56286 2.51751 0
M  V30 17426 H 1666.49 5.72746 0.252049 0
M  V30 17427 H 1664.88 5.98033 -0.497638 0
M  V30 17428 H 1665.95 4.7157 -1.12916 0
M  V30 17429 N 1667.3 0.221601 1.56034 0
M  V30 17430 C 1668.52 -0.417979 2.03145 0
M  V30 17431 C 1668.95 -1.52556 1.10038 0
M  V30 17432 O 1668.3 -1.81084 0.0885729 0
M  V30 17433 C 1668.35 -0.926762 3.48487 0
M  V30 17434 O 1667.46 -2.03811 3.58518 0
M  V30 17435 H 1666.8 -0.0945778 0.65723 0
M  V30 17436 H 1669.33 0.340252 2.01751 0
M  V30 17437 H 1669.34 -1.23656 3.8881 0
M  V30 17438 H 1668.01 -0.116115 4.15738 0
M  V30 17439 H 1666.59 -1.73494 3.30082 0
M  V30 17440 N 1668.77 -1.57515 -0.0517878 0
M  V30 17441 C 1669.74 -2.04049 -1.04387 0
M  V30 17442 C 1670.74 -0.940745 -1.30409 0
M  V30 17443 O 1671.93 -1.20505 -1.25794 0
M  V30 17444 C 1669.06 -2.43816 -2.38257 0
M  V30 17445 H 1670.25 -2.9294 -0.642367 0
M  V30 17446 H 1667.81 -1.53432 -0.29805 0
M  V30 17447 H 1668.54 -1.58013 -2.832 0
M  V30 17448 H 1668.33 -3.24086 -2.20705 0
M  V30 17449 H 1669.82 -2.80325 -3.09528 0
M  V30 17450 N 1670.25 0.323614 -1.54242 0
M  V30 17451 C 1671.48 1.0811 -1.76408 0
M  V30 17452 C 1671.9 1.81707 -0.512656 0
M  V30 17453 O 1671.25 1.75035 0.516638 0
M  V30 17454 C 1671.3 2.07923 -2.9572 0
M  V30 17455 O 1671.03 1.37317 -4.16024 0
M  V30 17456 C 1672.53 2.95891 -3.30096 0
M  V30 17457 H 1669.75 0.321583 -0.588919 0
M  V30 17458 H 1672.29 0.369756 -2.01129 0
M  V30 17459 H 1670.45 2.74593 -2.73272 0
M  V30 17460 H 1670.86 2.04158 -4.83135 0
M  V30 17461 H 1672.33 3.61822 -4.1688 0
M  V30 17462 H 1672.81 3.62986 -2.47261 0
M  V30 17463 H 1673.42 2.34783 -3.54622 0
M  V30 17464 N 1671.73 1.46313 0.585673 0
M  V30 17465 C 1672.98 1.51171 1.34134 0
M  V30 17466 C 1673.3 0.163691 1.94312 0
M  V30 17467 O 1672.57 -0.809444 1.78395 0
M  V30 17468 H 1671.15 0.556768 0.498014 0
M  V30 17469 H 1673.81 1.82423 0.686133 0
M  V30 17470 H 1672.91 2.26274 2.14957 0
M  V30 17471 N 1673.21 -0.830057 1.33969 0
M  V30 17472 C 1674.46 -1.58586 1.25924 0
M  V30 17473 C 1674.78 -1.93732 -0.172685 0
M  V30 17474 O 1674.04 -1.59628 -1.13214 0
M  V30 17475 C 1674.34 -2.90026 2.08853 0
M  V30 17476 C 1674 -2.74204 3.57943 0
M  V30 17477 C 1672.67 -2.69596 3.98587 0
M  V30 17478 C 1675.02 -2.58384 4.52644 0
M  V30 17479 C 1672.35 -2.4708 5.32135 0
M  V30 17480 C 1674.7 -2.37401 5.86365 0
M  V30 17481 C 1673.36 -2.31201 6.26181 0
M  V30 17482 H 1672.63 -0.580306 0.460789 0
M  V30 17483 H 1675.28 -0.960978 1.65643 0
M  V30 17484 H 1673.58 -3.56767 1.6194 0
M  V30 17485 H 1675.28 -3.47576 1.99979 0
M  V30 17486 H 1671.87 -2.78627 3.25676 0
M  V30 17487 H 1676.06 -2.60972 4.22146 0
M  V30 17488 H 1671.31 -2.40733 5.62012 0
M  V30 17489 H 1675.49 -2.24146 6.59342 0
M  V30 17490 H 1673.11 -2.13515 7.29599 0
M  V30 17491 N 1674.69 -1.17582 -1.04939 0
M  V30 17492 C 1675.92 -0.988962 -1.81392 0
M  V30 17493 C 1676.33 0.46597 -1.83372 0
M  V30 17494 O 1675.67 1.33538 -1.26148 0
M  V30 17495 C 1675.73 -1.45656 -3.28671 0
M  V30 17496 C 1675.39 -2.93412 -3.50369 0
M  V30 17497 C 1676.39 -3.91329 -3.42283 0
M  V30 17498 C 1674.08 -3.31645 -3.77249 0
M  V30 17499 C 1676.07 -5.25478 -3.60766 0
M  V30 17500 C 1673.76 -4.65959 -3.95381 0
M  V30 17501 C 1674.76 -5.62684 -3.87138 0
M  V30 17502 O 1674.44 -6.94567 -4.04761 0
M  V30 17503 H 1674.18 -0.349962 -0.578362 0
M  V30 17504 H 1676.73 -1.5635 -1.33206 0
M  V30 17505 H 1674.96 -0.825602 -3.77784 0
M  V30 17506 H 1676.65 -1.23497 -3.86657 0
M  V30 17507 H 1677.41 -3.63138 -3.2149 0
M  V30 17508 H 1673.29 -2.56925 -3.82767 0
M  V30 17509 H 1676.84 -6.00961 -3.54248 0
M  V30 17510 H 1672.73 -4.93855 -4.15665 0
M  V30 17511 H 1673.5 -7.01343 -4.21972 0
M  V30 17512 N 1676.17 1.23705 -0.976463 0
M  V30 17513 C 1677.58 1.44179 -0.684434 0
M  V30 17514 C 1677.78 1.86992 0.75075 0
M  V30 17515 O 1676.84 2.01349 1.52365 0
M  V30 17516 C 1678.15 2.49661 -1.676 0
M  V30 17517 C 1679.7 2.63479 -1.68961 0
M  V30 17518 C 1680.17 3.72167 -2.66938 0
M  V30 17519 N 1681.66 3.79605 -2.65433 0
M  V30 17520 C 1682.4 4.63251 -3.37914 0
M  V30 17521 N 1681.9 5.51018 -4.19941 0
M  V30 17522 N 1683.69 4.57412 -3.26697 0
M  V30 17523 H 1675.84 0.942155 -1.90361 0
M  V30 17524 H 1678.1 0.475629 -0.820049 0
M  V30 17525 H 1677.81 2.25111 -2.70218 0
M  V30 17526 H 1677.68 3.47978 -1.45571 0
M  V30 17527 H 1680.07 2.87382 -0.670497 0
M  V30 17528 H 1680.15 1.65491 -1.95055 0
M  V30 17529 H 1679.79 3.49013 -3.68988 0
M  V30 17530 H 1679.72 4.69688 -2.3812 0
M  V30 17531 H 1682.22 3.16882 -2.05899 0
M  V30 17532 H 1682.53 6.11825 -4.72113 0
M  V30 17533 H 1680.87 5.50655 -4.24033 0
M  V30 17534 H 1684.06 3.87863 -2.62069 0
M  V30 17535 H 1684.24 5.22373 -3.83446 0
M  V30 17536 N 1677.64 0.747635 1.38738 0
M  V30 17537 C 1678.87 0.311781 2.04537 0
M  V30 17538 C 1679.29 -1.05782 1.56383 0
M  V30 17539 O 1678.64 -1.67077 0.734259 0
M  V30 17540 C 1678.69 0.318675 3.60093 0
M  V30 17541 O 1678.42 1.63423 4.06478 0
M  V30 17542 C 1679.92 -0.131782 4.43104 0
M  V30 17543 H 1677.14 0.134141 0.657455 0
M  V30 17544 H 1679.68 1.01482 1.77543 0
M  V30 17545 H 1677.84 -0.335578 3.85944 0
M  V30 17546 H 1678.25 1.55636 5.00877 0
M  V30 17547 H 1679.72 -0.0757978 5.51948 0
M  V30 17548 H 1680.2 -1.17881 4.23085 0
M  V30 17549 H 1680.81 0.493375 4.22429 0
M  V30 17550 N 1679.12 -1.49583 0.496242 0
M  V30 17551 C 1680.53 -1.8664 0.0472756 0
M  V30 17552 C 1680.88 -1.40898 -1.36536 0
M  V30 17553 O 1680.01 -0.784796 -2.01668 0
M  V30 17554 C 1680.6 -3.38708 0.079016 0
M  V30 17555 C 1679.16 -3.75083 -0.314587 0
M  V30 17556 C 1678.31 -2.73565 0.453624 0
M  V30 17557 H 1681.26 -1.41969 0.709269 0
M  V30 17558 H 1681.28 -3.73676 -0.717396 0
M  V30 17559 H 1680.79 -3.71969 1.10727 0
M  V30 17560 H 1678.89 -3.47429 -1.34625 0
M  V30 17561 H 1679.01 -4.791 0.00155427 0
M  V30 17562 H 1677.37 -2.54519 -0.095937 0
M  V30 17563 H 1678.15 -3.0967 1.48186 0
M  V30 17564 N 1680.6 -0.229873 -1.55915 0
M  V30 17565 C 1681.55 0.693198 -2.2203 0
M  V30 17566 C 1682.54 1.1933 -1.20236 0
M  V30 17567 O 1683.75 1.15217 -1.38294 0
M  V30 17568 H 1680.12 0.241986 -0.712002 0
M  V30 17569 H 1682.09 0.112229 -2.98189 0
M  V30 17570 C 1680.84 1.88688 -2.92048 0
M  V30 17571 H 1680.17 1.51119 -3.70139 0
M  V30 17572 H 1681.61 2.51036 -3.41697 0
M  V30 17573 C 1680.06 2.74747 -1.94976 0
M  V30 17574 O 1680.59 3.73759 -1.47198 0
M  V30 17575 N 1678.8 2.40956 -1.62445 0
M  V30 17576 H 1678.35 1.60494 -2.01493 0
M  V30 17577 H 1678.31 2.98816 -0.977581 0
M  V30 17578 N 1682.08 1.5754 0.0434337 0
M  V30 17579 C 1683.01 2.08648 1.04824 0
M  V30 17580 C 1683.99 0.985894 1.38615 0
M  V30 17581 O 1685.17 1.2603 1.4775 0
M  V30 17582 C 1682.3 2.55399 2.35348 0
M  V30 17583 C 1681.26 3.69592 2.15837 0
M  V30 17584 C 1680.58 4.02497 3.51995 0
M  V30 17585 C 1681.88 4.98575 1.55629 0
M  V30 17586 H 1683.58 2.9285 0.622849 0
M  V30 17587 H 1681.12 1.40879 0.298158 0
M  V30 17588 H 1683.08 2.89771 3.05958 0
M  V30 17589 H 1681.8 1.68262 2.7992 0
M  V30 17590 H 1680.46 3.35546 1.47663 0
M  V30 17591 H 1680.11 3.12448 3.94189 0
M  V30 17592 H 1679.81 4.79406 3.39771 0
M  V30 17593 H 1681.33 4.39391 4.23991 0
M  V30 17594 H 1682.75 5.30996 2.16138 0
M  V30 17595 H 1681.14 5.79998 1.54021 0
M  V30 17596 H 1682.21 4.82098 0.520567 0
M  V30 17597 N 1683.56 -0.31543 1.54411 0
M  V30 17598 C 1684.8 -1.05033 1.72663 0
M  V30 17599 C 1685.12 -1.8828 0.507504 0
M  V30 17600 O 1684.39 -1.89968 -0.478418 0
M  V30 17601 H 1682.97 -0.39077 0.636638 0
M  V30 17602 H 1685.64 -0.3499 1.91733 0
M  V30 17603 H 1684.73 -1.71171 2.60973 0
M  V30 17604 N 1685.03 -1.46622 -0.577906 0
M  V30 17605 C 1686.26 -1.55534 -1.35988 0
M  V30 17606 C 1686.67 -0.197065 -1.88171 0
M  V30 17607 O 1686.02 0.816609 -1.64551 0
M  V30 17608 C 1686.08 -2.5035 -2.58002 0
M  V30 17609 C 1685.74 -3.96491 -2.27253 0
M  V30 17610 C 1686.74 -4.85567 -1.85797 0
M  V30 17611 C 1684.42 -4.41662 -2.39249 0
M  V30 17612 C 1686.42 -6.17828 -1.56738 0
M  V30 17613 C 1684.1 -5.73956 -2.09803 0
M  V30 17614 C 1685.1 -6.6186 -1.68613 0
M  V30 17615 O 1684.79 -7.91698 -1.3953 0
M  V30 17616 H 1684.52 -0.528412 -0.421612 0
M  V30 17617 H 1687.08 -1.92774 -0.709038 0
M  V30 17618 H 1685.31 -2.08137 -3.25908 0
M  V30 17619 H 1687 -2.49616 -3.20073 0
M  V30 17620 H 1687.76 -4.51924 -1.76039 0
M  V30 17621 H 1683.64 -3.73462 -2.70272 0
M  V30 17622 H 1687.18 -6.86398 -1.24514 0
M  V30 17623 H 1683.08 -6.07147 -2.19187 0
M  V30 17624 H 1683.85 -8.04009 -1.53335 0
M  V30 17625 N 1686.51 0.822941 -1.34408 0
M  V30 17626 C 1687.74 1.61607 -1.29992 0
M  V30 17627 C 1688.16 1.87695 0.123301 0
M  V30 17628 O 1687.52 1.45247 1.08504 0
M  V30 17629 C 1687.57 2.934 -2.09639 0
M  V30 17630 O 1686.67 3.85467 -1.4659 0
M  V30 17631 H 1686.01 0.491504 -0.446452 0
M  V30 17632 H 1688.54 1.02264 -1.7721 0
M  V30 17633 H 1688.55 3.42966 -2.20994 0
M  V30 17634 H 1687.23 2.73736 -3.13116 0
M  V30 17635 H 1685.81 3.43984 -1.43978 0
M  V30 17636 N 1687.99 1.18137 1.04314 0
M  V30 17637 C 1689.24 0.975203 1.77471 0
M  V30 17638 C 1689.57 -0.495399 1.88085 0
M  V30 17639 O 1688.82 -1.38401 1.38361 0
M  V30 17640 C 1689.12 1.57211 3.20966 0
M  V30 17641 C 1688.79 3.06842 3.30392 0
M  V30 17642 C 1687.45 3.47683 3.32671 0
M  V30 17643 C 1689.8 4.02855 3.30692 0
M  V30 17644 C 1687.13 4.83116 3.3289 0
M  V30 17645 C 1689.48 5.382 3.3245 0
M  V30 17646 C 1688.14 5.78492 3.33021 0
M  V30 17647 H 1687.41 0.356852 0.649413 0
M  V30 17648 H 1690.06 1.47163 1.22536 0
M  V30 17649 H 1688.37 0.997616 3.78886 0
M  V30 17650 H 1690.06 1.38804 3.76211 0
M  V30 17651 H 1686.65 2.74291 3.29336 0
M  V30 17652 H 1690.84 3.72355 3.28124 0
M  V30 17653 H 1686.09 5.13634 3.31647 0
M  V30 17654 H 1690.27 6.12367 3.31631 0
M  V30 17655 H 1687.89 6.83412 3.32944 0
M  V30 17656 N 1689.47 -1.23186 0.98301 0
M  V30 17657 C 1690.38 -2.28448 0.533727 0
M  V30 17658 C 1691.39 -1.69034 -0.412732 0
M  V30 17659 O 1692.57 -1.99416 -0.282007 0
M  V30 17660 C 1689.64 -3.46357 -0.154179 0
M  V30 17661 C 1688.7 -4.21121 0.834009 0
M  V30 17662 C 1687.93 -5.334 0.178836 0
M  V30 17663 O 1688.15 -5.61032 -1.02952 0
M  V30 17664 O 1687.09 -5.95451 0.878722 0
M  V30 17665 H 1690.91 -2.69027 1.40919 0
M  V30 17666 H 1688.5 -1.29166 0.75077 0
M  V30 17667 H 1690.38 -4.17926 -0.539947 0
M  V30 17668 H 1689.05 -3.07724 -1.00437 0
M  V30 17669 H 1687.96 -3.51864 1.27053 0
M  V30 17670 H 1689.29 -4.6361 1.65309 0
M  V30 17671 N 1690.95 -0.754982 -1.38339 0
M  V30 17672 C 1692.17 -0.322624 -2.04369 0
M  V30 17673 C 1692.59 1.04951 -1.56942 0
M  V30 17674 O 1691.95 1.66686 -0.743109 0
M  V30 17675 C 1692 -0.337767 -3.59919 0
M  V30 17676 O 1691.72 -1.65576 -4.05606 0
M  V30 17677 C 1693.22 0.108281 -4.43168 0
M  V30 17678 H 1690.44 -0.137626 -0.656734 0
M  V30 17679 H 1692.98 -1.02422 -1.77003 0
M  V30 17680 H 1691.14 0.315106 -3.86116 0
M  V30 17681 H 1691.55 -1.5829 -5.00045 0
M  V30 17682 H 1693.03 0.0465256 -5.5198 0
M  V30 17683 H 1693.5 1.15636 -4.23704 0
M  V30 17684 H 1694.11 -0.51577 -4.22161 0
M  V30 17685 N 1692.42 1.49318 -0.504168 0
M  V30 17686 C 1693.37 2.30832 0.286237 0
M  V30 17687 C 1694.37 1.39585 0.959818 0
M  V30 17688 O 1695.57 1.5662 0.887146 0
M  V30 17689 H 1691.95 0.743738 0.111167 0
M  V30 17690 H 1693.92 2.95412 -0.421206 0
M  V30 17691 C 1692.67 3.2101 1.33596 0
M  V30 17692 H 1691.99 3.91152 0.827057 0
M  V30 17693 H 1693.43 3.8098 1.86093 0
M  V30 17694 C 1691.89 2.40836 2.35583 0
M  V30 17695 O 1692.42 2.11476 3.41527 0
M  V30 17696 N 1690.63 2.02802 2.08134 0
M  V30 17697 H 1690.17 2.26879 1.21999 0
M  V30 17698 H 1690.13 1.49467 2.76599 0
M  V30 17699 N 1693.9 0.238138 1.5579 0
M  V30 17700 C 1695.13 -0.396409 2.03576 0
M  V30 17701 C 1695.55 -1.5138 1.11649 0
M  V30 17702 O 1694.91 -1.80979 0.107774 0
M  V30 17703 C 1694.96 -0.889749 3.49451 0
M  V30 17704 O 1694.06 -1.99997 3.60659 0
M  V30 17705 H 1693.4 -0.0876017 0.658196 0
M  V30 17706 H 1695.93 0.361632 2.01379 0
M  V30 17707 H 1695.94 -1.19526 3.901 0
M  V30 17708 H 1694.62 -0.0720136 4.15838 0
M  V30 17709 H 1693.2 -1.69983 3.31904 0
M  V30 17710 N 1695.38 -1.57561 -0.0350783 0
M  V30 17711 C 1696.63 -1.88623 -0.725659 0
M  V30 17712 C 1696.95 -0.835055 -1.76215 0
M  V30 17713 O 1696.22 0.13206 -1.95454 0
M  V30 17714 H 1694.8 -0.696108 -0.271004 0
M  V30 17715 H 1697.46 -1.949 -0.00245508 0
M  V30 17716 H 1696.56 -2.8731 -1.21899 0
M  V30 17717 N 1696.86 0.307236 -1.54576 0
M  V30 17718 C 1697.81 1.39877 -1.85842 0
M  V30 17719 C 1698.8 1.52786 -0.73163 0
M  V30 17720 O 1700.01 1.54977 -0.915534 0
M  V30 17721 H 1696.38 0.467101 -0.589339 0
M  V30 17722 H 1698.35 1.10739 -2.77091 0
M  V30 17723 C 1697.1 2.75829 -2.11692 0
M  V30 17724 H 1696.42 2.66675 -2.97867 0
M  V30 17725 H 1697.86 3.51232 -2.37513 0
M  V30 17726 C 1696.32 3.24278 -0.913522 0
M  V30 17727 O 1696.85 4.01487 -0.130903 0
M  V30 17728 N 1695.06 2.81523 -0.720625 0
M  V30 17729 H 1694.61 2.18854 -1.3587 0
M  V30 17730 H 1694.56 3.1429 0.083014 0
M  V30 17731 N 1698.34 1.46926 0.570122 0
M  V30 17732 C 1699.75 1.469 1.15227 0
M  V30 17733 C 1700.1 0.216651 1.95 0
M  V30 17734 O 1699.22 -0.679388 2.05459 0
M  V30 17735 C 1699.82 2.66158 2.09632 0
M  V30 17736 C 1698.38 2.69133 2.63144 0
M  V30 17737 C 1697.52 2.39795 1.39262 0
M  V30 17738 H 1700.48 1.54623 0.35739 0
M  V30 17739 H 1700.5 2.42393 2.93302 0
M  V30 17740 H 1700.01 3.5729 1.51543 0
M  V30 17741 H 1698.11 1.82106 3.25066 0
M  V30 17742 H 1698.22 3.69459 3.05019 0
M  V30 17743 H 1696.59 1.9011 1.695 0
M  V30 17744 H 1697.37 3.33119 0.829855 0
M  V30 17745 N 1699.82 -0.815801 1.34842 0
M  V30 17746 C 1701.06 -1.57241 1.27599 0
M  V30 17747 C 1701.39 -1.93904 -0.152127 0
M  V30 17748 O 1700.65 -1.60819 -1.11515 0
M  V30 17749 C 1700.94 -2.87795 2.11917 0
M  V30 17750 C 1700.61 -2.70392 3.60831 0
M  V30 17751 C 1699.27 -2.65353 4.01424 0
M  V30 17752 C 1701.62 -2.53569 4.55359 0
M  V30 17753 C 1698.95 -2.41422 5.34726 0
M  V30 17754 C 1701.3 -2.31169 5.8885 0
M  V30 17755 C 1699.97 -2.24546 6.28598 0
M  V30 17756 H 1699.24 -0.575386 0.466918 0
M  V30 17757 H 1701.89 -0.943355 1.66653 0
M  V30 17758 H 1700.19 -3.5503 1.65714 0
M  V30 17759 H 1701.89 -3.45436 2.03654 0
M  V30 17760 H 1698.48 -2.75157 3.28613 0
M  V30 17761 H 1702.66 -2.5648 4.2489 0
M  V30 17762 H 1697.92 -2.34758 5.64534 0
M  V30 17763 H 1702.09 -2.1714 6.61682 0
M  V30 17764 H 1699.72 -2.05765 7.31823 0
M  V30 17765 N 1701.29 -1.18689 -1.03686 0
M  V30 17766 C 1702.24 -0.885273 -2.10112 0
M  V30 17767 C 1703.23 0.146598 -1.60231 0
M  V30 17768 O 1704.42 -0.0579783 -1.76905 0
M  V30 17769 C 1701.55 -0.416977 -3.40758 0
M  V30 17770 C 1700.63 -1.48114 -3.97396 0
M  V30 17771 N 1701.03 -2.69857 -4.27798 0
M  V30 17772 C 1699.32 -1.34255 -4.25314 0
M  V30 17773 C 1700.02 -3.38349 -4.73175 0
M  V30 17774 N 1699 -2.65735 -4.74222 0
M  V30 17775 H 1702.8 -1.81067 -2.31499 0
M  V30 17776 H 1700.32 -1.07786 -1.21474 0
M  V30 17777 H 1702.31 -0.182385 -4.16501 0
M  V30 17778 H 1700.97 0.502036 -3.20795 0
M  V30 17779 H 1701.98 -3.0669 -4.17327 0
M  V30 17780 H 1698.66 -0.486374 -4.14657 0
M  V30 17781 H 1700.05 -4.42415 -5.05686 0
M  V30 17782 N 1702.77 1.22662 -0.989529 0
M  V30 17783 C 1704 1.9506 -0.680833 0
M  V30 17784 C 1704.41 1.73354 0.757953 0
M  V30 17785 O 1703.75 1.02755 1.52273 0
M  V30 17786 C 1703.81 3.47982 -0.902711 0
M  V30 17787 C 1703.48 3.93418 -2.32533 0
M  V30 17788 C 1704.48 4.01362 -3.30462 0
M  V30 17789 C 1702.16 4.26157 -2.65886 0
M  V30 17790 C 1704.15 4.41413 -4.59819 0
M  V30 17791 C 1701.84 4.65888 -3.95463 0
M  V30 17792 C 1702.84 4.73484 -4.92241 0
M  V30 17793 O 1702.53 5.12318 -6.19504 0
M  V30 17794 H 1702.26 0.627572 -0.251256 0
M  V30 17795 H 1704.81 1.56858 -1.32608 0
M  V30 17796 H 1703.04 3.86181 -0.200292 0
M  V30 17797 H 1704.73 4.01592 -0.589781 0
M  V30 17798 H 1705.5 3.76262 -3.06026 0
M  V30 17799 H 1701.38 4.19451 -1.91263 0
M  V30 17800 H 1704.92 4.47257 -5.35357 0
M  V30 17801 H 1700.82 4.90439 -4.1969 0
M  V30 17802 H 1701.59 5.30402 -6.23391 0
M  V30 17803 N 1704.25 0.762308 1.37937 0
M  V30 17804 C 1705.5 0.322369 1.99918 0
M  V30 17805 C 1705.82 -1.09843 1.60514 0
M  V30 17806 O 1705.08 -1.76837 0.83829 0
M  V30 17807 C 1705.38 0.402558 3.55126 0
M  V30 17808 C 1705.04 1.78025 4.14268 0
M  V30 17809 C 1703.71 2.15727 4.30134 0
M  V30 17810 C 1706.06 2.68359 4.46803 0
M  V30 17811 C 1703.39 3.43217 4.75835 0
M  V30 17812 C 1705.74 3.95248 4.93925 0
M  V30 17813 C 1704.4 4.33007 5.07997 0
M  V30 17814 H 1703.67 0.117963 0.73155 0
M  V30 17815 H 1706.32 0.974491 1.64851 0
M  V30 17816 H 1704.62 -0.333119 3.90381 0
M  V30 17817 H 1706.32 0.0436064 4.00976 0
M  V30 17818 H 1702.91 1.4772 4.02339 0
M  V30 17819 H 1707.1 2.40493 4.34139 0
M  V30 17820 H 1702.35 3.72379 4.84916 0
M  V30 17821 H 1706.53 4.6538 5.18068 0
M  V30 17822 H 1704.15 5.31856 5.4317 0
M  V30 17823 N 1705.73 -1.49049 0.51208 0
M  V30 17824 C 1706.95 -2.07382 -0.0271044 0
M  V30 17825 C 1707.38 -1.3685 -1.29049 0
M  V30 17826 O 1706.74 -0.428713 -1.76158 0
M  V30 17827 C 1706.78 -3.59715 -0.252462 0
M  V30 17828 O 1705.89 -3.90538 -1.32491 0
M  V30 17829 H 1705.23 -0.663269 0.0311507 0
M  V30 17830 H 1707.76 -1.91705 0.714873 0
M  V30 17831 H 1707.77 -4.05159 -0.480603 0
M  V30 17832 H 1706.44 -4.10459 0.670531 0
M  V30 17833 H 1705.02 -3.56892 -1.08085 0
M  V30 17834 N 1707.21 -0.246397 -1.55662 0
M  V30 17835 C 1708.44 0.38209 -2.03036 0
M  V30 17836 C 1708.84 1.52119 -1.12501 0
M  V30 17837 O 1708.19 1.83227 -0.131753 0
M  V30 17838 C 1708.25 0.952012 -3.46666 0
M  V30 17839 C 1707.91 -0.0547805 -4.56967 0
M  V30 17840 C 1708.91 -0.864138 -5.12668 0
M  V30 17841 C 1706.59 -0.180725 -5.01975 0
M  V30 17842 C 1708.59 -1.7859 -6.1187 0
M  V30 17843 C 1706.28 -1.106 -6.01008 0
M  V30 17844 C 1707.27 -1.90711 -6.55834 0
M  V30 17845 O 1706.96 -2.81678 -7.52936 0
M  V30 17846 H 1706.69 0.095009 -0.66929 0
M  V30 17847 H 1709.25 -0.367701 -2.02082 0
M  V30 17848 H 1707.48 1.75136 -3.44767 0
M  V30 17849 H 1709.17 1.49052 -3.77542 0
M  V30 17850 H 1709.93 -0.77742 -4.78729 0
M  V30 17851 H 1705.81 0.432761 -4.58964 0
M  V30 17852 H 1709.36 -2.41162 -6.54589 0
M  V30 17853 H 1705.25 -1.19364 -6.34368 0
M  V30 17854 H 1706.02 -2.76034 -7.7055 0
M  V30 17855 N 1708.68 1.57577 0.026722 0
M  V30 17856 C 1709.93 1.89005 0.715645 0
M  V30 17857 C 1710.25 0.844388 1.7577 0
M  V30 17858 O 1709.52 -0.121693 1.95522 0
M  V30 17859 H 1708.1 0.697535 0.267308 0
M  V30 17860 H 1710.76 1.94898 -0.00788096 0
M  V30 17861 H 1709.86 2.87952 1.20374 0
M  V30 17862 N 1710.16 -0.299034 1.54737 0
M  V30 17863 C 1711.41 -1.03553 1.74369 0
M  V30 17864 C 1711.74 -1.86856 0.529019 0
M  V30 17865 O 1711.02 -1.8864 -0.473854 0
M  V30 17866 C 1711.3 -1.93988 3.03382 0
M  V30 17867 C 1711.15 -1.13852 4.35153 0
M  V30 17868 C 1712.47 -2.93128 3.28274 0
M  V30 17869 H 1709.59 -0.375055 0.634431 0
M  V30 17870 H 1712.23 -0.310018 1.87454 0
M  V30 17871 H 1710.38 -2.5585 2.92358 0
M  V30 17872 H 1712.05 -0.542614 4.58098 0
M  V30 17873 H 1710.3 -0.441278 4.3155 0
M  V30 17874 H 1710.97 -1.80385 5.21694 0
M  V30 17875 H 1713.44 -2.41396 3.38921 0
M  V30 17876 H 1712.32 -3.53569 4.19857 0
M  V30 17877 H 1712.58 -3.66892 2.46663 0
M  V30 17878 N 1711.64 -1.47227 -0.562322 0
M  V30 17879 C 1712.6 -1.58887 -1.6519 0
M  V30 17880 C 1713.6 -0.464359 -1.53949 0
M  V30 17881 O 1714.79 -0.729279 -1.582 0
M  V30 17882 C 1711.92 -1.52853 -3.04711 0
M  V30 17883 H 1713.12 -2.5601 -1.56202 0
M  V30 17884 H 1710.67 -1.35341 -0.781832 0
M  V30 17885 H 1711.41 -0.570867 -3.19236 0
M  V30 17886 H 1711.19 -2.3446 -3.14279 0
M  V30 17887 H 1712.68 -1.6414 -3.83989 0
M  V30 17888 N 1713.12 0.808639 -1.35273 0
M  V30 17889 C 1714.36 1.57901 -1.29794 0
M  V30 17890 C 1714.72 1.91582 0.126611 0
M  V30 17891 O 1715.92 2.67056 0.305745 0
M  V30 17892 C 1714.19 2.83433 -2.17716 0
M  V30 17893 S 1715.75 3.73856 -2.29732 0
M  V30 17894 H 1712.57 0.541041 -0.461298 0
M  V30 17895 H 1715.17 0.954024 -1.70642 0
M  V30 17896 H 1713.88 2.5671 -3.202 0
M  V30 17897 H 1713.41 3.50919 -1.77818 0
M  V30 17898 H 1715.42 4.73595 -1.48063 0
M  V30 17899 N 1714.6 1.19237 1.03055 0
M  V30 17900 C 1715.82 1.01983 1.80594 0
M  V30 17901 C 1716.25 -0.426875 1.83192 0
M  V30 17902 O 1715.6 -1.30678 1.2567 0
M  V30 17903 C 1715.65 1.59139 3.23585 0
M  V30 17904 O 1714.76 0.819576 4.04174 0
M  V30 17905 H 1714.1 0.360585 0.557561 0
M  V30 17906 H 1716.63 1.58222 1.29719 0
M  V30 17907 H 1716.64 1.62283 3.74337 0
M  V30 17908 H 1715.31 2.64436 3.21009 0
M  V30 17909 H 1713.89 0.861253 3.62818 0
M  V30 17910 N 1716.07 -1.22136 0.99602 0
M  V30 17911 C 1716.98 -2.27869 0.557927 0
M  V30 17912 C 1718 -1.69462 -0.394781 0
M  V30 17913 O 1719.18 -1.99704 -0.26084 0
M  V30 17914 C 1716.24 -3.46501 -0.117434 0
M  V30 17915 C 1715.3 -4.20213 0.878627 0
M  V30 17916 C 1714.54 -5.33181 0.2354 0
M  V30 17917 O 1714.76 -5.62093 -0.969954 0
M  V30 17918 O 1713.69 -5.94486 0.941828 0
M  V30 17919 H 1717.52 -2.67517 1.43765 0
M  V30 17920 H 1715.1 -1.28362 0.764428 0
M  V30 17921 H 1716.99 -4.18476 -0.49559 0
M  V30 17922 H 1715.66 -3.08772 -0.971674 0
M  V30 17923 H 1714.57 -3.50497 1.30777 0
M  V30 17924 H 1715.9 -4.6183 1.70217 0
M  V30 17925 N 1717.55 -0.769612 -1.37531 0
M  V30 17926 C 1718.8 -0.33346 -2.0004 0
M  V30 17927 C 1719.13 1.08661 -1.60955 0
M  V30 17928 O 1718.41 1.74714 -0.854709 0
M  V30 17929 C 1718.69 -0.474588 -3.56959 0
M  V30 17930 C 1718.54 -1.93692 -4.0596 0
M  V30 17931 C 1719.86 0.122429 -4.3993 0
M  V30 17932 H 1716.98 -0.122637 -0.726725 0
M  V30 17933 H 1719.62 -0.972255 -1.6324 0
M  V30 17934 H 1717.77 0.0692352 -3.88438 0
M  V30 17935 H 1719.44 -2.54028 -3.85055 0
M  V30 17936 H 1717.69 -2.44647 -3.58232 0
M  V30 17937 H 1718.36 -1.98674 -5.15008 0
M  V30 17938 H 1720.83 -0.341557 -4.14696 0
M  V30 17939 H 1719.71 -0.00646545 -5.489 0
M  V30 17940 H 1719.97 1.21251 -4.25148 0
M  V30 17941 N 1719.03 1.48775 -0.519977 0
M  V30 17942 C 1719.94 2.33239 0.252329 0
M  V30 17943 C 1720.96 1.45852 0.948849 0
M  V30 17944 O 1722.13 1.78848 0.92603 0
M  V30 17945 C 1719.2 3.2174 1.29166 0
M  V30 17946 C 1718.26 4.24993 0.606564 0
M  V30 17947 C 1717.49 5.09266 1.59638 0
M  V30 17948 O 1717.71 4.95353 2.82809 0
M  V30 17949 O 1716.65 5.90981 1.14127 0
M  V30 17950 H 1720.47 3.00503 -0.439527 0
M  V30 17951 H 1718.06 1.46733 -0.281032 0
M  V30 17952 H 1719.94 3.76512 1.89254 0
M  V30 17953 H 1718.62 2.5715 1.96611 0
M  V30 17954 H 1717.52 3.74084 -0.0345447 0
M  V30 17955 H 1718.86 4.92193 -0.0257627 0
M  V30 17956 N 1720.51 0.254649 1.55529 0
M  V30 17957 C 1721.76 -0.368461 1.98306 0
M  V30 17958 C 1722.07 -1.585 1.14617 0
M  V30 17959 O 1723.28 -2.27975 1.47443 0
M  V30 17960 C 1721.73 -0.70693 3.52889 0
M  V30 17961 C 1721.34 0.488648 4.45327 0
M  V30 17962 C 1723.08 -1.2938 4.04303 0
M  V30 17963 C 1720.99 0.125903 5.91266 0
M  V30 17964 H 1719.92 -0.141444 0.740614 0
M  V30 17965 H 1722.57 0.356085 1.80012 0
M  V30 17966 H 1720.95 -1.48982 3.66907 0
M  V30 17967 H 1722.13 1.26587 4.43071 0
M  V30 17968 H 1720.44 0.990969 4.04436 0
M  V30 17969 H 1723.04 -1.57866 5.10864 0
M  V30 17970 H 1723.38 -2.22088 3.52112 0
M  V30 17971 H 1723.92 -0.573647 3.93642 0
M  V30 17972 H 1720.66 1.02032 6.4751 0
M  V30 17973 H 1720.18 -0.614969 5.96639 0
M  V30 17974 H 1721.85 -0.289174 6.46353 0
M  V30 17975 N 1721.99 -1.57589 -0.0183649 0
M  V30 17976 C 1723.26 -1.80938 -0.743021 0
M  V30 17977 C 1723.64 -0.855272 -1.92998 0
M  V30 17978 O 1722.99 0.100181 -2.2828 0
M  V30 17979 C 1723.2 -3.28945 -1.16602 0
M  V30 17980 C 1724.55 -3.94208 -1.5775 0
M  V30 17981 O 1725.57 -3.33159 -1.26031 0
M  V30 17982 O 1724.43 -5.01716 -2.16663 0
M  V30 17983 H 1721.53 -0.744435 -0.360203 0
M  V30 17984 H 1724.07 -1.69699 0.00567963 0
M  V30 17985 H 1722.84 -3.89996 -0.319154 0
M  V30 17986 H 1722.47 -3.45113 -1.9744 0
M  V30 17987 N 1723.46 0.290824 -1.54893 0
M  V30 17988 C 1724.7 1.0326 -1.76399 0
M  V30 17989 C 1725.07 1.84136 -0.543874 0
M  V30 17990 O 1726.27 2.61147 -0.636854 0
M  V30 17991 C 1724.54 1.90632 -3.02315 0
M  V30 17992 S 1726.1 2.71317 -3.44866 0
M  V30 17993 H 1722.92 0.348084 -0.619966 0
M  V30 17994 H 1725.52 0.304897 -1.93108 0
M  V30 17995 H 1724.22 1.30109 -3.8923 0
M  V30 17996 H 1723.75 2.67753 -2.88222 0
M  V30 17997 H 1725.77 3.93148 -3.02737 0
M  V30 17998 N 1724.94 1.47523 0.554506 0
M  V30 17999 C 1725.87 1.63093 1.67102 0
M  V30 18000 C 1726.85 0.480298 1.63178 0
M  V30 18001 O 1728.04 0.709956 1.80757 0
M  V30 18002 C 1725.17 1.64751 3.05736 0
M  V30 18003 C 1724.12 2.79068 3.24507 0
M  V30 18004 C 1723.45 2.65801 4.63955 0
M  V30 18005 C 1724.75 4.20631 3.09623 0
M  V30 18006 H 1726.44 2.56561 1.54328 0
M  V30 18007 H 1723.99 1.2347 0.741023 0
M  V30 18008 H 1725.94 1.74234 3.83693 0
M  V30 18009 H 1724.67 0.678453 3.19475 0
M  V30 18010 H 1723.32 2.691 2.48959 0
M  V30 18011 H 1722.97 1.66917 4.74497 0
M  V30 18012 H 1722.67 3.42494 4.77464 0
M  V30 18013 H 1724.2 2.77216 5.44044 0
M  V30 18014 H 1725.61 4.31562 3.77396 0
M  V30 18015 H 1724.01 4.98133 3.3464 0
M  V30 18016 H 1725.08 4.38809 2.06336 0
M  V30 18017 N 1726.42 -0.801453 1.357 0
M  V30 18018 C 1727.65 -1.59001 1.32386 0
M  V30 18019 C 1728.06 -1.88548 -0.0975432 0
M  V30 18020 O 1727.42 -1.49199 -1.05099 0
M  V30 18021 C 1727.47 -2.91822 2.13359 0
M  V30 18022 O 1727.19 -2.63554 3.49958 0
M  V30 18023 C 1728.69 -3.86169 2.17689 0
M  V30 18024 H 1725.91 -0.493557 0.45458 0
M  V30 18025 H 1728.46 -0.995616 1.78627 0
M  V30 18026 H 1726.61 -3.47763 1.70704 0
M  V30 18027 H 1727.03 -3.48397 3.92071 0
M  V30 18028 H 1728.5 -4.76461 2.78727 0
M  V30 18029 H 1728.98 -4.23134 1.17704 0
M  V30 18030 H 1729.58 -3.36163 2.60527 0
M  V30 18031 N 1727.9 -1.19782 -1.02421 0
M  V30 18032 C 1729.15 -1.00133 -1.7555 0
M  V30 18033 C 1729.47 0.468503 -1.89288 0
M  V30 18034 O 1728.74 1.3391 -1.42986 0
M  V30 18035 H 1727.32 -0.367513 -0.650341 0
M  V30 18036 H 1729.98 -1.50758 -1.23523 0
M  V30 18037 H 1729.08 -1.45329 -2.76199 0
M  V30 18038 N 1729.38 1.21606 -1.00248 0
M  V30 18039 C 1730.65 1.86191 -0.599348 0
M  V30 18040 C 1731.03 1.89847 0.923104 0
M  V30 18041 O 1730.38 1.39595 1.80902 0
M  V30 18042 C 1730.59 3.26576 -1.23082 0
M  V30 18043 C 1731.94 4.02989 -1.33736 0
M  V30 18044 O 1732.96 3.35877 -1.18595 0
M  V30 18045 O 1731.82 5.23142 -1.58065 0
M  V30 18046 H 1728.92 0.801204 -0.204943 0
M  V30 18047 H 1731.46 1.29309 -1.09897 0
M  V30 18048 H 1730.24 3.18601 -2.27176 0
M  V30 18049 H 1729.86 3.91074 -0.717394 0
M  V30 18050 N 1730.86 0.776895 1.37121 0
M  V30 18051 C 1731.81 0.140089 2.27569 0
M  V30 18052 C 1732.79 -0.668578 1.46352 0
M  V30 18053 O 1733.98 -0.530707 1.68856 0
M  V30 18054 C 1731.11 -0.734162 3.35358 0
M  V30 18055 C 1730.2 0.0826144 4.2402 0
M  V30 18056 N 1730.59 1.13084 4.92997 0
M  V30 18057 C 1728.89 -0.140551 4.45778 0
M  V30 18058 C 1729.59 1.62701 5.58483 0
M  V30 18059 N 1728.56 0.93832 5.3544 0
M  V30 18060 H 1732.36 0.942573 2.78375 0
M  V30 18061 H 1729.88 0.615144 1.50299 0
M  V30 18062 H 1731.88 -1.20618 3.9907 0
M  V30 18063 H 1730.54 -1.53533 2.86108 0
M  V30 18064 H 1731.55 1.51308 4.95304 0
M  V30 18065 H 1728.22 -0.913223 4.0739 0
M  V30 18066 H 1729.61 2.50145 6.236 0
M  V30 18067 N 1732.33 -1.48497 0.527859 0
M  V30 18068 C 1733.28 -2.2959 -0.23607 0
M  V30 18069 C 1734.25 -1.37232 -0.935762 0
M  V30 18070 O 1735.44 -1.66196 -0.937202 0
M  V30 18071 C 1732.58 -3.20551 -1.27832 0
M  V30 18072 C 1731.69 -4.27984 -0.58769 0
M  V30 18073 C 1730.82 -5.06128 -1.61269 0
M  V30 18074 C 1729.86 -6.05367 -0.905404 0
M  V30 18075 N 1729 -6.76577 -1.87585 0
M  V30 18076 H 1733.84 -2.94403 0.461635 0
M  V30 18077 H 1731.38 -1.45137 0.239493 0
M  V30 18078 H 1733.33 -3.71686 -1.89488 0
M  V30 18079 H 1731.96 -2.57665 -1.94444 0
M  V30 18080 H 1731.02 -3.80132 0.142759 0
M  V30 18081 H 1732.33 -4.9879 -0.0322348 0
M  V30 18082 H 1731.48 -5.61266 -2.30359 0
M  V30 18083 H 1730.22 -4.35157 -2.20204 0
M  V30 18084 H 1729.23 -5.49435 -0.200426 0
M  V30 18085 H 1730.45 -6.78335 -0.322197 0
M  V30 18086 H 1728.4 -6.08358 -2.45432 0
M  V30 18087 H 1728.31 -7.4345 -1.37178 0
M  V30 18088 H 1729.58 -7.36305 -2.5588 0
M  V30 18089 N 1733.81 -0.262893 -1.55392 0
M  V30 18090 C 1734.76 0.645946 -2.23451 0
M  V30 18091 C 1735.75 1.16753 -1.2274 0
M  V30 18092 O 1736.96 1.12257 -1.40706 0
M  V30 18093 H 1733.33 0.226829 -0.716975 0
M  V30 18094 H 1735.31 0.0489539 -2.9836 0
M  V30 18095 C 1734.05 1.82451 -2.95985 0
M  V30 18096 H 1733.38 1.43233 -3.73262 0
M  V30 18097 H 1734.82 2.43731 -3.46945 0
M  V30 18098 C 1733.28 2.7055 -2.0076 0
M  V30 18099 O 1733.81 3.70552 -1.55093 0
M  V30 18100 N 1732.01 2.37457 -1.67519 0
M  V30 18101 H 1731.56 1.56184 -2.04852 0
M  V30 18102 H 1731.52 2.96675 -1.04074 0
M  V30 18103 N 1735.29 1.57597 0.0100073 0
M  V30 18104 C 1736.22 2.10825 1.00375 0
M  V30 18105 C 1737.2 1.01507 1.36493 0
M  V30 18106 O 1738.39 1.29136 1.45043 0
M  V30 18107 C 1735.52 2.60334 2.29878 0
M  V30 18108 C 1734.47 3.74087 2.07949 0
M  V30 18109 C 1733.8 4.09873 3.43378 0
M  V30 18110 C 1735.1 5.01764 1.45018 0
M  V30 18111 H 1736.79 2.94105 0.560591 0
M  V30 18112 H 1734.34 1.4148 0.268208 0
M  V30 18113 H 1736.29 2.96196 2.99743 0
M  V30 18114 H 1735.01 1.74162 2.76288 0
M  V30 18115 H 1733.67 3.38603 1.40512 0
M  V30 18116 H 1733.32 3.20739 3.87473 0
M  V30 18117 H 1733.02 4.86505 3.29525 0
M  V30 18118 H 1734.54 4.48285 4.14575 0
M  V30 18119 H 1735.96 5.35462 2.04826 0
M  V30 18120 H 1734.35 5.83135 1.41683 0
M  V30 18121 H 1735.42 4.83093 0.41819 0
M  V30 18122 N 1736.77 -0.282606 1.55045 0
M  V30 18123 C 1738.18 -0.629284 1.4667 0
M  V30 18124 C 1738.38 -1.89931 0.672932 0
M  V30 18125 O 1737.44 -2.518 0.187946 0
M  V30 18126 C 1738.75 -0.765174 2.90802 0
M  V30 18127 C 1740.3 -0.859859 3.00958 0
M  V30 18128 C 1740.78 -1.0276 4.46323 0
M  V30 18129 N 1742.27 -1.09336 4.50111 0
M  V30 18130 C 1743 -1.24178 5.59792 0
M  V30 18131 N 1742.5 -1.358 6.7936 0
M  V30 18132 N 1744.29 -1.27212 5.47516 0
M  V30 18133 H 1736.44 0.551592 2.05113 0
M  V30 18134 H 1738.7 0.185277 0.929718 0
M  V30 18135 H 1738.41 0.0974312 3.51565 0
M  V30 18136 H 1738.28 -1.64848 3.39271 0
M  V30 18137 H 1740.67 -1.71294 2.40297 0
M  V30 18138 H 1740.75 0.0478484 2.55755 0
M  V30 18139 H 1740.4 -0.179219 5.07584 0
M  V30 18140 H 1740.33 -1.94981 4.89173 0
M  V30 18141 H 1742.82 -1.01633 3.63977 0
M  V30 18142 H 1743.13 -1.46932 7.58703 0
M  V30 18143 H 1741.48 -1.32822 6.8219 0
M  V30 18144 H 1744.67 -1.17756 4.53046 0
M  V30 18145 H 1744.84 -1.38435 6.3304 0
M  V30 18146 N 1738.25 -1.47815 -0.546675 0
M  V30 18147 C 1739.47 -1.58613 -1.32851 0
M  V30 18148 C 1739.89 -0.240179 -1.87266 0
M  V30 18149 O 1739.25 0.768148 -1.65547 0
M  V30 18150 C 1739.3 -2.61969 -2.49107 0
M  V30 18151 O 1739.02 -3.9134 -1.96938 0
M  V30 18152 C 1740.52 -2.83051 -3.4117 0
M  V30 18153 H 1737.74 -0.535292 -0.404603 0
M  V30 18154 H 1740.28 -1.93516 -0.661192 0
M  V30 18155 H 1738.44 -2.29971 -3.11756 0
M  V30 18156 H 1738.85 -4.47905 -2.72913 0
M  V30 18157 H 1740.33 -3.59209 -4.19134 0
M  V30 18158 H 1740.8 -1.91258 -3.95369 0
M  V30 18159 H 1741.41 -3.16287 -2.84328 0
M  V30 18160 N 1739.72 0.794246 -1.36123 0
M  V30 18161 C 1741 1.53967 -1.20638 0
M  V30 18162 C 1741.38 2.10058 0.209456 0
M  V30 18163 O 1740.73 1.93551 1.2145 0
M  V30 18164 C 1740.94 2.63844 -2.28445 0
M  V30 18165 C 1742.29 3.31855 -2.64872 0
M  V30 18166 O 1743.31 2.74124 -2.27452 0
M  V30 18167 O 1742.17 4.36177 -3.2926 0
M  V30 18168 H 1739.26 0.68086 -0.469424 0
M  V30 18169 H 1741.81 0.833144 -1.4784 0
M  V30 18170 H 1740.58 2.20357 -3.23355 0
M  V30 18171 H 1740.2 3.42121 -2.02581 0
M  V30 18172 N 1741.2 1.20323 1.01785 0
M  V30 18173 C 1742.45 1.00688 1.74771 0
M  V30 18174 C 1742.76 -0.461769 1.90071 0
M  V30 18175 O 1743.97 -0.777214 2.60138 0
M  V30 18176 C 1742.43 1.75278 3.14334 0
M  V30 18177 C 1742.03 3.26227 3.0705 0
M  V30 18178 C 1743.78 1.64006 3.91538 0
M  V30 18179 C 1741.68 3.9336 4.41613 0
M  V30 18180 H 1740.61 0.373123 0.655206 0
M  V30 18181 H 1743.27 1.43931 1.13825 0
M  V30 18182 H 1741.65 1.24821 3.75813 0
M  V30 18183 H 1742.82 3.83888 2.54885 0
M  V30 18184 H 1741.14 3.37898 2.43339 0
M  V30 18185 H 1743.73 2.11503 4.91091 0
M  V30 18186 H 1744.08 0.59605 4.12011 0
M  V30 18187 H 1744.61 2.11869 3.36684 0
M  V30 18188 H 1741.35 4.97907 4.26344 0
M  V30 18189 H 1740.87 3.40488 4.93789 0
M  V30 18190 H 1742.55 3.97541 5.10461 0
M  V30 18191 N 1742.68 -1.21073 1.00892 0
M  V30 18192 C 1743.93 -1.90524 0.694879 0
M  V30 18193 C 1744.26 -1.78161 -0.772802 0
M  V30 18194 O 1743.53 -1.1608 -1.56063 0
M  V30 18195 C 1743.82 -3.42188 1.12156 0
M  V30 18196 C 1743.67 -3.63523 2.64898 0
M  V30 18197 C 1744.99 -4.34706 0.68694 0
M  V30 18198 H 1742.11 -0.69188 0.253912 0
M  V30 18199 H 1744.75 -1.42626 1.2553 0
M  V30 18200 H 1742.9 -3.83113 0.644742 0
M  V30 18201 H 1744.57 -3.31901 3.20374 0
M  V30 18202 H 1742.81 -3.07255 3.0623 0
M  V30 18203 H 1743.49 -4.69805 2.89806 0
M  V30 18204 H 1745.96 -4.01386 1.09674 0
M  V30 18205 H 1744.84 -5.3946 1.01361 0
M  V30 18206 H 1745.1 -4.40178 -0.411757 0
M  V30 18207 N 1744.16 -0.784156 -1.36707 0
M  V30 18208 C 1745.09 -0.124956 -2.27858 0
M  V30 18209 C 1746.07 0.695835 -1.46959 0
M  V30 18210 O 1747.25 0.667944 -1.76269 0
M  V30 18211 C 1744.38 0.828816 -3.28403 0
M  V30 18212 C 1743.43 0.0904776 -4.26404 0
M  V30 18213 S 1744.26 -1.23012 -5.2118 0
M  V30 18214 C 1745.42 -0.280212 -6.25272 0
M  V30 18215 H 1745.65 -0.89783 -2.83419 0
M  V30 18216 H 1743.18 -0.578123 -1.43168 0
M  V30 18217 H 1745.14 1.37367 -3.86834 0
M  V30 18218 H 1743.8 1.5749 -2.71764 0
M  V30 18219 H 1742.99 0.813986 -4.97383 0
M  V30 18220 H 1742.6 -0.383737 -3.72026 0
M  V30 18221 H 1744.89 0.542878 -6.75321 0
M  V30 18222 H 1745.83 -0.958538 -7.01582 0
M  V30 18223 H 1746.24 0.114109 -5.64385 0
M  V30 18224 N 1745.64 1.48215 -0.535727 0
M  V30 18225 C 1746.91 1.95505 0.0609376 0
M  V30 18226 C 1747.29 1.47806 1.5072 0
M  V30 18227 O 1746.64 0.707142 2.17283 0
M  V30 18228 C 1746.85 3.48944 -0.0622609 0
M  V30 18229 C 1748.2 4.24496 0.0940805 0
M  V30 18230 O 1749.22 3.56198 0.0112532 0
M  V30 18231 O 1748.08 5.4584 0.268547 0
M  V30 18232 H 1745.18 0.82349 0.0761079 0
M  V30 18233 H 1747.72 1.58711 -0.600732 0
M  V30 18234 H 1746.49 3.76401 -1.06949 0
M  V30 18235 H 1746.12 3.92448 0.637999 0
M  V30 18236 N 1747.11 0.27113 1.5525 0
M  V30 18237 C 1748.36 -0.347304 1.99804 0
M  V30 18238 C 1748.69 -1.55803 1.15928 0
M  V30 18239 O 1747.97 -1.93154 0.228386 0
M  V30 18240 C 1748.25 -0.733408 3.52552 0
M  V30 18241 C 1748.1 0.48438 4.47184 0
M  V30 18242 C 1749.42 -1.57136 4.11092 0
M  V30 18243 H 1746.54 -0.124762 0.726363 0
M  V30 18244 H 1749.18 0.37728 1.86217 0
M  V30 18245 H 1747.33 -1.35076 3.64262 0
M  V30 18246 H 1749.01 1.12293 4.47424 0
M  V30 18247 H 1747.25 1.12317 4.19008 0
M  V30 18248 H 1747.92 0.170525 5.51737 0
M  V30 18249 H 1750.4 -1.05001 4.02634 0
M  V30 18250 H 1749.27 -1.81033 5.18187 0
M  V30 18251 H 1749.53 -2.55111 3.61069 0
M  V30 18252 N 1748.59 -1.576 -0.00164943 0
M  V30 18253 C 1749.84 -1.9012 -0.685486 0
M  V30 18254 C 1750.16 -0.872245 -1.74404 0
M  V30 18255 O 1749.43 0.090572 -1.95691 0
M  V30 18256 H 1748.01 -0.701699 -0.256177 0
M  V30 18257 H 1750.67 -1.94861 0.0388866 0
M  V30 18258 H 1749.77 -2.89831 -1.15778 0
M  V30 18259 N 1750.07 0.274379 -1.55193 0
M  V30 18260 C 1751.3 1.02871 -1.8009 0
M  V30 18261 C 1751.72 1.79202 -0.571676 0
M  V30 18262 O 1751.08 1.74867 0.478679 0
M  V30 18263 C 1751.13 1.96406 -3.02418 0
M  V30 18264 O 1750.23 3.05154 -2.77408 0
M  V30 18265 H 1749.57 0.294181 -0.595276 0
M  V30 18266 H 1752.1 0.303708 -2.02333 0
M  V30 18267 H 1752.11 2.38385 -3.31114 0
M  V30 18268 H 1750.79 1.40261 -3.91535 0
M  V30 18269 H 1749.36 2.675 -2.59805 0
M  V30 18270 N 1751.55 1.48103 0.538828 0
M  V30 18271 C 1752.77 1.59568 1.32487 0
M  V30 18272 C 1753.2 0.252908 1.86392 0
M  V30 18273 O 1752.56 -0.774094 1.63944 0
M  V30 18274 C 1752.6 2.63863 2.45782 0
M  V30 18275 O 1751.71 2.20409 3.48559 0
M  V30 18276 H 1751.05 0.53538 0.392765 0
M  V30 18277 H 1753.58 1.94024 0.649299 0
M  V30 18278 H 1753.59 2.8486 2.92093 0
M  V30 18279 H 1752.26 3.61352 2.05906 0
M  V30 18280 H 1750.84 2.09588 3.08427 0
M  V30 18281 N 1753.03 -0.787016 1.36542 0
M  V30 18282 C 1753.96 -1.91399 1.33749 0
M  V30 18283 C 1754.94 -1.68817 0.208559 0
M  V30 18284 O 1756.12 -1.89896 0.406574 0
M  V30 18285 C 1753.25 -3.28457 1.12842 0
M  V30 18286 C 1752.21 -3.65568 2.22585 0
M  V30 18287 C 1751.53 -5.01002 1.86818 0
M  V30 18288 C 1752.83 -3.73902 3.64684 0
M  V30 18289 H 1754.53 -1.93993 2.2805 0
M  V30 18290 H 1752.07 -0.931937 1.09777 0
M  V30 18291 H 1754.03 -4.06919 1.09522 0
M  V30 18292 H 1752.75 -3.26256 0.149918 0
M  V30 18293 H 1751.41 -2.89405 2.25035 0
M  V30 18294 H 1751.06 -4.95325 0.875361 0
M  V30 18295 H 1750.76 -5.26802 2.60294 0
M  V30 18296 H 1752.28 -5.81881 1.85058 0
M  V30 18297 H 1753.69 -4.4255 3.64448 0
M  V30 18298 H 1752.09 -4.11188 4.37086 0
M  V30 18299 H 1753.16 -2.74946 3.99416 0
M  V30 18300 N 1754.5 -1.20861 -1.01145 0
M  V30 18301 C 1755.45 -0.959005 -2.1191 0
M  V30 18302 C 1756.45 0.0914738 -1.69153 0
M  V30 18303 O 1757.65 -0.0593443 -1.79902 0
M  V30 18304 H 1754.03 -0.292825 -0.692645 0
M  V30 18305 H 1756 -1.89937 -2.30145 0
M  V30 18306 C 1754.75 -0.533258 -3.43586 0
M  V30 18307 H 1754.07 -1.33319 -3.76917 0
M  V30 18308 H 1755.51 -0.397868 -4.22129 0
M  V30 18309 C 1753.97 0.755011 -3.28331 0
M  V30 18310 O 1754.5 1.81217 -3.58502 0
M  V30 18311 N 1752.71 0.719026 -2.81564 0
M  V30 18312 H 1752.25 -0.141544 -2.57211 0
M  V30 18313 H 1752.21 1.58132 -2.71738 0
M  V30 18314 N 1755.98 1.20536 -1.01532 0
M  V30 18315 C 1757.39 1.71594 -0.735687 0
M  V30 18316 C 1757.74 1.81469 0.745873 0
M  V30 18317 O 1756.87 1.47638 1.58215 0
M  V30 18318 C 1757.46 3.11654 -1.3288 0
M  V30 18319 C 1756.02 3.60027 -1.09806 0
M  V30 18320 C 1755.17 2.37266 -1.43528 0
M  V30 18321 H 1758.12 1.05568 -1.18495 0
M  V30 18322 H 1758.14 3.7365 -0.718725 0
M  V30 18323 H 1757.65 3.04434 -2.4071 0
M  V30 18324 H 1755.76 3.72581 -0.0373763 0
M  V30 18325 H 1755.87 4.44918 -1.77722 0
M  V30 18326 H 1754.23 2.39947 -0.854268 0
M  V30 18327 H 1755.02 2.32688 -2.5241 0
M  V30 18328 N 1757.46 0.791395 1.36289 0
M  V30 18329 C 1758.42 0.197069 2.28351 0
M  V30 18330 C 1759.42 -0.606748 1.48913 0
M  V30 18331 O 1760.61 -0.427453 1.68874 0
M  V30 18332 C 1757.75 -0.727009 3.33058 0
M  V30 18333 H 1758.94 1.00885 2.82422 0
M  V30 18334 H 1756.49 0.560959 1.45887 0
M  V30 18335 H 1757.23 -1.56306 2.84146 0
M  V30 18336 H 1757.01 -0.152537 3.91803 0
M  V30 18337 H 1758.5 -1.13765 4.01805 0
M  V30 18338 N 1758.94 -1.47929 0.54358 0
M  V30 18339 C 1760.19 -2.01696 0.0123924 0
M  V30 18340 C 1760.5 -1.42469 -1.34022 0
M  V30 18341 O 1761.71 -1.87816 -1.96054 0
M  V30 18342 C 1760.16 -3.59889 -0.0282734 0
M  V30 18343 C 1759.77 -4.28104 1.32027 0
M  V30 18344 C 1761.52 -4.21455 -0.507571 0
M  V30 18345 C 1759.42 -5.78266 1.23945 0
M  V30 18346 H 1758.35 -0.754 0.000862593 0
M  V30 18347 H 1761 -1.70058 0.689396 0
M  V30 18348 H 1759.39 -3.88429 -0.770641 0
M  V30 18349 H 1760.56 -4.11221 2.07927 0
M  V30 18350 H 1758.87 -3.78468 1.7364 0
M  V30 18351 H 1761.47 -5.31477 -0.586219 0
M  V30 18352 H 1761.81 -3.87696 -1.51648 0
M  V30 18353 H 1762.35 -3.97395 0.179522 0
M  V30 18354 H 1759.09 -6.16621 2.22393 0
M  V30 18355 H 1758.61 -5.97524 0.522029 0
M  V30 18356 H 1760.29 -6.40197 0.935788 0
M  V30 18357 N 1760.42 -0.27936 -1.55104 0
M  V30 18358 C 1761.69 0.388213 -1.91709 0
M  V30 18359 C 1762.07 1.7339 -1.20412 0
M  V30 18360 O 1761.42 2.26069 -0.332419 0
M  V30 18361 C 1761.63 0.524298 -3.45039 0
M  V30 18362 C 1762.98 0.805229 -4.16895 0
M  V30 18363 O 1764 0.608944 -3.50956 0
M  V30 18364 O 1762.86 1.18089 -5.33589 0
M  V30 18365 H 1759.96 0.213245 -0.799034 0
M  V30 18366 H 1762.5 -0.325825 -1.66543 0
M  V30 18367 H 1761.28 -0.422562 -3.89012 0
M  V30 18368 H 1760.9 1.28764 -3.76172 0
M  V30 18369 N 1761.9 1.57599 -0.0067085 0
M  V30 18370 C 1763.14 1.90036 0.675957 0
M  V30 18371 C 1763.46 0.882449 1.74563 0
M  V30 18372 O 1764.66 1.09728 2.48339 0
M  V30 18373 C 1763.12 3.37366 1.25349 0
M  V30 18374 C 1762.73 4.47468 0.218284 0
M  V30 18375 C 1764.47 3.78904 1.91396 0
M  V30 18376 C 1762.38 5.85879 0.806182 0
M  V30 18377 H 1761.31 0.709125 0.256237 0
M  V30 18378 H 1763.96 1.83373 -0.0683502 0
M  V30 18379 H 1762.34 3.38888 2.04868 0
M  V30 18380 H 1763.52 4.57472 -0.552808 0
M  V30 18381 H 1761.83 4.14992 -0.342131 0
M  V30 18382 H 1764.43 4.79654 2.36297 0
M  V30 18383 H 1764.77 3.12773 2.74734 0
M  V30 18384 H 1765.3 3.79709 1.186 0
M  V30 18385 H 1762.04 6.55499 0.0114275 0
M  V30 18386 H 1761.56 5.79526 1.54628 0
M  V30 18387 H 1763.24 6.33748 1.30278 0
M  V30 18388 N 1763.37 -0.266145 1.55336 0
M  V30 18389 C 1764.62 -0.994862 1.75917 0
M  V30 18390 C 1764.94 -1.8657 0.567147 0
M  V30 18391 O 1764.21 -1.91394 -0.417738 0
M  V30 18392 H 1762.79 -0.370318 0.648748 0
M  V30 18393 H 1765.45 -0.288724 1.9275 0
M  V30 18394 H 1764.55 -1.62781 2.66287 0
M  V30 18395 N 1764.85 -1.48386 -0.530967 0
M  V30 18396 C 1765.78 -1.58922 -1.65156 0
M  V30 18397 C 1766.8 -0.473583 -1.5576 0
M  V30 18398 O 1767.99 -0.744383 -1.62238 0
M  V30 18399 C 1765.09 -1.50201 -3.03798 0
M  V30 18400 C 1764.26 -2.76787 -3.38685 0
M  V30 18401 C 1763.32 -2.61534 -4.56603 0
M  V30 18402 O 1762.34 -3.35417 -4.59874 0
M  V30 18403 N 1763.55 -1.71087 -5.54716 0
M  V30 18404 H 1766.31 -2.55559 -1.56555 0
M  V30 18405 H 1763.87 -1.45097 -0.718216 0
M  V30 18406 H 1765.86 -1.37693 -3.80556 0
M  V30 18407 H 1764.43 -0.615419 -3.06482 0
M  V30 18408 H 1763.65 -3.03867 -2.51115 0
M  V30 18409 H 1764.94 -3.6077 -3.58779 0
M  V30 18410 H 1764.34 -1.10261 -5.54851 0
M  V30 18411 H 1762.9 -1.64518 -6.30696 0
M  V30 18412 N 1766.33 0.779763 -1.36958 0
M  V30 18413 C 1767.58 1.54031 -1.31918 0
M  V30 18414 C 1767.91 1.9395 0.0985685 0
M  V30 18415 O 1767.18 1.63458 1.05413 0
M  V30 18416 C 1767.47 2.81083 -2.25088 0
M  V30 18417 C 1767.32 2.47469 -3.75605 0
M  V30 18418 C 1768.64 3.82968 -2.1685 0
M  V30 18419 H 1765.76 0.558806 -0.480526 0
M  V30 18420 H 1768.4 0.895152 -1.67592 0
M  V30 18421 H 1766.55 3.36135 -1.94796 0
M  V30 18422 H 1768.22 1.98393 -4.16459 0
M  V30 18423 H 1766.46 1.80276 -3.94567 0
M  V30 18424 H 1767.14 3.38255 -4.3622 0
M  V30 18425 H 1769.61 3.37388 -2.43534 0
M  V30 18426 H 1768.49 4.69601 -2.84194 0
M  V30 18427 H 1768.75 4.26642 -1.15885 0
M  V30 18428 N 1767.81 1.21396 1.00503 0
M  V30 18429 C 1768.72 0.989221 2.12724 0
M  V30 18430 C 1769.73 -0.0586646 1.73901 0
M  V30 18431 O 1770.91 0.131377 2.00971 0
M  V30 18432 C 1767.97 0.556731 3.42201 0
M  V30 18433 C 1767.04 1.67683 3.95197 0
M  V30 18434 C 1766.27 1.26488 5.18494 0
M  V30 18435 O 1766.49 0.13847 5.70232 0
M  V30 18436 O 1765.43 2.07678 5.64937 0
M  V30 18437 H 1769.25 1.92913 2.3456 0
M  V30 18438 H 1766.84 0.998837 1.11102 0
M  V30 18439 H 1768.72 0.325327 4.20142 0
M  V30 18440 H 1767.39 -0.354457 3.21753 0
M  V30 18441 H 1766.3 1.96263 3.18483 0
M  V30 18442 H 1767.63 2.56544 4.20055 0
M  V30 18443 N 1769.29 -1.19996 1.0217 0
M  V30 18444 C 1770.53 -1.89121 0.712579 0
M  V30 18445 C 1770.85 -1.79556 -0.760561 0
M  V30 18446 O 1770.12 -1.2013 -1.54744 0
M  V30 18447 H 1768.7 -0.700075 0.260585 0
M  V30 18448 H 1771.37 -1.4571 1.2944 0
M  V30 18449 H 1770.46 -2.95629 1.00051 0
M  V30 18450 N 1770.76 -0.798611 -1.35867 0
M  V30 18451 C 1771.73 -0.209177 -2.28243 0
M  V30 18452 C 1772.73 0.598842 -1.49233 0
M  V30 18453 O 1773.92 0.418491 -1.69098 0
M  V30 18454 C 1771.05 0.709336 -3.33438 0
M  V30 18455 H 1772.24 -1.02382 -2.81883 0
M  V30 18456 H 1769.79 -0.568687 -1.45587 0
M  V30 18457 H 1770.53 1.54797 -2.84971 0
M  V30 18458 H 1770.31 0.131756 -3.91879 0
M  V30 18459 H 1771.8 1.11632 -4.02403 0
M  V30 18460 N 1772.24 1.47639 -0.551417 0
M  V30 18461 C 1773.49 2.02484 -0.0252051 0
M  V30 18462 C 1773.82 1.42638 1.3223 0
M  V30 18463 O 1773.07 0.569434 1.87232 0
M  V30 18464 C 1773.37 3.57187 0.123467 0
M  V30 18465 C 1773.04 4.35925 -1.15241 0
M  V30 18466 C 1771.7 4.57157 -1.50203 0
M  V30 18467 C 1774.05 4.81377 -1.99815 0
M  V30 18468 C 1771.38 5.2109 -2.69597 0
M  V30 18469 C 1773.73 5.46626 -3.18406 0
M  V30 18470 C 1772.39 5.66093 -3.53688 0
M  V30 18471 H 1771.66 0.740943 -0.0092232 0
M  V30 18472 H 1774.31 1.77378 -0.721764 0
M  V30 18473 H 1772.62 3.81253 0.902951 0
M  V30 18474 H 1774.31 3.97267 0.545876 0
M  V30 18475 H 1770.9 4.19674 -0.870169 0
M  V30 18476 H 1775.09 4.64756 -1.74112 0
M  V30 18477 H 1770.34 5.34356 -2.97108 0
M  V30 18478 H 1774.52 5.8081 -3.84231 0
M  V30 18479 H 1772.14 6.15404 -4.46298 0
M  V30 18480 N 1773.72 0.287581 1.54954 0
M  V30 18481 C 1774.97 -0.326093 2.00161 0
M  V30 18482 C 1775.3 -1.54564 1.17574 0
M  V30 18483 O 1774.57 -1.92901 0.248859 0
M  V30 18484 C 1774.86 -0.695974 3.5331 0
M  V30 18485 C 1774.71 0.531783 4.46645 0
M  V30 18486 C 1776.03 -1.52767 4.12735 0
M  V30 18487 H 1773.15 -0.117051 0.727646 0
M  V30 18488 H 1775.79 0.39701 1.85806 0
M  V30 18489 H 1773.94 -1.31205 3.65674 0
M  V30 18490 H 1775.61 1.17032 4.46208 0
M  V30 18491 H 1773.86 1.16754 4.17793 0
M  V30 18492 H 1774.53 0.229034 5.51525 0
M  V30 18493 H 1777 -1.00724 4.03725 0
M  V30 18494 H 1775.88 -1.75527 5.20078 0
M  V30 18495 H 1776.14 -2.51267 3.63755 0
M  V30 18496 N 1775.2 -1.57593 0.0150662 0
M  V30 18497 C 1776.13 -2.06239 -0.999912 0
M  V30 18498 C 1777.14 -0.983112 -1.29764 0
M  V30 18499 O 1778.33 -1.25961 -1.26476 0
M  V30 18500 C 1775.43 -2.46011 -2.33092 0
M  V30 18501 C 1774.61 -3.76851 -2.2204 0
M  V30 18502 C 1773.66 -4.03326 -3.37956 0
M  V30 18503 O 1772.69 -4.73781 -3.15469 0
M  V30 18504 N 1773.89 -3.52399 -4.61298 0
M  V30 18505 H 1776.66 -2.93936 -0.584952 0
M  V30 18506 H 1774.22 -1.60984 -0.172001 0
M  V30 18507 H 1776.21 -2.60825 -3.09439 0
M  V30 18508 H 1774.78 -1.63753 -2.66277 0
M  V30 18509 H 1774 -3.71969 -1.30509 0
M  V30 18510 H 1775.29 -4.626 -2.11845 0
M  V30 18511 H 1774.69 -2.95374 -4.82463 0
M  V30 18512 H 1773.24 -3.72516 -5.3486 0
M  V30 18513 N 1776.68 0.257904 -1.55475 0
M  V30 18514 C 1777.92 0.985519 -1.76442 0
M  V30 18515 C 1778.25 1.86267 -0.577033 0
M  V30 18516 O 1777.52 1.91613 0.407582 0
M  V30 18517 H 1776.1 0.366872 -0.650702 0
M  V30 18518 H 1778.76 0.278498 -1.929 0
M  V30 18519 H 1777.85 1.61367 -2.67146 0
M  V30 18520 N 1778.15 1.48666 0.52309 0
M  V30 18521 C 1779.08 1.666 1.63605 0
M  V30 18522 C 1780.07 0.514803 1.62123 0
M  V30 18523 O 1781.25 0.748138 1.79211 0
M  V30 18524 C 1778.38 1.71199 3.02172 0
M  V30 18525 C 1777.33 2.85888 3.18515 0
M  V30 18526 C 1776.66 2.75582 4.58213 0
M  V30 18527 C 1777.96 4.27104 3.00631 0
M  V30 18528 H 1779.65 2.59776 1.48851 0
M  V30 18529 H 1777.2 1.25014 0.714667 0
M  V30 18530 H 1779.15 1.82333 3.79911 0
M  V30 18531 H 1777.88 0.746066 3.17964 0
M  V30 18532 H 1776.54 2.7432 2.43195 0
M  V30 18533 H 1776.18 1.76944 4.7085 0
M  V30 18534 H 1775.88 3.52545 4.70091 0
M  V30 18535 H 1777.41 2.88693 5.38041 0
M  V30 18536 H 1778.82 4.3947 3.68157 0
M  V30 18537 H 1777.22 5.05119 3.23999 0
M  V30 18538 H 1778.29 4.43087 1.96982 0
M  V30 18539 N 1779.63 -0.772489 1.37369 0
M  V30 18540 C 1780.88 -1.528 1.32275 0
M  V30 18541 C 1781.2 -1.9478 -0.092541 0
M  V30 18542 O 1780.47 -1.6624 -1.0364 0
M  V30 18543 H 1779.05 -0.566727 0.486651 0
M  V30 18544 H 1781.71 -0.919435 1.7185 0
M  V30 18545 H 1780.81 -2.42774 1.96131 0
M  V30 18546 N 1781.11 -1.21927 -0.998575 0
M  V30 18547 C 1782.04 -1.00845 -2.106 0
M  V30 18548 C 1783.02 0.068733 -1.69961 0
M  V30 18549 O 1784.21 -0.0923686 -1.9398 0
M  V30 18550 C 1781.34 -0.57929 -3.42435 0
M  V30 18551 C 1780.29 -1.60177 -3.96897 0
M  V30 18552 C 1779.62 -1.02863 -5.24713 0
M  V30 18553 C 1780.92 -2.9903 -4.28227 0
M  V30 18554 H 1782.61 -1.93469 -2.28495 0
M  V30 18555 H 1780.16 -0.931612 -1.09804 0
M  V30 18556 H 1782.11 -0.418944 -4.19312 0
M  V30 18557 H 1780.83 0.382608 -3.24351 0
M  V30 18558 H 1779.49 -1.74979 -3.22146 0
M  V30 18559 H 1779.14 -0.058254 -5.02966 0
M  V30 18560 H 1778.84 -1.71166 -5.62117 0
M  V30 18561 H 1780.36 -0.879743 -6.04229 0
M  V30 18562 H 1781.78 -2.87634 -4.95923 0
M  V30 18563 H 1780.18 -3.64404 -4.76791 0
M  V30 18564 H 1781.25 -3.4939 -3.36236 0
M  V30 18565 N 1782.59 1.19452 -1.02805 0
M  V30 18566 C 1783.84 1.89114 -0.724029 0
M  V30 18567 C 1784.16 1.79571 0.747307 0
M  V30 18568 O 1783.42 1.18191 1.55979 0
M  V30 18569 C 1783.72 3.3941 -1.11964 0
M  V30 18570 C 1783.38 3.69156 -2.58911 0
M  V30 18571 C 1782.05 3.76984 -2.99059 0
M  V30 18572 C 1784.4 3.82549 -3.53986 0
M  V30 18573 C 1781.73 3.95673 -4.33197 0
M  V30 18574 C 1784.08 4.02751 -4.87826 0
M  V30 18575 C 1782.74 4.08812 -5.27664 0
M  V30 18576 H 1782.01 0.692017 -0.264941 0
M  V30 18577 H 1784.66 1.41463 -1.29075 0
M  V30 18578 H 1782.96 3.88952 -0.471514 0
M  V30 18579 H 1784.66 3.91627 -0.861939 0
M  V30 18580 H 1781.25 3.6367 -2.26808 0
M  V30 18581 H 1785.43 3.75845 -3.24121 0
M  V30 18582 H 1780.69 3.98605 -4.63599 0
M  V30 18583 H 1784.86 4.12056 -5.61412 0
M  V30 18584 H 1782.49 4.23046 -6.31614 0
M  V30 18585 N 1784.07 0.805805 1.35442 0
M  V30 18586 C 1785.29 0.398252 2.03031 0
M  V30 18587 C 1785.71 -0.990542 1.60729 0
M  V30 18588 O 1785.07 -1.63813 0.804461 0
M  V30 18589 C 1785.12 0.471116 3.58417 0
M  V30 18590 O 1784.84 1.80516 3.99181 0
M  V30 18591 C 1786.34 0.056272 4.43264 0
M  V30 18592 H 1783.56 0.161905 0.651174 0
M  V30 18593 H 1786.1 1.08921 1.73079 0
M  V30 18594 H 1784.26 -0.171584 3.8702 0
M  V30 18595 H 1784.67 1.76739 4.93825 0
M  V30 18596 H 1786.15 0.15837 5.51773 0
M  V30 18597 H 1786.62 -0.998308 4.27704 0
M  V30 18598 H 1787.23 0.672097 4.19956 0
M  V30 18599 N 1785.54 -1.47344 0.559239 0
M  V30 18600 C 1786.47 -2.32839 -0.175542 0
M  V30 18601 C 1787.46 -1.43914 -0.906787 0
M  V30 18602 O 1788.64 -1.72767 -0.886855 0
M  V30 18603 C 1785.77 -3.25735 -1.20474 0
M  V30 18604 C 1784.72 -4.23916 -0.589825 0
M  V30 18605 C 1784.05 -5.06151 -1.7238 0
M  V30 18606 C 1785.35 -5.2029 0.457733 0
M  V30 18607 H 1787.04 -2.94522 0.538225 0
M  V30 18608 H 1784.59 -1.41628 0.260282 0
M  V30 18609 H 1786.54 -3.84388 -1.72695 0
M  V30 18610 H 1785.27 -2.62111 -1.94847 0
M  V30 18611 H 1783.93 -3.66492 -0.0888897 0
M  V30 18612 H 1783.57 -4.38929 -2.45663 0
M  V30 18613 H 1783.27 -5.72625 -1.31813 0
M  V30 18614 H 1784.8 -5.67663 -2.24923 0
M  V30 18615 H 1786.21 -5.73296 0.0215019 0
M  V30 18616 H 1784.61 -5.94978 0.7824 0
M  V30 18617 H 1785.68 -4.65645 1.35286 0
M  V30 18618 N 1787.02 -0.295795 -1.54799 0
M  V30 18619 C 1787.93 0.592206 -2.27002 0
M  V30 18620 C 1788.95 1.1528 -1.30332 0
M  V30 18621 O 1790.12 1.1787 -1.63305 0
M  V30 18622 C 1787.19 1.75027 -2.99277 0
M  V30 18623 C 1786.25 1.22427 -4.11473 0
M  V30 18624 C 1785.48 2.32714 -4.80291 0
M  V30 18625 O 1785.71 3.52506 -4.48437 0
M  V30 18626 O 1784.64 1.997 -5.67806 0
M  V30 18627 H 1788.47 0.00666048 -3.03699 0
M  V30 18628 H 1786.05 -0.0624413 -1.49269 0
M  V30 18629 H 1787.93 2.42508 -3.44627 0
M  V30 18630 H 1786.61 2.32252 -2.25479 0
M  V30 18631 H 1785.52 0.515337 -3.70534 0
M  V30 18632 H 1786.85 0.697518 -4.87233 0
M  V30 18633 N 1788.5 1.57583 -0.0234236 0
M  V30 18634 C 1789.41 2.13328 0.976138 0
M  V30 18635 C 1790.43 1.08414 1.36097 0
M  V30 18636 O 1791.6 1.40441 1.44354 0
M  V30 18637 C 1788.67 2.64469 2.24181 0
M  V30 18638 C 1787.73 3.84076 1.91793 0
M  V30 18639 C 1786.96 4.32768 3.12326 0
M  V30 18640 O 1787.19 3.80663 4.24797 0
M  V30 18641 O 1786.12 5.24676 2.94956 0
M  V30 18642 H 1789.95 2.99001 0.532166 0
M  V30 18643 H 1787.53 1.48098 0.196838 0
M  V30 18644 H 1789.41 2.97456 2.98492 0
M  V30 18645 H 1788.09 1.81881 2.6777 0
M  V30 18646 H 1786.99 3.56023 1.14883 0
M  V30 18647 H 1788.33 4.67808 1.53024 0
M  V30 18648 N 1789.98 -0.249655 1.5561 0
M  V30 18649 C 1790.91 -1.31281 1.931 0
M  V30 18650 C 1791.89 -1.50347 0.795601 0
M  V30 18651 O 1793.08 -1.63001 1.05566 0
M  V30 18652 C 1790.21 -2.66808 2.2233 0
M  V30 18653 C 1789.16 -2.62441 3.38096 0
M  V30 18654 C 1788.49 -4.01738 3.52861 0
M  V30 18655 C 1789.79 -2.19667 4.7386 0
M  V30 18656 H 1791.48 -1.00151 2.82153 0
M  V30 18657 H 1789.03 -0.480331 1.35753 0
M  V30 18658 H 1790.98 -3.41316 2.47146 0
M  V30 18659 H 1789.7 -2.99569 1.30101 0
M  V30 18660 H 1788.36 -1.90391 3.13284 0
M  V30 18661 H 1788.01 -4.31759 2.58056 0
M  V30 18662 H 1787.71 -3.99705 4.30708 0
M  V30 18663 H 1789.23 -4.7795 3.79995 0
M  V30 18664 H 1790.65 -2.83906 4.98067 0
M  V30 18665 H 1789.04 -2.28751 5.54791 0
M  V30 18666 H 1790.11 -1.14829 4.71108 0
M  V30 18667 N 1791.46 -1.48941 -0.515198 0
M  V30 18668 C 1792.41 -1.60958 -1.61482 0
M  V30 18669 C 1793.39 -0.46591 -1.54007 0
M  V30 18670 O 1794.58 -0.718134 -1.61777 0
M  V30 18671 C 1791.71 -1.66623 -3.00153 0
M  V30 18672 C 1790.8 -2.8652 -3.12677 0
M  V30 18673 N 1791.19 -4.10769 -2.95131 0
M  V30 18674 C 1789.49 -2.84161 -3.43756 0
M  V30 18675 C 1790.19 -4.9129 -3.11463 0
M  V30 18676 N 1789.16 -4.24384 -3.39704 0
M  V30 18677 H 1792.97 -2.54756 -1.46549 0
M  V30 18678 H 1790.48 -1.45517 -0.721007 0
M  V30 18679 H 1792.48 -1.73328 -3.79161 0
M  V30 18680 H 1791.14 -0.739523 -3.16166 0
M  V30 18681 H 1792.15 -4.40974 -2.71593 0
M  V30 18682 H 1788.83 -2.00809 -3.66035 0
M  V30 18683 H 1790.22 -5.99948 -3.0251 0
M  V30 18684 N 1792.94 0.765193 -1.37777 0
M  V30 18685 C 1794.17 1.5521 -1.36358 0
M  V30 18686 C 1794.57 1.8913 0.0514021 0
M  V30 18687 O 1793.92 1.52422 1.02535 0
M  V30 18688 C 1793.98 2.88605 -2.14354 0
M  V30 18689 C 1793.64 2.77286 -3.63265 0
M  V30 18690 C 1794.64 2.47869 -4.57009 0
M  V30 18691 C 1792.32 2.95102 -4.06473 0
M  V30 18692 C 1794.32 2.36406 -5.91938 0
M  V30 18693 C 1792.01 2.83259 -5.41486 0
M  V30 18694 C 1793 2.53952 -6.34032 0
M  V30 18695 O 1792.69 2.42148 -7.66564 0
M  V30 18696 H 1792.42 0.487266 -0.468559 0
M  V30 18697 H 1794.98 0.955716 -1.81811 0
M  V30 18698 H 1793.21 3.50388 -1.636 0
M  V30 18699 H 1794.9 3.50043 -2.05486 0
M  V30 18700 H 1795.66 2.33784 -4.24936 0
M  V30 18701 H 1791.54 3.16913 -3.34794 0
M  V30 18702 H 1795.09 2.13452 -6.64142 0
M  V30 18703 H 1790.98 2.96914 -5.7316 0
M  V30 18704 H 1791.75 2.57448 -7.76957 0
M  V30 18705 N 1794.41 1.22455 0.992094 0
M  V30 18706 C 1795.64 1.07677 1.77258 0
M  V30 18707 C 1796.06 -0.368377 1.84458 0
M  V30 18708 O 1795.42 -1.26614 1.29763 0
M  V30 18709 C 1795.47 1.69353 3.18358 0
M  V30 18710 O 1794.57 0.947746 4.01362 0
M  V30 18711 H 1793.91 0.378141 0.545807 0
M  V30 18712 H 1796.44 1.62269 1.2462 0
M  V30 18713 H 1796.45 1.7411 3.68985 0
M  V30 18714 H 1795.13 2.74515 3.12433 0
M  V30 18715 H 1793.71 0.976245 3.59894 0
M  V30 18716 N 1795.89 -1.18905 1.03437 0
M  V30 18717 C 1797.3 -1.70402 0.762893 0
M  V30 18718 C 1797.65 -1.82633 -0.716908 0
M  V30 18719 O 1796.78 -1.50136 -1.55847 0
M  V30 18720 C 1797.37 -3.09501 1.37822 0
M  V30 18721 C 1795.93 -3.58235 1.1552 0
M  V30 18722 C 1795.08 -2.34953 1.47284 0
M  V30 18723 H 1798.03 -1.03669 1.2016 0
M  V30 18724 H 1798.05 -3.7246 0.778079 0
M  V30 18725 H 1797.56 -3.00566 2.45523 0
M  V30 18726 H 1795.66 -3.72475 0.096646 0
M  V30 18727 H 1795.78 -4.42034 1.84778 0
M  V30 18728 H 1794.14 -2.38557 0.892333 0
M  V30 18729 H 1794.92 -2.28643 2.5608 0
M  V30 18730 N 1797.37 -0.812977 -1.35013 0
M  V30 18731 C 1798.28 -0.229534 -2.33474 0
M  V30 18732 C 1799.3 0.630837 -1.62162 0
M  V30 18733 O 1800.47 0.541083 -1.93995 0
M  V30 18734 C 1797.54 0.607055 -3.41344 0
M  V30 18735 C 1796.6 -0.274554 -4.28421 0
M  V30 18736 C 1795.83 0.522202 -5.31139 0
M  V30 18737 O 1796.05 1.75636 -5.42686 0
M  V30 18738 O 1794.99 -0.0902666 -6.01832 0
M  V30 18739 H 1798.81 -1.04423 -2.85183 0
M  V30 18740 H 1796.4 -0.5749 -1.37896 0
M  V30 18741 H 1798.28 1.08335 -4.07236 0
M  V30 18742 H 1796.96 1.39924 -2.91895 0
M  V30 18743 H 1795.86 -0.798124 -3.65487 0
M  V30 18744 H 1797.2 -1.03084 -4.81284 0
M  V30 18745 N 1798.85 1.47045 -0.567045 0
M  V30 18746 C 1800.1 2.02046 -0.0465877 0
M  V30 18747 C 1800.42 1.44271 1.3119 0
M  V30 18748 O 1799.69 0.621533 1.85779 0
M  V30 18749 H 1798.27 0.746864 -0.0142323 0
M  V30 18750 H 1800.93 1.80335 -0.739281 0
M  V30 18751 H 1800.02 3.12081 0.0341623 0
M  V30 18752 N 1800.33 0.304 1.5464 0
M  V30 18753 C 1801.55 -0.309709 2.05075 0
M  V30 18754 C 1801.98 -1.46509 1.1797 0
M  V30 18755 O 1801.33 -1.80359 0.184437 0
M  V30 18756 C 1801.38 -0.740734 3.5291 0
M  V30 18757 O 1800.49 -1.8452 3.68817 0
M  V30 18758 H 1799.83 -0.0596065 0.661319 0
M  V30 18759 H 1802.36 0.446718 1.99664 0
M  V30 18760 H 1802.37 -1.02873 3.94818 0
M  V30 18761 H 1801.04 0.104422 4.15769 0
M  V30 18762 H 1799.62 -1.55753 3.38815 0
M  V30 18763 N 1801.8 -1.57568 0.0317802 0
M  V30 18764 C 1802.73 -2.13412 -0.947499 0
M  V30 18765 C 1803.71 -1.05091 -1.33753 0
M  V30 18766 O 1804.9 -1.32936 -1.41568 0
M  V30 18767 C 1802.03 -2.66337 -2.22895 0
M  V30 18768 C 1800.98 -3.79469 -1.97958 0
M  V30 18769 C 1800.31 -4.18833 -3.3239 0
M  V30 18770 C 1801.61 -5.05432 -1.31664 0
M  V30 18771 H 1803.3 -2.95488 -0.482417 0
M  V30 18772 H 1800.85 -1.42142 -0.230603 0
M  V30 18773 H 1802.8 -3.04039 -2.91784 0
M  V30 18774 H 1801.53 -1.81426 -2.71574 0
M  V30 18775 H 1800.19 -3.42209 -1.31485 0
M  V30 18776 H 1799.83 -3.30899 -3.78833 0
M  V30 18777 H 1799.53 -4.95071 -3.16511 0
M  V30 18778 H 1801.06 -4.5912 -4.02544 0
M  V30 18779 H 1802.47 -5.40704 -1.90558 0
M  V30 18780 H 1800.87 -5.86686 -1.26173 0
M  V30 18781 H 1801.94 -4.84032 -0.28996 0
M  V30 18782 N 1803.28 0.241399 -1.5574 0
M  V30 18783 C 1804.23 1.30198 -1.8717 0
M  V30 18784 C 1805.22 1.43233 -0.733022 0
M  V30 18785 O 1806.41 1.46382 -0.995058 0
M  V30 18786 C 1803.54 2.65637 -2.17467 0
M  V30 18787 C 1802.62 2.56584 -3.37676 0
M  V30 18788 N 1803.01 2.17167 -4.56806 0
M  V30 18789 C 1801.31 2.87586 -3.40896 0
M  V30 18790 C 1802.01 2.18882 -5.38949 0
M  V30 18791 N 1800.99 2.58599 -4.7815 0
M  V30 18792 H 1804.79 0.98781 -2.76802 0
M  V30 18793 H 1802.31 0.450014 -1.5604 0
M  V30 18794 H 1804.3 3.42184 -2.38151 0
M  V30 18795 H 1802.96 2.97916 -1.29136 0
M  V30 18796 H 1803.97 1.88621 -4.8233 0
M  V30 18797 H 1800.65 3.24369 -2.62852 0
M  V30 18798 H 1802.04 1.907 -6.4427 0
M  V30 18799 N 1804.76 1.49212 0.507292 0
M  V30 18800 C 1805.99 1.6208 1.28599 0
M  V30 18801 C 1806.4 0.289745 1.86563 0
M  V30 18802 O 1805.76 -0.723987 1.67525 0
M  V30 18803 C 1805.81 2.68482 2.42074 0
M  V30 18804 O 1805.53 3.96424 1.86493 0
M  V30 18805 C 1807.03 2.91997 3.33546 0
M  V30 18806 H 1804.25 0.545831 0.390268 0
M  V30 18807 H 1806.8 1.95201 0.609652 0
M  V30 18808 H 1804.95 2.38156 3.05549 0
M  V30 18809 H 1805.37 4.54983 2.60942 0
M  V30 18810 H 1806.84 3.70195 4.09463 0
M  V30 18811 H 1807.32 2.01673 3.9016 0
M  V30 18812 H 1807.92 3.23715 2.75842 0
M  V30 18813 N 1806.24 -0.757876 1.38181 0
M  V30 18814 C 1807.65 -1.06035 1.19284 0
M  V30 18815 C 1807.85 -2.01463 0.0385482 0
M  V30 18816 O 1806.91 -2.44845 -0.61703 0
M  V30 18817 C 1808.22 -1.64455 2.51744 0
M  V30 18818 C 1809.77 -1.76646 2.58389 0
M  V30 18819 C 1810.25 -2.38478 3.91014 0
M  V30 18820 N 1811.74 -2.45914 3.92531 0
M  V30 18821 C 1812.47 -2.94641 4.91909 0
M  V30 18822 N 1811.97 -3.43435 6.01684 0
M  V30 18823 N 1813.76 -2.93642 4.79303 0
M  V30 18824 H 1805.91 -0.124532 2.12035 0
M  V30 18825 H 1808.18 -0.117876 0.940643 0
M  V30 18826 H 1807.88 -1.01804 3.36644 0
M  V30 18827 H 1807.76 -2.63573 2.69832 0
M  V30 18828 H 1810.14 -2.38426 1.73888 0
M  V30 18829 H 1810.22 -0.762449 2.44173 0
M  V30 18830 H 1809.87 -1.77334 4.75936 0
M  V30 18831 H 1809.8 -3.39513 4.0254 0
M  V30 18832 H 1812.29 -2.11398 3.1324 0
M  V30 18833 H 1812.6 -3.79059 6.73449 0
M  V30 18834 H 1810.95 -3.41504 6.0531 0
M  V30 18835 H 1814.14 -2.5483 3.92657 0
M  V30 18836 H 1814.31 -3.31304 5.56903 0
M  V30 18837 N 1807.72 -1.22979 -0.985586 0
M  V30 18838 C 1808.96 -1.05667 -1.72275 0
M  V30 18839 C 1809.29 0.408045 -1.90683 0
M  V30 18840 O 1808.56 1.29293 -1.47174 0
M  V30 18841 H 1807.14 -0.388017 -0.63832 0
M  V30 18842 H 1809.8 -1.54612 -1.18665 0
M  V30 18843 H 1808.89 -1.54043 -2.71436 0
M  V30 18844 N 1809.19 1.18355 -1.04066 0
M  V30 18845 C 1810.61 1.69995 -0.771919 0
M  V30 18846 C 1810.96 1.83011 0.707213 0
M  V30 18847 O 1810.08 1.5096 1.55048 0
M  V30 18848 C 1810.68 3.08765 -1.39461 0
M  V30 18849 C 1809.24 3.57617 -1.17418 0
M  V30 18850 C 1808.38 2.34168 -1.48528 0
M  V30 18851 H 1811.33 1.0303 -1.20708 0
M  V30 18852 H 1811.35 3.72042 -0.79782 0
M  V30 18853 H 1810.87 2.9926 -2.47113 0
M  V30 18854 H 1808.97 3.72418 -0.116398 0
M  V30 18855 H 1809.08 4.41048 -1.87119 0
M  V30 18856 H 1807.44 2.38081 -0.904972 0
M  V30 18857 H 1808.23 2.27282 -2.57289 0
M  V30 18858 N 1810.67 0.820125 1.3458 0
M  V30 18859 C 1811.9 0.418747 2.03129 0
M  V30 18860 C 1812.32 -0.966605 1.61364 0
M  V30 18861 O 1811.68 -1.62847 0.796903 0
M  V30 18862 C 1811.73 0.525681 3.56748 0
M  V30 18863 O 1810.83 -0.455592 4.09876 0
M  V30 18864 H 1810.17 0.172819 0.641116 0
M  V30 18865 H 1812.7 1.10977 1.71888 0
M  V30 18866 H 1812.71 0.400422 4.0603 0
M  V30 18867 H 1811.39 1.53609 3.86493 0
M  V30 18868 H 1809.97 -0.289449 3.71775 0
M  V30 18869 N 1812.15 -1.46743 0.574835 0
M  V30 18870 C 1813.38 -2.06805 0.0627992 0
M  V30 18871 C 1813.79 -1.42482 -1.23872 0
M  V30 18872 O 1813.15 -0.527375 -1.74714 0
M  V30 18873 C 1813.2 -3.61307 -0.117983 0
M  V30 18874 O 1812.92 -4.23222 1.13201 0
M  V30 18875 C 1814.42 -4.3828 -0.665277 0
M  V30 18876 H 1811.64 -0.668835 0.0538616 0
M  V30 18877 H 1814.19 -1.88488 0.793265 0
M  V30 18878 H 1812.34 -3.79078 -0.798641 0
M  V30 18879 H 1812.76 -5.15992 0.940853 0
M  V30 18880 H 1814.23 -5.47004 -0.740985 0
M  V30 18881 H 1814.71 -4.05777 -1.68052 0
M  V30 18882 H 1815.31 -4.25295 -0.0197462 0
M  V30 18883 N 1813.63 -0.312197 -1.54477 0
M  V30 18884 C 1814.86 0.295632 -2.04474 0
M  V30 18885 C 1815.27 1.47211 -1.18851 0
M  V30 18886 O 1814.61 1.82503 -0.209347 0
M  V30 18887 C 1814.67 0.804123 -3.50391 0
M  V30 18888 C 1814.34 -0.248547 -4.56324 0
M  V30 18889 C 1815.33 -1.0808 -5.08542 0
M  V30 18890 C 1813.02 -0.393467 -5.00757 0
M  V30 18891 C 1815.01 -2.04381 -6.03744 0
M  V30 18892 C 1812.7 -1.35991 -5.95777 0
M  V30 18893 C 1813.7 -2.18355 -6.47155 0
M  V30 18894 O 1813.38 -3.13359 -7.40311 0
M  V30 18895 H 1813.12 0.0665366 -0.672718 0
M  V30 18896 H 1815.67 -0.45308 -2.00341 0
M  V30 18897 H 1813.9 1.60355 -3.51885 0
M  V30 18898 H 1815.59 1.32905 -3.83524 0
M  V30 18899 H 1816.36 -0.979766 -4.75001 0
M  V30 18900 H 1812.23 0.237709 -4.60387 0
M  V30 18901 H 1815.78 -2.68708 -6.43771 0
M  V30 18902 H 1811.68 -1.46162 -6.28734 0
M  V30 18903 H 1812.44 -3.08467 -7.58149 0
M  V30 18904 N 1815.11 1.57549 -0.040136 0
M  V30 18905 C 1816.05 2.10879 0.938013 0
M  V30 18906 C 1817.02 1.01348 1.31597 0
M  V30 18907 O 1818.21 1.28832 1.40737 0
M  V30 18908 C 1815.35 2.64938 2.21138 0
M  V30 18909 C 1814.46 3.88516 1.88889 0
M  V30 18910 C 1813.6 4.3093 3.10601 0
M  V30 18911 C 1812.64 5.47237 2.74223 0
M  V30 18912 N 1811.77 5.84755 3.88594 0
M  V30 18913 H 1816.61 2.94169 0.476328 0
M  V30 18914 H 1814.15 1.45392 0.223503 0
M  V30 18915 H 1816.11 2.94375 2.95633 0
M  V30 18916 H 1814.74 1.84463 2.64903 0
M  V30 18917 H 1813.79 3.6574 1.04588 0
M  V30 18918 H 1815.1 4.7308 1.58103 0
M  V30 18919 H 1814.26 4.61861 3.93407 0
M  V30 18920 H 1812.99 3.45155 3.44557 0
M  V30 18921 H 1812 5.15988 1.89831 0
M  V30 18922 H 1813.22 6.34719 2.41472 0
M  V30 18923 H 1811.17 5.01935 4.22371 0
M  V30 18924 H 1811.09 6.63984 3.6147 0
M  V30 18925 H 1812.36 6.20297 4.72072 0
M  V30 18926 N 1816.58 -0.233136 1.55866 0
M  V30 18927 C 1817.83 -0.957205 1.7754 0
M  V30 18928 C 1818.15 -1.85956 0.606601 0
M  V30 18929 O 1819.35 -2.62142 0.706687 0
M  V30 18930 C 1817.81 -1.75215 3.14369 0
M  V30 18931 C 1817.42 -0.896509 4.38938 0
M  V30 18932 C 1819.16 -2.46813 3.45374 0
M  V30 18933 C 1817.07 -1.68814 5.66794 0
M  V30 18934 H 1816 -0.361139 0.661887 0
M  V30 18935 H 1818.65 -0.211424 1.82278 0
M  V30 18936 H 1817.03 -2.54041 3.03775 0
M  V30 18937 H 1818.2 -0.149614 4.60557 0
M  V30 18938 H 1816.52 -0.293211 4.15366 0
M  V30 18939 H 1819.12 -3.0652 4.38121 0
M  V30 18940 H 1819.46 -3.19121 2.67334 0
M  V30 18941 H 1819.99 -1.74987 3.57245 0
M  V30 18942 H 1816.73 -1.00855 6.47695 0
M  V30 18943 H 1816.25 -2.40995 5.49255 0
M  V30 18944 H 1817.93 -2.25178 6.06551 0
M  V30 18945 N 1818.06 -1.49479 -0.499372 0
M  V30 18946 C 1819.47 -1.52231 -1.08087 0
M  V30 18947 C 1819.83 -0.309442 -1.93744 0
M  V30 18948 O 1818.95 0.580587 -2.08466 0
M  V30 18949 C 1819.55 -2.75857 -1.96694 0
M  V30 18950 C 1818.1 -2.81381 -2.50003 0
M  V30 18951 C 1817.25 -2.46166 -1.27662 0
M  V30 18952 H 1820.2 -1.56153 -0.283211 0
M  V30 18953 H 1820.22 -2.56111 -2.81403 0
M  V30 18954 H 1819.74 -3.64114 -1.34324 0
M  V30 18955 H 1817.84 -1.97408 -3.16008 0
M  V30 18956 H 1817.95 -3.83591 -2.87045 0
M  V30 18957 H 1816.31 -1.97981 -1.60236 0
M  V30 18958 H 1817.1 -3.36699 -0.669974 0
M  V30 18959 N 1819.54 0.750537 -1.38581 0
M  V30 18960 C 1820.5 1.84599 -1.35852 0
M  V30 18961 C 1821.5 1.58709 -0.258462 0
M  V30 18962 O 1822.69 1.66397 -0.51552 0
M  V30 18963 C 1819.83 3.22124 -1.11573 0
M  V30 18964 H 1821.02 1.88426 -2.33314 0
M  V30 18965 H 1818.57 0.952564 -1.23919 0
M  V30 18966 H 1819.31 3.23965 -0.147295 0
M  V30 18967 H 1819.09 3.42311 -1.91221 0
M  V30 18968 H 1820.58 4.02198 -1.12367 0
M  V30 18969 N 1821.02 1.235 0.979051 0
M  V30 18970 C 1822.27 1.06791 1.72052 0
M  V30 18971 C 1822.59 -0.395002 1.90447 0
M  V30 18972 O 1821.85 -1.30872 1.45503 0
M  V30 18973 C 1822.15 1.74004 3.12182 0
M  V30 18974 C 1821.81 3.23924 3.13662 0
M  V30 18975 C 1820.48 3.64828 3.13774 0
M  V30 18976 C 1822.83 4.19818 3.08872 0
M  V30 18977 C 1820.16 5.00083 3.06813 0
M  V30 18978 C 1822.51 5.55066 3.03454 0
M  V30 18979 C 1821.17 5.95332 3.01888 0
M  V30 18980 H 1820.44 0.390774 0.629584 0
M  V30 18981 H 1823.09 1.53452 1.14563 0
M  V30 18982 H 1821.39 1.19705 3.73066 0
M  V30 18983 H 1823.09 1.58551 3.68324 0
M  V30 18984 H 1819.68 2.91363 3.14334 0
M  V30 18985 H 1823.87 3.89225 3.07925 0
M  V30 18986 H 1819.12 5.30492 3.03954 0
M  V30 18987 H 1823.3 6.29085 2.98705 0
M  V30 18988 H 1820.92 7.001 2.96249 0
M  V30 18989 N 1822.5 -1.17802 1.04693 0
M  V30 18990 C 1823.75 -1.87567 0.752534 0
M  V30 18991 C 1824.07 -1.81129 -0.722303 0
M  V30 18992 O 1823.34 -1.23385 -1.52161 0
M  V30 18993 H 1821.92 -0.69439 0.275376 0
M  V30 18994 H 1824.58 -1.42932 1.32501 0
M  V30 18995 H 1823.67 -2.9344 1.06299 0
M  V30 18996 N 1823.98 -0.827251 -1.34143 0
M  V30 18997 C 1825.2 -0.429514 -2.02904 0
M  V30 18998 C 1825.63 0.958033 -1.61874 0
M  V30 18999 O 1824.98 1.62422 -0.805528 0
M  V30 19000 C 1825.03 -0.544592 -3.56464 0
M  V30 19001 O 1824.14 0.433849 -4.10112 0
M  V30 19002 H 1823.48 -0.176216 -0.64019 0
M  V30 19003 H 1826.01 -1.11887 -1.71297 0
M  V30 19004 H 1826.02 -0.421949 -4.05812 0
M  V30 19005 H 1824.69 -1.55657 -3.85673 0
M  V30 19006 H 1823.27 0.269729 -3.71923 0
M  V30 19007 N 1825.45 1.46436 -0.582609 0
M  V30 19008 C 1826.7 2.01592 -0.0658642 0
M  V30 19009 C 1827.02 1.45972 1.30198 0
M  V30 19010 O 1828.22 1.92948 1.91006 0
M  V30 19011 C 1826.68 3.59837 -0.0671547 0
M  V30 19012 C 1826.29 4.24453 -1.43331 0
M  V30 19013 C 1828.03 4.22652 0.395652 0
M  V30 19014 C 1825.94 5.74777 -1.39233 0
M  V30 19015 H 1824.87 0.753712 -0.0208533 0
M  V30 19016 H 1827.52 1.6817 -0.734241 0
M  V30 19017 H 1825.9 3.90336 0.667385 0
M  V30 19018 H 1827.07 4.05564 -2.18757 0
M  V30 19019 H 1825.39 3.73732 -1.83613 0
M  V30 19020 H 1827.99 5.32844 0.445101 0
M  V30 19021 H 1828.33 3.91581 1.41316 0
M  V30 19022 H 1828.86 3.96779 -0.284821 0
M  V30 19023 H 1825.6 6.10508 -2.38664 0
M  V30 19024 H 1825.12 5.9593 -0.680268 0
M  V30 19025 H 1826.8 6.37491 -1.1052 0
M  V30 19026 N 1826.93 0.320385 1.54309 0
M  V30 19027 C 1828.34 -0.16833 1.8594 0
M  V30 19028 C 1828.69 -1.51877 1.24208 0
M  V30 19029 O 1827.82 -2.09374 0.546933 0
M  V30 19030 C 1828.41 -0.312212 3.37358 0
M  V30 19031 C 1826.97 -0.745147 3.68951 0
M  V30 19032 C 1826.12 0.135038 2.76971 0
M  V30 19033 H 1829.07 0.540773 1.49202 0
M  V30 19034 H 1829.09 -1.14364 3.62906 0
M  V30 19035 H 1828.6 0.670809 3.82259 0
M  V30 19036 H 1826.7 -1.73803 3.29581 0
M  V30 19037 H 1826.82 -0.5511 4.7592 0
M  V30 19038 H 1825.18 -0.388886 2.51714 0
M  V30 19039 H 1825.96 1.11477 3.24697 0
M  V30 19040 N 1828.41 -1.57525 0.0484906 0
M  V30 19041 C 1829.66 -1.91761 -0.625335 0
M  V30 19042 C 1829.97 -0.928421 -1.72162 0
M  V30 19043 O 1831.18 -1.16273 -2.45342 0
M  V30 19044 C 1829.63 -3.40571 -1.1636 0
M  V30 19045 C 1829.24 -4.47889 -0.0995687 0
M  V30 19046 C 1830.99 -3.83845 -1.81282 0
M  V30 19047 C 1828.89 -5.87811 -0.650563 0
M  V30 19048 H 1827.82 -0.71567 -0.237346 0
M  V30 19049 H 1830.47 -1.83127 0.116944 0
M  V30 19050 H 1828.86 -3.44201 -1.95811 0
M  V30 19051 H 1830.03 -4.55846 0.673904 0
M  V30 19052 H 1828.34 -4.13939 0.452038 0
M  V30 19053 H 1830.94 -4.8575 -2.23497 0
M  V30 19054 H 1831.28 -3.19947 -2.66345 0
M  V30 19055 H 1831.82 -3.8272 -1.08491 0
M  V30 19056 H 1828.56 -6.55299 0.162371 0
M  V30 19057 H 1828.08 -5.83422 -1.39208 0
M  V30 19058 H 1829.76 -6.36979 -1.1343 0
M  V30 19059 N 1829.89 0.224867 -1.55988 0
M  V30 19060 C 1830.8 1.2997 -1.95307 0
M  V30 19061 C 1831.81 1.51463 -0.856444 0
M  V30 19062 O 1832.99 1.64658 -1.15973 0
M  V30 19063 C 1830.05 2.63009 -2.25892 0
M  V30 19064 C 1829.12 2.49847 -3.49106 0
M  V30 19065 C 1828.35 3.76541 -3.78223 0
M  V30 19066 O 1828.57 4.7941 -3.09066 0
M  V30 19067 O 1827.51 3.73852 -4.71718 0
M  V30 19068 H 1831.33 0.996093 -2.869 0
M  V30 19069 H 1828.92 0.427457 -1.43154 0
M  V30 19070 H 1830.8 3.41586 -2.46774 0
M  V30 19071 H 1829.47 2.93057 -1.37474 0
M  V30 19072 H 1828.38 1.69482 -3.33507 0
M  V30 19073 H 1829.71 2.24739 -4.37896 0
M  V30 19074 N 1831.37 1.49742 0.491438 0
M  V30 19075 C 1832.61 1.59711 1.24494 0
M  V30 19076 C 1832.94 0.288122 1.92354 0
M  V30 19077 O 1832.2 -0.724652 1.81789 0
M  V30 19078 C 1832.49 2.71245 2.32725 0
M  V30 19079 C 1832.16 4.12423 1.82258 0
M  V30 19080 C 1830.82 4.50841 1.68214 0
M  V30 19081 C 1833.17 5.00741 1.44595 0
M  V30 19082 C 1830.5 5.75339 1.149 0
M  V30 19083 C 1832.85 6.25767 0.927292 0
M  V30 19084 C 1831.52 6.63005 0.773323 0
M  V30 19085 H 1830.79 0.584422 0.455556 0
M  V30 19086 H 1833.44 1.83607 0.544137 0
M  V30 19087 H 1831.74 2.41357 3.08632 0
M  V30 19088 H 1833.44 2.76165 2.90747 0
M  V30 19089 H 1830.03 3.82104 1.94151 0
M  V30 19090 H 1834.21 4.71709 1.54288 0
M  V30 19091 H 1829.47 6.02883 1.01699 0
M  V30 19092 H 1833.64 6.93574 0.626707 0
M  V30 19093 H 1831.27 7.59356 0.358031 0
M  V30 19094 N 1832.84 -0.743177 1.38977 0
M  V30 19095 C 1834.26 -1.04764 1.20402 0
M  V30 19096 C 1834.46 -2.01411 0.0599139 0
M  V30 19097 O 1833.52 -2.45485 -0.591026 0
M  V30 19098 C 1834.83 -1.61775 2.53474 0
M  V30 19099 C 1836.38 -1.73896 2.60248 0
M  V30 19100 C 1836.85 -2.34318 3.93522 0
M  V30 19101 N 1838.34 -2.41737 3.95117 0
M  V30 19102 C 1839.08 -2.89407 4.95006 0
M  V30 19103 N 1838.57 -3.37034 6.05293 0
M  V30 19104 N 1840.37 -2.88542 4.8239 0
M  V30 19105 H 1832.52 -0.102036 2.12155 0
M  V30 19106 H 1834.78 -0.107893 0.94184 0
M  V30 19107 H 1834.49 -0.982274 3.37704 0
M  V30 19108 H 1834.36 -2.60696 2.72612 0
M  V30 19109 H 1836.75 -2.36568 1.76407 0
M  V30 19110 H 1836.83 -0.736509 2.44968 0
M  V30 19111 H 1836.47 -1.72276 4.7779 0
M  V30 19112 H 1836.4 -3.35224 4.06119 0
M  V30 19113 H 1838.89 -2.08064 3.15464 0
M  V30 19114 H 1839.21 -3.71895 6.77432 0
M  V30 19115 H 1837.55 -3.35064 6.08898 0
M  V30 19116 H 1840.74 -2.50651 3.95337 0
M  V30 19117 H 1840.92 -3.25379 5.60386 0
M  V30 19118 N 1834.32 -1.24018 -0.972487 0
M  V30 19119 C 1835.57 -1.07861 -1.71738 0
M  V30 19120 C 1835.9 0.382399 -1.90398 0
M  V30 19121 O 1835.18 1.2828 -1.462 0
M  V30 19122 C 1835.46 -1.81357 -3.11098 0
M  V30 19123 C 1835.31 -3.35179 -2.99959 0
M  V30 19124 C 1836.63 -1.58242 -4.10667 0
M  V30 19125 H 1833.75 -0.393228 -0.623331 0
M  V30 19126 H 1836.39 -1.52625 -1.13162 0
M  V30 19127 H 1834.54 -1.43307 -3.61103 0
M  V30 19128 H 1836.21 -3.82798 -2.57416 0
M  V30 19129 H 1834.46 -3.63805 -2.3628 0
M  V30 19130 H 1835.13 -3.818 -3.98664 0
M  V30 19131 H 1837.6 -1.91332 -3.69501 0
M  V30 19132 H 1836.48 -2.1213 -5.06253 0
M  V30 19133 H 1836.74 -0.519567 -4.39036 0
M  V30 19134 N 1835.8 1.17245 -1.05316 0
M  V30 19135 C 1837.03 1.91995 -0.784387 0
M  V30 19136 C 1837.45 1.76362 0.65408 0
M  V30 19137 O 1836.81 1.0822 1.45458 0
M  V30 19138 C 1836.86 3.41043 -1.1714 0
M  V30 19139 O 1835.96 4.11276 -0.304285 0
M  V30 19140 H 1835.3 0.598516 -0.287532 0
M  V30 19141 H 1837.83 1.48604 -1.40634 0
M  V30 19142 H 1837.84 3.91788 -1.13871 0
M  V30 19143 H 1836.52 3.51742 -2.21924 0
M  V30 19144 H 1835.09 3.70773 -0.39769 0
M  V30 19145 N 1837.28 0.834353 1.33702 0
M  V30 19146 C 1838.21 0.279313 2.31823 0
M  V30 19147 C 1839.19 -0.610495 1.58767 0
M  V30 19148 O 1840.37 -0.534989 1.86686 0
M  V30 19149 C 1837.5 -0.550201 3.42914 0
M  V30 19150 C 1836.46 0.243432 4.27307 0
M  V30 19151 C 1835.78 -0.709548 5.29971 0
M  V30 19152 C 1837.08 1.45799 5.01537 0
M  V30 19153 H 1838.78 1.09915 2.78494 0
M  V30 19154 H 1836.32 0.529987 1.33892 0
M  V30 19155 H 1838.28 -0.948764 4.10581 0
M  V30 19156 H 1837 -1.4032 2.9492 0
M  V30 19157 H 1835.66 0.6235 3.61259 0
M  V30 19158 H 1835.31 -1.55882 4.78236 0
M  V30 19159 H 1835.01 -0.182671 5.87316 0
M  V30 19160 H 1836.53 -1.10572 6.00505 0
M  V30 19161 H 1837.95 1.13283 5.61996 0
M  V30 19162 H 1836.34 1.92133 5.68511 0
M  V30 19163 H 1837.41 2.23016 4.30571 0
M  V30 19164 N 1838.76 -1.46125 0.590367 0
M  V30 19165 C 1839.69 -2.33159 -0.126114 0
M  V30 19166 C 1840.67 -1.45806 -0.876057 0
M  V30 19167 O 1841.85 -1.7461 -0.850009 0
M  V30 19168 C 1838.98 -3.28217 -1.13537 0
M  V30 19169 C 1837.94 -4.25072 -0.499773 0
M  V30 19170 C 1837.26 -5.09694 -1.61605 0
M  V30 19171 C 1838.56 -5.19202 0.567992 0
M  V30 19172 H 1840.26 -2.93315 0.600577 0
M  V30 19173 H 1837.8 -1.41044 0.290265 0
M  V30 19174 H 1839.76 -3.87965 -1.64503 0
M  V30 19175 H 1838.48 -2.66185 -1.89244 0
M  V30 19176 H 1837.14 -3.66598 -0.0111313 0
M  V30 19177 H 1836.79 -4.44041 -2.36297 0
M  V30 19178 H 1836.49 -5.75292 -1.19637 0
M  V30 19179 H 1838.01 -5.72307 -2.12832 0
M  V30 19180 H 1839.42 -5.73121 0.143102 0
M  V30 19181 H 1837.82 -5.93184 0.908428 0
M  V30 19182 H 1838.89 -4.62671 1.45133 0
M  V30 19183 N 1840.23 -0.328564 -1.54137 0
M  V30 19184 C 1841.65 0.0239073 -1.59582 0
M  V30 19185 C 1841.85 1.50043 -1.34497 0
M  V30 19186 O 1840.91 2.25711 -1.13185 0
M  V30 19187 C 1842.22 -0.398812 -2.98044 0
M  V30 19188 C 1843.77 -0.34989 -3.11038 0
M  V30 19189 C 1844.24 -0.747848 -4.51853 0
M  V30 19190 N 1845.73 -0.701447 -4.57858 0
M  V30 19191 C 1846.47 -0.981505 -5.64937 0
M  V30 19192 N 1845.96 -1.32895 -6.79934 0
M  V30 19193 N 1847.76 -0.906735 -5.54738 0
M  V30 19194 H 1839.91 -1.29052 -1.68699 0
M  V30 19195 H 1842.17 -0.52508 -0.7893 0
M  V30 19196 H 1841.88 -1.42773 -3.21417 0
M  V30 19197 H 1841.75 0.233639 -3.76476 0
M  V30 19198 H 1844.14 0.669831 -2.87397 0
M  V30 19199 H 1844.22 -1.01734 -2.34699 0
M  V30 19200 H 1843.86 -1.76551 -4.76227 0
M  V30 19201 H 1843.79 -0.0580299 -5.26568 0
M  V30 19202 H 1846.28 -0.444963 -3.75271 0
M  V30 19203 H 1846.6 -1.52789 -7.57546 0
M  V30 19204 H 1844.94 -1.36726 -6.81418 0
M  V30 19205 H 1848.13 -0.634748 -4.63776 0
M  V30 19206 H 1848.31 -1.12835 -6.38101 0
M  V30 19207 N 1841.71 1.57497 -0.0568439 0
M  V30 19208 C 1842.99 1.84277 0.655847 0
M  V30 19209 C 1843.37 0.94638 1.88698 0
M  V30 19210 O 1842.72 0.00884889 2.28498 0
M  V30 19211 C 1842.93 3.34134 1.00775 0
M  V30 19212 C 1844.28 4.01286 1.38763 0
M  V30 19213 O 1845.3 3.38792 1.09992 0
M  V30 19214 O 1844.16 5.11482 1.92479 0
M  V30 19215 H 1841.25 0.760773 0.324275 0
M  V30 19216 H 1843.8 1.69479 -0.0866388 0
M  V30 19217 H 1842.57 3.91075 0.132718 0
M  V30 19218 H 1842.19 3.5414 1.80749 0
M  V30 19219 N 1843.19 -0.216591 1.56105 0
M  V30 19220 C 1844.43 -0.947261 1.81125 0
M  V30 19221 C 1844.79 -1.81331 0.631108 0
M  V30 19222 O 1846 -2.57811 0.760726 0
M  V30 19223 C 1844.27 -1.75991 3.11066 0
M  V30 19224 S 1845.83 -2.54554 3.57418 0
M  V30 19225 H 1842.64 -0.318109 0.635868 0
M  V30 19226 H 1845.25 -0.212416 1.94343 0
M  V30 19227 H 1843.95 -1.1139 3.94994 0
M  V30 19228 H 1843.48 -2.53696 3.00669 0
M  V30 19229 H 1845.5 -3.78256 3.21149 0
M  V30 19230 N 1844.67 -1.5 -0.48349 0
M  V30 19231 C 1846.08 -1.53369 -1.06466 0
M  V30 19232 C 1846.43 -0.329973 -1.93405 0
M  V30 19233 O 1845.56 0.558444 -2.0907 0
M  V30 19234 C 1846.15 -2.77927 -1.93757 0
M  V30 19235 C 1844.71 -2.84017 -2.47005 0
M  V30 19236 C 1843.86 -2.47506 -1.25044 0
M  V30 19237 H 1846.81 -1.56444 -0.266633 0
M  V30 19238 H 1846.83 -2.59081 -2.78671 0
M  V30 19239 H 1846.34 -3.65518 -1.30454 0
M  V30 19240 H 1844.44 -2.00748 -3.13896 0
M  V30 19241 H 1844.55 -3.86614 -2.8296 0
M  V30 19242 H 1842.92 -1.99669 -1.58127 0
M  V30 19243 H 1843.7 -3.37391 -0.634225 0
M  V30 19244 N 1846.15 0.735796 -1.39369 0
M  V30 19245 C 1847.09 1.87116 -1.38168 0
M  V30 19246 C 1848.09 1.67315 -0.264936 0
M  V30 19247 O 1849.29 1.74666 -0.434928 0
M  V30 19248 H 1845.67 0.615926 -0.431438 0
M  V30 19249 H 1847.64 1.85245 -2.33938 0
M  V30 19250 C 1846.39 3.2479 -1.24125 0
M  V30 19251 H 1845.71 3.40621 -2.09325 0
M  V30 19252 H 1847.15 4.04426 -1.27341 0
M  V30 19253 C 1845.61 3.36862 0.050393 0
M  V30 19254 O 1846.14 3.88511 1.02088 0
M  V30 19255 N 1844.35 2.90379 0.113184 0
M  V30 19256 H 1843.89 2.48537 -0.677267 0
M  V30 19257 H 1843.85 2.98837 0.976928 0
M  V30 19258 N 1847.63 1.24532 0.965897 0
M  V30 19259 C 1848.57 1.03929 2.06076 0
M  V30 19260 C 1849.54 -0.0479997 1.66031 0
M  V30 19261 O 1850.73 0.106979 1.905 0
M  V30 19262 C 1847.87 0.652084 3.38883 0
M  V30 19263 C 1846.98 1.81304 3.92113 0
M  V30 19264 C 1846.12 1.37125 5.13196 0
M  V30 19265 C 1845.15 2.50204 5.58627 0
M  V30 19266 N 1844.29 2.0688 6.70929 0
M  V30 19267 H 1849.13 1.97636 2.23033 0
M  V30 19268 H 1846.67 0.984356 1.09311 0
M  V30 19269 H 1848.63 0.408608 4.15194 0
M  V30 19270 H 1847.26 -0.247995 3.21846 0
M  V30 19271 H 1846.31 2.17013 3.12425 0
M  V30 19272 H 1847.62 2.66264 4.21788 0
M  V30 19273 H 1846.77 1.08676 5.96887 0
M  V30 19274 H 1845.51 0.492215 4.8521 0
M  V30 19275 H 1844.52 2.7941 4.73508 0
M  V30 19276 H 1845.74 3.38667 5.88627 0
M  V30 19277 H 1843.69 1.21377 6.44673 0
M  V30 19278 H 1843.61 2.85392 7.00062 0
M  V30 19279 H 1844.87 1.81575 7.58057 0
M  V30 19280 N 1849.1 -1.16685 1.05936 0
M  V30 19281 C 1850.05 -2.20953 0.66695 0
M  V30 19282 C 1851.02 -1.62694 -0.334621 0
M  V30 19283 O 1852.21 -1.89477 -0.22433 0
M  V30 19284 C 1849.35 -3.45055 0.0557459 0
M  V30 19285 C 1848.46 -4.17574 1.10706 0
M  V30 19286 C 1847.59 -5.29184 0.462377 0
M  V30 19287 C 1846.63 -5.935 1.49748 0
M  V30 19288 N 1845.77 -6.96608 0.876416 0
M  V30 19289 H 1850.61 -2.53872 1.56054 0
M  V30 19290 H 1848.15 -1.24697 0.780321 0
M  V30 19291 H 1850.1 -4.16001 -0.316125 0
M  V30 19292 H 1848.73 -3.12697 -0.801265 0
M  V30 19293 H 1847.79 -3.45269 1.59668 0
M  V30 19294 H 1849.1 -4.61505 1.89248 0
M  V30 19295 H 1848.25 -6.06689 0.0373376 0
M  V30 19296 H 1846.99 -4.86407 -0.354955 0
M  V30 19297 H 1846 -5.1472 1.93245 0
M  V30 19298 H 1847.22 -6.38357 2.31684 0
M  V30 19299 H 1845.17 -6.55952 0.0797299 0
M  V30 19300 H 1845.08 -7.38891 1.59927 0
M  V30 19301 H 1846.35 -7.78043 0.4764 0
M  V30 19302 N 1850.58 -0.841432 -1.33258 0
M  V30 19303 C 1851.54 -0.281685 -2.27462 0
M  V30 19304 C 1852.54 0.551062 -1.51063 0
M  V30 19305 O 1853.73 0.364482 -1.70344 0
M  V30 19306 C 1850.87 0.602896 -3.35526 0
M  V30 19307 H 1852.06 -1.11298 -2.78483 0
M  V30 19308 H 1849.61 -0.614717 -1.43704 0
M  V30 19309 H 1850.35 1.45652 -2.89751 0
M  V30 19310 H 1850.13 0.00701634 -3.92099 0
M  V30 19311 H 1851.62 0.987735 -4.05751 0
M  V30 19312 N 1852.06 1.4581 -0.598108 0
M  V30 19313 C 1853.31 2.01511 -0.0872421 0
M  V30 19314 C 1853.62 1.47345 1.28642 0
M  V30 19315 O 1854.83 1.94963 1.88949 0
M  V30 19316 C 1853.28 3.59746 -0.105317 0
M  V30 19317 C 1852.89 4.22909 -1.47824 0
M  V30 19318 C 1854.64 4.23048 0.350802 0
M  V30 19319 C 1852.54 5.73268 -1.45321 0
M  V30 19320 H 1851.47 0.753448 -0.0288462 0
M  V30 19321 H 1854.12 1.67382 -0.752037 0
M  V30 19322 H 1852.51 3.91022 0.625947 0
M  V30 19323 H 1853.68 4.03221 -2.23046 0
M  V30 19324 H 1851.99 3.71763 -1.87566 0
M  V30 19325 H 1854.59 5.33286 0.388561 0
M  V30 19326 H 1854.93 3.93058 1.37155 0
M  V30 19327 H 1855.47 3.96455 -0.326889 0
M  V30 19328 H 1852.21 6.07942 -2.45126 0
M  V30 19329 H 1851.73 5.95175 -0.743436 0
M  V30 19330 H 1853.41 6.36283 -1.17275 0
M  V30 19331 N 1853.54 0.336733 1.53961 0
M  V30 19332 C 1854.77 -0.263064 2.04918 0
M  V30 19333 C 1855.18 -1.45301 1.21178 0
M  V30 19334 O 1854.52 -1.82147 0.238356 0
M  V30 19335 C 1854.58 -0.748277 3.51626 0
M  V30 19336 C 1854.24 0.321112 4.5587 0
M  V30 19337 C 1855.24 1.16157 5.06758 0
M  V30 19338 C 1852.93 0.473083 5.00067 0
M  V30 19339 C 1854.92 2.1396 6.00416 0
M  V30 19340 C 1852.61 1.45452 5.93538 0
M  V30 19341 C 1853.61 2.28624 6.43599 0
M  V30 19342 O 1853.29 3.25098 7.35232 0
M  V30 19343 H 1853.03 -0.0558258 0.673691 0
M  V30 19344 H 1855.58 0.484895 1.99594 0
M  V30 19345 H 1853.81 -1.54737 3.54392 0
M  V30 19346 H 1855.5 -1.26787 3.8559 0
M  V30 19347 H 1856.26 1.05521 4.73382 0
M  V30 19348 H 1852.14 -0.164435 4.60707 0
M  V30 19349 H 1855.69 2.78916 6.39415 0
M  V30 19350 H 1851.58 1.56146 6.26329 0
M  V30 19351 H 1852.35 3.2049 7.53146 0
M  V30 19352 N 1855.02 -1.57465 0.0651956 0
M  V30 19353 C 1855.98 -2.1123 -0.889634 0
M  V30 19354 C 1856.98 -1.03489 -1.23072 0
M  V30 19355 O 1858.17 -1.29505 -1.16508 0
M  V30 19356 C 1855.3 -2.60818 -2.19515 0
M  V30 19357 H 1856.49 -2.96898 -0.423301 0
M  V30 19358 H 1854.05 -1.5522 -0.183417 0
M  V30 19359 H 1854.78 -1.78585 -2.70699 0
M  V30 19360 H 1854.57 -3.39564 -1.96057 0
M  V30 19361 H 1856.06 -3.02513 -2.87881 0
M  V30 19362 N 1856.49 0.20831 -1.56217 0
M  V30 19363 C 1857.72 0.951404 -1.84291 0
M  V30 19364 C 1858.14 1.76616 -0.647168 0
M  V30 19365 O 1857.5 1.7674 0.404081 0
M  V30 19366 C 1857.55 1.83403 -3.10477 0
M  V30 19367 O 1856.65 2.93113 -2.90101 0
M  V30 19368 H 1855.99 0.268668 -0.607218 0
M  V30 19369 H 1858.52 0.217618 -2.03439 0
M  V30 19370 H 1858.53 2.24127 -3.40927 0
M  V30 19371 H 1857.21 1.23528 -3.97132 0
M  V30 19372 H 1855.79 2.5624 -2.70916 0
M  V30 19373 N 1857.97 1.50255 0.475528 0
M  V30 19374 C 1858.92 1.68794 1.57408 0
M  V30 19375 C 1859.89 0.529252 1.57442 0
M  V30 19376 O 1861.07 0.759301 1.75041 0
M  V30 19377 C 1858.21 1.78401 2.9541 0
M  V30 19378 C 1857.33 3.05742 3.05198 0
M  V30 19379 C 1856.46 3.06172 4.34088 0
M  V30 19380 C 1855.5 4.27985 4.37602 0
M  V30 19381 N 1854.64 4.26179 5.57957 0
M  V30 19382 H 1859.48 2.62583 1.40905 0
M  V30 19383 H 1857.01 1.30169 0.685152 0
M  V30 19384 H 1858.97 1.81952 3.75432 0
M  V30 19385 H 1857.6 0.880556 3.10558 0
M  V30 19386 H 1856.65 3.11683 2.18077 0
M  V30 19387 H 1857.97 3.95722 3.03654 0
M  V30 19388 H 1857.12 3.08427 5.22454 0
M  V30 19389 H 1855.86 2.14014 4.38234 0
M  V30 19390 H 1854.86 4.25947 3.47634 0
M  V30 19391 H 1856.09 5.21364 4.35151 0
M  V30 19392 H 1854.04 3.36873 5.62897 0
M  V30 19393 H 1853.95 5.09923 5.58135 0
M  V30 19394 H 1855.22 4.32574 6.4846 0
M  V30 19395 N 1859.45 -0.728395 1.39758 0
M  V30 19396 C 1860.41 -1.82415 1.38772 0
M  V30 19397 C 1861.41 -1.58278 0.283678 0
M  V30 19398 O 1862.6 -1.65556 0.541927 0
M  V30 19399 C 1859.73 -3.20309 1.16684 0
M  V30 19400 H 1860.93 -1.8469 2.36283 0
M  V30 19401 H 1858.48 -0.932729 1.25419 0
M  V30 19402 H 1859.22 -3.2369 0.198817 0
M  V30 19403 H 1859 -3.39226 1.96643 0
M  V30 19404 H 1860.49 -4.0036 1.18751 0
M  V30 19405 N 1860.93 -1.25042 -0.959279 0
M  V30 19406 C 1862.17 -1.09677 -1.70584 0
M  V30 19407 C 1862.51 0.362184 -1.90793 0
M  V30 19408 O 1861.78 1.26722 -1.47552 0
M  V30 19409 C 1862.06 -1.84646 -3.09157 0
M  V30 19410 C 1861.92 -3.38342 -2.96387 0
M  V30 19411 C 1863.24 -1.62588 -4.08966 0
M  V30 19412 H 1860.36 -0.399817 -0.619125 0
M  V30 19413 H 1863 -1.53816 -1.11537 0
M  V30 19414 H 1861.15 -1.47129 -3.59563 0
M  V30 19415 H 1862.82 -3.85507 -2.53342 0
M  V30 19416 H 1861.06 -3.66291 -2.32408 0
M  V30 19417 H 1861.73 -3.86007 -3.94592 0
M  V30 19418 H 1864.21 -1.9524 -3.67451 0
M  V30 19419 H 1863.09 -2.17488 -5.03975 0
M  V30 19420 H 1863.35 -0.566103 -4.38461 0
M  V30 19421 N 1862.41 1.16121 -1.06553 0
M  V30 19422 C 1863.65 1.86346 -0.782279 0
M  V30 19423 C 1863.98 1.82255 0.693395 0
M  V30 19424 O 1863.25 1.2579 1.50179 0
M  V30 19425 H 1861.83 0.689921 -0.286388 0
M  V30 19426 H 1864.49 1.40805 -1.34758 0
M  V30 19427 H 1863.58 2.91712 -1.10954 0
M  V30 19428 N 1863.88 0.848487 1.3281 0
M  V30 19429 C 1864.79 0.291355 2.32784 0
M  V30 19430 C 1865.81 -0.587621 1.63777 0
M  V30 19431 O 1866.99 -0.489458 1.95362 0
M  V30 19432 C 1864.05 -0.51634 3.42834 0
M  V30 19433 C 1863.11 0.388046 4.27543 0
M  V30 19434 C 1862.35 -0.381197 5.32337 0
M  V30 19435 O 1862.57 -1.61186 5.47152 0
M  V30 19436 O 1861.5 0.2498 6.01381 0
M  V30 19437 H 1865.33 1.11947 2.82315 0
M  V30 19438 H 1862.91 0.611259 1.36323 0
M  V30 19439 H 1864.8 -0.974995 4.09966 0
M  V30 19440 H 1863.47 -1.32136 2.95503 0
M  V30 19441 H 1862.38 0.894745 3.63243 0
M  V30 19442 H 1863.71 1.15808 4.78382 0
M  V30 19443 N 1865.36 -1.4549 0.605832 0
M  V30 19444 C 1866.77 -1.85775 0.18559 0
M  V30 19445 C 1867.12 -1.50638 -1.25708 0
M  V30 19446 O 1866.25 -0.932227 -1.95291 0
M  V30 19447 C 1866.84 -3.37189 0.330043 0
M  V30 19448 C 1865.4 -3.76383 -0.0354934 0
M  V30 19449 C 1864.55 -2.69446 0.655297 0
M  V30 19450 H 1867.5 -1.36316 0.812624 0
M  V30 19451 H 1867.52 -3.77968 -0.438236 0
M  V30 19452 H 1867.03 -3.62731 1.38014 0
M  V30 19453 H 1865.14 -3.56458 -1.08483 0
M  V30 19454 H 1865.25 -4.77769 0.356935 0
M  V30 19455 H 1863.61 -2.5453 0.0931235 0
M  V30 19456 H 1864.4 -2.97825 1.70749 0
M  V30 19457 N 1866.84 -0.344893 -1.5378 0
M  V30 19458 C 1868.25 0.138727 -1.86184 0
M  V30 19459 C 1868.6 1.49882 -1.26609 0
M  V30 19460 O 1867.73 2.08478 -0.580174 0
M  V30 19461 C 1868.32 0.258502 -3.37812 0
M  V30 19462 C 1866.88 0.686356 -3.70089 0
M  V30 19463 C 1866.03 -0.179085 -2.76721 0
M  V30 19464 H 1868.98 -0.564442 -1.48323 0
M  V30 19465 H 1869 1.08576 -3.6468 0
M  V30 19466 H 1868.51 -0.731538 -3.81143 0
M  V30 19467 H 1866.61 1.68537 -3.32304 0
M  V30 19468 H 1866.73 0.475315 -4.76736 0
M  V30 19469 H 1865.09 0.348791 -2.523 0
M  V30 19470 H 1865.87 -1.16628 -3.22882 0
M  V30 19471 N 1868.32 1.57428 -0.0735454 0
M  V30 19472 C 1869.25 2.15849 0.890584 0
M  V30 19473 C 1870.23 1.086 1.3092 0
M  V30 19474 O 1871.41 1.36643 1.37994 0
M  V30 19475 C 1868.54 2.72153 2.15755 0
M  V30 19476 C 1867.5 3.84584 1.87827 0
M  V30 19477 C 1866.82 4.27498 3.21169 0
M  V30 19478 C 1868.12 5.08746 1.18217 0
M  V30 19479 H 1869.82 2.96663 0.403904 0
M  V30 19480 H 1867.36 1.42703 0.192836 0
M  V30 19481 H 1869.32 3.11668 2.83621 0
M  V30 19482 H 1868.04 1.88562 2.66668 0
M  V30 19483 H 1866.7 3.45575 1.22366 0
M  V30 19484 H 1866.35 3.40827 3.69927 0
M  V30 19485 H 1866.05 5.03288 3.03273 0
M  V30 19486 H 1867.57 4.69631 3.9023 0
M  V30 19487 H 1868.99 5.45566 1.76155 0
M  V30 19488 H 1867.38 5.89825 1.10573 0
M  V30 19489 H 1868.45 4.84631 0.161525 0
M  V30 19490 N 1869.8 -0.200022 1.56326 0
M  V30 19491 C 1871.04 -0.921174 1.80335 0
M  V30 19492 C 1871.37 -1.83461 0.645946 0
M  V30 19493 O 1870.63 -1.92198 -0.368568 0
M  V30 19494 C 1870.93 -1.77356 3.1029 0
M  V30 19495 C 1870.59 -1.01153 4.39407 0
M  V30 19496 C 1869.25 -0.801112 4.74485 0
M  V30 19497 C 1871.61 -0.474992 5.19031 0
M  V30 19498 C 1868.93 -0.0425991 5.86685 0
M  V30 19499 C 1871.29 0.270286 6.32022 0
M  V30 19500 C 1869.95 0.491763 6.65686 0
M  V30 19501 H 1869.22 -0.337082 0.659892 0
M  V30 19502 H 1871.87 -0.187867 1.90576 0
M  V30 19503 H 1870.17 -2.57539 2.95264 0
M  V30 19504 H 1871.87 -2.33406 3.26071 0
M  V30 19505 H 1868.46 -1.18553 4.11877 0
M  V30 19506 H 1872.64 -0.624969 4.92349 0
M  V30 19507 H 1867.9 0.139015 6.11242 0
M  V30 19508 H 1872.07 0.693432 6.92939 0
M  V30 19509 H 1869.7 1.08142 7.52469 0
M  V30 19510 N 1871.27 -1.50505 -0.467553 0
M  V30 19511 C 1872.2 -1.72558 -1.57309 0
M  V30 19512 C 1873.19 -0.574619 -1.601 0
M  V30 19513 O 1874.37 -0.814135 -1.76311 0
M  V30 19514 C 1871.5 -1.82296 -2.9561 0
M  V30 19515 C 1870.45 -2.97513 -3.07685 0
M  V30 19516 C 1869.78 -2.92398 -4.47669 0
M  V30 19517 C 1871.08 -4.37968 -2.84573 0
M  V30 19518 H 1872.77 -2.65122 -1.39107 0
M  V30 19519 H 1870.32 -1.2758 -0.667776 0
M  V30 19520 H 1872.27 -1.96308 -3.72882 0
M  V30 19521 H 1871 -0.863562 -3.14976 0
M  V30 19522 H 1869.66 -2.83157 -2.32847 0
M  V30 19523 H 1869.3 -1.94297 -4.63959 0
M  V30 19524 H 1869 -3.69749 -4.56683 0
M  V30 19525 H 1870.53 -3.08464 -5.26956 0
M  V30 19526 H 1871.94 -4.52831 -3.51593 0
M  V30 19527 H 1870.34 -5.16796 -3.05028 0
M  V30 19528 H 1871.41 -4.50093 -1.80402 0
M  V30 19529 N 1872.75 0.720973 -1.40142 0
M  V30 19530 C 1873.72 1.81676 -1.39737 0
M  V30 19531 C 1874.72 1.58125 -0.292068 0
M  V30 19532 O 1875.91 1.65266 -0.550699 0
M  V30 19533 C 1873.04 3.19685 -1.18381 0
M  V30 19534 H 1874.23 1.83435 -2.37259 0
M  V30 19535 H 1871.78 0.926064 -1.25912 0
M  V30 19536 H 1872.52 3.2358 -0.21598 0
M  V30 19537 H 1872.3 3.38178 -1.98439 0
M  V30 19538 H 1873.79 3.99724 -1.20873 0
M  V30 19539 N 1874.23 1.25549 0.952634 0
M  V30 19540 C 1875.19 1.06186 2.03119 0
M  V30 19541 C 1876.19 0.0139966 1.60794 0
M  V30 19542 O 1877.38 0.256367 1.72303 0
M  V30 19543 C 1874.52 0.612674 3.35349 0
M  V30 19544 H 1875.71 2.01932 2.21729 0
M  V30 19545 H 1873.26 1.07984 1.13 0
M  V30 19546 H 1874 -0.347292 3.22435 0
M  V30 19547 H 1873.78 1.36917 3.67418 0
M  V30 19548 H 1875.27 0.498693 4.14612 0
M  V30 19549 N 1875.71 -1.15554 1.07168 0
M  V30 19550 C 1876.93 -1.90723 0.814832 0
M  V30 19551 C 1877.36 -1.7738 -0.62594 0
M  V30 19552 O 1876.72 -1.10521 -1.43718 0
M  V30 19553 C 1876.76 -3.39137 1.22551 0
M  V30 19554 O 1875.87 -4.1074 0.369677 0
M  V30 19555 H 1875.21 -0.593866 0.297017 0
M  V30 19556 H 1877.74 -1.46348 1.42981 0
M  V30 19557 H 1877.75 -3.89926 1.20089 0
M  V30 19558 H 1876.42 -3.48167 2.27492 0
M  V30 19559 H 1875 -3.70094 0.456626 0
M  V30 19560 N 1877.19 -0.855519 -1.32358 0
M  V30 19561 C 1878.44 -0.455543 -1.96488 0
M  V30 19562 C 1878.75 0.99419 -1.68449 0
M  V30 19563 O 1879.96 1.49964 -2.26325 0
M  V30 19564 C 1878.41 -0.763678 -3.51704 0
M  V30 19565 C 1878.02 -2.2292 -3.88601 0
M  V30 19566 C 1879.76 -0.431467 -4.22302 0
M  V30 19567 C 1877.67 -2.48051 -5.36866 0
M  V30 19568 H 1876.6 -0.166617 -0.73536 0
M  V30 19569 H 1879.25 -1.04642 -1.50739 0
M  V30 19570 H 1877.63 -0.102224 -3.95868 0
M  V30 19571 H 1878.81 -2.93251 -3.55444 0
M  V30 19572 H 1877.12 -2.52602 -3.31031 0
M  V30 19573 H 1879.72 -0.596641 -5.31361 0
M  V30 19574 H 1880.06 0.62698 -4.11552 0
M  V30 19575 H 1880.6 -1.04885 -3.83724 0
M  V30 19576 H 1877.33 -3.52523 -5.52637 0
M  V30 19577 H 1876.85 -1.82298 -5.71426 0
M  V30 19578 H 1878.53 -2.32044 -6.03957 0
M  V30 19579 N 1878.67 1.45167 -0.61354 0
M  V30 19580 C 1879.91 2.02195 -0.111063 0
M  V30 19581 C 1880.24 1.48117 1.26061 0
M  V30 19582 O 1879.5 0.648333 1.84649 0
M  V30 19583 C 1879.79 3.57389 -0.0281394 0
M  V30 19584 C 1879.46 4.30645 -1.33626 0
M  V30 19585 C 1878.12 4.50375 -1.69457 0
M  V30 19586 C 1880.47 4.72469 -2.20052 0
M  V30 19587 C 1877.8 5.09186 -2.91455 0
M  V30 19588 C 1880.15 5.3263 -3.41304 0
M  V30 19589 C 1878.82 5.50582 -3.7738 0
M  V30 19590 H 1878.09 0.739885 -0.0406408 0
M  V30 19591 H 1880.74 1.74157 -0.796346 0
M  V30 19592 H 1879.04 3.8474 0.740436 0
M  V30 19593 H 1880.74 3.99225 0.37689 0
M  V30 19594 H 1877.33 4.15605 -1.04738 0
M  V30 19595 H 1881.51 4.56954 -1.93668 0
M  V30 19596 H 1876.77 5.21274 -3.19505 0
M  V30 19597 H 1880.94 5.6399 -4.08519 0
M  V30 19598 H 1878.57 5.95921 -4.71998 0
M  V30 19599 N 1880.14 0.353044 1.53595 0
M  V30 19600 C 1881.39 -0.240548 2.01066 0
M  V30 19601 C 1881.72 -1.49793 1.24065 0
M  V30 19602 O 1880.97 -1.93083 0.318982 0
M  V30 19603 C 1881.27 -0.590811 3.52483 0
M  V30 19604 C 1880.94 0.570791 4.47273 0
M  V30 19605 C 1879.6 0.889548 4.72906 0
M  V30 19606 C 1881.95 1.34962 5.03423 0
M  V30 19607 C 1879.28 1.98933 5.51944 0
M  V30 19608 C 1881.63 2.43972 5.83661 0
M  V30 19609 C 1880.3 2.76397 6.07586 0
M  V30 19610 H 1879.57 -0.0880227 0.735753 0
M  V30 19611 H 1882.21 0.48292 1.85311 0
M  V30 19612 H 1880.52 -1.39512 3.6612 0
M  V30 19613 H 1882.22 -1.06213 3.86678 0
M  V30 19614 H 1878.81 0.3123 4.27461 0
M  V30 19615 H 1882.99 1.11661 4.83576 0
M  V30 19616 H 1878.25 2.24468 5.68704 0
M  V30 19617 H 1882.42 3.04746 6.26181 0
M  V30 19618 H 1880.05 3.61741 6.68616 0
M  V30 19619 N 1881.62 -1.57387 0.0818932 0
M  V30 19620 C 1882.58 -2.12162 -0.86718 0
M  V30 19621 C 1883.58 -1.04788 -1.21967 0
M  V30 19622 O 1884.77 -1.30733 -1.15128 0
M  V30 19623 C 1881.91 -2.63132 -2.16736 0
M  V30 19624 H 1883.1 -2.9733 -0.391788 0
M  V30 19625 H 1880.65 -1.55406 -0.166944 0
M  V30 19626 H 1881.39 -1.81446 -2.6879 0
M  V30 19627 H 1881.17 -3.41625 -1.92445 0
M  V30 19628 H 1882.66 -3.05549 -2.84657 0
M  V30 19629 N 1883.1 0.191729 -1.56429 0
M  V30 19630 C 1884.35 0.909797 -1.80016 0
M  V30 19631 C 1884.66 1.84283 -0.65569 0
M  V30 19632 O 1885.87 2.60176 -0.775941 0
M  V30 19633 C 1884.32 1.66819 -3.18904 0
M  V30 19634 C 1883.93 0.779817 -4.41161 0
M  V30 19635 C 1885.68 2.37569 -3.51797 0
M  V30 19636 C 1883.58 1.53727 -5.71071 0
M  V30 19637 H 1882.51 0.343463 -0.67123 0
M  V30 19638 H 1885.16 0.163022 -1.82774 0
M  V30 19639 H 1883.55 2.45897 -3.10404 0
M  V30 19640 H 1884.72 0.0274524 -4.60792 0
M  V30 19641 H 1883.03 0.18298 -4.15998 0
M  V30 19642 H 1885.63 2.94796 -4.46093 0
M  V30 19643 H 1885.97 3.11921 -2.75701 0
M  V30 19644 H 1886.51 1.65454 -3.61759 0
M  V30 19645 H 1883.25 0.836475 -6.50141 0
M  V30 19646 H 1882.77 2.26348 -5.55452 0
M  V30 19647 H 1884.45 2.09018 -6.12308 0
M  V30 19648 N 1884.58 1.50751 0.459565 0
M  V30 19649 C 1885.52 1.70454 1.55609 0
M  V30 19650 C 1886.49 0.545921 1.56872 0
M  V30 19651 O 1887.68 0.777824 1.74226 0
M  V30 19652 C 1884.82 1.81524 2.93501 0
M  V30 19653 C 1883.93 3.08962 3.01938 0
M  V30 19654 C 1883.07 3.10758 4.30816 0
M  V30 19655 C 1882.11 4.32602 4.33038 0
M  V30 19656 N 1881.24 4.32073 5.53405 0
M  V30 19657 H 1886.08 2.64062 1.38112 0
M  V30 19658 H 1883.62 1.30889 0.671307 0
M  V30 19659 H 1885.58 1.85923 3.73481 0
M  V30 19660 H 1884.21 0.913445 3.09606 0
M  V30 19661 H 1883.26 3.13979 2.14759 0
M  V30 19662 H 1884.57 3.9892 2.9944 0
M  V30 19663 H 1883.73 3.13951 5.19153 0
M  V30 19664 H 1882.47 2.1865 4.3594 0
M  V30 19665 H 1881.47 4.2961 3.43097 0
M  V30 19666 H 1882.7 5.2595 4.29596 0
M  V30 19667 H 1880.64 3.42824 5.59292 0
M  V30 19668 H 1880.56 5.15814 5.52695 0
M  V30 19669 H 1881.83 4.39428 6.43835 0
M  V30 19670 N 1886.06 -0.713531 1.40522 0
M  V30 19671 C 1887.33 -1.46672 1.29409 0
M  V30 19672 C 1887.71 -2.10922 -0.0866293 0
M  V30 19673 O 1887.06 -2.00303 -1.09959 0
M  V30 19674 C 1887.27 -2.50076 2.4344 0
M  V30 19675 C 1888.62 -3.15848 2.8377 0
M  V30 19676 O 1889.64 -2.60396 2.43048 0
M  V30 19677 O 1888.5 -4.16238 3.5413 0
M  V30 19678 H 1885.6 -0.652333 0.508322 0
M  V30 19679 H 1888.14 -0.745531 1.52446 0
M  V30 19680 H 1886.91 -2.01129 3.35653 0
M  V30 19681 H 1886.54 -3.29728 2.22183 0
M  V30 19682 N 1887.53 -1.26053 -0.945962 0
M  V30 19683 C 1888.5 -1.07262 -2.02553 0
M  V30 19684 C 1889.5 -0.0225237 -1.60784 0
M  V30 19685 O 1890.69 -0.265501 -1.72165 0
M  V30 19686 C 1887.82 -0.63045 -3.3502 0
M  V30 19687 H 1889.01 -2.03105 -2.20655 0
M  V30 19688 H 1886.56 -1.08582 -1.12426 0
M  V30 19689 H 1887.3 0.330188 -3.22615 0
M  V30 19690 H 1887.08 -1.38863 -3.66687 0
M  V30 19691 H 1888.57 -0.520674 -4.14341 0
M  V30 19692 N 1889.01 1.14984 -1.07779 0
M  V30 19693 C 1890.26 1.85219 -0.798561 0
M  V30 19694 C 1890.57 1.83476 0.677935 0
M  V30 19695 O 1891.78 2.49436 1.0721 0
M  V30 19696 C 1890.24 3.32454 -1.37849 0
M  V30 19697 C 1889.84 3.42631 -2.88631 0
M  V30 19698 C 1891.59 4.07843 -1.17747 0
M  V30 19699 C 1889.49 4.8404 -3.39794 0
M  V30 19700 H 1888.42 0.693872 -0.295054 0
M  V30 19701 H 1891.08 1.29668 -1.2984 0
M  V30 19702 H 1889.46 3.87703 -0.806374 0
M  V30 19703 H 1890.63 2.97466 -3.51925 0
M  V30 19704 H 1888.95 2.80691 -3.07573 0
M  V30 19705 H 1891.54 5.1221 -1.53444 0
M  V30 19706 H 1891.89 4.16136 -0.116815 0
M  V30 19707 H 1892.42 3.58876 -1.71618 0
M  V30 19708 H 1889.16 4.80932 -4.45404 0
M  V30 19709 H 1888.68 5.29769 -2.81256 0
M  V30 19710 H 1890.36 5.5291 -3.36005 0
M  V30 19711 N 1890.49 0.862526 1.31902 0
M  V30 19712 C 1891.91 0.553438 1.49697 0
M  V30 19713 C 1892.11 -0.914146 1.79571 0
M  V30 19714 O 1891.16 -1.69675 1.86994 0
M  V30 19715 C 1892.47 1.44722 2.63583 0
M  V30 19716 C 1894.02 1.44848 2.77467 0
M  V30 19717 C 1894.5 2.32766 3.94441 0
M  V30 19718 N 1895.99 2.30605 4.01716 0
M  V30 19719 C 1896.72 2.95356 4.9148 0
M  V30 19720 N 1896.22 3.6925 5.86197 0
M  V30 19721 N 1898.01 2.84703 4.84665 0
M  V30 19722 H 1890.16 1.81223 1.10779 0
M  V30 19723 H 1892.43 0.774478 0.546706 0
M  V30 19724 H 1892.13 2.49117 2.48261 0
M  V30 19725 H 1892.01 1.14033 3.5955 0
M  V30 19726 H 1894.39 0.412143 2.92208 0
M  V30 19727 H 1894.47 1.79557 1.8219 0
M  V30 19728 H 1894.12 3.36472 3.80459 0
M  V30 19729 H 1894.05 1.95386 4.89011 0
M  V30 19730 H 1896.54 1.76889 3.33944 0
M  V30 19731 H 1896.85 4.15804 6.51404 0
M  V30 19732 H 1895.2 3.73358 5.86199 0
M  V30 19733 H 1898.39 2.2652 4.09642 0
M  V30 19734 H 1898.56 3.35447 5.54418 0
M  V30 19735 N 1891.97 -1.4484 0.62123 0
M  V30 19736 C 1892.93 -2.29061 -0.0797989 0
M  V30 19737 C 1893.93 -1.40508 -0.781932 0
M  V30 19738 O 1895.12 -1.62485 -0.628023 0
M  V30 19739 C 1892.25 -3.21857 -1.12342 0
M  V30 19740 H 1893.45 -2.92528 0.66084 0
M  V30 19741 H 1891 -1.51588 0.3809 0
M  V30 19742 H 1891.73 -2.63218 -1.89437 0
M  V30 19743 H 1891.52 -3.87103 -0.624003 0
M  V30 19744 H 1893.01 -3.8515 -1.61398 0
M  V30 19745 N 1893.45 -0.361184 -1.53405 0
M  V30 19746 C 1894.41 0.475026 -2.24223 0
M  V30 19747 C 1895.41 1.01331 -1.24855 0
M  V30 19748 O 1896.6 0.899756 -1.49164 0
M  V30 19749 C 1893.73 1.6635 -2.97557 0
M  V30 19750 H 1894.92 -0.144595 -2.99551 0
M  V30 19751 H 1892.48 -0.112802 -1.55892 0
M  V30 19752 H 1893.21 2.32133 -2.26461 0
M  V30 19753 H 1893 1.28454 -3.70462 0
M  V30 19754 H 1894.49 2.2562 -3.51405 0
M  V30 19755 N 1894.92 1.57341 -0.0902386 0
M  V30 19756 C 1896.34 1.57361 0.266413 0
M  V30 19757 C 1896.54 1.10104 1.68758 0
M  V30 19758 O 1895.6 0.775287 2.40303 0
M  V30 19759 C 1896.91 3.00642 0.0592661 0
M  V30 19760 C 1898.46 3.12741 0.127389 0
M  V30 19761 C 1898.93 4.57971 -0.0517042 0
M  V30 19762 N 1900.42 4.632 0.0032917 0
M  V30 19763 C 1901.16 5.73293 -0.110598 0
M  V30 19764 N 1900.65 6.92238 -0.279049 0
M  V30 19765 N 1902.45 5.62076 -0.0522147 0
M  V30 19766 H 1894.6 1.86369 -1.01884 0
M  V30 19767 H 1896.86 0.859996 -0.398886 0
M  V30 19768 H 1896.57 3.39396 -0.922117 0
M  V30 19769 H 1896.44 3.68539 0.80368 0
M  V30 19770 H 1898.83 2.73861 1.09927 0
M  V30 19771 H 1898.91 2.47445 -0.648435 0
M  V30 19772 H 1898.55 4.97544 -1.02043 0
M  V30 19773 H 1898.48 5.21321 0.743753 0
M  V30 19774 H 1900.97 3.77672 0.131145 0
M  V30 19775 H 1901.29 7.71972 -0.357596 0
M  V30 19776 H 1899.63 6.94287 -0.314653 0
M  V30 19777 H 1902.82 4.68035 0.0782189 0
M  V30 19778 H 1903 6.47839 -0.144423 0
M  V30 19779 N 1896.4 -0.183431 1.56529 0
M  V30 19780 C 1897.37 -1.21097 1.94597 0
M  V30 19781 C 1898.37 -1.37825 0.828305 0
M  V30 19782 O 1899.56 -1.35438 1.09555 0
M  V30 19783 C 1896.69 -2.57826 2.23021 0
M  V30 19784 H 1897.88 -0.885275 2.86536 0
M  V30 19785 H 1895.43 -0.425412 1.50399 0
M  V30 19786 H 1896.17 -2.95431 1.33758 0
M  V30 19787 H 1895.95 -2.47054 3.04478 0
M  V30 19788 H 1897.44 -3.31902 2.53437 0
M  V30 19789 N 1897.88 -1.50992 -0.451564 0
M  V30 19790 C 1898.81 -1.67453 -1.56499 0
M  V30 19791 C 1899.83 -0.555481 -1.5303 0
M  V30 19792 O 1901.01 -0.829335 -1.58064 0
M  V30 19793 C 1898.11 -1.66093 -2.95409 0
M  V30 19794 C 1897.29 -2.94351 -3.23537 0
M  V30 19795 C 1896.35 -2.8537 -4.42098 0
M  V30 19796 O 1895.37 -3.59323 -4.41447 0
M  V30 19797 N 1896.57 -2.0025 -5.44867 0
M  V30 19798 H 1899.34 -2.63499 -1.42788 0
M  V30 19799 H 1896.9 -1.48701 -0.640293 0
M  V30 19800 H 1898.89 -1.57672 -3.72722 0
M  V30 19801 H 1897.46 -0.777014 -3.02789 0
M  V30 19802 H 1896.68 -3.16751 -2.34654 0
M  V30 19803 H 1897.97 -3.79281 -3.39151 0
M  V30 19804 H 1897.37 -1.39517 -5.48226 0
M  V30 19805 H 1895.93 -1.97719 -6.21088 0
M  V30 19806 N 1899.36 0.706069 -1.40899 0
M  V30 19807 C 1900.31 1.81196 -1.38391 0
M  V30 19808 C 1901.29 1.58787 -0.259924 0
M  V30 19809 O 1902.48 1.69798 -0.499779 0
M  V30 19810 C 1899.61 3.19411 -1.25823 0
M  V30 19811 C 1898.7 3.47551 -2.43042 0
M  V30 19812 N 1899.09 3.4645 -3.68519 0
M  V30 19813 C 1897.39 3.78052 -2.36627 0
M  V30 19814 C 1898.09 3.73201 -4.46202 0
M  V30 19815 N 1897.07 3.92424 -3.76171 0
M  V30 19816 H 1900.87 1.78692 -2.33338 0
M  V30 19817 H 1898.38 0.90561 -1.34805 0
M  V30 19818 H 1900.38 3.98617 -1.22108 0
M  V30 19819 H 1899.04 3.23134 -0.31852 0
M  V30 19820 H 1900.05 3.27076 -4.01549 0
M  V30 19821 H 1896.73 3.89208 -1.51074 0
M  V30 19822 H 1898.12 3.78574 -5.55096 0
M  V30 19823 N 1900.84 1.26553 0.939264 0
M  V30 19824 C 1902.06 1.14993 1.72001 0
M  V30 19825 C 1902.48 -0.29462 1.86487 0
M  V30 19826 O 1901.84 -1.20158 1.37362 0
M  V30 19827 C 1901.89 1.81598 3.12577 0
M  V30 19828 O 1901.61 3.20408 2.98781 0
M  V30 19829 C 1903.11 1.76017 4.06858 0
M  V30 19830 H 1900.33 0.400347 0.538482 0
M  V30 19831 H 1902.87 1.67209 1.17735 0
M  V30 19832 H 1901.03 1.33316 3.63739 0
M  V30 19833 H 1901.44 3.53397 3.8757 0
M  V30 19834 H 1902.92 2.27255 5.0305 0
M  V30 19835 H 1903.39 0.727075 4.3314 0
M  V30 19836 H 1904 2.2386 3.61617 0
M  V30 19837 N 1902.31 -1.14411 1.08387 0
M  V30 19838 C 1903.56 -1.85078 0.811826 0
M  V30 19839 C 1903.88 -1.83335 -0.664312 0
M  V30 19840 O 1903.15 -1.28164 -1.48158 0
M  V30 19841 H 1901.73 -0.685278 0.297328 0
M  V30 19842 H 1904.4 -1.38644 1.36981 0
M  V30 19843 H 1903.49 -2.89909 1.15581 0
M  V30 19844 N 1903.79 -0.869509 -1.31443 0
M  V30 19845 C 1904.74 -0.314033 -2.3047 0
M  V30 19846 C 1905.73 0.570635 -1.595 0
M  V30 19847 O 1906.94 0.456787 -1.74108 0
M  V30 19848 H 1903.32 -0.0828699 -0.74742 0
M  V30 19849 H 1905.29 -1.16319 -2.74795 0
M  V30 19850 C 1904.04 0.469956 -3.44509 0
M  V30 19851 H 1903.36 -0.201508 -3.99292 0
M  V30 19852 H 1904.8 0.823967 -4.15917 0
M  V30 19853 C 1903.26 1.66104 -2.93106 0
M  V30 19854 O 1903.79 2.76033 -2.91836 0
M  V30 19855 N 1901.99 1.49302 -2.49313 0
M  V30 19856 H 1901.54 0.598742 -2.50545 0
M  V30 19857 H 1901.5 2.29137 -2.15276 0
M  V30 19858 N 1905.27 1.44508 -0.628902 0
M  V30 19859 C 1906.22 2.32427 0.0895754 0
M  V30 19860 C 1907.21 1.47217 0.838067 0
M  V30 19861 O 1908.42 1.63575 0.751218 0
M  V30 19862 H 1904.79 0.750483 0.0477349 0
M  V30 19863 H 1906.76 2.9078 -0.670054 0
M  V30 19864 C 1905.51 3.31177 1.0591 0
M  V30 19865 H 1904.84 3.96754 0.492578 0
M  V30 19866 H 1906.28 3.9538 1.53135 0
M  V30 19867 C 1904.74 2.59936 2.14325 0
M  V30 19868 O 1905.27 2.3966 3.22375 0
M  V30 19869 N 1903.47 2.19712 1.90197 0
M  V30 19870 H 1903.02 2.36402 1.02332 0
M  V30 19871 H 1902.98 1.72371 2.62936 0
M  V30 19872 N 1906.75 0.369315 1.53212 0
M  V30 19873 C 1908 -0.219533 2.01608 0
M  V30 19874 C 1908.33 -1.48115 1.25601 0
M  V30 19875 O 1907.6 -1.91311 0.350762 0
M  V30 19876 C 1907.89 -0.507713 3.56503 0
M  V30 19877 C 1907.74 0.767792 4.43199 0
M  V30 19878 C 1909.06 -1.30674 4.20253 0
M  V30 19879 H 1906.18 -0.0783156 0.732827 0
M  V30 19880 H 1908.82 0.494943 1.8344 0
M  V30 19881 H 1906.97 -1.11637 3.72115 0
M  V30 19882 H 1908.64 1.4052 4.39377 0
M  V30 19883 H 1906.88 1.38737 4.11017 0
M  V30 19884 H 1907.56 0.521063 5.49535 0
M  V30 19885 H 1910.03 -0.791822 4.08497 0
M  V30 19886 H 1908.91 -1.47712 5.28652 0
M  V30 19887 H 1909.17 -2.31631 3.76562 0
M  V30 19888 N 1908.23 -1.57291 0.0985816 0
M  V30 19889 C 1909.17 -2.14215 -0.8591 0
M  V30 19890 C 1910.14 -1.06162 -1.27745 0
M  V30 19891 O 1911.33 -1.33967 -1.35858 0
M  V30 19892 C 1908.47 -2.72963 -2.11152 0
M  V30 19893 C 1907.58 -3.95259 -1.74339 0
M  V30 19894 C 1906.72 -4.4216 -2.94394 0
M  V30 19895 C 1905.76 -5.57038 -2.53723 0
M  V30 19896 N 1904.89 -5.98775 -3.66624 0
M  V30 19897 H 1909.73 -2.95734 -0.366821 0
M  V30 19898 H 1907.27 -1.46121 -0.169388 0
M  V30 19899 H 1909.23 -3.05145 -2.84504 0
M  V30 19900 H 1907.86 -1.94167 -2.57874 0
M  V30 19901 H 1906.91 -3.69369 -0.90942 0
M  V30 19902 H 1908.22 -4.78622 -1.40436 0
M  V30 19903 H 1907.38 -4.76144 -3.75994 0
M  V30 19904 H 1906.12 -3.57705 -3.31509 0
M  V30 19905 H 1905.12 -5.22678 -1.7055 0
M  V30 19906 H 1906.35 -6.43244 -2.17748 0
M  V30 19907 H 1904.29 -5.17265 -4.03451 0
M  V30 19908 H 1904.21 -6.76943 -3.36578 0
M  V30 19909 H 1905.48 -6.3739 -4.48725 0
M  V30 19910 N 1909.71 0.175127 -1.56624 0
M  V30 19911 C 1910.62 1.23691 -1.99343 0
M  V30 19912 C 1911.63 1.48662 -0.904197 0
M  V30 19913 O 1912.81 1.60885 -1.21153 0
M  V30 19914 C 1909.87 2.55689 -2.34145 0
M  V30 19915 C 1908.93 2.38614 -3.56878 0
M  V30 19916 C 1908.17 3.64318 -3.9001 0
M  V30 19917 O 1908.39 4.69335 -3.24162 0
M  V30 19918 O 1907.32 3.58655 -4.83373 0
M  V30 19919 H 1911.15 0.904314 -2.89924 0
M  V30 19920 H 1908.73 0.381697 -1.44442 0
M  V30 19921 H 1910.62 3.33562 -2.57516 0
M  V30 19922 H 1909.29 2.88535 -1.46728 0
M  V30 19923 H 1908.2 1.58786 -3.3873 0
M  V30 19924 H 1909.53 2.10694 -4.44825 0
M  V30 19925 N 1911.18 1.5123 0.44355 0
M  V30 19926 C 1912.11 1.75038 1.54544 0
M  V30 19927 C 1913.09 0.600017 1.59166 0
M  V30 19928 O 1914.28 0.842082 1.74993 0
M  V30 19929 C 1911.41 1.86976 2.92673 0
M  V30 19930 C 1910.36 3.0237 3.02913 0
M  V30 19931 C 1909.69 2.99483 4.4296 0
M  V30 19932 C 1910.99 4.4244 2.77569 0
M  V30 19933 H 1912.68 2.67301 1.34872 0
M  V30 19934 H 1910.23 1.28627 0.647395 0
M  V30 19935 H 1912.18 2.02215 3.69712 0
M  V30 19936 H 1910.91 0.913563 3.13563 0
M  V30 19937 H 1909.57 2.86826 2.28312 0
M  V30 19938 H 1909.21 2.01654 4.60809 0
M  V30 19939 H 1908.91 3.76968 4.50743 0
M  V30 19940 H 1910.44 3.16808 5.21982 0
M  V30 19941 H 1911.85 4.58367 3.44344 0
M  V30 19942 H 1910.25 5.21583 2.96768 0
M  V30 19943 H 1911.32 4.52906 1.73218 0
M  V30 19944 N 1912.66 -0.698586 1.41271 0
M  V30 19945 C 1913.91 -1.45861 1.40466 0
M  V30 19946 C 1914.24 -1.94496 0.0127551 0
M  V30 19947 O 1913.49 -1.69692 -0.974843 0
M  V30 19948 C 1913.79 -2.688 2.35545 0
M  V30 19949 C 1913.46 -2.38839 3.82449 0
M  V30 19950 C 1912.12 -2.30378 4.22468 0
M  V30 19951 C 1914.47 -2.14065 4.75211 0
M  V30 19952 C 1911.8 -1.95236 5.53263 0
M  V30 19953 C 1914.15 -1.80432 6.06323 0
M  V30 19954 C 1912.81 -1.70465 6.45367 0
M  V30 19955 H 1912.08 -0.533744 0.514002 0
M  V30 19956 H 1914.73 -0.798723 1.74048 0
M  V30 19957 H 1913.04 -3.39708 1.95207 0
M  V30 19958 H 1914.73 -3.26933 2.32197 0
M  V30 19959 H 1911.32 -2.46317 3.50751 0
M  V30 19960 H 1915.51 -2.19548 4.45098 0
M  V30 19961 H 1910.76 -1.86069 5.82399 0
M  V30 19962 H 1914.94 -1.60281 6.77704 0
M  V30 19963 H 1912.56 -1.43002 7.46629 0
M  V30 19964 N 1914.14 -1.27049 -0.93254 0
M  V30 19965 C 1915.56 -1.04349 -1.20762 0
M  V30 19966 C 1915.76 0.225981 -2.00229 0
M  V30 19967 O 1914.81 0.932788 -2.34639 0
M  V30 19968 C 1916.12 -2.28004 -1.96048 0
M  V30 19969 C 1917.67 -2.32993 -2.09006 0
M  V30 19970 C 1918.15 -3.56364 -2.87696 0
M  V30 19971 N 1919.64 -3.56892 -2.95266 0
M  V30 19972 C 1920.37 -4.49022 -3.56604 0
M  V30 19973 N 1919.87 -5.51451 -4.19374 0
M  V30 19974 N 1921.66 -4.36656 -3.53961 0
M  V30 19975 H 1913.81 -2.0857 -0.401516 0
M  V30 19976 H 1916.08 -0.917061 -0.240213 0
M  V30 19977 H 1915.78 -3.20386 -1.45072 0
M  V30 19978 H 1915.66 -2.32937 -2.96682 0
M  V30 19979 H 1918.04 -1.41119 -2.5917 0
M  V30 19980 H 1918.12 -2.32065 -1.07607 0
M  V30 19981 H 1917.77 -4.48571 -2.38216 0
M  V30 19982 H 1917.7 -3.54541 -3.89369 0
M  V30 19983 H 1920.19 -2.82812 -2.5065 0
M  V30 19984 H 1920.5 -6.17924 -4.64101 0
M  V30 19985 H 1918.85 -5.55298 -4.17934 0
M  V30 19986 H 1922.04 -3.55848 -3.04122 0
M  V30 19987 H 1922.21 -5.08647 -4.01475 0
M  V30 19988 N 1915.62 1.13835 -1.08993 0
M  V30 19989 C 1916.55 2.21226 -0.74707 0
M  V30 19990 C 1917.53 1.67891 0.273232 0
M  V30 19991 O 1918.71 1.93678 0.142278 0
M  V30 19992 C 1915.84 3.46922 -0.162028 0
M  V30 19993 C 1914.8 4.1332 -1.11135 0
M  V30 19994 C 1914.12 5.33289 -0.388228 0
M  V30 19995 C 1915.42 4.61169 -2.45195 0
M  V30 19996 H 1917.12 2.50162 -1.64497 0
M  V30 19997 H 1914.66 1.20239 -0.792368 0
M  V30 19998 H 1916.62 4.21304 0.0898753 0
M  V30 19999 H 1915.34 3.17368 0.771036 0
M  V30 20000 H 1914 3.40899 -1.34845 0
M  V30 20001 H 1913.65 4.99997 0.548832 0
M  V30 20002 H 1913.35 5.78659 -1.02115 0
M  V30 20003 H 1914.87 6.10429 -0.144519 0
M  V30 20004 H 1916.29 5.26996 -2.25717 0
M  V30 20005 H 1914.68 5.17263 -3.04235 0
M  V30 20006 H 1915.75 3.75923 -3.06284 0
M  V30 20007 N 1917.1 0.876467 1.3098 0
M  V30 20008 C 1918.37 0.411051 1.91232 0
M  V30 20009 C 1918.75 -1.10748 1.79717 0
M  V30 20010 O 1918.1 -1.93898 1.20896 0
M  V30 20011 C 1918.31 0.899663 3.37205 0
M  V30 20012 C 1919.66 0.929615 4.14299 0
M  V30 20013 O 1920.68 0.845752 3.46014 0
M  V30 20014 O 1919.54 1.05211 5.36277 0
M  V30 20015 H 1916.64 0.12418 0.817624 0
M  V30 20016 H 1919.18 0.964808 1.39605 0
M  V30 20017 H 1917.95 1.94336 3.39631 0
M  V30 20018 H 1917.58 0.324585 3.96273 0
M  V30 20019 N 1918.57 -1.44173 0.636557 0
M  V30 20020 C 1919.8 -2.06866 0.148751 0
M  V30 20021 C 1920.22 -1.47295 -1.16987 0
M  V30 20022 O 1919.58 -0.576466 -1.71891 0
M  V30 20023 C 1919.63 -3.60561 0.0533064 0
M  V30 20024 O 1918.73 -4.00361 -0.989163 0
M  V30 20025 H 1918.07 -0.658243 0.087251 0
M  V30 20026 H 1920.6 -1.84956 0.874772 0
M  V30 20027 H 1920.61 -4.07775 -0.135499 0
M  V30 20028 H 1919.29 -4.033 1.01599 0
M  V30 20029 H 1917.87 -3.64769 -0.77449 0
M  V30 20030 N 1920.05 -0.377435 -1.53014 0
M  V30 20031 C 1921.46 0.0992038 -1.86436 0
M  V30 20032 C 1921.81 1.47163 -1.2976 0
M  V30 20033 O 1920.94 2.072 -0.624264 0
M  V30 20034 C 1921.53 0.186789 -3.38285 0
M  V30 20035 C 1920.09 0.6077 -3.71462 0
M  V30 20036 C 1919.24 -0.237741 -2.76279 0
M  V30 20037 H 1922.19 -0.595776 -1.47092 0
M  V30 20038 H 1922.21 1.00817 -3.66901 0
M  V30 20039 H 1921.72 -0.812219 -3.79506 0
M  V30 20040 H 1919.82 1.61451 -3.35804 0
M  V30 20041 H 1919.94 0.374085 -4.77637 0
M  V30 20042 H 1918.3 0.295196 -2.52984 0
M  V30 20043 H 1919.08 -1.23451 -3.20335 0
M  V30 20044 N 1921.53 1.57237 -0.106922 0
M  V30 20045 C 1922.49 2.13515 0.833317 0
M  V30 20046 C 1923.49 1.06715 1.20285 0
M  V30 20047 O 1924.68 1.32548 1.13034 0
M  V30 20048 C 1921.82 2.66546 2.12523 0
M  V30 20049 H 1923.01 2.97916 0.344435 0
M  V30 20050 H 1920.56 1.55652 0.142199 0
M  V30 20051 H 1921.3 1.85699 2.65869 0
M  V30 20052 H 1921.08 3.44643 1.86985 0
M  V30 20053 H 1922.57 3.10039 2.7976 0
M  V30 20054 N 1923.01 -0.166818 1.56715 0
M  V30 20055 C 1924.24 -0.898169 1.86388 0
M  V30 20056 C 1924.65 -1.75628 0.692837 0
M  V30 20057 O 1924.01 -1.79344 -0.337947 0
M  V30 20058 C 1924.06 -1.77122 3.15135 0
M  V30 20059 O 1923.78 -0.947716 4.27727 0
M  V30 20060 C 1925.28 -2.61185 3.58186 0
M  V30 20061 H 1922.5 -0.260711 0.61828 0
M  V30 20062 H 1925.05 -0.165561 2.03829 0
M  V30 20063 H 1923.2 -2.45711 2.99507 0
M  V30 20064 H 1923.61 -1.54523 5.01221 0
M  V30 20065 H 1925.09 -3.18052 4.51162 0
M  V30 20066 H 1925.57 -3.36273 2.8252 0
M  V30 20067 H 1926.17 -1.9792 3.76441 0
M  V30 20068 N 1924.49 -1.51463 -0.435524 0
M  V30 20069 C 1925.9 -1.56678 -1.01533 0
M  V30 20070 C 1926.25 -0.391337 -1.92258 0
M  V30 20071 O 1925.37 0.491647 -2.10741 0
M  V30 20072 C 1925.97 -2.83951 -1.84817 0
M  V30 20073 C 1924.53 -2.91731 -2.37844 0
M  V30 20074 C 1923.67 -2.51359 -1.17106 0
M  V30 20075 H 1926.63 -1.57213 -0.216726 0
M  V30 20076 H 1926.65 -2.67815 -2.70287 0
M  V30 20077 H 1926.16 -3.69483 -1.1876 0
M  V30 20078 H 1924.26 -2.10633 -3.07351 0
M  V30 20079 H 1924.37 -3.95421 -2.70517 0
M  V30 20080 H 1922.74 -2.04599 -1.51695 0
M  V30 20081 H 1923.52 -3.39238 -0.526566 0
M  V30 20082 N 1925.96 0.691085 -1.4164 0
M  V30 20083 C 1926.87 1.83467 -1.46209 0
M  V30 20084 C 1927.89 1.70397 -0.352267 0
M  V30 20085 O 1929.07 1.92234 -0.60068 0
M  V30 20086 C 1926.13 3.19485 -1.34648 0
M  V30 20087 C 1925.19 3.44631 -2.55984 0
M  V30 20088 C 1924.43 4.7416 -2.44964 0
M  V30 20089 O 1924.65 5.50955 -1.47664 0
M  V30 20090 O 1923.58 5.0019 -3.34804 0
M  V30 20091 H 1927.41 1.82568 -2.42698 0
M  V30 20092 H 1924.99 0.844729 -1.23226 0
M  V30 20093 H 1926.88 4.00684 -1.30501 0
M  V30 20094 H 1925.55 3.21058 -0.41276 0
M  V30 20095 H 1924.46 2.63345 -2.65707 0
M  V30 20096 H 1925.79 3.47877 -3.48199 0
M  V30 20097 N 1927.44 1.27542 0.925789 0
M  V30 20098 C 1928.39 1.10432 2.02666 0
M  V30 20099 C 1929.36 0.004846 1.66099 0
M  V30 20100 O 1930.54 0.167531 1.90063 0
M  V30 20101 C 1927.68 0.759567 3.36637 0
M  V30 20102 C 1926.8 1.93687 3.86147 0
M  V30 20103 C 1925.93 1.53382 5.08574 0
M  V30 20104 C 1924.97 2.67849 5.50385 0
M  V30 20105 N 1924.11 2.2812 6.64007 0
M  V30 20106 H 1928.95 2.04632 2.16633 0
M  V30 20107 H 1926.49 1.01863 1.06124 0
M  V30 20108 H 1928.44 0.540492 4.13684 0
M  V30 20109 H 1927.07 -0.145477 3.22472 0
M  V30 20110 H 1926.13 2.26843 3.05363 0
M  V30 20111 H 1927.44 2.79548 4.13104 0
M  V30 20112 H 1926.59 1.2761 5.93128 0
M  V30 20113 H 1925.33 0.646332 4.83398 0
M  V30 20114 H 1924.34 2.94333 4.64379 0
M  V30 20115 H 1925.56 3.57222 5.77554 0
M  V30 20116 H 1923.51 1.41825 6.40485 0
M  V30 20117 H 1923.42 3.07519 6.90629 0
M  V30 20118 H 1924.69 2.056 7.51897 0
M  V30 20119 N 1928.92 -1.13255 1.09595 0
M  V30 20120 C 1930.17 -1.83925 0.827926 0
M  V30 20121 C 1930.48 -1.84531 -0.64866 0
M  V30 20122 O 1931.69 -2.5111 -1.03228 0
M  V30 20123 C 1930.14 -3.30219 1.43121 0
M  V30 20124 C 1929.75 -3.37996 2.94046 0
M  V30 20125 C 1931.5 -4.05918 1.24221 0
M  V30 20126 C 1929.4 -4.78572 3.47451 0
M  V30 20127 H 1928.33 -0.689091 0.306056 0
M  V30 20128 H 1930.98 -1.27586 1.31887 0
M  V30 20129 H 1929.37 -3.86371 0.867952 0
M  V30 20130 H 1930.54 -2.91829 3.56612 0
M  V30 20131 H 1928.86 -2.75762 3.12 0
M  V30 20132 H 1931.45 -5.09704 1.61573 0
M  V30 20133 H 1931.8 -4.15898 0.183004 0
M  V30 20134 H 1932.33 -3.561 1.77306 0
M  V30 20135 H 1929.07 -4.73785 4.52999 0
M  V30 20136 H 1928.59 -5.25227 2.89649 0
M  V30 20137 H 1930.27 -5.47495 3.44759 0
M  V30 20138 N 1930.4 -0.883401 -1.30514 0
M  V30 20139 C 1931.81 -0.577183 -1.48798 0
M  V30 20140 C 1932.01 0.885462 -1.81002 0
M  V30 20141 O 1931.07 1.66679 -1.89669 0
M  V30 20142 C 1932.38 -1.48898 -2.61247 0
M  V30 20143 C 1933.93 -1.49244 -2.75128 0
M  V30 20144 C 1934.41 -2.39012 -3.90688 0
M  V30 20145 N 1935.9 -2.36967 -3.97996 0
M  V30 20146 C 1936.63 -3.03138 -4.86718 0
M  V30 20147 N 1936.13 -3.78529 -5.80248 0
M  V30 20148 N 1937.92 -2.92378 -4.80074 0
M  V30 20149 H 1930.07 -1.82963 -1.07882 0
M  V30 20150 H 1932.34 -0.783078 -0.534315 0
M  V30 20151 H 1932.04 -2.53035 -2.44266 0
M  V30 20152 H 1931.92 -1.19739 -3.5769 0
M  V30 20153 H 1934.3 -0.458579 -2.91515 0
M  V30 20154 H 1934.38 -1.82432 -1.7931 0
M  V30 20155 H 1934.03 -3.42482 -3.75058 0
M  V30 20156 H 1933.96 -2.03141 -4.85841 0
M  V30 20157 H 1936.45 -1.82179 -3.31088 0
M  V30 20158 H 1936.76 -4.26115 -6.44706 0
M  V30 20159 H 1935.11 -3.82636 -5.80185 0
M  V30 20160 H 1938.3 -2.33008 -4.05986 0
M  V30 20161 H 1938.47 -3.44225 -5.49011 0
M  V30 20162 N 1931.88 1.43833 -0.644194 0
M  V30 20163 C 1932.82 2.32509 0.0649184 0
M  V30 20164 C 1933.82 1.48097 0.822405 0
M  V30 20165 O 1935.02 1.64362 0.733827 0
M  V30 20166 H 1931.4 0.750948 0.0397724 0
M  V30 20167 H 1933.37 2.90053 -0.700857 0
M  V30 20168 C 1932.12 3.32282 1.02391 0
M  V30 20169 H 1931.44 3.97254 0.45047 0
M  V30 20170 H 1932.88 3.96982 1.48933 0
M  V30 20171 C 1931.34 2.62194 2.11556 0
M  V30 20172 O 1931.87 2.43066 3.19815 0
M  V30 20173 N 1930.08 2.21717 1.87856 0
M  V30 20174 H 1929.62 2.37474 0.998189 0
M  V30 20175 H 1929.58 1.7515 2.61093 0
M  V30 20176 N 1933.35 0.385544 1.52811 0
M  V30 20177 C 1934.32 -0.439294 2.24951 0
M  V30 20178 C 1935.32 -0.993315 1.26451 0
M  V30 20179 O 1936.51 -0.875911 1.50577 0
M  V30 20180 C 1933.64 -1.61595 3.00166 0
M  V30 20181 H 1934.83 0.192232 2.99283 0
M  V30 20182 H 1932.39 0.137589 1.55693 0
M  V30 20183 H 1933.12 -2.28501 2.30125 0
M  V30 20184 H 1932.91 -1.22544 3.72459 0
M  V30 20185 H 1934.4 -2.20001 3.5495 0
M  V30 20186 N 1934.83 -1.57178 0.115259 0
M  V30 20187 C 1936.07 -1.96951 -0.546776 0
M  V30 20188 C 1936.44 -0.996997 -1.64085 0
M  V30 20189 O 1937.64 -1.28396 -2.36152 0
M  V30 20190 C 1935.91 -3.41033 -1.06916 0
M  V30 20191 S 1937.47 -4.02816 -1.74024 0
M  V30 20192 H 1934.29 -0.688401 -0.177833 0
M  V30 20193 H 1936.89 -1.9448 0.199452 0
M  V30 20194 H 1935.59 -4.09565 -0.261661 0
M  V30 20195 H 1935.12 -3.47147 -1.85075 0
M  V30 20196 H 1937.14 -3.93268 -3.0258 0
M  V30 20197 N 1936.31 0.158505 -1.56801 0
M  V30 20198 C 1937.56 0.874331 -1.82984 0
M  V30 20199 C 1937.89 1.81334 -0.695103 0
M  V30 20200 O 1937.17 1.9214 0.302091 0
M  V30 20201 C 1937.45 1.65886 -3.19615 0
M  V30 20202 C 1937.3 0.74211 -4.43636 0
M  V30 20203 C 1938.62 2.62382 -3.53332 0
M  V30 20204 H 1935.74 0.316412 -0.665622 0
M  V30 20205 H 1938.38 0.139988 -1.89484 0
M  V30 20206 H 1936.53 2.28488 -3.14206 0
M  V30 20207 H 1938.2 0.127969 -4.61122 0
M  V30 20208 H 1936.45 0.0509465 -4.3377 0
M  V30 20209 H 1937.12 1.32683 -5.35816 0
M  V30 20210 H 1939.59 2.09902 -3.59278 0
M  V30 20211 H 1938.47 3.14332 -4.49985 0
M  V30 20212 H 1938.73 3.43194 -2.78694 0
M  V30 20213 N 1937.79 1.51692 0.427485 0
M  V30 20214 C 1939.07 1.55395 1.18793 0
M  V30 20215 C 1939.45 0.324036 2.08598 0
M  V30 20216 O 1938.79 -0.690292 2.17824 0
M  V30 20217 C 1939 2.87313 1.98121 0
M  V30 20218 C 1940.35 3.39632 2.54824 0
M  V30 20219 O 1941.38 2.8893 2.08322 0
M  V30 20220 O 1940.24 4.28125 3.39664 0
M  V30 20221 H 1937.33 0.625173 0.541376 0
M  V30 20222 H 1939.88 1.6401 0.435754 0
M  V30 20223 H 1938.65 3.68284 1.32222 0
M  V30 20224 H 1938.27 2.81907 2.80383 0
M  V30 20225 N 1939.27 -0.683564 1.42004 0
M  V30 20226 C 1940.21 -1.7973 1.44796 0
M  V30 20227 C 1941.18 -1.63352 0.300905 0
M  V30 20228 O 1942.37 -1.84031 0.503707 0
M  V30 20229 C 1939.51 -3.17701 1.34758 0
M  V30 20230 C 1938.62 -3.45428 2.59429 0
M  V30 20231 C 1937.76 -4.73079 2.41598 0
M  V30 20232 C 1936.8 -4.93812 3.61685 0
M  V30 20233 N 1935.93 -6.12698 3.4285 0
M  V30 20234 H 1940.77 -1.76679 2.39976 0
M  V30 20235 H 1938.31 -0.862624 1.19152 0
M  V30 20236 H 1940.27 -3.9742 1.26938 0
M  V30 20237 H 1938.9 -3.19899 0.431785 0
M  V30 20238 H 1937.95 -2.60027 2.77651 0
M  V30 20239 H 1939.26 -3.56645 3.48721 0
M  V30 20240 H 1938.42 -5.60873 2.31314 0
M  V30 20241 H 1937.16 -4.6413 1.49782 0
M  V30 20242 H 1936.16 -4.04463 3.72411 0
M  V30 20243 H 1937.39 -5.04612 4.5447 0
M  V30 20244 H 1935.33 -6.04938 2.53744 0
M  V30 20245 H 1935.25 -6.24736 4.25724 0
M  V30 20246 H 1936.52 -7.03194 3.36361 0
M  V30 20247 N 1940.75 -1.28031 -0.919012 0
M  V30 20248 C 1941.99 -1.14878 -1.66761 0
M  V30 20249 C 1942.32 0.303688 -1.92115 0
M  V30 20250 O 1941.58 1.23781 -1.51581 0
M  V30 20251 C 1941.87 -1.887 -3.03524 0
M  V30 20252 C 1941.54 -3.3852 -2.9785 0
M  V30 20253 C 1940.2 -3.79383 -2.9601 0
M  V30 20254 C 1942.55 -4.34077 -2.88491 0
M  V30 20255 C 1939.88 -5.14152 -2.82604 0
M  V30 20256 C 1942.23 -5.68912 -2.76625 0
M  V30 20257 C 1940.9 -6.09057 -2.7314 0
M  V30 20258 H 1940.17 -0.420368 -0.610223 0
M  V30 20259 H 1942.82 -1.58743 -1.07111 0
M  V30 20260 H 1941.12 -1.37368 -3.66929 0
M  V30 20261 H 1942.82 -1.75944 -3.6034 0
M  V30 20262 H 1939.41 -3.06028 -3.00074 0
M  V30 20263 H 1943.59 -4.03473 -2.89004 0
M  V30 20264 H 1938.85 -5.4439 -2.78298 0
M  V30 20265 H 1943.02 -6.4262 -2.6835 0
M  V30 20266 H 1940.65 -7.13437 -2.62509 0
M  V30 20267 N 1942.22 1.12672 -1.10194 0
M  V30 20268 C 1943.45 1.87955 -0.864907 0
M  V30 20269 C 1943.87 1.79527 0.584436 0
M  V30 20270 O 1943.22 1.1674 1.40278 0
M  V30 20271 C 1943.27 3.37261 -1.30143 0
M  V30 20272 O 1943 3.45483 -2.69394 0
M  V30 20273 C 1944.5 4.29488 -1.09793 0
M  V30 20274 H 1941.72 0.594777 -0.310614 0
M  V30 20275 H 1944.26 1.42583 -1.46596 0
M  V30 20276 H 1942.42 3.80187 -0.744103 0
M  V30 20277 H 1942.83 4.38357 -2.87999 0
M  V30 20278 H 1944.3 5.32546 -1.45254 0
M  V30 20279 H 1944.78 4.39185 -0.0363527 0
M  V30 20280 H 1945.39 3.92341 -1.6416 0
M  V30 20281 N 1943.7 0.89031 1.30043 0
M  V30 20282 C 1944.93 0.526566 2.00087 0
M  V30 20283 C 1945.34 -0.88632 1.66703 0
M  V30 20284 O 1944.7 -1.58365 0.907012 0
M  V30 20285 C 1944.75 0.698102 3.54695 0
M  V30 20286 O 1944.47 2.05537 3.86893 0
M  V30 20287 C 1945.97 0.338058 4.42009 0
M  V30 20288 H 1943.19 0.20299 0.639559 0
M  V30 20289 H 1945.74 1.19708 1.65802 0
M  V30 20290 H 1943.89 0.0748931 3.87328 0
M  V30 20291 H 1944.31 2.07787 4.81586 0
M  V30 20292 H 1945.78 0.508957 5.49649 0
M  V30 20293 H 1946.26 -0.724284 4.33187 0
M  V30 20294 H 1946.86 0.937813 4.14831 0
M  V30 20295 N 1945.18 -1.43489 0.651812 0
M  V30 20296 C 1946.11 -2.33484 -0.0271093 0
M  V30 20297 C 1947.09 -1.4939 -0.813427 0
M  V30 20298 O 1948.28 -1.78058 -0.775186 0
M  V30 20299 C 1945.41 -3.32737 -0.995143 0
M  V30 20300 C 1944.36 -4.26809 -0.319036 0
M  V30 20301 C 1943.69 -5.1609 -1.39842 0
M  V30 20302 C 1944.99 -5.16326 0.787692 0
M  V30 20303 H 1946.68 -2.90503 0.724441 0
M  V30 20304 H 1944.23 -1.39686 0.349826 0
M  V30 20305 H 1946.18 -3.94593 -1.479 0
M  V30 20306 H 1944.9 -2.73972 -1.77784 0
M  V30 20307 H 1943.56 -3.66316 0.144366 0
M  V30 20308 H 1943.21 -4.53664 -2.17251 0
M  V30 20309 H 1942.91 -5.79848 -0.951292 0
M  V30 20310 H 1944.43 -5.80819 -1.88367 0
M  V30 20311 H 1945.85 -5.71999 0.386053 0
M  V30 20312 H 1944.24 -5.88798 1.1592 0
M  V30 20313 H 1945.31 -4.56099 1.64626 0
M  V30 20314 N 1946.66 -0.393643 -1.52605 0
M  V30 20315 C 1947.9 0.186875 -2.03544 0
M  V30 20316 C 1948.26 1.43681 -1.27357 0
M  V30 20317 O 1949.46 2.09477 -1.68443 0
M  V30 20318 C 1947.73 0.444006 -3.54631 0
M  V30 20319 S 1949.29 0.994186 -4.27389 0
M  V30 20320 H 1946.11 0.0522497 -0.709078 0
M  V30 20321 H 1948.71 -0.542992 -1.87808 0
M  V30 20322 H 1947.42 -0.472739 -4.07668 0
M  V30 20323 H 1946.95 1.20218 -3.74581 0
M  V30 20324 H 1948.96 2.27617 -4.40914 0
M  V30 20325 N 1948.14 1.57115 -0.123593 0
M  V30 20326 C 1949.38 1.95641 0.534082 0
M  V30 20327 C 1949.71 1.00726 1.66036 0
M  V30 20328 O 1948.99 0.045312 1.94447 0
M  V30 20329 C 1949.27 3.4407 1.06244 0
M  V30 20330 C 1949.13 4.49759 -0.0607321 0
M  V30 20331 C 1950.44 3.94451 1.95183 0
M  V30 20332 H 1947.56 0.71137 0.19267 0
M  V30 20333 H 1950.21 1.88944 -0.200083 0
M  V30 20334 H 1948.36 3.49909 1.68808 0
M  V30 20335 H 1950.03 4.56016 -0.69621 0
M  V30 20336 H 1948.27 4.27729 -0.723232 0
M  V30 20337 H 1948.94 5.50888 0.350271 0
M  V30 20338 H 1951.42 3.90945 1.42483 0
M  V30 20339 H 1950.29 4.98817 2.29069 0
M  V30 20340 H 1950.55 3.35417 2.88007 0
M  V30 20341 N 1949.61 -0.150187 1.56883 0
M  V30 20342 C 1950.84 -0.87835 1.8733 0
M  V30 20343 C 1951.26 -1.74883 0.711426 0
M  V30 20344 O 1950.61 -1.79692 -0.318906 0
M  V30 20345 C 1950.66 -1.73769 3.16996 0
M  V30 20346 O 1950.39 -0.902296 4.28708 0
M  V30 20347 C 1951.89 -2.57371 3.60936 0
M  V30 20348 H 1949.11 -0.254139 0.621011 0
M  V30 20349 H 1951.65 -0.143933 2.03993 0
M  V30 20350 H 1949.81 -2.42521 3.02097 0
M  V30 20351 H 1950.22 -1.49198 5.02832 0
M  V30 20352 H 1951.69 -3.13249 4.5451 0
M  V30 20353 H 1952.17 -3.33257 2.86071 0
M  V30 20354 H 1952.78 -1.93916 3.78519 0
M  V30 20355 N 1951.09 -1.51916 -0.419434 0
M  V30 20356 C 1952.34 -1.65142 -1.16502 0
M  V30 20357 C 1952.66 -0.378632 -1.91289 0
M  V30 20358 O 1951.93 0.606164 -1.86286 0
M  V30 20359 H 1950.51 -0.608667 -0.433051 0
M  V30 20360 H 1953.17 -1.88919 -0.47914 0
M  V30 20361 H 1952.27 -2.48762 -1.88477 0
M  V30 20362 N 1952.57 0.676023 -1.42365 0
M  V30 20363 C 1953.82 1.43821 -1.4298 0
M  V30 20364 C 1954.15 1.94147 -0.0455702 0
M  V30 20365 O 1953.42 1.70826 0.929976 0
M  V30 20366 C 1953.71 2.63612 -2.45318 0
M  V30 20367 C 1953.56 2.18926 -3.92927 0
M  V30 20368 C 1954.88 3.65827 -2.4466 0
M  V30 20369 H 1952 0.521622 -0.520653 0
M  V30 20370 H 1954.64 0.76837 -1.7377 0
M  V30 20371 H 1952.79 3.2076 -2.19193 0
M  V30 20372 H 1954.46 1.66955 -4.30028 0
M  V30 20373 H 1952.71 1.50512 -4.06852 0
M  V30 20374 H 1953.38 3.04965 -4.60109 0
M  V30 20375 H 1955.85 3.18393 -2.6789 0
M  V30 20376 H 1954.73 4.47226 -3.18245 0
M  V30 20377 H 1954.99 4.1687 -1.47213 0
M  V30 20378 N 1954.05 1.28517 0.912209 0
M  V30 20379 C 1955.46 1.14251 1.4766 0
M  V30 20380 C 1955.81 -0.266935 1.94376 0
M  V30 20381 O 1954.94 -1.16134 1.82598 0
M  V30 20382 C 1955.53 2.06792 2.6837 0
M  V30 20383 C 1954.09 1.96587 3.20984 0
M  V30 20384 C 1953.24 1.98444 1.93689 0
M  V30 20385 H 1956.19 1.41184 0.724769 0
M  V30 20386 H 1956.21 1.63282 3.43685 0
M  V30 20387 H 1955.72 3.09365 2.34339 0
M  V30 20388 H 1953.82 0.970565 3.59737 0
M  V30 20389 H 1953.93 2.83622 3.86129 0
M  V30 20390 H 1952.3 1.42872 2.10855 0
M  V30 20391 H 1953.08 3.02699 1.61951 0
M  V30 20392 N 1955.53 -1.12086 1.1079 0
M  V30 20393 C 1956.44 -2.21514 0.772578 0
M  V30 20394 C 1957.45 -1.72454 -0.231462 0
M  V30 20395 O 1958.63 -2.01281 -0.0693074 0
M  V30 20396 C 1955.69 -3.46043 0.213364 0
M  V30 20397 C 1954.75 -4.09925 1.27515 0
M  V30 20398 C 1953.99 -5.28509 0.742524 0
M  V30 20399 O 1954.21 -5.68779 -0.429786 0
M  V30 20400 O 1953.14 -5.82802 1.50417 0
M  V30 20401 H 1956.97 -2.52596 1.68608 0
M  V30 20402 H 1954.56 -1.20492 0.883294 0
M  V30 20403 H 1956.44 -4.21294 -0.0944683 0
M  V30 20404 H 1955.11 -3.16628 -0.672947 0
M  V30 20405 H 1954.02 -3.36436 1.63589 0
M  V30 20406 H 1955.35 -4.43504 2.13461 0
M  V30 20407 N 1957 -0.897194 -1.29569 0
M  V30 20408 C 1957.95 -0.362849 -2.29752 0
M  V30 20409 C 1958.95 0.536674 -1.60674 0
M  V30 20410 O 1960.15 0.419753 -1.75037 0
M  V30 20411 H 1956.53 -0.0987052 -0.745494 0
M  V30 20412 H 1958.5 -1.22122 -2.72266 0
M  V30 20413 C 1957.25 0.396775 -3.45429 0
M  V30 20414 H 1956.57 -0.286159 -3.98775 0
M  V30 20415 H 1958.01 0.73556 -4.17571 0
M  V30 20416 C 1956.47 1.59849 -2.96563 0
M  V30 20417 O 1957 2.69781 -2.97626 0
M  V30 20418 N 1955.21 1.4398 -2.52424 0
M  V30 20419 H 1954.75 0.545463 -2.51759 0
M  V30 20420 H 1954.71 2.24519 -2.20088 0
M  V30 20421 N 1958.48 1.43142 -0.659413 0
M  V30 20422 C 1959.72 2.03615 -0.179015 0
M  V30 20423 C 1960.09 1.50933 1.18673 0
M  V30 20424 O 1961.29 2.03091 1.76089 0
M  V30 20425 C 1959.56 3.56866 -0.195375 0
M  V30 20426 S 1961.12 4.38267 0.216271 0
M  V30 20427 H 1957.94 0.707032 -0.0750079 0
M  V30 20428 H 1960.54 1.75118 -0.869132 0
M  V30 20429 H 1959.24 3.92708 -1.19199 0
M  V30 20430 H 1958.77 3.90013 0.515078 0
M  V30 20431 H 1960.79 4.74431 1.4536 0
M  V30 20432 N 1959.96 0.40173 1.52394 0
M  V30 20433 C 1960.91 -0.427385 2.26808 0
M  V30 20434 C 1961.88 -1.04733 1.28919 0
M  V30 20435 O 1963.06 -1.073 1.5777 0
M  V30 20436 C 1960.2 -1.54211 3.08728 0
M  V30 20437 C 1959.32 -0.943809 4.21564 0
M  V30 20438 C 1958.45 -2.03061 4.90856 0
M  V30 20439 C 1957.49 -1.40886 5.95666 0
M  V30 20440 N 1956.63 -2.4355 6.58504 0
M  V30 20441 H 1961.47 0.21363 2.97233 0
M  V30 20442 H 1959 0.117187 1.46632 0
M  V30 20443 H 1960.96 -2.1993 3.54523 0
M  V30 20444 H 1959.59 -2.15326 2.40488 0
M  V30 20445 H 1958.64 -0.175875 3.79993 0
M  V30 20446 H 1959.96 -0.449559 4.9677 0
M  V30 20447 H 1959.11 -2.76523 5.40018 0
M  V30 20448 H 1957.85 -2.5585 4.15201 0
M  V30 20449 H 1956.85 -0.659546 5.4583 0
M  V30 20450 H 1958.08 -0.888766 6.73259 0
M  V30 20451 H 1956.02 -2.95484 5.85683 0
M  V30 20452 H 1955.94 -1.98916 7.29362 0
M  V30 20453 H 1957.21 -3.16604 7.12308 0
M  V30 20454 N 1961.44 -1.57047 0.131923 0
M  V30 20455 C 1962.85 -1.82552 -0.391375 0
M  V30 20456 C 1963.2 -1.04983 -1.6575 0
M  V30 20457 O 1962.33 -0.2904 -2.14443 0
M  V30 20458 C 1962.92 -3.3113 -0.716843 0
M  V30 20459 C 1961.48 -3.57269 -1.18472 0
M  V30 20460 C 1960.63 -2.76578 -0.200021 0
M  V30 20461 H 1963.58 -1.54636 0.356863 0
M  V30 20462 H 1963.6 -3.46463 -1.57302 0
M  V30 20463 H 1963.11 -3.87559 0.204844 0
M  V30 20464 H 1961.21 -3.06211 -2.12287 0
M  V30 20465 H 1961.32 -4.65798 -1.12111 0
M  V30 20466 H 1959.69 -2.45185 -0.689655 0
M  V30 20467 H 1960.47 -3.35772 0.71499 0
M  V30 20468 N 1962.92 0.141865 -1.5696 0
M  V30 20469 C 1964.16 0.850019 -1.84787 0
M  V30 20470 C 1964.52 1.78556 -0.716613 0
M  V30 20471 O 1963.81 1.89467 0.285076 0
M  V30 20472 C 1964 1.65717 -3.16658 0
M  V30 20473 C 1963.83 0.801282 -4.42504 0
M  V30 20474 C 1962.6 0.464915 -5.03157 0
M  V30 20475 C 1964.8 0.129271 -5.14138 0
M  V30 20476 N 1962.78 -0.404035 -6.12569 0
M  V30 20477 C 1964.15 -0.599606 -6.17094 0
M  V30 20478 C 1966.21 0.0504761 -4.97874 0
M  V30 20479 C 1964.91 -1.39985 -7.05547 0
M  V30 20480 C 1966.94 -0.736517 -5.86796 0
M  V30 20481 C 1966.3 -1.45366 -6.89237 0
M  V30 20482 H 1962.4 0.288707 -0.726755 0
M  V30 20483 H 1964.98 0.115075 -1.9436 0
M  V30 20484 H 1963.15 2.36332 -3.08224 0
M  V30 20485 H 1964.89 2.30889 -3.32374 0
M  V30 20486 H 1961.64 0.801892 -4.66762 0
M  V30 20487 H 1962.07 -0.829685 -6.71897 0
M  V30 20488 H 1966.71 0.590566 -4.18655 0
M  V30 20489 H 1964.43 -1.95118 -7.84191 0
M  V30 20490 H 1968.01 -0.799543 -5.7628 0
M  V30 20491 H 1966.89 -2.05285 -7.56854 0
M  V30 20492 N 1964.39 1.52136 0.411372 0
M  V30 20493 C 1965.62 1.70223 1.18486 0
M  V30 20494 C 1966.04 0.409966 1.83578 0
M  V30 20495 O 1965.4 -0.632366 1.69914 0
M  V30 20496 C 1965.45 2.83744 2.22535 0
M  V30 20497 O 1964.55 2.49157 3.28625 0
M  V30 20498 H 1963.9 0.566741 0.345978 0
M  V30 20499 H 1966.43 1.98829 0.482526 0
M  V30 20500 H 1966.44 3.08591 2.669 0
M  V30 20501 H 1965.11 3.77503 1.74541 0
M  V30 20502 H 1963.69 2.34974 2.89554 0
M  V30 20503 N 1965.87 -0.668464 1.42721 0
M  V30 20504 C 1967.12 -1.43061 1.43741 0
M  V30 20505 C 1967.45 -1.9412 0.0558656 0
M  V30 20506 O 1966.73 -1.71317 -0.920904 0
M  V30 20507 C 1967.01 -2.62307 2.46712 0
M  V30 20508 C 1966.86 -2.16839 3.94082 0
M  V30 20509 C 1968.18 -3.64525 2.46596 0
M  V30 20510 H 1965.3 -0.518854 0.523412 0
M  V30 20511 H 1967.94 -0.759144 1.74175 0
M  V30 20512 H 1966.09 -3.19593 2.20891 0
M  V30 20513 H 1967.77 -1.64672 4.30907 0
M  V30 20514 H 1966.01 -1.48352 4.07645 0
M  V30 20515 H 1966.68 -3.02521 4.6172 0
M  V30 20516 H 1969.16 -3.16968 2.69574 0
M  V30 20517 H 1968.03 -4.45532 3.20613 0
M  V30 20518 H 1968.29 -4.16084 1.49421 0
M  V30 20519 N 1967.35 -1.28999 -0.905381 0
M  V30 20520 C 1968.77 -1.06887 -1.18522 0
M  V30 20521 C 1968.97 0.183459 -2.00663 0
M  V30 20522 O 1968.02 0.882808 -2.36564 0
M  V30 20523 C 1969.34 -2.32111 -1.91168 0
M  V30 20524 C 1970.88 -2.37374 -2.04017 0
M  V30 20525 C 1971.36 -3.62386 -2.80072 0
M  V30 20526 N 1972.85 -3.63075 -2.87629 0
M  V30 20527 C 1973.59 -4.56485 -3.47 0
M  V30 20528 N 1973.08 -5.60222 -4.07582 0
M  V30 20529 N 1974.87 -4.44065 -3.44619 0
M  V30 20530 H 1967.03 -2.09375 -0.357185 0
M  V30 20531 H 1969.29 -0.92195 -0.220707 0
M  V30 20532 H 1968.99 -3.23391 -1.38243 0
M  V30 20533 H 1968.87 -2.39178 -2.91674 0
M  V30 20534 H 1971.26 -1.46585 -2.56119 0
M  V30 20535 H 1971.34 -2.34296 -1.0266 0
M  V30 20536 H 1970.98 -4.53523 -2.28647 0
M  V30 20537 H 1970.91 -3.6272 -3.81761 0
M  V30 20538 H 1973.4 -2.88065 -2.44595 0
M  V30 20539 H 1973.71 -6.27629 -4.50889 0
M  V30 20540 H 1972.06 -5.64038 -4.06061 0
M  V30 20541 H 1975.25 -3.62218 -2.96505 0
M  V30 20542 H 1975.42 -5.17049 -3.90595 0
M  V30 20543 N 1968.83 1.11497 -1.11383 0
M  V30 20544 C 1970.08 1.83494 -0.863592 0
M  V30 20545 C 1970.41 1.84395 0.609259 0
M  V30 20546 O 1969.68 1.2966 1.44978 0
M  V30 20547 C 1969.97 3.30701 -1.42509 0
M  V30 20548 C 1969.82 3.38197 -2.96552 0
M  V30 20549 C 1971.14 4.26756 -1.07553 0
M  V30 20550 H 1968.26 0.666209 -0.315173 0
M  V30 20551 H 1970.9 1.30745 -1.37861 0
M  V30 20552 H 1969.05 3.75752 -0.987053 0
M  V30 20553 H 1970.72 3.01709 -3.48955 0
M  V30 20554 H 1968.96 2.78436 -3.3265 0
M  V30 20555 H 1969.64 4.41804 -3.30927 0
M  V30 20556 H 1972.11 3.89882 -1.45367 0
M  V30 20557 H 1970.99 5.28143 -1.49519 0
M  V30 20558 H 1971.25 4.42098 0.0137773 0
M  V30 20559 O 1970.35 1.0363 1.23867 0
M  V30 20560 H 1971.04 0.705286 1.80403 0
M  V30 END ATOM
M  V30 BEGIN BOND
M  V30 END BOND
M  V30 END CTAB
M  END
$$$$
