drugbank_target|P04040 Catalase (DB01213; DB09061; DB14009; DB14011)
 OpenBabel12092119493D

  0  0  0     0  0            999 V3000
M  V30 BEGIN CTAB
M  V30 COUNTS 8288 8411 0 0 0
M  V30 BEGIN ATOM
M  V30 1 H -0.908 1.98254 -0.117106 0
M  V30 2 N 0 1.576 0 0
M  V30 3 C 0.933 2.03868 1.02534 0
M  V30 4 C 1.911 0.928543 1.3348 0
M  V30 5 O 3.095 1.19667 1.45644 0
M  V30 6 C 0.222 2.43627 2.35294 0
M  V30 7 C -0.732 3.65373 2.2001 0
M  V30 8 S 0.101 5.13292 1.52614 0
M  V30 9 C 1.257 5.56322 2.86805 0
M  V30 10 H 1.49 2.90518 0.631377 0
M  V30 11 H -0.977 1.52953 0.210867 0
M  V30 12 H 0.981 2.67203 3.11629 0
M  V30 13 H -0.358 1.57376 2.7183 0
M  V30 14 H -1.165 3.90944 3.18086 0
M  V30 15 H -1.563 3.418 1.51819 0
M  V30 16 H 0.729 5.58782 3.83104 0
M  V30 17 H 1.672 6.56266 2.65933 0
M  V30 18 H 2.08 4.83886 2.90714 0
M  V30 19 N 1.4781 -0.272755 1.55222 0
M  V30 20 C 2.4411 -1.32041 1.87344 0
M  V30 21 C 3.4411 -1.42342 0.74803 0
M  V30 22 O 4.6311 -1.41488 1.0162 0
M  V30 23 C 1.7631 -2.70173 2.07893 0
M  V30 24 H 2.9561 -1.04789 2.80997 0
M  V30 25 H 0.5091 -0.51083 1.47717 0
M  V30 26 H 1.2441 -3.02605 1.16622 0
M  V30 27 H 1.0291 -2.64082 2.89833 0
M  V30 28 H 2.5191 -3.45869 2.34017 0
M  V30 29 N 2.9562 -1.48159 -0.537278 0
M  V30 30 C 4.2332 -1.46291 -1.29839 0
M  V30 31 C 4.6132 -0.170613 -2.10409 0
M  V30 32 O 3.9612 0.847746 -2.12192 0
M  V30 33 C 4.1712 -2.72055 -2.18603 0
M  V30 34 C 5.5192 -3.20087 -2.7898 0
M  V30 35 O 6.5432 -2.72921 -2.28894 0
M  V30 36 O 5.4022 -4.02138 -3.70064 0
M  V30 37 H 2.4962 -0.583906 -0.585647 0
M  V30 38 H 5.0422 -1.60384 -0.554534 0
M  V30 39 H 3.8142 -3.57628 -1.58801 0
M  V30 40 H 3.4372 -2.60646 -3.00249 0
M  V30 41 N 4.4343 0.785586 -1.36625 0
M  V30 42 C 5.6593 1.57963 -1.34397 0
M  V30 43 C 6.0843 1.87964 0.071526 0
M  V30 44 O 5.4423 1.48182 1.0446 0
M  V30 45 C 5.4903 2.87511 -2.17646 0
M  V30 46 O 4.5943 3.81281 -1.57158 0
M  V30 47 H 3.9353 0.479014 -0.459828 0
M  V30 48 H 6.4653 0.973411 -1.79961 0
M  V30 49 H 6.4753 3.36745 -2.30362 0
M  V30 50 H 5.1503 2.65002 -3.20541 0
M  V30 51 H 3.7273 3.39885 -1.53403 0
M  V30 52 N 5.9124 1.20967 1.01018 0
M  V30 53 C 7.3284 0.965905 1.27053 0
M  V30 54 C 7.5284 -0.350785 1.98423 0
M  V30 55 O 6.5844 -1.07773 2.28344 0
M  V30 56 C 7.8974 2.15294 2.09926 0
M  V30 57 C 9.4454 2.19463 2.23171 0
M  V30 58 C 9.9204 3.3767 3.09424 0
M  V30 59 N 11.4114 3.37724 3.17012 0
M  V30 60 C 12.1464 4.25837 3.83993 0
M  V30 61 N 11.6424 5.24138 4.53047 0
M  V30 62 N 13.4354 4.1366 3.80581 0
M  V30 63 H 5.5864 2.0565 0.531194 0
M  V30 64 H 7.8494 0.90024 0.297106 0
M  V30 65 H 7.5554 3.10684 1.64828 0
M  V30 66 H 7.4294 2.13923 3.10672 0
M  V30 67 H 9.8164 1.24632 2.6749 0
M  V30 68 H 9.8974 2.2488 1.21912 0
M  V30 69 H 9.5414 4.32791 2.65808 0
M  V30 70 H 9.4714 3.29491 4.10784 0
M  V30 71 H 11.9624 2.6658 2.6785 0
M  V30 72 H 12.2754 5.87684 5.01844 0
M  V30 73 H 10.6204 5.28068 4.5185 0
M  V30 74 H 13.8114 3.36127 3.25785 0
M  V30 75 H 13.9844 4.82538 4.32505 0
M  V30 76 N 7.3905 -1.2043 1.01659 0
M  V30 77 C 8.6675 -1.8548 0.621004 0
M  V30 78 C 9.0475 -1.9091 -0.900919 0
M  V30 79 O 8.3955 -1.41694 -1.79263 0
M  V30 80 C 8.6055 -3.25119 1.2688 0
M  V30 81 C 9.9535 -4.01403 1.38423 0
M  V30 82 O 10.9775 -3.34473 1.22501 0
M  V30 83 O 9.8365 -5.21265 1.64151 0
M  V30 84 H 6.9305 -0.798761 0.214266 0
M  V30 85 H 9.4765 -1.28019 1.11396 0
M  V30 86 H 8.2485 -3.15932 2.30873 0
M  V30 87 H 7.8715 -3.90212 0.762917 0
M  V30 88 N 8.8686 -0.792821 -1.36206 0
M  V30 89 C 10.2796 -0.429513 -1.81692 0
M  V30 90 C 10.6306 1.04695 -1.65932 0
M  V30 91 O 9.7556 1.81256 -1.18218 0
M  V30 92 C 10.3506 -0.772831 -3.29868 0
M  V30 93 C 8.9096 -0.462307 -3.7355 0
M  V30 94 C 8.0566 -1.00569 -2.5842 0
M  V30 95 H 11.0076 -0.985672 -1.24379 0
M  V30 96 H 11.0286 -0.0651928 -3.80444 0
M  V30 97 H 10.5406 -1.84747 -3.41307 0
M  V30 98 H 8.6416 0.604158 -3.67669 0
M  V30 99 H 8.7546 -0.985299 -4.68859 0
M  V30 100 H 7.1186 -0.428734 -2.51066 0
M  V30 101 H 7.9016 -2.08616 -2.72643 0
M  V30 102 N 10.3467 1.47872 -0.545128 0
M  V30 103 C 11.3097 2.28337 0.198717 0
M  V30 104 C 12.3097 1.36255 0.853888 0
M  V30 105 O 13.4997 1.59003 0.711606 0
M  V30 106 C 10.6317 3.15585 1.28915 0
M  V30 107 H 11.8247 2.95567 -0.507941 0
M  V30 108 H 9.3777 1.53362 -0.301616 0
M  V30 109 H 10.1127 2.53019 2.02859 0
M  V30 110 H 9.8977 3.83337 0.824309 0
M  V30 111 H 11.3877 3.76243 1.81194 0
M  V30 112 N 11.8248 0.280983 1.55075 0
M  V30 113 C 13.0498 -0.340154 2.04592 0
M  V30 114 C 13.4748 -1.48246 1.15779 0
M  V30 115 O 12.8328 -1.80614 0.15761 0
M  V30 116 C 12.8808 -0.793104 3.5177 0
M  V30 117 O 11.9848 -1.89981 3.66034 0
M  V30 118 H 11.3258 -0.0694289 0.66036 0
M  V30 119 H 13.8558 0.416993 2.00306 0
M  V30 120 H 13.8658 -1.08729 3.93245 0
M  V30 121 H 12.5408 0.0426163 4.15878 0
M  V30 122 H 11.1178 -1.60771 3.36463 0
M  V30 123 N 13.3029 -1.57598 0.00835791 0
M  V30 124 C 14.5799 -1.82172 -0.712235 0
M  V30 125 C 14.9599 -0.887873 -1.9152 0
M  V30 126 O 14.3079 0.06146 -2.28417 0
M  V30 127 C 14.5179 -3.30875 -1.11008 0
M  V30 128 C 15.8659 -3.96826 -1.51044 0
M  V30 129 O 16.8899 -3.35248 -1.20364 0
M  V30 130 O 15.7489 -5.05318 -2.08125 0
M  V30 131 H 12.8429 -0.750435 -0.347529 0
M  V30 132 H 15.3889 -1.69665 0.0344523 0
M  V30 133 H 14.1609 -3.90481 -0.252982 0
M  V30 134 H 13.7839 -3.48412 -1.9156 0
M  V30 135 N 14.781 0.264519 -1.55364 0
M  V30 136 C 15.713 1.34965 -1.85248 0
M  V30 137 C 16.726 1.45136 -0.737525 0
M  V30 138 O 17.915 1.46801 -1.01547 0
M  V30 139 C 15.015 2.73008 -2.00797 0
M  V30 140 C 14.188 2.85324 -3.31525 0
M  V30 141 C 13.247 4.04097 -3.37034 0
M  V30 142 O 12.273 3.94455 -4.10358 0
M  V30 143 N 13.475 5.16458 -2.65049 0
M  V30 144 H 16.24 1.09672 -2.78913 0
M  V30 145 H 13.801 0.454635 -1.55386 0
M  V30 146 H 15.793 3.50772 -2.01844 0
M  V30 147 H 14.363 2.91087 -1.1396 0
M  V30 148 H 13.583 1.94377 -3.42945 0
M  V30 149 H 14.871 2.9049 -4.17724 0
M  V30 150 H 14.269 5.27181 -2.05175 0
M  V30 151 H 12.826 5.92422 -2.71809 0
M  V30 152 N 16.2591 1.48442 0.529413 0
M  V30 153 C 17.1921 1.57577 1.65059 0
M  V30 154 C 18.1701 0.426198 1.56915 0
M  V30 155 O 19.3541 0.637877 1.77379 0
M  V30 156 C 16.4811 1.5043 3.03461 0
M  V30 157 C 15.5271 2.70235 3.29962 0
M  V30 158 S 16.3601 4.32198 3.16172 0
M  V30 159 C 17.5161 4.2765 4.57019 0
M  V30 160 H 17.7491 2.52427 1.5706 0
M  V30 161 H 15.2821 1.36982 0.712417 0
M  V30 162 H 17.2401 1.46992 3.8328 0
M  V30 163 H 15.9011 0.569167 3.089 0
M  V30 164 H 15.0941 2.61374 4.30929 0
M  V30 165 H 14.6961 2.70938 2.57815 0
M  V30 166 H 16.9881 3.97618 5.48549 0
M  V30 167 H 17.9311 5.28797 4.70934 0
M  V30 168 H 18.3391 3.5811 4.36368 0
M  V30 169 N 17.7372 -0.778329 1.37039 0
M  V30 170 C 18.6692 -1.90034 1.2814 0
M  V30 171 C 19.6822 -1.61585 0.198558 0
M  V30 172 O 20.8712 -1.72625 0.454175 0
M  V30 173 C 17.9712 -3.25108 0.956968 0
M  V30 174 C 17.1442 -3.81253 2.14394 0
M  V30 175 C 16.2032 -4.94789 1.79082 0
M  V30 176 O 15.2292 -5.10721 2.51301 0
M  V30 177 N 16.4312 -5.75878 0.731043 0
M  V30 178 H 19.1962 -1.98186 2.24816 0
M  V30 179 H 16.7572 -0.957129 1.30578 0
M  V30 180 H 18.7492 -3.9857 0.701701 0
M  V30 181 H 17.3192 -3.125 0.0789812 0
M  V30 182 H 16.5392 -2.99647 2.56135 0
M  V30 183 H 17.8272 -4.15495 2.93668 0
M  V30 184 H 17.2252 -5.65547 0.131618 0
M  V30 185 H 15.7822 -6.49596 0.535622 0
M  V30 186 N 19.2153 -1.21501 -1.00376 0
M  V30 187 C 20.1653 -0.942843 -2.07592 0
M  V30 188 C 21.1493 0.102384 -1.60574 0
M  V30 189 O 22.3413 -0.10671 -1.76678 0
M  V30 190 C 19.4703 -0.510729 -3.3948 0
M  V30 191 C 18.5563 -1.59009 -3.93163 0
M  V30 192 N 18.9473 -2.81544 -4.20198 0
M  V30 193 C 17.2453 -1.45925 -4.21452 0
M  V30 194 C 17.9463 -3.51261 -4.63671 0
M  V30 195 N 16.9223 -2.78703 -4.66718 0
M  V30 196 H 20.7243 -1.87378 -2.26421 0
M  V30 197 H 18.2383 -1.11093 -1.18458 0
M  V30 198 H 20.2353 -0.297101 -4.1584 0
M  V30 199 H 18.8953 0.413436 -3.22057 0
M  V30 200 H 19.9063 -3.18075 -4.08716 0
M  V30 201 H 16.5833 -0.600467 -4.13159 0
M  V30 202 H 17.9733 -4.56183 -4.93302 0
M  V30 203 N 20.6934 1.19889 -1.02296 0
M  V30 204 C 21.9394 1.89973 -0.726759 0
M  V30 205 C 22.2944 1.7776 0.73614 0
M  V30 206 O 21.5874 1.15523 1.52856 0
M  V30 207 C 21.7814 3.39883 -1.10518 0
M  V30 208 C 21.6104 3.66684 -2.60332 0
M  V30 209 C 20.3804 3.85045 -3.27213 0
M  V30 210 C 22.5784 3.68727 -3.58532 0
M  V30 211 N 20.5604 3.99422 -4.66192 0
M  V30 212 C 21.9314 3.88604 -4.83101 0
M  V30 213 C 23.9864 3.51722 -3.52414 0
M  V30 214 C 22.6894 3.9324 -6.02292 0
M  V30 215 C 24.7154 3.57632 -4.71013 0
M  V30 216 C 24.0774 3.77988 -5.94394 0
M  V30 217 H 20.1764 0.714551 -0.317712 0
M  V30 218 H 22.7604 1.44123 -1.30907 0
M  V30 219 H 20.9314 3.8447 -0.551142 0
M  V30 220 H 22.6634 3.97464 -0.761853 0
M  V30 221 H 19.4184 3.83689 -2.77632 0
M  V30 222 H 19.8424 4.10473 -5.38368 0
M  V30 223 H 24.4844 3.34945 -2.58015 0
M  V30 224 H 22.2024 4.08811 -6.97065 0
M  V30 225 H 25.7884 3.45773 -4.67902 0
M  V30 226 H 24.6684 3.82428 -6.8463 0
M  V30 227 N 22.1715 0.800033 1.35784 0
M  V30 228 C 23.1185 0.203848 2.29898 0
M  V30 229 C 24.0885 -0.658375 1.52495 0
M  V30 230 O 25.2735 -0.604832 1.8096 0
M  V30 231 C 22.4135 -0.64688 3.38983 0
M  V30 232 C 21.5265 0.235054 4.3136 0
M  V30 233 C 20.6615 -0.623054 5.27533 0
M  V30 234 C 19.7005 0.259682 6.11549 0
M  V30 235 N 18.8375 -0.558019 6.99879 0
M  V30 236 H 23.6775 1.01186 2.80295 0
M  V30 237 H 21.2145 0.51053 1.37957 0
M  V30 238 H 23.1725 -1.15521 4.00887 0
M  V30 239 H 21.8025 -1.42021 2.89879 0
M  V30 240 H 20.8545 0.861438 3.70518 0
M  V30 241 H 22.1665 0.914768 4.9034 0
M  V30 242 H 21.3205 -1.19678 5.94779 0
M  V30 243 H 20.0595 -1.33636 4.69034 0
M  V30 244 H 19.0645 0.845726 5.43256 0
M  V30 245 H 20.2895 0.970748 6.72126 0
M  V30 246 H 18.2355 -1.25542 6.43875 0
M  V30 247 H 18.1525 0.0637872 7.55973 0
M  V30 248 H 19.4205 -1.11523 7.71481 0
M  V30 249 N 23.6496 -1.47581 0.552962 0
M  V30 250 C 24.5596 -2.33743 -0.200353 0
M  V30 251 C 25.5756 -1.47928 -0.916151 0
M  V30 252 O 26.7516 -1.80865 -0.885993 0
M  V30 253 C 23.8166 -3.24536 -1.21973 0
M  V30 254 C 22.8776 -4.26238 -0.511819 0
M  V30 255 C 22.1106 -5.12693 -1.48263 0
M  V30 256 O 22.3336 -5.01525 -2.71714 0
M  V30 257 O 21.2676 -5.93375 -1.00945 0
M  V30 258 H 25.0936 -2.9945 0.506304 0
M  V30 259 H 22.6786 -1.46071 0.313622 0
M  V30 260 H 24.5606 -3.80631 -1.80827 0
M  V30 261 H 23.2356 -2.61462 -1.90839 0
M  V30 262 H 22.1426 -3.73914 0.117799 0
M  V30 263 H 23.4756 -4.92014 0.135308 0
M  V30 264 N 25.1277 -0.289203 -1.54924 0
M  V30 265 C 26.0597 0.625583 -2.20497 0
M  V30 266 C 27.0727 1.10667 -1.19402 0
M  V30 267 O 28.2617 1.02615 -1.46056 0
M  V30 268 C 25.3617 1.86702 -2.82835 0
M  V30 269 C 24.5347 1.5304 -4.09753 0
M  V30 270 C 23.5937 2.62576 -4.56005 0
M  V30 271 O 22.6197 2.28167 -5.21468 0
M  V30 272 N 23.8217 3.92901 -4.27328 0
M  V30 273 H 26.5867 0.0642801 -2.99631 0
M  V30 274 H 24.1477 -0.110896 -1.6152 0
M  V30 275 H 26.1397 2.59304 -3.10715 0
M  V30 276 H 24.7097 2.33702 -2.07611 0
M  V30 277 H 23.9297 0.637564 -3.8901 0
M  V30 278 H 25.2177 1.28072 -4.92418 0
M  V30 279 H 24.6157 4.23671 -3.74859 0
M  V30 280 H 23.1727 4.61837 -4.59946 0
M  V30 281 N 26.6058 1.57591 -0.0167156 0
M  V30 282 C 28.0218 1.55946 0.339557 0
M  V30 283 C 28.2218 1.02109 1.73713 0
M  V30 284 O 27.2778 0.662303 2.43659 0
M  V30 285 C 28.5908 3.00037 0.199499 0
M  V30 286 C 30.1388 3.11805 0.273193 0
M  V30 287 C 30.6138 4.57713 0.162068 0
M  V30 288 N 32.1048 4.6268 0.219444 0
M  V30 289 C 32.8398 5.73185 0.157054 0
M  V30 290 N 32.3358 6.92786 0.0442936 0
M  V30 291 N 34.1288 5.61707 0.21014 0
M  V30 292 H 26.2798 1.90921 -0.930758 0
M  V30 293 H 28.5428 0.877674 -0.358319 0
M  V30 294 H 28.2488 3.4333 -0.76273 0
M  V30 295 H 28.1228 3.64387 0.974786 0
M  V30 296 H 30.5098 2.68433 1.22587 0
M  V30 297 H 30.5908 2.50201 -0.532256 0
M  V30 298 H 30.2348 5.01763 -0.78714 0
M  V30 299 H 30.1648 5.17283 0.986222 0
M  V30 300 H 32.6558 3.76649 0.307246 0
M  V30 301 H 32.9688 7.728 0.00304069 0
M  V30 302 H 31.3138 6.94999 0.00968457 0
M  V30 303 H 34.5048 4.6716 0.296546 0
M  V30 304 H 34.6778 6.47807 0.158054 0
M  V30 305 N 28.0839 -0.256276 1.55502 0
M  V30 306 C 29.0469 -1.30047 1.88734 0
M  V30 307 C 30.0469 -1.4154 0.763086 0
M  V30 308 O 31.2369 -1.40403 1.03115 0
M  V30 309 C 28.3689 -2.67953 2.10747 0
M  V30 310 H 29.5619 -1.01802 2.82093 0
M  V30 311 H 27.1149 -0.495134 1.4825 0
M  V30 312 H 27.8499 -3.01351 1.19825 0
M  V30 313 H 27.6349 -2.60993 2.92617 0
M  V30 314 H 29.1249 -3.43368 2.37673 0
M  V30 315 N 29.562 -1.4872 -0.521534 0
M  V30 316 C 30.525 -1.63379 -1.60748 0
M  V30 317 C 31.525 -0.50661 -1.52611 0
M  V30 318 O 32.715 -0.772601 -1.5613 0
M  V30 319 C 29.847 -1.61192 -3.00383 0
M  V30 320 H 31.04 -2.60217 -1.49087 0
M  V30 321 H 28.593 -1.37444 -0.744235 0
M  V30 322 H 29.328 -0.65863 -3.17541 0
M  V30 323 H 29.113 -2.43032 -3.07698 0
M  V30 324 H 30.603 -1.7466 -3.7932 0
M  V30 325 N 31.0401 0.771051 -1.3745 0
M  V30 326 C 31.9721 1.89352 -1.29146 0
M  V30 327 C 32.9851 1.61477 -0.207124 0
M  V30 328 O 34.1741 1.72382 -0.463324 0
M  V30 329 C 31.2741 3.24596 -0.974195 0
M  V30 330 C 30.4471 3.80111 -2.16413 0
M  V30 331 C 29.5061 4.93832 -1.81703 0
M  V30 332 O 28.5321 5.09382 -2.54006 0
M  V30 333 N 29.7341 5.75483 -0.761573 0
M  V30 334 H 32.4991 1.96991 -2.25864 0
M  V30 335 H 30.0601 0.950191 -1.31084 0
M  V30 336 H 32.0521 3.98193 -0.722828 0
M  V30 337 H 30.6221 3.12454 -0.0955527 0
M  V30 338 H 29.8421 2.98284 -2.57721 0
M  V30 339 H 31.1301 4.13932 -2.95867 0
M  V30 340 H 30.5281 5.65469 -0.161609 0
M  V30 341 H 29.0851 6.49302 -0.570064 0
M  V30 342 N 32.5182 1.22032 0.997298 0
M  V30 343 C 33.4652 0.986467 2.08656 0
M  V30 344 C 34.4352 -0.0902671 1.65855 0
M  V30 345 O 35.6202 0.0584294 1.90711 0
M  V30 346 C 32.7602 0.565569 3.40434 0
M  V30 347 C 31.8732 1.71259 3.96604 0
M  V30 348 C 31.0082 1.24011 5.16522 0
M  V30 349 C 30.0472 2.35896 5.64818 0
M  V30 350 N 29.1842 1.89726 6.7598 0
M  V30 351 H 34.0242 1.91892 2.27994 0
M  V30 352 H 31.5612 0.956199 1.11782 0
M  V30 353 H 33.5192 0.302738 4.161 0
M  V30 354 H 32.1492 -0.329879 3.2111 0
M  V30 355 H 31.2012 2.08986 3.17851 0
M  V30 356 H 32.5132 2.55436 4.28432 0
M  V30 357 H 31.6672 0.934395 5.99461 0
M  V30 358 H 30.4062 0.368487 4.86306 0
M  V30 359 H 29.4112 2.67261 4.8047 0
M  V30 360 H 30.6362 3.23567 5.97061 0
M  V30 361 H 28.5822 1.0492 6.47555 0
M  V30 362 H 28.4992 2.67471 7.07103 0
M  V30 363 H 29.7672 1.62211 7.62435 0
M  V30 364 N 33.9963 -1.19345 1.0293 0
M  V30 365 C 34.9593 -2.20793 0.615069 0
M  V30 366 C 35.9593 -1.57553 -0.321533 0
M  V30 367 O 37.1493 -1.73862 -0.108483 0
M  V30 368 C 34.2813 -3.40754 -0.0999222 0
M  V30 369 H 35.4743 -2.58955 1.51269 0
M  V30 370 H 33.0273 -1.3303 0.820534 0
M  V30 371 H 33.7623 -3.0811 -1.01187 0
M  V30 372 H 33.5473 -3.87889 0.57309 0
M  V30 373 H 35.0373 -4.15898 -0.376645 0
M  V30 374 N 35.4744 -0.807222 -1.35358 0
M  V30 375 C 36.7514 -0.311126 -1.9311 0
M  V30 376 C 37.1314 1.19937 -1.73719 0
M  V30 377 O 36.4794 1.99918 -1.10657 0
M  V30 378 C 36.6894 -0.723226 -3.41424 0
M  V30 379 C 38.0374 -0.713078 -4.18569 0
M  V30 380 O 39.0614 -0.664811 -3.49941 0
M  V30 381 O 37.9204 -0.772022 -5.41019 0
M  V30 382 H 35.0144 -0.081526 -0.822972 0
M  V30 383 H 37.5604 -0.890962 -1.4443 0
M  V30 384 H 36.3324 -1.76426 -3.4927 0
M  V30 385 H 35.9554 -0.118232 -3.97424 0
M  V30 386 N 36.9525 1.47285 -0.560781 0
M  V30 387 C 38.1985 2.02764 -0.0381184 0
M  V30 388 C 38.5315 1.43384 1.30976 0
M  V30 389 O 37.8065 0.590733 1.85312 0
M  V30 390 C 38.0895 3.60064 0.0511427 0
M  V30 391 C 37.9425 4.2987 -1.32408 0
M  V30 392 C 39.2615 4.33439 0.762795 0
M  V30 393 H 36.3805 0.736841 -0.0153264 0
M  V30 394 H 39.0225 1.75675 -0.723759 0
M  V30 395 H 37.1725 3.83274 0.635065 0
M  V30 396 H 38.8445 4.17989 -1.95148 0
M  V30 397 H 37.0875 3.90085 -1.8978 0
M  V30 398 H 37.7585 5.38478 -1.21431 0
M  V30 399 H 40.2345 4.15243 0.266965 0
M  V30 400 H 39.1105 5.43124 0.794221 0
M  V30 401 H 39.3715 4.02915 1.81966 0
M  V30 402 N 38.4306 0.297415 1.54768 0
M  V30 403 C 39.3606 -0.573494 2.26348 0
M  V30 404 C 40.3416 -1.14085 1.26169 0
M  V30 405 O 41.5266 -1.17086 1.54934 0
M  V30 406 C 38.6566 -1.74716 3.00153 0
M  V30 407 C 37.6106 -1.31032 4.07449 0
M  V30 408 C 36.9366 -2.56887 4.68949 0
M  V30 409 C 38.2366 -0.444183 5.20408 0
M  V30 410 H 39.9306 0.0235131 2.99391 0
M  V30 411 H 37.4766 0.0127488 1.43994 0
M  V30 412 H 39.4296 -2.3625 3.48947 0
M  V30 413 H 38.1536 -2.37035 2.24682 0
M  V30 414 H 36.8126 -0.718066 3.59499 0
M  V30 415 H 36.4606 -3.17512 3.90122 0
M  V30 416 H 36.1606 -2.2836 5.41411 0
M  V30 417 H 37.6846 -3.19229 5.20505 0
M  V30 418 H 39.0986 -0.9651 5.65118 0
M  V30 419 H 37.4956 -0.252846 5.99567 0
M  V30 420 H 38.5656 0.531609 4.81977 0
M  V30 421 N 39.9087 -1.5758 0.0250728 0
M  V30 422 C 41.1367 -1.9593 -0.664747 0
M  V30 423 C 41.5517 -0.901352 -1.65895 0
M  V30 424 O 40.9087 0.117255 -1.82123 0
M  V30 425 C 40.9597 -3.34342 -1.37468 0
M  V30 426 O 40.6807 -4.36079 -0.420324 0
M  V30 427 C 42.1817 -3.873 -2.1567 0
M  V30 428 H 39.4017 -0.645405 -0.183557 0
M  V30 429 H 41.9457 -2.04329 0.0836372 0
M  V30 430 H 40.1007 -3.27175 -2.0745 0
M  V30 431 H 40.5147 -5.16297 -0.923991 0
M  V30 432 H 41.9887 -4.86504 -2.60803 0
M  V30 433 H 42.4657 -3.21331 -2.99405 0
M  V30 434 H 43.0717 -3.97723 -1.50654 0
M  V30 435 N 41.3868 0.248026 -1.55636 0
M  V30 436 C 42.6148 0.993808 -1.81469 0
M  V30 437 C 43.0298 1.78991 -0.60064 0
M  V30 438 O 42.3868 1.77345 0.430682 0
M  V30 439 C 42.4378 1.93258 -3.05506 0
M  V30 440 O 42.1588 1.16869 -4.22224 0
M  V30 441 C 43.6598 2.79444 -3.4413 0
M  V30 442 H 40.8798 0.292486 -0.603898 0
M  V30 443 H 43.4238 0.271253 -2.02693 0
M  V30 444 H 41.5788 2.60943 -2.86335 0
M  V30 445 H 41.9928 1.80359 -4.92515 0
M  V30 446 H 43.4668 3.41066 -4.34026 0
M  V30 447 H 43.9438 3.50499 -2.64665 0
M  V30 448 H 44.5498 2.17214 -3.65648 0
M  V30 449 N 42.8649 1.48995 0.513639 0
M  V30 450 C 44.1129 1.57531 1.26604 0
M  V30 451 C 44.4339 0.258236 1.93283 0
M  V30 452 O 43.7039 -0.721502 1.8213 0
M  V30 453 H 42.2839 0.580387 0.470276 0
M  V30 454 H 44.9459 1.85552 0.596373 0
M  V30 455 H 44.0419 2.36486 2.03669 0
M  V30 456 N 44.343 -0.763751 1.37857 0
M  V30 457 C 45.306 -1.85889 1.34081 0
M  V30 458 C 46.306 -1.58949 0.243277 0
M  V30 459 O 47.496 -1.66882 0.499589 0
M  V30 460 C 44.628 -3.23176 1.08489 0
M  V30 461 H 45.821 -1.90648 2.31502 0
M  V30 462 H 43.374 -0.964367 1.23003 0
M  V30 463 H 44.109 -3.24091 0.116318 0
M  V30 464 H 43.894 -3.44124 1.8794 0
M  V30 465 H 45.384 -4.03254 1.08517 0
M  V30 466 N 45.8211 -1.22559 -0.990812 0
M  V30 467 C 47.0691 -1.04933 -1.72724 0
M  V30 468 C 47.3901 0.416158 -1.90508 0
M  V30 469 O 46.6601 1.29918 -1.46622 0
M  V30 470 H 45.2401 -0.385296 -0.639965 0
M  V30 471 H 47.9021 -1.54105 -1.19322 0
M  V30 472 H 46.9981 -1.52886 -2.72089 0
M  V30 473 N 47.2992 1.18797 -1.03562 0
M  V30 474 C 48.2472 2.24297 -0.615905 0
M  V30 475 C 49.2412 1.65643 0.354808 0
M  V30 476 O 50.4472 1.78618 0.22265 0
M  V30 477 H 46.8222 0.729909 -0.180934 0
M  V30 478 H 48.7932 2.5701 -1.5162 0
M  V30 479 C 47.5422 3.47698 0.0104735 0
M  V30 480 H 46.8652 3.93125 -0.727509 0
M  V30 481 H 48.3052 4.23159 0.266995 0
M  V30 482 C 46.7642 3.12489 1.25905 0
M  V30 483 O 47.2942 3.25761 2.35038 0
M  V30 484 N 45.5002 2.6686 1.15039 0
M  V30 485 H 45.0472 2.56261 0.262328 0
M  V30 486 H 45.0052 2.43674 1.98672 0
M  V30 487 N 48.7773 0.814389 1.34928 0
M  V30 488 C 50.1883 0.458364 1.80986 0
M  V30 489 C 50.5393 -1.02042 1.67577 0
M  V30 490 O 49.6643 -1.79352 1.21086 0
M  V30 491 C 50.2593 0.825212 3.28597 0
M  V30 492 C 48.8183 0.521677 3.72767 0
M  V30 493 C 47.9653 1.04668 2.56788 0
M  V30 494 H 50.9163 1.00533 1.22795 0
M  V30 495 H 50.9373 0.12571 3.80292 0
M  V30 496 H 50.4493 1.90154 3.38324 0
M  V30 497 H 48.5503 -0.545589 3.68584 0
M  V30 498 H 48.6633 1.05977 4.67232 0
M  V30 499 H 47.0273 0.468622 2.50352 0
M  V30 500 H 47.8103 2.12927 2.6929 0
M  V30 501 N 50.2554 -1.46986 0.568584 0
M  V30 502 C 51.5014 -2.02741 0.0488709 0
M  V30 503 C 51.8344 -1.44077 -1.30214 0
M  V30 504 O 51.1094 -0.600552 -1.84996 0
M  V30 505 C 51.3924 -3.60086 -0.032047 0
M  V30 506 C 51.2454 -4.29162 1.34686 0
M  V30 507 C 52.5644 -4.33838 -0.739798 0
M  V30 508 H 49.6834 -0.736749 0.0192338 0
M  V30 509 H 52.3254 -1.75289 0.733065 0
M  V30 510 H 50.4754 -3.83606 -0.61473 0
M  V30 511 H 52.1474 -4.16948 1.97362 0
M  V30 512 H 50.3904 -3.89073 1.91846 0
M  V30 513 H 51.0614 -5.37826 1.24285 0
M  V30 514 H 53.5374 -4.15378 -0.244939 0
M  V30 515 H 52.4134 -5.43537 -0.765406 0
M  V30 516 H 52.6744 -4.03875 -1.79827 0
M  V30 517 N 51.7335 -0.305618 -1.54608 0
M  V30 518 C 52.9815 0.301701 -1.99835 0
M  V30 519 C 53.3025 1.54054 -1.19551 0
M  V30 520 O 52.5725 1.93702 -0.292658 0
M  V30 521 H 51.1525 0.114468 -0.738178 0
M  V30 522 H 53.8145 -0.418016 -1.90364 0
M  V30 523 H 52.9105 0.570548 -3.06841 0
M  V30 524 N 53.2116 1.57565 -0.0334293 0
M  V30 525 C 54.4886 1.83282 0.683163 0
M  V30 526 C 54.8686 0.91823 1.90084 0
M  V30 527 O 54.2166 -0.025113 2.28486 0
M  V30 528 C 54.4266 3.32599 1.0573 0
M  V30 529 C 55.7746 3.99179 1.44711 0
M  V30 530 O 56.7986 3.3712 1.15015 0
M  V30 531 O 55.6576 5.08565 2.0006 0
M  V30 532 H 52.7516 0.755869 0.335546 0
M  V30 533 H 55.2976 1.69589 -0.0614402 0
M  V30 534 H 54.0696 3.90834 0.190828 0
M  V30 535 H 53.6926 3.51415 1.85993 0
M  V30 536 N 54.6897 -0.239769 1.55765 0
M  V30 537 C 55.6367 -1.29696 1.90913 0
M  V30 538 C 56.6067 -1.47478 0.764164 0
M  V30 539 O 57.7917 -1.61345 1.01845 0
M  V30 540 C 54.9317 -2.64598 2.21544 0
M  V30 541 C 54.0447 -2.54765 3.48882 0
M  V30 542 C 53.1797 -3.82069 3.69049 0
M  V30 543 C 52.2187 -3.66883 4.89963 0
M  V30 544 N 51.3557 -4.86094 5.06614 0
M  V30 545 H 56.1957 -0.990224 2.81067 0
M  V30 546 H 53.7327 -0.477684 1.39128 0
M  V30 547 H 55.6907 -3.43132 2.3731 0
M  V30 548 H 54.3207 -2.93405 1.34585 0
M  V30 549 H 53.3727 -1.67763 3.41409 0
M  V30 550 H 54.6847 -2.39457 4.37563 0
M  V30 551 H 53.8387 -4.69046 3.84812 0
M  V30 552 H 52.5777 -4.00282 2.78614 0
M  V30 553 H 51.5827 -2.78289 4.74168 0
M  V30 554 H 52.8077 -3.50157 5.81865 0
M  V30 555 H 50.7537 -5.04655 4.19117 0
M  V30 556 H 50.6707 -4.73443 5.89396 0
M  V30 557 H 51.9387 -5.74549 5.26795 0
M  V30 558 N 56.1678 -1.49265 -0.50573 0
M  V30 559 C 57.0978 -1.68495 -1.61653 0
M  V30 560 C 58.0788 -0.53366 -1.61512 0
M  V30 561 O 59.2638 -0.76897 -1.78327 0
M  V30 562 C 56.3938 -1.74709 -3.00157 0
M  V30 563 C 55.3478 -2.89581 -3.15162 0
M  V30 564 C 54.6738 -2.80903 -4.5497 0
M  V30 565 C 55.9738 -4.30578 -2.95634 0
M  V30 566 H 57.6678 -2.61493 -1.45814 0
M  V30 567 H 55.2138 -1.25838 -0.70005 0
M  V30 568 H 57.1668 -1.86748 -3.77761 0
M  V30 569 H 55.8908 -0.783067 -3.17074 0
M  V30 570 H 54.5498 -2.77136 -2.39982 0
M  V30 571 H 54.1978 -1.82419 -4.68756 0
M  V30 572 H 53.8978 -3.57999 -4.65951 0
M  V30 573 H 55.4218 -2.94944 -5.34641 0
M  V30 574 H 56.8358 -4.4373 -3.63011 0
M  V30 575 H 55.2328 -5.0886 -3.18091 0
M  V30 576 H 56.3028 -4.45352 -1.91806 0
M  V30 577 N 57.6459 0.756429 -1.3826 0
M  V30 578 C 58.5939 1.89149 -1.35372 0
M  V30 579 C 59.5879 1.67691 -0.24004 0
M  V30 580 O 60.7939 1.75294 -0.408919 0
M  V30 581 H 57.1689 0.622271 -0.422236 0
M  V30 582 H 59.1399 1.88701 -2.31159 0
M  V30 583 C 57.8889 3.26599 -1.19284 0
M  V30 584 H 57.2119 3.43695 -2.0424 0
M  V30 585 H 58.6519 4.06274 -1.21316 0
M  V30 586 C 57.1109 3.3675 0.100454 0
M  V30 587 O 57.6409 3.86951 1.07851 0
M  V30 588 N 55.8469 2.90179 0.15633 0
M  V30 589 H 55.3939 2.49517 -0.640253 0
M  V30 590 H 55.3519 2.97352 1.02123 0
M  V30 591 N 59.124 1.23083 0.984299 0
M  V30 592 C 60.37 1.06214 1.72761 0
M  V30 593 C 60.703 -0.400584 1.90024 0
M  V30 594 O 59.978 -1.29672 1.44967 0
M  V30 595 C 60.261 1.78375 3.12817 0
M  V30 596 C 60.114 3.32296 3.03149 0
M  V30 597 C 61.433 1.54309 4.12161 0
M  V30 598 H 58.552 0.387251 0.627061 0
M  V30 599 H 61.194 1.51536 1.14616 0
M  V30 600 H 59.344 1.39848 3.62457 0
M  V30 601 H 61.016 3.8032 2.61064 0
M  V30 602 H 59.259 3.6153 2.39747 0
M  V30 603 H 59.93 3.77972 4.02295 0
M  V30 604 H 62.406 1.87791 3.71314 0
M  V30 605 H 61.282 2.07281 5.08258 0
M  V30 606 H 61.543 0.477572 4.39513 0
M  V30 607 N 60.6021 -1.18246 1.0419 0
M  V30 608 C 61.8511 -1.87588 0.741194 0
M  V30 609 C 62.1641 -1.81303 -0.734066 0
M  V30 610 O 63.3701 -2.46019 -1.14834 0
M  V30 611 C 61.8261 -3.36538 1.27555 0
M  V30 612 C 61.4341 -3.51349 2.77953 0
M  V30 613 C 63.1781 -4.11273 1.05143 0
M  V30 614 C 61.0851 -4.94265 3.2474 0
M  V30 615 H 60.0151 -0.702622 0.273565 0
M  V30 616 H 62.6661 -1.33601 1.25789 0
M  V30 617 H 61.0481 -3.9 0.686703 0
M  V30 618 H 62.2221 -3.08153 3.42605 0
M  V30 619 H 60.5371 -2.90022 2.98791 0
M  V30 620 H 63.1341 -5.16689 1.37611 0
M  V30 621 H 63.4771 -4.16298 -0.0112774 0
M  V30 622 H 64.0101 -3.63987 1.60495 0
M  V30 623 H 60.7491 -4.94408 4.30396 0
M  V30 624 H 60.2691 -5.38172 2.64823 0
M  V30 625 H 61.9481 -5.62987 3.18834 0
M  V30 626 N 62.0802 -0.821533 -1.34494 0
M  V30 627 C 63.3082 -0.421884 -2.02553 0
M  V30 628 C 63.7232 0.971745 -1.61872 0
M  V30 629 O 63.0802 1.62864 -0.823496 0
M  V30 630 C 63.1312 -0.51285 -3.57844 0
M  V30 631 O 62.8522 -1.85155 -3.97051 0
M  V30 632 C 64.3532 -0.107921 -4.43169 0
M  V30 633 H 61.5732 -0.169482 -0.649243 0
M  V30 634 H 64.1172 -1.1093 -1.71798 0
M  V30 635 H 62.2722 0.126474 -3.87193 0
M  V30 636 H 62.6862 -1.82482 -4.91732 0
M  V30 637 H 64.1602 -0.222657 -5.51551 0
M  V30 638 H 64.6372 0.948401 -4.28838 0
M  V30 639 H 65.2432 -0.720989 -4.19144 0
M  V30 640 N 63.5583 1.46682 -0.576371 0
M  V30 641 C 64.8043 2.02712 -0.0596221 0
M  V30 642 C 65.1373 1.44765 1.29448 0
M  V30 643 O 64.4123 0.610355 1.84675 0
M  V30 644 C 64.6953 3.60098 0.0129503 0
M  V30 645 C 64.5483 4.28441 -1.3696 0
M  V30 646 C 65.8673 4.34224 0.71678 0
M  V30 647 H 62.9863 0.736637 -0.0231407 0
M  V30 648 H 65.6283 1.74898 -0.742351 0
M  V30 649 H 63.7783 3.83926 0.594378 0
M  V30 650 H 65.4503 4.15896 -1.9957 0
M  V30 651 H 63.6933 3.8805 -1.93907 0
M  V30 652 H 64.3643 5.3716 -1.27135 0
M  V30 653 H 66.8403 4.15503 0.222908 0
M  V30 654 H 65.7163 5.43936 0.73657 0
M  V30 655 H 65.9773 4.04823 1.77682 0
M  V30 656 N 65.0364 0.313813 1.54444 0
M  V30 657 C 66.2844 -0.291099 1.99993 0
M  V30 658 C 66.6054 -1.53418 1.20366 0
M  V30 659 O 65.8754 -1.93544 0.302927 0
M  V30 660 H 64.4554 -0.110552 0.738774 0
M  V30 661 H 67.1174 0.428106 1.9014 0
M  V30 662 H 66.2134 -0.554268 3.07139 0
M  V30 663 N 66.5145 -1.57545 0.0417849 0
M  V30 664 C 67.9255 -1.80011 -0.495259 0
M  V30 665 C 68.2765 -0.953199 -1.71489 0
M  V30 666 O 67.4015 -0.167138 -2.15754 0
M  V30 667 C 67.9965 -3.26482 -0.905265 0
M  V30 668 C 66.5555 -3.499 -1.38734 0
M  V30 669 C 65.7025 -2.74979 -0.358056 0
M  V30 670 H 68.6535 -1.56425 0.267736 0
M  V30 671 H 68.6745 -3.36887 -1.76882 0
M  V30 672 H 68.1865 -3.88096 -0.017401 0
M  V30 673 H 66.2875 -2.93553 -2.29471 0
M  V30 674 H 66.4005 -4.58615 -1.38598 0
M  V30 675 H 64.7645 -2.40834 -0.828912 0
M  V30 676 H 65.5475 -3.39315 0.521561 0
M  V30 677 N 67.9926 0.231505 -1.5589 0
M  V30 678 C 69.4086 0.580748 -1.48659 0
M  V30 679 C 69.6086 1.87617 -0.73498 0
M  V30 680 O 68.6646 2.51046 -0.270586 0
M  V30 681 C 69.9776 0.669202 -2.93159 0
M  V30 682 C 71.5256 0.760499 -3.03621 0
M  V30 683 C 72.0006 0.880383 -4.49459 0
M  V30 684 N 73.4916 0.944861 -4.53461 0
M  V30 685 C 74.2266 1.05716 -5.63571 0
M  V30 686 N 73.7226 1.13403 -6.83456 0
M  V30 687 N 75.5156 1.09152 -5.514 0
M  V30 688 H 67.6666 -0.618695 -2.03189 0
M  V30 689 H 69.9296 -0.215728 -0.923128 0
M  V30 690 H 69.6356 -0.212904 -3.51055 0
M  V30 691 H 69.5096 1.5361 -3.44505 0
M  V30 692 H 71.8966 1.63305 -2.45796 0
M  V30 693 H 71.9776 -0.131864 -2.5546 0
M  V30 694 H 71.6216 0.0123284 -5.07899 0
M  V30 695 H 71.5516 1.78802 -4.95316 0
M  V30 696 H 74.0426 0.896176 -3.6712 0
M  V30 697 H 74.3556 1.21921 -7.63122 0
M  V30 698 H 72.7006 1.10333 -6.86186 0
M  V30 699 H 75.8916 1.02805 -4.56671 0
M  V30 700 H 76.0646 1.17558 -6.37247 0
M  V30 701 N 69.4707 1.49531 0.497807 0
M  V30 702 C 70.7187 1.58865 1.24926 0
M  V30 703 C 71.0397 0.278721 1.92998 0
M  V30 704 O 70.3097 -0.702144 1.82885 0
M  V30 705 H 68.8897 0.585343 0.464094 0
M  V30 706 H 71.5517 1.86174 0.57666 0
M  V30 707 H 70.6477 2.38633 2.01149 0
M  V30 708 N 70.9488 -0.749086 1.3866 0
M  V30 709 C 72.3598 -1.32664 1.31366 0
M  V30 710 C 72.7108 -1.96179 -0.028484 0
M  V30 711 O 71.8358 -1.9537 -0.93057 0
M  V30 712 C 72.4308 -2.41219 2.37905 0
M  V30 713 C 70.9898 -2.94684 2.34176 0
M  V30 714 C 70.1368 -1.68108 2.20533 0
M  V30 715 H 73.0878 -0.547628 1.48952 0
M  V30 716 H 73.1088 -3.21268 2.0388 0
M  V30 717 H 72.6208 -1.94962 3.35576 0
M  V30 718 H 70.7218 -3.45258 1.401 0
M  V30 719 H 70.8348 -3.48757 3.2849 0
M  V30 720 H 69.1988 -1.91907 1.67463 0
M  V30 721 H 69.9818 -1.23923 3.20153 0
M  V30 722 N 72.4269 -1.23603 -0.977757 0
M  V30 723 C 73.3569 -1.04401 -2.0886 0
M  V30 724 C 74.3379 0.0399052 -1.70053 0
M  V30 725 O 75.5229 -0.125246 -1.93796 0
M  V30 726 C 72.6529 -0.637269 -3.41403 0
M  V30 727 C 71.6069 -1.66883 -3.94124 0
M  V30 728 C 70.9329 -1.11745 -5.22893 0
M  V30 729 C 72.2329 -3.06247 -4.23096 0
M  V30 730 H 73.9269 -1.97316 -2.25182 0
M  V30 731 H 71.4729 -0.950096 -1.08209 0
M  V30 732 H 73.4259 -0.48998 -4.18542 0
M  V30 733 H 72.1499 0.327557 -3.24953 0
M  V30 734 H 70.8089 -1.80416 -3.19133 0
M  V30 735 H 70.4569 -0.143527 -5.02795 0
M  V30 736 H 70.1569 -1.80672 -5.59134 0
M  V30 737 H 71.6809 -0.982067 -6.02651 0
M  V30 738 H 73.0949 -2.96001 -4.90975 0
M  V30 739 H 71.4919 -3.72436 -4.70544 0
M  V30 740 H 72.5619 -3.55041 -3.30263 0
M  V30 741 N 73.905 1.17692 -1.04816 0
M  V30 742 C 74.835 2.23777 -0.666791 0
M  V30 743 C 75.816 1.66796 0.33361 0
M  V30 744 O 77.001 1.93039 0.212042 0
M  V30 745 C 74.131 3.47281 -0.0367933 0
M  V30 746 C 73.085 4.17059 -0.961546 0
M  V30 747 C 72.411 5.34342 -0.195626 0
M  V30 748 C 73.711 4.69713 -2.28402 0
M  V30 749 H 75.405 2.55933 -1.55367 0
M  V30 750 H 72.951 1.23019 -0.748484 0
M  V30 751 H 74.904 4.20706 0.241775 0
M  V30 752 H 73.628 3.14381 0.885004 0
M  V30 753 H 72.287 3.45541 -1.22462 0
M  V30 754 H 71.935 4.97692 0.728816 0
M  V30 755 H 71.635 5.81966 -0.811775 0
M  V30 756 H 73.159 6.10553 0.0757473 0
M  V30 757 H 74.573 5.34794 -2.06563 0
M  V30 758 H 72.97 5.279 -2.8538 0
M  V30 759 H 74.04 3.86726 -2.92525 0
M  V30 760 N 75.3831 0.828654 1.34056 0
M  V30 761 C 76.6291 0.42008 1.98402 0
M  V30 762 C 76.9621 -1.01564 1.65525 0
M  V30 763 O 76.2371 -1.70834 0.929831 0
M  V30 764 C 76.5201 0.62927 3.54559 0
M  V30 765 C 76.3731 2.11152 3.97159 0
M  V30 766 C 77.6921 0.0688756 4.40046 0
M  V30 767 H 74.8111 0.154104 0.720709 0
M  V30 768 H 77.4531 1.04228 1.5886 0
M  V30 769 H 75.6031 0.0996418 3.88372 0
M  V30 770 H 77.2751 2.70522 3.73651 0
M  V30 771 H 75.5181 2.59985 3.47261 0
M  V30 772 H 76.1891 2.20868 5.05887 0
M  V30 773 H 78.6651 0.521458 4.1282 0
M  V30 774 H 77.5411 0.245006 5.48353 0
M  V30 775 H 77.8021 -1.0266 4.30015 0
M  V30 776 N 76.8612 -1.46375 0.584142 0
M  V30 777 C 77.7932 -2.28443 -0.186119 0
M  V30 778 C 78.8062 -1.38596 -0.854115 0
M  V30 779 O 79.9952 -1.63183 -0.723438 0
M  V30 780 C 77.0952 -3.13671 -1.28311 0
M  V30 781 C 76.2682 -4.31652 -0.706758 0
M  V30 782 C 75.3272 -4.98267 -1.69163 0
M  V30 783 O 74.3532 -5.55815 -1.22712 0
M  V30 784 N 75.5552 -4.95408 -3.02575 0
M  V30 785 H 78.3202 -2.9519 0.517986 0
M  V30 786 H 75.8812 -1.56303 0.42201 0
M  V30 787 H 77.8732 -3.55101 -1.94128 0
M  V30 788 H 76.4432 -2.48989 -1.89005 0
M  V30 789 H 75.6632 -3.93989 0.128908 0
M  V30 790 H 76.9512 -5.07906 -0.301506 0
M  V30 791 H 76.3492 -4.49902 -3.42936 0
M  V30 792 H 74.9062 -5.40774 -3.63877 0
M  V30 793 N 78.3393 -0.321999 -1.54275 0
M  V30 794 C 79.6163 0.335232 -1.92706 0
M  V30 795 C 79.9963 1.70006 -1.25145 0
M  V30 796 O 79.3443 2.25067 -0.394596 0
M  V30 797 C 79.5543 0.429008 -3.46353 0
M  V30 798 C 80.9023 0.690029 -4.18956 0
M  V30 799 O 81.9263 0.511992 -3.52501 0
M  V30 800 O 80.7853 1.03338 -5.36641 0
M  V30 801 H 77.8793 0.191143 -0.804608 0
M  V30 802 H 80.4253 -0.3716 -1.65581 0
M  V30 803 H 79.1973 -0.529611 -3.87699 0
M  V30 804 H 78.8203 1.18348 -3.79578 0
M  V30 805 N 79.8174 1.5752 -0.0501392 0
M  V30 806 C 81.0634 1.92936 0.624798 0
M  V30 807 C 81.3964 0.928685 1.70555 0
M  V30 808 O 80.6714 -0.0454779 1.94447 0
M  V30 809 C 80.9544 3.38737 1.22185 0
M  V30 810 C 80.8074 4.49552 0.149218 0
M  V30 811 C 82.1264 3.84913 2.13378 0
M  V30 812 H 79.2454 0.701604 0.225657 0
M  V30 813 H 81.8874 1.89671 -0.111693 0
M  V30 814 H 80.0374 3.4165 1.84953 0
M  V30 815 H 81.7094 4.58768 -0.482648 0
M  V30 816 H 79.9524 4.30638 -0.522841 0
M  V30 817 H 80.6234 5.48653 0.606966 0
M  V30 818 H 83.0994 3.8387 1.60572 0
M  V30 819 H 81.9754 4.87584 2.52097 0
M  V30 820 H 82.2364 3.21611 3.03346 0
M  V30 821 N 81.2955 -0.223234 1.56011 0
M  V30 822 C 82.5415 -0.949279 1.79211 0
M  V30 823 C 82.8745 -1.84054 0.619494 0
M  V30 824 O 82.1495 -1.90726 -0.381317 0
M  V30 825 C 82.4325 -1.78965 3.12479 0
M  V30 826 C 82.2855 -0.924997 4.40186 0
M  V30 827 C 83.6045 -2.76774 3.42175 0
M  V30 828 H 80.7235 -0.343676 0.651963 0
M  V30 829 H 83.3655 -0.218253 1.88742 0
M  V30 830 H 81.5155 -2.41291 3.04485 0
M  V30 831 H 83.1875 -0.318615 4.60198 0
M  V30 832 H 81.4305 -0.230344 4.33188 0
M  V30 833 H 82.1015 -1.54735 5.29869 0
M  V30 834 H 84.5775 -2.24584 3.50287 0
M  V30 835 H 83.4535 -3.32678 4.36597 0
M  V30 836 H 83.7145 -3.54429 2.64258 0
M  V30 837 N 82.7736 -1.49793 -0.48987 0
M  V30 838 C 84.0206 -1.59841 -1.24327 0
M  V30 839 C 84.3486 -0.290135 -1.92324 0
M  V30 840 O 83.6036 0.722749 -1.81865 0
M  V30 841 C 83.9026 -2.71488 -2.32441 0
M  V30 842 C 83.5686 -4.12614 -1.81826 0
M  V30 843 C 82.2306 -4.51017 -1.67742 0
M  V30 844 C 84.5826 -5.00892 -1.4407 0
M  V30 845 C 81.9106 -5.75459 -1.14297 0
M  V30 846 C 84.2626 -6.25863 -0.920742 0
M  V30 847 C 82.9266 -6.63086 -0.766383 0
M  V30 848 H 82.1966 -0.584899 -0.454944 0
M  V30 849 H 84.8436 -1.83663 -0.542215 0
M  V30 850 H 83.1486 -2.4168 -3.0838 0
M  V30 851 H 84.8456 -2.76469 -2.90458 0
M  V30 852 H 81.4356 -3.82307 -1.93751 0
M  V30 853 H 85.6196 -4.7187 -1.53794 0
M  V30 854 H 80.8756 -6.02989 -1.01068 0
M  V30 855 H 85.0496 -6.9364 -0.619448 0
M  V30 856 H 82.6766 -7.59393 -0.350083 0
M  V30 857 N 84.2517 0.741722 -1.39055 0
M  V30 858 C 85.4797 1.53098 -1.39171 0
M  V30 859 C 85.8947 1.88794 0.0155099 0
M  V30 860 O 85.2517 1.53626 0.985159 0
M  V30 861 C 85.3027 2.82274 -2.2584 0
M  V30 862 O 85.0237 2.48097 -3.61081 0
M  V30 863 C 86.5247 3.76343 -2.34266 0
M  V30 864 H 83.7447 0.473335 -0.4756 0
M  V30 865 H 86.2887 0.917045 -1.82785 0
M  V30 866 H 84.4437 3.40015 -1.85656 0
M  V30 867 H 84.8577 3.31029 -4.06842 0
M  V30 868 H 86.3317 4.63898 -2.9917 0
M  V30 869 H 86.8087 4.17619 -1.35982 0
M  V30 870 H 87.4147 3.24523 -2.74891 0
M  V30 871 N 85.7298 1.2412 0.971189 0
M  V30 872 C 87.0068 0.986867 1.6888 0
M  V30 873 C 87.3868 -0.491857 2.0529 0
M  V30 874 O 86.7348 -1.46531 1.75331 0
M  V30 875 C 86.9448 1.9063 2.92338 0
M  V30 876 C 88.2928 2.17515 3.64654 0
M  V30 877 O 89.3168 1.88254 3.02388 0
M  V30 878 O 88.1758 2.6719 4.7673 0
M  V30 879 H 85.2698 0.372944 0.738134 0
M  V30 880 H 87.8158 1.35203 1.02559 0
M  V30 881 H 86.5878 2.90552 2.62097 0
M  V30 882 H 86.2108 1.54408 3.66393 0
M  V30 883 N 87.2079 -1.17134 1.05439 0
M  V30 884 C 88.1179 -2.24878 0.668365 0
M  V30 885 C 89.1339 -1.71186 -0.311687 0
M  V30 886 O 90.3099 -2.00738 -0.163161 0
M  V30 887 C 87.3749 -3.46662 0.051648 0
M  V30 888 C 86.4359 -4.15429 1.08246 0
M  V30 889 C 85.6689 -5.31399 0.495082 0
M  V30 890 O 85.8919 -5.66153 -0.694743 0
M  V30 891 O 84.8259 -5.89187 1.23056 0
M  V30 892 H 88.6519 -2.60189 1.56637 0
M  V30 893 H 86.2369 -1.24482 0.826104 0
M  V30 894 H 88.1189 -4.20394 -0.290966 0
M  V30 895 H 86.7939 -3.13142 -0.819971 0
M  V30 896 H 85.7009 -3.43704 1.47711 0
M  V30 897 H 87.0339 -4.52982 1.92532 0
M  V30 898 N 88.686 -0.835752 -1.33615 0
M  V30 899 C 89.619 -0.211815 -2.27215 0
M  V30 900 C 90.597 0.639249 -1.49507 0
M  V30 901 O 91.781 0.600193 -1.78689 0
M  V30 902 C 88.908 0.702893 -3.31326 0
M  V30 903 C 87.954 -0.0723049 -4.26439 0
M  V30 904 S 88.787 -1.42811 -5.16106 0
M  V30 905 C 89.943 -0.518613 -6.23748 0
M  V30 906 H 90.176 -1.00533 -2.79786 0
M  V30 907 H 87.709 -0.632336 -1.40858 0
M  V30 908 H 89.667 1.22505 -3.91794 0
M  V30 909 H 88.328 1.47004 -2.77576 0
M  V30 910 H 87.521 0.62359 -5.00127 0
M  V30 911 H 87.123 -0.525424 -3.70291 0
M  V30 912 H 89.415 0.284778 -6.76901 0
M  V30 913 H 90.358 -1.22556 -6.97413 0
M  V30 914 H 90.766 -0.101344 -5.64409 0
M  V30 915 N 90.1641 1.46063 -0.591896 0
M  V30 916 C 91.1271 2.28854 0.125973 0
M  V30 917 C 92.1271 1.38903 0.810107 0
M  V30 918 O 93.3171 1.61186 0.66066 0
M  V30 919 C 90.4491 3.19526 1.1881 0
M  V30 920 H 91.6421 2.93802 -0.601717 0
M  V30 921 H 89.1951 1.52325 -0.350254 0
M  V30 922 H 89.9301 2.59345 1.94707 0
M  V30 923 H 89.7151 3.85766 0.701936 0
M  V30 924 H 91.2051 3.81817 1.69132 0
M  V30 925 N 91.6422 0.330177 1.54103 0
M  V30 926 C 92.5922 -0.548456 2.21305 0
M  V30 927 C 93.5762 -1.07651 1.19583 0
M  V30 928 O 94.7682 -1.01243 1.45186 0
M  V30 929 C 91.8972 -1.70559 2.97934 0
M  V30 930 C 90.9832 -1.19212 4.07 0
M  V30 931 N 91.3742 -0.398831 5.04225 0
M  V30 932 C 89.6722 -1.47024 4.2107 0
M  V30 933 C 90.3732 -0.121761 5.81573 0
M  V30 934 N 89.3492 -0.709722 5.38947 0
M  V30 935 H 93.1512 0.0648483 2.93828 0
M  V30 936 H 90.6652 0.136363 1.61826 0
M  V30 937 H 92.6622 -2.34688 3.44568 0
M  V30 938 H 91.3222 -2.32231 2.26934 0
M  V30 939 H 92.3332 -0.0410869 5.17884 0
M  V30 940 H 89.0102 -2.09232 3.61287 0
M  V30 941 H 90.4002 0.517298 6.69906 0
M  V30 942 N 93.1203 -1.57491 0.0584922 0
M  V30 943 C 94.3673 -1.92978 -0.613648 0
M  V30 944 C 94.6953 -0.937461 -1.70417 0
M  V30 945 O 93.9503 0.049078 -1.95638 0
M  V30 946 C 94.2493 -3.3513 -1.24188 0
M  V30 947 C 93.9153 -4.50037 -0.278826 0
M  V30 948 C 92.5773 -4.81198 -0.0138447 0
M  V30 949 C 94.9293 -5.19807 0.380777 0
M  V30 950 C 92.2573 -5.79473 0.918052 0
M  V30 951 C 94.6093 -6.19079 1.30091 0
M  V30 952 C 93.2733 -6.48665 1.57449 0
M  V30 953 H 92.5433 -0.706157 -0.22455 0
M  V30 954 H 95.1903 -1.91082 0.126533 0
M  V30 955 H 93.4953 -3.33429 -2.05749 0
M  V30 956 H 95.1923 -3.59871 -1.769 0
M  V30 957 H 91.7823 -4.25726 -0.495539 0
M  V30 958 H 95.9663 -4.95939 0.189158 0
M  V30 959 H 91.2223 -6.00727 1.1374 0
M  V30 960 H 95.3963 -6.7225 1.81804 0
M  V30 961 H 93.0233 -7.24628 2.29822 0
M  V30 962 N 94.5984 0.214957 -1.56127 0
M  V30 963 C 95.8754 0.963093 -1.70247 0
M  V30 964 C 96.2554 2.02166 -0.60764 0
M  V30 965 O 95.6034 2.25244 0.384385 0
M  V30 966 C 95.8134 1.56756 -3.11815 0
M  V30 967 C 97.1614 2.0573 -3.7143 0
M  V30 968 O 98.1854 1.66637 -3.14818 0
M  V30 969 O 97.0444 2.77603 -4.70743 0
M  V30 970 H 94.1384 0.450321 -0.693643 0
M  V30 971 H 96.6844 0.206219 -1.68442 0
M  V30 972 H 95.4564 0.803533 -3.82961 0
M  V30 973 H 95.0794 2.3898 -3.17765 0
M  V30 974 N 96.0765 1.50051 0.48192 0
M  V30 975 C 97.4925 1.37237 0.814756 0
M  V30 976 C 97.6925 0.420109 1.97072 0
M  V30 977 O 96.7485 -0.141246 2.52105 0
M  V30 978 C 98.0615 2.78375 1.13701 0
M  V30 979 C 99.6095 2.87213 1.2441 0
M  V30 980 C 100.084 4.29161 1.59954 0
M  V30 981 N 101.575 4.32061 1.66967 0
M  V30 982 C 102.31 5.38879 1.95952 0
M  V30 983 N 101.806 6.55918 2.23031 0
M  V30 984 N 103.599 5.26312 1.97363 0
M  V30 985 H 95.7505 2.10546 -0.28005 0
M  V30 986 H 98.0135 0.945921 -0.0627454 0
M  V30 987 H 97.7195 3.49845 0.360787 0
M  V30 988 H 97.5935 3.14941 2.07586 0
M  V30 989 H 99.9805 2.15969 2.01101 0
M  V30 990 H 100.061 2.54204 0.285299 0
M  V30 991 H 99.7055 5.00938 0.838067 0
M  V30 992 H 99.6355 4.59648 2.56966 0
M  V30 993 H 102.126 3.47661 1.48123 0
M  V30 994 H 102.439 7.33139 2.44391 0
M  V30 995 H 100.784 6.59112 2.20447 0
M  V30 996 H 103.975 4.33876 1.75697 0
M  V30 997 H 104.148 6.09649 2.19618 0
M  V30 998 N 97.5546 -0.734337 1.39446 0
M  V30 999 C 98.4646 -1.87879 1.40495 0
M  V30 1000 C 99.4806 -1.714 0.299672 0
M  V30 1001 O 100.657 -1.93991 0.541249 0
M  V30 1002 C 97.7216 -3.23477 1.24754 0
M  V30 1003 C 96.7826 -3.52344 2.45259 0
M  V30 1004 C 96.0156 -4.81473 2.30259 0
M  V30 1005 O 96.2386 -5.55237 1.30643 0
M  V30 1006 O 95.1726 -5.10254 3.19256 0
M  V30 1007 H 98.9986 -1.89949 2.36966 0
M  V30 1008 H 96.5836 -0.882243 1.20569 0
M  V30 1009 H 98.4656 -4.04509 1.18111 0
M  V30 1010 H 97.1406 -3.22176 0.313781 0
M  V30 1011 H 96.0476 -2.71396 2.57478 0
M  V30 1012 H 97.3806 -3.58426 3.37331 0
M  V30 1013 N 99.0327 -1.24633 -0.964593 0
M  V30 1014 C 100.449 -1.01239 -1.2338 0
M  V30 1015 C 100.649 0.2769 -1.99588 0
M  V30 1016 O 99.7047 0.992241 -2.32187 0
M  V30 1017 C 101.018 -2.22937 -2.01791 0
M  V30 1018 C 102.566 -2.27594 -2.14872 0
M  V30 1019 C 103.041 -3.48921 -2.96678 0
M  V30 1020 N 104.532 -3.49257 -3.04259 0
M  V30 1021 C 105.267 -4.39795 -3.67924 0
M  V30 1022 N 104.763 -5.40591 -4.33281 0
M  V30 1023 N 106.556 -4.275 -3.64966 0
M  V30 1024 H 98.7067 -2.0748 -0.454502 0
M  V30 1025 H 100.97 -0.910647 -0.26349 0
M  V30 1026 H 100.676 -3.16587 -1.53184 0
M  V30 1027 H 100.55 -2.25306 -3.02518 0
M  V30 1028 H 102.937 -1.34473 -2.6268 0
M  V30 1029 H 103.018 -2.2925 -1.13482 0
M  V30 1030 H 102.662 -4.42359 -2.49562 0
M  V30 1031 H 102.592 -3.4451 -3.98272 0
M  V30 1032 H 105.083 -2.76337 -2.57771 0
M  V30 1033 H 105.396 -6.05904 -4.79687 0
M  V30 1034 H 103.741 -5.44475 -4.3194 0
M  V30 1035 H 106.932 -3.47987 -3.13086 0
M  V30 1036 H 107.105 -4.98258 -4.14298 0
M  V30 1037 N 100.511 1.16574 -1.06058 0
M  V30 1038 C 101.76 1.86385 -0.770944 0
M  V30 1039 C 102.073 1.82448 0.705129 0
M  V30 1040 O 103.279 2.47815 1.10905 0
M  V30 1041 C 101.735 3.34466 -1.32893 0
M  V30 1042 C 101.343 3.46883 -2.83507 0
M  V30 1043 C 103.087 4.09548 -1.11672 0
M  V30 1044 C 100.994 4.89036 -3.32562 0
M  V30 1045 H 99.9238 0.698181 -0.284709 0
M  V30 1046 H 102.575 1.31583 -1.27899 0
M  V30 1047 H 100.957 3.88859 -0.748662 0
M  V30 1048 H 102.131 3.02663 -3.47465 0
M  V30 1049 H 100.446 2.85232 -3.03368 0
M  V30 1050 H 103.043 5.14434 -1.45814 0
M  V30 1051 H 103.386 4.16264 -0.0549535 0
M  V30 1052 H 103.919 3.61387 -1.66265 0
M  V30 1053 H 100.658 4.87499 -4.38207 0
M  V30 1054 H 100.178 5.3389 -2.73351 0
M  V30 1055 H 101.857 5.57843 -3.2775 0
M  V30 1056 N 101.989 0.842826 1.3317 0
M  V30 1057 C 103.4 0.496651 1.79973 0
M  V30 1058 C 103.751 -0.984641 1.69703 0
M  V30 1059 O 102.876 -1.76743 1.24863 0
M  V30 1060 C 103.471 0.894727 3.26772 0
M  V30 1061 C 102.03 0.600629 3.71577 0
M  V30 1062 C 101.177 1.10091 2.5451 0
M  V30 1063 H 104.128 1.03116 1.20635 0
M  V30 1064 H 104.149 0.206347 3.7994 0
M  V30 1065 H 103.661 1.97287 3.34215 0
M  V30 1066 H 101.762 -0.467284 3.69658 0
M  V30 1067 H 101.875 1.15863 4.64879 0
M  V30 1068 H 100.239 0.52162 2.49301 0
M  V30 1069 H 101.022 2.18591 2.64713 0
M  V30 1070 N 103.467 -1.45747 0.599634 0
M  V30 1071 C 104.377 -2.34262 -0.125888 0
M  V30 1072 C 105.393 -1.50768 -0.868625 0
M  V30 1073 O 106.569 -1.83592 -0.828003 0
M  V30 1074 C 103.634 -3.28252 -1.11587 0
M  V30 1075 C 102.695 -4.27651 -0.375956 0
M  V30 1076 C 101.928 -5.1715 -1.31877 0
M  V30 1077 O 102.151 -5.09916 -2.55621 0
M  V30 1078 O 101.085 -5.96286 -0.820157 0
M  V30 1079 H 104.911 -2.97688 0.601315 0
M  V30 1080 H 102.496 -1.44999 0.359934 0
M  V30 1081 H 104.378 -3.86191 -1.68626 0
M  V30 1082 H 103.053 -2.67401 -1.82424 0
M  V30 1083 H 101.96 -3.7335 0.236698 0
M  V30 1084 H 103.293 -4.91334 0.29177 0
M  V30 1085 N 104.945 -0.338344 -1.53925 0
M  V30 1086 C 106.361 0.0137736 -1.59594 0
M  V30 1087 C 106.561 1.49186 -1.35447 0
M  V30 1088 O 105.617 2.24987 -1.14616 0
M  V30 1089 C 106.93 -0.41773 -2.97784 0
M  V30 1090 C 108.478 -0.369633 -3.1081 0
M  V30 1091 C 108.953 -0.776524 -4.51369 0
M  V30 1092 N 110.444 -0.730506 -4.57403 0
M  V30 1093 C 111.179 -1.01736 -5.64303 0
M  V30 1094 N 110.675 -1.3721 -6.79077 0
M  V30 1095 N 112.468 -0.941942 -5.54151 0
M  V30 1096 H 104.619 -1.3012 -1.67876 0
M  V30 1097 H 106.882 -0.530082 -0.78595 0
M  V30 1098 H 106.588 -1.44811 -3.20504 0
M  V30 1099 H 106.462 0.209729 -3.76616 0
M  V30 1100 H 108.849 0.651568 -2.87817 0
M  V30 1101 H 108.93 -1.03223 -2.34049 0
M  V30 1102 H 108.574 -1.79571 -4.75096 0
M  V30 1103 H 108.504 -0.0914649 -5.26521 0
M  V30 1104 H 110.995 -0.468783 -3.74981 0
M  V30 1105 H 111.308 -1.57597 -7.5656 0
M  V30 1106 H 109.653 -1.4105 -6.80536 0
M  V30 1107 H 112.844 -0.664184 -4.63364 0
M  V30 1108 H 113.017 -1.16884 -6.37371 0
M  V30 1109 N 106.423 1.57458 -0.0668435 0
M  V30 1110 C 107.669 1.93587 0.6043 0
M  V30 1111 C 108.002 0.946722 1.69561 0
M  V30 1112 O 107.277 -0.0248516 1.94484 0
M  V30 1113 C 107.56 3.40014 1.18585 0
M  V30 1114 C 107.413 4.49685 0.101529 0
M  V30 1115 C 108.732 3.87154 2.09284 0
M  V30 1116 H 105.851 0.703958 0.218202 0
M  V30 1117 H 108.493 1.89542 -0.131804 0
M  V30 1118 H 106.643 3.43592 1.81319 0
M  V30 1119 H 108.315 4.5823 -0.531279 0
M  V30 1120 H 106.558 4.30059 -0.568487 0
M  V30 1121 H 107.229 5.49266 0.54874 0
M  V30 1122 H 109.705 3.85551 1.56491 0
M  V30 1123 H 108.581 4.90231 2.46911 0
M  V30 1124 H 108.842 3.2481 2.99918 0
M  V30 1125 N 107.901 -0.206675 1.56239 0
M  V30 1126 C 109.147 -0.930218 1.80208 0
M  V30 1127 C 109.48 -1.83387 0.638981 0
M  V30 1128 O 108.755 -1.91119 -0.361066 0
M  V30 1129 C 109.038 -1.75641 3.1436 0
M  V30 1130 C 108.891 -0.878257 4.41142 0
M  V30 1131 C 110.21 -2.73129 3.45092 0
M  V30 1132 H 107.329 -0.336742 0.655571 0
M  V30 1133 H 109.971 -0.198222 1.88963 0
M  V30 1134 H 108.121 -2.38048 3.07027 0
M  V30 1135 H 109.793 -0.269787 4.6051 0
M  V30 1136 H 108.036 -0.184385 4.33408 0
M  V30 1137 H 108.707 -1.49106 5.3148 0
M  V30 1138 H 111.183 -2.20856 3.52649 0
M  V30 1139 H 110.059 -3.28028 4.40101 0
M  V30 1140 H 110.32 -3.51606 2.68003 0
M  V30 1141 N 109.379 -1.50304 -0.473955 0
M  V30 1142 C 110.329 -1.65347 -1.56985 0
M  V30 1143 C 111.313 -0.508176 -1.52664 0
M  V30 1144 O 112.505 -0.762446 -1.59737 0
M  V30 1145 C 109.634 -1.74832 -2.95447 0
M  V30 1146 C 108.72 -2.95028 -3.04662 0
M  V30 1147 N 109.111 -4.18747 -2.83698 0
M  V30 1148 C 107.409 -2.93527 -3.35795 0
M  V30 1149 C 108.11 -4.99687 -2.97805 0
M  V30 1150 N 107.086 -4.33585 -3.2788 0
M  V30 1151 H 110.888 -2.58698 -1.39472 0
M  V30 1152 H 108.402 -1.47449 -0.680629 0
M  V30 1153 H 110.399 -1.83712 -3.7424 0
M  V30 1154 H 109.059 -0.826376 -3.14008 0
M  V30 1155 H 110.07 -4.48291 -2.59337 0
M  V30 1156 H 106.747 -2.10821 -3.60362 0
M  V30 1157 H 108.137 -6.08057 -2.85861 0
M  V30 1158 N 110.857 0.726932 -1.39834 0
M  V30 1159 C 111.82 1.82269 -1.38962 0
M  V30 1160 C 112.82 1.58248 -0.285334 0
M  V30 1161 O 114.01 1.65499 -0.54366 0
M  V30 1162 C 111.142 3.20186 -1.17019 0
M  V30 1163 H 112.335 1.84443 -2.36476 0
M  V30 1164 H 109.888 0.931416 -1.25516 0
M  V30 1165 H 110.623 3.23669 -0.202204 0
M  V30 1166 H 110.408 3.3902 -1.96998 0
M  V30 1167 H 111.898 4.00235 -1.1917 0
M  V30 1168 N 112.336 1.25143 0.95797 0
M  V30 1169 C 113.283 1.05235 2.05412 0
M  V30 1170 C 114.253 -0.0374561 1.66058 0
M  V30 1171 O 115.438 0.119073 1.90428 0
M  V30 1172 C 112.578 0.673589 3.38462 0
M  V30 1173 C 111.691 1.8379 3.90954 0
M  V30 1174 C 110.826 1.40381 5.12315 0
M  V30 1175 C 109.865 2.53746 5.57027 0
M  V30 1176 N 109.002 2.11136 6.69601 0
M  V30 1177 H 113.842 1.99048 2.21774 0
M  V30 1178 H 111.379 0.991277 1.08683 0
M  V30 1179 H 113.337 0.434964 4.14926 0
M  V30 1180 H 111.967 -0.227554 3.21997 0
M  V30 1181 H 111.019 2.18992 3.11041 0
M  V30 1182 H 112.331 2.68937 4.20089 0
M  V30 1183 H 111.485 1.12464 5.96185 0
M  V30 1184 H 110.224 0.523015 4.84887 0
M  V30 1185 H 109.229 2.82412 4.71724 0
M  V30 1186 H 110.454 3.42398 5.86464 0
M  V30 1187 H 108.4 1.25468 6.4389 0
M  V30 1188 H 108.317 2.89832 6.98236 0
M  V30 1189 H 109.585 1.86385 7.56889 0
M  V30 1190 N 113.814 -1.1601 1.06675 0
M  V30 1191 C 115.062 -1.86264 0.784229 0
M  V30 1192 C 115.383 -1.82328 -0.691488 0
M  V30 1193 O 114.653 -1.25947 -1.50047 0
M  V30 1194 H 113.233 -0.689621 0.28711 0
M  V30 1195 H 115.895 -1.40664 1.34906 0
M  V30 1196 H 114.991 -2.91595 1.11259 0
M  V30 1197 N 115.292 -0.849877 -1.32721 0
M  V30 1198 C 116.255 -0.296122 -2.27279 0
M  V30 1199 C 117.255 0.541458 -1.5141 0
M  V30 1200 O 118.445 0.353658 -1.70572 0
M  V30 1201 C 115.577 0.581579 -3.35902 0
M  V30 1202 H 116.77 -1.13064 -2.77771 0
M  V30 1203 H 114.323 -0.62383 -1.43311 0
M  V30 1204 H 115.058 1.43809 -2.9067 0
M  V30 1205 H 114.843 -0.0178814 -3.92096 0
M  V30 1206 H 116.333 0.961951 -4.0637 0
M  V30 1207 N 116.77 1.45427 -0.607355 0
M  V30 1208 C 118.018 2.01841 -0.102253 0
M  V30 1209 C 118.339 1.47832 1.27164 0
M  V30 1210 O 117.609 0.672497 1.83995 0
M  V30 1211 H 116.189 0.746188 -0.0348101 0
M  V30 1212 H 118.851 1.78229 -0.7887 0
M  V30 1213 H 117.947 3.12057 -0.0518585 0
M  V30 1214 N 118.248 0.346503 1.53744 0
M  V30 1215 C 119.211 -0.496439 2.23759 0
M  V30 1216 C 120.211 -1.0252 1.2388 0
M  V30 1217 O 121.401 -0.913974 1.48297 0
M  V30 1218 C 118.533 -1.69187 2.95954 0
M  V30 1219 H 119.726 0.115952 2.99676 0
M  V30 1220 H 117.279 0.0978939 1.55993 0
M  V30 1221 H 118.014 -2.34288 2.24231 0
M  V30 1222 H 117.799 -1.31989 3.69217 0
M  V30 1223 H 119.289 -2.28969 3.49232 0
M  V30 1224 N 119.726 -1.57421 0.075193 0
M  V30 1225 C 120.973 -1.93618 -0.593146 0
M  V30 1226 C 121.301 -0.955484 -1.69413 0
M  V30 1227 O 120.556 0.0283251 -1.9568 0
M  V30 1228 C 120.855 -3.36428 -1.20626 0
M  V30 1229 C 120.521 -4.50307 -0.231078 0
M  V30 1230 C 119.183 -4.81186 0.0371936 0
M  V30 1231 C 121.535 -5.19374 0.435888 0
M  V30 1232 C 118.863 -5.78466 0.979461 0
M  V30 1233 C 121.215 -6.17665 1.3665 0
M  V30 1234 C 119.879 -6.46958 1.6432 0
M  V30 1235 H 119.149 -0.708499 -0.217047 0
M  V30 1236 H 121.796 -1.90937 0.146793 0
M  V30 1237 H 120.101 -3.35592 -2.02201 0
M  V30 1238 H 121.798 -3.61727 -1.73073 0
M  V30 1239 H 118.388 -4.26227 -0.450357 0
M  V30 1240 H 122.572 -4.95711 0.241748 0
M  V30 1241 H 117.828 -5.99487 1.20106 0
M  V30 1242 H 122.002 -6.70284 1.88924 0
M  V30 1243 H 119.629 -7.2215 2.37494 0
M  V30 1244 N 121.204 0.198386 -1.56346 0
M  V30 1245 C 122.452 0.91747 -1.80075 0
M  V30 1246 C 122.773 1.83929 -0.647692 0
M  V30 1247 O 122.043 1.93029 0.334166 0
M  V30 1248 H 120.623 0.341774 -0.664228 0
M  V30 1249 H 123.285 0.204684 -1.93822 0
M  V30 1250 H 122.381 1.51055 -2.7311 0
M  V30 1251 N 122.682 1.50554 0.465978 0
M  V30 1252 C 123.912 1.65323 1.23903 0
M  V30 1253 C 124.32 0.338051 1.86155 0
M  V30 1254 O 123.663 -0.690518 1.70228 0
M  V30 1255 C 123.725 2.69048 2.3844 0
M  V30 1256 C 123.389 4.12462 1.96784 0
M  V30 1257 C 124.386 4.98168 1.48745 0
M  V30 1258 C 122.071 4.58407 2.05349 0
M  V30 1259 C 124.065 6.27868 1.0982 0
M  V30 1260 C 121.752 5.88112 1.66035 0
M  V30 1261 C 122.75 6.72668 1.18349 0
M  V30 1262 O 122.438 7.99951 0.795825 0
M  V30 1263 H 122.17 0.558629 0.38067 0
M  V30 1264 H 124.724 1.97561 0.562022 0
M  V30 1265 H 122.954 2.32062 3.09328 0
M  V30 1266 H 124.643 2.72985 3.0039 0
M  V30 1267 H 125.409 4.63885 1.41546 0
M  V30 1268 H 121.288 3.92735 2.41414 0
M  V30 1269 H 124.832 6.93819 0.725293 0
M  V30 1270 H 120.729 6.21914 1.72895 0
M  V30 1271 H 121.497 8.13265 0.924222 0
M  V30 1272 N 124.16 -0.719506 1.40217 0
M  V30 1273 C 125.407 -1.47933 1.38283 0
M  V30 1274 C 125.735 -1.94493 -0.0161536 0
M  V30 1275 O 124.99 -1.68224 -0.999956 0
M  V30 1276 C 125.289 -2.72271 2.31524 0
M  V30 1277 C 124.955 -2.44496 3.78857 0
M  V30 1278 C 123.617 -2.36631 4.18998 0
M  V30 1279 C 125.969 -2.21104 4.71977 0
M  V30 1280 C 123.297 -2.03437 5.503 0
M  V30 1281 C 125.649 -1.89423 6.03574 0
M  V30 1282 C 124.313 -1.80038 6.42762 0
M  V30 1283 H 123.583 -0.541325 0.506012 0
M  V30 1284 H 126.23 -0.824502 1.72842 0
M  V30 1285 H 124.535 -3.42572 1.90137 0
M  V30 1286 H 126.232 -3.30348 2.27313 0
M  V30 1287 H 122.822 -2.51503 3.47051 0
M  V30 1288 H 127.006 -2.26139 4.41786 0
M  V30 1289 H 122.262 -1.94705 5.79569 0
M  V30 1290 H 126.436 -1.70336 6.75247 0
M  V30 1291 H 124.063 -1.54083 7.44421 0
M  V30 1292 N 125.638 -1.25649 -0.95132 0
M  V30 1293 C 126.548 -1.08073 -2.08224 0
M  V30 1294 C 127.564 -0.0169666 -1.73992 0
M  V30 1295 O 128.74 -0.218593 -2.0021 0
M  V30 1296 C 125.805 -0.704922 -3.39458 0
M  V30 1297 C 124.866 -1.84699 -3.87537 0
M  V30 1298 C 124.099 -1.48902 -5.12508 0
M  V30 1299 O 124.322 -0.386156 -5.69091 0
M  V30 1300 O 123.256 -2.32033 -5.55378 0
M  V30 1301 H 127.082 -2.02924 -2.25954 0
M  V30 1302 H 124.667 -1.04618 -1.06656 0
M  V30 1303 H 126.549 -0.507609 -4.18332 0
M  V30 1304 H 125.224 0.214291 -3.2299 0
M  V30 1305 H 124.131 -2.09919 -3.09653 0
M  V30 1306 H 125.464 -2.74557 -4.08509 0
M  V30 1307 N 127.117 1.15442 -1.07289 0
M  V30 1308 C 128.363 1.86489 -0.796846 0
M  V30 1309 C 128.696 1.82078 0.675371 0
M  V30 1310 O 127.971 1.24346 1.4956 0
M  V30 1311 C 128.254 3.35626 -1.30489 0
M  V30 1312 C 128.107 3.48673 -2.84161 0
M  V30 1313 C 129.426 4.30357 -0.920907 0
M  V30 1314 H 126.545 0.677144 -0.290939 0
M  V30 1315 H 129.187 1.35633 -1.33056 0
M  V30 1316 H 127.337 3.79068 -0.850883 0
M  V30 1317 H 129.009 3.14099 -3.37846 0
M  V30 1318 H 127.252 2.90253 -3.22391 0
M  V30 1319 H 127.923 4.53453 -3.14777 0
M  V30 1320 H 130.399 3.94871 -1.3121 0
M  V30 1321 H 129.275 5.33193 -1.30372 0
M  V30 1322 H 129.536 4.4176 0.173226 0
M  V30 1323 N 128.595 0.856903 1.32268 0
M  V30 1324 C 129.823 0.475439 2.01363 0
M  V30 1325 C 130.238 -0.928486 1.64392 0
M  V30 1326 O 129.595 -1.60624 0.866387 0
M  V30 1327 C 129.646 0.607545 3.56358 0
M  V30 1328 O 129.367 1.95617 3.92002 0
M  V30 1329 C 130.868 0.225382 4.42727 0
M  V30 1330 H 128.088 0.186636 0.644521 0
M  V30 1331 H 130.632 1.15446 1.68797 0
M  V30 1332 H 128.787 -0.0237719 3.87393 0
M  V30 1333 H 129.201 1.95455 4.86721 0
M  V30 1334 H 130.675 0.368813 5.50767 0
M  V30 1335 H 131.152 -0.834369 4.31202 0
M  V30 1336 H 131.758 0.831864 4.17085 0
M  V30 1337 N 130.073 -1.45103 0.615059 0
M  V30 1338 C 131.023 -2.27679 -0.120966 0
M  V30 1339 C 132.007 -1.3775 -0.831491 0
M  V30 1340 O 133.199 -1.61683 -0.720249 0
M  V30 1341 C 130.328 -3.24767 -1.1127 0
M  V30 1342 C 129.414 -4.22184 -0.402627 0
M  V30 1343 N 129.805 -5.02692 0.559884 0
M  V30 1344 C 128.103 -4.4125 -0.649202 0
M  V30 1345 C 128.804 -5.73421 0.977942 0
M  V30 1346 N 127.78 -5.42657 0.320104 0
M  V30 1347 H 131.582 -2.87325 0.618181 0
M  V30 1348 H 129.096 -1.56345 0.439304 0
M  V30 1349 H 131.093 -3.82666 -1.65446 0
M  V30 1350 H 129.753 -2.66682 -1.85232 0
M  V30 1351 H 130.764 -5.09354 0.936976 0
M  V30 1352 H 127.441 -3.9428 -1.37293 0
M  V30 1353 H 128.831 -6.48107 1.77222 0
M  V30 1354 N 131.551 -0.354651 -1.53558 0
M  V30 1355 C 132.828 0.294281 -1.93374 0
M  V30 1356 C 133.208 1.67313 -1.28723 0
M  V30 1357 O 132.556 2.24179 -0.442247 0
M  V30 1358 C 132.766 0.355445 -3.47185 0
M  V30 1359 C 134.114 0.601007 -4.20325 0
M  V30 1360 O 135.138 0.437106 -3.53508 0
M  V30 1361 O 133.997 0.919322 -5.38712 0
M  V30 1362 H 131.091 0.174033 -0.808481 0
M  V30 1363 H 133.637 -0.406638 -1.64756 0
M  V30 1364 H 132.409 -0.611729 -3.86489 0
M  V30 1365 H 132.032 1.1027 -3.82003 0
M  V30 1366 N 133.029 1.57378 -0.0835403 0
M  V30 1367 C 134.278 1.93106 0.582498 0
M  V30 1368 C 134.591 0.96651 1.70053 0
M  V30 1369 O 135.797 1.21705 2.42693 0
M  V30 1370 C 134.253 3.43076 1.08751 0
M  V30 1371 C 133.861 4.48 -0.000146404 0
M  V30 1372 C 135.605 3.87785 1.72694 0
M  V30 1373 C 133.512 5.89113 0.519568 0
M  V30 1374 H 132.442 0.720775 0.221358 0
M  V30 1375 H 135.093 1.82821 -0.157675 0
M  V30 1376 H 133.475 3.48474 1.88101 0
M  V30 1377 H 134.649 4.54233 -0.775199 0
M  V30 1378 H 132.964 4.1283 -0.54406 0
M  V30 1379 H 135.561 4.90604 2.1263 0
M  V30 1380 H 135.904 3.25796 2.59158 0
M  V30 1381 H 136.437 3.8504 0.999457 0
M  V30 1382 H 133.176 6.54775 -0.308186 0
M  V30 1383 H 132.696 5.86376 1.26188 0
M  V30 1384 H 134.375 6.39346 0.992237 0
M  V30 1385 N 134.507 -0.190092 1.56449 0
M  V30 1386 C 135.735 -0.925772 1.85033 0
M  V30 1387 C 136.15 -1.76638 0.666658 0
M  V30 1388 O 135.507 -1.78822 -0.364565 0
M  V30 1389 C 135.558 -1.81786 3.12468 0
M  V30 1390 O 135.279 -1.01118 4.26271 0
M  V30 1391 C 136.78 -2.6648 3.54265 0
M  V30 1392 H 134 -0.269872 0.614337 0
M  V30 1393 H 136.544 -0.195837 2.0356 0
M  V30 1394 H 134.699 -2.50136 2.95822 0
M  V30 1395 H 135.113 -1.61956 4.98869 0
M  V30 1396 H 136.587 -3.24722 4.46385 0
M  V30 1397 H 137.064 -3.40434 2.77491 0
M  V30 1398 H 137.67 -2.03493 3.73458 0
M  V30 1399 N 135.985 -1.50799 -0.457987 0
M  V30 1400 C 136.932 -1.70617 -1.5543 0
M  V30 1401 C 137.902 -0.547562 -1.56815 0
M  V30 1402 O 139.087 -0.779647 -1.74144 0
M  V30 1403 C 136.227 -1.81831 -2.93311 0
M  V30 1404 C 135.34 -3.09278 -3.01615 0
M  V30 1405 C 134.475 -3.11209 -4.30491 0
M  V30 1406 C 133.514 -4.33055 -4.32585 0
M  V30 1407 N 132.651 -4.32652 -5.52952 0
M  V30 1408 H 137.491 -2.64207 -1.37836 0
M  V30 1409 H 135.028 -1.30959 -0.669937 0
M  V30 1410 H 136.986 -1.86314 -3.73287 0
M  V30 1411 H 135.616 -0.916685 -3.0951 0
M  V30 1412 H 134.668 -3.14203 -2.1443 0
M  V30 1413 H 135.98 -3.99233 -2.99022 0
M  V30 1414 H 135.134 -3.14494 -5.18824 0
M  V30 1415 H 133.873 -2.19106 -4.35711 0
M  V30 1416 H 132.878 -4.29969 -3.42647 0
M  V30 1417 H 134.103 -5.264 -4.29046 0
M  V30 1418 H 132.049 -3.43409 -5.58933 0
M  V30 1419 H 131.966 -5.16392 -5.52155 0
M  V30 1420 H 133.234 -4.40101 -6.43375 0
M  V30 1421 N 137.463 0.71206 -1.40597 0
M  V30 1422 C 138.693 1.49894 -1.42181 0
M  V30 1423 C 139.101 1.89189 -0.0208078 0
M  V30 1424 O 138.444 1.56223 0.966436 0
M  V30 1425 C 138.506 2.80215 -2.25211 0
M  V30 1426 C 138.17 2.63221 -3.73582 0
M  V30 1427 C 139.167 2.30249 -4.66135 0
M  V30 1428 C 136.852 2.79376 -4.17438 0
M  V30 1429 C 138.846 2.13645 -6.00529 0
M  V30 1430 C 136.533 2.6239 -5.51901 0
M  V30 1431 C 137.531 2.29573 -6.43262 0
M  V30 1432 O 137.219 2.12719 -7.75246 0
M  V30 1433 H 136.951 0.469031 -0.486812 0
M  V30 1434 H 139.505 0.88564 -1.85326 0
M  V30 1435 H 137.735 3.4389 -1.76852 0
M  V30 1436 H 139.424 3.41947 -2.18694 0
M  V30 1437 H 140.19 2.17398 -4.33547 0
M  V30 1438 H 136.069 3.03906 -3.46644 0
M  V30 1439 H 139.613 1.87953 -6.71803 0
M  V30 1440 H 135.51 2.74826 -5.84073 0
M  V30 1441 H 136.278 2.27611 -7.86216 0
M  V30 1442 N 138.941 1.26152 0.944643 0
M  V30 1443 C 140.166 1.14363 1.7302 0
M  V30 1444 C 140.591 -0.29772 1.85729 0
M  V30 1445 O 139.949 -1.2157 1.34501 0
M  V30 1446 C 139.997 1.81378 3.11664 0
M  V30 1447 O 139.101 1.10022 3.97453 0
M  V30 1448 H 138.442 0.398694 0.53098 0
M  V30 1449 H 140.972 1.66906 1.18337 0
M  V30 1450 H 140.982 1.88064 3.62072 0
M  V30 1451 H 139.657 2.86237 3.0173 0
M  V30 1452 H 138.234 1.11287 3.55907 0
M  V30 1453 N 140.419 -1.14872 1.07899 0
M  V30 1454 C 141.366 -2.19791 0.704319 0
M  V30 1455 C 142.336 -1.63238 -0.306987 0
M  V30 1456 O 143.521 -1.8983 -0.192171 0
M  V30 1457 C 140.661 -3.44911 0.114244 0
M  V30 1458 C 139.774 -4.15637 1.1777 0
M  V30 1459 C 138.909 -5.28324 0.552037 0
M  V30 1460 C 137.948 -5.90875 1.59789 0
M  V30 1461 N 137.085 -6.95022 0.994404 0
M  V30 1462 H 141.925 -2.5119 1.60336 0
M  V30 1463 H 139.462 -1.23356 0.801352 0
M  V30 1464 H 141.42 -4.16477 -0.245544 0
M  V30 1465 H 140.05 -3.14011 -0.74813 0
M  V30 1466 H 139.102 -3.42512 1.65499 0
M  V30 1467 H 140.414 -4.5823 1.97046 0
M  V30 1468 H 139.568 -6.06538 0.1402 0
M  V30 1469 H 138.307 -4.86939 -0.272431 0
M  V30 1470 H 137.312 -5.11369 2.01945 0
M  V30 1471 H 138.537 -6.34337 2.42474 0
M  V30 1472 H 136.483 -6.55722 0.190939 0
M  V30 1473 H 136.4 -7.36073 1.72432 0
M  V30 1474 H 137.668 -7.77123 0.608253 0
M  V30 1475 N 141.898 -0.863906 -1.31812 0
M  V30 1476 C 142.861 -0.320212 -2.26952 0
M  V30 1477 C 143.861 0.525369 -1.51975 0
M  V30 1478 O 145.051 0.335547 -1.70938 0
M  V30 1479 C 142.183 0.545919 -3.365 0
M  V30 1480 H 143.376 -1.16004 -2.76556 0
M  V30 1481 H 140.929 -0.638995 -1.42641 0
M  V30 1482 H 141.664 1.40718 -2.92179 0
M  V30 1483 H 141.449 -0.0594674 -3.92055 0
M  V30 1484 H 142.939 0.918796 -4.07367 0
M  V30 1485 N 143.376 1.44774 -0.622745 0
M  V30 1486 C 144.323 2.30635 0.0871679 0
M  V30 1487 C 145.293 1.42994 0.845097 0
M  V30 1488 O 146.478 1.71907 0.827812 0
M  V30 1489 C 143.618 3.28144 1.06844 0
M  V30 1490 C 142.731 4.30888 0.309809 0
M  V30 1491 C 141.866 5.15494 1.28215 0
M  V30 1492 C 140.905 6.09953 0.512198 0
M  V30 1493 N 140.042 6.87287 1.43458 0
M  V30 1494 H 144.882 2.90803 -0.650974 0
M  V30 1495 H 142.419 1.43286 -0.33281 0
M  V30 1496 H 144.377 3.83157 1.65066 0
M  V30 1497 H 143.007 2.69695 1.77382 0
M  V30 1498 H 142.059 3.78414 -0.388181 0
M  V30 1499 H 143.371 4.97955 -0.290254 0
M  V30 1500 H 142.525 5.74983 1.93596 0
M  V30 1501 H 141.264 4.48481 1.91614 0
M  V30 1502 H 140.269 5.49581 -0.155151 0
M  V30 1503 H 141.494 6.78999 -0.116958 0
M  V30 1504 H 139.44 6.2295 2.05594 0
M  V30 1505 H 139.357 7.50763 0.888335 0
M  V30 1506 H 140.625 7.51306 2.07749 0
M  V30 1507 N 144.854 0.36279 1.53368 0
M  V30 1508 C 146.1 -0.228113 2.01513 0
M  V30 1509 C 146.433 -1.48648 1.2497 0
M  V30 1510 O 145.708 -1.91459 0.342616 0
M  V30 1511 C 145.991 -0.522884 3.56284 0
M  V30 1512 C 145.844 0.74892 4.43521 0
M  V30 1513 C 147.163 -1.32461 4.19693 0
M  V30 1514 H 144.282 -0.0814343 0.732487 0
M  V30 1515 H 146.924 0.48713 1.83649 0
M  V30 1516 H 145.074 -1.1322 3.71636 0
M  V30 1517 H 146.746 1.38648 4.39971 0
M  V30 1518 H 144.989 1.36986 4.11603 0
M  V30 1519 H 145.66 0.497667 5.49752 0
M  V30 1520 H 148.136 -0.809203 4.08156 0
M  V30 1521 H 147.012 -1.49961 5.28018 0
M  V30 1522 H 147.273 -2.33232 3.75573 0
M  V30 1523 N 146.332 -1.57332 0.0918853 0
M  V30 1524 C 147.579 -1.94236 -0.572577 0
M  V30 1525 C 147.907 -0.973398 -1.6839 0
M  V30 1526 O 147.162 0.00756912 -1.95699 0
M  V30 1527 C 147.461 -3.37689 -1.17051 0
M  V30 1528 C 147.127 -4.50527 -0.183304 0
M  V30 1529 C 145.789 -4.81119 0.0882276 0
M  V30 1530 C 148.141 -5.18883 0.49095 0
M  V30 1531 C 145.469 -5.77395 1.04076 0
M  V30 1532 C 147.821 -6.1618 1.43193 0
M  V30 1533 C 146.485 -6.45179 1.71173 0
M  V30 1534 H 145.755 -0.710762 -0.209521 0
M  V30 1535 H 148.402 -1.9077 0.167036 0
M  V30 1536 H 146.707 -3.37718 -1.9863 0
M  V30 1537 H 148.404 -3.63543 -1.69227 0
M  V30 1538 H 144.994 -4.26681 -0.405124 0
M  V30 1539 H 149.178 -4.95427 0.294312 0
M  V30 1540 H 144.434 -5.98179 1.26457 0
M  V30 1541 H 148.608 -6.68243 1.96023 0
M  V30 1542 H 146.235 -7.1959 2.4514 0
M  V30 1543 N 147.81 0.181792 -1.56548 0
M  V30 1544 C 148.72 1.24538 -1.98815 0
M  V30 1545 C 149.736 1.49045 -0.897861 0
M  V30 1546 O 150.912 1.61399 -1.20467 0
M  V30 1547 C 147.977 2.56683 -2.33055 0
M  V30 1548 C 147.038 2.40131 -3.55859 0
M  V30 1549 C 146.271 3.65975 -3.88456 0
M  V30 1550 O 146.494 4.70711 -3.22161 0
M  V30 1551 O 145.428 3.6071 -4.81842 0
M  V30 1552 H 149.254 0.916647 -2.89536 0
M  V30 1553 H 146.839 0.387842 -1.44278 0
M  V30 1554 H 148.721 3.34655 -2.56094 0
M  V30 1555 H 147.396 2.89157 -1.45498 0
M  V30 1556 H 146.303 1.60226 -3.38051 0
M  V30 1557 H 147.636 2.12585 -4.43924 0
M  V30 1558 N 149.288 1.51039 0.449983 0
M  V30 1559 C 150.238 1.67824 1.54335 0
M  V30 1560 C 151.222 0.5324 1.51836 0
M  V30 1561 O 152.414 0.787762 1.58503 0
M  V30 1562 C 149.543 1.7951 2.92628 0
M  V30 1563 C 148.629 2.99838 2.9993 0
M  V30 1564 N 149.02 4.23207 2.77001 0
M  V30 1565 C 147.318 2.98832 3.31082 0
M  V30 1566 C 148.019 5.04361 2.89818 0
M  V30 1567 N 146.995 4.38746 3.2094 0
M  V30 1568 H 150.797 2.60884 1.35339 0
M  V30 1569 H 148.311 1.48513 0.657085 0
M  V30 1570 H 150.308 1.89642 3.7127 0
M  V30 1571 H 148.968 0.876227 3.12654 0
M  V30 1572 H 149.979 4.5236 2.52172 0
M  V30 1573 H 146.656 2.16527 3.56963 0
M  V30 1574 H 148.046 6.12528 2.76151 0
M  V30 1575 N 150.766 -0.704594 1.40972 0
M  V30 1576 C 152.015 -1.46018 1.39146 0
M  V30 1577 C 152.328 -1.956 0.000589254 0
M  V30 1578 O 153.534 -2.71137 -0.1403 0
M  V30 1579 C 151.99 -2.63996 2.4461 0
M  V30 1580 C 151.598 -2.21238 3.89561 0
M  V30 1581 C 153.342 -3.41677 2.51907 0
M  V30 1582 C 151.249 -3.3612 4.86598 0
M  V30 1583 H 150.179 -0.548444 0.517422 0
M  V30 1584 H 152.83 -0.765784 1.66757 0
M  V30 1585 H 151.212 -3.3566 2.10115 0
M  V30 1586 H 152.386 -1.56923 4.33257 0
M  V30 1587 H 150.701 -1.56574 3.85841 0
M  V30 1588 H 153.298 -4.27182 3.2159 0
M  V30 1589 H 153.641 -3.86247 1.55303 0
M  V30 1590 H 154.174 -2.77064 2.85448 0
M  V30 1591 H 150.913 -2.96572 5.84573 0
M  V30 1592 H 150.433 -3.99315 4.47557 0
M  V30 1593 H 152.112 -4.02029 5.06934 0
M  V30 1594 N 152.244 -1.26651 -0.937939 0
M  V30 1595 C 153.492 -1.12165 -1.68118 0
M  V30 1596 C 153.813 0.334983 -1.92101 0
M  V30 1597 O 153.083 1.23583 -1.52 0
M  V30 1598 H 151.663 -0.412093 -0.623048 0
M  V30 1599 H 154.325 -1.59027 -1.12678 0
M  V30 1600 H 153.421 -1.64289 -2.6536 0
M  V30 1601 N 153.722 1.14298 -1.08507 0
M  V30 1602 C 154.669 2.19414 -0.715965 0
M  V30 1603 C 155.639 1.63399 0.298326 0
M  V30 1604 O 156.824 1.89929 0.182101 0
M  V30 1605 C 153.964 3.44845 -0.132534 0
M  V30 1606 C 153.077 4.15007 -1.19973 0
M  V30 1607 C 152.212 5.28024 -0.580048 0
M  V30 1608 C 151.251 5.9002 -1.62921 0
M  V30 1609 N 150.388 6.94485 -1.03125 0
M  V30 1610 H 155.228 2.50336 -1.61666 0
M  V30 1611 H 152.765 1.2293 -0.807882 0
M  V30 1612 H 154.723 4.16601 0.223454 0
M  V30 1613 H 153.353 3.14403 0.731467 0
M  V30 1614 H 152.405 3.41629 -1.67313 0
M  V30 1615 H 153.717 4.57178 -1.99473 0
M  V30 1616 H 152.871 6.06455 -0.172364 0
M  V30 1617 H 151.61 4.87076 0.246603 0
M  V30 1618 H 150.615 5.10291 -2.04654 0
M  V30 1619 H 151.84 6.33042 -2.45835 0
M  V30 1620 H 149.786 6.55612 -0.225711 0
M  V30 1621 H 149.703 7.35148 -1.76334 0
M  V30 1622 H 150.971 7.7679 -0.649458 0
M  V30 1623 N 155.201 0.870884 1.31352 0
M  V30 1624 C 156.148 0.325425 2.28494 0
M  V30 1625 C 157.118 -0.576615 1.5577 0
M  V30 1626 O 158.303 -0.508059 1.83911 0
M  V30 1627 C 155.443 -0.466283 3.41935 0
M  V30 1628 C 154.556 0.463378 4.29508 0
M  V30 1629 C 153.691 -0.342544 5.30094 0
M  V30 1630 C 152.73 0.583486 6.09313 0
M  V30 1631 N 151.867 -0.186244 7.01853 0
M  V30 1632 H 156.707 1.15901 2.74538 0
M  V30 1633 H 154.244 0.58294 1.35056 0
M  V30 1634 H 156.202 -0.941085 4.06447 0
M  V30 1635 H 154.832 -1.26456 2.97 0
M  V30 1636 H 153.884 1.05663 3.65431 0
M  V30 1637 H 155.196 1.1734 4.84802 0
M  V30 1638 H 154.35 -0.879816 6.00287 0
M  V30 1639 H 153.089 -1.08585 4.75458 0
M  V30 1640 H 152.094 1.13251 5.3801 0
M  V30 1641 H 153.319 1.32566 6.66035 0
M  V30 1642 H 151.265 -0.912348 6.49625 0
M  V30 1643 H 151.182 0.464422 7.54572 0
M  V30 1644 H 152.45 -0.704716 7.76308 0
M  V30 1645 N 156.679 -1.44442 0.630414 0
M  V30 1646 C 157.907 -2.06414 0.141671 0
M  V30 1647 C 158.322 -1.47105 -1.18345 0
M  V30 1648 O 157.679 -0.593662 -1.72574 0
M  V30 1649 C 157.73 -3.61494 0.0199784 0
M  V30 1650 O 157.451 -4.18594 1.29269 0
M  V30 1651 C 158.952 -4.40499 -0.497544 0
M  V30 1652 H 156.172 -0.666292 0.0793452 0
M  V30 1653 H 158.716 -1.85323 0.864614 0
M  V30 1654 H 156.871 -3.8185 -0.653402 0
M  V30 1655 H 157.285 -5.12026 1.13707 0
M  V30 1656 H 158.759 -5.49433 -0.531708 0
M  V30 1657 H 159.236 -4.11895 -1.52445 0
M  V30 1658 H 159.842 -4.25061 0.142562 0
M  V30 1659 N 158.157 -0.370918 -1.53173 0
M  V30 1660 C 159.568 0.107139 -1.86392 0
M  V30 1661 C 159.919 1.47714 -1.29132 0
M  V30 1662 O 159.044 2.07464 -0.615439 0
M  V30 1663 C 159.639 0.201187 -3.38202 0
M  V30 1664 C 158.198 0.623507 -3.712 0
M  V30 1665 C 157.345 -0.225978 -2.76378 0
M  V30 1666 H 160.296 -0.58951 -1.47345 0
M  V30 1667 H 160.317 1.02377 -3.66468 0
M  V30 1668 H 159.829 -0.796058 -3.79848 0
M  V30 1669 H 157.93 1.62879 -3.35114 0
M  V30 1670 H 158.043 0.394414 -4.77474 0
M  V30 1671 H 156.407 0.305962 -2.52856 0
M  V30 1672 H 157.19 -1.22086 -3.20858 0
M  V30 1673 N 159.635 1.57281 -0.100228 0
M  V30 1674 C 160.884 1.93713 0.561984 0
M  V30 1675 C 161.197 0.984492 1.69018 0
M  V30 1676 O 162.403 1.24273 2.41389 0
M  V30 1677 C 160.859 3.4421 1.05106 0
M  V30 1678 C 160.467 4.47975 -0.0476628 0
M  V30 1679 C 162.211 3.89595 1.68571 0
M  V30 1680 C 160.118 5.89631 0.457055 0
M  V30 1681 H 159.048 0.723082 0.2137 0
M  V30 1682 H 161.699 1.82644 -0.177057 0
M  V30 1683 H 160.081 3.50449 1.84395 0
M  V30 1684 H 161.255 4.53385 -0.823333 0
M  V30 1685 H 159.57 4.1223 -0.587816 0
M  V30 1686 H 162.167 4.92832 2.07414 0
M  V30 1687 H 162.51 3.28526 2.55688 0
M  V30 1688 H 163.043 3.86078 0.958562 0
M  V30 1689 H 159.782 6.54411 -0.377616 0
M  V30 1690 H 159.302 5.87681 1.19962 0
M  V30 1691 H 160.981 6.40363 0.92437 0
M  V30 1692 N 161.113 -0.173488 1.56642 0
M  V30 1693 C 162.076 -1.19859 1.95362 0
M  V30 1694 C 163.076 -1.37296 0.83704 0
M  V30 1695 O 164.266 -1.34739 1.10413 0
M  V30 1696 C 161.398 -2.56405 2.24654 0
M  V30 1697 H 162.591 -0.867062 2.87092 0
M  V30 1698 H 160.144 -0.415853 1.50666 0
M  V30 1699 H 160.879 -2.94576 1.35631 0
M  V30 1700 H 160.664 -2.45115 3.06041 0
M  V30 1701 H 162.154 -3.30287 2.5554 0
M  V30 1702 N 162.591 -1.51276 -0.441967 0
M  V30 1703 C 163.837 -1.63958 -1.19355 0
M  V30 1704 C 164.17 -0.352543 -1.90973 0
M  V30 1705 O 163.445 0.647627 -1.83401 0
M  V30 1706 C 163.728 -2.83979 -2.21422 0
M  V30 1707 C 163.581 -4.22646 -1.53918 0
M  V30 1708 C 164.9 -2.99521 -3.22451 0
M  V30 1709 H 162.019 -0.596709 -0.432559 0
M  V30 1710 H 164.661 -1.83748 -0.483398 0
M  V30 1711 H 162.811 -2.67237 -2.81987 0
M  V30 1712 H 164.483 -4.51045 -0.967256 0
M  V30 1713 H 162.726 -4.25558 -0.841615 0
M  V30 1714 H 163.397 -5.02609 -2.28229 0
M  V30 1715 H 165.873 -3.14944 -2.71937 0
M  V30 1716 H 164.749 -3.85072 -3.91166 0
M  V30 1717 H 165.01 -2.11391 -3.88287 0
M  V30 1718 N 164.069 0.697108 -1.41344 0
M  V30 1719 C 165.485 1.00751 -1.2378 0
M  V30 1720 C 165.685 2.01105 -0.126066 0
M  V30 1721 O 164.741 2.47295 0.51004 0
M  V30 1722 C 166.054 1.53359 -2.58653 0
M  V30 1723 C 167.602 1.6525 -2.65822 0
M  V30 1724 C 168.077 2.2126 -4.01009 0
M  V30 1725 N 169.568 2.28622 -4.02847 0
M  V30 1726 C 170.303 2.72984 -5.04249 0
M  V30 1727 N 169.799 3.16962 -6.16041 0
M  V30 1728 N 171.592 2.72534 -4.91611 0
M  V30 1729 H 163.743 0.0322662 -2.12375 0
M  V30 1730 H 166.006 0.0768853 -0.944877 0
M  V30 1731 H 165.712 0.870773 -3.4075 0
M  V30 1732 H 165.586 2.51597 -2.81032 0
M  V30 1733 H 167.973 2.30644 -1.84086 0
M  V30 1734 H 168.054 0.655614 -2.47256 0
M  V30 1735 H 167.698 1.56482 -4.83193 0
M  V30 1736 H 167.628 3.21698 -4.16915 0
M  V30 1737 H 170.119 1.97585 -3.22131 0
M  V30 1738 H 170.432 3.49434 -6.89287 0
M  V30 1739 H 168.777 3.14875 -6.1958 0
M  V30 1740 H 171.968 2.37525 -4.0336 0
M  V30 1741 H 172.141 3.06789 -5.70775 0
M  V30 1742 N 165.547 1.27147 0.931209 0
M  V30 1743 C 166.794 1.13278 1.67852 0
M  V30 1744 C 167.122 -0.32204 1.91815 0
M  V30 1745 O 166.377 -1.25224 1.50391 0
M  V30 1746 C 166.676 1.8579 3.05314 0
M  V30 1747 C 166.342 3.35657 3.01073 0
M  V30 1748 C 165.004 3.76536 2.99623 0
M  V30 1749 C 167.356 4.31299 2.92627 0
M  V30 1750 C 164.684 5.11426 2.87506 0
M  V30 1751 C 167.036 5.66242 2.82051 0
M  V30 1752 C 165.7 6.06418 2.7895 0
M  V30 1753 H 164.97 0.414515 0.614214 0
M  V30 1754 H 167.617 1.57712 1.08624 0
M  V30 1755 H 165.922 1.33854 3.68226 0
M  V30 1756 H 167.619 1.72491 3.62005 0
M  V30 1757 H 164.209 3.03146 3.02986 0
M  V30 1758 H 168.393 4.00692 2.92848 0
M  V30 1759 H 163.649 5.41705 2.83489 0
M  V30 1760 H 167.823 6.40026 2.74481 0
M  V30 1761 H 165.45 7.10895 2.69318 0
M  V30 1762 N 167.025 -1.13721 1.09112 0
M  V30 1763 C 168.25 -1.89314 0.847053 0
M  V30 1764 C 168.675 -1.78416 -0.595774 0
M  V30 1765 O 168.033 -1.12942 -1.41823 0
M  V30 1766 C 168.081 -3.3701 1.28284 0
M  V30 1767 O 167.185 -4.10054 0.439267 0
M  V30 1768 H 166.526 -0.588745 0.307044 0
M  V30 1769 H 169.056 -1.43902 1.45442 0
M  V30 1770 H 169.066 -3.87834 1.26683 0
M  V30 1771 H 167.741 -3.4426 2.33363 0
M  V30 1772 H 166.318 -3.69266 0.519312 0
M  V30 1773 N 168.503 -0.877838 -1.30888 0
M  V30 1774 C 169.731 -0.507414 -2.00581 0
M  V30 1775 C 170.146 0.902216 -1.65848 0
M  V30 1776 O 169.503 1.59225 -0.891831 0
M  V30 1777 C 169.554 -0.664162 -3.55347 0
M  V30 1778 O 169.275 -2.01829 -3.8884 0
M  V30 1779 C 170.776 -0.295787 -4.42312 0
M  V30 1780 H 167.996 -0.196866 -0.641471 0
M  V30 1781 H 170.54 -1.18117 -1.66939 0
M  V30 1782 H 168.695 -0.0378619 -3.87381 0
M  V30 1783 H 169.109 -2.03174 -4.8355 0
M  V30 1784 H 170.583 -0.456388 -5.5011 0
M  V30 1785 H 171.06 0.765663 -4.32475 0
M  V30 1786 H 171.666 -0.898113 -4.15709 0
M  V30 1787 N 169.982 1.44106 -0.638065 0
M  V30 1788 C 171.228 2.02277 -0.145546 0
M  V30 1789 C 171.561 1.50125 1.23191 0
M  V30 1790 O 170.836 0.688133 1.8192 0
M  V30 1791 C 171.119 3.59829 -0.139791 0
M  V30 1792 C 170.972 4.22247 -1.55008 0
M  V30 1793 C 172.291 4.36873 0.531966 0
M  V30 1794 H 169.41 0.734992 -0.0543632 0
M  V30 1795 H 172.052 1.71592 -0.815863 0
M  V30 1796 H 170.202 3.86102 0.431007 0
M  V30 1797 H 171.874 4.07057 -2.1703 0
M  V30 1798 H 170.117 3.79476 -2.10191 0
M  V30 1799 H 170.788 5.31284 -1.49804 0
M  V30 1800 H 173.264 4.16074 0.0464781 0
M  V30 1801 H 172.14 5.4657 0.505206 0
M  V30 1802 H 172.401 4.11995 1.60352 0
M  V30 1803 N 171.46 0.379036 1.52974 0
M  V30 1804 C 172.423 -0.448865 2.24762 0
M  V30 1805 C 173.423 -0.998689 1.26027 0
M  V30 1806 O 174.613 -0.882313 1.50203 0
M  V30 1807 C 171.745 -1.62872 2.99476 0
M  V30 1808 H 172.938 0.179491 2.99362 0
M  V30 1809 H 170.491 0.13096 1.5575 0
M  V30 1810 H 171.226 -2.29479 2.29151 0
M  V30 1811 H 171.011 -1.24128 3.71934 0
M  V30 1812 H 172.501 -2.2151 3.5401 0
M  V30 1813 N 172.938 -1.57226 0.108567 0
M  V30 1814 C 174.186 -1.94448 -0.550853 0
M  V30 1815 C 174.507 -0.992074 -1.67878 0
M  V30 1816 O 173.777 -0.0465 -1.95845 0
M  V30 1817 H 172.357 -0.717897 -0.206479 0
M  V30 1818 H 175.019 -1.94112 0.175062 0
M  V30 1819 H 174.115 -2.97218 -0.952259 0
M  V30 1820 N 174.416 0.165178 -1.56732 0
M  V30 1821 C 175.326 1.22423 -2.00125 0
M  V30 1822 C 176.342 1.48084 -0.913619 0
M  V30 1823 O 177.518 1.60112 -1.22172 0
M  V30 1824 C 174.583 2.54197 -2.35764 0
M  V30 1825 C 173.644 2.36343 -3.58386 0
M  V30 1826 C 172.877 3.61834 -3.92316 0
M  V30 1827 O 173.1 4.67267 -3.27135 0
M  V30 1828 O 172.034 3.55579 -4.85641 0
M  V30 1829 H 175.86 0.885886 -2.90492 0
M  V30 1830 H 173.445 0.372518 -1.44681 0
M  V30 1831 H 175.327 3.3192 -2.59629 0
M  V30 1832 H 174.002 2.87598 -1.48557 0
M  V30 1833 H 172.909 1.56632 -3.39731 0
M  V30 1834 H 174.242 2.07865 -4.46154 0
M  V30 1835 N 175.894 1.51508 0.433938 0
M  V30 1836 C 177.119 1.68443 1.21003 0
M  V30 1837 C 177.544 0.382636 1.84167 0
M  V30 1838 O 176.902 -0.65755 1.68956 0
M  V30 1839 C 176.95 2.80405 2.26727 0
M  V30 1840 O 176.054 2.44245 3.32292 0
M  V30 1841 H 175.395 0.561536 0.354363 0
M  V30 1842 H 177.925 1.9809 0.512024 0
M  V30 1843 H 177.935 3.0459 2.71457 0
M  V30 1844 H 176.61 3.74867 1.80132 0
M  V30 1845 H 175.187 2.30644 2.93015 0
M  V30 1846 N 177.372 -0.689602 1.41712 0
M  V30 1847 C 178.62 -1.4468 1.4111 0
M  V30 1848 C 178.941 -1.94986 0.0232196 0
M  V30 1849 O 178.211 -1.72097 -0.935913 0
M  V30 1850 H 176.791 -0.536847 0.519427 0
M  V30 1851 H 179.453 -0.815825 1.77004 0
M  V30 1852 H 178.549 -2.30706 2.10193 0
M  V30 1853 N 178.85 -1.27639 -0.924453 0
M  V30 1854 C 180.075 -1.17101 -1.71179 0
M  V30 1855 C 180.5 0.268134 -1.86179 0
M  V30 1856 O 179.858 1.19415 -1.36418 0
M  V30 1857 C 179.906 -1.86313 -3.08739 0
M  V30 1858 O 179.01 -1.16331 -3.95652 0
M  V30 1859 H 178.351 -0.407091 -0.524569 0
M  V30 1860 H 180.881 -1.68767 -1.15666 0
M  V30 1861 H 180.891 -1.938 -3.59034 0
M  V30 1862 H 179.566 -2.91001 -2.97138 0
M  V30 1863 H 178.143 -1.16935 -3.54091 0
M  V30 1864 N 180.328 1.1314 -1.09713 0
M  V30 1865 C 181.291 2.16831 -0.742751 0
M  V30 1866 C 182.291 1.59159 0.229129 0
M  V30 1867 O 183.481 1.74199 0.00693237 0
M  V30 1868 C 180.613 3.40756 -0.0989168 0
M  V30 1869 H 181.806 2.49695 -1.66109 0
M  V30 1870 H 179.359 1.2802 -0.896699 0
M  V30 1871 H 180.094 3.13485 0.830514 0
M  V30 1872 H 179.879 3.83888 -0.798265 0
M  V30 1873 H 181.369 4.17386 0.133524 0
M  V30 1874 N 181.806 0.884767 1.30421 0
M  V30 1875 C 183.083 0.423185 1.90967 0
M  V30 1876 C 183.463 -1.09605 1.80416 0
M  V30 1877 O 182.811 -1.93126 1.22125 0
M  V30 1878 C 183.021 0.921056 3.36627 0
M  V30 1879 C 184.369 0.955903 4.137 0
M  V30 1880 O 185.393 0.867706 3.4547 0
M  V30 1881 O 184.252 1.08614 5.35598 0
M  V30 1882 H 181.346 0.129369 0.816819 0
M  V30 1883 H 183.892 0.973653 1.3899 0
M  V30 1884 H 182.664 1.96489 3.3839 0
M  V30 1885 H 182.287 0.349741 3.96059 0
M  V30 1886 N 183.284 -1.43765 0.645699 0
M  V30 1887 C 184.512 -2.06253 0.163556 0
M  V30 1888 C 184.927 -1.48352 -1.16778 0
M  V30 1889 O 184.284 -0.611932 -1.71935 0
M  V30 1890 C 184.335 -3.61453 0.0583186 0
M  V30 1891 O 184.056 -4.172 1.33702 0
M  V30 1892 C 185.557 -4.41002 -0.450795 0
M  V30 1893 H 182.777 -0.665413 0.0864077 0
M  V30 1894 H 185.321 -1.84396 0.884222 0
M  V30 1895 H 183.476 -3.82522 -0.612865 0
M  V30 1896 H 183.89 -5.10791 1.19131 0
M  V30 1897 H 185.364 -5.49966 -0.473403 0
M  V30 1898 H 185.841 -4.13488 -1.48068 0
M  V30 1899 H 186.447 -4.24886 0.187637 0
M  V30 1900 N 184.763 -0.387143 -1.52771 0
M  V30 1901 C 186.009 0.196025 -2.0185 0
M  V30 1902 C 186.342 1.46641 -1.27319 0
M  V30 1903 O 185.617 1.90889 -0.373032 0
M  V30 1904 C 185.9 0.466136 -3.5707 0
M  V30 1905 C 185.753 -0.819385 -4.42274 0
M  V30 1906 C 187.072 1.25768 -4.21747 0
M  V30 1907 H 184.191 0.0697708 -0.73369 0
M  V30 1908 H 186.833 -0.516286 -1.82851 0
M  V30 1909 H 184.983 1.07293 -3.7339 0
M  V30 1910 H 186.655 -1.4563 -4.37709 0
M  V30 1911 H 184.898 -1.43517 -4.09372 0
M  V30 1912 H 185.569 -0.585065 -5.48891 0
M  V30 1913 H 188.045 0.744167 -4.09391 0
M  V30 1914 H 186.921 1.41541 -5.30337 0
M  V30 1915 H 187.182 2.27228 -3.79236 0
M  V30 1916 N 186.241 1.57166 -0.116904 0
M  V30 1917 C 187.657 1.5779 0.239693 0
M  V30 1918 C 187.857 1.1295 1.66867 0
M  V30 1919 O 186.913 0.81592 2.38954 0
M  V30 1920 C 188.226 3.00699 0.00828202 0
M  V30 1921 C 189.774 3.12912 0.0743438 0
M  V30 1922 C 190.249 4.57817 -0.129348 0
M  V30 1923 N 191.74 4.63139 -0.075247 0
M  V30 1924 C 192.475 5.73023 -0.207788 0
M  V30 1925 N 191.971 6.91665 -0.396382 0
M  V30 1926 N 193.764 5.61906 -0.14751 0
M  V30 1927 H 185.915 1.84615 -1.05029 0
M  V30 1928 H 188.178 0.85311 -0.41341 0
M  V30 1929 H 187.884 3.37784 -0.979531 0
M  V30 1930 H 187.758 3.69848 0.741077 0
M  V30 1931 H 190.145 2.75686 1.05268 0
M  V30 1932 H 190.226 2.4631 -0.690297 0
M  V30 1933 H 189.87 4.95742 -1.10465 0
M  V30 1934 H 189.8 5.22507 0.655253 0
M  V30 1935 H 192.291 3.7784 0.0670898 0
M  V30 1936 H 192.604 7.71255 -0.488437 0
M  V30 1937 H 190.949 6.93654 -0.432329 0
M  V30 1938 H 194.14 4.681 -0.00115036 0
M  V30 1939 H 194.313 6.47501 -0.254247 0
M  V30 1940 N 187.719 -0.156864 1.56817 0
M  V30 1941 C 188.996 -0.899244 1.73704 0
M  V30 1942 C 189.376 -1.99771 0.682254 0
M  V30 1943 O 188.724 -2.26515 -0.300522 0
M  V30 1944 C 188.934 -1.45075 3.17418 0
M  V30 1945 C 190.282 -1.91802 3.7881 0
M  V30 1946 O 191.306 -1.54838 3.20786 0
M  V30 1947 O 190.165 -2.5994 4.80722 0
M  V30 1948 H 187.259 -0.424267 0.709878 0
M  V30 1949 H 189.805 -0.143561 1.69092 0
M  V30 1950 H 188.577 -0.660846 3.85679 0
M  V30 1951 H 188.2 -2.27021 3.26416 0
M  V30 1952 N 189.197 -1.51736 -0.425897 0
M  V30 1953 C 190.608 -1.5732 -1.00536 0
M  V30 1954 C 190.959 -0.403537 -1.92005 0
M  V30 1955 O 190.084 0.478256 -2.11049 0
M  V30 1956 C 190.679 -2.85119 -1.8301 0
M  V30 1957 C 189.238 -2.93236 -2.35987 0
M  V30 1958 C 188.385 -2.52098 -1.15508 0
M  V30 1959 H 191.336 -1.57348 -0.206739 0
M  V30 1960 H 191.357 -2.69526 -2.68581 0
M  V30 1961 H 190.869 -3.7023 -1.16411 0
M  V30 1962 H 188.97 -2.12581 -3.06007 0
M  V30 1963 H 189.083 -3.9713 -2.68001 0
M  V30 1964 H 187.447 -2.05558 -1.50393 0
M  V30 1965 H 188.23 -3.39565 -0.505014 0
M  V30 1966 N 190.675 0.682077 -1.42076 0
M  V30 1967 C 192.091 0.994324 -1.24841 0
M  V30 1968 C 192.291 2.0096 -0.147389 0
M  V30 1969 O 191.347 2.47822 0.483782 0
M  V30 1970 C 192.66 1.50607 -2.60265 0
M  V30 1971 C 194.208 1.62421 -2.6756 0
M  V30 1972 C 194.683 2.16994 -4.03333 0
M  V30 1973 N 196.174 2.24337 -4.0525 0
M  V30 1974 C 196.909 2.67621 -5.07116 0
M  V30 1975 N 196.405 3.1041 -6.19368 0
M  V30 1976 N 198.198 2.67305 -4.94474 0
M  V30 1977 H 190.349 0.00973908 -2.12398 0
M  V30 1978 H 192.612 0.0668593 -0.945639 0
M  V30 1979 H 192.318 0.834583 -3.41654 0
M  V30 1980 H 192.192 2.48602 -2.83684 0
M  V30 1981 H 194.579 2.28678 -1.86521 0
M  V30 1982 H 194.66 0.629352 -2.47937 0
M  V30 1983 H 194.304 1.51349 -4.84826 0
M  V30 1984 H 194.234 3.17258 -4.20304 0
M  V30 1985 H 196.725 1.94158 -3.24209 0
M  V30 1986 H 197.038 3.42103 -6.92954 0
M  V30 1987 H 195.383 3.08286 -6.22884 0
M  V30 1988 H 198.574 2.33233 -4.05857 0
M  V30 1989 H 198.747 3.00718 -5.73997 0
M  V30 1990 N 192.153 1.28127 0.917671 0
M  V30 1991 C 193.401 1.14825 1.66312 0
M  V30 1992 C 193.722 -0.304379 1.9261 0
M  V30 1993 O 192.992 -1.21149 1.53947 0
M  V30 1994 H 191.572 0.421953 0.616413 0
M  V30 1995 H 194.234 1.608 1.10134 0
M  V30 1996 H 193.33 1.68489 2.62712 0
M  V30 1997 N 193.631 -1.12557 1.10312 0
M  V30 1998 C 194.878 -1.84038 0.844759 0
M  V30 1999 C 195.206 -1.84026 -0.629668 0
M  V30 2000 O 194.461 -1.28026 -1.48013 0
M  V30 2001 C 194.76 -3.31462 1.33669 0
M  V30 2002 C 194.426 -3.51647 2.82232 0
M  V30 2003 C 193.088 -3.56864 3.22802 0
M  V30 2004 C 195.44 -3.58867 3.77974 0
M  V30 2005 C 192.768 -3.66844 4.57867 0
M  V30 2006 C 195.12 -3.70375 5.1284 0
M  V30 2007 C 193.784 -3.73848 5.52986 0
M  V30 2008 H 193.054 -0.673444 0.309119 0
M  V30 2009 H 195.701 -1.32824 1.37949 0
M  V30 2010 H 194.006 -3.85091 0.721949 0
M  V30 2011 H 195.703 -3.85236 1.11329 0
M  V30 2012 H 192.293 -3.48249 2.49842 0
M  V30 2013 H 196.477 -3.54107 3.47738 0
M  V30 2014 H 191.733 -3.67804 4.88396 0
M  V30 2015 H 195.907 -3.74904 5.86873 0
M  V30 2016 H 193.534 -3.81333 6.57639 0
M  V30 2017 N 195.109 -0.891671 -1.2995 0
M  V30 2018 C 196.072 -0.36828 -2.26222 0
M  V30 2019 C 197.072 0.493014 -1.53056 0
M  V30 2020 O 198.262 0.299213 -1.71611 0
M  V30 2021 C 195.394 0.47442 -3.37583 0
M  V30 2022 H 196.587 -1.21844 -2.74033 0
M  V30 2023 H 194.14 -0.669107 -1.41254 0
M  V30 2024 H 194.875 1.34489 -2.95099 0
M  V30 2025 H 194.66 -0.142615 -3.91841 0
M  V30 2026 H 196.15 0.83218 -4.09224 0
M  V30 2027 N 196.587 1.43421 -0.653314 0
M  V30 2028 C 197.833 2.02111 -0.166992 0
M  V30 2029 C 198.166 1.51423 1.21592 0
M  V30 2030 O 197.441 0.707389 1.8118 0
M  V30 2031 C 197.724 3.5966 -0.177948 0
M  V30 2032 C 197.577 4.20579 -1.59478 0
M  V30 2033 C 198.896 4.37413 0.4856 0
M  V30 2034 H 196.015 0.734374 -0.0621557 0
M  V30 2035 H 198.657 1.70717 -0.834016 0
M  V30 2036 H 196.807 3.86537 0.390032 0
M  V30 2037 H 198.479 4.04732 -2.21336 0
M  V30 2038 H 196.722 3.77226 -2.14204 0
M  V30 2039 H 197.393 5.29665 -1.5543 0
M  V30 2040 H 199.869 4.161 0.00234528 0
M  V30 2041 H 198.745 5.47075 0.447207 0
M  V30 2042 H 199.006 4.13672 1.55974 0
M  V30 2043 N 198.065 0.39524 1.52563 0
M  V30 2044 C 199.012 -0.437036 2.26624 0
M  V30 2045 C 199.982 -1.05281 1.28472 0
M  V30 2046 O 201.167 -1.07971 1.57311 0
M  V30 2047 C 198.307 -1.55524 3.08069 0
M  V30 2048 C 197.42 -0.961745 4.21158 0
M  V30 2049 C 196.555 -2.05149 4.89987 0
M  V30 2050 C 195.594 -1.4342 5.95061 0
M  V30 2051 N 194.731 -2.46351 6.57462 0
M  V30 2052 H 199.571 0.200976 2.97322 0
M  V30 2053 H 197.108 0.110944 1.46681 0
M  V30 2054 H 199.066 -2.21437 3.53584 0
M  V30 2055 H 197.696 -2.16348 2.3957 0
M  V30 2056 H 196.748 -0.192048 3.79915 0
M  V30 2057 H 198.06 -0.470701 4.96574 0
M  V30 2058 H 197.214 -2.78819 5.38837 0
M  V30 2059 H 195.953 -2.57615 4.14109 0
M  V30 2060 H 194.958 -0.682774 5.45544 0
M  V30 2061 H 196.183 -0.917416 6.72875 0
M  V30 2062 H 194.129 -2.97975 5.8442 0
M  V30 2063 H 194.046 -2.02019 7.28508 0
M  V30 2064 H 195.314 -3.19633 7.10954 0
M  V30 2065 N 199.544 -1.57102 0.125237 0
M  V30 2066 C 200.791 -1.95407 -0.531248 0
M  V30 2067 C 201.119 -1.0089 -1.66287 0
M  V30 2068 O 200.374 -0.0339431 -1.95671 0
M  V30 2069 C 200.673 -3.40096 -1.09862 0
M  V30 2070 C 200.339 -4.50815 -0.0876989 0
M  V30 2071 C 199.001 -4.80824 0.19026 0
M  V30 2072 C 201.353 -5.17724 0.600902 0
M  V30 2073 C 198.681 -5.75058 1.163 0
M  V30 2074 C 201.033 -6.13005 1.56231 0
M  V30 2075 C 199.697 -6.41403 1.8482 0
M  V30 2076 H 198.967 -0.715046 -0.194397 0
M  V30 2077 H 201.614 -1.90373 0.207463 0
M  V30 2078 H 199.919 -3.41855 -1.91422 0
M  V30 2079 H 201.616 -3.6705 -1.61478 0
M  V30 2080 H 198.206 -4.27444 -0.314528 0
M  V30 2081 H 202.39 -4.94691 0.399333 0
M  V30 2082 H 197.646 -5.95362 1.39117 0
M  V30 2083 H 201.82 -6.63934 2.10153 0
M  V30 2084 H 199.447 -7.14229 2.60349 0
M  V30 2085 N 201.022 0.148545 -1.56898 0
M  V30 2086 C 202.252 0.875118 -1.8715 0
M  V30 2087 C 202.66 1.75322 -0.711262 0
M  V30 2088 O 202.003 1.80745 0.328151 0
M  V30 2089 C 202.065 1.7844 -3.12089 0
M  V30 2090 C 201.729 1.08361 -4.43967 0
M  V30 2091 C 202.726 0.438247 -5.1805 0
M  V30 2092 C 200.411 1.07358 -4.90693 0
M  V30 2093 C 202.405 -0.20779 -6.37061 0
M  V30 2094 C 200.092 0.42373 -6.09629 0
M  V30 2095 C 201.09 -0.215829 -6.82659 0
M  V30 2096 O 200.778 -0.855378 -7.99336 0
M  V30 2097 H 200.51 0.258504 -0.624621 0
M  V30 2098 H 203.064 0.14652 -2.04877 0
M  V30 2099 H 201.294 2.55389 -2.90367 0
M  V30 2100 H 202.983 2.38279 -3.286 0
M  V30 2101 H 203.749 0.437817 -4.8302 0
M  V30 2102 H 199.628 1.5608 -4.33774 0
M  V30 2103 H 203.172 -0.70758 -6.94002 0
M  V30 2104 H 199.069 0.421822 -6.4412 0
M  V30 2105 H 199.837 -0.756892 -8.14993 0
M  V30 2106 N 202.5 1.5196 0.417844 0
M  V30 2107 C 203.728 1.69426 1.18753 0
M  V30 2108 C 204.143 0.399955 1.84515 0
M  V30 2109 O 203.5 -0.623288 1.71527 0
M  V30 2110 C 203.551 2.82375 2.25714 0
M  V30 2111 O 203.272 4.06793 1.62638 0
M  V30 2112 C 204.773 3.11277 3.15628 0
M  V30 2113 H 201.993 0.568031 0.357186 0
M  V30 2114 H 204.537 1.98475 0.49273 0
M  V30 2115 H 202.692 2.5587 2.90877 0
M  V30 2116 H 203.106 4.69667 2.3348 0
M  V30 2117 H 204.58 3.93843 3.86771 0
M  V30 2118 H 205.057 2.24473 3.77503 0
M  V30 2119 H 205.663 3.39515 2.56144 0
M  V30 2120 N 203.978 -0.674533 1.42435 0
M  V30 2121 C 204.888 -1.81751 1.48337 0
M  V30 2122 C 205.904 -1.69975 0.372099 0
M  V30 2123 O 207.08 -1.91521 0.62304 0
M  V30 2124 C 204.145 -3.17895 1.38361 0
M  V30 2125 C 203.206 -3.41625 2.59982 0
M  V30 2126 C 202.439 -4.71274 2.50473 0
M  V30 2127 O 202.662 -5.49197 1.54075 0
M  V30 2128 O 201.596 -4.96254 3.4061 0
M  V30 2129 H 205.422 -1.79728 2.44809 0
M  V30 2130 H 203.007 -0.830312 1.24202 0
M  V30 2131 H 204.889 -3.99136 1.35161 0
M  V30 2132 H 203.564 -3.20555 0.450144 0
M  V30 2133 H 202.471 -2.60231 2.68757 0
M  V30 2134 H 203.804 -3.43796 3.52229 0
M  V30 2135 N 205.456 -1.28612 -0.910864 0
M  V30 2136 C 206.733 -1.06632 -1.63979 0
M  V30 2137 C 207.113 0.393351 -2.07403 0
M  V30 2138 O 206.461 1.37999 -1.82122 0
M  V30 2139 C 206.671 -2.0436 -2.8291 0
M  V30 2140 C 208.019 -2.34666 -3.5386 0
M  V30 2141 O 209.043 -2.02467 -2.93062 0
M  V30 2142 O 207.902 -2.89631 -4.63439 0
M  V30 2143 H 204.996 -0.407737 -0.7195 0
M  V30 2144 H 207.542 -1.39942 -0.959914 0
M  V30 2145 H 206.314 -3.02727 -2.47936 0
M  V30 2146 H 205.937 -1.71714 -3.58609 0
M  V30 2147 N 206.934 1.1197 -1.10907 0
M  V30 2148 C 208.182 1.83225 -0.852819 0
M  V30 2149 C 208.503 1.84769 0.623341 0
M  V30 2150 O 207.773 1.3143 1.45269 0
M  V30 2151 H 206.353 0.67849 -0.312507 0
M  V30 2152 H 209.015 1.3556 -1.40033 0
M  V30 2153 H 208.111 2.87265 -1.22005 0
M  V30 2154 N 208.412 0.89855 1.29475 0
M  V30 2155 C 209.36 0.365253 2.29714 0
M  V30 2156 C 210.354 -0.534993 1.6073 0
M  V30 2157 O 211.56 -0.417921 1.75081 0
M  V30 2158 H 207.935 0.0994853 0.74539 0
M  V30 2159 H 209.906 1.22406 2.72138 0
M  V30 2160 C 208.655 -0.393159 3.4547 0
M  V30 2161 H 207.978 0.290332 3.98744 0
M  V30 2162 H 209.418 -0.731189 4.17648 0
M  V30 2163 C 207.877 -1.59539 2.9673 0
M  V30 2164 O 208.407 -2.69469 2.97908 0
M  V30 2165 N 206.613 -1.43716 2.52575 0
M  V30 2166 H 206.16 -0.542828 2.51816 0
M  V30 2167 H 206.118 -2.24288 2.20323 0
M  V30 2168 N 209.89 -1.43072 0.660911 0
M  V30 2169 C 211.136 -2.02545 0.186337 0
M  V30 2170 C 211.491 -1.51253 -1.18913 0
M  V30 2171 O 210.784 -0.699167 -1.78388 0
M  V30 2172 C 210.978 -3.57103 0.145563 0
M  V30 2173 C 210.807 -4.23393 1.51554 0
M  V30 2174 C 209.577 -4.59144 2.10984 0
M  V30 2175 C 211.775 -4.51897 2.45548 0
M  V30 2176 N 209.757 -5.10545 3.40907 0
M  V30 2177 C 211.128 -5.04698 3.6011 0
M  V30 2178 C 213.183 -4.33872 2.44253 0
M  V30 2179 C 211.886 -5.41371 4.73613 0
M  V30 2180 C 213.912 -4.71612 3.56842 0
M  V30 2181 C 213.274 -5.24553 4.70131 0
M  V30 2182 H 209.373 -0.773823 0.112792 0
M  V30 2183 H 211.957 -1.74137 0.870885 0
M  V30 2184 H 210.128 -3.85059 -0.508353 0
M  V30 2185 H 211.86 -4.03264 -0.340598 0
M  V30 2186 H 208.615 -4.4444 1.63615 0
M  V30 2187 H 209.039 -5.40689 4.07411 0
M  V30 2188 H 213.681 -3.92208 1.579 0
M  V30 2189 H 211.399 -5.81975 5.60652 0
M  V30 2190 H 214.985 -4.59354 3.57051 0
M  V30 2191 H 213.865 -5.53213 5.5581 0
M  V30 2192 N 211.368 -0.403325 -1.52352 0
M  V30 2193 C 212.645 0.232611 -1.94212 0
M  V30 2194 C 213.025 1.63133 -1.33981 0
M  V30 2195 O 212.373 2.22659 -0.513344 0
M  V30 2196 C 212.583 0.244811 -3.4814 0
M  V30 2197 C 213.931 0.46698 -4.22024 0
M  V30 2198 O 214.955 0.324419 -3.5472 0
M  V30 2199 O 213.814 0.74747 -5.41364 0
M  V30 2200 H 210.908 0.148223 -0.813609 0
M  V30 2201 H 213.454 -0.458848 -1.63379 0
M  V30 2202 H 212.226 -0.734378 -3.84347 0
M  V30 2203 H 211.849 0.980611 -3.85318 0
M  V30 2204 N 212.846 1.57033 -0.133567 0
M  V30 2205 C 213.776 2.1909 0.807567 0
M  V30 2206 C 214.757 1.13517 1.26681 0
M  V30 2207 O 215.942 1.41809 1.32679 0
M  V30 2208 C 213.072 2.80188 2.05212 0
M  V30 2209 C 212.026 3.91471 1.73015 0
M  V30 2210 C 211.352 4.39443 3.04622 0
M  V30 2211 C 212.652 5.12886 0.987168 0
M  V30 2212 H 214.346 2.97988 0.290403 0
M  V30 2213 H 211.892 1.43335 0.138239 0
M  V30 2214 H 213.845 3.22264 2.71521 0
M  V30 2215 H 212.569 1.98601 2.59278 0
M  V30 2216 H 211.228 3.49993 1.0909 0
M  V30 2217 H 210.876 3.54695 3.56651 0
M  V30 2218 H 210.576 5.14495 2.83847 0
M  V30 2219 H 212.1 4.8418 3.72024 0
M  V30 2220 H 213.514 5.51891 1.55208 0
M  V30 2221 H 211.911 5.93615 0.87985 0
M  V30 2222 H 212.981 4.84894 -0.0235286 0
M  V30 2223 N 214.325 -0.140222 1.56975 0
M  V30 2224 C 215.571 -0.852949 1.83991 0
M  V30 2225 C 215.904 -1.80512 0.716187 0
M  V30 2226 O 215.179 -1.92479 -0.279681 0
M  V30 2227 C 215.462 -1.6215 3.21527 0
M  V30 2228 C 215.315 -0.690363 4.4447 0
M  V30 2229 C 216.634 -2.58247 3.56366 0
M  V30 2230 H 213.753 -0.308634 0.669264 0
M  V30 2231 H 216.395 -0.117898 1.89634 0
M  V30 2232 H 214.545 -2.24812 3.16847 0
M  V30 2233 H 216.217 -0.0742264 4.6124 0
M  V30 2234 H 214.46 -0.000396433 4.338 0
M  V30 2235 H 215.131 -1.2643 5.37326 0
M  V30 2236 H 217.607 -2.05701 3.61699 0
M  V30 2237 H 216.483 -3.09067 4.53617 0
M  V30 2238 H 216.744 -3.39923 2.82674 0
M  V30 2239 N 215.803 -1.52179 -0.40978 0
M  V30 2240 C 217.051 -1.65878 -1.15451 0
M  V30 2241 C 217.372 -0.390771 -1.91044 0
M  V30 2242 O 216.642 0.594323 -1.86667 0
M  V30 2243 H 215.222 -0.611405 -0.429177 0
M  V30 2244 H 217.884 -1.89219 -0.467134 0
M  V30 2245 H 216.98 -2.49954 -1.86894 0
M  V30 2246 N 217.281 0.66697 -1.42791 0
M  V30 2247 C 218.229 1.80157 -1.47127 0
M  V30 2248 C 219.223 1.65825 -0.346199 0
M  V30 2249 O 220.429 1.72338 -0.519572 0
M  V30 2250 H 216.804 0.594158 -0.460956 0
M  V30 2251 H 218.775 1.73619 -2.42692 0
M  V30 2252 C 217.524 3.18351 -1.39813 0
M  V30 2253 H 216.847 3.3001 -2.25684 0
M  V30 2254 H 218.287 3.97736 -1.46908 0
M  V30 2255 C 216.746 3.36707 -0.11391 0
M  V30 2256 O 217.276 3.93027 0.830241 0
M  V30 2257 N 215.482 2.90586 -0.0285295 0
M  V30 2258 H 215.029 2.4494 -0.79764 0
M  V30 2259 H 214.987 3.03245 0.830063 0
M  V30 2260 N 218.759 1.29093 0.90403 0
M  V30 2261 C 219.707 1.13727 2.02901 0
M  V30 2262 C 220.701 0.0539853 1.69314 0
M  V30 2263 O 221.907 0.213469 1.7873 0
M  V30 2264 H 218.282 0.35117 0.664969 0
M  V30 2265 H 220.253 2.08982 2.13001 0
M  V30 2266 C 219.002 0.826066 3.37745 0
M  V30 2267 H 218.325 1.65164 3.64089 0
M  V30 2268 H 219.765 0.758559 4.17159 0
M  V30 2269 C 218.224 -0.470541 3.33598 0
M  V30 2270 O 218.754 -1.49792 3.72727 0
M  V30 2271 N 216.96 -0.474812 2.86695 0
M  V30 2272 H 216.507 0.361692 2.55048 0
M  V30 2273 H 216.465 -1.34236 2.84303 0
M  V30 2274 N 220.237 -1.11381 1.11499 0
M  V30 2275 C 221.465 -1.86934 0.88675 0
M  V30 2276 C 221.88 -1.80195 -0.563476 0
M  V30 2277 O 221.237 -1.18367 -1.38908 0
M  V30 2278 C 221.288 -3.35722 1.34064 0
M  V30 2279 O 221.009 -3.4232 2.73401 0
M  V30 2280 C 222.51 -4.2818 1.14791 0
M  V30 2281 H 219.73 -0.591117 0.317523 0
M  V30 2282 H 222.274 -1.40865 1.48248 0
M  V30 2283 H 220.429 -3.79294 0.788355 0
M  V30 2284 H 220.843 -4.34971 2.93087 0
M  V30 2285 H 222.317 -5.30817 1.5145 0
M  V30 2286 H 222.794 -4.39113 0.0875279 0
M  V30 2287 H 223.4 -3.90402 1.68721 0
M  V30 2288 N 221.715 -0.905404 -1.28997 0
M  V30 2289 C 223.126 -0.581953 -1.77398 0
M  V30 2290 C 223.477 0.902552 -1.74208 0
M  V30 2291 O 222.602 1.70584 -1.33154 0
M  V30 2292 C 223.197 -1.04961 -3.22131 0
M  V30 2293 C 221.756 -0.777229 -3.68288 0
M  V30 2294 C 220.903 -1.22109 -2.48967 0
M  V30 2295 H 223.854 -1.08754 -1.15578 0
M  V30 2296 H 223.875 -0.387387 -3.78523 0
M  V30 2297 H 223.387 -2.13008 -3.24421 0
M  V30 2298 H 221.488 0.290383 -3.71467 0
M  V30 2299 H 221.601 -1.37911 -4.58822 0
M  V30 2300 H 219.965 -0.639971 -2.46529 0
M  V30 2301 H 220.748 -2.30972 -2.53982 0
M  V30 2302 N 223.193 1.4272 -0.668489 0
M  V30 2303 C 224.442 2.00846 -0.185389 0
M  V30 2304 C 224.755 1.53442 1.21305 0
M  V30 2305 O 225.961 2.03944 1.79218 0
M  V30 2306 C 224.417 3.58805 -0.280591 0
M  V30 2307 C 224.025 4.15198 -1.68268 0
M  V30 2308 C 225.769 4.24255 0.14412 0
M  V30 2309 C 223.676 5.655 -1.73099 0
M  V30 2310 H 222.606 0.751145 -0.0655475 0
M  V30 2311 H 225.257 1.63516 -0.832752 0
M  V30 2312 H 223.639 3.93608 0.434553 0
M  V30 2313 H 224.813 3.91866 -2.42441 0
M  V30 2314 H 223.128 3.62176 -2.05469 0
M  V30 2315 H 225.725 5.34547 0.128086 0
M  V30 2316 H 226.068 3.99277 1.17827 0
M  V30 2317 H 226.601 3.94389 -0.519798 0
M  V30 2318 H 223.34 5.95268 -2.74475 0
M  V30 2319 H 222.86 5.90842 -1.03274 0
M  V30 2320 H 224.539 6.29808 -1.48158 0
M  V30 2321 N 224.671 0.411399 1.52136 0
M  V30 2322 C 225.918 -0.163645 2.01838 0
M  V30 2323 C 226.246 -1.4495 1.29691 0
M  V30 2324 O 225.501 -1.91725 0.392431 0
M  V30 2325 C 225.8 -0.455872 3.54481 0
M  V30 2326 C 225.466 0.741055 4.44769 0
M  V30 2327 C 224.128 1.06936 4.69167 0
M  V30 2328 C 226.48 1.54075 4.97906 0
M  V30 2329 C 223.808 2.19851 5.43951 0
M  V30 2330 C 226.16 2.66067 5.73926 0
M  V30 2331 C 224.824 2.99381 5.96596 0
M  V30 2332 H 224.094 -0.0598821 0.738576 0
M  V30 2333 H 226.741 0.553283 1.83333 0
M  V30 2334 H 225.046 -1.2544 3.71177 0
M  V30 2335 H 226.743 -0.913802 3.90449 0
M  V30 2336 H 223.333 0.475192 4.25958 0
M  V30 2337 H 227.517 1.30033 4.78963 0
M  V30 2338 H 222.773 2.46006 5.59724 0
M  V30 2339 H 226.947 3.28419 6.14096 0
M  V30 2340 H 224.574 3.86992 6.54325 0
M  V30 2341 N 226.149 -1.5696 0.141893 0
M  V30 2342 C 227.396 -1.9596 -0.510492 0
M  V30 2343 C 227.724 -1.02648 -1.65208 0
M  V30 2344 O 226.979 -0.0546947 -1.95624 0
M  V30 2345 C 227.278 -3.41242 -1.06249 0
M  V30 2346 C 226.944 -4.50882 -0.0398791 0
M  V30 2347 C 225.606 -4.80595 0.241247 0
M  V30 2348 C 227.958 -5.17058 0.65578 0
M  V30 2349 C 225.286 -5.73792 1.22393 0
M  V30 2350 C 227.638 -6.11313 1.62724 0
M  V30 2351 C 226.302 -6.39407 1.91612 0
M  V30 2352 H 225.572 -0.717068 -0.186802 0
M  V30 2353 H 228.219 -1.90142 0.227643 0
M  V30 2354 H 226.524 -3.43866 -1.87785 0
M  V30 2355 H 228.221 -3.68742 -1.57576 0
M  V30 2356 H 224.811 -4.27754 -0.269174 0
M  V30 2357 H 228.995 -4.94239 0.451779 0
M  V30 2358 H 224.251 -5.93853 1.45424 0
M  V30 2359 H 228.425 -6.61668 2.17183 0
M  V30 2360 H 226.052 -7.11427 2.6791 0
M  V30 2361 N 227.627 0.131896 -1.57047 0
M  V30 2362 C 228.876 0.84044 -1.83356 0
M  V30 2363 C 229.189 1.81646 -0.725535 0
M  V30 2364 O 230.395 2.57025 -0.874659 0
M  V30 2365 C 228.851 1.54528 -3.25037 0
M  V30 2366 C 228.459 0.610902 -4.43815 0
M  V30 2367 C 230.203 2.23972 -3.60606 0
M  V30 2368 C 228.11 1.31823 -5.76521 0
M  V30 2369 H 227.04 0.317599 -0.683847 0
M  V30 2370 H 229.691 0.0931561 -1.83263 0
M  V30 2371 H 228.073 2.33873 -3.19561 0
M  V30 2372 H 229.247 -0.148407 -4.60561 0
M  V30 2373 H 227.562 0.0241016 -4.16393 0
M  V30 2374 H 230.159 2.77558 -4.57018 0
M  V30 2375 H 230.502 3.01173 -2.87403 0
M  V30 2376 H 231.035 1.51529 -3.6781 0
M  V30 2377 H 227.774 0.587771 -6.52859 0
M  V30 2378 H 227.294 2.04987 -5.63685 0
M  V30 2379 H 228.973 1.855 -6.19838 0
M  V30 2380 N 229.106 1.52395 0.401703 0
M  V30 2381 C 230.522 1.41363 0.740864 0
M  V30 2382 C 230.722 0.523982 1.94568 0
M  V30 2383 O 229.778 -0.00741204 2.52499 0
M  V30 2384 C 231.091 2.84011 0.987847 0
M  V30 2385 C 232.639 2.93404 1.09011 0
M  V30 2386 C 233.114 4.37036 1.3698 0
M  V30 2387 N 234.605 4.40304 1.43829 0
M  V30 2388 C 235.34 5.48508 1.67112 0
M  V30 2389 N 234.836 6.66819 1.87949 0
M  V30 2390 N 236.629 5.36034 1.69187 0
M  V30 2391 H 228.78 2.08765 -0.391262 0
M  V30 2392 H 231.043 0.941265 -0.112798 0
M  V30 2393 H 230.749 3.51265 0.174835 0
M  V30 2394 H 230.623 3.25502 1.906 0
M  V30 2395 H 233.01 2.26325 1.8937 0
M  V30 2396 H 233.091 2.55359 0.15015 0
M  V30 2397 H 232.735 5.04676 0.571353 0
M  V30 2398 H 232.665 4.72623 2.3224 0
M  V30 2399 H 235.156 3.55024 1.29486 0
M  V30 2400 H 235.469 7.45063 2.05185 0
M  V30 2401 H 233.814 6.6987 1.85199 0
M  V30 2402 H 237.005 4.42579 1.52451 0
M  V30 2403 H 237.178 6.20434 1.86993 0
M  V30 2404 N 230.584 -0.659388 1.43143 0
M  V30 2405 C 231.861 -1.41627 1.34912 0
M  V30 2406 C 232.241 -2.11099 -0.00607785 0
M  V30 2407 O 231.589 -2.04353 -1.02236 0
M  V30 2408 C 231.799 -2.40604 2.52805 0
M  V30 2409 C 233.147 -3.04789 2.95616 0
M  V30 2410 O 234.171 -2.50932 2.52807 0
M  V30 2411 O 233.03 -4.02421 3.69756 0
M  V30 2412 H 230.124 -0.63246 0.532844 0
M  V30 2413 H 232.67 -0.686814 1.5518 0
M  V30 2414 H 231.442 -1.88174 3.43083 0
M  V30 2415 H 231.065 -3.21009 2.34604 0
M  V30 2416 N 232.062 -1.29571 -0.897171 0
M  V30 2417 C 233.473 -1.15964 -1.46319 0
M  V30 2418 C 233.824 0.244267 -1.94674 0
M  V30 2419 O 232.949 1.13998 -1.83939 0
M  V30 2420 C 233.544 -2.09906 -2.65942 0
M  V30 2421 C 232.103 -2.00314 -3.18671 0
M  V30 2422 C 231.25 -2.00687 -1.91363 0
M  V30 2423 H 234.201 -1.42019 -0.708268 0
M  V30 2424 H 234.222 -1.67276 -3.41759 0
M  V30 2425 H 233.734 -3.12075 -2.30718 0
M  V30 2426 H 231.835 -1.01242 -3.58582 0
M  V30 2427 H 231.948 -2.88102 -3.82798 0
M  V30 2428 H 230.312 -1.45319 -2.09175 0
M  V30 2429 H 231.095 -3.04566 -1.58413 0
M  V30 2430 N 233.54 1.10788 -1.12088 0
M  V30 2431 C 234.789 1.82036 -0.868659 0
M  V30 2432 C 235.102 1.85929 0.607426 0
M  V30 2433 O 236.308 2.53346 0.97613 0
M  V30 2434 C 234.764 3.26951 -1.50435 0
M  V30 2435 C 234.372 3.31367 -3.01496 0
M  V30 2436 C 236.116 4.03053 -1.33225 0
M  V30 2437 C 234.023 4.7072 -3.58017 0
M  V30 2438 H 232.953 0.682108 -0.321318 0
M  V30 2439 H 235.604 1.24618 -1.34694 0
M  V30 2440 H 233.986 3.84343 -0.953735 0
M  V30 2441 H 235.16 2.83819 -3.6302 0
M  V30 2442 H 233.475 2.6875 -3.18061 0
M  V30 2443 H 236.072 5.05981 -1.72878 0
M  V30 2444 H 236.415 4.15387 -0.275529 0
M  V30 2445 H 236.948 3.52066 -1.85188 0
M  V30 2446 H 233.687 4.63585 -4.63432 0
M  V30 2447 H 233.207 5.1865 -3.01268 0
M  V30 2448 H 234.886 5.39685 -3.56859 0
M  V30 2449 N 235.018 0.912232 1.28515 0
M  V30 2450 C 235.948 0.416403 2.29757 0
M  V30 2451 C 236.929 -0.515194 1.6211 0
M  V30 2452 O 238.114 -0.423253 1.89532 0
M  V30 2453 C 235.244 -0.34572 3.45575 0
M  V30 2454 C 234.198 0.496599 4.25109 0
M  V30 2455 C 233.524 -0.393771 5.33248 0
M  V30 2456 C 234.824 1.75307 4.92001 0
M  V30 2457 H 236.518 1.26249 2.7148 0
M  V30 2458 H 234.064 0.608515 1.30511 0
M  V30 2459 H 236.017 -0.703422 4.15488 0
M  V30 2460 H 234.741 -1.2257 3.02728 0
M  V30 2461 H 233.4 0.8368 3.56922 0
M  V30 2462 H 233.048 -1.27225 4.86644 0
M  V30 2463 H 232.748 0.166209 5.87365 0
M  V30 2464 H 234.272 -0.747389 6.06009 0
M  V30 2465 H 235.686 1.46437 5.54283 0
M  V30 2466 H 234.083 2.25534 5.56106 0
M  V30 2467 H 235.153 2.48176 4.16577 0
M  V30 2468 N 236.496 -1.42363 0.676048 0
M  V30 2469 C 237.743 -2.01522 0.19883 0
M  V30 2470 C 238.071 -1.53456 -1.19505 0
M  V30 2471 O 237.326 -0.727967 -1.81657 0
M  V30 2472 C 237.625 -3.56929 0.183431 0
M  V30 2473 C 237.291 -4.24431 1.52215 0
M  V30 2474 C 235.953 -4.42585 1.8887 0
M  V30 2475 C 238.305 -4.62459 2.40377 0
M  V30 2476 C 235.633 -4.96039 3.13309 0
M  V30 2477 C 237.985 -5.17294 3.64129 0
M  V30 2478 C 236.649 -5.33661 4.00951 0
M  V30 2479 H 235.919 -0.737419 0.0727571 0
M  V30 2480 H 238.566 -1.70531 0.871281 0
M  V30 2481 H 236.871 -3.87594 -0.572532 0
M  V30 2482 H 238.568 -4.00486 -0.203035 0
M  V30 2483 H 235.158 -4.10661 1.22701 0
M  V30 2484 H 239.342 -4.48105 2.13343 0
M  V30 2485 H 234.598 -5.06896 3.41857 0
M  V30 2486 H 238.772 -5.45704 4.32644 0
M  V30 2487 H 236.399 -5.74845 4.9745 0
M  V30 2488 N 237.974 -0.419461 -1.51915 0
M  V30 2489 C 239.385 0.0477853 -1.86639 0
M  V30 2490 C 239.736 1.43531 -1.33766 0
M  V30 2491 O 238.861 2.05401 -0.68113 0
M  V30 2492 C 239.456 0.0934885 -3.38671 0
M  V30 2493 C 238.015 0.505097 -3.72996 0
M  V30 2494 C 237.162 -0.313792 -2.75519 0
M  V30 2495 H 240.113 -0.636088 -1.45395 0
M  V30 2496 H 240.134 0.906667 -3.6954 0
M  V30 2497 H 239.646 -0.916501 -3.77123 0
M  V30 2498 H 237.747 1.52135 -3.40126 0
M  V30 2499 H 237.86 0.242309 -4.78487 0
M  V30 2500 H 236.224 0.225363 -2.53701 0
M  V30 2501 H 237.007 -1.32232 -3.16812 0
M  V30 2502 N 239.452 1.56882 -0.150215 0
M  V30 2503 C 240.677 2.01027 0.510184 0
M  V30 2504 C 241.102 1.02966 1.57415 0
M  V30 2505 O 240.46 0.00590158 1.81299 0
M  V30 2506 C 240.508 3.43899 1.08472 0
M  V30 2507 O 239.612 3.4885 2.19948 0
M  V30 2508 H 238.953 0.652233 0.124451 0
M  V30 2509 H 241.483 2.03093 -0.247894 0
M  V30 2510 H 241.493 3.82766 1.41259 0
M  V30 2511 H 240.168 4.14776 0.305582 0
M  V30 2512 H 238.745 3.21827 1.88366 0
M  V30 2513 N 240.93 -0.123565 1.57115 0
M  V30 2514 C 242.177 -0.832153 1.84612 0
M  V30 2515 C 242.505 -1.80093 0.734627 0
M  V30 2516 O 241.76 -1.93766 -0.27442 0
M  V30 2517 C 242.059 -1.62016 3.18568 0
M  V30 2518 C 241.725 -0.796084 4.43817 0
M  V30 2519 C 240.387 -0.568816 4.77826 0
M  V30 2520 C 242.739 -0.221364 5.2073 0
M  V30 2521 C 240.067 0.243499 5.86194 0
M  V30 2522 C 242.419 0.578117 6.29953 0
M  V30 2523 C 241.083 0.815744 6.62497 0
M  V30 2524 H 240.353 -0.304507 0.675542 0
M  V30 2525 H 243 -0.0947248 1.91266 0
M  V30 2526 H 241.305 -2.42837 3.0747 0
M  V30 2527 H 243.002 -2.17231 3.37064 0
M  V30 2528 H 239.592 -0.983307 4.17168 0
M  V30 2529 H 243.776 -0.384173 4.94811 0
M  V30 2530 H 239.032 0.436871 6.09837 0
M  V30 2531 H 243.206 1.03046 6.88734 0
M  V30 2532 H 240.833 1.44701 7.46301 0
M  V30 2533 N 242.408 -1.52605 -0.393616 0
M  V30 2534 C 243.657 -1.66649 -1.13627 0
M  V30 2535 C 243.97 -0.410364 -1.91247 0
M  V30 2536 O 245.176 -0.430854 -2.68059 0
M  V30 2537 C 243.632 -2.9449 -2.06891 0
M  V30 2538 C 243.24 -4.27266 -1.34714 0
M  V30 2539 C 244.984 -3.17899 -2.81319 0
M  V30 2540 C 242.891 -5.46217 -2.26717 0
M  V30 2541 H 241.821 -0.62084 -0.427871 0
M  V30 2542 H 244.472 -1.791 -0.399428 0
M  V30 2543 H 242.854 -2.75774 -2.84191 0
M  V30 2544 H 244.028 -4.56518 -0.626714 0
M  V30 2545 H 242.343 -4.10081 -0.722643 0
M  V30 2546 H 244.94 -4.03949 -3.50328 0
M  V30 2547 H 245.283 -2.32777 -3.45139 0
M  V30 2548 H 245.816 -3.37159 -2.11113 0
M  V30 2549 H 242.555 -6.33733 -1.67521 0
M  V30 2550 H 242.075 -5.21283 -2.96689 0
M  V30 2551 H 243.754 -5.7991 -2.86903 0
M  V30 2552 N 243.887 0.651787 -1.4349 0
M  V30 2553 C 244.837 1.75783 -1.45205 0
M  V30 2554 C 245.821 1.57679 -0.320328 0
M  V30 2555 O 247.013 1.67767 -0.564211 0
M  V30 2556 C 244.142 3.14377 -1.3792 0
M  V30 2557 C 243.228 3.38023 -2.56127 0
M  V30 2558 N 243.619 3.32135 -3.81471 0
M  V30 2559 C 241.917 3.68747 -2.50882 0
M  V30 2560 C 242.618 3.55902 -4.60118 0
M  V30 2561 N 241.594 3.77783 -3.90872 0
M  V30 2562 H 245.396 1.69657 -2.39987 0
M  V30 2563 H 242.91 0.853508 -1.38163 0
M  V30 2564 H 244.907 3.93666 -1.37231 0
M  V30 2565 H 243.567 3.21683 -0.441596 0
M  V30 2566 H 244.578 3.11515 -4.13738 0
M  V30 2567 H 241.255 3.8316 -1.65816 0
M  V30 2568 H 242.645 3.57116 -5.69138 0
M  V30 2569 N 245.365 1.30045 0.890287 0
M  V30 2570 C 246.59 1.21598 1.68014 0
M  V30 2571 C 247.015 -0.218678 1.86825 0
M  V30 2572 O 246.373 -1.15756 1.39536 0
M  V30 2573 C 246.421 1.94434 3.03691 0
M  V30 2574 O 245.525 1.2678 3.92429 0
M  V30 2575 H 244.866 0.420856 0.513592 0
M  V30 2576 H 247.396 1.71775 1.11151 0
M  V30 2577 H 247.406 2.03251 3.5377 0
M  V30 2578 H 246.081 2.98777 2.89318 0
M  V30 2579 H 244.658 1.26282 3.50866 0
M  V30 2580 N 246.843 -1.10192 1.12674 0
M  V30 2581 C 247.775 -2.16418 0.754701 0
M  V30 2582 C 248.788 -1.61309 -0.21986 0
M  V30 2583 O 249.977 -1.785 -0.000826841 0
M  V30 2584 C 247.077 -3.38762 0.096698 0
M  V30 2585 C 246.25 -4.23307 1.10136 0
M  V30 2586 C 245.309 -5.24092 0.470513 0
M  V30 2587 O 244.335 -5.57906 1.12824 0
M  V30 2588 N 245.537 -5.75491 -0.760948 0
M  V30 2589 H 248.302 -2.48943 1.66875 0
M  V30 2590 H 245.863 -1.25834 1.01869 0
M  V30 2591 H 247.855 -4.03291 -0.337384 0
M  V30 2592 H 246.425 -3.04192 -0.720153 0
M  V30 2593 H 245.645 -3.55036 1.71299 0
M  V30 2594 H 246.933 -4.76624 1.78064 0
M  V30 2595 H 246.331 -5.50222 -1.31424 0
M  V30 2596 H 244.888 -6.41792 -1.13781 0
M  V30 2597 N 248.321 -0.919034 -1.28029 0
M  V30 2598 C 249.268 -0.410005 -2.27129 0
M  V30 2599 C 250.238 0.518405 -1.57803 0
M  V30 2600 O 251.423 0.439451 -1.8567 0
M  V30 2601 C 248.563 0.339054 -3.4343 0
M  V30 2602 C 247.676 -0.622468 -4.27492 0
M  V30 2603 C 246.811 0.145567 -5.31001 0
M  V30 2604 C 245.85 -0.809226 -6.06727 0
M  V30 2605 N 244.987 -0.0743728 -7.02061 0
M  V30 2606 H 249.827 -1.26011 -2.70047 0
M  V30 2607 H 247.364 -0.632663 -1.328 0
M  V30 2608 H 249.322 0.789586 -4.0966 0
M  V30 2609 H 247.952 1.15346 -3.01488 0
M  V30 2610 H 247.004 -1.19153 -3.61257 0
M  V30 2611 H 248.316 -1.35252 -4.80113 0
M  V30 2612 H 247.47 0.656417 -6.03139 0
M  V30 2613 H 246.209 0.908643 -4.79161 0
M  V30 2614 H 245.214 -1.3314 -5.33436 0
M  V30 2615 H 246.439 -1.57194 -6.60656 0
M  V30 2616 H 244.385 0.670616 -6.52563 0
M  V30 2617 H 244.302 -0.744157 -7.52329 0
M  V30 2618 H 245.57 0.416109 -7.78389 0
M  V30 2619 N 249.799 1.42003 -0.683588 0
M  V30 2620 C 251.215 1.55625 -0.353976 0
M  V30 2621 C 251.415 1.66151 1.14 0
M  V30 2622 O 250.471 1.63329 1.92561 0
M  V30 2623 C 251.784 2.80171 -1.092 0
M  V30 2624 C 253.332 2.93954 -1.07518 0
M  V30 2625 C 253.807 4.21372 -1.79471 0
M  V30 2626 N 255.298 4.28303 -1.76381 0
M  V30 2627 C 256.033 5.25729 -2.28904 0
M  V30 2628 N 255.529 6.29254 -2.89846 0
M  V30 2629 N 257.322 5.17586 -2.19228 0
M  V30 2630 H 249.473 1.33415 -1.6527 0
M  V30 2631 H 251.736 0.64282 -0.696769 0
M  V30 2632 H 251.442 2.78561 -2.14701 0
M  V30 2633 H 251.316 3.7133 -0.662862 0
M  V30 2634 H 253.703 2.95086 -0.028475 0
M  V30 2635 H 253.784 2.04002 -1.54328 0
M  V30 2636 H 253.428 4.21001 -2.84114 0
M  V30 2637 H 253.358 5.10275 -1.30104 0
M  V30 2638 H 255.849 3.54119 -1.31939 0
M  V30 2639 H 256.162 6.99964 -3.27522 0
M  V30 2640 H 254.507 6.29791 -2.93919 0
M  V30 2641 H 257.698 4.35631 -1.71299 0
M  V30 2642 H 257.871 5.93348 -2.60466 0
M  V30 2643 N 251.277 0.427512 1.51691 0
M  V30 2644 C 252.225 -0.403359 2.29076 0
M  V30 2645 C 253.219 -1.02962 1.34518 0
M  V30 2646 O 254.425 -0.965715 1.51901 0
M  V30 2647 H 250.8 -0.148879 0.737115 0
M  V30 2648 H 252.771 0.270295 2.97173 0
M  V30 2649 C 251.52 -1.49763 3.13794 0
M  V30 2650 H 250.843 -1.02508 3.86435 0
M  V30 2651 H 252.283 -2.05244 3.71014 0
M  V30 2652 C 250.742 -2.47536 2.28533 0
M  V30 2653 O 251.272 -3.51848 1.93819 0
M  V30 2654 N 249.478 -2.18187 1.91945 0
M  V30 2655 H 249.025 -1.33389 2.20375 0
M  V30 2656 H 248.983 -2.83848 1.35195 0
M  V30 2657 N 252.755 -1.56801 0.158532 0
M  V30 2658 C 254.166 -1.83189 -0.360366 0
M  V30 2659 C 254.517 -1.07778 -1.63946 0
M  V30 2660 O 253.642 -0.326718 -2.13919 0
M  V30 2661 C 254.237 -3.32297 -0.660595 0
M  V30 2662 C 252.796 -3.59227 -1.12398 0
M  V30 2663 C 251.943 -2.76877 -0.153097 0
M  V30 2664 H 254.894 -1.54008 0.383031 0
M  V30 2665 H 254.915 -3.4908 -1.51405 0
M  V30 2666 H 254.427 -3.87156 0.270527 0
M  V30 2667 H 252.528 -3.09766 -2.07064 0
M  V30 2668 H 252.641 -4.67632 -1.04197 0
M  V30 2669 H 251.005 -2.46319 -0.647983 0
M  V30 2670 H 251.788 -3.34511 0.77182 0
M  V30 2671 N 254.233 0.115231 -1.57178 0
M  V30 2672 C 255.165 1.16694 -1.97269 0
M  V30 2673 C 256.178 1.37445 -0.872502 0
M  V30 2674 O 257.367 1.36454 -1.15077 0
M  V30 2675 C 254.467 2.52627 -2.25905 0
M  V30 2676 C 253.64 2.52427 -3.57211 0
M  V30 2677 C 252.699 3.70134 -3.74016 0
M  V30 2678 O 251.725 3.53546 -4.46087 0
M  V30 2679 N 252.927 4.88844 -3.13068 0
M  V30 2680 H 255.692 0.82588 -2.88096 0
M  V30 2681 H 253.253 0.304461 -1.59011 0
M  V30 2682 H 255.245 3.29937 -2.34359 0
M  V30 2683 H 253.815 2.789 -1.41186 0
M  V30 2684 H 253.035 1.60805 -3.5991 0
M  V30 2685 H 254.323 2.49353 -4.43509 0
M  V30 2686 H 253.721 5.05225 -2.54489 0
M  V30 2687 H 252.278 5.63817 -3.27037 0
M  V30 2688 N 255.711 1.52812 0.385517 0
M  V30 2689 C 256.939 1.71907 1.15133 0
M  V30 2690 C 257.354 0.439004 1.83625 0
M  V30 2691 O 256.711 -0.586765 1.7281 0
M  V30 2692 C 256.762 2.87099 2.19673 0
M  V30 2693 O 256.483 4.10151 1.53973 0
M  V30 2694 C 257.984 3.17902 3.08955 0
M  V30 2695 H 255.204 0.575479 0.345057 0
M  V30 2696 H 257.748 1.99476 0.45052 0
M  V30 2697 H 255.903 2.61982 2.85384 0
M  V30 2698 H 256.317 4.74514 2.23465 0
M  V30 2699 H 257.791 4.01959 3.7833 0
M  V30 2700 H 258.268 2.3243 3.72657 0
M  V30 2701 H 258.874 3.44871 2.48885 0
M  V30 2702 N 257.189 -0.644168 1.43834 0
M  V30 2703 C 258.139 -1.7501 1.46135 0
M  V30 2704 C 259.123 -1.57507 0.328685 0
M  V30 2705 O 260.315 -1.67465 0.5731 0
M  V30 2706 C 257.444 -3.13641 1.39585 0
M  V30 2707 C 256.53 -3.3666 2.57916 0
M  V30 2708 N 256.921 -3.30107 3.83227 0
M  V30 2709 C 255.219 -3.67411 2.52834 0
M  V30 2710 C 255.92 -3.53456 4.61999 0
M  V30 2711 N 254.896 -3.75705 3.9287 0
M  V30 2712 H 258.698 -1.68382 2.40883 0
M  V30 2713 H 256.212 -0.846169 1.38614 0
M  V30 2714 H 258.209 -3.92933 1.39317 0
M  V30 2715 H 256.869 -3.21444 0.45865 0
M  V30 2716 H 257.88 -3.09316 4.15384 0
M  V30 2717 H 254.557 -3.82275 1.67845 0
M  V30 2718 H 255.947 -3.54093 5.71024 0
M  V30 2719 N 258.668 -1.30515 -0.883378 0
M  V30 2720 C 259.598 -1.19607 -2.00541 0
M  V30 2721 C 260.579 -0.086346 -1.69881 0
M  V30 2722 O 261.764 -0.268654 -1.92333 0
M  V30 2723 C 258.894 -0.888758 -3.35736 0
M  V30 2724 C 257.848 -1.95659 -3.8066 0
M  V30 2725 C 257.174 -1.50224 -5.13164 0
M  V30 2726 C 258.474 -3.36788 -3.99213 0
M  V30 2727 H 260.168 -2.13476 -2.09925 0
M  V30 2728 H 257.714 -1.02775 -1.00863 0
M  V30 2729 H 259.667 -0.799094 -4.13754 0
M  V30 2730 H 258.391 0.0856125 -3.26488 0
M  V30 2731 H 257.05 -2.03591 -3.04871 0
M  V30 2732 H 256.698 -0.516092 -5.00345 0
M  V30 2733 H 256.398 -2.2165 -5.44192 0
M  V30 2734 H 257.922 -1.42639 -5.93706 0
M  V30 2735 H 259.336 -3.31605 -4.67665 0
M  V30 2736 H 257.733 -4.06314 -4.41621 0
M  V30 2737 H 258.803 -3.78561 -3.03017 0
M  V30 2738 N 260.146 1.09593 -1.13257 0
M  V30 2739 C 261.093 2.1618 -0.808381 0
M  V30 2740 C 262.063 1.64517 0.228754 0
M  V30 2741 O 263.248 1.9053 0.101381 0
M  V30 2742 C 260.388 3.43973 -0.278675 0
M  V30 2743 C 259.501 4.09545 -1.37466 0
M  V30 2744 C 258.636 5.25088 -0.803479 0
M  V30 2745 C 257.675 5.82579 -1.87799 0
M  V30 2746 N 256.812 6.89486 -1.32488 0
M  V30 2747 H 261.652 2.43254 -1.72138 0
M  V30 2748 H 259.189 1.19392 -0.859294 0
M  V30 2749 H 261.147 4.17174 0.0465583 0
M  V30 2750 H 259.777 3.17223 0.597459 0
M  V30 2751 H 258.829 3.34226 -1.81652 0
M  V30 2752 H 260.141 4.48307 -2.18684 0
M  V30 2753 H 259.295 6.05178 -0.429427 0
M  V30 2754 H 258.034 4.87684 0.0397956 0
M  V30 2755 H 257.039 5.01152 -2.26113 0
M  V30 2756 H 258.264 6.22045 -2.72463 0
M  V30 2757 H 256.21 6.54064 -0.503575 0
M  V30 2758 H 256.127 7.27007 -2.07355 0
M  V30 2759 H 257.395 7.73336 -0.978336 0
M  V30 2760 N 261.624 0.925811 1.2754 0
M  V30 2761 C 262.901 0.483726 1.89524 0
M  V30 2762 C 263.281 -1.03809 1.83812 0
M  V30 2763 O 262.629 -1.89143 1.28207 0
M  V30 2764 C 262.839 1.02769 3.33526 0
M  V30 2765 C 264.187 1.08703 4.10449 0
M  V30 2766 O 265.211 0.977175 3.42534 0
M  V30 2767 O 264.07 1.25599 5.31871 0
M  V30 2768 H 261.164 0.15529 0.812289 0
M  V30 2769 H 263.71 1.01738 1.35822 0
M  V30 2770 H 262.482 2.07155 3.31967 0
M  V30 2771 H 262.105 0.475567 3.94746 0
M  V30 2772 N 263.102 -1.41638 0.69111 0
M  V30 2773 C 264.513 -1.84346 0.295517 0
M  V30 2774 C 264.864 -1.57833 -1.16547 0
M  V30 2775 O 263.989 -1.04648 -1.89414 0
M  V30 2776 C 264.584 -3.34636 0.529575 0
M  V30 2777 C 263.143 -3.7593 0.187944 0
M  V30 2778 C 262.29 -2.65082 0.814052 0
M  V30 2779 H 265.241 -1.31253 0.892092 0
M  V30 2780 H 265.262 -3.79903 -0.213148 0
M  V30 2781 H 264.774 -3.53901 1.59297 0
M  V30 2782 H 262.875 -3.62268 -0.871367 0
M  V30 2783 H 262.988 -4.74808 0.63985 0
M  V30 2784 H 261.352 -2.53528 0.244017 0
M  V30 2785 H 262.135 -2.87167 1.88123 0
M  V30 2786 N 264.58 -0.43555 -1.51462 0
M  V30 2787 C 265.857 0.191364 -1.94662 0
M  V30 2788 C 266.237 1.60254 -1.37411 0
M  V30 2789 O 265.585 2.2152 -0.560458 0
M  V30 2790 C 265.795 0.17091 -3.48581 0
M  V30 2791 C 267.143 0.377357 -4.2292 0
M  V30 2792 O 268.167 0.249104 -3.55328 0
M  V30 2793 O 267.026 0.63247 -5.42828 0
M  V30 2794 H 264.12 0.130932 -0.816569 0
M  V30 2795 H 266.666 -0.4934 -1.62369 0
M  V30 2796 H 265.438 -0.815738 -3.82703 0
M  V30 2797 H 265.061 0.898659 -3.87311 0
M  V30 2798 N 266.058 1.56714 -0.166846 0
M  V30 2799 C 266.991 2.13577 0.80375 0
M  V30 2800 C 267.969 1.06464 1.22899 0
M  V30 2801 O 269.153 1.34413 1.32157 0
M  V30 2802 C 266.28 2.67168 2.0818 0
M  V30 2803 C 265.326 3.86612 1.80093 0
M  V30 2804 S 266.159 5.26565 0.97416 0
M  V30 2805 C 267.315 5.83558 2.26297 0
M  V30 2806 H 267.548 2.9557 0.320267 0
M  V30 2807 H 265.081 1.54326 0.0477555 0
M  V30 2808 H 267.039 2.98692 2.8159 0
M  V30 2809 H 265.7 1.85269 2.53642 0
M  V30 2810 H 264.893 4.22422 2.7491 0
M  V30 2811 H 264.495 3.55951 1.14781 0
M  V30 2812 H 266.787 5.962 3.21795 0
M  V30 2813 H 267.73 6.80731 1.94962 0
M  V30 2814 H 268.138 5.11944 2.37853 0
M  V30 2815 N 267.536 -0.106894 1.57237 0
M  V30 2816 C 268.782 -0.81373 1.85759 0
M  V30 2817 C 269.115 -1.78952 0.754315 0
M  V30 2818 O 268.39 -1.93029 -0.23879 0
M  V30 2819 C 268.673 -1.55293 3.24894 0
M  V30 2820 C 268.526 -0.595929 4.45835 0
M  V30 2821 C 269.845 -2.5063 3.61763 0
M  V30 2822 H 266.964 -0.294369 0.67566 0
M  V30 2823 H 269.606 -0.0776472 1.89841 0
M  V30 2824 H 267.756 -2.1804 3.21544 0
M  V30 2825 H 269.428 0.0236262 4.61294 0
M  V30 2826 H 267.671 0.0916191 4.33703 0
M  V30 2827 H 268.342 -1.15004 5.39887 0
M  V30 2828 H 270.818 -1.97982 3.65981 0
M  V30 2829 H 269.694 -2.99376 4.60071 0
M  V30 2830 H 269.955 -3.3385 2.89821 0
M  V30 2831 N 269.014 -1.53014 -0.377408 0
M  V30 2832 C 270.26 -1.69821 -1.11948 0
M  V30 2833 C 270.615 -0.438581 -1.87335 0
M  V30 2834 O 269.908 0.568094 -1.82984 0
M  V30 2835 C 270.102 -2.87982 -2.11663 0
M  V30 2836 C 269.931 -4.25315 -1.46072 0
M  V30 2837 C 268.701 -4.90354 -1.21986 0
M  V30 2838 C 270.899 -5.06281 -0.904664 0
M  V30 2839 N 268.881 -6.11641 -0.526215 0
M  V30 2840 C 270.252 -6.19069 -0.339726 0
M  V30 2841 C 272.307 -4.91395 -0.8022 0
M  V30 2842 C 271.01 -7.18598 0.317669 0
M  V30 2843 C 273.036 -5.91187 -0.158606 0
M  V30 2844 C 272.398 -7.03289 0.39551 0
M  V30 2845 H 268.497 -0.674785 -0.395207 0
M  V30 2846 H 271.081 -1.90389 -0.407437 0
M  V30 2847 H 269.252 -2.68974 -2.80192 0
M  V30 2848 H 270.984 -2.93669 -2.78461 0
M  V30 2849 H 267.739 -4.49286 -1.49798 0
M  V30 2850 H 268.163 -6.76719 -0.195098 0
M  V30 2851 H 272.805 -4.04925 -1.21639 0
M  V30 2852 H 270.523 -8.04669 0.743836 0
M  V30 2853 H 274.109 -5.81744 -0.0804138 0
M  V30 2854 H 272.989 -7.79183 0.885648 0
M  V30 2855 N 270.492 0.636531 -1.44174 0
M  V30 2856 C 271.769 1.39463 -1.37148 0
M  V30 2857 C 272.149 2.11082 -0.027507 0
M  V30 2858 O 271.497 2.05954 0.989716 0
M  V30 2859 C 271.707 2.36552 -2.56601 0
M  V30 2860 C 273.055 3.00048 -3.00427 0
M  V30 2861 O 274.079 2.46878 -2.56767 0
M  V30 2862 O 272.938 3.96488 -3.76111 0
M  V30 2863 H 270.032 0.623903 -0.542839 0
M  V30 2864 H 272.578 0.662039 -1.56253 0
M  V30 2865 H 271.35 1.82692 -3.46034 0
M  V30 2866 H 270.973 3.17236 -2.39681 0
M  V30 2867 N 271.97 1.30982 0.876444 0
M  V30 2868 C 273.217 1.20296 1.62896 0
M  V30 2869 C 273.545 -0.240395 1.93009 0
M  V30 2870 O 272.8 -1.18733 1.55567 0
M  V30 2871 C 273.099 1.98572 2.9716 0
M  V30 2872 C 272.765 3.48125 2.86566 0
M  V30 2873 C 271.427 3.88905 2.83383 0
M  V30 2874 C 273.779 4.43322 2.74071 0
M  V30 2875 C 271.107 5.2316 2.65556 0
M  V30 2876 C 273.459 5.77695 2.57781 0
M  V30 2877 C 272.123 6.17704 2.52979 0
M  V30 2878 H 271.393 0.440193 0.59608 0
M  V30 2879 H 274.04 1.62177 1.01837 0
M  V30 2880 H 272.345 1.49352 3.62217 0
M  V30 2881 H 274.042 1.8769 3.54364 0
M  V30 2882 H 270.632 3.15723 2.89856 0
M  V30 2883 H 274.816 4.12752 2.75589 0
M  V30 2884 H 270.072 5.53241 2.60259 0
M  V30 2885 H 274.246 6.51091 2.47089 0
M  V30 2886 H 271.873 7.21678 2.38924 0
M  V30 2887 N 273.449 -1.08991 1.13837 0
M  V30 2888 C 274.695 -1.81699 0.91417 0
M  V30 2889 C 275.05 -1.84264 -0.553594 0
M  V30 2890 O 274.343 -1.30313 -1.4046 0
M  V30 2891 C 274.537 -3.27042 1.44147 0
M  V30 2892 C 274.366 -3.38637 2.95897 0
M  V30 2893 C 273.136 -3.50177 3.64286 0
M  V30 2894 C 275.334 -3.30791 3.93804 0
M  V30 2895 N 273.316 -3.50501 5.04006 0
M  V30 2896 C 274.687 -3.38037 5.19741 0
M  V30 2897 C 276.742 -3.14488 3.86007 0
M  V30 2898 C 275.445 -3.30659 6.38793 0
M  V30 2899 C 277.471 -3.08438 5.04599 0
M  V30 2900 C 276.833 -3.1628 6.29402 0
M  V30 2901 H 272.932 -0.678967 0.387979 0
M  V30 2902 H 275.516 -1.30224 1.4474 0
M  V30 2903 H 273.687 -3.76976 0.935091 0
M  V30 2904 H 275.419 -3.87785 1.1578 0
M  V30 2905 H 272.174 -3.53815 3.1482 0
M  V30 2906 H 272.598 -3.54236 5.76928 0
M  V30 2907 H 277.24 -3.07291 2.90399 0
M  V30 2908 H 274.958 -3.36618 7.34652 0
M  V30 2909 H 278.544 -2.96952 5.0031 0
M  V30 2910 H 277.424 -3.1162 7.19627 0
M  V30 2911 N 274.927 -0.932562 -1.27047 0
M  V30 2912 C 276.152 -0.591474 -1.98787 0
M  V30 2913 C 276.577 0.824601 -1.69062 0
M  V30 2914 O 275.935 1.5541 -0.933677 0
M  V30 2915 C 275.983 -0.829808 -3.50922 0
M  V30 2916 O 275.087 0.102266 -4.12273 0
M  V30 2917 H 274.428 -0.227185 -0.623926 0
M  V30 2918 H 276.958 -1.25314 -1.61733 0
M  V30 2919 H 276.968 -0.747292 -4.01098 0
M  V30 2920 H 275.643 -1.86201 -3.7189 0
M  V30 2921 H 274.22 -0.0305761 -3.72887 0
M  V30 2922 N 276.405 1.4127 -0.698611 0
M  V30 2923 C 277.335 2.33447 -0.049629 0
M  V30 2924 C 278.316 1.51982 0.763898 0
M  V30 2925 O 279.501 1.80509 0.716257 0
M  V30 2926 C 276.631 3.35828 0.885267 0
M  V30 2927 C 275.585 4.27627 0.178613 0
M  V30 2928 C 274.911 5.20406 1.22807 0
M  V30 2929 C 276.211 5.13459 -0.956933 0
M  V30 2930 H 277.905 2.87966 -0.81951 0
M  V30 2931 H 275.451 1.38461 -0.395538 0
M  V30 2932 H 277.404 3.9924 1.34854 0
M  V30 2933 H 276.128 2.79666 1.68685 0
M  V30 2934 H 274.787 3.65643 -0.26466 0
M  V30 2935 H 274.435 4.60558 2.02226 0
M  V30 2936 H 274.135 5.82661 0.760239 0
M  V30 2937 H 275.659 5.86695 1.69179 0
M  V30 2938 H 277.073 5.70421 -0.573805 0
M  V30 2939 H 275.47 5.8467 -1.35205 0
M  V30 2940 H 276.54 4.50443 -1.79524 0
M  V30 2941 N 277.883 0.443576 1.51229 0
M  V30 2942 C 279.299 0.0962001 1.5931 0
M  V30 2943 C 279.499 -1.39501 1.45402 0
M  V30 2944 O 278.555 -2.16557 1.29843 0
M  V30 2945 C 279.868 0.621875 2.94199 0
M  V30 2946 C 281.416 0.582865 3.07525 0
M  V30 2947 C 281.891 1.08562 4.44948 0
M  V30 2948 N 283.382 1.04387 4.51284 0
M  V30 2949 C 284.117 1.40368 5.55954 0
M  V30 2950 N 283.613 1.83664 6.68011 0
M  V30 2951 N 285.406 1.32145 5.46346 0
M  V30 2952 H 277.557 1.41376 1.58514 0
M  V30 2953 H 279.82 0.582965 0.747567 0
M  V30 2954 H 279.526 1.66546 3.09767 0
M  V30 2955 H 279.4 0.0502125 3.77167 0
M  V30 2956 H 281.787 -0.451749 2.91622 0
M  V30 2957 H 281.868 1.191 2.26382 0
M  V30 2958 H 281.512 2.11873 4.61598 0
M  V30 2959 H 281.442 0.453956 5.2464 0
M  V30 2960 H 283.933 0.725986 3.70861 0
M  V30 2961 H 284.246 2.0934 7.43906 0
M  V30 2962 H 282.591 1.87596 6.69203 0
M  V30 2963 H 285.782 0.981808 4.57688 0
M  V30 2964 H 285.955 1.60514 6.27805 0
M  V30 2965 N 279.361 -1.56624 0.175154 0
M  V30 2966 C 280.772 -1.83561 -0.340916 0
M  V30 2967 C 281.123 -1.09511 -1.62794 0
M  V30 2968 O 280.248 -0.349389 -2.13561 0
M  V30 2969 C 280.843 -3.32979 -0.625313 0
M  V30 2970 C 279.402 -3.60399 -1.08581 0
M  V30 2971 C 278.549 -2.77024 -0.123722 0
M  V30 2972 H 281.5 -1.53593 0.399344 0
M  V30 2973 H 281.521 -3.50666 -1.47694 0
M  V30 2974 H 281.033 -3.86847 0.311575 0
M  V30 2975 H 279.134 -3.11945 -2.03767 0
M  V30 2976 H 279.247 -4.68711 -0.992317 0
M  V30 2977 H 277.611 -2.46993 -0.621821 0
M  V30 2978 H 278.394 -3.33674 0.807256 0
M  V30 2979 N 280.839 0.0985539 -1.57292 0
M  V30 2980 C 281.749 1.13824 -2.05137 0
M  V30 2981 C 282.765 1.44076 -0.975604 0
M  V30 2982 O 283.941 1.54786 -1.28853 0
M  V30 2983 C 281.006 2.43969 -2.46333 0
M  V30 2984 C 280.067 2.2093 -3.68087 0
M  V30 2985 C 279.3 3.44869 -4.0731 0
M  V30 2986 O 279.523 4.52972 -3.46659 0
M  V30 2987 O 278.457 3.34661 -5.00285 0
M  V30 2988 H 282.283 0.761881 -2.93988 0
M  V30 2989 H 279.868 0.310818 -1.46131 0
M  V30 2990 H 281.75 3.20609 -2.73473 0
M  V30 2991 H 280.425 2.81038 -1.60621 0
M  V30 2992 H 279.332 1.42081 -3.46069 0
M  V30 2993 H 280.665 1.88755 -4.54568 0
M  V30 2994 N 282.317 1.53212 0.369288 0
M  V30 2995 C 283.542 1.73423 1.1375 0
M  V30 2996 C 283.967 0.460404 1.82378 0
M  V30 2997 O 283.325 -0.585298 1.71592 0
M  V30 2998 C 283.373 2.89769 2.1463 0
M  V30 2999 O 282.477 2.58119 3.21634 0
M  V30 3000 H 281.818 0.576061 0.330227 0
M  V30 3001 H 284.348 2.00083 0.427547 0
M  V30 3002 H 284.358 3.15829 2.58294 0
M  V30 3003 H 283.033 3.8217 1.64071 0
M  V30 3004 H 281.61 2.42864 2.82969 0
M  V30 3005 N 283.795 -0.628877 1.44509 0
M  V30 3006 C 284.725 -1.75187 1.54376 0
M  V30 3007 C 285.706 -1.65411 0.396618 0
M  V30 3008 O 286.891 -1.84137 0.617031 0
M  V30 3009 C 284.021 -3.13725 1.48976 0
M  V30 3010 C 282.975 -3.38291 2.62189 0
M  V30 3011 C 282.301 -4.76883 2.41841 0
M  V30 3012 C 283.601 -3.30632 4.04326 0
M  V30 3013 H 285.295 -1.67187 2.48373 0
M  V30 3014 H 282.841 -0.802909 1.19538 0
M  V30 3015 H 284.794 -3.92064 1.54478 0
M  V30 3016 H 283.518 -3.22515 0.514961 0
M  V30 3017 H 282.177 -2.62334 2.56079 0
M  V30 3018 H 281.825 -4.82378 1.42548 0
M  V30 3019 H 281.525 -4.94278 3.17747 0
M  V30 3020 H 283.049 -5.57449 2.49165 0
M  V30 3021 H 284.463 -3.98873 4.11793 0
M  V30 3022 H 282.86 -3.59561 4.80454 0
M  V30 3023 H 283.93 -2.28404 4.27738 0
M  V30 3024 N 285.273 -1.31445 -0.869486 0
M  V30 3025 C 286.223 -1.15731 -1.96444 0
M  V30 3026 C 287.207 -0.0681855 -1.60755 0
M  V30 3027 O 288.399 -0.293154 -1.74555 0
M  V30 3028 C 285.528 -0.867255 -3.32165 0
M  V30 3029 C 284.614 -1.99738 -3.74119 0
M  V30 3030 N 285.005 -3.24447 -3.88031 0
M  V30 3031 C 283.303 -1.89723 -4.03635 0
M  V30 3032 C 284.004 -3.98374 -4.23879 0
M  V30 3033 N 282.98 -3.26547 -4.3459 0
M  V30 3034 H 286.782 -2.10296 -2.05312 0
M  V30 3035 H 284.296 -1.23009 -1.06031 0
M  V30 3036 H 286.293 -0.735668 -4.10358 0
M  V30 3037 H 284.953 0.0701614 -3.24624 0
M  V30 3038 H 285.964 -3.59557 -3.72746 0
M  V30 3039 H 282.641 -1.03449 -4.04481 0
M  V30 3040 H 284.031 -5.05844 -4.42235 0
M  V30 3041 N 286.751 1.08385 -1.14413 0
M  V30 3042 C 287.683 2.1519 -0.789036 0
M  V30 3043 C 288.696 1.61638 0.19417 0
M  V30 3044 O 289.885 1.78479 -0.0275711 0
M  V30 3045 C 286.985 3.38565 -0.15058 0
M  V30 3046 C 286.158 4.21501 -1.16857 0
M  V30 3047 C 285.217 5.23277 -0.553832 0
M  V30 3048 O 284.243 5.56041 -1.21686 0
M  V30 3049 N 285.445 5.76629 0.669296 0
M  V30 3050 H 288.21 2.46257 -1.70814 0
M  V30 3051 H 285.771 1.24198 -1.03858 0
M  V30 3052 H 287.763 4.03777 0.273181 0
M  V30 3053 H 286.333 3.05299 0.671667 0
M  V30 3054 H 285.553 3.52265 -1.76926 0
M  V30 3055 H 286.841 4.73731 -1.85624 0
M  V30 3056 H 286.239 5.52243 1.22654 0
M  V30 3057 H 284.796 6.43521 1.03556 0
M  V30 3058 N 288.23 0.939286 1.26551 0
M  V30 3059 C 289.476 0.586715 1.94128 0
M  V30 3060 C 289.809 -0.8717 1.73537 0
M  V30 3061 O 289.084 -1.62339 1.07127 0
M  V30 3062 C 289.367 0.927497 3.4795 0
M  V30 3063 C 289.22 2.44052 3.77834 0
M  V30 3064 C 290.539 0.441569 4.37879 0
M  V30 3065 H 287.658 0.21463 0.705055 0
M  V30 3066 H 290.3 1.17316 1.49455 0
M  V30 3067 H 288.45 0.428431 3.8613 0
M  V30 3068 H 290.122 3.01216 3.4938 0
M  V30 3069 H 288.365 2.8848 3.23978 0
M  V30 3070 H 289.036 2.62947 4.85348 0
M  V30 3071 H 291.512 0.869448 4.06915 0
M  V30 3072 H 290.388 0.708856 5.44304 0
M  V30 3073 H 290.649 -0.658467 4.37169 0
M  V30 3074 N 289.708 -1.40897 0.706093 0
M  V30 3075 C 290.933 -2.05895 0.249435 0
M  V30 3076 C 291.358 -1.52823 -1.09666 0
M  V30 3077 O 290.716 -0.659589 -1.68876 0
M  V30 3078 C 290.764 -3.59872 0.22904 0
M  V30 3079 O 289.868 -4.04708 -0.792784 0
M  V30 3080 H 289.209 -0.653206 0.119241 0
M  V30 3081 H 291.739 -1.80471 0.96391 0
M  V30 3082 H 291.749 -4.07951 0.0634791 0
M  V30 3083 H 290.424 -3.97866 1.21141 0
M  V30 3084 H 289.001 -3.68111 -0.59572 0
M  V30 3085 N 291.186 -0.45159 -1.50991 0
M  V30 3086 C 292.433 0.110074 -2.02201 0
M  V30 3087 C 292.761 1.4146 -1.33489 0
M  V30 3088 O 292.016 1.90617 -0.443125 0
M  V30 3089 C 292.315 0.361728 -3.55565 0
M  V30 3090 C 291.981 -0.858717 -4.42648 0
M  V30 3091 C 290.643 -1.19338 -4.66167 0
M  V30 3092 C 292.995 -1.67221 -4.93646 0
M  V30 3093 C 290.323 -2.34195 -5.37931 0
M  V30 3094 C 292.675 -2.8119 -5.6667 0
M  V30 3095 C 291.339 -3.15094 -5.88449 0
M  V30 3096 H 290.609 0.040279 -0.739904 0
M  V30 3097 H 293.256 -0.601696 -1.81802 0
M  V30 3098 H 291.561 1.15554 -3.74372 0
M  V30 3099 H 293.258 0.80996 -3.92735 0
M  V30 3100 H 289.848 -0.58796 -4.24548 0
M  V30 3101 H 294.032 -1.42686 -4.75347 0
M  V30 3102 H 289.288 -2.6076 -5.53005 0
M  V30 3103 H 293.462 -3.44585 -6.05173 0
M  V30 3104 H 291.089 -4.04204 -6.43835 0
M  V30 3105 N 292.664 1.56529 -0.183458 0
M  V30 3106 C 293.594 2.21549 0.737456 0
M  V30 3107 C 294.575 1.17489 1.23005 0
M  V30 3108 O 295.76 1.45959 1.281 0
M  V30 3109 C 292.89 2.86575 1.96194 0
M  V30 3110 C 291.844 3.96778 1.60473 0
M  V30 3111 C 291.17 4.48911 2.90487 0
M  V30 3112 C 292.47 5.15767 0.823497 0
M  V30 3113 H 294.164 2.98761 0.195453 0
M  V30 3114 H 291.71 1.43702 0.0925686 0
M  V30 3115 H 293.663 3.30739 2.61131 0
M  V30 3116 H 292.387 2.06749 2.52828 0
M  V30 3117 H 291.046 3.53286 0.978997 0
M  V30 3118 H 290.694 3.65862 3.45186 0
M  V30 3119 H 290.394 5.23265 2.67335 0
M  V30 3120 H 291.918 4.95771 3.56432 0
M  V30 3121 H 293.332 5.56549 1.37571 0
M  V30 3122 H 291.729 5.96114 0.690551 0
M  V30 3123 H 292.799 4.84574 -0.177782 0
M  V30 3124 N 294.142 -0.090211 1.57342 0
M  V30 3125 C 295.389 -0.792807 1.86335 0
M  V30 3126 C 295.717 -1.78494 0.772662 0
M  V30 3127 O 294.972 -1.94305 -0.233258 0
M  V30 3128 C 295.271 -1.55222 3.21933 0
M  V30 3129 C 294.937 -0.701765 4.45406 0
M  V30 3130 C 293.599 -0.467334 4.78925 0
M  V30 3131 C 295.951 -0.11086 5.21082 0
M  V30 3132 C 293.279 0.367785 5.85546 0
M  V30 3133 C 295.631 0.711609 6.28585 0
M  V30 3134 C 294.295 0.956086 6.60617 0
M  V30 3135 H 293.565 -0.290109 0.681849 0
M  V30 3136 H 296.212 -0.0541332 1.91423 0
M  V30 3137 H 294.517 -2.3626 3.12551 0
M  V30 3138 H 296.214 -2.10032 3.41595 0
M  V30 3139 H 292.804 -0.894598 4.1916 0
M  V30 3140 H 296.988 -0.279129 4.95514 0
M  V30 3141 H 292.244 0.566128 6.08773 0
M  V30 3142 H 296.418 1.17632 6.86393 0
M  V30 3143 H 294.045 1.60499 7.43064 0
M  V30 3144 N 295.62 -1.53406 -0.361157 0
M  V30 3145 C 296.845 -1.74024 -1.12829 0
M  V30 3146 C 297.27 -0.470069 -1.82132 0
M  V30 3147 O 296.628 0.57619 -1.719 0
M  V30 3148 C 296.676 -2.90903 -2.13091 0
M  V30 3149 O 295.78 -2.59821 -3.20261 0
M  V30 3150 H 295.121 -0.577804 -0.327168 0
M  V30 3151 H 297.651 -2.00307 -0.41693 0
M  V30 3152 H 297.661 -3.17194 -2.56616 0
M  V30 3153 H 296.336 -3.83034 -1.62042 0
M  V30 3154 H 294.913 -2.44362 -2.81677 0
M  V30 3155 N 297.098 0.621204 -1.44841 0
M  V30 3156 C 298.375 1.38 -1.38619 0
M  V30 3157 C 298.755 2.11041 -0.0498935 0
M  V30 3158 O 298.103 2.06992 0.967816 0
M  V30 3159 C 298.313 2.33817 -2.59096 0
M  V30 3160 C 299.661 2.96844 -3.03593 0
M  V30 3161 O 300.685 2.44141 -2.59371 0
M  V30 3162 O 299.544 3.92476 -3.80296 0
M  V30 3163 H 296.638 0.61811 -0.549426 0
M  V30 3164 H 299.184 0.645429 -1.56947 0
M  V30 3165 H 297.956 1.79012 -3.47952 0
M  V30 3166 H 297.579 3.14676 -2.43032 0
M  V30 3167 N 298.576 1.31904 0.862503 0
M  V30 3168 C 299.992 1.10724 1.14945 0
M  V30 3169 C 300.192 -0.117421 2.01158 0
M  V30 3170 O 299.248 -0.804595 2.39338 0
M  V30 3171 C 300.561 2.38267 1.83437 0
M  V30 3172 C 302.109 2.43949 1.96106 0
M  V30 3173 C 302.584 3.71394 2.68013 0
M  V30 3174 N 304.075 3.72331 2.75543 0
M  V30 3175 C 304.81 4.67641 3.31812 0
M  V30 3176 N 304.306 5.73313 3.88953 0
M  V30 3177 N 306.099 4.5515 3.29841 0
M  V30 3178 H 298.25 2.10436 0.288191 0
M  V30 3179 H 300.513 0.928705 0.190292 0
M  V30 3180 H 300.219 3.27759 1.27542 0
M  V30 3181 H 300.093 2.48633 2.83657 0
M  V30 3182 H 302.48 1.54922 2.51164 0
M  V30 3183 H 302.561 2.37543 0.949059 0
M  V30 3184 H 302.205 4.60791 2.13621 0
M  V30 3185 H 302.135 3.75069 3.69636 0
M  V30 3186 H 304.626 2.95947 2.34997 0
M  V30 3187 H 304.939 6.42107 4.30022 0
M  V30 3188 H 303.284 5.77077 3.87308 0
M  V30 3189 H 306.475 3.71766 2.84443 0
M  V30 3190 H 306.648 5.29604 3.73394 0
M  V30 3191 N 300.054 -1.07777 1.14986 0
M  V30 3192 C 301.302 -1.79934 0.920235 0
M  V30 3193 C 301.623 -1.86955 -0.554336 0
M  V30 3194 O 300.893 -1.36731 -1.40291 0
M  V30 3195 H 299.473 -0.666424 0.337473 0
M  V30 3196 H 302.135 -1.3027 1.44968 0
M  V30 3197 H 301.231 -2.82539 1.32583 0
M  V30 3198 N 301.532 -0.945985 -1.26051 0
M  V30 3199 C 302.781 -0.591836 -1.92822 0
M  V30 3200 C 303.094 0.873956 -1.7499 0
M  V30 3201 O 304.3 1.33769 -2.36259 0
M  V30 3202 C 302.756 -1.00776 -3.45503 0
M  V30 3203 C 302.364 -2.4955 -3.7206 0
M  V30 3204 C 304.108 -0.725735 -4.1825 0
M  V30 3205 C 302.015 -2.84988 -5.18205 0
M  V30 3206 H 300.945 -0.217635 -0.721908 0
M  V30 3207 H 303.596 -1.14927 -1.43052 0
M  V30 3208 H 301.978 -0.378812 -3.94184 0
M  V30 3209 H 303.152 -3.1739 -3.34066 0
M  V30 3210 H 301.467 -2.75133 -3.12555 0
M  V30 3211 H 304.064 -0.966771 -5.25887 0
M  V30 3212 H 304.407 0.337639 -4.14929 0
M  V30 3213 H 304.94 -1.31463 -3.7545 0
M  V30 3214 H 301.679 -3.90307 -5.26631 0
M  V30 3215 H 301.199 -2.21813 -5.57278 0
M  V30 3216 H 302.878 -2.73712 -5.86252 0
M  V30 3217 N 303.011 1.40521 -0.713556 0
M  V30 3218 C 304.422 1.83853 -0.324807 0
M  V30 3219 C 304.773 1.59667 1.14021 0
M  V30 3220 O 303.898 1.07649 1.87725 0
M  V30 3221 C 304.493 3.33751 -0.582746 0
M  V30 3222 C 303.052 3.75584 -0.247727 0
M  V30 3223 C 302.199 2.63753 -0.856121 0
M  V30 3224 H 305.15 1.29817 -0.91286 0
M  V30 3225 H 305.171 3.80194 0.152682 0
M  V30 3226 H 304.683 3.51322 -1.64908 0
M  V30 3227 H 302.784 3.63608 0.813624 0
M  V30 3228 H 302.897 4.7373 -0.715307 0
M  V30 3229 H 301.261 2.53108 -0.28432 0
M  V30 3230 H 302.044 2.84137 -1.92668 0
M  V30 3231 N 304.489 0.459591 1.5075 0
M  V30 3232 C 305.766 -0.160371 1.94941 0
M  V30 3233 C 306.146 -1.58048 1.39943 0
M  V30 3234 O 305.494 -2.206 0.595629 0
M  V30 3235 C 305.704 -0.115432 3.48809 0
M  V30 3236 C 307.052 -0.310026 4.23467 0
M  V30 3237 O 308.076 -0.192543 3.55679 0
M  V30 3238 O 306.935 -0.546031 5.43765 0
M  V30 3239 H 304.029 -0.117925 0.818549 0
M  V30 3240 H 306.575 0.519169 1.61563 0
M  V30 3241 H 305.347 0.87652 3.81357 0
M  V30 3242 H 304.97 -0.836928 3.88692 0
M  V30 3243 N 305.967 -1.56429 0.191757 0
M  V30 3244 C 307.215 -1.97095 -0.447006 0
M  V30 3245 C 307.536 -1.07967 -1.62383 0
M  V30 3246 O 306.806 -0.150248 -1.95323 0
M  V30 3247 H 305.386 -0.727832 -0.168135 0
M  V30 3248 H 308.048 -1.92911 0.27771 0
M  V30 3249 H 307.144 -3.01848 -0.793371 0
M  V30 3250 N 307.445 0.0818655 -1.57387 0
M  V30 3251 C 308.395 1.10501 -1.99433 0
M  V30 3252 C 309.379 1.35041 -0.874798 0
M  V30 3253 O 310.571 1.35511 -1.13868 0
M  V30 3254 C 307.7 2.42159 -2.43339 0
M  V30 3255 C 306.786 2.20937 -3.62005 0
M  V30 3256 N 307.177 1.69616 -4.76512 0
M  V30 3257 C 305.475 2.51451 -3.68359 0
M  V30 3258 C 306.176 1.62973 -5.58404 0
M  V30 3259 N 305.152 2.08664 -5.01956 0
M  V30 3260 H 308.954 0.701373 -2.85408 0
M  V30 3261 H 306.468 0.289096 -1.59806 0
M  V30 3262 H 308.465 3.16208 -2.71695 0
M  V30 3263 H 307.125 2.83249 -1.58746 0
M  V30 3264 H 308.136 1.38624 -4.99003 0
M  V30 3265 H 304.813 2.95975 -2.94457 0
M  V30 3266 H 306.203 1.24233 -6.60315 0
M  V30 3267 N 308.923 1.53595 0.353017 0
M  V30 3268 C 310.339 1.43648 0.695516 0
M  V30 3269 C 310.539 0.585617 1.92802 0
M  V30 3270 O 309.595 0.0729223 2.52395 0
M  V30 3271 C 310.908 2.8701 0.896991 0
M  V30 3272 C 312.456 2.96723 0.996209 0
M  V30 3273 C 312.931 4.41173 1.23007 0
M  V30 3274 N 314.422 4.44657 1.29749 0
M  V30 3275 C 315.157 5.53547 1.49577 0
M  V30 3276 N 314.653 6.72461 1.66639 0
M  V30 3277 N 316.446 5.41145 1.52048 0
M  V30 3278 H 308.597 2.07415 -0.457481 0
M  V30 3279 H 310.86 0.9372 -0.142687 0
M  V30 3280 H 310.566 3.51644 0.0629938 0
M  V30 3281 H 310.44 3.31401 1.80148 0
M  V30 3282 H 312.827 2.32235 1.82074 0
M  V30 3283 H 312.908 2.55707 0.0688331 0
M  V30 3284 H 312.552 5.06238 0.410505 0
M  V30 3285 H 312.482 4.79772 2.17086 0
M  V30 3286 H 314.973 3.58963 1.18126 0
M  V30 3287 H 315.286 7.51214 1.81378 0
M  V30 3288 H 313.631 6.75423 1.63794 0
M  V30 3289 H 316.822 4.47205 1.38294 0
M  V30 3290 H 316.995 6.26068 1.67159 0
M  V30 3291 N 310.401 -0.613514 1.45168 0
M  V30 3292 C 311.351 -1.71871 1.49815 0
M  V30 3293 C 312.335 -1.56774 0.362021 0
M  V30 3294 O 313.527 -1.66212 0.608493 0
M  V30 3295 C 310.656 -3.1061 1.46207 0
M  V30 3296 C 309.742 -3.31114 2.64999 0
M  V30 3297 N 310.133 -3.21904 3.90143 0
M  V30 3298 C 308.431 -3.61966 2.6057 0
M  V30 3299 C 309.132 -3.43577 4.69393 0
M  V30 3300 N 308.108 -3.67287 4.00751 0
M  V30 3301 H 311.91 -1.63235 2.444 0
M  V30 3302 H 309.424 -0.816577 1.40377 0
M  V30 3303 H 311.421 -3.8989 1.4762 0
M  V30 3304 H 310.081 -3.20399 0.52673 0
M  V30 3305 H 311.092 -3.00436 4.21852 0
M  V30 3306 H 307.769 -3.78629 1.75916 0
M  V30 3307 H 309.159 -3.41901 5.78406 0
M  V30 3308 N 311.879 -1.3236 -0.855495 0
M  V30 3309 C 312.812 -1.15559 -1.96777 0
M  V30 3310 C 313.79 -0.0552681 -1.62506 0
M  V30 3311 O 314.974 -0.214419 -1.87277 0
M  V30 3312 C 312.101 -0.768851 -3.29858 0
M  V30 3313 C 311.147 -1.87429 -3.83109 0
M  V30 3314 S 311.98 -3.48243 -4.06801 0
M  V30 3315 C 313.136 -3.11539 -5.42858 0
M  V30 3316 H 313.369 -2.09717 -2.10727 0
M  V30 3317 H 310.902 -1.17011 -1.00737 0
M  V30 3318 H 312.86 -0.55248 -4.06765 0
M  V30 3319 H 311.521 0.153857 -3.13723 0
M  V30 3320 H 310.714 -1.55667 -4.79358 0
M  V30 3321 H 310.316 -2.04647 -3.13042 0
M  V30 3322 H 312.608 -2.61331 -6.2507 0
M  V30 3323 H 313.551 -4.06806 -5.79582 0
M  V30 3324 H 313.959 -2.48582 -5.06821 0
M  V30 3325 N 313.357 1.07166 -1.15556 0
M  V30 3326 C 314.305 2.16517 -0.8499 0
M  V30 3327 C 315.299 1.68468 0.177454 0
M  V30 3328 O 316.505 1.79971 0.0323026 0
M  V30 3329 H 312.88 0.706652 -0.25719 0
M  V30 3330 H 314.851 2.39514 -1.77976 0
M  V30 3331 C 313.6 3.45855 -0.357682 0
M  V30 3332 H 312.923 3.83214 -1.13961 0
M  V30 3333 H 314.363 4.23607 -0.182489 0
M  V30 3334 C 312.822 3.24062 0.921152 0
M  V30 3335 O 313.352 3.48813 1.9923 0
M  V30 3336 N 311.558 2.77539 0.86141 0
M  V30 3337 H 311.105 2.57598 -0.0104408 0
M  V30 3338 H 311.063 2.63337 1.71758 0
M  V30 3339 N 314.835 0.952656 1.25548 0
M  V30 3340 C 316.083 0.605176 1.92826 0
M  V30 3341 C 316.404 -0.860261 1.74999 0
M  V30 3342 O 315.674 -1.6125 1.11244 0
M  V30 3343 H 314.254 0.220832 0.713612 0
M  V30 3344 H 316.916 1.21047 1.52754 0
M  V30 3345 H 316.012 0.832798 3.00784 0
M  V30 3346 N 316.313 -1.40141 0.720998 0
M  V30 3347 C 317.543 -2.04798 0.27226 0
M  V30 3348 C 317.951 -1.54442 -1.09289 0
M  V30 3349 O 317.294 -0.698342 -1.69908 0
M  V30 3350 C 317.356 -3.59048 0.18027 0
M  V30 3351 C 317.02 -4.32317 1.48159 0
M  V30 3352 C 318.017 -4.59902 2.42458 0
M  V30 3353 C 315.702 -4.71125 1.74202 0
M  V30 3354 C 317.696 -5.25288 3.61042 0
M  V30 3355 C 315.383 -5.36242 2.93066 0
M  V30 3356 C 316.381 -5.63254 3.86308 0
M  V30 3357 O 316.069 -6.27024 5.03086 0
M  V30 3358 H 315.801 -0.665419 0.119139 0
M  V30 3359 H 318.355 -1.80436 0.981432 0
M  V30 3360 H 316.585 -3.82251 -0.58489 0
M  V30 3361 H 318.274 -4.05221 -0.234618 0
M  V30 3362 H 319.04 -4.30379 2.23604 0
M  V30 3363 H 314.919 -4.49466 1.02477 0
M  V30 3364 H 318.463 -5.46289 4.33837 0
M  V30 3365 H 314.36 -5.65185 3.11826 0
M  V30 3366 H 315.128 -6.4552 5.03235 0
M  V30 3367 N 317.792 -0.46758 -1.50504 0
M  V30 3368 C 319.04 0.0884469 -2.01906 0
M  V30 3369 C 319.361 1.40532 -1.35188 0
M  V30 3370 O 318.631 1.89515 -0.496079 0
M  V30 3371 H 317.211 0.0356765 -0.746148 0
M  V30 3372 H 319.873 -0.6172 -1.84869 0
M  V30 3373 H 318.969 0.2425 -3.11156 0
M  V30 3374 N 319.27 1.56325 -0.20005 0
M  V30 3375 C 320.495 2.02548 0.44597 0
M  V30 3376 C 320.92 1.07922 1.5406 0
M  V30 3377 O 320.278 0.0635775 1.81188 0
M  V30 3378 C 320.326 3.47175 0.974761 0
M  V30 3379 O 319.43 3.55671 2.08739 0
M  V30 3380 H 318.771 0.655862 0.103638 0
M  V30 3381 H 321.301 2.02201 -0.312381 0
M  V30 3382 H 321.311 3.87067 1.2901 0
M  V30 3383 H 319.986 4.15538 0.17347 0
M  V30 3384 H 318.563 3.27657 1.78032 0
M  V30 3385 N 320.748 -0.0735177 1.57428 0
M  V30 3386 C 321.698 -1.09442 2.00016 0
M  V30 3387 C 322.682 -1.34575 0.881947 0
M  V30 3388 O 323.874 -1.34905 1.14585 0
M  V30 3389 C 321.003 -2.40865 2.4462 0
M  V30 3390 C 320.089 -2.19014 3.63172 0
M  V30 3391 N 320.48 -1.67087 4.77405 0
M  V30 3392 C 318.778 -2.49494 3.69688 0
M  V30 3393 C 319.479 -1.6001 5.5926 0
M  V30 3394 N 318.455 -2.05999 5.03056 0
M  V30 3395 H 322.257 -0.686227 2.85776 0
M  V30 3396 H 319.771 -0.280617 1.59957 0
M  V30 3397 H 321.768 -3.14763 2.73368 0
M  V30 3398 H 320.428 -2.82403 1.60246 0
M  V30 3399 H 321.439 -1.35975 4.99731 0
M  V30 3400 H 318.116 -2.94409 2.96023 0
M  V30 3401 H 319.506 -1.2073 6.60964 0
M  V30 3402 N 322.226 -1.5378 -0.344866 0
M  V30 3403 C 323.454 -1.74899 -1.10534 0
M  V30 3404 C 323.869 -0.487534 -1.82397 0
M  V30 3405 O 323.226 0.540741 -1.74305 0
M  V30 3406 C 323.277 -2.92822 -2.11984 0
M  V30 3407 O 322.998 -4.14089 -1.43044 0
M  V30 3408 C 324.499 -3.25982 -3.00417 0
M  V30 3409 H 321.719 -0.584426 -0.329678 0
M  V30 3410 H 324.263 -2.006 -0.397474 0
M  V30 3411 H 322.418 -2.69457 -2.78338 0
M  V30 3412 H 322.832 -4.80272 -2.10805 0
M  V30 3413 H 324.306 -4.11848 -3.67539 0
M  V30 3414 H 324.783 -2.42228 -3.66363 0
M  V30 3415 H 325.389 -3.51349 -2.39654 0
M  V30 3416 N 323.704 0.605807 -1.45491 0
M  V30 3417 C 324.951 1.36476 -1.49601 0
M  V30 3418 C 325.279 1.94007 -0.138452 0
M  V30 3419 O 324.534 1.75638 0.863114 0
M  V30 3420 C 324.833 2.53012 -2.52428 0
M  V30 3421 C 324.499 2.13617 -3.97087 0
M  V30 3422 C 323.161 2.02587 -4.36477 0
M  V30 3423 C 325.513 1.82899 -4.88055 0
M  V30 3424 C 322.841 1.59064 -5.64726 0
M  V30 3425 C 325.193 1.40861 -6.16718 0
M  V30 3426 C 323.857 1.28391 -6.55036 0
M  V30 3427 H 323.127 0.499402 -0.547429 0
M  V30 3428 H 325.774 0.684546 -1.78847 0
M  V30 3429 H 324.079 3.26379 -2.16758 0
M  V30 3430 H 325.776 3.1124 -2.52845 0
M  V30 3431 H 322.366 2.23129 -3.65939 0
M  V30 3432 H 326.55 1.90317 -4.58359 0
M  V30 3433 H 321.806 1.48034 -5.93208 0
M  V30 3434 H 325.98 1.16138 -6.86648 0
M  V30 3435 H 323.607 0.944403 -7.54311 0
M  V30 3436 N 325.182 1.32811 0.848464 0
M  V30 3437 C 326.129 1.22265 1.95755 0
M  V30 3438 C 327.099 0.103413 1.65778 0
M  V30 3439 O 328.284 0.280033 1.88734 0
M  V30 3440 C 325.424 0.958014 3.31536 0
M  V30 3441 C 324.537 2.16262 3.73971 0
M  V30 3442 C 323.672 1.83295 4.98575 0
M  V30 3443 C 322.711 3.00041 5.33518 0
M  V30 3444 N 321.848 2.67125 6.49299 0
M  V30 3445 H 326.688 2.17128 2.04107 0
M  V30 3446 H 324.225 1.07982 0.998913 0
M  V30 3447 H 326.183 0.785052 4.09747 0
M  V30 3448 H 324.813 0.046159 3.22767 0
M  V30 3449 H 323.865 2.44565 2.91362 0
M  V30 3450 H 325.177 3.03572 3.95785 0
M  V30 3451 H 324.331 1.62586 5.84509 0
M  V30 3452 H 323.07 0.932078 4.7871 0
M  V30 3453 H 322.075 3.21374 4.46093 0
M  V30 3454 H 323.3 3.90869 5.55336 0
M  V30 3455 H 321.246 1.79586 6.3094 0
M  V30 3456 H 321.163 3.47965 6.71161 0
M  V30 3457 H 322.431 2.49861 7.3837 0
M  V30 3458 N 326.66 -1.06551 1.16123 0
M  V30 3459 C 327.59 -2.15935 0.88851 0
M  V30 3460 C 328.571 -1.69306 -0.164135 0
M  V30 3461 O 329.756 -1.94193 -0.0167857 0
M  V30 3462 C 326.886 -3.45149 0.385942 0
M  V30 3463 C 325.84 -4.05271 1.3762 0
M  V30 3464 C 325.166 -5.29664 0.732137 0
M  V30 3465 C 326.466 -4.44355 2.74493 0
M  V30 3466 H 328.16 -2.39006 1.80323 0
M  V30 3467 H 325.706 -1.14866 0.868435 0
M  V30 3468 H 327.659 -4.21004 0.182647 0
M  V30 3469 H 326.383 -3.21689 -0.564274 0
M  V30 3470 H 325.042 -3.3147 1.56599 0
M  V30 3471 H 324.69 -5.02499 -0.224483 0
M  V30 3472 H 324.39 -5.70848 1.39307 0
M  V30 3473 H 325.914 -6.08218 0.538802 0
M  V30 3474 H 327.328 -5.11303 2.59311 0
M  V30 3475 H 325.725 -4.96515 3.37035 0
M  V30 3476 H 326.795 -3.55339 3.29943 0
M  V30 3477 N 328.138 -0.959301 -1.25041 0
M  V30 3478 C 329.384 -0.617525 -1.9317 0
M  V30 3479 C 329.717 0.843981 -1.74902 0
M  V30 3480 O 328.992 1.60615 -1.09696 0
M  V30 3481 C 329.275 -0.982736 -3.46431 0
M  V30 3482 C 329.128 -2.50032 -3.73904 0
M  V30 3483 C 330.447 -0.511176 -4.37121 0
M  V30 3484 H 327.566 -0.22582 -0.701552 0
M  V30 3485 H 330.208 -1.19679 -1.4757 0
M  V30 3486 H 328.358 -0.489806 -3.854 0
M  V30 3487 H 330.03 -3.06737 -3.44544 0
M  V30 3488 H 328.273 -2.93598 -3.19348 0
M  V30 3489 H 328.944 -2.70635 -4.81103 0
M  V30 3490 H 331.42 -0.934075 -4.0548 0
M  V30 3491 H 330.296 -0.795361 -5.43107 0
M  V30 3492 H 330.557 0.588834 -4.38161 0
M  V30 3493 N 329.616 1.39756 -0.72842 0
M  V30 3494 C 330.564 2.32485 -0.0731849 0
M  V30 3495 C 331.558 1.52717 0.733063 0
M  V30 3496 O 332.764 1.68428 0.634988 0
M  V30 3497 H 329.139 0.751984 -0.00486469 0
M  V30 3498 H 331.11 2.85382 -0.871761 0
M  V30 3499 C 329.859 3.37773 0.824908 0
M  V30 3500 H 329.182 3.99227 0.213915 0
M  V30 3501 H 330.622 4.05121 1.25111 0
M  V30 3502 C 329.081 2.74287 1.95622 0
M  V30 3503 O 329.611 2.61618 3.04826 0
M  V30 3504 N 327.817 2.32475 1.74367 0
M  V30 3505 H 327.364 2.4298 0.855494 0
M  V30 3506 H 327.322 1.90337 2.50238 0
M  V30 3507 N 331.094 0.475555 1.50254 0
M  V30 3508 C 332.057 -0.305016 2.27161 0
M  V30 3509 C 333.057 -0.916519 1.32123 0
M  V30 3510 O 334.247 -0.785003 1.5551 0
M  V30 3511 C 331.379 -1.43496 3.09227 0
M  V30 3512 H 332.572 0.369511 2.97615 0
M  V30 3513 H 330.125 0.229747 1.54602 0
M  V30 3514 H 330.86 -2.14441 2.43281 0
M  V30 3515 H 330.645 -1.00223 3.79075 0
M  V30 3516 H 332.135 -1.98548 3.67381 0
M  V30 3517 N 332.573 -1.56217 0.208337 0
M  V30 3518 C 333.521 -2.21053 -0.723769 0
M  V30 3519 C 334.515 -1.18578 -1.20978 0
M  V30 3520 O 335.721 -1.36691 -1.17114 0
M  V30 3521 H 332.096 -0.708595 -0.251788 0
M  V30 3522 H 334.067 -2.98006 -0.153365 0
M  V30 3523 C 332.816 -2.89417 -1.927 0
M  V30 3524 H 332.139 -3.68019 -1.56212 0
M  V30 3525 H 333.579 -3.38201 -2.55727 0
M  V30 3526 C 332.038 -1.91166 -2.77411 0
M  V30 3527 O 332.568 -1.42026 -3.75754 0
M  V30 3528 N 330.774 -1.59105 -2.43175 0
M  V30 3529 H 330.321 -1.99259 -1.63259 0
M  V30 3530 H 330.279 -0.936255 -3.00136 0
M  V30 3531 N 334.051 0.0651679 -1.57465 0
M  V30 3532 C 335.299 0.761555 -1.87202 0
M  V30 3533 C 335.62 1.77778 -0.801243 0
M  V30 3534 O 334.89 1.95166 0.16937 0
M  V30 3535 H 333.47 0.284251 -0.690804 0
M  V30 3536 H 336.132 0.0396827 -1.9486 0
M  V30 3537 H 335.228 1.27365 -2.84929 0
M  V30 3538 N 335.529 1.53961 0.336706 0
M  V30 3539 C 336.439 1.85432 1.43708 0
M  V30 3540 C 337.455 0.745053 1.57242 0
M  V30 3541 O 338.631 1.03804 1.72588 0
M  V30 3542 C 335.696 2.06349 2.78605 0
M  V30 3543 C 334.757 3.30191 2.74358 0
M  V30 3544 C 333.99 3.50101 4.02822 0
M  V30 3545 O 334.213 2.7371 5.00439 0
M  V30 3546 O 333.147 4.43547 4.06878 0
M  V30 3547 H 336.973 2.78975 1.20028 0
M  V30 3548 H 334.558 1.39701 0.52952 0
M  V30 3549 H 336.44 2.21513 3.58483 0
M  V30 3550 H 335.115 1.15995 3.02203 0
M  V30 3551 H 334.022 3.20425 1.93078 0
M  V30 3552 H 335.355 4.2056 2.55715 0
M  V30 3553 N 337.007 -0.598083 1.45811 0
M  V30 3554 C 337.97 -1.69018 1.54808 0
M  V30 3555 C 338.97 -1.55037 0.426652 0
M  V30 3556 O 340.16 -1.59932 0.690456 0
M  V30 3557 C 337.292 -3.0835 1.45371 0
M  V30 3558 H 338.485 -1.62403 2.52121 0
M  V30 3559 H 336.038 -0.814626 1.33392 0
M  V30 3560 H 336.773 -3.20534 0.492793 0
M  V30 3561 H 336.558 -3.19907 2.26721 0
M  V30 3562 H 338.048 -3.8788 1.54721 0
M  V30 3563 N 338.485 -1.33259 -0.841409 0
M  V30 3564 C 339.731 -1.24757 -1.59886 0
M  V30 3565 C 340.064 0.186913 -1.93298 0
M  V30 3566 O 339.339 1.12757 -1.5848 0
M  V30 3567 C 339.622 -2.12036 -2.91055 0
M  V30 3568 C 339.475 -3.63929 -2.6434 0
M  V30 3569 C 340.794 -1.9916 -3.92458 0
M  V30 3570 H 337.913 -0.454542 -0.580138 0
M  V30 3571 H 340.555 -1.63335 -0.970647 0
M  V30 3572 H 338.705 -1.79265 -3.44669 0
M  V30 3573 H 340.377 -4.06978 -2.17178 0
M  V30 3574 H 338.62 -3.85935 -1.98082 0
M  V30 3575 H 339.291 -4.20341 -3.57796 0
M  V30 3576 H 341.767 -2.27895 -3.48143 0
M  V30 3577 H 340.643 -2.62484 -4.82072 0
M  V30 3578 H 340.904 -0.963082 -4.31482 0
M  V30 3579 N 339.963 1.05934 -1.16686 0
M  V30 3580 C 341.193 1.82226 -0.973515 0
M  V30 3581 C 341.601 1.8297 0.481532 0
M  V30 3582 O 340.944 1.25009 1.34604 0
M  V30 3583 C 341.006 3.29897 -1.42858 0
M  V30 3584 C 340.67 3.52849 -2.90425 0
M  V30 3585 C 341.667 3.45595 -3.88407 0
M  V30 3586 C 339.352 3.80053 -3.28428 0
M  V30 3587 C 341.346 3.65217 -5.22394 0
M  V30 3588 C 339.033 3.99325 -4.62583 0
M  V30 3589 C 340.031 3.91905 -5.59374 0
M  V30 3590 O 339.719 4.10647 -6.91104 0
M  V30 3591 H 339.451 0.581314 -0.345036 0
M  V30 3592 H 342.005 1.3453 -1.55212 0
M  V30 3593 H 340.235 3.78472 -0.793477 0
M  V30 3594 H 341.924 3.87692 -1.20207 0
M  V30 3595 H 342.69 3.24564 -3.60393 0
M  V30 3596 H 338.569 3.84936 -2.53664 0
M  V30 3597 H 342.113 3.59341 -5.9793 0
M  V30 3598 H 338.01 4.19846 -4.90306 0
M  V30 3599 H 338.778 4.27915 -6.97733 0
M  V30 3600 N 341.441 0.965919 1.2453 0
M  V30 3601 C 342.681 0.634656 1.94297 0
M  V30 3602 C 343.045 -0.814822 1.73852 0
M  V30 3603 O 344.246 -1.25622 2.3764 0
M  V30 3604 C 342.517 0.99702 3.43212 0
M  V30 3605 S 344.076 0.780038 4.31811 0
M  V30 3606 H 340.894 0.232893 0.671775 0
M  V30 3607 H 343.496 1.24249 1.50938 0
M  V30 3608 H 342.2 2.04886 3.55598 0
M  V30 3609 H 341.731 0.379888 3.91562 0
M  V30 3610 H 343.746 -0.343512 4.9501 0
M  V30 3611 N 342.919 -1.39368 0.735821 0
M  V30 3612 C 343.866 -2.30599 0.0963825 0
M  V30 3613 C 344.836 -1.49257 -0.728794 0
M  V30 3614 O 346.021 -1.77941 -0.688588 0
M  V30 3615 C 343.161 -3.35596 -0.804305 0
M  V30 3616 C 342.274 -4.31987 0.0335761 0
M  V30 3617 C 341.409 -5.24053 -0.868461 0
M  V30 3618 C 340.448 -6.12095 -0.0258776 0
M  V30 3619 N 339.585 -6.96514 -0.883893 0
M  V30 3620 H 344.425 -2.8471 0.880002 0
M  V30 3621 H 341.962 -1.40188 0.445619 0
M  V30 3622 H 343.92 -3.95062 -1.34096 0
M  V30 3623 H 342.55 -2.82938 -1.55389 0
M  V30 3624 H 341.602 -3.74133 0.68766 0
M  V30 3625 H 342.914 -4.94074 0.685036 0
M  V30 3626 H 342.068 -5.88549 -1.47293 0
M  V30 3627 H 340.807 -4.62289 -1.5537 0
M  V30 3628 H 339.812 -5.4661 0.591386 0
M  V30 3629 H 341.037 -6.75923 0.656156 0
M  V30 3630 H 338.983 -6.37318 -1.55441 0
M  V30 3631 H 338.9 -7.55448 -0.288931 0
M  V30 3632 H 340.168 -7.65439 -1.4739 0
M  V30 3633 N 344.397 -0.483516 -1.5 0
M  V30 3634 C 345.644 0.0671597 -2.02389 0
M  V30 3635 C 345.972 1.38597 -1.36459 0
M  V30 3636 O 345.227 1.89634 -0.483458 0
M  V30 3637 C 345.526 0.286226 -3.56252 0
M  V30 3638 C 345.192 -0.952416 -4.40726 0
M  V30 3639 C 343.854 -1.29199 -4.63531 0
M  V30 3640 C 346.206 -1.77655 -4.89988 0
M  V30 3641 C 343.534 -2.45553 -5.32842 0
M  V30 3642 C 345.886 -2.93147 -5.60578 0
M  V30 3643 C 344.55 -3.27505 -5.81633 0
M  V30 3644 H 343.82 0.0245755 -0.740592 0
M  V30 3645 H 346.467 -0.640124 -1.80485 0
M  V30 3646 H 344.772 1.07587 -3.76739 0
M  V30 3647 H 346.469 0.726473 -3.94365 0
M  V30 3648 H 343.059 -0.677881 -4.23205 0
M  V30 3649 H 347.243 -1.52737 -4.72213 0
M  V30 3650 H 342.499 -2.72431 -5.47349 0
M  V30 3651 H 346.673 -3.57344 -5.97727 0
M  V30 3652 H 344.3 -4.1777 -6.35116 0
M  V30 3653 N 345.875 1.56104 -0.216619 0
M  V30 3654 C 346.825 2.16703 0.708798 0
M  V30 3655 C 347.809 1.11392 1.16106 0
M  V30 3656 O 349.001 1.37395 1.11587 0
M  V30 3657 C 346.13 2.84666 1.91886 0
M  V30 3658 C 345.216 3.97195 1.48651 0
M  V30 3659 N 345.607 4.99959 0.766434 0
M  V30 3660 C 343.905 4.09193 1.77418 0
M  V30 3661 C 344.606 5.79126 0.546659 0
M  V30 3662 N 343.582 5.32315 1.10188 0
M  V30 3663 H 347.384 2.93516 0.150162 0
M  V30 3664 H 344.898 1.6239 -0.0176768 0
M  V30 3665 H 346.895 3.26486 2.59253 0
M  V30 3666 H 345.555 2.09347 2.48202 0
M  V30 3667 H 346.566 5.16197 0.419634 0
M  V30 3668 H 343.243 3.45021 2.35088 0
M  V30 3669 H 344.633 6.71895 -0.026103 0
M  V30 3670 N 347.353 -0.0568162 1.57498 0
M  V30 3671 C 348.583 -0.764515 1.91934 0
M  V30 3672 C 348.991 -1.70877 0.81227 0
M  V30 3673 O 348.334 -1.82351 -0.222213 0
M  V30 3674 C 348.396 -1.5994 3.21962 0
M  V30 3675 C 348.06 -0.822925 4.4953 0
M  V30 3676 C 349.057 -0.135464 5.19723 0
M  V30 3677 C 346.742 -0.785666 4.96117 0
M  V30 3678 C 348.736 0.578861 6.34766 0
M  V30 3679 C 346.423 -0.0675784 6.11063 0
M  V30 3680 C 347.421 0.613471 6.80239 0
M  V30 3681 O 347.109 1.31996 7.92989 0
M  V30 3682 H 346.841 -0.221647 0.63863 0
M  V30 3683 H 349.395 -0.0268218 2.05382 0
M  V30 3684 H 347.625 -2.38026 3.04763 0
M  V30 3685 H 349.314 -2.18715 3.41934 0
M  V30 3686 H 350.08 -0.155458 4.84751 0
M  V30 3687 H 345.959 -1.30524 4.42136 0
M  V30 3688 H 349.503 1.111 6.88696 0
M  V30 3689 H 345.4 -0.0455636 6.45484 0
M  V30 3690 H 346.168 1.23077 8.09194 0
M  V30 3691 N 348.832 -1.54138 -0.328536 0
M  V30 3692 C 349.779 -1.83176 -1.40411 0
M  V30 3693 C 350.749 -0.678494 -1.5161 0
M  V30 3694 O 351.934 -0.92443 -1.6691 0
M  V30 3695 C 349.074 -2.06035 -2.76846 0
M  V30 3696 C 348.187 -3.33727 -2.74318 0
M  V30 3697 C 347.322 -3.46574 -4.02567 0
M  V30 3698 C 346.361 -4.68159 -3.94327 0
M  V30 3699 N 345.498 -4.77959 -5.14296 0
M  V30 3700 H 350.338 -2.74938 -1.14948 0
M  V30 3701 H 347.875 -1.36166 -0.556538 0
M  V30 3702 H 349.833 -2.1728 -3.56153 0
M  V30 3703 H 348.463 -1.1757 -3.00628 0
M  V30 3704 H 347.515 -3.31246 -1.8703 0
M  V30 3705 H 348.827 -4.23139 -2.64111 0
M  V30 3706 H 347.981 -3.57333 -4.90304 0
M  V30 3707 H 346.72 -2.55245 -4.15574 0
M  V30 3708 H 345.725 -4.57461 -3.04974 0
M  V30 3709 H 346.95 -5.60868 -3.82889 0
M  V30 3710 H 344.896 -3.89544 -5.27818 0
M  V30 3711 H 344.813 -5.6133 -5.06404 0
M  V30 3712 H 346.081 -4.93044 -6.03761 0
M  V30 3713 N 350.31 0.590341 -1.46126 0
M  V30 3714 C 351.538 1.37504 -1.54597 0
M  V30 3715 C 351.953 1.87897 -0.184447 0
M  V30 3716 O 351.31 1.63192 0.816984 0
M  V30 3717 C 351.361 2.56779 -2.54454 0
M  V30 3718 O 351.082 2.08476 -3.85317 0
M  V30 3719 C 352.583 3.49427 -2.72792 0
M  V30 3720 H 349.803 0.420325 -0.523037 0
M  V30 3721 H 352.347 0.718383 -1.91467 0
M  V30 3722 H 350.502 3.1845 -2.20609 0
M  V30 3723 H 350.916 2.86097 -4.396 0
M  V30 3724 H 352.39 4.29619 -3.466 0
M  V30 3725 H 352.867 4.00876 -1.79429 0
M  V30 3726 H 353.473 2.93598 -3.07702 0
M  V30 3727 N 351.788 1.33704 0.83433 0
M  V30 3728 C 353.065 1.16011 1.57483 0
M  V30 3729 C 353.445 -0.27176 2.09343 0
M  V30 3730 O 352.793 -1.27146 1.89858 0
M  V30 3731 C 353.003 2.20507 2.70514 0
M  V30 3732 C 354.351 2.54898 3.39577 0
M  V30 3733 O 355.375 2.19209 2.80759 0
M  V30 3734 O 354.234 3.16158 4.45765 0
M  V30 3735 H 351.328 0.448992 0.694503 0
M  V30 3736 H 353.874 1.453 0.876691 0
M  V30 3737 H 352.646 3.16667 2.29865 0
M  V30 3738 H 352.269 1.92329 3.47987 0
M  V30 3739 N 353.266 -1.05314 1.17247 0
M  V30 3740 C 354.198 -2.13023 0.845812 0
M  V30 3741 C 355.211 -1.62096 -0.151246 0
M  V30 3742 O 356.4 -1.78343 0.0748818 0
M  V30 3743 C 353.5 -3.38047 0.240292 0
M  V30 3744 C 352.673 -4.18255 1.27991 0
M  V30 3745 C 351.732 -5.21625 0.692375 0
M  V30 3746 O 350.758 -5.52619 1.36385 0
M  V30 3747 N 351.96 -5.78201 -0.516178 0
M  V30 3748 H 354.725 -2.41642 1.77283 0
M  V30 3749 H 352.286 -1.21401 1.07115 0
M  V30 3750 H 354.278 -4.04359 -0.16603 0
M  V30 3751 H 352.848 -3.06972 -0.590487 0
M  V30 3752 H 352.068 -3.47451 1.86203 0
M  V30 3753 H 353.356 -4.68643 1.98119 0
M  V30 3754 H 352.754 -5.55301 -1.07969 0
M  V30 3755 H 351.311 -6.4604 -0.86458 0
M  V30 3756 N 354.744 -0.972509 -1.24016 0
M  V30 3757 C 355.992 -0.635776 -1.91839 0
M  V30 3758 C 356.313 0.832312 -1.76345 0
M  V30 3759 O 355.583 1.5946 -1.13795 0
M  V30 3760 H 354.163 -0.232157 -0.710009 0
M  V30 3761 H 356.825 -1.23462 -1.50809 0
M  V30 3762 H 355.921 -0.880545 -2.99421 0
M  V30 3763 N 356.222 1.38976 -0.743202 0
M  V30 3764 C 357.471 1.99581 -0.291592 0
M  V30 3765 C 357.784 1.59656 1.13001 0
M  V30 3766 O 358.99 2.13157 1.68156 0
M  V30 3767 C 357.446 3.56813 -0.470391 0
M  V30 3768 C 357.054 4.05695 -1.90041 0
M  V30 3769 C 358.798 4.24423 -0.0809709 0
M  V30 3770 C 356.705 5.5553 -2.02832 0
M  V30 3771 H 355.635 0.746615 -0.105272 0
M  V30 3772 H 358.286 1.58872 -0.918258 0
M  V30 3773 H 356.668 3.95359 0.225299 0
M  V30 3774 H 357.842 3.78464 -2.62872 0
M  V30 3775 H 356.157 3.50775 -2.24379 0
M  V30 3776 H 358.754 5.34474 -0.155445 0
M  V30 3777 H 359.097 4.04962 0.96497 0
M  V30 3778 H 359.63 3.9108 -0.728124 0
M  V30 3779 H 356.369 5.79881 -3.05643 0
M  V30 3780 H 355.889 5.84537 -1.34448 0
M  V30 3781 H 357.568 6.21069 -1.81335 0
M  V30 3782 N 357.7 0.491464 1.49741 0
M  V30 3783 C 358.647 -0.292027 2.28945 0
M  V30 3784 C 359.617 -0.968973 1.34908 0
M  V30 3785 O 360.802 -0.97748 1.6386 0
M  V30 3786 C 357.942 -1.35617 3.17336 0
M  V30 3787 C 357.055 -0.691957 4.26422 0
M  V30 3788 C 356.19 -1.73572 5.02042 0
M  V30 3789 C 355.229 -1.05286 6.02977 0
M  V30 3790 N 354.366 -2.0404 6.71798 0
M  V30 3791 H 359.206 0.389654 2.95442 0
M  V30 3792 H 356.743 0.204003 1.45679 0
M  V30 3793 H 358.701 -1.98502 3.66951 0
M  V30 3794 H 357.331 -2.00674 2.52844 0
M  V30 3795 H 356.383 0.0499523 3.80367 0
M  V30 3796 H 357.695 -0.153946 4.98562 0
M  V30 3797 H 356.849 -2.43987 5.55478 0
M  V30 3798 H 355.588 -2.30757 4.29654 0
M  V30 3799 H 354.593 -0.334446 5.48782 0
M  V30 3800 H 355.818 -0.487636 6.77347 0
M  V30 3801 H 353.764 -2.60205 6.02187 0
M  V30 3802 H 353.681 -1.55279 7.39881 0
M  V30 3803 H 354.949 -2.73772 7.29842 0
M  V30 3804 N 359.178 -1.55987 0.224894 0
M  V30 3805 C 360.126 -2.21808 -0.700283 0
M  V30 3806 C 361.12 -1.19854 -1.19714 0
M  V30 3807 O 362.326 -1.37925 -1.15658 0
M  V30 3808 H 358.701 -0.711226 -0.244258 0
M  V30 3809 H 360.672 -2.98152 -0.121749 0
M  V30 3810 C 359.421 -2.91444 -1.8962 0
M  V30 3811 H 358.744 -3.69655 -1.52299 0
M  V30 3812 H 360.184 -3.40894 -2.52125 0
M  V30 3813 C 358.643 -1.94098 -2.75368 0
M  V30 3814 O 359.173 -1.46004 -3.74227 0
M  V30 3815 N 357.379 -1.61675 -2.41474 0
M  V30 3816 H 356.926 -2.00979 -1.61137 0
M  V30 3817 H 356.884 -0.968036 -2.99126 0
M  V30 3818 N 360.656 0.0484629 -1.57525 0
M  V30 3819 C 361.586 1.0549 -2.08313 0
M  V30 3820 C 362.567 1.38929 -0.981463 0
M  V30 3821 O 363.752 1.48151 -1.25558 0
M  V30 3822 C 360.882 2.36162 -2.54646 0
M  V30 3823 C 359.836 2.17016 -3.68901 0
M  V30 3824 C 359.162 3.53278 -4.01371 0
M  V30 3825 C 360.462 1.57219 -4.98076 0
M  V30 3826 H 362.156 0.632195 -2.92649 0
M  V30 3827 H 359.702 0.302654 -1.40784 0
M  V30 3828 H 361.655 3.06882 -2.88793 0
M  V30 3829 H 360.379 2.80456 -1.67368 0
M  V30 3830 H 359.038 1.48733 -3.35073 0
M  V30 3831 H 358.686 3.95185 -3.11188 0
M  V30 3832 H 358.386 3.41299 -4.78318 0
M  V30 3833 H 359.91 4.25391 -4.38035 0
M  V30 3834 H 361.324 2.17832 -5.30304 0
M  V30 3835 H 359.721 1.55871 -5.79503 0
M  V30 3836 H 360.791 0.535956 -4.81929 0
M  V30 3837 N 362.134 1.5431 0.320358 0
M  V30 3838 C 363.359 1.76954 1.08175 0
M  V30 3839 C 363.784 0.518193 1.80821 0
M  V30 3840 O 363.142 -0.530411 1.73368 0
M  V30 3841 C 363.19 2.96451 2.05303 0
M  V30 3842 O 362.294 2.68221 3.13259 0
M  V30 3843 H 361.635 0.586275 0.311733 0
M  V30 3844 H 364.165 2.01342 0.363676 0
M  V30 3845 H 364.175 3.23887 2.48116 0
M  V30 3846 H 362.85 3.87196 1.51829 0
M  V30 3847 H 361.427 2.51744 2.75099 0
M  V30 3848 N 363.613 -0.582584 1.46437 0
M  V30 3849 C 364.859 -1.34278 1.51978 0
M  V30 3850 C 365.192 -1.93446 0.170973 0
M  V30 3851 O 364.467 -1.76481 -0.817608 0
M  V30 3852 C 364.75 -2.47203 2.61845 0
M  V30 3853 C 364.603 -1.93069 4.06257 0
M  V30 3854 C 365.922 -3.49247 2.67795 0
M  V30 3855 H 363.041 -0.486876 0.553282 0
M  V30 3856 H 365.683 -0.654437 1.78374 0
M  V30 3857 H 363.833 -3.0592 2.39469 0
M  V30 3858 H 365.505 -1.38808 4.3992 0
M  V30 3859 H 363.748 -1.23898 4.1573 0
M  V30 3860 H 364.419 -2.74586 4.7886 0
M  V30 3861 H 366.895 -3.00411 2.8791 0
M  V30 3862 H 365.771 -4.25719 3.46489 0
M  V30 3863 H 366.032 -4.06482 1.73852 0
M  V30 3864 N 365.091 -1.34144 -0.827227 0
M  V30 3865 C 366.001 -1.27428 -1.96975 0
M  V30 3866 C 367.017 -0.182728 -1.73038 0
M  V30 3867 O 368.193 -0.408426 -1.97215 0
M  V30 3868 C 365.258 -1.02526 -3.31194 0
M  V30 3869 C 364.319 -2.20796 -3.68168 0
M  V30 3870 C 363.552 -1.97073 -4.95982 0
M  V30 3871 O 363.775 -0.926822 -5.6282 0
M  V30 3872 O 362.709 -2.83912 -5.30733 0
M  V30 3873 H 366.535 -2.23537 -2.05584 0
M  V30 3874 H 364.12 -1.14307 -0.961989 0
M  V30 3875 H 366.002 -0.904026 -4.11589 0
M  V30 3876 H 364.677 -0.0945389 -3.23562 0
M  V30 3877 H 363.584 -2.38477 -2.88235 0
M  V30 3878 H 364.917 -3.12243 -3.8048 0
M  V30 3879 N 366.569 1.04691 -1.17803 0
M  V30 3880 C 367.846 1.7472 -0.879328 0
M  V30 3881 C 368.226 2.01812 0.619271 0
M  V30 3882 O 367.574 1.65824 1.57209 0
M  V30 3883 C 367.784 3.03686 -1.71976 0
M  V30 3884 C 369.132 3.77542 -1.94286 0
M  V30 3885 O 370.156 3.13569 -1.68976 0
M  V30 3886 O 369.015 4.92506 -2.36855 0
M  V30 3887 H 366.109 0.760011 -0.326056 0
M  V30 3888 H 368.655 1.10813 -1.28525 0
M  V30 3889 H 367.427 2.79754 -2.73594 0
M  V30 3890 H 367.05 3.75332 -1.31194 0
M  V30 3891 N 368.047 0.979072 1.23499 0
M  V30 3892 C 369.01 0.523244 2.23147 0
M  V30 3893 C 370.01 -0.386406 1.56088 0
M  V30 3894 O 371.2 -0.180283 1.73265 0
M  V30 3895 C 368.332 -0.240739 3.40049 0
M  V30 3896 H 369.525 1.40432 2.64989 0
M  V30 3897 H 367.078 0.764824 1.36309 0
M  V30 3898 H 367.813 -1.13841 3.03662 0
M  V30 3899 H 367.598 0.412207 3.89927 0
M  V30 3900 H 369.088 -0.548297 4.13985 0
M  V30 3901 N 369.525 -1.3858 0.750561 0
M  V30 3902 C 370.488 -2.28836 0.129152 0
M  V30 3903 C 371.488 -1.47045 -0.650714 0
M  V30 3904 O 372.678 -1.6753 -0.477428 0
M  V30 3905 C 369.81 -3.30751 -0.825622 0
M  V30 3906 H 371.003 -2.85294 0.924516 0
M  V30 3907 H 368.556 -1.47489 0.517376 0
M  V30 3908 H 369.291 -2.79378 -1.64677 0
M  V30 3909 H 369.076 -3.91177 -0.268852 0
M  V30 3910 H 370.566 -3.98249 -1.2565 0
M  V30 3911 N 371.003 -0.499398 -1.49478 0
M  V30 3912 C 372.419 -0.155261 -1.58843 0
M  V30 3913 C 372.619 1.34008 -1.50479 0
M  V30 3914 O 371.675 2.11589 -1.37791 0
M  V30 3915 C 372.988 -0.730636 -2.91689 0
M  V30 3916 C 374.536 -0.696599 -3.0515 0
M  V30 3917 C 375.011 -1.25001 -4.40612 0
M  V30 3918 N 376.502 -1.21064 -4.47099 0
M  V30 3919 C 377.237 -1.60905 -5.50361 0
M  V30 3920 N 376.733 -2.08331 -6.60735 0
M  V30 3921 N 378.526 -1.52331 -5.41065 0
M  V30 3922 H 370.677 -1.47162 -1.53158 0
M  V30 3923 H 372.94 -0.610309 -0.725415 0
M  V30 3924 H 372.646 -1.77928 -3.03372 0
M  V30 3925 H 372.52 -0.190161 -3.7672 0
M  V30 3926 H 374.907 0.343204 -2.93097 0
M  V30 3927 H 374.988 -1.2742 -2.21806 0
M  V30 3928 H 374.632 -2.28859 -4.53416 0
M  V30 3929 H 374.562 -0.64836 -5.22593 0
M  V30 3930 H 377.053 -0.863128 -3.67911 0
M  V30 3931 H 377.366 -2.36805 -7.35624 0
M  V30 3932 H 375.711 -2.12304 -6.6178 0
M  V30 3933 H 378.902 -1.151 -4.53729 0
M  V30 3934 H 379.075 -1.83704 -6.21415 0
M  V30 3935 N 372.481 1.55866 -0.233164 0
M  V30 3936 C 373.411 2.23783 0.666599 0
M  V30 3937 C 374.392 1.21343 1.19205 0
M  V30 3938 O 375.577 1.4996 1.23392 0
M  V30 3939 C 372.707 2.92671 1.86978 0
M  V30 3940 C 371.661 4.01682 1.47768 0
M  V30 3941 C 370.987 4.57926 2.76058 0
M  V30 3942 C 372.287 5.18126 0.658993 0
M  V30 3943 H 373.981 2.99232 0.100306 0
M  V30 3944 H 371.527 1.43924 0.046804 0
M  V30 3945 H 373.48 3.3888 2.50476 0
M  V30 3946 H 372.204 2.14688 2.46123 0
M  V30 3947 H 370.863 3.56222 0.866106 0
M  V30 3948 H 370.511 3.76659 3.33372 0
M  V30 3949 H 370.211 5.31505 2.50552 0
M  V30 3950 H 371.735 5.06859 3.40479 0
M  V30 3951 H 373.149 5.60644 1.19795 0
M  V30 3952 H 371.546 5.98009 0.500552 0
M  V30 3953 H 372.616 4.83763 -0.331856 0
M  V30 3954 N 373.959 -0.0401083 1.57549 0
M  V30 3955 C 375.184 -0.748931 1.93406 0
M  V30 3956 C 375.609 -1.68686 0.832274 0
M  V30 3957 O 374.967 -1.80047 -0.212818 0
M  V30 3958 C 375.015 -1.4916 3.28304 0
M  V30 3959 O 374.119 -2.6042 3.19774 0
M  V30 3960 H 373.46 -0.202212 0.63246 0
M  V30 3961 H 375.99 0.00112086 2.046 0
M  V30 3962 H 376 -1.86395 3.62934 0
M  V30 3963 H 374.675 -0.80364 4.08062 0
M  V30 3964 H 373.252 -2.25808 2.96758 0
M  V30 3965 N 375.437 -1.54477 -0.31217 0
M  V30 3966 C 376.369 -1.81011 -1.40598 0
M  V30 3967 C 377.382 -0.692546 -1.47335 0
M  V30 3968 O 378.571 -0.969847 -1.49854 0
M  V30 3969 C 375.671 -1.92307 -2.79054 0
M  V30 3970 C 374.844 -3.22594 -2.95384 0
M  V30 3971 C 373.903 -3.24448 -4.1427 0
M  V30 3972 O 372.929 -3.98035 -4.06887 0
M  V30 3973 N 374.131 -2.49042 -5.24365 0
M  V30 3974 H 376.896 -2.75408 -1.18196 0
M  V30 3975 H 374.457 -1.53914 -0.502202 0
M  V30 3976 H 376.449 -1.90962 -3.56813 0
M  V30 3977 H 375.019 -1.04955 -2.94454 0
M  V30 3978 H 374.239 -3.36806 -2.04831 0
M  V30 3979 H 375.527 -4.08593 -3.03198 0
M  V30 3980 H 374.925 -1.88867 -5.33241 0
M  V30 3981 H 373.482 -2.53463 -6.005 0
M  V30 3982 N 376.915 0.57481 -1.46744 0
M  V30 3983 C 377.825 1.711 -1.60505 0
M  V30 3984 C 378.841 1.67008 -0.488307 0
M  V30 3985 O 380.017 1.86774 -0.753495 0
M  V30 3986 C 377.082 3.07608 -1.59932 0
M  V30 3987 C 376.143 3.22904 -2.82898 0
M  V30 3988 C 375.376 4.529 -2.82343 0
M  V30 3989 O 375.599 5.37278 -1.91542 0
M  V30 3990 O 374.533 4.71611 -3.73987 0
M  V30 3991 H 378.359 1.62436 -2.56609 0
M  V30 3992 H 375.944 0.742779 -1.29627 0
M  V30 3993 H 377.826 3.88877 -1.62336 0
M  V30 3994 H 376.501 3.16692 -0.669898 0
M  V30 3995 H 375.408 2.41099 -2.86046 0
M  V30 3996 H 376.741 3.18715 -3.75076 0
M  V30 3997 N 378.394 1.34581 0.820102 0
M  V30 3998 C 379.671 1.17675 1.56244 0
M  V30 3999 C 380.051 -0.249541 2.0962 0
M  V30 4000 O 379.399 -1.25125 1.91196 0
M  V30 4001 C 379.609 2.23364 2.6816 0
M  V30 4002 C 380.957 2.58485 3.36854 0
M  V30 4003 O 381.981 2.22175 2.78418 0
M  V30 4004 O 380.84 3.20868 4.42386 0
M  V30 4005 H 377.934 0.456333 0.689702 0
M  V30 4006 H 380.48 1.46222 0.861231 0
M  V30 4007 H 379.252 3.19087 2.26493 0
M  V30 4008 H 378.875 1.96009 3.45928 0
M  V30 4009 N 379.872 -1.04064 1.18357 0
M  V30 4010 C 381.283 -1.58719 0.98312 0
M  V30 4011 C 381.634 -1.90556 -0.467193 0
M  V30 4012 O 380.759 -1.69561 -1.34454 0
M  V30 4013 C 381.354 -2.88379 1.77828 0
M  V30 4014 C 379.913 -3.3965 1.62218 0
M  V30 4015 C 379.06 -2.13235 1.77274 0
M  V30 4016 H 382.011 -0.867359 1.32901 0
M  V30 4017 H 382.032 -3.58773 1.26737 0
M  V30 4018 H 381.544 -2.65176 2.83379 0
M  V30 4019 H 379.645 -3.67866 0.592036 0
M  V30 4020 H 379.758 -4.13475 2.42023 0
M  V30 4021 H 378.122 -2.24542 1.20221 0
M  V30 4022 H 378.905 -1.92487 2.8426 0
M  V30 4023 N 381.35 -0.985608 -1.22978 0
M  V30 4024 C 382.627 -0.573599 -1.87001 0
M  V30 4025 C 383.007 0.949213 -1.88555 0
M  V30 4026 O 382.355 1.82811 -1.37086 0
M  V30 4027 C 382.565 -1.18564 -3.28243 0
M  V30 4028 C 383.913 -1.28163 -4.04796 0
M  V30 4029 O 384.937 -1.13949 -3.37482 0
M  V30 4030 O 383.796 -1.50832 -5.25273 0
M  V30 4031 H 380.89 -0.193868 -0.803955 0
M  V30 4032 H 383.436 -1.08102 -1.30813 0
M  V30 4033 H 382.208 -2.22758 -3.21706 0
M  V30 4034 H 381.831 -0.663363 -3.92027 0
M  V30 4035 N 382.828 1.3818 -0.7579 0
M  V30 4036 C 384.058 2.04004 -0.326463 0
M  V30 4037 C 384.466 1.57286 1.05156 0
M  V30 4038 O 383.809 0.743144 1.67997 0
M  V30 4039 C 383.871 3.58444 -0.275402 0
M  V30 4040 C 383.535 4.28237 -1.59569 0
M  V30 4041 C 384.532 4.53312 -2.54566 0
M  V30 4042 C 382.217 4.66341 -1.86631 0
M  V30 4043 C 384.211 5.15531 -3.74842 0
M  V30 4044 C 381.898 5.28283 -3.0718 0
M  V30 4045 C 382.896 5.52814 -4.01106 0
M  V30 4046 O 382.584 6.13465 -5.19534 0
M  V30 4047 H 382.316 0.662026 -0.136739 0
M  V30 4048 H 384.87 1.7777 -1.02893 0
M  V30 4049 H 383.1 3.83667 0.483337 0
M  V30 4050 H 384.789 4.05701 0.127099 0
M  V30 4051 H 385.555 4.24299 -2.34936 0
M  V30 4052 H 381.434 4.46591 -1.14358 0
M  V30 4053 H 384.978 5.34594 -4.48168 0
M  V30 4054 H 380.875 5.56719 -3.26702 0
M  V30 4055 H 381.643 6.31951 -5.20173 0
M  V30 4056 N 384.306 0.507319 1.49211 0
M  V30 4057 C 385.554 -0.0348839 2.0207 0
M  V30 4058 C 385.875 -1.36898 1.38866 0
M  V30 4059 O 385.145 -1.88133 0.546151 0
M  V30 4060 H 383.725 -0.0158812 0.746831 0
M  V30 4061 H 386.387 0.665998 1.83168 0
M  V30 4062 H 385.483 -0.159917 3.1169 0
M  V30 4063 N 385.784 -1.5574 0.241426 0
M  V30 4064 C 387.033 -1.97986 -0.385295 0
M  V30 4065 C 387.346 -1.13267 -1.59468 0
M  V30 4066 O 388.552 -1.45501 -2.2922 0
M  V30 4067 C 387.008 -3.52275 -0.736884 0
M  V30 4068 C 386.616 -4.45726 0.450796 0
M  V30 4069 C 388.36 -4.03189 -1.3281 0
M  V30 4070 C 386.267 -5.91352 0.0756662 0
M  V30 4071 H 385.197 -0.739386 -0.147731 0
M  V30 4072 H 387.848 -1.80308 0.340779 0
M  V30 4073 H 386.23 -3.65628 -1.52094 0
M  V30 4074 H 387.404 -4.44131 1.22819 0
M  V30 4075 H 385.719 -4.05264 0.956573 0
M  V30 4076 H 388.316 -5.09505 -1.62201 0
M  V30 4077 H 388.659 -3.50212 -2.25071 0
M  V30 4078 H 389.192 -3.93141 -0.607069 0
M  V30 4079 H 385.931 -6.48354 0.965272 0
M  V30 4080 H 385.451 -5.96095 -0.665635 0
M  V30 4081 H 387.13 -6.46084 -0.344075 0
M  V30 4082 N 387.262 0.0317525 -1.57568 0
M  V30 4083 C 388.678 0.38735 -1.54828 0
M  V30 4084 C 388.878 1.7677 -0.967187 0
M  V30 4085 O 387.934 2.45581 -0.587063 0
M  V30 4086 C 389.247 0.291667 -2.99282 0
M  V30 4087 C 390.795 0.368946 -3.10818 0
M  V30 4088 C 391.27 0.302741 -4.56998 0
M  V30 4089 N 392.761 0.361617 -4.61786 0
M  V30 4090 C 393.496 0.333238 -5.72431 0
M  V30 4091 N 392.992 0.257308 -6.92322 0
M  V30 4092 N 394.785 0.382769 -5.60795 0
M  V30 4093 H 386.936 -0.871609 -1.93692 0
M  V30 4094 H 389.199 -0.331161 -0.888277 0
M  V30 4095 H 388.905 -0.656794 -3.45513 0
M  V30 4096 H 388.779 1.08638 -3.61217 0
M  V30 4097 H 391.166 1.30784 -2.64536 0
M  V30 4098 H 391.247 -0.455066 -2.5172 0
M  V30 4099 H 390.891 -0.632473 -5.03947 0
M  V30 4100 H 390.821 1.14482 -5.14005 0
M  V30 4101 H 393.312 0.422923 -3.75526 0
M  V30 4102 H 393.625 0.24068 -7.72425 0
M  V30 4103 H 391.97 0.223396 -6.94641 0
M  V30 4104 H 395.161 0.44006 -4.66027 0
M  V30 4105 H 395.334 0.357184 -6.47015 0
M  V30 4106 N 388.74 1.54641 0.303973 0
M  V30 4107 C 390.017 1.64455 1.05896 0
M  V30 4108 C 390.397 0.490923 2.05312 0
M  V30 4109 O 389.745 -0.512685 2.22674 0
M  V30 4110 C 389.955 3.02331 1.74347 0
M  V30 4111 C 391.303 3.59045 2.26653 0
M  V30 4112 O 392.327 3.04764 1.84384 0
M  V30 4113 O 391.186 4.54081 3.04093 0
M  V30 4114 H 388.28 0.666729 0.489287 0
M  V30 4115 H 390.826 1.66986 0.302298 0
M  V30 4116 H 389.598 3.77734 1.02142 0
M  V30 4117 H 389.221 3.03565 2.56777 0
M  V30 4118 N 390.218 -0.567019 1.47046 0
M  V30 4119 C 391.148 -1.68482 1.61667 0
M  V30 4120 C 392.129 -1.6358 0.466418 0
M  V30 4121 O 393.314 -1.81354 0.694574 0
M  V30 4122 C 390.444 -3.07124 1.62148 0
M  V30 4123 C 389.398 -3.26867 2.76301 0
M  V30 4124 C 388.724 -4.66196 2.61849 0
M  V30 4125 C 390.024 -3.13186 4.17986 0
M  V30 4126 H 391.718 -1.56502 2.5524 0
M  V30 4127 H 389.264 -0.751486 1.22836 0
M  V30 4128 H 391.217 -3.8516 1.70968 0
M  V30 4129 H 389.941 -3.2004 0.651287 0
M  V30 4130 H 388.6 -2.51237 2.66975 0
M  V30 4131 H 388.248 -4.75898 1.62879 0
M  V30 4132 H 387.948 -4.80356 3.38425 0
M  V30 4133 H 389.472 -5.46379 2.72584 0
M  V30 4134 H 390.886 -3.81049 4.2834 0
M  V30 4135 H 389.283 -3.3886 4.95272 0
M  V30 4136 H 390.353 -2.10057 4.3704 0
M  V30 4137 N 391.696 -1.35014 -0.812953 0
M  V30 4138 C 392.943 -1.27931 -1.56971 0
M  V30 4139 C 393.271 0.148034 -1.93936 0
M  V30 4140 O 392.526 1.11175 -1.61054 0
M  V30 4141 C 392.825 -2.12524 -2.87347 0
M  V30 4142 C 392.491 -3.61401 -2.6963 0
M  V30 4143 C 391.153 -4.01983 -2.64506 0
M  V30 4144 C 393.505 -4.55894 -2.52607 0
M  V30 4145 C 390.833 -5.35235 -2.40293 0
M  V30 4146 C 393.185 -5.89336 -2.29925 0
M  V30 4147 C 391.849 -6.2907 -2.23219 0
M  V30 4148 H 391.119 -0.468131 -0.574399 0
M  V30 4149 H 393.766 -1.66851 -0.939836 0
M  V30 4150 H 392.071 -1.66463 -3.54679 0
M  V30 4151 H 393.768 -2.04383 -3.45005 0
M  V30 4152 H 390.358 -3.29193 -2.74463 0
M  V30 4153 H 394.542 -4.25431 -2.55583 0
M  V30 4154 H 389.798 -5.65028 -2.33566 0
M  V30 4155 H 393.972 -6.62139 -2.15743 0
M  V30 4156 H 391.599 -7.32256 -2.04219 0
M  V30 4157 N 393.175 1.03435 -1.18907 0
M  V30 4158 C 394.123 2.13703 -0.918353 0
M  V30 4159 C 395.117 1.68947 0.123767 0
M  V30 4160 O 396.323 1.79983 -0.0249701 0
M  V30 4161 H 392.698 0.698112 -0.279542 0
M  V30 4162 H 394.669 2.33731 -1.85506 0
M  V30 4163 C 393.418 3.44542 -0.467532 0
M  V30 4164 H 392.741 3.79394 -1.26095 0
M  V30 4165 H 394.181 4.22812 -0.317164 0
M  V30 4166 C 392.64 3.26829 0.817588 0
M  V30 4167 O 393.17 3.54975 1.88031 0
M  V30 4168 N 391.376 2.80139 0.772677 0
M  V30 4169 H 390.923 2.57434 -0.0923883 0
M  V30 4170 H 390.881 2.68668 1.63294 0
M  V30 4171 N 394.653 0.992116 1.22453 0
M  V30 4172 C 395.616 0.546883 2.2258 0
M  V30 4173 C 396.616 -0.369829 1.56489 0
M  V30 4174 O 397.806 -0.161896 1.73446 0
M  V30 4175 C 394.938 -0.204659 3.40285 0
M  V30 4176 H 396.131 1.43234 2.63484 0
M  V30 4177 H 393.684 0.779239 1.3549 0
M  V30 4178 H 394.419 -1.10614 3.04853 0
M  V30 4179 H 394.204 0.45354 3.89468 0
M  V30 4180 H 395.694 -0.504358 4.14543 0
M  V30 4181 N 396.131 -1.37776 0.765217 0
M  V30 4182 C 397.38 -1.99092 0.323307 0
M  V30 4183 C 397.693 -1.61434 -1.10446 0
M  V30 4184 O 398.899 -2.15805 -1.64743 0
M  V30 4185 C 397.355 -3.56019 0.527098 0
M  V30 4186 C 396.963 -4.0262 1.96471 0
M  V30 4187 C 398.707 -4.2424 0.148483 0
M  V30 4188 C 396.614 -5.52233 2.11644 0
M  V30 4189 H 395.544 -0.744846 0.117137 0
M  V30 4190 H 398.195 -1.57391 0.943417 0
M  V30 4191 H 396.577 -3.95667 -0.162372 0
M  V30 4192 H 397.751 -3.74234 2.68859 0
M  V30 4193 H 396.066 -3.47161 2.29931 0
M  V30 4194 H 398.663 -5.34159 0.240456 0
M  V30 4195 H 399.006 -4.06446 -0.900422 0
M  V30 4196 H 399.539 -3.89872 0.79025 0
M  V30 4197 H 396.278 -5.74945 3.1483 0
M  V30 4198 H 395.798 -5.82324 1.4373 0
M  V30 4199 H 397.477 -6.18106 1.91193 0
M  V30 4200 N 397.609 -0.515225 -1.4894 0
M  V30 4201 C 398.572 0.244681 -2.2789 0
M  V30 4202 C 399.572 0.881166 -1.34507 0
M  V30 4203 O 400.762 0.743497 -1.57537 0
M  V30 4204 C 397.894 1.35247 -3.12923 0
M  V30 4205 H 399.087 -0.448289 -2.96531 0
M  V30 4206 H 396.64 -0.270656 -1.53939 0
M  V30 4207 H 397.375 2.07916 -2.48881 0
M  V30 4208 H 397.16 0.901374 -3.81599 0
M  V30 4209 H 398.65 1.88737 -3.72516 0
M  V30 4210 N 399.087 1.5561 -0.249682 0
M  V30 4211 C 400.315 2.03411 0.378352 0
M  V30 4212 C 400.73 1.12886 1.51335 0
M  V30 4213 O 400.087 0.143833 1.81932 0
M  V30 4214 C 400.138 3.50537 0.88351 0
M  V30 4215 O 399.859 4.37614 -0.20626 0
M  V30 4216 C 401.36 4.14113 1.58195 0
M  V30 4217 H 398.58 0.664994 0.08958 0
M  V30 4218 H 401.124 2.01044 -0.374357 0
M  V30 4219 H 399.279 3.5343 1.58639 0
M  V30 4220 H 399.693 5.24199 0.177782 0
M  V30 4221 H 401.167 5.18741 1.8871 0
M  V30 4222 H 401.644 3.60767 2.50487 0
M  V30 4223 H 402.25 4.15151 0.923573 0
M  V30 4224 N 400.565 -0.0233959 1.57583 0
M  V30 4225 C 401.813 -0.711654 1.89156 0
M  V30 4226 C 402.134 -1.75591 0.848096 0
M  V30 4227 O 401.404 -1.95547 -0.117566 0
M  V30 4228 H 399.984 -0.265835 0.698098 0
M  V30 4229 H 402.646 0.0119948 1.94896 0
M  V30 4230 H 401.742 -1.19766 2.88206 0
M  V30 4231 N 402.043 -1.548 -0.295768 0
M  V30 4232 C 402.99 -1.86113 -1.36494 0
M  V30 4233 C 403.96 -0.7105 -1.50137 0
M  V30 4234 O 405.145 -0.959626 -1.64912 0
M  V30 4235 C 402.285 -2.11861 -2.72413 0
M  V30 4236 C 401.398 -3.39471 -2.67177 0
M  V30 4237 C 400.533 -3.55035 -3.95125 0
M  V30 4238 C 399.572 -4.76418 -3.84308 0
M  V30 4239 N 398.709 -4.8876 -5.04042 0
M  V30 4240 H 403.549 -2.77314 -1.09091 0
M  V30 4241 H 401.086 -1.37315 -0.52753 0
M  V30 4242 H 403.044 -2.24786 -3.51464 0
M  V30 4243 H 401.674 -1.2392 -2.98066 0
M  V30 4244 H 400.726 -3.35139 -1.79962 0
M  V30 4245 H 402.038 -4.28646 -2.55076 0
M  V30 4246 H 401.192 -3.67653 -4.82614 0
M  V30 4247 H 399.931 -2.64002 -4.10066 0
M  V30 4248 H 398.936 -4.63827 -2.95202 0
M  V30 4249 H 400.161 -5.68863 -3.70906 0
M  V30 4250 H 398.107 -4.00652 -5.19436 0
M  V30 4251 H 398.024 -5.71945 -4.94384 0
M  V30 4252 H 399.292 -5.0574 -5.93167 0
M  V30 4253 N 403.521 0.559213 -1.47345 0
M  V30 4254 C 404.751 1.33999 -1.57251 0
M  V30 4255 C 405.159 1.87905 -0.220978 0
M  V30 4256 O 404.502 1.65577 0.795617 0
M  V30 4257 C 404.564 2.54798 -2.53611 0
M  V30 4258 C 404.228 2.22192 -3.99349 0
M  V30 4259 C 405.225 1.79607 -4.87891 0
M  V30 4260 C 402.91 2.33613 -4.44669 0
M  V30 4261 C 404.904 1.48868 -6.19772 0
M  V30 4262 C 402.591 2.02487 -5.76578 0
M  V30 4263 C 403.589 1.60183 -6.63951 0
M  V30 4264 O 403.277 1.29451 -7.93409 0
M  V30 4265 H 403.009 0.414858 -0.533731 0
M  V30 4266 H 405.563 0.684465 -1.9366 0
M  V30 4267 H 403.793 3.23235 -2.12265 0
M  V30 4268 H 405.482 3.16873 -2.53666 0
M  V30 4269 H 406.248 1.70278 -4.54126 0
M  V30 4270 H 402.127 2.65501 -3.76869 0
M  V30 4271 H 405.671 1.15775 -6.87926 0
M  V30 4272 H 401.568 2.11448 -6.09885 0
M  V30 4273 H 402.336 1.43098 -8.05894 0
M  V30 4274 N 404.999 1.35443 0.805782 0
M  V30 4275 C 406.41 1.25768 1.37983 0
M  V30 4276 C 406.761 -0.10958 1.95894 0
M  V30 4277 O 405.886 -1.01056 1.91355 0
M  V30 4278 C 406.481 2.27727 2.5085 0
M  V30 4279 C 405.04 2.2179 3.04115 0
M  V30 4280 C 404.187 2.13393 1.77084 0
M  V30 4281 H 407.138 1.4656 0.608752 0
M  V30 4282 H 407.159 1.90422 3.29424 0
M  V30 4283 H 406.671 3.27227 2.08671 0
M  V30 4284 H 404.772 1.25703 3.50756 0
M  V30 4285 H 404.885 3.13788 3.62042 0
M  V30 4286 H 403.249 1.59384 1.98668 0
M  V30 4287 H 404.032 3.14755 1.37056 0
M  V30 4288 N 406.477 -1.02803 1.19454 0
M  V30 4289 C 407.702 -1.80378 1.02364 0
M  V30 4290 C 408.127 -1.83282 -0.423007 0
M  V30 4291 O 407.485 -1.25945 -1.30413 0
M  V30 4292 C 407.533 -3.23248 1.59821 0
M  V30 4293 O 406.637 -4.04 0.828105 0
M  V30 4294 H 405.978 -0.556799 0.361761 0
M  V30 4295 H 408.508 -1.29385 1.58495 0
M  V30 4296 H 408.518 -3.73994 1.63073 0
M  V30 4297 H 407.193 -3.2045 2.65113 0
M  V30 4298 H 405.77 -3.62635 0.86891 0
M  V30 4299 N 407.956 -0.998596 -1.21925 0
M  V30 4300 C 409.202 -0.688337 -1.91399 0
M  V30 4301 C 409.557 0.771805 -1.76241 0
M  V30 4302 O 408.85 1.55153 -1.1242 0
M  V30 4303 C 409.044 -1.03648 -3.42041 0
M  V30 4304 C 408.873 -2.52892 -3.71855 0
M  V30 4305 C 407.643 -3.19389 -3.91559 0
M  V30 4306 C 409.841 -3.5103 -3.75875 0
M  V30 4307 N 407.823 -4.5805 -4.08734 0
M  V30 4308 C 409.194 -4.75174 -3.98259 0
M  V30 4309 C 411.249 -3.45257 -3.58751 0
M  V30 4310 C 409.952 -5.94247 -4.05294 0
M  V30 4311 C 411.978 -4.63712 -3.67049 0
M  V30 4312 C 411.34 -5.86658 -3.89887 0
M  V30 4313 H 407.439 -0.303251 -0.720807 0
M  V30 4314 H 410.023 -1.27977 -1.46731 0
M  V30 4315 H 408.194 -0.473569 -3.85502 0
M  V30 4316 H 409.926 -0.681619 -3.98919 0
M  V30 4317 H 406.681 -2.69846 -3.89205 0
M  V30 4318 H 407.105 -5.29989 -4.21237 0
M  V30 4319 H 411.747 -2.51215 -3.40075 0
M  V30 4320 H 409.465 -6.88687 -4.22772 0
M  V30 4321 H 413.051 -4.6084 -3.5513 0
M  V30 4322 H 411.931 -6.76786 -3.96144 0
M  V30 4323 N 409.434 1.37368 -0.772513 0
M  V30 4324 C 410.662 2.03942 -0.348588 0
M  V30 4325 C 411.077 1.58264 1.02947 0
M  V30 4326 O 410.434 0.764246 1.65727 0
M  V30 4327 C 410.485 3.5946 -0.38351 0
M  V30 4328 O 410.206 4.03468 -1.70721 0
M  V30 4329 C 411.707 4.4327 0.0519152 0
M  V30 4330 H 408.927 0.654931 -0.145966 0
M  V30 4331 H 411.471 1.75686 -1.04665 0
M  V30 4332 H 409.626 3.86486 0.265978 0
M  V30 4333 H 410.04 4.97991 -1.64636 0
M  V30 4334 H 411.514 5.51995 -0.0236733 0
M  V30 4335 H 411.991 4.2514 1.10238 0
M  V30 4336 H 412.597 4.21471 -0.569415 0
M  V30 4337 N 410.912 0.523116 1.48665 0
M  V30 4338 C 412.159 -0.0134763 2.02496 0
M  V30 4339 C 412.487 -1.3493 1.40086 0
M  V30 4340 O 411.742 -1.88286 0.533567 0
M  V30 4341 C 412.041 -0.191671 3.56886 0
M  V30 4342 C 411.707 1.06893 4.38046 0
M  V30 4343 C 410.369 1.41443 4.59943 0
M  V30 4344 C 412.721 1.90584 4.85106 0
M  V30 4345 C 410.049 2.59594 5.26144 0
M  V30 4346 C 412.401 3.07907 5.52609 0
M  V30 4347 C 411.065 3.42811 5.72745 0
M  V30 4348 H 410.335 -0.00493133 0.740984 0
M  V30 4349 H 412.982 0.687751 1.78724 0
M  V30 4350 H 411.287 -0.97561 3.79459 0
M  V30 4351 H 412.984 -0.621659 3.96152 0
M  V30 4352 H 409.574 0.789848 4.21259 0
M  V30 4353 H 413.758 1.65203 4.67997 0
M  V30 4354 H 409.014 2.86847 5.39934 0
M  V30 4355 H 413.188 3.73066 5.88043 0
M  V30 4356 H 410.815 4.34462 6.23816 0
M  V30 4357 N 412.39 -1.55475 0.257931 0
M  V30 4358 C 413.62 -2.03314 -0.367026 0
M  V30 4359 C 414.028 -1.13625 -1.51281 0
M  V30 4360 O 413.371 -0.145334 -1.83124 0
M  V30 4361 C 413.433 -3.47362 -0.926284 0
M  V30 4362 C 413.097 -4.56914 0.0886584 0
M  V30 4363 C 414.094 -5.12013 0.902123 0
M  V30 4364 C 411.779 -5.01827 0.217936 0
M  V30 4365 C 413.773 -6.10529 1.83122 0
M  V30 4366 C 411.46 -6.00172 1.15052 0
M  V30 4367 C 412.458 -6.54402 1.95568 0
M  V30 4368 O 412.146 -7.50827 2.87253 0
M  V30 4369 H 411.878 -0.669976 -0.0900443 0
M  V30 4370 H 414.432 -2.01804 0.382673 0
M  V30 4371 H 412.662 -3.46056 -1.72575 0
M  V30 4372 H 414.351 -3.78637 -1.46249 0
M  V30 4373 H 415.117 -4.78139 0.812891 0
M  V30 4374 H 410.996 -4.59272 -0.398721 0
M  V30 4375 H 414.54 -6.52783 2.46008 0
M  V30 4376 H 410.437 -6.33465 1.24064 0
M  V30 4377 H 411.205 -7.68483 2.81739 0
M  V30 4378 N 413.868 0.0150385 -1.57593 0
M  V30 4379 C 415.117 0.702115 -1.89085 0
M  V30 4380 C 415.43 1.75764 -0.858277 0
M  V30 4381 O 416.636 2.49829 -1.0629 0
M  V30 4382 C 415.092 1.29992 -3.35604 0
M  V30 4383 C 414.7 0.280007 -4.47124 0
M  V30 4384 C 416.444 1.96606 -3.76227 0
M  V30 4385 C 414.351 0.886949 -5.84711 0
M  V30 4386 H 413.281 0.265997 -0.705522 0
M  V30 4387 H 415.932 -0.0430408 -1.8345 0
M  V30 4388 H 414.314 2.09525 -3.36029 0
M  V30 4389 H 415.488 -0.489631 -4.58191 0
M  V30 4390 H 413.803 -0.284835 -4.15425 0
M  V30 4391 H 416.4 2.42893 -4.76347 0
M  V30 4392 H 416.743 2.79024 -3.08952 0
M  V30 4393 H 417.276 1.23828 -3.78036 0
M  V30 4394 H 414.015 0.101876 -6.55421 0
M  V30 4395 H 413.535 1.6261 -5.77337 0
M  V30 4396 H 415.214 1.39011 -6.3189 0
M  V30 4397 N 415.346 1.54954 0.287554 0
M  V30 4398 C 416.278 1.83224 1.37701 0
M  V30 4399 C 417.291 0.715898 1.46215 0
M  V30 4400 O 418.48 0.993565 1.48292 0
M  V30 4401 C 415.58 1.96723 2.75959 0
M  V30 4402 C 414.753 3.27253 2.90215 0
M  V30 4403 C 413.812 3.30998 4.09056 0
M  V30 4404 O 412.838 4.04457 4.00503 0
M  V30 4405 N 414.04 2.57353 5.20336 0
M  V30 4406 H 416.805 2.77254 1.138 0
M  V30 4407 H 414.366 1.54694 0.477652 0
M  V30 4408 H 416.358 1.96615 3.5373 0
M  V30 4409 H 414.928 1.09626 2.92747 0
M  V30 4410 H 414.148 3.40022 1.99447 0
M  V30 4411 H 415.436 4.13365 2.96659 0
M  V30 4412 H 414.834 1.97327 5.30169 0
M  V30 4413 H 413.391 2.62984 5.96391 0
M  V30 4414 N 416.824 -0.551391 1.4764 0
M  V30 4415 C 418.07 -1.31024 1.54792 0
M  V30 4416 C 418.403 -1.9304 0.211967 0
M  V30 4417 O 417.678 -1.78175 -0.77999 0
M  V30 4418 C 417.961 -2.41593 2.67029 0
M  V30 4419 C 417.814 -1.84408 4.10261 0
M  V30 4420 C 419.133 -3.43488 2.75143 0
M  V30 4421 H 416.252 -0.475031 0.563485 0
M  V30 4422 H 418.894 -0.616454 1.79722 0
M  V30 4423 H 417.044 -3.00772 2.45904 0
M  V30 4424 H 418.716 -1.29445 4.42766 0
M  V30 4425 H 416.959 -1.15051 4.18265 0
M  V30 4426 H 417.63 -2.64367 4.84576 0
M  V30 4427 H 420.106 -2.94236 2.94218 0
M  V30 4428 H 418.982 -4.18274 3.55441 0
M  V30 4429 H 419.243 -4.02703 1.82435 0
M  V30 4430 N 418.302 -1.35869 -0.798587 0
M  V30 4431 C 419.235 -1.23801 -1.91699 0
M  V30 4432 C 420.213 -0.124143 -1.62125 0
M  V30 4433 O 421.397 -0.293656 -1.86199 0
M  V30 4434 C 418.524 -0.908063 -3.263 0
M  V30 4435 C 417.57 -2.0351 -3.74815 0
M  V30 4436 S 418.403 -3.65183 -3.91665 0
M  V30 4437 C 419.559 -3.34283 -5.29156 0
M  V30 4438 H 419.792 -2.18466 -2.01643 0
M  V30 4439 H 417.325 -1.21178 -0.956833 0
M  V30 4440 H 419.283 -0.724506 -4.04056 0
M  V30 4441 H 417.944 0.0206584 -3.14093 0
M  V30 4442 H 417.137 -1.75858 -4.72324 0
M  V30 4443 H 416.739 -2.1774 -3.04081 0
M  V30 4444 H 419.031 -2.87607 -6.13424 0
M  V30 4445 H 419.974 -4.31022 -5.61806 0
M  V30 4446 H 420.382 -2.69854 -4.95822 0
M  V30 4447 N 419.78 1.02168 -1.19998 0
M  V30 4448 C 421.008 1.79296 -1.03249 0
M  V30 4449 C 421.423 1.84103 0.418502 0
M  V30 4450 O 420.78 1.29031 1.29063 0
M  V30 4451 C 420.831 3.24007 -1.60319 0
M  V30 4452 O 420.552 3.19512 -2.99739 0
M  V30 4453 C 422.053 4.17704 -1.48453 0
M  V30 4454 H 419.273 0.564016 -0.363493 0
M  V30 4455 H 421.817 1.28639 -1.58973 0
M  V30 4456 H 419.972 3.7183 -1.08727 0
M  V30 4457 H 420.386 4.10306 -3.26725 0
M  V30 4458 H 421.86 5.17104 -1.93153 0
M  V30 4459 H 422.337 4.37029 -0.436193 0
M  V30 4460 H 422.943 3.7576 -1.99211 0
M  V30 4461 N 421.258 1.00505 1.21394 0
M  V30 4462 C 422.505 0.687774 1.90462 0
M  V30 4463 C 422.833 -0.78147 1.7811 0
M  V30 4464 O 422.088 -1.58208 1.1519 0
M  V30 4465 C 422.387 1.0546 3.41486 0
M  V30 4466 C 422.053 2.51812 3.74034 0
M  V30 4467 C 420.715 2.91804 3.82628 0
M  V30 4468 C 423.067 3.46614 3.8924 0
M  V30 4469 C 420.395 4.2556 4.03876 0
M  V30 4470 C 422.747 4.80044 4.11995 0
M  V30 4471 C 421.411 5.19759 4.18816 0
M  V30 4472 H 420.681 0.251674 0.696951 0
M  V30 4473 H 423.328 1.26349 1.43903 0
M  V30 4474 H 421.633 0.397133 3.89782 0
M  V30 4475 H 423.33 0.786976 3.93202 0
M  V30 4476 H 419.92 2.1982 3.67936 0
M  V30 4477 H 424.104 3.16883 3.81967 0
M  V30 4478 H 419.36 4.55901 4.07387 0
M  V30 4479 H 423.534 5.53439 4.22704 0
M  V30 4480 H 421.161 6.23418 4.35033 0
M  V30 4481 N 422.737 -1.36956 0.779787 0
M  V30 4482 C 423.685 -2.32053 0.15942 0
M  V30 4483 C 424.679 -1.55333 -0.675878 0
M  V30 4484 O 425.885 -1.70668 -0.57204 0
M  V30 4485 H 422.26 -0.751286 0.0327707 0
M  V30 4486 H 424.231 -2.8195 0.977078 0
M  V30 4487 C 422.98 -3.40602 -0.698977 0
M  V30 4488 H 422.303 -3.99746 -0.0655966 0
M  V30 4489 H 423.743 -4.09486 -1.09989 0
M  V30 4490 C 422.202 -2.81359 -1.85307 0
M  V30 4491 O 422.732 -2.72751 -2.94906 0
M  V30 4492 N 420.938 -2.38786 -1.65619 0
M  V30 4493 H 420.485 -2.45987 -0.764725 0
M  V30 4494 H 420.443 -1.99493 -2.43002 0
M  V30 4495 N 424.215 -0.530993 -1.48385 0
M  V30 4496 C 425.147 0.268353 -2.27624 0
M  V30 4497 C 426.16 0.903525 -1.35426 0
M  V30 4498 O 427.349 0.781796 -1.60469 0
M  V30 4499 C 424.449 1.39535 -3.08842 0
M  V30 4500 C 423.622 0.861913 -4.28824 0
M  V30 4501 C 422.681 1.87016 -4.91845 0
M  V30 4502 O 421.707 1.4267 -5.5103 0
M  V30 4503 N 422.909 3.20238 -4.84178 0
M  V30 4504 H 425.674 -0.41123 -2.96865 0
M  V30 4505 H 423.235 -0.365387 -1.57723 0
M  V30 4506 H 425.227 2.06803 -3.47871 0
M  V30 4507 H 423.797 1.97859 -2.42014 0
M  V30 4508 H 423.017 0.0132126 -3.94198 0
M  V30 4509 H 424.305 0.484415 -5.06489 0
M  V30 4510 H 423.703 3.58932 -4.37246 0
M  V30 4511 H 422.26 3.83136 -5.27305 0
M  V30 4512 N 425.693 1.55336 -0.266172 0
M  V30 4513 C 426.656 2.20878 0.612001 0
M  V30 4514 C 427.656 1.18388 1.08816 0
M  V30 4515 O 428.846 1.4335 0.989774 0
M  V30 4516 C 425.978 2.86765 1.84332 0
M  V30 4517 H 427.171 2.99873 0.0398718 0
M  V30 4518 H 424.724 1.56291 -0.0167309 0
M  V30 4519 H 425.459 2.11759 2.45619 0
M  V30 4520 H 425.244 3.61862 1.5099 0
M  V30 4521 H 426.734 3.36867 2.46801 0
M  V30 4522 N 427.171 -0.0066808 1.57599 0
M  V30 4523 C 428.081 -1.01671 2.11424 0
M  V30 4524 C 429.097 -1.38143 1.05795 0
M  V30 4525 O 430.273 -1.47011 1.37658 0
M  V30 4526 C 427.338 -2.29192 2.60139 0
M  V30 4527 C 426.399 -1.99094 3.80342 0
M  V30 4528 C 425.632 -3.20535 4.26724 0
M  V30 4529 O 425.855 -4.3199 3.72479 0
M  V30 4530 O 424.789 -3.04924 5.18946 0
M  V30 4531 H 428.615 -0.589181 2.9793 0
M  V30 4532 H 426.2 -0.225091 1.47695 0
M  V30 4533 H 428.082 -3.0412 2.917 0
M  V30 4534 H 426.757 -2.71195 1.76733 0
M  V30 4535 H 425.664 -1.21663 3.53764 0
M  V30 4536 H 426.997 -1.61931 4.648 0
M  V30 4537 N 428.649 -1.55105 -0.279332 0
M  V30 4538 C 429.877 -1.7943 -1.03017 0
M  V30 4539 C 430.292 -0.564456 -1.80165 0
M  V30 4540 O 429.649 0.466326 -1.76442 0
M  V30 4541 C 429.7 -3.0155 -1.99374 0
M  V30 4542 O 429.421 -4.19784 -1.25352 0
M  V30 4543 C 430.922 -3.3843 -2.86321 0
M  V30 4544 H 428.142 -0.597882 -0.304594 0
M  V30 4545 H 430.686 -2.02105 -0.312035 0
M  V30 4546 H 428.841 -2.81019 -2.66659 0
M  V30 4547 H 429.255 -4.88781 -1.90246 0
M  V30 4548 H 430.729 -4.27066 -3.49741 0
M  V30 4549 H 431.206 -2.57549 -3.5576 0
M  V30 4550 H 431.812 -3.61197 -2.24536 0
M  V30 4551 N 430.127 0.543554 -1.4793 0
M  V30 4552 C 431.374 1.30008 -1.55255 0
M  V30 4553 C 431.702 1.93245 -0.220612 0
M  V30 4554 O 430.957 1.79141 0.787843 0
M  V30 4555 C 431.256 2.42078 -2.62932 0
M  V30 4556 C 430.922 1.96583 -4.0579 0
M  V30 4557 C 429.584 1.83893 -4.44676 0
M  V30 4558 C 431.936 1.62034 -4.95373 0
M  V30 4559 C 429.264 1.34969 -5.70964 0
M  V30 4560 C 431.616 1.14577 -6.22137 0
M  V30 4561 C 430.28 1.00493 -6.59892 0
M  V30 4562 H 429.55 0.475735 -0.568117 0
M  V30 4563 H 432.197 0.608075 -1.81589 0
M  V30 4564 H 430.502 3.16892 -2.30406 0
M  V30 4565 H 432.199 3.00236 -2.65818 0
M  V30 4566 H 428.789 2.07407 -3.75074 0
M  V30 4567 H 432.973 1.70705 -4.66019 0
M  V30 4568 H 428.229 1.2274 -5.98953 0
M  V30 4569 H 432.403 0.869109 -6.90955 0
M  V30 4570 H 430.03 0.623624 -7.57638 0
M  V30 4571 N 431.605 1.3629 0.791371 0
M  V30 4572 C 433.016 1.27225 1.36641 0
M  V30 4573 C 433.367 -0.0887968 1.95999 0
M  V30 4574 O 432.492 -0.990207 1.92416 0
M  V30 4575 C 433.087 2.30375 2.48421 0
M  V30 4576 C 431.646 2.25004 3.01746 0
M  V30 4577 C 430.793 2.15259 1.7481 0
M  V30 4578 H 433.744 1.47198 0.593173 0
M  V30 4579 H 433.765 1.93905 3.27385 0
M  V30 4580 H 433.277 3.29422 2.05189 0
M  V30 4581 H 431.378 1.29417 3.49403 0
M  V30 4582 H 431.491 3.1761 3.58693 0
M  V30 4583 H 429.855 1.61482 1.96966 0
M  V30 4584 H 430.638 3.16191 1.33709 0
M  V30 4585 N 433.083 -1.0153 1.20538 0
M  V30 4586 C 434.33 -1.75149 1.01633 0
M  V30 4587 C 434.658 -1.89189 -0.451399 0
M  V30 4588 O 433.913 -1.41551 -1.35136 0
M  V30 4589 C 434.212 -3.17213 1.64654 0
M  V30 4590 C 433.878 -3.23146 3.14464 0
M  V30 4591 C 432.54 -3.24472 3.55347 0
M  V30 4592 C 434.892 -3.21207 4.10458 0
M  V30 4593 C 432.22 -3.21532 4.90748 0
M  V30 4594 C 434.572 -3.19808 5.45807 0
M  V30 4595 C 433.236 -3.19439 5.86102 0
M  V30 4596 H 432.506 -0.640914 0.3719 0
M  V30 4597 H 435.153 -1.19071 1.49981 0
M  V30 4598 H 433.458 -3.76457 1.08571 0
M  V30 4599 H 435.155 -3.72871 1.4754 0
M  V30 4600 H 431.745 -3.2285 2.81897 0
M  V30 4601 H 435.929 -3.19351 3.79906 0
M  V30 4602 H 431.185 -3.19578 5.21229 0
M  V30 4603 H 435.359 -3.1726 6.19935 0
M  V30 4604 H 432.986 -3.16915 6.90991 0
M  V30 4605 N 434.561 -1.01147 -1.20859 0
M  V30 4606 C 435.509 -0.57059 -2.25493 0
M  V30 4607 C 436.503 0.388109 -1.64894 0
M  V30 4608 O 437.709 0.258592 -1.78133 0
M  V30 4609 H 434.084 -0.166191 -0.733406 0
M  V30 4610 H 436.055 -1.46411 -2.60012 0
M  V30 4611 C 434.804 0.0805241 -3.47607 0
M  V30 4612 H 434.127 -0.648156 -3.94511 0
M  V30 4613 H 435.567 0.352197 -4.22535 0
M  V30 4614 C 434.026 1.32175 -3.09889 0
M  V30 4615 O 434.556 2.41553 -3.20959 0
M  V30 4616 N 432.762 1.20392 -2.64488 0
M  V30 4617 H 432.309 0.313905 -2.5568 0
M  V30 4618 H 432.267 2.03541 -2.39621 0
M  V30 4619 N 436.039 1.36541 -0.78704 0
M  V30 4620 C 437.45 1.81873 -0.421807 0
M  V30 4621 C 437.801 1.65487 1.05397 0
M  V30 4622 O 436.926 1.17448 1.81755 0
M  V30 4623 C 437.521 3.30192 -0.758841 0
M  V30 4624 C 436.08 3.73743 -0.446468 0
M  V30 4625 C 435.227 2.58844 -0.994728 0
M  V30 4626 H 438.178 1.24796 -0.98039 0
M  V30 4627 H 438.199 3.80468 -0.0490648 0
M  V30 4628 H 437.711 3.42087 -1.83299 0
M  V30 4629 H 435.812 3.6741 0.619739 0
M  V30 4630 H 435.925 4.69272 -0.965415 0
M  V30 4631 H 434.289 2.51245 -0.418087 0
M  V30 4632 H 435.072 2.73525 -2.07458 0
M  V30 4633 N 437.518 0.538854 1.48102 0
M  V30 4634 C 438.765 0.0080018 2.02498 0
M  V30 4635 C 439.093 -1.33437 1.41509 0
M  V30 4636 O 438.348 -1.87709 0.553507 0
M  V30 4637 C 438.647 -0.153808 3.57069 0
M  V30 4638 C 438.313 1.11533 4.36888 0
M  V30 4639 C 436.975 1.46314 4.58417 0
M  V30 4640 C 439.327 1.95718 4.83057 0
M  V30 4641 C 436.655 2.6516 5.23361 0
M  V30 4642 C 439.007 3.13751 5.49312 0
M  V30 4643 C 437.671 3.48866 5.69077 0
M  V30 4644 H 436.941 0.00292807 0.740994 0
M  V30 4645 H 439.588 0.706668 1.77984 0
M  V30 4646 H 437.893 -0.935309 3.80472 0
M  V30 4647 H 439.59 -0.579607 3.96789 0
M  V30 4648 H 436.18 0.834484 4.20398 0
M  V30 4649 H 440.364 1.70158 4.66219 0
M  V30 4650 H 435.62 2.92558 5.36861 0
M  V30 4651 H 439.794 3.79282 5.84053 0
M  V30 4652 H 437.421 4.41054 6.19173 0
M  V30 4653 N 438.996 -1.55193 0.274407 0
M  V30 4654 C 440.273 -1.91584 -0.394331 0
M  V30 4655 C 440.653 -1.19858 -1.73774 0
M  V30 4656 O 440.001 -0.3252 -2.26174 0
M  V30 4657 C 440.211 -3.4487 -0.535311 0
M  V30 4658 C 441.559 -4.16636 -0.818534 0
M  V30 4659 O 442.583 -3.5076 -0.620146 0
M  V30 4660 O 441.442 -5.33209 -1.19792 0
M  V30 4661 H 438.536 -0.798349 -0.215794 0
M  V30 4662 H 441.082 -1.66646 0.320507 0
M  V30 4663 H 439.854 -3.89145 0.410141 0
M  V30 4664 H 439.477 -3.75759 -1.29964 0
M  V30 4665 N 440.474 -0.00167713 -1.576 0
M  V30 4666 C 441.404 0.988091 -2.11563 0
M  V30 4667 C 442.385 1.35736 -1.02517 0
M  V30 4668 O 443.57 1.44082 -1.30208 0
M  V30 4669 C 440.7 2.27941 -2.62031 0
M  V30 4670 C 439.654 2.0517 -3.75619 0
M  V30 4671 C 438.98 3.4033 -4.12407 0
M  V30 4672 C 440.28 1.41294 -5.02825 0
M  V30 4673 H 441.974 0.538771 -2.94513 0
M  V30 4674 H 439.52 0.257712 -1.41675 0
M  V30 4675 H 441.473 2.97539 -2.9841 0
M  V30 4676 H 440.197 2.74989 -1.76205 0
M  V30 4677 H 438.856 1.37998 -3.39635 0
M  V30 4678 H 438.504 3.85085 -3.23603 0
M  V30 4679 H 438.204 3.25909 -4.88935 0
M  V30 4680 H 439.728 4.1124 -4.51347 0
M  V30 4681 H 441.142 2.00851 -5.36965 0
M  V30 4682 H 439.539 1.37356 -5.84169 0
M  V30 4683 H 440.609 0.382362 -4.8339 0
M  V30 4684 N 441.952 1.55251 0.271103 0
M  V30 4685 C 443.18 1.79974 1.02064 0
M  V30 4686 C 443.595 0.574003 1.79863 0
M  V30 4687 O 442.952 -0.456962 1.76686 0
M  V30 4688 C 443.003 3.02603 1.97772 0
M  V30 4689 O 442.724 4.20443 1.23124 0
M  V30 4690 C 444.225 3.39944 2.84522 0
M  V30 4691 H 441.445 0.599489 0.301419 0
M  V30 4692 H 443.989 2.02268 0.301313 0
M  V30 4693 H 442.144 2.8243 2.65165 0
M  V30 4694 H 442.558 4.89783 1.87651 0
M  V30 4695 H 444.032 4.28915 3.47471 0
M  V30 4696 H 444.509 2.59432 3.54389 0
M  V30 4697 H 445.115 3.62383 2.22618 0
M  V30 4698 N 443.43 -0.535701 1.48216 0
M  V30 4699 C 444.377 -1.64083 1.62312 0
M  V30 4700 C 445.347 -1.59448 0.465365 0
M  V30 4701 O 446.532 -1.77959 0.688135 0
M  V30 4702 C 443.672 -3.0236 1.66349 0
M  V30 4703 C 442.785 -3.17273 2.93193 0
M  V30 4704 C 441.92 -4.46075 2.88427 0
M  V30 4705 C 440.959 -4.54496 4.1 0
M  V30 4706 N 440.096 -5.7468 4.03345 0
M  V30 4707 H 444.936 -1.51374 2.5669 0
M  V30 4708 H 442.473 -0.737059 1.27302 0
M  V30 4709 H 444.431 -3.82461 1.66672 0
M  V30 4710 H 443.061 -3.13854 0.754672 0
M  V30 4711 H 442.113 -2.30462 3.02641 0
M  V30 4712 H 443.425 -3.19357 3.83162 0
M  V30 4713 H 442.579 -5.3446 2.87119 0
M  V30 4714 H 441.318 -4.46504 1.96177 0
M  V30 4715 H 440.323 -3.64519 4.11589 0
M  V30 4716 H 441.548 -4.5581 5.03402 0
M  V30 4717 H 439.494 -5.76017 3.13912 0
M  V30 4718 H 439.411 -5.78234 4.87013 0
M  V30 4719 H 440.679 -6.65367 4.06087 0
M  V30 4720 N 444.908 -1.36708 -0.784132 0
M  V30 4721 C 446.154 -1.31426 -1.54451 0
M  V30 4722 C 446.487 0.10476 -1.93917 0
M  V30 4723 O 445.762 1.05934 -1.6312 0
M  V30 4724 C 446.045 -2.24189 -2.818 0
M  V30 4725 C 445.898 -3.74813 -2.48667 0
M  V30 4726 C 447.217 -2.15626 -3.83658 0
M  V30 4727 H 444.336 -0.478739 -0.560337 0
M  V30 4728 H 446.978 -1.67305 -0.900498 0
M  V30 4729 H 445.128 -1.93722 -3.36755 0
M  V30 4730 H 446.8 -4.15823 -1.99722 0
M  V30 4731 H 445.043 -3.93989 -1.81535 0
M  V30 4732 H 445.714 -4.35138 -3.39646 0
M  V30 4733 H 448.19 -2.42456 -3.38163 0
M  V30 4734 H 447.066 -2.82694 -4.70506 0
M  V30 4735 H 447.327 -1.14522 -4.27009 0
M  V30 4736 N 446.386 1.0089 -1.21074 0
M  V30 4737 C 447.632 1.7497 -1.03717 0
M  V30 4738 C 447.987 1.8764 0.425344 0
M  V30 4739 O 447.28 1.39679 1.3115 0
M  V30 4740 C 447.474 3.16335 -1.66334 0
M  V30 4741 C 447.303 3.17449 -3.18522 0
M  V30 4742 C 446.073 3.2425 -3.87543 0
M  V30 4743 C 448.271 3.02877 -4.15656 0
M  V30 4744 N 446.253 3.14949 -5.26954 0
M  V30 4745 C 447.624 3.0143 -5.41793 0
M  V30 4746 C 449.679 2.8715 -4.06755 0
M  V30 4747 C 448.382 2.85869 -6.60054 0
M  V30 4748 C 450.408 2.72944 -5.24648 0
M  V30 4749 C 449.77 2.72171 -6.49694 0
M  V30 4750 H 445.869 0.650627 -0.43383 0
M  V30 4751 H 448.453 1.19944 -1.53367 0
M  V30 4752 H 446.624 3.69638 -1.19256 0
M  V30 4753 H 448.356 3.78888 -1.42219 0
M  V30 4754 H 445.111 3.31288 -3.38446 0
M  V30 4755 H 445.535 3.13651 -5.9996 0
M  V30 4756 H 450.177 2.86557 -3.10878 0
M  V30 4757 H 447.895 2.8521 -7.56096 0
M  V30 4758 H 451.481 2.61782 -5.19578 0
M  V30 4759 H 450.361 2.61307 -7.39384 0
M  V30 4760 N 447.864 1.01787 1.20321 0
M  V30 4761 C 449.275 0.739307 1.71438 0
M  V30 4762 C 449.626 -0.742041 1.81627 0
M  V30 4763 O 448.751 -1.57903 1.47971 0
M  V30 4764 C 449.346 1.33538 3.11373 0
M  V30 4765 C 447.905 1.10566 3.59795 0
M  V30 4766 C 447.052 1.44028 2.36962 0
M  V30 4767 H 450.003 1.18718 1.05317 0
M  V30 4768 H 450.024 0.726611 3.73498 0
M  V30 4769 H 449.536 2.41352 3.03926 0
M  V30 4770 H 447.637 0.0452405 3.72573 0
M  V30 4771 H 447.75 1.78661 4.44542 0
M  V30 4772 H 446.114 0.85933 2.39766 0
M  V30 4773 H 446.897 2.52901 2.32155 0
M  V30 4774 N 449.342 -1.36122 0.79427 0
M  V30 4775 C 450.292 -2.27373 0.169017 0
M  V30 4776 C 451.276 -1.4719 -0.649913 0
M  V30 4777 O 452.468 -1.69518 -0.50919 0
M  V30 4778 C 449.597 -3.36264 -0.691455 0
M  V30 4779 C 448.683 -4.2388 0.13653 0
M  V30 4780 N 449.074 -4.91519 1.19345 0
M  V30 4781 C 447.372 -4.45921 -0.0838499 0
M  V30 4782 C 448.073 -5.56369 1.6979 0
M  V30 4783 N 447.049 -5.34204 1.00634 0
M  V30 4784 H 450.851 -2.77154 0.977897 0
M  V30 4785 H 448.365 -1.49504 0.634208 0
M  V30 4786 H 450.362 -4.00572 -1.15534 0
M  V30 4787 H 449.022 -2.88037 -1.49883 0
M  V30 4788 H 450.033 -4.9334 1.57594 0
M  V30 4789 H 446.71 -4.08518 -0.861341 0
M  V30 4790 H 448.1 -6.20368 2.58055 0
M  V30 4791 N 450.82 -0.546701 -1.47814 0
M  V30 4792 C 451.767 0.206854 -2.29871 0
M  V30 4793 C 452.737 0.918235 -1.38411 0
M  V30 4794 O 453.922 0.915991 -1.67375 0
M  V30 4795 C 451.062 1.23746 -3.22151 0
M  V30 4796 C 450.175 0.533216 -4.28697 0
M  V30 4797 C 449.31 1.5482 -5.08138 0
M  V30 4798 C 448.349 0.828347 -6.06469 0
M  V30 4799 N 447.486 1.78966 -6.78908 0
M  V30 4800 H 452.326 -0.499037 -2.93792 0
M  V30 4801 H 449.863 -0.25793 -1.44821 0
M  V30 4802 H 451.821 1.84746 -3.74065 0
M  V30 4803 H 450.451 1.91151 -2.60117 0
M  V30 4804 H 449.503 -0.191089 -3.7992 0
M  V30 4805 H 450.815 -0.0311987 -4.9879 0
M  V30 4806 H 449.969 2.23202 -5.6415 0
M  V30 4807 H 448.708 2.14652 -4.37922 0
M  V30 4808 H 447.713 0.130539 -5.49645 0
M  V30 4809 H 448.938 0.235907 -6.7869 0
M  V30 4810 H 446.884 2.37675 -6.1143 0
M  V30 4811 H 446.801 1.27712 -7.45135 0
M  V30 4812 H 448.069 2.46496 -7.395 0
M  V30 4813 N 452.299 1.55045 -0.282633 0
M  V30 4814 C 453.576 1.9179 0.384166 0
M  V30 4815 C 453.956 1.20778 1.73136 0
M  V30 4816 O 453.304 0.33719 2.25998 0
M  V30 4817 C 453.514 3.45149 0.517014 0
M  V30 4818 C 454.862 4.17064 0.796427 0
M  V30 4819 O 455.886 3.51084 0.601535 0
M  V30 4820 O 454.745 5.33837 1.16962 0
M  V30 4821 H 451.839 0.799483 0.211558 0
M  V30 4822 H 454.385 1.66474 -0.32934 0
M  V30 4823 H 453.157 3.88922 -0.430772 0
M  V30 4824 H 452.78 3.76443 1.2797 0
M  V30 4825 N 453.777 0.010035 1.57597 0
M  V30 4826 C 455.007 -0.682422 1.95004 0
M  V30 4827 C 455.415 -1.67278 0.884014 0
M  V30 4828 O 454.758 -1.83129 -0.144672 0
M  V30 4829 C 454.82 -1.46141 3.28456 0
M  V30 4830 C 454.484 -0.631523 4.52615 0
M  V30 4831 C 455.481 0.0850905 5.1983 0
M  V30 4832 C 453.166 -0.574539 4.99003 0
M  V30 4833 C 455.16 0.847566 6.3174 0
M  V30 4834 C 452.847 0.191655 6.10799 0
M  V30 4835 C 453.845 0.901432 6.77025 0
M  V30 4836 O 453.533 1.65511 7.86677 0
M  V30 4837 H 453.265 -0.194361 0.647456 0
M  V30 4838 H 455.819 0.060312 2.05311 0
M  V30 4839 H 454.049 -2.24885 3.14585 0
M  V30 4840 H 455.738 -2.04016 3.50902 0
M  V30 4841 H 456.504 0.0502812 4.84974 0
M  V30 4842 H 452.383 -1.11654 4.47274 0
M  V30 4843 H 455.927 1.4021 6.83364 0
M  V30 4844 H 451.824 0.228249 6.45096 0
M  V30 4845 H 452.592 1.57287 8.03245 0
M  V30 4846 N 455.255 -1.55392 -0.262866 0
M  V30 4847 C 456.666 -1.67079 -0.833158 0
M  V30 4848 C 457.017 -0.604539 -1.86654 0
M  V30 4849 O 456.142 0.252138 -2.14926 0
M  V30 4850 C 456.737 -3.02891 -1.51797 0
M  V30 4851 C 455.296 -3.16571 -2.03617 0
M  V30 4852 C 454.443 -2.62909 -0.881701 0
M  V30 4853 H 457.394 -1.58652 -0.0389986 0
M  V30 4854 H 457.415 -2.96445 -2.38538 0
M  V30 4855 H 456.927 -3.80473 -0.765619 0
M  V30 4856 H 455.028 -2.43782 -2.81782 0
M  V30 4857 H 455.141 -4.23271 -2.24452 0
M  V30 4858 H 453.505 -2.20324 -1.27786 0
M  V30 4859 H 454.288 -3.43003 -0.14269 0
M  V30 4860 N 456.733 0.527833 -1.48498 0
M  V30 4861 C 457.663 1.64136 -1.66077 0
M  V30 4862 C 458.644 1.62286 -0.509625 0
M  V30 4863 O 459.829 1.79449 -0.742413 0
M  V30 4864 C 456.959 3.02717 -1.70234 0
M  V30 4865 C 455.913 3.19426 -2.8487 0
M  V30 4866 C 455.239 4.5909 -2.74118 0
M  V30 4867 C 456.539 3.01993 -4.26142 0
M  V30 4868 H 458.233 1.4968 -2.593 0
M  V30 4869 H 455.779 0.718654 -1.24785 0
M  V30 4870 H 457.732 3.80491 -1.8112 0
M  V30 4871 H 456.456 3.18201 -0.735911 0
M  V30 4872 H 455.115 2.4407 -2.73542 0
M  V30 4873 H 454.763 4.71413 -1.7544 0
M  V30 4874 H 454.463 4.71214 -3.51042 0
M  V30 4875 H 455.987 5.3896 -2.86974 0
M  V30 4876 H 457.401 3.69558 -4.38292 0
M  V30 4877 H 455.798 3.2561 -5.04082 0
M  V30 4878 H 456.868 1.98396 -4.42456 0
M  V30 4879 N 458.211 1.37122 0.776871 0
M  V30 4880 C 459.46 1.31373 1.53049 0
M  V30 4881 C 459.773 -0.101016 1.95339 0
M  V30 4882 O 460.979 -0.280953 2.70042 0
M  V30 4883 C 459.435 2.30567 2.76346 0
M  V30 4884 C 459.043 3.77543 2.41175 0
M  V30 4885 C 460.787 2.33818 3.54301 0
M  V30 4886 C 458.694 4.68481 3.60943 0
M  V30 4887 H 457.624 0.488234 0.574581 0
M  V30 4888 H 460.275 1.62554 0.851372 0
M  V30 4889 H 458.657 1.92396 3.46121 0
M  V30 4890 H 459.831 4.24521 1.79216 0
M  V30 4891 H 458.146 3.77187 1.76405 0
M  V30 4892 H 460.743 2.98965 4.4331 0
M  V30 4893 H 461.086 1.3503 3.93793 0
M  V30 4894 H 461.619 2.7067 2.91518 0
M  V30 4895 H 458.358 5.68378 3.26537 0
M  V30 4896 H 457.878 4.2621 4.22025 0
M  V30 4897 H 459.557 4.85366 4.27819 0
M  V30 4898 N 459.689 -1.00246 1.21608 0
M  V30 4899 C 461.1 -1.55511 1.03312 0
M  V30 4900 C 461.451 -1.91946 -0.406332 0
M  V30 4901 O 460.576 -1.73753 -1.28992 0
M  V30 4902 C 461.171 -2.82576 1.86913 0
M  V30 4903 C 459.73 -3.34318 1.72941 0
M  V30 4904 C 458.877 -2.07487 1.83968 0
M  V30 4905 H 461.828 -0.824638 1.35593 0
M  V30 4906 H 461.849 -3.54559 1.38087 0
M  V30 4907 H 461.361 -2.56026 2.91672 0
M  V30 4908 H 459.462 -3.65797 0.70877 0
M  V30 4909 H 459.575 -4.05566 2.55055 0
M  V30 4910 H 457.939 -2.20603 1.27304 0
M  V30 4911 H 458.722 -1.83346 2.9024 0
M  V30 4912 N 461.167 -1.02423 -1.1978 0
M  V30 4913 C 462.413 -0.719051 -1.89625 0
M  V30 4914 C 462.746 0.750083 -1.7913 0
M  V30 4915 O 462.021 1.54574 -1.18056 0
M  V30 4916 C 462.304 -1.16499 -3.40735 0
M  V30 4917 C 462.157 -2.695 -3.60125 0
M  V30 4918 C 463.476 -0.742166 -4.33797 0
M  V30 4919 H 460.595 -0.26269 -0.688595 0
M  V30 4920 H 463.237 -1.27333 -1.41018 0
M  V30 4921 H 461.387 -0.69341 -3.82262 0
M  V30 4922 H 463.059 -3.24569 -3.278 0
M  V30 4923 H 461.302 -3.10113 -3.03336 0
M  V30 4924 H 461.973 -2.95757 -4.66081 0
M  V30 4925 H 464.449 -1.1477 -3.99959 0
M  V30 4926 H 463.325 -1.08213 -5.38127 0
M  V30 4927 H 463.586 0.355747 -4.40666 0
M  V30 4928 N 462.645 1.35699 -0.801477 0
M  V30 4929 C 463.893 1.9852 -0.37871 0
M  V30 4930 C 464.214 1.63907 1.05638 0
M  V30 4931 O 463.484 0.919013 1.73006 0
M  V30 4932 H 462.064 0.734322 -0.137042 0
M  V30 4933 H 464.726 1.65697 -1.02619 0
M  V30 4934 H 463.822 3.08382 -0.480284 0
M  V30 4935 N 464.123 0.554532 1.47522 0
M  V30 4936 C 465.07 -0.19466 2.29978 0
M  V30 4937 C 466.04 -0.910882 1.38896 0
M  V30 4938 O 467.225 -0.907102 1.67858 0
M  V30 4939 C 464.365 -1.22035 3.22802 0
M  V30 4940 C 463.478 -0.510474 4.28973 0
M  V30 4941 C 462.613 -1.52123 5.08952 0
M  V30 4942 C 461.652 -0.796173 6.069 0
M  V30 4943 N 460.789 -1.75363 6.79847 0
M  V30 4944 H 465.629 0.51461 2.93523 0
M  V30 4945 H 463.166 0.265607 1.44682 0
M  V30 4946 H 465.124 -1.8276 3.7504 0
M  V30 4947 H 463.754 -1.89769 2.61127 0
M  V30 4948 H 462.806 0.211234 3.79813 0
M  V30 4949 H 464.118 0.0576503 4.98767 0
M  V30 4950 H 463.272 -2.20207 5.65326 0
M  V30 4951 H 462.011 -2.12327 4.39054 0
M  V30 4952 H 461.016 -0.101388 5.49707 0
M  V30 4953 H 462.241 -0.199911 6.78806 0
M  V30 4954 H 460.187 -2.3443 6.12682 0
M  V30 4955 H 460.104 -1.23759 7.45801 0
M  V30 4956 H 461.372 -2.4257 7.40797 0
M  V30 4957 N 465.601 -1.54893 0.290851 0
M  V30 4958 C 466.531 -2.26103 -0.583084 0
M  V30 4959 C 467.512 -1.25684 -1.14619 0
M  V30 4960 O 468.697 -1.54436 -1.17741 0
M  V30 4961 C 465.827 -2.99409 -1.75987 0
M  V30 4962 C 464.781 -4.0689 -1.32758 0
M  V30 4963 C 464.107 -4.67856 -2.58872 0
M  V30 4964 C 465.407 -5.20215 -0.46624 0
M  V30 4965 H 467.101 -2.99398 0.0108214 0
M  V30 4966 H 464.647 -1.43998 0.00664468 0
M  V30 4967 H 466.6 -3.47943 -2.37727 0
M  V30 4968 H 465.324 -2.23675 -2.37985 0
M  V30 4969 H 463.983 -3.59191 -0.733299 0
M  V30 4970 H 463.631 -3.88772 -3.19163 0
M  V30 4971 H 463.331 -5.40438 -2.30653 0
M  V30 4972 H 464.855 -5.19147 -3.21433 0
M  V30 4973 H 466.269 -5.64704 -0.989047 0
M  V30 4974 H 464.666 -5.99455 -0.27826 0
M  V30 4975 H 465.736 -4.82198 0.511173 0
M  V30 4976 N 467.08 -0.0183926 -1.57589 0
M  V30 4977 C 468.326 0.663543 -1.91638 0
M  V30 4978 C 468.659 1.72392 -0.894134 0
M  V30 4979 O 467.934 1.94316 0.0846449 0
M  V30 4980 C 468.217 1.28984 -3.36207 0
M  V30 4981 C 468.07 0.239761 -4.49161 0
M  V30 4982 C 469.389 2.2109 -3.80536 0
M  V30 4983 H 466.508 0.239746 -0.696915 0
M  V30 4984 H 469.15 -0.073456 -1.89858 0
M  V30 4985 H 467.3 1.91799 -3.37854 0
M  V30 4986 H 468.972 -0.390119 -4.59647 0
M  V30 4987 H 467.215 -0.435972 -4.31604 0
M  V30 4988 H 467.886 0.717383 -5.47319 0
M  V30 4989 H 470.362 1.68273 -3.80557 0
M  V30 4990 H 469.238 2.61869 -4.82406 0
M  V30 4991 H 469.499 3.09764 -3.15434 0
M  V30 4992 N 468.558 1.5553 0.254621 0
M  V30 4993 C 469.488 1.9268 1.31897 0
M  V30 4994 C 470.469 0.790797 1.506 0
M  V30 4995 O 471.654 1.05045 1.63337 0
M  V30 4996 C 468.784 2.21477 2.67517 0
M  V30 4997 C 467.738 3.37256 2.63519 0
M  V30 4998 C 467.064 3.51576 4.02862 0
M  V30 4999 C 468.364 4.73157 2.21179 0
M  V30 5000 H 470.058 2.81832 1.01051 0
M  V30 5001 H 467.604 1.35599 0.484662 0
M  V30 5002 H 469.557 2.46055 3.42104 0
M  V30 5003 H 468.281 1.29144 2.99982 0
M  V30 5004 H 466.94 3.12675 1.9139 0
M  V30 5005 H 466.588 2.56676 4.32581 0
M  V30 5006 H 466.288 4.2943 4.01078 0
M  V30 5007 H 467.812 3.78467 4.79161 0
M  V30 5008 H 469.226 4.97158 2.85494 0
M  V30 5009 H 467.623 5.54058 2.30521 0
M  V30 5010 H 468.693 4.70739 1.16332 0
M  V30 5011 N 470.036 -0.519951 1.48776 0
M  V30 5012 C 470.984 -1.64443 1.64503 0
M  V30 5013 C 471.978 -1.61501 0.511248 0
M  V30 5014 O 473.184 -1.66238 0.690294 0
M  V30 5015 H 469.559 -0.544776 0.518385 0
M  V30 5016 H 471.53 -1.48325 2.58925 0
M  V30 5017 C 470.279 -3.02673 1.71127 0
M  V30 5018 H 469.602 -3.05635 2.57735 0
M  V30 5019 H 471.042 -3.80941 1.86172 0
M  V30 5020 C 469.501 -3.33854 0.452032 0
M  V30 5021 O 470.031 -3.99385 -0.430678 0
M  V30 5022 N 468.237 -2.88825 0.32069 0
M  V30 5023 H 467.784 -2.35674 1.03998 0
M  V30 5024 H 467.742 -3.10056 -0.520814 0
M  V30 5025 N 471.514 -1.37532 -0.769588 0
M  V30 5026 C 472.93 -1.18379 -1.07045 0
M  V30 5027 C 473.13 -0.0214312 -2.01489 0
M  V30 5028 O 472.186 0.637809 -2.44312 0
M  V30 5029 C 473.499 -2.50338 -1.66588 0
M  V30 5030 C 475.047 -2.56879 -1.78835 0
M  V30 5031 C 475.522 -3.88974 -2.41792 0
M  V30 5032 N 477.013 -3.90428 -2.4924 0
M  V30 5033 C 477.748 -4.89388 -2.98809 0
M  V30 5034 N 477.244 -5.98745 -3.48535 0
M  V30 5035 N 479.037 -4.76791 -2.97703 0
M  V30 5036 H 471.188 -2.11921 -0.142541 0
M  V30 5037 H 473.451 -0.939608 -0.125863 0
M  V30 5038 H 473.157 -3.35767 -1.0466 0
M  V30 5039 H 473.031 -2.67583 -2.65856 0
M  V30 5040 H 475.418 -1.71856 -2.39895 0
M  V30 5041 H 475.499 -2.43516 -0.783166 0
M  V30 5042 H 475.143 -4.74412 -1.81371 0
M  V30 5043 H 475.073 -3.99641 -3.4292 0
M  V30 5044 H 477.564 -3.11433 -2.14052 0
M  V30 5045 H 477.877 -6.70205 -3.84767 0
M  V30 5046 H 476.222 -6.02387 -3.46634 0
M  V30 5047 H 479.413 -3.90478 -2.58157 0
M  V30 5048 H 479.586 -5.54069 -3.36024 0
M  V30 5049 N 472.992 0.995999 -1.22138 0
M  V30 5050 C 473.94 2.10673 -0.985876 0
M  V30 5051 C 474.934 1.69255 0.0699553 0
M  V30 5052 O 476.14 1.79812 -0.0822176 0
M  V30 5053 H 472.515 0.688865 -0.30161 0
M  V30 5054 H 474.486 2.27711 -1.92848 0
M  V30 5055 C 473.235 3.42881 -0.576909 0
M  V30 5056 H 472.558 3.75191 -1.38101 0
M  V30 5057 H 473.998 4.21589 -0.451518 0
M  V30 5058 C 472.457 3.29265 0.713196 0
M  V30 5059 O 472.987 3.60777 1.76643 0
M  V30 5060 N 471.193 2.82456 0.683162 0
M  V30 5061 H 470.74 2.5701 -0.174242 0
M  V30 5062 H 470.698 2.73727 1.54663 0
M  V30 5063 N 474.47 1.03057 1.19235 0
M  V30 5064 C 475.881 0.757449 1.70645 0
M  V30 5065 C 476.232 -0.722735 1.82403 0
M  V30 5066 O 475.357 -1.56325 1.49638 0
M  V30 5067 C 475.952 1.36833 3.09939 0
M  V30 5068 C 474.511 1.14375 3.58602 0
M  V30 5069 C 473.658 1.46533 2.35422 0
M  V30 5070 H 476.609 1.19828 1.04052 0
M  V30 5071 H 476.63 0.766184 3.72706 0
M  V30 5072 H 476.142 2.44562 3.01349 0
M  V30 5073 H 474.243 0.0847542 3.72504 0
M  V30 5074 H 474.356 1.83366 4.42622 0
M  V30 5075 H 472.72 0.884712 2.38841 0
M  V30 5076 H 473.503 2.55349 2.2946 0
M  V30 5077 N 475.948 -1.35272 0.808662 0
M  V30 5078 C 477.194 -1.99003 0.390581 0
M  V30 5079 C 477.527 -1.63999 -1.0401 0
M  V30 5080 O 476.802 -0.904368 -1.72196 0
M  V30 5081 C 477.085 -3.55454 0.576566 0
M  V30 5082 C 476.938 -4.00249 2.05233 0
M  V30 5083 C 478.257 -4.401 0.00354277 0
M  V30 5084 H 475.376 -0.722917 0.143388 0
M  V30 5085 H 478.018 -1.6039 1.01858 0
M  V30 5086 H 476.168 -3.88477 0.0419766 0
M  V30 5087 H 477.84 -3.77626 2.64946 0
M  V30 5088 H 476.083 -3.51082 2.54801 0
M  V30 5089 H 476.754 -5.0911 2.13333 0
M  V30 5090 H 479.23 -4.13548 0.460117 0
M  V30 5091 H 478.106 -5.48656 0.163575 0
M  V30 5092 H 478.367 -4.28444 -1.09032 0
M  V30 5093 N 477.426 -0.562348 -1.47226 0
M  V30 5094 C 478.374 0.195476 -2.31777 0
M  V30 5095 C 479.368 0.90433 -1.43242 0
M  V30 5096 O 480.574 0.825031 -1.59979 0
M  V30 5097 H 476.949 0.0819095 -0.747526 0
M  V30 5098 H 478.92 -0.536753 -2.93533 0
M  V30 5099 C 477.669 1.20902 -3.26003 0
M  V30 5100 H 476.992 0.672997 -3.94095 0
M  V30 5101 H 478.432 1.71006 -3.87986 0
M  V30 5102 C 476.891 2.25955 -2.49891 0
M  V30 5103 O 477.421 3.32969 -2.2471 0
M  V30 5104 N 475.627 2.00019 -2.1081 0
M  V30 5105 H 475.174 1.13006 -2.31489 0
M  V30 5106 H 475.132 2.70523 -1.60201 0
M  V30 5107 N 478.904 1.54736 -0.299062 0
M  V30 5108 C 480.134 2.04215 0.312992 0
M  V30 5109 C 480.542 1.17596 1.48215 0
M  V30 5110 O 479.885 0.193835 1.82674 0
M  V30 5111 C 479.947 3.49696 0.833862 0
M  V30 5112 C 479.611 4.56518 -0.20977 0
M  V30 5113 C 480.608 5.09442 -1.03756 0
M  V30 5114 C 478.293 5.01073 -0.35091 0
M  V30 5115 C 480.287 6.05459 -1.99244 0
M  V30 5116 C 477.974 5.9691 -1.30924 0
M  V30 5117 C 478.972 6.48987 -2.1285 0
M  V30 5118 O 478.66 7.42947 -3.07059 0
M  V30 5119 H 478.392 0.672128 0.0722494 0
M  V30 5120 H 480.946 2.00718 -0.436043 0
M  V30 5121 H 479.176 3.5051 1.63339 0
M  V30 5122 H 480.865 3.82381 1.36159 0
M  V30 5123 H 481.631 4.75816 -0.939376 0
M  V30 5124 H 477.51 4.60168 0.276813 0
M  V30 5125 H 481.054 6.46031 -2.63229 0
M  V30 5126 H 476.951 6.29953 -1.40815 0
M  V30 5127 H 477.719 7.60743 -3.02015 0
M  V30 5128 N 480.382 0.0267497 1.57577 0
M  V30 5129 C 481.629 -0.652404 1.91703 0
M  V30 5130 C 481.957 -1.72271 0.902936 0
M  V30 5131 O 481.212 -1.955 -0.0884843 0
M  V30 5132 C 481.511 -1.30914 3.3256 0
M  V30 5133 C 481.177 -0.369441 4.49384 0
M  V30 5134 C 479.839 -0.110791 4.81072 0
M  V30 5135 C 482.191 0.275971 5.20469 0
M  V30 5136 C 479.519 0.801116 5.81205 0
M  V30 5137 C 481.871 1.17592 6.21575 0
M  V30 5138 C 480.535 1.44348 6.51705 0
M  V30 5139 H 479.805 -0.238732 0.70149 0
M  V30 5140 H 482.452 0.0880091 1.91298 0
M  V30 5141 H 480.757 -2.12425 3.29216 0
M  V30 5142 H 482.454 -1.84115 3.56234 0
M  V30 5143 H 479.044 -0.581211 4.24641 0
M  V30 5144 H 483.228 0.0892 4.9622 0
M  V30 5145 H 478.484 1.01614 6.02897 0
M  V30 5146 H 482.658 1.68223 6.75777 0
M  V30 5147 H 480.285 2.15176 7.29111 0
M  V30 5148 N 481.861 -1.55662 -0.24637 0
M  V30 5149 C 482.824 -1.89558 -1.28842 0
M  V30 5150 C 483.824 -0.772082 -1.41052 0
M  V30 5151 O 485.014 -1.04007 -1.39743 0
M  V30 5152 C 482.146 -2.12449 -2.66605 0
M  V30 5153 H 483.339 -2.82735 -1.00004 0
M  V30 5154 H 480.892 -1.48562 -0.485684 0
M  V30 5155 H 481.627 -1.21742 -3.00582 0
M  V30 5156 H 481.412 -2.94273 -2.59125 0
M  V30 5157 H 482.902 -2.39854 -3.41847 0
M  V30 5158 N 483.339 0.512053 -1.4905 0
M  V30 5159 C 484.249 1.64139 -1.67617 0
M  V30 5160 C 485.265 1.64786 -0.558701 0
M  V30 5161 O 486.441 1.8341 -0.832034 0
M  V30 5162 C 483.506 3.00548 -1.72835 0
M  V30 5163 C 482.567 3.10615 -2.96339 0
M  V30 5164 C 481.8 4.40517 -3.01298 0
M  V30 5165 O 482.023 5.28671 -2.14157 0
M  V30 5166 O 480.957 4.55325 -3.93653 0
M  V30 5167 H 484.783 1.51407 -2.63267 0
M  V30 5168 H 482.368 0.687131 -1.32661 0
M  V30 5169 H 484.25 3.81641 -1.78683 0
M  V30 5170 H 482.925 3.13566 -0.803616 0
M  V30 5171 H 481.832 2.2875 -2.96014 0
M  V30 5172 H 483.165 3.0252 -3.88256 0
M  V30 5173 N 484.817 1.37938 0.762283 0
M  V30 5174 C 486.063 1.33866 1.52341 0
M  V30 5175 C 486.396 -0.0738961 1.94059 0
M  V30 5176 O 485.671 -1.03326 1.64785 0
M  V30 5177 C 485.954 2.28644 2.78197 0
M  V30 5178 C 485.807 3.78722 2.42672 0
M  V30 5179 C 487.126 2.21702 3.80179 0
M  V30 5180 H 484.245 0.487593 0.55265 0
M  V30 5181 H 486.887 1.68717 0.873767 0
M  V30 5182 H 485.037 1.99055 3.33631 0
M  V30 5183 H 486.709 4.18948 1.93081 0
M  V30 5184 H 484.952 3.96827 1.75244 0
M  V30 5185 H 485.623 4.40486 3.3268 0
M  V30 5186 H 488.099 2.47805 3.34263 0
M  V30 5187 H 486.975 2.90143 4.65949 0
M  V30 5188 H 487.236 1.21301 4.25133 0
M  V30 5189 N 486.295 -0.989507 1.22664 0
M  V30 5190 C 487.205 -2.11449 1.01619 0
M  V30 5191 C 488.221 -1.73962 -0.036545 0
M  V30 5192 O 489.397 -2.00788 0.156924 0
M  V30 5193 C 486.462 -3.41465 0.600204 0
M  V30 5194 C 485.523 -3.93033 1.72695 0
M  V30 5195 C 484.756 -5.16844 1.33071 0
M  V30 5196 O 484.979 -5.7001 0.210975 0
M  V30 5197 O 483.913 -5.6225 2.14845 0
M  V30 5198 H 487.739 -2.32088 1.9588 0
M  V30 5199 H 485.324 -1.09823 1.01289 0
M  V30 5200 H 487.206 -4.19695 0.37873 0
M  V30 5201 H 485.881 -3.22178 -0.313511 0
M  V30 5202 H 484.788 -3.15961 2.00298 0
M  V30 5203 H 486.121 -4.16758 2.61865 0
M  V30 5204 N 487.773 -1.03688 -1.18687 0
M  V30 5205 C 488.705 -0.582696 -2.21669 0
M  V30 5206 C 489.718 0.345656 -1.59088 0
M  V30 5207 O 490.907 0.140776 -1.77944 0
M  V30 5208 C 488.007 0.169204 -3.38477 0
M  V30 5209 C 487.18 -0.766079 -4.30639 0
M  V30 5210 C 486.239 -0.0581541 -5.26168 0
M  V30 5211 O 485.265 -0.687346 -5.65035 0
M  V30 5212 N 486.467 1.20981 -5.67753 0
M  V30 5213 H 489.232 -1.46843 -2.61261 0
M  V30 5214 H 486.793 -0.916896 -1.33434 0
M  V30 5215 H 488.785 0.652543 -3.99405 0
M  V30 5216 H 487.355 0.956435 -2.97609 0
M  V30 5217 H 486.575 -1.42935 -3.67373 0
M  V30 5218 H 487.863 -1.40146 -4.89118 0
M  V30 5219 H 487.261 1.74159 -5.38224 0
M  V30 5220 H 485.818 1.6375 -6.30896 0
M  V30 5221 N 489.251 1.34841 -0.815825 0
M  V30 5222 C 490.5 1.97755 -0.396976 0
M  V30 5223 C 490.813 1.65422 1.04379 0
M  V30 5224 O 492.019 2.21771 1.5662 0
M  V30 5225 C 490.475 3.53818 -0.658869 0
M  V30 5226 C 490.083 3.95051 -2.11278 0
M  V30 5227 C 491.827 4.23397 -0.305834 0
M  V30 5228 C 489.734 5.43997 -2.31994 0
M  V30 5229 H 488.664 0.739985 -0.1447 0
M  V30 5230 H 491.315 1.53781 -1.00118 0
M  V30 5231 H 489.697 3.95997 0.0154112 0
M  V30 5232 H 490.871 3.63998 -2.82564 0
M  V30 5233 H 489.186 3.38388 -2.42657 0
M  V30 5234 H 491.783 5.32899 -0.43854 0
M  V30 5235 H 492.126 4.09508 0.748952 0
M  V30 5236 H 492.659 3.8667 -0.934403 0
M  V30 5237 H 489.398 5.62865 -3.35952 0
M  V30 5238 H 488.918 5.76589 -1.65244 0
M  V30 5239 H 490.597 6.10584 -2.14001 0
M  V30 5240 N 490.729 0.570148 1.46925 0
M  V30 5241 C 491.692 -0.159933 2.28641 0
M  V30 5242 C 492.692 -0.830638 1.37685 0
M  V30 5243 O 493.882 -0.684516 1.60187 0
M  V30 5244 C 491.014 -1.2354 3.17727 0
M  V30 5245 H 492.207 0.558035 2.94662 0
M  V30 5246 H 489.76 0.327603 1.52828 0
M  V30 5247 H 490.495 -1.98535 2.56426 0
M  V30 5248 H 490.28 -0.759125 3.84681 0
M  V30 5249 H 491.77 -1.74782 3.79264 0
M  V30 5250 N 492.207 -1.54576 0.307264 0
M  V30 5251 C 493.454 -2.00263 -0.300167 0
M  V30 5252 C 493.782 -1.19561 -1.53413 0
M  V30 5253 O 493.037 -0.261487 -1.93945 0
M  V30 5254 C 493.336 -3.50572 -0.695253 0
M  V30 5255 C 493.002 -4.48771 0.437679 0
M  V30 5256 C 491.664 -4.7534 0.748681 0
M  V30 5257 C 494.016 -5.0721 1.19949 0
M  V30 5258 C 491.344 -5.5761 1.8245 0
M  V30 5259 C 493.696 -5.90651 2.26527 0
M  V30 5260 C 492.36 -6.15528 2.58227 0
M  V30 5261 H 491.63 -0.732814 -0.109839 0
M  V30 5262 H 494.277 -1.86664 0.427661 0
M  V30 5263 H 492.582 -3.61814 -1.50326 0
M  V30 5264 H 494.279 -3.83352 -1.17653 0
M  V30 5265 H 490.869 -4.282 0.185187 0
M  V30 5266 H 495.053 -4.86679 0.972474 0
M  V30 5267 H 490.309 -5.75121 2.07476 0
M  V30 5268 H 494.483 -6.34957 2.86011 0
M  V30 5269 H 492.11 -6.79066 3.4172 0
M  V30 5270 N 493.685 -0.035106 -1.57561 0
M  V30 5271 C 494.962 0.681212 -1.83354 0
M  V30 5272 C 495.342 1.89986 -0.920252 0
M  V30 5273 O 494.69 2.28489 0.0226815 0
M  V30 5274 C 494.9 1.05376 -3.32712 0
M  V30 5275 C 496.248 1.44286 -3.99333 0
M  V30 5276 O 497.272 1.14656 -3.37242 0
M  V30 5277 O 496.131 1.99518 -5.08778 0
M  V30 5278 H 493.225 0.334741 -0.756226 0
M  V30 5279 H 495.771 -0.0632448 -1.69582 0
M  V30 5280 H 494.543 0.186668 -3.90854 0
M  V30 5281 H 494.166 1.85619 -3.51613 0
M  V30 5282 N 495.163 1.55791 0.238111 0
M  V30 5283 C 496.574 1.68383 0.806472 0
M  V30 5284 C 496.925 0.634157 1.85669 0
M  V30 5285 O 496.05 -0.217913 2.153 0
M  V30 5286 C 496.645 3.05268 1.46959 0
M  V30 5287 C 495.204 3.1977 1.98555 0
M  V30 5288 C 494.351 2.64279 0.839763 0
M  V30 5289 H 497.302 1.58694 0.0137535 0
M  V30 5290 H 497.323 3.00203 2.33792 0
M  V30 5291 H 496.835 3.81643 0.704993 0
M  V30 5292 H 494.936 2.48234 2.77868 0
M  V30 5293 H 495.049 4.26788 2.17689 0
M  V30 5294 H 493.413 2.22329 1.24265 0
M  V30 5295 H 494.196 3.43187 0.0881032 0
M  V30 5296 N 496.642 -0.504142 1.49319 0
M  V30 5297 C 497.867 -1.28729 1.62615 0
M  V30 5298 C 498.292 -1.85752 0.296309 0
M  V30 5299 O 497.65 -1.65704 -0.735649 0
M  V30 5300 C 497.698 -2.39561 2.69524 0
M  V30 5301 O 496.802 -3.43324 2.28478 0
M  V30 5302 H 496.143 -0.380172 0.544395 0
M  V30 5303 H 498.673 -0.603872 1.95485 0
M  V30 5304 H 498.683 -2.8537 2.91595 0
M  V30 5305 H 497.358 -1.97423 3.66056 0
M  V30 5306 H 495.935 -3.03455 2.16725 0
M  V30 5307 N 498.12 -1.38341 -0.754957 0
M  V30 5308 C 499.068 -1.35573 -1.89005 0
M  V30 5309 C 500.062 -0.241824 -1.67665 0
M  V30 5310 O 501.268 -0.410785 -1.7525 0
M  V30 5311 H 497.643 -0.422898 -0.621821 0
M  V30 5312 H 499.614 -2.31359 -1.88455 0
M  V30 5313 C 498.363 -1.19631 -3.26471 0
M  V30 5314 H 497.686 -2.04605 -3.43477 0
M  V30 5315 H 499.126 -1.21748 -4.06144 0
M  V30 5316 C 497.585 0.0968705 -3.36761 0
M  V30 5317 O 498.115 1.07439 -3.87066 0
M  V30 5318 N 496.321 0.153242 -2.90196 0
M  V30 5319 H 495.868 -0.642908 -2.49448 0
M  V30 5320 H 495.826 1.01807 -2.9746 0
M  V30 5321 N 499.598 0.982988 -1.23187 0
M  V30 5322 C 500.531 2.07302 -0.953993 0
M  V30 5323 C 501.509 1.62249 0.106753 0
M  V30 5324 O 502.693 1.88481 -0.0269525 0
M  V30 5325 C 499.82 3.35873 -0.436716 0
M  V30 5326 C 498.866 3.99862 -1.48367 0
M  V30 5327 S 499.699 4.39443 -3.06023 0
M  V30 5328 C 500.855 5.7117 -2.55959 0
M  V30 5329 H 501.088 2.30554 -1.87702 0
M  V30 5330 H 498.621 1.11883 -1.06403 0
M  V30 5331 H 500.579 4.10244 -0.144872 0
M  V30 5332 H 499.24 3.10634 0.465351 0
M  V30 5333 H 498.433 4.92471 -1.07182 0
M  V30 5334 H 498.035 3.31857 -1.72473 0
M  V30 5335 H 500.327 6.47977 -1.97818 0
M  V30 5336 H 501.27 6.17194 -3.47098 0
M  V30 5337 H 501.678 5.29046 -1.96902 0
M  V30 5338 N 501.076 1.04316 1.18135 0
M  V30 5339 C 502.487 0.775505 1.69832 0
M  V30 5340 C 502.838 -0.703348 1.8316 0
M  V30 5341 O 501.963 -1.54729 1.51287 0
M  V30 5342 C 502.558 1.40112 3.0847 0
M  V30 5343 C 501.117 1.18172 3.57368 0
M  V30 5344 C 500.264 1.49022 2.33854 0
M  V30 5345 H 503.215 1.20925 1.02775 0
M  V30 5346 H 503.236 0.805672 3.71873 0
M  V30 5347 H 502.748 2.47744 2.98738 0
M  V30 5348 H 500.849 0.124258 3.72393 0
M  V30 5349 H 500.962 1.8805 4.40652 0
M  V30 5350 H 499.326 0.909995 2.37889 0
M  V30 5351 H 500.109 2.57768 2.26738 0
M  V30 5352 N 502.554 -1.34406 0.822964 0
M  V30 5353 C 503.965 -1.8069 0.469879 0
M  V30 5354 C 504.316 -1.68223 -1.00972 0
M  V30 5355 O 503.441 -1.22226 -1.78577 0
M  V30 5356 C 504.036 -3.28064 0.846118 0
M  V30 5357 C 502.595 -3.72428 0.545402 0
M  V30 5358 C 501.742 -2.56116 1.06301 0
M  V30 5359 H 504.693 -1.22153 1.01313 0
M  V30 5360 H 504.714 -3.80205 0.149922 0
M  V30 5361 H 504.226 -3.37107 1.92304 0
M  V30 5362 H 502.327 -3.68924 -0.522109 0
M  V30 5363 H 502.44 -4.66548 1.0895 0
M  V30 5364 H 500.804 -2.50048 0.484554 0
M  V30 5365 H 501.587 -2.67928 2.14638 0
M  V30 5366 N 504.032 -0.577932 -1.46621 0
M  V30 5367 C 505.28 -0.061566 -2.02006 0
M  V30 5368 C 505.601 1.30117 -1.4524 0
M  V30 5369 O 504.871 1.85313 -0.63529 0
M  V30 5370 H 503.451 -0.0197692 -0.746738 0
M  V30 5371 H 506.113 -0.752631 -1.79782 0
M  V30 5372 H 505.209 0.0110238 -3.12098 0
M  V30 5373 N 505.51 1.54411 -0.315457 0
M  V30 5374 C 506.759 1.99599 0.290395 0
M  V30 5375 C 507.072 1.20746 1.53882 0
M  V30 5376 O 508.278 1.56272 2.22017 0
M  V30 5377 C 506.734 3.5539 0.56797 0
M  V30 5378 C 506.342 4.43068 -0.662945 0
M  V30 5379 C 508.086 4.09067 1.13422 0
M  V30 5380 C 505.993 5.90317 -0.357722 0
M  V30 5381 H 504.923 0.745592 0.112286 0
M  V30 5382 H 507.574 1.78477 -0.426418 0
M  V30 5383 H 505.956 3.72468 1.34476 0
M  V30 5384 H 507.13 4.37765 -1.43869 0
M  V30 5385 H 505.445 4.00238 -1.14884 0
M  V30 5386 H 508.042 5.16663 1.37707 0
M  V30 5387 H 508.385 3.60552 2.08106 0
M  V30 5388 H 508.918 3.95589 0.418805 0
M  V30 5389 H 505.657 6.4301 -1.27351 0
M  V30 5390 H 505.177 5.98592 0.380472 0
M  V30 5391 H 506.856 6.4699 0.0354284 0
M  V30 5392 N 506.988 0.0434614 1.5754 0
M  V30 5393 C 507.898 -0.94893 2.14552 0
M  V30 5394 C 508.914 -1.34707 1.10136 0
M  V30 5395 O 510.09 -1.42557 1.42266 0
M  V30 5396 C 507.155 -2.208 2.67298 0
M  V30 5397 C 506.216 -1.86893 3.86484 0
M  V30 5398 C 505.449 -3.06797 4.36705 0
M  V30 5399 O 505.672 -4.19921 3.86034 0
M  V30 5400 O 504.606 -2.8826 5.28384 0
M  V30 5401 H 508.432 -0.494099 2.99654 0
M  V30 5402 H 506.017 -0.177989 1.48336 0
M  V30 5403 H 507.899 -2.94686 3.01228 0
M  V30 5404 H 506.574 -2.65436 1.85272 0
M  V30 5405 H 505.481 -1.10347 3.57455 0
M  V30 5406 H 506.814 -1.47062 4.69716 0
M  V30 5407 N 508.466 -1.55915 -0.229846 0
M  V30 5408 C 509.429 -1.90914 -1.26824 0
M  V30 5409 C 510.429 -0.786999 -1.40225 0
M  V30 5410 O 511.619 -1.05484 -1.38632 0
M  V30 5411 C 508.751 -2.15264 -2.64337 0
M  V30 5412 H 509.944 -2.8378 -0.969998 0
M  V30 5413 H 507.497 -1.49069 -0.4699 0
M  V30 5414 H 508.232 -1.24923 -2.99274 0
M  V30 5415 H 508.017 -2.97005 -2.55989 0
M  V30 5416 H 509.507 -2.43467 -3.39284 0
M  V30 5417 N 509.944 0.496216 -1.49584 0
M  V30 5418 C 511.169 1.27865 -1.63295 0
M  V30 5419 C 511.594 1.85592 -0.306156 0
M  V30 5420 O 510.952 1.66092 0.726851 0
M  V30 5421 C 511 2.38128 -2.7079 0
M  V30 5422 O 510.104 3.42108 -2.30296 0
M  V30 5423 H 509.445 0.377279 -0.546403 0
M  V30 5424 H 511.975 0.593497 -1.95803 0
M  V30 5425 H 511.985 2.8382 -2.93104 0
M  V30 5426 H 510.66 1.95479 -3.67098 0
M  V30 5427 H 509.237 3.02301 -2.18331 0
M  V30 5428 N 511.423 1.38739 0.74761 0
M  V30 5429 C 512.834 1.31507 1.32524 0
M  V30 5430 C 513.185 -0.0263963 1.96182 0
M  V30 5431 O 512.31 -0.92849 1.95469 0
M  V30 5432 C 512.905 2.38162 2.40966 0
M  V30 5433 C 511.464 2.34489 2.94434 0
M  V30 5434 C 510.611 2.20712 1.67873 0
M  V30 5435 H 513.562 1.4901 0.546043 0
M  V30 5436 H 513.583 2.04222 3.21051 0
M  V30 5437 H 513.095 3.35783 1.94605 0
M  V30 5438 H 511.196 1.40467 3.45108 0
M  V30 5439 H 511.309 3.28861 3.48407 0
M  V30 5440 H 509.673 1.67667 1.91729 0
M  V30 5441 H 510.456 3.20285 1.23582 0
M  V30 5442 N 512.901 -0.976442 1.23707 0
M  V30 5443 C 514.178 -1.69296 0.979699 0
M  V30 5444 C 514.558 -2.0508 -0.500555 0
M  V30 5445 O 513.906 -1.74708 -1.47273 0
M  V30 5446 C 514.116 -2.93143 1.89389 0
M  V30 5447 C 515.464 -3.65572 2.15968 0
M  V30 5448 O 516.488 -3.03184 1.86971 0
M  V30 5449 O 515.347 -4.77859 2.65167 0
M  V30 5450 H 512.441 -0.739708 0.369812 0
M  V30 5451 H 514.987 -1.03131 1.34767 0
M  V30 5452 H 513.759 -2.63327 2.89439 0
M  V30 5453 H 513.382 -3.67044 1.52854 0
M  V30 5454 N 514.379 -1.04941 -1.1758 0
M  V30 5455 C 515.326 -0.648155 -2.21512 0
M  V30 5456 C 516.296 0.348431 -1.62404 0
M  V30 5457 O 517.481 0.240419 -1.89279 0
M  V30 5458 C 514.621 -0.0264291 -3.4509 0
M  V30 5459 C 513.734 -1.07154 -4.185 0
M  V30 5460 C 512.869 -0.417403 -5.29558 0
M  V30 5461 C 511.908 -1.447 -5.94751 0
M  V30 5462 N 511.045 -0.817203 -6.97328 0
M  V30 5463 H 515.885 -1.53891 -2.55189 0
M  V30 5464 H 513.422 -0.769699 -1.25356 0
M  V30 5465 H 515.38 0.351456 -4.15717 0
M  V30 5466 H 514.01 0.827802 -3.12005 0
M  V30 5467 H 513.062 -1.56728 -3.46613 0
M  V30 5468 H 514.374 -1.8532 -4.63096 0
M  V30 5469 H 513.528 0.0142061 -6.06698 0
M  V30 5470 H 512.267 0.396265 -4.86087 0
M  V30 5471 H 511.272 -1.88865 -5.16343 0
M  V30 5472 H 512.497 -2.26252 -6.40302 0
M  V30 5473 H 510.443 -0.0239995 -6.55996 0
M  V30 5474 H 510.36 -1.53644 -7.40223 0
M  V30 5475 H 511.628 -0.410283 -7.7842 0
M  V30 5476 N 515.857 1.33968 -0.830081 0
M  V30 5477 C 516.79 2.27303 -0.202182 0
M  V30 5478 C 517.768 1.49235 0.645581 0
M  V30 5479 O 518.952 1.78433 0.607762 0
M  V30 5480 C 516.079 3.31025 0.716932 0
M  V30 5481 C 515.125 4.26466 -0.0542271 0
M  V30 5482 S 515.958 5.16707 -1.40622 0
M  V30 5483 C 517.114 6.23962 -0.492167 0
M  V30 5484 H 517.347 2.8021 -0.99346 0
M  V30 5485 H 514.88 1.41124 -0.626359 0
M  V30 5486 H 516.838 3.91271 1.24165 0
M  V30 5487 H 515.499 2.76951 1.4818 0
M  V30 5488 H 514.692 4.99858 0.644785 0
M  V30 5489 H 514.294 3.7051 -0.509722 0
M  V30 5490 H 516.586 6.76774 0.31347 0
M  V30 5491 H 517.529 6.97927 -1.19599 0
M  V30 5492 H 517.937 5.64447 -0.0774176 0
M  V30 5493 N 517.335 0.585699 1.46312 0
M  V30 5494 C 518.265 -0.133556 2.33118 0
M  V30 5495 C 519.246 -0.880707 1.45525 0
M  V30 5496 O 520.431 -0.855579 1.74337 0
M  V30 5497 C 517.561 -1.14585 3.27853 0
M  V30 5498 C 516.515 -0.513341 4.2491 0
M  V30 5499 C 515.841 -1.63231 5.09175 0
M  V30 5500 C 517.141 0.551413 5.19381 0
M  V30 5501 H 518.835 0.59121 2.93505 0
M  V30 5502 H 516.381 0.285761 1.41136 0
M  V30 5503 H 518.334 -1.65741 3.87438 0
M  V30 5504 H 517.058 -1.90093 2.65579 0
M  V30 5505 H 515.717 -0.0228349 3.66593 0
M  V30 5506 H 515.365 -2.37713 4.43285 0
M  V30 5507 H 515.065 -1.21473 5.74907 0
M  V30 5508 H 516.589 -2.14658 5.71624 0
M  V30 5509 H 518.003 0.124804 5.73164 0
M  V30 5510 H 516.4 0.889486 5.93471 0
M  V30 5511 H 517.47 1.43655 4.63132 0
M  V30 5512 N 518.813 -1.54241 0.323641 0
M  V30 5513 C 519.745 -2.21836 -0.576311 0
M  V30 5514 C 520.758 -1.21837 -1.07979 0
M  V30 5515 O 521.947 -1.48306 -0.99336 0
M  V30 5516 C 519.047 -2.86923 -1.80356 0
M  V30 5517 C 518.22 -4.1306 -1.43875 0
M  V30 5518 C 517.279 -4.6174 -2.52353 0
M  V30 5519 O 516.305 -5.26421 -2.16494 0
M  V30 5520 N 517.507 -4.35974 -3.83284 0
M  V30 5521 H 520.272 -2.997 0.00247987 0
M  V30 5522 H 517.833 -1.61233 0.146848 0
M  V30 5523 H 519.825 -3.16414 -2.52318 0
M  V30 5524 H 518.395 -2.12765 -2.29019 0
M  V30 5525 H 517.615 -3.90334 -0.550752 0
M  V30 5526 H 518.903 -4.95148 -1.17071 0
M  V30 5527 H 518.301 -3.84203 -4.15216 0
M  V30 5528 H 516.858 -4.70119 -4.51477 0
M  V30 5529 N 520.291 -0.0518155 -1.57515 0
M  V30 5530 C 521.539 0.620595 -1.92336 0
M  V30 5531 C 521.86 1.71345 -0.930907 0
M  V30 5532 O 521.13 1.95885 0.0241341 0
M  V30 5533 H 519.71 0.232226 -0.709986 0
M  V30 5534 H 522.372 -0.104969 -1.94617 0
M  V30 5535 H 521.468 1.05879 -2.93592 0
M  V30 5536 N 521.769 1.56035 0.221574 0
M  V30 5537 C 523.185 1.49026 0.571271 0
M  V30 5538 C 523.385 0.746912 1.87146 0
M  V30 5539 O 522.441 0.286566 2.50869 0
M  V30 5540 C 523.754 2.93579 0.650522 0
M  V30 5541 C 525.302 3.04099 0.741151 0
M  V30 5542 C 525.777 4.5001 0.851747 0
M  V30 5543 N 527.268 4.54053 0.915968 0
M  V30 5544 C 528.003 5.64232 1.02125 0
M  V30 5545 N 527.499 6.84164 1.09049 0
M  V30 5546 N 529.292 5.52084 1.05639 0
M  V30 5547 H 521.443 2.02791 -0.63162 0
M  V30 5548 H 523.706 0.921736 -0.221602 0
M  V30 5549 H 523.412 3.50912 -0.235253 0
M  V30 5550 H 523.286 3.45476 1.51413 0
M  V30 5551 H 525.673 2.4683 1.61737 0
M  V30 5552 H 525.754 2.55371 -0.148128 0
M  V30 5553 H 525.398 5.07896 -0.0200117 0
M  V30 5554 H 525.328 4.96444 1.75644 0
M  V30 5555 H 527.819 3.67683 0.872782 0
M  V30 5556 H 528.132 7.63883 1.1706 0
M  V30 5557 H 526.477 6.86875 1.05962 0
M  V30 5558 H 529.668 4.57317 0.998953 0
M  V30 5559 H 529.841 6.37983 1.13498 0
M  V30 5560 N 523.247 -0.488276 1.49845 0
M  V30 5561 C 524.177 -1.59675 1.70371 0
M  V30 5562 C 525.158 -1.60878 0.552473 0
M  V30 5563 O 526.343 -1.77417 0.78973 0
M  V30 5564 C 523.473 -2.98098 1.782 0
M  V30 5565 C 522.427 -3.11761 2.93239 0
M  V30 5566 C 521.753 -4.51661 2.86193 0
M  V30 5567 C 523.053 -2.90589 4.33999 0
M  V30 5568 H 524.747 -1.42752 2.63177 0
M  V30 5569 H 522.293 -0.685317 1.26647 0
M  V30 5570 H 524.246 -3.75555 1.91144 0
M  V30 5571 H 522.97 -3.16138 0.820018 0
M  V30 5572 H 521.629 -2.36732 2.79917 0
M  V30 5573 H 521.277 -4.66595 1.87877 0
M  V30 5574 H 520.977 -4.61742 3.63412 0
M  V30 5575 H 522.501 -5.31162 3.01163 0
M  V30 5576 H 523.915 -3.57807 4.47936 0
M  V30 5577 H 522.312 -3.1213 5.12538 0
M  V30 5578 H 523.382 -1.86595 4.4756 0
M  V30 5579 N 524.725 -1.39134 -0.740242 0
M  V30 5580 C 525.972 -1.36071 -1.49969 0
M  V30 5581 C 526.3 0.0450245 -1.94448 0
M  V30 5582 O 525.555 1.02482 -1.66721 0
M  V30 5583 C 525.854 -2.27457 -2.75678 0
M  V30 5584 C 525.52 -3.75185 -2.50094 0
M  V30 5585 C 524.182 -4.15439 -2.42825 0
M  V30 5586 C 526.534 -4.68643 -2.28086 0
M  V30 5587 C 523.862 -5.4722 -2.11584 0
M  V30 5588 C 526.214 -6.00695 -1.98363 0
M  V30 5589 C 524.878 -6.40018 -1.8956 0
M  V30 5590 H 524.148 -0.497921 -0.548777 0
M  V30 5591 H 526.795 -1.71599 -0.85007 0
M  V30 5592 H 525.1 -1.8503 -3.45356 0
M  V30 5593 H 526.797 -2.22384 -3.33686 0
M  V30 5594 H 523.387 -3.43279 -2.56627 0
M  V30 5595 H 527.571 -4.3838 -2.32672 0
M  V30 5596 H 522.827 -5.76615 -2.03287 0
M  V30 5597 H 527.001 -6.72644 -1.80341 0
M  V30 5598 H 524.628 -7.42051 -1.65117 0
M  V30 5599 N 526.204 0.969867 -1.24223 0
M  V30 5600 C 527.167 2.04564 -1.03373 0
M  V30 5601 C 528.167 1.60798 0.00819206 0
M  V30 5602 O 529.357 1.72641 -0.232567 0
M  V30 5603 C 526.489 3.36163 -0.566343 0
M  V30 5604 H 527.682 2.24494 -1.98853 0
M  V30 5605 H 525.235 1.1448 -1.06415 0
M  V30 5606 H 525.97 3.21925 0.391751 0
M  V30 5607 H 525.755 3.69273 -1.31834 0
M  V30 5608 H 527.245 4.1526 -0.441435 0
M  V30 5609 N 527.682 1.05563 1.17022 0
M  V30 5610 C 528.912 0.787307 1.91011 0
M  V30 5611 C 529.32 -0.661256 1.77268 0
M  V30 5612 O 528.663 -1.46379 1.10991 0
M  V30 5613 C 528.725 1.09313 3.42478 0
M  V30 5614 C 528.389 2.53863 3.80004 0
M  V30 5615 C 529.386 3.52081 3.82538 0
M  V30 5616 C 527.071 2.88969 4.10855 0
M  V30 5617 C 529.065 4.83449 4.15399 0
M  V30 5618 C 526.752 4.2054 4.43384 0
M  V30 5619 C 527.75 5.17589 4.45635 0
M  V30 5620 O 527.438 6.46799 4.77395 0
M  V30 5621 H 527.17 0.285463 0.61277 0
M  V30 5622 H 529.724 1.41051 1.49311 0
M  V30 5623 H 527.954 0.412833 3.8449 0
M  V30 5624 H 529.643 0.810224 3.97731 0
M  V30 5625 H 530.409 3.26299 3.58823 0
M  V30 5626 H 526.288 2.1409 4.08272 0
M  V30 5627 H 529.832 5.59194 4.1707 0
M  V30 5628 H 525.729 4.46083 4.66563 0
M  V30 5629 H 526.497 6.51677 4.95237 0
M  V30 5630 N 529.16 -1.33526 0.837174 0
M  V30 5631 C 530.571 -1.80182 0.489017 0
M  V30 5632 C 530.922 -1.69285 -0.991826 0
M  V30 5633 O 530.047 -1.24113 -1.77271 0
M  V30 5634 C 530.642 -3.27149 0.880866 0
M  V30 5635 C 529.201 -3.71828 0.584872 0
M  V30 5636 C 528.348 -2.54974 1.09011 0
M  V30 5637 H 531.299 -1.21071 1.02603 0
M  V30 5638 H 531.32 -3.80024 0.190239 0
M  V30 5639 H 530.832 -3.35048 1.95869 0
M  V30 5640 H 528.933 -3.69457 -0.48295 0
M  V30 5641 H 529.046 -4.65366 1.13892 0
M  V30 5642 H 527.41 -2.4952 0.511047 0
M  V30 5643 H 528.193 -2.65637 2.17467 0
M  V30 5644 N 530.638 -0.59345 -1.46 0
M  V30 5645 C 531.915 -0.0157933 -1.95594 0
M  V30 5646 C 532.295 1.44807 -1.53604 0
M  V30 5647 O 531.643 2.14342 -0.791824 0
M  V30 5648 C 531.853 -0.199081 -3.48432 0
M  V30 5649 C 533.201 -0.0724943 -4.24538 0
M  V30 5650 O 534.225 -0.128469 -3.55968 0
M  V30 5651 O 533.084 0.0542426 -5.46473 0
M  V30 5652 H 530.178 0.043749 -0.825842 0
M  V30 5653 H 532.724 -0.662522 -1.56233 0
M  V30 5654 H 531.496 -1.21631 -3.71916 0
M  V30 5655 H 531.119 0.483576 -3.94648 0
M  V30 5656 N 532.116 1.54067 -0.331816 0
M  V30 5657 C 533.344 2.05131 0.269996 0
M  V30 5658 C 533.759 1.20749 1.45138 0
M  V30 5659 O 533.116 0.240069 1.80914 0
M  V30 5660 C 533.167 3.54728 0.696456 0
M  V30 5661 O 532.888 4.35906 -0.43794 0
M  V30 5662 C 534.389 4.21916 1.36021 0
M  V30 5663 H 531.609 0.668807 0.0542042 0
M  V30 5664 H 534.153 1.98777 -0.4804 0
M  V30 5665 H 532.308 3.61342 1.39681 0
M  V30 5666 H 532.722 5.24404 -0.100334 0
M  V30 5667 H 534.196 5.28015 1.60947 0
M  V30 5668 H 534.673 3.73538 2.31011 0
M  V30 5669 H 535.279 4.19463 0.702212 0
M  V30 5670 N 533.594 0.0601682 1.57485 0
M  V30 5671 C 534.544 -0.920969 2.08572 0
M  V30 5672 C 535.528 -1.26617 0.992827 0
M  V30 5673 O 536.72 -1.24708 1.25606 0
M  V30 5674 C 533.849 -2.19267 2.64153 0
M  V30 5675 C 532.935 -1.87447 3.80427 0
M  V30 5676 N 533.326 -1.26025 4.89848 0
M  V30 5677 C 531.624 -2.17265 3.89502 0
M  V30 5678 C 532.325 -1.12036 5.70809 0
M  V30 5679 N 531.301 -1.62624 5.18705 0
M  V30 5680 H 535.103 -0.441561 2.90564 0
M  V30 5681 H 532.617 -0.144043 1.6176 0
M  V30 5682 H 534.614 -2.90462 2.99061 0
M  V30 5683 H 533.274 -2.67806 1.83603 0
M  V30 5684 H 534.285 -0.931336 5.09457 0
M  V30 5685 H 530.962 -2.68262 3.19909 0
M  V30 5686 H 532.352 -0.642783 6.68818 0
M  V30 5687 N 535.072 -1.5615 -0.213296 0
M  V30 5688 C 536.488 -1.49327 -0.56336 0
M  V30 5689 C 536.688 -0.756826 -1.86747 0
M  V30 5690 O 535.744 -0.299866 -2.50713 0
M  V30 5691 C 537.057 -2.9392 -0.634944 0
M  V30 5692 C 538.605 -3.04487 -0.725013 0
M  V30 5693 C 539.08 -4.50456 -0.82787 0
M  V30 5694 N 540.571 -4.54533 -0.891876 0
M  V30 5695 C 541.306 -5.64766 -0.991315 0
M  V30 5696 N 540.802 -6.84733 -1.05419 0
M  V30 5697 N 542.595 -5.52637 -1.02709 0
M  V30 5698 H 534.746 -2.02453 0.642366 0
M  V30 5699 H 537.009 -0.920548 0.226487 0
M  V30 5700 H 536.715 -3.50783 0.253859 0
M  V30 5701 H 536.589 -3.46274 -1.49579 0
M  V30 5702 H 538.976 -2.47685 -1.60425 0
M  V30 5703 H 539.057 -2.55289 0.161669 0
M  V30 5704 H 538.701 -5.07878 0.0469464 0
M  V30 5705 H 538.631 -4.97369 -1.73009 0
M  V30 5706 H 541.122 -3.68141 -0.85327 0
M  V30 5707 H 541.435 -7.64493 -1.13007 0
M  V30 5708 H 539.78 -6.87427 -1.02318 0
M  V30 5709 H 542.971 -4.5784 -0.974687 0
M  V30 5710 H 543.144 -6.38576 -1.10113 0
M  V30 5711 N 536.55 0.480323 -1.50102 0
M  V30 5712 C 537.5 1.57685 -1.6468 0
M  V30 5713 C 538.484 1.52878 -0.5017 0
M  V30 5714 O 539.676 1.60058 -0.755668 0
M  V30 5715 C 536.805 2.96185 -1.73578 0
M  V30 5716 C 535.891 3.0591 -2.93734 0
M  V30 5717 N 536.282 2.85471 -4.1754 0
M  V30 5718 C 534.58 3.37036 -2.92101 0
M  V30 5719 C 535.281 2.99921 -4.9842 0
M  V30 5720 N 534.257 3.29715 -4.32191 0
M  V30 5721 H 538.059 1.40568 -2.58104 0
M  V30 5722 H 535.573 0.686874 -1.47159 0
M  V30 5723 H 537.57 3.75015 -1.82124 0
M  V30 5724 H 536.23 3.14356 -0.813057 0
M  V30 5725 H 537.241 2.61235 -4.47188 0
M  V30 5726 H 533.918 3.61253 -2.09291 0
M  V30 5727 H 535.308 2.88436 -6.06839 0
M  V30 5728 N 538.028 1.39524 0.732853 0
M  V30 5729 C 539.444 1.21176 1.03868 0
M  V30 5730 C 539.644 0.0748448 2.01361 0
M  V30 5731 O 538.7 -0.57281 2.45917 0
M  V30 5732 C 540.013 2.54667 1.59892 0
M  V30 5733 C 541.561 2.6153 1.71962 0
M  V30 5734 C 542.036 3.95248 2.31394 0
M  V30 5735 N 543.527 3.96899 2.38801 0
M  V30 5736 C 544.262 4.97138 2.85729 0
M  V30 5737 N 543.758 6.07775 3.32537 0
M  V30 5738 N 545.551 4.84516 2.84957 0
M  V30 5739 H 537.702 2.12225 0.086304 0
M  V30 5740 H 539.965 0.942614 0.100907 0
M  V30 5741 H 539.671 3.38423 0.95721 0
M  V30 5742 H 539.545 2.74538 2.58668 0
M  V30 5743 H 541.932 1.78156 2.35254 0
M  V30 5744 H 542.013 2.45507 0.718327 0
M  V30 5745 H 541.657 4.79054 1.68729 0
M  V30 5746 H 541.587 4.08593 3.32204 0
M  V30 5747 H 544.078 3.16998 2.05719 0
M  V30 5748 H 544.391 6.8017 3.66862 0
M  V30 5749 H 542.736 6.11366 3.30541 0
M  V30 5750 H 545.927 3.97185 2.47713 0
M  V30 5751 H 546.1 5.62783 3.21215 0
M  V30 5752 N 539.506 -0.963266 1.24736 0
M  V30 5753 C 540.436 -2.07628 1.06832 0
M  V30 5754 C 541.417 -1.70088 -0.0200566 0
M  V30 5755 O 542.602 -1.93636 0.147854 0
M  V30 5756 C 539.732 -3.40636 0.677069 0
M  V30 5757 C 538.686 -3.9215 1.71471 0
M  V30 5758 C 538.012 -5.21553 1.1784 0
M  V30 5759 C 539.312 -4.19493 3.11164 0
M  V30 5760 H 541.006 -2.22864 1.9993 0
M  V30 5761 H 538.552 -1.07093 0.96266 0
M  V30 5762 H 540.505 -4.17941 0.538792 0
M  V30 5763 H 539.229 -3.25313 -0.289612 0
M  V30 5764 H 537.888 -3.17005 1.84128 0
M  V30 5765 H 537.536 -5.02593 0.202195 0
M  V30 5766 H 537.236 -5.56988 1.87185 0
M  V30 5767 H 538.76 -6.01463 1.05233 0
M  V30 5768 H 540.174 -4.87487 3.01711 0
M  V30 5769 H 538.571 -4.66165 3.77902 0
M  V30 5770 H 539.641 -3.26097 3.58871 0
M  V30 5771 N 540.985 -1.06182 -1.16461 0
M  V30 5772 C 542.233 -0.776326 -1.86595 0
M  V30 5773 C 542.554 0.69921 -1.82033 0
M  V30 5774 O 541.824 1.50579 -1.2531 0
M  V30 5775 H 540.404 -0.284184 -0.690832 0
M  V30 5776 H 543.066 -1.34308 -1.41235 0
M  V30 5777 H 542.162 -1.10022 -2.92064 0
M  V30 5778 N 542.463 1.3308 -0.844243 0
M  V30 5779 C 543.874 1.7992 -0.498566 0
M  V30 5780 C 544.225 1.69808 0.982834 0
M  V30 5781 O 543.35 1.25051 1.7661 0
M  V30 5782 C 543.945 3.26677 -0.898204 0
M  V30 5783 C 542.504 3.71513 -0.604583 0
M  V30 5784 C 541.651 2.54393 -1.10362 0
M  V30 5785 H 544.602 1.20526 -1.03244 0
M  V30 5786 H 544.623 3.79918 -0.21039 0
M  V30 5787 H 544.135 3.34004 -1.97643 0
M  V30 5788 H 542.236 3.69708 0.46335 0
M  V30 5789 H 542.349 4.64755 -1.16358 0
M  V30 5790 H 540.713 2.49246 -0.524273 0
M  V30 5791 H 541.496 2.6448 -2.18873 0
M  V30 5792 N 543.941 0.601185 1.45683 0
M  V30 5793 C 544.889 -0.133955 2.32214 0
M  V30 5794 C 545.883 -0.866034 1.45589 0
M  V30 5795 O 547.089 -0.782326 1.6211 0
M  V30 5796 H 543.464 -0.0620613 0.749435 0
M  V30 5797 H 545.435 0.614389 2.92007 0
M  V30 5798 C 544.184 -1.12216 3.29094 0
M  V30 5799 H 543.507 -0.568273 3.95741 0
M  V30 5800 H 544.947 -1.60659 3.92383 0
M  V30 5801 C 543.406 -2.19251 2.55794 0
M  V30 5802 O 543.936 -3.26894 2.33459 0
M  V30 5803 N 542.142 -1.9436 2.16039 0
M  V30 5804 H 541.689 -1.06829 2.34404 0
M  V30 5805 H 541.647 -2.66181 1.67318 0
M  V30 5806 N 545.419 -1.53889 0.339982 0
M  V30 5807 C 546.649 -2.04973 -0.258738 0
M  V30 5808 C 547.057 -1.21485 -1.45045 0
M  V30 5809 O 546.4 -0.2422 -1.82096 0
M  V30 5810 C 546.462 -3.51783 -0.740853 0
M  V30 5811 C 546.126 -4.55802 0.330734 0
M  V30 5812 C 547.123 -5.06512 1.17226 0
M  V30 5813 C 544.808 -4.99966 0.483637 0
M  V30 5814 C 546.802 -5.99963 2.15227 0
M  V30 5815 C 544.489 -5.93229 1.46704 0
M  V30 5816 C 545.487 -6.43115 2.29981 0
M  V30 5817 O 545.175 -7.34545 3.26649 0
M  V30 5818 H 544.907 -0.673807 -0.0544037 0
M  V30 5819 H 547.461 -1.99492 0.489107 0
M  V30 5820 H 545.691 -3.54717 -1.53988 0
M  V30 5821 H 547.38 -3.85857 -1.25973 0
M  V30 5822 H 548.146 -4.73158 1.0652 0
M  V30 5823 H 544.025 -4.6074 -0.15471 0
M  V30 5824 H 547.569 -6.38825 2.80265 0
M  V30 5825 H 543.466 -6.25998 1.57468 0
M  V30 5826 H 544.234 -7.52468 3.22078 0
M  V30 5827 N 546.897 -0.0685191 -1.57451 0
M  V30 5828 C 547.827 0.89747 -2.15564 0
M  V30 5829 C 548.808 1.31266 -1.08181 0
M  V30 5830 O 549.993 1.38429 -1.36202 0
M  V30 5831 C 547.123 2.16623 -2.71463 0
M  V30 5832 C 546.077 1.89054 -3.83982 0
M  V30 5833 C 545.403 3.22532 -4.26471 0
M  V30 5834 C 546.703 1.1984 -5.08366 0
M  V30 5835 H 548.397 0.413373 -2.96533 0
M  V30 5836 H 545.943 0.197391 -1.42641 0
M  V30 5837 H 547.896 2.84614 -3.10761 0
M  V30 5838 H 546.62 2.67269 -1.8771 0
M  V30 5839 H 545.279 1.23469 -3.45183 0
M  V30 5840 H 544.927 3.71013 -3.39644 0
M  V30 5841 H 544.627 3.04879 -5.02317 0
M  V30 5842 H 546.151 3.91727 -4.68383 0
M  V30 5843 H 547.565 1.77896 -5.45001 0
M  V30 5844 H 545.962 1.12456 -5.89469 0
M  V30 5845 H 547.032 0.176996 -4.84577 0
M  V30 5846 N 548.375 1.56261 0.205012 0
M  V30 5847 C 549.325 1.90155 1.25798 0
M  V30 5848 C 550.309 0.766227 1.41484 0
M  V30 5849 O 551.501 1.02893 1.44021 0
M  V30 5850 C 548.63 2.23603 2.60493 0
M  V30 5851 C 547.716 3.43568 2.48639 0
M  V30 5852 N 548.107 4.61747 2.06455 0
M  V30 5853 C 546.405 3.4751 2.79558 0
M  V30 5854 C 547.106 5.43907 2.06253 0
M  V30 5855 N 546.082 4.84051 2.47377 0
M  V30 5856 H 549.884 2.79031 0.922986 0
M  V30 5857 H 547.398 1.57048 0.413501 0
M  V30 5858 H 549.395 2.46067 3.36537 0
M  V30 5859 H 548.055 1.36049 2.94823 0
M  V30 5860 H 549.066 4.86598 1.77321 0
M  V30 5861 H 545.743 2.70345 3.18151 0
M  V30 5862 H 547.133 6.48542 1.75622 0
M  V30 5863 N 549.853 -0.472356 1.50355 0
M  V30 5864 C 551.102 -1.2213 1.60522 0
M  V30 5865 C 551.415 -1.9312 0.310466 0
M  V30 5866 O 552.621 -2.69936 0.291029 0
M  V30 5867 C 551.077 -2.21909 2.83345 0
M  V30 5868 C 550.685 -1.56727 4.19691 0
M  V30 5869 C 552.429 -2.97453 3.02856 0
M  V30 5870 C 550.336 -2.54785 5.33703 0
M  V30 5871 H 549.266 -0.459543 0.597776 0
M  V30 5872 H 551.917 -0.491922 1.76783 0
M  V30 5873 H 550.299 -2.98133 2.60639 0
M  V30 5874 H 551.473 -0.863007 4.52646 0
M  V30 5875 H 549.788 -0.934685 4.05774 0
M  V30 5876 H 552.385 -3.70838 3.85205 0
M  V30 5877 H 552.728 -3.56764 2.14534 0
M  V30 5878 H 553.261 -2.28342 3.25737 0
M  V30 5879 H 550 -2.00214 6.24175 0
M  V30 5880 H 549.52 -3.23367 5.05167 0
M  V30 5881 H 551.199 -3.16639 5.64224 0
M  V30 5882 N 551.331 -1.39911 -0.725443 0
M  V30 5883 C 552.742 -1.33599 -1.30415 0
M  V30 5884 C 553.093 -0.00481792 -1.96199 0
M  V30 5885 O 552.218 0.897275 -1.96921 0
M  V30 5886 C 552.813 -2.41965 -2.37146 0
M  V30 5887 C 551.372 -2.39144 -2.90667 0
M  V30 5888 C 550.519 -2.23355 -1.64341 0
M  V30 5889 H 553.47 -1.4986 -0.522267 0
M  V30 5890 H 553.491 -2.09304 -3.17761 0
M  V30 5891 H 553.003 -3.38837 -1.89238 0
M  V30 5892 H 551.104 -1.4594 -3.4283 0
M  V30 5893 H 551.217 -3.34362 -3.43131 0
M  V30 5894 H 549.581 -1.70696 -1.89037 0
M  V30 5895 H 550.364 -3.2221 -1.18471 0
M  V30 5896 N 552.809 0.956637 -1.25245 0
M  V30 5897 C 554.055 1.70352 -1.10036 0
M  V30 5898 C 554.388 1.90869 0.358156 0
M  V30 5899 O 553.663 1.47819 1.26411 0
M  V30 5900 C 553.946 3.08766 -1.85298 0
M  V30 5901 C 553.799 2.95672 -3.38966 0
M  V30 5902 C 555.118 4.08622 -1.63451 0
M  V30 5903 H 552.237 0.618279 -0.401123 0
M  V30 5904 H 554.879 1.11212 -1.54051 0
M  V30 5905 H 553.029 3.59252 -1.47887 0
M  V30 5906 H 554.701 2.52527 -3.86041 0
M  V30 5907 H 552.944 2.31634 -3.6678 0
M  V30 5908 H 553.615 3.93776 -3.86839 0
M  V30 5909 H 556.091 3.67038 -1.96015 0
M  V30 5910 H 554.967 5.03514 -2.18551 0
M  V30 5911 H 555.228 4.3834 -0.575357 0
M  V30 5912 N 554.287 1.06798 1.15896 0
M  V30 5913 C 555.235 0.677525 2.22514 0
M  V30 5914 C 556.229 -0.308994 1.66558 0
M  V30 5915 O 557.435 -0.173308 1.79164 0
M  V30 5916 H 553.81 0.200994 0.724642 0
M  V30 5917 H 555.781 1.5865 2.52731 0
M  V30 5918 C 554.53 0.0854153 3.47595 0
M  V30 5919 H 553.853 0.835645 3.90969 0
M  V30 5920 H 555.293 -0.150199 4.23734 0
M  V30 5921 C 553.752 -1.1724 3.15843 0
M  V30 5922 O 554.282 -2.25965 3.32119 0
M  V30 5923 N 552.488 -1.07636 2.69931 0
M  V30 5924 H 552.035 -0.191559 2.56887 0
M  V30 5925 H 551.993 -1.91876 2.4906 0
M  V30 5926 N 555.766 -1.3263 0.851289 0
M  V30 5927 C 557.006 -1.99174 0.459266 0
M  V30 5928 C 557.37 -1.65913 -0.966273 0
M  V30 5929 O 558.571 -2.2552 -1.46267 0
M  V30 5930 C 556.842 -3.50721 0.687698 0
M  V30 5931 S 558.401 -4.37039 0.392746 0
M  V30 5932 H 555.219 -0.689832 0.172199 0
M  V30 5933 H 557.821 -1.61395 1.10327 0
M  V30 5934 H 556.525 -3.72417 1.72435 0
M  V30 5935 H 556.056 -3.93389 0.0299949 0
M  V30 5936 H 558.071 -4.8999 -0.782578 0
M  V30 5937 N 557.244 -0.608902 -1.45362 0
M  V30 5938 C 558.655 -0.189511 -1.85736 0
M  V30 5939 C 559.006 1.2539 -1.50903 0
M  V30 5940 O 558.131 1.95094 -0.936347 0
M  V30 5941 C 558.726 -0.33716 -3.37118 0
M  V30 5942 C 557.285 0.0275487 -3.7639 0
M  V30 5943 C 556.432 -0.660983 -2.69307 0
M  V30 5944 H 559.383 -0.815499 -1.36144 0
M  V30 5945 H 559.404 0.430257 -3.7806 0
M  V30 5946 H 558.916 -1.38779 -3.62439 0
M  V30 5947 H 557.017 1.0773 -3.56686 0
M  V30 5948 H 557.13 -0.367018 -4.77692 0
M  V30 5949 H 555.494 -0.0984958 -2.54509 0
M  V30 5950 H 556.277 -1.71377 -2.97464 0
M  V30 5951 N 558.722 1.53707 -0.348139 0
M  V30 5952 C 559.952 2.05108 0.247864 0
M  V30 5953 C 560.36 1.22252 1.44399 0
M  V30 5954 O 559.703 0.251853 1.81965 0
M  V30 5955 C 559.765 3.52171 0.722187 0
M  V30 5956 C 559.429 4.5562 -0.354902 0
M  V30 5957 C 560.426 5.05883 -1.19911 0
M  V30 5958 C 558.111 4.99703 -0.510145 0
M  V30 5959 C 560.105 5.98814 -2.18406 0
M  V30 5960 C 557.792 5.92443 -1.49848 0
M  V30 5961 C 558.79 6.41887 -2.33389 0
M  V30 5962 O 558.478 7.32802 -3.3054 0
M  V30 5963 H 558.21 0.674086 0.0508296 0
M  V30 5964 H 560.764 1.99229 -0.49968 0
M  V30 5965 H 558.994 3.55529 1.52105 0
M  V30 5966 H 560.683 3.8652 1.23925 0
M  V30 5967 H 561.449 4.72586 -1.09028 0
M  V30 5968 H 557.328 4.60816 0.130274 0
M  V30 5969 H 560.872 6.3733 -2.83649 0
M  V30 5970 H 556.769 6.25155 -1.60786 0
M  V30 5971 H 557.537 7.50749 -3.26064 0
M  V30 5972 N 560.2 0.0768682 1.57412 0
M  V30 5973 C 561.616 -0.279772 1.57129 0
M  V30 5974 C 561.816 -1.69688 1.08666 0
M  V30 5975 O 560.872 -2.40953 0.754843 0
M  V30 5976 C 562.185 -0.0848055 3.0058 0
M  V30 5977 C 563.733 -0.153954 3.12621 0
M  V30 5978 C 564.208 0.0127946 4.57998 0
M  V30 5979 N 565.699 -0.0426435 4.6318 0
M  V30 5980 C 566.434 0.0618892 5.73367 0
M  V30 5981 N 565.93 0.220229 6.9245 0
M  V30 5982 N 567.723 0.00446072 5.621 0
M  V30 5983 H 559.874 1.00297 1.87228 0
M  V30 5984 H 562.137 0.391565 0.863354 0
M  V30 5985 H 561.843 0.89325 3.40168 0
M  V30 5986 H 561.717 -0.834961 3.67843 0
M  V30 5987 H 564.104 -1.1225 2.72917 0
M  V30 5988 H 564.185 0.627389 2.47987 0
M  V30 5989 H 563.829 0.978128 4.98392 0
M  V30 5990 H 563.759 -0.788016 5.20671 0
M  V30 5991 H 566.25 -0.163226 3.77547 0
M  V30 5992 H 566.563 0.291999 7.72248 0
M  V30 5993 H 564.908 0.255658 6.9453 0
M  V30 5994 H 568.099 -0.117979 4.67951 0
M  V30 5995 H 568.272 0.0893796 6.47938 0
M  V30 5996 N 561.678 -1.56367 -0.196722 0
M  V30 5997 C 562.641 -1.93561 -1.22746 0
M  V30 5998 C 563.641 -0.816566 -1.38524 0
M  V30 5999 O 564.831 -1.084 -1.36363 0
M  V30 6000 C 561.963 -2.20823 -2.59712 0
M  V30 6001 H 563.156 -2.85774 -0.909586 0
M  V30 6002 H 560.709 -1.50032 -0.438174 0
M  V30 6003 H 561.444 -1.31243 -2.96557 0
M  V30 6004 H 561.229 -3.02368 -2.49632 0
M  V30 6005 H 562.719 -2.50608 -3.34044 0
M  V30 6006 N 563.156 0.464375 -1.50603 0
M  V30 6007 C 564.572 0.798684 -1.38178 0
M  V30 6008 C 564.772 1.96568 -0.44308 0
M  V30 6009 O 563.828 2.52252 0.111814 0
M  V30 6010 C 565.141 1.10444 -2.79683 0
M  V30 6011 C 566.689 1.2105 -2.88645 0
M  V30 6012 C 567.164 1.54934 -4.30998 0
M  V30 6013 N 568.655 1.61913 -4.3398 0
M  V30 6014 C 569.39 1.8965 -5.41129 0
M  V30 6015 N 568.886 2.15361 -6.58477 0
M  V30 6016 N 570.679 1.91207 -5.28579 0
M  V30 6017 H 562.83 -0.304603 -2.10204 0
M  V30 6018 H 565.093 -0.0737804 -0.945125 0
M  V30 6019 H 564.799 0.319934 -3.50242 0
M  V30 6020 H 564.673 2.03896 -3.17342 0
M  V30 6021 H 567.06 1.98567 -2.18301 0
M  V30 6022 H 567.141 0.255613 -2.5452 0
M  V30 6023 H 566.785 0.779549 -5.01882 0
M  V30 6024 H 566.715 2.51584 -4.62615 0
M  V30 6025 H 569.206 1.44055 -3.49366 0
M  V30 6026 H 569.519 2.35818 -7.35941 0
M  V30 6027 H 567.864 2.1274 -6.6164 0
M  V30 6028 H 571.055 1.70622 -4.35897 0
M  V30 6029 H 571.228 2.12488 -6.12171 0
M  V30 6030 N 564.634 1.40294 0.718013 0
M  V30 6031 C 565.88 1.38645 1.48005 0
M  V30 6032 C 566.213 -0.0121202 1.94196 0
M  V30 6033 O 565.488 -0.980309 1.67989 0
M  V30 6034 C 565.771 2.37379 2.70782 0
M  V30 6035 C 565.624 3.8625 2.30501 0
M  V30 6036 C 566.943 2.33685 3.72933 0
M  V30 6037 H 564.062 0.504928 0.536858 0
M  V30 6038 H 566.704 1.71411 0.819649 0
M  V30 6039 H 564.854 2.09568 3.27129 0
M  V30 6040 H 566.526 4.24879 1.79655 0
M  V30 6041 H 564.769 4.02202 1.6253 0
M  V30 6042 H 565.44 4.50847 3.18498 0
M  V30 6043 H 567.916 2.58314 3.2621 0
M  V30 6044 H 566.792 3.0482 4.56482 0
M  V30 6045 H 567.053 1.34765 4.21059 0
M  V30 6046 N 566.112 -0.949982 1.2575 0
M  V30 6047 C 567.075 -2.02894 1.06615 0
M  V30 6048 C 568.075 -1.60791 0.0173905 0
M  V30 6049 O 569.265 -1.72249 0.260003 0
M  V30 6050 C 566.397 -3.35219 0.619751 0
M  V30 6051 H 567.59 -2.21302 2.02399 0
M  V30 6052 H 565.143 -1.12772 1.08223 0
M  V30 6053 H 565.878 -3.22508 -0.340486 0
M  V30 6054 H 565.663 -3.67129 1.37692 0
M  V30 6055 H 567.153 -4.14505 0.507443 0
M  V30 6056 N 567.59 -1.07411 -1.15328 0
M  V30 6057 C 568.538 -0.689316 -2.22151 0
M  V30 6058 C 569.532 0.300156 -1.6672 0
M  V30 6059 O 570.738 0.163804 -1.79253 0
M  V30 6060 H 567.113 -0.204834 -0.723566 0
M  V30 6061 H 569.084 -1.59988 -2.51886 0
M  V30 6062 C 567.833 -0.103848 -3.47545 0
M  V30 6063 H 567.156 -0.856367 -3.90521 0
M  V30 6064 H 568.596 0.127725 -4.23808 0
M  V30 6065 C 567.055 1.15563 -3.1646 0
M  V30 6066 O 567.585 2.242 -3.33312 0
M  V30 6067 N 565.791 1.06203 -2.70498 0
M  V30 6068 H 565.338 0.177933 -2.56985 0
M  V30 6069 H 565.296 1.90553 -2.50074 0
M  V30 6070 N 569.068 1.32177 -0.85831 0
M  V30 6071 C 570.298 2.01021 -0.476889 0
M  V30 6072 C 570.706 1.64653 0.931995 0
M  V30 6073 O 570.049 0.865713 1.62022 0
M  V30 6074 C 570.111 3.55413 -0.540528 0
M  V30 6075 C 569.775 4.1522 -1.90895 0
M  V30 6076 C 570.772 4.3318 -2.87491 0
M  V30 6077 C 568.457 4.51212 -2.20709 0
M  V30 6078 C 570.451 4.86306 -4.1205 0
M  V30 6079 C 568.138 5.04042 -3.45521 0
M  V30 6080 C 569.136 5.21538 -4.41007 0
M  V30 6081 O 568.824 5.73238 -5.63608 0
M  V30 6082 H 568.556 0.650059 -0.18547 0
M  V30 6083 H 571.11 1.69648 -1.15796 0
M  V30 6084 H 569.34 3.86196 0.19741 0
M  V30 6085 H 571.029 4.05526 -0.174191 0
M  V30 6086 H 571.795 4.05704 -2.65762 0
M  V30 6087 H 567.674 4.36878 -1.4717 0
M  V30 6088 H 571.218 4.99877 -4.86589 0
M  V30 6089 H 567.115 5.30952 -3.67098 0
M  V30 6090 H 567.883 5.91625 -5.65617 0
M  V30 6091 N 570.547 0.616602 1.45037 0
M  V30 6092 C 571.479 -0.135186 2.28801 0
M  V30 6093 C 572.492 -0.82303 1.40464 0
M  V30 6094 O 573.681 -0.686909 1.64754 0
M  V30 6095 C 570.781 -1.21292 3.16451 0
M  V30 6096 C 569.954 -0.61043 4.3312 0
M  V30 6097 C 569.013 -1.58022 5.01912 0
M  V30 6098 O 568.039 -1.10301 5.58411 0
M  V30 6099 N 569.241 -2.91464 5.02025 0
M  V30 6100 H 572.006 0.583612 2.93963 0
M  V30 6101 H 569.567 0.456723 1.55324 0
M  V30 6102 H 571.559 -1.86169 3.59337 0
M  V30 6103 H 570.129 -1.83412 2.53138 0
M  V30 6104 H 569.349 0.216638 3.93604 0
M  V30 6105 H 570.637 -0.188293 5.08451 0
M  V30 6106 H 570.035 -3.32829 4.57429 0
M  V30 6107 H 568.592 -3.51741 5.48745 0
M  V30 6108 N 572.025 -1.5352 0.356285 0
M  V30 6109 C 573.441 -1.59599 0.00485267 0
M  V30 6110 C 573.641 -1.37179 -1.47595 0
M  V30 6111 O 572.697 -1.17234 -2.23635 0
M  V30 6112 C 574.01 -2.97277 0.452454 0
M  V30 6113 C 575.558 -3.10357 0.405881 0
M  V30 6114 C 576.033 -4.50432 0.829148 0
M  V30 6115 N 577.524 -4.5652 0.783838 0
M  V30 6116 C 578.259 -5.63077 1.08315 0
M  V30 6117 N 577.755 -6.77429 1.45126 0
M  V30 6118 N 579.548 -5.53014 1.00655 0
M  V30 6119 H 571.699 -1.66346 1.32071 0
M  V30 6120 H 573.962 -0.77971 0.539218 0
M  V30 6121 H 573.668 -3.18792 1.48542 0
M  V30 6122 H 573.542 -3.76836 -0.165762 0
M  V30 6123 H 575.929 -2.88558 -0.617934 0
M  V30 6124 H 576.01 -2.32828 1.05947 0
M  V30 6125 H 575.654 -4.72968 1.85103 0
M  V30 6126 H 575.584 -5.26378 0.152906 0
M  V30 6127 H 578.075 -3.74408 0.512513 0
M  V30 6128 H 578.388 -7.54669 1.66415 0
M  V30 6129 H 576.733 -6.78844 1.48983 0
M  V30 6130 H 579.924 -4.62557 0.718215 0
M  V30 6131 H 580.097 -6.35964 1.24315 0
M  V30 6132 N 573.503 -0.0852151 -1.57369 0
M  V30 6133 C 574.78 0.622534 -1.85429 0
M  V30 6134 C 575.16 1.86962 -0.980229 0
M  V30 6135 O 574.508 2.28445 -0.0500219 0
M  V30 6136 C 574.718 0.947374 -3.35896 0
M  V30 6137 C 576.066 1.31509 -4.03721 0
M  V30 6138 O 577.09 1.03869 -3.40719 0
M  V30 6139 O 575.949 1.83231 -5.14868 0
M  V30 6140 H 573.043 0.310513 -0.766492 0
M  V30 6141 H 575.589 -0.117164 -1.69295 0
M  V30 6142 H 574.361 0.0622264 -3.91251 0
M  V30 6143 H 573.984 1.74338 -3.5734 0
M  V30 6144 N 574.981 1.5647 0.188427 0
M  V30 6145 C 576.229 1.80655 0.905986 0
M  V30 6146 C 576.55 0.659391 1.83513 0
M  V30 6147 O 575.82 -0.321868 1.93238 0
M  V30 6148 H 574.4 0.666391 0.337538 0
M  V30 6149 H 577.062 1.93949 0.192339 0
M  V30 6150 H 576.158 2.74066 1.49313 0
M  V30 6151 N 576.459 -0.456382 1.50847 0
M  V30 6152 C 577.87 -1.03685 1.55262 0
M  V30 6153 C 578.221 -1.92779 0.364771 0
M  V30 6154 O 577.346 -2.10043 -0.52068 0
M  V30 6155 C 577.941 -1.88718 2.81374 0
M  V30 6156 C 576.5 -2.41847 2.88422 0
M  V30 6157 C 575.647 -1.20564 2.49719 0
M  V30 6158 H 578.598 -0.238399 1.56899 0
M  V30 6159 H 578.619 -2.73957 2.6406 0
M  V30 6160 H 578.131 -1.23847 3.67809 0
M  V30 6161 H 576.232 -3.10228 2.06372 0
M  V30 6162 H 576.345 -2.75947 3.9165 0
M  V30 6163 H 574.709 -1.54504 2.02486 0
M  V30 6164 H 575.492 -0.573326 3.38479 0
M  V30 6165 N 577.937 -1.40673 -0.710563 0
M  V30 6166 C 578.87 -1.35742 -1.83438 0
M  V30 6167 C 579.848 -0.226997 -1.61008 0
M  V30 6168 O 581.032 -0.411477 -1.83954 0
M  V30 6169 C 578.159 -1.11374 -3.19865 0
M  V30 6170 C 577.205 -2.26935 -3.61113 0
M  V30 6171 S 578.038 -3.89352 -3.67648 0
M  V30 6172 C 579.194 -3.67258 -5.06826 0
M  V30 6173 H 579.427 -2.30848 -1.87341 0
M  V30 6174 H 576.96 -1.27018 -0.877831 0
M  V30 6175 H 578.918 -0.980004 -3.9863 0
M  V30 6176 H 577.579 -0.179135 -3.13589 0
M  V30 6177 H 576.772 -2.0554 -4.60184 0
M  V30 6178 H 576.374 -2.36638 -2.89618 0
M  V30 6179 H 578.666 -3.26036 -5.93891 0
M  V30 6180 H 579.609 -4.65878 -5.33257 0
M  V30 6181 H 580.017 -3.0084 -4.77656 0
M  V30 6182 N 579.415 0.9433 -1.26252 0
M  V30 6183 C 580.655 1.70397 -1.1289 0
M  V30 6184 C 581.019 1.89268 0.322713 0
M  V30 6185 O 582.22 2.62503 0.578418 0
M  V30 6186 C 580.491 3.04296 -1.87453 0
M  V30 6187 S 582.05 3.95475 -1.90119 0
M  V30 6188 H 578.868 0.585559 -0.403289 0
M  V30 6189 H 581.47 1.12424 -1.59941 0
M  V30 6190 H 580.174 2.8824 -2.9214 0
M  V30 6191 H 579.705 3.67327 -1.40835 0
M  V30 6192 H 581.72 4.86297 -0.986373 0
M  V30 6193 N 580.893 1.08022 1.14757 0
M  V30 6194 C 581.826 0.650738 2.18725 0
M  V30 6195 C 582.804 -0.335496 1.59101 0
M  V30 6196 O 583.988 -0.240295 1.86962 0
M  V30 6197 C 581.115 -0.0434377 3.38672 0
M  V30 6198 C 580.161 0.90232 4.16846 0
M  V30 6199 S 580.994 2.40693 4.78359 0
M  V30 6200 C 582.15 1.72475 6.01667 0
M  V30 6201 H 582.383 1.53152 2.54817 0
M  V30 6202 H 579.916 0.894823 1.25826 0
M  V30 6203 H 581.874 -0.437684 4.0816 0
M  V30 6204 H 580.535 -0.900659 3.0091 0
M  V30 6205 H 579.728 0.363445 5.02688 0
M  V30 6206 H 579.33 1.23728 3.52941 0
M  V30 6207 H 581.622 1.0404 6.69464 0
M  V30 6208 H 582.565 2.56175 6.60136 0
M  V30 6209 H 582.973 1.19979 5.51602 0
M  V30 6210 N 582.371 -1.3172 0.865308 0
M  V30 6211 C 583.303 -2.27545 0.274906 0
M  V30 6212 C 584.316 -1.52887 -0.559413 0
M  V30 6213 O 585.505 -1.74361 -0.382166 0
M  V30 6214 C 582.605 -3.33006 -0.629286 0
M  V30 6215 C 581.778 -4.37063 0.171553 0
M  V30 6216 C 580.837 -5.22044 -0.660052 0
M  V30 6217 O 579.863 -5.69129 -0.0897527 0
M  V30 6218 N 581.065 -5.45946 -1.97289 0
M  V30 6219 H 583.83 -2.78848 1.09836 0
M  V30 6220 H 581.391 -1.44693 0.726331 0
M  V30 6221 H 583.383 -3.86772 -1.19121 0
M  V30 6222 H 581.953 -2.81782 -1.35342 0
M  V30 6223 H 581.173 -3.83436 0.914919 0
M  V30 6224 H 582.461 -5.03662 0.721235 0
M  V30 6225 H 581.859 -5.0944 -2.45942 0
M  V30 6226 H 580.416 -6.02665 -2.4827 0
M  V30 6227 N 583.85 -0.624285 -1.44708 0
M  V30 6228 C 585.127 -0.0572781 -1.95516 0
M  V30 6229 C 585.507 1.41516 -1.56641 0
M  V30 6230 O 584.855 2.12614 -0.837111 0
M  V30 6231 C 585.065 -0.272944 -3.47931 0
M  V30 6232 C 586.413 -0.162529 -4.24289 0
M  V30 6233 O 587.437 -0.203946 -3.55616 0
M  V30 6234 O 586.296 -0.0616847 -5.46465 0
M  V30 6235 H 583.389 0.0262219 -0.826584 0
M  V30 6236 H 585.936 -0.695512 -1.54793 0
M  V30 6237 H 584.707 -1.29492 -3.69253 0
M  V30 6238 H 584.331 0.399756 -3.95585 0
M  V30 6239 N 585.328 1.53329 -0.364422 0
M  V30 6240 C 586.276 2.27212 0.497737 0
M  V30 6241 C 587.27 1.30146 1.08437 0
M  V30 6242 O 588.476 1.47778 1.0277 0
M  V30 6243 H 584.851 0.730329 0.179232 0
M  V30 6244 H 586.822 2.98037 -0.147182 0
M  V30 6245 C 585.571 3.07333 1.6261 0
M  V30 6246 H 584.894 3.81866 1.184 0
M  V30 6247 H 586.334 3.62209 2.20409 0
M  V30 6248 C 584.793 2.18102 2.56775 0
M  V30 6249 O 585.323 1.79104 3.59562 0
M  V30 6250 N 583.529 1.82759 2.25937 0
M  V30 6251 H 583.076 2.14671 1.42387 0
M  V30 6252 H 583.034 1.23342 2.89196 0
M  V30 6253 N 586.806 0.0935595 1.57322 0
M  V30 6254 C 587.738 -0.895923 2.10964 0
M  V30 6255 C 588.751 -1.24705 1.04654 0
M  V30 6256 O 589.94 -1.20044 1.32105 0
M  V30 6257 C 587.04 -2.20546 2.57318 0
M  V30 6258 C 586.213 -2.0299 3.87445 0
M  V30 6259 C 585.272 -3.17443 4.19662 0
M  V30 6260 O 584.298 -2.91474 4.88909 0
M  V30 6261 N 585.5 -4.43168 3.74943 0
M  V30 6262 H 588.265 -0.437788 2.96485 0
M  V30 6263 H 585.826 -0.0915863 1.61641 0
M  V30 6264 H 587.818 -2.9606 2.75917 0
M  V30 6265 H 586.388 -2.57789 1.76816 0
M  V30 6266 H 585.608 -1.11815 3.78009 0
M  V30 6267 H 586.896 -1.88535 4.7258 0
M  V30 6268 H 586.294 -4.67149 3.19043 0
M  V30 6269 H 584.851 -5.15637 3.987 0
M  V30 6270 N 588.284 -1.56567 -0.180126 0
M  V30 6271 C 589.532 -1.81133 -0.896392 0
M  V30 6272 C 589.853 -0.669114 -1.83161 0
M  V30 6273 O 589.123 0.311616 -1.93406 0
M  V30 6274 H 587.703 -0.668172 -0.333999 0
M  V30 6275 H 590.365 -1.94048 -0.182051 0
M  V30 6276 H 589.461 -2.74854 -1.47857 0
M  V30 6277 N 589.762 0.448376 -1.51087 0
M  V30 6278 C 591.01 1.19635 -1.62886 0
M  V30 6279 C 591.331 1.91977 -0.342024 0
M  V30 6280 O 590.601 1.85094 0.641636 0
M  V30 6281 H 589.181 0.444598 -0.600285 0
M  V30 6282 H 591.843 0.515138 -1.87969 0
M  V30 6283 H 590.939 1.93194 -2.45117 0
M  V30 6284 N 591.24 1.41047 0.703093 0
M  V30 6285 C 592.203 1.42036 1.79884 0
M  V30 6286 C 593.203 0.312153 1.57741 0
M  V30 6287 O 594.393 0.571672 1.64553 0
M  V30 6288 C 591.525 1.22437 3.18154 0
M  V30 6289 H 592.718 2.39572 1.80403 0
M  V30 6290 H 590.271 1.27079 0.909977 0
M  V30 6291 H 591.006 0.257112 3.23279 0
M  V30 6292 H 590.791 2.02723 3.35627 0
M  V30 6293 H 592.281 1.25946 3.98155 0
M  V30 6294 N 592.718 -0.936591 1.26751 0
M  V30 6295 C 594.129 -1.49816 1.1141 0
M  V30 6296 C 594.48 -1.9383 -0.304015 0
M  V30 6297 O 593.605 -1.80346 -1.196 0
M  V30 6298 C 594.2 -2.72271 2.01629 0
M  V30 6299 C 592.759 -3.2468 1.9042 0
M  V30 6300 C 591.906 -1.97444 1.94708 0
M  V30 6301 H 594.857 -0.751604 1.39773 0
M  V30 6302 H 594.878 -3.46741 1.56688 0
M  V30 6303 H 594.39 -2.40205 3.04833 0
M  V30 6304 H 592.491 -3.61525 0.901674 0
M  V30 6305 H 592.604 -3.91476 2.76195 0
M  V30 6306 H 590.968 -2.13545 1.38818 0
M  V30 6307 H 591.751 -1.67703 2.9955 0
M  V30 6308 N 594.196 -1.08629 -1.14182 0
M  V30 6309 C 595.144 -0.71284 -2.21408 0
M  V30 6310 C 596.138 0.282457 -1.67029 0
M  V30 6311 O 597.344 0.144783 -1.79417 0
M  V30 6312 H 593.719 -0.212497 -0.721352 0
M  V30 6313 H 595.69 -1.6265 -2.50175 0
M  V30 6314 C 594.439 -0.140704 -3.47415 0
M  V30 6315 H 593.762 -0.897739 -3.8959 0
M  V30 6316 H 595.202 0.0827677 -4.23919 0
M  V30 6317 C 593.661 1.122 -3.17668 0
M  V30 6318 O 594.191 2.20652 -3.35672 0
M  V30 6319 N 592.397 1.03328 -2.71609 0
M  V30 6320 H 591.944 0.150666 -2.57159 0
M  V30 6321 H 591.902 1.8789 -2.52081 0
M  V30 6322 N 595.674 1.31259 -0.872281 0
M  V30 6323 C 596.904 2.00504 -0.498183 0
M  V30 6324 C 597.312 1.65632 0.914479 0
M  V30 6325 O 596.655 0.882849 1.61095 0
M  V30 6326 C 596.717 3.5482 -0.578194 0
M  V30 6327 C 596.381 4.13172 -1.95289 0
M  V30 6328 C 597.378 4.30107 -2.92069 0
M  V30 6329 C 595.063 4.48846 -2.25483 0
M  V30 6330 C 597.057 4.81908 -4.17185 0
M  V30 6331 C 594.744 5.00349 -3.50847 0
M  V30 6332 C 595.742 5.16831 -4.46514 0
M  V30 6333 O 595.43 5.67228 -5.69656 0
M  V30 6334 H 595.162 0.648055 -0.192354 0
M  V30 6335 H 597.716 1.6841 -1.17589 0
M  V30 6336 H 595.946 3.86383 0.156438 0
M  V30 6337 H 597.635 4.05318 -0.217192 0
M  V30 6338 H 598.401 4.02862 -2.7005 0
M  V30 6339 H 594.28 4.35292 -1.51795 0
M  V30 6340 H 597.824 4.94688 -4.91863 0
M  V30 6341 H 593.721 5.27028 -3.72708 0
M  V30 6342 H 594.489 5.85592 -5.7186 0
M  V30 6343 N 597.152 0.631951 1.44375 0
M  V30 6344 C 598.382 0.143658 2.061 0
M  V30 6345 C 598.79 -1.18733 1.47306 0
M  V30 6346 O 598.133 -1.73943 0.590724 0
M  V30 6347 C 598.195 -0.0446102 3.59472 0
M  V30 6348 C 597.859 1.20835 4.40736 0
M  V30 6349 C 598.856 2.13224 4.74164 0
M  V30 6350 C 596.541 1.44399 4.81097 0
M  V30 6351 C 598.535 3.27487 5.46838 0
M  V30 6352 C 596.222 2.58959 5.53519 0
M  V30 6353 C 597.22 3.50329 5.86309 0
M  V30 6354 O 596.908 4.62891 6.57257 0
M  V30 6355 H 596.64 0.0772939 0.671567 0
M  V30 6356 H 599.194 0.866677 1.8622 0
M  V30 6357 H 597.424 -0.822783 3.77845 0
M  V30 6358 H 599.113 -0.487561 4.02961 0
M  V30 6359 H 599.879 1.96253 4.4352 0
M  V30 6360 H 595.758 0.741696 4.54994 0
M  V30 6361 H 599.302 3.98826 5.72349 0
M  V30 6362 H 595.199 2.75873 5.83579 0
M  V30 6363 H 595.967 4.61883 6.75726 0
M  V30 6364 N 598.631 -1.53133 0.372548 0
M  V30 6365 C 600.042 -1.86404 -0.105155 0
M  V30 6366 C 600.393 -1.29289 -1.47576 0
M  V30 6367 O 599.518 -0.617646 -2.07398 0
M  V30 6368 C 600.113 -3.38223 -0.197588 0
M  V30 6369 C 598.672 -3.71266 -0.619556 0
M  V30 6370 C 597.819 -2.76353 0.228919 0
M  V30 6371 H 600.77 -1.47282 0.591077 0
M  V30 6372 H 600.791 -3.66577 -1.01987 0
M  V30 6373 H 600.303 -3.79763 0.800099 0
M  V30 6374 H 598.404 -3.35287 -1.62522 0
M  V30 6375 H 598.517 -4.77515 -0.389332 0
M  V30 6376 H 596.881 -2.52888 -0.303271 0
M  V30 6377 H 597.664 -3.20728 1.22428 0
M  V30 6378 N 600.109 -0.101901 -1.5727 0
M  V30 6379 C 601.057 0.872034 -2.15635 0
M  V30 6380 C 602.051 1.28742 -1.10099 0
M  V30 6381 O 603.257 1.26116 -1.28432 0
M  V30 6382 H 599.632 0.299269 -0.689886 0
M  V30 6383 H 601.603 0.355137 -2.96279 0
M  V30 6384 C 600.352 2.11886 -2.7568 0
M  V30 6385 H 599.675 1.80813 -3.56576 0
M  V30 6386 H 601.115 2.78077 -3.20077 0
M  V30 6387 C 599.574 2.89739 -1.7191 0
M  V30 6388 O 600.104 3.84522 -1.16213 0
M  V30 6389 N 598.31 2.53407 -1.42245 0
M  V30 6390 H 597.857 1.76398 -1.87727 0
M  V30 6391 H 597.815 3.05795 -0.730529 0
M  V30 6392 N 601.587 1.56661 0.17182 0
M  V30 6393 C 602.812 1.86459 0.908165 0
M  V30 6394 C 603.237 0.688181 1.75059 0
M  V30 6395 O 602.595 -0.362753 1.77634 0
M  V30 6396 C 602.643 3.14669 1.76112 0
M  V30 6397 O 601.747 2.96858 2.86268 0
M  V30 6398 H 601.088 0.613318 0.254434 0
M  V30 6399 H 603.618 2.03892 0.170113 0
M  V30 6400 H 603.628 3.46061 2.16115 0
M  V30 6401 H 602.303 3.99905 1.14233 0
M  V30 6402 H 600.88 2.76819 2.49852 0
M  V30 6403 N 603.065 -0.440357 1.51323 0
M  V30 6404 C 604.312 -1.19004 1.63842 0
M  V30 6405 C 604.64 -1.91266 0.35321 0
M  V30 6406 O 603.895 -1.84143 -0.662565 0
M  V30 6407 C 604.194 -2.2339 2.78984 0
M  V30 6408 C 603.86 -1.68162 4.18369 0
M  V30 6409 C 602.522 -1.52823 4.56288 0
M  V30 6410 C 604.874 -1.27524 5.05358 0
M  V30 6411 C 602.202 -0.953157 5.78906 0
M  V30 6412 C 604.554 -0.714474 6.28552 0
M  V30 6413 C 603.218 -0.547961 6.65247 0
M  V30 6414 H 602.488 -0.435468 0.59954 0
M  V30 6415 H 605.135 -0.481538 1.85347 0
M  V30 6416 H 603.44 -3.00267 2.51688 0
M  V30 6417 H 605.137 -2.81211 2.85869 0
M  V30 6418 H 601.727 -1.81077 3.8847 0
M  V30 6419 H 605.911 -1.38197 4.76671 0
M  V30 6420 H 601.167 -0.811882 6.05986 0
M  V30 6421 H 605.341 -0.391059 6.95301 0
M  V30 6422 H 602.968 -0.100222 7.60134 0
M  V30 6423 N 604.543 -1.41418 -0.695603 0
M  V30 6424 C 605.791 -1.40496 -1.45277 0
M  V30 6425 C 606.112 -0.0149538 -1.94994 0
M  V30 6426 O 605.382 0.9432 -1.71699 0
M  V30 6427 H 603.962 -0.517147 -0.539044 0
M  V30 6428 H 606.624 -1.76656 -0.823321 0
M  V30 6429 H 605.72 -2.09214 -2.31595 0
M  V30 6430 N 606.021 0.929856 -1.27246 0
M  V30 6431 C 606.984 2.01172 -1.09829 0
M  V30 6432 C 607.984 1.60743 -0.0429687 0
M  V30 6433 O 609.174 1.71813 -0.287373 0
M  V30 6434 C 606.306 3.34191 -0.673003 0
M  V30 6435 H 607.499 2.18054 -2.05895 0
M  V30 6436 H 605.052 1.11036 -1.10003 0
M  V30 6437 H 605.787 3.23009 0.289134 0
M  V30 6438 H 605.572 3.64892 -1.43515 0
M  V30 6439 H 607.062 4.13646 -0.573323 0
M  V30 6440 N 607.499 1.09233 1.13605 0
M  V30 6441 C 608.91 0.846839 1.6639 0
M  V30 6442 C 609.261 -0.625031 1.85978 0
M  V30 6443 O 608.386 -1.48173 1.57714 0
M  V30 6444 C 608.981 1.5307 3.0225 0
M  V30 6445 C 607.54 1.33223 3.52035 0
M  V30 6446 C 606.687 1.58806 2.27323 0
M  V30 6447 H 609.638 1.25175 0.975541 0
M  V30 6448 H 609.659 0.96267 3.68121 0
M  V30 6449 H 609.171 2.60192 2.87961 0
M  V30 6450 H 607.272 0.282091 3.71531 0
M  V30 6451 H 607.385 2.0657 4.32279 0
M  V30 6452 H 605.749 1.01007 2.33815 0
M  V30 6453 H 606.532 2.67153 2.15602 0
M  V30 6454 N 608.977 -1.30795 0.87923 0
M  V30 6455 C 609.887 -2.32041 0.345565 0
M  V30 6456 C 610.903 -1.65103 -0.549265 0
M  V30 6457 O 612.079 -1.9645 -0.443763 0
M  V30 6458 C 609.144 -3.43944 -0.436245 0
M  V30 6459 C 608.205 -4.26521 0.48765 0
M  V30 6460 C 607.438 -5.33081 -0.256943 0
M  V30 6461 O 607.661 -5.50762 -1.48381 0
M  V30 6462 O 606.595 -6.00635 0.389985 0
M  V30 6463 H 610.421 -2.79627 1.18501 0
M  V30 6464 H 608.006 -1.3486 0.642885 0
M  V30 6465 H 609.888 -4.12128 -0.879119 0
M  V30 6466 H 608.563 -2.98504 -1.25208 0
M  V30 6467 H 607.47 -3.61057 0.979216 0
M  V30 6468 H 608.803 -4.75551 1.26933 0
M  V30 6469 N 610.455 -0.639598 -1.44038 0
M  V30 6470 C 611.387 0.0987684 -2.28987 0
M  V30 6471 C 612.4 0.80058 -1.41755 0
M  V30 6472 O 613.589 0.660611 -1.65826 0
M  V30 6473 C 610.689 1.16242 -3.18341 0
M  V30 6474 C 609.862 0.541447 -4.34036 0
M  V30 6475 C 608.921 1.50017 -5.04362 0
M  V30 6476 O 607.947 1.01403 -5.60095 0
M  V30 6477 N 609.149 2.83441 -5.06598 0
M  V30 6478 H 611.914 -0.630305 -2.92997 0
M  V30 6479 H 609.475 -0.481376 -1.54578 0
M  V30 6480 H 611.467 1.80429 -3.62253 0
M  V30 6481 H 610.037 1.79362 -2.56024 0
M  V30 6482 H 609.257 -0.27923 -3.9321 0
M  V30 6483 H 610.545 0.107379 -5.08687 0
M  V30 6484 H 609.943 3.2551 -4.62666 0
M  V30 6485 H 608.5 3.42966 -5.54272 0
M  V30 6486 N 611.933 1.52934 -0.380664 0
M  V30 6487 C 612.865 2.23822 0.493581 0
M  V30 6488 C 613.878 1.25761 1.03383 0
M  V30 6489 O 615.067 1.5189 0.937633 0
M  V30 6490 C 612.167 2.9342 1.69582 0
M  V30 6491 C 611.34 4.18115 1.28445 0
M  V30 6492 C 610.399 4.70788 2.35042 0
M  V30 6493 O 609.425 5.34093 1.96807 0
M  V30 6494 N 610.627 4.49899 3.66839 0
M  V30 6495 H 613.392 2.99484 -0.11371 0
M  V30 6496 H 610.953 1.60577 -0.206587 0
M  V30 6497 H 612.945 3.2556 2.40401 0
M  V30 6498 H 611.515 2.21119 2.20965 0
M  V30 6499 H 610.735 3.92109 0.405503 0
M  V30 6500 H 612.023 4.99152 0.986132 0
M  V30 6501 H 611.421 3.99349 4.0067 0
M  V30 6502 H 609.978 4.86551 4.33718 0
M  V30 6503 N 613.412 0.11024 1.57214 0
M  V30 6504 C 614.823 -0.416527 1.81994 0
M  V30 6505 C 615.174 -1.67183 1.02686 0
M  V30 6506 O 614.299 -2.14823 0.260782 0
M  V30 6507 C 614.894 -0.762466 3.30109 0
M  V30 6508 C 613.453 -1.23391 3.556 0
M  V30 6509 C 612.6 -0.238166 2.76275 0
M  V30 6510 H 615.551 0.335491 1.55113 0
M  V30 6511 H 615.572 -1.62068 3.44259 0
M  V30 6512 H 615.084 0.151346 3.87805 0
M  V30 6513 H 613.185 -2.16492 3.03253 0
M  V30 6514 H 613.298 -1.18528 4.64207 0
M  V30 6515 H 611.662 -0.723421 2.4421 0
M  V30 6516 H 612.445 0.668591 3.36727 0
M  V30 6517 N 614.89 -1.56749 -0.16351 0
M  V30 6518 C 616.115 -1.86938 -0.898264 0
M  V30 6519 C 616.54 -0.697456 -1.74692 0
M  V30 6520 O 615.898 0.353327 -1.77824 0
M  V30 6521 C 615.946 -3.15599 -1.74441 0
M  V30 6522 O 615.05 -2.98371 -2.8469 0
M  V30 6523 H 614.391 -0.614659 -0.251178 0
M  V30 6524 H 616.921 -2.03979 -0.159298 0
M  V30 6525 H 616.931 -3.47202 -2.14277 0
M  V30 6526 H 615.606 -4.00505 -1.1211 0
M  V30 6527 H 614.183 -2.7814 -2.4838 0
M  V30 6528 N 616.368 0.432326 -1.51554 0
M  V30 6529 C 617.331 1.50765 -1.72634 0
M  V30 6530 C 618.331 1.49334 -0.596314 0
M  V30 6531 O 619.521 1.51268 -0.863925 0
M  V30 6532 C 616.653 2.90284 -1.7874 0
M  V30 6533 H 617.846 1.33377 -2.68609 0
M  V30 6534 H 615.399 0.661329 -1.4162 0
M  V30 6535 H 616.134 3.13071 -0.845977 0
M  V30 6536 H 615.919 2.92727 -2.6087 0
M  V30 6537 H 617.409 3.68282 -1.96871 0
M  V30 6538 N 617.846 1.41785 0.688094 0
M  V30 6539 C 618.776 1.47 1.8142 0
M  V30 6540 C 619.757 0.327881 1.6691 0
M  V30 6541 O 620.942 0.540362 1.86531 0
M  V30 6542 C 618.072 1.35876 3.19617 0
M  V30 6543 C 617.026 2.47976 3.48844 0
M  V30 6544 C 616.352 2.21915 4.86475 0
M  V30 6545 C 617.652 3.90309 3.47068 0
M  V30 6546 H 619.346 2.41247 1.77314 0
M  V30 6547 H 616.892 1.16116 0.851651 0
M  V30 6548 H 618.845 1.38134 3.98117 0
M  V30 6549 H 617.569 0.38116 3.24368 0
M  V30 6550 H 616.228 2.45013 2.72698 0
M  V30 6551 H 615.876 1.2248 4.8786 0
M  V30 6552 H 615.576 2.97037 5.06994 0
M  V30 6553 H 617.1 2.25901 5.67275 0
M  V30 6554 H 618.514 3.94947 4.1556 0
M  V30 6555 H 616.911 4.65175 3.7912 0
M  V30 6556 H 617.981 4.17927 2.45896 0
M  V30 6557 N 619.324 -0.923095 1.27737 0
M  V30 6558 C 620.234 -2.05765 1.12685 0
M  V30 6559 C 621.25 -1.73911 0.0557197 0
M  V30 6560 O 622.426 -1.99674 0.263137 0
M  V30 6561 C 619.491 -3.37804 0.780363 0
M  V30 6562 C 618.552 -3.83326 1.93286 0
M  V30 6563 C 617.785 -5.09064 1.60281 0
M  V30 6564 O 618.008 -5.6809 0.512828 0
M  V30 6565 O 616.942 -5.50071 2.44347 0
M  V30 6566 H 620.768 -2.21378 2.07907 0
M  V30 6567 H 618.353 -1.04299 1.06968 0
M  V30 6568 H 620.235 -4.17097 0.600668 0
M  V30 6569 H 618.91 -3.23387 -0.142291 0
M  V30 6570 H 617.817 -3.049 2.16764 0
M  V30 6571 H 619.15 -4.02292 2.83588 0
M  V30 6572 N 620.802 -1.09834 -1.13024 0
M  V30 6573 C 621.752 -0.710899 -2.16634 0
M  V30 6574 C 622.736 0.276836 -1.58501 0
M  V30 6575 O 623.928 0.0865457 -1.76788 0
M  V30 6576 C 621.057 -0.137574 -3.43024 0
M  V30 6577 C 620.143 -1.15198 -4.08155 0
M  V30 6578 N 620.534 -2.34054 -4.48388 0
M  V30 6579 C 618.832 -0.991074 -4.34849 0
M  V30 6580 C 619.533 -2.98616 -4.99203 0
M  V30 6581 N 618.509 -2.26159 -4.94321 0
M  V30 6582 H 622.311 -1.61576 -2.455 0
M  V30 6583 H 619.825 -0.975158 -1.29863 0
M  V30 6584 H 621.822 0.158031 -4.166 0
M  V30 6585 H 620.482 0.762088 -3.1563 0
M  V30 6586 H 621.493 -2.7162 -4.40957 0
M  V30 6587 H 618.17 -0.146448 -4.17243 0
M  V30 6588 H 619.56 -3.99683 -5.40096 0
M  V30 6589 N 622.28 1.30327 -0.886154 0
M  V30 6590 C 623.505 2.0079 -0.519425 0
M  V30 6591 C 623.93 1.65979 0.885013 0
M  V30 6592 O 623.288 0.877043 1.58675 0
M  V30 6593 C 623.336 3.53686 -0.702758 0
M  V30 6594 O 622.44 4.11637 0.250828 0
M  V30 6595 H 621.781 0.63171 -0.204544 0
M  V30 6596 H 624.311 1.66145 -1.19402 0
M  V30 6597 H 624.321 4.03531 -0.602207 0
M  V30 6598 H 622.996 3.78361 -1.72673 0
M  V30 6599 H 621.573 3.72755 0.103873 0
M  V30 6600 N 623.758 0.647228 1.43697 0
M  V30 6601 C 625.007 0.155552 2.01099 0
M  V30 6602 C 625.32 -1.23569 1.51624 0
M  V30 6603 O 626.526 -1.82226 2.01261 0
M  V30 6604 C 624.982 0.227296 3.59182 0
M  V30 6605 C 624.59 1.62086 4.17651 0
M  V30 6606 C 626.334 -0.207085 4.23995 0
M  V30 6607 C 624.241 1.64685 5.68008 0
M  V30 6608 H 623.171 0.0543895 0.752036 0
M  V30 6609 H 625.822 0.808386 1.64734 0
M  V30 6610 H 624.204 -0.492937 3.9292 0
M  V30 6611 H 625.378 2.36597 3.95422 0
M  V30 6612 H 623.693 2.0007 3.65186 0
M  V30 6613 H 626.29 -0.207426 5.34298 0
M  V30 6614 H 626.633 -1.23742 3.97484 0
M  V30 6615 H 627.166 0.461193 3.95118 0
M  V30 6616 H 623.905 2.65608 5.99277 0
M  V30 6617 H 623.425 0.944914 5.9231 0
M  V30 6618 H 625.104 1.38792 6.31938 0
M  V30 6619 N 625.236 -1.5273 0.388769 0
M  V30 6620 C 626.168 -2.24081 -0.481704 0
M  V30 6621 C 627.181 -1.26307 -1.02715 0
M  V30 6622 O 628.37 -1.52386 -0.929565 0
M  V30 6623 C 625.47 -2.94315 -1.68024 0
M  V30 6624 C 624.643 -4.18791 -1.26226 0
M  V30 6625 C 623.702 -4.72028 -2.32542 0
M  V30 6626 O 622.728 -5.35129 -1.93972 0
M  V30 6627 N 623.93 -4.51838 -3.64448 0
M  V30 6628 H 626.695 -2.9942 0.129591 0
M  V30 6629 H 624.256 -1.60465 0.2151 0
M  V30 6630 H 626.248 -3.26831 -2.38671 0
M  V30 6631 H 624.818 -2.22287 -2.19789 0
M  V30 6632 H 624.038 -3.92318 -0.384703 0
M  V30 6633 H 625.326 -4.99668 -0.959647 0
M  V30 6634 H 624.724 -4.01468 -3.98547 0
M  V30 6635 H 623.281 -4.88845 -4.31131 0
M  V30 6636 N 626.714 -0.118576 -1.57153 0
M  V30 6637 C 627.944 0.546466 -1.99242 0
M  V30 6638 C 628.352 1.60791 -0.997148 0
M  V30 6639 O 627.695 1.83691 0.0181745 0
M  V30 6640 C 627.757 1.23167 -3.37743 0
M  V30 6641 C 627.421 0.318226 -4.55891 0
M  V30 6642 C 628.418 -0.442988 -5.18009 0
M  V30 6643 C 626.103 0.229421 -5.01776 0
M  V30 6644 C 628.097 -1.28074 -6.244 0
M  V30 6645 C 625.784 -0.611966 -6.08028 0
M  V30 6646 C 626.782 -1.36568 -6.69207 0
M  V30 6647 O 626.47 -2.1931 -7.73407 0
M  V30 6648 H 626.202 0.149297 -0.659307 0
M  V30 6649 H 628.756 -0.201603 -2.04408 0
M  V30 6650 H 626.986 2.0268 -3.29329 0
M  V30 6651 H 628.675 1.79358 -3.64123 0
M  V30 6652 H 629.441 -0.38425 -4.83475 0
M  V30 6653 H 625.32 0.805771 -4.53903 0
M  V30 6654 H 628.864 -1.86952 -6.72082 0
M  V30 6655 H 624.761 -0.6721 -6.41991 0
M  V30 6656 H 625.529 -2.12247 -7.90502 0
M  V30 6657 N 628.193 1.56834 0.155195 0
M  V30 6658 C 629.418 1.87412 0.888337 0
M  V30 6659 C 629.843 0.70671 1.74319 0
M  V30 6660 O 629.201 -0.343892 1.78009 0
M  V30 6661 C 629.249 3.1652 1.72765 0
M  V30 6662 O 628.353 2.99877 2.83103 0
M  V30 6663 H 627.694 0.615983 0.247914 0
M  V30 6664 H 630.224 2.04061 0.148478 0
M  V30 6665 H 630.234 3.48334 2.12433 0
M  V30 6666 H 628.909 4.01094 1.09985 0
M  V30 6667 H 627.486 2.79453 2.46902 0
M  V30 6668 N 629.671 -0.424282 1.51781 0
M  V30 6669 C 630.919 -1.17028 1.64769 0
M  V30 6670 C 631.24 -1.91409 0.372523 0
M  V30 6671 O 630.51 -1.86091 -0.612108 0
M  V30 6672 H 629.09 -0.434992 0.607282 0
M  V30 6673 H 631.752 -0.485169 1.88765 0
M  V30 6674 H 630.848 -1.8927 2.4816 0
M  V30 6675 N 631.149 -1.42148 -0.680565 0
M  V30 6676 C 632.059 -1.47565 -1.82378 0
M  V30 6677 C 633.075 -0.36489 -1.70131 0
M  V30 6678 O 634.251 -0.614916 -1.91783 0
M  V30 6679 C 631.316 -1.37013 -3.18478 0
M  V30 6680 C 630.377 -2.58532 -3.42724 0
M  V30 6681 C 629.61 -2.48473 -4.72331 0
M  V30 6682 O 629.833 -1.51745 -5.49845 0
M  V30 6683 O 628.767 -3.38503 -4.97694 0
M  V30 6684 H 632.593 -2.44045 -1.80764 0
M  V30 6685 H 630.178 -1.23849 -0.835569 0
M  V30 6686 H 632.06 -1.33468 -3.99705 0
M  V30 6687 H 630.735 -0.436552 -3.20743 0
M  V30 6688 H 629.642 -2.67652 -2.61368 0
M  V30 6689 H 630.975 -3.50769 -3.45286 0
M  V30 6690 N 632.627 0.916307 -1.28225 0
M  V30 6691 C 633.873 1.66765 -1.154 0
M  V30 6692 C 634.206 1.91912 0.297251 0
M  V30 6693 O 633.481 1.51766 1.21644 0
M  V30 6694 C 633.764 3.02715 -1.95028 0
M  V30 6695 C 633.617 2.84738 -3.48201 0
M  V30 6696 C 634.936 4.03215 -1.76369 0
M  V30 6697 H 632.055 0.605205 -0.42059 0
M  V30 6698 H 634.697 1.06255 -1.57512 0
M  V30 6699 H 632.847 3.54365 -1.59242 0
M  V30 6700 H 634.519 2.40118 -3.9388 0
M  V30 6701 H 632.762 2.19848 -3.73964 0
M  V30 6702 H 633.433 3.8127 -3.99171 0
M  V30 6703 H 635.909 3.60617 -2.07593 0
M  V30 6704 H 634.785 4.96306 -2.34459 0
M  V30 6705 H 635.046 4.36288 -0.71452 0
M  V30 6706 N 634.105 1.10431 1.1244 0
M  V30 6707 C 635.521 0.836096 1.35947 0
M  V30 6708 C 635.721 -0.544475 1.94004 0
M  V30 6709 O 634.777 -1.29735 2.16622 0
M  V30 6710 C 636.09 1.93575 2.30107 0
M  V30 6711 C 637.638 1.9642 2.43697 0
M  V30 6712 C 638.113 3.05559 3.41171 0
M  V30 6713 N 639.604 3.04865 3.48728 0
M  V30 6714 C 640.339 3.85954 4.24061 0
M  V30 6715 N 639.835 4.76977 5.02458 0
M  V30 6716 N 641.628 3.74172 4.19466 0
M  V30 6717 H 633.779 1.9942 0.731124 0
M  V30 6718 H 636.042 0.866607 0.384312 0
M  V30 6719 H 635.748 2.92943 1.94621 0
M  V30 6720 H 635.622 1.8229 3.30227 0
M  V30 6721 H 638.009 0.97685 2.78463 0
M  V30 6722 H 638.09 2.11782 1.43465 0
M  V30 6723 H 637.734 4.04513 3.07135 0
M  V30 6724 H 637.664 2.87438 4.41234 0
M  V30 6725 H 640.155 2.38908 2.92799 0
M  V30 6726 H 640.468 5.35409 5.57277 0
M  V30 6727 H 638.813 4.81006 5.01655 0
M  V30 6728 H 642.004 3.02412 3.57302 0
M  V30 6729 H 642.177 4.37602 4.77921 0
M  V30 6730 N 635.583 -1.29855 0.893053 0
M  V30 6731 C 636.999 -1.48366 0.588199 0
M  V30 6732 C 637.199 -1.81654 -0.872018 0
M  V30 6733 O 636.255 -1.909 -1.65268 0
M  V30 6734 C 637.568 -2.60136 1.5083 0
M  V30 6735 C 639.116 -2.74014 1.51279 0
M  V30 6736 C 639.591 -3.88905 2.41902 0
M  V30 6737 N 641.082 -3.96228 2.39911 0
M  V30 6738 C 641.817 -4.84458 3.06738 0
M  V30 6739 N 641.313 -5.77426 3.8282 0
M  V30 6740 N 643.106 -4.77894 2.95929 0
M  V30 6741 H 635.257 -1.06522 1.83757 0
M  V30 6742 H 637.52 -0.528495 0.787018 0
M  V30 6743 H 637.226 -2.42383 2.54839 0
M  V30 6744 H 637.1 -3.56793 1.22388 0
M  V30 6745 H 639.487 -2.91167 0.480179 0
M  V30 6746 H 639.568 -1.77952 1.83757 0
M  V30 6747 H 639.212 -3.72508 3.45253 0
M  V30 6748 H 639.142 -4.84322 2.06737 0
M  V30 6749 H 641.633 -3.29728 1.84629 0
M  V30 6750 H 641.946 -6.41529 4.30883 0
M  V30 6751 H 640.291 -5.77332 3.86927 0
M  V30 6752 H 643.482 -4.04248 2.36012 0
M  V30 6753 H 643.655 -5.46444 3.48286 0
M  V30 6754 N 637.061 -0.65484 -1.43351 0
M  V30 6755 C 638.308 -0.168892 -2.01794 0
M  V30 6756 C 638.636 1.2177 -1.51665 0
M  V30 6757 O 637.891 1.82717 -0.70092 0
M  V30 6758 C 638.19 -0.130424 -3.57162 0
M  V30 6759 C 637.856 -1.45898 -4.26643 0
M  V30 6760 C 636.518 -1.82279 -4.4534 0
M  V30 6761 C 638.87 -2.33485 -4.65976 0
M  V30 6762 C 636.198 -3.0591 -5.00635 0
M  V30 6763 C 638.55 -3.5641 -5.22642 0
M  V30 6764 C 637.214 -3.92985 -5.39555 0
M  V30 6765 H 636.484 -0.061802 -0.738418 0
M  V30 6766 H 639.131 -0.845869 -1.71806 0
M  V30 6767 H 637.436 0.630008 -3.86702 0
M  V30 6768 H 639.133 0.262465 -4.0014 0
M  V30 6769 H 635.723 -1.16591 -4.12437 0
M  V30 6770 H 639.907 -2.06668 -4.51223 0
M  V30 6771 H 635.163 -3.34295 -5.11915 0
M  V30 6772 H 639.337 -4.24495 -5.52066 0
M  V30 6773 H 636.964 -4.88862 -5.82167 0
M  V30 6774 N 638.539 1.52521 -0.396863 0
M  V30 6775 C 639.487 2.28217 0.44943 0
M  V30 6776 C 640.481 1.32416 1.05652 0
M  V30 6777 O 641.687 1.49925 0.996124 0
M  V30 6778 H 638.062 0.733966 0.1637 0
M  V30 6779 H 640.033 2.97658 -0.210367 0
M  V30 6780 C 638.782 3.10713 1.56054 0
M  V30 6781 H 638.105 3.84291 1.10273 0
M  V30 6782 H 639.545 3.66803 2.12677 0
M  V30 6783 C 638.004 2.23499 2.52091 0
M  V30 6784 O 638.534 1.8669 3.55682 0
M  V30 6785 N 636.74 1.8751 2.2201 0
M  V30 6786 H 636.287 2.17643 1.37802 0
M  V30 6787 H 636.245 1.29448 2.86514 0
M  V30 6788 N 640.017 0.126909 1.57088 0
M  V30 6789 C 641.245 -0.53667 1.99819 0
M  V30 6790 C 641.66 -1.5972 1.00673 0
M  V30 6791 O 641.017 -1.825 0.000747365 0
M  V30 6792 C 641.068 -1.15563 3.42531 0
M  V30 6793 O 640.789 -0.137483 4.37884 0
M  V30 6794 C 642.29 -1.90176 4.00435 0
M  V30 6795 H 639.51 -0.141443 0.655923 0
M  V30 6796 H 642.054 0.215578 2.03361 0
M  V30 6797 H 640.209 -1.85861 3.39904 0
M  V30 6798 H 640.623 -0.588229 5.21191 0
M  V30 6799 H 642.097 -2.28801 5.02349 0
M  V30 6800 H 642.574 -2.78002 3.40017 0
M  V30 6801 H 643.18 -1.24623 4.06632 0
M  V30 6802 N 641.495 -1.56914 -0.146875 0
M  V30 6803 C 642.458 -1.97368 -1.16526 0
M  V30 6804 C 643.458 -0.860223 -1.35856 0
M  V30 6805 O 644.648 -1.12684 -1.32846 0
M  V30 6806 C 641.78 -2.28974 -2.52555 0
M  V30 6807 H 642.973 -2.88523 -0.818209 0
M  V30 6808 H 640.526 -1.5135 -0.390221 0
M  V30 6809 H 641.261 -1.40611 -2.92231 0
M  V30 6810 H 641.046 -3.10157 -2.39886 0
M  V30 6811 H 642.536 -2.61109 -3.25902 0
M  V30 6812 N 642.974 0.416227 -1.52004 0
M  V30 6813 C 643.922 1.5272 -1.7544 0
M  V30 6814 C 644.916 1.57596 -0.621289 0
M  V30 6815 O 646.122 1.61087 -0.803172 0
M  V30 6816 H 642.497 0.507772 -0.554682 0
M  V30 6817 H 644.468 1.30136 -2.68528 0
M  V30 6818 C 643.217 2.90165 -1.91571 0
M  V30 6819 H 642.54 2.87154 -2.78178 0
M  V30 6820 H 643.98 3.67211 -2.11972 0
M  V30 6821 C 642.439 3.29947 -0.680942 0
M  V30 6822 O 642.969 4.01403 0.154527 0
M  V30 6823 N 641.175 2.8593 -0.518894 0
M  V30 6824 H 640.722 2.2795 -1.19986 0
M  V30 6825 H 640.68 3.12907 0.305985 0
M  V30 6826 N 644.452 1.42507 0.673017 0
M  V30 6827 C 645.729 1.33554 1.42908 0
M  V30 6828 C 646.109 -0.0262211 2.11084 0
M  V30 6829 O 645.457 -1.04181 2.03368 0
M  V30 6830 C 645.667 2.50498 2.43006 0
M  V30 6831 C 647.015 2.92694 3.07596 0
M  V30 6832 O 648.039 2.50401 2.53333 0
M  V30 6833 O 646.898 3.65899 4.05931 0
M  V30 6834 H 643.992 0.526785 0.637516 0
M  V30 6835 H 646.538 1.54518 0.701591 0
M  V30 6836 H 645.31 3.41272 1.9144 0
M  V30 6837 H 644.933 2.3153 3.23233 0
M  V30 6838 N 645.93 -0.909495 1.28709 0
M  V30 6839 C 647.207 -1.63865 1.06806 0
M  V30 6840 C 647.587 -2.07445 -0.391143 0
M  V30 6841 O 646.935 -1.82269 -1.37805 0
M  V30 6842 C 647.145 -2.82692 2.04661 0
M  V30 6843 C 648.493 -3.5361 2.35042 0
M  V30 6844 O 649.517 -2.92847 2.02779 0
M  V30 6845 O 648.376 -4.63131 2.90124 0
M  V30 6846 H 645.47 -0.719065 0.408502 0
M  V30 6847 H 648.016 -0.958424 1.40044 0
M  V30 6848 H 646.788 -2.47614 3.0299 0
M  V30 6849 H 646.411 -3.58426 1.72095 0
M  V30 6850 N 647.408 -1.11026 -1.11852 0
M  V30 6851 C 648.356 -0.759643 -2.19846 0
M  V30 6852 C 649.35 0.246964 -1.6759 0
M  V30 6853 O 650.556 0.106693 -1.79684 0
M  V30 6854 H 646.931 -0.22775 -0.716683 0
M  V30 6855 H 648.902 -1.6792 -2.46669 0
M  V30 6856 C 647.651 -0.214364 -3.47039 0
M  V30 6857 H 646.974 -0.980175 -3.87599 0
M  V30 6858 H 648.414 -0.00717047 -4.23999 0
M  V30 6859 C 646.873 1.05436 -3.19976 0
M  V30 6860 O 647.403 2.13483 -3.40276 0
M  V30 6861 N 645.609 0.975436 -2.7374 0
M  V30 6862 H 645.156 0.0960853 -2.57421 0
M  V30 6863 H 645.114 1.82501 -2.5601 0
M  V30 6864 N 648.886 1.2938 -0.899927 0
M  V30 6865 C 650.132 1.9584 -0.526742 0
M  V30 6866 C 650.465 1.70774 0.924651 0
M  V30 6867 O 649.74 1.02084 1.65557 0
M  V30 6868 C 650.023 3.50638 -0.820062 0
M  V30 6869 C 649.876 3.85161 -2.32317 0
M  V30 6870 C 651.195 4.3903 -0.30671 0
M  V30 6871 H 648.314 0.711322 -0.192848 0
M  V30 6872 H 650.956 1.52992 -1.12665 0
M  V30 6873 H 649.106 3.87265 -0.309491 0
M  V30 6874 H 650.778 3.58477 -2.9033 0
M  V30 6875 H 649.021 3.32696 -2.78381 0
M  V30 6876 H 649.692 4.93204 -2.47898 0
M  V30 6877 H 652.168 4.09396 -0.743908 0
M  V30 6878 H 651.044 5.46226 -0.541144 0
M  V30 6879 H 651.305 4.34937 0.792588 0
M  V30 6880 N 650.364 0.662433 1.43002 0
M  V30 6881 C 651.592 0.187615 2.06048 0
M  V30 6882 C 652.007 -1.15039 1.49705 0
M  V30 6883 O 651.364 -1.71209 0.631956 0
M  V30 6884 C 651.415 0.100498 3.6136 0
M  V30 6885 O 651.136 1.38562 4.15611 0
M  V30 6886 C 652.637 -0.399298 4.41498 0
M  V30 6887 H 649.857 0.0941675 0.664359 0
M  V30 6888 H 652.401 0.905681 1.83351 0
M  V30 6889 H 650.556 -0.568181 3.83211 0
M  V30 6890 H 650.97 1.25084 5.09366 0
M  V30 6891 H 652.444 -0.409187 5.50481 0
M  V30 6892 H 652.921 -1.43232 4.15188 0
M  V30 6893 H 653.527 0.23721 4.24638 0
M  V30 6894 N 651.842 -1.52309 0.404946 0
M  V30 6895 C 652.774 -2.24579 -0.45791 0
M  V30 6896 C 653.787 -1.2739 -1.01369 0
M  V30 6897 O 654.976 -1.53363 -0.91335 0
M  V30 6898 C 652.076 -2.9608 -1.64893 0
M  V30 6899 C 651.249 -4.20106 -1.21777 0
M  V30 6900 C 650.308 -4.74468 -2.27523 0
M  V30 6901 O 649.334 -5.37157 -1.88285 0
M  V30 6902 N 650.536 -4.55678 -3.59635 0
M  V30 6903 H 653.301 -2.99265 0.161341 0
M  V30 6904 H 650.862 -1.60228 0.232107 0
M  V30 6905 H 652.854 -3.29344 -2.35191 0
M  V30 6906 H 651.424 -2.24606 -2.17419 0
M  V30 6907 H 650.644 -3.92704 -0.343071 0
M  V30 6908 H 651.932 -5.00658 -0.906596 0
M  V30 6909 H 651.33 -4.05673 -3.94266 0
M  V30 6910 H 649.887 -4.9339 -4.25922 0
M  V30 6911 N 653.32 -0.135238 -1.57019 0
M  V30 6912 C 654.566 0.519563 -1.96032 0
M  V30 6913 C 654.899 1.65284 -1.01955 0
M  V30 6914 O 654.174 1.94408 -0.059727 0
M  V30 6915 C 654.457 1.0369 -3.44848 0
M  V30 6916 C 654.31 -0.0940754 -4.49702 0
M  V30 6917 C 655.629 1.92254 -3.95887 0
M  V30 6918 H 652.748 0.18739 -0.712779 0
M  V30 6919 H 655.39 -0.214086 -1.8879 0
M  V30 6920 H 653.54 1.66209 -3.5115 0
M  V30 6921 H 655.212 -0.73 -4.55487 0
M  V30 6922 H 653.455 -0.754924 -4.27181 0
M  V30 6923 H 654.126 0.309419 -5.51132 0
M  V30 6924 H 656.602 1.39581 -3.9199 0
M  V30 6925 H 655.478 2.25364 -5.00502 0
M  V30 6926 H 655.739 2.85513 -3.37543 0
M  V30 6927 N 654.798 1.5699 0.138552 0
M  V30 6928 C 656.214 1.51844 0.491472 0
M  V30 6929 C 656.414 0.845063 1.82923 0
M  V30 6930 O 655.47 0.419143 2.48997 0
M  V30 6931 C 656.783 2.96615 0.493987 0
M  V30 6932 C 658.331 3.076 0.578913 0
M  V30 6933 C 658.806 4.53893 0.612009 0
M  V30 6934 N 660.297 4.5827 0.673997 0
M  V30 6935 C 661.032 5.68852 0.720729 0
M  V30 6936 N 660.528 6.88982 0.726292 0
M  V30 6937 N 662.321 5.56908 0.762253 0
M  V30 6938 H 654.472 1.99158 -0.738228 0
M  V30 6939 H 656.735 0.908693 -0.270149 0
M  V30 6940 H 656.441 3.49172 -0.420933 0
M  V30 6941 H 656.315 3.53017 1.32887 0
M  V30 6942 H 658.702 2.55057 1.48425 0
M  V30 6943 H 658.783 2.54227 -0.283286 0
M  V30 6944 H 658.427 5.07076 -0.289208 0
M  V30 6945 H 658.357 5.05057 1.49082 0
M  V30 6946 H 660.848 3.71793 0.676654 0
M  V30 6947 H 661.161 7.69014 0.764032 0
M  V30 6948 H 659.506 6.91526 0.69403 0
M  V30 6949 H 662.697 4.61969 0.755135 0
M  V30 6950 H 662.87 6.43102 0.795207 0
M  V30 6951 N 656.276 -0.40816 1.52223 0
M  V30 6952 C 657.239 -1.48 1.7501 0
M  V30 6953 C 658.239 -1.48367 0.619996 0
M  V30 6954 O 659.429 -1.49874 0.887881 0
M  V30 6955 C 656.561 -2.87403 1.83336 0
M  V30 6956 H 657.754 -1.29086 2.70697 0
M  V30 6957 H 655.307 -0.638715 1.42654 0
M  V30 6958 H 656.042 -3.11686 0.895677 0
M  V30 6959 H 655.827 -2.8854 2.65494 0
M  V30 6960 H 657.317 -3.65103 2.02705 0
M  V30 6961 N 657.755 -1.42862 -0.66545 0
M  V30 6962 C 659.002 -1.4383 -1.42546 0
M  V30 6963 C 659.33 -0.0581114 -1.94413 0
M  V30 6964 O 658.585 0.935002 -1.71919 0
M  V30 6965 C 658.884 -2.4175 -2.63233 0
M  V30 6966 C 658.55 -3.87915 -2.29854 0
M  V30 6967 C 657.212 -4.27726 -2.20463 0
M  V30 6968 C 659.564 -4.80074 -2.02924 0
M  V30 6969 C 656.892 -5.57666 -1.82279 0
M  V30 6970 C 659.244 -6.10366 -1.66242 0
M  V30 6971 C 657.908 -6.49167 -1.55367 0
M  V30 6972 H 657.178 -0.52631 -0.521612 0
M  V30 6973 H 659.825 -1.75863 -0.757914 0
M  V30 6974 H 658.13 -2.03077 -3.35063 0
M  V30 6975 H 659.827 -2.39759 -3.21429 0
M  V30 6976 H 656.417 -3.564 -2.3807 0
M  V30 6977 H 660.601 -4.50097 -2.09108 0
M  V30 6978 H 655.857 -5.8658 -1.72436 0
M  V30 6979 H 660.031 -6.81258 -1.44432 0
M  V30 6980 H 657.658 -7.49761 -1.2555 0
M  V30 6981 N 659.233 0.902656 -1.29189 0
M  V30 6982 C 660.463 1.68394 -1.19695 0
M  V30 6983 C 660.871 1.87602 0.245384 0
M  V30 6984 O 660.214 1.41084 1.17648 0
M  V30 6985 C 660.276 3.09094 -1.83578 0
M  V30 6986 C 659.94 3.1313 -3.32864 0
M  V30 6987 C 660.937 2.93497 -4.29134 0
M  V30 6988 C 658.622 3.3529 -3.74013 0
M  V30 6989 C 660.616 2.95953 -5.64527 0
M  V30 6990 C 658.303 3.37377 -5.09529 0
M  V30 6991 C 659.301 3.1773 -6.04596 0
M  V30 6992 O 658.989 3.196 -7.37639 0
M  V30 6993 H 658.721 0.532815 -0.416034 0
M  V30 6994 H 661.275 1.1374 -1.71033 0
M  V30 6995 H 659.505 3.65338 -1.26747 0
M  V30 6996 H 661.194 3.69297 -1.68447 0
M  V30 6997 H 661.96 2.76192 -3.98677 0
M  V30 6998 H 657.839 3.49623 -3.00474 0
M  V30 6999 H 661.383 2.80536 -6.38706 0
M  V30 7000 H 657.28 3.54213 -5.39633 0
M  V30 7001 H 658.048 3.35887 -7.46406 0
M  V30 7002 N 660.711 1.11618 1.11262 0
M  V30 7003 C 661.957 0.867463 1.83311 0
M  V30 7004 C 662.29 -0.605366 1.84524 0
M  V30 7005 O 661.565 -1.44704 1.29965 0
M  V30 7006 C 661.848 1.43207 3.30399 0
M  V30 7007 C 661.701 2.97265 3.3757 0
M  V30 7008 C 663.02 1.08454 4.26528 0
M  V30 7009 H 660.139 0.316578 0.665543 0
M  V30 7010 H 662.781 1.38137 1.30454 0
M  V30 7011 H 660.931 0.994982 3.75543 0
M  V30 7012 H 662.603 3.49591 3.00971 0
M  V30 7013 H 660.846 3.33237 2.77733 0
M  V30 7014 H 661.517 3.31859 4.41105 0
M  V30 7015 H 663.993 1.4619 3.89574 0
M  V30 7016 H 662.869 1.50633 5.27826 0
M  V30 7017 H 663.13 -0.00444568 4.421 0
M  V30 7018 N 662.189 -1.289 0.906776 0
M  V30 7019 C 663.137 -2.29477 0.379873 0
M  V30 7020 C 664.131 -1.61068 -0.524747 0
M  V30 7021 O 665.337 -1.75344 -0.406765 0
M  V30 7022 H 661.712 -0.744742 0.10423 0
M  V30 7023 H 663.683 -2.71353 1.24137 0
M  V30 7024 C 662.432 -3.45713 -0.371154 0
M  V30 7025 H 661.755 -3.98551 0.315716 0
M  V30 7026 H 663.195 -4.18105 -0.704581 0
M  V30 7027 C 661.654 -2.9774 -1.57646 0
M  V30 7028 O 662.184 -2.99618 -2.67567 0
M  V30 7029 N 660.39 -2.53485 -1.42105 0
M  V30 7030 H 659.937 -2.52156 -0.526783 0
M  V30 7031 H 659.895 -2.21747 -2.22881 0
M  V30 7032 N 663.667 -0.670007 -1.42649 0
M  V30 7033 C 664.913 -0.190568 -2.01903 0
M  V30 7034 C 665.246 1.19817 -1.52832 0
M  V30 7035 O 664.521 1.80342 -0.728485 0
M  V30 7036 C 664.804 -0.21991 -3.59428 0
M  V30 7037 C 664.657 -1.64376 -4.18689 0
M  V30 7038 C 665.976 0.434519 -4.3795 0
M  V30 7039 H 663.095 -0.0707219 -0.733599 0
M  V30 7040 H 665.737 -0.853883 -1.69732 0
M  V30 7041 H 663.887 0.344894 -3.86966 0
M  V30 7042 H 665.559 -2.26044 -4.02122 0
M  V30 7043 H 663.802 -2.18591 -3.747 0
M  V30 7044 H 664.473 -1.61601 -5.27815 0
M  V30 7045 H 666.949 -0.0462156 -4.16074 0
M  V30 7046 H 665.825 0.38333 -5.4756 0
M  V30 7047 H 666.086 1.51135 -4.15464 0
M  V30 7048 N 665.145 1.52092 -0.413018 0
M  V30 7049 C 666.075 2.30021 0.401567 0
M  V30 7050 C 667.056 1.34395 1.04269 0
M  V30 7051 O 668.241 1.63304 1.05097 0
M  V30 7052 C 665.371 3.12447 1.51638 0
M  V30 7053 C 664.325 4.16153 1.00005 0
M  V30 7054 C 663.651 4.86948 2.20875 0
M  V30 7055 C 664.951 5.22275 0.0513757 0
M  V30 7056 H 666.645 2.98365 -0.248704 0
M  V30 7057 H 664.191 1.4349 -0.121052 0
M  V30 7058 H 666.144 3.65733 2.09326 0
M  V30 7059 H 664.868 2.41879 2.19458 0
M  V30 7060 H 663.527 3.63882 0.445549 0
M  V30 7061 H 663.175 4.12905 2.8726 0
M  V30 7062 H 662.875 5.57057 1.86978 0
M  V30 7063 H 664.399 5.43048 2.79162 0
M  V30 7064 H 665.813 5.70778 0.537176 0
M  V30 7065 H 664.21 5.9977 -0.198977 0
M  V30 7066 H 665.28 4.76611 -0.892736 0
M  V30 7067 N 666.623 0.143563 1.56945 0
M  V30 7068 C 667.571 -0.814556 2.17871 0
M  V30 7069 C 668.565 -1.25778 1.13474 0
M  V30 7070 O 669.771 -1.22666 1.31731 0
M  V30 7071 H 666.146 -0.280873 0.697578 0
M  V30 7072 H 668.117 -0.276459 2.97117 0
M  V30 7073 C 666.866 -2.04503 2.81201 0
M  V30 7074 H 666.189 -1.71296 3.61245 0
M  V30 7075 H 667.629 -2.69493 3.27337 0
M  V30 7076 C 666.088 -2.85079 1.79532 0
M  V30 7077 O 666.618 -3.81306 1.26368 0
M  V30 7078 N 664.824 -2.49546 1.48913 0
M  V30 7079 H 664.371 -1.71359 1.92338 0
M  V30 7080 H 664.329 -3.03751 0.811348 0
M  V30 7081 N 668.101 -1.57061 -0.130224 0
M  V30 7082 C 669.011 -2.02802 -1.17934 0
M  V30 7083 C 670.027 -0.946378 -1.46013 0
M  V30 7084 O 671.203 -1.25708 -1.57351 0
M  V30 7085 C 668.268 -2.41368 -2.48882 0
M  V30 7086 C 667.329 -3.63561 -2.28301 0
M  V30 7087 C 666.562 -4.00279 -3.53005 0
M  V30 7088 O 666.785 -3.37463 -4.59864 0
M  V30 7089 O 665.719 -4.93441 -3.44673 0
M  V30 7090 H 669.545 -2.92394 -0.820958 0
M  V30 7091 H 667.13 -1.45475 -0.340197 0
M  V30 7092 H 669.012 -2.66958 -3.26054 0
M  V30 7093 H 667.687 -1.54926 -2.84217 0
M  V30 7094 H 666.594 -3.43136 -1.49025 0
M  V30 7095 H 667.927 -4.50673 -1.97875 0
M  V30 7096 N 669.579 0.400081 -1.52437 0
M  V30 7097 C 670.489 1.51253 -1.79331 0
M  V30 7098 C 671.505 1.60188 -0.679396 0
M  V30 7099 O 672.681 1.76733 -0.965791 0
M  V30 7100 C 669.746 2.869 -1.94652 0
M  V30 7101 C 668.807 2.87777 -3.18564 0
M  V30 7102 C 668.04 4.16954 -3.33145 0
M  V30 7103 O 668.263 5.11329 -2.52783 0
M  V30 7104 O 667.197 4.2487 -4.26343 0
M  V30 7105 H 671.023 1.31461 -2.73773 0
M  V30 7106 H 668.608 0.586834 -1.37392 0
M  V30 7107 H 670.49 3.67336 -2.065 0
M  V30 7108 H 669.165 3.06741 -1.034 0
M  V30 7109 H 668.072 2.06162 -3.12167 0
M  V30 7110 H 669.405 2.72886 -4.09627 0
M  V30 7111 N 671.057 1.43213 0.657864 0
M  V30 7112 C 671.989 1.43974 1.78337 0
M  V30 7113 C 673.002 0.336482 1.59285 0
M  V30 7114 O 674.191 0.600631 1.68091 0
M  V30 7115 C 671.291 1.23242 3.15697 0
M  V30 7116 C 670.464 2.46319 3.61449 0
M  V30 7117 C 669.523 2.2088 4.77597 0
M  V30 7118 O 668.549 2.942 4.87273 0
M  V30 7119 N 669.751 1.22251 5.67481 0
M  V30 7120 H 672.516 2.40993 1.78164 0
M  V30 7121 H 670.077 1.3831 0.841549 0
M  V30 7122 H 672.069 1.04113 3.91079 0
M  V30 7123 H 670.639 0.346849 3.1067 0
M  V30 7124 H 669.859 2.80904 2.76563 0
M  V30 7125 H 671.147 3.28239 3.88763 0
M  V30 7126 H 670.545 0.616433 5.62331 0
M  V30 7127 H 669.102 1.09107 6.42603 0
M  V30 7128 N 672.536 -0.895792 1.29666 0
M  V30 7129 C 673.952 -1.17726 1.07763 0
M  V30 7130 C 674.152 -2.00794 -0.168576 0
M  V30 7131 O 673.208 -2.37213 -0.865244 0
M  V30 7132 C 674.521 -1.89441 2.33522 0
M  V30 7133 C 676.069 -2.02251 2.3888 0
M  V30 7134 C 676.544 -2.77378 3.64452 0
M  V30 7135 N 678.035 -2.8493 3.65198 0
M  V30 7136 C 678.77 -3.43606 4.59045 0
M  V30 7137 N 678.266 -4.03417 5.63228 0
M  V30 7138 N 680.059 -3.41317 4.46608 0
M  V30 7139 H 672.21 -0.341652 2.09634 0
M  V30 7140 H 674.473 -0.213865 0.923561 0
M  V30 7141 H 674.179 -1.35842 3.24407 0
M  V30 7142 H 674.053 -2.89893 2.41334 0
M  V30 7143 H 676.44 -2.55025 1.4848 0
M  V30 7144 H 676.521 -1.0092 2.3505 0
M  V30 7145 H 676.165 -2.25279 4.55205 0
M  V30 7146 H 676.095 -3.79062 3.65541 0
M  V30 7147 H 678.586 -2.42453 2.89871 0
M  V30 7148 H 678.899 -4.46224 6.30955 0
M  V30 7149 H 677.244 -4.01868 5.67033 0
M  V30 7150 H 680.435 -2.93812 3.64407 0
M  V30 7151 H 680.608 -3.86751 5.1993 0
M  V30 7152 N 674.014 -1.12206 -1.10668 0
M  V30 7153 C 674.961 -0.787716 -2.16942 0
M  V30 7154 C 675.931 0.244442 -1.64291 0
M  V30 7155 O 677.116 0.119558 -1.90425 0
M  V30 7156 C 674.256 -0.24584 -3.44223 0
M  V30 7157 C 673.369 -1.33552 -4.10838 0
M  V30 7158 C 672.504 -0.753337 -5.25831 0
M  V30 7159 C 671.543 -1.82231 -5.84344 0
M  V30 7160 N 670.68 -1.25902 -6.90719 0
M  V30 7161 H 675.52 -1.69809 -2.44885 0
M  V30 7162 H 673.057 -0.847862 -1.20207 0
M  V30 7163 H 675.015 0.0863639 -4.17111 0
M  V30 7164 H 673.645 0.627702 -3.16638 0
M  V30 7165 H 672.697 -1.78454 -3.35944 0
M  V30 7166 H 674.009 -2.14396 -4.50373 0
M  V30 7167 H 673.163 -0.37166 -6.05561 0
M  V30 7168 H 671.902 0.0863297 -4.87624 0
M  V30 7169 H 670.907 -2.2132 -5.03287 0
M  V30 7170 H 672.132 -2.66515 -6.24617 0
M  V30 7171 H 670.078 -0.44114 -6.54515 0
M  V30 7172 H 669.995 -2.00408 -7.28953 0
M  V30 7173 H 671.263 -0.904498 -7.74235 0
M  V30 7174 N 675.492 1.28418 -0.913599 0
M  V30 7175 C 676.908 1.47411 -0.611728 0
M  V30 7176 C 677.108 1.83018 0.843008 0
M  V30 7177 O 676.164 1.93505 1.6221 0
M  V30 7178 C 677.477 2.57703 -1.5495 0
M  V30 7179 C 679.025 2.71572 -1.5562 0
M  V30 7180 C 679.5 3.85008 -2.48058 0
M  V30 7181 N 680.991 3.92361 -2.46184 0
M  V30 7182 C 681.726 4.79516 -3.14407 0
M  V30 7183 N 681.222 5.71262 -3.91958 0
M  V30 7184 N 683.015 4.73125 -3.03495 0
M  V30 7185 H 675.166 1.03585 -1.85429 0
M  V30 7186 H 677.429 0.515907 -0.795326 0
M  V30 7187 H 677.135 2.38298 -2.58663 0
M  V30 7188 H 677.009 3.54801 -1.28048 0
M  V30 7189 H 679.396 2.90366 -0.526441 0
M  V30 7190 H 679.477 1.75006 -1.86565 0
M  V30 7191 H 679.121 3.66969 -3.51136 0
M  V30 7192 H 679.051 4.80971 -2.14416 0
M  V30 7193 H 681.542 3.26749 -1.89851 0
M  V30 7194 H 681.855 6.34593 -4.41034 0
M  V30 7195 H 680.2 5.71103 -3.96063 0
M  V30 7196 H 683.391 4.00442 -2.42413 0
M  V30 7197 H 683.564 5.40834 -3.56935 0
M  V30 7198 N 676.97 0.677563 1.42291 0
M  V30 7199 C 677.9 0.014968 2.33495 0
M  V30 7200 C 678.881 -0.786376 1.50831 0
M  V30 7201 O 680.066 -0.742975 1.79426 0
M  V30 7202 C 677.196 -0.935023 3.34477 0
M  V30 7203 C 676.15 -0.242074 4.27315 0
M  V30 7204 C 675.476 -1.30519 5.18526 0
M  V30 7205 C 676.776 0.880604 5.14823 0
M  V30 7206 H 678.47 0.776671 2.89151 0
M  V30 7207 H 676.016 0.37494 1.39033 0
M  V30 7208 H 677.969 -1.40766 3.97194 0
M  V30 7209 H 676.693 -1.72818 2.77131 0
M  V30 7210 H 675.352 0.210351 3.65996 0
M  V30 7211 H 675 -2.09041 4.57505 0
M  V30 7212 H 674.7 -0.846652 5.81468 0
M  V30 7213 H 676.224 -1.7787 5.84119 0
M  V30 7214 H 677.638 0.489062 5.7121 0
M  V30 7215 H 676.035 1.26511 5.86613 0
M  V30 7216 H 677.105 1.72818 4.53059 0
M  V30 7217 N 678.448 -1.51871 0.421078 0
M  V30 7218 C 679.688 -2.03848 -0.150167 0
M  V30 7219 C 680.052 -1.29925 -1.41363 0
M  V30 7220 O 681.253 -1.7219 -2.06408 0
M  V30 7221 C 679.524 -3.55374 -0.38003 0
M  V30 7222 S 681.083 -4.29111 -0.917011 0
M  V30 7223 H 677.901 -0.709904 -0.0394639 0
M  V30 7224 H 680.503 -1.86799 0.576746 0
M  V30 7225 H 679.207 -4.0675 0.546122 0
M  V30 7226 H 678.738 -3.76687 -1.13448 0
M  V30 7227 H 680.753 -4.44944 -2.19635 0
M  V30 7228 N 679.926 -0.151884 -1.56866 0
M  V30 7229 C 680.836 0.798876 -2.20579 0
M  V30 7230 C 681.852 1.268 -1.19154 0
M  V30 7231 O 683.028 1.32418 -1.51748 0
M  V30 7232 C 680.093 2.01861 -2.81874 0
M  V30 7233 C 679.154 1.59825 -3.9844 0
M  V30 7234 C 678.387 2.75984 -4.56802 0
M  V30 7235 O 678.61 3.92331 -4.14044 0
M  V30 7236 O 677.544 2.51175 -5.46987 0
M  V30 7237 H 681.37 0.2865 -3.02346 0
M  V30 7238 H 678.955 0.0753806 -1.4921 0
M  V30 7239 H 680.837 2.73235 -3.20813 0
M  V30 7240 H 679.512 2.52042 -2.03117 0
M  V30 7241 H 678.419 0.854601 -3.64208 0
M  V30 7242 H 679.752 1.14355 -4.78731 0
M  V30 7243 N 681.404 1.57128 0.121893 0
M  V30 7244 C 682.352 2.01109 1.16868 0
M  V30 7245 C 683.346 0.907532 1.43039 0
M  V30 7246 O 684.552 1.09274 1.43036 0
M  V30 7247 H 680.927 0.640539 0.393971 0
M  V30 7248 H 682.898 2.88261 0.771224 0
M  V30 7249 C 681.647 2.42887 2.48799 0
M  V30 7250 H 680.97 3.2737 2.29498 0
M  V30 7251 H 682.41 2.77461 3.20611 0
M  V30 7252 C 680.869 1.29137 3.11168 0
M  V30 7253 O 681.399 0.605756 3.97106 0
M  V30 7254 N 679.605 1.04916 2.71 0
M  V30 7255 H 679.152 1.60848 2.01211 0
M  V30 7256 H 679.11 0.290016 3.1306 0
M  V30 7257 N 682.882 -0.391992 1.52647 0
M  V30 7258 C 684.131 -1.13449 1.6677 0
M  V30 7259 C 684.444 -1.91203 0.412399 0
M  V30 7260 O 685.65 -2.68013 0.433707 0
M  V30 7261 C 684.106 -2.06577 2.9471 0
M  V30 7262 C 683.714 -1.3426 4.27409 0
M  V30 7263 C 685.458 -2.80981 3.18198 0
M  V30 7264 C 683.365 -2.26136 5.46458 0
M  V30 7265 H 682.295 -0.427211 0.621295 0
M  V30 7266 H 684.946 -0.397522 1.79142 0
M  V30 7267 H 683.328 -2.83898 2.76076 0
M  V30 7268 H 684.502 -0.621856 4.56585 0
M  V30 7269 H 682.817 -0.718279 4.10158 0
M  V30 7270 H 685.414 -3.49898 4.04321 0
M  V30 7271 H 685.757 -3.44891 2.33144 0
M  V30 7272 H 686.29 -2.10754 3.37383 0
M  V30 7273 H 683.029 -1.66846 6.33911 0
M  V30 7274 H 682.549 -2.96134 5.21598 0
M  V30 7275 H 684.228 -2.86286 5.80215 0
M  V30 7276 N 684.36 -1.4356 -0.65026 0
M  V30 7277 C 685.323 -1.48615 -1.74489 0
M  V30 7278 C 686.323 -0.370483 -1.56474 0
M  V30 7279 O 687.513 -0.632351 -1.62317 0
M  V30 7280 C 684.645 -1.34161 -3.13391 0
M  V30 7281 H 685.838 -2.46103 -1.71387 0
M  V30 7282 H 683.391 -1.30369 -0.862186 0
M  V30 7283 H 684.126 -0.376918 -3.22102 0
M  V30 7284 H 683.911 -2.1504 -3.27872 0
M  V30 7285 H 685.401 -1.40637 -3.93206 0
M  V30 7286 N 685.838 0.888903 -1.30139 0
M  V30 7287 C 687.086 1.63713 -1.18501 0
M  V30 7288 C 687.407 1.9324 0.261399 0
M  V30 7289 O 686.677 1.56608 1.17689 0
M  V30 7290 H 685.257 0.606861 -0.435579 0
M  V30 7291 H 687.919 1.06525 -1.63213 0
M  V30 7292 H 687.015 2.58894 -1.743 0
M  V30 7293 N 687.317 1.12792 1.10072 0
M  V30 7294 C 688.267 0.768086 2.14673 0
M  V30 7295 C 689.251 -0.234716 1.59179 0
M  V30 7296 O 690.443 -0.039643 1.76956 0
M  V30 7297 C 687.572 0.228472 3.42539 0
M  V30 7298 C 686.658 1.25979 4.04957 0
M  V30 7299 N 687.049 2.4586 4.42025 0
M  V30 7300 C 685.347 1.10602 4.32069 0
M  V30 7301 C 686.048 3.11747 4.9111 0
M  V30 7302 N 685.024 2.39185 4.88151 0
M  V30 7303 H 688.826 1.68029 2.4113 0
M  V30 7304 H 686.34 1.00925 1.27232 0
M  V30 7305 H 688.337 -0.0475216 4.16873 0
M  V30 7306 H 686.997 -0.678136 3.1754 0
M  V30 7307 H 688.008 2.83215 4.33601 0
M  V30 7308 H 684.685 0.257021 4.16708 0
M  V30 7309 H 686.075 4.13862 5.29309 0
M  V30 7310 N 688.795 -1.27931 0.920396 0
M  V30 7311 C 689.725 -2.29487 0.431024 0
M  V30 7312 C 690.706 -1.62435 -0.504861 0
M  V30 7313 O 691.891 -1.89797 -0.411176 0
M  V30 7314 C 689.021 -3.45788 -0.323709 0
M  V30 7315 C 687.975 -4.24784 0.523658 0
M  V30 7316 C 687.301 -5.33488 -0.359809 0
M  V30 7317 C 688.601 -4.90874 1.78437 0
M  V30 7318 H 690.295 -2.70671 1.27975 0
M  V30 7319 H 687.841 -1.30121 0.616813 0
M  V30 7320 H 689.794 -4.15927 -0.676952 0
M  V30 7321 H 688.518 -3.03502 -1.2064 0
M  V30 7322 H 687.177 -3.56382 0.85951 0
M  V30 7323 H 686.825 -4.87445 -1.24124 0
M  V30 7324 H 686.525 -5.87247 0.203605 0
M  V30 7325 H 688.049 -6.06472 -0.708787 0
M  V30 7326 H 689.463 -5.53339 1.49963 0
M  V30 7327 H 687.86 -5.54659 2.29071 0
M  V30 7328 H 688.93 -4.14988 2.50824 0
M  V30 7329 N 690.273 -0.685099 -1.4193 0
M  V30 7330 C 691.22 -0.0131869 -2.30796 0
M  V30 7331 C 692.19 0.782129 -1.46533 0
M  V30 7332 O 693.375 0.75229 -1.75343 0
M  V30 7333 C 690.515 0.924768 -3.32479 0
M  V30 7334 C 689.628 0.122181 -4.31827 0
M  V30 7335 C 688.763 1.05682 -5.20581 0
M  V30 7336 C 687.802 0.246526 -6.11603 0
M  V30 7337 N 686.939 1.13442 -6.92875 0
M  V30 7338 H 691.779 -0.776789 -2.87698 0
M  V30 7339 H 689.316 -0.394791 -1.41703 0
M  V30 7340 H 691.274 1.48251 -3.89971 0
M  V30 7341 H 689.904 1.65488 -2.77152 0
M  V30 7342 H 688.956 -0.552335 -3.76369 0
M  V30 7343 H 690.268 -0.506473 -4.96222 0
M  V30 7344 H 689.422 1.68415 -5.82856 0
M  V30 7345 H 688.161 1.71935 -4.56388 0
M  V30 7346 H 687.166 -0.393944 -5.48387 0
M  V30 7347 H 688.391 -0.412053 -6.77849 0
M  V30 7348 H 686.337 1.78316 -6.313 0
M  V30 7349 H 686.254 0.561089 -7.53915 0
M  V30 7350 H 687.522 1.74889 -7.59628 0
M  V30 7351 N 691.751 1.51645 -0.429126 0
M  V30 7352 C 693.028 1.94579 0.199614 0
M  V30 7353 C 693.408 1.3673 1.60836 0
M  V30 7354 O 692.756 0.551062 2.21756 0
M  V30 7355 C 692.966 3.48506 0.185685 0
M  V30 7356 C 694.314 4.22756 0.395282 0
M  V30 7357 O 695.338 3.55219 0.264165 0
M  V30 7358 O 694.197 5.42555 0.655475 0
M  V30 7359 H 691.291 0.816007 0.134393 0
M  V30 7360 H 693.837 1.62577 -0.486513 0
M  V30 7361 H 692.609 3.83045 -0.799508 0
M  V30 7362 H 692.232 3.86927 0.91507 0
M  V30 7363 N 693.229 0.160201 1.56784 0
M  V30 7364 C 694.192 -0.760405 2.16219 0
M  V30 7365 C 695.192 -1.16595 1.10735 0
M  V30 7366 O 696.382 -1.08472 1.36306 0
M  V30 7367 C 693.514 -2.03358 2.73603 0
M  V30 7368 H 694.707 -0.243173 2.98912 0
M  V30 7369 H 692.26 -0.0893139 1.56045 0
M  V30 7370 H 692.995 -2.59416 1.94612 0
M  V30 7371 H 692.78 -1.75186 3.50788 0
M  V30 7372 H 694.27 -2.69081 3.19351 0
M  V30 7373 N 694.707 -1.5719 -0.113559 0
M  V30 7374 C 695.639 -1.97393 -1.16484 0
M  V30 7375 C 696.652 -0.873964 -1.37352 0
M  V30 7376 O 697.841 -1.15222 -1.36331 0
M  V30 7377 C 694.941 -2.26174 -2.52386 0
M  V30 7378 C 694.114 -3.57479 -2.52046 0
M  V30 7379 C 693.173 -3.74409 -3.69735 0
M  V30 7380 O 692.199 -4.46463 -3.53071 0
M  V30 7381 N 693.401 -3.13588 -4.88511 0
M  V30 7382 H 696.166 -2.88184 -0.822814 0
M  V30 7383 H 693.727 -1.59044 -0.302769 0
M  V30 7384 H 695.719 -2.3471 -3.29687 0
M  V30 7385 H 694.289 -1.41483 -2.7875 0
M  V30 7386 H 693.509 -3.60081 -1.60421 0
M  V30 7387 H 694.797 -4.43775 -2.48881 0
M  V30 7388 H 694.195 -2.55026 -5.04953 0
M  V30 7389 H 692.752 -3.27637 -5.63469 0
M  V30 7390 N 696.185 0.383891 -1.52853 0
M  V30 7391 C 697.434 1.12563 -1.67369 0
M  V30 7392 C 697.747 1.90982 -0.422533 0
M  V30 7393 O 698.953 2.6778 -0.447914 0
M  V30 7394 C 697.409 2.05011 -2.95801 0
M  V30 7395 C 697.017 1.31991 -4.28115 0
M  V30 7396 C 698.761 2.79289 -3.19684 0
M  V30 7397 C 696.668 2.23235 -5.4765 0
M  V30 7398 H 695.598 0.42391 -0.623552 0
M  V30 7399 H 698.249 0.388016 -1.79351 0
M  V30 7400 H 696.631 2.82429 -2.77578 0
M  V30 7401 H 697.805 0.597633 -4.56908 0
M  V30 7402 H 696.12 0.696517 -4.10533 0
M  V30 7403 H 698.717 3.47749 -4.06171 0
M  V30 7404 H 699.06 3.43649 -2.3497 0
M  V30 7405 H 699.593 2.08962 -3.38496 0
M  V30 7406 H 696.332 1.63482 -6.34786 0
M  V30 7407 H 695.852 2.93364 -5.23161 0
M  V30 7408 H 697.531 2.83205 -5.81725 0
M  V30 7409 N 697.663 1.43903 0.642637 0
M  V30 7410 C 698.91 1.46079 1.40239 0
M  V30 7411 C 699.238 0.0890335 1.94296 0
M  V30 7412 O 698.493 -0.907533 1.73385 0
M  V30 7413 C 698.792 2.45907 2.59354 0
M  V30 7414 C 698.458 3.91522 2.23654 0
M  V30 7415 C 697.12 4.31179 2.1363 0
M  V30 7416 C 699.472 4.83242 1.95261 0
M  V30 7417 C 696.8 5.60495 1.73384 0
M  V30 7418 C 699.152 6.12933 1.56511 0
M  V30 7419 C 697.816 6.51556 1.4502 0
M  V30 7420 H 697.086 0.534542 0.513172 0
M  V30 7421 H 699.733 1.77047 0.72984 0
M  V30 7422 H 698.038 2.08381 3.3179 0
M  V30 7423 H 699.735 2.44842 3.17574 0
M  V30 7424 H 696.325 3.60142 2.32369 0
M  V30 7425 H 700.509 4.53367 2.0192 0
M  V30 7426 H 695.765 5.89249 1.63082 0
M  V30 7427 H 699.939 6.83469 1.33576 0
M  V30 7428 H 697.566 7.51663 1.13606 0
M  V30 7429 N 699.141 -0.881989 1.30609 0
M  V30 7430 C 700.39 -1.62878 1.18969 0
M  V30 7431 C 700.703 -1.93946 -0.253859 0
M  V30 7432 O 701.909 -2.67008 -0.491813 0
M  V30 7433 C 700.365 -2.93573 2.0819 0
M  V30 7434 C 699.973 -2.70034 3.57471 0
M  V30 7435 C 701.717 -3.71543 2.0532 0
M  V30 7436 C 699.624 -3.96563 4.38739 0
M  V30 7437 H 698.554 -0.611092 0.441682 0
M  V30 7438 H 701.205 -0.976201 1.55379 0
M  V30 7439 H 699.587 -3.6014 1.64666 0
M  V30 7440 H 700.761 -2.11949 4.09163 0
M  V30 7441 H 699.076 -2.05435 3.62195 0
M  V30 7442 H 701.673 -4.65386 2.63288 0
M  V30 7443 H 702.016 -4.03167 1.03739 0
M  V30 7444 H 702.549 -3.11842 2.46981 0
M  V30 7445 H 699.288 -3.70095 5.41027 0
M  V30 7446 H 698.808 -4.54142 3.9181 0
M  V30 7447 H 700.487 -4.64557 4.50329 0
M  V30 7448 N 700.619 -1.13374 -1.09472 0
M  V30 7449 C 701.551 -0.768466 -2.15933 0
M  V30 7450 C 702.564 0.209585 -1.61445 0
M  V30 7451 O 703.753 -0.010539 -1.78497 0
M  V30 7452 C 700.853 -0.118266 -3.38694 0
M  V30 7453 C 700.026 -1.12829 -4.22597 0
M  V30 7454 C 699.085 -0.503875 -5.23782 0
M  V30 7455 O 698.111 -1.16374 -5.57177 0
M  V30 7456 N 699.313 0.724288 -5.75964 0
M  V30 7457 H 702.078 -1.68457 -2.47876 0
M  V30 7458 H 699.639 -1.02668 -1.25183 0
M  V30 7459 H 701.631 0.311698 -4.03498 0
M  V30 7460 H 700.201 0.700769 -3.04644 0
M  V30 7461 H 699.421 -1.73556 -3.53938 0
M  V30 7462 H 700.709 -1.81095 -4.75481 0
M  V30 7463 H 700.107 1.27918 -5.51048 0
M  V30 7464 H 698.664 1.09692 -6.42504 0
M  V30 7465 N 702.098 1.27442 -0.927168 0
M  V30 7466 C 703.045 2.26863 -0.424459 0
M  V30 7467 C 704.015 1.5813 0.508346 0
M  V30 7468 O 705.2 1.85946 0.42762 0
M  V30 7469 C 702.34 3.43639 0.31718 0
M  V30 7470 C 701.453 4.27087 -0.649675 0
M  V30 7471 C 700.588 5.31082 0.111753 0
M  V30 7472 C 699.627 6.062 -0.847843 0
M  V30 7473 N 698.764 7.01999 -0.119074 0
M  V30 7474 H 703.604 2.69239 -1.27728 0
M  V30 7475 H 701.141 1.32394 -0.641106 0
M  V30 7476 H 703.099 4.10155 0.763486 0
M  V30 7477 H 701.729 3.02217 1.13424 0
M  V30 7478 H 700.781 3.60491 -1.21451 0
M  V30 7479 H 702.093 4.79242 -1.38307 0
M  V30 7480 H 701.247 6.03544 0.618 0
M  V30 7481 H 699.986 4.7973 0.878114 0
M  V30 7482 H 698.991 5.32577 -1.36534 0
M  V30 7483 H 700.216 6.59642 -1.61398 0
M  V30 7484 H 698.162 6.52977 0.629051 0
M  V30 7485 H 698.079 7.5184 -0.792046 0
M  V30 7486 H 699.347 7.78638 0.366537 0
M  V30 7487 N 703.576 0.692616 1.41565 0
M  V30 7488 C 704.523 0.0254264 2.30786 0
M  V30 7489 C 705.493 -0.774347 1.46946 0
M  V30 7490 O 706.678 -0.742981 1.7574 0
M  V30 7491 C 703.818 -0.907123 3.32964 0
M  V30 7492 C 702.931 -0.0992784 4.31886 0
M  V30 7493 C 702.066 -1.0292 5.21134 0
M  V30 7494 C 701.105 -0.214088 6.11725 0
M  V30 7495 N 700.242 -1.09766 6.93467 0
M  V30 7496 H 705.082 0.792036 2.87282 0
M  V30 7497 H 702.619 0.4023 1.41492 0
M  V30 7498 H 704.577 -1.46181 3.90752 0
M  V30 7499 H 703.207 -1.64016 2.78026 0
M  V30 7500 H 702.259 0.572287 3.76071 0
M  V30 7501 H 703.571 0.532782 4.95946 0
M  V30 7502 H 702.725 -1.65321 5.83741 0
M  V30 7503 H 701.464 -1.69512 4.57293 0
M  V30 7504 H 700.469 0.42302 5.4817 0
M  V30 7505 H 701.694 0.447995 6.77621 0
M  V30 7506 H 699.64 -1.74965 6.32237 0
M  V30 7507 H 699.557 -0.521099 7.54202 0
M  V30 7508 H 700.825 -1.70858 7.60544 0
M  V30 7509 N 705.054 -1.51416 0.437162 0
M  V30 7510 C 706.017 -2.26312 -0.362729 0
M  V30 7511 C 707.017 -1.29748 -0.949847 0
M  V30 7512 O 708.207 -1.53462 -0.824325 0
M  V30 7513 C 705.339 -3.05475 -1.5132 0
M  V30 7514 H 706.532 -2.98459 0.29365 0
M  V30 7515 H 704.085 -1.55137 0.190327 0
M  V30 7516 H 704.82 -2.37744 -2.20563 0
M  V30 7517 H 704.605 -3.76401 -1.09838 0
M  V30 7518 H 706.095 -3.62209 -2.07833 0
M  V30 7519 N 706.532 -0.168513 -1.56696 0
M  V30 7520 C 707.778 0.477865 -1.9709 0
M  V30 7521 C 708.111 1.63084 -1.05438 0
M  V30 7522 O 707.386 1.94238 -0.10095 0
M  V30 7523 C 707.669 0.963521 -3.4697 0
M  V30 7524 C 707.522 -0.189443 -4.49401 0
M  V30 7525 C 708.841 1.83813 -3.99876 0
M  V30 7526 H 705.96 0.172229 -0.716593 0
M  V30 7527 H 708.602 -0.254083 -1.88293 0
M  V30 7528 H 706.752 1.58724 -3.54597 0
M  V30 7529 H 708.424 -0.826451 -4.53836 0
M  V30 7530 H 706.667 -0.845366 -4.25483 0
M  V30 7531 H 707.338 0.192446 -5.51664 0
M  V30 7532 H 709.814 1.31235 -3.94863 0
M  V30 7533 H 708.69 2.14697 -5.0517 0
M  V30 7534 H 708.951 2.78289 -3.43523 0
M  V30 7535 N 708.01 1.57248 0.105221 0
M  V30 7536 C 708.957 2.01338 1.12835 0
M  V30 7537 C 709.927 0.887897 1.40377 0
M  V30 7538 O 711.112 1.15315 1.5201 0
M  V30 7539 C 708.252 2.43432 2.44611 0
M  V30 7540 C 707.365 3.69457 2.23888 0
M  V30 7541 C 706.5 4.00473 3.48991 0
M  V30 7542 C 705.539 5.19638 3.23485 0
M  V30 7543 N 704.676 5.46457 4.40828 0
M  V30 7544 H 709.516 2.88527 0.745386 0
M  V30 7545 H 707.053 1.42714 0.356535 0
M  V30 7546 H 709.011 2.65879 3.21503 0
M  V30 7547 H 707.641 1.59266 2.80774 0
M  V30 7548 H 706.693 3.54545 1.37847 0
M  V30 7549 H 708.005 4.56497 2.01026 0
M  V30 7550 H 707.159 4.23642 4.34295 0
M  V30 7551 H 705.898 3.11935 3.74897 0
M  V30 7552 H 704.903 4.96299 2.36574 0
M  V30 7553 H 706.128 6.09766 2.98935 0
M  V30 7554 H 704.074 4.60876 4.66829 0
M  V30 7555 H 703.991 6.27849 4.2112 0
M  V30 7556 H 705.259 5.74155 5.27225 0
M  V30 7557 N 709.488 -0.375779 1.53054 0
M  V30 7558 C 710.436 -1.48015 1.79428 0
M  V30 7559 C 711.43 -1.55893 0.662854 0
M  V30 7560 O 712.636 -1.58901 0.845599 0
M  V30 7561 H 709.011 -0.492887 0.56795 0
M  V30 7562 H 710.982 -1.22971 2.71884 0
M  V30 7563 C 709.731 -2.84984 1.99197 0
M  V30 7564 H 709.054 -2.79677 2.85693 0
M  V30 7565 H 710.494 -3.61462 2.21633 0
M  V30 7566 C 708.953 -3.28025 0.768183 0
M  V30 7567 O 709.483 -4.01671 -0.0480482 0
M  V30 7568 N 707.689 -2.84454 0.594521 0
M  V30 7569 H 707.236 -2.24688 1.25988 0
M  V30 7570 H 707.194 -3.13609 -0.222916 0
M  V30 7571 N 710.966 -1.44241 -0.634997 0
M  V30 7572 C 712.213 -1.46821 -1.39463 0
M  V30 7573 C 712.541 -0.0993362 -1.94246 0
M  V30 7574 O 711.796 0.898325 -1.73864 0
M  V30 7575 C 712.095 -2.47279 -2.58046 0
M  V30 7576 C 711.761 -3.92703 -2.21574 0
M  V30 7577 C 710.423 -4.32306 -2.1134 0
M  V30 7578 C 712.775 -4.84271 -1.92695 0
M  V30 7579 C 710.103 -5.61407 -1.70409 0
M  V30 7580 C 712.455 -6.13755 -1.53258 0
M  V30 7581 C 711.119 -6.52316 -1.41562 0
M  V30 7582 H 710.389 -0.537256 -0.51033 0
M  V30 7583 H 713.036 -1.77431 -0.720441 0
M  V30 7584 H 711.341 -2.10138 -3.3068 0
M  V30 7585 H 713.038 -2.46523 -3.16271 0
M  V30 7586 H 709.628 -3.61369 -2.30456 0
M  V30 7587 H 713.812 -4.54432 -1.99513 0
M  V30 7588 H 709.068 -5.90105 -1.59955 0
M  V30 7589 H 713.242 -6.84168 -1.29949 0
M  V30 7590 H 710.869 -7.52255 -1.09619 0
M  V30 7591 N 712.444 0.87505 -1.31075 0
M  V30 7592 C 713.672 1.66058 -1.23419 0
M  V30 7593 C 714.087 1.87723 0.201347 0
M  V30 7594 O 713.444 1.43178 1.13165 0
M  V30 7595 C 713.495 3.03142 -1.96945 0
M  V30 7596 O 713.216 2.82448 -3.34895 0
M  V30 7597 C 714.717 3.97583 -1.96067 0
M  V30 7598 H 711.937 0.517868 -0.426677 0
M  V30 7599 H 714.481 1.09258 -1.72867 0
M  V30 7600 H 712.636 3.56645 -1.51271 0
M  V30 7601 H 713.05 3.69483 -3.72267 0
M  V30 7602 H 714.524 4.91104 -2.52034 0
M  V30 7603 H 715.001 4.2898 -0.941961 0
M  V30 7604 H 715.607 3.50015 -2.41597 0
M  V30 7605 N 713.922 1.13953 1.08869 0
M  V30 7606 C 714.832 0.835666 2.19212 0
M  V30 7607 C 715.848 -0.182005 1.73045 0
M  V30 7608 O 717.024 -0.0116661 2.01397 0
M  V30 7609 C 714.089 0.312325 3.4529 0
M  V30 7610 C 713.15 1.39196 4.06107 0
M  V30 7611 C 712.383 0.893496 5.26168 0
M  V30 7612 O 712.606 -0.266807 5.69776 0
M  V30 7613 O 711.54 1.67037 5.78258 0
M  V30 7614 H 715.366 1.75769 2.47667 0
M  V30 7615 H 712.951 0.917421 1.17914 0
M  V30 7616 H 714.833 0.0261582 4.21392 0
M  V30 7617 H 713.508 -0.582042 3.18424 0
M  V30 7618 H 712.415 1.73152 3.31616 0
M  V30 7619 H 713.748 2.26068 4.37212 0
M  V30 7620 N 715.4 -1.26948 0.933913 0
M  V30 7621 C 716.646 -1.94374 0.57848 0
M  V30 7622 C 716.979 -1.73166 -0.879048 0
M  V30 7623 O 716.254 -1.06438 -1.62792 0
M  V30 7624 C 716.537 -3.4834 0.912739 0
M  V30 7625 C 716.39 -3.78866 2.42448 0
M  V30 7626 C 717.709 -4.38062 0.423003 0
M  V30 7627 H 714.828 -0.705959 0.211639 0
M  V30 7628 H 717.47 -1.49951 1.16682 0
M  V30 7629 H 715.62 -3.86309 0.412058 0
M  V30 7630 H 717.292 -3.50654 2.99733 0
M  V30 7631 H 715.535 -3.25198 2.87104 0
M  V30 7632 H 716.206 -4.86458 2.60887 0
M  V30 7633 H 718.682 -4.0728 0.852191 0
M  V30 7634 H 717.558 -5.44599 0.685776 0
M  V30 7635 H 717.819 -4.36886 -0.676994 0
M  V30 7636 N 716.879 -0.700114 -1.41195 0
M  V30 7637 C 717.829 -0.0144098 -2.27995 0
M  V30 7638 C 718.813 0.748249 -1.42443 0
M  V30 7639 O 720.005 0.622995 -1.65674 0
M  V30 7640 C 717.134 0.917938 -3.308 0
M  V30 7641 C 716.22 0.151286 -4.2383 0
M  V30 7642 N 716.611 -0.85732 -4.98481 0
M  V30 7643 C 714.909 0.386108 -4.44326 0
M  V30 7644 C 715.61 -1.31663 -5.66604 0
M  V30 7645 N 714.586 -0.641689 -5.39799 0
M  V30 7646 H 718.388 -0.787662 -2.83149 0
M  V30 7647 H 715.902 -0.531344 -1.53462 0
M  V30 7648 H 717.899 1.42437 -3.91813 0
M  V30 7649 H 716.559 1.69074 -2.77208 0
M  V30 7650 H 717.57 -1.2377 -5.02893 0
M  V30 7651 H 714.247 1.13644 -4.01735 0
M  V30 7652 H 715.637 -2.15384 -6.36443 0
M  V30 7653 N 718.357 1.51182 -0.445186 0
M  V30 7654 C 719.768 1.86693 0.0160999 0
M  V30 7655 C 720.119 1.36183 1.4124 0
M  V30 7656 O 719.244 0.715895 2.04215 0
M  V30 7657 C 719.839 3.38781 0.0359918 0
M  V30 7658 C 718.398 3.73799 0.441715 0
M  V30 7659 C 717.545 2.74947 -0.360511 0
M  V30 7660 H 720.496 1.44294 -0.660674 0
M  V30 7661 H 720.517 3.71026 0.843813 0
M  V30 7662 H 720.029 3.75513 -0.980378 0
M  V30 7663 H 718.13 3.42659 1.4634 0
M  V30 7664 H 718.243 4.78829 0.16106 0
M  V30 7665 H 716.607 2.54047 0.182269 0
M  V30 7666 H 717.39 3.14521 -1.3759 0
M  V30 7667 N 719.835 0.176821 1.56605 0
M  V30 7668 C 721.112 -0.513365 1.88743 0
M  V30 7669 C 721.492 -1.80929 1.08757 0
M  V30 7670 O 720.84 -2.27765 0.183127 0
M  V30 7671 C 721.05 -0.749925 3.40848 0
M  V30 7672 C 722.398 -1.07747 4.10701 0
M  V30 7673 O 723.422 -0.838277 3.46196 0
M  V30 7674 O 722.281 -1.52901 5.24675 0
M  V30 7675 H 719.375 -0.265296 0.783292 0
M  V30 7676 H 721.921 0.215669 1.68324 0
M  V30 7677 H 720.693 0.16599 3.90948 0
M  V30 7678 H 720.316 -1.53208 3.66897 0
M  V30 7679 N 721.313 -1.57302 -0.09688 0
M  V30 7680 C 722.543 -1.89926 -0.813114 0
M  V30 7681 C 722.951 -0.76852 -1.72888 0
M  V30 7682 O 722.294 0.268549 -1.81726 0
M  V30 7683 C 722.356 -3.17787 -1.68082 0
M  V30 7684 C 722.02 -4.4729 -0.937061 0
M  V30 7685 C 723.017 -5.1921 -0.267687 0
M  V30 7686 C 720.702 -4.93957 -0.911671 0
M  V30 7687 C 722.696 -6.36034 0.417129 0
M  V30 7688 C 720.383 -6.10693 -0.223068 0
M  V30 7689 C 721.381 -6.8158 0.440155 0
M  V30 7690 O 721.069 -7.96092 1.11772 0
M  V30 7691 H 720.801 -0.632783 -0.237828 0
M  V30 7692 H 723.355 -2.05248 -0.0790818 0
M  V30 7693 H 721.585 -2.98607 -2.45705 0
M  V30 7694 H 723.274 -3.36257 -2.27346 0
M  V30 7695 H 724.04 -4.84198 -0.278774 0
M  V30 7696 H 719.919 -4.38671 -1.41734 0
M  V30 7697 H 723.463 -6.91301 0.93537 0
M  V30 7698 H 719.36 -6.45159 -0.209821 0
M  V30 7699 H 720.128 -8.12064 1.02443 0
M  V30 7700 N 722.791 0.367657 -1.53252 0
M  V30 7701 C 724.039 1.10832 -1.68999 0
M  V30 7702 C 724.36 1.89894 -0.443306 0
M  V30 7703 O 723.63 1.88235 0.54262 0
M  V30 7704 H 722.21 0.412153 -0.623008 0
M  V30 7705 H 724.872 0.414775 -1.90435 0
M  V30 7706 H 723.968 1.7993 -2.55013 0
M  V30 7707 N 724.269 1.44576 0.627338 0
M  V30 7708 C 725.494 1.51271 1.41887 0
M  V30 7709 C 725.919 0.139814 1.8758 0
M  V30 7710 O 725.277 -0.871746 1.58966 0
M  V30 7711 C 725.325 2.48529 2.61277 0
M  V30 7712 O 724.429 1.98944 3.61241 0
M  V30 7713 H 723.77 0.510668 0.424399 0
M  V30 7714 H 726.3 1.89746 0.765356 0
M  V30 7715 H 726.31 2.66689 3.08773 0
M  V30 7716 H 724.985 3.48249 2.27366 0
M  V30 7717 H 723.562 1.90568 3.20528 0
M  V30 7718 N 725.747 -0.868086 1.31537 0
M  V30 7719 C 726.697 -1.96321 1.1594 0
M  V30 7720 C 727.681 -1.60748 0.0698962 0
M  V30 7721 O 728.873 -1.74524 0.295011 0
M  V30 7722 C 726.002 -3.32073 0.870789 0
M  V30 7723 C 725.088 -3.73907 2.00136 0
M  V30 7724 N 725.479 -3.87685 3.24859 0
M  V30 7725 C 723.777 -4.03433 1.90152 0
M  V30 7726 C 724.478 -4.23454 3.98825 0
M  V30 7727 N 723.454 -4.34242 3.27009 0
M  V30 7728 H 727.256 -2.05088 2.10514 0
M  V30 7729 H 724.77 -1.059 1.23122 0
M  V30 7730 H 726.767 -4.10279 0.740034 0
M  V30 7731 H 725.427 -3.24631 -0.0667068 0
M  V30 7732 H 726.438 -3.72363 3.59953 0
M  V30 7733 H 723.115 -4.0437 1.03879 0
M  V30 7734 H 724.505 -4.41696 5.06314 0
M  V30 7735 N 727.225 -1.14528 -1.08264 0
M  V30 7736 C 728.474 -0.908992 -1.80056 0
M  V30 7737 C 728.787 0.565859 -1.87236 0
M  V30 7738 O 729.993 0.919454 -2.55457 0
M  V30 7739 C 728.449 -1.57681 -3.23519 0
M  V30 7740 C 728.057 -3.08803 -3.24569 0
M  V30 7741 C 729.801 -1.4217 -3.99985 0
M  V30 7742 C 727.708 -3.68414 -4.62629 0
M  V30 7743 H 726.638 -0.336432 -0.674781 0
M  V30 7744 H 729.289 -1.37437 -1.21587 0
M  V30 7745 H 727.671 -1.03911 -3.82124 0
M  V30 7746 H 728.845 -3.69252 -2.75663 0
M  V30 7747 H 727.16 -3.23968 -2.61598 0
M  V30 7748 H 729.757 -1.84106 -5.02005 0
M  V30 7749 H 730.1 -0.367989 -4.1467 0
M  V30 7750 H 730.633 -1.92984 -3.47853 0
M  V30 7751 H 727.372 -4.73644 -4.53147 0
M  V30 7752 H 726.892 -3.12746 -5.11811 0
M  V30 7753 H 728.571 -3.68793 -5.31602 0
M  V30 7754 N 728.703 1.26451 -0.940633 0
M  V30 7755 C 729.635 2.25556 -0.407104 0
M  V30 7756 C 730.648 1.55888 0.469324 0
M  V30 7757 O 731.837 1.76292 0.279858 0
M  V30 7758 C 728.937 3.36109 0.434064 0
M  V30 7759 C 728.11 4.3532 -0.426082 0
M  V30 7760 C 727.169 5.25004 0.354563 0
M  V30 7761 O 726.195 5.68684 -0.242219 0
M  V30 7762 N 727.397 5.5652 1.65123 0
M  V30 7763 H 730.162 2.7197 -1.25907 0
M  V30 7764 H 727.723 1.40212 -0.809456 0
M  V30 7765 H 729.715 3.93059 0.963684 0
M  V30 7766 H 728.285 2.89194 1.18683 0
M  V30 7767 H 727.505 3.77449 -1.13692 0
M  V30 7768 H 728.793 4.986 -1.01366 0
M  V30 7769 H 728.191 5.22912 2.15822 0
M  V30 7770 H 726.748 6.16115 2.12711 0
M  V30 7771 N 730.181 0.707592 1.40822 0
M  V30 7772 C 731.144 0.0587224 2.29125 0
M  V30 7773 C 732.144 -0.695624 1.44975 0
M  V30 7774 O 733.334 -0.528718 1.65983 0
M  V30 7775 C 730.466 -0.926939 3.28056 0
M  V30 7776 H 731.659 0.836349 2.88002 0
M  V30 7777 H 729.212 0.471778 1.4901 0
M  V30 7778 H 729.947 -1.7319 2.74182 0
M  V30 7779 H 729.732 -0.389015 3.90165 0
M  V30 7780 H 731.222 -1.37837 3.94196 0
M  V30 7781 N 731.66 -1.50943 0.453197 0
M  V30 7782 C 732.59 -2.31005 -0.34044 0
M  V30 7783 C 733.571 -1.37112 -1.00669 0
M  V30 7784 O 734.756 -1.66033 -1.0073 0
M  V30 7785 C 731.886 -3.16358 -1.433 0
M  V30 7786 C 730.84 -4.18658 -0.889363 0
M  V30 7787 C 730.166 -4.92633 -2.07887 0
M  V30 7788 C 731.466 -5.22227 0.0871142 0
M  V30 7789 H 733.16 -2.97601 0.327723 0
M  V30 7790 H 730.706 -1.43119 0.159054 0
M  V30 7791 H 732.659 -3.71155 -1.99555 0
M  V30 7792 H 731.383 -2.47613 -2.12968 0
M  V30 7793 H 730.042 -3.64936 -0.348915 0
M  V30 7794 H 729.69 -4.20376 -2.76211 0
M  V30 7795 H 729.39 -5.61819 -1.72143 0
M  V30 7796 H 730.914 -5.50258 -2.64666 0
M  V30 7797 H 732.328 -5.72001 -0.385656 0
M  V30 7798 H 730.725 -5.99032 0.357926 0
M  V30 7799 H 731.795 -4.74077 1.01879 0
M  V30 7800 N 733.138 -0.185124 -1.56509 0
M  V30 7801 C 734.068 0.735098 -2.21627 0
M  V30 7802 C 735.049 1.2288 -1.1762 0
M  V30 7803 O 736.234 1.27945 -1.46095 0
M  V30 7804 C 733.364 1.95889 -2.86783 0
M  V30 7805 C 732.318 1.6005 -3.96948 0
M  V30 7806 C 731.644 2.90009 -4.4922 0
M  V30 7807 C 732.944 0.818008 -5.15855 0
M  V30 7808 H 734.638 0.192274 -2.98782 0
M  V30 7809 H 732.184 0.0910393 -1.43712 0
M  V30 7810 H 734.137 2.60779 -3.31017 0
M  V30 7811 H 732.861 2.52608 -2.07018 0
M  V30 7812 H 731.52 0.975237 -3.5339 0
M  V30 7813 H 731.168 3.44797 -3.6623 0
M  V30 7814 H 730.868 2.66778 -5.23549 0
M  V30 7815 H 732.392 3.55904 -4.9615 0
M  V30 7816 H 733.806 1.36979 -5.56695 0
M  V30 7817 H 732.203 0.684207 -5.96187 0
M  V30 7818 H 733.273 -0.182939 -4.84555 0
M  V30 7819 N 734.616 1.57351 0.0885366 0
M  V30 7820 C 735.893 1.77449 0.822873 0
M  V30 7821 C 736.273 0.768463 1.96616 0
M  V30 7822 O 735.621 -0.201757 2.27608 0
M  V30 7823 C 735.831 3.23425 1.31137 0
M  V30 7824 C 737.179 3.86791 1.75152 0
M  V30 7825 O 738.203 3.27215 1.40745 0
M  V30 7826 O 737.062 4.91568 2.38794 0
M  V30 7827 H 734.156 0.727653 0.393002 0
M  V30 7828 H 736.702 1.69556 0.0699095 0
M  V30 7829 H 735.474 3.88188 0.49254 0
M  V30 7830 H 735.097 3.35977 2.12615 0
M  V30 7831 N 736.094 -0.359525 1.53444 0
M  V30 7832 C 737.041 -1.44073 1.8031 0
M  V30 7833 C 738.011 -1.52946 0.647811 0
M  V30 7834 O 739.196 -1.68739 0.890614 0
M  V30 7835 C 736.336 -2.80941 2.00416 0
M  V30 7836 C 735.449 -2.80986 3.28132 0
M  V30 7837 C 734.584 -4.09468 3.38393 0
M  V30 7838 C 733.623 -4.03679 4.60119 0
M  V30 7839 N 732.76 -5.23821 4.675 0
M  V30 7840 H 737.6 -1.20464 2.72566 0
M  V30 7841 H 735.137 -0.583859 1.35017 0
M  V30 7842 H 737.095 -3.60459 2.1006 0
M  V30 7843 H 735.725 -3.02936 1.11489 0
M  V30 7844 H 734.777 -1.93666 3.27411 0
M  V30 7845 H 736.089 -2.72583 4.17732 0
M  V30 7846 H 735.243 -4.97404 3.47382 0
M  V30 7847 H 733.982 -4.20632 2.4682 0
M  V30 7848 H 732.987 -3.14129 4.51224 0
M  V30 7849 H 734.212 -3.94112 5.5304 0
M  V30 7850 H 732.158 -5.35559 3.7883 0
M  V30 7851 H 732.075 -5.17611 5.51013 0
M  V30 7852 H 733.343 -6.13572 4.8078 0
M  V30 7853 N 737.572 -1.44907 -0.619662 0
M  V30 7854 C 738.802 -1.51575 -1.40387 0
M  V30 7855 C 739.21 -0.14309 -1.88658 0
M  V30 7856 O 738.553 0.863403 -1.62145 0
M  V30 7857 C 738.615 -2.42858 -2.65067 0
M  V30 7858 C 738.279 -3.8982 -2.38515 0
M  V30 7859 C 739.276 -4.80047 -1.99627 0
M  V30 7860 C 736.961 -4.34628 -2.51801 0
M  V30 7861 C 738.955 -6.13086 -1.74369 0
M  V30 7862 C 736.642 -5.67712 -2.26156 0
M  V30 7863 C 737.64 -6.56759 -1.875 0
M  V30 7864 O 737.328 -7.87377 -1.62148 0
M  V30 7865 H 737.06 -0.51612 -0.436573 0
M  V30 7866 H 739.614 -1.90664 -0.763959 0
M  V30 7867 H 737.844 -1.98717 -3.31735 0
M  V30 7868 H 739.533 -2.40346 -3.27091 0
M  V30 7869 H 740.299 -4.46697 -1.8891 0
M  V30 7870 H 736.178 -3.65568 -2.80857 0
M  V30 7871 H 739.722 -6.8255 -1.44122 0
M  V30 7872 H 735.619 -6.0062 -2.36486 0
M  V30 7873 H 736.387 -7.99288 -1.763 0
M  V30 7874 N 739.05 0.861098 -1.31996 0
M  V30 7875 C 739.998 1.99052 -1.20337 0
M  V30 7876 C 740.992 1.69045 -0.109623 0
M  V30 7877 O 742.198 1.77931 -0.272117 0
M  V30 7878 H 738.573 0.653064 -0.372843 0
M  V30 7879 H 740.544 2.06015 -2.15872 0
M  V30 7880 C 739.293 3.34846 -0.936663 0
M  V30 7881 H 738.616 3.58462 -1.77045 0
M  V30 7882 H 740.056 4.1444 -0.895302 0
M  V30 7883 C 738.515 3.34965 0.360607 0
M  V30 7884 O 739.045 3.7745 1.37456 0
M  V30 7885 N 737.251 2.88101 0.380296 0
M  V30 7886 H 736.798 2.53721 -0.445351 0
M  V30 7887 H 736.756 2.88563 1.24816 0
M  V30 7888 N 740.528 1.15101 1.07655 0
M  V30 7889 C 741.491 0.847625 2.12951 0
M  V30 7890 C 742.491 -0.151227 1.60087 0
M  V30 7891 O 743.681 0.0780399 1.74025 0
M  V30 7892 C 740.813 0.265 3.39868 0
M  V30 7893 H 742.006 1.7809 2.41296 0
M  V30 7894 H 739.559 0.958072 1.23494 0
M  V30 7895 H 740.294 -0.676625 3.17163 0
M  V30 7896 H 740.079 0.984554 3.79538 0
M  V30 7897 H 741.569 0.0702121 4.17541 0
M  V30 7898 N 742.006 -1.2595 0.947325 0
M  V30 7899 C 742.916 -2.29883 0.468079 0
M  V30 7900 C 743.932 -1.67783 -0.460975 0
M  V30 7901 O 745.108 -1.98526 -0.339006 0
M  V30 7902 C 742.173 -3.45773 -0.253315 0
M  V30 7903 C 741.234 -4.23337 0.713054 0
M  V30 7904 C 740.467 -5.33694 0.025993 0
M  V30 7905 O 740.69 -5.57853 -1.18978 0
M  V30 7906 O 739.624 -5.97724 0.70782 0
M  V30 7907 H 743.45 -2.72952 1.33156 0
M  V30 7908 H 741.035 -1.31263 0.713468 0
M  V30 7909 H 742.917 -4.16209 -0.659423 0
M  V30 7910 H 741.592 -3.04721 -1.09209 0
M  V30 7911 H 740.499 -3.55359 1.16923 0
M  V30 7912 H 741.832 -4.68154 1.51963 0
M  V30 7913 N 743.484 -0.715051 -1.40445 0
M  V30 7914 C 744.431 -0.0621393 -2.30716 0
M  V30 7915 C 745.401 0.750871 -1.48159 0
M  V30 7916 O 746.586 0.714928 -1.76899 0
M  V30 7917 C 743.726 0.854036 -3.34365 0
M  V30 7918 C 742.839 0.0305565 -4.31989 0
M  V30 7919 C 741.974 0.946162 -5.22706 0
M  V30 7920 C 741.013 0.116741 -6.11989 0
M  V30 7921 N 740.15 0.987194 -6.95125 0
M  V30 7922 H 744.99 -0.83764 -2.85985 0
M  V30 7923 H 742.527 -0.424759 -1.40834 0
M  V30 7924 H 744.485 1.39946 -3.93028 0
M  V30 7925 H 743.115 1.59572 -2.806 0
M  V30 7926 H 742.167 -0.632044 -3.75112 0
M  V30 7927 H 743.479 -0.611615 -4.95036 0
M  V30 7928 H 742.633 1.56014 -5.86297 0
M  V30 7929 H 741.372 1.62216 -4.59932 0
M  V30 7930 H 740.377 -0.510176 -5.47428 0
M  V30 7931 H 741.602 -0.555742 -6.76822 0
M  V30 7932 H 739.548 1.64885 -6.3494 0
M  V30 7933 H 739.465 0.401046 -7.54936 0
M  V30 7934 H 740.733 1.58737 -7.63166 0
M  V30 7935 N 744.962 1.50701 -0.461195 0
M  V30 7936 C 746.373 1.867 -0.00370227 0
M  V30 7937 C 746.724 1.37673 1.39787 0
M  V30 7938 O 745.849 0.737515 2.03445 0
M  V30 7939 C 746.444 3.388 5.75786e-05 0
M  V30 7940 C 745.003 3.74247 0.402044 0
M  V30 7941 C 744.15 2.74549 -0.389652 0
M  V30 7942 H 747.101 1.43585 -0.675942 0
M  V30 7943 H 747.122 3.719 0.804414 0
M  V30 7944 H 746.634 3.74452 -1.02015 0
M  V30 7945 H 744.735 3.44192 1.42697 0
M  V30 7946 H 744.848 4.78973 0.110265 0
M  V30 7947 H 743.212 2.54226 0.155314 0
M  V30 7948 H 743.995 3.13044 -1.40919 0
M  V30 7949 N 746.441 0.193421 1.56409 0
M  V30 7950 C 747.388 -0.728124 2.19014 0
M  V30 7951 C 748.358 -1.21098 1.13686 0
M  V30 7952 O 749.543 -1.27517 1.4193 0
M  V30 7953 C 746.683 -1.94277 2.8522 0
M  V30 7954 C 745.796 -1.50143 4.05069 0
M  V30 7955 C 744.931 -2.67145 4.59137 0
M  V30 7956 C 743.97 -2.19609 5.71348 0
M  V30 7957 N 743.107 -3.29782 6.19829 0
M  V30 7958 H 747.947 -0.187499 2.9741 0
M  V30 7959 H 745.484 -0.0808064 1.46878 0
M  V30 7960 H 747.442 -2.65551 3.21774 0
M  V30 7961 H 746.072 -2.45673 2.09391 0
M  V30 7962 H 745.124 -0.684624 3.74189 0
M  V30 7963 H 746.436 -1.11266 4.86232 0
M  V30 7964 H 745.59 -3.46544 4.97988 0
M  V30 7965 H 744.329 -3.09295 3.77078 0
M  V30 7966 H 743.334 -1.38664 5.32027 0
M  V30 7967 H 744.559 -1.78492 6.55223 0
M  V30 7968 H 742.505 -3.71466 5.40693 0
M  V30 7969 H 742.422 -2.95069 6.96039 0
M  V30 7970 H 743.69 -4.094 6.63334 0
M  V30 7971 N 747.919 -1.57396 -0.0801906 0
M  V30 7972 C 748.867 -2.04136 -1.11495 0
M  V30 7973 C 749.861 -0.945137 -1.40583 0
M  V30 7974 O 751.067 -1.13028 -1.40088 0
M  V30 7975 H 747.442 -0.65076 -0.37685 0
M  V30 7976 H 749.413 -2.90205 -0.694526 0
M  V30 7977 C 748.162 -2.49399 -2.42272 0
M  V30 7978 H 747.485 -3.33339 -2.20737 0
M  V30 7979 H 748.925 -2.85864 -3.13142 0
M  V30 7980 C 747.384 -1.37341 -3.07635 0
M  V30 7981 O 747.914 -0.710829 -3.95361 0
M  V30 7982 N 746.12 -1.12064 -2.68123 0
M  V30 7983 H 745.667 -1.66126 -1.96875 0
M  V30 7984 H 745.625 -0.372916 -3.12181 0
M  V30 7985 N 749.397 0.351382 -1.53633 0
M  V30 7986 C 750.36 1.41403 -1.80383 0
M  V30 7987 C 751.36 1.45963 -0.674635 0
M  V30 7988 O 752.55 1.46476 -0.942895 0
M  V30 7989 C 749.682 2.80401 -1.93876 0
M  V30 7990 H 750.875 1.18951 -2.75301 0
M  V30 7991 H 748.428 0.58533 -1.44926 0
M  V30 7992 H 749.163 3.08147 -1.01074 0
M  V30 7993 H 748.948 2.78488 -2.7602 0
M  V30 7994 H 750.438 3.57329 -2.16116 0
M  V30 7995 N 750.875 1.45233 0.611969 0
M  V30 7996 C 752.124 1.48296 1.36716 0
M  V30 7997 C 752.437 0.12706 1.95187 0
M  V30 7998 O 753.643 0.0353066 2.71477 0
M  V30 7999 C 752.099 2.61168 2.47627 0
M  V30 8000 C 751.707 4.03051 1.95587 0
M  V30 8001 C 753.451 2.73472 3.24674 0
M  V30 8002 C 751.358 5.07312 3.03954 0
M  V30 8003 H 750.288 0.5518 0.513841 0
M  V30 8004 H 752.939 1.7136 0.656359 0
M  V30 8005 H 751.321 2.31379 3.21372 0
M  V30 8006 H 752.495 4.42497 1.2858 0
M  V30 8007 H 750.81 3.95158 1.31298 0
M  V30 8008 H 753.407 3.48537 4.05494 0
M  V30 8009 H 753.75 1.79953 3.75397 0
M  V30 8010 H 754.283 3.02765 2.58028 0
M  V30 8011 H 751.022 6.02525 2.58154 0
M  V30 8012 H 750.542 4.7244 3.69541 0
M  V30 8013 H 752.221 5.31867 3.6841 0
M  V30 8014 N 752.353 -0.854086 1.3245 0
M  V30 8015 C 753.303 -1.9508 1.18016 0
M  V30 8016 C 754.287 -1.60665 0.0869417 0
M  V30 8017 O 755.479 -1.74201 0.313505 0
M  V30 8018 C 752.608 -3.3113 0.905961 0
M  V30 8019 C 751.694 -3.71763 2.04091 0
M  V30 8020 N 752.085 -3.84218 3.28953 0
M  V30 8021 C 750.383 -4.01393 1.94421 0
M  V30 8022 C 751.084 -4.192 4.03294 0
M  V30 8023 N 750.06 -4.30749 3.31596 0
M  V30 8024 H 753.862 -2.02843 2.12678 0
M  V30 8025 H 751.376 -1.04588 1.24238 0
M  V30 8026 H 753.373 -4.09471 0.783508 0
M  V30 8027 H 752.033 -3.24684 -0.0322715 0
M  V30 8028 H 753.044 -3.68524 3.63883 0
M  V30 8029 H 749.721 -4.03246 1.08162 0
M  V30 8030 H 751.111 -4.36301 5.1097 0
M  V30 8031 N 753.831 -1.1567 -1.07043 0
M  V30 8032 C 755.059 -0.957471 -1.83412 0
M  V30 8033 C 755.474 0.494271 -1.82215 0
M  V30 8034 O 754.831 1.34288 -1.23584 0
M  V30 8035 C 754.882 -1.46784 -3.30359 0
M  V30 8036 O 754.603 -2.86271 -3.31633 0
M  V30 8037 C 756.104 -1.31054 -4.23485 0
M  V30 8038 H 753.324 -0.33986 -0.578564 0
M  V30 8039 H 755.868 -1.53518 -1.35102 0
M  V30 8040 H 754.023 -0.932586 -3.76007 0
M  V30 8041 H 754.437 -3.0948 -4.23465 0
M  V30 8042 H 755.911 -1.71605 -5.24648 0
M  V30 8043 H 756.388 -0.255107 -4.38458 0
M  V30 8044 H 756.994 -1.83503 -3.83676 0
M  V30 8045 N 755.309 1.25446 -0.953992 0
M  V30 8046 C 756.556 1.93143 -0.608429 0
M  V30 8047 C 756.884 1.74727 0.854451 0
M  V30 8048 O 756.139 1.0855 1.62836 0
M  V30 8049 C 756.438 3.45555 -0.912496 0
M  V30 8050 C 756.104 3.84126 -2.36131 0
M  V30 8051 C 754.766 3.94367 -2.75732 0
M  V30 8052 C 757.118 4.0324 -3.30223 0
M  V30 8053 C 754.446 4.21127 -4.08496 0
M  V30 8054 C 756.798 4.31493 -4.62598 0
M  V30 8055 C 755.462 4.3995 -5.01996 0
M  V30 8056 H 754.732 0.706762 -0.22264 0
M  V30 8057 H 757.379 1.49005 -1.20291 0
M  V30 8058 H 755.684 3.91091 -0.235618 0
M  V30 8059 H 757.381 3.9612 -0.623714 0
M  V30 8060 H 753.971 3.76711 -2.04418 0
M  V30 8061 H 758.155 3.94744 -3.00817 0
M  V30 8062 H 753.411 4.2589 -4.38665 0
M  V30 8063 H 757.585 4.45227 -5.35486 0
M  V30 8064 H 755.212 4.60439 -6.04896 0
M  V30 8065 N 756.787 0.722489 1.40064 0
M  V30 8066 C 758.033 0.265371 2.01056 0
M  V30 8067 C 758.366 -1.14062 1.57174 0
M  V30 8068 O 757.641 -1.77514 0.794916 0
M  V30 8069 C 757.924 0.353157 3.58364 0
M  V30 8070 C 757.777 1.79802 4.123 0
M  V30 8071 C 759.096 -0.271677 4.39261 0
M  V30 8072 H 756.215 0.0979002 0.730469 0
M  V30 8073 H 758.857 0.916289 1.66446 0
M  V30 8074 H 757.007 -0.201037 3.87979 0
M  V30 8075 H 758.679 2.40813 3.93455 0
M  V30 8076 H 756.922 2.32348 3.66329 0
M  V30 8077 H 757.593 1.81079 5.21454 0
M  V30 8078 H 760.069 0.200607 4.15616 0
M  V30 8079 H 758.945 -0.179843 5.48605 0
M  V30 8080 H 759.206 -1.35611 4.20787 0
M  V30 8081 N 758.265 -1.50454 0.469181 0
M  V30 8082 C 759.197 -2.26319 -0.362247 0
M  V30 8083 C 760.21 -1.31574 -0.958751 0
M  V30 8084 O 761.399 -1.57099 -0.847482 0
M  V30 8085 C 758.499 -3.02808 -1.52187 0
M  V30 8086 C 757.672 -4.24893 -1.03849 0
M  V30 8087 C 756.731 -4.83691 -2.07194 0
M  V30 8088 O 755.757 -5.44659 -1.65333 0
M  V30 8089 N 756.959 -4.70522 -3.39985 0
M  V30 8090 H 759.724 -2.98312 0.288124 0
M  V30 8091 H 757.285 -1.59099 0.299856 0
M  V30 8092 H 759.277 -3.39023 -2.21011 0
M  V30 8093 H 757.847 -2.33625 -2.07697 0
M  V30 8094 H 757.067 -3.93806 -0.176203 0
M  V30 8095 H 758.355 -5.04053 -0.693435 0
M  V30 8096 H 757.753 -4.2203 -3.76706 0
M  V30 8097 H 756.31 -5.11011 -4.04612 0
M  V30 8098 N 759.743 -0.201713 -1.56304 0
M  V30 8099 C 760.968 0.443815 -2.02596 0
M  V30 8100 C 761.393 1.53945 -1.08086 0
M  V30 8101 O 760.751 1.81182 -0.0655056 0
M  V30 8102 C 760.799 0.971066 -3.47279 0
M  V30 8103 O 759.903 2.0836 -3.55893 0
M  V30 8104 H 759.244 0.10294 -0.655972 0
M  V30 8105 H 761.774 -0.314533 -2.02168 0
M  V30 8106 H 761.784 1.28598 -3.87204 0
M  V30 8107 H 760.459 0.169048 -4.15556 0
M  V30 8108 H 759.036 1.77683 -3.27846 0
M  V30 8109 N 761.222 1.57436 0.0718424 0
M  V30 8110 C 762.47 1.86878 0.769484 0
M  V30 8111 C 762.791 0.7937 1.78116 0
M  V30 8112 O 762.061 -0.177642 1.95093 0
M  V30 8113 H 760.641 0.689593 0.287177 0
M  V30 8114 H 763.303 1.94841 0.0479427 0
M  V30 8115 H 762.399 2.84387 1.28572 0
M  V30 8116 N 762.7 -0.34323 1.53817 0
M  V30 8117 C 763.925 -1.1079 1.75329 0
M  V30 8118 C 764.35 -1.81571 0.491293 0
M  V30 8119 O 763.708 -1.72561 -0.556089 0
M  V30 8120 C 763.756 -2.09681 2.9337 0
M  V30 8121 O 762.86 -3.17207 2.63541 0
M  V30 8122 H 762.201 -0.320402 0.581583 0
M  V30 8123 H 764.731 -0.393525 2.0078 0
M  V30 8124 H 764.741 -2.52897 3.20168 0
M  V30 8125 H 763.416 -1.5756 3.84899 0
M  V30 8126 H 761.993 -2.78806 2.47632 0
M  V30 8127 N 764.178 -1.45556 -0.604258 0
M  V30 8128 C 765.128 -1.50906 -1.70913 0
M  V30 8129 C 766.112 -0.371996 -1.56541 0
M  V30 8130 O 767.304 -0.619064 -1.65821 0
M  V30 8131 C 764.433 -1.48181 -3.09673 0
M  V30 8132 C 763.519 -2.67102 -3.2942 0
M  V30 8133 N 763.91 -3.92184 -3.19414 0
M  V30 8134 C 762.208 -2.6287 -3.60299 0
M  V30 8135 C 762.909 -4.71571 -3.40581 0
M  V30 8136 N 761.885 -4.03081 -3.64728 0
M  V30 8137 H 765.687 -2.45435 -1.61675 0
M  V30 8138 H 763.201 -1.40894 -0.807622 0
M  V30 8139 H 765.198 -1.501 -3.88942 0
M  V30 8140 H 763.858 -0.54712 -3.20057 0
M  V30 8141 H 764.869 -4.23756 -2.97743 0
M  V30 8142 H 761.546 -1.78324 -3.77501 0
M  V30 8143 H 762.936 -5.80571 -3.38211 0
M  V30 8144 N 765.656 0.84705 -1.32902 0
M  V30 8145 C 766.586 1.97166 -1.25091 0
M  V30 8146 C 767.567 1.69578 -0.133161 0
M  V30 8147 O 768.752 1.91519 -0.321591 0
M  V30 8148 C 765.882 3.33157 -0.981006 0
M  V30 8149 C 764.836 3.75119 -2.06082 0
M  V30 8150 C 764.162 5.08826 -1.64318 0
M  V30 8151 C 765.462 3.89774 -3.47669 0
M  V30 8152 H 767.156 2.03958 -2.19184 0
M  V30 8153 H 764.702 0.979907 -1.05517 0
M  V30 8154 H 766.655 4.11393 -0.912891 0
M  V30 8155 H 765.379 3.266 -0.00445559 0
M  V30 8156 H 764.038 2.9914 -2.11921 0
M  V30 8157 H 763.686 4.98732 -0.653876 0
M  V30 8158 H 763.386 5.37873 -2.36572 0
M  V30 8159 H 764.91 5.89546 -1.58958 0
M  V30 8160 H 766.324 4.58343 -3.44376 0
M  V30 8161 H 764.721 4.30248 -4.18338 0
M  V30 8162 H 765.791 2.92463 -3.86773 0
M  V30 8163 N 767.134 1.16236 1.06428 0
M  V30 8164 C 768.097 0.870163 2.1204 0
M  V30 8165 C 769.097 -0.134239 1.60239 0
M  V30 8166 O 770.287 0.0964932 1.73933 0
M  V30 8167 C 767.419 0.301033 3.39568 0
M  V30 8168 H 768.612 1.8064 2.39394 0
M  V30 8169 H 766.165 0.971116 1.2247 0
M  V30 8170 H 766.9 -0.642948 3.17863 0
M  V30 8171 H 766.685 1.02475 3.78472 0
M  V30 8172 H 768.175 0.114494 4.17443 0
M  V30 8173 N 768.612 -1.24939 0.960631 0
M  V30 8174 C 769.575 -2.239 0.49006 0
M  V30 8175 C 770.575 -1.55497 -0.409535 0
M  V30 8176 O 771.765 -1.72978 -0.205984 0
M  V30 8177 C 768.897 -3.39654 -0.291193 0
M  V30 8178 H 770.09 -2.67044 1.36482 0
M  V30 8179 H 767.643 -1.37429 0.744505 0
M  V30 8180 H 768.378 -3.01939 -1.18336 0
M  V30 8181 H 768.163 -3.90496 0.354276 0
M  V30 8182 H 769.653 -4.13125 -0.609693 0
M  V30 8183 N 770.09 -0.729906 -1.39679 0
M  V30 8184 C 771.506 -0.404951 -1.54377 0
M  V30 8185 C 771.706 1.08476 -1.6981 0
M  V30 8186 O 770.762 1.87087 -1.69572 0
M  V30 8187 C 772.075 -1.18352 -2.76429 0
M  V30 8188 C 773.623 -1.17124 -2.9026 0
M  V30 8189 C 774.098 -1.93227 -4.15244 0
M  V30 8190 N 775.589 -1.90368 -4.22273 0
M  V30 8191 C 776.324 -2.46065 -5.17918 0
M  V30 8192 N 775.82 -3.10378 -6.19385 0
M  V30 8193 N 777.613 -2.36127 -5.10099 0
M  V30 8194 H 769.764 -1.69567 -1.27909 0
M  V30 8195 H 772.027 -0.717527 -0.619564 0
M  V30 8196 H 771.733 -2.23743 -2.71352 0
M  V30 8197 H 771.607 -0.784589 -3.6895 0
M  V30 8198 H 773.994 -0.125478 -2.94833 0
M  V30 8199 H 774.075 -1.60951 -1.98817 0
M  V30 8200 H 773.719 -2.97802 -4.11432 0
M  V30 8201 H 773.649 -1.4681 -5.05722 0
M  V30 8202 H 776.14 -1.4351 -3.4959 0
M  V30 8203 H 776.453 -3.50358 -6.88817 0
M  V30 8204 H 774.798 -3.14467 -6.19787 0
M  V30 8205 H 777.989 -1.85529 -4.29763 0
M  V30 8206 H 778.162 -2.79833 -5.84463 0
M  V30 8207 N 771.568 1.50203 -0.477153 0
M  V30 8208 C 772.478 2.32421 0.319027 0
M  V30 8209 C 773.494 1.43075 0.990233 0
M  V30 8210 O 774.67 1.76123 0.976873 0
M  V30 8211 C 771.735 3.17909 1.38328 0
M  V30 8212 C 770.796 4.23082 0.728036 0
M  V30 8213 C 770.029 5.04484 1.74158 0
M  V30 8214 O 770.252 4.8705 2.96881 0
M  V30 8215 O 769.186 5.8747 1.31006 0
M  V30 8216 H 773.012 3.01638 -0.353281 0
M  V30 8217 H 770.597 1.47478 -0.238891 0
M  V30 8218 H 772.479 3.70937 1.9996 0
M  V30 8219 H 771.154 2.51413 2.03895 0
M  V30 8220 H 770.061 3.7403 0.07261 0
M  V30 8221 H 771.394 4.92065 0.115216 0
M  V30 8222 N 773.046 0.209999 1.56195 0
M  V30 8223 C 773.993 -0.704854 2.19774 0
M  V30 8224 C 774.963 -1.19886 1.14964 0
M  V30 8225 O 776.148 -1.26005 1.43274 0
M  V30 8226 C 773.288 -1.91241 2.87265 0
M  V30 8227 C 772.401 -1.45838 4.06639 0
M  V30 8228 C 771.536 -2.6226 4.61945 0
M  V30 8229 C 770.575 -2.13537 5.73645 0
M  V30 8230 N 769.712 -3.2319 6.23292 0
M  V30 8231 H 774.552 -0.155944 2.97592 0
M  V30 8232 H 772.089 -0.0652235 1.46955 0
M  V30 8233 H 774.047 -2.62123 3.24573 0
M  V30 8234 H 772.677 -2.43439 2.11985 0
M  V30 8235 H 771.729 -0.644897 3.74894 0
M  V30 8236 H 773.041 -1.06103 4.87384 0
M  V30 8237 H 772.195 -3.41243 5.01636 0
M  V30 8238 H 770.934 -3.05278 3.80338 0
M  V30 8239 H 769.939 -1.33013 5.33468 0
M  V30 8240 H 771.164 -1.71533 6.57079 0
M  V30 8241 H 769.11 -3.65711 5.44602 0
M  V30 8242 H 769.027 -2.8767 6.99129 0
M  V30 8243 H 770.295 -4.02342 6.67639 0
M  V30 8244 N 774.524 -1.57472 -0.0634922 0
M  V30 8245 C 775.487 -2.03268 -1.059 0
M  V30 8246 C 776.487 -0.931028 -1.31105 0
M  V30 8247 O 777.677 -1.19567 -1.26686 0
M  V30 8248 C 774.809 -2.42039 -2.40062 0
M  V30 8249 H 776.002 -2.92454 -0.664119 0
M  V30 8250 H 773.555 -1.53206 -0.309444 0
M  V30 8251 H 774.29 -1.55904 -2.84367 0
M  V30 8252 H 774.075 -3.22437 -2.23108 0
M  V30 8253 H 775.565 -2.78017 -3.11603 0
M  V30 8254 N 776.003 0.335068 -1.53997 0
M  V30 8255 C 776.951 1.43206 -1.83289 0
M  V30 8256 C 777.945 1.54081 -0.703953 0
M  V30 8257 O 779.151 1.56603 -0.887432 0
M  V30 8258 H 775.526 0.477655 -0.580818 0
M  V30 8259 H 777.497 1.15719 -2.75049 0
M  V30 8260 C 776.246 2.79602 -2.06683 0
M  V30 8261 H 775.569 2.72004 -2.93008 0
M  V30 8262 H 777.009 3.55459 -2.31139 0
M  V30 8263 C 775.468 3.25873 -0.854883 0
M  V30 8264 O 775.998 4.01657 -0.0584648 0
M  V30 8265 N 774.204 2.82777 -0.669729 0
M  V30 8266 H 773.751 2.21269 -1.31901 0
M  V30 8267 H 773.709 3.1409 0.13969 0
M  V30 8268 N 777.481 1.45874 0.596531 0
M  V30 8269 C 778.411 1.5824 1.71705 0
M  V30 8270 C 779.392 0.433366 1.64487 0
M  V30 8271 O 780.577 0.657895 1.82717 0
M  V30 8272 C 777.707 1.55927 3.10329 0
M  V30 8273 C 776.661 2.69659 3.32367 0
M  V30 8274 C 775.987 2.52403 4.71377 0
M  V30 8275 C 777.287 4.11591 3.21544 0
M  V30 8276 H 778.981 2.52035 1.61613 0
M  V30 8277 H 776.527 1.21297 0.776082 0
M  V30 8278 H 778.48 1.63173 3.88526 0
M  V30 8279 H 777.204 0.586674 3.21288 0
M  V30 8280 H 775.863 2.61859 2.56564 0
M  V30 8281 H 775.511 1.53258 4.79083 0
M  V30 8282 H 775.211 3.28679 4.87077 0
M  V30 8283 H 776.735 2.6152 5.5176 0
M  V30 8284 H 778.149 4.20576 3.89601 0
M  V30 8285 H 776.546 4.88344 3.4877 0
M  V30 8286 H 777.616 4.32719 2.1882 0
M  V30 8287 O 778.998 -0.740596 1.43518 0
M  V30 8288 H 779.689 -1.39004 1.34898 0
M  V30 END ATOM
M  V30 BEGIN BOND
M  V30 END BOND
M  V30 END CTAB
M  END
$$$$
