drugbank_target|Q9Y6B6 GTP-binding protein SAR1b (DB04315)
 OpenBabel12092120563D

  0  0  0     0  0            999 V3000
M  V30 BEGIN CTAB
M  V30 COUNTS 3161 3194 0 0 0
M  V30 BEGIN ATOM
M  V30 1 H -0.908 1.98254 -0.117106 0
M  V30 2 N 0 1.576 0 0
M  V30 3 C 0.933 2.03868 1.02534 0
M  V30 4 C 1.911 0.928543 1.3348 0
M  V30 5 O 3.095 1.19667 1.45644 0
M  V30 6 C 0.222 2.43627 2.35294 0
M  V30 7 C -0.732 3.65373 2.2001 0
M  V30 8 S 0.101 5.13292 1.52614 0
M  V30 9 C 1.257 5.56322 2.86805 0
M  V30 10 H 1.49 2.90518 0.631377 0
M  V30 11 H -0.977 1.52953 0.210867 0
M  V30 12 H 0.981 2.67203 3.11629 0
M  V30 13 H -0.358 1.57376 2.7183 0
M  V30 14 H -1.165 3.90944 3.18086 0
M  V30 15 H -1.563 3.418 1.51819 0
M  V30 16 H 0.729 5.58782 3.83104 0
M  V30 17 H 1.672 6.56266 2.65933 0
M  V30 18 H 2.08 4.83886 2.90714 0
M  V30 19 N 1.4781 -0.272755 1.55222 0
M  V30 20 C 2.7031 -1.02683 1.80197 0
M  V30 21 C 3.1281 -1.79142 0.573551 0
M  V30 22 O 2.4861 -1.74917 -0.476849 0
M  V30 23 C 2.5341 -1.9609 3.02624 0
M  V30 24 O 1.6381 -3.04863 2.77727 0
M  V30 25 H 0.9791 -0.293557 0.595584 0
M  V30 26 H 3.5091 -0.30159 2.02365 0
M  V30 27 H 3.5191 -2.38039 3.31363 0
M  V30 28 H 2.1941 -1.39851 3.91682 0
M  V30 29 H 0.7711 -2.67228 2.60084 0
M  V30 30 N 2.9562 -1.48159 -0.537278 0
M  V30 31 C 4.2032 -1.55804 -1.29349 0
M  V30 32 C 4.5312 -0.228802 -1.9315 0
M  V30 33 O 3.7862 0.780242 -1.79473 0
M  V30 34 C 4.0852 -2.63956 -2.40961 0
M  V30 35 C 3.7512 -4.0662 -1.94861 0
M  V30 36 C 2.4132 -4.45452 -1.82006 0
M  V30 37 C 4.7652 -4.96055 -1.59933 0
M  V30 38 C 2.0932 -5.71531 -1.32547 0
M  V30 39 C 4.4452 -6.22617 -1.11939 0
M  V30 40 C 3.1092 -6.60312 -0.976951 0
M  V30 41 H 2.3792 -0.570129 -0.473322 0
M  V30 42 H 5.0262 -1.81845 -0.600372 0
M  V30 43 H 3.3312 -2.31747 -3.15912 0
M  V30 44 H 5.0282 -2.67089 -2.99107 0
M  V30 45 H 1.6182 -3.75949 -2.05815 0
M  V30 46 H 5.8022 -4.66738 -1.68728 0
M  V30 47 H 1.0582 -5.99468 -1.202 0
M  V30 48 H 5.2322 -6.91318 -0.839811 0
M  V30 49 H 2.8592 -7.57895 -0.591501 0
M  V30 50 N 4.4343 0.785586 -1.36625 0
M  V30 51 C 5.6833 1.53883 -1.30396 0
M  V30 52 C 5.9963 1.95271 0.113452 0
M  V30 53 O 7.2023 2.69858 0.298142 0
M  V30 54 C 5.6583 2.77808 -2.28802 0
M  V30 55 C 5.2663 2.43574 -3.75999 0
M  V30 56 C 7.0103 3.55783 -2.31558 0
M  V30 57 C 4.9173 3.63919 -4.66173 0
M  V30 58 H 3.8473 0.577678 -0.484566 0
M  V30 59 H 6.4983 0.861705 -1.62009 0
M  V30 60 H 4.8803 3.47339 -1.90188 0
M  V30 61 H 6.0543 1.81916 -4.23371 0
M  V30 62 H 4.3693 1.78803 -3.76056 0
M  V30 63 H 6.9663 4.45205 -2.96137 0
M  V30 64 H 7.3093 3.94644 -1.3252 0
M  V30 65 H 7.8423 2.93235 -2.68809 0
M  V30 66 H 4.5813 3.3015 -5.66287 0
M  V30 67 H 4.1013 4.2473 -4.23515 0
M  V30 68 H 5.7803 4.30901 -4.82632 0
M  V30 69 N 5.9124 1.20967 1.01018 0
M  V30 70 C 7.1594 1.02374 1.74716 0
M  V30 71 C 7.4874 -0.443375 1.89379 0
M  V30 72 O 6.7424 -1.34535 1.42123 0
M  V30 73 C 7.0414 1.65997 3.16512 0
M  V30 74 C 6.7074 3.15831 3.2181 0
M  V30 75 C 5.3694 3.56719 3.22963 0
M  V30 76 C 7.7214 4.11816 3.19464 0
M  V30 77 C 5.0494 4.92107 3.19449 0
M  V30 78 C 7.4014 5.47158 3.17491 0
M  V30 79 C 6.0654 5.87451 3.16951 0
M  V30 80 H 5.3354 0.374614 0.639332 0
M  V30 81 H 7.9824 1.50485 1.18434 0
M  V30 82 H 6.2874 1.10166 3.75993 0
M  V30 83 H 7.9844 1.49119 3.72242 0
M  V30 84 H 4.5744 2.83263 3.21652 0
M  V30 85 H 8.7584 3.81257 3.17737 0
M  V30 86 H 4.0144 5.22579 3.17366 0
M  V30 87 H 8.1884 6.21274 3.14629 0
M  V30 88 H 5.8154 6.92329 3.13983 0
M  V30 89 N 7.3905 -1.2043 1.01659 0
M  V30 90 C 8.6675 -1.8548 0.621004 0
M  V30 91 C 9.0475 -1.9091 -0.900919 0
M  V30 92 O 8.3955 -1.41694 -1.79263 0
M  V30 93 C 8.6055 -3.25119 1.2688 0
M  V30 94 C 9.9535 -4.01403 1.38423 0
M  V30 95 O 10.9775 -3.34473 1.22501 0
M  V30 96 O 9.8365 -5.21265 1.64151 0
M  V30 97 H 6.9305 -0.798761 0.214266 0
M  V30 98 H 9.4765 -1.28019 1.11396 0
M  V30 99 H 8.2485 -3.15932 2.30873 0
M  V30 100 H 7.8715 -3.90212 0.762917 0
M  V30 101 N 8.8686 -0.792821 -1.36206 0
M  V30 102 C 10.1146 -0.376415 -1.99887 0
M  V30 103 C 10.4696 1.04127 -1.61788 0
M  V30 104 O 9.7626 1.71004 -0.864193 0
M  V30 105 C 9.9566 -0.481501 -3.54142 0
M  V30 106 C 9.7856 -1.90786 -4.07223 0
M  V30 107 C 8.5556 -2.53322 -4.37214 0
M  V30 108 C 10.7536 -2.87048 -4.26741 0
M  V30 109 N 8.7356 -3.8751 -4.7614 0
M  V30 110 C 10.1066 -4.06077 -4.6851 0
M  V30 111 C 12.1616 -2.8406 -4.08918 0
M  V30 112 C 10.8646 -5.22532 -4.94321 0
M  V30 113 C 12.8906 -3.99705 -4.35878 0
M  V30 114 C 12.2526 -5.1748 -4.77906 0
M  V30 115 H 8.3516 -0.185226 -0.759747 0
M  V30 116 H 10.9356 -1.03114 -1.65153 0
M  V30 117 H 9.1066 0.143154 -3.88136 0
M  V30 118 H 10.8386 -0.0410128 -4.04679 0
M  V30 119 H 7.5936 -2.04777 -4.2704 0
M  V30 120 H 8.0176 -4.5656 -4.99882 0
M  V30 121 H 12.6596 -1.94165 -3.75579 0
M  V30 122 H 10.3776 -6.1301 -5.2654 0
M  V30 123 H 13.9636 -3.98758 -4.23655 0
M  V30 124 H 12.8436 -6.05478 -4.98363 0
M  V30 125 N 10.3467 1.47872 -0.545128 0
M  V30 126 C 11.5957 2.01695 -0.0145033 0
M  V30 127 C 11.9087 1.42609 1.33873 0
M  V30 128 O 13.1147 1.88021 1.95858 0
M  V30 129 C 11.5707 3.59892 0.0245068 0
M  V30 130 C 11.1787 4.27966 -1.32475 0
M  V30 131 C 12.9227 4.21507 0.50316 0
M  V30 132 C 10.8297 5.78136 -1.2455 0
M  V30 133 H 9.7597 0.753998 -0.00165172 0
M  V30 134 H 12.4107 1.69985 -0.691175 0
M  V30 135 H 10.7927 3.88509 0.766575 0
M  V30 136 H 11.9667 4.11003 -2.08357 0
M  V30 137 H 10.2817 3.78286 -1.74036 0
M  V30 138 H 12.8787 5.31538 0.580656 0
M  V30 139 H 13.2217 3.87855 1.51243 0
M  V30 140 H 13.7547 3.97376 -0.183681 0
M  V30 141 H 10.4937 6.16388 -2.23039 0
M  V30 142 H 10.0137 5.97469 -0.528282 0
M  V30 143 H 11.6927 6.40099 -0.942488 0
M  V30 144 N 11.8248 0.280983 1.55075 0
M  V30 145 C 13.0548 -0.336804 2.03836 0
M  V30 146 C 13.4628 -1.49577 1.15859 0
M  V30 147 O 12.8058 -1.82888 0.172503 0
M  V30 148 C 12.8678 -0.874616 3.48699 0
M  V30 149 C 12.5318 0.156478 4.56732 0
M  V30 150 C 13.5288 0.978032 5.10618 0
M  V30 151 C 11.2138 0.292409 5.01448 0
M  V30 152 C 13.2078 1.92165 6.07743 0
M  V30 153 C 10.8948 1.23949 5.98398 0
M  V30 154 C 11.8928 2.05261 6.51427 0
M  V30 155 O 11.5808 2.98367 7.4648 0
M  V30 156 H 11.3128 -0.0800885 0.671239 0
M  V30 157 H 13.8668 0.412589 2.01213 0
M  V30 158 H 12.0968 -1.67418 3.4858 0
M  V30 159 H 13.7858 -1.40612 3.80766 0
M  V30 160 H 14.5518 0.883782 4.7688 0
M  V30 161 H 10.4308 -0.330498 4.59814 0
M  V30 162 H 13.9748 2.55672 6.49059 0
M  V30 163 H 9.8718 1.33454 6.31554 0
M  V30 164 H 10.6398 2.93116 7.64215 0
M  V30 165 N 13.3029 -1.57598 0.00835791 0
M  V30 166 C 14.5279 -1.95617 -0.689103 0
M  V30 167 C 14.9529 -0.883753 -1.66046 0
M  V30 168 O 14.3109 0.157352 -1.80616 0
M  V30 169 C 14.3589 -3.32736 -1.38994 0
M  V30 170 O 13.4629 -3.27631 -2.50463 0
M  V30 171 H 12.8039 -0.638379 -0.182668 0
M  V30 172 H 15.3339 -2.045 0.064036 0
M  V30 173 H 15.3439 -3.68494 -1.75147 0
M  V30 174 H 14.0189 -4.1034 -0.677778 0
M  V30 175 H 12.5959 -3.03561 -2.16576 0
M  V30 176 N 14.781 0.264519 -1.55364 0
M  V30 177 C 16.029 0.993021 -1.76021 0
M  V30 178 C 16.35 1.86511 -0.569099 0
M  V30 179 O 15.62 1.91438 0.415735 0
M  V30 180 H 14.2 0.369639 -0.649135 0
M  V30 181 H 16.862 0.286707 -1.9278 0
M  V30 182 H 15.958 1.62502 -2.66457 0
M  V30 183 N 16.2591 1.48442 0.529413 0
M  V30 184 C 17.5061 1.56488 1.28521 0
M  V30 185 C 17.8341 0.239042 1.93025 0
M  V30 186 O 17.0891 -0.770713 1.79885 0
M  V30 187 C 17.3881 2.6523 2.39558 0
M  V30 188 C 17.0541 4.07648 1.92702 0
M  V30 189 C 15.7161 4.46411 1.79641 0
M  V30 190 C 18.0681 4.96896 1.573 0
M  V30 191 C 15.3961 5.72226 1.29514 0
M  V30 192 C 17.7481 6.23202 1.08636 0
M  V30 193 C 16.4121 6.60821 0.941919 0
M  V30 194 H 15.6821 0.572631 0.470292 0
M  V30 195 H 18.3291 1.82161 0.59072 0
M  V30 196 H 16.6341 2.33419 3.14679 0
M  V30 197 H 18.3311 2.68671 2.97686 0
M  V30 198 H 14.9211 3.77036 2.03819 0
M  V30 199 H 19.1051 4.67626 1.66251 0
M  V30 200 H 14.3611 6.00097 1.17019 0
M  V30 201 H 18.5351 6.91753 0.803136 0
M  V30 202 H 16.1621 7.58198 0.5513 0
M  V30 203 N 17.7372 -0.778329 1.37039 0
M  V30 204 C 18.9622 -1.57248 1.35233 0
M  V30 205 C 19.3872 -1.87999 -0.0615568 0
M  V30 206 O 18.7452 -1.48734 -1.03672 0
M  V30 207 C 18.7932 -2.86353 2.19167 0
M  V30 208 O 17.8972 -3.80442 1.59178 0
M  V30 209 H 17.2382 -0.476569 0.462362 0
M  V30 210 H 19.7682 -0.963853 1.80474 0
M  V30 211 H 19.7782 -3.35519 2.32145 0
M  V30 212 H 18.4532 -2.63299 3.21942 0
M  V30 213 H 17.0302 -3.39067 1.55203 0
M  V30 214 N 19.2153 -1.21501 -1.00376 0
M  V30 215 C 20.4403 -1.05977 -1.78279 0
M  V30 216 C 20.8653 0.385994 -1.84097 0
M  V30 217 O 20.2233 1.27849 -1.28547 0
M  V30 218 C 20.2713 -1.66302 -3.19963 0
M  V30 219 O 19.3753 -0.909333 -4.0225 0
M  V30 220 H 18.7163 -0.372906 -0.549397 0
M  V30 221 H 21.2463 -1.6107 -1.26165 0
M  V30 222 H 21.2563 -1.70574 -3.70632 0
M  V30 223 H 19.9313 -2.71515 -3.15043 0
M  V30 224 H 18.5083 -0.941795 -3.60811 0
M  V30 225 N 20.6934 1.19889 -1.02296 0
M  V30 226 C 21.9394 1.89701 -0.717033 0
M  V30 227 C 22.2724 1.7905 0.751989 0
M  V30 228 O 21.5474 1.17891 1.547 0
M  V30 229 C 21.8304 3.40858 -1.16136 0
M  V30 230 C 21.6834 3.60411 -2.69117 0
M  V30 231 C 23.0024 4.33876 -0.737549 0
M  V30 232 H 20.1214 0.688874 -0.261957 0
M  V30 233 H 22.7634 1.41154 -1.27183 0
M  V30 234 H 20.9134 3.82335 -0.689342 0
M  V30 235 H 22.5854 3.28145 -3.2422 0
M  V30 236 H 20.8284 3.03665 -3.0979 0
M  V30 237 H 21.4994 4.66396 -2.95261 0
M  V30 238 H 23.9754 4.00081 -1.14344 0
M  V30 239 H 22.8514 5.38242 -1.0764 0
M  V30 240 H 23.1124 4.40628 0.360436 0
M  V30 241 N 22.1715 0.800033 1.35784 0
M  V30 242 C 23.1015 0.220184 2.3246 0
M  V30 243 C 24.0825 -0.65073 1.57161 0
M  V30 244 O 25.2675 -0.582359 1.85263 0
M  V30 245 C 22.3975 -0.637353 3.41402 0
M  V30 246 C 21.3515 0.134531 4.27789 0
M  V30 247 C 20.6775 -0.844285 5.27992 0
M  V30 248 C 21.9775 1.32979 5.05088 0
M  V30 249 H 23.6715 1.02787 2.81203 0
M  V30 250 H 21.2175 0.495717 1.35199 0
M  V30 251 H 23.1705 -1.05302 4.08031 0
M  V30 252 H 21.8945 -1.47785 2.91251 0
M  V30 253 H 20.5535 0.531296 3.6273 0
M  V30 254 H 20.2015 -1.68011 4.74111 0
M  V30 255 H 19.9015 -0.332184 5.8666 0
M  V30 256 H 21.4255 -1.2583 5.97494 0
M  V30 257 H 22.8395 0.98934 5.64699 0
M  V30 258 H 21.2365 1.77593 5.7322 0
M  V30 259 H 22.3065 2.11978 4.36111 0
M  V30 260 N 23.6496 -1.47581 0.552962 0
M  V30 261 C 24.5816 -2.27997 -0.234533 0
M  V30 262 C 25.5946 -1.36753 -0.883321 0
M  V30 263 O 26.7836 -1.61612 -0.757889 0
M  V30 264 C 23.8836 -3.10879 -1.34935 0
M  V30 265 C 23.0566 -4.30056 -0.798158 0
M  V30 266 C 22.1156 -4.94567 -1.79694 0
M  V30 267 O 21.1416 -5.53087 -1.34474 0
M  V30 268 N 22.3436 -4.88878 -3.13015 0
M  V30 269 H 25.1086 -2.96222 0.455255 0
M  V30 270 H 22.6696 -1.57163 0.388761 0
M  V30 271 H 24.6616 -3.50903 -2.01616 0
M  V30 272 H 23.2316 -2.44924 -1.94244 0
M  V30 273 H 22.4516 -3.94174 0.0453079 0
M  V30 274 H 23.7396 -5.07152 -0.409173 0
M  V30 275 H 23.1376 -4.42526 -3.52402 0
M  V30 276 H 21.6946 -5.32934 -3.75266 0
M  V30 277 N 25.1277 -0.289203 -1.54924 0
M  V30 278 C 26.3747 0.323519 -1.99899 0
M  V30 279 C 26.7027 1.54797 -1.17762 0
M  V30 280 O 25.9577 1.94237 -0.238835 0
M  V30 281 C 26.2567 0.736119 -3.49737 0
M  V30 282 C 25.9227 -0.385276 -4.49251 0
M  V30 283 C 24.5847 -0.693156 -4.76181 0
M  V30 284 C 26.9367 -1.14021 -5.08575 0
M  V30 285 C 24.2647 -1.7593 -5.59701 0
M  V30 286 C 26.6167 -2.19619 -5.93254 0
M  V30 287 C 25.2807 -2.51026 -6.185 0
M  V30 288 H 24.5507 0.118384 -0.731482 0
M  V30 289 H 27.1977 -0.405847 -1.8715 0
M  V30 290 H 25.5027 1.54539 -3.60035 0
M  V30 291 H 27.1997 1.22118 -3.81953 0
M  V30 292 H 23.7897 -0.135202 -4.28387 0
M  V30 293 H 27.9737 -0.915611 -4.87781 0
M  V30 294 H 23.2297 -2.0075 -5.77503 0
M  V30 295 H 27.4037 -2.78581 -6.38252 0
M  V30 296 H 25.0307 -3.33772 -6.83008 0
M  V30 297 N 26.6058 1.57591 -0.0167156 0
M  V30 298 C 27.5358 2.12496 0.967858 0
M  V30 299 C 28.5168 1.03807 1.34752 0
M  V30 300 O 29.7018 1.31577 1.42833 0
M  V30 301 C 26.8318 2.64194 2.25431 0
M  V30 302 C 25.7858 3.77559 2.01576 0
M  V30 303 C 25.1118 4.15636 3.36379 0
M  V30 304 C 26.4118 5.04151 1.36489 0
M  V30 305 H 28.1058 2.95013 0.510643 0
M  V30 306 H 25.6518 1.41915 0.244181 0
M  V30 307 H 27.6048 3.01236 2.94678 0
M  V30 308 H 26.3288 1.78821 2.73296 0
M  V30 309 H 24.9878 3.40937 1.34751 0
M  V30 310 H 24.6358 3.27263 3.81979 0
M  V30 311 H 24.3358 4.92022 3.21229 0
M  V30 312 H 25.8598 4.5525 4.06915 0
M  V30 313 H 27.2738 5.38857 1.95718 0
M  V30 314 H 25.6708 5.85453 1.31776 0
M  V30 315 H 26.7408 4.83733 0.336219 0
M  V30 316 N 28.0839 -0.256276 1.55502 0
M  V30 317 C 29.3319 -0.983672 1.76545 0
M  V30 318 C 29.6529 -1.86206 0.578982 0
M  V30 319 O 28.9229 -1.91656 -0.405577 0
M  V30 320 H 27.5029 -0.366191 0.651086 0
M  V30 321 H 30.1649 -0.276479 1.92929 0
M  V30 322 H 29.2609 -1.61087 2.67315 0
M  V30 323 N 29.562 -1.4872 -0.521534 0
M  V30 324 C 30.492 -1.66771 -1.63431 0
M  V30 325 C 31.473 -0.516499 -1.62069 0
M  V30 326 O 32.658 -0.750013 -1.79132 0
M  V30 327 C 29.788 -1.71515 -3.01993 0
M  V30 328 C 28.742 -2.86222 -3.18216 0
M  V30 329 C 28.068 -2.76061 -4.57924 0
M  V30 330 C 29.368 -4.27419 -3.00184 0
M  V30 331 H 31.062 -2.59932 -1.48579 0
M  V30 332 H 28.608 -1.25089 -0.713358 0
M  V30 333 H 30.561 -1.82731 -3.7972 0
M  V30 334 H 29.285 -0.749393 -3.17886 0
M  V30 335 H 27.944 -2.74575 -2.42908 0
M  V30 336 H 27.592 -1.77437 -4.70665 0
M  V30 337 H 27.292 -3.53037 -4.69722 0
M  V30 338 H 28.816 -2.89256 -5.37739 0
M  V30 339 H 30.23 -4.39855 -3.67697 0
M  V30 340 H 28.627 -5.05458 -3.2347 0
M  V30 341 H 29.697 -4.43293 -1.96518 0
M  V30 342 N 31.0401 0.771051 -1.3745 0
M  V30 343 C 32.2701 1.55789 -1.35696 0
M  V30 344 C 32.6781 1.89107 0.0594523 0
M  V30 345 O 32.0211 1.51984 1.03183 0
M  V30 346 C 32.0831 2.89515 -2.13123 0
M  V30 347 C 31.7471 2.78829 -3.62082 0
M  V30 348 C 32.7441 2.49812 -4.5595 0
M  V30 349 C 30.4291 2.9683 -4.05213 0
M  V30 350 C 32.4231 2.38923 -5.90927 0
M  V30 351 C 30.1101 2.85562 -5.40276 0
M  V30 352 C 31.1081 2.56649 -6.32946 0
M  V30 353 O 30.7961 2.45408 -7.65526 0
M  V30 354 H 30.5281 0.489257 -0.466481 0
M  V30 355 H 33.0821 0.963446 -1.81403 0
M  V30 356 H 31.3121 3.51081 -1.62107 0
M  V30 357 H 33.0011 3.50915 -2.03994 0
M  V30 358 H 33.7671 2.3559 -4.23937 0
M  V30 359 H 29.6461 3.18335 -3.33442 0
M  V30 360 H 33.1901 2.16277 -6.63227 0
M  V30 361 H 29.0871 2.99351 -5.71891 0
M  V30 362 H 29.8551 2.60753 -7.75855 0
M  V30 363 N 32.5182 1.22032 0.997298 0
M  V30 364 C 33.4652 0.986467 2.08656 0
M  V30 365 C 34.4352 -0.0902671 1.65855 0
M  V30 366 O 35.6202 0.0584294 1.90711 0
M  V30 367 C 32.7602 0.565569 3.40434 0
M  V30 368 C 31.8732 1.71259 3.96604 0
M  V30 369 C 31.0082 1.24011 5.16522 0
M  V30 370 C 30.0472 2.35896 5.64818 0
M  V30 371 N 29.1842 1.89726 6.7598 0
M  V30 372 H 34.0242 1.91892 2.27994 0
M  V30 373 H 31.5612 0.956199 1.11782 0
M  V30 374 H 33.5192 0.302738 4.161 0
M  V30 375 H 32.1492 -0.329879 3.2111 0
M  V30 376 H 31.2012 2.08986 3.17851 0
M  V30 377 H 32.5132 2.55436 4.28432 0
M  V30 378 H 31.6672 0.934395 5.99461 0
M  V30 379 H 30.4062 0.368487 4.86306 0
M  V30 380 H 29.4112 2.67261 4.8047 0
M  V30 381 H 30.6362 3.23567 5.97061 0
M  V30 382 H 28.5822 1.0492 6.47555 0
M  V30 383 H 28.4992 2.67471 7.07103 0
M  V30 384 H 29.7672 1.62211 7.62435 0
M  V30 385 N 33.9963 -1.19345 1.0293 0
M  V30 386 C 34.9433 -2.2258 0.610464 0
M  V30 387 C 35.9133 -1.6179 -0.375946 0
M  V30 388 O 37.0983 -1.88844 -0.272511 0
M  V30 389 C 34.2383 -3.45085 -0.0321473 0
M  V30 390 C 33.3513 -4.20258 1.00035 0
M  V30 391 C 32.4863 -5.3019 0.32746 0
M  V30 392 C 31.5253 -5.97121 1.34584 0
M  V30 393 N 30.6623 -6.98615 0.698726 0
M  V30 394 H 35.5023 -2.57764 1.49538 0
M  V30 395 H 33.0393 -1.26644 0.748311 0
M  V30 396 H 34.9973 -4.15061 -0.421966 0
M  V30 397 H 33.6273 -3.10555 -0.88064 0
M  V30 398 H 32.6793 -3.49223 1.50823 0
M  V30 399 H 33.9913 -4.66175 1.77433 0
M  V30 400 H 33.1453 -6.06587 -0.11718 0
M  V30 401 H 31.8843 -4.85345 -0.478713 0
M  V30 402 H 30.8893 -5.19474 1.80074 0
M  V30 403 H 32.1143 -6.4405 2.15352 0
M  V30 404 H 30.0603 -6.55942 -0.0873471 0
M  V30 405 H 29.9773 -7.42724 1.41058 0
M  V30 406 H 31.2453 -7.79004 0.278102 0
M  V30 407 N 35.4744 -0.807222 -1.35358 0
M  V30 408 C 36.7024 -0.400377 -2.02989 0
M  V30 409 C 37.1174 0.988859 -1.60832 0
M  V30 410 O 36.4744 1.63729 -0.806175 0
M  V30 411 C 36.5254 -0.474867 -3.58368 0
M  V30 412 O 36.2464 -1.80933 -3.98992 0
M  V30 413 C 37.7474 -0.0609112 -4.43258 0
M  V30 414 H 34.9674 -0.162587 -0.651004 0
M  V30 415 H 37.5114 -1.09102 -1.72965 0
M  V30 416 H 35.6664 0.167534 -3.87038 0
M  V30 417 H 36.0804 -1.77256 -4.9364 0
M  V30 418 H 37.5544 -0.164145 -5.51756 0
M  V30 419 H 38.0314 0.993831 -4.27808 0
M  V30 420 H 38.6374 -0.676492 -4.19885 0
M  V30 421 N 36.9525 1.47285 -0.560781 0
M  V30 422 C 38.2005 2.02064 -0.0379868 0
M  V30 423 C 38.5215 1.43711 1.31803 0
M  V30 424 O 37.7915 0.61362 1.86042 0
M  V30 425 H 36.3715 0.746918 -0.0110531 0
M  V30 426 H 39.0335 1.80648 -0.731598 0
M  V30 427 H 38.1295 3.12064 0.0474463 0
M  V30 428 N 38.4306 0.297415 1.54768 0
M  V30 429 C 39.3776 -0.580276 2.23386 0
M  V30 430 C 40.3476 -1.13238 1.21517 0
M  V30 431 O 41.5326 -1.17757 1.50126 0
M  V30 432 C 38.6726 -1.74801 2.97555 0
M  V30 433 C 37.7856 -1.22764 4.1419 0
M  V30 434 C 36.9206 -2.35895 4.75949 0
M  V30 435 C 35.9596 -1.80974 5.84735 0
M  V30 436 N 35.0966 -2.87664 6.40464 0
M  V30 437 H 39.9366 0.0114833 2.97998 0
M  V30 438 H 37.4736 0.0174361 1.4709 0
M  V30 439 H 39.4316 -2.43475 3.38786 0
M  V30 440 H 38.0616 -2.31145 2.25326 0
M  V30 441 H 37.1136 -0.433271 3.77924 0
M  V30 442 H 38.4256 -0.785551 4.92575 0
M  V30 443 H 37.5796 -3.12523 5.20014 0
M  V30 444 H 36.3186 -2.83429 3.96887 0
M  V30 445 H 35.3236 -1.02834 5.40097 0
M  V30 446 H 36.5486 -1.34348 6.65678 0
M  V30 447 H 34.4946 -3.34538 5.64287 0
M  V30 448 H 34.4116 -2.4794 7.14186 0
M  V30 449 H 35.6796 -3.642 6.89187 0
M  V30 450 N 39.9087 -1.5758 0.0250728 0
M  V30 451 C 40.8387 -2.13007 -0.956575 0
M  V30 452 C 41.8197 -1.0452 -1.342 0
M  V30 453 O 43.0047 -1.32332 -1.42133 0
M  V30 454 C 40.1347 -2.65386 -2.24026 0
M  V30 455 C 39.0887 -3.78623 -1.99571 0
M  V30 456 C 38.4147 -4.17414 -3.3417 0
M  V30 457 C 39.7147 -5.04867 -1.33814 0
M  V30 458 H 41.4087 -2.9528 -0.494991 0
M  V30 459 H 38.9547 -1.42042 -0.236651 0
M  V30 460 H 40.9077 -3.02794 -2.93076 0
M  V30 461 H 39.6317 -1.80268 -2.72343 0
M  V30 462 H 38.2907 -3.41646 -1.32941 0
M  V30 463 H 37.9387 -3.29284 -3.80238 0
M  V30 464 H 37.6387 -4.93719 -3.18615 0
M  V30 465 H 39.1627 -4.57402 -4.04495 0
M  V30 466 H 40.5767 -5.39888 -1.92857 0
M  V30 467 H 38.9737 -5.86144 -1.28669 0
M  V30 468 H 40.0437 -4.83904 -0.310561 0
M  V30 469 N 41.3868 0.248026 -1.55636 0
M  V30 470 C 42.6328 0.97767 -1.77678 0
M  V30 471 C 42.9658 1.85016 -0.590135 0
M  V30 472 O 42.2408 1.90095 0.411611 0
M  V30 473 C 42.5238 1.83914 -3.09593 0
M  V30 474 C 42.3768 0.99491 -4.38659 0
M  V30 475 C 43.6958 2.82183 -3.37729 0
M  V30 476 H 40.8148 0.354005 -0.646413 0
M  V30 477 H 43.4568 0.248253 -1.88371 0
M  V30 478 H 41.6068 2.46104 -3.00608 0
M  V30 479 H 43.2788 0.391789 -4.59633 0
M  V30 480 H 41.5218 0.299231 -4.32767 0
M  V30 481 H 42.1928 1.63145 -5.2734 0
M  V30 482 H 44.6688 2.30129 -3.4667 0
M  V30 483 H 43.5448 3.39582 -4.31249 0
M  V30 484 H 43.8058 3.58588 -2.58586 0
M  V30 485 N 42.8649 1.48995 0.513639 0
M  V30 486 C 44.1119 1.57843 1.26854 0
M  V30 487 C 44.4399 0.259501 1.92761 0
M  V30 488 O 43.6949 -0.75159 1.80692 0
M  V30 489 C 43.9939 2.67756 2.36731 0
M  V30 490 C 43.6599 4.09669 1.88368 0
M  V30 491 C 42.3219 4.48291 1.74896 0
M  V30 492 C 44.6739 4.98537 1.52021 0
M  V30 493 C 42.0019 5.73568 1.23438 0
M  V30 494 C 44.3539 6.24319 1.0202 0
M  V30 495 C 43.0179 6.61783 0.871778 0
M  V30 496 H 42.2879 0.577587 0.464192 0
M  V30 497 H 44.9349 1.82778 0.571366 0
M  V30 498 H 43.2399 2.36743 3.12185 0
M  V30 499 H 44.9369 2.71813 2.9482 0
M  V30 500 H 41.5269 3.79176 1.99808 0
M  V30 501 H 45.7109 4.69363 1.61281 0
M  V30 502 H 40.9669 6.01304 1.10648 0
M  V30 503 H 45.1409 6.92566 0.729722 0
M  V30 504 H 42.7679 7.5874 0.470852 0
M  V30 505 N 44.343 -0.763751 1.37857 0
M  V30 506 C 45.273 -1.89103 1.36975 0
M  V30 507 C 46.254 -1.68439 0.237152 0
M  V30 508 O 47.439 -1.8918 0.438713 0
M  V30 509 C 44.569 -3.26496 1.18395 0
M  V30 510 C 43.523 -3.61741 2.28751 0
M  V30 511 C 42.849 -4.97762 1.95286 0
M  V30 512 C 44.149 -3.67665 3.70972 0
M  V30 513 H 45.843 -1.90099 2.31307 0
M  V30 514 H 43.389 -0.91319 1.11341 0
M  V30 515 H 45.342 -4.05003 1.16406 0
M  V30 516 H 44.066 -3.25955 0.205215 0
M  V30 517 H 42.725 -2.85547 2.29909 0
M  V30 518 H 42.373 -4.93769 0.959221 0
M  V30 519 H 42.073 -5.22313 2.69189 0
M  V30 520 H 43.597 -5.7866 1.94898 0
M  V30 521 H 45.011 -4.36307 3.719 0
M  V30 522 H 43.408 -4.03718 4.43995 0
M  V30 523 H 44.478 -2.68134 4.0402 0
M  V30 524 N 45.8211 -1.22559 -0.990812 0
M  V30 525 C 47.0691 -1.04933 -1.72724 0
M  V30 526 C 47.3901 0.416158 -1.90508 0
M  V30 527 O 46.6601 1.29918 -1.46622 0
M  V30 528 H 45.2401 -0.385296 -0.639965 0
M  V30 529 H 47.9021 -1.54105 -1.19322 0
M  V30 530 H 46.9981 -1.52886 -2.72089 0
M  V30 531 N 47.2992 1.18797 -1.03562 0
M  V30 532 C 48.2292 2.24472 -0.643019 0
M  V30 533 C 49.2102 1.66433 0.351283 0
M  V30 534 O 50.3952 1.92803 0.232505 0
M  V30 535 C 47.5252 3.473 4.24935e-05 0
M  V30 536 C 46.4792 4.18055 -0.917257 0
M  V30 537 C 45.8052 5.34519 -0.138941 0
M  V30 538 C 47.1052 4.72109 -2.23407 0
M  V30 539 H 48.7992 2.57566 -1.52643 0
M  V30 540 H 46.3452 1.23806 -0.735394 0
M  V30 541 H 48.2982 4.20426 0.286383 0
M  V30 542 H 47.0222 3.13424 0.918299 0
M  V30 543 H 45.6812 3.46821 -1.1879 0
M  V30 544 H 45.3292 4.96891 0.781562 0
M  V30 545 H 45.0292 5.82794 -0.750005 0
M  V30 546 H 46.5532 6.10438 0.1405 0
M  V30 547 H 47.9672 5.36955 -2.00879 0
M  V30 548 H 46.3642 5.30897 -2.79765 0
M  V30 549 H 47.4342 3.89807 -2.88407 0
M  V30 550 N 48.7773 0.814389 1.34928 0
M  V30 551 C 50.0543 0.321363 1.92942 0
M  V30 552 C 50.4343 -1.19014 1.74353 0
M  V30 553 O 49.7823 -1.99328 1.11716 0
M  V30 554 C 49.9923 0.741323 3.41036 0
M  V30 555 C 51.3403 0.735266 4.18185 0
M  V30 556 O 52.3643 0.68336 3.49584 0
M  V30 557 O 51.2233 0.800703 5.40602 0
M  V30 558 H 48.3173 0.0858893 0.822528 0
M  V30 559 H 50.8633 0.898609 1.43955 0
M  V30 560 H 49.6353 1.78276 3.4833 0
M  V30 561 H 49.2583 0.139307 3.97356 0
M  V30 562 N 50.2554 -1.46986 0.568584 0
M  V30 563 C 51.2034 -2.31858 -0.185649 0
M  V30 564 C 52.1974 -1.43624 -0.898249 0
M  V30 565 O 53.4034 -1.60327 -0.818242 0
M  V30 566 H 49.7784 -0.747866 -0.0787399 0
M  V30 567 H 51.7494 -2.93303 0.549191 0
M  V30 568 C 50.4984 -3.26513 -1.19519 0
M  V30 569 H 49.8214 -3.94377 -0.656285 0
M  V30 570 H 51.2614 -3.88707 -1.6936 0
M  V30 571 C 49.7204 -2.50847 -2.24894 0
M  V30 572 O 50.2504 -2.26119 -3.32014 0
M  V30 573 N 48.4564 -2.11656 -1.99124 0
M  V30 574 H 48.0034 -2.31966 -1.12024 0
M  V30 575 H 47.9614 -1.61347 -2.69842 0
M  V30 576 N 51.7335 -0.305618 -1.54608 0
M  V30 577 C 52.6965 0.555591 -2.22364 0
M  V30 578 C 53.6965 1.05768 -1.21119 0
M  V30 579 O 54.8865 0.952972 -1.45822 0
M  V30 580 C 52.0185 1.76974 -2.91364 0
M  V30 581 H 53.2115 -0.0364572 -2.99878 0
M  V30 582 H 50.7645 -0.0565007 -1.56198 0
M  V30 583 H 51.4995 2.40151 -2.17941 0
M  V30 584 H 51.2845 1.41732 -3.65588 0
M  V30 585 H 52.7745 2.38148 -3.43038 0
M  V30 586 N 53.2116 1.57565 -0.0334293 0
M  V30 587 C 54.4596 1.91598 0.642999 0
M  V30 588 C 54.7806 0.910847 1.7242 0
M  V30 589 O 54.0506 -0.0469931 1.95844 0
M  V30 590 H 52.6306 0.707228 0.240496 0
M  V30 591 H 55.2926 1.94726 -0.0822488 0
M  V30 592 H 54.3886 2.92336 1.09298 0
M  V30 593 N 54.6897 -0.239769 1.55765 0
M  V30 594 C 55.6367 -1.29696 1.90913 0
M  V30 595 C 56.6067 -1.47478 0.764164 0
M  V30 596 O 57.7917 -1.61345 1.01845 0
M  V30 597 C 54.9317 -2.64598 2.21544 0
M  V30 598 C 54.0447 -2.54765 3.48882 0
M  V30 599 C 53.1797 -3.82069 3.69049 0
M  V30 600 C 52.2187 -3.66883 4.89963 0
M  V30 601 N 51.3557 -4.86094 5.06614 0
M  V30 602 H 56.1957 -0.990224 2.81067 0
M  V30 603 H 53.7327 -0.477684 1.39128 0
M  V30 604 H 55.6907 -3.43132 2.3731 0
M  V30 605 H 54.3207 -2.93405 1.34585 0
M  V30 606 H 53.3727 -1.67763 3.41409 0
M  V30 607 H 54.6847 -2.39457 4.37563 0
M  V30 608 H 53.8387 -4.69046 3.84812 0
M  V30 609 H 52.5777 -4.00282 2.78614 0
M  V30 610 H 51.5827 -2.78289 4.74168 0
M  V30 611 H 52.8077 -3.50157 5.81865 0
M  V30 612 H 50.7537 -5.04655 4.19117 0
M  V30 613 H 50.6707 -4.73443 5.89396 0
M  V30 614 H 51.9387 -5.74549 5.26795 0
M  V30 615 N 56.1678 -1.49265 -0.50573 0
M  V30 616 C 57.3958 -1.62215 -1.28429 0
M  V30 617 C 57.8108 -0.291697 -1.86533 0
M  V30 618 O 57.1678 0.722233 -1.67601 0
M  V30 619 C 57.2188 -2.68735 -2.41793 0
M  V30 620 O 56.9398 -3.96619 -1.86078 0
M  V30 621 C 58.4408 -2.92346 -3.3324 0
M  V30 622 H 55.6608 -0.546239 -0.389697 0
M  V30 623 H 58.2048 -1.95265 -0.607609 0
M  V30 624 H 56.3598 -2.38476 -3.053 0
M  V30 625 H 56.7738 -4.55256 -2.60465 0
M  V30 626 H 58.2478 -3.70623 -4.09075 0
M  V30 627 H 58.7248 -2.02081 -3.89948 0
M  V30 628 H 59.3308 -3.24003 -2.75503 0
M  V30 629 N 57.6459 0.756429 -1.3826 0
M  V30 630 C 58.8739 1.54565 -1.3754 0
M  V30 631 C 59.2889 1.88767 0.0355331 0
M  V30 632 O 58.6459 1.52572 1.0014 0
M  V30 633 C 58.6969 2.84654 -2.22833 0
M  V30 634 O 58.4179 2.51912 -3.5843 0
M  V30 635 C 59.9189 3.78807 -2.30261 0
M  V30 636 H 57.1389 0.478353 -0.470553 0
M  V30 637 H 59.6829 0.936381 -1.81803 0
M  V30 638 H 57.8379 3.41965 -1.8204 0
M  V30 639 H 58.2519 3.35325 -4.03308 0
M  V30 640 H 59.7259 4.67045 -2.94233 0
M  V30 641 H 60.2029 4.19038 -1.31545 0
M  V30 642 H 60.8089 3.2742 -2.71433 0
M  V30 643 N 59.124 1.23083 0.984299 0
M  V30 644 C 60.054 1.03292 2.09411 0
M  V30 645 C 61.035 -0.048923 1.7003 0
M  V30 646 O 62.22 0.114967 1.93859 0
M  V30 647 C 59.35 0.619155 3.41736 0
M  V30 648 C 58.304 1.64791 3.95004 0
M  V30 649 C 57.63 1.0897 5.23478 0
M  V30 650 C 58.93 3.03999 4.24714 0
M  V30 651 H 60.624 1.96119 2.26225 0
M  V30 652 H 58.17 0.944344 1.08711 0
M  V30 653 H 60.123 0.467777 4.18796 0
M  V30 654 H 58.847 -0.344786 3.24775 0
M  V30 655 H 57.506 1.78721 3.20085 0
M  V30 656 H 57.154 0.11686 5.02864 0
M  V30 657 H 56.854 1.77704 5.60085 0
M  V30 658 H 58.378 0.950093 6.03163 0
M  V30 659 H 59.792 2.93393 4.92538 0
M  V30 660 H 58.189 3.69936 4.72512 0
M  V30 661 H 59.259 3.53285 3.32142 0
M  V30 662 N 60.6021 -1.18246 1.0419 0
M  V30 663 C 61.5321 -2.24127 0.654914 0
M  V30 664 C 62.5131 -1.66617 -0.342451 0
M  V30 665 O 63.6981 -1.92924 -0.222277 0
M  V30 666 C 60.8281 -3.47295 0.0183757 0
M  V30 667 C 59.7821 -4.17563 0.939414 0
M  V30 668 C 59.1081 -5.34438 0.167286 0
M  V30 669 C 60.4081 -4.70917 2.25908 0
M  V30 670 H 62.1021 -2.56753 1.54007 0
M  V30 671 H 59.6481 -1.23414 0.74195 0
M  V30 672 H 61.6011 -4.20572 -0.264082 0
M  V30 673 H 60.3251 -3.13907 -0.901664 0
M  V30 674 H 58.9841 -3.46186 1.20628 0
M  V30 675 H 58.6321 -4.97298 -0.7552 0
M  V30 676 H 58.3321 -5.82388 0.780901 0
M  V30 677 H 59.8561 -6.10504 -0.108125 0
M  V30 678 H 61.2701 -5.35882 2.03724 0
M  V30 679 H 59.6671 -5.29406 2.82577 0
M  V30 680 H 60.7371 -3.88272 2.9047 0
M  V30 681 N 62.0802 -0.821533 -1.34494 0
M  V30 682 C 63.0302 -0.214793 -2.26986 0
M  V30 683 C 64.0142 0.620125 -1.4847 0
M  V30 684 O 65.2062 0.474933 -1.70509 0
M  V30 685 C 62.3352 0.623566 -3.37589 0
M  V30 686 C 61.4212 -0.221904 -4.23519 0
M  V30 687 N 61.8122 -1.29223 -4.89014 0
M  V30 688 C 60.1102 -0.00600922 -4.46 0
M  V30 689 C 60.8112 -1.80965 -5.52835 0
M  V30 690 N 59.7872 -1.11376 -5.32068 0
M  V30 691 H 63.5892 -1.03354 -2.75128 0
M  V30 692 H 61.1032 -0.6642 -1.48196 0
M  V30 693 H 63.1002 1.0744 -4.02818 0
M  V30 694 H 61.7602 1.44049 -2.90998 0
M  V30 695 H 62.7712 -1.67502 -4.90065 0
M  V30 696 H 59.4482 0.77886 -4.10171 0
M  V30 697 H 60.8382 -2.70502 -6.15043 0
M  V30 698 N 63.5583 1.46682 -0.576371 0
M  V30 699 C 64.4913 2.27243 0.208731 0
M  V30 700 C 65.4693 1.35238 0.902746 0
M  V30 701 O 66.6533 1.64641 0.917904 0
M  V30 702 C 63.7803 3.12802 1.29896 0
M  V30 703 C 62.8263 4.20524 0.711457 0
M  V30 704 S 63.6593 5.33548 -0.456781 0
M  V30 705 C 64.8153 6.22673 0.634798 0
M  V30 706 H 65.0483 2.93484 -0.474838 0
M  V30 707 H 62.5813 1.50069 -0.363118 0
M  V30 708 H 64.5393 3.62661 1.92321 0
M  V30 709 H 63.2003 2.45887 1.95444 0
M  V30 710 H 62.3933 4.80191 1.53076 0
M  V30 711 H 61.9953 3.73645 0.162999 0
M  V30 712 H 64.2873 6.60181 1.52209 0
M  V30 713 H 65.2303 7.0806 0.0750311 0
M  V30 714 H 65.6383 5.56684 0.936092 0
M  V30 715 N 65.0364 0.313813 1.54444 0
M  V30 716 C 65.9664 -0.549454 2.26943 0
M  V30 717 C 66.9474 -1.12741 1.27372 0
M  V30 718 O 68.1324 -1.15436 1.56167 0
M  V30 719 C 65.2624 -1.71523 3.01989 0
M  V30 720 C 64.2164 -1.26703 4.08816 0
M  V30 721 C 63.5424 -2.51898 4.71647 0
M  V30 722 C 64.8424 -0.388962 5.2085 0
M  V30 723 H 66.5364 0.0552661 2.99349 0
M  V30 724 H 64.0824 0.0280207 1.43973 0
M  V30 725 H 66.0354 -2.32535 3.51433 0
M  V30 726 H 64.7594 -2.34639 2.27183 0
M  V30 727 H 63.4184 -0.679896 3.6024 0
M  V30 728 H 63.0664 -3.13356 3.93468 0
M  V30 729 H 62.7664 -2.22605 5.43802 0
M  V30 730 H 64.2904 -3.1369 5.23861 0
M  V30 731 H 65.7044 -0.905107 5.6611 0
M  V30 732 H 64.1014 -0.18924 5.99802 0
M  V30 733 H 65.1714 0.582699 4.81386 0
M  V30 734 N 66.5145 -1.57545 0.0417849 0
M  V30 735 C 67.4615 -2.10977 -0.935805 0
M  V30 736 C 68.4315 -1.01486 -1.31491 0
M  V30 737 O 69.6165 -1.2898 -1.40602 0
M  V30 738 C 66.7565 -2.65169 -2.2086 0
M  V30 739 C 65.8695 -3.88714 -1.88482 0
M  V30 740 C 65.0045 -4.31254 -3.1015 0
M  V30 741 C 64.0435 -5.47524 -2.7365 0
M  V30 742 N 63.1805 -5.85162 -3.87982 0
M  V30 743 H 68.0205 -2.94218 -0.473249 0
M  V30 744 H 65.5575 -1.45415 -0.221981 0
M  V30 745 H 67.5155 -2.94685 -2.95325 0
M  V30 746 H 66.1455 -1.8474 -2.64709 0
M  V30 747 H 65.1975 -3.65849 -1.04205 0
M  V30 748 H 66.5095 -4.73245 -1.57608 0
M  V30 749 H 65.6635 -4.62273 -3.92923 0
M  V30 750 H 64.4025 -3.45516 -3.44195 0
M  V30 751 H 63.4075 -5.16187 -1.89291 0
M  V30 752 H 64.6325 -6.34971 -2.40807 0
M  V30 753 H 62.5785 -5.02377 -4.21846 0
M  V30 754 H 62.4955 -6.64362 -3.60775 0
M  V30 755 H 63.7635 -6.20791 -4.71422 0
M  V30 756 N 67.9926 0.231505 -1.5589 0
M  V30 757 C 69.2696 0.981096 -1.69215 0
M  V30 758 C 69.6496 2.02799 -0.586164 0
M  V30 759 O 68.9976 2.24823 0.408253 0
M  V30 760 C 69.2076 1.60054 -3.10135 0
M  V30 761 C 70.5556 2.09658 -3.69227 0
M  V30 762 O 71.5796 1.69967 -3.13033 0
M  V30 763 O 70.4386 2.8258 -4.67772 0
M  V30 764 H 67.5326 0.457653 -0.688827 0
M  V30 765 H 70.0786 0.224073 -1.68214 0
M  V30 766 H 68.8506 0.844105 -3.82087 0
M  V30 767 H 68.4736 2.42336 -3.15212 0
M  V30 768 N 69.4707 1.49531 0.497807 0
M  V30 769 C 70.7477 1.49682 1.25915 0
M  V30 770 C 71.1277 0.226339 2.09883 0
M  V30 771 O 70.4757 -0.791189 2.14365 0
M  V30 772 C 70.6857 2.77755 2.11313 0
M  V30 773 C 72.0337 3.27371 2.70395 0
M  V30 774 O 73.0577 2.78894 2.21578 0
M  V30 775 O 71.9167 4.11808 3.59272 0
M  V30 776 H 69.0107 0.599228 0.56996 0
M  V30 777 H 71.5567 1.61798 0.511816 0
M  V30 778 H 70.3287 3.61713 1.49264 0
M  V30 779 H 69.9517 2.68515 2.93233 0
M  V30 780 N 70.9488 -0.749086 1.3866 0
M  V30 781 C 72.3648 -1.05276 1.19955 0
M  V30 782 C 72.5648 -2.01435 0.05134 0
M  V30 783 O 71.6208 -2.45232 -0.60147 0
M  V30 784 C 72.9338 -1.62853 2.52783 0
M  V30 785 C 74.4818 -1.75002 2.59506 0
M  V30 786 C 74.9568 -2.35991 3.92521 0
M  V30 787 N 76.4478 -2.43416 3.94085 0
M  V30 788 C 77.1828 -2.91511 4.9377 0
M  V30 789 N 76.6788 -3.39608 6.03853 0
M  V30 790 N 78.4718 -2.90592 4.81157 0
M  V30 791 H 70.6228 -0.111066 2.12109 0
M  V30 792 H 72.8858 -0.111901 0.941373 0
M  V30 793 H 72.5918 -0.99664 3.37283 0
M  V30 794 H 72.4658 -2.61854 2.715 0
M  V30 795 H 74.8528 -2.37317 1.75398 0
M  V30 796 H 74.9338 -0.74693 2.44652 0
M  V30 797 H 74.5778 -1.74308 4.77053 0
M  V30 798 H 74.5078 -3.3695 4.04688 0
M  V30 799 H 76.9988 -2.09405 3.14576 0
M  V30 800 H 77.3118 -3.74775 6.75843 0
M  V30 801 H 75.6568 -3.37653 6.07466 0
M  V30 802 H 78.8478 -2.52332 3.94267 0
M  V30 803 H 79.0208 -3.27762 5.58996 0
M  V30 804 N 72.4269 -1.23603 -0.977757 0
M  V30 805 C 73.3569 -1.04401 -2.0886 0
M  V30 806 C 74.3379 0.0399052 -1.70053 0
M  V30 807 O 75.5229 -0.125246 -1.93796 0
M  V30 808 C 72.6529 -0.637269 -3.41403 0
M  V30 809 C 71.6069 -1.66883 -3.94124 0
M  V30 810 C 70.9329 -1.11745 -5.22893 0
M  V30 811 C 72.2329 -3.06247 -4.23096 0
M  V30 812 H 73.9269 -1.97316 -2.25182 0
M  V30 813 H 71.4729 -0.950096 -1.08209 0
M  V30 814 H 73.4259 -0.48998 -4.18542 0
M  V30 815 H 72.1499 0.327557 -3.24953 0
M  V30 816 H 70.8089 -1.80416 -3.19133 0
M  V30 817 H 70.4569 -0.143527 -5.02795 0
M  V30 818 H 70.1569 -1.80672 -5.59134 0
M  V30 819 H 71.6809 -0.982067 -6.02651 0
M  V30 820 H 73.0949 -2.96001 -4.90975 0
M  V30 821 H 71.4919 -3.72436 -4.70544 0
M  V30 822 H 72.5619 -3.55041 -3.30263 0
M  V30 823 N 73.905 1.17692 -1.04816 0
M  V30 824 C 75.153 1.87488 -0.754497 0
M  V30 825 C 75.474 1.81205 0.720407 0
M  V30 826 O 74.744 1.23544 1.52032 0
M  V30 827 H 73.324 0.694101 -0.276102 0
M  V30 828 H 75.986 1.42793 -1.32651 0
M  V30 829 H 75.082 2.93328 -1.06606 0
M  V30 830 N 75.3831 0.828654 1.34056 0
M  V30 831 C 76.3151 0.212052 2.28217 0
M  V30 832 C 77.3281 -0.601362 1.51286 0
M  V30 833 O 78.5171 -0.430104 1.73241 0
M  V30 834 C 75.6171 -0.72088 3.31144 0
M  V30 835 C 74.7901 0.0509587 4.3737 0
M  V30 836 C 73.8491 -0.803766 5.20025 0
M  V30 837 O 72.8751 -0.246667 5.68665 0
M  V30 838 N 74.0771 -2.1227 5.40298 0
M  V30 839 H 76.8421 1.02105 2.81771 0
M  V30 840 H 74.4031 0.686153 1.46641 0
M  V30 841 H 76.3951 -1.29742 3.8334 0
M  V30 842 H 74.9651 -1.43061 2.77943 0
M  V30 843 H 74.1851 0.808831 3.85813 0
M  V30 844 H 75.4731 0.582065 5.0546 0
M  V30 845 H 74.8711 -2.59898 5.02464 0
M  V30 846 H 73.4281 -2.64796 5.95589 0
M  V30 847 N 76.8612 -1.46375 0.584142 0
M  V30 848 C 77.8112 -2.27371 -0.169232 0
M  V30 849 C 78.7952 -1.35955 -0.860523 0
M  V30 850 O 79.9872 -1.60119 -0.754382 0
M  V30 851 C 77.1162 -3.22334 -1.18134 0
M  V30 852 C 76.2022 -4.21235 -0.492088 0
M  V30 853 N 76.5932 -5.03766 0.453129 0
M  V30 854 C 74.8912 -4.39773 -0.742652 0
M  V30 855 C 75.5922 -5.75366 0.85609 0
M  V30 856 N 74.5682 -5.43214 0.204926 0
M  V30 857 H 78.3702 -2.88572 0.557097 0
M  V30 858 H 75.8842 -1.57242 0.406042 0
M  V30 859 H 77.8812 -3.79071 -1.73525 0
M  V30 860 H 76.5412 -2.62693 -1.90847 0
M  V30 861 H 77.5522 -5.11227 0.828723 0
M  V30 862 H 74.2292 -3.91279 -1.45625 0
M  V30 863 H 75.6192 -6.5172 1.63434 0
M  V30 864 N 78.3393 -0.321999 -1.54275 0
M  V30 865 C 79.5853 0.281461 -2.00837 0
M  V30 866 C 79.9183 1.51909 -1.20985 0
M  V30 867 O 79.1933 1.923 -0.291733 0
M  V30 868 C 79.4763 0.617162 -3.54772 0
M  V30 869 C 79.3293 -0.631064 -4.45351 0
M  V30 870 C 80.6483 1.43542 -4.16033 0
M  V30 871 H 77.7673 0.100826 -0.730071 0
M  V30 872 H 80.4093 -0.438268 -1.84876 0
M  V30 873 H 78.5593 1.23034 -3.68504 0
M  V30 874 H 80.2313 -1.26934 -4.43492 0
M  V30 875 H 78.4743 -1.26025 -4.15091 0
M  V30 876 H 79.1453 -0.351735 -5.50878 0
M  V30 877 H 81.6213 0.917134 -4.05867 0
M  V30 878 H 80.4973 1.63907 -5.23856 0
M  V30 879 H 80.7583 2.43108 -3.69257 0
M  V30 880 N 79.8174 1.5752 -0.0501392 0
M  V30 881 C 81.2284 1.80271 0.485705 0
M  V30 882 C 81.5794 0.96228 1.70981 0
M  V30 883 O 80.7044 0.178578 2.15662 0
M  V30 884 C 81.2994 3.26957 0.887938 0
M  V30 885 C 79.8584 3.5063 1.36877 0
M  V30 886 C 79.0054 2.75165 0.343468 0
M  V30 887 H 81.9564 1.56281 -0.276028 0
M  V30 888 H 81.9774 3.37821 1.75093 0
M  V30 889 H 81.4894 3.881 -0.0031809 0
M  V30 890 H 79.5904 2.94766 2.27911 0
M  V30 891 H 79.7034 4.59343 1.36164 0
M  V30 892 H 78.0674 2.4127 0.816128 0
M  V30 893 H 78.8504 3.39034 -0.539548 0
M  V30 894 N 81.2955 -0.223234 1.56011 0
M  V30 895 C 82.5235 -0.964812 1.83027 0
M  V30 896 C 82.9385 -1.78013 0.62904 0
M  V30 897 O 82.2955 -1.78008 -0.402414 0
M  V30 898 C 82.3465 -1.88373 3.08542 0
M  V30 899 O 82.0675 -1.10137 4.2403 0
M  V30 900 C 83.5685 -2.73934 3.48533 0
M  V30 901 H 80.7885 -0.282842 0.608475 0
M  V30 902 H 83.3325 -0.238971 2.03099 0
M  V30 903 H 81.4875 -2.56354 2.9045 0
M  V30 904 H 81.9015 -1.72501 4.95322 0
M  V30 905 H 83.3755 -3.34117 4.39397 0
M  V30 906 H 83.8525 -3.46244 2.70207 0
M  V30 907 H 84.4585 -2.11369 3.69057 0
M  V30 908 N 82.7736 -1.49793 -0.48987 0
M  V30 909 C 83.7036 -1.70201 -1.59856 0
M  V30 910 C 84.6846 -0.55076 -1.60937 0
M  V30 911 O 85.8696 -0.787841 -1.77501 0
M  V30 912 C 82.9996 -1.77882 -2.98287 0
M  V30 913 C 81.9536 -2.92907 -3.12073 0
M  V30 914 C 81.2796 -2.85712 -4.51965 0
M  V30 915 C 82.5796 -4.3369 -2.91051 0
M  V30 916 H 84.2736 -2.63025 -1.43032 0
M  V30 917 H 81.8196 -1.26574 -0.686664 0
M  V30 918 H 83.7726 -1.90744 -3.75759 0
M  V30 919 H 82.4966 -0.816653 -3.16225 0
M  V30 920 H 81.1556 -2.79665 -2.37029 0
M  V30 921 H 80.8036 -1.8738 -4.66795 0
M  V30 922 H 80.5036 -3.62921 -4.62128 0
M  V30 923 H 82.0276 -3.00598 -5.31482 0
M  V30 924 H 83.4416 -4.47555 -3.58284 0
M  V30 925 H 81.8386 -5.12205 -3.12675 0
M  V30 926 H 82.9086 -4.47362 -1.87071 0
M  V30 927 N 84.2517 0.741722 -1.39055 0
M  V30 928 C 85.2017 1.84661 -1.33732 0
M  V30 929 C 86.1857 1.59397 -0.219401 0
M  V30 930 O 87.3777 1.71015 -0.456375 0
M  V30 931 C 84.5067 3.22512 -1.17647 0
M  V30 932 C 83.5927 3.53628 -2.34112 0
M  V30 933 N 83.9837 3.55723 -3.59576 0
M  V30 934 C 82.2817 3.83956 -2.26923 0
M  V30 935 C 82.9827 3.84443 -4.36553 0
M  V30 936 N 81.9587 4.01877 -3.66055 0
M  V30 937 H 85.7607 1.84576 -2.28711 0
M  V30 938 H 83.2747 0.939647 -1.32455 0
M  V30 939 H 85.2717 4.01597 -1.11917 0
M  V30 940 H 83.9317 3.2384 -0.236124 0
M  V30 941 H 84.9427 3.37196 -3.93089 0
M  V30 942 H 81.6197 3.92929 -1.41113 0
M  V30 943 H 83.0097 3.92588 -5.45274 0
M  V30 944 N 85.7298 1.2412 0.971189 0
M  V30 945 C 87.1408 1.07236 1.52831 0
M  V30 946 C 87.4918 -0.357352 1.92918 0
M  V30 947 O 86.6168 -1.24528 1.76979 0
M  V30 948 C 87.2118 1.94043 2.77728 0
M  V30 949 C 85.7708 1.81394 3.29808 0
M  V30 950 C 84.9178 1.89189 2.02738 0
M  V30 951 H 87.8688 1.37648 0.789864 0
M  V30 952 H 87.8898 1.47066 3.5093 0
M  V30 953 H 87.4018 2.98093 2.4852 0
M  V30 954 H 85.5028 0.801634 3.63874 0
M  V30 955 H 85.6158 2.65294 3.98944 0
M  V30 956 H 83.9798 1.32877 2.17292 0
M  V30 957 H 84.7628 2.94812 1.759 0
M  V30 958 N 87.2079 -1.17134 1.05439 0
M  V30 959 C 88.4359 -1.91372 0.786414 0
M  V30 960 C 88.8509 -1.76955 -0.658202 0
M  V30 961 O 88.2079 -1.10838 -1.44987 0
M  V30 962 C 88.2589 -3.42356 1.1608 0
M  V30 963 O 87.9799 -3.56332 2.54871 0
M  V30 964 C 89.4809 -4.33663 0.919322 0
M  V30 965 H 86.7009 -0.607118 0.285743 0
M  V30 966 H 89.2449 -1.48525 1.40572 0
M  V30 967 H 87.3999 -3.82939 0.586191 0
M  V30 968 H 87.8139 -4.49896 2.69618 0
M  V30 969 H 89.2879 -5.38099 1.231 0
M  V30 970 H 89.7649 -4.38959 -0.145359 0
M  V30 971 H 90.3709 -3.98796 1.47789 0
M  V30 972 N 88.686 -0.835752 -1.33615 0
M  V30 973 C 89.911 -0.442389 -2.02627 0
M  V30 974 C 90.336 0.947735 -1.62479 0
M  V30 975 O 89.694 1.61907 -0.815826 0
M  V30 976 C 89.742 -0.567216 -3.56111 0
M  V30 977 O 88.846 0.407799 -4.10379 0
M  V30 978 H 88.187 -0.180278 -0.639059 0
M  V30 979 H 90.717 -1.12972 -1.70583 0
M  V30 980 H 90.727 -0.447708 -4.05536 0
M  V30 981 H 89.402 -1.58103 -3.84677 0
M  V30 982 H 87.979 0.246107 -3.72087 0
M  V30 983 N 90.1641 1.46063 -0.591896 0
M  V30 984 C 91.0741 2.34192 0.13831 0
M  V30 985 C 92.0901 1.50305 0.876608 0
M  V30 986 O 93.2661 1.8315 0.837728 0
M  V30 987 C 90.3311 3.27656 1.13326 0
M  V30 988 C 89.3921 4.27445 0.39863 0
M  V30 989 C 88.6251 5.16443 1.34618 0
M  V30 990 O 88.8481 5.08553 2.58321 0
M  V30 991 O 87.7821 5.95843 0.851768 0
M  V30 992 H 91.6081 2.98002 -0.58552 0
M  V30 993 H 89.1931 1.45188 -0.352239 0
M  V30 994 H 91.0751 3.85291 1.70671 0
M  V30 995 H 89.7501 2.6643 1.83839 0
M  V30 996 H 88.6571 3.73471 -0.216895 0
M  V30 997 H 89.9901 4.91482 -0.265709 0
M  V30 998 N 91.6422 0.330177 1.54103 0
M  V30 999 C 92.5522 -0.541534 2.28264 0
M  V30 1000 C 93.5682 -1.12351 1.32866 0
M  V30 1001 O 94.7442 -1.14206 1.65888 0
M  V30 1002 C 91.8092 -1.68322 3.03098 0
M  V30 1003 C 90.8702 -1.13238 4.14096 0
M  V30 1004 C 90.1032 -2.21966 4.85352 0
M  V30 1005 O 90.3262 -3.42437 4.56172 0
M  V30 1006 O 89.2602 -1.87013 5.7211 0
M  V30 1007 H 93.0862 0.060938 3.03639 0
M  V30 1008 H 90.6712 0.09565 1.49093 0
M  V30 1009 H 92.5532 -2.34777 3.49939 0
M  V30 1010 H 91.2282 -2.27176 2.30593 0
M  V30 1011 H 90.1352 -0.432736 3.71589 0
M  V30 1012 H 91.4682 -0.588898 4.88664 0
M  V30 1013 N 93.1203 -1.57491 0.0584922 0
M  V30 1014 C 94.0503 -2.14988 -0.911178 0
M  V30 1015 C 95.0313 -1.07343 -1.31952 0
M  V30 1016 O 96.2163 -1.35318 -1.39294 0
M  V30 1017 C 93.3463 -2.70078 -2.18347 0
M  V30 1018 C 92.3003 -3.82771 -1.91495 0
M  V30 1019 C 91.6263 -4.24408 -3.25241 0
M  V30 1020 C 92.9263 -5.07592 -1.23075 0
M  V30 1021 H 94.6203 -2.96263 -0.432246 0
M  V30 1022 H 92.1663 -1.42512 -0.206469 0
M  V30 1023 H 94.1193 -3.08943 -2.86587 0
M  V30 1024 H 92.8433 -1.86005 -2.68458 0
M  V30 1025 H 91.5023 -3.44389 -1.25664 0
M  V30 1026 H 91.1503 -3.37275 -3.73168 0
M  V30 1027 H 90.8503 -5.00366 -3.08071 0
M  V30 1028 H 92.3743 -4.65879 -3.94701 0
M  V30 1029 H 93.7883 -5.43857 -1.81362 0
M  V30 1030 H 92.1853 -5.88741 -1.16207 0
M  V30 1031 H 93.2553 -4.84454 -0.207847 0
M  V30 1032 N 94.5984 0.214957 -1.56127 0
M  V30 1033 C 95.8264 0.955092 -1.83536 0
M  V30 1034 C 96.2414 1.77677 -0.638472 0
M  V30 1035 O 95.5984 1.78219 0.392968 0
M  V30 1036 C 95.6494 1.86734 -3.09536 0
M  V30 1037 O 95.3704 1.07887 -4.24608 0
M  V30 1038 C 96.8714 2.72082 -3.4998 0
M  V30 1039 H 94.0914 0.279611 -0.609966 0
M  V30 1040 H 96.6354 0.228197 -2.03223 0
M  V30 1041 H 94.7904 2.5481 -2.91806 0
M  V30 1042 H 95.2044 1.69872 -4.9623 0
M  V30 1043 H 96.6784 3.31782 -4.41163 0
M  V30 1044 H 97.1554 3.44806 -2.7204 0
M  V30 1045 H 97.7614 2.09409 -3.70173 0
M  V30 1046 N 96.0765 1.50051 0.48192 0
M  V30 1047 C 97.3255 1.59741 1.23149 0
M  V30 1048 C 97.6385 0.298163 1.93314 0
M  V30 1049 O 98.8445 0.273835 2.70116 0
M  V30 1050 C 97.3005 2.81926 2.23708 0
M  V30 1051 C 96.9085 4.18685 1.59396 0
M  V30 1052 C 98.6525 3.00956 2.99375 0
M  V30 1053 C 96.5595 5.3207 2.58178 0
M  V30 1054 H 95.4895 0.594838 0.46334 0
M  V30 1055 H 98.1405 1.76467 0.503169 0
M  V30 1056 H 96.5225 2.58736 2.99786 0
M  V30 1057 H 97.6965 4.52088 0.891811 0
M  V30 1058 H 96.0115 4.05171 0.960503 0
M  V30 1059 H 98.6085 3.82836 3.73283 0
M  V30 1060 H 98.9515 2.12258 3.58123 0
M  V30 1061 H 99.4845 3.24277 2.30411 0
M  V30 1062 H 96.2235 6.22888 2.04184 0
M  V30 1063 H 95.7435 5.03098 3.26577 0
M  V30 1064 H 97.4225 5.62196 3.20225 0
M  V30 1065 N 97.5546 -0.734337 1.39446 0
M  V30 1066 C 98.5176 -1.83004 1.37994 0
M  V30 1067 C 99.5176 -1.58397 0.276938 0
M  V30 1068 O 100.708 -1.65785 0.534875 0
M  V30 1069 C 97.8396 -3.20802 1.1532 0
M  V30 1070 H 99.0326 -1.85694 2.35494 0
M  V30 1071 H 96.5856 -0.938059 1.25021 0
M  V30 1072 H 97.3206 -3.23772 0.185036 0
M  V30 1073 H 97.1056 -3.4006 1.95197 0
M  V30 1074 H 98.5956 -4.00862 1.17046 0
M  V30 1075 N 99.0327 -1.24633 -0.964593 0
M  V30 1076 C 100.281 -1.08573 -1.70459 0
M  V30 1077 C 100.602 0.375655 -1.91347 0
M  V30 1078 O 99.8717 1.26779 -1.49345 0
M  V30 1079 H 98.4517 -0.398784 -0.631649 0
M  V30 1080 H 101.114 -1.56601 -1.16026 0
M  V30 1081 H 100.21 -1.58623 -2.68785 0
M  V30 1082 N 100.511 1.16574 -1.06058 0
M  V30 1083 C 101.444 2.19798 -0.61352 0
M  V30 1084 C 102.422 1.58509 0.362453 0
M  V30 1085 O 103.606 1.86527 0.271994 0
M  V30 1086 C 100.733 3.3855 0.100915 0
M  V30 1087 C 99.7788 4.18317 -0.831438 0
M  V30 1088 S 100.612 4.82375 -2.32539 0
M  V30 1089 C 101.768 6.04508 -1.62238 0
M  V30 1090 H 102.001 2.5738 -1.48805 0
M  V30 1091 H 99.5338 1.27327 -0.873338 0
M  V30 1092 H 101.492 4.07358 0.506898 0
M  V30 1093 H 100.153 2.99338 0.951604 0
M  V30 1094 H 99.3458 5.03232 -0.278071 0
M  V30 1095 H 98.9478 3.5499 -1.17719 0
M  V30 1096 H 101.24 6.71133 -0.926622 0
M  V30 1097 H 102.183 6.64389 -2.44934 0
M  V30 1098 H 102.591 5.53559 -1.106 0
M  V30 1099 N 101.989 0.842826 1.3317 0
M  V30 1100 C 103.217 0.454055 2.01856 0
M  V30 1101 C 103.632 -0.94587 1.63397 0
M  V30 1102 O 102.989 -1.61534 0.849302 0
M  V30 1103 C 103.04 0.569715 3.56982 0
M  V30 1104 O 102.761 1.91448 3.94055 0
M  V30 1105 C 104.262 0.178412 4.42941 0
M  V30 1106 H 101.482 0.17979 0.646465 0
M  V30 1107 H 104.026 1.1365 1.70012 0
M  V30 1108 H 102.181 -0.0648587 3.87346 0
M  V30 1109 H 102.595 1.90282 4.88767 0
M  V30 1110 H 104.069 0.310376 5.51127 0
M  V30 1111 H 104.546 -0.880056 4.30293 0
M  V30 1112 H 105.152 0.787579 4.17944 0
M  V30 1113 N 103.467 -1.45747 0.599634 0
M  V30 1114 C 104.714 -2.02292 0.0917284 0
M  V30 1115 C 105.042 -1.46906 -1.27472 0
M  V30 1116 O 104.297 -0.630652 -1.8526 0
M  V30 1117 C 104.596 -3.57399 -0.00602758 0
M  V30 1118 C 104.262 -4.31902 1.29503 0
M  V30 1119 C 102.924 -4.51974 1.65144 0
M  V30 1120 C 105.276 -4.74551 2.15525 0
M  V30 1121 C 102.604 -5.11949 2.86574 0
M  V30 1122 C 104.956 -5.35868 3.36196 0
M  V30 1123 C 103.62 -5.54165 3.72099 0
M  V30 1124 H 102.89 -0.740239 0.0335658 0
M  V30 1125 H 105.537 -1.7491 0.779661 0
M  V30 1126 H 103.842 -3.84014 -0.777183 0
M  V30 1127 H 105.539 -3.98846 -0.415038 0
M  V30 1128 H 102.129 -4.16588 1.00761 0
M  V30 1129 H 106.313 -4.58784 1.8929 0
M  V30 1130 H 101.569 -5.24305 3.14507 0
M  V30 1131 H 105.743 -5.6787 4.03109 0
M  V30 1132 H 103.37 -6.00406 4.6628 0
M  V30 1133 N 104.945 -0.338344 -1.53925 0
M  V30 1134 C 106.173 0.261298 -2.05243 0
M  V30 1135 C 106.588 1.44625 -1.21363 0
M  V30 1136 O 105.945 1.80811 -0.247736 0
M  V30 1137 C 105.996 0.681412 -3.5502 0
M  V30 1138 O 105.717 -0.456414 -4.35716 0
M  V30 1139 C 107.218 1.34232 -4.22489 0
M  V30 1140 H 104.438 0.0513685 -0.669031 0
M  V30 1141 H 106.982 -0.488822 -1.98572 0
M  V30 1142 H 105.137 1.38148 -3.61931 0
M  V30 1143 H 105.551 -0.122564 -5.24357 0
M  V30 1144 H 107.025 1.58708 -5.28693 0
M  V30 1145 H 107.502 2.29426 -3.74514 0
M  V30 1146 H 108.108 0.684424 -4.19757 0
M  V30 1147 N 106.423 1.57458 -0.0668435 0
M  V30 1148 C 107.651 1.97624 0.612565 0
M  V30 1149 C 108.066 0.94502 1.63447 0
M  V30 1150 O 107.423 -0.0689276 1.8237 0
M  V30 1151 C 107.474 3.37869 1.28555 0
M  V30 1152 O 107.195 4.3704 0.304557 0
M  V30 1153 C 108.696 3.92882 2.05325 0
M  V30 1154 H 105.916 0.650045 0.166381 0
M  V30 1155 H 108.46 2.04035 -0.137782 0
M  V30 1156 H 106.615 3.3256 1.98702 0
M  V30 1157 H 107.029 5.18565 0.786779 0
M  V30 1158 H 108.503 4.93247 2.47812 0
M  V30 1159 H 108.98 3.29156 2.9078 0
M  V30 1160 H 109.586 4.01577 1.40056 0
M  V30 1161 N 107.901 -0.206675 1.56239 0
M  V30 1162 C 109.148 -0.928842 1.79941 0
M  V30 1163 C 109.476 -1.83734 0.638131 0
M  V30 1164 O 108.731 -1.92039 -0.376746 0
M  V30 1165 C 109.03 -1.78675 3.09532 0
M  V30 1166 C 108.696 -1.03022 4.38973 0
M  V30 1167 C 107.358 -0.821302 4.74139 0
M  V30 1168 C 109.71 -0.497081 5.18824 0
M  V30 1169 C 107.038 -0.0675719 5.86661 0
M  V30 1170 C 109.39 0.24338 6.32132 0
M  V30 1171 C 108.054 0.463422 6.65889 0
M  V30 1172 H 107.324 -0.339887 0.658451 0
M  V30 1173 H 109.971 -0.195977 1.90495 0
M  V30 1174 H 108.276 -2.58794 2.94165 0
M  V30 1175 H 109.973 -2.34792 3.25075 0
M  V30 1176 H 106.563 -1.20306 4.11369 0
M  V30 1177 H 110.747 -0.645921 4.92079 0
M  V30 1178 H 106.003 0.112995 6.11296 0
M  V30 1179 H 110.177 0.66393 6.93228 0
M  V30 1180 H 107.804 1.04938 7.52922 0
M  V30 1181 N 109.379 -1.50304 -0.473955 0
M  V30 1182 C 110.656 -1.51667 -1.23518 0
M  V30 1183 C 111.036 -0.259701 -2.09496 0
M  V30 1184 O 110.384 0.756986 -2.15597 0
M  V30 1185 C 110.594 -2.81082 -2.06868 0
M  V30 1186 C 111.942 -3.31631 -2.65153 0
M  V30 1187 O 112.966 -2.82384 -2.17113 0
M  V30 1188 O 111.825 -4.17471 -3.52675 0
M  V30 1189 H 108.919 -0.60822 -0.560355 0
M  V30 1190 H 111.465 -1.62592 -0.486011 0
M  V30 1191 H 110.237 -3.64041 -1.4349 0
M  V30 1192 H 109.86 -2.73146 -2.88924 0
M  V30 1193 N 110.857 0.726932 -1.39834 0
M  V30 1194 C 111.787 1.85405 -1.41941 0
M  V30 1195 C 112.768 1.67751 -0.281728 0
M  V30 1196 O 113.953 1.8795 -0.488717 0
M  V30 1197 C 111.083 3.23243 -1.2701 0
M  V30 1198 C 110.037 3.55549 -2.38262 0
M  V30 1199 C 109.363 4.9241 -2.08415 0
M  V30 1200 C 110.663 3.577 -3.80589 0
M  V30 1201 H 112.357 1.83899 -2.36266 0
M  V30 1202 H 109.903 0.883349 -1.13723 0
M  V30 1203 H 111.856 4.01775 -1.27103 0
M  V30 1204 H 110.58 3.25296 -0.291564 0
M  V30 1205 H 109.239 2.79351 -2.37399 0
M  V30 1206 H 108.887 4.91052 -1.0898 0
M  V30 1207 H 108.587 5.14992 -2.82943 0
M  V30 1208 H 110.111 5.73289 -2.10171 0
M  V30 1209 H 111.525 4.26293 -3.83337 0
M  V30 1210 H 109.922 3.91804 -4.54543 0
M  V30 1211 H 110.992 2.57328 -4.10987 0
M  V30 1212 N 112.336 1.25143 0.95797 0
M  V30 1213 C 113.584 1.09476 1.69881 0
M  V30 1214 C 113.905 -0.365502 1.91544 0
M  V30 1215 O 113.175 -1.25985 1.50015 0
M  V30 1216 H 111.755 0.402128 0.629525 0
M  V30 1217 H 114.417 1.57214 1.15194 0
M  V30 1218 H 113.513 1.60046 2.6794 0
M  V30 1219 N 113.814 -1.1601 1.06675 0
M  V30 1220 C 115.062 -1.86264 0.784229 0
M  V30 1221 C 115.383 -1.82328 -0.691488 0
M  V30 1222 O 114.653 -1.25947 -1.50047 0
M  V30 1223 H 113.233 -0.689621 0.28711 0
M  V30 1224 H 115.895 -1.40664 1.34906 0
M  V30 1225 H 114.991 -2.91595 1.11259 0
M  V30 1226 N 115.292 -0.849877 -1.32721 0
M  V30 1227 C 116.242 -0.262892 -2.26479 0
M  V30 1228 C 117.226 0.588493 -1.49752 0
M  V30 1229 O 118.418 0.438659 -1.71478 0
M  V30 1230 C 115.547 0.551818 -3.38836 0
M  V30 1231 C 114.633 -0.311689 -4.22953 0
M  V30 1232 N 115.024 -1.39567 -4.86163 0
M  V30 1233 C 113.322 -0.100611 -4.45887 0
M  V30 1234 C 114.023 -1.92651 -5.48872 0
M  V30 1235 N 112.999 -1.22637 -5.29586 0
M  V30 1236 H 116.801 -1.09166 -2.72873 0
M  V30 1237 H 114.315 -0.695486 -1.46754 0
M  V30 1238 H 116.312 0.988713 -4.05006 0
M  V30 1239 H 114.972 1.37844 -2.93988 0
M  V30 1240 H 115.983 -1.77859 -4.86402 0
M  V30 1241 H 112.66 0.691681 -4.11731 0
M  V30 1242 H 114.05 -2.83487 -6.09167 0
M  V30 1243 N 116.77 1.45427 -0.607355 0
M  V30 1244 C 118.016 2.0254 -0.102607 0
M  V30 1245 C 118.349 1.47478 1.26348 0
M  V30 1246 O 117.624 0.64939 1.83339 0
M  V30 1247 C 117.907 3.60044 -0.0634347 0
M  V30 1248 C 117.76 4.2544 -1.46017 0
M  V30 1249 C 119.079 4.35646 0.624514 0
M  V30 1250 H 116.198 0.73598 -0.0387607 0
M  V30 1251 H 118.84 1.73284 -0.779282 0
M  V30 1252 H 116.99 3.85101 0.512808 0
M  V30 1253 H 118.662 4.11569 -2.08347 0
M  V30 1254 H 116.905 3.83849 -2.02094 0
M  V30 1255 H 117.576 5.34342 -1.385 0
M  V30 1256 H 120.052 4.15882 0.134723 0
M  V30 1257 H 118.928 5.45376 0.621028 0
M  V30 1258 H 119.189 4.08501 1.69055 0
M  V30 1259 N 118.248 0.346503 1.53744 0
M  V30 1260 C 119.18 -0.543316 2.22667 0
M  V30 1261 C 120.193 -1.06159 1.23427 0
M  V30 1262 O 121.382 -0.971235 1.49764 0
M  V30 1263 C 118.482 -1.76076 2.89569 0
M  V30 1264 C 117.655 -1.37727 4.15151 0
M  V30 1265 C 116.714 -2.45471 4.65436 0
M  V30 1266 O 115.74 -2.08655 5.29577 0
M  V30 1267 N 116.942 -3.7677 4.41616 0
M  V30 1268 H 119.707 0.0469703 2.99663 0
M  V30 1269 H 117.268 0.170766 1.60997 0
M  V30 1270 H 119.26 -2.47593 3.20125 0
M  V30 1271 H 117.83 -2.25835 2.16142 0
M  V30 1272 H 117.05 -0.492746 3.91108 0
M  V30 1273 H 118.338 -1.09708 4.96832 0
M  V30 1274 H 117.736 -4.09467 3.90325 0
M  V30 1275 H 116.293 -4.44448 4.7677 0
M  V30 1276 N 119.726 -1.57421 0.075193 0
M  V30 1277 C 120.689 -2.11791 -0.876203 0
M  V30 1278 C 121.689 -1.04268 -1.22412 0
M  V30 1279 O 122.879 -1.30242 -1.15684 0
M  V30 1280 C 120.011 -2.62207 -2.17854 0
M  V30 1281 H 121.204 -2.9716 -0.40444 0
M  V30 1282 H 118.757 -1.55333 -0.173557 0
M  V30 1283 H 119.492 -1.803 -2.6956 0
M  V30 1284 H 119.277 -3.40802 -1.93897 0
M  V30 1285 H 120.767 -3.04335 -2.85955 0
M  V30 1286 N 121.204 0.198386 -1.56346 0
M  V30 1287 C 122.62 0.549085 -1.49857 0
M  V30 1288 C 122.82 1.86016 -0.774611 0
M  V30 1289 O 121.876 2.50416 -0.323776 0
M  V30 1290 C 123.189 0.606868 -2.94512 0
M  V30 1291 C 124.737 0.695925 -3.05165 0
M  V30 1292 C 125.212 0.784848 -4.51225 0
M  V30 1293 N 126.703 0.848463 -4.55363 0
M  V30 1294 C 127.438 0.937378 -5.65686 0
M  V30 1295 N 126.934 0.9888 -6.85707 0
M  V30 1296 N 128.727 0.974312 -5.53592 0
M  V30 1297 H 120.878 -0.661655 -2.01831 0
M  V30 1298 H 123.141 -0.235261 -0.918344 0
M  V30 1299 H 122.847 -0.28732 -3.50524 0
M  V30 1300 H 122.721 1.46268 -3.47686 0
M  V30 1301 H 125.108 1.58055 -2.49204 0
M  V30 1302 H 125.189 -0.186022 -2.55123 0
M  V30 1303 H 124.833 -0.0954072 -5.0781 0
M  V30 1304 H 124.763 1.68255 -4.98997 0
M  V30 1305 H 127.254 0.818103 -3.68938 0
M  V30 1306 H 127.567 1.05707 -7.65536 0
M  V30 1307 H 125.912 0.957534 -6.88372 0
M  V30 1308 H 129.103 0.930954 -4.58749 0
M  V30 1309 H 129.276 1.04015 -6.39597 0
M  V30 1310 N 122.682 1.50554 0.465978 0
M  V30 1311 C 124.098 1.38093 0.800154 0
M  V30 1312 C 124.298 0.440988 1.96615 0
M  V30 1313 O 123.354 -0.114499 2.5224 0
M  V30 1314 C 124.667 2.79565 1.10742 0
M  V30 1315 C 126.215 2.88516 1.21357 0
M  V30 1316 C 126.69 4.30833 1.55393 0
M  V30 1317 N 128.181 4.33807 1.62375 0
M  V30 1318 C 128.916 5.40927 1.90225 0
M  V30 1319 N 128.412 6.58247 2.16062 0
M  V30 1320 N 130.205 5.28376 1.9177 0
M  V30 1321 H 122.356 2.10237 -0.302366 0
M  V30 1322 H 124.619 0.945203 -0.0727746 0
M  V30 1323 H 124.325 3.50208 0.323661 0
M  V30 1324 H 124.199 3.17125 2.04234 0
M  V30 1325 H 126.586 2.1809 1.98799 0
M  V30 1326 H 126.667 2.54492 0.258321 0
M  V30 1327 H 126.311 5.01799 0.784889 0
M  V30 1328 H 126.241 4.62347 2.52076 0
M  V30 1329 H 128.732 3.49212 1.44427 0
M  V30 1330 H 129.045 7.3569 2.36601 0
M  V30 1331 H 127.39 6.61413 2.13444 0
M  V30 1332 H 130.581 4.35715 1.71085 0
M  V30 1333 H 130.754 6.11944 2.13139 0
M  V30 1334 N 124.16 -0.719506 1.40217 0
M  V30 1335 C 125.406 -1.48152 1.38488 0
M  V30 1336 C 125.739 -1.94195 -0.0141867 0
M  V30 1337 O 125.014 -1.67884 -0.982096 0
M  V30 1338 C 125.297 -2.71035 2.37091 0
M  V30 1339 C 125.15 -2.30912 3.86005 0
M  V30 1340 C 126.469 -3.73182 2.33288 0
M  V30 1341 H 123.588 -0.537395 0.504357 0
M  V30 1342 H 126.23 -0.821472 1.71324 0
M  V30 1343 H 124.38 -3.27352 2.0922 0
M  V30 1344 H 126.052 -1.80107 4.24687 0
M  V30 1345 H 124.295 -1.62958 4.02029 0
M  V30 1346 H 124.966 -3.18978 4.50508 0
M  V30 1347 H 127.442 -3.26485 2.57966 0
M  V30 1348 H 126.318 -4.56806 3.04334 0
M  V30 1349 H 126.579 -4.21202 1.34317 0
M  V30 1350 N 125.638 -1.25649 -0.95132 0
M  V30 1351 C 126.884 -1.11766 -1.69941 0
M  V30 1352 C 127.239 0.33735 -1.89419 0
M  V30 1353 O 126.532 1.24491 -1.45645 0
M  V30 1354 C 126.726 -1.80909 -3.08231 0
M  V30 1355 C 126.555 -3.32984 -3.02245 0
M  V30 1356 C 125.325 -4.02247 -3.05819 0
M  V30 1357 C 127.523 -4.29332 -2.83157 0
M  V30 1358 N 125.505 -5.41072 -2.90024 0
M  V30 1359 C 126.876 -5.55265 -2.75828 0
M  V30 1360 C 128.931 -4.19707 -2.67863 0
M  V30 1361 C 127.634 -6.72671 -2.54767 0
M  V30 1362 C 129.66 -5.36809 -2.48173 0
M  V30 1363 C 129.022 -6.61683 -2.41567 0
M  V30 1364 H 125.121 -0.463708 -0.629682 0
M  V30 1365 H 127.705 -1.58796 -1.12659 0
M  V30 1366 H 125.876 -1.36369 -3.63673 0
M  V30 1367 H 127.608 -1.59739 -3.71841 0
M  V30 1368 H 124.363 -3.53531 -3.15139 0
M  V30 1369 H 124.787 -6.13938 -2.85323 0
M  V30 1370 H 129.429 -3.23907 -2.71743 0
M  V30 1371 H 127.147 -7.68577 -2.49629 0
M  V30 1372 H 130.733 -5.31224 -2.37259 0
M  V30 1373 H 129.613 -7.50768 -2.26531 0
M  V30 1374 N 127.117 1.15442 -1.07289 0
M  V30 1375 C 128.064 2.20161 -0.692653 0
M  V30 1376 C 129.034 1.63073 0.31564 0
M  V30 1377 O 130.219 1.89725 0.202235 0
M  V30 1378 C 127.359 3.44967 -0.0959509 0
M  V30 1379 C 126.472 4.16256 -1.15564 0
M  V30 1380 C 125.607 5.28609 -0.524011 0
M  V30 1381 C 124.646 5.91715 -1.56653 0
M  V30 1382 N 123.783 6.9554 -0.957531 0
M  V30 1383 H 128.623 2.52037 -1.59002 0
M  V30 1384 H 126.16 1.2378 -0.794798 0
M  V30 1385 H 128.118 4.16341 0.267628 0
M  V30 1386 H 126.748 3.1361 0.764772 0
M  V30 1387 H 125.8 3.43385 -1.6368 0
M  V30 1388 H 127.112 4.59268 -1.94613 0
M  V30 1389 H 126.266 6.06604 -0.108032 0
M  V30 1390 H 125.005 4.86787 0.29825 0
M  V30 1391 H 124.01 5.12433 -1.9923 0
M  V30 1392 H 125.235 6.35614 -2.39107 0
M  V30 1393 H 123.181 6.55814 -0.156162 0
M  V30 1394 H 123.098 7.36977 -1.68526 0
M  V30 1395 H 124.366 7.77435 -0.567032 0
M  V30 1396 N 128.595 0.856903 1.32268 0
M  V30 1397 C 129.543 0.291987 2.3076 0
M  V30 1398 C 130.537 -0.585857 1.58947 0
M  V30 1399 O 131.743 -0.47341 1.73663 0
M  V30 1400 H 128.118 0.075721 0.748178 0
M  V30 1401 H 130.089 1.13687 2.75895 0
M  V30 1402 C 128.838 -0.502869 3.44044 0
M  V30 1403 H 128.161 0.163328 3.99466 0
M  V30 1404 H 129.601 -0.863691 4.1511 0
M  V30 1405 C 128.06 -1.68898 2.91505 0
M  V30 1406 O 128.59 -2.78811 2.89184 0
M  V30 1407 N 126.796 -1.51679 2.47875 0
M  V30 1408 H 126.343 -0.622666 2.49961 0
M  V30 1409 H 126.301 -2.31184 2.13076 0
M  V30 1410 N 130.073 -1.45103 0.615059 0
M  V30 1411 C 131.303 -2.06254 0.119596 0
M  V30 1412 C 131.711 -1.4591 -1.20445 0
M  V30 1413 O 131.054 -0.570384 -1.7462 0
M  V30 1414 C 131.116 -3.59396 -0.0865591 0
M  V30 1415 C 130.78 -4.42116 1.15683 0
M  V30 1416 C 131.777 -4.7662 2.07676 0
M  V30 1417 C 129.462 -4.82749 1.38775 0
M  V30 1418 C 131.456 -5.50622 3.21082 0
M  V30 1419 C 129.143 -5.56504 2.52481 0
M  V30 1420 C 130.141 -5.90358 3.43463 0
M  V30 1421 O 129.829 -6.62615 4.55189 0
M  V30 1422 H 129.561 -0.672423 0.0694512 0
M  V30 1423 H 132.115 -1.87219 0.844885 0
M  V30 1424 H 130.345 -3.76859 -0.866823 0
M  V30 1425 H 132.034 -4.02365 -0.534555 0
M  V30 1426 H 132.8 -4.4578 1.91063 0
M  V30 1427 H 128.679 -4.55829 0.688545 0
M  V30 1428 H 132.223 -5.76965 3.92119 0
M  V30 1429 H 128.12 -5.86759 2.69043 0
M  V30 1430 H 128.888 -6.81071 4.53966 0
M  V30 1431 N 131.551 -0.354651 -1.53558 0
M  V30 1432 C 132.481 0.489091 -2.2832 0
M  V30 1433 C 133.462 1.09324 -1.30316 0
M  V30 1434 O 134.647 1.11255 -1.59173 0
M  V30 1435 C 131.777 1.63456 -3.0643 0
M  V30 1436 C 130.731 1.1582 -4.12031 0
M  V30 1437 C 130.057 2.39305 -4.7816 0
M  V30 1438 C 131.357 0.250731 -5.21698 0
M  V30 1439 H 133.051 -0.134614 -2.99097 0
M  V30 1440 H 130.597 -0.0661826 -1.43848 0
M  V30 1441 H 132.55 2.23136 -3.57475 0
M  V30 1442 H 131.274 2.28533 -2.33325 0
M  V30 1443 H 129.933 0.584146 -3.61916 0
M  V30 1444 H 129.581 3.02814 -4.01637 0
M  V30 1445 H 129.281 2.08109 -5.49513 0
M  V30 1446 H 130.805 2.99691 -5.31994 0
M  V30 1447 H 132.219 0.754695 -5.68311 0
M  V30 1448 H 130.616 0.0301468 -6.00092 0
M  V30 1449 H 131.686 -0.710125 -4.79672 0
M  V30 1450 N 133.029 1.57378 -0.0835403 0
M  V30 1451 C 134.44 1.81261 0.447358 0
M  V30 1452 C 134.791 0.998331 1.68902 0
M  V30 1453 O 133.916 0.224282 2.15235 0
M  V30 1454 C 134.511 3.28767 0.818386 0
M  V30 1455 C 133.07 3.53455 1.29409 0
M  V30 1456 C 132.217 2.75831 0.285024 0
M  V30 1457 H 135.168 1.5566 -0.309115 0
M  V30 1458 H 135.189 3.41459 1.67887 0
M  V30 1459 H 134.701 3.88006 -0.0855019 0
M  V30 1460 H 132.802 2.99534 2.21608 0
M  V30 1461 H 132.915 4.62128 1.2639 0
M  V30 1462 H 131.279 2.42947 0.764767 0
M  V30 1463 H 132.062 3.37813 -0.611341 0
M  V30 1464 N 134.507 -0.190092 1.56449 0
M  V30 1465 C 135.47 -1.21925 1.9408 0
M  V30 1466 C 136.47 -1.38176 0.822431 0
M  V30 1467 O 137.66 -1.35903 1.08977 0
M  V30 1468 C 134.792 -2.58773 2.21922 0
M  V30 1469 H 135.985 -0.897464 2.86157 0
M  V30 1470 H 133.538 -0.43181 1.50217 0
M  V30 1471 H 134.273 -2.95998 1.32499 0
M  V30 1472 H 134.058 -2.48348 3.03424 0
M  V30 1473 H 135.548 -3.32978 2.52022 0
M  V30 1474 N 135.985 -1.50799 -0.457987 0
M  V30 1475 C 137.234 -1.6168 -1.20593 0
M  V30 1476 C 137.547 -0.32888 -1.92815 0
M  V30 1477 O 138.753 -0.316773 -2.69646 0
M  V30 1478 C 137.209 -2.8545 -2.19195 0
M  V30 1479 C 136.817 -4.21168 -1.52715 0
M  V30 1480 C 138.561 -3.05681 -2.94549 0
M  V30 1481 C 136.468 -5.3611 -2.4968 0
M  V30 1482 H 135.398 -0.602134 -0.453818 0
M  V30 1483 H 138.049 -1.77245 -0.475031 0
M  V30 1484 H 136.431 -2.63472 -2.95632 0
M  V30 1485 H 137.605 -4.53449 -0.819775 0
M  V30 1486 H 135.92 -4.06648 -0.895922 0
M  V30 1487 H 138.517 -3.88727 -3.67145 0
M  V30 1488 H 138.86 -2.17929 -3.54701 0
M  V30 1489 H 139.393 -3.27901 -2.25223 0
M  V30 1490 H 136.132 -6.26057 -1.94249 0
M  V30 1491 H 135.652 -5.0823 -3.18532 0
M  V30 1492 H 137.331 -5.6722 -3.11241 0
M  V30 1493 N 137.463 0.71206 -1.40597 0
M  V30 1494 C 138.411 1.84746 -1.41321 0
M  V30 1495 C 139.405 1.66842 -0.293268 0
M  V30 1496 O 140.611 1.73904 -0.464481 0
M  V30 1497 H 136.986 0.608522 -0.441819 0
M  V30 1498 H 138.957 1.81252 -2.37045 0
M  V30 1499 C 137.706 3.22638 -1.29614 0
M  V30 1500 H 137.029 3.37023 -2.15071 0
M  V30 1501 H 138.469 4.02209 -1.3418 0
M  V30 1502 C 136.928 3.36899 -0.00673121 0
M  V30 1503 O 137.458 3.90186 0.954859 0
M  V30 1504 N 135.664 2.9053 0.0639327 0
M  V30 1505 H 135.211 2.47353 -0.719311 0
M  V30 1506 H 135.169 3.0045 0.926118 0
M  V30 1507 N 138.941 1.26152 0.944643 0
M  V30 1508 C 140.189 1.11271 1.6871 0
M  V30 1509 C 140.51 -0.345166 1.91921 0
M  V30 1510 O 139.78 -1.24387 1.51343 0
M  V30 1511 H 138.36 0.408783 0.625224 0
M  V30 1512 H 141.022 1.58427 1.1352 0
M  V30 1513 H 140.118 1.62879 2.66227 0
M  V30 1514 N 140.419 -1.14872 1.07899 0
M  V30 1515 C 141.668 -1.85135 0.800499 0
M  V30 1516 C 141.981 -1.83547 -0.676014 0
M  V30 1517 O 143.187 -2.49548 -1.06948 0
M  V30 1518 C 141.643 -3.3231 1.38197 0
M  V30 1519 C 141.251 -3.42329 2.8899 0
M  V30 1520 C 142.995 -4.0772 1.18174 0
M  V30 1521 C 140.902 -4.83684 3.403 0
M  V30 1522 H 139.832 -0.693563 0.29578 0
M  V30 1523 H 142.483 -1.29532 1.29976 0
M  V30 1524 H 140.865 -3.87618 0.810431 0
M  V30 1525 H 142.039 -2.97097 3.52236 0
M  V30 1526 H 140.354 -2.80369 3.07867 0
M  V30 1527 H 142.951 -5.12049 1.5398 0
M  V30 1528 H 143.294 -4.16124 0.12117 0
M  V30 1529 H 143.827 -3.58696 1.71994 0
M  V30 1530 H 140.566 -4.80465 4.45907 0
M  V30 1531 H 140.086 -5.29474 2.81811 0
M  V30 1532 H 141.765 -5.52558 3.36584 0
M  V30 1533 N 141.898 -0.863906 -1.31812 0
M  V30 1534 C 143.144 -0.472535 -1.97218 0
M  V30 1535 C 143.477 0.971394 -1.68159 0
M  V30 1536 O 142.752 1.68309 -0.974798 0
M  V30 1537 C 143.035 -0.723054 -3.52766 0
M  V30 1538 C 142.888 -2.21608 -3.91421 0
M  V30 1539 C 144.207 -0.185522 -4.39709 0
M  V30 1540 H 141.326 -0.173158 -0.71637 0
M  V30 1541 H 143.968 -1.08403 -1.56041 0
M  V30 1542 H 142.118 -0.202577 -3.87971 0
M  V30 1543 H 143.79 -2.80334 -3.66347 0
M  V30 1544 H 142.033 -2.691 -3.40246 0
M  V30 1545 H 142.704 -2.34203 -4.99853 0
M  V30 1546 H 145.18 -0.630726 -4.11292 0
M  V30 1547 H 144.056 -0.390306 -5.47511 0
M  V30 1548 H 144.317 0.912229 -4.32586 0
M  V30 1549 N 143.376 1.44774 -0.622745 0
M  V30 1550 C 144.623 2.02121 -0.1239 0
M  V30 1551 C 144.951 1.48915 1.25118 0
M  V30 1552 O 144.206 0.660045 1.84233 0
M  V30 1553 C 144.505 3.57364 -0.0508323 0
M  V30 1554 C 144.171 4.29787 -1.36358 0
M  V30 1555 C 142.833 4.4929 -1.72314 0
M  V30 1556 C 145.185 4.71062 -2.23048 0
M  V30 1557 C 142.513 5.07325 -2.94682 0
M  V30 1558 C 144.865 5.30452 -3.44679 0
M  V30 1559 C 143.529 5.48175 -3.80868 0
M  V30 1560 H 142.799 0.739612 -0.0453381 0
M  V30 1561 H 145.446 1.73648 -0.807389 0
M  V30 1562 H 143.751 3.85202 0.715991 0
M  V30 1563 H 145.448 3.99456 0.351533 0
M  V30 1564 H 142.038 4.14932 -1.07375 0
M  V30 1565 H 146.222 4.55715 -1.96565 0
M  V30 1566 H 141.478 5.19235 -3.22809 0
M  V30 1567 H 145.652 5.61385 -4.12092 0
M  V30 1568 H 143.279 5.92912 -4.75773 0
M  V30 1569 N 144.854 0.36279 1.53368 0
M  V30 1570 C 145.784 -0.476976 2.28576 0
M  V30 1571 C 146.765 -1.08631 1.30894 0
M  V30 1572 O 147.95 -1.10409 1.59761 0
M  V30 1573 C 145.08 -1.61828 3.07293 0
M  V30 1574 C 144.034 -1.13633 4.1264 0
M  V30 1575 C 143.36 -2.36766 4.79423 0
M  V30 1576 C 144.66 -0.223061 5.21823 0
M  V30 1577 H 146.354 0.150474 2.99022 0
M  V30 1578 H 143.9 0.0738103 1.43811 0
M  V30 1579 H 145.853 -2.21237 3.58653 0
M  V30 1580 H 144.577 -2.27292 2.34533 0
M  V30 1581 H 143.236 -0.564945 3.62221 0
M  V30 1582 H 142.884 -3.0068 4.03238 0
M  V30 1583 H 142.584 -2.05192 5.50609 0
M  V30 1584 H 144.108 -2.96865 5.33576 0
M  V30 1585 H 145.522 -0.724545 5.68703 0
M  V30 1586 H 143.919 0.001678 6.001 0
M  V30 1587 H 144.989 0.735553 4.79289 0
M  V30 1588 N 146.332 -1.57332 0.0918853 0
M  V30 1589 C 147.578 -1.94524 -0.573425 0
M  V30 1590 C 147.911 -0.973578 -1.68033 0
M  V30 1591 O 147.186 -0.00609226 -1.94499 0
M  V30 1592 C 147.469 -3.41858 -1.13161 0
M  V30 1593 C 147.322 -4.4979 -0.0299747 0
M  V30 1594 C 148.641 -3.90435 -2.03098 0
M  V30 1595 H 145.76 -0.70734 -0.206975 0
M  V30 1596 H 148.402 -1.89309 0.161942 0
M  V30 1597 H 146.552 -3.46433 -1.7583 0
M  V30 1598 H 148.224 -4.57327 0.604112 0
M  V30 1599 H 146.467 -4.291 0.636833 0
M  V30 1600 H 147.138 -5.50069 -0.461287 0
M  V30 1601 H 149.614 -3.87992 -1.50338 0
M  V30 1602 H 148.49 -4.94097 -2.39081 0
M  V30 1603 H 148.751 -3.29541 -2.94712 0
M  V30 1604 N 147.81 0.181792 -1.56548 0
M  V30 1605 C 149.087 0.926765 -1.72251 0
M  V30 1606 C 149.467 2.00831 -0.650386 0
M  V30 1607 O 148.815 2.26008 0.336521 0
M  V30 1608 C 149.025 1.50106 -3.1507 0
M  V30 1609 C 150.373 1.97805 -3.75711 0
M  V30 1610 O 151.397 1.59922 -3.18282 0
M  V30 1611 O 150.256 2.67555 -4.76525 0
M  V30 1612 H 147.35 0.435506 -0.703039 0
M  V30 1613 H 149.896 0.170443 -1.68842 0
M  V30 1614 H 148.668 0.72212 -3.84579 0
M  V30 1615 H 148.291 2.32186 -3.22763 0
M  V30 1616 N 149.288 1.51039 0.449983 0
M  V30 1617 C 150.528 1.64732 1.21007 0
M  V30 1618 C 150.892 0.349865 1.88785 0
M  V30 1619 O 152.093 0.362431 2.66345 0
M  V30 1620 C 150.364 2.80902 2.20973 0
M  V30 1621 S 151.923 3.14851 3.05638 0
M  V30 1622 H 148.741 0.5805 0.410538 0
M  V30 1623 H 151.343 1.88901 0.503634 0
M  V30 1624 H 150.047 3.73627 1.69796 0
M  V30 1625 H 149.578 2.58882 2.96215 0
M  V30 1626 H 151.593 2.60306 4.22439 0
M  V30 1627 N 150.766 -0.704594 1.40972 0
M  V30 1628 C 151.729 -1.80035 1.41845 0
M  V30 1629 C 152.729 -1.57774 0.310474 0
M  V30 1630 O 153.919 -1.64613 0.56992 0
M  V30 1631 C 151.051 -3.18284 1.22098 0
M  V30 1632 H 152.244 -1.80658 2.3938 0
M  V30 1633 H 149.797 -0.911329 1.26982 0
M  V30 1634 H 150.532 -3.23306 0.253672 0
M  V30 1635 H 150.317 -3.35843 2.02366 0
M  V30 1636 H 151.807 -3.98289 1.25522 0
M  V30 1637 N 152.244 -1.26651 -0.937939 0
M  V30 1638 C 153.521 -1.0313 -1.66204 0
M  V30 1639 C 153.901 0.437256 -2.06522 0
M  V30 1640 O 153.249 1.41831 -1.79154 0
M  V30 1641 C 153.459 -1.98314 -2.87181 0
M  V30 1642 C 154.807 -2.27107 -3.58758 0
M  V30 1643 O 155.831 -1.96205 -2.97291 0
M  V30 1644 O 154.69 -2.79736 -4.69479 0
M  V30 1645 H 151.784 -0.392384 -0.727986 0
M  V30 1646 H 154.33 -1.37874 -0.989382 0
M  V30 1647 H 153.102 -2.97399 -2.54302 0
M  V30 1648 H 152.725 -1.64068 -3.6217 0
M  V30 1649 N 153.722 1.14298 -1.08507 0
M  V30 1650 C 154.672 2.17449 -0.685569 0
M  V30 1651 C 155.656 1.58167 0.295315 0
M  V30 1652 O 156.848 1.76675 0.107172 0
M  V30 1653 C 153.977 3.43161 -0.0975318 0
M  V30 1654 C 153.063 4.09471 -1.10426 0
M  V30 1655 N 153.454 4.51089 -2.28806 0
M  V30 1656 C 151.752 4.35976 -0.940258 0
M  V30 1657 C 152.453 5.02654 -2.9277 0
M  V30 1658 N 151.429 4.96927 -2.20374 0
M  V30 1659 H 155.231 2.47369 -1.587 0
M  V30 1660 H 152.745 1.30992 -0.959936 0
M  V30 1661 H 154.742 4.16388 0.20664 0
M  V30 1662 H 153.402 3.14719 0.798872 0
M  V30 1663 H 154.413 4.44097 -2.66455 0
M  V30 1664 H 151.09 4.17386 -0.0977441 0
M  V30 1665 H 152.48 5.44723 -3.93352 0
M  V30 1666 N 155.201 0.870884 1.31352 0
M  V30 1667 C 156.111 0.330783 2.32256 0
M  V30 1668 C 157.127 -0.559767 1.6475 0
M  V30 1669 O 158.303 -0.456263 1.96164 0
M  V30 1670 C 155.368 -0.458137 3.4366 0
M  V30 1671 C 154.429 0.460482 4.26823 0
M  V30 1672 C 153.662 -0.290881 5.32907 0
M  V30 1673 O 153.885 -1.51885 5.49806 0
M  V30 1674 O 152.819 0.351732 6.00871 0
M  V30 1675 H 156.645 1.16718 2.80376 0
M  V30 1676 H 154.23 0.634285 1.35267 0
M  V30 1677 H 156.112 -0.905343 4.1156 0
M  V30 1678 H 154.787 -1.27106 2.97701 0
M  V30 1679 H 153.694 0.956207 3.61673 0
M  V30 1680 H 155.027 1.23903 4.7635 0
M  V30 1681 N 156.679 -1.44442 0.630414 0
M  V30 1682 C 158.095 -1.56832 0.295973 0
M  V30 1683 C 158.295 -1.61806 -1.20088 0
M  V30 1684 O 157.351 -1.5607 -1.9849 0
M  V30 1685 C 158.664 -2.84031 0.987264 0
M  V30 1686 C 160.212 -2.97742 0.96534 0
M  V30 1687 C 160.687 -4.27743 1.63708 0
M  V30 1688 N 162.178 -4.34555 1.60364 0
M  V30 1689 C 162.913 -5.33862 2.09234 0
M  V30 1690 N 162.409 -6.39578 2.66292 0
M  V30 1691 N 164.202 -5.25366 1.99867 0
M  V30 1692 H 156.353 -1.39457 1.60205 0
M  V30 1693 H 158.616 -0.668237 0.672431 0
M  V30 1694 H 158.322 -2.86338 2.04215 0
M  V30 1695 H 158.196 -3.73534 0.524588 0
M  V30 1696 H 160.583 -2.94989 -0.0810639 0
M  V30 1697 H 160.664 -2.09589 1.4665 0
M  V30 1698 H 160.308 -4.31255 2.68293 0
M  V30 1699 H 160.238 -5.14752 1.11076 0
M  V30 1700 H 162.729 -3.58772 1.18705 0
M  V30 1701 H 163.042 -7.11637 3.01317 0
M  V30 1702 H 161.387 -6.40265 2.70343 0
M  V30 1703 H 164.578 -4.41688 1.55013 0
M  V30 1704 H 164.751 -6.02606 2.38265 0
M  V30 1705 N 158.157 -0.370918 -1.53173 0
M  V30 1706 C 159.087 0.464847 -2.28826 0
M  V30 1707 C 160.068 1.07936 -1.31468 0
M  V30 1708 O 161.253 1.0956 -1.60344 0
M  V30 1709 C 158.383 1.60196 -3.08147 0
M  V30 1710 C 157.337 1.11443 -4.13237 0
M  V30 1711 C 156.663 2.3422 -4.80672 0
M  V30 1712 C 157.963 0.195384 -5.21934 0
M  V30 1713 H 159.657 -0.166329 -2.98938 0
M  V30 1714 H 157.203 -0.0814359 -1.4377 0
M  V30 1715 H 159.156 2.19332 -3.59822 0
M  V30 1716 H 157.88 2.26045 -2.35735 0
M  V30 1717 H 156.539 0.545727 -3.62515 0
M  V30 1718 H 156.187 2.98537 -4.04827 0
M  V30 1719 H 155.887 2.02269 -5.51689 0
M  V30 1720 H 157.411 2.94032 -5.35143 0
M  V30 1721 H 158.825 0.694375 -5.69079 0
M  V30 1722 H 157.222 -0.0335027 -6.00091 0
M  V30 1723 H 158.292 -0.760961 -4.78892 0
M  V30 1724 N 159.635 1.57281 -0.100228 0
M  V30 1725 C 160.565 2.17328 0.853857 0
M  V30 1726 C 161.546 1.10804 1.2906 0
M  V30 1727 O 162.731 1.38963 1.35657 0
M  V30 1728 C 159.861 2.75772 2.11109 0
M  V30 1729 C 158.815 3.87713 1.81279 0
M  V30 1730 C 158.141 4.32882 3.13874 0
M  V30 1731 C 159.441 5.10677 1.09574 0
M  V30 1732 H 161.135 2.97305 0.353545 0
M  V30 1733 H 158.681 1.43009 0.168612 0
M  V30 1734 H 160.634 3.16433 2.78296 0
M  V30 1735 H 159.358 1.93057 2.63432 0
M  V30 1736 H 158.017 3.476 1.16489 0
M  V30 1737 H 157.665 3.47051 3.64095 0
M  V30 1738 H 157.365 5.08358 2.94696 0
M  V30 1739 H 158.889 4.7618 3.82211 0
M  V30 1740 H 160.303 5.48474 1.66879 0
M  V30 1741 H 158.7 5.91615 1.00557 0
M  V30 1742 H 159.77 4.84835 0.0793299 0
M  V30 1743 N 161.113 -0.173488 1.56642 0
M  V30 1744 C 162.023 -1.23482 1.99473 0
M  V30 1745 C 163.039 -1.48567 0.905752 0
M  V30 1746 O 164.215 -1.60758 1.21321 0
M  V30 1747 C 161.28 -2.55444 2.34413 0
M  V30 1748 C 160.341 -2.38241 3.57127 0
M  V30 1749 C 159.574 -3.63909 3.90392 0
M  V30 1750 O 159.797 -4.68996 3.24653 0
M  V30 1751 O 158.731 -3.58149 4.83749 0
M  V30 1752 H 162.557 -0.901279 2.90018 0
M  V30 1753 H 160.142 -0.380185 1.44482 0
M  V30 1754 H 162.024 -3.33292 2.57865 0
M  V30 1755 H 160.699 -2.88382 1.4703 0
M  V30 1756 H 159.606 -1.58431 3.38896 0
M  V30 1757 H 160.939 -2.10228 4.45045 0
M  V30 1758 N 162.591 -1.51276 -0.441967 0
M  V30 1759 C 163.816 -1.67799 -1.21895 0
M  V30 1760 C 164.241 -0.372864 -1.84367 0
M  V30 1761 O 163.599 0.666501 -1.68604 0
M  V30 1762 C 163.647 -2.79199 -2.28211 0
M  V30 1763 O 162.751 -2.42479 -3.33583 0
M  V30 1764 H 162.092 -0.559649 -0.357336 0
M  V30 1765 H 164.622 -1.97815 -0.522522 0
M  V30 1766 H 164.632 -3.03146 -2.73069 0
M  V30 1767 H 163.307 -3.73906 -1.82118 0
M  V30 1768 H 161.884 -2.29087 -2.94234 0
M  V30 1769 N 164.069 0.697108 -1.41344 0
M  V30 1770 C 165.016 1.81106 -1.43071 0
M  V30 1771 C 165.986 1.63632 -0.285275 0
M  V30 1772 O 167.171 1.84504 -0.486091 0
M  V30 1773 C 164.311 3.18975 -1.31715 0
M  V30 1774 C 163.424 3.47892 -2.56115 0
M  V30 1775 C 162.559 4.75367 -2.37064 0
M  V30 1776 C 161.598 4.97247 -3.56948 0
M  V30 1777 N 160.735 6.15947 -3.36977 0
M  V30 1778 H 165.575 1.78965 -2.38276 0
M  V30 1779 H 163.112 0.873975 -1.18322 0
M  V30 1780 H 165.07 3.98615 -1.23133 0
M  V30 1781 H 163.7 3.20297 -0.401183 0
M  V30 1782 H 162.752 2.62669 -2.75153 0
M  V30 1783 H 164.064 3.59962 -3.45295 0
M  V30 1784 H 163.218 5.63059 -2.25941 0
M  V30 1785 H 161.957 4.65541 -1.45338 0
M  V30 1786 H 160.962 4.08004 -3.68527 0
M  V30 1787 H 162.187 5.08934 -4.49626 0
M  V30 1788 H 160.133 6.07336 -2.47949 0
M  V30 1789 H 160.05 6.28777 -4.19732 0
M  V30 1790 H 161.318 7.06377 -3.29623 0
M  V30 1791 N 165.547 1.27147 0.931209 0
M  V30 1792 C 166.457 1.11372 2.06478 0
M  V30 1793 C 167.473 0.044645 1.73943 0
M  V30 1794 O 168.649 0.250417 1.99837 0
M  V30 1795 C 165.714 0.758838 3.38294 0
M  V30 1796 C 164.775 1.90841 3.84549 0
M  V30 1797 C 164.008 1.57036 5.10074 0
M  V30 1798 O 164.231 0.476645 5.68405 0
M  V30 1799 O 163.165 2.40839 5.51616 0
M  V30 1800 H 166.991 2.06493 2.22698 0
M  V30 1801 H 164.576 1.06301 1.04978 0
M  V30 1802 H 166.458 0.574098 4.17471 0
M  V30 1803 H 165.133 -0.162879 3.2329 0
M  V30 1804 H 164.04 2.14819 3.06274 0
M  V30 1805 H 165.373 2.81021 4.04089 0
M  V30 1806 N 167.025 -1.13721 1.09112 0
M  V30 1807 C 167.935 -2.22638 0.73957 0
M  V30 1808 C 168.951 -1.72091 -0.257068 0
M  V30 1809 O 170.127 -2.01155 -0.0992154 0
M  V30 1810 C 167.192 -3.46322 0.16191 0
M  V30 1811 C 166.253 -4.11775 1.21408 0
M  V30 1812 C 165.486 -5.29555 0.663891 0
M  V30 1813 O 165.709 -5.68077 -0.514274 0
M  V30 1814 O 164.643 -5.84973 1.41738 0
M  V30 1815 H 168.469 -2.55074 1.64836 0
M  V30 1816 H 166.054 -1.21791 0.865289 0
M  V30 1817 H 167.936 -4.21107 -0.157073 0
M  V30 1818 H 166.611 -3.15593 -0.719932 0
M  V30 1819 H 165.518 -3.3883 1.58571 0
M  V30 1820 H 166.851 -4.46627 2.06845 0
M  V30 1821 N 168.503 -0.877838 -1.30888 0
M  V30 1822 C 169.433 -0.35534 -2.3078 0
M  V30 1823 C 170.414 0.557994 -1.60687 0
M  V30 1824 O 171.599 0.473355 -1.88343 0
M  V30 1825 C 168.729 0.437221 -3.44537 0
M  V30 1826 C 167.683 -0.383715 -4.26276 0
M  V30 1827 C 167.009 0.535014 -5.32017 0
M  V30 1828 C 168.309 -1.62201 -4.96476 0
M  V30 1829 H 170.003 -1.19007 -2.74732 0
M  V30 1830 H 167.549 -0.573698 -1.32078 0
M  V30 1831 H 169.502 0.813334 -4.13477 0
M  V30 1832 H 168.226 1.30553 -2.99372 0
M  V30 1833 H 166.885 -0.741874 -3.59015 0
M  V30 1834 H 166.533 1.40083 -4.831 0
M  V30 1835 H 166.233 -0.0104211 -5.87599 0
M  V30 1836 H 167.757 0.907799 -6.03814 0
M  V30 1837 H 169.171 -1.31689 -5.5797 0
M  V30 1838 H 167.568 -2.10711 -5.61891 0
M  V30 1839 H 168.638 -2.37044 -4.23011 0
M  V30 1840 N 169.982 1.44106 -0.638065 0
M  V30 1841 C 171.259 1.95453 -0.0759321 0
M  V30 1842 C 171.639 1.57984 1.40015 0
M  V30 1843 O 170.987 0.857361 2.11806 0
M  V30 1844 C 171.197 3.47655 -0.306132 0
M  V30 1845 C 172.545 4.24114 -0.203008 0
M  V30 1846 O 173.569 3.55405 -0.237871 0
M  V30 1847 O 172.428 5.46381 -0.113827 0
M  V30 1848 H 169.522 0.826797 0.0183332 0
M  V30 1849 H 172.068 1.54122 -0.710251 0
M  V30 1850 H 170.84 3.68 -1.3301 0
M  V30 1851 H 170.463 3.95949 0.361991 0
M  V30 1852 N 171.46 0.379036 1.52974 0
M  V30 1853 C 172.685 -0.209353 2.06341 0
M  V30 1854 C 173.11 -1.40583 1.24972 0
M  V30 1855 O 172.468 -1.79246 0.272155 0
M  V30 1856 C 172.516 -0.567786 3.56102 0
M  V30 1857 O 171.62 -1.66318 3.77375 0
M  V30 1858 H 170.961 -0.0272919 0.663439 0
M  V30 1859 H 173.491 0.543536 1.97248 0
M  V30 1860 H 173.501 -0.835003 3.99364 0
M  V30 1861 H 172.176 0.307013 4.14765 0
M  V30 1862 H 170.753 -1.39048 3.46006 0
M  V30 1863 N 172.938 -1.57226 0.108567 0
M  V30 1864 C 173.868 -2.17778 -0.84232 0
M  V30 1865 C 174.849 -1.11487 -1.2847 0
M  V30 1866 O 176.034 -1.39681 -1.34918 0
M  V30 1867 C 173.164 -2.76888 -2.09644 0
M  V30 1868 C 172.118 -3.88669 -1.79221 0
M  V30 1869 C 171.444 -4.34541 -3.11574 0
M  V30 1870 C 172.744 -5.11251 -1.06864 0
M  V30 1871 H 174.438 -2.97489 -0.337774 0
M  V30 1872 H 171.984 -1.43097 -0.161025 0
M  V30 1873 H 173.937 -3.17904 -2.76614 0
M  V30 1874 H 172.661 -1.94451 -2.62405 0
M  V30 1875 H 171.32 -3.48213 -1.14644 0
M  V30 1876 H 170.968 -3.48977 -3.62249 0
M  V30 1877 H 170.668 -5.09914 -2.91996 0
M  V30 1878 H 172.192 -4.782 -3.7968 0
M  V30 1879 H 173.606 -5.49352 -1.63968 0
M  V30 1880 H 172.003 -5.9214 -0.974178 0
M  V30 1881 H 173.073 -4.8487 -0.0536168 0
M  V30 1882 N 174.416 0.165178 -1.56732 0
M  V30 1883 C 175.349 1.23336 -1.91998 0
M  V30 1884 C 176.327 1.42476 -0.783531 0
M  V30 1885 O 177.511 1.57384 -1.03743 0
M  V30 1886 C 174.638 2.59533 -2.17625 0
M  V30 1887 C 173.684 2.57093 -3.40302 0
M  V30 1888 S 174.517 2.05571 -4.9447 0
M  V30 1889 C 175.673 3.43532 -5.23198 0
M  V30 1890 H 175.906 0.932387 -2.82301 0
M  V30 1891 H 173.439 0.370013 -1.49901 0
M  V30 1892 H 175.397 3.37918 -2.3307 0
M  V30 1893 H 174.058 2.86827 -1.28019 0
M  V30 1894 H 173.251 3.57308 -3.55453 0
M  V30 1895 H 172.853 1.86806 -3.24005 0
M  V30 1896 H 175.145 4.39559 -5.15552 0
M  V30 1897 H 176.088 3.33251 -6.2478 0
M  V30 1898 H 176.496 3.39828 -4.50752 0
M  V30 1899 N 175.894 1.51508 0.433938 0
M  V30 1900 C 177.122 1.68157 1.20543 0
M  V30 1901 C 177.537 0.380362 1.84929 0
M  V30 1902 O 176.894 -0.641446 1.70856 0
M  V30 1903 C 176.945 2.79965 2.28696 0
M  V30 1904 O 176.666 4.05045 1.66943 0
M  V30 1905 C 178.167 3.07912 3.18912 0
M  V30 1906 H 175.387 0.56421 0.363191 0
M  V30 1907 H 177.931 1.97941 0.513754 0
M  V30 1908 H 176.086 2.5277 2.93574 0
M  V30 1909 H 176.5 4.67165 2.38448 0
M  V30 1910 H 177.974 3.89719 3.90926 0
M  V30 1911 H 178.451 2.20456 3.79863 0
M  V30 1912 H 179.057 3.36779 2.59731 0
M  V30 1913 N 177.372 -0.689602 1.41712 0
M  V30 1914 C 178.649 -1.44457 1.31877 0
M  V30 1915 C 179.029 -2.11039 -0.0508537 0
M  V30 1916 O 178.377 -2.02138 -1.06547 0
M  V30 1917 C 178.587 -2.45913 2.47645 0
M  V30 1918 C 179.935 -3.10991 2.89084 0
M  V30 1919 O 180.959 -2.56238 2.47428 0
M  V30 1920 O 179.818 -4.10174 3.61137 0
M  V30 1921 H 176.912 -0.64362 0.519309 0
M  V30 1922 H 179.458 -0.719576 1.53689 0
M  V30 1923 H 178.23 -1.95409 3.39015 0
M  V30 1924 H 177.853 -3.25913 2.27742 0
M  V30 1925 N 178.85 -1.27639 -0.924453 0
M  V30 1926 C 179.76 -1.12466 -2.05885 0
M  V30 1927 C 180.776 -0.053869 -1.73917 0
M  V30 1928 O 181.952 -0.261012 -1.99702 0
M  V30 1929 C 179.017 -0.776768 -3.37886 0
M  V30 1930 C 178.078 -1.92878 -3.83532 0
M  V30 1931 C 177.311 -1.59739 -5.09234 0
M  V30 1932 O 177.534 -0.506782 -5.68144 0
M  V30 1933 O 176.468 -2.43761 -5.50331 0
M  V30 1934 H 180.294 -2.07671 -2.21599 0
M  V30 1935 H 177.879 -1.06857 -1.04413 0
M  V30 1936 H 179.761 -0.596229 -4.17161 0
M  V30 1937 H 178.436 0.145732 -3.23372 0
M  V30 1938 H 177.343 -2.1644 -3.0513 0
M  V30 1939 H 178.676 -2.8316 -4.02593 0
M  V30 1940 N 180.328 1.1314 -1.09713 0
M  V30 1941 C 181.556 1.88321 -0.856898 0
M  V30 1942 C 181.971 1.79276 0.592073 0
M  V30 1943 O 181.328 1.16142 1.40774 0
M  V30 1944 C 181.379 3.37812 -1.28706 0
M  V30 1945 O 181.1 3.46627 -2.67921 0
M  V30 1946 C 182.601 4.29952 -1.07964 0
M  V30 1947 H 179.821 0.596094 -0.308079 0
M  V30 1948 H 182.365 1.43205 -1.45988 0
M  V30 1949 H 180.52 3.805 -0.727912 0
M  V30 1950 H 180.934 4.39579 -2.8613 0
M  V30 1951 H 182.408 5.33159 -1.42986 0
M  V30 1952 H 182.885 4.39196 -0.0176577 0
M  V30 1953 H 183.491 3.93036 -1.62489 0
M  V30 1954 N 181.806 0.884767 1.30421 0
M  V30 1955 C 183.055 0.499164 1.95426 0
M  V30 1956 C 183.368 -0.95645 1.70621 0
M  V30 1957 O 184.574 -1.44889 2.29607 0
M  V30 1958 C 183.03 0.84177 3.49917 0
M  V30 1959 C 182.638 2.31514 3.83543 0
M  V30 1960 C 184.382 0.525355 4.21237 0
M  V30 1961 C 182.289 2.59939 5.31212 0
M  V30 1962 H 181.219 0.182944 0.73147 0
M  V30 1963 H 183.87 1.07971 1.48373 0
M  V30 1964 H 182.252 0.190311 3.95542 0
M  V30 1965 H 183.426 3.0109 3.48829 0
M  V30 1966 H 181.741 2.59907 3.25326 0
M  V30 1967 H 184.338 0.714762 5.29901 0
M  V30 1968 H 184.681 -0.535222 4.12845 0
M  V30 1969 H 185.214 1.134 3.81294 0
M  V30 1970 H 181.953 3.64736 5.44654 0
M  V30 1971 H 181.473 1.94972 5.67227 0
M  V30 1972 H 183.152 2.45429 5.98643 0
M  V30 1973 N 183.284 -1.43765 0.645699 0
M  V30 1974 C 184.247 -2.29163 -0.0409488 0
M  V30 1975 C 185.247 -1.41813 -0.757996 0
M  V30 1976 O 186.437 -1.63527 -0.600382 0
M  V30 1977 C 183.569 -3.23716 -1.06869 0
M  V30 1978 H 184.762 -2.91366 0.710345 0
M  V30 1979 H 182.315 -1.5092 0.406547 0
M  V30 1980 H 183.05 -2.66393 -1.84947 0
M  V30 1981 H 182.835 -3.88105 -0.558277 0
M  V30 1982 H 184.325 -3.87831 -1.54845 0
M  V30 1983 N 184.763 -0.387143 -1.52771 0
M  V30 1984 C 185.711 0.463953 -2.27926 0
M  V30 1985 C 186.705 1.06493 -1.31741 0
M  V30 1986 O 187.911 1.00565 -1.49287 0
M  V30 1987 H 184.286 0.16837 -0.732909 0
M  V30 1988 H 186.257 -0.19141 -2.97785 0
M  V30 1989 C 185.006 1.5803 -3.09713 0
M  V30 1990 H 184.329 1.12718 -3.83581 0
M  V30 1991 H 185.769 2.15008 -3.65442 0
M  V30 1992 C 184.228 2.53509 -2.2189 0
M  V30 1993 O 184.758 3.56863 -1.84422 0
M  V30 1994 N 182.964 2.23199 -1.86093 0
M  V30 1995 H 182.511 1.39185 -2.16761 0
M  V30 1996 H 182.469 2.87333 -1.27621 0
M  V30 1997 N 186.241 1.57166 -0.116904 0
M  V30 1998 C 187.487 1.95412 0.542405 0
M  V30 1999 C 187.82 1.00019 1.66463 0
M  V30 2000 O 187.095 0.0370346 1.94465 0
M  V30 2001 C 187.378 3.43615 1.07708 0
M  V30 2002 C 187.231 4.49781 -0.0415868 0
M  V30 2003 C 188.55 3.93616 1.96861 0
M  V30 2004 H 185.669 0.710543 0.195696 0
M  V30 2005 H 188.311 1.89027 -0.192038 0
M  V30 2006 H 186.461 3.49187 1.70296 0
M  V30 2007 H 188.133 4.56308 -0.676793 0
M  V30 2008 H 186.376 4.28033 -0.705019 0
M  V30 2009 H 187.047 5.50733 0.373717 0
M  V30 2010 H 189.523 3.90335 1.44146 0
M  V30 2011 H 188.399 4.97838 2.3119 0
M  V30 2012 H 188.66 3.34188 2.89432 0
M  V30 2013 N 187.719 -0.156864 1.56817 0
M  V30 2014 C 189.13 -0.717916 1.72345 0
M  V30 2015 C 189.481 -1.82124 0.729747 0
M  V30 2016 O 188.606 -2.16141 -0.105781 0
M  V30 2017 C 189.201 -1.30904 3.12489 0
M  V30 2018 C 187.76 -1.81676 3.29653 0
M  V30 2019 C 186.907 -0.701349 2.68284 0
M  V30 2020 H 189.858 0.0686989 1.58551 0
M  V30 2021 H 189.879 -2.17882 3.11942 0
M  V30 2022 H 189.391 -0.505796 3.8479 0
M  V30 2023 H 187.492 -2.64598 2.62333 0
M  V30 2024 H 187.605 -1.95226 4.3752 0
M  V30 2025 H 185.969 -1.12548 2.28484 0
M  V30 2026 H 186.752 0.0902846 3.43181 0
M  V30 2027 N 189.197 -1.51736 -0.425897 0
M  V30 2028 C 190.446 -1.64201 -1.17136 0
M  V30 2029 C 190.759 -0.369705 -1.92074 0
M  V30 2030 O 191.965 -0.373898 -2.68913 0
M  V30 2031 C 190.421 -2.90035 -2.13091 0
M  V30 2032 C 190.029 -4.24312 -1.43747 0
M  V30 2033 C 191.773 -3.1186 -2.87999 0
M  V30 2034 C 189.68 -5.41285 -2.38253 0
M  V30 2035 H 188.61 -0.611624 -0.440944 0
M  V30 2036 H 191.261 -1.78212 -0.437328 0
M  V30 2037 H 189.643 -2.69684 -2.89977 0
M  V30 2038 H 190.817 -4.55086 -0.723408 0
M  V30 2039 H 189.132 -4.08456 -0.809465 0
M  V30 2040 H 191.729 -3.96427 -3.58817 0
M  V30 2041 H 192.072 -2.25403 -3.49999 0
M  V30 2042 H 192.605 -3.32605 -2.18217 0
M  V30 2043 H 189.344 -6.30037 -1.80925 0
M  V30 2044 H 188.864 -5.14872 -3.0768 0
M  V30 2045 H 190.543 -5.73694 -2.99139 0
M  V30 2046 N 190.675 0.682077 -1.42076 0
M  V30 2047 C 191.605 1.80796 -1.47767 0
M  V30 2048 C 192.586 1.6677 -0.334954 0
M  V30 2049 O 193.771 1.863 -0.548264 0
M  V30 2050 C 190.901 3.19038 -1.37229 0
M  V30 2051 C 189.855 3.47789 -2.49453 0
M  V30 2052 C 189.181 4.8553 -2.23975 0
M  V30 2053 C 190.481 3.45411 -3.91776 0
M  V30 2054 H 192.175 1.7629 -2.41997 0
M  V30 2055 H 189.721 0.846721 -1.16476 0
M  V30 2056 H 191.674 3.97528 -1.39821 0
M  V30 2057 H 190.398 3.24204 -0.394907 0
M  V30 2058 H 189.057 2.71657 -2.46166 0
M  V30 2059 H 188.705 4.87337 -1.24547 0
M  V30 2060 H 188.405 5.0573 -2.99184 0
M  V30 2061 H 189.929 5.66312 -2.28304 0
M  V30 2062 H 191.343 4.13882 -3.96705 0
M  V30 2063 H 189.74 3.77145 -4.66778 0
M  V30 2064 H 190.81 2.44122 -4.18966 0
M  V30 2065 N 192.153 1.28127 0.917671 0
M  V30 2066 C 193.402 1.14432 1.66097 0
M  V30 2067 C 193.715 -0.307247 1.93172 0
M  V30 2068 O 194.921 -0.565259 2.65551 0
M  V30 2069 C 193.377 2.00015 2.99202 0
M  V30 2070 C 192.985 3.49889 2.79789 0
M  V30 2071 C 194.729 1.94996 3.77064 0
M  V30 2072 C 192.636 4.27636 4.08511 0
M  V30 2073 H 191.566 0.424662 0.62304 0
M  V30 2074 H 194.217 1.52628 1.01868 0
M  V30 2075 H 192.599 1.54672 3.64544 0
M  V30 2076 H 193.773 4.03162 2.23152 0
M  V30 2077 H 192.088 3.56392 2.15345 0
M  V30 2078 H 194.685 2.50354 4.72469 0
M  V30 2079 H 195.028 0.925819 4.05875 0
M  V30 2080 H 195.561 2.38287 3.18534 0
M  V30 2081 H 192.3 5.30615 3.84874 0
M  V30 2082 H 191.82 3.79137 4.64774 0
M  V30 2083 H 193.499 4.37346 4.76799 0
M  V30 2084 N 193.631 -1.12557 1.10312 0
M  V30 2085 C 194.561 -2.20341 0.772798 0
M  V30 2086 C 195.542 -1.68198 -0.25365 0
M  V30 2087 O 196.727 -1.93831 -0.119699 0
M  V30 2088 C 193.857 -3.46709 0.202443 0
M  V30 2089 C 192.811 -4.11996 1.15943 0
M  V30 2090 C 192.137 -5.328 0.450345 0
M  V30 2091 C 193.437 -4.5828 2.50552 0
M  V30 2092 H 195.131 -2.48229 1.674 0
M  V30 2093 H 192.677 -1.19308 0.806326 0
M  V30 2094 H 194.63 -4.2138 -0.0407752 0
M  V30 2095 H 193.354 -3.18245 -0.734001 0
M  V30 2096 H 192.013 -3.39305 1.38808 0
M  V30 2097 H 191.661 -5.00602 -0.490531 0
M  V30 2098 H 191.361 -5.7743 1.08851 0
M  V30 2099 H 192.885 -6.10219 0.215642 0
M  V30 2100 H 194.299 -5.2433 2.31843 0
M  V30 2101 H 192.696 -5.13683 3.10242 0
M  V30 2102 H 193.766 -3.72329 3.10643 0
M  V30 2103 N 195.109 -0.891671 -1.2995 0
M  V30 2104 C 196.357 -0.512486 -1.95494 0
M  V30 2105 C 196.678 0.942776 -1.70695 0
M  V30 2106 O 195.948 1.66374 -1.03424 0
M  V30 2107 H 194.528 -0.186533 -0.723336 0
M  V30 2108 H 197.19 -1.13621 -1.58355 0
M  V30 2109 H 196.286 -0.688342 -3.04415 0
M  V30 2110 N 196.587 1.43421 -0.653314 0
M  V30 2111 C 197.535 2.32546 0.0501531 0
M  V30 2112 C 198.529 1.48617 0.812985 0
M  V30 2113 O 199.735 1.64825 0.723375 0
M  V30 2114 H 196.11 0.751185 0.0350032 0
M  V30 2115 H 198.081 2.89602 -0.719261 0
M  V30 2116 C 196.83 3.32925 1.00279 0
M  V30 2117 H 196.153 3.97532 0.425236 0
M  V30 2118 H 197.593 3.9792 1.46409 0
M  V30 2119 C 196.052 2.63532 2.09886 0
M  V30 2120 O 196.582 2.45092 3.18265 0
M  V30 2121 N 194.788 2.22905 1.86445 0
M  V30 2122 H 194.335 2.38103 0.98309 0
M  V30 2123 H 194.293 1.76805 2.59976 0
M  V30 2124 N 198.065 0.39524 1.52563 0
M  V30 2125 C 199.012 -0.437036 2.26624 0
M  V30 2126 C 199.982 -1.05281 1.28472 0
M  V30 2127 O 201.167 -1.07971 1.57311 0
M  V30 2128 C 198.307 -1.55524 3.08069 0
M  V30 2129 C 197.42 -0.961745 4.21158 0
M  V30 2130 C 196.555 -2.05149 4.89987 0
M  V30 2131 C 195.594 -1.4342 5.95061 0
M  V30 2132 N 194.731 -2.46351 6.57462 0
M  V30 2133 H 199.571 0.200976 2.97322 0
M  V30 2134 H 197.108 0.110944 1.46681 0
M  V30 2135 H 199.066 -2.21437 3.53584 0
M  V30 2136 H 197.696 -2.16348 2.3957 0
M  V30 2137 H 196.748 -0.192048 3.79915 0
M  V30 2138 H 198.06 -0.470701 4.96574 0
M  V30 2139 H 197.214 -2.78819 5.38837 0
M  V30 2140 H 195.953 -2.57615 4.14109 0
M  V30 2141 H 194.958 -0.682774 5.45544 0
M  V30 2142 H 196.183 -0.917416 6.72875 0
M  V30 2143 H 194.129 -2.97975 5.8442 0
M  V30 2144 H 194.046 -2.02019 7.28508 0
M  V30 2145 H 195.314 -3.19633 7.10954 0
M  V30 2146 N 199.544 -1.57102 0.125237 0
M  V30 2147 C 200.793 -1.94582 -0.531095 0
M  V30 2148 C 201.106 -1.01126 -1.6743 0
M  V30 2149 O 202.312 -1.28097 -2.39381 0
M  V30 2150 C 200.768 -3.45839 -0.996164 0
M  V30 2151 C 200.376 -4.47842 0.118926 0
M  V30 2152 C 202.12 -3.92227 -1.62352 0
M  V30 2153 C 200.027 -5.90284 -0.363192 0
M  V30 2154 H 198.957 -0.726391 -0.20217 0
M  V30 2155 H 201.608 -1.82339 0.206092 0
M  V30 2156 H 199.99 -3.53338 -1.78796 0
M  V30 2157 H 201.164 -4.52018 0.895358 0
M  V30 2158 H 199.479 -4.11243 0.653324 0
M  V30 2159 H 202.076 -4.96069 -1.99548 0
M  V30 2160 H 202.419 -3.32552 -2.50429 0
M  V30 2161 H 202.952 -3.87554 -0.897019 0
M  V30 2162 H 199.691 -6.53728 0.481679 0
M  V30 2163 H 199.211 -5.89515 -1.10597 0
M  V30 2164 H 200.89 -6.41752 -0.822377 0
M  V30 2165 N 201.022 0.148545 -1.56898 0
M  V30 2166 C 202.299 0.890019 -1.74178 0
M  V30 2167 C 202.679 1.99407 -0.692839 0
M  V30 2168 O 202.027 2.26671 0.288505 0
M  V30 2169 C 202.237 1.43389 -3.18183 0
M  V30 2170 C 203.585 1.89791 -3.79822 0
M  V30 2171 O 204.609 1.53134 -3.21603 0
M  V30 2172 O 203.468 2.57387 -4.82093 0
M  V30 2173 H 200.562 0.420496 -0.712118 0
M  V30 2174 H 203.108 0.134591 -1.69165 0
M  V30 2175 H 201.88 0.640383 -3.86024 0
M  V30 2176 H 201.503 2.25287 -3.27615 0
M  V30 2177 N 202.5 1.5196 0.417844 0
M  V30 2178 C 203.916 1.40569 0.755816 0
M  V30 2179 C 204.116 0.503316 1.95113 0
M  V30 2180 O 203.172 -0.0341925 2.52477 0
M  V30 2181 C 204.485 2.82947 1.01791 0
M  V30 2182 C 206.033 2.92231 1.12116 0
M  V30 2183 C 206.508 4.35559 1.41608 0
M  V30 2184 N 207.999 4.38753 1.48491 0
M  V30 2185 C 208.734 5.46705 1.7292 0
M  V30 2186 N 208.23 6.64788 1.95011 0
M  V30 2187 N 210.023 5.34209 1.74863 0
M  V30 2188 H 202.174 2.09168 -0.369098 0
M  V30 2189 H 204.437 0.942409 -0.102809 0
M  V30 2190 H 204.143 3.5106 0.212081 0
M  V30 2191 H 204.017 3.23462 1.94042 0
M  V30 2192 H 206.404 2.24304 1.9176 0
M  V30 2193 H 206.485 2.55185 0.177225 0
M  V30 2194 H 206.129 5.04042 0.624848 0
M  V30 2195 H 206.059 4.70133 2.37239 0
M  V30 2196 H 208.55 3.5363 1.33244 0
M  V30 2197 H 208.863 7.42845 2.13076 0
M  V30 2198 H 207.208 6.67869 1.92293 0
M  V30 2199 H 210.399 4.40937 1.57137 0
M  V30 2200 H 210.572 6.18415 1.93563 0
M  V30 2201 N 203.978 -0.674533 1.42435 0
M  V30 2202 C 205.389 -1.25514 1.38214 0
M  V30 2203 C 205.74 -1.96055 0.0755464 0
M  V30 2204 O 204.865 -2.00028 -0.8257 0
M  V30 2205 C 205.46 -2.28269 2.50357 0
M  V30 2206 C 204.019 -2.81856 2.49467 0
M  V30 2207 C 203.166 -1.56182 2.29134 0
M  V30 2208 H 206.117 -0.467902 1.51646 0
M  V30 2209 H 206.138 -3.10009 2.20624 0
M  V30 2210 H 205.65 -1.769 3.45439 0
M  V30 2211 H 203.751 -3.37346 1.58204 0
M  V30 2212 H 203.864 -3.30854 3.46515 0
M  V30 2213 H 202.228 -1.82761 1.774 0
M  V30 2214 H 203.011 -1.06778 3.26272 0
M  V30 2215 N 205.456 -1.28612 -0.910864 0
M  V30 2216 C 206.366 -1.14643 -2.0468 0
M  V30 2217 C 207.382 -0.0723121 -1.7385 0
M  V30 2218 O 208.558 -0.282178 -1.99413 0
M  V30 2219 C 205.623 -0.812561 -3.37044 0
M  V30 2220 C 204.684 -1.96935 -3.81465 0
M  V30 2221 C 203.917 -1.65131 -5.07511 0
M  V30 2222 O 204.14 -0.567013 -5.67575 0
M  V30 2223 O 203.074 -2.49585 -5.47714 0
M  V30 2224 H 206.9 -2.1001 -2.19384 0
M  V30 2225 H 204.485 -1.07958 -1.03274 0
M  V30 2226 H 206.367 -0.640441 -4.16505 0
M  V30 2227 H 205.042 0.111426 -3.23508 0
M  V30 2228 H 203.949 -2.19664 -3.02818 0
M  V30 2229 H 205.282 -2.87414 -3.99567 0
M  V30 2230 N 206.934 1.1197 -1.10907 0
M  V30 2231 C 207.897 2.16031 -0.765707 0
M  V30 2232 C 208.897 1.59393 0.212235 0
M  V30 2233 O 210.087 1.74196 -0.0115441 0
M  V30 2234 C 207.219 3.40632 -0.135053 0
M  V30 2235 H 208.412 2.47919 -1.68748 0
M  V30 2236 H 205.965 1.27061 -0.910226 0
M  V30 2237 H 206.7 3.14348 0.797218 0
M  V30 2238 H 206.485 3.8302 -0.838937 0
M  V30 2239 H 207.975 4.17505 0.0892469 0
M  V30 2240 N 208.412 0.89855 1.29475 0
M  V30 2241 C 209.661 0.519863 1.94885 0
M  V30 2242 C 209.974 -0.9383 1.71625 0
M  V30 2243 O 211.18 -1.42445 2.31131 0
M  V30 2244 C 209.636 0.878836 3.49005 0
M  V30 2245 C 209.244 2.35569 3.81066 0
M  V30 2246 C 210.988 0.570004 4.20656 0
M  V30 2247 C 208.895 2.65558 5.28425 0
M  V30 2248 H 207.825 0.190692 0.729488 0
M  V30 2249 H 210.476 1.09539 1.47219 0
M  V30 2250 H 208.858 0.232253 3.95318 0
M  V30 2251 H 210.032 3.04773 3.45616 0
M  V30 2252 H 208.347 2.63343 3.22552 0
M  V30 2253 H 210.944 0.770925 5.29113 0
M  V30 2254 H 211.287 -0.491404 4.1339 0
M  V30 2255 H 211.82 1.17438 3.8007 0
M  V30 2256 H 208.559 3.70493 5.40754 0
M  V30 2257 H 208.079 2.00977 5.65127 0
M  V30 2258 H 209.758 2.51765 5.96006 0
M  V30 2259 N 209.89 -1.43072 0.660911 0
M  V30 2260 C 211.115 -2.06584 0.183805 0
M  V30 2261 C 211.54 -1.49257 -1.14472 0
M  V30 2262 O 210.898 -0.605528 -1.70889 0
M  V30 2263 C 210.946 -3.60418 0.114434 0
M  V30 2264 O 210.05 -4.01981 -0.921137 0
M  V30 2265 H 209.391 -0.656669 0.0983994 0
M  V30 2266 H 211.921 -1.83447 0.906006 0
M  V30 2267 H 211.931 -4.07946 -0.0663394 0
M  V30 2268 H 210.606 -4.01519 1.08422 0
M  V30 2269 H 209.183 -3.66029 -0.71253 0
M  V30 2270 N 211.368 -0.403325 -1.52352 0
M  V30 2271 C 212.278 0.432009 -2.30588 0
M  V30 2272 C 213.294 1.05884 -1.38075 0
M  V30 2273 O 214.47 1.06161 -1.71148 0
M  V30 2274 C 211.535 1.53669 -3.10784 0
M  V30 2275 C 210.596 0.933525 -4.19027 0
M  V30 2276 C 209.829 1.98557 -4.9539 0
M  V30 2277 O 210.052 3.20283 -4.71991 0
M  V30 2278 O 208.986 1.59504 -5.80381 0
M  V30 2279 H 212.812 -0.205739 -3.03002 0
M  V30 2280 H 210.397 -0.166675 -1.48467 0
M  V30 2281 H 212.279 2.17814 -3.60742 0
M  V30 2282 H 210.954 2.15915 -2.41169 0
M  V30 2283 H 209.861 0.254954 -3.7323 0
M  V30 2284 H 211.194 0.35508 -4.90918 0
M  V30 2285 N 212.846 1.57033 -0.133567 0
M  V30 2286 C 213.756 2.19632 0.824564 0
M  V30 2287 C 214.772 1.17666 1.28182 0
M  V30 2288 O 215.948 1.50193 1.3418 0
M  V30 2289 C 213.013 2.79499 2.05137 0
M  V30 2290 C 212.074 3.96548 1.64464 0
M  V30 2291 C 211.307 4.5355 2.81297 0
M  V30 2292 O 211.53 4.09438 3.97136 0
M  V30 2293 O 210.464 5.44018 2.57542 0
M  V30 2294 H 214.29 3.01991 0.321766 0
M  V30 2295 H 211.875 1.49112 0.0927889 0
M  V30 2296 H 213.757 3.17602 2.7696 0
M  V30 2297 H 212.432 2.00162 2.54395 0
M  V30 2298 H 211.339 3.63186 0.897048 0
M  V30 2299 H 212.672 4.77364 1.19934 0
M  V30 2300 N 214.325 -0.140222 1.56975 0
M  V30 2301 C 215.741 -0.493088 1.51792 0
M  V30 2302 C 215.941 -1.83013 0.843116 0
M  V30 2303 O 214.997 -2.49041 0.416493 0
M  V30 2304 C 216.31 -0.497144 2.96562 0
M  V30 2305 C 217.858 -0.582186 3.07538 0
M  V30 2306 C 218.333 -0.616838 4.53827 0
M  V30 2307 N 219.824 -0.678873 4.58198 0
M  V30 2308 C 220.559 -0.726782 5.68775 0
M  V30 2309 N 220.055 -0.733623 6.88905 0
M  V30 2310 N 221.848 -0.768179 5.56826 0
M  V30 2311 H 213.999 0.736108 1.99237 0
M  V30 2312 H 216.262 0.269182 0.90898 0
M  V30 2313 H 215.968 0.417217 3.49217 0
M  V30 2314 H 215.842 -1.33263 3.52875 0
M  V30 2315 H 218.229 -1.48697 2.54899 0
M  V30 2316 H 218.31 0.280581 2.54257 0
M  V30 2317 H 217.954 0.283812 5.07106 0
M  V30 2318 H 217.884 -1.49619 5.04898 0
M  V30 2319 H 220.375 -0.68061 3.7172 0
M  V30 2320 H 220.688 -0.772215 7.68932 0
M  V30 2321 H 219.033 -0.701389 6.91452 0
M  V30 2322 H 222.224 -0.760051 4.61888 0
M  V30 2323 H 222.397 -0.80205 6.43017 0
M  V30 2324 N 215.803 -1.52179 -0.40978 0
M  V30 2325 C 216.733 -1.78435 -1.5061 0
M  V30 2326 C 217.714 -0.635295 -1.57791 0
M  V30 2327 O 218.899 -0.880823 -1.73076 0
M  V30 2328 C 216.029 -1.93444 -2.88439 0
M  V30 2329 C 214.983 -3.09038 -2.96108 0
M  V30 2330 C 214.309 -3.09268 -4.36185 0
M  V30 2331 C 215.609 -4.48508 -2.67652 0
M  V30 2332 H 217.303 -2.70237 -1.28889 0
M  V30 2333 H 214.849 -1.30036 -0.618605 0
M  V30 2334 H 216.802 -2.10394 -3.65119 0
M  V30 2335 H 215.526 -0.983129 -3.11452 0
M  V30 2336 H 214.185 -2.91837 -2.21872 0
M  V30 2337 H 213.833 -2.11861 -4.56206 0
M  V30 2338 H 213.533 -3.86907 -4.42241 0
M  V30 2339 H 215.057 -3.28348 -5.14801 0
M  V30 2340 H 216.471 -4.65918 -3.34056 0
M  V30 2341 H 214.868 -5.28059 -2.85085 0
M  V30 2342 H 215.938 -4.56649 -1.63095 0
M  V30 2343 N 217.281 0.66697 -1.42791 0
M  V30 2344 C 218.697 0.981027 -1.25889 0
M  V30 2345 C 218.897 2.00793 -0.168695 0
M  V30 2346 O 217.953 2.48321 0.45747 0
M  V30 2347 C 219.266 1.47838 -2.61848 0
M  V30 2348 C 220.814 1.59575 -2.69267 0
M  V30 2349 C 221.289 2.12704 -4.05612 0
M  V30 2350 N 222.78 2.20026 -4.07606 0
M  V30 2351 C 223.515 2.62227 -5.09926 0
M  V30 2352 N 223.011 3.03824 -6.22626 0
M  V30 2353 N 224.804 2.62045 -4.97281 0
M  V30 2354 H 216.955 -0.0127891 -2.12396 0
M  V30 2355 H 219.218 0.0568258 -0.946295 0
M  V30 2356 H 218.924 0.798299 -3.4252 0
M  V30 2357 H 218.798 2.45579 -2.86305 0
M  V30 2358 H 221.185 2.26687 -1.88936 0
M  V30 2359 H 221.266 0.60302 -2.48591 0
M  V30 2360 H 220.91 1.46198 -4.86404 0
M  V30 2361 H 220.84 3.12782 -4.23645 0
M  V30 2362 H 223.331 1.90708 -3.2625 0
M  V30 2363 H 223.644 3.34734 -6.96544 0
M  V30 2364 H 221.989 3.01662 -6.26119 0
M  V30 2365 H 225.18 2.28916 -4.08308 0
M  V30 2366 H 225.353 2.94613 -5.77154 0
M  V30 2367 N 218.759 1.29093 0.90403 0
M  V30 2368 C 219.669 1.15727 2.0407 0
M  V30 2369 C 220.685 0.0815308 1.73809 0
M  V30 2370 O 221.861 0.292749 1.99261 0
M  V30 2371 C 218.926 0.830424 3.36608 0
M  V30 2372 C 217.987 1.98955 3.80415 0
M  V30 2373 C 217.22 1.6782 5.06628 0
M  V30 2374 O 217.443 0.597105 5.67266 0
M  V30 2375 O 216.377 2.52486 5.46383 0
M  V30 2376 H 220.203 2.11171 2.18267 0
M  V30 2377 H 217.788 1.08504 1.027 0
M  V30 2378 H 219.67 0.662521 4.16159 0
M  V30 2379 H 218.345 -0.0942678 3.23563 0
M  V30 2380 H 217.252 2.21267 3.01648 0
M  V30 2381 H 218.585 2.89529 3.98037 0
M  V30 2382 N 220.237 -1.11381 1.11499 0
M  V30 2383 C 221.17 -2.16621 0.71769 0
M  V30 2384 C 222.148 -1.60058 -0.286413 0
M  V30 2385 O 223.332 -1.87613 -0.182689 0
M  V30 2386 C 220.459 -3.38646 0.0607265 0
M  V30 2387 C 219.505 -4.13874 1.03008 0
M  V30 2388 S 220.338 -4.70731 2.55289 0
M  V30 2389 C 221.494 -5.96079 1.90895 0
M  V30 2390 H 221.727 -2.49987 1.60915 0
M  V30 2391 H 219.26 -1.23015 0.933092 0
M  V30 2392 H 221.218 -4.09313 -0.311965 0
M  V30 2393 H 219.879 -3.03537 -0.807702 0
M  V30 2394 H 219.072 -5.01333 0.517853 0
M  V30 2395 H 218.674 -3.4897 1.34522 0
M  V30 2396 H 220.966 -6.65948 1.24577 0
M  V30 2397 H 221.909 -6.51946 2.76354 0
M  V30 2398 H 222.317 -5.47652 1.36885 0
M  V30 2399 N 221.715 -0.905404 -1.28997 0
M  V30 2400 C 222.962 -0.534248 -1.95325 0
M  V30 2401 C 223.29 0.920535 -1.71337 0
M  V30 2402 O 222.545 1.66861 -1.02254 0
M  V30 2403 C 222.844 -0.779906 -3.48787 0
M  V30 2404 C 222.51 -2.21293 -3.92861 0
M  V30 2405 C 221.172 -2.60475 -4.04606 0
M  V30 2406 C 223.524 -3.14587 -4.15553 0
M  V30 2407 C 220.852 -3.9212 -4.36416 0
M  V30 2408 C 223.204 -4.45787 -4.48839 0
M  V30 2409 C 221.868 -4.84834 -4.58794 0
M  V30 2410 H 221.138 -0.195495 -0.714747 0
M  V30 2411 H 223.785 -1.14514 -1.53488 0
M  V30 2412 H 222.09 -0.0861365 -3.91705 0
M  V30 2413 H 223.787 -0.472029 -3.98212 0
M  V30 2414 H 220.377 -1.89887 -3.84241 0
M  V30 2415 H 224.561 -2.85528 -4.0594 0
M  V30 2416 H 219.817 -4.22086 -4.42327 0
M  V30 2417 H 223.991 -5.18098 -4.65346 0
M  V30 2418 H 221.618 -5.86877 -4.83197 0
M  V30 2419 N 223.193 1.4272 -0.668489 0
M  V30 2420 C 224.441 2.01226 -0.187769 0
M  V30 2421 C 224.762 1.53092 1.2078 0
M  V30 2422 O 224.032 0.74993 1.80977 0
M  V30 2423 H 222.612 0.744041 -0.0664272 0
M  V30 2424 H 225.274 1.74723 -0.863583 0
M  V30 2425 H 224.37 3.11556 -0.184166 0
M  V30 2426 N 224.671 0.411399 1.52136 0
M  V30 2427 C 225.601 -0.404015 2.29978 0
M  V30 2428 C 226.582 -1.04412 1.34284 0
M  V30 2429 O 227.767 -1.0527 1.63192 0
M  V30 2430 C 224.897 -1.5197 3.12286 0
M  V30 2431 C 223.851 -1.00448 4.16046 0
M  V30 2432 C 223.177 -2.21393 4.86712 0
M  V30 2433 C 224.477 -0.0569336 5.22269 0
M  V30 2434 H 226.171 0.245529 2.98392 0
M  V30 2435 H 223.717 0.119525 1.43503 0
M  V30 2436 H 225.67 -2.09715 3.6551 0
M  V30 2437 H 224.394 -2.19716 2.41646 0
M  V30 2438 H 223.053 -0.449421 3.63835 0
M  V30 2439 H 222.701 -2.87699 4.12599 0
M  V30 2440 H 222.401 -1.87571 5.56858 0
M  V30 2441 H 223.925 -2.7974 5.4275 0
M  V30 2442 H 225.339 -0.54325 5.7072 0
M  V30 2443 H 223.736 0.192594 5.99791 0
M  V30 2444 H 224.806 0.887663 4.76706 0
M  V30 2445 N 226.149 -1.5696 0.141893 0
M  V30 2446 C 227.379 -2.00031 -0.516828 0
M  V30 2447 C 227.787 -1.02091 -1.59293 0
M  V30 2448 O 227.13 -0.00909657 -1.83698 0
M  V30 2449 C 227.192 -3.39534 -1.1814 0
M  V30 2450 C 226.856 -4.56313 -0.250513 0
M  V30 2451 C 227.853 -5.17295 0.519839 0
M  V30 2452 C 225.538 -5.02061 -0.154907 0
M  V30 2453 C 227.532 -6.2243 1.3733 0
M  V30 2454 C 225.219 -6.07053 0.702161 0
M  V30 2455 C 226.217 -6.67106 1.46487 0
M  V30 2456 O 225.905 -7.70066 2.30767 0
M  V30 2457 H 225.637 -0.661451 -0.139493 0
M  V30 2458 H 228.191 -2.04086 0.231926 0
M  V30 2459 H 226.421 -3.32302 -1.97769 0
M  V30 2460 H 228.11 -3.66745 -1.73933 0
M  V30 2461 H 228.876 -4.82852 0.45598 0
M  V30 2462 H 224.755 -4.5505 -0.7383 0
M  V30 2463 H 228.299 -6.69233 1.96909 0
M  V30 2464 H 224.196 -6.40923 0.76733 0
M  V30 2465 H 224.964 -7.87264 2.23959 0
M  V30 2466 N 227.627 0.131896 -1.57047 0
M  V30 2467 C 228.875 0.840269 -1.83804 0
M  V30 2468 C 229.196 1.81017 -0.72512 0
M  V30 2469 O 228.466 1.94272 0.251995 0
M  V30 2470 H 227.046 0.313294 -0.678127 0
M  V30 2471 H 229.708 0.122294 -1.94516 0
M  V30 2472 H 228.804 1.39335 -2.79271 0
M  V30 2473 N 229.106 1.52395 0.401703 0
M  V30 2474 C 230.038 1.72505 1.50912 0
M  V30 2475 C 231.051 0.605468 1.51122 0
M  V30 2476 O 232.24 0.880828 1.55254 0
M  V30 2477 C 229.34 1.75711 2.89791 0
M  V30 2478 C 228.513 3.04824 3.1369 0
M  V30 2479 C 227.572 2.99743 4.32482 0
M  V30 2480 O 226.598 3.73635 4.29402 0
M  V30 2481 N 227.8 2.18047 5.37992 0
M  V30 2482 H 230.565 2.68049 1.34052 0
M  V30 2483 H 228.126 1.50724 0.591084 0
M  V30 2484 H 230.118 1.69834 3.6734 0
M  V30 2485 H 228.688 0.876092 3.00072 0
M  V30 2486 H 227.908 3.2429 2.24119 0
M  V30 2487 H 229.196 3.90221 3.26504 0
M  V30 2488 H 228.594 1.57456 5.43345 0
M  V30 2489 H 227.151 2.18021 6.14256 0
M  V30 2490 N 230.584 -0.659388 1.43143 0
M  V30 2491 C 231.812 -1.44723 1.47861 0
M  V30 2492 C 232.227 -1.88563 0.0945886 0
M  V30 2493 O 231.584 -1.59108 -0.893915 0
M  V30 2494 C 231.635 -2.68627 2.41913 0
M  V30 2495 O 231.356 -2.26623 3.74932 0
M  V30 2496 C 232.857 -3.62045 2.55809 0
M  V30 2497 H 230.077 -0.444801 0.502387 0
M  V30 2498 H 232.621 -0.808916 1.87821 0
M  V30 2499 H 230.776 -3.28613 2.05164 0
M  V30 2500 H 231.19 -3.06745 4.2545 0
M  V30 2501 H 232.664 -4.45666 3.25708 0
M  V30 2502 H 233.141 -4.08981 1.60099 0
M  V30 2503 H 233.747 -3.07944 2.93344 0
M  V30 2504 N 232.062 -1.29571 -0.897171 0
M  V30 2505 C 233.29 -1.20583 -1.68129 0
M  V30 2506 C 233.705 0.233181 -1.87354 0
M  V30 2507 O 233.062 1.15579 -1.41236 0
M  V30 2508 C 233.113 -1.91772 -3.06441 0
M  V30 2509 O 232.834 -3.30053 -2.88091 0
M  V30 2510 C 234.335 -1.89291 -4.00854 0
M  V30 2511 H 231.555 -0.417826 -0.525036 0
M  V30 2512 H 234.099 -1.70987 -1.12177 0
M  V30 2513 H 232.254 -1.45196 -3.59161 0
M  V30 2514 H 232.668 -3.65942 -3.75748 0
M  V30 2515 H 234.142 -2.43662 -4.95311 0
M  V30 2516 H 234.619 -0.869014 -4.30517 0
M  V30 2517 H 235.225 -2.35622 -3.54066 0
M  V30 2518 N 233.54 1.10788 -1.12088 0
M  V30 2519 C 234.788 1.8231 -0.872205 0
M  V30 2520 C 235.109 1.85419 0.603709 0
M  V30 2521 O 234.379 1.32963 1.43867 0
M  V30 2522 H 232.959 0.675137 -0.319686 0
M  V30 2523 H 235.621 1.34068 -1.41463 0
M  V30 2524 H 234.717 2.85955 -1.25045 0
M  V30 2525 N 235.018 0.912232 1.28515 0
M  V30 2526 C 235.965 0.397954 2.27343 0
M  V30 2527 C 236.935 -0.526766 1.57526 0
M  V30 2528 O 238.12 -0.449292 1.85435 0
M  V30 2529 C 235.26 -0.357263 3.43246 0
M  V30 2530 C 234.373 0.599788 4.27816 0
M  V30 2531 C 233.508 -0.173725 5.30916 0
M  V30 2532 C 232.547 0.777039 6.07148 0
M  V30 2533 N 231.684 0.0371398 7.0209 0
M  V30 2534 H 236.524 1.24577 2.70711 0
M  V30 2535 H 234.061 0.625612 1.33133 0
M  V30 2536 H 236.019 -0.8113 4.09236 0
M  V30 2537 H 234.649 -1.16943 3.00872 0
M  V30 2538 H 233.701 1.17235 3.61884 0
M  V30 2539 H 235.013 1.32704 4.80823 0
M  V30 2540 H 234.167 -0.688394 6.02782 0
M  V30 2541 H 232.906 -0.934041 4.78672 0
M  V30 2542 H 231.911 1.3031 5.34134 0
M  V30 2543 H 233.136 1.53689 6.61481 0
M  V30 2544 H 231.082 -0.705213 6.52198 0
M  V30 2545 H 230.999 0.704249 7.52713 0
M  V30 2546 H 232.267 -0.457383 7.78157 0
M  V30 2547 N 236.496 -1.42363 0.676048 0
M  V30 2548 C 237.744 -2.01123 0.198437 0
M  V30 2549 C 238.065 -1.53731 -1.19966 0
M  V30 2550 O 237.335 -0.759518 -1.80577 0
M  V30 2551 H 235.915 -0.743678 0.0703721 0
M  V30 2552 H 238.577 -1.74263 0.872837 0
M  V30 2553 H 237.673 -3.11454 0.200686 0
M  V30 2554 N 237.974 -0.419461 -1.51915 0
M  V30 2555 C 239.199 0.154572 -2.06823 0
M  V30 2556 C 239.624 1.3722 -1.28656 0
M  V30 2557 O 238.982 1.78461 -0.319583 0
M  V30 2558 C 239.03 0.473172 -3.57482 0
M  V30 2559 O 238.134 1.56255 -3.81652 0
M  V30 2560 H 237.475 0.0096924 -0.663929 0
M  V30 2561 H 240.005 -0.595642 -1.95738 0
M  V30 2562 H 240.015 0.728825 -4.01438 0
M  V30 2563 H 238.69 -0.416873 -4.13805 0
M  V30 2564 H 237.267 1.29825 -3.49571 0
M  V30 2565 N 239.452 1.56882 -0.150215 0
M  V30 2566 C 240.701 1.95403 0.500071 0
M  V30 2567 C 241.014 1.03777 1.658 0
M  V30 2568 O 242.22 1.31889 2.37313 0
M  V30 2569 C 240.676 3.4738 0.941018 0
M  V30 2570 C 240.284 4.47596 -0.190158 0
M  V30 2571 C 242.028 3.9476 1.56091 0
M  V30 2572 C 239.935 5.90787 0.269237 0
M  V30 2573 H 238.865 0.729515 0.190588 0
M  V30 2574 H 241.516 1.81988 -0.235074 0
M  V30 2575 H 239.898 3.56138 1.73152 0
M  V30 2576 H 241.072 4.50536 -0.967157 0
M  V30 2577 H 239.387 4.10151 -0.718666 0
M  V30 2578 H 241.984 4.99181 1.9163 0
M  V30 2579 H 242.327 3.36494 2.45107 0
M  V30 2580 H 242.86 3.88932 0.835249 0
M  V30 2581 H 239.599 6.52879 -0.585621 0
M  V30 2582 H 239.119 5.912 1.01204 0
M  V30 2583 H 240.798 6.42979 0.720176 0
M  V30 2584 N 240.93 -0.123565 1.57115 0
M  V30 2585 C 242.155 -0.850398 1.89164 0
M  V30 2586 C 242.58 -1.7286 0.741688 0
M  V30 2587 O 241.938 -1.78665 -0.307958 0
M  V30 2588 C 241.986 -1.66353 3.19936 0
M  V30 2589 O 241.09 -2.77004 3.0552 0
M  V30 2590 H 240.431 -0.235454 0.620852 0
M  V30 2591 H 242.961 -0.107335 2.04318 0
M  V30 2592 H 242.971 -2.05372 3.52543 0
M  V30 2593 H 241.646 -1.01881 4.03228 0
M  V30 2594 H 240.223 -2.41221 2.84371 0
M  V30 2595 N 242.408 -1.52605 -0.393616 0
M  V30 2596 C 243.338 -1.80022 -1.48709 0
M  V30 2597 C 244.319 -0.651995 -1.57108 0
M  V30 2598 O 245.504 -0.89913 -1.72132 0
M  V30 2599 C 242.634 -1.96492 -2.86371 0
M  V30 2600 C 241.588 -3.12161 -2.92813 0
M  V30 2601 C 240.914 -3.13877 -4.3288 0
M  V30 2602 C 242.214 -4.51322 -2.6288 0
M  V30 2603 H 243.908 -2.71589 -1.26015 0
M  V30 2604 H 241.454 -1.30684 -0.604778 0
M  V30 2605 H 243.407 -2.14255 -3.62867 0
M  V30 2606 H 242.131 -1.01611 -3.10391 0
M  V30 2607 H 240.79 -2.94173 -2.18764 0
M  V30 2608 H 240.438 -2.16687 -4.53933 0
M  V30 2609 H 240.138 -3.91576 -4.38112 0
M  V30 2610 H 241.662 -3.33789 -5.1129 0
M  V30 2611 H 243.076 -4.69435 -3.29096 0
M  V30 2612 H 241.473 -5.31053 -2.79468 0
M  V30 2613 H 242.543 -4.58353 -1.58242 0
M  V30 2614 N 243.887 0.651787 -1.4349 0
M  V30 2615 C 244.834 1.76462 -1.4876 0
M  V30 2616 C 245.804 1.62641 -0.337189 0
M  V30 2617 O 246.989 1.82864 -0.544544 0
M  V30 2618 C 244.129 3.14623 -1.41796 0
M  V30 2619 C 243.242 3.39568 -2.67053 0
M  V30 2620 C 242.377 4.67585 -2.52068 0
M  V30 2621 C 241.416 4.85639 -3.72587 0
M  V30 2622 N 240.553 6.04915 -3.56402 0
M  V30 2623 H 245.393 1.71293 -2.43849 0
M  V30 2624 H 242.93 0.835889 -1.21043 0
M  V30 2625 H 244.888 3.94496 -1.35753 0
M  V30 2626 H 243.518 3.18859 -0.50288 0
M  V30 2627 H 242.57 2.53783 -2.8337 0
M  V30 2628 H 243.882 3.48795 -3.56572 0
M  V30 2629 H 243.036 5.55586 -2.4374 0
M  V30 2630 H 241.775 4.60681 -1.60075 0
M  V30 2631 H 240.78 3.96073 -3.81321 0
M  V30 2632 H 242.005 4.94372 -4.65589 0
M  V30 2633 H 239.951 5.9914 -2.67146 0
M  V30 2634 H 239.868 6.15106 -4.39524 0
M  V30 2635 H 241.136 6.95533 -3.51929 0
M  V30 2636 N 245.365 1.30045 0.890287 0
M  V30 2637 C 246.275 1.17885 2.02831 0
M  V30 2638 C 247.291 0.0999609 1.73713 0
M  V30 2639 O 248.467 0.313867 1.98939 0
M  V30 2640 C 245.532 0.866079 3.35708 0
M  V30 2641 C 244.593 2.02979 3.78283 0
M  V30 2642 C 243.826 1.73184 5.0482 0
M  V30 2643 O 244.049 0.657237 5.66601 0
M  V30 2644 O 242.983 2.58267 5.43674 0
M  V30 2645 H 246.809 2.13474 2.16015 0
M  V30 2646 H 244.394 1.09587 1.01543 0
M  V30 2647 H 246.276 0.706623 4.15433 0
M  V30 2648 H 244.951 -0.0599443 3.23644 0
M  V30 2649 H 243.858 2.24454 2.99285 0
M  V30 2650 H 245.191 2.93734 3.94944 0
M  V30 2651 N 246.843 -1.10192 1.12674 0
M  V30 2652 C 247.773 -2.18652 0.819362 0
M  V30 2653 C 248.754 -1.68698 -0.217915 0
M  V30 2654 O 249.939 -1.94041 -0.0785581 0
M  V30 2655 C 247.069 -3.46202 0.27594 0
M  V30 2656 C 246.023 -4.09444 1.24656 0
M  V30 2657 C 245.349 -5.31725 0.563258 0
M  V30 2658 C 246.649 -4.52863 2.60217 0
M  V30 2659 H 248.343 -2.44622 1.72628 0
M  V30 2660 H 245.889 -1.17571 0.831451 0
M  V30 2661 H 247.842 -4.21372 0.0486149 0
M  V30 2662 H 246.566 -3.1973 -0.666331 0
M  V30 2663 H 245.225 -3.36284 1.45974 0
M  V30 2664 H 244.873 -5.0153 -0.384235 0
M  V30 2665 H 244.573 -5.74991 1.21075 0
M  V30 2666 H 246.097 -6.09624 0.34503 0
M  V30 2667 H 247.511 -5.19294 2.42913 0
M  V30 2668 H 245.908 -5.06986 3.21068 0
M  V30 2669 H 246.978 -3.65656 3.18471 0
M  V30 2670 N 248.321 -0.919034 -1.28029 0
M  V30 2671 C 249.269 -0.401753 -2.29104 0
M  V30 2672 C 250.263 0.509354 -1.61561 0
M  V30 2673 O 251.469 0.390014 -1.75724 0
M  V30 2674 H 247.844 -0.111331 -0.743713 0
M  V30 2675 H 249.815 -1.2672 -2.70156 0
M  V30 2676 C 248.564 0.338148 -3.46052 0
M  V30 2677 H 247.887 -0.353732 -3.98232 0
M  V30 2678 H 249.327 0.664653 -4.18758 0
M  V30 2679 C 247.786 1.54798 -2.99231 0
M  V30 2680 O 248.316 2.64696 -3.02157 0
M  V30 2681 N 246.522 1.3968 -2.54829 0
M  V30 2682 H 246.069 0.502698 -2.52647 0
M  V30 2683 H 246.027 2.20755 -2.23863 0
M  V30 2684 N 249.799 1.42003 -0.683588 0
M  V30 2685 C 250.762 2.29191 -0.0198243 0
M  V30 2686 C 251.762 1.43773 0.72013 0
M  V30 2687 O 252.952 1.65061 0.556815 0
M  V30 2688 C 250.084 3.26435 0.982487 0
M  V30 2689 H 251.277 2.8938 -0.787345 0
M  V30 2690 H 248.83 1.49789 -0.446418 0
M  V30 2691 H 249.565 2.71203 1.77819 0
M  V30 2692 H 249.35 3.89449 0.455182 0
M  V30 2693 H 250.84 3.918 1.44508 0
M  V30 2694 N 251.277 0.427512 1.51691 0
M  V30 2695 C 252.693 0.0792977 1.59403 0
M  V30 2696 C 252.893 -1.41035 1.43914 0
M  V30 2697 O 251.949 -2.17922 1.27539 0
M  V30 2698 C 253.262 0.590636 2.94842 0
M  V30 2699 C 254.81 0.550215 3.08126 0
M  V30 2700 C 255.285 1.03836 4.46074 0
M  V30 2701 N 256.776 0.995943 4.52366 0
M  V30 2702 C 257.511 1.34463 5.57411 0
M  V30 2703 N 257.007 1.76569 6.69922 0
M  V30 2704 N 258.8 1.26343 5.47717 0
M  V30 2705 H 250.951 1.39687 1.60004 0
M  V30 2706 H 253.214 0.575003 0.753708 0
M  V30 2707 H 252.92 1.63251 3.11516 0
M  V30 2708 H 252.794 0.0102061 3.77199 0
M  V30 2709 H 255.181 -0.482654 2.91126 0
M  V30 2710 H 255.262 1.16693 2.27632 0
M  V30 2711 H 254.906 2.06965 4.63819 0
M  V30 2712 H 254.836 0.398286 5.25092 0
M  V30 2713 H 257.327 0.68661 3.7161 0
M  V30 2714 H 257.64 2.01438 7.46085 0
M  V30 2715 H 255.985 1.80488 6.71155 0
M  V30 2716 H 259.176 0.933209 4.58703 0
M  V30 2717 H 259.349 1.53846 6.29472 0
M  V30 2718 N 252.755 -1.56801 0.158532 0
M  V30 2719 C 254.166 -1.83189 -0.360366 0
M  V30 2720 C 254.517 -1.07778 -1.63946 0
M  V30 2721 O 253.642 -0.326718 -2.13919 0
M  V30 2722 C 254.237 -3.32297 -0.660595 0
M  V30 2723 C 252.796 -3.59227 -1.12398 0
M  V30 2724 C 251.943 -2.76877 -0.153097 0
M  V30 2725 H 254.894 -1.54008 0.383031 0
M  V30 2726 H 254.915 -3.4908 -1.51405 0
M  V30 2727 H 254.427 -3.87156 0.270527 0
M  V30 2728 H 252.528 -3.09766 -2.07064 0
M  V30 2729 H 252.641 -4.67632 -1.04197 0
M  V30 2730 H 251.005 -2.46319 -0.647983 0
M  V30 2731 H 251.788 -3.34511 0.77182 0
M  V30 2732 N 254.233 0.115231 -1.57178 0
M  V30 2733 C 255.163 1.1423 -2.03651 0
M  V30 2734 C 256.144 1.42967 -0.921655 0
M  V30 2735 O 257.329 1.53343 -1.19162 0
M  V30 2736 C 254.459 2.4675 -2.44401 0
M  V30 2737 C 253.413 2.32467 -3.59365 0
M  V30 2738 C 252.739 3.69984 -3.86026 0
M  V30 2739 C 254.039 1.78203 -4.90959 0
M  V30 2740 H 255.733 0.755749 -2.89705 0
M  V30 2741 H 253.279 0.362093 -1.39373 0
M  V30 2742 H 255.232 3.18854 -2.75517 0
M  V30 2743 H 253.956 2.87302 -1.55322 0
M  V30 2744 H 252.615 1.62811 -3.28463 0
M  V30 2745 H 252.263 4.08028 -2.94147 0
M  V30 2746 H 251.963 3.61279 -4.63412 0
M  V30 2747 H 253.487 4.43587 -4.19599 0
M  V30 2748 H 254.901 2.40128 -5.20587 0
M  V30 2749 H 253.298 1.8031 -5.72371 0
M  V30 2750 H 254.368 0.739876 -4.79222 0
M  V30 2751 N 255.711 1.52812 0.385517 0
M  V30 2752 C 256.621 1.80766 1.49535 0
M  V30 2753 C 257.637 0.694651 1.59532 0
M  V30 2754 O 258.813 0.982611 1.75803 0
M  V30 2755 C 255.878 1.97381 2.85029 0
M  V30 2756 C 254.939 3.21295 2.84724 0
M  V30 2757 C 254.172 3.37108 4.13756 0
M  V30 2758 O 254.395 2.5765 5.08893 0
M  V30 2759 O 253.329 4.30378 4.20783 0
M  V30 2760 H 257.155 2.75015 1.28842 0
M  V30 2761 H 254.74 1.37946 0.573697 0
M  V30 2762 H 256.622 2.09996 3.65349 0
M  V30 2763 H 255.297 1.06322 3.05741 0
M  V30 2764 H 254.204 3.1412 2.03174 0
M  V30 2765 H 255.537 4.12212 2.68965 0
M  V30 2766 N 257.189 -0.644168 1.43834 0
M  V30 2767 C 258.435 -1.40603 1.46146 0
M  V30 2768 C 258.768 -1.93997 0.0887717 0
M  V30 2769 O 258.043 -1.72854 -0.891724 0
M  V30 2770 C 258.326 -2.58086 2.51124 0
M  V30 2771 C 258.179 -2.10126 3.97702 0
M  V30 2772 C 259.498 -3.60291 2.52742 0
M  V30 2773 H 256.617 -0.509905 0.532134 0
M  V30 2774 H 259.259 -0.729502 1.75437 0
M  V30 2775 H 257.409 -3.15801 2.26278 0
M  V30 2776 H 259.081 -1.57342 4.33637 0
M  V30 2777 H 257.324 -1.41419 4.10101 0
M  V30 2778 H 257.995 -2.94649 4.66783 0
M  V30 2779 H 260.471 -3.12352 2.7491 0
M  V30 2780 H 259.347 -4.40032 3.28121 0
M  V30 2781 H 259.608 -4.1349 1.56455 0
M  V30 2782 N 258.668 -1.30515 -0.883378 0
M  V30 2783 C 259.915 -1.1943 -1.63532 0
M  V30 2784 C 260.243 0.250627 -1.92878 0
M  V30 2785 O 259.498 1.19556 -1.54935 0
M  V30 2786 C 259.797 -1.96994 -2.98209 0
M  V30 2787 C 259.463 -3.466 -2.88408 0
M  V30 2788 C 258.125 -3.87397 -2.85442 0
M  V30 2789 C 260.477 -4.41863 -2.76418 0
M  V30 2790 C 257.805 -5.21745 -2.68327 0
M  V30 2791 C 260.157 -5.7632 -2.60841 0
M  V30 2792 C 258.821 -6.16354 -2.56251 0
M  V30 2793 H 258.091 -0.437025 -0.598406 0
M  V30 2794 H 260.738 -1.61635 -1.02696 0
M  V30 2795 H 259.043 -1.47429 -3.63004 0
M  V30 2796 H 260.74 -1.85808 -3.55354 0
M  V30 2797 H 257.33 -3.14182 -2.91527 0
M  V30 2798 H 261.514 -4.11285 -2.77775 0
M  V30 2799 H 256.77 -5.51853 -2.63189 0
M  V30 2800 H 260.944 -6.49772 -2.50538 0
M  V30 2801 H 258.571 -7.20401 -2.42748 0
M  V30 2802 N 260.146 1.09593 -1.13257 0
M  V30 2803 C 261.079 2.15451 -0.752061 0
M  V30 2804 C 262.057 1.60493 0.260913 0
M  V30 2805 O 263.241 1.8788 0.152819 0
M  V30 2806 C 260.368 3.38506 -0.114594 0
M  V30 2807 C 259.414 4.12183 -1.09579 0
M  V30 2808 S 260.247 4.6661 -2.62745 0
M  V30 2809 C 261.403 5.92966 -2.00354 0
M  V30 2810 H 261.636 2.47395 -1.64872 0
M  V30 2811 H 259.169 1.21515 -0.952545 0
M  V30 2812 H 261.127 4.09757 0.246808 0
M  V30 2813 H 259.788 3.04784 0.759309 0
M  V30 2814 H 258.981 5.00445 -0.597545 0
M  V30 2815 H 258.583 3.46785 -1.40057 0
M  V30 2816 H 260.875 6.63882 -1.35156 0
M  V30 2817 H 261.818 6.47467 -2.86691 0
M  V30 2818 H 262.226 5.45405 -1.4558 0
M  V30 2819 N 261.624 0.925811 1.2754 0
M  V30 2820 C 262.864 0.572521 1.96218 0
M  V30 2821 C 263.228 -0.869719 1.71172 0
M  V30 2822 O 264.429 -1.33119 2.33523 0
M  V30 2823 C 262.7 0.887325 3.4621 0
M  V30 2824 S 264.259 0.642266 4.34074 0
M  V30 2825 H 261.077 0.211403 0.678845 0
M  V30 2826 H 263.679 1.19384 1.54815 0
M  V30 2827 H 262.383 1.93469 3.61936 0
M  V30 2828 H 261.914 0.255123 3.92572 0
M  V30 2829 H 263.929 -0.500822 4.93666 0
M  V30 2830 N 263.102 -1.41638 0.69111 0
M  V30 2831 C 264.327 -2.06148 0.227583 0
M  V30 2832 C 264.752 -1.51652 -1.11281 0
M  V30 2833 O 264.11 -0.64164 -1.69566 0
M  V30 2834 C 264.158 -3.60095 0.190858 0
M  V30 2835 O 263.262 -4.03845 -0.835664 0
M  V30 2836 H 262.603 -0.654434 0.112306 0
M  V30 2837 H 265.133 -1.81484 0.944714 0
M  V30 2838 H 265.143 -4.07995 0.020207 0
M  V30 2839 H 263.818 -3.99129 1.16915 0
M  V30 2840 H 262.395 -3.67458 -0.63473 0
M  V30 2841 N 264.58 -0.43555 -1.51462 0
M  V30 2842 C 265.826 0.131709 -2.02372 0
M  V30 2843 C 266.159 1.42516 -1.3192 0
M  V30 2844 O 265.434 1.89606 -0.433573 0
M  V30 2845 C 265.717 0.352301 -3.58373 0
M  V30 2846 C 265.57 -0.959676 -4.39443 0
M  V30 2847 C 266.889 1.12286 -4.25535 0
M  V30 2848 H 264.008 0.0463936 -0.735538 0
M  V30 2849 H 266.65 -0.574197 -1.81116 0
M  V30 2850 H 264.8 0.9536 -3.76615 0
M  V30 2851 H 266.472 -1.59482 -4.32855 0
M  V30 2852 H 264.715 -1.56468 -4.04599 0
M  V30 2853 H 265.386 -0.759394 -5.46752 0
M  V30 2854 H 267.862 0.613545 -4.11552 0
M  V30 2855 H 266.738 1.24598 -5.34571 0
M  V30 2856 H 266.999 2.15048 -3.86273 0
M  V30 2857 N 266.058 1.56714 -0.166846 0
M  V30 2858 C 266.988 2.20754 0.760913 0
M  V30 2859 C 267.969 1.16178 1.24244 0
M  V30 2860 O 269.154 1.44592 1.29641 0
M  V30 2861 C 266.284 2.84478 1.99223 0
M  V30 2862 C 265.238 3.95053 1.64672 0
M  V30 2863 C 264.564 4.45805 2.95232 0
M  V30 2864 C 265.864 5.14865 0.878155 0
M  V30 2865 H 267.558 2.98537 0.22713 0
M  V30 2866 H 265.104 1.43596 0.107805 0
M  V30 2867 H 267.057 3.27951 2.64624 0
M  V30 2868 H 265.781 2.04056 2.55007 0
M  V30 2869 H 264.44 3.52228 1.01641 0
M  V30 2870 H 264.088 3.62181 3.49047 0
M  V30 2871 H 263.788 5.204 2.7287 0
M  V30 2872 H 265.312 4.91962 3.6167 0
M  V30 2873 H 266.726 5.55059 1.43466 0
M  V30 2874 H 265.123 5.95348 0.753738 0
M  V30 2875 H 266.193 4.84735 -0.126377 0
M  V30 2876 N 267.536 -0.106894 1.57237 0
M  V30 2877 C 268.483 -1.13049 2.01217 0
M  V30 2878 C 269.453 -1.40471 0.886403 0
M  V30 2879 O 270.638 -1.52133 1.15153 0
M  V30 2880 C 267.778 -2.4487 2.43172 0
M  V30 2881 C 266.891 -2.24281 3.69218 0
M  V30 2882 C 266.026 -3.49417 4.00101 0
M  V30 2883 C 265.065 -3.24038 5.19294 0
M  V30 2884 N 264.202 -4.41409 5.45988 0
M  V30 2885 H 269.042 -0.748456 2.88448 0
M  V30 2886 H 266.579 -0.358054 1.42676 0
M  V30 2887 H 268.537 -3.21786 2.65537 0
M  V30 2888 H 267.167 -2.80944 1.58967 0
M  V30 2889 H 266.219 -1.38224 3.54398 0
M  V30 2890 H 267.531 -2.01512 4.56283 0
M  V30 2891 H 266.685 -4.34746 4.2318 0
M  V30 2892 H 265.424 -3.75229 3.11535 0
M  V30 2893 H 264.429 -2.37102 4.96047 0
M  V30 2894 H 265.654 -2.99584 6.09447 0
M  V30 2895 H 263.6 -4.67319 4.60379 0
M  V30 2896 H 263.517 -4.21788 6.274 0
M  V30 2897 H 264.785 -5.27836 5.73593 0
M  V30 2898 N 269.014 -1.53014 -0.377408 0
M  V30 2899 C 270.43 -1.42523 -0.718281 0
M  V30 2900 C 270.63 -0.55487 -1.9371 0
M  V30 2901 O 269.686 -0.0327593 -2.52479 0
M  V30 2902 C 270.999 -2.85546 -0.942539 0
M  V30 2903 C 272.547 -2.95101 -1.04329 0
M  V30 2904 C 273.022 -4.3916 -1.3001 0
M  V30 2905 N 274.513 -4.42536 -1.36806 0
M  V30 2906 C 275.248 -5.51097 -1.58364 0
M  V30 2907 N 274.744 -6.69724 -1.77317 0
M  V30 2908 N 276.537 -5.38657 -1.60638 0
M  V30 2909 H 268.688 -2.08116 0.424426 0
M  V30 2910 H 270.951 -0.939352 0.127759 0
M  V30 2911 H 270.657 -3.51499 -0.118929 0
M  V30 2912 H 270.531 -3.28493 -1.85397 0
M  V30 2913 H 272.918 -2.29309 -1.85745 0
M  V30 2914 H 272.999 -2.55566 -0.109505 0
M  V30 2915 H 272.643 -5.05521 -0.490991 0
M  V30 2916 H 272.573 -4.76258 -2.24691 0
M  V30 2917 H 275.064 -3.57039 -1.23821 0
M  V30 2918 H 275.377 -7.48233 -1.93306 0
M  V30 2919 H 273.722 -6.72732 -1.74518 0
M  V30 2920 H 276.913 -4.44948 -1.45391 0
M  V30 2921 H 277.086 -6.2333 -1.77098 0
M  V30 2922 N 270.492 0.636531 -1.44174 0
M  V30 2923 C 271.424 1.7618 -1.46606 0
M  V30 2924 C 272.437 1.58768 -0.360091 0
M  V30 2925 O 273.626 1.67181 -0.625518 0
M  V30 2926 C 270.726 3.13833 -1.27915 0
M  V30 2927 C 269.899 3.57753 -2.51658 0
M  V30 2928 C 268.958 4.74265 -2.27945 0
M  V30 2929 O 267.984 4.82852 -3.01401 0
M  V30 2930 N 269.186 5.65604 -1.30662 0
M  V30 2931 H 271.951 1.74567 -2.43612 0
M  V30 2932 H 269.512 0.820924 -1.39544 0
M  V30 2933 H 271.504 3.8949 -1.09907 0
M  V30 2934 H 270.074 3.10121 -0.39293 0
M  V30 2935 H 269.294 2.72362 -2.84978 0
M  V30 2936 H 270.582 3.83847 -3.33974 0
M  V30 2937 H 269.98 5.61354 -0.699844 0
M  V30 2938 H 268.537 6.40913 -1.18634 0
M  V30 2939 N 271.97 1.30982 0.876444 0
M  V30 2940 C 273.218 1.20058 1.62575 0
M  V30 2941 C 273.539 -0.242947 1.93481 0
M  V30 2942 O 272.809 -1.1619 1.57724 0
M  V30 2943 H 271.389 0.44135 0.602677 0
M  V30 2944 H 274.051 1.64222 1.04962 0
M  V30 2945 H 273.147 1.76762 2.57219 0
M  V30 2946 N 273.449 -1.08991 1.13837 0
M  V30 2947 C 274.679 -1.84743 0.924859 0
M  V30 2948 C 275.087 -1.81629 -0.529874 0
M  V30 2949 O 274.43 -1.21397 -1.37872 0
M  V30 2950 C 274.492 -3.33568 1.34061 0
M  V30 2951 C 274.156 -3.60425 2.80968 0
M  V30 2952 C 275.153 -3.55771 3.79108 0
M  V30 2953 C 272.838 -3.88627 3.18236 0
M  V30 2954 C 274.832 -3.78939 5.12527 0
M  V30 2955 C 272.519 -4.11449 4.51833 0
M  V30 2956 C 273.517 -4.06598 5.48787 0
M  V30 2957 O 273.205 -4.28826 6.79973 0
M  V30 2958 H 272.937 -0.590258 0.329502 0
M  V30 2959 H 275.491 -1.38598 1.51591 0
M  V30 2960 H 273.721 -3.80442 0.692853 0
M  V30 2961 H 275.41 -3.90743 1.09886 0
M  V30 2962 H 276.176 -3.34005 3.51661 0
M  V30 2963 H 272.055 -3.91526 2.43369 0
M  V30 2964 H 275.599 -3.75068 5.88192 0
M  V30 2965 H 271.496 -4.32698 4.79002 0
M  V30 2966 H 272.264 -4.46264 6.86142 0
M  V30 2967 N 274.927 -0.932562 -1.27047 0
M  V30 2968 C 276.175 -0.574422 -1.93765 0
M  V30 2969 C 276.496 0.887993 -1.73608 0
M  V30 2970 O 275.766 1.62999 -1.08665 0
M  V30 2971 H 274.346 -0.209451 -0.717035 0
M  V30 2972 H 277.008 -1.18601 -1.5466 0
M  V30 2973 H 276.104 -0.784841 -3.02071 0
M  V30 2974 N 276.405 1.4127 -0.698611 0
M  V30 2975 C 277.315 2.34573 -0.0357891 0
M  V30 2976 C 278.331 1.56393 0.762701 0
M  V30 2977 O 279.507 1.8886 0.699564 0
M  V30 2978 C 276.572 3.35159 0.887089 0
M  V30 2979 C 275.633 4.29225 0.0804634 0
M  V30 2980 C 274.866 5.25006 0.959387 0
M  V30 2981 O 275.089 5.26314 2.19886 0
M  V30 2982 O 274.023 6.00519 0.407439 0
M  V30 2983 H 277.849 2.92838 -0.804957 0
M  V30 2984 H 275.434 1.42175 -0.458966 0
M  V30 2985 H 277.316 3.9689 1.41621 0
M  V30 2986 H 275.991 2.79333 1.6357 0
M  V30 2987 H 274.898 3.70833 -0.493328 0
M  V30 2988 H 276.231 4.88157 -0.629547 0
M  V30 2989 N 277.883 0.443576 1.51229 0
M  V30 2990 C 279.131 -0.120557 2.0174 0
M  V30 2991 C 279.452 -1.42665 1.32935 0
M  V30 2992 O 278.722 -1.9028 0.465866 0
M  V30 2993 H 277.302 -0.0475426 0.745486 0
M  V30 2994 H 279.964 0.587711 1.85828 0
M  V30 2995 H 279.06 -0.291972 3.10731 0
M  V30 2996 N 279.361 -1.56624 0.175154 0
M  V30 2997 C 280.608 -1.96999 -0.468811 0
M  V30 2998 C 280.936 -1.06129 -1.62994 0
M  V30 2999 O 280.191 -0.0961771 -1.95464 0
M  V30 3000 C 280.49 -3.43419 -0.989864 0
M  V30 3001 C 280.156 -4.50866 0.0557687 0
M  V30 3002 C 278.818 -4.79975 0.343134 0
M  V30 3003 C 281.17 -5.15551 0.765308 0
M  V30 3004 C 278.498 -5.71066 1.34536 0
M  V30 3005 C 280.85 -6.07724 1.75654 0
M  V30 3006 C 279.514 -6.35199 2.05132 0
M  V30 3007 H 278.784 -0.720869 -0.17155 0
M  V30 3008 H 281.431 -1.89616 0.267924 0
M  V30 3009 H 279.736 -3.47772 -1.80449 0
M  V30 3010 H 281.433 -3.72002 -1.49719 0
M  V30 3011 H 278.023 -4.28229 -0.178381 0
M  V30 3012 H 282.207 -4.9317 0.556513 0
M  V30 3013 H 277.463 -5.90635 1.57988 0
M  V30 3014 H 281.637 -6.56912 2.31169 0
M  V30 3015 H 279.264 -7.05584 2.8294 0
M  V30 3016 N 280.839 0.0985539 -1.57292 0
M  V30 3017 C 282.255 0.45267 -1.53046 0
M  V30 3018 C 282.455 1.80713 -0.891342 0
M  V30 3019 O 281.511 2.4785 -0.482375 0
M  V30 3020 C 282.824 0.418341 -2.97776 0
M  V30 3021 C 284.372 0.500443 -3.08973 0
M  V30 3022 C 284.847 0.496297 -4.55303 0
M  V30 3023 N 286.338 0.557151 -4.59837 0
M  V30 3024 C 287.073 0.575726 -5.70502 0
M  V30 3025 N 286.569 0.550714 -6.90608 0
M  V30 3026 N 288.362 0.620277 -5.58667 0
M  V30 3027 H 280.513 -0.788673 -1.97215 0
M  V30 3028 H 282.776 -0.293188 -0.901524 0
M  V30 3029 H 282.482 -0.509659 -3.47988 0
M  V30 3030 H 282.356 1.2386 -3.56284 0
M  V30 3031 H 284.743 1.41886 -2.58751 0
M  V30 3032 H 284.824 -0.347894 -2.53423 0
M  V30 3033 H 284.468 -0.418162 -5.06176 0
M  V30 3034 H 284.398 1.3618 -5.08687 0
M  V30 3035 H 286.889 0.581816 -3.73394 0
M  V30 3036 H 287.202 0.568075 -7.70709 0
M  V30 3037 H 285.547 0.517816 -6.93068 0
M  V30 3038 H 288.738 0.637322 -4.63741 0
M  V30 3039 H 288.911 0.631283 -6.44918 0
M  V30 3040 N 282.317 1.53212 0.369288 0
M  V30 3041 C 283.563 1.70413 1.11046 0
M  V30 3042 C 283.918 0.448509 1.87099 0
M  V30 3043 O 283.211 -0.558382 1.83283 0
M  V30 3044 C 283.405 2.89101 2.10132 0
M  V30 3045 C 283.234 4.26084 1.43814 0
M  V30 3046 C 282.004 4.90994 1.19384 0
M  V30 3047 C 284.202 5.06754 0.877802 0
M  V30 3048 N 282.184 6.11911 0.49377 0
M  V30 3049 C 283.555 6.1924 0.306891 0
M  V30 3050 C 285.61 4.91814 0.776129 0
M  V30 3051 C 284.313 7.1842 -0.355774 0
M  V30 3052 C 286.339 5.91263 0.127252 0
M  V30 3053 C 285.701 7.03069 -0.432801 0
M  V30 3054 H 281.8 0.676872 0.391623 0
M  V30 3055 H 284.384 1.90603 0.397334 0
M  V30 3056 H 282.555 2.70456 2.78761 0
M  V30 3057 H 284.287 2.95142 2.76899 0
M  V30 3058 H 281.042 4.50074 1.47413 0
M  V30 3059 H 281.466 6.76813 0.159207 0
M  V30 3060 H 286.108 4.05564 1.19489 0
M  V30 3061 H 283.826 8.04264 -0.786499 0
M  V30 3062 H 287.412 5.81779 0.0495613 0
M  V30 3063 H 286.292 7.78702 -0.926958 0
M  V30 3064 N 283.795 -0.628877 1.44509 0
M  V30 3065 C 284.728 -1.75367 1.46019 0
M  V30 3066 C 285.706 -1.59444 0.318787 0
M  V30 3067 O 286.89 -1.81297 0.516099 0
M  V30 3068 C 284.017 -3.12965 1.29501 0
M  V30 3069 C 283.063 -3.47532 2.47233 0
M  V30 3070 S 283.896 -3.44758 4.09758 0
M  V30 3071 C 285.052 -4.84973 3.95667 0
M  V30 3072 H 285.285 -1.7382 2.41193 0
M  V30 3073 H 282.818 -0.803686 1.31834 0
M  V30 3074 H 284.776 -3.92367 1.20658 0
M  V30 3075 H 283.437 -3.12049 0.358341 0
M  V30 3076 H 282.63 -4.47664 2.31544 0
M  V30 3077 H 282.232 -2.75598 2.52828 0
M  V30 3078 H 284.524 -5.74255 3.59496 0
M  V30 3079 H 285.467 -5.05716 4.95638 0
M  V30 3080 H 285.875 -4.59653 3.27688 0
M  V30 3081 N 285.273 -1.31445 -0.869486 0
M  V30 3082 C 286.236 -1.19094 -1.9583 0
M  V30 3083 C 287.236 -0.117906 -1.60367 0
M  V30 3084 O 288.426 -0.367208 -1.70286 0
M  V30 3085 C 285.558 -0.828165 -3.30688 0
M  V30 3086 H 286.751 -2.15842 -2.08212 0
M  V30 3087 H 284.304 -1.15063 -1.05784 0
M  V30 3088 H 285.039 0.138142 -3.24006 0
M  V30 3089 H 284.824 -1.6038 -3.578 0
M  V30 3090 H 286.314 -0.765658 -4.10521 0
M  V30 3091 N 286.751 1.08385 -1.14413 0
M  V30 3092 C 287.683 2.1519 -0.789036 0
M  V30 3093 C 288.696 1.61638 0.19417 0
M  V30 3094 O 289.885 1.78479 -0.0275711 0
M  V30 3095 C 286.985 3.38565 -0.15058 0
M  V30 3096 C 286.158 4.21501 -1.16857 0
M  V30 3097 C 285.217 5.23277 -0.553832 0
M  V30 3098 O 284.243 5.56041 -1.21686 0
M  V30 3099 N 285.445 5.76629 0.669296 0
M  V30 3100 H 288.21 2.46257 -1.70814 0
M  V30 3101 H 285.771 1.24198 -1.03858 0
M  V30 3102 H 287.763 4.03777 0.273181 0
M  V30 3103 H 286.333 3.05299 0.671667 0
M  V30 3104 H 285.553 3.52265 -1.76926 0
M  V30 3105 H 286.841 4.73731 -1.85624 0
M  V30 3106 H 286.239 5.52243 1.22654 0
M  V30 3107 H 284.796 6.43521 1.03556 0
M  V30 3108 N 288.23 0.939286 1.26551 0
M  V30 3109 C 289.46 0.601663 1.97645 0
M  V30 3110 C 289.868 -0.827206 1.70159 0
M  V30 3111 O 289.211 -1.56291 0.965338 0
M  V30 3112 C 289.273 0.761725 3.51337 0
M  V30 3113 C 288.937 2.16487 4.0247 0
M  V30 3114 C 289.934 3.14016 4.14355 0
M  V30 3115 C 287.619 2.48494 4.36527 0
M  V30 3116 C 289.613 4.41654 4.59587 0
M  V30 3117 C 287.3 3.76364 4.81449 0
M  V30 3118 C 288.298 4.72758 4.92939 0
M  V30 3119 O 287.986 5.98352 5.36871 0
M  V30 3120 H 287.718 0.225758 0.637189 0
M  V30 3121 H 290.272 1.26178 1.62075 0
M  V30 3122 H 288.502 0.0444808 3.86674 0
M  V30 3123 H 290.191 0.427442 4.03643 0
M  V30 3124 H 290.957 2.90613 3.8829 0
M  V30 3125 H 286.836 1.74202 4.26819 0
M  V30 3126 H 290.38 5.16896 4.68471 0
M  V30 3127 H 286.277 3.99582 5.06956 0
M  V30 3128 H 287.045 6.01507 5.55096 0
M  V30 3129 N 289.708 -1.40897 0.706093 0
M  V30 3130 C 290.957 -2.00284 0.238574 0
M  V30 3131 C 291.27 -1.56604 -1.17194 0
M  V30 3132 O 292.476 -2.08624 -1.73748 0
M  V30 3133 C 290.932 -3.57934 0.375623 0
M  V30 3134 C 290.54 -4.10591 1.79217 0
M  V30 3135 C 292.284 -4.24488 -0.0315857 0
M  V30 3136 C 290.191 -5.60712 1.88032 0
M  V30 3137 H 289.121 -0.749144 0.0854398 0
M  V30 3138 H 291.772 -1.61251 0.875813 0
M  V30 3139 H 290.154 -3.94622 -0.330042 0
M  V30 3140 H 291.328 -3.85301 2.52745 0
M  V30 3141 H 289.643 -3.56601 2.15 0
M  V30 3142 H 292.24 -5.34698 0.0136842 0
M  V30 3143 H 292.583 -4.02261 -1.072 0
M  V30 3144 H 293.116 -3.92873 0.624181 0
M  V30 3145 H 289.855 -5.87781 2.90161 0
M  V30 3146 H 289.375 -5.87896 1.18903 0
M  V30 3147 H 291.054 -6.25658 1.64805 0
M  V30 3148 N 291.186 -0.45159 -1.50991 0
M  V30 3149 C 292.463 0.170707 -1.94854 0
M  V30 3150 C 292.843 1.58788 -1.39103 0
M  V30 3151 O 292.191 2.20913 -0.583921 0
M  V30 3152 C 292.401 0.133929 -3.48743 0
M  V30 3153 C 293.749 0.33248 -4.23296 0
M  V30 3154 O 294.773 0.211403 -3.55572 0
M  V30 3155 O 293.632 0.57486 -5.43468 0
M  V30 3156 H 290.726 0.122264 -0.817912 0
M  V30 3157 H 293.272 -0.510594 -1.61836 0
M  V30 3158 H 292.044 -0.856283 -3.81816 0
M  V30 3159 H 291.667 0.857529 -3.88242 0
M  V30 3160 O 292.703 1.58203 -0.324668 0
M  V30 3161 H 293.394 1.9227 0.234936 0
M  V30 END ATOM
M  V30 BEGIN BOND
M  V30 END BOND
M  V30 END CTAB
M  END
$$$$
