drugbank_target|P49327 Fatty acid synthase (DB01034; DB01083)
 OpenBabel12092119443D

  0  0  0     0  0            999 V3000
M  V30 BEGIN CTAB
M  V30 COUNTS 38462 38887 0 0 0
M  V30 BEGIN ATOM
M  V30 1 H -0.908 1.98254 -0.117106 0
M  V30 2 N 0 1.576 0 0
M  V30 3 C 0.933 2.03868 1.02534 0
M  V30 4 C 1.911 0.928543 1.3348 0
M  V30 5 O 3.095 1.19667 1.45644 0
M  V30 6 C 0.222 2.43627 2.35294 0
M  V30 7 C -0.732 3.65373 2.2001 0
M  V30 8 S 0.101 5.13292 1.52614 0
M  V30 9 C 1.257 5.56322 2.86805 0
M  V30 10 H 1.49 2.90518 0.631377 0
M  V30 11 H -0.977 1.52953 0.210867 0
M  V30 12 H 0.981 2.67203 3.11629 0
M  V30 13 H -0.358 1.57376 2.7183 0
M  V30 14 H -1.165 3.90944 3.18086 0
M  V30 15 H -1.563 3.418 1.51819 0
M  V30 16 H 0.729 5.58782 3.83104 0
M  V30 17 H 1.672 6.56266 2.65933 0
M  V30 18 H 2.08 4.83886 2.90714 0
M  V30 19 N 1.4781 -0.272755 1.55222 0
M  V30 20 C 2.3881 -1.35918 1.91216 0
M  V30 21 C 3.4041 -1.54026 0.809436 0
M  V30 22 O 4.5801 -1.68148 1.10852 0
M  V30 23 C 1.6451 -2.69834 2.17693 0
M  V30 24 C 0.7061 -2.6047 3.41253 0
M  V30 25 C -0.0609 -3.88 3.66458 0
M  V30 26 O 0.1621 -4.88693 2.94169 0
M  V30 27 O -0.9039 -3.88189 4.59992 0
M  V30 28 H 2.9221 -1.0839 2.83699 0
M  V30 29 H 0.5071 -0.471301 1.41771 0
M  V30 30 H 2.3891 -3.49017 2.36147 0
M  V30 31 H 1.0641 -2.97148 1.28392 0
M  V30 32 H -0.0289 -1.79663 3.28134 0
M  V30 33 H 1.3041 -2.38106 4.30774 0
M  V30 34 N 2.9562 -1.48159 -0.537278 0
M  V30 35 C 3.8662 -1.64807 -1.6696 0
M  V30 36 C 4.8822 -0.530651 -1.65711 0
M  V30 37 O 6.0582 -0.800784 -1.84796 0
M  V30 38 C 3.1232 -1.67708 -3.03438 0
M  V30 39 C 2.1842 -2.91025 -3.156 0
M  V30 40 C 1.4172 -2.93778 -4.45567 0
M  V30 41 O 1.6402 -2.05153 -5.3223 0
M  V30 42 O 0.5742 -3.85868 -4.61941 0
M  V30 43 H 4.4002 -2.6066 -1.55853 0
M  V30 44 H 1.9852 -1.31475 -0.709549 0
M  V30 45 H 3.8672 -1.7218 -3.84619 0
M  V30 46 H 2.5422 -0.750278 -3.14885 0
M  V30 47 H 1.4492 -2.92089 -2.33741 0
M  V30 48 H 2.7822 -3.83065 -3.09066 0
M  V30 49 N 4.4343 0.785586 -1.36625 0
M  V30 50 C 5.6803 1.54591 -1.31261 0
M  V30 51 C 6.0133 1.93906 0.106823 0
M  V30 52 O 5.2883 1.63007 1.06108 0
M  V30 53 C 5.5713 2.82038 -2.23889 0
M  V30 54 C 5.4243 2.49066 -3.74548 0
M  V30 55 C 6.7433 3.83887 -2.15217 0
M  V30 56 H 3.8623 0.560846 -0.478143 0
M  V30 57 H 6.5043 0.902278 -1.67209 0
M  V30 58 H 4.6543 3.36961 -1.93363 0
M  V30 59 H 6.3263 2.00164 -4.15611 0
M  V30 60 H 4.5693 1.81954 -3.93796 0
M  V30 61 H 5.2403 3.40109 -4.34776 0
M  V30 62 H 7.7163 3.38421 -2.42096 0
M  V30 63 H 6.5923 4.70806 -2.82193 0
M  V30 64 H 6.8533 4.27131 -1.14068 0
M  V30 65 N 5.9124 1.20967 1.01018 0
M  V30 66 C 7.1584 1.02526 1.74975 0
M  V30 67 C 7.4914 -0.4408 1.89131 0
M  V30 68 O 6.7664 -1.32718 1.42184 0
M  V30 69 C 7.0494 1.71699 3.1653 0
M  V30 70 C 6.9024 3.25791 3.10129 0
M  V30 71 C 8.2214 1.45531 4.15342 0
M  V30 72 H 5.3404 0.373863 0.635134 0
M  V30 73 H 7.9824 1.49071 1.17805 0
M  V30 74 H 6.1324 1.32128 3.65341 0
M  V30 75 H 7.8044 3.74697 2.69072 0
M  V30 76 H 6.0474 3.56363 2.47362 0
M  V30 77 H 6.7184 3.69353 4.10222 0
M  V30 78 H 9.1944 1.79872 3.75213 0
M  V30 79 H 8.0704 1.96453 5.1254 0
M  V30 80 H 8.3314 0.384237 4.40427 0
M  V30 81 N 7.3905 -1.2043 1.01659 0
M  V30 82 C 8.6395 -1.89118 0.701237 0
M  V30 83 C 8.9525 -1.79705 -0.772358 0
M  V30 84 O 10.1585 -2.43528 -1.20026 0
M  V30 85 C 8.6145 -3.39168 1.20388 0
M  V30 86 C 8.2225 -3.57166 2.70438 0
M  V30 87 C 9.9665 -4.1341 0.963953 0
M  V30 88 C 7.8735 -5.01042 3.14183 0
M  V30 89 H 6.8035 -0.708267 0.2586 0
M  V30 90 H 9.4545 -1.36239 1.22927 0
M  V30 91 H 7.8365 -3.91369 0.603824 0
M  V30 92 H 9.0105 -3.15351 3.35992 0
M  V30 93 H 7.3255 -2.96294 2.92572 0
M  V30 94 H 9.9225 -5.19491 1.26621 0
M  V30 95 H 10.2655 -4.16181 -0.099578 0
M  V30 96 H 10.7985 -3.67309 1.52738 0
M  V30 97 H 7.5375 -5.03426 4.19812 0
M  V30 98 H 7.0575 -5.43668 2.53348 0
M  V30 99 H 8.7365 -5.69623 3.0682 0
M  V30 100 N 8.8686 -0.792821 -1.36206 0
M  V30 101 C 9.8316 -0.199459 -2.2833 0
M  V30 102 C 10.8316 0.605189 -1.48977 0
M  V30 103 O 12.0216 0.425685 -1.68919 0
M  V30 104 C 9.1536 0.723523 -3.33134 0
M  V30 105 H 10.3466 -1.01181 -2.82316 0
M  V30 106 H 7.8996 -0.562485 -1.45828 0
M  V30 107 H 8.6346 1.56008 -2.84309 0
M  V30 108 H 8.4196 0.148436 -3.91819 0
M  V30 109 H 9.9096 1.13344 -4.01924 0
M  V30 110 N 10.3467 1.47872 -0.545128 0
M  V30 111 C 11.5947 2.02093 -0.016553 0
M  V30 112 C 11.9157 1.42305 1.3332 0
M  V30 113 O 11.1857 0.593853 1.86682 0
M  V30 114 H 9.7657 0.746993 -0.00313038 0
M  V30 115 H 12.4277 1.81414 -0.712397 0
M  V30 116 H 11.5237 3.11996 0.0805422 0
M  V30 117 N 11.8248 0.280983 1.55075 0
M  V30 118 C 12.7578 -0.645439 2.18882 0
M  V30 119 C 13.7358 -1.14786 1.15165 0
M  V30 120 O 14.9198 -1.21975 1.43716 0
M  V30 121 C 12.0468 -1.88088 2.81674 0
M  V30 122 C 11.0928 -1.51343 3.98745 0
M  V30 123 S 11.9258 -0.586548 5.32278 0
M  V30 124 C 13.0818 -1.83024 5.98543 0
M  V30 125 H 13.3148 -0.1033 2.9712 0
M  V30 126 H 10.8478 0.0652099 1.54262 0
M  V30 127 H 12.8058 -2.58997 3.18482 0
M  V30 128 H 11.4668 -2.39417 2.03318 0
M  V30 129 H 10.6598 -2.43289 4.41392 0
M  V30 130 H 10.2618 -0.884477 3.63391 0
M  V30 131 H 12.5538 -2.77342 6.18133 0
M  V30 132 H 13.4968 -1.44668 6.93164 0
M  V30 133 H 13.9048 -1.99785 5.27964 0
M  V30 134 N 13.3029 -1.57598 0.00835791 0
M  V30 135 C 14.5279 -1.95617 -0.689103 0
M  V30 136 C 14.9529 -0.883753 -1.66046 0
M  V30 137 O 14.3109 0.157352 -1.80616 0
M  V30 138 C 14.3589 -3.32736 -1.38994 0
M  V30 139 O 13.4629 -3.27631 -2.50463 0
M  V30 140 H 12.8039 -0.638379 -0.182668 0
M  V30 141 H 15.3339 -2.045 0.064036 0
M  V30 142 H 15.3439 -3.68494 -1.75147 0
M  V30 143 H 14.0189 -4.1034 -0.677778 0
M  V30 144 H 12.5959 -3.03561 -2.16576 0
M  V30 145 N 14.781 0.264519 -1.55364 0
M  V30 146 C 16.029 0.993021 -1.76021 0
M  V30 147 C 16.35 1.86511 -0.569099 0
M  V30 148 O 15.62 1.91438 0.415735 0
M  V30 149 H 14.2 0.369639 -0.649135 0
M  V30 150 H 16.862 0.286707 -1.9278 0
M  V30 151 H 15.958 1.62502 -2.66457 0
M  V30 152 N 16.2591 1.48442 0.529413 0
M  V30 153 C 17.2061 1.63007 1.63394 0
M  V30 154 C 18.1761 0.47212 1.59249 0
M  V30 155 O 19.3611 0.695673 1.77666 0
M  V30 156 C 16.5011 1.6763 3.01653 0
M  V30 157 C 15.6141 2.94535 3.16027 0
M  V30 158 C 14.7491 2.90316 4.44849 0
M  V30 159 C 13.7881 4.11923 4.52754 0
M  V30 160 N 12.9251 4.05777 5.72965 0
M  V30 161 H 17.7651 2.5733 1.50285 0
M  V30 162 H 15.3021 1.27613 0.731656 0
M  V30 163 H 17.2601 1.68292 3.81751 0
M  V30 164 H 15.8901 0.76797 3.13532 0
M  V30 165 H 14.9421 3.03615 2.29177 0
M  V30 166 H 16.2541 3.84512 3.17729 0
M  V30 167 H 15.4081 2.89382 5.33238 0
M  V30 168 H 14.1471 1.98068 4.45668 0
M  V30 169 H 13.1521 4.13131 3.62771 0
M  V30 170 H 14.3771 5.0533 4.53672 0
M  V30 171 H 12.3231 3.16351 5.74681 0
M  V30 172 H 12.2401 4.8946 5.76164 0
M  V30 173 H 13.5081 4.08904 6.6364 0
M  V30 174 N 17.7372 -0.778329 1.37039 0
M  V30 175 C 18.6672 -1.90546 1.34962 0
M  V30 176 C 19.6482 -1.68681 0.219274 0
M  V30 177 O 20.8332 -1.89634 0.418624 0
M  V30 178 C 17.9632 -3.27734 1.14925 0
M  V30 179 C 16.9172 -3.64147 2.24902 0
M  V30 180 C 16.2432 -4.99806 1.89996 0
M  V30 181 C 17.5432 -3.71579 3.67051 0
M  V30 182 H 19.2372 -1.92541 2.29277 0
M  V30 183 H 16.7832 -0.924948 1.10366 0
M  V30 184 H 18.7362 -4.06215 1.12104 0
M  V30 185 H 17.4602 -3.26154 0.170631 0
M  V30 186 H 16.1192 -2.8797 2.26868 0
M  V30 187 H 15.7672 -4.94759 0.906796 0
M  V30 188 H 15.4672 -5.25139 2.63634 0
M  V30 189 H 16.9912 -5.80694 1.88749 0
M  V30 190 H 18.4052 -4.40227 3.67251 0
M  V30 191 H 16.8022 -4.08405 4.39688 0
M  V30 192 H 17.8722 -2.72404 4.01154 0
M  V30 193 N 19.2153 -1.21501 -1.00376 0
M  V30 194 C 20.6263 -1.03146 -1.55621 0
M  V30 195 C 20.9773 0.408375 -1.91903 0
M  V30 196 O 20.1023 1.29177 -1.73616 0
M  V30 197 C 20.6973 -1.86612 -2.82775 0
M  V30 198 C 19.2563 -1.72586 -3.34501 0
M  V30 199 C 18.4033 -1.83747 -2.07683 0
M  V30 200 H 21.3543 -1.35505 -0.826081 0
M  V30 201 H 21.3753 -1.3771 -3.54706 0
M  V30 202 H 20.8873 -2.91399 -2.56336 0
M  V30 203 H 18.9883 -0.704877 -3.65872 0
M  V30 204 H 19.1013 -2.54623 -4.05837 0
M  V30 205 H 17.4653 -1.27069 -2.20739 0
M  V30 206 H 18.2483 -2.90044 -1.83655 0
M  V30 207 N 20.6934 1.19889 -1.02296 0
M  V30 208 C 21.6034 2.26571 -0.608508 0
M  V30 209 C 22.6194 1.70299 0.356964 0
M  V30 210 O 23.7954 2.00235 0.216326 0
M  V30 211 C 20.8604 3.46677 0.0402814 0
M  V30 212 C 19.9214 4.18153 -0.97194 0
M  V30 213 C 19.1544 5.32525 -0.354016 0
M  V30 214 O 19.3774 5.64112 0.844604 0
M  V30 215 O 18.3114 5.92242 -1.07391 0
M  V30 216 H 22.1374 2.64251 -1.49684 0
M  V30 217 H 19.7224 1.26629 -0.792809 0
M  V30 218 H 21.6044 4.19475 0.402324 0
M  V30 219 H 20.2794 3.10858 0.902707 0
M  V30 220 H 19.1864 3.47499 -1.38546 0
M  V30 221 H 20.5194 4.57927 -1.80454 0
M  V30 222 N 22.1715 0.800033 1.35784 0
M  V30 223 C 23.3965 0.388511 2.03729 0
M  V30 224 C 23.8215 -0.990481 1.5991 0
M  V30 225 O 23.1795 -1.64013 0.772612 0
M  V30 226 C 23.2275 0.4726 3.5749 0
M  V30 227 O 22.3315 -0.51646 4.09153 0
M  V30 228 H 21.6725 0.163271 0.643614 0
M  V30 229 H 24.2025 1.0841 1.73518 0
M  V30 230 H 24.2125 0.34003 4.06581 0
M  V30 231 H 22.8875 1.47848 3.88734 0
M  V30 232 H 21.4645 -0.344673 3.71304 0
M  V30 233 N 23.6496 -1.47581 0.552962 0
M  V30 234 C 24.5596 -2.33743 -0.200353 0
M  V30 235 C 25.5756 -1.47928 -0.916151 0
M  V30 236 O 26.7516 -1.80865 -0.885993 0
M  V30 237 C 23.8166 -3.24536 -1.21973 0
M  V30 238 C 22.8776 -4.26238 -0.511819 0
M  V30 239 C 22.1106 -5.12693 -1.48263 0
M  V30 240 O 22.3336 -5.01525 -2.71714 0
M  V30 241 O 21.2676 -5.93375 -1.00945 0
M  V30 242 H 25.0936 -2.9945 0.506304 0
M  V30 243 H 22.6786 -1.46071 0.313622 0
M  V30 244 H 24.5606 -3.80631 -1.80827 0
M  V30 245 H 23.2356 -2.61462 -1.90839 0
M  V30 246 H 22.1426 -3.73914 0.117799 0
M  V30 247 H 23.4756 -4.92014 0.135308 0
M  V30 248 N 25.1277 -0.289203 -1.54924 0
M  V30 249 C 26.0757 0.607966 -2.24514 0
M  V30 250 C 27.0697 1.14655 -1.24702 0
M  V30 251 O 28.2757 1.09856 -1.4259 0
M  V30 252 H 24.6507 0.21464 -0.720718 0
M  V30 253 H 26.6217 -0.00164182 -2.984 0
M  V30 254 C 25.3707 1.77406 -2.99036 0
M  V30 255 H 24.6937 1.36884 -3.75637 0
M  V30 256 H 26.1337 2.37814 -3.51028 0
M  V30 257 C 24.5927 2.67107 -2.05318 0
M  V30 258 O 25.1227 3.6787 -1.61353 0
M  V30 259 N 23.3287 2.34582 -1.71521 0
M  V30 260 H 22.8757 1.52688 -2.07471 0
M  V30 261 H 22.8337 2.94867 -1.0909 0
M  V30 262 N 26.6058 1.57591 -0.0167156 0
M  V30 263 C 27.5358 2.12496 0.967858 0
M  V30 264 C 28.5168 1.03807 1.34752 0
M  V30 265 O 29.7018 1.31577 1.42833 0
M  V30 266 C 26.8318 2.64194 2.25431 0
M  V30 267 C 25.7858 3.77559 2.01576 0
M  V30 268 C 25.1118 4.15636 3.36379 0
M  V30 269 C 26.4118 5.04151 1.36489 0
M  V30 270 H 28.1058 2.95013 0.510643 0
M  V30 271 H 25.6518 1.41915 0.244181 0
M  V30 272 H 27.6048 3.01236 2.94678 0
M  V30 273 H 26.3288 1.78821 2.73296 0
M  V30 274 H 24.9878 3.40937 1.34751 0
M  V30 275 H 24.6358 3.27263 3.81979 0
M  V30 276 H 24.3358 4.92022 3.21229 0
M  V30 277 H 25.8598 4.5525 4.06915 0
M  V30 278 H 27.2738 5.38857 1.95718 0
M  V30 279 H 25.6708 5.85453 1.31776 0
M  V30 280 H 26.7408 4.83733 0.336219 0
M  V30 281 N 28.0839 -0.256276 1.55502 0
M  V30 282 C 29.0159 -1.33981 1.85962 0
M  V30 283 C 30.0289 -1.44743 0.745212 0
M  V30 284 O 31.2179 -1.4626 1.02324 0
M  V30 285 C 28.3179 -2.7194 2.02242 0
M  V30 286 C 27.4909 -2.83562 3.33033 0
M  V30 287 C 26.5499 -4.02304 3.39172 0
M  V30 288 O 25.5759 -3.92273 4.12444 0
M  V30 289 N 26.7779 -5.15045 2.67784 0
M  V30 290 H 29.5429 -1.08191 2.7949 0
M  V30 291 H 27.1039 -0.446388 1.55624 0
M  V30 292 H 29.0959 -3.49697 2.03701 0
M  V30 293 H 27.6659 -2.90479 1.15502 0
M  V30 294 H 26.8859 -1.92555 3.43971 0
M  V30 295 H 28.1739 -2.88271 4.19258 0
M  V30 296 H 27.5719 -5.26085 2.07968 0
M  V30 297 H 26.1289 -5.90972 2.74947 0
M  V30 298 N 29.562 -1.4872 -0.521534 0
M  V30 299 C 30.472 -1.66569 -1.65203 0
M  V30 300 C 31.488 -0.548197 -1.65139 0
M  V30 301 O 32.664 -0.820339 -1.83936 0
M  V30 302 C 29.729 -1.70917 -3.01642 0
M  V30 303 C 28.79 -2.94356 -3.12495 0
M  V30 304 C 28.023 -2.98487 -4.42426 0
M  V30 305 O 28.246 -2.10786 -5.30024 0
M  V30 306 O 27.18 -3.90746 -4.57822 0
M  V30 307 H 31.006 -2.62298 -1.5308 0
M  V30 308 H 28.591 -1.3222 -0.695565 0
M  V30 309 H 30.473 -1.7625 -3.82771 0
M  V30 310 H 29.148 -0.783633 -3.14071 0
M  V30 311 H 28.055 -2.94552 -2.3063 0
M  V30 312 H 29.388 -3.86322 -3.04986 0
M  V30 313 N 31.0401 0.771051 -1.3745 0
M  V30 314 C 32.2871 1.52963 -1.32697 0
M  V30 315 C 32.6151 1.94299 0.0883274 0
M  V30 316 O 31.8701 1.64397 1.0617 0
M  V30 317 C 32.1691 2.80676 -2.2126 0
M  V30 318 C 31.8351 2.58389 -3.69521 0
M  V30 319 C 30.4971 2.52019 -4.09927 0
M  V30 320 C 32.8491 2.38469 -4.63446 0
M  V30 321 C 30.1771 2.23721 -5.42371 0
M  V30 322 C 32.5291 2.11694 -5.96128 0
M  V30 323 C 31.1931 2.03769 -6.35637 0
M  V30 324 H 30.4631 0.559732 -0.485573 0
M  V30 325 H 33.1101 0.888083 -1.69662 0
M  V30 326 H 31.4151 3.49392 -1.77291 0
M  V30 327 H 33.1121 3.38557 -2.14895 0
M  V30 328 H 29.7021 2.6421 -3.37478 0
M  V30 329 H 33.8861 2.4238 -4.33089 0
M  V30 330 H 29.1421 2.16081 -5.71943 0
M  V30 331 H 33.3161 1.9528 -6.6846 0
M  V30 332 H 30.9431 1.81606 -7.38189 0
M  V30 333 N 32.5182 1.22032 0.997298 0
M  V30 334 C 33.7642 1.05382 1.73972 0
M  V30 335 C 34.1192 -0.407419 1.88037 0
M  V30 336 O 33.4122 -1.29811 1.40924 0
M  V30 337 C 33.6062 1.69345 3.14733 0
M  V30 338 C 33.4352 3.21537 3.14395 0
M  V30 339 C 32.2052 3.9062 3.20537 0
M  V30 340 C 34.4032 4.18527 2.98897 0
M  V30 341 N 32.3852 5.29935 3.09906 0
M  V30 342 C 33.7562 5.44645 2.96247 0
M  V30 343 C 35.8112 4.09476 2.83255 0
M  V30 344 C 34.5142 6.62752 2.79557 0
M  V30 345 C 36.5402 5.27228 2.67926 0
M  V30 346 C 35.9022 6.52262 2.65959 0
M  V30 347 H 32.0012 0.440018 0.646458 0
M  V30 348 H 34.5852 1.54505 1.18475 0
M  V30 349 H 32.7562 1.22778 3.68484 0
M  V30 350 H 34.4882 1.45828 3.77513 0
M  V30 351 H 31.2432 3.41592 3.28043 0
M  V30 352 H 31.6672 6.02926 3.07912 0
M  V30 353 H 36.3092 3.13598 2.83577 0
M  V30 354 H 34.0272 7.58783 2.77982 0
M  V30 355 H 37.6132 5.22053 2.56812 0
M  V30 356 H 36.4932 7.41844 2.54239 0
M  V30 357 N 33.9963 -1.19345 1.0293 0
M  V30 358 C 35.2733 -1.84811 0.640642 0
M  V30 359 C 35.6533 -1.91855 -0.88062 0
M  V30 360 O 35.0013 -1.43587 -1.7775 0
M  V30 361 C 35.2113 -3.23755 1.30321 0
M  V30 362 C 36.5593 -3.99912 1.42673 0
M  V30 363 O 37.5833 -3.33155 1.26041 0
M  V30 364 O 36.4423 -5.19494 1.6967 0
M  V30 365 H 33.5363 -0.796443 0.222726 0
M  V30 366 H 36.0823 -1.26831 1.12748 0
M  V30 367 H 34.8543 -3.13466 2.34211 0
M  V30 368 H 34.4773 -3.89381 0.804261 0
M  V30 369 N 35.4744 -0.807222 -1.35358 0
M  V30 370 C 36.4224 -0.20614 -2.31685 0
M  V30 371 C 37.4164 0.644445 -1.56663 0
M  V30 372 O 38.6224 0.537538 -1.71786 0
M  V30 373 H 34.9974 -0.0479006 -0.750473 0
M  V30 374 H 36.9684 -1.03369 -2.79924 0
M  V30 375 C 35.7174 0.630212 -3.41941 0
M  V30 376 H 35.0404 -0.0149558 -3.99797 0
M  V30 377 H 36.4804 1.01716 -4.11619 0
M  V30 378 C 34.9394 1.79601 -2.85035 0
M  V30 379 O 35.4694 2.89351 -2.78637 0
M  V30 380 N 33.6754 1.60774 -2.42074 0
M  V30 381 H 33.2224 0.715009 -2.47478 0
M  V30 382 H 33.1804 2.38933 -2.04349 0
M  V30 383 N 36.9525 1.47285 -0.560781 0
M  V30 384 C 37.8825 2.32857 0.173105 0
M  V30 385 C 38.8635 1.44009 0.905281 0
M  V30 386 O 40.0485 1.7286 0.885046 0
M  V30 387 C 37.1785 3.25861 1.20133 0
M  V30 388 C 36.1325 4.23978 0.585388 0
M  V30 389 C 35.4585 5.06332 1.7185 0
M  V30 390 C 36.7585 5.20242 -0.463178 0
M  V30 391 H 38.4525 2.94466 -0.541307 0
M  V30 392 H 35.9985 1.41601 -0.261764 0
M  V30 393 H 37.9515 3.84569 1.72293 0
M  V30 394 H 36.6755 2.62315 1.94573 0
M  V30 395 H 35.3345 3.66501 0.085054 0
M  V30 396 H 34.9825 4.39186 2.45203 0
M  V30 397 H 34.6825 5.72762 1.31213 0
M  V30 398 H 36.2065 5.67899 2.24329 0
M  V30 399 H 37.6205 5.73293 -0.027502 0
M  V30 400 H 36.0175 5.94896 -0.788627 0
M  V30 401 H 37.0875 4.65504 -1.35773 0
M  V30 402 N 38.4306 0.297415 1.54768 0
M  V30 403 C 39.6796 -0.313669 1.99246 0
M  V30 404 C 39.9926 -1.55281 1.18942 0
M  V30 405 O 41.1986 -2.23825 1.5367 0
M  V30 406 C 39.6546 -0.609407 3.54703 0
M  V30 407 C 39.2626 0.611192 4.43811 0
M  V30 408 C 41.0066 -1.18188 4.07715 0
M  V30 409 C 38.9136 0.288805 5.90694 0
M  V30 410 H 37.8436 -0.120979 0.744231 0
M  V30 411 H 40.4946 0.40556 1.78962 0
M  V30 412 H 38.8766 -1.38813 3.70873 0
M  V30 413 H 40.0506 1.3875 4.39414 0
M  V30 414 H 38.3656 1.10205 4.01552 0
M  V30 415 H 40.9626 -1.43727 5.15021 0
M  V30 416 H 41.3056 -2.12299 3.58099 0
M  V30 417 H 41.8386 -0.464944 3.95074 0
M  V30 418 H 38.5776 1.19838 6.44453 0
M  V30 419 H 38.0976 -0.450305 5.98107 0
M  V30 420 H 39.7766 -0.110933 6.46905 0
M  V30 421 N 39.9087 -1.5758 0.0250728 0
M  V30 422 C 41.1567 -1.91255 -0.653151 0
M  V30 423 C 41.4777 -0.901691 -1.729 0
M  V30 424 O 40.7477 0.0573785 -1.95816 0
M  V30 425 H 39.3277 -0.705942 -0.244243 0
M  V30 426 H 41.9897 -1.94767 0.0719209 0
M  V30 427 H 41.0857 -2.91752 -1.10847 0
M  V30 428 N 41.3868 0.248026 -1.55636 0
M  V30 429 C 42.6348 0.974295 -1.77065 0
M  V30 430 C 42.9558 1.85897 -0.588849 0
M  V30 431 O 42.2258 1.91868 0.395407 0
M  V30 432 H 40.8058 0.362733 -0.653019 0
M  V30 433 H 43.4678 0.266244 -1.93073 0
M  V30 434 H 42.5638 1.59667 -2.68166 0
M  V30 435 N 42.8649 1.48995 0.513639 0
M  V30 436 C 44.1109 1.58076 1.27042 0
M  V30 437 C 44.4439 0.261026 1.92438 0
M  V30 438 O 43.7189 -0.734393 1.80103 0
M  V30 439 C 44.0019 2.73091 2.34719 0
M  V30 440 C 43.8549 4.14821 1.73907 0
M  V30 441 C 45.1739 2.83796 3.36375 0
M  V30 442 H 42.2929 0.575391 0.460536 0
M  V30 443 H 44.9349 1.81232 0.570516 0
M  V30 444 H 43.0849 2.53479 2.94416 0
M  V30 445 H 44.7569 4.45917 1.18135 0
M  V30 446 H 42.9999 4.21058 1.0437 0
M  V30 447 H 43.6709 4.91147 2.51949 0
M  V30 448 H 46.1469 3.01611 2.86653 0
M  V30 449 H 45.0229 3.65971 4.09093 0
M  V30 450 H 45.2839 1.92624 3.9793 0
M  V30 451 N 44.343 -0.763751 1.37857 0
M  V30 452 C 45.62 -1.51244 1.24035 0
M  V30 453 C 46 -2.10472 -0.162649 0
M  V30 454 O 45.348 -1.96206 -1.17112 0
M  V30 455 C 45.558 -2.58694 2.34261 0
M  V30 456 C 46.906 -3.25878 2.72193 0
M  V30 457 O 47.93 -2.68993 2.33497 0
M  V30 458 O 46.789 -4.2874 3.38887 0
M  V30 459 H 43.883 -0.670243 0.484462 0
M  V30 460 H 46.429 -0.800031 1.49658 0
M  V30 461 H 45.201 -2.13105 3.2818 0
M  V30 462 H 44.824 -3.37527 2.10146 0
M  V30 463 N 45.8211 -1.22559 -0.990812 0
M  V30 464 C 46.7541 -0.940773 -2.07905 0
M  V30 465 C 47.7321 0.117082 -1.62178 0
M  V30 466 O 48.9161 -0.0149506 -1.88494 0
M  V30 467 C 46.0431 -0.415321 -3.36144 0
M  V30 468 C 45.0891 -1.45818 -4.00799 0
M  V30 469 S 45.9221 -3.03219 -4.41382 0
M  V30 470 C 47.0781 -2.52317 -5.72789 0
M  V30 471 H 47.3111 -1.8623 -2.31745 0
M  V30 472 H 44.8441 -1.05688 -1.12558 0
M  V30 473 H 46.8021 -0.118747 -4.10328 0
M  V30 474 H 45.4631 0.485121 -3.10331 0
M  V30 475 H 44.6561 -1.04044 -4.93144 0
M  V30 476 H 44.2581 -1.70356 -3.32949 0
M  V30 477 H 46.5501 -1.93688 -6.49224 0
M  V30 478 H 47.4931 -3.43161 -6.19392 0
M  V30 479 H 47.9011 -1.93529 -5.30289 0
M  V30 480 N 47.2992 1.18797 -1.03562 0
M  V30 481 C 48.5452 1.8893 -0.737113 0
M  V30 482 C 48.8782 1.79837 0.732956 0
M  V30 483 O 48.1532 1.19525 1.5344 0
M  V30 484 C 48.4362 3.39607 -1.19745 0
M  V30 485 C 48.2892 3.57537 -2.72924 0
M  V30 486 C 49.6082 4.33069 -0.783526 0
M  V30 487 H 46.7272 0.686057 -0.269249 0
M  V30 488 H 49.3692 1.39797 -1.28673 0
M  V30 489 H 47.5192 3.81583 -0.729855 0
M  V30 490 H 49.1912 3.24688 -3.27682 0
M  V30 491 H 47.4342 3.00363 -3.12993 0
M  V30 492 H 48.1052 4.63238 -3.00191 0
M  V30 493 H 50.5812 3.98846 -1.18581 0
M  V30 494 H 49.4572 5.3707 -1.13343 0
M  V30 495 H 49.7182 4.40986 0.313681 0
M  V30 496 N 48.7773 0.814389 1.34928 0
M  V30 497 C 50.0053 0.411136 2.02774 0
M  V30 498 C 50.4203 -0.980316 1.61354 0
M  V30 499 O 49.7773 -1.63299 0.814847 0
M  V30 500 C 49.8283 0.493865 3.58111 0
M  V30 501 O 49.5493 1.83047 3.98027 0
M  V30 502 C 51.0503 0.0844174 4.4322 0
M  V30 503 H 48.2703 0.166037 0.650133 0
M  V30 504 H 50.8143 1.10018 1.72384 0
M  V30 505 H 48.9693 -0.147006 3.87121 0
M  V30 506 H 49.3833 1.79872 4.92693 0
M  V30 507 H 50.8573 0.193404 5.51661 0
M  V30 508 H 51.3343 -0.97113 4.28329 0
M  V30 509 H 51.9403 0.69875 4.19521 0
M  V30 510 N 50.2554 -1.46986 0.568584 0
M  V30 511 C 51.5324 -1.95592 -0.0174074 0
M  V30 512 C 51.9124 -1.51124 -1.47393 0
M  V30 513 O 51.2604 -0.755329 -2.15655 0
M  V30 514 C 51.4704 -3.48719 0.139913 0
M  V30 515 C 52.8184 -4.246 0.000426376 0
M  V30 516 O 53.8424 -3.56135 0.0680316 0
M  V30 517 O 52.7014 -5.46302 -0.146988 0
M  V30 518 H 49.7954 -0.82498 -0.0577599 0
M  V30 519 H 52.3414 -1.57335 0.635909 0
M  V30 520 H 51.1134 -3.73927 1.15301 0
M  V30 521 H 50.7364 -3.93771 -0.550491 0
M  V30 522 N 51.7335 -0.305618 -1.54608 0
M  V30 523 C 53.0105 0.355652 -1.92339 0
M  V30 524 C 53.3905 1.71324 -1.23335 0
M  V30 525 O 52.7385 2.25473 -0.370702 0
M  V30 526 C 52.9485 0.46572 -3.45879 0
M  V30 527 C 54.2965 0.734426 -4.182 0
M  V30 528 O 55.3205 0.54935 -3.51938 0
M  V30 529 O 54.1795 1.09024 -5.35515 0
M  V30 530 H 51.2735 0.199666 -0.802535 0
M  V30 531 H 53.8195 -0.354017 -1.65966 0
M  V30 532 H 52.5915 -0.488461 -3.88239 0
M  V30 533 H 52.2145 1.22367 -3.78301 0
M  V30 534 N 53.2116 1.57565 -0.0334293 0
M  V30 535 C 54.4886 1.83282 0.683163 0
M  V30 536 C 54.8686 0.91823 1.90084 0
M  V30 537 O 54.2166 -0.025113 2.28486 0
M  V30 538 C 54.4266 3.32599 1.0573 0
M  V30 539 C 55.7746 3.99179 1.44711 0
M  V30 540 O 56.7986 3.3712 1.15015 0
M  V30 541 O 55.6576 5.08565 2.0006 0
M  V30 542 H 52.7516 0.755869 0.335546 0
M  V30 543 H 55.2976 1.69589 -0.0614402 0
M  V30 544 H 54.0696 3.90834 0.190828 0
M  V30 545 H 53.6926 3.51415 1.85993 0
M  V30 546 N 54.6897 -0.239769 1.55765 0
M  V30 547 C 56.1057 -0.588624 1.48349 0
M  V30 548 C 56.3057 -1.88005 0.72502 0
M  V30 549 O 55.3617 -2.51186 0.257269 0
M  V30 550 C 56.6747 -0.68474 2.928 0
M  V30 551 C 58.2227 -0.77659 3.03213 0
M  V30 552 C 58.6977 -0.904207 4.48986 0
M  V30 553 N 60.1887 -0.968896 4.52953 0
M  V30 554 C 60.9237 -1.08703 5.63002 0
M  V30 555 N 60.4197 -1.17026 6.82845 0
M  V30 556 N 62.2127 -1.12074 5.50814 0
M  V30 557 H 54.3637 0.607911 2.03515 0
M  V30 558 H 56.6267 0.21083 0.924259 0
M  V30 559 H 56.3327 0.194284 3.51163 0
M  V30 560 H 56.2067 -1.55435 3.43686 0
M  V30 561 H 58.5937 -1.64606 2.44926 0
M  V30 562 H 58.6747 0.118315 2.55526 0
M  V30 563 H 58.3187 -0.0392633 5.07885 0
M  V30 564 H 58.2487 -1.81426 4.9436 0
M  V30 565 H 60.7397 -0.915633 3.6664 0
M  V30 566 H 61.0527 -1.25966 7.62465 0
M  V30 567 H 59.3977 -1.13971 6.85591 0
M  V30 568 H 62.5887 -1.05226 4.5612 0
M  V30 569 H 62.7617 -1.20936 6.36615 0
M  V30 570 N 56.1678 -1.49265 -0.50573 0
M  V30 571 C 57.5838 -1.35923 -0.836486 0
M  V30 572 C 57.7838 -0.388704 -1.97715 0
M  V30 573 O 56.8398 0.181336 -2.51848 0
M  V30 574 C 58.1528 -2.76531 -1.18115 0
M  V30 575 C 59.7008 -2.85197 -1.28964 0
M  V30 576 C 60.1758 -4.26561 -1.66761 0
M  V30 577 N 61.6668 -4.2935 -1.73819 0
M  V30 578 C 62.4018 -5.35693 -2.045 0
M  V30 579 N 61.8978 -6.52287 -2.33438 0
M  V30 580 N 63.6908 -5.23105 -2.05711 0
M  V30 581 H 55.8418 -2.10965 0.246519 0
M  V30 582 H 58.1048 -0.9468 0.0476887 0
M  V30 583 H 57.8108 -3.49226 -0.416398 0
M  V30 584 H 57.6848 -3.11599 -2.1257 0
M  V30 585 H 60.0718 -2.12742 -2.04511 0
M  V30 586 H 60.1528 -2.53718 -0.325704 0
M  V30 587 H 59.7968 -4.99541 -0.917656 0
M  V30 588 H 59.7268 -4.55502 -2.64246 0
M  V30 589 H 62.2178 -3.4526 -1.53635 0
M  V30 590 H 62.5308 -7.29158 -2.56024 0
M  V30 591 H 60.8758 -6.55521 -2.30905 0
M  V30 592 H 64.0668 -4.31026 -1.82577 0
M  V30 593 H 64.2398 -6.06078 -2.29289 0
M  V30 594 N 57.6459 0.756429 -1.3826 0
M  V30 595 C 58.8919 1.5168 -1.35517 0
M  V30 596 C 59.2469 1.9232 0.0554451 0
M  V30 597 O 58.5399 1.62352 1.01746 0
M  V30 598 C 58.7339 2.78313 -2.24224 0
M  V30 599 C 58.5629 2.50053 -3.7377 0
M  V30 600 C 57.3329 2.43414 -4.42807 0
M  V30 601 C 59.5309 2.1702 -4.66269 0
M  V30 602 N 57.5129 2.07398 -5.77805 0
M  V30 603 C 58.8839 1.91271 -5.89759 0
M  V30 604 C 60.9389 2.03305 -4.54501 0
M  V30 605 C 59.6419 1.53192 -7.02798 0
M  V30 606 C 61.6679 1.66627 -5.67441 0
M  V30 607 C 61.0299 1.4175 -6.8999 0
M  V30 608 H 57.1289 0.554735 -0.551174 0
M  V30 609 H 59.7129 0.881106 -1.73622 0
M  V30 610 H 57.8839 3.39696 -1.88311 0
M  V30 611 H 59.6159 3.44343 -2.12627 0
M  V30 612 H 56.3709 2.59789 -3.95988 0
M  V30 613 H 56.7949 1.92044 -6.4919 0
M  V30 614 H 61.4369 2.21215 -3.60311 0
M  V30 615 H 59.1549 1.34022 -7.96909 0
M  V30 616 H 62.7409 1.56652 -5.60314 0
M  V30 617 H 61.6209 1.1379 -7.759 0
M  V30 618 N 59.124 1.23083 0.984299 0
M  V30 619 C 60.071 1.00854 2.07598 0
M  V30 620 C 61.041 -0.0726709 1.65941 0
M  V30 621 O 62.226 0.0786535 1.90638 0
M  V30 622 C 59.366 0.601645 3.39815 0
M  V30 623 C 58.479 1.75456 3.94765 0
M  V30 624 C 57.614 1.29482 5.15177 0
M  V30 625 C 56.653 2.41873 5.62284 0
M  V30 626 N 55.79 1.96885 6.73929 0
M  V30 627 H 60.63 1.943 2.25946 0
M  V30 628 H 58.167 0.968001 1.10762 0
M  V30 629 H 60.125 0.346854 4.15756 0
M  V30 630 H 58.755 -0.295803 3.21442 0
M  V30 631 H 57.807 2.12346 3.15616 0
M  V30 632 H 59.119 2.59965 4.25699 0
M  V30 633 H 58.273 0.997923 5.98437 0
M  V30 634 H 57.012 0.420046 4.85888 0
M  V30 635 H 56.017 2.72342 4.77608 0
M  V30 636 H 57.242 3.29881 5.93595 0
M  V30 637 H 55.188 1.11782 6.46406 0
M  V30 638 H 55.105 2.74956 7.04227 0
M  V30 639 H 56.373 1.70289 7.60672 0
M  V30 640 N 60.6021 -1.18246 1.0419 0
M  V30 641 C 61.5651 -2.20128 0.638452 0
M  V30 642 C 62.5651 -1.57885 -0.304805 0
M  V30 643 O 63.7551 -1.73967 -0.0900369 0
M  V30 644 C 60.8871 -3.4084 -0.0637751 0
M  V30 645 H 62.0801 -2.57336 1.54007 0
M  V30 646 H 59.6331 -1.32152 0.834598 0
M  V30 647 H 60.3681 -3.09166 -0.979136 0
M  V30 648 H 60.1531 -3.8726 0.614198 0
M  V30 649 H 61.6431 -4.16274 -0.332512 0
M  V30 650 N 62.0802 -0.821533 -1.34494 0
M  V30 651 C 63.3282 -0.408139 -1.97936 0
M  V30 652 C 63.6492 1.03193 -1.65457 0
M  V30 653 O 62.9192 1.71622 -0.944595 0
M  V30 654 H 61.4992 -0.147928 -0.732206 0
M  V30 655 H 64.1612 -1.05067 -1.64155 0
M  V30 656 H 63.2572 -0.52601 -3.07635 0
M  V30 657 N 63.5583 1.46682 -0.576371 0
M  V30 658 C 64.4883 2.33028 0.148397 0
M  V30 659 C 65.4693 1.44961 0.889956 0
M  V30 660 O 66.6543 1.73789 0.866662 0
M  V30 661 C 63.7843 3.27117 1.1667 0
M  V30 662 C 62.7383 4.24575 0.540386 0
M  V30 663 C 62.0643 5.08126 1.6647 0
M  V30 664 C 63.3643 5.19722 -0.518331 0
M  V30 665 H 65.0583 2.93875 -0.572509 0
M  V30 666 H 62.6043 1.41315 -0.276768 0
M  V30 667 H 64.5573 3.86374 1.68204 0
M  V30 668 H 63.2813 2.64364 1.9178 0
M  V30 669 H 61.9403 3.66571 0.0461769 0
M  V30 670 H 61.5883 4.41762 2.40531 0
M  V30 671 H 61.2883 5.74122 1.25131 0
M  V30 672 H 62.8123 5.70246 2.18293 0
M  V30 673 H 64.2263 5.73232 -0.0883058 0
M  V30 674 H 62.6233 5.94026 -0.851679 0
M  V30 675 H 63.6933 4.64037 -1.40703 0
M  V30 676 N 65.0364 0.313813 1.54444 0
M  V30 677 C 66.2664 -0.293491 2.04505 0
M  V30 678 C 66.6744 -1.47086 1.19005 0
M  V30 679 O 66.0174 -1.82481 0.211257 0
M  V30 680 C 66.0794 -0.800455 3.50475 0
M  V30 681 C 65.7434 0.253322 4.56297 0
M  V30 682 C 66.7404 1.08612 5.08428 0
M  V30 683 C 64.4254 0.398708 5.00715 0
M  V30 684 C 66.4194 2.05013 6.0353 0
M  V30 685 C 64.1064 1.36614 5.95634 0
M  V30 686 C 65.1044 2.19033 6.46926 0
M  V30 687 O 64.7924 3.14134 7.39983 0
M  V30 688 H 64.5244 -0.0658325 0.672787 0
M  V30 689 H 67.0784 0.455177 2.00293 0
M  V30 690 H 65.3084 -1.59987 3.52053 0
M  V30 691 H 66.9974 -1.32504 3.83663 0
M  V30 692 H 67.7634 0.984736 4.74898 0
M  V30 693 H 63.6424 -0.23289 4.60411 0
M  V30 694 H 67.1864 2.69382 6.4349 0
M  V30 695 H 63.0834 1.4682 6.28581 0
M  V30 696 H 63.8514 3.0926 7.57826 0
M  V30 697 N 66.5145 -1.57545 0.0417849 0
M  V30 698 C 67.7625 -1.91937 -0.632829 0
M  V30 699 C 68.0835 -0.919978 -1.71934 0
M  V30 700 O 67.3535 0.0366064 -1.95866 0
M  V30 701 H 65.9335 -0.708493 -0.236742 0
M  V30 702 H 68.5955 -1.9468 0.0925745 0
M  V30 703 H 67.6915 -2.92912 -1.07746 0
M  V30 704 N 67.9926 0.231505 -1.5589 0
M  V30 705 C 68.9226 1.29022 -1.94617 0
M  V30 706 C 69.9036 1.4941 -0.813067 0
M  V30 707 O 71.0886 1.6176 -1.07459 0
M  V30 708 C 68.2186 2.64199 -2.25424 0
M  V30 709 C 67.1726 2.58484 -3.41131 0
M  V30 710 C 66.4986 3.97599 -3.57518 0
M  V30 711 C 67.7986 2.1413 -4.76388 0
M  V30 712 H 69.4926 0.968563 -2.83301 0
M  V30 713 H 67.0386 0.464479 -1.36303 0
M  V30 714 H 68.9916 3.38413 -2.51107 0
M  V30 715 H 67.7156 2.98032 -1.33583 0
M  V30 716 H 66.3746 1.86727 -3.15481 0
M  V30 717 H 66.0226 4.28723 -2.6307 0
M  V30 718 H 65.7226 3.94659 -4.35337 0
M  V30 719 H 67.2466 4.7349 -3.85538 0
M  V30 720 H 68.6606 2.78083 -5.01341 0
M  V30 721 H 67.0576 2.2227 -5.57419 0
M  V30 722 H 68.1276 1.09331 -4.72414 0
M  V30 723 N 69.4707 1.49531 0.497807 0
M  V30 724 C 70.8817 1.52344 1.07927 0
M  V30 725 C 71.2327 0.311469 1.93712 0
M  V30 726 O 70.3577 -0.578405 2.08527 0
M  V30 727 C 70.9527 2.76062 1.96405 0
M  V30 728 C 69.5117 2.81643 2.49709 0
M  V30 729 C 68.6587 2.46299 1.27404 0
M  V30 730 H 71.6097 1.56182 0.281576 0
M  V30 731 H 71.6307 2.56405 2.81135 0
M  V30 732 H 71.1427 3.64254 1.33943 0
M  V30 733 H 69.2437 1.97739 3.15801 0
M  V30 734 H 69.3567 3.83891 2.86643 0
M  V30 735 H 67.7207 1.98148 1.60029 0
M  V30 736 H 68.5037 3.36769 0.66645 0
M  V30 737 N 70.9488 -0.749086 1.3866 0
M  V30 738 C 72.3648 -1.05276 1.19955 0
M  V30 739 C 72.5648 -2.01435 0.05134 0
M  V30 740 O 71.6208 -2.45232 -0.60147 0
M  V30 741 C 72.9338 -1.62853 2.52783 0
M  V30 742 C 74.4818 -1.75002 2.59506 0
M  V30 743 C 74.9568 -2.35991 3.92521 0
M  V30 744 N 76.4478 -2.43416 3.94085 0
M  V30 745 C 77.1828 -2.91511 4.9377 0
M  V30 746 N 76.6788 -3.39608 6.03853 0
M  V30 747 N 78.4718 -2.90592 4.81157 0
M  V30 748 H 70.6228 -0.111066 2.12109 0
M  V30 749 H 72.8858 -0.111901 0.941373 0
M  V30 750 H 72.5918 -0.99664 3.37283 0
M  V30 751 H 72.4658 -2.61854 2.715 0
M  V30 752 H 74.8528 -2.37317 1.75398 0
M  V30 753 H 74.9338 -0.74693 2.44652 0
M  V30 754 H 74.5778 -1.74308 4.77053 0
M  V30 755 H 74.5078 -3.3695 4.04688 0
M  V30 756 H 76.9988 -2.09405 3.14576 0
M  V30 757 H 77.3118 -3.74775 6.75843 0
M  V30 758 H 75.6568 -3.37653 6.07466 0
M  V30 759 H 78.8478 -2.52332 3.94267 0
M  V30 760 H 79.0208 -3.27762 5.58996 0
M  V30 761 N 72.4269 -1.23603 -0.977757 0
M  V30 762 C 73.8429 -0.999251 -1.24447 0
M  V30 763 C 74.0429 0.298053 -1.99283 0
M  V30 764 O 73.0989 1.01681 -2.31122 0
M  V30 765 C 74.4119 -2.20784 -2.04144 0
M  V30 766 C 75.9599 -2.25303 -2.17273 0
M  V30 767 C 76.4349 -3.45755 -3.00362 0
M  V30 768 N 77.9259 -3.4601 -3.07947 0
M  V30 769 C 78.6609 -4.35868 -3.72568 0
M  V30 770 N 78.1569 -5.35966 -4.38991 0
M  V30 771 N 79.9499 -4.23605 -3.6948 0
M  V30 772 H 72.1009 -2.06986 -0.476483 0
M  V30 773 H 74.3639 -0.907801 -0.273134 0
M  V30 774 H 74.0699 -3.14945 -1.56533 0
M  V30 775 H 73.9439 -2.22085 -3.04891 0
M  V30 776 H 76.3309 -1.3168 -2.64092 0
M  V30 777 H 76.4119 -2.28033 -1.15907 0
M  V30 778 H 76.0559 -4.39687 -2.5424 0
M  V30 779 H 75.9859 -3.40266 -4.01904 0
M  V30 780 H 78.4769 -2.73588 -2.60688 0
M  V30 781 H 78.7899 -6.00783 -4.86086 0
M  V30 782 H 77.1349 -5.39863 -4.37691 0
M  V30 783 H 80.3259 -3.44647 -3.16759 0
M  V30 784 H 80.4989 -4.93836 -4.1956 0
M  V30 785 N 73.905 1.17692 -1.04816 0
M  V30 786 C 75.13 1.92327 -0.776207 0
M  V30 787 C 75.555 1.76082 0.661581 0
M  V30 788 O 74.913 1.076 1.45917 0
M  V30 789 C 74.961 3.41539 -1.15687 0
M  V30 790 O 74.065 4.11402 -0.286775 0
M  V30 791 H 73.406 0.599735 -0.284981 0
M  V30 792 H 75.936 1.49201 -1.4 0
M  V30 793 H 75.946 3.92269 -1.12202 0
M  V30 794 H 74.621 3.52684 -2.20425 0
M  V30 795 H 73.198 3.70939 -0.381903 0
M  V30 796 N 75.3831 0.828654 1.34056 0
M  V30 797 C 76.6311 0.41863 1.97717 0
M  V30 798 C 76.9521 -1.02314 1.66002 0
M  V30 799 O 76.2221 -1.71119 0.953683 0
M  V30 800 H 74.8021 0.151809 0.731412 0
M  V30 801 H 77.4641 1.05936 1.63596 0
M  V30 802 H 76.5601 0.542318 3.07352 0
M  V30 803 N 76.8612 -1.46375 0.584142 0
M  V30 804 C 77.8082 -2.30323 -0.148286 0
M  V30 805 C 78.7782 -1.40703 -0.882713 0
M  V30 806 O 79.9632 -1.69651 -0.873099 0
M  V30 807 C 77.1032 -3.25196 -1.15507 0
M  V30 808 C 76.2162 -4.29915 -0.423943 0
M  V30 809 C 75.3512 -5.11914 -1.41838 0
M  V30 810 C 74.3902 -6.08381 -0.673736 0
M  V30 811 N 73.5272 -6.83242 -1.6163 0
M  V30 812 H 78.3672 -2.92427 0.573644 0
M  V30 813 H 75.9042 -1.44118 0.294703 0
M  V30 814 H 77.8622 -3.78646 -1.75166 0
M  V30 815 H 76.4922 -2.64898 -1.8447 0
M  V30 816 H 75.5442 -3.7931 0.287714 0
M  V30 817 H 76.8562 -4.98549 0.158128 0
M  V30 818 H 76.0102 -5.69648 -2.08773 0
M  V30 819 H 74.7492 -4.43243 -2.03438 0
M  V30 820 H 73.7542 -5.49799 0.00938483 0
M  V30 821 H 74.9792 -6.79071 -0.0631082 0
M  V30 822 H 72.9252 -6.1728 -2.22038 0
M  V30 823 H 72.8422 -7.48144 -1.08707 0
M  V30 824 H 74.1102 -7.45534 -2.27596 0
M  V30 825 N 78.3393 -0.321999 -1.54275 0
M  V30 826 C 79.2693 0.537411 -2.27231 0
M  V30 827 C 80.2503 1.12064 -1.27968 0
M  V30 828 O 81.4353 1.14606 -1.56777 0
M  V30 829 C 78.5653 1.69919 -3.02894 0
M  V30 830 C 77.5193 1.24534 -4.09482 0
M  V30 831 C 76.8453 2.49394 -4.72977 0
M  V30 832 C 78.1453 0.361335 -5.21049 0
M  V30 833 H 79.8393 -0.0711406 -2.99315 0
M  V30 834 H 77.3853 -0.0356555 -1.43956 0
M  V30 835 H 79.3383 2.30668 -3.52662 0
M  V30 836 H 78.0623 2.33431 -2.28424 0
M  V30 837 H 76.7213 0.660782 -3.60596 0
M  V30 838 H 76.3693 3.11265 -3.95124 0
M  V30 839 H 76.0693 2.19718 -5.44975 0
M  V30 840 H 77.5933 3.10908 -5.25517 0
M  V30 841 H 79.0073 0.875072 -5.66582 0
M  V30 842 H 77.4043 0.157428 -5.99893 0
M  V30 843 H 78.4743 -0.60822 -4.8107 0
M  V30 844 N 79.8174 1.5752 -0.0501392 0
M  V30 845 C 80.7644 2.1147 0.924603 0
M  V30 846 C 81.7344 1.02182 1.30951 0
M  V30 847 O 82.9194 1.29723 1.39916 0
M  V30 848 C 80.0594 2.66337 2.19451 0
M  V30 849 C 79.1724 3.89708 1.86418 0
M  V30 850 C 78.3074 4.32893 3.07859 0
M  V30 851 C 77.3464 5.48967 2.70742 0
M  V30 852 N 76.4834 5.87211 3.84874 0
M  V30 853 H 81.3234 2.94465 0.457639 0
M  V30 854 H 78.8604 1.45531 0.214266 0
M  V30 855 H 80.8184 2.96247 2.93758 0
M  V30 856 H 79.4484 1.86141 2.63726 0
M  V30 857 H 78.5004 3.66396 1.02264 0
M  V30 858 H 79.8124 4.74074 1.55096 0
M  V30 859 H 78.9664 4.6435 3.90466 0
M  V30 860 H 77.7054 3.47336 3.42358 0
M  V30 861 H 76.7104 5.17183 1.86551 0
M  V30 862 H 77.9354 6.3624 2.37436 0
M  V30 863 H 75.8814 5.04607 4.19175 0
M  V30 864 H 75.7984 6.66266 3.57247 0
M  V30 865 H 77.0664 6.23282 4.68123 0
M  V30 866 N 81.2955 -0.223234 1.56011 0
M  V30 867 C 82.5725 -0.972108 1.69733 0
M  V30 868 C 82.9525 -2.02485 0.59691 0
M  V30 869 O 82.3005 -2.25037 -0.396324 0
M  V30 870 C 82.5105 -1.58407 3.10979 0
M  V30 871 C 83.8585 -2.07696 3.70334 0
M  V30 872 O 84.8825 -1.68304 3.1393 0
M  V30 873 O 83.7415 -2.80096 4.69264 0
M  V30 874 H 80.8355 -0.453993 0.691245 0
M  V30 875 H 83.3815 -0.215149 1.68331 0
M  V30 876 H 82.1535 -0.823831 3.82529 0
M  V30 877 H 81.7765 -2.40661 3.16493 0
M  V30 878 N 82.7736 -1.49793 -0.48987 0
M  V30 879 C 83.7036 -1.70201 -1.59856 0
M  V30 880 C 84.6846 -0.55076 -1.60937 0
M  V30 881 O 85.8696 -0.787841 -1.77501 0
M  V30 882 C 82.9996 -1.77882 -2.98287 0
M  V30 883 C 81.9536 -2.92907 -3.12073 0
M  V30 884 C 81.2796 -2.85712 -4.51965 0
M  V30 885 C 82.5796 -4.3369 -2.91051 0
M  V30 886 H 84.2736 -2.63025 -1.43032 0
M  V30 887 H 81.8196 -1.26574 -0.686664 0
M  V30 888 H 83.7726 -1.90744 -3.75759 0
M  V30 889 H 82.4966 -0.816653 -3.16225 0
M  V30 890 H 81.1556 -2.79665 -2.37029 0
M  V30 891 H 80.8036 -1.8738 -4.66795 0
M  V30 892 H 80.5036 -3.62921 -4.62128 0
M  V30 893 H 82.0276 -3.00598 -5.31482 0
M  V30 894 H 83.4416 -4.47555 -3.58284 0
M  V30 895 H 81.8386 -5.12205 -3.12675 0
M  V30 896 H 82.9086 -4.47362 -1.87071 0
M  V30 897 N 84.2517 0.741722 -1.39055 0
M  V30 898 C 85.4767 1.53607 -1.39354 0
M  V30 899 C 85.9017 1.88096 0.0116905 0
M  V30 900 O 85.2597 1.5143 0.996924 0
M  V30 901 C 85.3077 2.80441 -2.26682 0
M  V30 902 O 84.4117 3.76088 -1.69208 0
M  V30 903 H 83.7527 0.464142 -0.474835 0
M  V30 904 H 86.2827 0.915665 -1.82967 0
M  V30 905 H 86.2927 3.29246 -2.40959 0
M  V30 906 H 84.9677 2.5467 -3.2881 0
M  V30 907 H 83.5447 3.34833 -1.64138 0
M  V30 908 N 85.7298 1.2412 0.971189 0
M  V30 909 C 87.1458 1.00584 1.23916 0
M  V30 910 C 87.3458 -0.287481 1.99439 0
M  V30 911 O 86.4018 -1.00454 2.31658 0
M  V30 912 C 87.7148 2.21864 2.0297 0
M  V30 913 C 89.2628 2.26452 2.16076 0
M  V30 914 C 89.7378 3.47343 2.98524 0
M  V30 915 N 91.2288 3.47639 3.06107 0
M  V30 916 C 91.9638 4.37837 3.70251 0
M  V30 917 N 91.4598 5.38286 4.36142 0
M  V30 918 N 93.2528 4.25558 3.67228 0
M  V30 919 H 85.4038 2.07236 0.465499 0
M  V30 920 H 87.6668 0.909236 0.268315 0
M  V30 921 H 87.3728 3.15771 1.54861 0
M  V30 922 H 87.2468 2.23698 3.03709 0
M  V30 923 H 89.6338 1.33078 2.6339 0
M  V30 924 H 89.7148 2.28645 1.14696 0
M  V30 925 H 89.3588 4.41029 2.51905 0
M  V30 926 H 89.2888 3.42393 4.00093 0
M  V30 927 H 91.7798 2.74966 2.59233 0
M  V30 928 H 92.0928 6.03352 4.82894 0
M  V30 929 H 90.4378 5.42176 4.34822 0
M  V30 930 H 93.6288 3.46322 3.14927 0
M  V30 931 H 93.8018 4.96054 4.16935 0
M  V30 932 N 87.2079 -1.17134 1.05439 0
M  V30 933 C 88.4549 -1.87456 0.765942 0
M  V30 934 C 88.7829 -1.81189 -0.707153 0
M  V30 935 O 88.0379 -1.21633 -1.5331 0
M  V30 936 C 88.3369 -3.36833 1.19491 0
M  V30 937 C 88.0029 -3.63301 2.67063 0
M  V30 938 C 86.6649 -3.70234 3.07376 0
M  V30 939 C 89.0169 -3.74575 3.62413 0
M  V30 940 C 86.3449 -3.85933 4.41896 0
M  V30 941 C 88.6969 -3.91793 4.9667 0
M  V30 942 C 87.3609 -3.96966 5.36633 0
M  V30 943 H 86.6309 -0.685948 0.280278 0
M  V30 944 H 89.2779 -1.38556 1.32192 0
M  V30 945 H 87.5829 -3.87807 0.557969 0
M  V30 946 H 89.2799 -3.89611 0.948893 0
M  V30 947 H 85.8699 -3.58532 2.34846 0
M  V30 948 H 90.0539 -3.68537 3.32406 0
M  V30 949 H 85.3099 -3.88187 4.72357 0
M  V30 950 H 89.4839 -3.99458 5.70444 0
M  V30 951 H 87.1109 -4.08883 6.40874 0
M  V30 952 N 88.686 -0.835752 -1.33615 0
M  V30 953 C 89.963 -0.352017 -1.92406 0
M  V30 954 C 90.343 1.16225 -1.76224 0
M  V30 955 O 89.691 1.97526 -1.14873 0
M  V30 956 C 89.901 -0.795485 -3.39813 0
M  V30 957 C 91.249 -0.801703 -4.16963 0
M  V30 958 O 92.273 -0.738889 -3.48452 0
M  V30 959 O 91.132 -0.886607 -5.3926 0
M  V30 960 H 88.226 -0.0989641 -0.821057 0
M  V30 961 H 90.772 -0.921397 -1.42507 0
M  V30 962 H 89.544 -1.83795 -3.45449 0
M  V30 963 H 89.167 -0.202505 -3.97084 0
M  V30 964 N 90.1641 1.46063 -0.591896 0
M  V30 965 C 91.1271 2.28854 0.125973 0
M  V30 966 C 92.1271 1.38903 0.810107 0
M  V30 967 O 93.3171 1.61186 0.66066 0
M  V30 968 C 90.4491 3.19526 1.1881 0
M  V30 969 H 91.6421 2.93802 -0.601717 0
M  V30 970 H 89.1951 1.52325 -0.350254 0
M  V30 971 H 89.9301 2.59345 1.94707 0
M  V30 972 H 89.7151 3.85766 0.701936 0
M  V30 973 H 91.2051 3.81817 1.69132 0
M  V30 974 N 91.6422 0.330177 1.54103 0
M  V30 975 C 92.8672 -0.274893 2.0557 0
M  V30 976 C 93.2922 -1.44487 1.20437 0
M  V30 977 O 92.6502 -1.80021 0.214991 0
M  V30 978 C 92.6982 -0.68079 3.54115 0
M  V30 979 O 91.8022 -1.7824 3.71893 0
M  V30 980 H 91.1432 -0.0483849 0.662235 0
M  V30 981 H 93.6732 0.480508 1.98878 0
M  V30 982 H 93.6832 -0.961635 3.96505 0
M  V30 983 H 92.3582 0.174903 4.15532 0
M  V30 984 H 90.9352 -1.49985 3.41407 0
M  V30 985 N 93.1203 -1.57491 0.0584922 0
M  V30 986 C 94.3673 -1.92978 -0.613648 0
M  V30 987 C 94.6953 -0.937461 -1.70417 0
M  V30 988 O 93.9503 0.049078 -1.95638 0
M  V30 989 C 94.2493 -3.3513 -1.24188 0
M  V30 990 C 93.9153 -4.50037 -0.278826 0
M  V30 991 C 92.5773 -4.81198 -0.0138447 0
M  V30 992 C 94.9293 -5.19807 0.380777 0
M  V30 993 C 92.2573 -5.79473 0.918052 0
M  V30 994 C 94.6093 -6.19079 1.30091 0
M  V30 995 C 93.2733 -6.48665 1.57449 0
M  V30 996 H 92.5433 -0.706157 -0.22455 0
M  V30 997 H 95.1903 -1.91082 0.126533 0
M  V30 998 H 93.4953 -3.33429 -2.05749 0
M  V30 999 H 95.1923 -3.59871 -1.769 0
M  V30 1000 H 91.7823 -4.25726 -0.495539 0
M  V30 1001 H 95.9663 -4.95939 0.189158 0
M  V30 1002 H 91.2223 -6.00727 1.1374 0
M  V30 1003 H 95.3963 -6.7225 1.81804 0
M  V30 1004 H 93.0233 -7.24628 2.29822 0
M  V30 1005 N 94.5984 0.214957 -1.56127 0
M  V30 1006 C 95.8454 0.938372 -1.79446 0
M  V30 1007 C 96.1734 1.8407 -0.628378 0
M  V30 1008 O 95.4284 1.91837 0.386925 0
M  V30 1009 C 95.7274 1.80314 -3.0858 0
M  V30 1010 C 95.3934 1.05349 -4.3842 0
M  V30 1011 C 94.0554 0.846435 -4.73697 0
M  V30 1012 C 96.4074 0.524588 -5.18553 0
M  V30 1013 C 93.7354 0.098683 -5.86617 0
M  V30 1014 C 96.0874 -0.209853 -6.32252 0
M  V30 1015 C 94.7514 -0.428102 -6.66126 0
M  V30 1016 H 94.0214 0.343375 -0.656639 0
M  V30 1017 H 96.6684 0.206077 -1.90388 0
M  V30 1018 H 94.9734 2.6035 -2.92789 0
M  V30 1019 H 96.6704 2.36513 -3.23825 0
M  V30 1020 H 93.2604 1.22486 -4.10725 0
M  V30 1021 H 97.4444 0.672008 -4.91729 0
M  V30 1022 H 92.7004 -0.0805753 -6.11347 0
M  V30 1023 H 96.8744 -0.627157 -6.9357 0
M  V30 1024 H 94.5014 -1.00944 -7.53468 0
M  V30 1025 N 96.0765 1.50051 0.48192 0
M  V30 1026 C 97.3245 1.60181 1.23234 0
M  V30 1027 C 97.6455 0.299176 1.92691 0
M  V30 1028 O 96.9155 -0.682708 1.83619 0
M  V30 1029 H 95.4955 0.590232 0.457859 0
M  V30 1030 H 98.1575 1.86775 0.556881 0
M  V30 1031 H 97.2535 2.40753 1.98607 0
M  V30 1032 N 97.5546 -0.734337 1.39446 0
M  V30 1033 C 98.8006 -1.49613 1.36908 0
M  V30 1034 C 99.1336 -1.94169 -0.0347829 0
M  V30 1035 O 98.4086 -1.66833 -0.999847 0
M  V30 1036 C 98.6916 -2.73534 2.34203 0
M  V30 1037 C 98.5446 -2.34993 3.83534 0
M  V30 1038 C 99.8636 -3.75635 2.29317 0
M  V30 1039 H 96.9826 -0.542714 0.498629 0
M  V30 1040 H 99.6246 -0.839597 1.70443 0
M  V30 1041 H 97.7746 -3.29553 2.05736 0
M  V30 1042 H 99.4466 -1.84601 4.22753 0
M  V30 1043 H 97.6896 -1.67213 4.00278 0
M  V30 1044 H 98.3606 -3.23738 4.47099 0
M  V30 1045 H 100.837 -3.29203 2.54489 0
M  V30 1046 H 99.7126 -4.60008 2.99472 0
M  V30 1047 H 99.9736 -4.22603 1.29842 0
M  V30 1048 N 99.0327 -1.24633 -0.964593 0
M  V30 1049 C 99.9827 -1.00841 -2.04487 0
M  V30 1050 C 100.967 0.0512468 -1.60818 0
M  V30 1051 O 102.159 -0.162865 -1.76249 0
M  V30 1052 C 99.2877 -0.618474 -3.37683 0
M  V30 1053 C 98.3737 -1.71437 -3.87905 0
M  V30 1054 N 98.7647 -2.9477 -4.11029 0
M  V30 1055 C 97.0627 -1.5926 -4.16596 0
M  V30 1056 C 97.7637 -3.65834 -4.52261 0
M  V30 1057 N 96.7397 -2.9341 -4.57615 0
M  V30 1058 H 100.542 -1.94487 -2.20345 0
M  V30 1059 H 98.0557 -1.14805 -1.14863 0
M  V30 1060 H 100.053 -0.429247 -4.14684 0
M  V30 1061 H 98.7127 0.310766 -3.23209 0
M  V30 1062 H 99.7237 -3.30917 -3.9839 0
M  V30 1063 H 96.4007 -0.731606 -4.1104 0
M  V30 1064 H 97.7907 -4.71646 -4.78539 0
M  V30 1065 N 100.511 1.16574 -1.06058 0
M  V30 1066 C 101.922 1.68662 -0.800632 0
M  V30 1067 C 102.273 1.84184 0.67608 0
M  V30 1068 O 101.398 1.53568 1.52466 0
M  V30 1069 C 101.993 3.06356 -1.44676 0
M  V30 1070 C 100.552 3.55575 -1.23465 0
M  V30 1071 C 99.6988 2.31616 -1.52477 0
M  V30 1072 H 102.65 1.00969 -1.22438 0
M  V30 1073 H 102.671 3.70636 -0.860788 0
M  V30 1074 H 102.183 2.95027 -2.52152 0
M  V30 1075 H 100.284 3.72167 -0.179527 0
M  V30 1076 H 100.397 4.37812 -1.94571 0
M  V30 1077 H 98.7608 2.36512 -0.945209 0
M  V30 1078 H 99.5438 2.22887 -2.61106 0
M  V30 1079 N 101.989 0.842826 1.3317 0
M  V30 1080 C 102.936 0.276885 2.29133 0
M  V30 1081 C 103.906 -0.609527 1.54512 0
M  V30 1082 O 105.091 -0.546955 1.82792 0
M  V30 1083 C 102.231 -0.538707 3.40869 0
M  V30 1084 C 101.344 0.372169 4.30394 0
M  V30 1085 C 100.479 -0.454908 5.29249 0
M  V30 1086 C 99.5179 0.45411 6.10413 0
M  V30 1087 N 98.6549 -0.335075 7.013 0
M  V30 1088 H 103.495 1.10052 2.76934 0
M  V30 1089 H 101.032 0.554161 1.36262 0
M  V30 1090 H 102.99 -1.02709 4.0436 0
M  V30 1091 H 101.62 -1.32727 2.9425 0
M  V30 1092 H 100.672 0.97888 3.6759 0
M  V30 1093 H 101.984 1.0703 4.87182 0
M  V30 1094 H 101.138 -1.00695 5.98285 0
M  V30 1095 H 99.8769 -1.18646 4.73048 0
M  V30 1096 H 98.8819 1.01813 5.40291 0
M  V30 1097 H 100.107 1.18409 6.68697 0
M  V30 1098 H 98.0529 -1.04994 6.47543 0
M  V30 1099 H 97.9699 0.304262 7.55387 0
M  V30 1100 H 99.2379 -0.869224 7.74638 0
M  V30 1101 N 103.467 -1.45747 0.599634 0
M  V30 1102 C 104.399 -2.28628 -0.161879 0
M  V30 1103 C 105.412 -1.39494 -0.839367 0
M  V30 1104 O 106.601 -1.63941 -0.706089 0
M  V30 1105 C 103.701 -3.15014 -1.24976 0
M  V30 1106 C 102.874 -4.32378 -0.660935 0
M  V30 1107 C 101.933 -5.00033 -1.63869 0
M  V30 1108 O 100.959 -5.57085 -1.1681 0
M  V30 1109 N 102.161 -4.98589 -2.97303 0
M  V30 1110 H 104.926 -2.94624 0.549265 0
M  V30 1111 H 102.487 -1.55847 0.438565 0
M  V30 1112 H 104.479 -3.5714 -1.9035 0
M  V30 1113 H 103.049 -2.5098 -1.86354 0
M  V30 1114 H 102.269 -3.9383 0.170688 0
M  V30 1115 H 103.557 -5.08197 -0.247619 0
M  V30 1116 H 102.955 -4.53514 -3.38145 0
M  V30 1117 H 101.512 -5.44603 -3.58121 0
M  V30 1118 N 104.945 -0.338344 -1.53925 0
M  V30 1119 C 105.908 0.508299 -2.23493 0
M  V30 1120 C 106.908 1.03175 -1.23335 0
M  V30 1121 O 108.098 0.921826 -1.47811 0
M  V30 1122 C 105.23 1.70754 -2.95052 0
M  V30 1123 H 106.423 -0.100058 -2.99733 0
M  V30 1124 H 103.976 -0.0896198 -1.56043 0
M  V30 1125 H 104.711 2.35474 -2.22986 0
M  V30 1126 H 104.496 1.33946 -3.68512 0
M  V30 1127 H 105.986 2.30818 -3.48013 0
M  V30 1128 N 106.423 1.57458 -0.0668435 0
M  V30 1129 C 107.373 2.0896 0.912119 0
M  V30 1130 C 108.357 0.998186 1.26195 0
M  V30 1131 O 109.549 1.26133 1.24175 0
M  V30 1132 C 106.678 2.6508 2.18145 0
M  V30 1133 C 105.764 3.81218 1.85832 0
M  V30 1134 N 106.155 4.90378 1.23948 0
M  V30 1135 C 104.453 3.9042 2.15612 0
M  V30 1136 C 105.154 5.71279 1.09616 0
M  V30 1137 N 104.13 5.19389 1.60423 0
M  V30 1138 H 107.932 2.90749 0.42924 0
M  V30 1139 H 105.446 1.6182 0.137184 0
M  V30 1140 H 107.443 3.0029 2.89192 0
M  V30 1141 H 106.103 1.84736 2.67025 0
M  V30 1142 H 107.114 5.09847 0.909731 0
M  V30 1143 H 103.791 3.21043 2.66903 0
M  V30 1144 H 105.181 6.69085 0.614425 0
M  V30 1145 N 107.901 -0.206675 1.56239 0
M  V30 1146 C 109.129 -0.945345 1.8404 0
M  V30 1147 C 109.544 -1.77336 0.647885 0
M  V30 1148 O 108.901 -1.78425 -0.383511 0
M  V30 1149 C 108.952 -1.8509 3.10522 0
M  V30 1150 O 108.673 -1.05634 4.25174 0
M  V30 1151 C 110.174 -2.70222 3.51418 0
M  V30 1152 H 107.394 -0.276372 0.61144 0
M  V30 1153 H 109.938 -0.217417 2.03341 0
M  V30 1154 H 108.093 -2.53259 2.93153 0
M  V30 1155 H 108.507 -1.67238 4.97124 0
M  V30 1156 H 109.981 -3.29438 4.42916 0
M  V30 1157 H 110.458 -3.43358 2.73864 0
M  V30 1158 H 111.064 -2.07443 3.71278 0
M  V30 1159 N 109.379 -1.50304 -0.473955 0
M  V30 1160 C 110.312 -1.63595 -1.59097 0
M  V30 1161 C 111.29 -0.484142 -1.55225 0
M  V30 1162 O 112.474 -0.703271 -1.7489 0
M  V30 1163 C 109.601 -1.61589 -2.97669 0
M  V30 1164 C 108.647 -2.82295 -3.19705 0
M  V30 1165 S 109.48 -4.43635 -2.99913 0
M  V30 1166 C 110.636 -4.44317 -4.40832 0
M  V30 1167 H 110.869 -2.58082 -1.47583 0
M  V30 1168 H 108.402 -1.39531 -0.661087 0
M  V30 1169 H 110.36 -1.61116 -3.7756 0
M  V30 1170 H 109.021 -0.683421 -3.06575 0
M  V30 1171 H 108.214 -2.77188 -4.20931 0
M  V30 1172 H 107.816 -2.8032 -2.47582 0
M  V30 1173 H 110.108 -4.17703 -5.33414 0
M  V30 1174 H 111.051 -5.45911 -4.50984 0
M  V30 1175 H 111.459 -3.74059 -4.22777 0
M  V30 1176 N 110.857 0.726932 -1.39834 0
M  V30 1177 C 112.134 1.47902 -1.28001 0
M  V30 1178 C 112.514 2.1083 0.106789 0
M  V30 1179 O 111.862 1.99242 1.11869 0
M  V30 1180 C 112.072 2.52392 -2.41038 0
M  V30 1181 C 113.42 3.18546 -2.80737 0
M  V30 1182 O 114.444 2.62708 -2.40547 0
M  V30 1183 O 113.303 4.19604 -3.50135 0
M  V30 1184 H 110.397 0.657163 -0.502062 0
M  V30 1185 H 112.943 0.760071 -1.51727 0
M  V30 1186 H 111.715 2.04329 -3.33715 0
M  V30 1187 H 111.338 3.31837 -2.19021 0
M  V30 1188 N 112.336 1.25143 0.95797 0
M  V30 1189 C 113.747 1.08851 1.51685 0
M  V30 1190 C 114.098 -0.33687 1.93286 0
M  V30 1191 O 113.223 -1.22644 1.7829 0
M  V30 1192 C 113.818 1.96978 2.75654 0
M  V30 1193 C 112.377 1.84881 3.27866 0
M  V30 1194 C 111.524 1.91329 2.0072 0
M  V30 1195 H 114.475 1.38478 0.77522 0
M  V30 1196 H 114.496 1.5078 3.4935 0
M  V30 1197 H 114.008 3.00712 2.45345 0
M  V30 1198 H 112.109 0.840182 3.63004 0
M  V30 1199 H 112.222 2.6951 3.96107 0
M  V30 1200 H 110.586 1.35174 2.15871 0
M  V30 1201 H 111.369 2.96661 1.72764 0
M  V30 1202 N 113.814 -1.1601 1.06675 0
M  V30 1203 C 114.746 -2.20115 0.638921 0
M  V30 1204 C 115.759 -1.59916 -0.305057 0
M  V30 1205 O 116.948 -1.78245 -0.0954446 0
M  V30 1206 C 114.048 -3.38798 -0.0830083 0
M  V30 1207 C 113.221 -4.2855 0.875426 0
M  V30 1208 C 112.28 -5.25849 0.192042 0
M  V30 1209 O 111.306 -5.63102 0.830921 0
M  V30 1210 N 112.508 -5.70648 -1.06493 0
M  V30 1211 H 115.273 -2.57439 1.53444 0
M  V30 1212 H 112.834 -1.31057 0.950557 0
M  V30 1213 H 114.826 -4.00936 -0.550685 0
M  V30 1214 H 113.396 -2.99947 -0.880386 0
M  V30 1215 H 112.616 -3.63617 1.52238 0
M  V30 1216 H 113.904 -4.85393 1.52548 0
M  V30 1217 H 113.302 -5.42482 -1.60405 0
M  V30 1218 H 111.859 -6.34859 -1.47641 0
M  V30 1219 N 115.292 -0.849877 -1.32721 0
M  V30 1220 C 116.222 -0.306308 -2.31482 0
M  V30 1221 C 117.203 0.591952 -1.59468 0
M  V30 1222 O 118.388 0.513199 -1.87296 0
M  V30 1223 C 115.518 0.510204 -3.43532 0
M  V30 1224 C 114.472 -0.293209 -4.26994 0
M  V30 1225 C 113.798 0.647743 -5.30762 0
M  V30 1226 C 115.098 -1.51634 -4.99804 0
M  V30 1227 H 116.792 -1.13153 -2.77195 0
M  V30 1228 H 114.338 -0.545553 -1.33266 0
M  V30 1229 H 116.291 0.900856 -4.11658 0
M  V30 1230 H 115.015 1.36874 -2.96535 0
M  V30 1231 H 113.674 -0.665555 -3.60508 0
M  V30 1232 H 113.322 1.50299 -4.8002 0
M  V30 1233 H 113.022 0.11422 -5.87489 0
M  V30 1234 H 114.546 1.03567 -6.01753 0
M  V30 1235 H 115.96 -1.19824 -5.60638 0
M  V30 1236 H 114.357 -1.98745 -5.66234 0
M  V30 1237 H 115.427 -2.28018 -4.27943 0
M  V30 1238 N 116.77 1.45427 -0.607355 0
M  V30 1239 C 118.186 1.57283 -0.270985 0
M  V30 1240 C 118.386 1.59875 1.22647 0
M  V30 1241 O 117.442 1.52893 2.00948 0
M  V30 1242 C 118.755 2.85566 -0.941952 0
M  V30 1243 C 120.303 2.9924 -0.917849 0
M  V30 1244 C 120.778 4.30293 -1.56882 0
M  V30 1245 N 122.269 4.37051 -1.5343 0
M  V30 1246 C 123.004 5.37123 -2.00715 0
M  V30 1247 N 122.5 6.43734 -2.56084 0
M  V30 1248 N 124.293 5.28479 -1.91484 0
M  V30 1249 H 116.444 1.41988 -1.57966 0
M  V30 1250 H 118.707 0.67885 -0.661715 0
M  V30 1251 H 118.413 2.8955 -1.99633 0
M  V30 1252 H 118.287 3.74322 -0.465096 0
M  V30 1253 H 120.674 2.94822 0.127984 0
M  V30 1254 H 120.755 2.11895 -1.43297 0
M  V30 1255 H 120.399 4.35469 -2.61398 0
M  V30 1256 H 120.329 5.16454 -1.02873 0
M  V30 1257 H 122.82 3.60615 -1.12982 0
M  V30 1258 H 123.133 7.16341 -2.89958 0
M  V30 1259 H 121.478 6.44485 -2.60122 0
M  V30 1260 H 124.669 4.44098 -1.47967 0
M  V30 1261 H 124.842 6.0632 -2.28648 0
M  V30 1262 N 118.248 0.346503 1.53744 0
M  V30 1263 C 119.178 -0.501193 2.28058 0
M  V30 1264 C 120.159 -1.10014 1.29734 0
M  V30 1265 O 121.344 -1.12097 1.58581 0
M  V30 1266 C 118.474 -1.65078 3.05559 0
M  V30 1267 C 117.428 -1.18003 4.11411 0
M  V30 1268 C 116.754 -2.41837 4.76884 0
M  V30 1269 C 118.054 -0.278394 5.21558 0
M  V30 1270 H 119.748 0.11875 2.99164 0
M  V30 1271 H 117.294 0.0585531 1.43881 0
M  V30 1272 H 119.247 -2.25028 3.56287 0
M  V30 1273 H 117.971 -2.29767 2.32109 0
M  V30 1274 H 116.63 -0.603331 3.61601 0
M  V30 1275 H 116.278 -3.0494 4.00026 0
M  V30 1276 H 115.978 -2.1102 5.48402 0
M  V30 1277 H 117.502 -3.02508 5.30397 0
M  V30 1278 H 118.916 -0.784823 5.67903 0
M  V30 1279 H 117.313 -0.0619707 6.00068 0
M  V30 1280 H 118.383 0.684677 4.80042 0
M  V30 1281 N 119.726 -1.57421 0.075193 0
M  V30 1282 C 120.656 -2.15942 -0.888324 0
M  V30 1283 C 121.637 -1.08737 -1.30806 0
M  V30 1284 O 122.822 -1.36787 -1.37851 0
M  V30 1285 C 119.952 -2.72379 -2.1547 0
M  V30 1286 C 118.906 -3.8478 -1.87425 0
M  V30 1287 C 118.232 -4.27834 -3.20721 0
M  V30 1288 C 119.532 -5.08869 -1.17684 0
M  V30 1289 H 121.226 -2.96705 -0.400799 0
M  V30 1290 H 118.772 -1.42723 -0.191342 0
M  V30 1291 H 120.725 -3.11965 -2.83295 0
M  V30 1292 H 119.449 -1.88841 -2.6647 0
M  V30 1293 H 118.108 -3.45703 -1.22004 0
M  V30 1294 H 117.756 -3.41214 -3.6957 0
M  V30 1295 H 117.456 -5.03605 -3.02746 0
M  V30 1296 H 118.98 -4.70039 -3.89738 0
M  V30 1297 H 120.394 -5.4575 -1.75584 0
M  V30 1298 H 118.791 -5.8994 -1.09956 0
M  V30 1299 H 119.861 -4.84648 -0.156453 0
M  V30 1300 N 121.204 0.198386 -1.56346 0
M  V30 1301 C 122.134 1.24865 -1.9731 0
M  V30 1302 C 123.115 1.47651 -0.844576 0
M  V30 1303 O 124.3 1.59444 -1.10866 0
M  V30 1304 C 121.43 2.59358 -2.30977 0
M  V30 1305 C 120.384 2.5119 -3.46537 0
M  V30 1306 C 119.71 3.89926 -3.65871 0
M  V30 1307 C 121.01 2.03977 -4.80823 0
M  V30 1308 H 122.704 0.908252 -2.85291 0
M  V30 1309 H 120.25 0.435462 -1.37258 0
M  V30 1310 H 122.203 3.33011 -2.58228 0
M  V30 1311 H 120.927 2.95132 -1.39874 0
M  V30 1312 H 119.586 1.79993 -3.19371 0
M  V30 1313 H 119.234 4.23046 -2.72105 0
M  V30 1314 H 118.934 3.85336 -4.4361 0
M  V30 1315 H 120.458 4.65205 -3.95495 0
M  V30 1316 H 121.872 2.67386 -5.07127 0
M  V30 1317 H 120.269 2.10397 -5.62008 0
M  V30 1318 H 121.339 0.992861 -4.74626 0
M  V30 1319 N 122.682 1.50554 0.465978 0
M  V30 1320 C 123.592 1.72585 1.58907 0
M  V30 1321 C 124.608 0.60911 1.6299 0
M  V30 1322 O 125.784 0.88804 1.80765 0
M  V30 1323 C 122.849 1.81995 2.95091 0
M  V30 1324 C 121.91 3.05751 3.01355 0
M  V30 1325 C 121.143 3.14702 4.31043 0
M  V30 1326 O 121.366 2.30313 5.21835 0
M  V30 1327 O 120.3 4.07468 4.43005 0
M  V30 1328 H 124.126 2.67799 1.43239 0
M  V30 1329 H 121.711 1.34711 0.646013 0
M  V30 1330 H 123.593 1.90335 3.75966 0
M  V30 1331 H 122.268 0.899659 3.10947 0
M  V30 1332 H 121.175 3.02908 2.19539 0
M  V30 1333 H 122.508 3.97375 2.90437 0
M  V30 1334 N 124.16 -0.719506 1.40217 0
M  V30 1335 C 125.406 -1.48152 1.38488 0
M  V30 1336 C 125.739 -1.94195 -0.0141867 0
M  V30 1337 O 125.014 -1.67884 -0.982096 0
M  V30 1338 C 125.297 -2.71035 2.37091 0
M  V30 1339 C 125.15 -2.30912 3.86005 0
M  V30 1340 C 126.469 -3.73182 2.33288 0
M  V30 1341 H 123.588 -0.537395 0.504357 0
M  V30 1342 H 126.23 -0.821472 1.71324 0
M  V30 1343 H 124.38 -3.27352 2.0922 0
M  V30 1344 H 126.052 -1.80107 4.24687 0
M  V30 1345 H 124.295 -1.62958 4.02029 0
M  V30 1346 H 124.966 -3.18978 4.50508 0
M  V30 1347 H 127.442 -3.26485 2.57966 0
M  V30 1348 H 126.318 -4.56806 3.04334 0
M  V30 1349 H 126.579 -4.21202 1.34317 0
M  V30 1350 N 125.638 -1.25649 -0.95132 0
M  V30 1351 C 126.866 -1.13343 -1.73092 0
M  V30 1352 C 127.281 0.312434 -1.86197 0
M  V30 1353 O 126.638 1.21465 -1.36207 0
M  V30 1354 C 126.689 -1.78602 -3.14299 0
M  V30 1355 O 126.41 -3.17537 -3.01831 0
M  V30 1356 C 127.911 -1.72119 -4.08522 0
M  V30 1357 H 125.131 -0.395181 -0.542285 0
M  V30 1358 H 127.675 -1.66076 -1.19328 0
M  V30 1359 H 125.83 -1.29832 -3.64996 0
M  V30 1360 H 126.244 -3.49676 -3.90931 0
M  V30 1361 H 127.718 -2.22435 -5.052 0
M  V30 1362 H 128.195 -0.685635 -4.33815 0
M  V30 1363 H 128.801 -2.20393 -3.63741 0
M  V30 1364 N 127.117 1.15442 -1.07289 0
M  V30 1365 C 128.347 1.89821 -0.815576 0
M  V30 1366 C 128.755 1.7823 0.634867 0
M  V30 1367 O 128.098 1.13152 1.44715 0
M  V30 1368 C 128.16 3.40817 -1.14385 0
M  V30 1369 C 127.824 3.76193 -2.59476 0
M  V30 1370 C 128.821 3.77269 -3.57721 0
M  V30 1371 C 126.506 4.0652 -2.95037 0
M  V30 1372 C 128.5 4.08176 -4.89562 0
M  V30 1373 C 126.187 4.37092 -4.27076 0
M  V30 1374 C 127.185 4.37902 -5.24148 0
M  V30 1375 O 126.873 4.67741 -6.53815 0
M  V30 1376 H 126.605 0.608465 -0.294528 0
M  V30 1377 H 129.159 1.472 -1.43252 0
M  V30 1378 H 127.389 3.83835 -0.469865 0
M  V30 1379 H 129.078 3.96485 -0.869179 0
M  V30 1380 H 129.844 3.5394 -3.3159 0
M  V30 1381 H 125.723 4.05049 -2.20128 0
M  V30 1382 H 129.267 4.08723 -5.65324 0
M  V30 1383 H 125.164 4.59889 -4.5296 0
M  V30 1384 H 125.932 4.85509 -6.58957 0
M  V30 1385 N 128.595 0.856903 1.32268 0
M  V30 1386 C 129.505 0.306131 2.32594 0
M  V30 1387 C 130.521 -0.577209 1.64147 0
M  V30 1388 O 131.697 -0.477043 1.95669 0
M  V30 1389 C 128.762 -0.494561 3.43154 0
M  V30 1390 C 127.823 0.415186 4.27288 0
M  V30 1391 C 127.056 -0.347387 5.32568 0
M  V30 1392 O 127.279 -1.57708 5.48165 0
M  V30 1393 O 126.213 0.287982 6.01211 0
M  V30 1394 H 130.039 1.13737 2.81598 0
M  V30 1395 H 127.624 0.619902 1.35932 0
M  V30 1396 H 129.506 -0.948944 4.10576 0
M  V30 1397 H 128.181 -1.30257 2.96336 0
M  V30 1398 H 127.088 0.917793 3.62667 0
M  V30 1399 H 128.421 1.18844 4.77637 0
M  V30 1400 N 130.073 -1.45103 0.615059 0
M  V30 1401 C 131.036 -2.29025 -0.0895485 0
M  V30 1402 C 132.036 -1.40174 -0.787906 0
M  V30 1403 O 133.226 -1.62217 -0.634933 0
M  V30 1404 C 130.358 -3.21376 -1.13711 0
M  V30 1405 H 131.551 -2.92807 0.648382 0
M  V30 1406 H 129.104 -1.51749 0.374444 0
M  V30 1407 H 129.839 -2.6241 -1.90556 0
M  V30 1408 H 129.624 -3.86834 -0.640475 0
M  V30 1409 H 131.114 -3.84459 -1.63036 0
M  V30 1410 N 131.551 -0.354651 -1.53558 0
M  V30 1411 C 132.8 0.239504 -2.00273 0
M  V30 1412 C 133.113 1.50759 -1.24623 0
M  V30 1413 O 134.319 2.17968 -1.61871 0
M  V30 1414 C 132.775 0.477341 -3.5672 0
M  V30 1415 C 132.383 -0.775488 -4.41237 0
M  V30 1416 C 134.127 1.02975 -4.11821 0
M  V30 1417 C 132.034 -0.507838 -5.89216 0
M  V30 1418 H 130.964 0.0932743 -0.748208 0
M  V30 1419 H 133.615 -0.471701 -1.77334 0
M  V30 1420 H 131.997 1.24953 -3.7577 0
M  V30 1421 H 133.171 -1.54963 -4.33962 0
M  V30 1422 H 131.486 -1.25033 -3.97185 0
M  V30 1423 H 134.083 1.24513 -5.2 0
M  V30 1424 H 134.426 1.98862 -3.65731 0
M  V30 1425 H 134.959 0.317994 -3.96527 0
M  V30 1426 H 131.698 -1.43674 -6.39561 0
M  V30 1427 H 131.218 0.228011 -5.99366 0
M  V30 1428 H 132.897 -0.129238 -6.46871 0
M  V30 1429 N 133.029 1.57378 -0.0835403 0
M  V30 1430 C 134.275 1.94217 0.583733 0
M  V30 1431 C 134.608 0.964653 1.68547 0
M  V30 1432 O 133.883 -0.00422258 1.945 0
M  V30 1433 C 134.166 3.41253 1.14972 0
M  V30 1434 C 134.019 4.49768 0.0538277 0
M  V30 1435 C 135.338 3.89352 2.05166 0
M  V30 1436 H 132.457 0.706233 0.210724 0
M  V30 1437 H 135.099 1.89392 -0.1519 0
M  V30 1438 H 133.249 3.45496 1.77665 0
M  V30 1439 H 134.921 4.57641 -0.579851 0
M  V30 1440 H 133.164 4.29432 -0.614068 0
M  V30 1441 H 133.835 5.49817 0.490452 0
M  V30 1442 H 136.311 3.87189 1.52393 0
M  V30 1443 H 135.187 4.92822 2.41698 0
M  V30 1444 H 135.448 3.27973 2.96456 0
M  V30 1445 N 134.507 -0.190092 1.56449 0
M  V30 1446 C 135.784 -0.935886 1.71757 0
M  V30 1447 C 136.164 -2.01173 0.639726 0
M  V30 1448 O 135.512 -2.25827 -0.348502 0
M  V30 1449 C 135.722 -1.51775 3.1427 0
M  V30 1450 C 137.07 -1.99794 3.74656 0
M  V30 1451 O 138.094 -1.61607 3.1743 0
M  V30 1452 O 136.953 -2.70079 4.751 0
M  V30 1453 H 134.047 -0.439229 0.700719 0
M  V30 1454 H 136.593 -0.179395 1.68749 0
M  V30 1455 H 135.365 -0.742505 3.84191 0
M  V30 1456 H 134.988 -2.33894 3.21527 0
M  V30 1457 N 135.985 -1.50799 -0.457987 0
M  V30 1458 C 137.233 -1.62121 -1.2067 0
M  V30 1459 C 137.554 -0.329793 -1.92191 0
M  V30 1460 O 136.824 0.653409 -1.84682 0
M  V30 1461 H 135.404 -0.597441 -0.448411 0
M  V30 1462 H 138.066 -1.87637 -0.527096 0
M  V30 1463 H 137.162 -2.43882 -1.94751 0
M  V30 1464 N 137.463 0.71206 -1.40597 0
M  V30 1465 C 138.711 1.46907 -1.38791 0
M  V30 1466 C 139.032 1.94998 0.00780391 0
M  V30 1467 O 138.302 1.70587 0.963174 0
M  V30 1468 H 136.882 0.545043 -0.51082 0
M  V30 1469 H 139.544 0.843882 -1.75683 0
M  V30 1470 H 138.64 2.34021 -2.06496 0
M  V30 1471 N 138.941 1.26152 0.944643 0
M  V30 1472 C 140.19 1.10883 1.68487 0
M  V30 1473 C 140.503 -0.348153 1.92477 0
M  V30 1474 O 141.709 -0.621459 2.64292 0
M  V30 1475 C 140.165 1.93624 3.03377 0
M  V30 1476 C 139.773 3.43875 2.87148 0
M  V30 1477 C 141.517 1.86954 3.81115 0
M  V30 1478 C 139.424 4.18875 4.1749 0
M  V30 1479 H 138.354 0.41135 0.631907 0
M  V30 1480 H 141.005 1.50433 1.05082 0
M  V30 1481 H 139.387 1.46904 3.67743 0
M  V30 1482 H 140.561 3.98338 2.31653 0
M  V30 1483 H 138.876 3.51744 2.22856 0
M  V30 1484 H 141.473 2.40275 4.77673 0
M  V30 1485 H 141.816 0.839518 4.07747 0
M  V30 1486 H 142.349 2.31477 3.23517 0
M  V30 1487 H 139.088 5.22332 3.96043 0
M  V30 1488 H 138.608 3.69193 4.72712 0
M  V30 1489 H 140.287 4.27134 4.85968 0
M  V30 1490 N 140.419 -1.14872 1.07899 0
M  V30 1491 C 141.367 -2.21857 0.698727 0
M  V30 1492 C 142.361 -1.66845 -0.293086 0
M  V30 1493 O 143.567 -1.79321 -0.156204 0
M  V30 1494 H 139.942 -0.722691 0.207899 0
M  V30 1495 H 141.913 -2.51205 1.61054 0
M  V30 1496 C 140.662 -3.47498 0.11858 0
M  V30 1497 H 139.985 -3.90154 0.872914 0
M  V30 1498 H 141.425 -4.23858 -0.109759 0
M  V30 1499 C 139.884 -3.16947 -1.1422 0
M  V30 1500 O 140.414 -3.3426 -2.22785 0
M  V30 1501 N 138.62 -2.70946 -1.05055 0
M  V30 1502 H 138.167 -2.57058 -0.167038 0
M  V30 1503 H 138.125 -2.50879 -1.89491 0
M  V30 1504 N 141.898 -0.863906 -1.31812 0
M  V30 1505 C 143.309 -0.52522 -1.7916 0
M  V30 1506 C 143.66 0.957518 -1.71248 0
M  V30 1507 O 142.785 1.74734 -1.27659 0
M  V30 1508 C 143.38 -0.9466 -3.25307 0
M  V30 1509 C 141.939 -0.659668 -3.70574 0
M  V30 1510 C 141.086 -1.14126 -2.52726 0
M  V30 1511 H 144.037 -1.05022 -1.1898 0
M  V30 1512 H 144.058 -0.266766 -3.79564 0
M  V30 1513 H 143.57 -2.02579 -3.31034 0
M  V30 1514 H 141.671 0.408416 -3.70355 0
M  V30 1515 H 141.784 -1.23245 -4.62977 0
M  V30 1516 H 140.148 -0.561216 -2.4844 0
M  V30 1517 H 140.931 -2.22775 -2.61201 0
M  V30 1518 N 143.376 1.44774 -0.622745 0
M  V30 1519 C 144.653 1.95522 -0.0551974 0
M  V30 1520 C 145.033 1.5649 1.41683 0
M  V30 1521 O 144.381 0.834848 2.12703 0
M  V30 1522 C 144.591 3.4796 -0.269242 0
M  V30 1523 C 145.939 4.24306 -0.158014 0
M  V30 1524 O 146.963 3.55637 -0.200162 0
M  V30 1525 O 145.822 5.46471 -0.0558693 0
M  V30 1526 H 142.916 0.826556 0.0271015 0
M  V30 1527 H 145.462 1.54866 -0.693864 0
M  V30 1528 H 144.234 3.6939 -1.29099 0
M  V30 1529 H 143.857 3.95543 0.403966 0
M  V30 1530 N 144.854 0.36279 1.53368 0
M  V30 1531 C 146.079 -0.231226 2.06107 0
M  V30 1532 C 146.504 -1.419 1.23474 0
M  V30 1533 O 145.862 -1.79524 0.253128 0
M  V30 1534 C 145.91 -0.605523 3.5548 0
M  V30 1535 O 145.014 -1.70312 3.7559 0
M  V30 1536 H 144.355 -0.034327 0.663112 0
M  V30 1537 H 146.885 0.522584 1.97814 0
M  V30 1538 H 146.895 -0.877314 3.98456 0
M  V30 1539 H 145.57 0.263004 4.15068 0
M  V30 1540 H 144.147 -1.4271 3.44512 0
M  V30 1541 N 146.332 -1.57332 0.0918853 0
M  V30 1542 C 147.262 -2.16872 -0.865371 0
M  V30 1543 C 148.243 -1.10118 -1.29646 0
M  V30 1544 O 149.428 -1.38242 -1.36392 0
M  V30 1545 C 146.558 -2.74649 -2.12569 0
M  V30 1546 C 145.512 -3.86747 -1.83333 0
M  V30 1547 C 144.838 -4.31212 -3.16166 0
M  V30 1548 C 146.138 -5.10089 -1.1228 0
M  V30 1549 H 147.832 -2.97114 -0.369307 0
M  V30 1550 H 145.378 -1.42918 -0.176194 0
M  V30 1551 H 147.331 -3.14952 -2.7997 0
M  V30 1552 H 146.055 -1.91657 -2.64452 0
M  V30 1553 H 144.714 -3.46978 -1.18331 0
M  V30 1554 H 144.362 -3.45115 -3.6593 0
M  V30 1555 H 144.062 -5.06788 -2.97388 0
M  V30 1556 H 145.586 -4.74146 -3.84731 0
M  V30 1557 H 147 -5.47582 -1.69785 0
M  V30 1558 H 145.397 -5.91073 -1.03693 0
M  V30 1559 H 146.467 -4.84786 -0.105041 0
M  V30 1560 N 147.81 0.181792 -1.56548 0
M  V30 1561 C 149.226 0.53316 -1.50431 0
M  V30 1562 C 149.426 1.85184 -0.794297 0
M  V30 1563 O 148.482 2.50058 -0.350318 0
M  V30 1564 C 149.795 0.575597 -2.9514 0
M  V30 1565 C 151.343 0.663519 -3.05886 0
M  V30 1566 C 151.818 0.736946 -4.52032 0
M  V30 1567 N 153.309 0.800118 -4.56237 0
M  V30 1568 C 154.044 0.877327 -5.66649 0
M  V30 1569 N 153.54 0.916016 -6.86718 0
M  V30 1570 N 155.333 0.915542 -5.54594 0
M  V30 1571 H 147.484 -0.683025 -2.01118 0
M  V30 1572 H 149.747 -0.244988 -0.915797 0
M  V30 1573 H 149.453 -0.324482 -3.502 0
M  V30 1574 H 149.327 1.42572 -3.49218 0
M  V30 1575 H 151.714 1.55403 -2.50867 0
M  V30 1576 H 151.795 -0.21307 -2.54911 0
M  V30 1577 H 151.439 -0.149262 -5.07681 0
M  V30 1578 H 151.369 1.62953 -5.00753 0
M  V30 1579 H 153.86 0.778926 -3.69785 0
M  V30 1580 H 154.173 0.975813 -7.66614 0
M  V30 1581 H 152.518 0.884469 -6.89349 0
M  V30 1582 H 155.709 0.882245 -4.59711 0
M  V30 1583 H 155.882 0.972253 -6.40665 0
M  V30 1584 N 149.288 1.51039 0.449983 0
M  V30 1585 C 150.536 1.62759 1.19808 0
M  V30 1586 C 150.857 0.339981 1.92013 0
M  V30 1587 O 150.127 -0.643606 1.85026 0
M  V30 1588 H 148.707 0.599811 0.445237 0
M  V30 1589 H 151.369 1.87914 0.517138 0
M  V30 1590 H 150.465 2.44911 1.93455 0
M  V30 1591 N 150.766 -0.704594 1.40972 0
M  V30 1592 C 151.994 -1.49354 1.43182 0
M  V30 1593 C 152.409 -1.88768 0.0345508 0
M  V30 1594 O 151.766 -1.56184 -0.944081 0
M  V30 1595 C 151.817 -2.76187 2.33244 0
M  V30 1596 O 151.538 -2.38436 3.67532 0
M  V30 1597 C 153.039 -3.7 2.44162 0
M  V30 1598 H 150.259 -0.460559 0.487982 0
M  V30 1599 H 152.803 -0.868261 1.85153 0
M  V30 1600 H 150.958 -3.34974 1.94606 0
M  V30 1601 H 151.372 -3.20126 4.15475 0
M  V30 1602 H 152.846 -4.55803 3.11364 0
M  V30 1603 H 153.323 -4.13867 1.47006 0
M  V30 1604 H 153.929 -3.17121 2.83398 0
M  V30 1605 N 152.244 -1.26651 -0.937939 0
M  V30 1606 C 153.194 -1.05156 -2.02302 0
M  V30 1607 C 154.178 0.0171233 -1.60891 0
M  V30 1608 O 155.37 -0.200213 -1.75864 0
M  V30 1609 C 152.499 -0.689962 -3.36295 0
M  V30 1610 C 151.585 -1.79626 -3.84181 0
M  V30 1611 N 151.976 -3.03422 -4.04684 0
M  V30 1612 C 150.274 -1.6806 -4.13124 0
M  V30 1613 C 150.975 -3.75345 -4.444 0
M  V30 1614 N 149.951 -3.03051 -4.51288 0
M  V30 1615 H 153.753 -1.99117 -2.1617 0
M  V30 1616 H 151.267 -1.17216 -1.12402 0
M  V30 1617 H 153.264 -0.517112 -4.13681 0
M  V30 1618 H 151.924 0.242139 -3.23796 0
M  V30 1619 H 152.935 -3.39293 -3.91281 0
M  V30 1620 H 149.612 -0.818629 -4.09396 0
M  V30 1621 H 151.002 -4.81691 -4.68427 0
M  V30 1622 N 153.722 1.14298 -1.08507 0
M  V30 1623 C 154.95 1.89219 -0.836876 0
M  V30 1624 C 155.365 1.78638 0.611054 0
M  V30 1625 O 154.722 1.14643 1.41998 0
M  V30 1626 C 154.773 3.39158 -1.25116 0
M  V30 1627 O 154.494 3.49449 -2.64229 0
M  V30 1628 C 155.995 4.31073 -1.03398 0
M  V30 1629 H 153.215 0.599328 -0.301739 0
M  V30 1630 H 155.759 1.44746 -1.44461 0
M  V30 1631 H 153.914 3.81251 -0.687514 0
M  V30 1632 H 154.328 4.42589 -2.81452 0
M  V30 1633 H 155.802 5.34646 -1.37323 0
M  V30 1634 H 156.279 4.3919 0.0289259 0
M  V30 1635 H 156.885 3.94738 -1.58311 0
M  V30 1636 N 155.201 0.870884 1.31352 0
M  V30 1637 C 156.449 0.48132 1.96285 0
M  V30 1638 C 156.77 -0.969813 1.69173 0
M  V30 1639 O 156.04 -1.67998 1.00764 0
M  V30 1640 H 154.62 0.175002 0.726212 0
M  V30 1641 H 157.282 1.11087 1.60143 0
M  V30 1642 H 156.378 0.639825 3.05471 0
M  V30 1643 N 156.679 -1.44442 0.630414 0
M  V30 1644 C 157.925 -2.02351 0.134816 0
M  V30 1645 C 158.258 -1.4947 -1.23986 0
M  V30 1646 O 157.533 -0.678475 -1.82283 0
M  V30 1647 C 157.816 -3.59898 0.120707 0
M  V30 1648 C 157.669 -4.23063 1.52767 0
M  V30 1649 C 158.988 -4.36585 -0.555127 0
M  V30 1650 H 156.107 -0.73527 0.0504646 0
M  V30 1651 H 158.749 -1.72022 0.806751 0
M  V30 1652 H 156.899 -3.85868 -0.451477 0
M  V30 1653 H 158.571 -4.08202 2.14869 0
M  V30 1654 H 156.814 -3.80586 2.08175 0
M  V30 1655 H 157.485 -5.32071 1.46984 0
M  V30 1656 H 159.961 -4.16044 -0.0685429 0
M  V30 1657 H 158.837 -5.46294 -0.534185 0
M  V30 1658 H 159.098 -4.11138 -1.62535 0
M  V30 1659 N 158.157 -0.370918 -1.53173 0
M  V30 1660 C 159.403 0.209976 -2.02313 0
M  V30 1661 C 159.758 1.45987 -1.25322 0
M  V30 1662 O 159.051 1.8856 -0.339965 0
M  V30 1663 C 159.245 0.549696 -3.53147 0
M  V30 1664 C 159.074 -0.665721 -4.44745 0
M  V30 1665 C 157.844 -1.17942 -4.91343 0
M  V30 1666 C 160.042 -1.53255 -4.90935 0
M  V30 1667 N 158.024 -2.35431 -5.66962 0
M  V30 1668 C 159.395 -2.55403 -5.64951 0
M  V30 1669 C 161.45 -1.5548 -4.73002 0
M  V30 1670 C 160.153 -3.5964 -6.22938 0
M  V30 1671 C 162.179 -2.58613 -5.31858 0
M  V30 1672 C 161.541 -3.59485 -6.05764 0
M  V30 1673 H 157.64 0.0394095 -0.781006 0
M  V30 1674 H 160.224 -0.516666 -1.8772 0
M  V30 1675 H 158.395 1.24541 -3.67891 0
M  V30 1676 H 160.127 1.11614 -3.89004 0
M  V30 1677 H 156.882 -0.743228 -4.67732 0
M  V30 1678 H 157.306 -2.94827 -6.09431 0
M  V30 1679 H 161.948 -0.788457 -4.15383 0
M  V30 1680 H 159.666 -4.37153 -6.79649 0
M  V30 1681 H 163.252 -2.61195 -5.19873 0
M  V30 1682 H 162.132 -4.3798 -6.50495 0
M  V30 1683 N 159.635 1.57281 -0.100228 0
M  V30 1684 C 160.881 1.94826 0.563101 0
M  V30 1685 C 161.214 0.982475 1.67514 0
M  V30 1686 O 160.489 0.0164069 1.94493 0
M  V30 1687 C 160.772 3.42453 1.11346 0
M  V30 1688 C 160.625 4.498 0.00612081 0
M  V30 1689 C 161.944 3.91506 2.01024 0
M  V30 1690 H 159.063 0.708428 0.203221 0
M  V30 1691 H 161.705 1.8922 -0.171979 0
M  V30 1692 H 159.855 3.47361 1.7399 0
M  V30 1693 H 161.527 4.57 -0.628357 0
M  V30 1694 H 159.77 4.28756 -0.659581 0
M  V30 1695 H 160.441 5.50306 0.432109 0
M  V30 1696 H 162.917 3.88784 1.48278 0
M  V30 1697 H 161.793 4.95358 2.36457 0
M  V30 1698 H 162.054 3.31099 2.92961 0
M  V30 1699 N 161.113 -0.173488 1.56642 0
M  V30 1700 C 162.361 -0.888706 1.81512 0
M  V30 1701 C 162.682 -1.82875 0.676872 0
M  V30 1702 O 161.952 -1.93536 -0.303414 0
M  V30 1703 H 160.532 -0.331164 0.669582 0
M  V30 1704 H 163.194 -0.173823 1.94123 0
M  V30 1705 H 162.29 -1.46691 2.75478 0
M  V30 1706 N 162.591 -1.51276 -0.441967 0
M  V30 1707 C 163.837 -1.63958 -1.19355 0
M  V30 1708 C 164.17 -0.352543 -1.90973 0
M  V30 1709 O 163.445 0.647627 -1.83401 0
M  V30 1710 C 163.728 -2.83979 -2.21422 0
M  V30 1711 C 163.581 -4.22646 -1.53918 0
M  V30 1712 C 164.9 -2.99521 -3.22451 0
M  V30 1713 H 162.019 -0.596709 -0.432559 0
M  V30 1714 H 164.661 -1.83748 -0.483398 0
M  V30 1715 H 162.811 -2.67237 -2.81987 0
M  V30 1716 H 164.483 -4.51045 -0.967256 0
M  V30 1717 H 162.726 -4.25558 -0.841615 0
M  V30 1718 H 163.397 -5.02609 -2.28229 0
M  V30 1719 H 165.873 -3.14944 -2.71937 0
M  V30 1720 H 164.749 -3.85072 -3.91166 0
M  V30 1721 H 165.01 -2.11391 -3.88287 0
M  V30 1722 N 164.069 0.697108 -1.41344 0
M  V30 1723 C 165.294 1.49096 -1.44171 0
M  V30 1724 C 165.719 1.88038 -0.0481568 0
M  V30 1725 O 165.077 1.54525 0.948243 0
M  V30 1726 C 165.125 2.73088 -2.3549 0
M  V30 1727 O 164.229 3.70514 -1.81088 0
M  V30 1728 H 163.57 0.448801 -0.489361 0
M  V30 1729 H 166.1 0.856992 -1.85787 0
M  V30 1730 H 166.11 3.21413 -2.51312 0
M  V30 1731 H 164.785 2.44081 -3.36745 0
M  V30 1732 H 163.362 3.29441 -1.74708 0
M  V30 1733 N 165.547 1.27147 0.931209 0
M  V30 1734 C 166.795 1.13055 1.6752 0
M  V30 1735 C 167.116 -0.324791 1.92276 0
M  V30 1736 O 166.386 -1.22775 1.52654 0
M  V30 1737 H 164.966 0.415391 0.620854 0
M  V30 1738 H 167.628 1.59623 1.11833 0
M  V30 1739 H 166.724 1.65694 2.64485 0
M  V30 1740 N 167.025 -1.13721 1.09112 0
M  V30 1741 C 168.25 -1.89314 0.847053 0
M  V30 1742 C 168.675 -1.78416 -0.595774 0
M  V30 1743 O 168.033 -1.12942 -1.41823 0
M  V30 1744 C 168.081 -3.3701 1.28284 0
M  V30 1745 O 167.185 -4.10054 0.439267 0
M  V30 1746 H 166.526 -0.588745 0.307044 0
M  V30 1747 H 169.056 -1.43902 1.45442 0
M  V30 1748 H 169.066 -3.87834 1.26683 0
M  V30 1749 H 167.741 -3.4426 2.33363 0
M  V30 1750 H 166.318 -3.69266 0.519312 0
M  V30 1751 N 168.503 -0.877838 -1.30888 0
M  V30 1752 C 169.413 -0.343096 -2.32078 0
M  V30 1753 C 170.429 0.551022 -1.65045 0
M  V30 1754 O 171.605 0.445854 -1.96403 0
M  V30 1755 C 168.67 0.439905 -3.43898 0
M  V30 1756 C 167.731 -0.483111 -4.26573 0
M  V30 1757 C 166.964 0.262616 -5.33053 0
M  V30 1758 O 167.187 1.48967 -5.50604 0
M  V30 1759 O 166.121 -0.383593 -6.00676 0
M  V30 1760 H 169.947 -1.18203 -2.79753 0
M  V30 1761 H 167.532 -0.64145 -1.34929 0
M  V30 1762 H 169.414 0.883504 -4.12034 0
M  V30 1763 H 168.089 1.25526 -2.98371 0
M  V30 1764 H 166.996 -0.975374 -3.61161 0
M  V30 1765 H 168.329 -1.26427 -4.75686 0
M  V30 1766 N 169.982 1.44106 -0.638065 0
M  V30 1767 C 171.21 2.06336 -0.152615 0
M  V30 1768 C 171.625 1.47731 1.17563 0
M  V30 1769 O 170.982 0.602806 1.72257 0
M  V30 1770 C 171.033 3.61479 -0.0391491 0
M  V30 1771 O 170.754 4.17903 -1.31487 0
M  V30 1772 C 172.255 4.40757 0.474176 0
M  V30 1773 H 169.475 0.665862 -0.0828776 0
M  V30 1774 H 172.019 1.84862 -0.87443 0
M  V30 1775 H 170.174 3.82191 0.633142 0
M  V30 1776 H 170.588 5.11416 -1.16421 0
M  V30 1777 H 172.062 5.49707 0.502562 0
M  V30 1778 H 172.539 4.12697 1.50258 0
M  V30 1779 H 173.145 4.24979 -0.165102 0
M  V30 1780 N 171.46 0.379036 1.52974 0
M  V30 1781 C 172.685 -0.209353 2.06341 0
M  V30 1782 C 173.11 -1.40583 1.24972 0
M  V30 1783 O 172.468 -1.79246 0.272155 0
M  V30 1784 C 172.516 -0.567786 3.56102 0
M  V30 1785 O 171.62 -1.66318 3.77375 0
M  V30 1786 H 170.961 -0.0272919 0.663439 0
M  V30 1787 H 173.491 0.543536 1.97248 0
M  V30 1788 H 173.501 -0.835003 3.99364 0
M  V30 1789 H 172.176 0.307013 4.14765 0
M  V30 1790 H 170.753 -1.39048 3.46006 0
M  V30 1791 N 172.938 -1.57226 0.108567 0
M  V30 1792 C 173.848 -2.18292 -0.859401 0
M  V30 1793 C 174.864 -1.15612 -1.30038 0
M  V30 1794 O 176.04 -1.48039 -1.36552 0
M  V30 1795 C 173.105 -2.762 -2.09558 0
M  V30 1796 C 172.166 -3.93881 -1.70752 0
M  V30 1797 C 171.399 -4.49018 -2.88477 0
M  V30 1798 O 171.622 -4.03068 -4.036 0
M  V30 1799 O 170.556 -5.39852 -2.66164 0
M  V30 1800 H 174.382 -3.01441 -0.369769 0
M  V30 1801 H 171.967 -1.48945 -0.1165 0
M  V30 1802 H 173.849 -3.13156 -2.81978 0
M  V30 1803 H 172.524 -1.96089 -2.57548 0
M  V30 1804 H 171.431 -3.61713 -0.954714 0
M  V30 1805 H 172.764 -4.75396 -1.27513 0
M  V30 1806 N 174.416 0.165178 -1.56732 0
M  V30 1807 C 175.379 1.18822 -1.95995 0
M  V30 1808 C 176.379 1.3685 -0.84431 0
M  V30 1809 O 177.569 1.34152 -1.11126 0
M  V30 1810 C 174.701 2.5521 -2.26011 0
M  V30 1811 H 175.894 0.851825 -2.87548 0
M  V30 1812 H 173.447 0.407857 -1.50885 0
M  V30 1813 H 174.182 2.93852 -1.37191 0
M  V30 1814 H 173.967 2.43489 -3.07336 0
M  V30 1815 H 175.457 3.28927 -2.57288 0
M  V30 1816 N 175.894 1.51508 0.433938 0
M  V30 1817 C 176.824 1.76016 1.53429 0
M  V30 1818 C 177.805 0.610112 1.58782 0
M  V30 1819 O 178.99 0.853177 1.74455 0
M  V30 1820 C 176.12 1.88831 2.9148 0
M  V30 1821 C 175.074 3.04288 3.00987 0
M  V30 1822 C 174.4 3.0229 4.4105 0
M  V30 1823 C 175.7 4.44193 2.74754 0
M  V30 1824 H 177.394 2.68152 1.33171 0
M  V30 1825 H 174.94 1.29035 0.639214 0
M  V30 1826 H 176.893 2.04559 3.6842 0
M  V30 1827 H 175.617 0.933455 3.12976 0
M  V30 1828 H 174.276 2.8827 2.26486 0
M  V30 1829 H 173.924 2.04576 4.59519 0
M  V30 1830 H 173.624 3.79822 4.4834 0
M  V30 1831 H 175.148 3.20116 5.1996 0
M  V30 1832 H 176.562 4.60544 3.41426 0
M  V30 1833 H 174.959 5.23457 2.9345 0
M  V30 1834 H 176.029 4.53996 1.70339 0
M  V30 1835 N 177.372 -0.689602 1.41712 0
M  V30 1836 C 178.597 -1.48329 1.44959 0
M  V30 1837 C 179.022 -1.8801 0.0581283 0
M  V30 1838 O 178.38 -1.55026 -0.940035 0
M  V30 1839 C 178.428 -2.71835 2.36935 0
M  V30 1840 O 177.532 -3.69549 1.8305 0
M  V30 1841 H 176.873 -0.446199 0.491734 0
M  V30 1842 H 179.403 -0.847127 1.86239 0
M  V30 1843 H 179.413 -3.20076 2.53013 0
M  V30 1844 H 178.088 -2.42291 3.38035 0
M  V30 1845 H 176.665 -3.2851 1.76452 0
M  V30 1846 N 178.85 -1.27639 -0.924453 0
M  V30 1847 C 180.266 -1.05113 -1.20097 0
M  V30 1848 C 180.466 0.213262 -2.00368 0
M  V30 1849 O 179.522 0.91787 -2.35226 0
M  V30 1850 C 180.835 -2.29244 -1.94596 0
M  V30 1851 C 182.383 -2.34315 -2.07522 0
M  V30 1852 C 182.858 -3.58183 -2.85427 0
M  V30 1853 N 184.349 -3.5876 -2.92994 0
M  V30 1854 C 185.084 -4.51277 -3.53746 0
M  V30 1855 N 184.58 -5.54102 -4.15863 0
M  V30 1856 N 186.373 -4.38894 -3.51181 0
M  V30 1857 H 178.524 -2.08821 -0.388264 0
M  V30 1858 H 180.787 -0.918568 -0.234385 0
M  V30 1859 H 180.493 -3.21301 -1.43034 0
M  V30 1860 H 180.367 -2.34816 -2.95197 0
M  V30 1861 H 182.754 -1.42762 -2.58269 0
M  V30 1862 H 182.835 -2.32744 -1.06131 0
M  V30 1863 H 182.479 -4.50074 -2.35363 0
M  V30 1864 H 182.409 -3.57006 -3.8711 0
M  V30 1865 H 184.9 -2.84398 -2.4885 0
M  V30 1866 H 185.213 -6.20859 -4.60168 0
M  V30 1867 H 183.558 -5.57941 -4.144 0
M  V30 1868 H 186.749 -3.57772 -3.01856 0
M  V30 1869 H 186.922 -5.11186 -3.98237 0
M  V30 1870 N 180.328 1.1314 -1.09713 0
M  V30 1871 C 181.605 1.80762 -0.747302 0
M  V30 1872 C 181.985 1.96663 0.767265 0
M  V30 1873 O 181.333 1.53706 1.69076 0
M  V30 1874 C 181.543 3.15606 -1.48975 0
M  V30 1875 C 182.891 3.90914 -1.65746 0
M  V30 1876 O 183.915 3.25239 -1.45251 0
M  V30 1877 O 182.774 5.08718 -1.9967 0
M  V30 1878 H 179.868 0.782103 -0.268782 0
M  V30 1879 H 182.414 1.20041 -1.19951 0
M  V30 1880 H 181.186 2.99278 -2.52088 0
M  V30 1881 H 180.809 3.84029 -1.02991 0
M  V30 1882 N 181.806 0.884767 1.30421 0
M  V30 1883 C 183.217 0.553656 1.78302 0
M  V30 1884 C 183.568 -0.930153 1.7275 0
M  V30 1885 O 182.693 -1.72681 1.30423 0
M  V30 1886 C 183.288 0.998234 3.2376 0
M  V30 1887 C 181.847 0.71854 3.69478 0
M  V30 1888 C 180.994 1.18132 2.50879 0
M  V30 1889 H 183.945 1.06901 1.17294 0
M  V30 1890 H 183.966 0.327118 3.79091 0
M  V30 1891 H 183.478 2.0782 3.27769 0
M  V30 1892 H 181.579 -0.349444 3.70958 0
M  V30 1893 H 181.692 1.30595 4.60958 0
M  V30 1894 H 180.056 0.600669 2.47516 0
M  V30 1895 H 180.839 2.26902 2.57624 0
M  V30 1896 N 183.284 -1.43765 0.645699 0
M  V30 1897 C 184.194 -2.34544 -0.0512957 0
M  V30 1898 C 185.21 -1.53455 -0.82022 0
M  V30 1899 O 186.386 -1.86133 -0.769176 0
M  V30 1900 C 183.451 -3.31636 -1.01087 0
M  V30 1901 C 182.512 -4.2863 -0.239712 0
M  V30 1902 C 181.745 -5.21084 -1.15358 0
M  V30 1903 O 181.968 -5.1779 -2.39269 0
M  V30 1904 O 180.902 -5.98593 -0.630038 0
M  V30 1905 H 184.728 -2.95624 0.695718 0
M  V30 1906 H 182.313 -1.43781 0.405882 0
M  V30 1907 H 184.195 -3.9136 -1.56254 0
M  V30 1908 H 182.87 -2.73069 -1.73824 0
M  V30 1909 H 181.777 -3.72408 0.355356 0
M  V30 1910 H 183.11 -4.90157 0.447936 0
M  V30 1911 N 184.763 -0.387143 -1.52771 0
M  V30 1912 C 185.991 0.195869 -2.05971 0
M  V30 1913 C 186.406 1.40691 -1.25903 0
M  V30 1914 O 185.763 1.79931 -0.305134 0
M  V30 1915 C 185.814 0.56812 -3.57008 0
M  V30 1916 O 185.535 -0.594803 -4.34043 0
M  V30 1917 C 187.036 1.20723 -4.26545 0
M  V30 1918 H 184.256 0.0300578 -0.670326 0
M  V30 1919 H 186.8 -0.551749 -1.96916 0
M  V30 1920 H 184.955 1.26564 -3.66143 0
M  V30 1921 H 185.369 -0.289322 -5.23701 0
M  V30 1922 H 186.843 1.41807 -5.33474 0
M  V30 1923 H 187.32 2.17395 -3.81623 0
M  V30 1924 H 187.926 0.550535 -4.21722 0
M  V30 1925 N 186.241 1.57166 -0.116904 0
M  V30 1926 C 187.171 2.18222 0.830759 0
M  V30 1927 C 188.152 1.12167 1.27877 0
M  V30 1928 O 189.337 1.40394 1.34176 0
M  V30 1929 C 186.467 2.77996 2.08172 0
M  V30 1930 C 185.421 3.89614 1.77157 0
M  V30 1931 C 184.747 4.36187 3.09265 0
M  V30 1932 C 186.047 5.1181 1.04151 0
M  V30 1933 H 187.741 2.97664 0.321992 0
M  V30 1934 H 185.287 1.4318 0.153434 0
M  V30 1935 H 187.24 3.19366 2.74924 0
M  V30 1936 H 185.964 1.9584 2.6137 0
M  V30 1937 H 184.623 3.48816 1.12796 0
M  V30 1938 H 184.271 3.50893 3.60393 0
M  V30 1939 H 183.971 5.11455 2.89288 0
M  V30 1940 H 185.495 4.80207 3.77139 0
M  V30 1941 H 186.909 5.50214 1.61052 0
M  V30 1942 H 185.306 5.92648 0.942762 0
M  V30 1943 H 186.376 4.84892 0.0279022 0
M  V30 1944 N 187.719 -0.156864 1.56817 0
M  V30 1945 C 188.965 -0.872416 1.83076 0
M  V30 1946 C 189.298 -1.81261 0.697001 0
M  V30 1947 O 188.573 -1.92171 -0.30008 0
M  V30 1948 C 188.856 -1.65551 3.19789 0
M  V30 1949 C 188.709 -0.737467 4.43713 0
M  V30 1950 C 190.028 -2.62012 3.53606 0
M  V30 1951 H 187.147 -0.315715 0.665953 0
M  V30 1952 H 189.789 -0.138004 1.89498 0
M  V30 1953 H 187.939 -2.28159 3.14445 0
M  V30 1954 H 189.611 -0.123143 4.61136 0
M  V30 1955 H 187.854 -0.0464067 4.33775 0
M  V30 1956 H 188.525 -1.32122 5.35955 0
M  V30 1957 H 191.001 -2.09525 3.59497 0
M  V30 1958 H 189.877 -3.13861 4.50314 0
M  V30 1959 H 190.138 -3.42902 2.79053 0
M  V30 1960 N 189.197 -1.51736 -0.425897 0
M  V30 1961 C 190.445 -1.64644 -1.17204 0
M  V30 1962 C 190.766 -0.370486 -1.91448 0
M  V30 1963 O 190.036 0.614088 -1.86026 0
M  V30 1964 H 188.616 -0.606819 -0.435638 0
M  V30 1965 H 191.278 -1.88713 -0.487177 0
M  V30 1966 H 190.374 -2.47958 -1.89534 0
M  V30 1967 N 190.675 0.682077 -1.42076 0
M  V30 1968 C 191.905 1.46844 -1.45329 0
M  V30 1969 C 192.313 1.89102 -0.0609328 0
M  V30 1970 O 191.656 1.58238 0.933082 0
M  V30 1971 C 191.718 2.75375 -2.31104 0
M  V30 1972 C 191.382 2.55238 -3.79081 0
M  V30 1973 C 192.379 2.20309 -4.70914 0
M  V30 1974 C 190.064 2.70459 -4.2327 0
M  V30 1975 C 192.058 2.00859 -6.04925 0
M  V30 1976 C 189.745 2.50624 -5.57343 0
M  V30 1977 C 190.743 2.15876 -6.47986 0
M  V30 1978 O 190.431 1.96227 -7.79583 0
M  V30 1979 H 190.163 0.4586 -0.496651 0
M  V30 1980 H 192.717 0.846131 -1.87162 0
M  V30 1981 H 190.947 3.40061 -1.84107 0
M  V30 1982 H 192.636 3.37231 -2.25898 0
M  V30 1983 H 193.402 2.08153 -4.38061 0
M  V30 1984 H 189.281 2.96485 -3.53012 0
M  V30 1985 H 192.825 1.7366 -6.75639 0
M  V30 1986 H 188.722 2.62375 -5.89771 0
M  V30 1987 H 189.49 2.10883 -7.90867 0
M  V30 1988 N 192.153 1.28127 0.917671 0
M  V30 1989 C 193.378 1.18007 1.70555 0
M  V30 1990 C 193.803 -0.258257 1.86319 0
M  V30 1991 O 193.161 -1.1869 1.37049 0
M  V30 1992 C 193.209 1.87948 3.07746 0
M  V30 1993 O 192.313 1.18427 3.9503 0
M  V30 1994 H 191.654 0.409867 0.522403 0
M  V30 1995 H 194.184 1.69379 1.1477 0
M  V30 1996 H 194.194 1.95701 3.58001 0
M  V30 1997 H 192.869 2.92573 2.95591 0
M  V30 1998 H 191.446 1.18811 3.53466 0
M  V30 1999 N 193.631 -1.12557 1.10312 0
M  V30 2000 C 194.564 -2.1737 0.694674 0
M  V30 2001 C 195.542 -1.59745 -0.303373 0
M  V30 2002 O 196.726 -1.87408 -0.202578 0
M  V30 2003 C 193.853 -3.38691 0.0248052 0
M  V30 2004 C 192.899 -4.14943 0.986121 0
M  V30 2005 S 193.732 -4.73413 2.50281 0
M  V30 2006 C 194.888 -5.9807 1.84562 0
M  V30 2007 H 195.121 -2.5168 1.58255 0
M  V30 2008 H 192.654 -1.23998 0.919992 0
M  V30 2009 H 194.612 -4.08959 -0.355361 0
M  V30 2010 H 193.273 -3.02664 -0.839851 0
M  V30 2011 H 192.466 -5.01854 0.464651 0
M  V30 2012 H 192.068 -3.50377 1.30813 0
M  V30 2013 H 194.36 -6.67232 1.17507 0
M  V30 2014 H 195.303 -6.54841 2.69423 0
M  V30 2015 H 195.711 -5.49073 1.31069 0
M  V30 2016 N 195.109 -0.891671 -1.2995 0
M  V30 2017 C 196.355 -0.514261 -1.96171 0
M  V30 2018 C 196.688 0.935506 -1.70182 0
M  V30 2019 O 195.963 1.66204 -1.01028 0
M  V30 2020 C 196.246 -0.797719 -3.51153 0
M  V30 2021 C 196.099 -2.2986 -3.86632 0
M  V30 2022 C 197.418 -0.278749 -4.39216 0
M  V30 2023 H 194.537 -0.188314 -0.712535 0
M  V30 2024 H 197.179 -1.11689 -1.53706 0
M  V30 2025 H 195.329 -0.284826 -3.87455 0
M  V30 2026 H 197.001 -2.88042 -3.60319 0
M  V30 2027 H 195.244 -2.76257 -3.34462 0
M  V30 2028 H 195.915 -2.44753 -4.94773 0
M  V30 2029 H 198.391 -0.717825 -4.09862 0
M  V30 2030 H 197.267 -0.506353 -5.46559 0
M  V30 2031 H 197.528 0.820266 -4.34424 0
M  V30 2032 N 196.587 1.43421 -0.653314 0
M  V30 2033 C 197.835 2.01414 -0.166415 0
M  V30 2034 C 198.156 1.51803 1.22397 0
M  V30 2035 O 197.426 0.730693 1.81763 0
M  V30 2036 H 196.006 0.744703 -0.0585319 0
M  V30 2037 H 198.668 1.75629 -0.845003 0
M  V30 2038 H 197.764 3.11734 -0.151111 0
M  V30 2039 N 198.065 0.39524 1.52563 0
M  V30 2040 C 199.305 -0.184744 2.03563 0
M  V30 2041 C 199.669 -1.43548 1.27507 0
M  V30 2042 O 200.87 -2.093 1.68662 0
M  V30 2043 C 199.141 -0.440294 3.54678 0
M  V30 2044 S 200.7 -0.989712 4.27493 0
M  V30 2045 H 197.518 -0.0515075 0.709132 0
M  V30 2046 H 200.12 0.544957 1.87751 0
M  V30 2047 H 198.824 0.477005 4.07618 0
M  V30 2048 H 198.355 -1.19825 3.74707 0
M  V30 2049 H 200.37 -2.27155 4.41152 0
M  V30 2050 N 199.544 -1.57102 0.125237 0
M  V30 2051 C 200.476 -2.12726 -0.853237 0
M  V30 2052 C 201.489 -1.07145 -1.22571 0
M  V30 2053 O 202.678 -1.34497 -1.17358 0
M  V30 2054 C 199.778 -2.61709 -2.15317 0
M  V30 2055 C 198.951 -3.91456 -1.95143 0
M  V30 2056 C 198.01 -4.25973 -3.08923 0
M  V30 2057 O 197.036 -4.94682 -2.81564 0
M  V30 2058 N 198.238 -3.83795 -4.35524 0
M  V30 2059 H 201.003 -2.97307 -0.377964 0
M  V30 2060 H 198.564 -1.61792 -0.0590011 0
M  V30 2061 H 200.556 -2.81826 -2.90441 0
M  V30 2062 H 199.126 -1.81974 -2.54174 0
M  V30 2063 H 198.346 -3.80185 -1.04177 0
M  V30 2064 H 199.634 -4.76283 -1.78976 0
M  V30 2065 H 199.032 -3.2839 -4.60626 0
M  V30 2066 H 197.589 -4.09008 -5.07499 0
M  V30 2067 N 201.022 0.148545 -1.56898 0
M  V30 2068 C 202.438 0.501131 -1.51528 0
M  V30 2069 C 202.638 1.83458 -0.833399 0
M  V30 2070 O 201.694 2.49259 -0.40328 0
M  V30 2071 C 203.007 0.512864 -2.96294 0
M  V30 2072 C 204.555 0.598487 -3.07225 0
M  V30 2073 C 205.03 0.640897 -4.53494 0
M  V30 2074 N 206.521 0.703163 -4.57832 0
M  V30 2075 C 207.256 0.756935 -5.68382 0
M  V30 2076 N 206.752 0.770147 -6.88506 0
M  V30 2077 N 208.545 0.797698 -5.56411 0
M  V30 2078 H 200.696 -0.725532 -1.99624 0
M  V30 2079 H 202.959 -0.264358 -0.910395 0
M  V30 2080 H 202.665 -0.398691 -3.49433 0
M  V30 2081 H 202.539 1.35133 -3.52163 0
M  V30 2082 H 204.926 1.50046 -2.54106 0
M  V30 2083 H 205.007 -0.267093 -2.54402 0
M  V30 2084 H 204.651 -0.256915 -5.0725 0
M  V30 2085 H 204.581 1.52295 -5.04097 0
M  V30 2086 H 207.072 0.700314 -3.71354 0
M  V30 2087 H 207.385 0.812983 -7.68512 0
M  V30 2088 H 205.73 0.738049 -6.9107 0
M  V30 2089 H 208.921 0.784535 -4.61479 0
M  V30 2090 H 209.094 0.83614 -6.42583 0
M  V30 2091 N 202.5 1.5196 0.417844 0
M  V30 2092 C 203.463 1.74065 1.49111 0
M  V30 2093 C 204.463 0.610537 1.48758 0
M  V30 2094 O 205.653 0.87832 1.50437 0
M  V30 2095 C 202.785 1.81502 2.88565 0
M  V30 2096 H 203.978 2.69869 1.30807 0
M  V30 2097 H 201.531 1.42244 0.647785 0
M  V30 2098 H 202.266 0.875813 3.1225 0
M  V30 2099 H 202.051 2.63651 2.90225 0
M  V30 2100 H 203.541 2.00376 3.66387 0
M  V30 2101 N 203.978 -0.674533 1.42435 0
M  V30 2102 C 204.911 -1.79924 1.40366 0
M  V30 2103 C 205.889 -1.60378 0.267899 0
M  V30 2104 O 207.073 -1.82847 0.458159 0
M  V30 2105 C 204.2 -3.16927 1.19478 0
M  V30 2106 C 203.246 -3.55221 2.36051 0
M  V30 2107 S 204.079 -3.5762 3.98583 0
M  V30 2108 C 205.235 -4.97315 3.80038 0
M  V30 2109 H 205.468 -1.81405 2.35541 0
M  V30 2110 H 203.001 -0.845221 1.29211 0
M  V30 2111 H 204.959 -3.96007 1.08114 0
M  V30 2112 H 203.62 -3.13031 0.258883 0
M  V30 2113 H 202.813 -4.54804 2.17185 0
M  V30 2114 H 202.415 -2.83502 2.43932 0
M  V30 2115 H 204.707 -5.85401 3.41045 0
M  V30 2116 H 205.65 -5.21228 4.79298 0
M  V30 2117 H 206.058 -4.69845 3.12899 0
M  V30 2118 N 205.456 -1.28612 -0.910864 0
M  V30 2119 C 206.389 -1.07109 -2.01502 0
M  V30 2120 C 207.367 0.013706 -1.62594 0
M  V30 2121 O 208.551 -0.134796 -1.88017 0
M  V30 2122 C 205.678 -0.628255 -3.32822 0
M  V30 2123 C 204.724 -1.71012 -3.90714 0
M  V30 2124 S 205.557 -3.30676 -4.21205 0
M  V30 2125 C 206.713 -2.88234 -5.55583 0
M  V30 2126 H 206.946 -2.00591 -2.19432 0
M  V30 2127 H 204.479 -1.12633 -1.05609 0
M  V30 2128 H 206.437 -0.37946 -4.08742 0
M  V30 2129 H 205.098 0.28678 -3.12788 0
M  V30 2130 H 204.291 -1.35195 -4.85529 0
M  V30 2131 H 203.893 -1.91186 -3.21441 0
M  V30 2132 H 206.185 -2.34584 -6.35591 0
M  V30 2133 H 207.128 -3.81857 -5.96314 0
M  V30 2134 H 207.536 -2.26862 -5.16908 0
M  V30 2135 N 206.934 1.1197 -1.10907 0
M  V30 2136 C 207.897 2.16031 -0.765707 0
M  V30 2137 C 208.897 1.59393 0.212235 0
M  V30 2138 O 210.087 1.74196 -0.0115441 0
M  V30 2139 C 207.219 3.40632 -0.135053 0
M  V30 2140 H 208.412 2.47919 -1.68748 0
M  V30 2141 H 205.965 1.27061 -0.910226 0
M  V30 2142 H 206.7 3.14348 0.797218 0
M  V30 2143 H 206.485 3.8302 -0.838937 0
M  V30 2144 H 207.975 4.17505 0.0892469 0
M  V30 2145 N 208.412 0.89855 1.29475 0
M  V30 2146 C 209.36 0.365253 2.29714 0
M  V30 2147 C 210.354 -0.534993 1.6073 0
M  V30 2148 O 211.56 -0.417921 1.75081 0
M  V30 2149 H 207.935 0.0994853 0.74539 0
M  V30 2150 H 209.906 1.22406 2.72138 0
M  V30 2151 C 208.655 -0.393159 3.4547 0
M  V30 2152 H 207.978 0.290332 3.98744 0
M  V30 2153 H 209.418 -0.731189 4.17648 0
M  V30 2154 C 207.877 -1.59539 2.9673 0
M  V30 2155 O 208.407 -2.69469 2.97908 0
M  V30 2156 N 206.613 -1.43716 2.52575 0
M  V30 2157 H 206.16 -0.542828 2.51816 0
M  V30 2158 H 206.118 -2.24288 2.20323 0
M  V30 2159 N 209.89 -1.43072 0.660911 0
M  V30 2160 C 211.306 -1.56169 0.329173 0
M  V30 2161 C 211.506 -1.64317 -1.16629 0
M  V30 2162 O 210.562 -1.60245 -1.95135 0
M  V30 2163 C 211.875 -2.81873 1.04729 0
M  V30 2164 C 213.423 -2.95627 1.02828 0
M  V30 2165 C 213.898 -4.24174 1.72744 0
M  V30 2166 N 215.389 -4.31055 1.69545 0
M  V30 2167 C 216.124 -5.29304 2.20511 0
M  V30 2168 N 215.62 -6.33786 2.79799 0
M  V30 2169 N 217.413 -5.21008 2.10966 0
M  V30 2170 H 209.564 -1.36027 1.63127 0
M  V30 2171 H 211.827 -0.653823 0.686454 0
M  V30 2172 H 211.533 -2.81942 2.10242 0
M  V30 2173 H 211.407 -3.72338 0.603702 0
M  V30 2174 H 213.794 -2.95094 -0.0184742 0
M  V30 2175 H 213.875 -2.06431 1.51063 0
M  V30 2176 H 213.519 -4.25467 2.7738 0
M  V30 2177 H 213.449 -5.1228 1.2197 0
M  V30 2178 H 215.94 -3.56174 1.26288 0
M  V30 2179 H 216.253 -7.05086 3.16344 0
M  V30 2180 H 214.598 -6.34387 2.83863 0
M  V30 2181 H 217.789 -4.38301 1.64347 0
M  V30 2182 H 217.962 -5.97416 2.50993 0
M  V30 2183 N 211.368 -0.403325 -1.52352 0
M  V30 2184 C 212.298 0.416205 -2.29761 0
M  V30 2185 C 213.279 1.05123 -1.33728 0
M  V30 2186 O 214.464 1.06134 -1.62632 0
M  V30 2187 C 211.594 1.53624 -3.11475 0
M  V30 2188 C 210.548 1.02653 -4.15507 0
M  V30 2189 C 209.874 2.23971 -4.85532 0
M  V30 2190 C 211.174 0.08463 -5.22231 0
M  V30 2191 H 212.868 -0.229701 -2.98518 0
M  V30 2192 H 210.414 -0.111913 -1.43564 0
M  V30 2193 H 212.367 2.1165 -3.64393 0
M  V30 2194 H 211.091 2.20994 -2.40477 0
M  V30 2195 H 209.75 0.46871 -3.63591 0
M  V30 2196 H 209.398 2.89883 -4.11068 0
M  V30 2197 H 209.098 1.90521 -5.55856 0
M  V30 2198 H 210.622 2.82614 -5.41259 0
M  V30 2199 H 212.036 0.573509 -5.70424 0
M  V30 2200 H 210.433 -0.160783 -5.99885 0
M  V30 2201 H 211.503 -0.86237 -4.7717 0
M  V30 2202 N 212.846 1.57033 -0.133567 0
M  V30 2203 C 214.071 2.00475 0.531477 0
M  V30 2204 C 214.496 1.01291 1.58499 0
M  V30 2205 O 213.854 -0.0133279 1.81295 0
M  V30 2206 C 213.902 3.42729 1.12113 0
M  V30 2207 O 213.006 3.46498 2.23636 0
M  V30 2208 H 212.347 0.650876 0.131362 0
M  V30 2209 H 214.877 2.03344 -0.22634 0
M  V30 2210 H 214.887 3.81246 1.4531 0
M  V30 2211 H 213.562 4.14428 0.349557 0
M  V30 2212 H 212.139 3.19811 1.91769 0
M  V30 2213 N 214.325 -0.140222 1.56975 0
M  V30 2214 C 215.572 -0.851687 1.83719 0
M  V30 2215 C 215.9 -1.80862 0.715485 0
M  V30 2216 O 215.155 -1.93464 -0.294956 0
M  V30 2217 C 215.454 -1.65386 3.16832 0
M  V30 2218 C 215.12 -0.843112 4.42947 0
M  V30 2219 C 213.782 -0.619464 4.77196 0
M  V30 2220 C 216.134 -0.276582 5.20466 0
M  V30 2221 C 213.462 0.181312 5.8642 0
M  V30 2222 C 215.814 0.51127 6.30531 0
M  V30 2223 C 214.478 0.745432 6.63325 0
M  V30 2224 H 213.748 -0.311654 0.672274 0
M  V30 2225 H 216.395 -0.115006 1.91154 0
M  V30 2226 H 214.7 -2.46084 3.04877 0
M  V30 2227 H 216.397 -2.20793 3.34741 0
M  V30 2228 H 212.987 -1.0275 4.16101 0
M  V30 2229 H 217.171 -0.436632 4.94376 0
M  V30 2230 H 212.427 0.372165 6.10266 0
M  V30 2231 H 216.601 0.957354 6.89788 0
M  V30 2232 H 214.228 1.36778 7.47794 0
M  V30 2233 N 215.803 -1.52179 -0.40978 0
M  V30 2234 C 217.05 -1.66206 -1.15679 0
M  V30 2235 C 217.378 -0.391674 -1.90516 0
M  V30 2236 O 216.633 0.62533 -1.8544 0
M  V30 2237 C 216.932 -2.83428 -2.17723 0
M  V30 2238 C 216.598 -4.21672 -1.59699 0
M  V30 2239 C 215.26 -4.59274 -1.43599 0
M  V30 2240 C 217.612 -5.07825 -1.17317 0
M  V30 2241 C 214.94 -5.80709 -0.836328 0
M  V30 2242 C 217.292 -6.29864 -0.587691 0
M  V30 2243 C 215.956 -6.66216 -0.413818 0
M  V30 2244 H 215.226 -0.608192 -0.423301 0
M  V30 2245 H 217.873 -1.86279 -0.444097 0
M  V30 2246 H 216.178 -2.57687 -2.95135 0
M  V30 2247 H 217.875 -2.91477 -2.75394 0
M  V30 2248 H 214.465 -3.9204 -1.73213 0
M  V30 2249 H 218.649 -4.79359 -1.28565 0
M  V30 2250 H 213.905 -6.07498 -0.689626 0
M  V30 2251 H 218.079 -6.95948 -0.250894 0
M  V30 2252 H 215.706 -7.60182 0.0529471 0
M  V30 2253 N 217.281 0.66697 -1.42791 0
M  V30 2254 C 218.528 1.42699 -1.43678 0
M  V30 2255 C 218.856 1.94419 -0.0560425 0
M  V30 2256 O 218.111 1.7182 0.936831 0
M  V30 2257 C 218.41 2.6349 -2.4147 0
M  V30 2258 C 218.076 2.30267 -3.8767 0
M  V30 2259 C 216.738 2.20918 -4.27491 0
M  V30 2260 C 219.09 2.03435 -4.79858 0
M  V30 2261 C 216.418 1.82873 -5.57471 0
M  V30 2262 C 218.77 1.66892 -6.10188 0
M  V30 2263 C 217.434 1.56058 -6.49001 0
M  V30 2264 H 216.704 0.522171 -0.525755 0
M  V30 2265 H 219.351 0.759785 -1.75783 0
M  V30 2266 H 217.656 3.35279 -2.0272 0
M  V30 2267 H 219.353 3.21684 -2.39417 0
M  V30 2268 H 215.943 2.38449 -3.56146 0
M  V30 2269 H 220.127 2.09586 -4.49875 0
M  V30 2270 H 215.383 1.7306 -5.86396 0
M  V30 2271 H 219.557 1.45157 -6.81104 0
M  V30 2272 H 217.184 1.26348 -7.49627 0
M  V30 2273 N 218.759 1.29093 0.90403 0
M  V30 2274 C 220.036 1.075 1.63411 0
M  V30 2275 C 220.416 -0.382346 2.07609 0
M  V30 2276 O 219.764 -1.37031 1.82851 0
M  V30 2277 C 219.974 2.05858 2.81822 0
M  V30 2278 C 221.322 2.36539 3.52611 0
M  V30 2279 O 222.346 2.04019 2.91984 0
M  V30 2280 O 221.205 2.92085 4.61897 0
M  V30 2281 H 218.299 0.411547 0.717327 0
M  V30 2282 H 220.845 1.40449 0.952479 0
M  V30 2283 H 219.617 3.04037 2.46327 0
M  V30 2284 H 219.24 1.73613 3.57693 0
M  V30 2285 N 220.237 -1.11381 1.11499 0
M  V30 2286 C 221.484 -1.83132 0.864231 0
M  V30 2287 C 221.812 -1.84683 -0.610114 0
M  V30 2288 O 221.067 -1.29589 -1.46646 0
M  V30 2289 C 221.366 -3.30026 1.37177 0
M  V30 2290 C 221.032 -3.48634 2.85946 0
M  V30 2291 C 219.694 -3.53421 3.26569 0
M  V30 2292 C 222.046 -3.54837 3.81759 0
M  V30 2293 C 219.374 -3.61967 4.61733 0
M  V30 2294 C 221.726 -3.64915 5.1674 0
M  V30 2295 C 220.39 -3.67962 5.5692 0
M  V30 2296 H 219.66 -0.670127 0.316245 0
M  V30 2297 H 222.307 -1.31354 1.3935 0
M  V30 2298 H 220.612 -3.84304 0.762753 0
M  V30 2299 H 222.309 -3.84034 1.15408 0
M  V30 2300 H 218.899 -3.45579 2.53521 0
M  V30 2301 H 223.083 -3.50399 3.51474 0
M  V30 2302 H 218.339 -3.62603 4.92269 0
M  V30 2303 H 222.513 -3.68658 5.90816 0
M  V30 2304 H 220.14 -3.74336 6.61647 0
M  V30 2305 N 221.715 -0.905404 -1.28997 0
M  V30 2306 C 223.131 -0.60233 -1.47798 0
M  V30 2307 C 223.331 0.854645 -1.82478 0
M  V30 2308 O 222.387 1.63439 -1.92468 0
M  V30 2309 C 223.7 -1.53306 -2.58685 0
M  V30 2310 C 225.248 -1.53887 -2.72558 0
M  V30 2311 C 225.723 -2.45602 -3.86579 0
M  V30 2312 N 227.214 -2.43681 -3.93921 0
M  V30 2313 C 227.949 -3.11347 -4.81509 0
M  V30 2314 N 227.445 -3.88313 -5.73746 0
M  V30 2315 N 229.238 -3.00476 -4.75048 0
M  V30 2316 H 221.389 -1.84765 -1.04764 0
M  V30 2317 H 223.652 -0.792025 -0.520961 0
M  V30 2318 H 223.358 -2.57141 -2.39941 0
M  V30 2319 H 223.232 -1.25787 -3.55609 0
M  V30 2320 H 225.619 -0.507941 -2.90696 0
M  V30 2321 H 225.7 -1.85447 -1.76191 0
M  V30 2322 H 225.344 -3.48792 -3.69197 0
M  V30 2323 H 225.274 -2.11349 -4.82327 0
M  V30 2324 H 227.765 -1.87767 -3.27951 0
M  V30 2325 H 228.078 -4.36985 -6.37389 0
M  V30 2326 H 226.423 -3.92419 -5.73614 0
M  V30 2327 H 229.614 -2.39858 -4.01977 0
M  V30 2328 H 229.787 -3.53485 -5.43095 0
M  V30 2329 N 223.193 1.4272 -0.668489 0
M  V30 2330 C 224.441 2.01226 -0.187769 0
M  V30 2331 C 224.762 1.53092 1.2078 0
M  V30 2332 O 224.032 0.74993 1.80977 0
M  V30 2333 H 222.612 0.744041 -0.0664272 0
M  V30 2334 H 225.274 1.74723 -0.863583 0
M  V30 2335 H 224.37 3.11556 -0.184166 0
M  V30 2336 N 224.671 0.411399 1.52136 0
M  V30 2337 C 226.082 -0.0576826 1.86611 0
M  V30 2338 C 226.433 -1.44238 1.33003 0
M  V30 2339 O 225.558 -2.05759 0.670228 0
M  V30 2340 C 226.153 -0.111448 3.38617 0
M  V30 2341 C 224.712 -0.52487 3.72723 0
M  V30 2342 C 223.859 0.299176 2.75681 0
M  V30 2343 H 226.81 0.628368 1.4573 0
M  V30 2344 H 226.831 -0.926252 3.69054 0
M  V30 2345 H 226.343 0.896488 3.77604 0
M  V30 2346 H 224.444 -1.53936 3.39315 0
M  V30 2347 H 224.557 -0.267681 4.78352 0
M  V30 2348 H 222.921 -0.238814 2.53578 0
M  V30 2349 H 223.704 1.3055 3.17508 0
M  V30 2350 N 226.149 -1.5696 0.141893 0
M  V30 2351 C 227.374 -2.00754 -0.520838 0
M  V30 2352 C 227.799 -1.0213 -1.57959 0
M  V30 2353 O 227.157 0.00371324 -1.813 0
M  V30 2354 C 227.205 -3.43318 -1.10294 0
M  V30 2355 O 226.309 -3.47679 -2.21795 0
M  V30 2356 H 225.65 -0.651564 -0.127908 0
M  V30 2357 H 228.18 -2.03221 0.23712 0
M  V30 2358 H 228.19 -3.82012 -1.43287 0
M  V30 2359 H 226.865 -4.14608 -0.327574 0
M  V30 2360 H 225.442 -3.20824 -1.9007 0
M  V30 2361 N 227.627 0.131896 -1.57047 0
M  V30 2362 C 228.876 0.84044 -1.83356 0
M  V30 2363 C 229.189 1.81646 -0.725535 0
M  V30 2364 O 230.395 2.57025 -0.874659 0
M  V30 2365 C 228.851 1.54528 -3.25037 0
M  V30 2366 C 228.459 0.610902 -4.43815 0
M  V30 2367 C 230.203 2.23972 -3.60606 0
M  V30 2368 C 228.11 1.31823 -5.76521 0
M  V30 2369 H 227.04 0.317599 -0.683847 0
M  V30 2370 H 229.691 0.0931561 -1.83263 0
M  V30 2371 H 228.073 2.33873 -3.19561 0
M  V30 2372 H 229.247 -0.148407 -4.60561 0
M  V30 2373 H 227.562 0.0241016 -4.16393 0
M  V30 2374 H 230.159 2.77558 -4.57018 0
M  V30 2375 H 230.502 3.01173 -2.87403 0
M  V30 2376 H 231.035 1.51529 -3.6781 0
M  V30 2377 H 227.774 0.587771 -6.52859 0
M  V30 2378 H 227.294 2.04987 -5.63685 0
M  V30 2379 H 228.973 1.855 -6.19838 0
M  V30 2380 N 229.106 1.52395 0.401703 0
M  V30 2381 C 230.069 1.75636 1.47257 0
M  V30 2382 C 231.069 0.62628 1.48103 0
M  V30 2383 O 232.259 0.894227 1.49497 0
M  V30 2384 C 229.391 1.84553 2.86624 0
M  V30 2385 H 230.584 2.71241 1.27938 0
M  V30 2386 H 228.137 1.42923 0.632662 0
M  V30 2387 H 228.872 0.908882 3.11303 0
M  V30 2388 H 228.657 2.66715 2.87412 0
M  V30 2389 H 230.147 2.04251 3.64241 0
M  V30 2390 N 230.584 -0.659388 1.43143 0
M  V30 2391 C 231.514 -1.78422 1.50625 0
M  V30 2392 C 232.495 -1.66216 0.361443 0
M  V30 2393 O 233.68 -1.85404 0.577834 0
M  V30 2394 C 230.81 -3.16815 1.42287 0
M  V30 2395 C 229.764 -3.43777 2.54954 0
M  V30 2396 C 229.09 -4.81905 2.31671 0
M  V30 2397 C 230.39 -3.39134 3.97222 0
M  V30 2398 H 232.084 -1.72417 2.44771 0
M  V30 2399 H 229.63 -0.828084 1.17808 0
M  V30 2400 H 231.583 -3.95253 1.46127 0
M  V30 2401 H 230.307 -3.23534 0.446435 0
M  V30 2402 H 228.966 -2.67707 2.50457 0
M  V30 2403 H 228.614 -4.85294 1.32284 0
M  V30 2404 H 228.314 -5.00906 3.07192 0
M  V30 2405 H 229.838 -5.62609 2.37284 0
M  V30 2406 H 231.252 -4.07518 4.03239 0
M  V30 2407 H 229.649 -3.69671 4.72719 0
M  V30 2408 H 230.719 -2.37426 4.22797 0
M  V30 2409 N 232.062 -1.29571 -0.897171 0
M  V30 2410 C 233.339 -1.08365 -1.62839 0
M  V30 2411 C 233.719 0.371331 -2.07808 0
M  V30 2412 O 233.067 1.3606 -1.83576 0
M  V30 2413 C 233.277 -2.0735 -2.80726 0
M  V30 2414 C 234.625 -2.38406 -3.51351 0
M  V30 2415 O 235.649 -2.05564 -2.90898 0
M  V30 2416 O 234.508 -2.9453 -4.60341 0
M  V30 2417 H 231.602 -0.415345 -0.715134 0
M  V30 2418 H 234.148 -1.40952 -0.945018 0
M  V30 2419 H 232.92 -3.05339 -2.44711 0
M  V30 2420 H 232.543 -1.75507 -3.56767 0
M  V30 2421 N 233.54 1.10788 -1.12088 0
M  V30 2422 C 234.768 1.86461 -0.896651 0
M  V30 2423 C 235.183 1.80492 0.553912 0
M  V30 2424 O 234.54 1.19102 1.38278 0
M  V30 2425 C 234.591 3.35006 -1.35843 0
M  V30 2426 O 234.312 3.40866 -2.75213 0
M  V30 2427 C 235.813 4.27565 -1.1706 0
M  V30 2428 H 233.033 0.589425 -0.320654 0
M  V30 2429 H 235.577 1.40076 -1.48993 0
M  V30 2430 H 233.732 3.7887 -0.808458 0
M  V30 2431 H 234.146 4.33411 -2.9539 0
M  V30 2432 H 235.62 5.30007 -1.54263 0
M  V30 2433 H 236.097 4.3906 -0.110814 0
M  V30 2434 H 236.703 3.89501 -1.70789 0
M  V30 2435 N 235.018 0.912232 1.28515 0
M  V30 2436 C 235.981 0.404223 2.25607 0
M  V30 2437 C 236.981 -0.468602 1.53821 0
M  V30 2438 O 238.171 -0.271873 1.72065 0
M  V30 2439 C 235.303 -0.420653 3.38295 0
M  V30 2440 H 236.496 1.26188 2.7206 0
M  V30 2441 H 234.049 0.691495 1.40171 0
M  V30 2442 H 234.784 -1.29777 2.97201 0
M  V30 2443 H 234.569 0.204935 3.91564 0
M  V30 2444 H 236.059 -0.766971 4.10496 0
M  V30 2445 N 236.496 -1.42363 0.676048 0
M  V30 2446 C 237.736 -2.03392 0.20273 0
M  V30 2447 C 238.1 -1.52306 -1.16906 0
M  V30 2448 O 239.301 -2.05129 -1.73711 0
M  V30 2449 C 237.572 -3.56614 0.236947 0
M  V30 2450 S 239.131 -4.38489 -0.165186 0
M  V30 2451 H 235.949 -0.70611 0.0832418 0
M  V30 2452 H 238.551 -1.74093 0.88948 0
M  V30 2453 H 237.255 -3.91293 1.23767 0
M  V30 2454 H 236.786 -3.90587 -0.469596 0
M  V30 2455 H 238.801 -4.76093 -1.39822 0
M  V30 2456 N 237.974 -0.419461 -1.51915 0
M  V30 2457 C 239.199 0.154572 -2.06823 0
M  V30 2458 C 239.624 1.3722 -1.28656 0
M  V30 2459 O 238.982 1.78461 -0.319583 0
M  V30 2460 C 239.03 0.473172 -3.57482 0
M  V30 2461 O 238.134 1.56255 -3.81652 0
M  V30 2462 H 237.475 0.0096924 -0.663929 0
M  V30 2463 H 240.005 -0.595642 -1.95738 0
M  V30 2464 H 240.015 0.728825 -4.01438 0
M  V30 2465 H 238.69 -0.416873 -4.13805 0
M  V30 2466 H 237.267 1.29825 -3.49571 0
M  V30 2467 N 239.452 1.56882 -0.150215 0
M  V30 2468 C 240.677 2.01027 0.510184 0
M  V30 2469 C 241.102 1.02966 1.57415 0
M  V30 2470 O 240.46 0.00590158 1.81299 0
M  V30 2471 C 240.508 3.43899 1.08472 0
M  V30 2472 O 239.612 3.4885 2.19948 0
M  V30 2473 H 238.953 0.652233 0.124451 0
M  V30 2474 H 241.483 2.03093 -0.247894 0
M  V30 2475 H 241.493 3.82766 1.41259 0
M  V30 2476 H 240.168 4.14776 0.305582 0
M  V30 2477 H 238.745 3.21827 1.88366 0
M  V30 2478 N 240.93 -0.123565 1.57115 0
M  V30 2479 C 242.155 -0.850398 1.89164 0
M  V30 2480 C 242.58 -1.7286 0.741688 0
M  V30 2481 O 241.938 -1.78665 -0.307958 0
M  V30 2482 C 241.986 -1.66353 3.19936 0
M  V30 2483 O 241.09 -2.77004 3.0552 0
M  V30 2484 H 240.431 -0.235454 0.620852 0
M  V30 2485 H 242.961 -0.107335 2.04318 0
M  V30 2486 H 242.971 -2.05372 3.52543 0
M  V30 2487 H 241.646 -1.01881 4.03228 0
M  V30 2488 H 240.223 -2.41221 2.84371 0
M  V30 2489 N 242.408 -1.52605 -0.393616 0
M  V30 2490 C 243.338 -1.80022 -1.48709 0
M  V30 2491 C 244.319 -0.651995 -1.57108 0
M  V30 2492 O 245.504 -0.89913 -1.72132 0
M  V30 2493 C 242.634 -1.96492 -2.86371 0
M  V30 2494 C 241.588 -3.12161 -2.92813 0
M  V30 2495 C 240.914 -3.13877 -4.3288 0
M  V30 2496 C 242.214 -4.51322 -2.6288 0
M  V30 2497 H 243.908 -2.71589 -1.26015 0
M  V30 2498 H 241.454 -1.30684 -0.604778 0
M  V30 2499 H 243.407 -2.14255 -3.62867 0
M  V30 2500 H 242.131 -1.01611 -3.10391 0
M  V30 2501 H 240.79 -2.94173 -2.18764 0
M  V30 2502 H 240.438 -2.16687 -4.53933 0
M  V30 2503 H 240.138 -3.91576 -4.38112 0
M  V30 2504 H 241.662 -3.33789 -5.1129 0
M  V30 2505 H 243.076 -4.69435 -3.29096 0
M  V30 2506 H 241.473 -5.31053 -2.79468 0
M  V30 2507 H 242.543 -4.58353 -1.58242 0
M  V30 2508 N 243.887 0.651787 -1.4349 0
M  V30 2509 C 244.82 1.77668 -1.43211 0
M  V30 2510 C 245.798 1.59931 -0.29338 0
M  V30 2511 O 246.982 1.82095 -0.487191 0
M  V30 2512 C 244.109 3.14986 -1.24505 0
M  V30 2513 C 243.155 3.51421 -2.41673 0
M  V30 2514 S 243.988 3.51234 -4.04222 0
M  V30 2515 C 245.144 4.91206 -3.87902 0
M  V30 2516 H 245.377 1.77635 -2.38397 0
M  V30 2517 H 242.91 0.824558 -1.30539 0
M  V30 2518 H 244.868 3.94237 -1.144 0
M  V30 2519 H 243.529 3.1258 -0.308651 0
M  V30 2520 H 242.722 4.51291 -2.24393 0
M  V30 2521 H 242.324 2.79585 -2.48411 0
M  V30 2522 H 244.616 5.79902 -3.50315 0
M  V30 2523 H 245.559 5.13537 -4.8753 0
M  V30 2524 H 245.967 4.64808 -3.20334 0
M  V30 2525 N 245.365 1.30045 0.890287 0
M  V30 2526 C 246.328 1.15963 1.977 0
M  V30 2527 C 247.328 0.0923777 1.60534 0
M  V30 2528 O 248.518 0.340071 1.70848 0
M  V30 2529 C 245.65 0.775451 3.31963 0
M  V30 2530 H 246.843 2.12502 2.11619 0
M  V30 2531 H 244.396 1.13366 1.07601 0
M  V30 2532 H 245.131 -0.189671 3.23745 0
M  V30 2533 H 244.916 1.54668 3.60306 0
M  V30 2534 H 246.406 0.700251 4.11687 0
M  V30 2535 N 246.843 -1.10192 1.12674 0
M  V30 2536 C 247.773 -2.18652 0.819362 0
M  V30 2537 C 248.754 -1.68698 -0.217915 0
M  V30 2538 O 249.939 -1.94041 -0.0785581 0
M  V30 2539 C 247.069 -3.46202 0.27594 0
M  V30 2540 C 246.023 -4.09444 1.24656 0
M  V30 2541 C 245.349 -5.31725 0.563258 0
M  V30 2542 C 246.649 -4.52863 2.60217 0
M  V30 2543 H 248.343 -2.44622 1.72628 0
M  V30 2544 H 245.889 -1.17571 0.831451 0
M  V30 2545 H 247.842 -4.21372 0.0486149 0
M  V30 2546 H 246.566 -3.1973 -0.666331 0
M  V30 2547 H 245.225 -3.36284 1.45974 0
M  V30 2548 H 244.873 -5.0153 -0.384235 0
M  V30 2549 H 244.573 -5.74991 1.21075 0
M  V30 2550 H 246.097 -6.09624 0.34503 0
M  V30 2551 H 247.511 -5.19294 2.42913 0
M  V30 2552 H 245.908 -5.06986 3.21068 0
M  V30 2553 H 246.978 -3.65656 3.18471 0
M  V30 2554 N 248.321 -0.919034 -1.28029 0
M  V30 2555 C 249.253 -0.368762 -2.26214 0
M  V30 2556 C 250.266 0.495716 -1.55069 0
M  V30 2557 O 251.455 0.30974 -1.75792 0
M  V30 2558 C 248.555 0.491049 -3.35324 0
M  V30 2559 C 247.728 -0.352133 -4.3598 0
M  V30 2560 C 246.787 0.443622 -5.24327 0
M  V30 2561 O 245.813 -0.14566 -5.69014 0
M  V30 2562 N 247.015 1.74545 -5.53637 0
M  V30 2563 H 249.78 -1.21273 -2.74068 0
M  V30 2564 H 247.341 -0.785541 -1.41566 0
M  V30 2565 H 249.333 1.03026 -3.91366 0
M  V30 2566 H 247.903 1.23574 -2.87138 0
M  V30 2567 H 247.123 -1.07269 -3.79324 0
M  V30 2568 H 248.411 -0.928883 -5.00249 0
M  V30 2569 H 247.809 2.24666 -5.19174 0
M  V30 2570 H 246.366 2.23138 -6.12416 0
M  V30 2571 N 249.799 1.42003 -0.683588 0
M  V30 2572 C 250.747 2.326 0.000815408 0
M  V30 2573 C 251.741 1.50308 0.781278 0
M  V30 2574 O 252.947 1.66322 0.688251 0
M  V30 2575 H 249.322 0.751758 0.0190616 0
M  V30 2576 H 251.293 2.88011 -0.780528 0
M  V30 2577 C 250.042 3.34978 0.93195 0
M  V30 2578 H 249.365 3.98345 0.340817 0
M  V30 2579 H 250.805 4.00936 1.37936 0
M  V30 2580 C 249.264 2.67925 2.04249 0
M  V30 2581 O 249.794 2.51788 3.12995 0
M  V30 2582 N 248 2.2681 1.81675 0
M  V30 2583 H 247.547 2.40135 0.932363 0
M  V30 2584 H 247.505 1.8228 2.56167 0
M  V30 2585 N 251.277 0.427512 1.51691 0
M  V30 2586 C 252.24 -0.377132 2.26076 0
M  V30 2587 C 253.24 -0.958089 1.29141 0
M  V30 2588 O 254.43 -0.83408 1.52934 0
M  V30 2589 C 251.562 -1.53262 3.04506 0
M  V30 2590 H 252.755 0.27464 2.9864 0
M  V30 2591 H 250.308 0.180445 1.55255 0
M  V30 2592 H 251.043 -2.22072 2.36335 0
M  V30 2593 H 250.828 -1.12232 3.75694 0
M  V30 2594 H 252.318 -2.10135 3.60878 0
M  V30 2595 N 252.755 -1.56801 0.158532 0
M  V30 2596 C 253.985 -2.00568 -0.495583 0
M  V30 2597 C 254.393 -1.03774 -1.58201 0
M  V30 2598 O 253.736 -0.0285797 -1.83678 0
M  V30 2599 C 253.798 -3.40768 -1.14532 0
M  V30 2600 C 253.462 -4.56553 -0.202101 0
M  V30 2601 C 254.459 -5.16714 0.574675 0
M  V30 2602 C 252.144 -5.02197 -0.101648 0
M  V30 2603 C 254.138 -6.20939 1.43924 0
M  V30 2604 C 251.825 -6.06274 0.766508 0
M  V30 2605 C 252.823 -6.65515 1.53555 0
M  V30 2606 O 252.511 -7.67575 2.38922 0
M  V30 2607 H 252.243 -0.662893 -0.13247 0
M  V30 2608 H 254.797 -2.03829 0.253559 0
M  V30 2609 H 253.027 -3.34381 -1.94233 0
M  V30 2610 H 254.716 -3.6857 -1.70033 0
M  V30 2611 H 255.482 -4.82341 0.507167 0
M  V30 2612 H 251.361 -4.55807 -0.689994 0
M  V30 2613 H 254.905 -6.67107 2.03996 0
M  V30 2614 H 250.802 -6.40073 0.835266 0
M  V30 2615 H 251.57 -7.84844 2.32296 0
M  V30 2616 N 254.233 0.115231 -1.57178 0
M  V30 2617 C 255.165 1.16694 -1.97269 0
M  V30 2618 C 256.178 1.37445 -0.872502 0
M  V30 2619 O 257.367 1.36454 -1.15077 0
M  V30 2620 C 254.467 2.52627 -2.25905 0
M  V30 2621 C 253.64 2.52427 -3.57211 0
M  V30 2622 C 252.699 3.70134 -3.74016 0
M  V30 2623 O 251.725 3.53546 -4.46087 0
M  V30 2624 N 252.927 4.88844 -3.13068 0
M  V30 2625 H 255.692 0.82588 -2.88096 0
M  V30 2626 H 253.253 0.304461 -1.59011 0
M  V30 2627 H 255.245 3.29937 -2.34359 0
M  V30 2628 H 253.815 2.789 -1.41186 0
M  V30 2629 H 253.035 1.60805 -3.5991 0
M  V30 2630 H 254.323 2.49353 -4.43509 0
M  V30 2631 H 253.721 5.05225 -2.54489 0
M  V30 2632 H 252.278 5.63817 -3.27037 0
M  V30 2633 N 255.711 1.52812 0.385517 0
M  V30 2634 C 256.674 1.77188 1.45386 0
M  V30 2635 C 257.674 0.641953 1.4743 0
M  V30 2636 O 258.864 0.910033 1.4854 0
M  V30 2637 C 255.996 1.87582 2.8465 0
M  V30 2638 H 257.189 2.72583 1.25054 0
M  V30 2639 H 254.742 1.43586 0.617467 0
M  V30 2640 H 255.477 0.941849 3.10322 0
M  V30 2641 H 255.262 2.69748 2.84567 0
M  V30 2642 H 256.752 2.08102 3.62054 0
M  V30 2643 N 257.189 -0.644168 1.43834 0
M  V30 2644 C 258.438 -1.39985 1.45214 0
M  V30 2645 C 258.751 -1.95421 0.0835494 0
M  V30 2646 O 259.957 -2.71488 -0.0251748 0
M  V30 2647 C 258.413 -2.53384 2.55587 0
M  V30 2648 C 258.021 -2.04517 3.98594 0
M  V30 2649 C 259.765 -3.30685 2.66172 0
M  V30 2650 C 257.672 -3.1518 5.00416 0
M  V30 2651 H 256.602 -0.526005 0.540218 0
M  V30 2652 H 259.253 -0.694367 1.69855 0
M  V30 2653 H 257.635 -3.26446 2.24163 0
M  V30 2654 H 258.809 -1.38405 4.39523 0
M  V30 2655 H 257.124 -1.40068 3.92135 0
M  V30 2656 H 259.721 -4.13158 3.39418 0
M  V30 2657 H 260.064 -3.79312 1.71546 0
M  V30 2658 H 260.597 -2.64708 2.96942 0
M  V30 2659 H 257.336 -2.71511 5.96625 0
M  V30 2660 H 256.856 -3.79974 4.64091 0
M  V30 2661 H 258.535 -3.80166 5.23529 0
M  V30 2662 N 258.668 -1.30515 -0.883378 0
M  V30 2663 C 259.618 -1.13641 -1.9766 0
M  V30 2664 C 260.602 -0.0511314 -1.60819 0
M  V30 2665 O 261.794 -0.274623 -1.74857 0
M  V30 2666 C 258.923 -0.831976 -3.33066 0
M  V30 2667 C 258.009 -1.95759 -3.76217 0
M  V30 2668 N 258.4 -3.20313 -3.9145 0
M  V30 2669 C 256.698 -1.85431 -4.05625 0
M  V30 2670 C 257.399 -3.93856 -4.2808 0
M  V30 2671 N 256.375 -3.21919 -4.38029 0
M  V30 2672 H 260.177 -2.08106 -2.07531 0
M  V30 2673 H 257.691 -1.21877 -1.0733 0
M  V30 2674 H 259.688 -0.692102 -4.11115 0
M  V30 2675 H 258.348 0.104588 -3.24532 0
M  V30 2676 H 259.359 -3.55583 -3.76538 0
M  V30 2677 H 256.036 -0.991531 -4.05555 0
M  V30 2678 H 257.426 -5.01125 -4.47575 0
M  V30 2679 N 260.146 1.09593 -1.13257 0
M  V30 2680 C 261.371 1.8604 -0.916732 0
M  V30 2681 C 261.796 1.80504 0.529146 0
M  V30 2682 O 261.154 1.18127 1.37534 0
M  V30 2683 C 261.202 3.32017 -1.40703 0
M  V30 2684 O 260.306 4.08141 -0.591153 0
M  V30 2685 H 259.647 0.576943 -0.328683 0
M  V30 2686 H 262.177 1.38405 -1.50682 0
M  V30 2687 H 262.187 3.82865 -1.4099 0
M  V30 2688 H 260.862 3.35361 -2.45979 0
M  V30 2689 H 259.439 3.67084 -0.656005 0
M  V30 2690 N 261.624 0.925811 1.2754 0
M  V30 2691 C 262.872 0.564138 1.94067 0
M  V30 2692 C 263.193 -0.897188 1.73134 0
M  V30 2693 O 262.463 -1.63573 1.07799 0
M  V30 2694 H 261.043 0.205645 0.718136 0
M  V30 2695 H 263.705 1.1778 1.55287 0
M  V30 2696 H 262.801 0.76881 3.02483 0
M  V30 2697 N 263.102 -1.41638 0.69111 0
M  V30 2698 C 264.034 -2.29194 -0.0161523 0
M  V30 2699 C 265.047 -1.44549 -0.748955 0
M  V30 2700 O 266.236 -1.681 -0.6004 0
M  V30 2701 C 263.336 -3.22325 -1.0469 0
M  V30 2702 C 262.509 -4.35706 -0.384621 0
M  V30 2703 C 261.568 -5.09443 -1.31737 0
M  V30 2704 O 260.594 -5.63386 -0.811451 0
M  V30 2705 N 261.796 -5.16487 -2.64993 0
M  V30 2706 H 264.561 -2.90534 0.735523 0
M  V30 2707 H 262.122 -1.52742 0.53679 0
M  V30 2708 H 264.114 -3.68522 -1.67252 0
M  V30 2709 H 262.684 -2.62323 -1.70015 0
M  V30 2710 H 261.904 -3.91948 0.420804 0
M  V30 2711 H 263.192 -5.08743 0.0760765 0
M  V30 2712 H 262.59 -4.741 -3.08619 0
M  V30 2713 H 261.147 -5.66276 -3.22761 0
M  V30 2714 N 264.58 -0.43555 -1.51462 0
M  V30 2715 C 265.82 0.130708 -2.03982 0
M  V30 2716 C 266.184 1.40117 -1.31268 0
M  V30 2717 O 267.385 2.04755 -1.74152 0
M  V30 2718 C 265.656 0.346102 -3.5572 0
M  V30 2719 S 267.215 0.876022 -4.29967 0
M  V30 2720 H 264.033 0.0326881 -0.710248 0
M  V30 2721 H 266.635 -0.594544 -1.8624 0
M  V30 2722 H 265.339 -0.584911 -4.0621 0
M  V30 2723 H 264.87 1.09849 -3.77752 0
M  V30 2724 H 266.885 2.15379 -4.47019 0
M  V30 2725 N 266.058 1.56714 -0.166846 0
M  V30 2726 C 267.469 1.83378 0.350646 0
M  V30 2727 C 267.82 1.08646 1.63372 0
M  V30 2728 O 266.945 0.338058 2.13743 0
M  V30 2729 C 267.54 3.32643 0.642963 0
M  V30 2730 C 266.099 3.59818 1.10491 0
M  V30 2731 C 265.246 2.76954 0.138411 0
M  V30 2732 H 268.197 1.53803 -0.391193 0
M  V30 2733 H 268.218 3.49878 1.49551 0
M  V30 2734 H 267.73 3.87007 -0.291055 0
M  V30 2735 H 265.831 3.1086 2.05418 0
M  V30 2736 H 265.944 4.68178 1.01716 0
M  V30 2737 H 264.308 2.4666 0.634911 0
M  V30 2738 H 265.091 3.34097 -0.789549 0
M  V30 2739 N 267.536 -0.106894 1.57237 0
M  V30 2740 C 268.499 -1.11466 2.0027 0
M  V30 2741 C 269.499 -1.33623 0.894519 0
M  V30 2742 O 270.689 -1.29935 1.16028 0
M  V30 2743 C 267.821 -2.46646 2.35327 0
M  V30 2744 H 269.014 -0.744516 2.90512 0
M  V30 2745 H 266.567 -0.351576 1.52295 0
M  V30 2746 H 267.302 -2.88558 1.48003 0
M  V30 2747 H 267.087 -2.31915 3.16161 0
M  V30 2748 H 268.577 -3.19151 2.69318 0
M  V30 2749 N 269.014 -1.53014 -0.377408 0
M  V30 2750 C 269.977 -1.77957 -1.44444 0
M  V30 2751 C 270.977 -0.649763 -1.47087 0
M  V30 2752 O 272.167 -0.917897 -1.48055 0
M  V30 2753 C 269.299 -1.89089 -2.83651 0
M  V30 2754 H 270.492 -2.73243 -1.23606 0
M  V30 2755 H 268.045 -1.43912 -0.609844 0
M  V30 2756 H 268.78 -0.958293 -3.09818 0
M  V30 2757 H 268.565 -2.71254 -2.83132 0
M  V30 2758 H 270.055 -2.1002 -3.60945 0
M  V30 2759 N 270.492 0.636531 -1.44174 0
M  V30 2760 C 271.741 1.39213 -1.45954 0
M  V30 2761 C 272.054 1.95374 -0.0939119 0
M  V30 2762 O 273.26 2.71498 0.0107767 0
M  V30 2763 C 271.716 2.52025 -2.56927 0
M  V30 2764 C 271.324 2.024 -3.99673 0
M  V30 2765 C 273.068 3.29269 -2.67922 0
M  V30 2766 C 270.975 3.12521 -5.0208 0
M  V30 2767 H 269.905 0.523132 -0.542999 0
M  V30 2768 H 272.556 0.685349 -1.70221 0
M  V30 2769 H 270.938 3.25253 -2.25891 0
M  V30 2770 H 272.112 1.36073 -4.40251 0
M  V30 2771 H 270.427 1.37987 -3.92872 0
M  V30 2772 H 273.024 4.11352 -3.41605 0
M  V30 2773 H 273.367 3.78397 -1.73555 0
M  V30 2774 H 273.9 2.63129 -2.98342 0
M  V30 2775 H 270.639 2.68343 -5.98057 0
M  V30 2776 H 270.159 3.77507 -4.66099 0
M  V30 2777 H 271.838 3.77385 -5.25538 0
M  V30 2778 N 271.97 1.30982 0.876444 0
M  V30 2779 C 273.216 1.20474 1.63138 0
M  V30 2780 C 273.549 -0.238096 1.92735 0
M  V30 2781 O 272.824 -1.1692 1.55435 0
M  V30 2782 C 273.107 2.04244 2.96574 0
M  V30 2783 C 272.96 3.56793 2.73896 0
M  V30 2784 C 274.279 1.88684 3.97601 0
M  V30 2785 H 271.398 0.439001 0.591985 0
M  V30 2786 H 274.04 1.60704 1.01361 0
M  V30 2787 H 272.19 1.70063 3.493 0
M  V30 2788 H 273.862 4.01077 2.27892 0
M  V30 2789 H 272.105 3.80548 2.08245 0
M  V30 2790 H 272.776 4.10706 3.68815 0
M  V30 2791 H 275.252 2.18584 3.54062 0
M  V30 2792 H 274.128 2.4961 4.88862 0
M  V30 2793 H 274.389 0.848343 4.33884 0
M  V30 2794 N 273.449 -1.08991 1.13837 0
M  V30 2795 C 274.697 -1.80899 0.901098 0
M  V30 2796 C 275.018 -1.86356 -0.574134 0
M  V30 2797 O 274.288 -1.35235 -1.41733 0
M  V30 2798 H 272.868 -0.669966 0.330386 0
M  V30 2799 H 275.53 -1.318 1.43578 0
M  V30 2800 H 274.626 -2.83929 1.29578 0
M  V30 2801 N 274.927 -0.932562 -1.27047 0
M  V30 2802 C 276.175 -0.574422 -1.93765 0
M  V30 2803 C 276.496 0.887993 -1.73608 0
M  V30 2804 O 275.766 1.62999 -1.08665 0
M  V30 2805 H 274.346 -0.209451 -0.717035 0
M  V30 2806 H 277.008 -1.18601 -1.5466 0
M  V30 2807 H 276.104 -0.784841 -3.02071 0
M  V30 2808 N 276.405 1.4127 -0.698611 0
M  V30 2809 C 277.654 2.00408 -0.227949 0
M  V30 2810 C 277.967 1.55981 1.18023 0
M  V30 2811 O 279.173 2.07699 1.74852 0
M  V30 2812 C 277.629 3.58129 -0.356636 0
M  V30 2813 C 277.237 4.11536 -1.77037 0
M  V30 2814 C 278.981 4.24466 0.0540969 0
M  V30 2815 C 276.888 5.61701 -1.85055 0
M  V30 2816 H 275.818 0.749586 -0.0814657 0
M  V30 2817 H 278.469 1.61713 -0.867249 0
M  V30 2818 H 276.851 3.94442 0.350965 0
M  V30 2819 H 278.025 3.86636 -2.50698 0
M  V30 2820 H 276.34 3.57736 -2.13105 0
M  V30 2821 H 278.937 5.34698 0.0146723 0
M  V30 2822 H 279.28 4.01687 1.09332 0
M  V30 2823 H 279.813 3.93198 -0.603337 0
M  V30 2824 H 276.552 5.89312 -2.8704 0
M  V30 2825 H 276.072 5.88519 -1.15783 0
M  V30 2826 H 277.751 6.26524 -1.61484 0
M  V30 2827 N 277.883 0.443576 1.51229 0
M  V30 2828 C 278.831 -0.37904 2.29491 0
M  V30 2829 C 279.825 -1.0153 1.35603 0
M  V30 2830 O 281.031 -0.94955 1.52917 0
M  V30 2831 H 277.406 -0.141053 0.738653 0
M  V30 2832 H 279.377 0.301799 2.9687 0
M  V30 2833 C 278.126 -1.46426 3.15364 0
M  V30 2834 H 277.449 -0.984037 3.87501 0
M  V30 2835 H 278.889 -2.01297 3.7317 0
M  V30 2836 C 277.348 -2.45099 2.31146 0
M  V30 2837 O 277.878 -3.49773 1.9754 0
M  V30 2838 N 276.084 -2.16139 1.94249 0
M  V30 2839 H 275.631 -1.31044 2.21777 0
M  V30 2840 H 275.589 -2.82398 1.38198 0
M  V30 2841 N 279.361 -1.56624 0.175154 0
M  V30 2842 C 280.607 -1.9729 -0.469506 0
M  V30 2843 C 280.94 -1.06128 -1.62636 0
M  V30 2844 O 280.215 -0.109183 -1.94193 0
M  V30 2845 C 280.498 -3.47375 -0.948804 0
M  V30 2846 C 280.351 -4.49317 0.208491 0
M  V30 2847 C 281.67 -4.00652 -1.82116 0
M  V30 2848 H 278.789 -0.717317 -0.16919 0
M  V30 2849 H 281.431 -1.88184 0.262062 0
M  V30 2850 H 279.581 -3.55267 -1.57219 0
M  V30 2851 H 281.253 -4.53482 0.845682 0
M  V30 2852 H 279.496 -4.25121 0.863395 0
M  V30 2853 H 280.167 -5.51741 -0.169059 0
M  V30 2854 H 282.643 -3.95416 -1.2956 0
M  V30 2855 H 281.519 -5.06075 -2.12554 0
M  V30 2856 H 281.78 -3.44699 -2.7683 0
M  V30 2857 N 280.839 0.0985539 -1.57292 0
M  V30 2858 C 281.769 1.12064 -2.04851 0
M  V30 2859 C 282.75 1.41981 -0.936767 0
M  V30 2860 O 283.935 1.52071 -1.20781 0
M  V30 2861 C 281.065 2.44144 -2.47004 0
M  V30 2862 C 280.019 2.28643 -3.6181 0
M  V30 2863 C 279.345 3.65869 -3.89929 0
M  V30 2864 C 280.645 1.72986 -4.92822 0
M  V30 2865 H 282.339 0.724979 -2.9049 0
M  V30 2866 H 279.885 0.34729 -1.39749 0
M  V30 2867 H 281.838 3.15914 -2.78884 0
M  V30 2868 H 280.562 2.85639 -1.5836 0
M  V30 2869 H 279.221 1.59318 -3.30172 0
M  V30 2870 H 278.869 4.04885 -2.98458 0
M  V30 2871 H 278.569 3.56344 -4.67218 0
M  V30 2872 H 280.093 4.39112 -4.2428 0
M  V30 2873 H 281.507 2.34593 -5.23105 0
M  V30 2874 H 279.904 1.74229 -5.74251 0
M  V30 2875 H 280.974 0.689007 -4.7998 0
M  V30 2876 N 282.317 1.53212 0.369288 0
M  V30 2877 C 283.247 1.82365 1.45826 0
M  V30 2878 C 284.228 0.676907 1.56051 0
M  V30 2879 O 285.413 0.926401 1.70679 0
M  V30 2880 C 282.543 2.01023 2.83208 0
M  V30 2881 C 281.497 3.1678 2.8781 0
M  V30 2882 C 280.823 3.20724 4.27832 0
M  V30 2883 C 282.123 4.55447 2.55667 0
M  V30 2884 H 283.817 2.73559 1.21678 0
M  V30 2885 H 281.363 1.3163 0.583911 0
M  V30 2886 H 283.316 2.20001 3.59413 0
M  V30 2887 H 282.04 1.06536 3.08736 0
M  V30 2888 H 280.699 2.97616 2.14056 0
M  V30 2889 H 280.347 2.23882 4.50429 0
M  V30 2890 H 280.047 3.98496 4.31827 0
M  V30 2891 H 281.571 3.41881 5.05915 0
M  V30 2892 H 282.985 4.74611 3.21586 0
M  V30 2893 H 281.382 5.35432 2.70984 0
M  V30 2894 H 282.452 4.60812 1.5093 0
M  V30 2895 N 283.795 -0.628877 1.44509 0
M  V30 2896 C 284.742 -1.74074 1.51549 0
M  V30 2897 C 285.712 -1.62084 0.363021 0
M  V30 2898 O 286.897 -1.81975 0.573567 0
M  V30 2899 C 284.037 -3.12328 1.46784 0
M  V30 2900 C 283.15 -3.35277 2.72422 0
M  V30 2901 C 282.285 -4.63515 2.59475 0
M  V30 2902 C 281.324 -4.7965 3.80266 0
M  V30 2903 N 280.461 -5.99168 3.65981 0
M  V30 2904 H 285.301 -1.67392 2.46544 0
M  V30 2905 H 282.838 -0.816527 1.22357 0
M  V30 2906 H 284.796 -3.92286 1.42012 0
M  V30 2907 H 283.426 -3.18018 0.553544 0
M  V30 2908 H 282.478 -2.49242 2.87372 0
M  V30 2909 H 283.79 -3.43078 3.62076 0
M  V30 2910 H 282.944 -5.51638 2.52548 0
M  V30 2911 H 281.683 -4.58076 1.67384 0
M  V30 2912 H 280.688 -3.89957 3.87574 0
M  V30 2913 H 281.913 -4.86902 4.73395 0
M  V30 2914 H 279.859 -5.94814 2.76644 0
M  V30 2915 H 279.776 -6.08035 4.49254 0
M  V30 2916 H 281.044 -6.89846 3.6295 0
M  V30 2917 N 285.273 -1.31445 -0.869486 0
M  V30 2918 C 286.684 -1.19042 -1.43826 0
M  V30 2919 C 287.035 0.202919 -1.95148 0
M  V30 2920 O 286.16 1.10071 -1.86315 0
M  V30 2921 C 286.755 -2.15499 -2.6143 0
M  V30 2922 C 285.314 -2.07028 -3.14351 0
M  V30 2923 C 284.461 -2.04701 -1.87063 0
M  V30 2924 H 287.412 -1.43489 -0.677984 0
M  V30 2925 H 287.433 -1.74488 -3.38134 0
M  V30 2926 H 286.945 -3.16899 -2.24046 0
M  V30 2927 H 285.046 -1.08825 -3.56354 0
M  V30 2928 H 285.159 -2.96157 -3.766 0
M  V30 2929 H 283.523 -1.49724 -2.06046 0
M  V30 2930 H 284.306 -3.07857 -1.51917 0
M  V30 2931 N 286.751 1.08385 -1.14413 0
M  V30 2932 C 287.699 2.17406 -0.826888 0
M  V30 2933 C 288.693 1.6827 0.195312 0
M  V30 2934 O 289.899 1.79927 0.0513892 0
M  V30 2935 H 286.274 0.70934 -0.249681 0
M  V30 2936 H 288.245 2.41388 -1.75426 0
M  V30 2937 C 286.994 3.46215 -0.320979 0
M  V30 2938 H 286.317 3.84401 -1.0989 0
M  V30 2939 H 287.757 4.23777 -0.137549 0
M  V30 2940 C 286.216 3.23067 0.955472 0
M  V30 2941 O 286.746 3.4668 2.02918 0
M  V30 2942 N 284.952 2.7661 0.890798 0
M  V30 2943 H 284.499 2.57594 0.0168815 0
M  V30 2944 H 284.457 2.61501 1.74542 0
M  V30 2945 N 288.23 0.939286 1.26551 0
M  V30 2946 C 289.458 0.602536 1.97932 0
M  V30 2947 C 289.873 -0.82206 1.69964 0
M  V30 2948 O 289.23 -1.54789 0.966784 0
M  V30 2949 C 289.281 0.832946 3.51773 0
M  V30 2950 O 289.002 2.20151 3.78768 0
M  V30 2951 C 290.503 0.506483 4.40397 0
M  V30 2952 H 287.723 0.227248 0.631347 0
M  V30 2953 H 290.267 1.25948 1.61113 0
M  V30 2954 H 288.422 0.222644 3.8676 0
M  V30 2955 H 288.836 2.26013 4.73306 0
M  V30 2956 H 290.31 0.718333 5.47306 0
M  V30 2957 H 290.787 -0.558451 4.35635 0
M  V30 2958 H 291.393 1.09543 4.10951 0
M  V30 2959 N 289.708 -1.40897 0.706093 0
M  V30 2960 C 290.933 -2.05895 0.249435 0
M  V30 2961 C 291.358 -1.52823 -1.09666 0
M  V30 2962 O 290.716 -0.659589 -1.68876 0
M  V30 2963 C 290.764 -3.59872 0.22904 0
M  V30 2964 O 289.868 -4.04708 -0.792784 0
M  V30 2965 H 289.209 -0.653206 0.119241 0
M  V30 2966 H 291.739 -1.80471 0.96391 0
M  V30 2967 H 291.749 -4.07951 0.0634791 0
M  V30 2968 H 290.424 -3.97866 1.21141 0
M  V30 2969 H 289.001 -3.68111 -0.59572 0
M  V30 2970 N 291.186 -0.45159 -1.50991 0
M  V30 2971 C 292.432 0.110237 -2.025 0
M  V30 2972 C 292.765 1.41109 -1.33424 0
M  V30 2973 O 292.04 1.89135 -0.453659 0
M  V30 2974 C 292.323 0.314271 -3.58726 0
M  V30 2975 C 292.176 -1.00623 -4.38401 0
M  V30 2976 C 293.495 1.07767 -4.26702 0
M  V30 2977 H 290.614 0.0385897 -0.735989 0
M  V30 2978 H 293.256 -0.593374 -1.80497 0
M  V30 2979 H 291.406 0.913601 -3.77605 0
M  V30 2980 H 293.078 -1.64064 -4.31139 0
M  V30 2981 H 291.321 -1.6075 -4.02917 0
M  V30 2982 H 291.992 -0.817341 -5.45915 0
M  V30 2983 H 294.468 0.56986 -4.12179 0
M  V30 2984 H 293.344 1.18921 -5.35863 0
M  V30 2985 H 293.605 2.10939 -3.88532 0
M  V30 2986 N 292.664 1.56529 -0.183458 0
M  V30 2987 C 293.596 2.15747 0.773697 0
M  V30 2988 C 294.609 1.1162 1.1851 0
M  V30 2989 O 295.798 1.3876 1.12285 0
M  V30 2990 C 292.898 2.6952 2.05456 0
M  V30 2991 C 292.071 3.98429 1.8048 0
M  V30 2992 C 291.13 4.37145 2.92901 0
M  V30 2993 O 290.156 5.04791 2.6301 0
M  V30 2994 N 291.358 3.99695 4.2098 0
M  V30 2995 H 294.123 2.98505 0.26736 0
M  V30 2996 H 291.684 1.619 -0.0010878 0
M  V30 2997 H 293.676 2.92412 2.79781 0
M  V30 2998 H 292.246 1.91282 2.47245 0
M  V30 2999 H 291.466 3.8379 0.899947 0
M  V30 3000 H 292.754 4.82597 1.61175 0
M  V30 3001 H 292.152 3.4526 4.48121 0
M  V30 3002 H 290.709 4.27562 4.9197 0
M  V30 3003 N 294.142 -0.090211 1.57342 0
M  V30 3004 C 295.389 -0.792807 1.86335 0
M  V30 3005 C 295.717 -1.78494 0.772662 0
M  V30 3006 O 294.972 -1.94305 -0.233258 0
M  V30 3007 C 295.271 -1.55222 3.21933 0
M  V30 3008 C 294.937 -0.701765 4.45406 0
M  V30 3009 C 293.599 -0.467334 4.78925 0
M  V30 3010 C 295.951 -0.11086 5.21082 0
M  V30 3011 C 293.279 0.367785 5.85546 0
M  V30 3012 C 295.631 0.711609 6.28585 0
M  V30 3013 C 294.295 0.956086 6.60617 0
M  V30 3014 H 293.565 -0.290109 0.681849 0
M  V30 3015 H 296.212 -0.0541332 1.91423 0
M  V30 3016 H 294.517 -2.3626 3.12551 0
M  V30 3017 H 296.214 -2.10032 3.41595 0
M  V30 3018 H 292.804 -0.894598 4.1916 0
M  V30 3019 H 296.988 -0.279129 4.95514 0
M  V30 3020 H 292.244 0.566128 6.08773 0
M  V30 3021 H 296.418 1.17632 6.86393 0
M  V30 3022 H 294.045 1.60499 7.43064 0
M  V30 3023 N 295.62 -1.53406 -0.361157 0
M  V30 3024 C 296.55 -1.83136 -1.44857 0
M  V30 3025 C 297.531 -0.685174 -1.5569 0
M  V30 3026 O 298.716 -0.93544 -1.70186 0
M  V30 3027 C 295.846 -2.02522 -2.82138 0
M  V30 3028 C 294.8 -3.18302 -2.86126 0
M  V30 3029 C 294.126 -3.22989 -4.26125 0
M  V30 3030 C 295.426 -4.56796 -2.53248 0
M  V30 3031 H 297.12 -2.74201 -1.20226 0
M  V30 3032 H 294.666 -1.31938 -0.576922 0
M  V30 3033 H 296.619 -2.21904 -3.58241 0
M  V30 3034 H 295.343 -1.08172 -3.08166 0
M  V30 3035 H 294.002 -2.98747 -2.12475 0
M  V30 3036 H 293.65 -2.26267 -4.49235 0
M  V30 3037 H 293.35 -4.00781 -4.29708 0
M  V30 3038 H 294.874 -3.44559 -5.04094 0
M  V30 3039 H 296.288 -4.7631 -3.19064 0
M  V30 3040 H 294.685 -5.36862 -2.68141 0
M  V30 3041 H 295.755 -4.61606 -1.48484 0
M  V30 3042 N 297.098 0.621204 -1.44841 0
M  V30 3043 C 298.514 0.94048 -1.28946 0
M  V30 3044 C 298.714 2.00154 -0.23249 0
M  V30 3045 O 297.77 2.49651 0.378237 0
M  V30 3046 C 299.083 1.39433 -2.66419 0
M  V30 3047 C 300.631 1.50927 -2.74208 0
M  V30 3048 C 301.106 1.99692 -4.12174 0
M  V30 3049 N 302.597 2.06947 -4.144 0
M  V30 3050 C 303.332 2.45871 -5.1801 0
M  V30 3051 N 302.828 2.83862 -6.31977 0
M  V30 3052 N 304.621 2.46092 -5.05366 0
M  V30 3053 H 296.772 -0.0803548 -2.12248 0
M  V30 3054 H 299.035 0.0266913 -0.947624 0
M  V30 3055 H 298.741 0.688925 -3.44887 0
M  V30 3056 H 298.615 2.36347 -2.93973 0
M  V30 3057 H 301.002 2.20561 -1.96053 0
M  V30 3058 H 301.083 0.523627 -2.50383 0
M  V30 3059 H 300.727 1.30649 -4.90809 0
M  V30 3060 H 300.657 2.99146 -4.33381 0
M  V30 3061 H 303.148 1.80232 -3.32152 0
M  V30 3062 H 303.461 3.12405 -7.0684 0
M  V30 3063 H 301.806 2.8159 -6.35399 0
M  V30 3064 H 304.997 2.1581 -4.15384 0
M  V30 3065 H 305.17 2.76102 -5.86235 0
M  V30 3066 N 298.576 1.31904 0.862503 0
M  V30 3067 C 299.506 1.22782 1.98612 0
M  V30 3068 C 300.487 0.113362 1.69722 0
M  V30 3069 O 301.672 0.299218 1.91881 0
M  V30 3070 C 298.802 0.942058 3.34279 0
M  V30 3071 C 297.756 2.0169 3.77499 0
M  V30 3072 C 297.082 1.58369 5.10709 0
M  V30 3073 C 298.382 3.43096 3.93805 0
M  V30 3074 H 300.076 2.16788 2.06502 0
M  V30 3075 H 297.622 1.04366 0.992154 0
M  V30 3076 H 299.575 0.864818 4.1243 0
M  V30 3077 H 298.299 -0.0336603 3.26583 0
M  V30 3078 H 296.958 2.08416 3.01593 0
M  V30 3079 H 296.606 0.595628 4.99461 0
M  V30 3080 H 296.306 2.30279 5.40597 0
M  V30 3081 H 297.83 1.52067 5.91361 0
M  V30 3082 H 299.244 3.39003 4.62331 0
M  V30 3083 H 297.641 4.13288 4.35101 0
M  V30 3084 H 298.711 3.83334 2.96957 0
M  V30 3085 N 300.054 -1.07777 1.14986 0
M  V30 3086 C 301.302 -1.79934 0.920235 0
M  V30 3087 C 301.623 -1.86955 -0.554336 0
M  V30 3088 O 300.893 -1.36731 -1.40291 0
M  V30 3089 H 299.473 -0.666424 0.337473 0
M  V30 3090 H 302.135 -1.3027 1.44968 0
M  V30 3091 H 301.231 -2.82539 1.32583 0
M  V30 3092 N 301.532 -0.945985 -1.26051 0
M  V30 3093 C 302.465 -0.403619 -2.24602 0
M  V30 3094 C 303.443 0.510241 -1.54387 0
M  V30 3095 O 304.627 0.446593 -1.83133 0
M  V30 3096 C 301.754 0.419564 -3.36091 0
M  V30 3097 C 300.8 -0.433454 -4.24292 0
M  V30 3098 S 301.633 -1.86037 -5.02146 0
M  V30 3099 C 302.789 -1.04538 -6.17108 0
M  V30 3100 H 303.022 -1.23883 -2.7026 0
M  V30 3101 H 300.555 -0.749438 -1.34992 0
M  V30 3102 H 302.513 0.888595 -4.00767 0
M  V30 3103 H 301.174 1.22951 -2.89036 0
M  V30 3104 H 300.367 0.197486 -5.03613 0
M  V30 3105 H 299.969 -0.837357 -3.64506 0
M  V30 3106 H 302.261 -0.289923 -6.76879 0
M  V30 3107 H 303.204 -1.81222 -6.84518 0
M  V30 3108 H 303.612 -0.579319 -5.61519 0
M  V30 3109 N 303.011 1.40521 -0.713556 0
M  V30 3110 C 303.941 2.33381 -0.0743864 0
M  V30 3111 C 304.922 1.52784 0.747735 0
M  V30 3112 O 306.107 1.81258 0.697071 0
M  V30 3113 C 303.237 3.36748 0.849598 0
M  V30 3114 C 302.191 4.27793 0.133247 0
M  V30 3115 C 301.517 5.21679 1.17281 0
M  V30 3116 C 302.817 5.12415 -1.01134 0
M  V30 3117 H 304.511 2.87081 -0.850007 0
M  V30 3118 H 302.057 1.38034 -0.410201 0
M  V30 3119 H 304.01 4.00648 1.30612 0
M  V30 3120 H 302.734 2.81439 1.65709 0
M  V30 3121 H 301.393 3.65342 -0.303426 0
M  V30 3122 H 301.041 4.62677 1.9733 0
M  V30 3123 H 300.741 5.83435 0.698397 0
M  V30 3124 H 302.265 5.88456 1.62947 0
M  V30 3125 H 303.679 5.69781 -0.634274 0
M  V30 3126 H 302.076 5.83203 -1.41399 0
M  V30 3127 H 303.146 4.48514 -1.84292 0
M  V30 3128 N 304.489 0.459591 1.5075 0
M  V30 3129 C 305.714 -0.0996819 2.0716 0
M  V30 3130 C 306.139 -1.33761 1.32249 0
M  V30 3131 O 305.497 -1.77551 0.366786 0
M  V30 3132 C 305.545 -0.378226 3.58611 0
M  V30 3133 O 304.649 -1.46081 3.85661 0
M  V30 3134 H 303.99 0.00791392 0.663953 0
M  V30 3135 H 306.52 0.647329 1.9409 0
M  V30 3136 H 306.53 -0.622135 4.03229 0
M  V30 3137 H 305.205 0.526439 4.12555 0
M  V30 3138 H 303.782 -1.20511 3.5289 0
M  V30 3139 N 305.967 -1.56429 0.191757 0
M  V30 3140 C 307.378 -1.83912 -0.321428 0
M  V30 3141 C 307.729 -1.11231 -1.61623 0
M  V30 3142 O 306.854 -0.37202 -2.13178 0
M  V30 3143 C 307.449 -3.33624 -0.589961 0
M  V30 3144 C 306.008 -3.6153 -1.04753 0
M  V30 3145 C 305.155 -2.7714 -0.0943327 0
M  V30 3146 H 308.106 -1.53161 0.415612 0
M  V30 3147 H 308.127 -3.52213 -1.43966 0
M  V30 3148 H 307.639 -3.86495 0.352588 0
M  V30 3149 H 305.74 -3.14089 -2.00447 0
M  V30 3150 H 305.853 -4.69737 -0.942549 0
M  V30 3151 H 304.217 -2.47638 -0.595589 0
M  V30 3152 H 305 -3.32799 0.842601 0
M  V30 3153 N 307.445 0.0818655 -1.57387 0
M  V30 3154 C 308.355 1.11642 -2.06333 0
M  V30 3155 C 309.371 1.43033 -0.99083 0
M  V30 3156 O 310.547 1.53411 -1.30488 0
M  V30 3157 C 307.612 2.41342 -2.48907 0
M  V30 3158 C 306.673 2.17014 -3.7041 0
M  V30 3159 C 305.906 3.4053 -4.10944 0
M  V30 3160 O 306.129 4.4927 -3.51444 0
M  V30 3161 O 305.063 3.29336 -5.03807 0
M  V30 3162 H 308.889 0.730657 -2.9478 0
M  V30 3163 H 306.474 0.295301 -1.46452 0
M  V30 3164 H 308.356 3.17691 -2.76858 0
M  V30 3165 H 307.031 2.79319 -1.63593 0
M  V30 3166 H 305.938 1.38403 -3.47556 0
M  V30 3167 H 307.271 1.83923 -4.56545 0
M  V30 3168 N 308.923 1.53595 0.353017 0
M  V30 3169 C 310.171 1.70049 1.09215 0
M  V30 3170 C 310.492 0.461406 1.89463 0
M  V30 3171 O 309.762 -0.524633 1.88744 0
M  V30 3172 H 308.342 0.626912 0.40619 0
M  V30 3173 H 311.004 1.90822 0.396585 0
M  V30 3174 H 310.1 2.56718 1.77488 0
M  V30 3175 N 310.401 -0.613514 1.45168 0
M  V30 3176 C 311.629 -1.39946 1.5239 0
M  V30 3177 C 312.044 -1.88167 0.154531 0
M  V30 3178 O 311.401 -1.61872 -0.842843 0
M  V30 3179 C 311.452 -2.60795 2.50337 0
M  V30 3180 O 311.173 -2.1458 3.81952 0
M  V30 3181 C 312.674 -3.53723 2.67198 0
M  V30 3182 H 309.894 -0.428593 0.516284 0
M  V30 3183 H 312.438 -0.748753 1.903 0
M  V30 3184 H 310.593 -3.21919 2.15515 0
M  V30 3185 H 311.007 -2.93055 4.34993 0
M  V30 3186 H 312.481 -4.35079 3.39721 0
M  V30 3187 H 312.958 -4.0368 1.73029 0
M  V30 3188 H 313.564 -2.98456 3.02992 0
M  V30 3189 N 311.879 -1.3236 -0.855495 0
M  V30 3190 C 313.119 -1.24187 -1.62348 0
M  V30 3191 C 313.483 0.193597 -1.91021 0
M  V30 3192 O 314.684 0.39904 -2.65822 0
M  V30 3193 C 312.955 -2.07661 -2.90881 0
M  V30 3194 S 314.514 -2.16505 -3.81669 0
M  V30 3195 H 311.332 -0.442076 -0.556857 0
M  V30 3196 H 313.934 -1.67198 -1.01317 0
M  V30 3197 H 312.638 -3.11018 -2.67761 0
M  V30 3198 H 312.169 -1.65425 -3.56929 0
M  V30 3199 H 314.184 -1.31394 -4.78487 0
M  V30 3200 N 313.357 1.07166 -1.15556 0
M  V30 3201 C 314.304 2.14417 -0.854055 0
M  V30 3202 C 315.274 1.64965 0.193806 0
M  V30 3203 O 316.459 1.90703 0.0609443 0
M  V30 3204 C 313.599 3.43304 -0.351574 0
M  V30 3205 C 312.712 4.06537 -1.46123 0
M  V30 3206 C 311.847 5.23266 -0.914677 0
M  V30 3207 C 310.886 5.78464 -2.00114 0
M  V30 3208 N 310.023 6.86521 -1.47083 0
M  V30 3209 H 314.863 2.39548 -1.77259 0
M  V30 3210 H 312.4 1.17543 -0.884425 0
M  V30 3211 H 314.358 4.17179 -0.0419409 0
M  V30 3212 H 312.988 3.18419 0.530037 0
M  V30 3213 H 312.04 3.30297 -1.88701 0
M  V30 3214 H 313.352 4.43567 -2.28144 0
M  V30 3215 H 312.506 6.04131 -0.557698 0
M  V30 3216 H 311.245 4.87658 -0.0636583 0
M  V30 3217 H 310.25 4.96243 -2.36692 0
M  V30 3218 H 311.475 6.16126 -2.85597 0
M  V30 3219 H 309.421 6.52849 -0.642198 0
M  V30 3220 H 309.338 7.22446 -2.22729 0
M  V30 3221 H 310.606 7.71087 -1.14215 0
M  V30 3222 N 314.835 0.952656 1.25548 0
M  V30 3223 C 315.798 0.475794 2.24207 0
M  V30 3224 C 316.798 -0.419428 1.55234 0
M  V30 3225 O 317.988 -0.216994 1.72843 0
M  V30 3226 C 315.12 -0.312814 3.39462 0
M  V30 3227 H 316.313 1.34779 2.67908 0
M  V30 3228 H 313.866 0.735739 1.37901 0
M  V30 3229 H 314.601 -1.20257 3.01179 0
M  V30 3230 H 314.386 0.329404 3.90714 0
M  V30 3231 H 315.876 -0.635986 4.12729 0
M  V30 3232 N 316.313 -1.40141 0.720998 0
M  V30 3233 C 317.56 -2.00787 0.262842 0
M  V30 3234 C 317.888 -1.5718 -1.14563 0
M  V30 3235 O 317.143 -0.785391 -1.79249 0
M  V30 3236 C 317.442 -3.56165 0.296892 0
M  V30 3237 C 317.108 -4.19373 1.65641 0
M  V30 3238 C 315.77 -4.36352 2.02855 0
M  V30 3239 C 318.122 -4.54578 2.54968 0
M  V30 3240 C 315.45 -4.8582 3.28931 0
M  V30 3241 C 317.802 -5.05447 3.80402 0
M  V30 3242 C 316.466 -5.20635 4.17726 0
M  V30 3243 H 315.736 -0.734731 0.0961807 0
M  V30 3244 H 318.383 -1.67673 0.925093 0
M  V30 3245 H 316.688 -3.8922 -0.448932 0
M  V30 3246 H 318.385 -4.00929 -0.0755208 0
M  V30 3247 H 314.975 -4.06549 1.35704 0
M  V30 3248 H 319.159 -4.41091 2.27491 0
M  V30 3249 H 314.415 -4.95764 3.57811 0
M  V30 3250 H 318.589 -5.31663 4.49786 0
M  V30 3251 H 316.216 -5.58728 5.15487 0
M  V30 3252 N 317.792 -0.46758 -1.50504 0
M  V30 3253 C 319.069 0.15003 -1.95024 0
M  V30 3254 C 319.449 1.57304 -1.40779 0
M  V30 3255 O 318.797 2.20281 -0.607319 0
M  V30 3256 C 319.007 0.0969324 -3.48865 0
M  V30 3257 C 320.355 0.287565 -4.23625 0
M  V30 3258 O 321.379 0.173678 -3.55776 0
M  V30 3259 O 320.238 0.517186 -5.44047 0
M  V30 3260 H 317.332 0.113582 -0.819163 0
M  V30 3261 H 319.878 -0.52773 -1.61286 0
M  V30 3262 H 318.65 -0.896732 -3.80886 0
M  V30 3263 H 318.273 0.816303 -3.8913 0
M  V30 3264 N 319.27 1.56325 -0.20005 0
M  V30 3265 C 320.498 2.02105 0.442874 0
M  V30 3266 C 320.913 1.08014 1.5485 0
M  V30 3267 O 320.27 0.0858797 1.82298 0
M  V30 3268 C 320.321 3.47549 0.994583 0
M  V30 3269 O 320.042 4.38049 -0.0669322 0
M  V30 3270 C 321.543 4.0887 1.7129 0
M  V30 3271 H 318.763 0.661807 0.110691 0
M  V30 3272 H 321.307 2.02134 -0.310207 0
M  V30 3273 H 319.462 3.48204 1.69803 0
M  V30 3274 H 319.876 5.23368 0.344462 0
M  V30 3275 H 321.35 5.12475 2.05118 0
M  V30 3276 H 321.827 3.52615 2.61838 0
M  V30 3277 H 322.433 4.12002 1.05518 0
M  V30 3278 N 320.748 -0.0735177 1.57428 0
M  V30 3279 C 321.711 -1.07192 2.02589 0
M  V30 3280 C 322.711 -1.31695 0.922661 0
M  V30 3281 O 323.901 -1.27445 1.18758 0
M  V30 3282 C 321.033 -2.41599 2.40506 0
M  V30 3283 H 322.226 -0.682727 2.92025 0
M  V30 3284 H 319.779 -0.319193 1.53006 0
M  V30 3285 H 320.514 -2.85354 1.5409 0
M  V30 3286 H 320.299 -2.25156 3.21009 0
M  V30 3287 H 321.789 -3.13367 2.76027 0
M  V30 3288 N 322.226 -1.5378 -0.344866 0
M  V30 3289 C 323.474 -1.70625 -1.08311 0
M  V30 3290 C 323.795 -0.471447 -1.89215 0
M  V30 3291 O 323.065 0.514616 -1.8902 0
M  V30 3292 H 321.645 -0.629058 -0.402859 0
M  V30 3293 H 324.307 -1.9103 -0.386459 0
M  V30 3294 H 323.403 -2.57656 -1.76124 0
M  V30 3295 N 323.704 0.605807 -1.45491 0
M  V30 3296 C 324.652 1.73754 -1.54636 0
M  V30 3297 C 325.646 1.64207 -0.416219 0
M  V30 3298 O 326.852 1.69979 -0.592199 0
M  V30 3299 H 323.227 0.574073 -0.485741 0
M  V30 3300 H 325.198 1.63169 -2.49837 0
M  V30 3301 C 323.947 3.12135 -1.53189 0
M  V30 3302 H 323.27 3.20141 -2.39478 0
M  V30 3303 H 324.71 3.91147 -1.63645 0
M  V30 3304 C 323.169 3.35921 -0.256616 0
M  V30 3305 O 323.699 3.96194 0.662798 0
M  V30 3306 N 321.905 2.90204 -0.151751 0
M  V30 3307 H 321.452 2.41336 -0.90081 0
M  V30 3308 H 321.41 3.06492 0.700699 0
M  V30 3309 N 325.182 1.32811 0.848464 0
M  V30 3310 C 326.43 1.23479 1.59991 0
M  V30 3311 C 326.751 -0.201853 1.93952 0
M  V30 3312 O 326.021 -1.12818 1.60153 0
M  V30 3313 H 324.601 0.454034 0.593179 0
M  V30 3314 H 327.263 1.66412 1.01455 0
M  V30 3315 H 326.359 1.82178 2.53412 0
M  V30 3316 N 326.66 -1.06551 1.16123 0
M  V30 3317 C 327.89 -1.8274 0.963838 0
M  V30 3318 C 328.298 -1.82712 -0.491228 0
M  V30 3319 O 327.641 -1.24294 -1.35265 0
M  V30 3320 C 327.703 -3.3065 1.41106 0
M  V30 3321 C 327.367 -3.54384 2.88549 0
M  V30 3322 C 328.364 -3.4765 3.86569 0
M  V30 3323 C 326.049 -3.81789 3.26408 0
M  V30 3324 C 328.043 -3.67982 5.2045 0
M  V30 3325 C 325.73 -4.01772 4.60459 0
M  V30 3326 C 326.728 -3.94866 5.57288 0
M  V30 3327 O 326.416 -4.14306 6.88916 0
M  V30 3328 H 326.148 -0.583136 0.341948 0
M  V30 3329 H 328.702 -1.35351 1.54497 0
M  V30 3330 H 326.932 -3.78887 0.773394 0
M  V30 3331 H 328.621 -3.88324 1.1815 0
M  V30 3332 H 329.387 -3.2647 3.58667 0
M  V30 3333 H 325.266 -3.86276 2.51619 0
M  V30 3334 H 328.81 -3.62507 5.96015 0
M  V30 3335 H 324.707 -4.2244 4.88072 0
M  V30 3336 H 325.475 -4.31609 6.95454 0
M  V30 3337 N 328.138 -0.959301 -1.25041 0
M  V30 3338 C 329.378 -0.624343 -1.94631 0
M  V30 3339 C 329.742 0.82403 -1.73418 0
M  V30 3340 O 330.943 1.26881 -2.3697 0
M  V30 3341 C 329.214 -0.978805 -3.43736 0
M  V30 3342 S 330.773 -0.757127 -4.32219 0
M  V30 3343 H 327.591 -0.229327 -0.673001 0
M  V30 3344 H 330.193 -1.23447 -1.51595 0
M  V30 3345 H 328.897 -2.02997 -3.56679 0
M  V30 3346 H 328.428 -0.359117 -3.91757 0
M  V30 3347 H 330.443 0.369759 -4.9482 0
M  V30 3348 N 329.616 1.39756 -0.72842 0
M  V30 3349 C 331.032 1.5442 -0.403308 0
M  V30 3350 C 331.232 1.69694 1.08656 0
M  V30 3351 O 330.288 1.69373 1.87267 0
M  V30 3352 C 331.601 2.76555 -1.18058 0
M  V30 3353 C 333.149 2.90384 -1.16815 0
M  V30 3354 C 333.624 4.15449 -1.92785 0
M  V30 3355 N 335.115 4.22475 -1.89918 0
M  V30 3356 C 335.85 5.1818 -2.45514 0
M  V30 3357 N 335.346 6.19714 -3.09719 0
M  V30 3358 N 337.139 5.1035 -2.35584 0
M  V30 3359 H 329.29 1.28089 -1.69431 0
M  V30 3360 H 331.553 0.620327 -0.716867 0
M  V30 3361 H 331.259 2.7159 -2.23455 0
M  V30 3362 H 331.133 3.69033 -0.780662 0
M  V30 3363 H 333.52 2.94846 -0.12234 0
M  V30 3364 H 333.601 1.98988 -1.6074 0
M  V30 3365 H 333.245 4.11749 -2.97364 0
M  V30 3366 H 333.175 5.05877 -1.46272 0
M  V30 3367 H 335.666 3.49743 -1.43138 0
M  V30 3368 H 335.979 6.8919 -3.49625 0
M  V30 3369 H 334.324 6.20121 -3.13807 0
M  V30 3370 H 337.515 4.2996 -1.85072 0
M  V30 3371 H 337.688 5.84761 -2.79211 0
M  V30 3372 N 331.094 0.475555 1.50254 0
M  V30 3373 C 332.319 -0.0777042 2.07254 0
M  V30 3374 C 332.744 -1.3235 1.3366 0
M  V30 3375 O 332.102 -1.77152 0.385597 0
M  V30 3376 C 332.15 -0.340169 3.58992 0
M  V30 3377 O 331.254 -1.41982 3.87188 0
M  V30 3378 H 330.595 0.0149556 0.663832 0
M  V30 3379 H 333.125 0.667878 1.93392 0
M  V30 3380 H 333.135 -0.579332 4.03866 0
M  V30 3381 H 331.81 0.570167 4.11973 0
M  V30 3382 H 330.387 -1.16762 3.54148 0
M  V30 3383 N 332.573 -1.56217 0.208337 0
M  V30 3384 C 333.483 -2.23316 -0.718836 0
M  V30 3385 C 334.499 -1.23648 -1.22422 0
M  V30 3386 O 335.675 -1.56423 -1.26861 0
M  V30 3387 C 332.74 -2.88968 -1.91568 0
M  V30 3388 C 331.801 -4.03943 -1.45357 0
M  V30 3389 C 331.034 -4.66455 -2.59337 0
M  V30 3390 O 331.257 -4.27919 -3.77149 0
M  V30 3391 O 330.191 -5.55686 -2.31293 0
M  V30 3392 H 334.017 -3.03182 -0.177315 0
M  V30 3393 H 331.602 -1.49384 -0.0215402 0
M  V30 3394 H 333.484 -3.30455 -2.61491 0
M  V30 3395 H 332.159 -2.12071 -2.44556 0
M  V30 3396 H 331.066 -3.67052 -0.722746 0
M  V30 3397 H 332.399 -4.82543 -0.970219 0
M  V30 3398 N 334.051 0.0651679 -1.57465 0
M  V30 3399 C 335.299 0.761555 -1.87202 0
M  V30 3400 C 335.62 1.77778 -0.801243 0
M  V30 3401 O 334.89 1.95166 0.16937 0
M  V30 3402 H 333.47 0.284251 -0.690804 0
M  V30 3403 H 336.132 0.0396827 -1.9486 0
M  V30 3404 H 335.228 1.27365 -2.84929 0
M  V30 3405 N 335.529 1.53961 0.336706 0
M  V30 3406 C 336.775 1.7179 1.07777 0
M  V30 3407 C 337.108 0.483263 1.88091 0
M  V30 3408 O 336.383 -0.519747 1.87427 0
M  V30 3409 C 336.666 2.98558 2.01334 0
M  V30 3410 C 336.519 4.32245 1.24437 0
M  V30 3411 C 337.838 3.21023 3.01052 0
M  V30 3412 H 334.957 0.625089 0.390426 0
M  V30 3413 H 337.599 1.86641 0.35567 0
M  V30 3414 H 335.749 2.86028 2.62908 0
M  V30 3415 H 337.421 4.56637 0.654243 0
M  V30 3416 H 335.664 4.30344 0.546458 0
M  V30 3417 H 336.335 5.17137 1.93063 0
M  V30 3418 H 338.811 3.32929 2.49595 0
M  V30 3419 H 337.687 4.11104 3.6371 0
M  V30 3420 H 337.948 2.37637 3.72802 0
M  V30 3421 N 337.007 -0.598083 1.45811 0
M  V30 3422 C 338.253 -1.35882 1.50545 0
M  V30 3423 C 338.586 -1.93616 0.150445 0
M  V30 3424 O 337.861 -1.75604 -0.83628 0
M  V30 3425 C 338.144 -2.49966 2.59208 0
M  V30 3426 C 337.997 -1.97367 4.04186 0
M  V30 3427 C 339.316 -3.52068 2.64076 0
M  V30 3428 H 336.435 -0.492717 0.548087 0
M  V30 3429 H 339.077 -0.673319 1.77669 0
M  V30 3430 H 337.227 -3.08443 2.3621 0
M  V30 3431 H 338.899 -1.43466 4.38423 0
M  V30 3432 H 337.142 -1.283 4.14393 0
M  V30 3433 H 337.813 -2.79649 4.75921 0
M  V30 3434 H 340.289 -3.03448 2.84708 0
M  V30 3435 H 339.165 -4.2937 3.41954 0
M  V30 3436 H 339.426 -4.08304 1.69531 0
M  V30 3437 N 338.485 -1.33259 -0.841409 0
M  V30 3438 C 339.448 -1.23221 -1.9326 0
M  V30 3439 C 340.448 -0.151895 -1.60081 0
M  V30 3440 O 341.638 -0.403246 -1.69468 0
M  V30 3441 C 338.77 -0.898123 -3.28856 0
M  V30 3442 H 339.963 -2.2021 -2.03587 0
M  V30 3443 H 337.516 -1.17281 -1.03319 0
M  V30 3444 H 338.251 0.0693841 -3.24226 0
M  V30 3445 H 338.036 -1.67934 -3.54317 0
M  V30 3446 H 339.526 -0.852563 -4.08805 0
M  V30 3447 N 339.963 1.05934 -1.16686 0
M  V30 3448 C 341.209 1.79065 -0.95203 0
M  V30 3449 C 341.542 1.87147 0.518629 0
M  V30 3450 O 340.817 1.36574 1.38484 0
M  V30 3451 C 341.1 3.23359 -1.58464 0
M  V30 3452 C 340.953 3.23336 -3.12689 0
M  V30 3453 C 342.272 4.21004 -1.28232 0
M  V30 3454 H 339.391 0.65005 -0.34728 0
M  V30 3455 H 342.033 1.23868 -1.44072 0
M  V30 3456 H 340.183 3.70493 -1.16908 0
M  V30 3457 H 341.855 2.84336 -3.6325 0
M  V30 3458 H 340.098 2.61886 -3.4583 0
M  V30 3459 H 340.769 4.25144 -3.52075 0
M  V30 3460 H 343.245 3.8233 -1.64203 0
M  V30 3461 H 342.121 5.20225 -1.75092 0
M  V30 3462 H 342.382 4.41639 -0.201791 0
M  V30 3463 N 341.441 0.965919 1.2453 0
M  V30 3464 C 342.371 0.513476 2.27784 0
M  V30 3465 C 343.352 -0.445974 1.6415 0
M  V30 3466 O 344.537 -0.342485 1.91156 0
M  V30 3467 C 341.667 -0.198839 3.4673 0
M  V30 3468 C 340.621 0.676456 4.2262 0
M  V30 3469 C 339.947 -0.167248 5.34438 0
M  V30 3470 C 341.247 1.96017 4.84123 0
M  V30 3471 H 342.941 1.3765 2.65881 0
M  V30 3472 H 340.487 0.663321 1.27813 0
M  V30 3473 H 342.44 -0.526567 4.18097 0
M  V30 3474 H 341.164 -1.0962 3.07654 0
M  V30 3475 H 339.823 0.98743 3.53052 0
M  V30 3476 H 339.471 -1.0647 4.91603 0
M  V30 3477 H 339.171 0.415181 5.86131 0
M  V30 3478 H 340.695 -0.489688 6.08633 0
M  V30 3479 H 342.109 1.69814 5.47573 0
M  V30 3480 H 340.506 2.48918 5.4604 0
M  V30 3481 H 341.576 2.65622 4.05676 0
M  V30 3482 N 342.919 -1.39368 0.735821 0
M  V30 3483 C 343.849 -2.33234 0.111506 0
M  V30 3484 C 344.83 -1.53954 -0.723334 0
M  V30 3485 O 346.015 -1.82344 -0.668147 0
M  V30 3486 C 343.145 -3.38057 -0.795917 0
M  V30 3487 C 342.099 -4.2795 -0.065172 0
M  V30 3488 C 341.425 -5.23479 -1.08967 0
M  V30 3489 C 342.725 -5.10741 1.09273 0
M  V30 3490 H 344.419 -2.85692 0.895571 0
M  V30 3491 H 341.965 -1.37364 0.432109 0
M  V30 3492 H 343.918 -4.02675 -1.24221 0
M  V30 3493 H 342.642 -2.8404 -1.61211 0
M  V30 3494 H 341.301 -3.64813 0.361511 0
M  V30 3495 H 340.949 -4.65758 -1.89944 0
M  V30 3496 H 340.649 -5.84472 -0.605489 0
M  V30 3497 H 342.173 -5.90974 -1.53565 0
M  V30 3498 H 343.587 -5.68699 0.724841 0
M  V30 3499 H 341.984 -5.8088 1.50659 0
M  V30 3500 H 343.054 -4.45525 1.91404 0
M  V30 3501 N 344.397 -0.483516 -1.5 0
M  V30 3502 C 345.625 0.0644831 -2.06799 0
M  V30 3503 C 346.04 1.32399 -1.34596 0
M  V30 3504 O 345.397 1.77626 -0.418946 0
M  V30 3505 C 345.448 0.339927 -3.59898 0
M  V30 3506 O 345.169 -0.869635 -4.29382 0
M  V30 3507 C 346.67 0.933515 -4.33359 0
M  V30 3508 H 343.89 -0.0126333 -0.670881 0
M  V30 3509 H 346.434 -0.675864 -1.93009 0
M  V30 3510 H 344.589 1.03022 -3.7345 0
M  V30 3511 H 345.003 -0.62179 -5.20801 0
M  V30 3512 H 346.477 1.07593 -5.41413 0
M  V30 3513 H 346.954 1.92685 -3.94676 0
M  V30 3514 H 347.56 0.281221 -4.24369 0
M  V30 3515 N 345.875 1.56104 -0.216619 0
M  V30 3516 C 346.822 2.2007 0.695531 0
M  V30 3517 C 347.792 1.15471 1.19397 0
M  V30 3518 O 348.977 1.43807 1.25396 0
M  V30 3519 C 346.117 2.88073 1.90021 0
M  V30 3520 C 345.23 4.07253 1.44113 0
M  V30 3521 C 344.365 4.63052 2.603 0
M  V30 3522 C 343.404 5.74545 2.11103 0
M  V30 3523 N 342.541 6.24656 3.20545 0
M  V30 3524 H 347.381 2.97655 0.143327 0
M  V30 3525 H 344.918 1.46982 0.0589934 0
M  V30 3526 H 346.876 3.25681 2.60745 0
M  V30 3527 H 345.506 2.13015 2.42538 0
M  V30 3528 H 344.558 3.75164 0.628999 0
M  V30 3529 H 345.87 4.8783 1.04036 0
M  V30 3530 H 345.024 5.03078 3.39113 0
M  V30 3531 H 343.763 3.81628 3.03663 0
M  V30 3532 H 342.768 5.34027 1.3075 0
M  V30 3533 H 343.993 6.57801 1.68746 0
M  V30 3534 H 341.939 5.46148 3.63399 0
M  V30 3535 H 341.856 7.00343 2.84704 0
M  V30 3536 H 343.124 6.69338 3.99508 0
M  V30 3537 N 347.353 -0.0568162 1.57498 0
M  V30 3538 C 348.3 -1.06591 2.04712 0
M  V30 3539 C 349.27 -1.3758 0.930644 0
M  V30 3540 O 350.455 -1.48392 1.19935 0
M  V30 3541 C 347.595 -2.3701 2.50839 0
M  V30 3542 C 346.708 -2.12421 3.76167 0
M  V30 3543 C 345.843 -3.36511 4.11015 0
M  V30 3544 C 344.882 -3.07353 5.2934 0
M  V30 3545 N 344.019 -4.23816 5.59754 0
M  V30 3546 H 348.859 -0.65631 2.90683 0
M  V30 3547 H 346.396 -0.312481 1.43743 0
M  V30 3548 H 348.354 -3.13175 2.7564 0
M  V30 3549 H 346.984 -2.75744 1.67825 0
M  V30 3550 H 346.036 -1.2688 3.58616 0
M  V30 3551 H 347.348 -1.86894 4.62463 0
M  V30 3552 H 346.502 -4.21062 4.36797 0
M  V30 3553 H 345.241 -3.65128 3.23315 0
M  V30 3554 H 344.246 -2.212 5.03339 0
M  V30 3555 H 345.471 -2.80043 6.1867 0
M  V30 3556 H 343.417 -4.52436 4.75014 0
M  V30 3557 H 343.334 -4.01614 6.40501 0
M  V30 3558 H 344.602 -5.0932 5.90096 0
M  V30 3559 N 348.832 -1.54138 -0.328536 0
M  V30 3560 C 350.057 -1.76378 -1.09112 0
M  V30 3561 C 350.482 -0.508596 -1.81094 0
M  V30 3562 O 349.84 0.539598 -1.73084 0
M  V30 3563 C 349.888 -2.95358 -2.06872 0
M  V30 3564 O 348.992 -2.66556 -3.14677 0
M  V30 3565 H 348.333 -0.584614 -0.314838 0
M  V30 3566 H 350.863 -2.01146 -0.374348 0
M  V30 3567 H 350.873 -3.22566 -2.4983 0
M  V30 3568 H 349.548 -3.86385 -1.5388 0
M  V30 3569 H 348.125 -2.50282 -2.7643 0
M  V30 3570 N 350.31 0.590341 -1.46126 0
M  V30 3571 C 351.24 1.71032 -1.58966 0
M  V30 3572 C 352.221 1.64302 -0.440335 0
M  V30 3573 O 353.406 1.82436 -0.665634 0
M  V30 3574 C 350.536 3.09665 -1.57241 0
M  V30 3575 C 349.49 3.31221 -2.71066 0
M  V30 3576 C 348.816 4.70303 -2.54399 0
M  V30 3577 C 350.116 3.19796 -4.1295 0
M  V30 3578 H 351.81 1.60543 -2.52718 0
M  V30 3579 H 349.356 0.770933 -1.21625 0
M  V30 3580 H 351.309 3.87831 -1.64819 0
M  V30 3581 H 350.033 3.21036 -0.600289 0
M  V30 3582 H 348.692 2.55452 -2.62944 0
M  V30 3583 H 348.34 4.78429 -1.55288 0
M  V30 3584 H 348.04 4.85679 -3.30741 0
M  V30 3585 H 349.564 5.50647 -2.63857 0
M  V30 3586 H 350.978 3.87815 -4.22223 0
M  V30 3587 H 349.375 3.46696 -4.89818 0
M  V30 3588 H 350.445 2.16983 -4.33643 0
M  V30 3589 N 351.788 1.33704 0.83433 0
M  V30 3590 C 352.751 1.24244 1.92603 0
M  V30 3591 C 353.751 0.160383 1.59998 0
M  V30 3592 O 354.941 0.412228 1.69252 0
M  V30 3593 C 352.073 0.91555 3.28376 0
M  V30 3594 H 353.266 2.21287 2.02416 0
M  V30 3595 H 350.819 1.17827 1.02696 0
M  V30 3596 H 351.554 -0.0521886 3.24258 0
M  V30 3597 H 351.339 1.69811 3.53422 0
M  V30 3598 H 352.829 0.874231 4.08347 0
M  V30 3599 N 353.266 -1.05314 1.17247 0
M  V30 3600 C 354.682 -1.30452 0.919473 0
M  V30 3601 C 354.882 -1.9703 -0.42209 0
M  V30 3602 O 353.938 -2.24311 -1.15935 0
M  V30 3603 C 355.251 -2.17551 2.07586 0
M  V30 3604 C 356.799 -2.30937 2.11275 0
M  V30 3605 C 357.274 -3.21396 3.26296 0
M  V30 3606 N 358.765 -3.28981 3.26076 0
M  V30 3607 C 359.5 -3.99095 4.11716 0
M  V30 3608 N 358.996 -4.71648 5.07465 0
M  V30 3609 N 360.789 -3.95247 3.9967 0
M  V30 3610 H 352.94 -0.604988 2.03602 0
M  V30 3611 H 355.203 -0.329368 0.888944 0
M  V30 3612 H 354.909 -1.75921 3.0454 0
M  V30 3613 H 354.783 -3.18182 2.02584 0
M  V30 3614 H 357.17 -2.71809 1.14907 0
M  V30 3615 H 357.251 -1.2994 2.20339 0
M  V30 3616 H 356.895 -2.81238 4.22927 0
M  V30 3617 H 356.825 -4.22395 3.14467 0
M  V30 3618 H 359.316 -2.77286 2.5675 0
M  V30 3619 H 359.629 -5.22705 5.6921 0
M  V30 3620 H 357.974 -4.70594 5.11435 0
M  V30 3621 H 361.165 -3.37691 3.24164 0
M  V30 3622 H 361.338 -4.4962 4.66632 0
M  V30 3623 N 354.744 -0.972509 -1.24016 0
M  V30 3624 C 356.16 -0.679827 -1.44397 0
M  V30 3625 C 356.36 0.756716 -1.86751 0
M  V30 3626 O 355.416 1.53007 -2.00861 0
M  V30 3627 C 356.729 -1.66803 -2.50195 0
M  V30 3628 C 358.277 -1.68119 -2.64017 0
M  V30 3629 C 358.752 -2.65748 -3.73017 0
M  V30 3630 N 360.243 -2.64219 -3.8045 0
M  V30 3631 C 360.978 -3.36433 -4.64328 0
M  V30 3632 N 360.474 -4.1818 -5.52356 0
M  V30 3633 N 362.267 -3.25235 -4.58453 0
M  V30 3634 H 354.418 -1.90059 -0.948228 0
M  V30 3635 H 356.681 -0.818527 -0.478245 0
M  V30 3636 H 356.387 -2.69498 -2.25973 0
M  V30 3637 H 356.261 -1.4446 -3.48441 0
M  V30 3638 H 358.648 -0.661319 -2.87594 0
M  V30 3639 H 358.729 -1.94525 -1.66113 0
M  V30 3640 H 358.373 -3.67872 -3.50189 0
M  V30 3641 H 358.303 -2.36619 -4.70446 0
M  V30 3642 H 360.794 -2.04887 -3.17537 0
M  V30 3643 H 361.107 -4.70157 -6.13329 0
M  V30 3644 H 359.452 -4.22273 -5.52006 0
M  V30 3645 H 362.643 -2.60829 -3.88698 0
M  V30 3646 H 362.816 -3.81776 -5.23594 0
M  V30 3647 N 356.222 1.38976 -0.743202 0
M  V30 3648 C 357.468 2.0064 -0.295189 0
M  V30 3649 C 357.801 1.5885 1.11716 0
M  V30 3650 O 357.076 0.821181 1.76315 0
M  V30 3651 C 357.359 3.578 -0.406318 0
M  V30 3652 C 357.212 4.09586 -1.85903 0
M  V30 3653 C 358.531 4.39616 0.206439 0
M  V30 3654 H 355.65 0.728935 -0.108733 0
M  V30 3655 H 358.292 1.65067 -0.940897 0
M  V30 3656 H 356.442 3.88235 0.143419 0
M  V30 3657 H 358.114 3.89837 -2.46627 0
M  V30 3658 H 356.357 3.6284 -2.3776 0
M  V30 3659 H 357.028 5.18708 -1.888 0
M  V30 3660 H 359.504 4.15273 -0.262283 0
M  V30 3661 H 358.38 5.48812 0.0983819 0
M  V30 3662 H 358.641 4.22754 1.2935 0
M  V30 3663 N 357.7 0.491464 1.49741 0
M  V30 3664 C 358.93 -0.0534375 2.06531 0
M  V30 3665 C 359.338 -1.32233 1.35318 0
M  V30 3666 O 358.681 -1.78781 0.422243 0
M  V30 3667 C 358.743 -0.387034 3.57411 0
M  V30 3668 C 358.407 0.782764 4.50246 0
M  V30 3669 C 359.404 1.67059 4.92329 0
M  V30 3670 C 357.089 0.978866 4.9267 0
M  V30 3671 C 359.083 2.73874 5.75562 0
M  V30 3672 C 356.77 2.05022 5.75682 0
M  V30 3673 C 357.768 2.92851 6.17031 0
M  V30 3674 O 357.456 3.98138 6.98385 0
M  V30 3675 H 357.188 0.0129324 0.675876 0
M  V30 3676 H 359.742 0.685238 1.93633 0
M  V30 3677 H 357.972 -1.17918 3.68283 0
M  V30 3678 H 359.661 -0.869419 3.96479 0
M  V30 3679 H 360.427 1.53086 4.60206 0
M  V30 3680 H 356.306 0.304646 4.59992 0
M  V30 3681 H 359.85 3.42458 6.07757 0
M  V30 3682 H 355.747 2.18993 6.07217 0
M  V30 3683 H 356.515 3.95374 7.16674 0
M  V30 3684 N 359.178 -1.55987 0.224894 0
M  V30 3685 C 360.141 -2.19178 -0.670348 0
M  V30 3686 C 361.141 -1.15461 -1.11917 0
M  V30 3687 O 362.331 -1.40675 -1.02743 0
M  V30 3688 C 359.463 -2.81777 -1.9187 0
M  V30 3689 H 360.656 -2.99662 -0.119364 0
M  V30 3690 H 358.209 -1.5628 -0.0247128 0
M  V30 3691 H 358.944 -2.05172 -2.51147 0
M  V30 3692 H 358.729 -3.57732 -1.60531 0
M  V30 3693 H 360.219 -3.30205 -2.55645 0
M  V30 3694 N 360.656 0.0484629 -1.57525 0
M  V30 3695 C 361.884 0.755421 -1.92616 0
M  V30 3696 C 362.299 1.69919 -0.822984 0
M  V30 3697 O 361.656 1.81378 0.202085 0
M  V30 3698 C 361.707 1.52915 -3.27566 0
M  V30 3699 O 361.428 0.62329 -4.33644 0
M  V30 3700 C 362.929 2.33502 -3.76818 0
M  V30 3701 H 360.149 0.213465 -0.63614 0
M  V30 3702 H 362.693 0.0117698 -2.04497 0
M  V30 3703 H 360.848 2.22486 -3.17142 0
M  V30 3704 H 361.262 1.16383 -5.11425 0
M  V30 3705 H 362.736 2.83214 -4.73808 0
M  V30 3706 H 363.213 3.14068 -3.07014 0
M  V30 3707 H 363.819 1.69043 -3.90262 0
M  V30 3708 N 362.134 1.5431 0.320358 0
M  V30 3709 C 363.383 1.7188 1.05546 0
M  V30 3710 C 363.696 0.501143 1.89071 0
M  V30 3711 O 364.902 0.558258 2.65699 0
M  V30 3712 C 363.358 3.04025 1.92605 0
M  V30 3713 C 362.966 4.33207 1.14176 0
M  V30 3714 C 364.71 3.30959 2.65832 0
M  V30 3715 C 362.617 5.56412 2.00399 0
M  V30 3716 H 361.547 0.640547 0.397763 0
M  V30 3717 H 364.198 1.80802 0.313522 0
M  V30 3718 H 362.58 2.89019 2.7071 0
M  V30 3719 H 363.754 4.58989 0.40819 0
M  V30 3720 H 362.069 4.13062 0.526165 0
M  V30 3721 H 364.666 4.20203 3.30656 0
M  V30 3722 H 365.009 2.48979 3.33639 0
M  V30 3723 H 365.542 3.46847 1.94787 0
M  V30 3724 H 362.281 6.41004 1.37094 0
M  V30 3725 H 361.801 5.34844 2.7148 0
M  V30 3726 H 363.48 5.92938 2.58908 0
M  V30 3727 N 363.613 -0.582584 1.46437 0
M  V30 3728 C 364.543 -1.70187 1.59871 0
M  V30 3729 C 365.524 -1.64066 0.449042 0
M  V30 3730 O 366.709 -1.82081 0.6753 0
M  V30 3731 C 363.839 -3.08827 1.58881 0
M  V30 3732 C 362.793 -3.29779 2.72819 0
M  V30 3733 C 362.119 -4.68947 2.5689 0
M  V30 3734 C 363.419 -3.17601 4.1464 0
M  V30 3735 H 365.113 -1.592 2.53566 0
M  V30 3736 H 362.659 -0.764472 1.22032 0
M  V30 3737 H 364.612 -3.86951 1.66873 0
M  V30 3738 H 363.336 -3.20713 0.617306 0
M  V30 3739 H 361.995 -2.54054 2.64296 0
M  V30 3740 H 361.643 -4.77599 1.57823 0
M  V30 3741 H 361.343 -4.83919 3.33312 0
M  V30 3742 H 362.867 -5.4924 2.66773 0
M  V30 3743 H 364.281 -3.8557 4.24274 0
M  V30 3744 H 362.678 -3.44094 4.9165 0
M  V30 3745 H 363.748 -2.14681 4.34788 0
M  V30 3746 N 365.091 -1.34144 -0.827227 0
M  V30 3747 C 366.039 -1.25364 -1.95925 0
M  V30 3748 C 367.033 -0.152608 -1.68711 0
M  V30 3749 O 368.239 -0.317311 -1.77181 0
M  V30 3750 H 364.614 -0.389342 -0.643364 0
M  V30 3751 H 366.585 -2.21045 -2.00454 0
M  V30 3752 C 365.334 -1.02158 -3.32354 0
M  V30 3753 H 364.657 -1.86111 -3.5384 0
M  V30 3754 H 366.097 -1.00048 -4.12027 0
M  V30 3755 C 364.556 0.275244 -3.35774 0
M  V30 3756 O 365.086 1.27806 -3.80826 0
M  V30 3757 N 363.292 0.306853 -2.88975 0
M  V30 3758 H 362.839 -0.509777 -2.52506 0
M  V30 3759 H 362.797 1.17432 -2.91646 0
M  V30 3760 N 366.569 1.04691 -1.17803 0
M  V30 3761 C 367.532 2.10724 -0.901545 0
M  V30 3762 C 368.532 1.6042 0.110437 0
M  V30 3763 O 369.722 1.7377 -0.122303 0
M  V30 3764 C 366.854 3.39084 -0.351409 0
M  V30 3765 H 368.047 2.36686 -1.84174 0
M  V30 3766 H 365.6 1.21015 -0.98919 0
M  V30 3767 H 366.335 3.18782 0.59569 0
M  V30 3768 H 366.12 3.76909 -1.08083 0
M  V30 3769 H 367.61 4.17227 -0.176451 0
M  V30 3770 N 368.047 0.979072 1.23499 0
M  V30 3771 C 369.295 0.645941 1.91499 0
M  V30 3772 C 369.616 -0.822948 1.76784 0
M  V30 3773 O 368.886 -1.58854 1.14639 0
M  V30 3774 H 367.466 0.235919 0.708767 0
M  V30 3775 H 370.128 1.2426 1.50152 0
M  V30 3776 H 369.224 0.896411 2.9895 0
M  V30 3777 N 369.525 -1.3858 0.750561 0
M  V30 3778 C 370.753 -2.04471 0.316098 0
M  V30 3779 C 371.168 -1.56606 -1.05452 0
M  V30 3780 O 370.525 -0.737784 -1.66922 0
M  V30 3781 C 370.576 -3.60025 0.326275 0
M  V30 3782 O 370.297 -4.06133 1.6428 0
M  V30 3783 C 371.798 -4.43131 -0.122429 0
M  V30 3784 H 369.018 -0.65717 0.135528 0
M  V30 3785 H 371.562 -1.77329 1.01857 0
M  V30 3786 H 369.717 -3.86014 -0.327431 0
M  V30 3787 H 370.131 -5.00547 1.56693 0
M  V30 3788 H 371.605 -5.51963 -0.0641473 0
M  V30 3789 H 372.082 -4.23333 -1.16988 0
M  V30 3790 H 372.688 -4.22323 0.50229 0
M  V30 3791 N 371.003 -0.499398 -1.49478 0
M  V30 3792 C 371.951 0.293604 -2.3074 0
M  V30 3793 C 372.945 0.96427 -1.39277 0
M  V30 3794 O 374.151 0.892141 -1.56336 0
M  V30 3795 H 370.526 0.113541 -0.743379 0
M  V30 3796 H 372.497 -0.411772 -2.95545 0
M  V30 3797 C 371.246 1.3462 -3.20582 0
M  V30 3798 H 370.569 0.83954 -3.90886 0
M  V30 3799 H 372.009 1.87308 -3.80384 0
M  V30 3800 C 370.468 2.36351 -2.40083 0
M  V30 3801 O 370.998 3.422 -2.10385 0
M  V30 3802 N 369.204 2.0878 -2.02137 0
M  V30 3803 H 368.751 1.22723 -2.26488 0
M  V30 3804 H 368.709 2.77075 -1.48583 0
M  V30 3805 N 372.481 1.55866 -0.233164 0
M  V30 3806 C 373.709 2.02998 0.399905 0
M  V30 3807 C 374.124 1.11274 1.52524 0
M  V30 3808 O 373.481 0.124528 1.82075 0
M  V30 3809 C 373.532 3.4958 0.920639 0
M  V30 3810 O 373.253 4.37808 -0.159834 0
M  V30 3811 C 374.754 4.12411 1.62578 0
M  V30 3812 H 371.974 0.664006 0.0966281 0
M  V30 3813 H 374.518 2.0143 -0.353013 0
M  V30 3814 H 372.673 3.51727 1.62379 0
M  V30 3815 H 373.087 5.23981 0.23337 0
M  V30 3816 H 374.561 5.16711 1.94201 0
M  V30 3817 H 375.038 3.5809 2.54299 0
M  V30 3818 H 375.644 4.14148 0.967553 0
M  V30 3819 N 373.959 -0.0401083 1.57549 0
M  V30 3820 C 375.236 -0.767917 1.79896 0
M  V30 3821 C 375.616 -1.9416 0.82856 0
M  V30 3822 O 374.964 -2.2812 -0.131671 0
M  V30 3823 C 375.174 -1.2113 3.27305 0
M  V30 3824 C 376.522 -1.63175 3.91994 0
M  V30 3825 O 377.546 -1.30616 3.31388 0
M  V30 3826 O 376.405 -2.23565 4.98679 0
M  V30 3827 H 373.499 -0.370441 0.739393 0
M  V30 3828 H 376.045 -0.017737 1.69691 0
M  V30 3829 H 374.817 -0.372937 3.89519 0
M  V30 3830 H 374.44 -2.02183 3.42356 0
M  V30 3831 N 375.437 -1.54477 -0.31217 0
M  V30 3832 C 376.685 -1.72884 -1.04668 0
M  V30 3833 C 377.006 -0.511477 -1.88173 0
M  V30 3834 O 376.276 0.474407 -1.90069 0
M  V30 3835 H 374.856 -0.637461 -0.389425 0
M  V30 3836 H 377.518 -1.91807 -0.345852 0
M  V30 3837 H 376.614 -2.61334 -1.70619 0
M  V30 3838 N 376.915 0.57481 -1.46744 0
M  V30 3839 C 378.162 1.33272 -1.52462 0
M  V30 3840 C 378.49 1.93669 -0.179572 0
M  V30 3841 O 377.745 1.7743 0.825664 0
M  V30 3842 C 378.044 2.476 -2.57738 0
M  V30 3843 C 377.71 2.05146 -4.01529 0
M  V30 3844 C 376.372 1.93284 -4.40676 0
M  V30 3845 C 378.724 1.72506 -4.91824 0
M  V30 3846 C 376.052 1.47049 -5.67973 0
M  V30 3847 C 378.404 1.27748 -6.19567 0
M  V30 3848 C 377.068 1.14468 -6.57612 0
M  V30 3849 H 376.338 0.487678 -0.557899 0
M  V30 3850 H 378.985 0.646456 -1.80259 0
M  V30 3851 H 377.29 3.21708 -2.23632 0
M  V30 3852 H 378.987 3.05807 -2.5939 0
M  V30 3853 H 375.577 2.15316 -3.7059 0
M  V30 3854 H 379.761 1.80552 -4.62293 0
M  V30 3855 H 375.017 1.35417 -5.96215 0
M  V30 3856 H 379.191 1.01547 -6.88957 0
M  V30 3857 H 376.818 0.78419 -7.56145 0
M  V30 3858 N 378.394 1.34581 0.820102 0
M  V30 3859 C 379.341 1.2639 1.93117 0
M  V30 3860 C 380.311 0.138554 1.65521 0
M  V30 3861 O 381.496 0.320004 1.88097 0
M  V30 3862 C 378.636 1.02812 3.29429 0
M  V30 3863 C 377.749 2.24146 3.693 0
M  V30 3864 C 376.884 1.93829 4.94574 0
M  V30 3865 C 375.923 3.1129 5.27034 0
M  V30 3866 N 375.06 2.80838 6.43486 0
M  V30 3867 H 379.9 2.21408 1.99455 0
M  V30 3868 H 377.437 1.10077 0.975784 0
M  V30 3869 H 379.395 0.871788 4.0799 0
M  V30 3870 H 378.025 0.114612 3.22596 0
M  V30 3871 H 377.077 2.50691 2.86109 0
M  V30 3872 H 378.389 3.11899 3.89257 0
M  V30 3873 H 377.543 1.74948 5.80929 0
M  V30 3874 H 376.282 1.03341 4.76626 0
M  V30 3875 H 375.287 3.30764 4.39175 0
M  V30 3876 H 376.512 4.02561 5.4692 0
M  V30 3877 H 374.458 1.92929 6.26988 0
M  V30 3878 H 374.375 3.62123 6.63629 0
M  V30 3879 H 375.643 2.65467 7.32903 0
M  V30 3880 N 379.872 -1.04064 1.18357 0
M  V30 3881 C 380.782 -2.15569 0.925596 0
M  V30 3882 C 381.798 -1.7365 -0.110295 0
M  V30 3883 O 382.974 -2.01273 0.0716218 0
M  V30 3884 C 380.039 -3.43704 0.454836 0
M  V30 3885 C 379.1 -4.00004 1.55869 0
M  V30 3886 C 378.333 -5.22023 1.1103 0
M  V30 3887 O 378.556 -5.70392 -0.0309756 0
M  V30 3888 O 377.49 -5.70856 1.90805 0
M  V30 3889 H 381.316 -2.40187 1.8586 0
M  V30 3890 H 378.901 -1.1402 0.965394 0
M  V30 3891 H 380.783 -4.20923 0.200382 0
M  V30 3892 H 379.458 -3.20559 -0.449876 0
M  V30 3893 H 378.365 -3.24172 1.86716 0
M  V30 3894 H 379.698 -4.2749 2.43953 0
M  V30 3895 N 381.35 -0.985608 -1.22978 0
M  V30 3896 C 382.282 -0.488154 -2.23941 0
M  V30 3897 C 383.295 0.41282 -1.57479 0
M  V30 3898 O 384.484 0.216121 -1.77187 0
M  V30 3899 C 381.584 0.312611 -3.37455 0
M  V30 3900 C 380.757 -0.582741 -4.33501 0
M  V30 3901 C 379.816 0.165064 -5.25941 0
M  V30 3902 O 378.842 -0.447077 -5.67442 0
M  V30 3903 N 380.044 1.44953 -5.62111 0
M  V30 3904 H 382.809 -1.3563 -2.67254 0
M  V30 3905 H 380.37 -0.859477 -1.37203 0
M  V30 3906 H 382.362 0.821357 -3.96277 0
M  V30 3907 H 380.932 1.0818 -2.93285 0
M  V30 3908 H 380.152 -1.27225 -3.73105 0
M  V30 3909 H 381.44 -1.19275 -4.94622 0
M  V30 3910 H 380.838 1.9683 -5.30353 0
M  V30 3911 H 379.395 1.90361 -6.23383 0
M  V30 3912 N 382.828 1.3818 -0.7579 0
M  V30 3913 C 384.076 1.99624 -0.315361 0
M  V30 3914 C 384.397 1.60464 1.10799 0
M  V30 3915 O 383.667 0.863507 1.75842 0
M  V30 3916 H 382.247 0.73831 -0.113611 0
M  V30 3917 H 384.909 1.68878 -0.972952 0
M  V30 3918 H 384.005 3.09754 -0.381931 0
M  V30 3919 N 384.306 0.507319 1.49211 0
M  V30 3920 C 385.552 -0.0350047 2.0277 0
M  V30 3921 C 385.885 -1.3606 1.38569 0
M  V30 3922 O 385.16 -1.87321 0.523542 0
M  V30 3923 C 385.443 -0.180916 3.59645 0
M  V30 3924 C 385.296 1.16825 4.34364 0
M  V30 3925 C 386.615 -0.918558 4.30407 0
M  V30 3926 H 383.734 -0.0112473 0.736914 0
M  V30 3927 H 386.376 0.659956 1.7817 0
M  V30 3928 H 384.526 -0.772826 3.80736 0
M  V30 3929 H 386.198 1.79952 4.24753 0
M  V30 3930 H 384.441 1.75594 3.96673 0
M  V30 3931 H 385.112 1.01939 5.42506 0
M  V30 3932 H 387.588 -0.41649 4.1401 0
M  V30 3933 H 386.464 -0.989505 5.39907 0
M  V30 3934 H 386.725 -1.96373 3.96093 0
M  V30 3935 N 385.784 -1.5574 0.241426 0
M  V30 3936 C 387.012 -2.03208 -0.389134 0
M  V30 3937 C 387.427 -1.12082 -1.51931 0
M  V30 3938 O 386.784 -0.134183 -1.82006 0
M  V30 3939 C 386.835 -3.50064 -0.902087 0
M  V30 3940 O 386.556 -4.37717 0.18305 0
M  V30 3941 C 388.057 -4.13268 -1.60389 0
M  V30 3942 H 385.277 -0.664509 -0.0931053 0
M  V30 3943 H 387.821 -2.0124 0.36369 0
M  V30 3944 H 385.976 -3.52583 -1.60511 0
M  V30 3945 H 386.39 -5.24097 -0.205579 0
M  V30 3946 H 387.864 -5.17733 -1.91458 0
M  V30 3947 H 388.341 -3.59434 -2.52397 0
M  V30 3948 H 388.947 -4.14655 -0.945576 0
M  V30 3949 N 387.262 0.0317525 -1.57568 0
M  V30 3950 C 388.509 0.723104 -1.89149 0
M  V30 3951 C 388.837 1.75504 -0.838377 0
M  V30 3952 O 388.092 1.95037 0.160982 0
M  V30 3953 C 388.391 1.43167 -3.27472 0
M  V30 3954 C 388.057 0.535972 -4.47703 0
M  V30 3955 C 386.719 0.289262 -4.8033 0
M  V30 3956 C 389.071 -0.0826125 -5.21135 0
M  V30 3957 C 386.399 -0.584853 -5.83778 0
M  V30 3958 C 388.751 -0.944414 -6.25511 0
M  V30 3959 C 387.415 -1.20061 -6.56614 0
M  V30 3960 H 386.685 0.264602 -0.692146 0
M  V30 3961 H 389.332 -0.0169496 -1.91492 0
M  V30 3962 H 387.637 2.24497 -3.21105 0
M  V30 3963 H 389.334 1.97209 -3.49155 0
M  V30 3964 H 385.924 0.738414 -4.22191 0
M  V30 3965 H 390.108 0.0950302 -4.96209 0
M  V30 3966 H 385.364 -0.79168 -6.06253 0
M  V30 3967 H 389.538 -1.43026 -6.81554 0
M  V30 3968 H 387.165 -1.87967 -7.36595 0
M  V30 3969 N 388.74 1.54641 0.303973 0
M  V30 3970 C 390.151 1.64811 0.877163 0
M  V30 3971 C 390.502 0.554838 1.88191 0
M  V30 3972 O 389.627 -0.309033 2.14182 0
M  V30 3973 C 390.222 2.9876 1.59775 0
M  V30 3974 C 388.781 3.11061 2.11938 0
M  V30 3975 C 387.928 2.60479 0.951097 0
M  V30 3976 H 390.879 1.58493 0.0810486 0
M  V30 3977 H 390.9 2.90017 2.46314 0
M  V30 3978 H 390.412 3.7831 0.866226 0
M  V30 3979 H 388.513 2.36225 2.88146 0
M  V30 3980 H 388.626 4.17171 2.35595 0
M  V30 3981 H 386.99 2.16859 1.33583 0
M  V30 3982 H 387.773 3.42504 0.233581 0
M  V30 3983 N 390.218 -0.567019 1.47046 0
M  V30 3984 C 391.443 -1.3551 1.57009 0
M  V30 3985 C 391.868 -1.86841 0.217259 0
M  V30 3986 O 391.226 -1.62435 -0.805268 0
M  V30 3987 C 391.274 -2.50777 2.5912 0
M  V30 3988 O 390.378 -3.52706 2.13711 0
M  V30 3989 H 389.719 -0.402919 0.52778 0
M  V30 3990 H 392.249 -0.686241 1.92748 0
M  V30 3991 H 392.259 -2.97481 2.79229 0
M  V30 3992 H 390.934 -2.12771 3.57353 0
M  V30 3993 H 389.511 -3.12374 2.03659 0
M  V30 3994 N 391.696 -1.35014 -0.812953 0
M  V30 3995 C 392.944 -1.27678 -1.56661 0
M  V30 3996 C 393.265 0.150359 -1.94419 0
M  V30 3997 O 392.535 1.08532 -1.63088 0
M  V30 3998 H 391.115 -0.469602 -0.580933 0
M  V30 3999 H 393.777 -1.69043 -0.970076 0
M  V30 4000 H 392.873 -1.88833 -2.48492 0
M  V30 4001 N 393.175 1.03435 -1.18907 0
M  V30 4002 C 394.452 1.73778 -0.89781 0
M  V30 4003 C 394.832 2.02458 0.597832 0
M  V30 4004 O 394.18 1.67482 1.55441 0
M  V30 4005 C 394.39 3.01845 -1.75187 0
M  V30 4006 C 395.738 3.7546 -1.9828 0
M  V30 4007 O 396.762 3.11759 -1.72293 0
M  V30 4008 O 395.621 4.89966 -2.42065 0
M  V30 4009 H 392.715 0.75651 -0.334098 0
M  V30 4010 H 395.261 1.09444 -1.29693 0
M  V30 4011 H 394.033 2.76836 -2.76545 0
M  V30 4012 H 393.656 3.73919 -1.35167 0
M  V30 4013 N 394.653 0.992116 1.22453 0
M  V30 4014 C 395.902 0.662992 1.90492 0
M  V30 4015 C 396.215 -0.808407 1.78113 0
M  V30 4016 O 397.421 -1.24908 2.41061 0
M  V30 4017 C 395.877 1.1353 3.41524 0
M  V30 4018 C 395.485 2.63187 3.62542 0
M  V30 4019 C 397.229 0.880465 4.15269 0
M  V30 4020 C 395.136 3.04024 5.0727 0
M  V30 4021 H 394.066 0.244278 0.713333 0
M  V30 4022 H 396.717 1.20157 1.38688 0
M  V30 4023 H 395.099 0.52485 3.92506 0
M  V30 4024 H 396.273 3.2957 3.22056 0
M  V30 4025 H 394.588 2.86543 3.02129 0
M  V30 4026 H 397.185 1.16128 5.21937 0
M  V30 4027 H 397.528 -0.183408 4.15896 0
M  V30 4028 H 398.061 1.45307 3.70312 0
M  V30 4029 H 394.8 4.09584 5.11782 0
M  V30 4030 H 394.32 2.42343 5.48662 0
M  V30 4031 H 395.999 2.95282 5.75689 0
M  V30 4032 N 396.131 -1.37776 0.765217 0
M  V30 4033 C 397.063 -2.28958 0.105361 0
M  V30 4034 C 398.076 -1.48316 -0.67128 0
M  V30 4035 O 399.265 -1.71046 -0.51045 0
M  V30 4036 C 396.365 -3.27421 -0.874569 0
M  V30 4037 C 395.538 -4.37132 -0.153123 0
M  V30 4038 C 394.597 -5.1571 -1.04547 0
M  V30 4039 O 393.623 -5.66896 -0.511672 0
M  V30 4040 N 394.825 -5.29808 -2.37243 0
M  V30 4041 H 397.59 -2.86227 0.888495 0
M  V30 4042 H 395.151 -1.49682 0.617 0
M  V30 4043 H 397.143 -3.7687 -1.47483 0
M  V30 4044 H 395.713 -2.70967 -1.55871 0
M  V30 4045 H 394.933 -3.89166 0.627975 0
M  V30 4046 H 396.221 -5.07625 0.345643 0
M  V30 4047 H 395.619 -4.89793 -2.83054 0
M  V30 4048 H 394.176 -5.82589 -2.9229 0
M  V30 4049 N 397.609 -0.515225 -1.4894 0
M  V30 4050 C 398.519 0.259774 -2.33157 0
M  V30 4051 C 399.535 0.953501 -1.45548 0
M  V30 4052 O 400.711 0.931735 -1.78552 0
M  V30 4053 C 397.776 1.30193 -3.21326 0
M  V30 4054 C 396.837 0.620129 -4.24797 0
M  V30 4055 C 396.07 1.61263 -5.08753 0
M  V30 4056 O 396.293 2.84389 -4.94448 0
M  V30 4057 O 395.227 1.16013 -5.90614 0
M  V30 4058 H 399.053 -0.429932 -3.00641 0
M  V30 4059 H 396.638 -0.276346 -1.46822 0
M  V30 4060 H 398.52 1.90455 -3.75905 0
M  V30 4061 H 397.195 1.97431 -2.56521 0
M  V30 4062 H 396.102 -0.0226019 -3.74093 0
M  V30 4063 H 397.435 -0.0100493 -4.92199 0
M  V30 4064 N 399.087 1.5561 -0.249682 0
M  V30 4065 C 400.019 2.18834 0.681496 0
M  V30 4066 C 401.032 1.16546 1.1367 0
M  V30 4067 O 402.221 1.43397 1.06299 0
M  V30 4068 C 399.321 2.77992 1.9384 0
M  V30 4069 C 398.494 4.05725 1.63419 0
M  V30 4070 C 397.553 4.49174 2.74096 0
M  V30 4071 O 396.579 5.15492 2.41364 0
M  V30 4072 N 397.781 4.17191 4.03649 0
M  V30 4073 H 400.546 2.9937 0.140514 0
M  V30 4074 H 398.107 1.6175 -0.0697541 0
M  V30 4075 H 400.099 3.04015 2.67127 0
M  V30 4076 H 398.669 2.01596 2.38909 0
M  V30 4077 H 397.889 3.87261 0.736358 0
M  V30 4078 H 399.177 4.88999 1.40562 0
M  V30 4079 H 398.575 3.63955 4.33074 0
M  V30 4080 H 397.132 4.48043 4.73393 0
M  V30 4081 N 400.565 -0.0233959 1.57583 0
M  V30 4082 C 401.495 -1.02162 2.09965 0
M  V30 4083 C 402.476 -1.3735 1.00344 0
M  V30 4084 O 403.661 -1.46135 1.27899 0
M  V30 4085 C 400.791 -2.32081 2.58371 0
M  V30 4086 C 399.745 -2.1112 3.72307 0
M  V30 4087 C 399.071 -3.46848 4.06941 0
M  V30 4088 C 400.371 -1.49276 5.00514 0
M  V30 4089 H 402.065 -0.585557 2.93618 0
M  V30 4090 H 399.611 -0.280218 1.41247 0
M  V30 4091 H 401.564 -3.02249 2.93639 0
M  V30 4092 H 400.288 -2.77758 1.71808 0
M  V30 4093 H 398.947 -1.43384 3.37397 0
M  V30 4094 H 398.595 -3.90184 3.17436 0
M  V30 4095 H 398.295 -3.33646 4.83688 0
M  V30 4096 H 399.819 -4.18369 4.44747 0
M  V30 4097 H 401.233 -2.09368 5.33702 0
M  V30 4098 H 399.63 -1.46632 5.8191 0
M  V30 4099 H 400.7 -0.459217 4.82721 0
M  V30 4100 N 402.043 -1.548 -0.295768 0
M  V30 4101 C 403.292 -1.73538 -1.02798 0
M  V30 4102 C 403.605 -0.531159 -1.8825 0
M  V30 4103 O 404.811 -0.600458 -2.64777 0
M  V30 4104 C 403.267 -3.07051 -1.87744 0
M  V30 4105 C 402.875 -4.34968 -1.07269 0
M  V30 4106 C 404.619 -3.35146 -2.60533 0
M  V30 4107 C 402.526 -5.5953 -1.91521 0
M  V30 4108 H 401.456 -0.646794 -0.387522 0
M  V30 4109 H 404.107 -1.81278 -0.284718 0
M  V30 4110 H 402.489 -2.93289 -2.66078 0
M  V30 4111 H 403.663 -4.5958 -0.335117 0
M  V30 4112 H 401.978 -4.13847 -0.460384 0
M  V30 4113 H 404.575 -4.2541 -3.23929 0
M  V30 4114 H 404.918 -2.54255 -3.29636 0
M  V30 4115 H 405.451 -3.49902 -1.89244 0
M  V30 4116 H 402.19 -6.43103 -1.26878 0
M  V30 4117 H 401.71 -5.39096 -2.62937 0
M  V30 4118 H 403.389 -5.96982 -2.49442 0
M  V30 4119 N 403.521 0.559213 -1.47345 0
M  V30 4120 C 404.937 0.884943 -1.32819 0
M  V30 4121 C 405.137 1.98988 -0.317173 0
M  V30 4122 O 404.193 2.51031 0.272011 0
M  V30 4123 C 405.506 1.28007 -2.72093 0
M  V30 4124 C 407.054 1.39161 -2.80363 0
M  V30 4125 C 407.529 1.82031 -4.20272 0
M  V30 4126 N 409.02 1.89185 -4.22804 0
M  V30 4127 C 409.755 2.2368 -5.27973 0
M  V30 4128 N 409.251 2.56802 -6.43447 0
M  V30 4129 N 411.044 2.24436 -5.15349 0
M  V30 4130 H 403.195 -0.170304 -2.11716 0
M  V30 4131 H 405.458 -0.0135247 -0.947904 0
M  V30 4132 H 405.164 0.542027 -3.47498 0
M  V30 4133 H 405.038 2.23665 -3.03733 0
M  V30 4134 H 407.425 2.12048 -2.05231 0
M  V30 4135 H 407.506 0.41696 -2.52379 0
M  V30 4136 H 407.15 1.09715 -4.95908 0
M  V30 4137 H 407.08 2.80495 -4.45679 0
M  V30 4138 H 409.571 1.65982 -3.39497 0
M  V30 4139 H 409.884 2.82144 -7.19454 0
M  V30 4140 H 408.229 2.54387 -6.46771 0
M  V30 4141 H 411.42 1.97998 -4.24163 0
M  V30 4142 H 411.593 2.50989 -5.97418 0
M  V30 4143 N 404.999 1.35443 0.805782 0
M  V30 4144 C 406.224 1.32037 1.59941 0
M  V30 4145 C 406.649 -0.0994215 1.87837 0
M  V30 4146 O 406.007 -1.06648 1.46615 0
M  V30 4147 C 406.055 2.13354 2.90711 0
M  V30 4148 O 405.159 1.5148 3.83572 0
M  V30 4149 H 404.5 0.452666 0.485787 0
M  V30 4150 H 407.03 1.78496 1.00002 0
M  V30 4151 H 407.04 2.25338 3.40128 0
M  V30 4152 H 405.715 3.16572 2.69732 0
M  V30 4153 H 404.292 1.4834 3.42125 0
M  V30 4154 N 406.477 -1.02803 1.19454 0
M  V30 4155 C 407.407 -2.12999 0.956758 0
M  V30 4156 C 408.388 -1.69743 -0.110188 0
M  V30 4157 O 409.573 -1.94148 0.0450038 0
M  V30 4158 C 406.703 -3.43746 0.495553 0
M  V30 4159 C 405.657 -4.00688 1.50443 0
M  V30 4160 C 404.983 -5.27067 0.900275 0
M  V30 4161 C 406.283 -4.35397 2.8849 0
M  V30 4162 H 407.977 -2.33148 1.87836 0
M  V30 4163 H 405.523 -1.12045 0.904539 0
M  V30 4164 H 407.476 -4.2021 0.316493 0
M  V30 4165 H 406.2 -3.23321 -0.461646 0
M  V30 4166 H 404.859 -3.2632 1.67065 0
M  V30 4167 H 404.507 -5.02959 -0.064503 0
M  V30 4168 H 404.207 -5.66127 1.57397 0
M  V30 4169 H 405.731 -6.06196 0.73203 0
M  V30 4170 H 407.145 -5.02795 2.75446 0
M  V30 4171 H 405.542 -4.85541 3.52661 0
M  V30 4172 H 406.612 -3.44662 3.41081 0
M  V30 4173 N 407.956 -0.998596 -1.21925 0
M  V30 4174 C 409.186 -0.695276 -1.94549 0
M  V30 4175 C 409.594 0.745079 -1.73911 0
M  V30 4176 O 408.937 1.51507 -1.03881 0
M  V30 4177 C 408.999 -0.928485 -3.47303 0
M  V30 4178 C 408.663 -2.35443 -3.91683 0
M  V30 4179 C 409.66 -3.33428 -3.98901 0
M  V30 4180 C 407.345 -2.69038 -4.24174 0
M  V30 4181 C 409.339 -4.63079 -4.37992 0
M  V30 4182 C 407.026 -3.98906 -4.62944 0
M  V30 4183 C 408.024 -4.95738 -4.69822 0
M  V30 4184 O 407.712 -6.23285 -5.07711 0
M  V30 4185 H 407.444 -0.255902 -0.625692 0
M  V30 4186 H 409.998 -1.33767 -1.5587 0
M  V30 4187 H 408.228 -0.228917 -3.86022 0
M  V30 4188 H 409.917 -0.619539 -4.01144 0
M  V30 4189 H 410.683 -3.08807 -3.73983 0
M  V30 4190 H 406.562 -1.94367 -4.18022 0
M  V30 4191 H 410.106 -5.38658 -4.43275 0
M  V30 4192 H 406.003 -4.23314 -4.87314 0
M  V30 4193 H 406.771 -6.27306 -5.25766 0
M  V30 4194 N 409.434 1.37368 -0.772513 0
M  V30 4195 C 410.366 2.28899 -0.117502 0
M  V30 4196 C 411.379 1.4867 0.663405 0
M  V30 4197 O 412.568 1.71314 0.501372 0
M  V30 4198 C 409.668 3.2788 0.857192 0
M  V30 4199 C 408.841 4.37207 0.129938 0
M  V30 4200 C 407.9 5.16257 1.01811 0
M  V30 4201 O 406.926 5.67159 0.481601 0
M  V30 4202 N 408.128 5.31058 2.3443 0
M  V30 4203 H 410.893 2.85752 -0.903662 0
M  V30 4204 H 408.454 1.49353 -0.62493 0
M  V30 4205 H 410.446 3.77647 1.45482 0
M  V30 4206 H 409.016 2.7179 1.54432 0
M  V30 4207 H 408.236 3.88827 -0.648605 0
M  V30 4208 H 409.524 5.07434 -0.372559 0
M  V30 4209 H 408.922 4.91287 2.80452 0
M  V30 4210 H 407.479 5.84131 2.89197 0
M  V30 4211 N 410.912 0.523116 1.48665 0
M  V30 4212 C 412.137 -0.0117284 2.07397 0
M  V30 4213 C 412.562 -1.28031 1.37803 0
M  V30 4214 O 411.92 -1.75836 0.441762 0
M  V30 4215 C 411.968 -0.225786 3.59892 0
M  V30 4216 O 411.072 -1.29592 3.91509 0
M  V30 4217 H 410.413 0.0360673 0.66302 0
M  V30 4218 H 412.943 0.729066 1.9117 0
M  V30 4219 H 412.953 -0.450552 4.05505 0
M  V30 4220 H 411.628 0.700944 4.09951 0
M  V30 4221 H 410.205 -1.05436 3.57684 0
M  V30 4222 N 412.39 -1.55475 0.257931 0
M  V30 4223 C 413.353 -2.20551 -0.623706 0
M  V30 4224 C 414.353 -1.17809 -1.09443 0
M  V30 4225 O 415.543 -1.42823 -0.997362 0
M  V30 4226 C 412.675 -2.85784 -1.8585 0
M  V30 4227 H 413.868 -2.99848 -0.0557743 0
M  V30 4228 H 411.421 -1.56298 0.0084422 0
M  V30 4229 H 412.156 -2.10453 -2.46739 0
M  V30 4230 H 411.941 -3.61057 -1.52907 0
M  V30 4231 H 413.431 -3.35553 -2.48584 0
M  V30 4232 N 413.868 0.0150385 -1.57593 0
M  V30 4233 C 415.116 0.701613 -1.8953 0
M  V30 4234 C 415.437 1.75139 -0.857396 0
M  V30 4235 O 414.707 1.95607 0.107194 0
M  V30 4236 H 413.287 0.26213 -0.699498 0
M  V30 4237 H 415.949 -0.0223304 -1.94887 0
M  V30 4238 H 415.045 1.18236 -2.88837 0
M  V30 4239 N 415.346 1.54954 0.287554 0
M  V30 4240 C 416.592 1.75132 1.02257 0
M  V30 4241 C 416.925 0.542858 1.86458 0
M  V30 4242 O 416.2 -0.459856 1.88986 0
M  V30 4243 C 416.483 3.04812 1.91733 0
M  V30 4244 C 416.336 4.35985 1.10622 0
M  V30 4245 C 417.655 3.30438 2.90687 0
M  V30 4246 H 414.774 0.637194 0.370341 0
M  V30 4247 H 417.416 1.87678 0.296111 0
M  V30 4248 H 415.566 2.94247 2.53675 0
M  V30 4249 H 417.238 4.58487 0.508636 0
M  V30 4250 H 415.481 4.31865 0.409271 0
M  V30 4251 H 416.152 5.23017 1.76513 0
M  V30 4252 H 418.628 3.40701 2.38877 0
M  V30 4253 H 417.504 4.22467 3.50447 0
M  V30 4254 H 417.765 2.49377 3.65053 0
M  V30 4255 N 416.824 -0.551391 1.4764 0
M  V30 4256 C 417.787 -1.64007 1.60107 0
M  V30 4257 C 418.787 -1.53601 0.47576 0
M  V30 4258 O 419.977 -1.57655 0.740988 0
M  V30 4259 C 417.109 -3.03569 1.55108 0
M  V30 4260 H 418.302 -1.543 2.57161 0
M  V30 4261 H 415.855 -0.771776 1.35917 0
M  V30 4262 H 416.59 -3.18804 0.594519 0
M  V30 4263 H 416.375 -3.12532 2.36783 0
M  V30 4264 H 417.865 -3.82762 1.66982 0
M  V30 4265 N 418.302 -1.35869 -0.798587 0
M  V30 4266 C 419.713 -1.26498 -1.37314 0
M  V30 4267 C 420.064 0.0991899 -1.95949 0
M  V30 4268 O 419.189 1.0004 -1.91888 0
M  V30 4269 C 419.784 -2.29054 -2.49639 0
M  V30 4270 C 418.343 -2.234 -3.02935 0
M  V30 4271 C 417.49 -2.14329 -1.75949 0
M  V30 4272 H 420.441 -1.46881 -0.600971 0
M  V30 4273 H 420.462 -1.92166 -3.28409 0
M  V30 4274 H 419.974 -3.2833 -2.06933 0
M  V30 4275 H 418.075 -1.27562 -3.50084 0
M  V30 4276 H 418.188 -3.15703 -3.60372 0
M  V30 4277 H 416.552 -1.60435 -1.9782 0
M  V30 4278 H 417.335 -3.15477 -1.35384 0
M  V30 4279 N 419.78 1.02168 -1.19998 0
M  V30 4280 C 420.69 2.14069 -0.959774 0
M  V30 4281 C 421.706 1.73804 0.082655 0
M  V30 4282 O 422.882 2.01133 -0.103633 0
M  V30 4283 C 419.947 3.42936 -0.509459 0
M  V30 4284 C 419.008 3.97474 -1.62213 0
M  V30 4285 C 418.241 5.2019 -1.19321 0
M  V30 4286 O 418.464 5.70369 -0.0597726 0
M  V30 4287 O 417.398 5.67749 -1.99863 0
M  V30 4288 H 421.224 2.37199 -1.89658 0
M  V30 4289 H 418.809 1.12469 -0.983411 0
M  V30 4290 H 420.691 4.20551 -0.267322 0
M  V30 4291 H 419.366 3.21234 0.398821 0
M  V30 4292 H 418.273 3.21161 -1.9185 0
M  V30 4293 H 419.606 4.23555 -2.50723 0
M  V30 4294 N 421.258 1.00505 1.21394 0
M  V30 4295 C 422.483 0.706367 1.95001 0
M  V30 4296 C 422.908 -0.72463 1.73582 0
M  V30 4297 O 422.266 -1.49702 1.0227 0
M  V30 4298 C 422.314 1.03299 3.45487 0
M  V30 4299 O 421.418 0.138275 4.12168 0
M  V30 4300 H 420.759 0.263175 0.609619 0
M  V30 4301 H 423.289 1.34531 1.54151 0
M  V30 4302 H 423.299 0.979872 3.96059 0
M  V30 4303 H 421.974 2.07567 3.60401 0
M  V30 4304 H 420.551 0.247928 3.72075 0
M  V30 4305 N 422.737 -1.36956 0.779787 0
M  V30 4306 C 423.984 -1.99491 0.347766 0
M  V30 4307 C 424.312 -1.61898 -1.07793 0
M  V30 4308 O 423.567 -0.86071 -1.75756 0
M  V30 4309 C 423.866 -3.54585 0.447686 0
M  V30 4310 C 423.532 -4.1197 1.83279 0
M  V30 4311 C 422.194 -4.27356 2.2118 0
M  V30 4312 C 424.546 -4.43354 2.74019 0
M  V30 4313 C 421.874 -4.71432 3.4924 0
M  V30 4314 C 424.226 -4.88858 4.01497 0
M  V30 4315 C 422.89 -5.0245 4.39432 0
M  V30 4316 H 422.16 -0.729991 0.127257 0
M  V30 4317 H 424.807 -1.63599 0.995376 0
M  V30 4318 H 423.112 -3.90773 -0.283447 0
M  V30 4319 H 424.809 -4.00888 0.0945948 0
M  V30 4320 H 421.399 -4.00428 1.52825 0
M  V30 4321 H 425.583 -4.31045 2.45995 0
M  V30 4322 H 420.839 -4.80141 3.78516 0
M  V30 4323 H 425.013 -5.12108 4.71931 0
M  V30 4324 H 422.64 -5.36362 5.38721 0
M  V30 4325 N 424.215 -0.530993 -1.48385 0
M  V30 4326 C 425.125 0.23503 -2.3342 0
M  V30 4327 C 426.141 0.93801 -1.46552 0
M  V30 4328 O 427.317 0.912745 -1.7953 0
M  V30 4329 C 424.382 1.26778 -3.22689 0
M  V30 4330 C 423.443 0.575038 -4.25431 0
M  V30 4331 C 422.676 1.55858 -5.10435 0
M  V30 4332 O 422.899 2.79129 -4.97437 0
M  V30 4333 O 421.833 1.09742 -5.91811 0
M  V30 4334 H 425.659 -0.461794 -3.00169 0
M  V30 4335 H 423.244 -0.291903 -1.46521 0
M  V30 4336 H 425.126 1.86457 -3.77904 0
M  V30 4337 H 423.801 1.94699 -2.586 0
M  V30 4338 H 422.708 -0.0622782 -3.74048 0
M  V30 4339 H 424.041 -0.062253 -4.92161 0
M  V30 4340 N 425.693 1.55336 -0.266172 0
M  V30 4341 C 426.923 2.03506 0.356239 0
M  V30 4342 C 427.331 1.14426 1.50676 0
M  V30 4343 O 426.674 0.155043 1.83045 0
M  V30 4344 C 426.736 3.47848 0.90785 0
M  V30 4345 C 426.4 4.56861 -0.112888 0
M  V30 4346 C 427.397 5.11528 -0.929264 0
M  V30 4347 C 425.082 5.01704 -0.244546 0
M  V30 4348 C 427.076 6.09549 -1.86357 0
M  V30 4349 C 424.763 5.99553 -1.18234 0
M  V30 4350 C 425.761 6.53356 -1.99036 0
M  V30 4351 O 425.449 7.49293 -2.91231 0
M  V30 4352 H 425.181 0.670444 0.08649 0
M  V30 4353 H 427.735 2.01598 -0.39337 0
M  V30 4354 H 425.965 3.46967 1.70737 0
M  V30 4355 H 427.654 3.79407 1.44239 0
M  V30 4356 H 428.42 4.77701 -0.838237 0
M  V30 4357 H 424.299 4.59477 0.374359 0
M  V30 4358 H 427.843 6.51469 -2.49467 0
M  V30 4359 H 423.74 6.32799 -1.27421 0
M  V30 4360 H 424.508 7.66978 -2.8581 0
M  V30 4361 N 427.171 -0.0066808 1.57599 0
M  V30 4362 C 428.42 -0.692078 1.89455 0
M  V30 4363 C 428.733 -1.75306 0.867586 0
M  V30 4364 O 429.939 -2.49262 1.07614 0
M  V30 4365 C 428.395 -1.2821 3.36289 0
M  V30 4366 C 428.003 -0.256291 4.47266 0
M  V30 4367 C 429.747 -1.94608 3.77264 0
M  V30 4368 C 427.654 -0.855927 5.85173 0
M  V30 4369 H 426.584 -0.262252 0.706923 0
M  V30 4370 H 429.235 0.052769 1.83424 0
M  V30 4371 H 427.617 -2.0774 3.37135 0
M  V30 4372 H 428.791 0.513923 4.57925 0
M  V30 4373 H 427.106 0.306862 4.15268 0
M  V30 4374 H 429.703 -2.40364 4.77629 0
M  V30 4375 H 430.046 -2.77382 3.10427 0
M  V30 4376 H 430.579 -1.21822 3.78688 0
M  V30 4377 H 427.318 -0.0671161 6.55466 0
M  V30 4378 H 426.838 -1.59546 5.78191 0
M  V30 4379 H 428.517 -1.35658 6.32618 0
M  V30 4380 N 428.649 -1.55105 -0.279332 0
M  V30 4381 C 429.559 -1.90638 -1.36727 0
M  V30 4382 C 430.575 -0.802899 -1.54368 0
M  V30 4383 O 431.751 -1.10138 -1.68616 0
M  V30 4384 C 428.816 -2.16547 -2.70755 0
M  V30 4385 C 427.877 -3.40146 -2.61915 0
M  V30 4386 C 427.11 -3.6481 -3.8955 0
M  V30 4387 O 427.333 -2.92095 -4.89935 0
M  V30 4388 O 426.267 -4.58343 -3.90135 0
M  V30 4389 H 430.093 -2.83237 -1.09591 0
M  V30 4390 H 427.678 -1.4157 -0.477306 0
M  V30 4391 H 429.56 -2.34665 -3.50014 0
M  V30 4392 H 428.235 -1.27131 -2.9769 0
M  V30 4393 H 427.142 -3.2737 -1.81052 0
M  V30 4394 H 428.475 -4.29761 -2.3993 0
M  V30 4395 N 430.127 0.543554 -1.4793 0
M  V30 4396 C 431.09 1.63156 -1.60975 0
M  V30 4397 C 432.09 1.53346 -0.483899 0
M  V30 4398 O 433.28 1.5726 -0.749339 0
M  V30 4399 C 430.412 3.02743 -1.56716 0
M  V30 4400 H 431.605 1.52934 -2.57975 0
M  V30 4401 H 429.158 0.764557 -1.36324 0
M  V30 4402 H 429.893 3.18484 -0.611418 0
M  V30 4403 H 429.678 3.11272 -2.38438 0
M  V30 4404 H 431.168 3.81871 -1.6901 0
M  V30 4405 N 431.605 1.3629 0.791371 0
M  V30 4406 C 432.555 1.26988 1.89362 0
M  V30 4407 C 433.539 0.161795 1.60084 0
M  V30 4408 O 434.731 0.394426 1.72549 0
M  V30 4409 C 431.86 1.05944 3.26544 0
M  V30 4410 C 430.946 2.21211 3.61838 0
M  V30 4411 N 431.337 3.46518 3.68455 0
M  V30 4412 C 429.635 2.12933 3.91887 0
M  V30 4413 C 430.336 4.2241 3.99931 0
M  V30 4414 N 429.312 3.51329 4.14812 0
M  V30 4415 H 433.114 2.21908 1.92702 0
M  V30 4416 H 430.628 1.28982 0.986787 0
M  V30 4417 H 432.625 0.973666 4.05371 0
M  V30 4418 H 431.285 0.119223 3.24481 0
M  V30 4419 H 432.296 3.80677 3.51148 0
M  V30 4420 H 428.973 1.26855 3.97761 0
M  V30 4421 H 430.363 5.30767 4.1199 0
M  V30 4422 N 433.083 -1.0153 1.20538 0
M  V30 4423 C 434.331 -1.74803 1.01432 0
M  V30 4424 C 434.652 -1.8963 -0.454456 0
M  V30 4425 O 433.922 -1.43975 -1.32846 0
M  V30 4426 H 432.502 -0.647598 0.372324 0
M  V30 4427 H 435.164 -1.22402 1.5167 0
M  V30 4428 H 434.26 -2.75114 1.47373 0
M  V30 4429 N 434.561 -1.01147 -1.20859 0
M  V30 4430 C 435.789 -0.716911 -1.94082 0
M  V30 4431 C 436.204 0.721568 -1.74467 0
M  V30 4432 O 435.561 1.48889 -1.05539 0
M  V30 4433 C 435.612 -1.03662 -3.46318 0
M  V30 4434 O 435.333 -2.4186 -3.65288 0
M  V30 4435 C 436.834 -0.762386 -4.36695 0
M  V30 4436 H 434.054 -0.26367 -0.617024 0
M  V30 4437 H 436.598 -1.35127 -1.53496 0
M  V30 4438 H 434.753 -0.447757 -3.84804 0
M  V30 4439 H 435.167 -2.53224 -4.59323 0
M  V30 4440 H 436.641 -1.03621 -5.42187 0
M  V30 4441 H 437.118 0.303514 -4.3815 0
M  V30 4442 H 437.724 -1.33316 -4.03865 0
M  V30 4443 N 436.039 1.36541 -0.78704 0
M  V30 4444 C 437.287 1.98911 -0.357633 0
M  V30 4445 C 437.608 1.62778 1.07371 0
M  V30 4446 O 436.878 0.900612 1.73971 0
M  V30 4447 H 435.458 0.735734 -0.129246 0
M  V30 4448 H 438.12 1.66776 -1.00855 0
M  V30 4449 H 437.216 3.08874 -0.447549 0
M  V30 4450 N 437.518 0.538854 1.48102 0
M  V30 4451 C 438.746 0.0123136 2.06896 0
M  V30 4452 C 439.161 -1.27312 1.39417 0
M  V30 4453 O 438.518 -1.75949 0.484582 0
M  V30 4454 C 438.569 -0.206118 3.60912 0
M  V30 4455 O 438.29 1.0284 4.25859 0
M  V30 4456 C 439.791 -0.772033 4.36526 0
M  V30 4457 H 437.011 0.0375239 0.66995 0
M  V30 4458 H 439.555 0.747032 1.90367 0
M  V30 4459 H 437.71 -0.89091 3.77017 0
M  V30 4460 H 438.124 0.814654 5.18135 0
M  V30 4461 H 439.598 -0.874251 5.45033 0
M  V30 4462 H 440.075 -1.77904 4.01555 0
M  V30 4463 H 440.681 -0.123526 4.25121 0
M  V30 4464 N 438.996 -1.55193 0.274407 0
M  V30 4465 C 439.943 -2.225 -0.613374 0
M  V30 4466 C 440.913 -1.19823 -1.15029 0
M  V30 4467 O 442.098 -1.48362 -1.19973 0
M  V30 4468 C 439.238 -2.94927 -1.79199 0
M  V30 4469 C 438.351 -4.12322 -1.28899 0
M  V30 4470 C 437.486 -4.72394 -2.42934 0
M  V30 4471 C 436.525 -5.81984 -1.89634 0
M  V30 4472 N 435.662 -6.36123 -2.9714 0
M  V30 4473 H 440.502 -2.97982 -0.032756 0
M  V30 4474 H 438.039 -1.47099 -0.00440146 0
M  V30 4475 H 439.997 -3.35134 -2.48478 0
M  V30 4476 H 438.627 -2.2187 -2.34465 0
M  V30 4477 H 437.679 -3.7724 -0.489327 0
M  V30 4478 H 438.991 -4.91355 -0.858587 0
M  V30 4479 H 438.145 -5.15317 -3.20208 0
M  V30 4480 H 436.884 -3.92636 -2.8929 0
M  V30 4481 H 435.889 -5.38511 -1.1084 0
M  V30 4482 H 437.114 -6.6361 -1.44215 0
M  V30 4483 H 435.06 -5.59259 -3.42878 0
M  V30 4484 H 434.977 -7.10427 -2.58515 0
M  V30 4485 H 436.245 -6.83704 -3.74391 0
M  V30 4486 N 440.474 -0.00167713 -1.576 0
M  V30 4487 C 441.72 0.683832 -1.90923 0
M  V30 4488 C 442.053 1.7333 -0.875799 0
M  V30 4489 O 441.328 1.94215 0.10525 0
M  V30 4490 C 441.611 1.32543 -3.3482 0
M  V30 4491 C 441.464 0.287387 -4.48881 0
M  V30 4492 C 442.783 2.25114 -3.78169 0
M  V30 4493 H 439.902 0.247125 -0.694333 0
M  V30 4494 H 442.544 -0.0533149 -1.89925 0
M  V30 4495 H 440.694 1.95372 -3.35801 0
M  V30 4496 H 442.366 -0.341346 -4.60035 0
M  V30 4497 H 440.609 -0.39017 -4.32042 0
M  V30 4498 H 441.28 0.775393 -5.46527 0
M  V30 4499 H 443.756 1.723 -3.7875 0
M  V30 4500 H 442.632 2.66971 -4.79602 0
M  V30 4501 H 442.893 3.13092 -3.12131 0
M  V30 4502 N 441.952 1.55251 0.271103 0
M  V30 4503 C 443.2 1.75599 1.00047 0
M  V30 4504 C 443.521 0.561188 1.8675 0
M  V30 4505 O 442.791 -0.423846 1.9126 0
M  V30 4506 H 441.371 0.647562 0.372387 0
M  V30 4507 H 444.033 1.92656 0.294876 0
M  V30 4508 H 443.129 2.65766 1.6363 0
M  V30 4509 N 443.43 -0.535701 1.48216 0
M  V30 4510 C 444.707 -1.29683 1.46429 0
M  V30 4511 C 445.087 -2.10391 0.172852 0
M  V30 4512 O 444.435 -2.12282 -0.845488 0
M  V30 4513 C 444.645 -2.18313 2.72287 0
M  V30 4514 C 445.993 -2.78639 3.20383 0
M  V30 4515 O 447.017 -2.28604 2.73164 0
M  V30 4516 O 445.876 -3.69636 4.02531 0
M  V30 4517 H 442.97 -0.585026 0.584529 0
M  V30 4518 H 445.516 -0.552827 1.60443 0
M  V30 4519 H 444.288 -1.58421 3.57797 0
M  V30 4520 H 443.911 -2.99971 2.60966 0
M  V30 4521 N 444.908 -1.36708 -0.784132 0
M  V30 4522 C 446.319 -1.27947 -1.35965 0
M  V30 4523 C 446.67 0.0784013 -1.96043 0
M  V30 4524 O 445.795 0.979989 -1.92938 0
M  V30 4525 C 446.39 -2.31689 -2.47195 0
M  V30 4526 C 444.949 -2.26601 -3.00548 0
M  V30 4527 C 444.096 -2.16184 -1.73666 0
M  V30 4528 H 447.047 -1.4751 -0.585358 0
M  V30 4529 H 447.068 -1.95638 -3.26352 0
M  V30 4530 H 446.58 -3.30506 -2.03439 0
M  V30 4531 H 444.681 -1.31268 -3.48711 0
M  V30 4532 H 444.794 -3.19508 -3.57004 0
M  V30 4533 H 443.158 -1.62524 -1.96107 0
M  V30 4534 H 443.941 -3.16896 -1.32031 0
M  V30 4535 N 446.386 1.0089 -1.21074 0
M  V30 4536 C 447.318 2.09737 -0.924291 0
M  V30 4537 C 448.331 1.62546 0.0909809 0
M  V30 4538 O 449.52 1.77942 -0.141021 0
M  V30 4539 C 446.62 3.36922 -0.36559 0
M  V30 4540 C 445.793 4.13216 -1.43426 0
M  V30 4541 C 444.852 5.18696 -0.885496 0
M  V30 4542 O 443.878 5.47176 -1.56801 0
M  V30 4543 N 445.08 5.79718 0.301227 0
M  V30 4544 H 447.845 2.34895 -1.8613 0
M  V30 4545 H 445.406 1.17341 -1.11546 0
M  V30 4546 H 447.398 4.04697 0.0158407 0
M  V30 4547 H 445.968 3.08952 0.476149 0
M  V30 4548 H 445.188 3.40301 -1.9897 0
M  V30 4549 H 446.476 4.60967 -2.15376 0
M  V30 4550 H 445.874 5.58926 0.872849 0
M  V30 4551 H 444.431 6.48804 0.624211 0
M  V30 4552 N 447.864 1.01787 1.20321 0
M  V30 4553 C 448.774 0.598898 2.26827 0
M  V30 4554 C 449.79 -0.36418 1.70146 0
M  V30 4555 O 450.966 -0.224812 2.00141 0
M  V30 4556 C 448.031 -0.0549769 3.46656 0
M  V30 4557 C 447.092 0.954205 4.18561 0
M  V30 4558 C 446.325 0.331439 5.3267 0
M  V30 4559 O 446.548 -0.86851 5.63749 0
M  V30 4560 O 445.482 1.0488 5.92692 0
M  V30 4561 H 449.308 1.48562 2.64883 0
M  V30 4562 H 446.893 0.787434 1.26964 0
M  V30 4563 H 448.775 -0.420102 4.19301 0
M  V30 4564 H 447.45 -0.915876 3.10473 0
M  V30 4565 H 446.357 1.37072 3.48083 0
M  V30 4566 H 447.69 1.78511 4.58688 0
M  V30 4567 N 449.342 -1.36122 0.79427 0
M  V30 4568 C 450.272 -2.32551 0.210328 0
M  V30 4569 C 451.253 -1.56884 -0.657386 0
M  V30 4570 O 452.438 -1.85014 -0.590207 0
M  V30 4571 C 449.568 -3.41128 -0.651819 0
M  V30 4572 C 448.522 -4.27842 0.116395 0
M  V30 4573 C 447.848 -5.2763 -0.86666 0
M  V30 4574 C 449.148 -5.05647 1.30837 0
M  V30 4575 H 450.842 -2.81636 1.01594 0
M  V30 4576 H 448.388 -1.35407 0.489981 0
M  V30 4577 H 450.341 -4.07581 -1.07031 0
M  V30 4578 H 449.065 -2.90622 -1.49019 0
M  V30 4579 H 447.724 -3.62952 0.515915 0
M  V30 4580 H 447.372 -4.73395 -1.70019 0
M  V30 4581 H 447.072 -5.86514 -0.35705 0
M  V30 4582 H 448.596 -5.96955 -1.28361 0
M  V30 4583 H 450.01 -5.65113 0.965393 0
M  V30 4584 H 448.407 -5.73967 1.75161 0
M  V30 4585 H 449.477 -4.37006 2.10128 0
M  V30 4586 N 450.82 -0.546701 -1.47814 0
M  V30 4587 C 451.768 0.220048 -2.31557 0
M  V30 4588 C 452.762 0.919472 -1.42275 0
M  V30 4589 O 453.968 0.841953 -1.59095 0
M  V30 4590 H 450.343 0.0898334 -0.746615 0
M  V30 4591 H 452.314 -0.505589 -2.94086 0
M  V30 4592 C 451.063 1.24353 -3.24702 0
M  V30 4593 H 450.386 0.714758 -3.93359 0
M  V30 4594 H 451.826 1.75112 -3.8615 0
M  V30 4595 C 450.285 2.28593 -2.47481 0
M  V30 4596 O 450.815 3.35334 -2.21165 0
M  V30 4597 N 449.021 2.02244 -2.08676 0
M  V30 4598 H 448.568 1.15455 -2.30278 0
M  V30 4599 H 448.526 2.72207 -1.57323 0
M  V30 4600 N 452.299 1.55045 -0.282633 0
M  V30 4601 C 453.547 1.99365 0.331334 0
M  V30 4602 C 453.868 1.1725 1.55812 0
M  V30 4603 O 453.138 0.263871 1.94115 0
M  V30 4604 H 451.718 0.736397 0.125414 0
M  V30 4605 H 454.38 1.90964 -0.389711 0
M  V30 4606 H 453.476 3.0596 0.616036 0
M  V30 4607 N 453.777 0.010035 1.57597 0
M  V30 4608 C 455.026 -0.671945 1.90178 0
M  V30 4609 C 455.339 -1.74376 0.886131 0
M  V30 4610 O 456.545 -2.48107 1.10252 0
M  V30 4611 C 455.001 -1.24636 3.3763 0
M  V30 4612 C 454.609 -0.208838 4.47513 0
M  V30 4613 C 456.353 -1.90595 3.79307 0
M  V30 4614 C 454.26 -0.793814 5.86048 0
M  V30 4615 H 453.19 -0.25474 0.709665 0
M  V30 4616 H 455.841 0.0722206 1.83358 0
M  V30 4617 H 454.223 -2.04152 3.3932 0
M  V30 4618 H 455.397 0.562463 4.57354 0
M  V30 4619 H 453.712 0.350889 4.14919 0
M  V30 4620 H 456.309 -2.35284 4.80151 0
M  V30 4621 H 456.652 -2.74074 3.13352 0
M  V30 4622 H 457.185 -1.17798 3.79958 0
M  V30 4623 H 453.924 0.00240855 6.555 0
M  V30 4624 H 453.444 -1.53404 5.79851 0
M  V30 4625 H 455.123 -1.2894 6.34022 0
M  V30 4626 N 455.255 -1.55392 -0.262866 0
M  V30 4627 C 456.483 -1.80513 -1.01108 0
M  V30 4628 C 456.898 -0.583533 -1.79556 0
M  V30 4629 O 456.255 0.447585 -1.76926 0
M  V30 4630 C 456.306 -3.03648 -1.96164 0
M  V30 4631 O 456.027 -4.2109 -1.20893 0
M  V30 4632 C 457.528 -3.41448 -2.82715 0
M  V30 4633 H 454.748 -0.601079 -0.298236 0
M  V30 4634 H 457.292 -2.02425 -0.290582 0
M  V30 4635 H 455.447 -2.83832 -2.63663 0
M  V30 4636 H 455.861 -4.90771 -1.85051 0
M  V30 4637 H 457.335 -4.30751 -3.45192 0
M  V30 4638 H 457.812 -2.61308 -3.53008 0
M  V30 4639 H 458.418 -3.63559 -2.20693 0
M  V30 4640 N 456.733 0.527833 -1.48498 0
M  V30 4641 C 458.149 0.856571 -1.34666 0
M  V30 4642 C 458.349 1.98271 -0.35931 0
M  V30 4643 O 457.405 2.51551 0.218703 0
M  V30 4644 C 458.718 1.22207 -2.74747 0
M  V30 4645 C 460.266 1.33183 -2.83251 0
M  V30 4646 C 460.741 1.73075 -4.24039 0
M  V30 4647 N 462.232 1.80174 -4.26722 0
M  V30 4648 C 462.967 2.1243 -5.32598 0
M  V30 4649 N 462.463 2.43096 -6.4875 0
M  V30 4650 N 464.256 2.13454 -5.19994 0
M  V30 4651 H 456.407 -0.215174 -2.11307 0
M  V30 4652 H 458.67 -0.0336281 -0.947403 0
M  V30 4653 H 458.376 0.468195 -3.4857 0
M  V30 4654 H 458.25 2.17173 -3.08409 0
M  V30 4655 H 460.637 2.07647 -2.09683 0
M  V30 4656 H 460.718 0.363333 -2.53206 0
M  V30 4657 H 460.362 0.991712 -4.98124 0
M  V30 4658 H 460.292 2.70979 -4.51529 0
M  V30 4659 H 462.783 1.58744 -3.42942 0
M  V30 4660 H 463.096 2.6682 -7.25277 0
M  V30 4661 H 461.441 2.40611 -6.52021 0
M  V30 4662 H 464.632 1.88956 -4.28268 0
M  V30 4663 H 464.805 2.38261 -6.02608 0
M  V30 4664 N 458.211 1.37122 0.776871 0
M  V30 4665 C 459.174 1.32301 1.8716 0
M  V30 4666 C 460.174 0.228099 1.59174 0
M  V30 4667 O 461.364 0.483642 1.67352 0
M  V30 4668 C 458.496 1.054 3.24197 0
M  V30 4669 H 459.689 2.29673 1.92848 0
M  V30 4670 H 457.242 1.22077 0.97606 0
M  V30 4671 H 457.977 0.0853872 3.24188 0
M  V30 4672 H 457.762 1.84648 3.45901 0
M  V30 4673 H 459.252 1.04664 4.04271 0
M  V30 4674 N 459.689 -1.00246 1.21608 0
M  V30 4675 C 460.619 -2.10921 1.00172 0
M  V30 4676 C 461.6 -1.69938 -0.0741587 0
M  V30 4677 O 462.785 -1.94009 0.0861753 0
M  V30 4678 C 459.915 -3.42618 0.568355 0
M  V30 4679 C 458.869 -3.97407 1.58909 0
M  V30 4680 C 458.195 -5.25038 1.01187 0
M  V30 4681 C 459.495 -4.2918 2.97661 0
M  V30 4682 H 461.189 -2.29112 1.92739 0
M  V30 4683 H 458.735 -1.10101 0.928102 0
M  V30 4684 H 460.688 -4.19444 0.405555 0
M  V30 4685 H 459.412 -3.24227 -0.392961 0
M  V30 4686 H 458.071 -3.22703 1.73949 0
M  V30 4687 H 457.719 -5.02982 0.0421965 0
M  V30 4688 H 457.419 -5.62661 1.6937 0
M  V30 4689 H 458.943 -6.04507 0.860448 0
M  V30 4690 H 460.357 -4.96839 2.86049 0
M  V30 4691 H 458.754 -4.77952 3.6288 0
M  V30 4692 H 459.824 -3.3735 3.48315 0
M  V30 4693 N 461.167 -1.02423 -1.1978 0
M  V30 4694 C 462.407 -0.726635 -1.91048 0
M  V30 4695 C 462.771 0.730947 -1.77542 0
M  V30 4696 O 463.972 1.14141 -2.43362 0
M  V30 4697 C 462.243 -1.15964 -3.38064 0
M  V30 4698 S 463.802 -0.985172 -4.27598 0
M  V30 4699 H 460.62 -0.264679 -0.659899 0
M  V30 4700 H 463.222 -1.31309 -1.44838 0
M  V30 4701 H 461.926 -2.21619 -3.45417 0
M  V30 4702 H 461.457 -0.566274 -3.89303 0
M  V30 4703 H 463.472 0.106946 -4.96085 0
M  V30 4704 N 462.645 1.35699 -0.801477 0
M  V30 4705 C 463.608 2.28199 -0.213994 0
M  V30 4706 C 464.608 1.49359 0.595691 0
M  V30 4707 O 465.798 1.69186 0.414921 0
M  V30 4708 C 462.93 3.33587 0.702297 0
M  V30 4709 H 464.123 2.81666 -1.02976 0
M  V30 4710 H 461.676 1.45467 -0.571759 0
M  V30 4711 H 462.411 2.85297 1.54195 0
M  V30 4712 H 462.196 3.91906 0.123484 0
M  V30 4713 H 463.686 4.02638 1.10783 0
M  V30 4714 N 464.123 0.554532 1.47522 0
M  V30 4715 C 465.351 0.034257 2.06872 0
M  V30 4716 C 465.766 -1.25826 1.40759 0
M  V30 4717 O 465.123 -1.75425 0.503217 0
M  V30 4718 C 465.174 -0.167827 3.6111 0
M  V30 4719 O 464.895 1.07351 4.24744 0
M  V30 4720 C 466.396 -0.72569 4.3732 0
M  V30 4721 H 463.616 0.0446275 0.669514 0
M  V30 4722 H 466.16 0.767181 1.89564 0
M  V30 4723 H 464.315 -0.850872 3.7794 0
M  V30 4724 H 464.729 0.869563 5.17242 0
M  V30 4725 H 466.203 -0.816394 5.45929 0
M  V30 4726 H 466.68 -1.73635 4.0342 0
M  V30 4727 H 467.286 -0.0784292 4.25228 0
M  V30 4728 N 465.601 -1.54893 0.290851 0
M  V30 4729 C 467.017 -1.59476 -0.0628432 0
M  V30 4730 C 467.217 -1.30795 -1.5328 0
M  V30 4731 O 466.273 -1.07644 -2.28406 0
M  V30 4732 C 467.586 -2.98928 0.325962 0
M  V30 4733 C 469.134 -3.11799 0.273882 0
M  V30 4734 C 469.609 -4.53544 0.637359 0
M  V30 4735 N 471.1 -4.59433 0.589507 0
M  V30 4736 C 471.835 -5.67164 0.84335 0
M  V30 4737 N 471.331 -6.82975 1.16263 0
M  V30 4738 N 473.124 -5.56786 0.771091 0
M  V30 4739 H 465.275 -1.71798 1.24896 0
M  V30 4740 H 467.538 -0.801879 0.505663 0
M  V30 4741 H 467.244 -3.24805 1.34887 0
M  V30 4742 H 467.118 -3.75793 -0.325441 0
M  V30 4743 H 469.505 -2.85677 -0.739765 0
M  V30 4744 H 469.586 -2.37112 0.959766 0
M  V30 4745 H 469.23 -4.80394 1.64877 0
M  V30 4746 H 469.16 -5.26553 -0.0704866 0
M  V30 4747 H 471.651 -3.76245 0.353252 0
M  V30 4748 H 471.964 -7.61048 1.34257 0
M  V30 4749 H 470.309 -6.84552 1.20057 0
M  V30 4750 H 473.5 -4.65187 0.521383 0
M  V30 4751 H 473.673 -6.40664 0.972295 0
M  V30 4752 N 467.08 -0.0183926 -1.57589 0
M  V30 4753 C 468.012 0.995557 -2.06449 0
M  V30 4754 C 469.025 1.29556 -0.985849 0
M  V30 4755 O 470.214 1.2621 -1.26227 0
M  V30 4756 C 467.314 2.32572 -2.46502 0
M  V30 4757 C 466.487 2.21245 -3.77319 0
M  V30 4758 C 465.546 3.37104 -4.04039 0
M  V30 4759 O 464.572 3.14468 -4.74445 0
M  V30 4760 N 465.774 4.60553 -3.53372 0
M  V30 4761 H 468.539 0.578746 -2.94059 0
M  V30 4762 H 466.1 0.168603 -1.6102 0
M  V30 4763 H 468.092 3.08887 -2.61478 0
M  V30 4764 H 466.662 2.65931 -1.64315 0
M  V30 4765 H 465.882 1.29723 -3.72244 0
M  V30 4766 H 467.17 2.10868 -4.63047 0
M  V30 4767 H 466.568 4.81839 -2.96391 0
M  V30 4768 H 465.125 5.34072 -3.73644 0
M  V30 4769 N 468.558 1.5553 0.254621 0
M  V30 4770 C 469.468 1.92789 1.33677 0
M  V30 4771 C 470.484 0.827356 1.53071 0
M  V30 4772 O 471.66 1.12807 1.66843 0
M  V30 4773 C 468.725 2.20827 2.67275 0
M  V30 4774 C 467.786 3.4427 2.5647 0
M  V30 4775 C 467.019 3.70961 3.83697 0
M  V30 4776 O 467.242 2.99852 4.85227 0
M  V30 4777 O 466.176 4.64491 3.82794 0
M  V30 4778 H 470.002 2.84945 1.05071 0
M  V30 4779 H 467.587 1.42312 0.454723 0
M  V30 4780 H 469.469 2.40204 3.46237 0
M  V30 4781 H 468.144 1.31851 2.9563 0
M  V30 4782 H 467.051 3.30209 1.75821 0
M  V30 4783 H 468.384 4.33524 2.33062 0
M  V30 4784 N 470.036 -0.519951 1.48776 0
M  V30 4785 C 471.447 -1.10177 1.50725 0
M  V30 4786 C 471.798 -1.94153 0.282678 0
M  V30 4787 O 470.923 -2.07645 -0.609298 0
M  V30 4788 C 471.518 -2.00482 2.73116 0
M  V30 4789 C 470.077 -2.53862 2.77905 0
M  V30 4790 C 469.224 -1.31047 2.44381 0
M  V30 4791 H 472.175 -0.30473 1.55747 0
M  V30 4792 H 472.196 -2.8491 2.52203 0
M  V30 4793 H 471.708 -1.39335 3.62225 0
M  V30 4794 H 469.809 -3.18702 1.93029 0
M  V30 4795 H 469.922 -2.9231 3.79594 0
M  V30 4796 H 468.286 -1.62953 1.95751 0
M  V30 4797 H 469.069 -0.71637 3.35743 0
M  V30 4798 N 471.514 -1.37532 -0.769588 0
M  V30 4799 C 472.444 -1.36172 -1.89682 0
M  V30 4800 C 473.425 -0.23001 -1.68538 0
M  V30 4801 O 474.61 -0.43069 -1.89364 0
M  V30 4802 C 471.74 -1.1701 -3.26995 0
M  V30 4803 C 470.694 -2.27216 -3.62708 0
M  V30 4804 C 470.02 -1.93174 -4.98586 0
M  V30 4805 C 471.32 -3.6941 -3.69234 0
M  V30 4806 H 473.014 -2.30499 -1.91078 0
M  V30 4807 H 470.56 -1.10953 -0.917902 0
M  V30 4808 H 472.513 -1.14688 -4.05493 0
M  V30 4809 H 471.237 -0.191395 -3.26039 0
M  V30 4810 H 469.896 -2.28697 -2.86519 0
M  V30 4811 H 469.544 -0.938281 -4.94171 0
M  V30 4812 H 469.244 -2.66973 -5.23449 0
M  V30 4813 H 470.768 -1.92443 -5.79481 0
M  V30 4814 H 472.182 -3.70047 -4.37879 0
M  V30 4815 H 470.579 -4.4228 -4.05597 0
M  V30 4816 H 471.649 -4.0288 -2.69844 0
M  V30 4817 N 472.992 0.995999 -1.22138 0
M  V30 4818 C 473.922 2.10387 -1.01289 0
M  V30 4819 C 474.903 1.69975 0.0651454 0
M  V30 4820 O 476.088 1.9396 -0.0964628 0
M  V30 4821 C 473.218 3.42312 -0.586517 0
M  V30 4822 C 472.172 3.96558 -1.61014 0
M  V30 4823 C 471.498 5.24494 -1.0397 0
M  V30 4824 C 472.798 4.27595 -2.99933 0
M  V30 4825 H 474.492 2.28086 -1.93951 0
M  V30 4826 H 472.038 1.09607 -0.933928 0
M  V30 4827 H 473.991 4.19223 -0.427793 0
M  V30 4828 H 472.715 3.24431 0.375761 0
M  V30 4829 H 471.374 3.21776 -1.75658 0
M  V30 4830 H 471.022 5.02953 -0.0688703 0
M  V30 4831 H 470.722 5.61755 -1.72352 0
M  V30 4832 H 472.246 6.04042 -0.892494 0
M  V30 4833 H 473.66 4.95315 -2.8868 0
M  V30 4834 H 472.057 4.76021 -3.6541 0
M  V30 4835 H 473.127 3.35498 -3.50099 0
M  V30 4836 N 474.47 1.03057 1.19235 0
M  V30 4837 C 475.719 0.72326 1.88287 0
M  V30 4838 C 476.032 -0.751333 1.80594 0
M  V30 4839 O 477.238 -1.17176 2.44912 0
M  V30 4840 C 475.694 1.24338 3.3774 0
M  V30 4841 C 475.302 2.74587 3.53986 0
M  V30 4842 C 477.046 1.01213 4.12257 0
M  V30 4843 C 474.953 3.20009 4.97341 0
M  V30 4844 H 473.883 0.266848 0.705201 0
M  V30 4845 H 476.534 1.24509 1.34795 0
M  V30 4846 H 474.916 0.649457 3.90638 0
M  V30 4847 H 476.09 3.39649 3.11408 0
M  V30 4848 H 474.405 2.9601 2.9286 0
M  V30 4849 H 477.002 1.32675 5.17978 0
M  V30 4850 H 477.345 -0.051001 4.16269 0
M  V30 4851 H 477.878 1.57014 3.65501 0
M  V30 4852 H 474.617 4.25659 4.98493 0
M  V30 4853 H 474.137 2.59676 5.40674 0
M  V30 4854 H 475.816 3.13447 5.66003 0
M  V30 4855 N 475.948 -1.35272 0.808662 0
M  V30 4856 C 477.196 -1.98316 0.389233 0
M  V30 4857 C 477.517 -1.64465 -1.04767 0
M  V30 4858 O 476.787 -0.928175 -1.72516 0
M  V30 4859 H 475.367 -0.733585 0.140935 0
M  V30 4860 H 478.029 -1.6515 1.03496 0
M  V30 4861 H 477.125 -3.08123 0.496631 0
M  V30 4862 N 477.426 -0.562348 -1.47226 0
M  V30 4863 C 478.651 -0.0432632 -2.07355 0
M  V30 4864 C 479.076 1.24332 -1.41149 0
M  V30 4865 O 478.434 1.74603 -0.488226 0
M  V30 4866 C 478.482 0.130288 -3.60365 0
M  V30 4867 O 477.586 1.19166 -3.94808 0
M  V30 4868 H 476.927 -0.0536334 -0.66183 0
M  V30 4869 H 479.457 -0.779495 -1.89169 0
M  V30 4870 H 479.467 0.342881 -4.06557 0
M  V30 4871 H 478.142 -0.809389 -4.07948 0
M  V30 4872 H 476.719 0.959153 -3.60354 0
M  V30 4873 N 478.904 1.54736 -0.299062 0
M  V30 4874 C 480.132 2.04512 0.313447 0
M  V30 4875 C 480.547 1.17643 1.47667 0
M  V30 4876 O 479.904 0.20164 1.81383 0
M  V30 4877 C 479.955 3.53171 0.771542 0
M  V30 4878 O 479.676 4.36736 -0.345379 0
M  V30 4879 C 481.177 4.18936 1.4494 0
M  V30 4880 H 478.397 0.667507 0.0683784 0
M  V30 4881 H 480.941 1.99752 -0.438129 0
M  V30 4882 H 479.096 3.58298 1.47314 0
M  V30 4883 H 479.51 5.24499 0.0109219 0
M  V30 4884 H 480.984 5.24482 1.72111 0
M  V30 4885 H 481.461 3.68554 2.38883 0
M  V30 4886 H 482.067 4.17879 0.791028 0
M  V30 4887 N 480.382 0.0267497 1.57577 0
M  V30 4888 C 481.329 -0.955894 2.10075 0
M  V30 4889 C 482.299 -1.32453 1.00226 0
M  V30 4890 O 483.484 -1.41826 1.27632 0
M  V30 4891 C 480.624 -2.2338 2.6305 0
M  V30 4892 C 479.737 -1.92183 3.86898 0
M  V30 4893 C 478.872 -3.14251 4.28275 0
M  V30 4894 C 477.911 -2.78862 5.44888 0
M  V30 4895 N 477.048 -3.93548 5.81433 0
M  V30 4896 H 481.888 -0.501303 2.93753 0
M  V30 4897 H 479.425 -0.235847 1.45197 0
M  V30 4898 H 481.383 -2.98124 2.91853 0
M  V30 4899 H 480.013 -2.6646 1.82205 0
M  V30 4900 H 479.065 -1.07692 3.64838 0
M  V30 4901 H 480.377 -1.62117 4.7172 0
M  V30 4902 H 479.531 -3.97317 4.58502 0
M  V30 4903 H 478.27 -3.47476 3.42215 0
M  V30 4904 H 477.275 -1.94208 5.14357 0
M  V30 4905 H 478.5 -2.46855 6.32645 0
M  V30 4906 H 476.446 -4.2662 4.98328 0
M  V30 4907 H 476.363 -3.67098 6.6089 0
M  V30 4908 H 477.631 -4.77325 6.16264 0
M  V30 4909 N 481.861 -1.55662 -0.24637 0
M  V30 4910 C 483.086 -1.81914 -0.996093 0
M  V30 4911 C 483.511 -0.603875 -1.78143 0
M  V30 4912 O 482.869 0.447091 -1.75701 0
M  V30 4913 C 482.917 -3.05908 -1.90925 0
M  V30 4914 O 482.021 -2.82861 -3.00105 0
M  V30 4915 H 481.362 -0.600481 -0.283406 0
M  V30 4916 H 483.892 -2.02848 -0.267199 0
M  V30 4917 H 483.902 -3.35356 -2.3238 0
M  V30 4918 H 482.577 -3.93999 -1.33183 0
M  V30 4919 H 481.154 -2.64583 -2.62775 0
M  V30 4920 N 483.339 0.512053 -1.4905 0
M  V30 4921 C 484.287 1.63568 -1.65373 0
M  V30 4922 C 485.281 1.61228 -0.519806 0
M  V30 4923 O 486.487 1.65869 -0.699101 0
M  V30 4924 H 482.862 0.542019 -0.521267 0
M  V30 4925 H 484.833 1.4695 -2.59708 0
M  V30 4926 C 483.582 3.01761 -1.7273 0
M  V30 4927 H 482.905 3.04263 -2.59353 0
M  V30 4928 H 484.345 3.79948 -1.8819 0
M  V30 4929 C 482.804 3.33609 -0.46973 0
M  V30 4930 O 483.334 3.99607 0.409492 0
M  V30 4931 N 481.54 2.88651 -0.336003 0
M  V30 4932 H 481.087 2.35119 -1.05247 0
M  V30 4933 H 481.045 3.10328 0.504363 0
M  V30 4934 N 484.817 1.37938 0.762283 0
M  V30 4935 C 485.75 1.2884 1.88349 0
M  V30 4936 C 486.728 0.167084 1.61739 0
M  V30 4937 O 487.912 0.34292 1.85355 0
M  V30 4938 C 485.039 0.994257 3.23778 0
M  V30 4939 C 484.085 2.13376 3.69287 0
M  V30 4940 S 484.918 3.75439 3.81845 0
M  V30 4941 C 486.074 3.48195 5.20107 0
M  V30 4942 H 486.307 2.23736 1.95779 0
M  V30 4943 H 483.84 1.23672 0.924368 0
M  V30 4944 H 485.798 0.83138 4.01993 0
M  V30 4945 H 484.459 0.0626251 3.14038 0
M  V30 4946 H 483.652 1.88319 4.67495 0
M  V30 4947 H 483.254 2.25726 2.98201 0
M  V30 4948 H 485.546 3.0377 6.05583 0
M  V30 4949 H 486.489 4.45765 5.50181 0
M  V30 4950 H 486.897 2.82905 4.88493 0
M  V30 4951 N 486.295 -0.989507 1.22664 0
M  V30 4952 C 487.543 -1.72612 1.05117 0
M  V30 4953 C 487.864 -1.90552 -0.414131 0
M  V30 4954 O 487.134 -1.4676 -1.29762 0
M  V30 4955 H 485.714 -0.639555 0.385977 0
M  V30 4956 H 488.376 -1.19158 1.54232 0
M  V30 4957 H 487.472 -2.71926 1.53175 0
M  V30 4958 N 487.773 -1.03688 -1.18687 0
M  V30 4959 C 488.723 -0.595067 -2.20098 0
M  V30 4960 C 489.707 0.360465 -1.5681 0
M  V30 4961 O 490.899 0.180136 -1.76081 0
M  V30 4962 C 488.028 0.0444495 -3.43271 0
M  V30 4963 C 487.114 -0.934002 -4.13687 0
M  V30 4964 N 487.505 -2.09957 -4.60165 0
M  V30 4965 C 485.803 -0.759177 -4.39491 0
M  V30 4966 C 486.504 -2.71735 -5.1433 0
M  V30 4967 N 485.48 -1.99638 -5.05614 0
M  V30 4968 H 489.282 -1.48336 -2.5372 0
M  V30 4969 H 486.796 -0.904949 -1.3485 0
M  V30 4970 H 488.793 0.37864 -4.15177 0
M  V30 4971 H 487.453 0.928325 -3.11147 0
M  V30 4972 H 488.464 -2.47863 -4.54735 0
M  V30 4973 H 485.141 0.0749292 -4.17433 0
M  V30 4974 H 486.531 -3.70492 -5.60523 0
M  V30 4975 N 489.251 1.34841 -0.815825 0
M  V30 4976 C 490.662 1.80937 -0.46029 0
M  V30 4977 C 491.013 1.67685 1.01863 0
M  V30 4978 O 490.138 1.21277 1.79223 0
M  V30 4979 C 490.733 3.28509 -0.828708 0
M  V30 4980 C 489.292 3.72712 -0.525644 0
M  V30 4981 C 488.439 2.56676 -1.04941 0
M  V30 4982 H 491.39 1.22688 -1.00664 0
M  V30 4983 H 491.411 3.80279 -0.129757 0
M  V30 4984 H 490.923 3.38122 -1.90513 0
M  V30 4985 H 489.024 3.68642 0.541666 0
M  V30 4986 H 489.137 4.67119 -1.06474 0
M  V30 4987 H 487.501 2.50302 -0.471286 0
M  V30 4988 H 488.284 2.69063 -2.13214 0
M  V30 4989 N 490.729 0.570148 1.46925 0
M  V30 4990 C 491.639 -0.173061 2.33961 0
M  V30 4991 C 492.655 -0.898825 1.48987 0
M  V30 4992 O 493.831 -0.864825 1.81887 0
M  V30 4993 C 490.896 -1.18177 3.25937 0
M  V30 4994 C 489.957 -0.462041 4.26806 0
M  V30 4995 C 489.19 -1.4227 5.14388 0
M  V30 4996 O 489.413 -2.65842 5.04662 0
M  V30 4997 O 488.347 -0.940127 5.94513 0
M  V30 4998 H 492.173 0.541216 2.98839 0
M  V30 4999 H 489.758 0.330647 1.45695 0
M  V30 5000 H 491.64 -1.76372 3.82715 0
M  V30 5001 H 490.315 -1.87774 2.63671 0
M  V30 5002 H 489.222 0.161429 3.73752 0
M  V30 5003 H 490.555 0.192719 4.91823 0
M  V30 5004 N 492.207 -1.54576 0.307264 0
M  V30 5005 C 493.618 -1.8579 -0.184121 0
M  V30 5006 C 493.969 -1.22914 -1.52927 0
M  V30 5007 O 493.094 -0.529126 -2.09831 0
M  V30 5008 C 493.689 -3.37081 -0.340862 0
M  V30 5009 C 492.248 -3.68304 -0.776465 0
M  V30 5010 C 491.395 -2.77076 0.111503 0
M  V30 5011 H 494.346 -1.49656 0.528078 0
M  V30 5012 H 494.367 -3.61922 -1.17443 0
M  V30 5013 H 493.879 -3.82815 0.638309 0
M  V30 5014 H 491.98 -3.28092 -1.76596 0
M  V30 5015 H 492.093 -4.75434 -0.591512 0
M  V30 5016 H 490.457 -2.51374 -0.410256 0
M  V30 5017 H 491.24 -3.25632 1.08714 0
M  V30 5018 N 493.685 -0.035106 -1.57561 0
M  V30 5019 C 494.648 0.929819 -2.09492 0
M  V30 5020 C 495.648 1.25026 -1.01119 0
M  V30 5021 O 496.838 1.18961 -1.27255 0
M  V30 5022 C 493.97 2.24457 -2.56577 0
M  V30 5023 H 495.163 0.479935 -2.96035 0
M  V30 5024 H 492.716 0.213033 -1.54841 0
M  V30 5025 H 493.451 2.74061 -1.73382 0
M  V30 5026 H 493.236 2.02508 -3.35757 0
M  V30 5027 H 494.726 2.93607 -2.96959 0
M  V30 5028 N 495.163 1.55791 0.238111 0
M  V30 5029 C 496.388 1.8244 0.986432 0
M  V30 5030 C 496.813 0.613314 1.7782 0
M  V30 5031 O 496.171 -0.437767 1.75935 0
M  V30 5032 C 496.219 3.06917 1.893 0
M  V30 5033 O 495.323 2.84449 2.98601 0
M  V30 5034 H 494.664 0.601975 0.280218 0
M  V30 5035 H 497.194 2.02987 0.256437 0
M  V30 5036 H 497.204 3.36583 2.30598 0
M  V30 5037 H 495.879 3.947 1.31091 0
M  V30 5038 H 494.456 2.65972 2.61368 0
M  V30 5039 N 496.642 -0.504142 1.49319 0
M  V30 5040 C 497.89 -1.25598 1.58334 0
M  V30 5041 C 498.211 -1.93114 0.270538 0
M  V30 5042 O 497.481 -1.82585 -0.709891 0
M  V30 5043 H 496.061 -0.466571 0.58337 0
M  V30 5044 H 498.723 -0.584547 1.85928 0
M  V30 5045 H 497.819 -2.02159 2.37778 0
M  V30 5046 N 498.12 -1.38341 -0.754957 0
M  V30 5047 C 499.05 -1.38176 -1.88227 0
M  V30 5048 C 500.031 -0.247873 -1.68284 0
M  V30 5049 O 501.216 -0.45075 -1.88896 0
M  V30 5050 C 498.346 -1.20471 -3.25736 0
M  V30 5051 C 497.3 -2.3105 -3.60278 0
M  V30 5052 C 496.626 -1.98452 -4.96509 0
M  V30 5053 C 497.926 -3.73305 -3.65295 0
M  V30 5054 H 499.62 -2.32512 -1.88622 0
M  V30 5055 H 497.166 -1.1192 -0.906082 0
M  V30 5056 H 499.119 -1.18982 -4.04254 0
M  V30 5057 H 497.843 -0.225965 -3.25817 0
M  V30 5058 H 496.502 -2.31723 -2.84078 0
M  V30 5059 H 496.15 -0.990641 -4.93148 0
M  V30 5060 H 495.85 -2.7251 -5.20588 0
M  V30 5061 H 497.374 -1.98578 -5.77407 0
M  V30 5062 H 498.788 -3.7467 -4.3393 0
M  V30 5063 H 497.185 -4.46557 -4.00883 0
M  V30 5064 H 498.255 -4.05719 -2.65556 0
M  V30 5065 N 499.598 0.982988 -1.23187 0
M  V30 5066 C 500.561 2.05649 -1.01198 0
M  V30 5067 C 501.561 1.6078 0.0252464 0
M  V30 5068 O 502.751 1.72878 -0.214243 0
M  V30 5069 C 499.883 3.36744 -0.530656 0
M  V30 5070 H 501.076 2.2659 -1.96461 0
M  V30 5071 H 498.629 1.15602 -1.05195 0
M  V30 5072 H 499.364 3.21492 0.425873 0
M  V30 5073 H 499.149 3.7065 -1.2791 0
M  V30 5074 H 500.639 4.15705 -0.397366 0
M  V30 5075 N 501.076 1.04316 1.18135 0
M  V30 5076 C 502.039 0.640794 2.2006 0
M  V30 5077 C 503.039 -0.303124 1.57917 0
M  V30 5078 O 504.229 -0.0881855 1.73977 0
M  V30 5079 C 501.361 -0.060148 3.40847 0
M  V30 5080 H 502.554 1.54281 2.57172 0
M  V30 5081 H 500.107 0.836004 1.32063 0
M  V30 5082 H 500.842 -0.975845 3.0927 0
M  V30 5083 H 500.627 0.618319 3.87194 0
M  V30 5084 H 502.117 -0.328082 4.16309 0
M  V30 5085 N 502.554 -1.34406 0.822964 0
M  V30 5086 C 503.484 -2.32052 0.259608 0
M  V30 5087 C 504.465 -1.58243 -0.623961 0
M  V30 5088 O 505.65 -1.86224 -0.55083 0
M  V30 5089 C 502.78 -3.42434 -0.579314 0
M  V30 5090 C 501.734 -4.27499 0.20712 0
M  V30 5091 C 501.06 -5.29349 -0.754547 0
M  V30 5092 C 502.36 -5.02758 1.41533 0
M  V30 5093 H 504.054 -2.79418 1.07545 0
M  V30 5094 H 501.6 -1.34338 0.518593 0
M  V30 5095 H 503.553 -4.0976 -0.983612 0
M  V30 5096 H 502.277 -2.93717 -1.4282 0
M  V30 5097 H 500.936 -3.61776 0.592787 0
M  V30 5098 H 500.584 -4.76895 -1.59939 0
M  V30 5099 H 500.284 -5.8714 -0.232561 0
M  V30 5100 H 501.808 -5.99544 -1.1567 0
M  V30 5101 H 503.222 -5.62938 1.08504 0
M  V30 5102 H 501.619 -5.70123 1.87296 0
M  V30 5103 H 502.689 -4.32451 2.1935 0
M  V30 5104 N 504.032 -0.577932 -1.46621 0
M  V30 5105 C 504.995 0.147805 -2.28723 0
M  V30 5106 C 505.995 0.823325 -1.38123 0
M  V30 5107 O 507.185 0.676011 -1.60548 0
M  V30 5108 C 504.317 1.21853 -3.18378 0
M  V30 5109 H 505.51 -0.573654 -2.94362 0
M  V30 5110 H 503.063 -0.335703 -1.52652 0
M  V30 5111 H 503.798 1.97173 -2.57475 0
M  V30 5112 H 503.583 0.738714 -3.85078 0
M  V30 5113 H 505.073 1.72768 -3.80186 0
M  V30 5114 N 505.51 1.54411 -0.315457 0
M  V30 5115 C 506.457 2.24048 0.554166 0
M  V30 5116 C 507.427 1.2283 1.11812 0
M  V30 5117 O 508.612 1.51491 1.15997 0
M  V30 5118 C 505.752 2.99574 1.71316 0
M  V30 5119 C 504.865 4.15594 1.17922 0
M  V30 5120 C 504 4.78669 2.30324 0
M  V30 5121 C 503.039 5.86807 1.74137 0
M  V30 5122 N 502.176 6.43777 2.8017 0
M  V30 5123 H 507.016 2.97964 -0.0462602 0
M  V30 5124 H 504.553 1.47059 -0.0346009 0
M  V30 5125 H 506.511 3.41604 2.39505 0
M  V30 5126 H 505.141 2.28008 2.285 0
M  V30 5127 H 504.193 3.78404 0.389136 0
M  V30 5128 H 505.505 4.93459 0.728012 0
M  V30 5129 H 504.659 5.23626 3.06433 0
M  V30 5130 H 503.398 4.00168 2.78778 0
M  V30 5131 H 502.403 5.41261 0.965236 0
M  V30 5132 H 503.628 6.67201 1.2657 0
M  V30 5133 H 501.574 5.68153 3.2793 0
M  V30 5134 H 501.491 7.17031 2.39588 0
M  V30 5135 H 502.759 6.9339 3.56132 0
M  V30 5136 N 506.988 0.0434614 1.5754 0
M  V30 5137 C 508.234 -0.632971 1.92669 0
M  V30 5138 C 508.567 -1.70947 0.921446 0
M  V30 5139 O 507.842 -1.94426 -0.0537202 0
M  V30 5140 C 508.125 -1.23619 3.38216 0
M  V30 5141 C 507.978 -0.168274 4.49485 0
M  V30 5142 C 509.297 -2.15008 3.84005 0
M  V30 5143 H 506.416 -0.228629 0.700641 0
M  V30 5144 H 509.058 0.103651 1.89717 0
M  V30 5145 H 507.208 -1.864 3.40863 0
M  V30 5146 H 508.88 0.463196 4.58969 0
M  V30 5147 H 507.123 0.504581 4.30855 0
M  V30 5148 H 507.794 -0.630218 5.48391 0
M  V30 5149 H 510.27 -1.62198 3.83185 0
M  V30 5150 H 509.146 -2.54161 4.86511 0
M  V30 5151 H 509.407 -3.04707 3.20322 0
M  V30 5152 N 508.466 -1.55915 -0.229846 0
M  V30 5153 C 509.396 -1.94754 -1.28815 0
M  V30 5154 C 510.377 -0.814657 -1.49323 0
M  V30 5155 O 511.562 -1.07631 -1.61645 0
M  V30 5156 C 508.692 -2.25705 -2.63959 0
M  V30 5157 C 507.646 -3.41406 -2.5812 0
M  V30 5158 C 506.972 -3.57941 -3.97218 0
M  V30 5159 C 508.272 -4.76616 -2.13623 0
M  V30 5160 H 509.966 -2.83404 -0.965547 0
M  V30 5161 H 507.512 -1.36353 -0.463028 0
M  V30 5162 H 509.465 -2.51467 -3.38146 0
M  V30 5163 H 508.189 -1.339 -2.9789 0
M  V30 5164 H 506.848 -3.1568 -1.86391 0
M  V30 5165 H 506.496 -2.63526 -4.28443 0
M  V30 5166 H 506.196 -4.35757 -3.94195 0
M  V30 5167 H 507.72 -3.86042 -4.73079 0
M  V30 5168 H 509.134 -5.01637 -2.77549 0
M  V30 5169 H 507.531 -5.57655 -2.21677 0
M  V30 5170 H 508.601 -4.7253 -1.08829 0
M  V30 5171 N 509.944 0.496216 -1.49584 0
M  V30 5172 C 510.874 1.60576 -1.69521 0
M  V30 5173 C 511.855 1.61169 -0.543933 0
M  V30 5174 O 513.04 1.77834 -0.78031 0
M  V30 5175 C 510.17 2.99038 -1.76616 0
M  V30 5176 C 509.124 3.13312 -2.91581 0
M  V30 5177 C 508.45 4.53172 -2.83794 0
M  V30 5178 C 509.75 2.92886 -4.32452 0
M  V30 5179 H 511.444 1.44146 -2.62416 0
M  V30 5180 H 508.99 0.692024 -1.26282 0
M  V30 5181 H 510.943 3.76564 -1.8915 0
M  V30 5182 H 509.667 3.16568 -0.80324 0
M  V30 5183 H 508.326 2.38213 -2.78658 0
M  V30 5184 H 507.974 4.67585 -1.854 0
M  V30 5185 H 507.674 4.63662 -3.60958 0
M  V30 5186 H 509.198 5.32752 -2.98342 0
M  V30 5187 H 510.612 3.60178 -4.46032 0
M  V30 5188 H 509.009 3.14844 -5.10875 0
M  V30 5189 H 510.079 1.88966 -4.46565 0
M  V30 5190 N 511.423 1.38739 0.74761 0
M  V30 5191 C 512.648 1.38702 1.54197 0
M  V30 5192 C 513.073 -0.019664 1.8809 0
M  V30 5193 O 512.431 -1.00333 1.51006 0
M  V30 5194 C 512.479 2.25492 2.814 0
M  V30 5195 O 511.583 1.67613 3.76802 0
M  V30 5196 H 510.924 0.472863 0.466151 0
M  V30 5197 H 513.454 1.82577 0.923413 0
M  V30 5198 H 513.464 2.39561 3.30264 0
M  V30 5199 H 512.139 3.27727 2.56062 0
M  V30 5200 H 510.716 1.62718 3.35526 0
M  V30 5201 N 512.901 -0.976442 1.23707 0
M  V30 5202 C 513.831 -2.08749 1.04624 0
M  V30 5203 C 514.812 -1.70057 -0.0380956 0
M  V30 5204 O 515.997 -1.93782 0.127308 0
M  V30 5205 C 513.127 -3.41335 0.640902 0
M  V30 5206 C 512.081 -3.93947 1.67302 0
M  V30 5207 C 511.407 -5.22774 1.12301 0
M  V30 5208 C 512.707 -4.22769 3.06697 0
M  V30 5209 H 514.401 -2.24972 1.97555 0
M  V30 5210 H 511.947 -1.08108 0.951247 0
M  V30 5211 H 513.9 -4.18489 0.494434 0
M  V30 5212 H 512.624 -3.24988 -0.324099 0
M  V30 5213 H 511.283 -3.18941 1.80755 0
M  V30 5214 H 510.931 -5.0278 0.148877 0
M  V30 5215 H 510.631 -5.58942 1.81267 0
M  V30 5216 H 512.155 -6.02546 0.988479 0
M  V30 5217 H 513.569 -4.90659 2.96524 0
M  V30 5218 H 511.966 -4.70147 3.72937 0
M  V30 5219 H 513.036 -3.29885 3.55392 0
M  V30 5220 N 514.379 -1.04941 -1.1758 0
M  V30 5221 C 515.289 -0.658826 -2.25159 0
M  V30 5222 C 516.305 0.318941 -1.71052 0
M  V30 5223 O 517.481 0.171669 -2.00667 0
M  V30 5224 C 514.546 -0.0369522 -3.4668 0
M  V30 5225 C 513.607 -1.06484 -4.15884 0
M  V30 5226 C 512.84 -0.472551 -5.31604 0
M  V30 5227 O 513.063 0.718736 -5.65854 0
M  V30 5228 O 511.997 -1.20557 -5.89703 0
M  V30 5229 H 515.823 -1.55533 -2.60851 0
M  V30 5230 H 513.408 -0.820819 -1.24832 0
M  V30 5231 H 515.29 0.308784 -4.20267 0
M  V30 5232 H 513.965 0.833238 -3.12792 0
M  V30 5233 H 512.872 -1.46253 -3.44327 0
M  V30 5234 H 514.205 -1.9061 -4.53794 0
M  V30 5235 N 515.857 1.33968 -0.830081 0
M  V30 5236 C 516.807 2.26845 -0.229242 0
M  V30 5237 C 517.791 1.48862 0.610659 0
M  V30 5238 O 518.983 1.70808 0.464067 0
M  V30 5239 C 516.112 3.3798 0.602057 0
M  V30 5240 C 515.198 4.23369 -0.248866 0
M  V30 5241 N 515.589 4.88182 -1.32334 0
M  V30 5242 C 513.887 4.45987 -0.0344077 0
M  V30 5243 C 514.588 5.51671 -1.84482 0
M  V30 5244 N 513.564 5.31348 -1.14762 0
M  V30 5245 H 517.366 2.74464 -1.05104 0
M  V30 5246 H 514.88 1.4777 -0.673623 0
M  V30 5247 H 516.877 4.03494 1.04873 0
M  V30 5248 H 515.537 2.9191 1.42193 0
M  V30 5249 H 516.548 4.88988 -1.70619 0
M  V30 5250 H 513.225 4.10658 0.752727 0
M  V30 5251 H 514.615 6.13308 -2.74413 0
M  V30 5252 N 517.335 0.585699 1.46312 0
M  V30 5253 C 518.583 0.072278 2.01971 0
M  V30 5254 C 518.904 -1.29345 1.45928 0
M  V30 5255 O 518.174 -1.84973 0.645109 0
M  V30 5256 H 516.754 0.023729 0.746623 0
M  V30 5257 H 519.416 0.762155 1.7938 0
M  V30 5258 H 518.512 0.00552767 3.121 0
M  V30 5259 N 518.813 -1.54241 0.323641 0
M  V30 5260 C 519.743 -2.27289 -0.534993 0
M  V30 5261 C 520.724 -1.28087 -1.11927 0
M  V30 5262 O 521.909 -1.56899 -1.14439 0
M  V30 5263 C 519.039 -3.03075 -1.69596 0
M  V30 5264 C 517.993 -4.09614 -1.24098 0
M  V30 5265 C 517.319 -4.73242 -2.4889 0
M  V30 5266 C 518.619 -5.21087 -0.355789 0
M  V30 5267 H 520.313 -2.99308 0.0743257 0
M  V30 5268 H 517.859 -1.43952 0.0371874 0
M  V30 5269 H 519.812 -3.52907 -2.30293 0
M  V30 5270 H 518.536 -2.28673 -2.33187 0
M  V30 5271 H 517.195 -3.60666 -0.656945 0
M  V30 5272 H 516.843 -3.95455 -3.10845 0
M  V30 5273 H 516.543 -5.45209 -2.19138 0
M  V30 5274 H 518.067 -5.25848 -3.10348 0
M  V30 5275 H 519.481 -5.66675 -0.869042 0
M  V30 5276 H 517.878 -5.9991 -0.151045 0
M  V30 5277 H 518.948 -4.81005 0.613339 0
M  V30 5278 N 520.291 -0.0518155 -1.57515 0
M  V30 5279 C 521.537 0.616839 -1.93821 0
M  V30 5280 C 521.892 1.68413 -0.930307 0
M  V30 5281 O 521.185 1.91534 0.0504231 0
M  V30 5282 C 521.379 1.25607 -3.34601 0
M  V30 5283 C 521.208 0.252222 -4.48992 0
M  V30 5284 C 519.978 -0.156031 -5.05059 0
M  V30 5285 C 522.176 -0.502613 -5.11838 0
M  V30 5286 N 520.158 -1.15267 -6.02981 0
M  V30 5287 C 521.529 -1.35232 -6.05072 0
M  V30 5288 C 523.584 -0.560855 -4.94731 0
M  V30 5289 C 522.287 -2.25505 -6.83037 0
M  V30 5290 C 524.313 -1.45102 -5.73323 0
M  V30 5291 C 523.675 -2.28845 -6.6619 0
M  V30 5292 H 519.774 0.197344 -0.75669 0
M  V30 5293 H 522.358 -0.124297 -1.94303 0
M  V30 5294 H 520.529 1.96723 -3.34895 0
M  V30 5295 H 522.261 1.88358 -3.58195 0
M  V30 5296 H 519.016 0.22306 -4.73074 0
M  V30 5297 H 519.44 -1.64791 -6.56638 0
M  V30 5298 H 524.082 0.0723639 -4.22738 0
M  V30 5299 H 521.8 -2.89872 -7.54321 0
M  V30 5300 H 525.386 -1.50066 -5.62113 0
M  V30 5301 H 524.266 -2.96608 -7.25943 0
M  V30 5302 N 521.769 1.56035 0.221574 0
M  V30 5303 C 522.732 1.91584 1.2581 0
M  V30 5304 C 523.732 0.794425 1.39805 0
M  V30 5305 O 524.922 1.06217 1.38071 0
M  V30 5306 C 522.054 2.16663 2.63192 0
M  V30 5307 H 523.247 2.8429 0.954935 0
M  V30 5308 H 520.8 1.49316 0.461988 0
M  V30 5309 H 521.535 1.26508 2.98607 0
M  V30 5310 H 521.32 2.98358 2.5441 0
M  V30 5311 H 522.81 2.45262 3.37988 0
M  V30 5312 N 523.247 -0.488276 1.49845 0
M  V30 5313 C 524.658 -1.06955 1.53028 0
M  V30 5314 C 525.009 -1.9351 0.323797 0
M  V30 5315 O 524.134 -2.08891 -0.565116 0
M  V30 5316 C 524.729 -1.94643 2.77307 0
M  V30 5317 C 523.288 -2.4791 2.83227 0
M  V30 5318 C 522.435 -1.25833 2.47106 0
M  V30 5319 H 525.386 -0.271626 1.56358 0
M  V30 5320 H 525.407 -2.79496 2.5819 0
M  V30 5321 H 524.919 -1.31621 3.65099 0
M  V30 5322 H 523.02 -3.14535 1.99745 0
M  V30 5323 H 523.133 -2.84193 3.85709 0
M  V30 5324 H 521.497 -1.58764 1.99163 0
M  V30 5325 H 522.28 -0.644993 3.37186 0
M  V30 5326 N 524.725 -1.39134 -0.740242 0
M  V30 5327 C 525.673 -1.3757 -1.87556 0
M  V30 5328 C 526.667 -0.259593 -1.67399 0
M  V30 5329 O 527.873 -0.429349 -1.74804 0
M  V30 5330 H 524.248 -0.42947 -0.6173 0
M  V30 5331 H 526.219 -2.33345 -1.85991 0
M  V30 5332 C 524.968 -1.23087 -3.25184 0
M  V30 5333 H 524.291 -2.08237 -3.41288 0
M  V30 5334 H 525.731 -1.26049 -4.0483 0
M  V30 5335 C 524.19 0.0611471 -3.36845 0
M  V30 5336 O 524.72 1.03328 -3.88183 0
M  V30 5337 N 522.926 0.122454 -2.90342 0
M  V30 5338 H 522.473 -0.669329 -2.48752 0
M  V30 5339 H 522.431 0.986463 -2.98523 0
M  V30 5340 N 526.204 0.969867 -1.24223 0
M  V30 5341 C 527.134 2.08191 -1.05729 0
M  V30 5342 C 528.115 1.70075 0.0290765 0
M  V30 5343 O 529.3 1.93712 -0.137583 0
M  V30 5344 C 526.43 3.40991 -0.658995 0
M  V30 5345 C 525.384 3.93054 -1.69389 0
M  V30 5346 C 524.71 5.22171 -1.15072 0
M  V30 5347 C 526.01 4.21137 -3.08935 0
M  V30 5348 H 527.704 2.23921 -1.98746 0
M  V30 5349 H 525.25 1.07602 -0.956967 0
M  V30 5350 H 527.203 4.18221 -0.51662 0
M  V30 5351 H 525.927 3.25155 0.30686 0
M  V30 5352 H 524.586 3.17977 -1.82444 0
M  V30 5353 H 524.234 5.02694 -0.175539 0
M  V30 5354 H 523.934 5.57973 -1.84229 0
M  V30 5355 H 525.458 6.02013 -1.02042 0
M  V30 5356 H 526.872 4.8908 -2.99121 0
M  V30 5357 H 525.269 4.68163 -3.75425 0
M  V30 5358 H 526.339 3.27996 -3.57137 0
M  V30 5359 N 527.682 1.05563 1.17022 0
M  V30 5360 C 528.632 0.630007 2.19123 0
M  V30 5361 C 529.616 -0.335472 1.57364 0
M  V30 5362 O 530.808 -0.1521 1.76345 0
M  V30 5363 C 527.937 0.0101676 3.43298 0
M  V30 5364 C 527.023 0.999698 4.12149 0
M  V30 5365 N 527.414 2.17251 4.56766 0
M  V30 5366 C 525.712 0.829 4.38228 0
M  V30 5367 C 526.413 2.79883 5.09942 0
M  V30 5368 N 525.389 2.07656 5.02374 0
M  V30 5369 H 529.191 1.52353 2.51328 0
M  V30 5370 H 526.705 0.926288 1.33393 0
M  V30 5371 H 528.702 -0.312541 4.15727 0
M  V30 5372 H 527.362 -0.878707 3.12584 0
M  V30 5373 H 528.373 2.55067 4.50734 0
M  V30 5374 H 525.05 -0.00850974 4.17499 0
M  V30 5375 H 526.44 3.79362 5.54558 0
M  V30 5376 N 529.16 -1.33526 0.837174 0
M  V30 5377 C 530.407 -1.97837 0.432064 0
M  V30 5378 C 530.735 -1.66324 -1.00829 0
M  V30 5379 O 529.99 -0.93448 -1.71948 0
M  V30 5380 C 530.289 -3.52367 0.597675 0
M  V30 5381 C 529.955 -4.03826 2.00587 0
M  V30 5382 C 528.617 -4.1759 2.39106 0
M  V30 5383 C 530.969 -4.31333 2.92576 0
M  V30 5384 C 528.297 -4.56195 3.68921 0
M  V30 5385 C 530.649 -4.7139 4.2187 0
M  V30 5386 C 529.313 -4.8336 4.60347 0
M  V30 5387 H 528.583 -0.723937 0.158104 0
M  V30 5388 H 531.23 -1.5923 1.06387 0
M  V30 5389 H 529.535 -3.91624 -0.117452 0
M  V30 5390 H 531.232 -4.00126 0.26454 0
M  V30 5391 H 527.822 -3.93586 1.69671 0
M  V30 5392 H 532.006 -4.20224 2.64056 0
M  V30 5393 H 527.262 -4.63655 3.9854 0
M  V30 5394 H 531.436 -4.91631 4.93226 0
M  V30 5395 H 529.063 -5.1303 5.60985 0
M  V30 5396 N 530.638 -0.59345 -1.46 0
M  V30 5397 C 531.588 0.154751 -2.27474 0
M  V30 5398 C 532.572 0.851849 -1.365 0
M  V30 5399 O 533.764 0.744171 -1.60596 0
M  V30 5400 C 530.893 1.16079 -3.2308 0
M  V30 5401 C 529.979 0.465256 -4.2154 0
M  V30 5402 N 530.37 -0.485197 -5.03467 0
M  V30 5403 C 528.668 0.714634 -4.40237 0
M  V30 5404 C 529.369 -0.892709 -5.74809 0
M  V30 5405 N 528.345 -0.239511 -5.43072 0
M  V30 5406 H 532.147 -0.57546 -2.88211 0
M  V30 5407 H 529.661 -0.416046 -1.5698 0
M  V30 5408 H 531.658 1.71108 -3.80168 0
M  V30 5409 H 530.318 1.89171 -2.63903 0
M  V30 5410 H 531.329 -0.861258 -5.10689 0
M  V30 5411 H 528.006 1.43131 -3.92199 0
M  V30 5412 H 529.396 -1.67581 -6.50666 0
M  V30 5413 N 532.116 1.54067 -0.331816 0
M  V30 5414 C 533.341 2.05599 0.272705 0
M  V30 5415 C 533.766 1.2059 1.44359 0
M  V30 5416 O 533.124 0.216907 1.79998 0
M  V30 5417 C 533.172 3.54188 0.677021 0
M  V30 5418 O 532.276 3.72082 1.77844 0
M  V30 5419 H 531.617 0.662286 0.0476801 0
M  V30 5420 H 534.147 1.98826 -0.482624 0
M  V30 5421 H 534.157 3.96608 0.957415 0
M  V30 5422 H 532.832 4.15513 -0.179325 0
M  V30 5423 H 531.409 3.41566 1.49622 0
M  V30 5424 N 533.594 0.0601682 1.57485 0
M  V30 5425 C 535.005 -0.474217 1.80577 0
M  V30 5426 C 535.356 -1.70365 0.973147 0
M  V30 5427 O 534.481 -2.15544 0.192306 0
M  V30 5428 C 535.076 -0.867102 3.27516 0
M  V30 5429 C 533.635 -1.34642 3.51495 0
M  V30 5430 C 532.782 -0.32594 2.75378 0
M  V30 5431 H 535.733 0.285973 1.56102 0
M  V30 5432 H 535.754 -1.72938 3.38929 0
M  V30 5433 H 535.266 0.0278927 3.8809 0
M  V30 5434 H 533.367 -2.2603 2.96212 0
M  V30 5435 H 533.48 -1.33237 4.60201 0
M  V30 5436 H 531.844 -0.800749 2.41785 0
M  V30 5437 H 532.627 0.561125 3.38683 0
M  V30 5438 N 535.072 -1.5615 -0.213296 0
M  V30 5439 C 536.02 -1.93953 -1.28394 0
M  V30 5440 C 537.014 -0.822592 -1.48087 0
M  V30 5441 O 538.22 -1.00748 -1.49164 0
M  V30 5442 H 534.595 -0.61648 -0.430646 0
M  V30 5443 H 536.566 -2.83275 -0.937977 0
M  V30 5444 C 535.315 -2.27969 -2.62537 0
M  V30 5445 H 534.638 -3.13432 -2.48194 0
M  V30 5446 H 536.078 -2.58297 -3.36242 0
M  V30 5447 C 534.537 -1.10775 -3.18167 0
M  V30 5448 O 535.067 -0.373201 -3.99963 0
M  V30 5449 N 533.273 -0.889377 -2.76656 0
M  V30 5450 H 532.82 -1.48843 -2.10246 0
M  V30 5451 H 532.778 -0.107 -3.14218 0
M  V30 5452 N 536.55 0.480323 -1.50102 0
M  V30 5453 C 537.961 1.06142 -1.53593 0
M  V30 5454 C 538.312 1.93335 -0.334055 0
M  V30 5455 O 537.437 2.09188 0.55403 0
M  V30 5456 C 538.032 1.9317 -2.78336 0
M  V30 5457 C 536.591 2.46405 -2.84538 0
M  V30 5458 C 535.738 1.24521 -2.4777 0
M  V30 5459 H 538.689 0.26333 -1.565 0
M  V30 5460 H 538.71 2.78123 -2.59669 0
M  V30 5461 H 538.222 1.29683 -3.65792 0
M  V30 5462 H 536.323 3.13472 -2.01411 0
M  V30 5463 H 536.436 2.82143 -3.87211 0
M  V30 5464 H 534.8 1.57706 -2.00003 0
M  V30 5465 H 535.583 0.627102 -3.37524 0
M  V30 5466 N 538.028 1.39524 0.732853 0
M  V30 5467 C 538.938 1.40695 1.87729 0
M  V30 5468 C 539.954 0.301496 1.71368 0
M  V30 5469 O 541.13 0.543313 1.93933 0
M  V30 5470 C 538.195 1.25098 3.23344 0
M  V30 5471 C 537.256 2.45634 3.52083 0
M  V30 5472 C 536.489 2.30772 4.81228 0
M  V30 5473 O 536.712 1.31233 5.55098 0
M  V30 5474 O 535.646 3.19799 5.09914 0
M  V30 5475 H 539.472 2.37168 1.89697 0
M  V30 5476 H 537.057 1.20663 0.880959 0
M  V30 5477 H 538.939 1.18541 4.04383 0
M  V30 5478 H 537.614 0.317209 3.22142 0
M  V30 5479 H 536.521 2.57767 2.71122 0
M  V30 5480 H 537.854 3.37712 3.58066 0
M  V30 5481 N 539.506 -0.963266 1.24736 0
M  V30 5482 C 540.755 -1.70115 1.08369 0
M  V30 5483 C 541.068 -1.91939 -0.376688 0
M  V30 5484 O 542.274 -2.6334 -0.660624 0
M  V30 5485 C 540.73 -3.06218 1.89099 0
M  V30 5486 C 540.338 -2.92221 3.39574 0
M  V30 5487 C 542.082 -3.83848 1.81275 0
M  V30 5488 C 539.989 -4.23662 4.12631 0
M  V30 5489 H 538.919 -0.637944 0.401924 0
M  V30 5490 H 541.57 -1.07304 1.48856 0
M  V30 5491 H 539.952 -3.69884 1.41429 0
M  V30 5492 H 541.126 -2.37541 3.94856 0
M  V30 5493 H 539.441 -2.28054 3.48397 0
M  V30 5494 H 542.038 -4.81188 2.33158 0
M  V30 5495 H 542.381 -4.08949 0.778895 0
M  V30 5496 H 542.914 -3.26918 2.26649 0
M  V30 5497 H 539.653 -4.03753 5.16395 0
M  V30 5498 H 539.173 -4.78141 3.62135 0
M  V30 5499 H 540.852 -4.92256 4.19873 0
M  V30 5500 N 540.985 -1.06182 -1.16461 0
M  V30 5501 C 542.396 -0.802426 -1.68576 0
M  V30 5502 C 542.747 0.67412 -1.84255 0
M  V30 5503 O 541.872 1.52303 -1.5373 0
M  V30 5504 C 542.467 -1.45002 -3.06202 0
M  V30 5505 C 541.026 -1.23843 -3.55443 0
M  V30 5506 C 540.173 -1.52724 -2.31454 0
M  V30 5507 H 543.124 -1.22545 -1.00839 0
M  V30 5508 H 543.145 -0.864731 -3.70544 0
M  V30 5509 H 542.657 -2.52466 -2.94759 0
M  V30 5510 H 540.758 -0.183487 -3.72148 0
M  V30 5511 H 540.871 -1.95036 -4.37604 0
M  V30 5512 H 539.235 -0.947726 -2.36411 0
M  V30 5513 H 540.018 -2.61343 -2.22609 0
M  V30 5514 N 542.463 1.3308 -0.844243 0
M  V30 5515 C 543.426 2.27403 -0.286485 0
M  V30 5516 C 544.426 1.51179 0.547872 0
M  V30 5517 O 545.616 1.70421 0.360886 0
M  V30 5518 C 542.748 3.35653 0.595813 0
M  V30 5519 H 543.941 2.78248 -1.11885 0
M  V30 5520 H 541.494 1.43574 -0.617749 0
M  V30 5521 H 542.229 2.90058 1.4504 0
M  V30 5522 H 542.014 3.921 -0.00125994 0
M  V30 5523 H 543.504 4.05958 0.979168 0
M  V30 5524 N 543.941 0.601185 1.45683 0
M  V30 5525 C 544.871 -0.108824 2.33246 0
M  V30 5526 C 545.852 -0.865223 1.46451 0
M  V30 5527 O 547.037 -0.83704 1.75235 0
M  V30 5528 C 544.167 -1.11101 3.2905 0
M  V30 5529 C 543.121 -0.468244 4.25431 0
M  V30 5530 C 542.447 -1.57822 5.10878 0
M  V30 5531 C 543.747 0.606469 5.18767 0
M  V30 5532 H 545.441 0.622306 2.92861 0
M  V30 5533 H 542.987 0.300714 1.40825 0
M  V30 5534 H 544.94 -1.61622 3.89174 0
M  V30 5535 H 543.664 -1.87265 2.67581 0
M  V30 5536 H 542.323 0.0160484 3.66596 0
M  V30 5537 H 541.971 -2.32998 4.45781 0
M  V30 5538 H 541.671 -1.15369 5.76163 0
M  V30 5539 H 543.195 -2.08583 5.73869 0
M  V30 5540 H 544.609 0.185589 5.73 0
M  V30 5541 H 543.006 0.952381 5.92494 0
M  V30 5542 H 544.076 1.48559 4.61582 0
M  V30 5543 N 545.419 -1.53889 0.339982 0
M  V30 5544 C 546.349 -2.27843 -0.510856 0
M  V30 5545 C 547.33 -1.29267 -1.10563 0
M  V30 5546 O 548.515 -1.58104 -1.12768 0
M  V30 5547 C 545.645 -3.04857 -1.66372 0
M  V30 5548 C 544.599 -4.10907 -1.19746 0
M  V30 5549 C 543.925 -4.75855 -2.43857 0
M  V30 5550 C 545.225 -5.21435 -0.300501 0
M  V30 5551 H 546.919 -2.99212 0.106067 0
M  V30 5552 H 544.465 -1.43904 0.0524533 0
M  V30 5553 H 546.418 -3.5533 -2.26537 0
M  V30 5554 H 545.142 -2.31133 -2.30749 0
M  V30 5555 H 543.801 -3.61342 -0.618654 0
M  V30 5556 H 543.449 -3.9873 -3.06633 0
M  V30 5557 H 543.149 -5.47502 -2.13343 0
M  V30 5558 H 544.673 -5.2911 -3.04754 0
M  V30 5559 H 546.087 -5.67565 -0.80889 0
M  V30 5560 H 544.484 -6.00036 -0.0874076 0
M  V30 5561 H 545.554 -4.80328 0.664321 0
M  V30 5562 N 546.897 -0.0685191 -1.57451 0
M  V30 5563 C 548.174 0.642167 -1.84758 0
M  V30 5564 C 548.554 1.87991 -0.960344 0
M  V30 5565 O 547.902 2.28485 -0.0257894 0
M  V30 5566 C 548.112 0.982946 -3.34872 0
M  V30 5567 C 549.46 1.35784 -4.02303 0
M  V30 5568 O 550.484 1.07477 -3.39598 0
M  V30 5569 O 549.343 1.88681 -5.12895 0
M  V30 5570 H 546.437 0.318625 -0.763156 0
M  V30 5571 H 548.983 -0.0992015 -1.6941 0
M  V30 5572 H 547.755 0.10372 -3.91163 0
M  V30 5573 H 547.378 1.78119 -3.55471 0
M  V30 5574 N 548.375 1.56261 0.205012 0
M  V30 5575 C 549.623 1.79684 0.925096 0
M  V30 5576 C 549.944 0.63989 1.84202 0
M  V30 5577 O 549.214 -0.342345 1.92885 0
M  V30 5578 H 547.794 0.662774 0.344587 0
M  V30 5579 H 550.456 1.93734 0.212899 0
M  V30 5580 H 549.552 2.72467 1.52211 0
M  V30 5581 N 549.853 -0.472356 1.50355 0
M  V30 5582 C 551.269 -0.806001 1.37753 0
M  V30 5583 C 551.469 -1.968 0.432649 0
M  V30 5584 O 550.525 -2.52189 -0.12519 0
M  V30 5585 C 551.838 -1.11926 2.79093 0
M  V30 5586 C 553.386 -1.22579 2.87999 0
M  V30 5587 C 553.861 -1.57218 4.3017 0
M  V30 5588 N 555.352 -1.64212 4.33115 0
M  V30 5589 C 556.087 -1.92517 5.40116 0
M  V30 5590 N 555.583 -2.1885 6.57325 0
M  V30 5591 N 557.376 -1.94008 5.27558 0
M  V30 5592 H 549.527 0.293451 2.10363 0
M  V30 5593 H 551.79 0.0687672 0.945503 0
M  V30 5594 H 551.496 -0.338504 3.50067 0
M  V30 5595 H 551.37 -2.05577 3.16256 0
M  V30 5596 H 553.757 -1.99722 2.17245 0
M  V30 5597 H 553.838 -0.269107 2.54381 0
M  V30 5598 H 553.482 -0.806154 5.01461 0
M  V30 5599 H 553.412 -2.54034 4.61275 0
M  V30 5600 H 555.903 -1.45906 3.48597 0
M  V30 5601 H 556.216 -2.39718 7.3468 0
M  V30 5602 H 554.561 -2.16245 6.60502 0
M  V30 5603 H 557.752 -1.72931 4.34986 0
M  V30 5604 H 557.925 -2.15731 6.11035 0
M  V30 5605 N 551.331 -1.39911 -0.725443 0
M  V30 5606 C 552.261 -1.42138 -1.85254 0
M  V30 5607 C 553.242 -0.283513 -1.67721 0
M  V30 5608 O 554.427 -0.490717 -1.87898 0
M  V30 5609 C 551.557 -1.27354 -3.23107 0
M  V30 5610 C 550.511 -2.3864 -3.55296 0
M  V30 5611 C 549.837 -2.08939 -4.92188 0
M  V30 5612 C 551.137 -3.8097 -3.57295 0
M  V30 5613 H 552.831 -2.36461 -1.83648 0
M  V30 5614 H 550.377 -1.13817 -0.882138 0
M  V30 5615 H 552.33 -1.2753 -4.01639 0
M  V30 5616 H 551.054 -0.295025 -3.25265 0
M  V30 5617 H 549.713 -2.37696 -2.79099 0
M  V30 5618 H 549.361 -1.09502 -4.90936 0
M  V30 5619 H 549.061 -2.83491 -5.14691 0
M  V30 5620 H 550.585 -2.10781 -5.73065 0
M  V30 5621 H 551.999 -3.8379 -4.25885 0
M  V30 5622 H 550.396 -4.5496 -3.9132 0
M  V30 5623 H 551.466 -4.11261 -2.5689 0
M  V30 5624 N 552.809 0.956637 -1.25245 0
M  V30 5625 C 553.741 2.05628 -1.01242 0
M  V30 5626 C 554.754 1.62785 0.0219579 0
M  V30 5627 O 555.943 1.77184 -0.216365 0
M  V30 5628 C 553.043 3.35069 -0.508161 0
M  V30 5629 C 552.216 4.06761 -1.60823 0
M  V30 5630 C 551.275 5.14473 -1.1047 0
M  V30 5631 O 550.301 5.40033 -1.79868 0
M  V30 5632 N 551.503 5.80474 0.0550773 0
M  V30 5633 H 554.268 2.2679 -1.95925 0
M  V30 5634 H 551.829 1.12505 -1.16423 0
M  V30 5635 H 553.821 4.044 -0.155819 0
M  V30 5636 H 552.391 3.10694 0.344683 0
M  V30 5637 H 551.611 3.31555 -2.13224 0
M  V30 5638 H 552.899 4.51418 -2.34733 0
M  V30 5639 H 552.297 5.62125 0.635004 0
M  V30 5640 H 550.854 6.50868 0.348469 0
M  V30 5641 N 554.287 1.06798 1.15896 0
M  V30 5642 C 555.533 0.788934 1.86825 0
M  V30 5643 C 555.866 -0.683084 1.8179 0
M  V30 5644 O 555.141 -1.50086 1.23711 0
M  V30 5645 C 555.424 1.29065 3.36176 0
M  V30 5646 C 555.277 2.8268 3.49874 0
M  V30 5647 C 556.596 0.902655 4.30744 0
M  V30 5648 H 553.715 0.288066 0.678371 0
M  V30 5649 H 556.357 1.32479 1.36195 0
M  V30 5650 H 554.507 0.834806 3.79425 0
M  V30 5651 H 556.179 3.36511 3.15528 0
M  V30 5652 H 554.422 3.21157 2.91617 0
M  V30 5653 H 555.093 3.12852 4.54783 0
M  V30 5654 H 557.569 1.29535 3.95424 0
M  V30 5655 H 556.445 1.28111 5.3374 0
M  V30 5656 H 556.706 -0.191951 4.41683 0
M  V30 5657 N 555.766 -1.3263 0.851289 0
M  V30 5658 C 557.012 -1.9766 0.453694 0
M  V30 5659 C 557.345 -1.67225 -0.987396 0
M  V30 5660 O 556.62 -0.958693 -1.69232 0
M  V30 5661 C 556.903 -3.5344 0.68936 0
M  V30 5662 C 556.756 -3.93517 2.17862 0
M  V30 5663 C 558.075 -4.39866 0.143555 0
M  V30 5664 H 555.194 -0.717989 0.166314 0
M  V30 5665 H 557.836 -1.57068 1.06909 0
M  V30 5666 H 555.986 -3.88147 0.165546 0
M  V30 5667 H 557.658 -3.69006 2.76826 0
M  V30 5668 H 555.901 -3.42798 2.65841 0
M  V30 5669 H 556.572 -5.02065 2.29422 0
M  V30 5670 H 559.048 -4.11875 0.591451 0
M  V30 5671 H 557.924 -5.47858 0.338043 0
M  V30 5672 H 558.185 -4.31696 -0.953466 0
M  V30 5673 N 557.244 -0.608902 -1.45362 0
M  V30 5674 C 558.521 -0.0365378 -1.95566 0
M  V30 5675 C 558.901 1.43169 -1.55131 0
M  V30 5676 O 558.249 2.1349 -0.814513 0
M  V30 5677 C 558.459 -0.236026 -3.48201 0
M  V30 5678 C 559.807 -0.117518 -4.24437 0
M  V30 5679 O 560.831 -0.166217 -3.55812 0
M  V30 5680 O 559.69 -0.00372127 -5.465 0
M  V30 5681 H 556.784 0.0349874 -0.82626 0
M  V30 5682 H 559.33 -0.679055 -1.55521 0
M  V30 5683 H 558.102 -1.25569 -3.70605 0
M  V30 5684 H 557.725 0.441691 -3.95139 0
M  V30 5685 N 558.722 1.53707 -0.348139 0
M  V30 5686 C 559.654 2.22725 0.540946 0
M  V30 5687 C 560.667 1.2354 1.06027 0
M  V30 5688 O 561.856 1.49867 0.96964 0
M  V30 5689 C 558.956 2.89756 1.75768 0
M  V30 5690 C 558.129 4.15297 1.37285 0
M  V30 5691 C 557.188 4.65697 2.44976 0
M  V30 5692 O 556.214 5.29798 2.08092 0
M  V30 5693 N 557.416 4.42017 3.763 0
M  V30 5694 H 560.181 2.99658 -0.0501592 0
M  V30 5695 H 557.742 1.60979 -0.17248 0
M  V30 5696 H 559.734 3.20388 2.47252 0
M  V30 5697 H 558.304 2.16382 2.25605 0
M  V30 5698 H 557.524 3.9116 0.488584 0
M  V30 5699 H 558.812 4.96948 1.09179 0
M  V30 5700 H 558.21 3.9076 4.09051 0
M  V30 5701 H 556.767 4.77242 4.4394 0
M  V30 5702 N 560.2 0.0768682 1.57412 0
M  V30 5703 C 561.611 -0.455037 1.8107 0
M  V30 5704 C 561.962 -1.69323 0.991162 0
M  V30 5705 O 561.087 -2.15328 0.215156 0
M  V30 5706 C 561.682 -0.832316 3.28417 0
M  V30 5707 C 560.241 -1.30906 3.52903 0
M  V30 5708 C 559.388 -0.296714 2.75708 0
M  V30 5709 H 562.339 0.302514 1.5579 0
M  V30 5710 H 562.36 -1.69333 3.40744 0
M  V30 5711 H 561.872 0.0690532 3.88039 0
M  V30 5712 H 559.973 -2.22875 2.98592 0
M  V30 5713 H 560.086 -1.28348 4.61588 0
M  V30 5714 H 558.45 -0.775059 2.42621 0
M  V30 5715 H 559.233 0.597015 3.38069 0
M  V30 5716 N 561.678 -1.56367 -0.196722 0
M  V30 5717 C 562.608 -1.97442 -1.24655 0
M  V30 5718 C 563.589 -0.846147 -1.47561 0
M  V30 5719 O 564.774 -1.11035 -1.59326 0
M  V30 5720 C 561.904 -2.31253 -2.59112 0
M  V30 5721 C 560.858 -3.46804 -2.50821 0
M  V30 5722 C 560.184 -3.66286 -3.89536 0
M  V30 5723 C 561.484 -4.8104 -2.03465 0
M  V30 5724 H 563.178 -2.85388 -0.905216 0
M  V30 5725 H 560.724 -1.37304 -0.434002 0
M  V30 5726 H 562.677 -2.58583 -3.32736 0
M  V30 5727 H 561.401 -1.40188 -2.94983 0
M  V30 5728 H 560.06 -3.19563 -1.79653 0
M  V30 5729 H 559.708 -2.72555 -4.22756 0
M  V30 5730 H 559.408 -4.4402 -3.84864 0
M  V30 5731 H 560.932 -3.9599 -4.64784 0
M  V30 5732 H 562.346 -5.07411 -2.66846 0
M  V30 5733 H 560.743 -5.62232 -2.09798 0
M  V30 5734 H 561.813 -4.74732 -0.98781 0
M  V30 5735 N 563.156 0.464375 -1.50603 0
M  V30 5736 C 564.567 1.04507 -1.5471 0
M  V30 5737 C 564.918 1.9297 -0.354542 0
M  V30 5738 O 564.043 2.09763 0.531812 0
M  V30 5739 C 564.638 1.90207 -2.80369 0
M  V30 5740 C 563.197 2.43373 -2.87135 0
M  V30 5741 C 562.344 1.21886 -2.49076 0
M  V30 5742 H 565.295 0.246716 -1.56771 0
M  V30 5743 H 565.316 2.75353 -2.62604 0
M  V30 5744 H 564.828 1.25796 -3.67147 0
M  V30 5745 H 562.929 3.11318 -2.04724 0
M  V30 5746 H 563.042 2.7802 -3.90181 0
M  V30 5747 H 561.406 1.55575 -2.01664 0
M  V30 5748 H 562.189 0.591268 -3.3817 0
M  V30 5749 N 564.634 1.40294 0.718013 0
M  V30 5750 C 565.88 1.38645 1.48005 0
M  V30 5751 C 566.213 -0.0121202 1.94196 0
M  V30 5752 O 565.488 -0.980309 1.67989 0
M  V30 5753 C 565.771 2.37379 2.70782 0
M  V30 5754 C 565.624 3.8625 2.30501 0
M  V30 5755 C 566.943 2.33685 3.72933 0
M  V30 5756 H 564.062 0.504928 0.536858 0
M  V30 5757 H 566.704 1.71411 0.819649 0
M  V30 5758 H 564.854 2.09568 3.27129 0
M  V30 5759 H 566.526 4.24879 1.79655 0
M  V30 5760 H 564.769 4.02202 1.6253 0
M  V30 5761 H 565.44 4.50847 3.18498 0
M  V30 5762 H 567.916 2.58314 3.2621 0
M  V30 5763 H 566.792 3.0482 4.56482 0
M  V30 5764 H 567.053 1.34765 4.21059 0
M  V30 5765 N 566.112 -0.949982 1.2575 0
M  V30 5766 C 567.528 -1.22191 1.02672 0
M  V30 5767 C 567.728 -1.99898 -0.253588 0
M  V30 5768 O 566.784 -2.33329 -0.965076 0
M  V30 5769 C 568.097 -1.99175 2.25277 0
M  V30 5770 C 569.645 -2.12201 2.30087 0
M  V30 5771 C 570.12 -2.92586 3.5236 0
M  V30 5772 N 571.611 -3.00163 3.52784 0
M  V30 5773 C 572.346 -3.62766 4.44059 0
M  V30 5774 N 571.842 -4.26943 5.45611 0
M  V30 5775 N 573.635 -3.59953 4.3173 0
M  V30 5776 H 565.786 -0.430258 2.07996 0
M  V30 5777 H 568.049 -0.252844 0.91366 0
M  V30 5778 H 567.755 -1.49479 3.18354 0
M  V30 5779 H 567.629 -2.99868 2.28821 0
M  V30 5780 H 570.016 -2.61093 1.3753 0
M  V30 5781 H 570.097 -1.10799 2.30559 0
M  V30 5782 H 569.741 -2.44383 4.45241 0
M  V30 5783 H 569.671 -3.94224 3.49134 0
M  V30 5784 H 572.162 -2.54529 2.79327 0
M  V30 5785 H 572.475 -4.72583 6.11461 0
M  V30 5786 H 570.82 -4.25557 5.49478 0
M  V30 5787 H 574.011 -3.09003 3.51617 0
M  V30 5788 H 574.184 -4.08455 5.03059 0
M  V30 5789 N 567.59 -1.07411 -1.15328 0
M  V30 5790 C 568.838 -0.796073 -1.85761 0
M  V30 5791 C 569.159 0.679864 -1.82764 0
M  V30 5792 O 568.429 1.49242 -1.269 0
M  V30 5793 H 567.009 -0.291495 -0.687779 0
M  V30 5794 H 569.671 -1.35799 -1.39802 0
M  V30 5795 H 568.767 -1.13114 -2.90881 0
M  V30 5796 N 569.068 1.32177 -0.85831 0
M  V30 5797 C 570.316 1.96735 -0.462568 0
M  V30 5798 C 570.637 1.6824 0.985911 0
M  V30 5799 O 569.907 0.991564 1.68952 0
M  V30 5800 H 568.487 0.727849 -0.168064 0
M  V30 5801 H 571.149 1.61195 -1.09554 0
M  V30 5802 H 570.245 3.06068 -0.610647 0
M  V30 5803 N 570.547 0.616602 1.45037 0
M  V30 5804 C 571.495 -0.109318 2.32343 0
M  V30 5805 C 572.489 -0.850543 1.465 0
M  V30 5806 O 573.695 -0.765088 1.62931 0
M  V30 5807 H 570.07 -0.0541091 0.750051 0
M  V30 5808 H 572.041 0.645326 2.91338 0
M  V30 5809 C 570.79 -1.0872 3.30266 0
M  V30 5810 H 570.113 -0.526267 3.96321 0
M  V30 5811 H 571.553 -1.56489 3.94065 0
M  V30 5812 C 570.012 -2.16525 2.58105 0
M  V30 5813 O 570.542 -3.244 2.36913 0
M  V30 5814 N 568.748 -1.92057 2.18088 0
M  V30 5815 H 568.295 -1.04337 2.35524 0
M  V30 5816 H 568.253 -2.64391 1.70131 0
M  V30 5817 N 572.025 -1.5352 0.356285 0
M  V30 5818 C 573.271 -2.01414 -0.236653 0
M  V30 5819 C 573.604 -1.24339 -1.49176 0
M  V30 5820 O 572.879 -0.334496 -1.91602 0
M  V30 5821 C 573.162 -3.56059 -0.537982 0
M  V30 5822 C 573.015 -4.43835 0.730112 0
M  V30 5823 C 574.334 -4.19127 -1.34239 0
M  V30 5824 H 571.453 -0.732135 -0.0845386 0
M  V30 5825 H 574.095 -1.83854 0.479341 0
M  V30 5826 H 572.245 -3.71153 -1.14795 0
M  V30 5827 H 573.917 -4.40555 1.36782 0
M  V30 5828 H 572.16 -4.1218 1.3524 0
M  V30 5829 H 572.831 -5.49958 0.474358 0
M  V30 5830 H 575.307 -4.07809 -0.826498 0
M  V30 5831 H 574.183 -5.27378 -1.52198 0
M  V30 5832 H 574.444 -3.74581 -2.34822 0
M  V30 5833 N 573.503 -0.0852151 -1.57369 0
M  V30 5834 C 574.751 0.579658 -1.93609 0
M  V30 5835 C 575.072 1.69332 -0.967043 0
M  V30 5836 O 574.342 1.95892 -0.0174215 0
M  V30 5837 H 572.922 0.217113 -0.714752 0
M  V30 5838 H 575.584 -0.146226 -1.94351 0
M  V30 5839 H 574.68 0.996276 -2.95771 0
M  V30 5840 N 574.981 1.5647 0.188427 0
M  V30 5841 C 576.23 1.80207 0.905995 0
M  V30 5842 C 576.543 0.659579 1.84144 0
M  V30 5843 O 577.749 0.781431 2.60011 0
M  V30 5844 C 576.205 3.19255 1.66145 0
M  V30 5845 C 575.813 4.41324 0.770504 0
M  V30 5846 C 577.557 3.52298 2.36826 0
M  V30 5847 C 575.464 5.71394 1.52521 0
M  V30 5848 H 574.394 0.671953 0.342045 0
M  V30 5849 H 577.045 1.82808 0.159164 0
M  V30 5850 H 575.427 3.10922 2.45242 0
M  V30 5851 H 576.601 4.60797 0.0177261 0
M  V30 5852 H 574.916 4.16035 0.174199 0
M  V30 5853 H 577.513 4.46715 2.93854 0
M  V30 5854 H 577.856 2.76359 3.11338 0
M  V30 5855 H 578.389 3.62108 1.6469 0
M  V30 5856 H 575.128 6.50316 0.82275 0
M  V30 5857 H 574.648 5.55928 2.25175 0
M  V30 5858 H 576.327 6.12747 2.07725 0
M  V30 5859 N 576.459 -0.456382 1.50847 0
M  V30 5860 C 577.407 -1.57318 1.71329 0
M  V30 5861 C 578.401 -1.59187 0.579287 0
M  V30 5862 O 579.607 -1.6316 0.76018 0
M  V30 5863 H 575.982 -0.5223 0.541024 0
M  V30 5864 H 577.953 -1.3721 2.64983 0
M  V30 5865 C 576.702 -2.95142 1.83811 0
M  V30 5866 H 576.025 -2.94428 2.70467 0
M  V30 5867 H 577.465 -3.72702 2.02161 0
M  V30 5868 C 575.924 -3.31636 0.593224 0
M  V30 5869 O 576.454 -4.00852 -0.260898 0
M  V30 5870 N 574.66 -2.87205 0.442902 0
M  V30 5871 H 574.207 -2.31051 1.13901 0
M  V30 5872 H 574.165 -3.11986 -0.38884 0
M  V30 5873 N 577.937 -1.40673 -0.710563 0
M  V30 5874 C 579.162 -1.42741 -1.50465 0
M  V30 5875 C 579.587 -0.0302116 -1.88076 0
M  V30 5876 O 578.945 0.962945 -1.53613 0
M  V30 5877 C 578.993 -2.32873 -2.75322 0
M  V30 5878 O 578.097 -1.77544 -3.72226 0
M  V30 5879 H 577.438 -0.485056 -0.45345 0
M  V30 5880 H 579.968 -1.84961 -0.874681 0
M  V30 5881 H 579.978 -2.48233 -3.23797 0
M  V30 5882 H 578.653 -3.34401 -2.47283 0
M  V30 5883 H 577.23 -1.71556 -3.31093 0
M  V30 5884 N 579.415 0.9433 -1.26252 0
M  V30 5885 C 580.662 1.68925 -1.11672 0
M  V30 5886 C 580.99 1.91499 0.340329 0
M  V30 5887 O 580.245 1.49189 1.26653 0
M  V30 5888 C 580.544 3.07073 -1.82868 0
M  V30 5889 C 580.21 3.04262 -3.32769 0
M  V30 5890 C 578.872 3.03203 -3.7366 0
M  V30 5891 C 581.224 2.96729 -4.28487 0
M  V30 5892 C 578.552 2.92373 -5.0866 0
M  V30 5893 C 580.904 2.87442 -5.63525 0
M  V30 5894 C 579.568 2.84724 -6.03729 0
M  V30 5895 H 578.838 0.618141 -0.408635 0
M  V30 5896 H 581.485 1.10124 -1.56668 0
M  V30 5897 H 579.79 3.69486 -1.30335 0
M  V30 5898 H 581.487 3.63635 -1.69029 0
M  V30 5899 H 578.077 3.05865 -3.00241 0
M  V30 5900 H 582.261 2.96658 -3.97879 0
M  V30 5901 H 577.517 2.88645 -5.38975 0
M  V30 5902 H 581.691 2.80576 -6.37377 0
M  V30 5903 H 579.318 2.76089 -7.08293 0
M  V30 5904 N 580.893 1.08022 1.14757 0
M  V30 5905 C 582.141 0.805913 1.85336 0
M  V30 5906 C 582.462 -0.670162 1.83122 0
M  V30 5907 O 581.732 -1.48567 1.2769 0
M  V30 5908 H 580.312 0.295138 0.686223 0
M  V30 5909 H 582.974 1.36538 1.3908 0
M  V30 5910 H 582.07 1.14655 2.90277 0
M  V30 5911 N 582.371 -1.3172 0.865308 0
M  V30 5912 C 583.618 -1.96876 0.473931 0
M  V30 5913 C 583.946 -1.68425 -0.972786 0
M  V30 5914 O 583.201 -0.970742 -1.69927 0
M  V30 5915 C 583.5 -3.5102 0.672283 0
M  V30 5916 C 583.166 -3.9948 2.09108 0
M  V30 5917 C 581.828 -4.12425 2.4791 0
M  V30 5918 C 584.18 -4.2503 3.0166 0
M  V30 5919 C 581.508 -4.48267 3.78515 0
M  V30 5920 C 583.86 -4.62335 4.31774 0
M  V30 5921 C 582.524 -4.73486 4.70497 0
M  V30 5922 H 581.794 -0.72042 0.173424 0
M  V30 5923 H 584.441 -1.56937 1.0974 0
M  V30 5924 H 582.746 -3.91785 -0.034356 0
M  V30 5925 H 584.443 -3.99475 0.349353 0
M  V30 5926 H 581.033 -3.89898 1.77981 0
M  V30 5927 H 585.217 -4.14529 2.7291 0
M  V30 5928 H 580.473 -4.55097 4.08285 0
M  V30 5929 H 584.647 -4.81058 5.03543 0
M  V30 5930 H 582.274 -5.01016 5.71741 0
M  V30 5931 N 583.85 -0.624285 -1.44708 0
M  V30 5932 C 585.098 -0.125802 -2.01708 0
M  V30 5933 C 585.418 1.2543 -1.49306 0
M  V30 5934 O 584.689 1.83198 -0.693924 0
M  V30 5935 H 583.269 -0.0435161 -0.745731 0
M  V30 5936 H 585.931 -0.809446 -1.77296 0
M  V30 5937 H 585.027 -0.0882734 -3.11975 0
M  V30 5938 N 585.328 1.53329 -0.364422 0
M  V30 5939 C 586.576 2.00842 0.225189 0
M  V30 5940 C 586.897 1.25345 1.49378 0
M  V30 5941 O 586.167 0.366396 1.92443 0
M  V30 5942 H 584.747 0.742009 0.0862027 0
M  V30 5943 H 587.409 1.8863 -0.490389 0
M  V30 5944 H 586.505 3.08795 0.452987 0
M  V30 5945 N 586.806 0.0935595 1.57322 0
M  V30 5946 C 588.031 -0.582324 1.99057 0
M  V30 5947 C 588.456 -1.61025 0.972242 0
M  V30 5948 O 587.814 -1.81202 -0.0594622 0
M  V30 5949 C 587.862 -1.20799 3.39765 0
M  V30 5950 O 586.966 -2.32382 3.40694 0
M  V30 5951 H 586.307 -0.147884 0.647323 0
M  V30 5952 H 588.837 0.174516 2.03854 0
M  V30 5953 H 588.847 -1.54966 3.77425 0
M  V30 5954 H 587.522 -0.454914 4.13405 0
M  V30 5955 H 586.099 -1.99845 3.14827 0
M  V30 5956 N 588.284 -1.56567 -0.180126 0
M  V30 5957 C 589.232 -1.96632 -1.24251 0
M  V30 5958 C 590.226 -0.853818 -1.46309 0
M  V30 5959 O 591.432 -1.0389 -1.46993 0
M  V30 5960 H 587.807 -0.625476 -0.417473 0
M  V30 5961 H 589.778 -2.85201 -0.877679 0
M  V30 5962 C 588.527 -2.33486 -2.57642 0
M  V30 5963 H 587.85 -3.18626 -2.4149 0
M  V30 5964 H 589.29 -2.65371 -3.30688 0
M  V30 5965 C 587.749 -1.17499 -3.15746 0
M  V30 5966 O 588.279 -0.457956 -3.99081 0
M  V30 5967 N 586.485 -0.94786 -2.74707 0
M  V30 5968 H 586.032 -1.53269 -2.07042 0
M  V30 5969 H 585.99 -0.173626 -3.1392 0
M  V30 5970 N 589.762 0.448376 -1.51087 0
M  V30 5971 C 591.008 1.20049 -1.6345 0
M  V30 5972 C 591.341 1.91121 -0.344444 0
M  V30 5973 O 590.616 1.83125 0.655396 0
M  V30 5974 C 590.899 2.22624 -2.83038 0
M  V30 5975 C 590.752 1.55708 -4.21989 0
M  V30 5976 C 592.071 3.23718 -2.98152 0
M  V30 5977 H 589.19 0.435085 -0.59487 0
M  V30 5978 H 591.832 0.491183 -1.83541 0
M  V30 5979 H 589.982 2.83117 -2.66039 0
M  V30 5980 H 591.654 0.986367 -4.50631 0
M  V30 5981 H 589.897 0.859647 -4.25197 0
M  V30 5982 H 590.568 2.30357 -5.01637 0
M  V30 5983 H 593.044 2.73269 -3.13788 0
M  V30 5984 H 591.92 3.92795 -3.83411 0
M  V30 5985 H 592.181 3.89179 -2.09743 0
M  V30 5986 N 591.24 1.41047 0.703093 0
M  V30 5987 C 592.19 1.38774 1.80903 0
M  V30 5988 C 593.174 0.263275 1.58731 0
M  V30 5989 O 594.366 0.503362 1.69692 0
M  V30 5990 C 591.495 1.26497 3.19145 0
M  V30 5991 C 590.581 2.43775 3.47037 0
M  V30 5992 N 590.972 3.69249 3.45672 0
M  V30 5993 C 589.27 2.37425 3.77552 0
M  V30 5994 C 589.971 4.46989 3.72258 0
M  V30 5995 N 588.947 3.76998 3.91629 0
M  V30 5996 H 592.749 2.33714 1.78199 0
M  V30 5997 H 590.263 1.34996 0.902762 0
M  V30 5998 H 592.26 1.2295 3.98358 0
M  V30 5999 H 590.92 0.32534 3.23066 0
M  V30 6000 H 591.931 4.02239 3.26228 0
M  V30 6001 H 588.608 1.51895 3.88888 0
M  V30 6002 H 589.998 5.55894 3.77402 0
M  V30 6003 N 592.718 -0.936591 1.26751 0
M  V30 6004 C 593.967 -1.67778 1.11953 0
M  V30 6005 C 594.28 -1.92694 -0.33589 0
M  V30 6006 O 595.486 -2.64682 -0.604618 0
M  V30 6007 C 593.942 -3.02138 1.95551 0
M  V30 6008 C 593.55 -2.84953 3.45696 0
M  V30 6009 C 595.294 -3.79917 1.89377 0
M  V30 6010 C 593.201 -4.14814 4.21525 0
M  V30 6011 H 592.131 -0.629275 0.415366 0
M  V30 6012 H 594.782 -1.04122 1.51099 0
M  V30 6013 H 593.164 -3.668 1.49243 0
M  V30 6014 H 594.338 -2.29112 3.99805 0
M  V30 6015 H 592.653 -2.20612 3.53156 0
M  V30 6016 H 595.25 -4.76134 2.43312 0
M  V30 6017 H 595.593 -4.07204 0.865464 0
M  V30 6018 H 596.126 -3.22037 2.33532 0
M  V30 6019 H 592.865 -3.92709 5.24843 0
M  V30 6020 H 592.385 -4.70352 3.72195 0
M  V30 6021 H 594.064 -4.83239 4.3022 0
M  V30 6022 N 594.196 -1.08629 -1.14182 0
M  V30 6023 C 595.445 -0.812271 -1.84621 0
M  V30 6024 C 595.758 0.664313 -1.83973 0
M  V30 6025 O 596.964 1.05357 -2.50224 0
M  V30 6026 C 595.42 -1.4031 -3.31423 0
M  V30 6027 C 595.028 -2.91164 -3.40481 0
M  V30 6028 C 596.772 -1.20767 -4.06959 0
M  V30 6029 C 594.679 -3.43373 -4.81507 0
M  V30 6030 H 593.609 -0.30019 -0.691666 0
M  V30 6031 H 596.26 -1.30798 -1.28701 0
M  V30 6032 H 594.642 -0.835096 -3.87094 0
M  V30 6033 H 595.816 -3.5412 -2.94848 0
M  V30 6034 H 594.131 -3.09646 -2.78403 0
M  V30 6035 H 596.728 -1.57237 -5.11058 0
M  V30 6036 H 597.071 -0.147664 -4.16038 0
M  V30 6037 H 597.604 -1.74274 -3.57594 0
M  V30 6038 H 594.343 -4.48958 -4.77616 0
M  V30 6039 H 593.863 -2.85176 -5.27669 0
M  V30 6040 H 595.542 -3.40095 -5.50404 0
M  V30 6041 N 595.674 1.31259 -0.872281 0
M  V30 6042 C 596.604 2.30929 -0.345554 0
M  V30 6043 C 597.585 1.60449 0.5648 0
M  V30 6044 O 598.77 1.8814 0.481335 0
M  V30 6045 C 595.9 3.44348 0.451823 0
M  V30 6046 C 594.854 4.26435 -0.365641 0
M  V30 6047 C 594.18 5.31785 0.557562 0
M  V30 6048 C 595.48 4.97159 -1.60095 0
M  V30 6049 H 597.174 2.75234 -1.17841 0
M  V30 6050 H 594.72 1.3232 -0.568094 0
M  V30 6051 H 596.673 4.13128 0.830854 0
M  V30 6052 H 595.397 2.98816 1.31821 0
M  V30 6053 H 594.056 3.59326 -0.726649 0
M  V30 6054 H 593.704 4.82502 1.4213 0
M  V30 6055 H 593.404 5.87598 0.0144878 0
M  V30 6056 H 594.928 6.03424 0.933387 0
M  V30 6057 H 596.342 5.58523 -1.29323 0
M  V30 6058 H 594.739 5.62779 -2.08327 0
M  V30 6059 H 595.809 4.24012 -2.35249 0
M  V30 6060 N 597.152 0.631951 1.44375 0
M  V30 6061 C 598.568 0.297642 1.568 0
M  V30 6062 C 598.768 -1.19916 1.61934 0
M  V30 6063 O 597.824 -1.98324 1.56281 0
M  V30 6064 C 599.137 0.990286 2.83926 0
M  V30 6065 C 600.685 0.968507 2.97639 0
M  V30 6066 C 601.16 1.64163 4.27568 0
M  V30 6067 N 602.651 1.60826 4.34384 0
M  V30 6068 C 603.386 2.09802 5.33639 0
M  V30 6069 N 602.882 2.66973 6.39294 0
M  V30 6070 N 604.675 2.00426 5.25153 0
M  V30 6071 H 596.826 1.60353 1.39286 0
M  V30 6072 H 599.089 0.673142 0.667521 0
M  V30 6073 H 598.795 2.04519 2.8612 0
M  V30 6074 H 598.669 0.528563 3.73478 0
M  V30 6075 H 601.056 -0.0779247 2.94997 0
M  V30 6076 H 601.137 1.46873 2.09433 0
M  V30 6077 H 600.781 2.68752 4.3097 0
M  V30 6078 H 600.711 1.11624 5.14634 0
M  V30 6079 H 603.202 1.19087 3.58646 0
M  V30 6080 H 603.515 3.02074 7.11316 0
M  V30 6081 H 601.86 2.71024 6.39977 0
M  V30 6082 H 605.051 1.55483 4.41523 0
M  V30 6083 H 605.224 2.38906 6.02352 0
M  V30 6084 N 598.631 -1.53133 0.372548 0
M  V30 6085 C 600.042 -1.86404 -0.105155 0
M  V30 6086 C 600.393 -1.29289 -1.47576 0
M  V30 6087 O 599.518 -0.617646 -2.07398 0
M  V30 6088 C 600.113 -3.38223 -0.197588 0
M  V30 6089 C 598.672 -3.71266 -0.619556 0
M  V30 6090 C 597.819 -2.76353 0.228919 0
M  V30 6091 H 600.77 -1.47282 0.591077 0
M  V30 6092 H 600.791 -3.66577 -1.01987 0
M  V30 6093 H 600.303 -3.79763 0.800099 0
M  V30 6094 H 598.404 -3.35287 -1.62522 0
M  V30 6095 H 598.517 -4.77515 -0.389332 0
M  V30 6096 H 596.881 -2.52888 -0.303271 0
M  V30 6097 H 597.664 -3.20728 1.22428 0
M  V30 6098 N 600.109 -0.101901 -1.5727 0
M  V30 6099 C 601.057 0.872034 -2.15635 0
M  V30 6100 C 602.051 1.28742 -1.10099 0
M  V30 6101 O 603.257 1.26116 -1.28432 0
M  V30 6102 H 599.632 0.299269 -0.689886 0
M  V30 6103 H 601.603 0.355137 -2.96279 0
M  V30 6104 C 600.352 2.11886 -2.7568 0
M  V30 6105 H 599.675 1.80813 -3.56576 0
M  V30 6106 H 601.115 2.78077 -3.20077 0
M  V30 6107 C 599.574 2.89739 -1.7191 0
M  V30 6108 O 600.104 3.84522 -1.16213 0
M  V30 6109 N 598.31 2.53407 -1.42245 0
M  V30 6110 H 597.857 1.76398 -1.87727 0
M  V30 6111 H 597.815 3.05795 -0.730529 0
M  V30 6112 N 601.587 1.56661 0.17182 0
M  V30 6113 C 602.815 1.861 0.904115 0
M  V30 6114 C 603.23 0.687227 1.75848 0
M  V30 6115 O 602.587 -0.343671 1.79235 0
M  V30 6116 C 602.638 3.14568 1.78127 0
M  V30 6117 O 602.359 4.27422 0.961366 0
M  V30 6118 C 603.86 3.5735 2.62327 0
M  V30 6119 H 601.08 0.617445 0.262684 0
M  V30 6120 H 603.624 2.03775 0.172068 0
M  V30 6121 H 601.779 2.98721 2.46666 0
M  V30 6122 H 602.193 5.00725 1.56123 0
M  V30 6123 H 603.667 4.50144 3.1949 0
M  V30 6124 H 604.144 2.81445 3.37173 0
M  V30 6125 H 604.75 3.75807 1.99121 0
M  V30 6126 N 603.065 -0.440357 1.51323 0
M  V30 6127 C 603.997 -1.55254 1.68609 0
M  V30 6128 C 605.01 -1.52614 0.566812 0
M  V30 6129 O 606.199 -1.57445 0.841032 0
M  V30 6130 C 603.299 -2.94169 1.68279 0
M  V30 6131 C 602.472 -3.21346 2.96742 0
M  V30 6132 C 601.531 -4.3997 2.8864 0
M  V30 6133 O 600.557 -4.38771 3.62586 0
M  V30 6134 N 601.759 -5.43367 2.04285 0
M  V30 6135 H 604.524 -1.40831 2.6455 0
M  V30 6136 H 602.085 -0.629251 1.49171 0
M  V30 6137 H 604.077 -3.71543 1.60431 0
M  V30 6138 H 602.647 -3.02205 0.799441 0
M  V30 6139 H 601.867 -2.32299 3.18482 0
M  V30 6140 H 603.155 -3.3633 3.81785 0
M  V30 6141 H 602.553 -5.47176 1.43578 0
M  V30 6142 H 601.11 -6.19605 2.02318 0
M  V30 6143 N 604.543 -1.41418 -0.695603 0
M  V30 6144 C 605.954 -1.36335 -1.27552 0
M  V30 6145 C 606.305 -0.0464336 -1.96145 0
M  V30 6146 O 605.43 0.855304 -1.9878 0
M  V30 6147 C 606.025 -2.46941 -2.3196 0
M  V30 6148 C 604.584 -2.45256 -2.85529 0
M  V30 6149 C 603.731 -2.2679 -1.59566 0
M  V30 6150 H 606.682 -1.50934 -0.490362 0
M  V30 6151 H 606.703 -2.15997 -3.1325 0
M  V30 6152 H 606.215 -3.42775 -1.82008 0
M  V30 6153 H 604.316 -1.53179 -3.39657 0
M  V30 6154 H 604.429 -3.41565 -3.35961 0
M  V30 6155 H 602.793 -1.74667 -1.85374 0
M  V30 6156 H 603.576 -3.24651 -1.1161 0
M  V30 6157 N 606.021 0.929856 -1.27246 0
M  V30 6158 C 607.432 1.49223 -1.12203 0
M  V30 6159 C 607.783 1.93989 0.293731 0
M  V30 6160 O 606.908 1.80978 1.18642 0
M  V30 6161 C 607.503 2.71198 -2.0307 0
M  V30 6162 C 606.062 3.23666 -1.92139 0
M  V30 6163 C 605.209 1.96409 -1.95752 0
M  V30 6164 H 608.16 0.744181 -1.4017 0
M  V30 6165 H 608.181 3.45905 -1.58524 0
M  V30 6166 H 607.693 2.38585 -3.06102 0
M  V30 6167 H 605.794 3.61042 -0.920834 0
M  V30 6168 H 605.907 3.90006 -2.78267 0
M  V30 6169 H 604.271 2.12806 -1.39949 0
M  V30 6170 H 605.054 1.66113 -3.00436 0
M  V30 6171 N 607.499 1.09233 1.13605 0
M  V30 6172 C 608.91 0.846839 1.6639 0
M  V30 6173 C 609.261 -0.625031 1.85978 0
M  V30 6174 O 608.386 -1.48173 1.57714 0
M  V30 6175 C 608.981 1.5307 3.0225 0
M  V30 6176 C 607.54 1.33223 3.52035 0
M  V30 6177 C 606.687 1.58806 2.27323 0
M  V30 6178 H 609.638 1.25175 0.975541 0
M  V30 6179 H 609.659 0.96267 3.68121 0
M  V30 6180 H 609.171 2.60192 2.87961 0
M  V30 6181 H 607.272 0.282091 3.71531 0
M  V30 6182 H 607.385 2.0657 4.32279 0
M  V30 6183 H 605.749 1.01007 2.33815 0
M  V30 6184 H 606.532 2.67153 2.15602 0
M  V30 6185 N 608.977 -1.30795 0.87923 0
M  V30 6186 C 609.94 -2.26563 0.346676 0
M  V30 6187 C 610.94 -1.52578 -0.507597 0
M  V30 6188 O 612.13 -1.71318 -0.315575 0
M  V30 6189 C 609.262 -3.37115 -0.506611 0
M  V30 6190 H 610.455 -2.75183 1.19223 0
M  V30 6191 H 608.008 -1.41886 0.655598 0
M  V30 6192 H 608.743 -2.93802 -1.37299 0
M  V30 6193 H 608.528 -3.91959 0.105218 0
M  V30 6194 H 610.018 -4.08412 -0.871192 0
M  V30 6195 N 610.455 -0.639598 -1.44038 0
M  V30 6196 C 611.866 -0.228866 -1.85292 0
M  V30 6197 C 612.217 1.22161 -1.53529 0
M  V30 6198 O 611.342 1.93064 -0.977518 0
M  V30 6199 C 611.937 -0.408592 -3.36327 0
M  V30 6200 C 610.496 -0.0522953 -3.76364 0
M  V30 6201 C 609.643 -0.717959 -2.67844 0
M  V30 6202 H 612.594 -0.844194 -1.34384 0
M  V30 6203 H 612.615 0.349968 -3.78887 0
M  V30 6204 H 612.127 -1.46435 -3.59414 0
M  V30 6205 H 610.228 1.0014 -3.58891 0
M  V30 6206 H 610.341 -0.468261 -4.76806 0
M  V30 6207 H 608.705 -0.152459 -2.54243 0
M  V30 6208 H 609.488 -1.77648 -2.93762 0
M  V30 6209 N 611.933 1.52934 -0.380664 0
M  V30 6210 C 612.896 2.24809 0.446473 0
M  V30 6211 C 613.896 1.26133 0.997347 0
M  V30 6212 O 615.086 1.50297 0.880714 0
M  V30 6213 C 612.218 2.99649 1.62553 0
M  V30 6214 H 613.411 2.99343 -0.182677 0
M  V30 6215 H 610.964 1.55736 -0.132618 0
M  V30 6216 H 611.699 2.29395 2.29235 0
M  V30 6217 H 611.484 3.72066 1.23732 0
M  V30 6218 H 612.974 3.54246 2.21133 0
M  V30 6219 N 613.412 0.11024 1.57214 0
M  V30 6220 C 614.823 -0.416527 1.81994 0
M  V30 6221 C 615.174 -1.67183 1.02686 0
M  V30 6222 O 614.299 -2.14823 0.260782 0
M  V30 6223 C 614.894 -0.762466 3.30109 0
M  V30 6224 C 613.453 -1.23391 3.556 0
M  V30 6225 C 612.6 -0.238166 2.76275 0
M  V30 6226 H 615.551 0.335491 1.55113 0
M  V30 6227 H 615.572 -1.62068 3.44259 0
M  V30 6228 H 615.084 0.151346 3.87805 0
M  V30 6229 H 613.185 -2.16492 3.03253 0
M  V30 6230 H 613.298 -1.18528 4.64207 0
M  V30 6231 H 611.662 -0.723421 2.4421 0
M  V30 6232 H 612.445 0.668591 3.36727 0
M  V30 6233 N 614.89 -1.56749 -0.16351 0
M  V30 6234 C 615.84 -1.93424 -1.20712 0
M  V30 6235 C 616.824 -0.803469 -1.39403 0
M  V30 6236 O 618.016 -1.06675 -1.41243 0
M  V30 6237 C 615.145 -2.30431 -2.54473 0
M  V30 6238 C 614.231 -3.5004 -2.39443 0
M  V30 6239 N 614.622 -4.67058 -1.9414 0
M  V30 6240 C 612.92 -3.548 -2.70246 0
M  V30 6241 C 613.621 -5.49184 -1.9176 0
M  V30 6242 N 612.597 -4.9044 -2.34457 0
M  V30 6243 H 616.399 -2.8138 -0.848681 0
M  V30 6244 H 613.913 -1.58089 -0.371717 0
M  V30 6245 H 615.91 -2.54903 -3.29894 0
M  V30 6246 H 614.57 -1.43818 -2.91112 0
M  V30 6247 H 615.581 -4.91128 -1.64357 0
M  V30 6248 H 612.258 -2.78685 -3.10871 0
M  V30 6249 H 613.648 -6.5297 -1.58366 0
M  V30 6250 N 616.368 0.432326 -1.51554 0
M  V30 6251 C 617.331 1.50765 -1.72634 0
M  V30 6252 C 618.331 1.49334 -0.596314 0
M  V30 6253 O 619.521 1.51268 -0.863925 0
M  V30 6254 C 616.653 2.90284 -1.7874 0
M  V30 6255 H 617.846 1.33377 -2.68609 0
M  V30 6256 H 615.399 0.661329 -1.4162 0
M  V30 6257 H 616.134 3.13071 -0.845977 0
M  V30 6258 H 615.919 2.92727 -2.6087 0
M  V30 6259 H 617.409 3.68282 -1.96871 0
M  V30 6260 N 617.846 1.41785 0.688094 0
M  V30 6261 C 619.074 1.44915 1.47673 0
M  V30 6262 C 619.489 0.0565786 1.88715 0
M  V30 6263 O 618.846 -0.92579 1.57275 0
M  V30 6264 C 618.897 2.36452 2.73446 0
M  V30 6265 O 618.618 3.7029 2.34131 0
M  V30 6266 C 620.119 2.48463 3.67125 0
M  V30 6267 H 617.339 0.493324 0.454832 0
M  V30 6268 H 619.883 1.86153 0.846594 0
M  V30 6269 H 618.038 1.98502 3.3268 0
M  V30 6270 H 618.452 4.19183 3.15255 0
M  V30 6271 H 619.926 3.16662 4.52138 0
M  V30 6272 H 620.403 1.51826 4.12123 0
M  V30 6273 H 621.009 2.8708 3.13792 0
M  V30 6274 N 619.324 -0.923095 1.27737 0
M  V30 6275 C 620.254 -2.04124 1.13383 0
M  V30 6276 C 621.235 -1.70066 0.0340658 0
M  V30 6277 O 622.42 -1.93068 0.209383 0
M  V30 6278 C 619.55 -3.3831 0.785097 0
M  V30 6279 C 618.504 -3.86496 1.8386 0
M  V30 6280 C 617.83 -5.1754 1.34373 0
M  V30 6281 C 619.13 -4.09381 3.24353 0
M  V30 6282 H 620.824 -2.1639 2.06919 0
M  V30 6283 H 618.37 -1.03976 0.996243 0
M  V30 6284 H 620.323 -4.16016 0.671485 0
M  V30 6285 H 619.047 -3.2607 -0.185969 0
M  V30 6286 H 617.706 -3.10987 1.9412 0
M  V30 6287 H 617.354 -5.01696 0.361989 0
M  V30 6288 H 617.054 -5.50751 2.04811 0
M  V30 6289 H 618.578 -5.97811 1.24315 0
M  V30 6290 H 619.992 -4.77641 3.17067 0
M  V30 6291 H 618.389 -4.53906 3.92542 0
M  V30 6292 H 619.459 -3.14515 3.69064 0
M  V30 6293 N 620.802 -1.09834 -1.13024 0
M  V30 6294 C 622.213 -0.855651 -1.65938 0
M  V30 6295 C 622.564 0.615159 -1.86307 0
M  V30 6296 O 621.689 1.47335 -1.58497 0
M  V30 6297 C 622.284 -1.5467 -3.01434 0
M  V30 6298 C 620.843 -1.35088 -3.51323 0
M  V30 6299 C 619.99 -1.6001 -2.26478 0
M  V30 6300 H 622.941 -1.25691 -0.968889 0
M  V30 6301 H 622.962 -0.982179 -3.67605 0
M  V30 6302 H 622.474 -2.61715 -2.86578 0
M  V30 6303 H 620.575 -0.30179 -3.71376 0
M  V30 6304 H 620.688 -2.0886 -4.31178 0
M  V30 6305 H 619.052 -1.02246 -2.33276 0
M  V30 6306 H 619.835 -2.68293 -2.14182 0
M  V30 6307 N 622.28 1.30327 -0.886154 0
M  V30 6308 C 623.696 1.48676 -0.580323 0
M  V30 6309 C 623.896 1.81189 0.881639 0
M  V30 6310 O 622.952 1.90021 1.66278 0
M  V30 6311 C 624.265 2.60932 -1.49449 0
M  V30 6312 C 625.813 2.74812 -1.49824 0
M  V30 6313 C 626.288 3.90183 -2.39836 0
M  V30 6314 N 627.779 3.97495 -2.37806 0
M  V30 6315 C 628.514 4.86078 -3.04165 0
M  V30 6316 N 628.01 5.79448 -3.79753 0
M  V30 6317 N 629.803 4.79456 -2.93391 0
M  V30 6318 H 621.954 1.07495 -1.8319 0
M  V30 6319 H 624.217 0.532661 -0.784204 0
M  V30 6320 H 623.923 2.43731 -2.5355 0
M  V30 6321 H 623.797 3.57437 -1.20494 0
M  V30 6322 H 626.184 2.91418 -0.464731 0
M  V30 6323 H 626.265 1.78924 -1.82811 0
M  V30 6324 H 625.909 3.74334 -3.43273 0
M  V30 6325 H 625.839 4.85411 -2.04166 0
M  V30 6326 H 628.33 3.30703 -1.82877 0
M  V30 6327 H 628.643 6.43805 -4.27475 0
M  V30 6328 H 626.988 5.79376 -3.8386 0
M  V30 6329 H 630.179 4.05494 -2.33864 0
M  V30 6330 H 630.352 5.48283 -3.45383 0
M  V30 6331 N 623.758 0.647228 1.43697 0
M  V30 6332 C 624.688 -0.0345631 2.33474 0
M  V30 6333 C 625.669 -0.818193 1.4913 0
M  V30 6334 O 626.854 -0.780867 1.77809 0
M  V30 6335 C 623.984 -1.00576 3.32418 0
M  V30 6336 C 622.938 -0.33266 4.26705 0
M  V30 6337 C 622.264 -1.41489 5.1564 0
M  V30 6338 C 623.564 0.771204 5.16575 0
M  V30 6339 H 625.258 0.715163 2.90733 0
M  V30 6340 H 622.804 0.345364 1.39797 0
M  V30 6341 H 624.757 -1.49159 3.94119 0
M  V30 6342 H 623.481 -1.78657 2.73403 0
M  V30 6343 H 622.14 0.13267 3.6636 0
M  V30 6344 H 621.788 -2.18698 4.52968 0
M  V30 6345 H 621.488 -0.969799 5.79542 0
M  V30 6346 H 623.012 -1.9022 5.80214 0
M  V30 6347 H 624.426 0.36779 5.72119 0
M  V30 6348 H 622.823 1.1404 5.89165 0
M  V30 6349 H 623.893 1.63169 4.56622 0
M  V30 6350 N 625.236 -1.5273 0.388769 0
M  V30 6351 C 626.166 -2.29353 -0.438111 0
M  V30 6352 C 627.147 -1.32719 -1.06394 0
M  V30 6353 O 628.332 -1.61612 -1.07681 0
M  V30 6354 C 625.462 -3.09995 -1.56589 0
M  V30 6355 C 624.416 -4.14509 -1.06613 0
M  V30 6356 C 623.742 -4.83372 -2.28594 0
M  V30 6357 C 625.042 -5.22127 -0.134459 0
M  V30 6358 H 626.736 -2.98723 0.201206 0
M  V30 6359 H 624.282 -1.43665 0.0982089 0
M  V30 6360 H 626.235 -3.62357 -2.15118 0
M  V30 6361 H 624.959 -2.38357 -2.23279 0
M  V30 6362 H 623.618 -3.63128 -0.503383 0
M  V30 6363 H 623.266 -4.08283 -2.93792 0
M  V30 6364 H 622.966 -5.54012 -1.95817 0
M  V30 6365 H 624.49 -5.38538 -2.87766 0
M  V30 6366 H 625.904 -5.69851 -0.627914 0
M  V30 6367 H 624.301 -6.00011 0.103534 0
M  V30 6368 H 625.371 -4.77971 0.816798 0
M  V30 6369 N 626.714 -0.118576 -1.57153 0
M  V30 6370 C 628.13 0.238014 -1.57815 0
M  V30 6371 C 628.33 1.66747 -1.13127 0
M  V30 6372 O 627.386 2.38867 -0.818462 0
M  V30 6373 C 628.699 0.00508207 -3.007 0
M  V30 6374 C 630.247 0.0710139 -3.12919 0
M  V30 6375 C 630.722 -0.13422 -4.57803 0
M  V30 6376 N 632.213 -0.0801755 -4.63131 0
M  V30 6377 C 632.948 -0.213885 -5.73001 0
M  V30 6378 N 632.444 -0.403742 -6.91623 0
M  V30 6379 N 634.237 -0.15349 -5.6189 0
M  V30 6380 H 626.388 -1.05226 -1.84503 0
M  V30 6381 H 628.651 -0.414318 -0.852669 0
M  V30 6382 H 628.357 -0.983125 -3.3768 0
M  V30 6383 H 628.231 0.73714 -3.69927 0
M  V30 6384 H 630.618 1.04975 -2.75798 0
M  V30 6385 H 630.699 -0.692918 -2.46236 0
M  V30 6386 H 630.343 -1.10992 -4.95624 0
M  V30 6387 H 630.273 0.649692 -5.22577 0
M  V30 6388 H 632.764 0.0630689 -3.77847 0
M  V30 6389 H 633.077 -0.496645 -7.71202 0
M  V30 6390 H 631.422 -0.43971 -6.93608 0
M  V30 6391 H 634.613 -0.00613174 -4.681 0
M  V30 6392 H 634.786 -0.261138 -6.47474 0
M  V30 6393 N 628.193 1.56834 0.155195 0
M  V30 6394 C 629.156 1.96748 1.17571 0
M  V30 6395 C 630.156 0.853006 1.3631 0
M  V30 6396 O 631.346 1.11978 1.33441 0
M  V30 6397 C 628.478 2.27631 2.53765 0
M  V30 6398 H 629.671 2.88085 0.833498 0
M  V30 6399 H 627.224 1.51141 0.398242 0
M  V30 6400 H 627.959 1.39059 2.92973 0
M  V30 6401 H 627.744 3.0888 2.41527 0
M  V30 6402 H 629.234 2.59377 3.27282 0
M  V30 6403 N 629.671 -0.424282 1.51781 0
M  V30 6404 C 630.896 -1.19928 1.6921 0
M  V30 6405 C 631.321 -1.8392 0.394355 0
M  V30 6406 O 630.679 -1.69371 -0.646778 0
M  V30 6407 C 630.727 -2.24937 2.81843 0
M  V30 6408 O 629.831 -3.3073 2.46356 0
M  V30 6409 H 629.172 -0.35078 0.563781 0
M  V30 6410 H 631.702 -0.499401 1.98412 0
M  V30 6411 H 631.712 -2.69512 3.06312 0
M  V30 6412 H 630.387 -1.77742 3.76006 0
M  V30 6413 H 628.964 -2.9154 2.32505 0
M  V30 6414 N 631.149 -1.42148 -0.680565 0
M  V30 6415 C 632.397 -1.42029 -1.43779 0
M  V30 6416 C 632.718 -0.0356347 -1.94967 0
M  V30 6417 O 631.988 0.924936 -1.7269 0
M  V30 6418 H 630.568 -0.522835 -0.533529 0
M  V30 6419 H 633.23 -1.7752 -0.804538 0
M  V30 6420 H 632.326 -2.11658 -2.29363 0
M  V30 6421 N 632.627 0.916307 -1.28225 0
M  V30 6422 C 634.043 1.19425 -1.05876 0
M  V30 6423 C 634.243 2.005 0.2005 0
M  V30 6424 O 633.299 2.35806 0.902873 0
M  V30 6425 C 634.612 1.93133 -2.30478 0
M  V30 6426 C 636.16 2.06026 -2.35632 0
M  V30 6427 C 636.635 2.83141 -3.59994 0
M  V30 6428 N 638.126 2.90704 -3.60618 0
M  V30 6429 C 638.861 3.50865 -4.53521 0
M  V30 6430 N 638.357 4.12327 -5.56739 0
M  V30 6431 N 640.15 3.48379 -4.41122 0
M  V30 6432 H 632.301 0.37496 -2.09064 0
M  V30 6433 H 634.564 0.228531 -0.920042 0
M  V30 6434 H 634.27 1.40985 -3.22205 0
M  V30 6435 H 634.144 2.93696 -2.36691 0
M  V30 6436 H 636.531 2.57355 -1.44404 0
M  V30 6437 H 636.612 1.04647 -2.33415 0
M  V30 6438 H 636.256 2.32492 -4.51564 0
M  V30 6439 H 636.186 3.84829 -3.59464 0
M  V30 6440 H 638.677 2.47034 -2.85977 0
M  V30 6441 H 638.99 4.56205 -6.23776 0
M  V30 6442 H 637.335 4.10839 -5.60568 0
M  V30 6443 H 640.526 2.99572 -3.59686 0
M  V30 6444 H 640.699 3.94974 -5.13712 0
M  V30 6445 N 634.105 1.10431 1.1244 0
M  V30 6446 C 635.333 0.868872 1.87772 0
M  V30 6447 C 635.748 -0.580645 1.7965 0
M  V30 6448 O 635.105 -1.40031 1.17036 0
M  V30 6449 C 635.156 1.30855 3.36986 0
M  V30 6450 O 634.877 2.70123 3.44914 0
M  V30 6451 C 636.378 1.107 4.29256 0
M  V30 6452 H 633.598 0.311868 0.59412 0
M  V30 6453 H 636.142 1.46897 1.42273 0
M  V30 6454 H 634.297 0.752126 3.80029 0
M  V30 6455 H 634.711 2.88923 4.37748 0
M  V30 6456 H 636.185 1.46378 5.32238 0
M  V30 6457 H 636.662 0.0456228 4.39176 0
M  V30 6458 H 637.268 1.64988 3.91994 0
M  V30 6459 N 635.583 -1.29855 0.893053 0
M  V30 6460 C 636.994 -1.77946 0.564998 0
M  V30 6461 C 637.345 -1.73339 -0.919134 0
M  V30 6462 O 636.47 -1.3152 -1.71847 0
M  V30 6463 C 637.065 -3.23118 1.01883 0
M  V30 6464 C 635.624 -3.69013 0.742051 0
M  V30 6465 C 634.771 -2.50121 1.19727 0
M  V30 6466 H 637.722 -1.16611 1.07646 0
M  V30 6467 H 637.743 -3.78875 0.351249 0
M  V30 6468 H 637.255 -3.26439 2.09903 0
M  V30 6469 H 635.356 -3.71173 -0.325816 0
M  V30 6470 H 635.469 -4.60117 1.33527 0
M  V30 6471 H 633.833 -2.47128 0.616418 0
M  V30 6472 H 634.616 -2.56174 2.28538 0
M  V30 6473 N 637.061 -0.65484 -1.43351 0
M  V30 6474 C 637.971 0.0363603 -2.34572 0
M  V30 6475 C 638.987 0.810432 -1.53974 0
M  V30 6476 O 640.163 0.757308 -1.86619 0
M  V30 6477 C 637.228 0.989733 -3.32273 0
M  V30 6478 C 636.289 0.212414 -4.28774 0
M  V30 6479 C 635.522 1.12038 -5.21808 0
M  V30 6480 O 635.745 2.35967 -5.19303 0
M  V30 6481 O 634.679 0.59191 -5.98982 0
M  V30 6482 H 638.505 -0.714527 -2.95175 0
M  V30 6483 H 636.09 -0.415029 -1.4352 0
M  V30 6484 H 637.972 1.53759 -3.92347 0
M  V30 6485 H 636.647 1.72082 -2.74171 0
M  V30 6486 H 635.554 -0.379062 -3.72175 0
M  V30 6487 H 636.887 -0.479138 -4.89862 0
M  V30 6488 N 638.539 1.52521 -0.396863 0
M  V30 6489 C 639.502 2.2527 0.422604 0
M  V30 6490 C 640.502 1.27184 0.983913 0
M  V30 6491 O 641.692 1.51222 0.864723 0
M  V30 6492 C 638.824 3.01356 1.59365 0
M  V30 6493 H 640.017 2.99133 -0.214416 0
M  V30 6494 H 637.57 1.55587 -0.149128 0
M  V30 6495 H 638.305 2.31813 2.26789 0
M  V30 6496 H 638.09 3.73357 1.19779 0
M  V30 6497 H 639.58 3.56571 2.17363 0
M  V30 6498 N 640.017 0.126909 1.57088 0
M  V30 6499 C 641.263 -0.529952 1.95753 0
M  V30 6500 C 641.596 -1.65823 1.01077 0
M  V30 6501 O 640.871 -1.94437 0.0494162 0
M  V30 6502 C 641.154 -1.05517 3.44294 0
M  V30 6503 C 641.007 0.0702253 4.49745 0
M  V30 6504 C 642.326 -1.9435 3.94862 0
M  V30 6505 H 639.445 -0.191168 0.711775 0
M  V30 6506 H 642.087 0.204071 1.88901 0
M  V30 6507 H 640.237 -1.68069 3.50264 0
M  V30 6508 H 641.909 0.705834 4.55868 0
M  V30 6509 H 640.152 0.732259 4.27575 0
M  V30 6510 H 640.823 -0.338642 5.5096 0
M  V30 6511 H 643.299 -1.41658 3.91244 0
M  V30 6512 H 642.175 -2.28015 4.993 0
M  V30 6513 H 642.436 -2.87299 3.36024 0
M  V30 6514 N 641.495 -1.56914 -0.146875 0
M  V30 6515 C 642.427 -1.94878 -1.20645 0
M  V30 6516 C 643.44 -0.844633 -1.39175 0
M  V30 6517 O 644.629 -1.12304 -1.38744 0
M  V30 6518 C 641.729 -2.20769 -2.57127 0
M  V30 6519 C 640.902 -3.52053 -2.59572 0
M  V30 6520 C 639.961 -3.66482 -3.77594 0
M  V30 6521 O 638.987 -4.38873 -3.62462 0
M  V30 6522 N 640.189 -3.03156 -4.95052 0
M  V30 6523 H 642.954 -2.86374 -0.883757 0
M  V30 6524 H 640.515 -1.58366 -0.336436 0
M  V30 6525 H 642.507 -2.27664 -3.34591 0
M  V30 6526 H 641.077 -1.35538 -2.81688 0
M  V30 6527 H 640.297 -3.56598 -1.68023 0
M  V30 6528 H 641.585 -4.38396 -2.58238 0
M  V30 6529 H 640.983 -2.44258 -5.10249 0
M  V30 6530 H 639.54 -3.15611 -5.70292 0
M  V30 6531 N 642.974 0.416227 -1.52004 0
M  V30 6532 C 643.921 1.50666 -1.74838 0
M  V30 6533 C 644.891 1.55245 -0.590599 0
M  V30 6534 O 646.076 1.71928 -0.827374 0
M  V30 6535 C 643.216 2.88185 -1.89851 0
M  V30 6536 C 642.329 2.92971 -3.17478 0
M  V30 6537 C 641.464 4.21745 -3.22962 0
M  V30 6538 C 640.503 4.20478 -4.4482 0
M  V30 6539 N 639.64 5.40811 -4.47736 0
M  V30 6540 H 644.48 1.30498 -2.67907 0
M  V30 6541 H 642.017 0.633568 -1.32757 0
M  V30 6542 H 643.975 3.68007 -1.96537 0
M  V30 6543 H 642.605 3.06865 -1.00169 0
M  V30 6544 H 641.657 2.05684 -3.19997 0
M  V30 6545 H 642.969 2.87899 -4.07328 0
M  V30 6546 H 642.123 5.09954 -3.28682 0
M  V30 6547 H 640.862 4.29503 -2.31038 0
M  V30 6548 H 639.867 3.30659 -4.39254 0
M  V30 6549 H 641.092 4.14366 -5.38031 0
M  V30 6550 H 639.038 5.4925 -3.58692 0
M  V30 6551 H 638.955 5.37705 -5.31422 0
M  V30 6552 H 640.223 6.30993 -4.57676 0
M  V30 6553 N 644.452 1.42507 0.673017 0
M  V30 6554 C 645.382 1.48916 1.79851 0
M  V30 6555 C 646.363 0.345566 1.66553 0
M  V30 6556 O 647.548 0.560116 1.85947 0
M  V30 6557 C 644.678 1.39258 3.18158 0
M  V30 6558 C 643.632 2.51662 3.46194 0
M  V30 6559 C 642.958 2.27062 4.84094 0
M  V30 6560 C 644.258 3.93968 3.42909 0
M  V30 6561 H 645.952 2.43114 1.74745 0
M  V30 6562 H 643.498 1.17013 0.839288 0
M  V30 6563 H 645.451 1.42349 3.96629 0
M  V30 6564 H 644.175 0.415542 3.23946 0
M  V30 6565 H 642.834 2.47891 2.70084 0
M  V30 6566 H 642.482 1.27648 4.86534 0
M  V30 6567 H 642.182 3.02398 5.03815 0
M  V30 6568 H 643.706 2.31905 5.64847 0
M  V30 6569 H 645.12 3.99332 4.11347 0
M  V30 6570 H 643.517 4.6917 3.74165 0
M  V30 6571 H 644.587 4.20512 2.41449 0
M  V30 6572 N 645.93 -0.909495 1.28709 0
M  V30 6573 C 646.86 -2.0291 1.15542 0
M  V30 6574 C 647.841 -1.7002 0.0521017 0
M  V30 6575 O 649.026 -1.92835 0.229849 0
M  V30 6576 C 646.156 -3.37458 0.820935 0
M  V30 6577 C 645.11 -3.84524 1.87949 0
M  V30 6578 C 644.436 -5.16086 1.39854 0
M  V30 6579 C 645.736 -4.05918 3.28676 0
M  V30 6580 H 647.43 -2.14183 2.09203 0
M  V30 6581 H 644.976 -1.02913 1.00722 0
M  V30 6582 H 646.929 -4.1528 0.715571 0
M  V30 6583 H 645.653 -3.26249 -0.151374 0
M  V30 6584 H 644.312 -3.08911 1.97408 0
M  V30 6585 H 643.96 -5.01284 0.41518 0
M  V30 6586 H 643.66 -5.48547 2.1064 0
M  V30 6587 H 645.184 -5.96459 1.30649 0
M  V30 6588 H 646.598 -4.74252 3.22115 0
M  V30 6589 H 644.995 -4.49717 3.97334 0
M  V30 6590 H 646.065 -3.10583 3.72379 0
M  V30 6591 N 647.408 -1.11026 -1.11852 0
M  V30 6592 C 648.318 -0.777252 -2.2135 0
M  V30 6593 C 649.334 0.227821 -1.72502 0
M  V30 6594 O 650.51 0.0650587 -2.01295 0
M  V30 6595 C 647.575 -0.220668 -3.45997 0
M  V30 6596 C 646.636 -1.2838 -4.09655 0
M  V30 6597 C 645.869 -0.753678 -5.28352 0
M  V30 6598 O 646.092 0.417779 -5.68868 0
M  V30 6599 O 645.026 -1.51647 -5.82483 0
M  V30 6600 H 648.852 -1.69141 -2.5224 0
M  V30 6601 H 646.437 -0.885836 -1.20305 0
M  V30 6602 H 648.319 0.0855756 -4.21313 0
M  V30 6603 H 646.994 0.666262 -3.16769 0
M  V30 6604 H 645.901 -1.64299 -3.3609 0
M  V30 6605 H 647.234 -2.14396 -4.43052 0
M  V30 6606 N 648.886 1.2938 -0.899927 0
M  V30 6607 C 649.818 2.26737 -0.335139 0
M  V30 6608 C 650.831 1.54316 0.518681 0
M  V30 6609 O 652.02 1.75313 0.335803 0
M  V30 6610 C 649.12 3.34558 0.540774 0
M  V30 6611 C 648.293 4.36455 -0.287372 0
M  V30 6612 C 647.352 5.2361 0.52141 0
M  V30 6613 O 646.378 5.69167 -0.0611735 0
M  V30 6614 N 647.58 5.50985 1.82745 0
M  V30 6615 H 650.345 2.75838 -1.17191 0
M  V30 6616 H 647.906 1.42716 -0.764438 0
M  V30 6617 H 649.898 3.89794 1.08825 0
M  V30 6618 H 648.468 2.85272 1.27823 0
M  V30 6619 H 647.688 3.80875 -1.01626 0
M  V30 6620 H 648.976 5.01573 -0.854518 0
M  V30 6621 H 648.374 5.15781 2.32349 0
M  V30 6622 H 646.931 6.09036 2.32204 0
M  V30 6623 N 650.364 0.662433 1.43002 0
M  V30 6624 C 651.612 0.179237 2.01304 0
M  V30 6625 C 651.933 -1.21428 1.52579 0
M  V30 6626 O 651.203 -1.81294 0.742252 0
M  V30 6627 H 649.783 0.0632725 0.744316 0
M  V30 6628 H 652.445 0.856169 1.75088 0
M  V30 6629 H 651.541 0.170957 3.11631 0
M  V30 6630 N 651.842 -1.52309 0.404946 0
M  V30 6631 C 652.772 -2.29805 -0.41376 0
M  V30 6632 C 653.753 -1.3384 -1.0498 0
M  V30 6633 O 654.938 -1.62745 -1.05961 0
M  V30 6634 C 652.068 -3.11639 -1.53292 0
M  V30 6635 C 651.022 -4.15616 -1.02211 0
M  V30 6636 C 650.348 -4.8577 -2.23455 0
M  V30 6637 C 651.648 -5.2224 -0.0790725 0
M  V30 6638 H 653.342 -2.98493 0.232878 0
M  V30 6639 H 650.888 -1.43552 0.113441 0
M  V30 6640 H 652.841 -3.64618 -2.11262 0
M  V30 6641 H 651.565 -2.40712 -2.20738 0
M  V30 6642 H 650.224 -3.63641 -0.46484 0
M  V30 6643 H 649.872 -4.11376 -2.89445 0
M  V30 6644 H 649.572 -5.56058 -1.89929 0
M  V30 6645 H 651.096 -5.4156 -2.82038 0
M  V30 6646 H 652.51 -5.70485 -0.567438 0
M  V30 6647 H 650.907 -5.99867 0.167167 0
M  V30 6648 H 651.977 -4.77078 0.867447 0
M  V30 6649 N 653.32 -0.135238 -1.57019 0
M  V30 6650 C 654.736 0.221262 -1.58059 0
M  V30 6651 C 654.936 1.65538 -1.14889 0
M  V30 6652 O 653.992 2.37985 -0.843751 0
M  V30 6653 C 655.305 -0.0268114 -3.00688 0
M  V30 6654 C 656.853 0.0378206 -3.12977 0
M  V30 6655 C 657.328 -0.182769 -4.57635 0
M  V30 6656 N 658.819 -0.129292 -4.6302 0
M  V30 6657 C 659.554 -0.274648 -5.72742 0
M  V30 6658 N 659.05 -0.477075 -6.91155 0
M  V30 6659 N 660.843 -0.213077 -5.61696 0
M  V30 6660 H 652.994 -1.07177 -1.83376 0
M  V30 6661 H 655.257 -0.423338 -0.848227 0
M  V30 6662 H 654.963 -1.01889 -3.36618 0
M  V30 6663 H 654.837 0.697863 -3.70688 0
M  V30 6664 H 657.224 1.02043 -2.76896 0
M  V30 6665 H 657.305 -0.718996 -2.45487 0
M  V30 6666 H 656.949 -1.16243 -4.94419 0
M  V30 6667 H 656.879 0.59423 -5.23237 0
M  V30 6668 H 659.37 0.0229896 -3.77893 0
M  V30 6669 H 659.683 -0.578413 -7.70632 0
M  V30 6670 H 658.028 -0.513252 -6.93102 0
M  V30 6671 H 661.219 -0.0557796 -4.68067 0
M  V30 6672 H 661.392 -0.329796 -6.4716 0
M  V30 6673 N 654.798 1.5699 0.138552 0
M  V30 6674 C 655.748 1.9532 1.17619 0
M  V30 6675 C 656.732 0.825545 1.38107 0
M  V30 6676 O 657.924 1.08908 1.39528 0
M  V30 6677 C 655.053 2.34451 2.50774 0
M  V30 6678 C 654.139 3.53805 2.33844 0
M  V30 6679 N 654.53 4.70088 1.86685 0
M  V30 6680 C 652.828 3.59055 2.64567 0
M  V30 6681 C 653.529 5.52165 1.82998 0
M  V30 6682 N 652.505 4.94108 2.26624 0
M  V30 6683 H 656.307 2.82694 0.803809 0
M  V30 6684 H 653.821 1.5866 0.346519 0
M  V30 6685 H 655.818 2.60119 3.25797 0
M  V30 6686 H 654.478 1.48431 2.88788 0
M  V30 6687 H 655.489 4.93681 1.56523 0
M  V30 6688 H 652.166 2.83596 3.06398 0
M  V30 6689 H 653.556 6.55407 1.47957 0
M  V30 6690 N 656.276 -0.40816 1.52223 0
M  V30 6691 C 657.501 -1.18127 1.70472 0
M  V30 6692 C 657.926 -1.83491 0.41384 0
M  V30 6693 O 657.284 -1.70047 -0.628778 0
M  V30 6694 C 657.332 -2.21935 2.84213 0
M  V30 6695 O 656.436 -3.28099 2.4985 0
M  V30 6696 H 655.777 -0.344781 0.56747 0
M  V30 6697 H 658.307 -0.478328 1.9893 0
M  V30 6698 H 658.317 -2.66248 3.09153 0
M  V30 6699 H 656.992 -1.73744 3.7787 0
M  V30 6700 H 655.569 -2.89058 2.35584 0
M  V30 6701 N 657.755 -1.42862 -0.66545 0
M  V30 6702 C 658.687 -1.43026 -1.79098 0
M  V30 6703 C 659.7 -0.32803 -1.59461 0
M  V30 6704 O 660.889 -0.591709 -1.68407 0
M  V30 6705 C 657.989 -1.21566 -3.16346 0
M  V30 6706 C 657.162 -2.44399 -3.62751 0
M  V30 6707 C 656.221 -2.18344 -4.78761 0
M  V30 6708 O 655.247 -2.91611 -4.88827 0
M  V30 6709 N 656.449 -1.1924 -5.68122 0
M  V30 6710 H 659.214 -2.40045 -1.79439 0
M  V30 6711 H 656.775 -1.37861 -0.848872 0
M  V30 6712 H 658.767 -1.02037 -3.91625 0
M  V30 6713 H 657.337 -0.330368 -3.10849 0
M  V30 6714 H 656.557 -2.79433 -2.78048 0
M  V30 6715 H 657.845 -3.26173 -3.90498 0
M  V30 6716 H 657.243 -0.586603 -5.6265 0
M  V30 6717 H 655.8 -1.05698 -6.43173 0
M  V30 6718 N 659.233 0.902656 -1.29189 0
M  V30 6719 C 660.51 1.63296 -1.07674 0
M  V30 6720 C 660.89 2.07649 0.380137 0
M  V30 6721 O 660.238 1.82997 1.36837 0
M  V30 6722 C 660.448 2.81603 -2.06158 0
M  V30 6723 C 661.796 3.52359 -2.36914 0
M  V30 6724 O 662.82 2.91767 -2.04329 0
M  V30 6725 O 661.679 4.61586 -2.92576 0
M  V30 6726 H 658.773 0.716889 -0.41231 0
M  V30 6727 H 661.319 0.950984 -1.4055 0
M  V30 6728 H 660.091 2.46004 -3.04299 0
M  V30 6729 H 659.714 3.57508 -1.73993 0
M  V30 6730 N 660.711 1.11618 1.11262 0
M  V30 6731 C 661.641 0.79846 2.19424 0
M  V30 6732 C 662.622 -0.234003 1.68483 0
M  V30 6733 O 663.807 -0.0970704 1.93957 0
M  V30 6734 C 660.937 0.242892 3.4645 0
M  V30 6735 C 659.891 1.20744 4.10615 0
M  V30 6736 C 659.217 0.512494 5.32238 0
M  V30 6737 C 660.517 2.55884 4.55325 0
M  V30 6738 H 662.211 1.70286 2.46258 0
M  V30 6739 H 659.757 0.820195 1.18359 0
M  V30 6740 H 661.71 0.00840447 4.21399 0
M  V30 6741 H 660.434 -0.696811 3.1908 0
M  V30 6742 H 659.093 1.42759 3.37662 0
M  V30 6743 H 658.741 -0.432075 5.01141 0
M  V30 6744 H 658.441 1.15583 5.7612 0
M  V30 6745 H 659.965 0.286842 6.09926 0
M  V30 6746 H 661.379 2.37946 5.21588 0
M  V30 6747 H 659.776 3.16216 5.10027 0
M  V30 6748 H 660.846 3.14968 3.68678 0
M  V30 6749 N 662.189 -1.289 0.906776 0
M  V30 6750 C 663.152 -2.25777 0.394656 0
M  V30 6751 C 664.152 -1.53621 -0.475119 0
M  V30 6752 O 665.342 -1.71949 -0.279165 0
M  V30 6753 C 662.474 -3.38113 -0.43499 0
M  V30 6754 H 663.667 -2.72592 1.25033 0
M  V30 6755 H 661.22 -1.40463 0.685547 0
M  V30 6756 H 661.955 -2.96648 -1.31036 0
M  V30 6757 H 661.74 -3.91647 0.188334 0
M  V30 6758 H 663.23 -4.10168 -0.784365 0
M  V30 6759 N 663.667 -0.670007 -1.42649 0
M  V30 6760 C 664.914 -0.190286 -2.01604 0
M  V30 6761 C 665.242 1.20155 -1.52948 0
M  V30 6762 O 664.497 1.81964 -0.72026 0
M  V30 6763 C 664.796 -0.168298 -3.57004 0
M  V30 6764 C 664.462 -1.50415 -4.25072 0
M  V30 6765 C 663.124 -1.86992 -4.43382 0
M  V30 6766 C 665.476 -2.38414 -4.63474 0
M  V30 6767 C 662.804 -3.11203 -4.97363 0
M  V30 6768 C 665.156 -3.61933 -5.18833 0
M  V30 6769 C 663.82 -3.98685 -5.35356 0
M  V30 6770 H 663.09 -0.0696305 -0.737721 0
M  V30 6771 H 665.737 -0.864044 -1.70899 0
M  V30 6772 H 664.042 0.588958 -3.87348 0
M  V30 6773 H 665.739 0.22001 -4.00396 0
M  V30 6774 H 662.329 -1.20959 -4.11177 0
M  V30 6775 H 666.513 -2.11442 -4.49006 0
M  V30 6776 H 661.769 -3.39705 -5.08341 0
M  V30 6777 H 665.943 -4.30326 -5.47533 0
M  V30 6778 H 663.57 -4.95009 -5.76949 0
M  V30 6779 N 665.145 1.52092 -0.413018 0
M  V30 6780 C 666.075 2.30021 0.401567 0
M  V30 6781 C 667.056 1.34395 1.04269 0
M  V30 6782 O 668.241 1.63304 1.05097 0
M  V30 6783 C 665.371 3.12447 1.51638 0
M  V30 6784 C 664.325 4.16153 1.00005 0
M  V30 6785 C 663.651 4.86948 2.20875 0
M  V30 6786 C 664.951 5.22275 0.0513757 0
M  V30 6787 H 666.645 2.98365 -0.248704 0
M  V30 6788 H 664.191 1.4349 -0.121052 0
M  V30 6789 H 666.144 3.65733 2.09326 0
M  V30 6790 H 664.868 2.41879 2.19458 0
M  V30 6791 H 663.527 3.63882 0.445549 0
M  V30 6792 H 663.175 4.12905 2.8726 0
M  V30 6793 H 662.875 5.57057 1.86978 0
M  V30 6794 H 664.399 5.43048 2.79162 0
M  V30 6795 H 665.813 5.70778 0.537176 0
M  V30 6796 H 664.21 5.9977 -0.198977 0
M  V30 6797 H 665.28 4.76611 -0.892736 0
M  V30 6798 N 666.623 0.143563 1.56945 0
M  V30 6799 C 667.848 -0.518701 2.00809 0
M  V30 6800 C 668.273 -1.5785 1.02298 0
M  V30 6801 O 667.631 -1.813 -0.0017839 0
M  V30 6802 C 667.679 -1.09929 3.43436 0
M  V30 6803 O 666.783 -2.21425 3.47915 0
M  V30 6804 H 666.124 -0.127215 0.6517 0
M  V30 6805 H 668.654 0.239283 2.03196 0
M  V30 6806 H 668.664 -1.4288 3.82164 0
M  V30 6807 H 667.339 -0.323162 4.14643 0
M  V30 6808 H 665.916 -1.89728 3.21026 0
M  V30 6809 N 668.101 -1.57061 -0.130224 0
M  V30 6810 C 669.034 -1.94698 -1.19029 0
M  V30 6811 C 670.012 -0.815074 -1.40696 0
M  V30 6812 O 671.196 -1.07223 -1.55034 0
M  V30 6813 C 668.323 -2.23352 -2.5462 0
M  V30 6814 C 667.369 -3.45945 -2.49448 0
M  V30 6815 S 668.202 -4.98927 -1.94505 0
M  V30 6816 C 669.358 -5.30721 -3.31792 0
M  V30 6817 H 669.591 -2.84308 -0.869272 0
M  V30 6818 H 667.124 -1.50688 -0.336531 0
M  V30 6819 H 669.082 -2.40539 -3.32643 0
M  V30 6820 H 667.743 -1.34376 -2.83905 0
M  V30 6821 H 666.936 -3.63324 -3.49302 0
M  V30 6822 H 666.538 -3.28086 -1.79543 0
M  V30 6823 H 668.83 -5.25215 -4.27966 0
M  V30 6824 H 669.773 -6.32048 -3.19251 0
M  V30 6825 H 670.181 -4.5821 -3.29703 0
M  V30 6826 N 669.579 0.400081 -1.52437 0
M  V30 6827 C 670.509 1.4947 -1.7939 0
M  V30 6828 C 671.49 1.57383 -0.645329 0
M  V30 6829 O 672.675 1.72511 -0.891826 0
M  V30 6830 C 669.805 2.87201 -1.95276 0
M  V30 6831 C 668.759 2.94134 -3.10917 0
M  V30 6832 C 668.085 4.34207 -3.1204 0
M  V30 6833 C 669.385 2.64791 -4.50203 0
M  V30 6834 H 671.079 1.27165 -2.71052 0
M  V30 6835 H 668.625 0.610312 -1.30427 0
M  V30 6836 H 670.578 3.63772 -2.12715 0
M  V30 6837 H 669.302 3.10819 -1.00294 0
M  V30 6838 H 667.961 2.20009 -2.93243 0
M  V30 6839 H 667.609 4.54848 -2.14761 0
M  V30 6840 H 667.309 4.39768 -3.89715 0
M  V30 6841 H 668.833 5.127 -3.31619 0
M  V30 6842 H 670.247 3.31083 -4.68035 0
M  V30 6843 H 668.644 2.81717 -5.29864 0
M  V30 6844 H 669.714 1.60184 -4.57678 0
M  V30 6845 N 671.057 1.43213 0.657864 0
M  V30 6846 C 672.005 1.48271 1.79216 0
M  V30 6847 C 672.999 0.35675 1.65601 0
M  V30 6848 O 674.205 0.530535 1.72004 0
M  V30 6849 H 670.58 0.464729 0.591211 0
M  V30 6850 H 672.551 2.43792 1.7207 0
M  V30 6851 C 671.3 1.41837 3.17455 0
M  V30 6852 H 670.623 2.27781 3.28567 0
M  V30 6853 H 672.063 1.49438 3.96793 0
M  V30 6854 C 670.522 0.135347 3.36628 0
M  V30 6855 O 671.052 -0.805199 3.93547 0
M  V30 6856 N 669.258 0.0470316 2.90562 0
M  V30 6857 H 668.805 0.813221 2.44427 0
M  V30 6858 H 668.763 -0.810737 3.03767 0
M  V30 6859 N 672.536 -0.895792 1.29666 0
M  V30 6860 C 673.813 -1.62723 1.08538 0
M  V30 6861 C 674.193 -2.07848 -0.369119 0
M  V30 6862 O 673.541 -1.8372 -1.35864 0
M  V30 6863 C 673.751 -2.80505 2.07648 0
M  V30 6864 C 675.099 -3.51098 2.3878 0
M  V30 6865 O 676.123 -2.90679 2.05874 0
M  V30 6866 O 674.982 -4.60028 2.9502 0
M  V30 6867 H 672.076 -0.714692 0.416106 0
M  V30 6868 H 674.622 -0.943517 1.41053 0
M  V30 6869 H 673.394 -2.44386 3.05599 0
M  V30 6870 H 673.017 -3.5658 1.75887 0
M  V30 6871 N 674.014 -1.12206 -1.10668 0
M  V30 6872 C 675.263 -0.870595 -1.81944 0
M  V30 6873 C 675.576 0.605447 -1.85994 0
M  V30 6874 O 676.782 0.973433 -2.53449 0
M  V30 6875 C 675.238 -1.50783 -3.26791 0
M  V30 6876 C 674.846 -3.01849 -3.31046 0
M  V30 6877 C 676.59 -1.33653 -4.02911 0
M  V30 6878 C 674.497 -3.58518 -4.70339 0
M  V30 6879 H 673.427 -0.322043 -0.681765 0
M  V30 6880 H 676.078 -1.34827 -1.24475 0
M  V30 6881 H 674.46 -0.957825 -3.84242 0
M  V30 6882 H 675.634 -3.63321 -2.83433 0
M  V30 6883 H 673.949 -3.18346 -2.68411 0
M  V30 6884 H 676.546 -1.73416 -5.05797 0
M  V30 6885 H 676.889 -0.279949 -4.15358 0
M  V30 6886 H 677.422 -1.85562 -3.51868 0
M  V30 6887 H 674.161 -4.63925 -4.63091 0
M  V30 6888 H 673.681 -3.01819 -5.18329 0
M  V30 6889 H 675.36 -3.57434 -5.39305 0
M  V30 6890 N 675.492 1.28418 -0.913599 0
M  V30 6891 C 676.455 2.25564 -0.406624 0
M  V30 6892 C 677.455 1.5387 0.466965 0
M  V30 6893 O 678.645 1.72094 0.270042 0
M  V30 6894 C 675.777 3.38339 0.417053 0
M  V30 6895 H 676.97 2.71926 -1.26477 0
M  V30 6896 H 674.523 1.40098 -0.692986 0
M  V30 6897 H 675.258 2.97339 1.29461 0
M  V30 6898 H 675.043 3.91542 -0.209102 0
M  V30 6899 H 676.533 4.10578 0.762602 0
M  V30 6900 N 676.97 0.677563 1.42291 0
M  V30 6901 C 677.933 0.0101085 2.29198 0
M  V30 6902 C 678.933 -0.726219 1.43467 0
M  V30 6903 O 680.123 -0.563807 1.64824 0
M  V30 6904 C 677.255 -0.996316 3.26016 0
M  V30 6905 H 678.448 0.775071 2.89711 0
M  V30 6906 H 676.001 0.440065 1.49977 0
M  V30 6907 H 676.736 -1.78967 2.70446 0
M  V30 6908 H 676.521 -0.471687 3.89253 0
M  V30 6909 H 678.011 -1.46167 3.91184 0
M  V30 6910 N 678.448 -1.51871 0.421078 0
M  V30 6911 C 679.694 -2.02237 -0.151014 0
M  V30 6912 C 680.027 -1.30554 -1.43768 0
M  V30 6913 O 679.302 -0.41546 -1.90011 0
M  V30 6914 C 679.585 -3.5802 -0.386482 0
M  V30 6915 C 679.438 -4.40339 0.9177 0
M  V30 6916 C 680.757 -4.24444 -1.16342 0
M  V30 6917 H 677.876 -0.735062 -0.0534102 0
M  V30 6918 H 680.518 -1.81656 0.556888 0
M  V30 6919 H 678.668 -3.75688 -0.989494 0
M  V30 6920 H 680.34 -4.34357 1.55344 0
M  V30 6921 H 678.583 -4.06073 1.526 0
M  V30 6922 H 679.254 -5.47451 0.707187 0
M  V30 6923 H 681.73 -4.10948 -0.652788 0
M  V30 6924 H 680.606 -5.33358 -1.29693 0
M  V30 6925 H 680.867 -3.84204 -2.18724 0
M  V30 6926 N 679.926 -0.151884 -1.56866 0
M  V30 6927 C 681.337 0.368128 -1.83035 0
M  V30 6928 C 681.688 1.64402 -1.07082 0
M  V30 6929 O 680.813 2.14056 -0.317647 0
M  V30 6930 C 681.408 0.674676 -3.32014 0
M  V30 6931 C 679.967 1.13919 -3.58747 0
M  V30 6932 C 679.114 0.164833 -2.7681 0
M  V30 6933 H 682.065 -0.376499 -1.54169 0
M  V30 6934 H 682.086 1.52883 -3.48435 0
M  V30 6935 H 681.598 -0.254113 -3.87267 0
M  V30 6936 H 679.699 2.08375 -3.08886 0
M  V30 6937 H 679.812 1.06179 -4.67186 0
M  V30 6938 H 678.176 0.658419 -2.46043 0
M  V30 6939 H 678.959 -0.757633 -3.34836 0
M  V30 6940 N 681.404 1.57128 0.121893 0
M  V30 6941 C 682.367 1.99197 1.13372 0
M  V30 6942 C 683.367 0.881728 1.3447 0
M  V30 6943 O 684.557 1.14783 1.31036 0
M  V30 6944 C 681.689 2.32963 2.4888 0
M  V30 6945 H 682.882 2.89788 0.772204 0
M  V30 6946 H 680.435 1.51952 0.366093 0
M  V30 6947 H 681.17 1.45243 2.89957 0
M  V30 6948 H 680.955 3.13934 2.34921 0
M  V30 6949 H 682.445 2.66261 3.21706 0
M  V30 6950 N 682.882 -0.391992 1.52647 0
M  V30 6951 C 684.11 -1.1586 1.71418 0
M  V30 6952 C 684.525 -1.8381 0.431216 0
M  V30 6953 O 683.882 -1.7256 -0.594085 0
M  V30 6954 C 683.933 -2.20888 2.86165 0
M  V30 6955 O 683.654 -1.5571 4.09495 0
M  V30 6956 C 685.155 -3.103 3.1659 0
M  V30 6957 H 682.375 -0.347494 0.574011 0
M  V30 6958 H 684.919 -0.458972 1.99283 0
M  V30 6959 H 683.074 -2.86492 2.6077 0
M  V30 6960 H 683.488 -2.25474 4.73563 0
M  V30 6961 H 684.962 -3.8003 4.00351 0
M  V30 6962 H 685.439 -3.73639 2.30848 0
M  V30 6963 H 686.045 -2.50345 3.43813 0
M  V30 6964 N 684.36 -1.4356 -0.65026 0
M  V30 6965 C 685.323 -1.48615 -1.74489 0
M  V30 6966 C 686.323 -0.370483 -1.56474 0
M  V30 6967 O 687.513 -0.632351 -1.62317 0
M  V30 6968 C 684.645 -1.34161 -3.13391 0
M  V30 6969 H 685.838 -2.46103 -1.71387 0
M  V30 6970 H 683.391 -1.30369 -0.862186 0
M  V30 6971 H 684.126 -0.376918 -3.22102 0
M  V30 6972 H 683.911 -2.1504 -3.27872 0
M  V30 6973 H 685.401 -1.40637 -3.93206 0
M  V30 6974 N 685.838 0.888903 -1.30139 0
M  V30 6975 C 686.771 1.99655 -1.10514 0
M  V30 6976 C 687.749 1.62594 -0.0138934 0
M  V30 6977 O 688.933 1.87762 -0.166689 0
M  V30 6978 C 686.06 3.31708 -0.684655 0
M  V30 6979 C 685.106 3.87755 -1.77619 0
M  V30 6980 S 685.939 4.15532 -3.37777 0
M  V30 6981 C 687.095 5.5061 -2.97622 0
M  V30 6982 H 687.328 2.15996 -2.04287 0
M  V30 6983 H 684.861 1.03682 -1.14409 0
M  V30 6984 H 686.819 4.08039 -0.448782 0
M  V30 6985 H 685.48 3.1323 0.233648 0
M  V30 6986 H 684.673 4.83164 -1.43417 0
M  V30 6987 H 684.275 3.18149 -1.96614 0
M  V30 6988 H 686.567 6.31518 -2.45338 0
M  V30 6989 H 687.51 5.89747 -3.91924 0
M  V30 6990 H 687.918 5.12983 -2.35603 0
M  V30 6991 N 687.317 1.12792 1.10072 0
M  V30 6992 C 688.728 0.899346 1.63611 0
M  V30 6993 C 689.079 -0.565547 1.87872 0
M  V30 6994 O 688.204 -1.43081 1.62348 0
M  V30 6995 C 688.799 1.62608 2.97227 0
M  V30 6996 C 687.358 1.44356 3.47618 0
M  V30 6997 C 686.505 1.65958 2.22156 0
M  V30 6998 H 689.456 1.28216 0.935223 0
M  V30 6999 H 689.477 1.0793 3.64872 0
M  V30 7000 H 688.989 2.69221 2.79538 0
M  V30 7001 H 687.09 0.400148 3.70445 0
M  V30 7002 H 687.203 2.20218 4.25489 0
M  V30 7003 H 685.567 1.08395 2.30484 0
M  V30 7004 H 686.35 2.73877 2.06993 0
M  V30 7005 N 688.795 -1.27931 0.920396 0
M  V30 7006 C 690.042 -1.94689 0.557007 0
M  V30 7007 C 690.37 -1.724 -0.900476 0
M  V30 7008 O 689.625 -1.04194 -1.65657 0
M  V30 7009 C 689.924 -3.47853 0.820558 0
M  V30 7010 C 689.59 -3.90252 2.25863 0
M  V30 7011 C 688.252 -4.01539 2.65179 0
M  V30 7012 C 690.604 -4.11853 3.19415 0
M  V30 7013 C 687.932 -4.3181 3.97187 0
M  V30 7014 C 690.284 -4.43606 4.50995 0
M  V30 7015 C 688.948 -4.53105 4.90155 0
M  V30 7016 H 688.218 -0.712416 0.203823 0
M  V30 7017 H 690.865 -1.52142 1.16298 0
M  V30 7018 H 689.17 -3.91578 0.131844 0
M  V30 7019 H 690.867 -3.97634 0.51847 0
M  V30 7020 H 687.457 -3.81999 1.94358 0
M  V30 7021 H 691.641 -4.0258 2.90246 0
M  V30 7022 H 686.897 -4.37371 4.2722 0
M  V30 7023 H 691.071 -4.59268 5.23494 0
M  V30 7024 H 688.698 -4.76315 5.92476 0
M  V30 7025 N 690.273 -0.685099 -1.4193 0
M  V30 7026 C 691.689 -0.355632 -1.55587 0
M  V30 7027 C 691.889 1.13823 -1.66273 0
M  V30 7028 O 690.945 1.92387 -1.63534 0
M  V30 7029 C 692.258 -1.09498 -2.80055 0
M  V30 7030 C 693.806 -1.07831 -2.93839 0
M  V30 7031 C 694.281 -1.79919 -4.21181 0
M  V30 7032 N 695.772 -1.76837 -4.28115 0
M  V30 7033 C 696.507 -2.29463 -5.25485 0
M  V30 7034 N 696.003 -2.90516 -6.28945 0
M  V30 7035 N 697.796 -2.19779 -5.17353 0
M  V30 7036 H 689.947 -1.65412 -1.33239 0
M  V30 7037 H 692.21 -0.697453 -0.642078 0
M  V30 7038 H 691.916 -2.14997 -2.78333 0
M  V30 7039 H 691.79 -0.666813 -3.71259 0
M  V30 7040 H 694.177 -0.0316152 -2.95083 0
M  V30 7041 H 694.258 -1.54545 -2.03837 0
M  V30 7042 H 693.902 -2.84562 -4.20698 0
M  V30 7043 H 693.832 -1.30647 -5.10136 0
M  V30 7044 H 696.323 -1.32315 -3.53979 0
M  V30 7045 H 696.636 -3.28266 -6.99615 0
M  V30 7046 H 694.981 -2.94589 -6.29478 0
M  V30 7047 H 698.172 -1.71763 -4.35448 0
M  V30 7048 H 698.345 -2.61097 -5.9307 0
M  V30 7049 N 691.751 1.51645 -0.429126 0
M  V30 7050 C 692.999 2.01616 0.139802 0
M  V30 7051 C 693.32 1.31568 1.43927 0
M  V30 7052 O 692.59 0.447688 1.90716 0
M  V30 7053 H 691.17 0.744998 0.054654 0
M  V30 7054 H 693.832 1.8638 -0.569952 0
M  V30 7055 H 692.928 3.10439 0.321609 0
M  V30 7056 N 693.229 0.160201 1.56784 0
M  V30 7057 C 694.459 -0.493449 2.00621 0
M  V30 7058 C 694.867 -1.5809 1.03943 0
M  V30 7059 O 694.21 -1.83675 0.0305343 0
M  V30 7060 C 694.272 -1.14169 3.4089 0
M  V30 7061 C 693.936 -0.197243 4.56574 0
M  V30 7062 C 694.933 0.580174 5.16653 0
M  V30 7063 C 692.618 -0.0963038 5.02208 0
M  V30 7064 C 694.612 1.44584 6.20785 0
M  V30 7065 C 692.299 0.772959 6.06192 0
M  V30 7066 C 693.297 1.54263 6.65351 0
M  V30 7067 O 692.985 2.39738 7.67321 0
M  V30 7068 H 692.717 -0.131764 0.663034 0
M  V30 7069 H 695.271 0.255728 2.03802 0
M  V30 7070 H 693.501 -1.93877 3.34587 0
M  V30 7071 H 695.19 -1.69641 3.6875 0
M  V30 7072 H 695.956 0.5123 4.82287 0
M  V30 7073 H 691.835 -0.685143 4.5588 0
M  V30 7074 H 695.379 2.04706 6.66889 0
M  V30 7075 H 691.276 0.842077 6.39984 0
M  V30 7076 H 692.044 2.33131 7.84597 0
M  V30 7077 N 694.707 -1.5719 -0.113559 0
M  V30 7078 C 695.67 -1.99796 -1.12314 0
M  V30 7079 C 696.67 -0.888847 -1.34001 0
M  V30 7080 O 697.86 -1.15476 -1.30426 0
M  V30 7081 C 694.992 -2.34279 -2.47641 0
M  V30 7082 H 696.185 -2.90193 -0.756825 0
M  V30 7083 H 693.738 -1.52144 -0.358029 0
M  V30 7084 H 694.473 -1.46778 -2.89183 0
M  V30 7085 H 694.258 -3.15175 -2.33253 0
M  V30 7086 H 695.748 -2.67963 -3.2029 0
M  V30 7087 N 696.185 0.383891 -1.52853 0
M  V30 7088 C 697.431 1.13009 -1.68395 0
M  V30 7089 C 697.764 1.89488 -0.425195 0
M  V30 7090 O 697.039 1.8574 0.577136 0
M  V30 7091 C 697.322 2.10419 -2.92226 0
M  V30 7092 C 697.175 1.3767 -4.28214 0
M  V30 7093 C 698.494 3.10781 -3.11614 0
M  V30 7094 H 695.613 0.409463 -0.612788 0
M  V30 7095 H 698.255 0.412895 -1.85459 0
M  V30 7096 H 696.405 2.71579 -2.77808 0
M  V30 7097 H 698.077 0.794352 -4.54409 0
M  V30 7098 H 696.32 0.678533 -4.2846 0
M  V30 7099 H 696.991 2.08874 -5.10956 0
M  V30 7100 H 699.467 2.59715 -3.25096 0
M  V30 7101 H 698.343 3.76179 -3.99725 0
M  V30 7102 H 698.604 3.79933 -2.2606 0
M  V30 7103 N 697.663 1.43903 0.642637 0
M  V30 7104 C 698.593 1.52697 1.76652 0
M  V30 7105 C 699.574 0.380816 1.65782 0
M  V30 7106 O 700.759 0.599432 1.84717 0
M  V30 7107 C 697.889 1.45975 3.15133 0
M  V30 7108 C 696.843 2.58949 3.40778 0
M  V30 7109 C 696.169 2.37279 4.79169 0
M  V30 7110 C 697.469 4.01153 3.34475 0
M  V30 7111 H 699.163 2.46766 1.69549 0
M  V30 7112 H 696.709 1.18767 0.814279 0
M  V30 7113 H 698.662 1.5073 3.93521 0
M  V30 7114 H 697.386 0.484162 3.22991 0
M  V30 7115 H 696.045 2.53564 2.64765 0
M  V30 7116 H 695.693 1.37939 4.83717 0
M  V30 7117 H 695.393 3.13016 4.97287 0
M  V30 7118 H 696.917 2.43834 5.59801 0
M  V30 7119 H 698.331 4.07968 4.02784 0
M  V30 7120 H 696.728 4.77001 3.64129 0
M  V30 7121 H 697.798 4.25539 2.32475 0
M  V30 7122 N 699.141 -0.881989 1.30609 0
M  V30 7123 C 700.389 -1.63082 1.19368 0
M  V30 7124 C 700.71 -1.93376 -0.251147 0
M  V30 7125 O 699.98 -1.5723 -1.16857 0
M  V30 7126 H 698.56 -0.604542 0.438791 0
M  V30 7127 H 701.222 -1.05658 1.63776 0
M  V30 7128 H 700.318 -2.57966 1.7567 0
M  V30 7129 N 700.619 -1.13374 -1.09472 0
M  V30 7130 C 701.867 -0.893422 -1.8128 0
M  V30 7131 C 702.188 0.582029 -1.86111 0
M  V30 7132 O 701.458 1.42305 -1.34633 0
M  V30 7133 H 700.038 -0.327543 -0.67136 0
M  V30 7134 H 702.7 -1.43018 -1.32408 0
M  V30 7135 H 701.796 -1.28374 -2.84476 0
M  V30 7136 N 702.098 1.27442 -0.927168 0
M  V30 7137 C 703.008 2.30599 -0.431448 0
M  V30 7138 C 704.024 1.67028 0.48761 0
M  V30 7139 O 705.2 1.97962 0.370546 0
M  V30 7140 C 702.265 3.45327 0.308292 0
M  V30 7141 C 701.326 4.24418 -0.645615 0
M  V30 7142 C 700.559 5.33667 0.0589164 0
M  V30 7143 O 700.782 5.5589 1.27838 0
M  V30 7144 O 699.716 5.98774 -0.612638 0
M  V30 7145 H 703.542 2.75036 -1.28797 0
M  V30 7146 H 701.127 1.32382 -0.692495 0
M  V30 7147 H 703.009 4.15107 0.725555 0
M  V30 7148 H 701.684 3.02945 1.14043 0
M  V30 7149 H 700.591 3.57174 -1.11255 0
M  V30 7150 H 701.924 4.70512 -1.44496 0
M  V30 7151 N 703.576 0.692616 1.41565 0
M  V30 7152 C 704.992 0.363878 1.55397 0
M  V30 7153 C 705.192 -1.1294 1.66874 0
M  V30 7154 O 704.248 -1.91517 1.64552 0
M  V30 7155 C 705.561 1.10982 2.7947 0
M  V30 7156 C 707.109 1.09387 2.93263 0
M  V30 7157 C 707.584 1.8215 4.20221 0
M  V30 7158 N 709.075 1.79105 4.27172 0
M  V30 7159 C 709.81 2.32247 5.2426 0
M  V30 7160 N 709.306 2.93847 6.27396 0
M  V30 7161 N 711.099 2.22519 5.1618 0
M  V30 7162 H 703.25 1.66116 1.3236 0
M  V30 7163 H 705.513 0.700848 0.63837 0
M  V30 7164 H 705.219 2.1647 2.77188 0
M  V30 7165 H 705.093 0.686492 3.709 0
M  V30 7166 H 707.48 0.0472638 2.95062 0
M  V30 7167 H 707.561 1.55623 2.03015 0
M  V30 7168 H 707.205 2.86789 4.19183 0
M  V30 7169 H 707.135 1.33351 5.09436 0
M  V30 7170 H 709.626 1.34191 3.53272 0
M  V30 7171 H 709.939 3.31972 6.97864 0
M  V30 7172 H 708.284 2.97924 6.27906 0
M  V30 7173 H 711.475 1.7407 4.34531 0
M  V30 7174 H 711.648 2.64239 5.91677 0
M  V30 7175 N 705.054 -1.51416 0.437162 0
M  V30 7176 C 706.302 -2.01687 -0.129108 0
M  V30 7177 C 706.623 -1.32329 -1.43227 0
M  V30 7178 O 705.893 -0.457796 -1.90476 0
M  V30 7179 H 704.473 -0.745277 -0.0507023 0
M  V30 7180 H 707.135 -1.86075 0.579828 0
M  V30 7181 H 706.231 -3.10605 -0.305141 0
M  V30 7182 N 706.532 -0.168513 -1.56696 0
M  V30 7183 C 707.78 0.476216 -1.96409 0
M  V30 7184 C 708.101 1.63968 -1.05544 0
M  V30 7185 O 707.371 1.95525 -0.121235 0
M  V30 7186 H 705.951 0.178921 -0.725256 0
M  V30 7187 H 708.613 -0.249042 -1.93302 0
M  V30 7188 H 707.709 0.838094 -3.00637 0
M  V30 7189 N 708.01 1.57248 0.105221 0
M  V30 7190 C 709.421 1.74612 0.660865 0
M  V30 7191 C 709.772 0.789231 1.79626 0
M  V30 7192 O 708.897 -0.0346611 2.16372 0
M  V30 7193 C 709.492 3.16624 1.20559 0
M  V30 7194 C 708.051 3.35447 1.7074 0
M  V30 7195 C 707.198 2.70445 0.612764 0
M  V30 7196 H 710.149 1.5824 -0.12079 0
M  V30 7197 H 710.17 3.18937 2.07508 0
M  V30 7198 H 709.682 3.86245 0.379012 0
M  V30 7199 H 707.783 2.7089 2.5583 0
M  V30 7200 H 707.896 4.43702 1.80736 0
M  V30 7201 H 706.26 2.32061 1.04975 0
M  V30 7202 H 707.043 3.42699 -0.203066 0
M  V30 7203 N 709.488 -0.375779 1.53054 0
M  V30 7204 C 710.398 -1.48381 1.81715 0
M  V30 7205 C 711.414 -1.59087 0.704795 0
M  V30 7206 O 712.59 -1.75174 0.993785 0
M  V30 7207 C 709.655 -2.83767 1.99192 0
M  V30 7208 C 708.716 -2.82673 3.23102 0
M  V30 7209 C 707.949 -4.11601 3.39736 0
M  V30 7210 O 708.172 -5.07243 2.60885 0
M  V30 7211 O 707.106 -4.18034 4.33049 0
M  V30 7212 H 710.932 -1.27089 2.7583 0
M  V30 7213 H 708.517 -0.564902 1.38308 0
M  V30 7214 H 710.399 -3.64004 2.12318 0
M  V30 7215 H 709.074 -3.05057 1.08267 0
M  V30 7216 H 707.981 -2.0117 3.15407 0
M  V30 7217 H 709.314 -2.66335 4.13916 0
M  V30 7218 N 710.966 -1.44241 -0.634997 0
M  V30 7219 C 712.212 -1.47038 -1.39669 0
M  V30 7220 C 712.545 -0.101122 -1.93937 0
M  V30 7221 O 711.82 0.880699 -1.73418 0
M  V30 7222 C 712.103 -2.52763 -2.56482 0
M  V30 7223 C 711.956 -3.99032 -2.07589 0
M  V30 7224 C 713.275 -2.55031 -3.58674 0
M  V30 7225 H 710.394 -0.53537 -0.506506 0
M  V30 7226 H 713.036 -1.75898 -0.718317 0
M  V30 7227 H 711.186 -2.28284 -3.14354 0
M  V30 7228 H 712.858 -4.3463 -1.54577 0
M  V30 7229 H 711.101 -4.10994 -1.38804 0
M  V30 7230 H 711.772 -4.68649 -2.91671 0
M  V30 7231 H 714.248 -2.76893 -3.10595 0
M  V30 7232 H 713.124 -3.30916 -4.37934 0
M  V30 7233 H 713.385 -1.59085 -4.12486 0
M  V30 7234 N 712.444 0.87505 -1.31075 0
M  V30 7235 C 713.376 1.98773 -1.14114 0
M  V30 7236 C 714.389 1.62595 -0.0816119 0
M  V30 7237 O 715.578 1.75449 -0.32861 0
M  V30 7238 C 712.678 3.31159 -0.720224 0
M  V30 7239 C 711.851 3.9571 -1.86366 0
M  V30 7240 C 710.91 5.06407 -1.42965 0
M  V30 7241 O 709.936 5.27501 -2.13848 0
M  V30 7242 N 711.138 5.79649 -0.314194 0
M  V30 7243 H 713.903 2.1387 -2.09951 0
M  V30 7244 H 711.464 1.04873 -1.23342 0
M  V30 7245 H 713.456 4.0259 -0.412687 0
M  V30 7246 H 712.026 3.12257 0.146396 0
M  V30 7247 H 711.246 3.17324 -2.33879 0
M  V30 7248 H 712.534 4.35576 -2.62966 0
M  V30 7249 H 711.932 5.65025 0.276228 0
M  V30 7250 H 710.489 6.51766 -0.0661641 0
M  V30 7251 N 713.922 1.13953 1.08869 0
M  V30 7252 C 714.854 0.779906 2.15523 0
M  V30 7253 C 715.867 -0.20102 1.61554 0
M  V30 7254 O 717.056 0.0200049 1.78489 0
M  V30 7255 C 714.156 0.136226 3.38626 0
M  V30 7256 C 713.329 1.15069 4.21993 0
M  V30 7257 C 712.388 0.531645 5.23507 0
M  V30 7258 O 711.414 1.19327 5.56552 0
M  V30 7259 N 712.616 -0.693734 5.7634 0
M  V30 7260 H 715.381 1.69769 2.46979 0
M  V30 7261 H 712.942 1.03331 1.24637 0
M  V30 7262 H 714.934 -0.290295 4.03658 0
M  V30 7263 H 713.504 -0.684603 3.05011 0
M  V30 7264 H 712.724 1.75431 3.53012 0
M  V30 7265 H 714.012 1.83614 4.74514 0
M  V30 7266 H 713.41 -1.24994 5.51718 0
M  V30 7267 H 711.967 -1.06283 6.43076 0
M  V30 7268 N 715.4 -1.26948 0.933913 0
M  V30 7269 C 716.646 -1.94374 0.57848 0
M  V30 7270 C 716.979 -1.73166 -0.879048 0
M  V30 7271 O 716.254 -1.06438 -1.62792 0
M  V30 7272 C 716.537 -3.4834 0.912739 0
M  V30 7273 C 716.39 -3.78866 2.42448 0
M  V30 7274 C 717.709 -4.38062 0.423003 0
M  V30 7275 H 714.828 -0.705959 0.211639 0
M  V30 7276 H 717.47 -1.49951 1.16682 0
M  V30 7277 H 715.62 -3.86309 0.412058 0
M  V30 7278 H 717.292 -3.50654 2.99733 0
M  V30 7279 H 715.535 -3.25198 2.87104 0
M  V30 7280 H 716.206 -4.86458 2.60887 0
M  V30 7281 H 718.682 -4.0728 0.852191 0
M  V30 7282 H 717.558 -5.44599 0.685776 0
M  V30 7283 H 717.819 -4.36886 -0.676994 0
M  V30 7284 N 716.879 -0.700114 -1.41195 0
M  V30 7285 C 718.29 -0.307249 -1.84154 0
M  V30 7286 C 718.641 1.15539 -1.58572 0
M  V30 7287 O 717.766 1.88744 -1.05852 0
M  V30 7288 C 718.361 -0.550872 -3.34292 0
M  V30 7289 C 716.92 -0.211877 -3.75803 0
M  V30 7290 C 716.067 -0.830915 -2.64558 0
M  V30 7291 H 719.018 -0.900431 -1.30683 0
M  V30 7292 H 719.039 0.188954 -3.80031 0
M  V30 7293 H 718.551 -1.61548 -3.5288 0
M  V30 7294 H 716.652 0.848283 -3.62815 0
M  V30 7295 H 716.765 -0.67007 -4.74391 0
M  V30 7296 H 715.129 -0.260155 -2.53368 0
M  V30 7297 H 715.912 -1.89948 -2.85963 0
M  V30 7298 N 718.357 1.51182 -0.445186 0
M  V30 7299 C 719.32 2.26501 0.350722 0
M  V30 7300 C 720.32 1.3025 0.942952 0
M  V30 7301 O 721.51 1.53897 0.816175 0
M  V30 7302 C 718.642 3.06274 1.49697 0
M  V30 7303 H 719.835 2.98299 -0.309474 0
M  V30 7304 H 717.388 1.55034 -0.198551 0
M  V30 7305 H 718.123 2.38911 2.19299 0
M  V30 7306 H 717.908 3.76979 1.0784 0
M  V30 7307 H 719.398 3.63306 2.05909 0
M  V30 7308 N 719.835 0.176821 1.56605 0
M  V30 7309 C 721.083 -0.465793 1.96659 0
M  V30 7310 C 721.404 -1.63406 1.06412 0
M  V30 7311 O 720.674 -1.95457 0.131603 0
M  V30 7312 H 719.254 -0.175072 0.726195 0
M  V30 7313 H 721.916 0.25929 1.93168 0
M  V30 7314 H 721.012 -0.822138 3.01077 0
M  V30 7315 N 721.313 -1.57302 -0.09688 0
M  V30 7316 C 722.223 -2.05258 -1.13606 0
M  V30 7317 C 723.239 -0.977137 -1.43972 0
M  V30 7318 O 724.415 -1.29018 -1.54649 0
M  V30 7319 C 721.48 -2.46593 -2.43706 0
M  V30 7320 C 720.541 -3.68322 -2.20538 0
M  V30 7321 C 719.774 -4.07676 -3.44435 0
M  V30 7322 O 719.997 -3.47141 -4.52603 0
M  V30 7323 O 718.931 -5.00641 -3.34129 0
M  V30 7324 H 722.757 -2.94069 -0.758752 0
M  V30 7325 H 720.342 -1.46164 -0.309263 0
M  V30 7326 H 722.224 -2.73814 -3.20318 0
M  V30 7327 H 720.899 -1.6092 -2.80867 0
M  V30 7328 H 719.806 -3.4622 -1.41713 0
M  V30 7329 H 721.139 -4.54769 -1.88271 0
M  V30 7330 N 722.791 0.367657 -1.53252 0
M  V30 7331 C 724.207 0.709191 -1.42978 0
M  V30 7332 C 724.407 1.93352 -0.567193 0
M  V30 7333 O 723.463 2.52453 -0.0488349 0
M  V30 7334 C 724.776 0.924338 -2.86141 0
M  V30 7335 C 726.324 1.02448 -2.95759 0
M  V30 7336 C 726.799 1.27211 -4.39979 0
M  V30 7337 N 728.29 1.33986 -4.43398 0
M  V30 7338 C 729.025 1.54852 -5.52095 0
M  V30 7339 N 728.521 1.73049 -6.7084 0
M  V30 7340 N 730.314 1.57205 -5.39669 0
M  V30 7341 H 722.465 -0.437669 -2.07842 0
M  V30 7342 H 724.728 -0.133737 -0.938519 0
M  V30 7343 H 724.434 0.0965455 -3.51567 0
M  V30 7344 H 724.308 1.83302 -3.29667 0
M  V30 7345 H 726.695 1.84282 -2.30487 0
M  V30 7346 H 726.776 0.0932301 -2.5563 0
M  V30 7347 H 726.42 0.458792 -5.05824 0
M  V30 7348 H 726.35 2.21654 -4.77679 0
M  V30 7349 H 728.841 1.21545 -3.5782 0
M  V30 7350 H 729.154 1.88538 -7.49449 0
M  V30 7351 H 727.499 1.70231 -6.7383 0
M  V30 7352 H 730.69 1.42555 -4.45865 0
M  V30 7353 H 730.863 1.73126 -6.24445 0
M  V30 7354 N 724.269 1.44576 0.627338 0
M  V30 7355 C 725.68 1.42266 1.20902 0
M  V30 7356 C 726.031 0.139964 1.957 0
M  V30 7357 O 725.156 -0.759489 2.02634 0
M  V30 7358 C 725.751 2.57727 2.19914 0
M  V30 7359 C 724.31 2.58599 2.73502 0
M  V30 7360 C 723.457 2.34145 1.48564 0
M  V30 7361 H 726.408 1.53102 0.417791 0
M  V30 7362 H 726.429 2.30697 3.02588 0
M  V30 7363 H 725.941 3.51068 1.65447 0
M  V30 7364 H 724.042 1.6921 3.31962 0
M  V30 7365 H 724.155 3.57205 3.19282 0
M  V30 7366 H 722.519 1.83313 1.76829 0
M  V30 7367 H 723.302 3.29606 0.959935 0
M  V30 7368 N 725.747 -0.868086 1.31537 0
M  V30 7369 C 726.677 -1.99131 1.21939 0
M  V30 7370 C 727.658 -1.69768 0.106166 0
M  V30 7371 O 728.843 -1.92006 0.291081 0
M  V30 7372 C 725.973 -3.34676 0.927879 0
M  V30 7373 C 724.927 -3.7835 2.00088 0
M  V30 7374 C 724.253 -5.11375 1.56203 0
M  V30 7375 C 725.553 -3.95256 3.41424 0
M  V30 7376 H 727.247 -2.07419 2.15911 0
M  V30 7377 H 724.793 -0.996569 1.03945 0
M  V30 7378 H 726.746 -4.12793 0.847327 0
M  V30 7379 H 725.47 -3.26565 -0.0475042 0
M  V30 7380 H 724.129 -3.02474 2.07135 0
M  V30 7381 H 723.777 -4.99709 0.57445 0
M  V30 7382 H 723.477 -5.41568 2.27985 0
M  V30 7383 H 725.001 -5.92001 1.49558 0
M  V30 7384 H 726.415 -4.63764 3.3704 0
M  V30 7385 H 724.812 -4.36849 4.1144 0
M  V30 7386 H 725.882 -2.98579 3.82072 0
M  V30 7387 N 727.225 -1.14528 -1.08264 0
M  V30 7388 C 728.471 -0.925721 -1.81113 0
M  V30 7389 C 728.826 0.54185 -1.84612 0
M  V30 7390 O 728.119 1.39628 -1.31205 0
M  V30 7391 C 728.313 -1.46226 -3.26117 0
M  V30 7392 C 728.142 -2.98047 -3.36746 0
M  V30 7393 C 726.912 -3.66508 -3.4785 0
M  V30 7394 C 729.11 -3.95903 -3.28277 0
M  V30 7395 N 727.092 -5.06227 -3.47285 0
M  V30 7396 C 728.463 -5.21883 -3.34721 0
M  V30 7397 C 730.518 -3.88002 -3.12024 0
M  V30 7398 C 729.221 -6.40886 -3.26585 0
M  V30 7399 C 731.247 -5.06553 -3.05219 0
M  V30 7400 C 730.609 -6.31403 -3.12266 0
M  V30 7401 H 726.708 -0.392294 -0.676483 0
M  V30 7402 H 729.292 -1.45567 -1.293 0
M  V30 7403 H 727.463 -0.959076 -3.76373 0
M  V30 7404 H 729.195 -1.18247 -3.8704 0
M  V30 7405 H 725.95 -3.17067 -3.51804 0
M  V30 7406 H 726.374 -5.79172 -3.50555 0
M  V30 7407 H 731.016 -2.9235 -3.05436 0
M  V30 7408 H 728.734 -7.36781 -3.31934 0
M  V30 7409 H 732.32 -5.02191 -2.93761 0
M  V30 7410 H 731.2 -7.21596 -3.07032 0
M  V30 7411 N 728.703 1.26451 -0.940633 0
M  V30 7412 C 729.95 1.93778 -0.587909 0
M  V30 7413 C 730.278 1.73811 0.872935 0
M  V30 7414 O 729.533 1.06816 1.63978 0
M  V30 7415 C 729.832 3.46503 -0.875794 0
M  V30 7416 C 729.498 3.86609 -2.32043 0
M  V30 7417 C 728.16 3.97269 -2.71534 0
M  V30 7418 C 730.512 4.0672 -3.25927 0
M  V30 7419 C 727.84 4.25436 -4.04006 0
M  V30 7420 C 730.192 4.36375 -4.57995 0
M  V30 7421 C 728.856 4.45249 -4.97302 0
M  V30 7422 H 728.126 0.709084 -0.215131 0
M  V30 7423 H 730.773 1.50272 -1.18704 0
M  V30 7424 H 729.078 3.91319 -0.194124 0
M  V30 7425 H 730.775 3.96759 -0.581665 0
M  V30 7426 H 727.365 3.78858 -2.00411 0
M  V30 7427 H 731.549 3.97912 -2.96614 0
M  V30 7428 H 726.805 4.30519 -4.34124 0
M  V30 7429 H 730.979 4.50882 -5.30734 0
M  V30 7430 H 728.606 4.66829 -5.99979 0
M  V30 7431 N 730.181 0.707592 1.40822 0
M  V30 7432 C 731.43 0.240705 2.00259 0
M  V30 7433 C 731.743 -1.17027 1.56729 0
M  V30 7434 O 732.949 -1.73526 2.08809 0
M  V30 7435 C 731.405 0.379432 3.57894 0
M  V30 7436 C 731.013 1.79654 4.104 0
M  V30 7437 C 732.757 -0.0270684 4.24491 0
M  V30 7438 C 730.664 1.88628 5.60512 0
M  V30 7439 H 729.594 0.0862369 0.749052 0
M  V30 7440 H 732.245 0.877528 1.61157 0
M  V30 7441 H 730.627 -0.325842 3.94657 0
M  V30 7442 H 731.801 2.53155 3.85032 0
M  V30 7443 H 730.116 2.15379 3.56372 0
M  V30 7444 H 732.713 0.0193743 5.34696 0
M  V30 7445 H 733.056 -1.06772 4.02375 0
M  V30 7446 H 733.589 0.628361 3.92806 0
M  V30 7447 H 730.328 2.90787 5.87472 0
M  V30 7448 H 729.848 1.19528 5.8777 0
M  V30 7449 H 731.527 1.6547 6.25483 0
M  V30 7450 N 731.66 -1.50943 0.453197 0
M  V30 7451 C 732.9 -2.0412 -0.106894 0
M  V30 7452 C 733.264 -1.32895 -1.38575 0
M  V30 7453 O 734.465 -1.76529 -2.02709 0
M  V30 7454 C 732.736 -3.561 -0.304565 0
M  V30 7455 S 734.295 -4.3096 -0.825784 0
M  V30 7456 H 731.113 -0.710581 -0.0243969 0
M  V30 7457 H 733.715 -1.85534 0.616239 0
M  V30 7458 H 732.419 -4.055 0.632277 0
M  V30 7459 H 731.95 -3.79009 -1.05433 0
M  V30 7460 H 733.965 -4.49503 -2.10147 0
M  V30 7461 N 733.138 -0.185124 -1.56509 0
M  V30 7462 C 734.363 0.465278 -2.02114 0
M  V30 7463 C 734.788 1.55083 -1.06447 0
M  V30 7464 O 734.146 1.81241 -0.0462852 0
M  V30 7465 C 734.194 1.00784 -3.46229 0
M  V30 7466 O 733.298 2.12123 -3.53663 0
M  V30 7467 H 732.639 0.109891 -0.654843 0
M  V30 7468 H 735.169 -0.293072 -2.0249 0
M  V30 7469 H 735.179 1.32697 -3.85818 0
M  V30 7470 H 733.854 0.213113 -4.15354 0
M  V30 7471 H 732.431 1.8115 -3.25943 0
M  V30 7472 N 734.616 1.57351 0.0885366 0
M  V30 7473 C 735.864 1.86051 0.789262 0
M  V30 7474 C 736.185 0.774763 1.78948 0
M  V30 7475 O 735.455 -0.198324 1.94894 0
M  V30 7476 H 734.035 0.686508 0.294475 0
M  V30 7477 H 736.697 1.94779 0.0686055 0
M  V30 7478 H 735.793 2.83007 1.31581 0
M  V30 7479 N 736.094 -0.359525 1.53444 0
M  V30 7480 C 737.027 -1.46338 1.75101 0
M  V30 7481 C 738.005 -1.51142 0.599559 0
M  V30 7482 O 739.189 -1.69102 0.832862 0
M  V30 7483 C 736.316 -2.84667 1.83527 0
M  V30 7484 C 735.362 -2.9756 3.05549 0
M  V30 7485 S 736.195 -2.65685 4.64943 0
M  V30 7486 C 737.351 -4.06153 4.76225 0
M  V30 7487 H 737.584 -1.27747 2.68455 0
M  V30 7488 H 735.117 -0.554231 1.4411 0
M  V30 7489 H 737.075 -3.64368 1.89067 0
M  V30 7490 H 735.736 -3.00564 0.912147 0
M  V30 7491 H 734.929 -3.98883 3.08072 0
M  V30 7492 H 734.531 -2.25789 2.98153 0
M  V30 7493 H 736.823 -5.00475 4.56652 0
M  V30 7494 H 737.766 -4.08632 5.78295 0
M  V30 7495 H 738.174 -3.93435 4.04808 0
M  V30 7496 N 737.572 -1.44907 -0.619662 0
M  V30 7497 C 738.82 -1.47999 -1.37625 0
M  V30 7498 C 739.141 -0.118295 -1.94641 0
M  V30 7499 O 738.411 0.85086 -1.76457 0
M  V30 7500 H 736.991 -0.544993 -0.510873 0
M  V30 7501 H 739.653 -1.80772 -0.728522 0
M  V30 7502 H 738.749 -2.21196 -2.20179 0
M  V30 7503 N 739.05 0.861098 -1.31996 0
M  V30 7504 C 740.278 1.6474 -1.25173 0
M  V30 7505 C 740.693 1.87926 0.181425 0
M  V30 7506 O 740.05 1.4437 1.1164 0
M  V30 7507 C 740.101 3.01036 -2.0015 0
M  V30 7508 O 739.822 2.7888 -3.37872 0
M  V30 7509 C 741.323 3.95481 -2.00273 0
M  V30 7510 H 738.543 0.513314 -0.432146 0
M  V30 7511 H 741.087 1.07419 -1.74016 0
M  V30 7512 H 739.242 3.55021 -1.55046 0
M  V30 7513 H 739.656 3.65514 -3.76165 0
M  V30 7514 H 741.13 4.88403 -2.57229 0
M  V30 7515 H 741.607 4.27957 -0.987407 0
M  V30 7516 H 742.213 3.47433 -2.45296 0
M  V30 7517 N 740.528 1.15101 1.07655 0
M  V30 7518 C 741.46 0.802722 2.14684 0
M  V30 7519 C 742.473 -0.183874 1.61758 0
M  V30 7520 O 743.662 0.0389349 1.78458 0
M  V30 7521 C 740.762 0.172135 3.38463 0
M  V30 7522 C 739.935 1.19538 4.20749 0
M  V30 7523 C 738.994 0.58714 5.22914 0
M  V30 7524 O 738.02 1.25224 5.55255 0
M  V30 7525 N 739.222 -0.632566 5.77043 0
M  V30 7526 H 741.987 1.72379 2.45164 0
M  V30 7527 H 739.548 1.04647 1.23534 0
M  V30 7528 H 741.54 -0.247465 4.03943 0
M  V30 7529 H 740.11 -0.652214 3.0572 0
M  V30 7530 H 739.33 1.79165 3.51132 0
M  V30 7531 H 740.618 1.88636 4.7254 0
M  V30 7532 H 740.016 -1.19135 5.53013 0
M  V30 7533 H 738.573 -0.994566 6.44167 0
M  V30 7534 N 742.006 -1.2595 0.947325 0
M  V30 7535 C 743.252 -1.94081 0.608604 0
M  V30 7536 C 743.607 -1.72899 -0.844021 0
M  V30 7537 O 742.9 -1.05908 -1.59669 0
M  V30 7538 C 743.094 -3.46034 0.894158 0
M  V30 7539 C 742.923 -3.81994 2.37299 0
M  V30 7540 C 741.693 -4.04431 3.02925 0
M  V30 7541 C 743.891 -3.90069 3.35188 0
M  V30 7542 N 741.873 -4.27325 4.40757 0
M  V30 7543 C 743.244 -4.17567 4.58299 0
M  V30 7544 C 745.299 -3.72721 3.30127 0
M  V30 7545 C 744.002 -4.2952 5.76979 0
M  V30 7546 C 746.028 -3.8591 4.48138 0
M  V30 7547 C 745.39 -4.13812 5.70034 0
M  V30 7548 H 741.489 -0.73273 0.273187 0
M  V30 7549 H 744.073 -1.51898 1.218 0
M  V30 7550 H 742.244 -3.87131 0.313758 0
M  V30 7551 H 743.976 -4.01396 0.516082 0
M  V30 7552 H 740.731 -4.0003 2.53521 0
M  V30 7553 H 741.155 -4.42792 5.12118 0
M  V30 7554 H 745.797 -3.50172 2.36938 0
M  V30 7555 H 743.515 -4.50888 6.70616 0
M  V30 7556 H 747.101 -3.73882 4.45762 0
M  V30 7557 H 745.981 -4.23791 6.59827 0
M  V30 7558 N 743.484 -0.715051 -1.40445 0
M  V30 7559 C 744.9 -0.388555 -1.54798 0
M  V30 7560 C 745.1 1.10271 -1.68649 0
M  V30 7561 O 744.156 1.88875 -1.67578 0
M  V30 7562 C 745.469 -1.15414 -2.77669 0
M  V30 7563 C 747.017 -1.14039 -2.91486 0
M  V30 7564 C 747.492 -1.88812 -4.1727 0
M  V30 7565 N 748.983 -1.85878 -4.24268 0
M  V30 7566 C 749.718 -2.40558 -5.20499 0
M  V30 7567 N 749.214 -3.03791 -6.22642 0
M  V30 7568 N 751.007 -2.30703 -5.12574 0
M  V30 7569 H 743.158 -1.68201 -1.297 0
M  V30 7570 H 745.421 -0.710915 -0.627139 0
M  V30 7571 H 745.127 -2.20853 -2.7371 0
M  V30 7572 H 745.001 -0.745412 -3.69761 0
M  V30 7573 H 747.388 -0.0941996 -2.9495 0
M  V30 7574 H 747.469 -1.58834 -2.00513 0
M  V30 7575 H 747.113 -2.93422 -4.14568 0
M  V30 7576 H 747.043 -1.41438 -5.0725 0
M  V30 7577 H 749.534 -1.39794 -3.51093 0
M  V30 7578 H 749.847 -3.43032 -6.92495 0
M  V30 7579 H 748.192 -3.07875 -6.23087 0
M  V30 7580 H 751.383 -1.80961 -4.31707 0
M  V30 7581 H 751.556 -2.73618 -5.87398 0
M  V30 7582 N 744.962 1.50701 -0.461195 0
M  V30 7583 C 746.21 2.01867 0.0970051 0
M  V30 7584 C 746.531 1.34591 1.41104 0
M  V30 7585 O 745.801 0.488041 1.89723 0
M  V30 7586 H 744.381 0.74599 0.0388392 0
M  V30 7587 H 747.043 1.85129 -0.609357 0
M  V30 7588 H 746.139 3.11051 0.255688 0
M  V30 7589 N 746.441 0.193421 1.56409 0
M  V30 7590 C 747.374 -0.767384 2.1491 0
M  V30 7591 C 748.352 -1.21075 1.08534 0
M  V30 7592 O 749.536 -1.29856 1.36637 0
M  V30 7593 C 746.663 -2.03615 2.70663 0
M  V30 7594 C 745.709 -1.73505 3.89613 0
M  V30 7595 S 746.542 -0.884645 5.28142 0
M  V30 7596 C 747.698 -2.1636 5.87315 0
M  V30 7597 H 747.931 -0.270053 2.96071 0
M  V30 7598 H 745.464 -0.0215546 1.54385 0
M  V30 7599 H 747.422 -2.7648 3.03429 0
M  V30 7600 H 746.083 -2.50461 1.89547 0
M  V30 7601 H 745.276 -2.67701 4.27027 0
M  V30 7602 H 744.878 -1.08723 3.57848 0
M  V30 7603 H 747.17 -3.11629 6.01576 0
M  V30 7604 H 748.113 -1.8338 6.83943 0
M  V30 7605 H 748.521 -2.29129 5.15907 0
M  V30 7606 N 747.919 -1.57396 -0.0801906 0
M  V30 7607 C 749.167 -1.86467 -0.779384 0
M  V30 7608 C 749.488 -0.784243 -1.78535 0
M  V30 7609 O 748.758 0.187986 -1.94996 0
M  V30 7610 H 747.338 -0.68806 -0.29083 0
M  V30 7611 H 750 -1.94813 -0.0582749 0
M  V30 7612 H 749.096 -2.83701 -1.30078 0
M  V30 7613 N 749.397 0.351382 -1.53633 0
M  V30 7614 C 750.327 1.43688 -1.84055 0
M  V30 7615 C 751.308 1.55251 -0.695073 0
M  V30 7616 O 752.493 1.69587 -0.946257 0
M  V30 7617 C 749.623 2.80843 -2.04315 0
M  V30 7618 C 748.577 2.84094 -3.20117 0
M  V30 7619 C 747.903 4.2406 -3.25696 0
M  V30 7620 C 749.203 2.50334 -4.58399 0
M  V30 7621 H 750.897 1.18478 -2.74961 0
M  V30 7622 H 748.443 0.568509 -1.32303 0
M  V30 7623 H 750.396 3.56821 -2.2418 0
M  V30 7624 H 749.12 3.07471 -1.10132 0
M  V30 7625 H 747.779 2.10568 -3.00094 0
M  V30 7626 H 747.427 4.47785 -2.29123 0
M  V30 7627 H 747.127 4.27147 -4.03509 0
M  V30 7628 H 748.651 5.0189 -3.47762 0
M  V30 7629 H 750.065 3.16025 -4.78332 0
M  V30 7630 H 748.462 2.64717 -5.38558 0
M  V30 7631 H 749.532 1.45542 -4.62543 0
M  V30 7632 N 750.875 1.45233 0.611969 0
M  V30 7633 C 752.1 1.52767 1.40274 0
M  V30 7634 C 752.525 0.159701 1.87421 0
M  V30 7635 O 751.883 -0.854837 1.59882 0
M  V30 7636 C 751.931 2.51286 2.58626 0
M  V30 7637 O 751.035 2.02764 3.59111 0
M  V30 7638 H 750.376 0.515141 0.418958 0
M  V30 7639 H 752.906 1.90547 0.745188 0
M  V30 7640 H 752.916 2.69949 3.05927 0
M  V30 7641 H 751.591 3.50641 2.23659 0
M  V30 7642 H 750.168 1.93957 3.18489 0
M  V30 7643 N 752.353 -0.854086 1.3245 0
M  V30 7644 C 753.283 -1.97827 1.24044 0
M  V30 7645 C 754.264 -1.69646 0.124166 0
M  V30 7646 O 755.449 -1.91687 0.31143 0
M  V30 7647 C 752.579 -3.33673 0.963324 0
M  V30 7648 C 751.533 -3.76207 2.04089 0
M  V30 7649 C 750.859 -5.0969 1.61618 0
M  V30 7650 C 752.159 -3.91612 3.45597 0
M  V30 7651 H 753.853 -2.05118 2.18099 0
M  V30 7652 H 751.399 -0.985489 1.04996 0
M  V30 7653 H 753.352 -4.11871 0.891061 0
M  V30 7654 H 752.076 -3.26597 -0.0128649 0
M  V30 7655 H 750.735 -3.0026 2.10332 0
M  V30 7656 H 750.383 -4.99072 0.627418 0
M  V30 7657 H 750.083 -5.3912 2.33717 0
M  V30 7658 H 751.607 -5.90381 1.55829 0
M  V30 7659 H 753.021 -4.60163 3.4194 0
M  V30 7660 H 751.418 -4.3246 4.16051 0
M  V30 7661 H 752.488 -2.9451 3.85217 0
M  V30 7662 N 753.831 -1.1567 -1.07043 0
M  V30 7663 C 754.764 -0.799867 -2.13723 0
M  V30 7664 C 755.742 0.225098 -1.61034 0
M  V30 7665 O 756.926 0.11093 -1.88173 0
M  V30 7666 C 754.053 -0.18997 -3.38167 0
M  V30 7667 C 753.099 -1.18733 -4.0964 0
M  V30 7668 S 753.932 -2.73074 -4.60642 0
M  V30 7669 C 755.088 -2.13512 -5.88356 0
M  V30 7670 H 755.321 -1.70342 -2.43661 0
M  V30 7671 H 752.854 -0.979377 -1.19363 0
M  V30 7672 H 754.812 0.155471 -4.10205 0
M  V30 7673 H 753.473 0.691229 -3.064 0
M  V30 7674 H 752.666 -0.708873 -4.9899 0
M  V30 7675 H 752.268 -1.47747 -3.43579 0
M  V30 7676 H 754.56 -1.49911 -6.60706 0
M  V30 7677 H 755.503 -3.01042 -6.40921 0
M  V30 7678 H 755.911 -1.57693 -5.42027 0
M  V30 7679 N 755.309 1.25446 -0.953992 0
M  V30 7680 C 756.725 1.4539 -0.658316 0
M  V30 7681 C 756.925 1.85607 0.784356 0
M  V30 7682 O 755.981 1.98568 1.55972 0
M  V30 7683 C 757.294 2.52643 -1.6307 0
M  V30 7684 C 758.842 2.66484 -1.64181 0
M  V30 7685 C 759.317 3.76921 -2.60182 0
M  V30 7686 N 760.808 3.84331 -2.58542 0
M  V30 7687 C 761.543 4.69271 -3.29503 0
M  V30 7688 N 761.039 5.58503 -4.09934 0
M  V30 7689 N 762.832 4.6323 -3.18393 0
M  V30 7690 H 754.983 0.976337 -1.8863 0
M  V30 7691 H 757.246 0.490343 -0.811337 0
M  V30 7692 H 756.952 2.29949 -2.66114 0
M  V30 7693 H 756.826 3.50547 -1.39271 0
M  V30 7694 H 759.213 2.88545 -0.618552 0
M  V30 7695 H 759.294 1.68982 -1.92038 0
M  V30 7696 H 758.938 3.55612 -3.62633 0
M  V30 7697 H 758.868 4.73906 -2.29609 0
M  V30 7698 H 761.359 3.20544 -2.0015 0
M  V30 7699 H 761.672 6.20241 -4.61 0
M  V30 7700 H 760.017 5.58214 -4.14032 0
M  V30 7701 H 763.208 3.92527 -2.5503 0
M  V30 7702 H 763.381 5.29204 -3.73961 0
M  V30 7703 N 756.787 0.722489 1.40064 0
M  V30 7704 C 757.717 0.0892452 2.33329 0
M  V30 7705 C 758.698 -0.737992 1.53257 0
M  V30 7706 O 759.883 -0.685516 1.81698 0
M  V30 7707 C 757.013 -0.828139 3.37282 0
M  V30 7708 C 755.967 -0.106005 4.27869 0
M  V30 7709 C 755.293 -1.13957 5.22415 0
M  V30 7710 C 756.593 1.04395 5.11761 0
M  V30 7711 H 758.287 0.868269 2.86534 0
M  V30 7712 H 755.833 0.418982 1.3777 0
M  V30 7713 H 757.786 -1.28058 4.01471 0
M  V30 7714 H 756.51 -1.63914 2.82489 0
M  V30 7715 H 755.169 0.326683 3.65142 0
M  V30 7716 H 754.817 -1.9438 4.63924 0
M  V30 7717 H 754.517 -0.661233 5.83868 0
M  V30 7718 H 756.041 -1.59197 5.89482 0
M  V30 7719 H 757.455 0.670541 5.69365 0
M  V30 7720 H 755.852 1.4511 5.82291 0
M  V30 7721 H 756.922 1.87144 4.47331 0
M  V30 7722 N 758.265 -1.50454 0.469181 0
M  V30 7723 C 759.542 -1.9504 -0.147955 0
M  V30 7724 C 759.922 -1.40946 -1.57154 0
M  V30 7725 O 759.27 -0.609663 -2.20217 0
M  V30 7726 C 759.48 -3.48875 -0.0932198 0
M  V30 7727 C 760.828 -4.23655 -0.283056 0
M  V30 7728 O 761.852 -3.55795 -0.169892 0
M  V30 7729 O 760.711 -5.44102 -0.511396 0
M  V30 7730 H 757.805 -0.819283 -0.11271 0
M  V30 7731 H 760.351 -1.6123 0.529446 0
M  V30 7732 H 759.123 -3.80791 0.900784 0
M  V30 7733 H 758.746 -3.89217 -0.812161 0
M  V30 7734 N 759.743 -0.201713 -1.56304 0
M  V30 7735 C 761.159 0.154025 -1.58855 0
M  V30 7736 C 761.359 1.60516 -1.21807 0
M  V30 7737 O 760.415 2.34193 -0.94393 0
M  V30 7738 C 761.728 -0.154319 -3.00304 0
M  V30 7739 C 763.276 -0.0949578 -3.12856 0
M  V30 7740 C 763.751 -0.376703 -4.56448 0
M  V30 7741 N 765.242 -0.325558 -4.62054 0
M  V30 7742 C 765.977 -0.51732 -5.71062 0
M  V30 7743 N 765.473 -0.769789 -6.8851 0
M  V30 7744 N 767.266 -0.45112 -5.60287 0
M  V30 7745 H 759.417 -1.14858 -1.78666 0
M  V30 7746 H 761.68 -0.458934 -0.829508 0
M  V30 7747 H 761.386 -1.16074 -3.31994 0
M  V30 7748 H 761.26 0.540014 -3.73314 0
M  V30 7749 H 763.647 0.902075 -2.80974 0
M  V30 7750 H 763.728 -0.822468 -2.42217 0
M  V30 7751 H 763.372 -1.37108 -4.89044 0
M  V30 7752 H 763.302 0.371772 -5.25286 0
M  V30 7753 H 765.793 -0.137308 -3.7765 0
M  V30 7754 H 766.106 -0.904744 -7.67486 0
M  V30 7755 H 764.451 -0.806758 -6.90302 0
M  V30 7756 H 767.642 -0.254253 -4.67409 0
M  V30 7757 H 767.815 -0.603982 -6.45179 0
M  V30 7758 N 761.222 1.57436 0.0718424 0
M  V30 7759 C 762.469 1.87248 0.771007 0
M  V30 7760 C 762.797 0.793441 1.7758 0
M  V30 7761 O 762.052 -0.210565 1.94564 0
M  V30 7762 C 762.351 3.23723 1.51455 0
M  V30 7763 C 762.017 4.46194 0.649736 0
M  V30 7764 C 760.679 4.79438 0.411409 0
M  V30 7765 C 763.031 5.21176 0.05004 0
M  V30 7766 C 760.359 5.85077 -0.436096 0
M  V30 7767 C 762.711 6.27712 -0.784919 0
M  V30 7768 C 761.375 6.59457 -1.03312 0
M  V30 7769 H 760.645 0.685188 0.282132 0
M  V30 7770 H 763.292 1.91474 0.0317896 0
M  V30 7771 H 761.597 3.15287 2.32597 0
M  V30 7772 H 763.294 3.44023 2.06031 0
M  V30 7773 H 759.884 4.20175 0.84562 0
M  V30 7774 H 764.068 4.95806 0.221282 0
M  V30 7775 H 759.324 6.08071 -0.637136 0
M  V30 7776 H 763.498 6.84974 -1.25635 0
M  V30 7777 H 761.125 7.4114 -1.6916 0
M  V30 7778 N 762.7 -0.34323 1.53817 0
M  V30 7779 C 764.116 -0.686355 1.44088 0
M  V30 7780 C 764.316 -1.92426 0.597882 0
M  V30 7781 O 763.372 -2.52343 0.0889918 0
M  V30 7782 C 764.685 -0.878698 2.87575 0
M  V30 7783 C 766.233 -0.977296 2.97352 0
M  V30 7784 C 766.708 -1.20195 4.41947 0
M  V30 7785 N 768.199 -1.26915 4.45474 0
M  V30 7786 C 768.934 -1.46049 5.54488 0
M  V30 7787 N 768.43 -1.62354 6.73508 0
M  V30 7788 N 770.223 -1.48599 5.42102 0
M  V30 7789 H 762.374 0.470679 2.07119 0
M  V30 7790 H 764.637 0.148652 0.936273 0
M  V30 7791 H 764.343 -0.040602 3.51677 0
M  V30 7792 H 764.217 -1.78034 3.32541 0
M  V30 7793 H 766.604 -1.80591 2.3339 0
M  V30 7794 H 766.685 -0.0525498 2.55746 0
M  V30 7795 H 766.329 -0.378262 5.06489 0
M  V30 7796 H 766.259 -2.14027 4.81145 0
M  V30 7797 H 768.75 -1.15837 3.59708 0
M  V30 7798 H 769.063 -1.76591 7.52353 0
M  V30 7799 H 767.408 -1.5949 6.76453 0
M  V30 7800 H 770.599 -1.35443 4.48077 0
M  V30 7801 H 770.772 -1.6317 6.2712 0
M  V30 7802 N 764.178 -1.45556 -0.604258 0
M  V30 7803 C 765.455 -1.40221 -1.36373 0
M  V30 7804 C 765.835 -0.0745195 -2.10968 0
M  V30 7805 O 765.183 0.943594 -2.08107 0
M  V30 7806 C 765.393 -2.61807 -2.30777 0
M  V30 7807 C 766.741 -3.07037 -2.93281 0
M  V30 7808 O 767.765 -2.62203 -2.41097 0
M  V30 7809 O 766.624 -3.8485 -3.88011 0
M  V30 7810 H 763.718 -0.556602 -0.611656 0
M  V30 7811 H 766.264 -1.57689 -0.627069 0
M  V30 7812 H 765.036 -3.50017 -1.74939 0
M  V30 7813 H 764.659 -2.46688 -3.11818 0
M  V30 7814 N 765.656 0.84705 -1.32902 0
M  V30 7815 C 766.881 1.63925 -1.27056 0
M  V30 7816 C 767.306 1.87443 0.157136 0
M  V30 7817 O 766.664 1.43266 1.11106 0
M  V30 7818 C 766.712 2.97134 -2.04313 0
M  V30 7819 O 765.816 3.88049 -1.39614 0
M  V30 7820 H 765.157 0.499477 -0.437514 0
M  V30 7821 H 767.687 1.05443 -1.75336 0
M  V30 7822 H 767.697 3.46896 -2.14772 0
M  V30 7823 H 766.372 2.79339 -3.08128 0
M  V30 7824 H 764.949 3.46525 -1.3775 0
M  V30 7825 N 767.134 1.16236 1.06428 0
M  V30 7826 C 768.383 0.937523 1.78587 0
M  V30 7827 C 768.696 -0.536 1.88113 0
M  V30 7828 O 769.902 -0.878697 2.56887 0
M  V30 7829 C 768.358 1.62808 3.2097 0
M  V30 7830 C 767.966 3.13927 3.19615 0
M  V30 7831 C 769.71 1.48515 3.97673 0
M  V30 7832 C 767.617 3.75727 4.56709 0
M  V30 7833 H 766.547 0.347125 0.669343 0
M  V30 7834 H 769.198 1.39353 1.19385 0
M  V30 7835 H 767.58 1.09977 3.80422 0
M  V30 7836 H 768.754 3.7359 2.69753 0
M  V30 7837 H 767.069 3.28089 2.56411 0
M  V30 7838 H 769.666 1.92069 4.99013 0
M  V30 7839 H 770.009 0.433913 4.14032 0
M  V30 7840 H 770.542 1.98494 3.44739 0
M  V30 7841 H 767.281 4.80793 4.45554 0
M  V30 7842 H 766.801 3.20849 5.0677 0
M  V30 7843 H 768.48 3.77203 5.25668 0
M  V30 7844 N 768.612 -1.24939 0.960631 0
M  V30 7845 C 769.542 -2.28 0.503815 0
M  V30 7846 C 770.523 -1.63959 -0.452928 0
M  V30 7847 O 771.708 -1.91009 -0.350585 0
M  V30 7848 C 768.838 -3.46643 -0.213535 0
M  V30 7849 C 767.792 -4.22903 0.658535 0
M  V30 7850 C 767.118 -5.34363 -0.189902 0
M  V30 7851 C 768.418 -4.84949 1.93963 0
M  V30 7852 H 770.112 -2.66462 1.36521 0
M  V30 7853 H 767.658 -1.28093 0.657897 0
M  V30 7854 H 769.611 -4.1787 -0.544286 0
M  V30 7855 H 768.335 -3.07187 -1.10923 0
M  V30 7856 H 766.994 -3.53467 0.972455 0
M  V30 7857 H 766.642 -4.91147 -1.08553 0
M  V30 7858 H 766.342 -5.86302 0.390331 0
M  V30 7859 H 767.866 -6.0842 -0.515484 0
M  V30 7860 H 769.28 -5.48288 1.67491 0
M  V30 7861 H 767.677 -5.47091 2.46601 0
M  V30 7862 H 768.747 -4.06799 2.639 0
M  V30 7863 N 770.09 -0.729906 -1.39679 0
M  V30 7864 C 771.506 -0.404951 -1.54377 0
M  V30 7865 C 771.706 1.08476 -1.6981 0
M  V30 7866 O 770.762 1.87087 -1.69572 0
M  V30 7867 C 772.075 -1.18352 -2.76429 0
M  V30 7868 C 773.623 -1.17124 -2.9026 0
M  V30 7869 C 774.098 -1.93227 -4.15244 0
M  V30 7870 N 775.589 -1.90368 -4.22273 0
M  V30 7871 C 776.324 -2.46065 -5.17918 0
M  V30 7872 N 775.82 -3.10378 -6.19385 0
M  V30 7873 N 777.613 -2.36127 -5.10099 0
M  V30 7874 H 769.764 -1.69567 -1.27909 0
M  V30 7875 H 772.027 -0.717527 -0.619564 0
M  V30 7876 H 771.733 -2.23743 -2.71352 0
M  V30 7877 H 771.607 -0.784589 -3.6895 0
M  V30 7878 H 773.994 -0.125478 -2.94833 0
M  V30 7879 H 774.075 -1.60951 -1.98817 0
M  V30 7880 H 773.719 -2.97802 -4.11432 0
M  V30 7881 H 773.649 -1.4681 -5.05722 0
M  V30 7882 H 776.14 -1.4351 -3.4959 0
M  V30 7883 H 776.453 -3.50358 -6.88817 0
M  V30 7884 H 774.798 -3.14467 -6.19787 0
M  V30 7885 H 777.989 -1.85529 -4.29763 0
M  V30 7886 H 778.162 -2.79833 -5.84463 0
M  V30 7887 N 771.568 1.50203 -0.477153 0
M  V30 7888 C 772.793 2.07263 0.0754986 0
M  V30 7889 C 773.218 1.33801 1.32208 0
M  V30 7890 O 772.576 0.387482 1.77111 0
M  V30 7891 C 772.624 3.59028 0.336348 0
M  V30 7892 O 771.728 3.87339 1.4157 0
M  V30 7893 H 771.069 0.663815 -0.015662 0
M  V30 7894 H 773.599 1.93321 -0.669936 0
M  V30 7895 H 773.609 4.03927 0.575034 0
M  V30 7896 H 772.284 4.11912 -0.574551 0
M  V30 7897 H 770.861 3.54272 1.16385 0
M  V30 7898 N 773.046 0.209999 1.56195 0
M  V30 7899 C 774.323 -0.473214 1.89789 0
M  V30 7900 C 774.703 -1.78581 1.1257 0
M  V30 7901 O 774.051 -2.27325 0.231398 0
M  V30 7902 C 774.261 -0.677458 3.42362 0
M  V30 7903 C 775.609 -0.990114 4.12895 0
M  V30 7904 O 776.633 -0.764655 3.47896 0
M  V30 7905 O 775.492 -1.41737 5.278 0
M  V30 7906 H 772.586 -0.248622 0.788743 0
M  V30 7907 H 775.132 0.251324 1.67829 0
M  V30 7908 H 773.904 0.248878 3.90508 0
M  V30 7909 H 773.527 -1.45391 3.70064 0
M  V30 7910 N 774.524 -1.57472 -0.0634922 0
M  V30 7911 C 775.434 -2.07621 -1.09227 0
M  V30 7912 C 776.45 -1.00746 -1.41867 0
M  V30 7913 O 777.626 -1.32269 -1.51878 0
M  V30 7914 C 774.691 -2.51707 -2.38421 0
M  V30 7915 C 773.752 -3.72917 -2.12676 0
M  V30 7916 C 772.985 -4.14891 -3.3571 0
M  V30 7917 O 773.208 -3.56663 -4.45137 0
M  V30 7918 O 772.142 -5.07616 -3.23434 0
M  V30 7919 H 775.968 -2.95612 -0.696205 0
M  V30 7920 H 773.553 -1.46787 -0.27819 0
M  V30 7921 H 775.435 -2.80547 -3.14438 0
M  V30 7922 H 774.11 -1.66842 -2.77391 0
M  V30 7923 H 773.017 -3.49148 -1.34337 0
M  V30 7924 H 774.35 -4.5866 -1.78583 0
M  V30 7925 N 776.003 0.335068 -1.53997 0
M  V30 7926 C 776.966 1.39481 -1.81872 0
M  V30 7927 C 777.966 1.4524 -0.690078 0
M  V30 7928 O 779.156 1.45467 -0.958377 0
M  V30 7929 C 776.288 2.78329 -1.9684 0
M  V30 7930 H 777.481 1.16024 -2.76547 0
M  V30 7931 H 775.034 0.569926 -1.45539 0
M  V30 7932 H 775.769 3.07058 -1.04337 0
M  V30 7933 H 775.554 2.75544 -2.78958 0
M  V30 7934 H 777.044 3.55016 -2.19894 0
M  V30 7935 N 777.481 1.45874 0.596531 0
M  V30 7936 C 778.727 1.5069 1.35722 0
M  V30 7937 C 779.06 0.152506 1.936 0
M  V30 7938 O 778.335 -0.834411 1.75692 0
M  V30 7939 C 778.618 2.59474 2.4969 0
M  V30 7940 C 778.471 4.04396 1.96937 0
M  V30 7941 C 779.79 2.64451 3.51787 0
M  V30 7942 H 776.909 0.548611 0.492133 0
M  V30 7943 H 779.551 1.77741 0.671428 0
M  V30 7944 H 777.701 2.36539 3.08191 0
M  V30 7945 H 779.373 4.38576 1.43 0
M  V30 7946 H 777.616 4.14529 1.27859 0
M  V30 7947 H 778.287 4.76218 2.79143 0
M  V30 7948 H 780.763 2.85031 3.03145 0
M  V30 7949 H 779.639 3.42411 4.29006 0
M  V30 7950 H 779.9 1.69965 4.08123 0
M  V30 7951 N 778.959 -0.83999 1.33349 0
M  V30 7952 C 779.906 -1.94972 1.23509 0
M  V30 7953 C 780.876 -1.65709 0.113967 0
M  V30 7954 O 782.061 -1.88552 0.292045 0
M  V30 7955 C 779.201 -3.30919 0.979105 0
M  V30 7956 C 778.314 -3.72587 2.18639 0
M  V30 7957 C 777.449 -4.97397 1.86465 0
M  V30 7958 C 776.488 -5.31597 3.03432 0
M  V30 7959 N 775.625 -6.47584 2.71254 0
M  V30 7960 H 780.465 -2.0272 2.18423 0
M  V30 7961 H 778.002 -0.992017 1.08616 0
M  V30 7962 H 779.96 -4.09239 0.811126 0
M  V30 7963 H 778.59 -3.22731 0.0667099 0
M  V30 7964 H 777.642 -2.89799 2.46416 0
M  V30 7965 H 778.954 -3.93844 3.06086 0
M  V30 7966 H 778.108 -5.83462 1.66305 0
M  V30 7967 H 776.847 -4.78107 0.96254 0
M  V30 7968 H 775.852 -4.44037 3.24208 0
M  V30 7969 H 777.077 -5.52836 3.94397 0
M  V30 7970 H 775.023 -6.29783 1.836 0
M  V30 7971 H 774.94 -6.68931 3.52231 0
M  V30 7972 H 776.208 -7.36764 2.54558 0
M  V30 7973 N 780.437 -1.16799 -1.0581 0
M  V30 7974 C 781.848 -0.95945 -1.60161 0
M  V30 7975 C 782.199 0.49543 -1.89842 0
M  V30 7976 O 781.324 1.36957 -1.67546 0
M  V30 7977 C 781.919 -1.73527 -2.90987 0
M  V30 7978 C 780.478 -1.57158 -3.42021 0
M  V30 7979 C 779.625 -1.74089 -2.15843 0
M  V30 7980 H 782.576 -1.31598 -0.886992 0
M  V30 7981 H 782.597 -1.21397 -3.60615 0
M  V30 7982 H 782.109 -2.79411 -2.69353 0
M  V30 7983 H 780.21 -0.537361 -3.68705 0
M  V30 7984 H 780.323 -2.35858 -4.17022 0
M  V30 7985 H 778.687 -1.16874 -2.26302 0
M  V30 7986 H 779.47 -2.81371 -1.96686 0
M  V30 7987 N 781.915 1.24427 -0.967243 0
M  V30 7988 C 783.162 1.92487 -0.62888 0
M  V30 7989 C 783.49 1.75623 0.835871 0
M  V30 7990 O 782.745 1.1027 1.61675 0
M  V30 7991 C 783.044 3.44568 -0.949096 0
M  V30 7992 C 782.71 3.816 -2.40192 0
M  V30 7993 C 781.372 3.9142 -2.799 0
M  V30 7994 C 783.724 3.99715 -3.34481 0
M  V30 7995 C 781.052 4.16771 -4.12939 0
M  V30 7996 C 783.404 4.26562 -4.67148 0
M  V30 7997 C 782.068 4.34601 -5.06634 0
M  V30 7998 H 781.338 0.704361 -0.230124 0
M  V30 7999 H 783.985 1.4772 -1.21864 0
M  V30 8000 H 782.29 3.90819 -0.277085 0
M  V30 8001 H 783.987 3.95436 -0.665692 0
M  V30 8002 H 780.577 3.74522 -2.08402 0
M  V30 8003 H 784.761 3.91531 -3.04987 0
M  V30 8004 H 780.017 4.21214 -4.43158 0
M  V30 8005 H 784.191 4.39523 -5.40178 0
M  V30 8006 H 781.818 4.53998 -6.09746 0
M  V30 8007 N 783.393 0.737304 1.3929 0
M  V30 8008 C 784.641 0.285691 2.00071 0
M  V30 8009 C 784.962 -1.13169 1.58801 0
M  V30 8010 O 784.232 -1.77104 0.837308 0
M  V30 8011 H 782.812 0.102638 0.739915 0
M  V30 8012 H 785.474 0.947775 1.70303 0
M  V30 8013 H 784.57 0.335906 3.10287 0
M  V30 8014 N 784.871 -1.49948 0.485112 0
M  V30 8015 C 785.801 -2.31675 -0.291364 0
M  V30 8016 C 786.782 -1.39216 -0.977383 0
M  V30 8017 O 787.967 -1.68133 -0.971855 0
M  V30 8018 C 785.097 -3.19326 -1.36558 0
M  V30 8019 C 784.051 -4.2045 -0.800359 0
M  V30 8020 C 783.377 -4.96931 -1.97391 0
M  V30 8021 C 784.677 -5.21925 0.197867 0
M  V30 8022 H 786.371 -2.96839 0.390775 0
M  V30 8023 H 783.917 -1.42749 0.189375 0
M  V30 8024 H 785.87 -3.75304 -1.91638 0
M  V30 8025 H 784.594 -2.52074 -2.07668 0
M  V30 8026 H 783.253 -3.65594 -0.271428 0
M  V30 8027 H 782.901 -4.26141 -2.67232 0
M  V30 8028 H 782.601 -5.65344 -1.60187 0
M  V30 8029 H 784.125 -5.55749 -2.52935 0
M  V30 8030 H 785.539 -5.72691 -0.264239 0
M  V30 8031 H 783.936 -5.98138 0.484908 0
M  V30 8032 H 785.006 -4.71809 1.11912 0
M  V30 8033 N 786.349 -0.21828 -1.56081 0
M  V30 8034 C 787.296 0.693189 -2.20144 0
M  V30 8035 C 788.266 1.19274 -1.15598 0
M  V30 8036 O 789.451 1.25243 -1.4394 0
M  V30 8037 C 786.591 1.89715 -2.88275 0
M  V30 8038 C 785.704 1.4368 -4.07407 0
M  V30 8039 C 784.839 2.59807 -4.63329 0
M  V30 8040 C 783.878 2.10492 -5.74769 0
M  V30 8041 N 783.015 3.1988 -6.24997 0
M  V30 8042 H 787.855 0.14016 -2.9767 0
M  V30 8043 H 785.392 0.0574292 -1.46988 0
M  V30 8044 H 787.35 2.60398 -3.25958 0
M  V30 8045 H 785.98 2.42311 -2.13273 0
M  V30 8046 H 785.032 0.625007 -3.7523 0
M  V30 8047 H 786.344 1.03517 -4.8794 0
M  V30 8048 H 785.498 3.38577 -5.03438 0
M  V30 8049 H 784.237 3.03256 -3.81951 0
M  V30 8050 H 783.242 1.30182 -5.34165 0
M  V30 8051 H 784.467 1.68045 -6.5798 0
M  V30 8052 H 782.413 3.62817 -5.46534 0
M  V30 8053 H 782.33 2.83958 -7.00645 0
M  V30 8054 H 783.598 3.98796 -6.69763 0
M  V30 8055 N 787.827 1.57504 0.0551401 0
M  V30 8056 C 789.073 1.88334 0.752216 0
M  V30 8057 C 789.406 0.812742 1.76375 0
M  V30 8058 O 788.681 -0.175198 1.93709 0
M  V30 8059 C 788.964 3.29824 1.44528 0
M  V30 8060 C 788.817 4.47553 0.449026 0
M  V30 8061 C 790.136 3.69808 2.38601 0
M  V30 8062 H 787.255 0.684973 0.271995 0
M  V30 8063 H 789.897 1.89994 0.0151895 0
M  V30 8064 H 788.047 3.28539 2.07351 0
M  V30 8065 H 789.719 4.60967 -0.175277 0
M  V30 8066 H 787.962 4.33168 -0.234162 0
M  V30 8067 H 788.633 5.43376 0.971917 0
M  V30 8068 H 791.109 3.72293 1.85842 0
M  V30 8069 H 789.985 4.69665 2.84088 0
M  V30 8070 H 790.246 3.00641 3.24141 0
M  V30 8071 N 789.305 -0.326896 1.54172 0
M  V30 8072 C 790.53 -1.08924 1.76494 0
M  V30 8073 C 790.955 -1.81039 0.510523 0
M  V30 8074 O 790.313 -1.73141 -0.537756 0
M  V30 8075 C 790.361 -2.06558 2.95578 0
M  V30 8076 O 789.465 -3.14394 2.6689 0
M  V30 8077 H 788.806 -0.314216 0.584948 0
M  V30 8078 H 791.336 -0.372207 2.01186 0
M  V30 8079 H 791.346 -2.49487 3.22832 0
M  V30 8080 H 790.021 -1.53469 3.86549 0
M  V30 8081 H 788.598 -2.76164 2.50576 0
M  V30 8082 N 790.784 -1.46188 -0.588786 0
M  V30 8083 C 791.716 -1.52319 -1.71265 0
M  V30 8084 C 792.729 -0.412096 -1.57498 0
M  V30 8085 O 793.918 -0.680146 -1.65034 0
M  V30 8086 C 791.018 -1.38164 -3.09458 0
M  V30 8087 C 790.191 -2.63284 -3.49286 0
M  V30 8088 C 789.25 -2.43415 -4.66514 0
M  V30 8089 O 788.276 -3.17113 -4.72682 0
M  V30 8090 N 789.478 -1.49187 -5.61002 0
M  V30 8091 H 792.243 -2.49219 -1.66463 0
M  V30 8092 H 789.804 -1.42167 -0.774601 0
M  V30 8093 H 791.796 -1.22653 -3.85666 0
M  V30 8094 H 790.366 -0.494678 -3.08661 0
M  V30 8095 H 789.586 -2.93779 -2.62845 0
M  V30 8096 H 790.874 -3.46413 -3.7266 0
M  V30 8097 H 790.272 -0.884027 -5.5875 0
M  V30 8098 H 788.829 -1.39642 -6.36666 0
M  V30 8099 N 792.262 0.832906 -1.33792 0
M  V30 8100 C 793.192 1.95828 -1.27176 0
M  V30 8101 C 794.173 1.69427 -0.15114 0
M  V30 8102 O 795.358 1.91167 -0.341886 0
M  V30 8103 C 792.488 3.32098 -1.01629 0
M  V30 8104 C 791.442 3.72912 -2.10049 0
M  V30 8105 C 790.768 5.07054 -1.69706 0
M  V30 8106 C 792.068 3.86064 -3.51783 0
M  V30 8107 H 793.762 2.01622 -2.21334 0
M  V30 8108 H 791.308 0.96866 -1.0655 0
M  V30 8109 H 793.261 4.10402 -0.956474 0
M  V30 8110 H 791.985 3.26577 -0.0390956 0
M  V30 8111 H 790.644 2.96876 -2.15082 0
M  V30 8112 H 790.292 4.9801 -0.706737 0
M  V30 8113 H 789.992 5.35333 -2.42264 0
M  V30 8114 H 791.516 5.87827 -1.65202 0
M  V30 8115 H 792.93 4.54665 -3.49218 0
M  V30 8116 H 791.327 4.25787 -4.22878 0
M  V30 8117 H 792.397 2.88344 -3.89854 0
M  V30 8118 N 793.74 1.17359 1.05189 0
M  V30 8119 C 794.67 0.91365 2.14883 0
M  V30 8120 C 795.651 -0.144365 1.69486 0
M  V30 8121 O 796.836 0.00587861 1.94199 0
M  V30 8122 C 793.966 0.426196 3.44675 0
M  V30 8123 C 792.92 1.4234 4.03638 0
M  V30 8124 C 792.246 0.793902 5.28773 0
M  V30 8125 C 793.546 2.7966 4.41121 0
M  V30 8126 H 795.24 1.831 2.36885 0
M  V30 8127 H 792.786 0.881781 1.13845 0
M  V30 8128 H 794.739 0.231767 4.20762 0
M  V30 8129 H 793.463 -0.526693 3.22325 0
M  V30 8130 H 792.122 1.60457 3.2962 0
M  V30 8131 H 791.77 -0.165824 5.02727 0
M  V30 8132 H 791.47 1.45959 5.69183 0
M  V30 8133 H 792.994 0.609747 6.07548 0
M  V30 8134 H 794.408 2.6526 5.08242 0
M  V30 8135 H 792.805 3.42807 4.92548 0
M  V30 8136 H 793.875 3.34068 3.51464 0
M  V30 8137 N 795.218 -1.23913 0.973828 0
M  V30 8138 C 796.148 -2.27453 0.527969 0
M  V30 8139 C 797.129 -1.6443 -0.435513 0
M  V30 8140 O 798.314 -1.9137 -0.330306 0
M  V30 8141 C 795.444 -3.4685 -0.176757 0
M  V30 8142 C 794.398 -4.22181 0.703352 0
M  V30 8143 C 793.724 -5.34534 -0.133215 0
M  V30 8144 C 795.024 -4.82865 1.99096 0
M  V30 8145 H 796.718 -2.65 1.3934 0
M  V30 8146 H 794.264 -1.27388 0.671446 0
M  V30 8147 H 796.217 -4.18424 -0.499934 0
M  V30 8148 H 794.941 -3.08346 -1.07659 0
M  V30 8149 H 793.6 -3.52416 1.00989 0
M  V30 8150 H 793.248 -4.92271 -1.03338 0
M  V30 8151 H 792.948 -5.85855 0.452494 0
M  V30 8152 H 794.472 -6.08933 -0.450924 0
M  V30 8153 H 795.886 -5.46481 1.73297 0
M  V30 8154 H 794.283 -5.44444 2.52389 0
M  V30 8155 H 795.353 -4.03977 2.68199 0
M  V30 8156 N 796.696 -0.74468 -1.38897 0
M  V30 8157 C 797.921 -0.306119 -2.05128 0
M  V30 8158 C 798.346 1.0541 -1.55789 0
M  V30 8159 O 797.704 1.66993 -0.705909 0
M  V30 8160 C 797.752 -0.328195 -3.59103 0
M  V30 8161 O 796.856 0.680876 -4.06741 0
M  V30 8162 H 796.197 -0.137209 -0.649669 0
M  V30 8163 H 798.727 -1.01331 -1.77745 0
M  V30 8164 H 798.737 -0.175956 -4.0762 0
M  V30 8165 H 797.412 -1.32067 -3.94374 0
M  V30 8166 H 795.989 0.49398 -3.69614 0
M  V30 8167 N 798.174 1.49689 -0.493057 0
M  V30 8168 C 799.402 2.06836 0.0513141 0
M  V30 8169 C 799.817 1.35436 1.31539 0
M  V30 8170 O 799.174 0.430248 1.77356 0
M  V30 8171 C 799.225 3.60107 0.317003 0
M  V30 8172 O 798.946 4.2882 -0.896957 0
M  V30 8173 C 800.447 4.33945 0.905902 0
M  V30 8174 H 797.667 0.670787 -0.0169048 0
M  V30 8175 H 800.211 1.92574 -0.688139 0
M  V30 8176 H 798.366 3.74099 1.00642 0
M  V30 8177 H 798.78 5.20395 -0.654939 0
M  V30 8178 H 800.254 5.42087 1.04144 0
M  V30 8179 H 800.731 3.95895 1.90168 0
M  V30 8180 H 801.337 4.2454 0.254195 0
M  V30 8181 N 799.652 0.226554 1.55963 0
M  V30 8182 C 800.929 -0.453058 1.90281 0
M  V30 8183 C 801.309 -1.77377 1.14458 0
M  V30 8184 O 800.657 -2.27067 0.255496 0
M  V30 8185 C 800.867 -0.641108 3.43061 0
M  V30 8186 C 802.215 -0.946265 4.13921 0
M  V30 8187 O 803.239 -0.727713 3.48687 0
M  V30 8188 O 802.098 -1.36131 5.29274 0
M  V30 8189 H 799.192 -0.240242 0.791336 0
M  V30 8190 H 801.738 0.26911 1.67553 0
M  V30 8191 H 800.51 0.290283 3.90222 0
M  V30 8192 H 800.133 -1.41458 3.71585 0
M  V30 8193 N 801.13 -1.57531 -0.0467866 0
M  V30 8194 C 802.04 -2.08768 -1.07018 0
M  V30 8195 C 803.056 -1.02245 -1.40791 0
M  V30 8196 O 804.232 -1.33873 -1.50466 0
M  V30 8197 C 801.297 -2.54221 -2.35738 0
M  V30 8198 C 800.358 -3.75152 -2.08709 0
M  V30 8199 C 799.591 -4.18428 -3.31291 0
M  V30 8200 O 799.814 -3.61365 -4.4133 0
M  V30 8201 O 798.748 -5.11018 -3.18032 0
M  V30 8202 H 802.574 -2.96334 -0.664812 0
M  V30 8203 H 800.159 -1.47074 -0.262605 0
M  V30 8204 H 802.041 -2.83866 -3.11445 0
M  V30 8205 H 800.716 -1.69774 -2.75605 0
M  V30 8206 H 799.623 -3.50553 -1.30627 0
M  V30 8207 H 800.956 -4.60528 -1.73708 0
M  V30 8208 N 802.608 0.318715 -1.54344 0
M  V30 8209 C 803.833 1.07987 -1.77069 0
M  V30 8210 C 804.258 1.80766 -0.520117 0
M  V30 8211 O 803.616 1.73424 0.528566 0
M  V30 8212 C 803.664 2.04987 -2.96669 0
M  V30 8213 O 802.768 3.12974 -2.68554 0
M  V30 8214 H 802.109 0.311109 -0.586606 0
M  V30 8215 H 804.639 0.361533 -2.0138 0
M  V30 8216 H 804.649 2.47771 -3.2415 0
M  V30 8217 H 803.324 1.51417 -3.87357 0
M  V30 8218 H 801.901 2.74831 -2.52037 0
M  V30 8219 N 804.086 1.46499 0.581025 0
M  V30 8220 C 805.314 1.5547 1.36517 0
M  V30 8221 C 805.729 0.196407 1.87776 0
M  V30 8222 O 805.086 -0.806577 1.63709 0
M  V30 8223 C 805.137 2.56084 2.55154 0
M  V30 8224 O 804.858 3.86637 2.06018 0
M  V30 8225 C 806.359 2.75011 3.47683 0
M  V30 8226 H 803.579 0.525703 0.416986 0
M  V30 8227 H 806.123 1.9192 0.706177 0
M  V30 8228 H 804.278 2.22633 3.17039 0
M  V30 8229 H 804.692 4.41413 2.83292 0
M  V30 8230 H 806.166 3.49329 4.27403 0
M  V30 8231 H 806.643 1.81978 3.99726 0
M  V30 8232 H 807.249 3.09565 2.91632 0
M  V30 8233 N 805.565 -0.825799 1.34232 0
M  V30 8234 C 806.812 -1.58185 1.26427 0
M  V30 8235 C 807.14 -1.93786 -0.166533 0
M  V30 8236 O 806.395 -1.59986 -1.12707 0
M  V30 8237 C 806.694 -2.89362 2.09772 0
M  V30 8238 C 806.36 -2.73066 3.58812 0
M  V30 8239 C 805.022 -2.68329 3.99441 0
M  V30 8240 C 807.374 -2.56946 4.53462 0
M  V30 8241 C 804.702 -2.4539 5.32917 0
M  V30 8242 C 807.054 -2.35538 5.87115 0
M  V30 8243 C 805.718 -2.29212 6.26912 0
M  V30 8244 H 804.988 -0.57884 0.462629 0
M  V30 8245 H 807.635 -0.955714 1.65947 0
M  V30 8246 H 805.94 -3.56251 1.63071 0
M  V30 8247 H 807.637 -3.4694 2.01081 0
M  V30 8248 H 804.227 -2.77591 3.26559 0
M  V30 8249 H 808.411 -2.59631 4.22972 0
M  V30 8250 H 803.667 -2.38947 5.62774 0
M  V30 8251 H 807.841 -2.22051 6.6005 0
M  V30 8252 H 805.468 -2.11197 7.30274 0
M  V30 8253 N 807.043 -1.17915 -1.04565 0
M  V30 8254 C 808.32 -0.881187 -1.74627 0
M  V30 8255 C 808.7 0.617123 -2.01878 0
M  V30 8256 O 808.048 1.57032 -1.65991 0
M  V30 8257 C 808.258 -1.72299 -3.03503 0
M  V30 8258 C 809.606 -1.94688 -3.77335 0
M  V30 8259 O 810.63 -1.6931 -3.13389 0
M  V30 8260 O 809.489 -2.37379 -4.92253 0
M  V30 8261 H 806.583 -0.326864 -0.759664 0
M  V30 8262 H 809.129 -1.28642 -1.10676 0
M  V30 8263 H 807.901 -2.73891 -2.79462 0
M  V30 8264 H 807.524 -1.31593 -3.75192 0
M  V30 8265 N 808.521 1.23394 -0.980386 0
M  V30 8266 C 809.798 1.87242 -0.565667 0
M  V30 8267 C 810.178 1.88151 0.957197 0
M  V30 8268 O 809.526 1.36309 1.8339 0
M  V30 8269 C 809.736 3.28743 -1.17172 0
M  V30 8270 C 811.084 4.05335 -1.26446 0
M  V30 8271 O 812.108 3.37962 -1.12517 0
M  V30 8272 O 810.967 5.25908 -1.48604 0
M  V30 8273 H 808.061 0.80477 -0.190459 0
M  V30 8274 H 810.607 1.3127 -1.07547 0
M  V30 8275 H 809.379 3.22647 -2.21392 0
M  V30 8276 H 809.002 3.92305 -0.646739 0
M  V30 8277 N 809.999 0.752036 1.385 0
M  V30 8278 C 811.248 0.304294 1.99391 0
M  V30 8279 C 811.561 -1.11982 1.60373 0
M  V30 8280 O 812.767 -1.66795 2.14223 0
M  V30 8281 C 811.223 0.493101 3.56506 0
M  V30 8282 C 810.831 1.9262 4.04477 0
M  V30 8283 C 812.575 0.107994 4.24363 0
M  V30 8284 C 810.482 2.06365 5.54227 0
M  V30 8285 H 809.412 0.110024 0.745929 0
M  V30 8286 H 812.063 0.928355 1.58284 0
M  V30 8287 H 810.445 -0.20012 3.95494 0
M  V30 8288 H 811.619 2.65276 3.76783 0
M  V30 8289 H 809.934 2.26608 3.49339 0
M  V30 8290 H 812.531 0.189474 5.34364 0
M  V30 8291 H 812.874 -0.939165 4.05568 0
M  V30 8292 H 813.407 0.753011 3.90608 0
M  V30 8293 H 810.146 3.0933 5.77923 0
M  V30 8294 H 809.666 1.38167 5.83669 0
M  V30 8295 H 811.345 1.85286 6.19902 0
M  V30 8296 N 811.477 -1.49425 0.500989 0
M  V30 8297 C 812.723 -2.02753 -0.0436 0
M  V30 8298 C 813.056 -1.37991 -1.36646 0
M  V30 8299 O 812.331 -0.515597 -1.87542 0
M  V30 8300 C 812.614 -3.59565 -0.19616 0
M  V30 8301 C 812.467 -4.34855 1.14982 0
M  V30 8302 C 813.786 -4.30014 -0.936795 0
M  V30 8303 H 810.905 -0.73686 -0.0143711 0
M  V30 8304 H 813.547 -1.78448 0.652397 0
M  V30 8305 H 811.697 -3.80405 -0.788959 0
M  V30 8306 H 813.369 -4.25512 1.7815 0
M  V30 8307 H 811.612 -3.97414 1.73911 0
M  V30 8308 H 812.283 -5.42933 0.996385 0
M  V30 8309 H 814.759 -4.1383 -0.434036 0
M  V30 8310 H 813.635 -5.39483 -1.01238 0
M  V30 8311 H 813.896 -3.95257 -1.9805 0
M  V30 8312 N 812.955 -0.234822 -1.55841 0
M  V30 8313 C 813.905 0.68346 -2.17515 0
M  V30 8314 C 814.889 1.14798 -1.1274 0
M  V30 8315 O 816.081 1.09976 -1.38688 0
M  V30 8316 C 813.21 1.88551 -2.86886 0
M  V30 8317 C 812.296 1.44006 -3.98903 0
M  V30 8318 N 812.687 0.708034 -5.0082 0
M  V30 8319 C 810.985 1.7263 -4.11236 0
M  V30 8320 C 811.686 0.479036 -5.79724 0
M  V30 8321 N 810.662 1.03968 -5.33565 0
M  V30 8322 H 814.464 0.115897 -2.93671 0
M  V30 8323 H 811.978 -0.0366273 -1.62359 0
M  V30 8324 H 813.975 2.55425 -3.2949 0
M  V30 8325 H 812.635 2.45742 -2.12229 0
M  V30 8326 H 813.646 0.359363 -5.16652 0
M  V30 8327 H 810.323 2.31046 -3.47741 0
M  V30 8328 H 811.713 -0.104514 -6.71819 0
M  V30 8329 N 814.433 1.57553 0.0384317 0
M  V30 8330 C 815.658 1.93485 0.746872 0
M  V30 8331 C 816.083 0.834069 1.68597 0
M  V30 8332 O 815.441 -0.210902 1.80069 0
M  V30 8333 C 815.489 3.28463 1.4881 0
M  V30 8334 O 814.593 3.20051 2.60079 0
M  V30 8335 H 813.934 0.632675 0.201539 0
M  V30 8336 H 816.464 2.046 -0.00329815 0
M  V30 8337 H 816.474 3.63132 1.86009 0
M  V30 8338 H 815.149 4.08147 0.799297 0
M  V30 8339 H 813.726 2.96998 2.25492 0
M  V30 8340 N 815.911 -0.310526 1.54511 0
M  V30 8341 C 817.158 -1.04691 1.73338 0
M  V30 8342 C 817.486 -1.87584 0.514038 0
M  V30 8343 O 816.741 -1.89096 -0.504119 0
M  V30 8344 C 817.04 -1.98942 2.96912 0
M  V30 8345 C 816.706 -1.321 4.31115 0
M  V30 8346 C 815.368 -1.13603 4.67598 0
M  V30 8347 C 817.72 -0.842362 5.14348 0
M  V30 8348 C 815.048 -0.459102 5.84901 0
M  V30 8349 C 817.4 -0.179202 6.32346 0
M  V30 8350 C 816.064 0.0178111 6.67498 0
M  V30 8351 H 815.334 -0.38309 0.634289 0
M  V30 8352 H 817.981 -0.322723 1.88761 0
M  V30 8353 H 816.286 -2.77856 2.76231 0
M  V30 8354 H 817.983 -2.55972 3.08674 0
M  V30 8355 H 814.573 -1.47502 4.02419 0
M  V30 8356 H 818.757 -0.973013 4.86668 0
M  V30 8357 H 814.013 -0.295385 6.10686 0
M  V30 8358 H 818.187 0.199619 6.96114 0
M  V30 8359 H 815.814 0.544356 7.58249 0
M  V30 8360 N 817.389 -1.46805 -0.573248 0
M  V30 8361 C 818.635 -1.5283 -1.33307 0
M  V30 8362 C 818.968 -0.183287 -1.93333 0
M  V30 8363 O 818.243 0.806354 -1.76998 0
M  V30 8364 C 818.526 -2.63414 -2.45531 0
M  V30 8365 C 818.379 -4.07478 -1.90478 0
M  V30 8366 C 819.698 -2.70014 -3.47535 0
M  V30 8367 H 816.817 -0.556371 -0.483343 0
M  V30 8368 H 819.459 -1.78787 -0.643066 0
M  V30 8369 H 817.609 -2.41412 -3.04389 0
M  V30 8370 H 819.281 -4.40795 -1.36004 0
M  V30 8371 H 817.524 -4.16511 -1.21248 0
M  V30 8372 H 818.195 -4.80598 -2.71531 0
M  V30 8373 H 820.671 -2.89817 -2.98572 0
M  V30 8374 H 819.547 -3.49192 -4.23504 0
M  V30 8375 H 819.808 -1.76436 -4.05367 0
M  V30 8376 N 818.867 0.818669 -1.34668 0
M  V30 8377 C 820.092 1.61193 -1.30505 0
M  V30 8378 C 820.517 1.87734 0.117341 0
M  V30 8379 O 819.875 1.45591 1.08042 0
M  V30 8380 C 819.923 2.92733 -2.1057 0
M  V30 8381 O 819.027 3.85 -1.47813 0
M  V30 8382 H 818.368 0.490085 -0.44801 0
M  V30 8383 H 820.898 1.01701 -1.77534 0
M  V30 8384 H 820.908 3.42262 -2.22082 0
M  V30 8385 H 819.583 2.7274 -3.13984 0
M  V30 8386 H 818.16 3.43525 -1.45069 0
M  V30 8387 N 820.346 1.18468 1.03938 0
M  V30 8388 C 821.276 0.936389 2.13902 0
M  V30 8389 C 822.257 -0.126381 1.6963 0
M  V30 8390 O 823.442 0.0264757 1.94182 0
M  V30 8391 C 820.572 0.462729 3.44204 0
M  V30 8392 C 819.526 1.46613 4.02105 0
M  V30 8393 C 818.852 0.84994 5.27902 0
M  V30 8394 C 820.152 2.84323 4.3813 0
M  V30 8395 H 821.846 1.85602 2.3493 0
M  V30 8396 H 819.392 0.893806 1.12903 0
M  V30 8397 H 821.345 0.276382 4.20493 0
M  V30 8398 H 820.069 -0.492477 3.22866 0
M  V30 8399 H 818.728 1.63944 3.27899 0
M  V30 8400 H 818.376 -0.112493 5.02874 0
M  V30 8401 H 818.076 1.51988 5.67603 0
M  V30 8402 H 819.6 0.674152 6.06867 0
M  V30 8403 H 821.014 2.70636 5.054 0
M  V30 8404 H 819.411 3.48012 4.88884 0
M  V30 8405 H 820.481 3.37776 3.47901 0
M  V30 8406 N 821.824 -1.22873 0.986916 0
M  V30 8407 C 823.052 -1.95487 0.677663 0
M  V30 8408 C 823.467 -1.72978 -0.756572 0
M  V30 8409 O 822.824 -1.02517 -1.50985 0
M  V30 8410 C 822.875 -3.48337 0.966638 0
M  V30 8411 O 822.596 -3.70087 2.34451 0
M  V30 8412 C 824.097 -4.38142 0.674248 0
M  V30 8413 H 821.317 -0.622211 0.251185 0
M  V30 8414 H 823.861 -1.56187 1.32007 0
M  V30 8415 H 822.016 -3.85628 0.370137 0
M  V30 8416 H 822.43 -4.64332 2.43918 0
M  V30 8417 H 823.904 -5.44165 0.926759 0
M  V30 8418 H 824.381 -4.3745 -0.391728 0
M  V30 8419 H 824.987 -4.06469 1.25152 0
M  V30 8420 N 823.302 -0.75937 -1.38099 0
M  V30 8421 C 824.265 -0.14372 -2.28749 0
M  V30 8422 C 825.265 0.641338 -1.47457 0
M  V30 8423 O 826.455 0.466751 -1.67831 0
M  V30 8424 C 823.587 0.804545 -3.3127 0
M  V30 8425 H 824.78 -0.942663 -2.847 0
M  V30 8426 H 822.333 -0.526757 -1.47156 0
M  V30 8427 H 823.068 1.62895 -2.80421 0
M  V30 8428 H 822.853 0.243939 -3.9134 0
M  V30 8429 H 824.343 1.23111 -3.99041 0
M  V30 8430 N 824.78 1.49157 -0.508906 0
M  V30 8431 C 826.029 2.0167 0.0346854 0
M  V30 8432 C 826.342 1.39302 1.37311 0
M  V30 8433 O 827.548 1.83189 2.00385 0
M  V30 8434 C 826.004 3.59725 0.112261 0
M  V30 8435 C 825.612 4.31069 -1.21999 0
M  V30 8436 C 827.356 4.20155 0.605798 0
M  V30 8437 C 825.263 5.81001 -1.10415 0
M  V30 8438 H 824.193 0.753814 0.0167355 0
M  V30 8439 H 826.844 1.7162 -0.649518 0
M  V30 8440 H 825.226 3.86525 0.861087 0
M  V30 8441 H 826.4 4.15962 -1.98273 0
M  V30 8442 H 824.715 3.82418 -1.64759 0
M  V30 8443 H 827.312 5.29964 0.710102 0
M  V30 8444 H 827.655 3.84051 1.60656 0
M  V30 8445 H 828.188 3.97705 -0.0867239 0
M  V30 8446 H 824.927 6.21643 -2.07941 0
M  V30 8447 H 824.447 5.9858 -0.382428 0
M  V30 8448 H 826.126 6.42207 -0.786116 0
M  V30 8449 N 826.258 0.243083 1.55714 0
M  V30 8450 C 827.19 -0.690766 2.18543 0
M  V30 8451 C 828.203 -1.14163 1.16064 0
M  V30 8452 O 829.392 -1.06906 1.42946 0
M  V30 8453 C 826.492 -1.95016 2.77168 0
M  V30 8454 C 825.665 -1.65137 4.05029 0
M  V30 8455 C 824.724 -2.75998 4.48009 0
M  V30 8456 O 823.75 -2.43547 5.14464 0
M  V30 8457 N 824.952 -4.05414 4.15476 0
M  V30 8458 H 827.717 -0.153203 2.99308 0
M  V30 8459 H 825.278 0.0628968 1.61778 0
M  V30 8460 H 827.27 -2.68414 3.0288 0
M  V30 8461 H 825.84 -2.39762 2.00582 0
M  V30 8462 H 825.06 -0.752768 3.86946 0
M  V30 8463 H 826.348 -1.42633 4.88399 0
M  V30 8464 H 825.746 -4.34613 3.62116 0
M  V30 8465 H 824.303 -4.75288 4.46032 0
M  V30 8466 N 827.736 -1.57571 -0.0300757 0
M  V30 8467 C 828.985 -1.88407 -0.720126 0
M  V30 8468 C 829.298 -0.841466 -1.76575 0
M  V30 8469 O 830.504 -1.03902 -2.50832 0
M  V30 8470 C 828.96 -3.34348 -1.33188 0
M  V30 8471 C 828.568 -4.46837 -0.32266 0
M  V30 8472 C 830.312 -3.74333 -2.00187 0
M  V30 8473 C 828.219 -5.83838 -0.942703 0
M  V30 8474 H 827.149 -0.702952 -0.272718 0
M  V30 8475 H 829.8 -1.83482 0.0255337 0
M  V30 8476 H 828.182 -3.34014 -2.12721 0
M  V30 8477 H 829.356 -4.58638 0.445887 0
M  V30 8478 H 827.671 -4.15678 0.245181 0
M  V30 8479 H 830.268 -4.74008 -2.47428 0
M  V30 8480 H 830.611 -3.06275 -2.81959 0
M  V30 8481 H 831.144 -3.76837 -1.2743 0
M  V30 8482 H 827.883 -6.55294 -0.164413 0
M  V30 8483 H 827.403 -5.75759 -1.68111 0
M  V30 8484 H 829.082 -6.30535 -1.45034 0
M  V30 8485 N 829.214 0.302327 -1.54673 0
M  V30 8486 C 830.462 1.03565 -1.73547 0
M  V30 8487 C 830.783 1.87843 -0.523448 0
M  V30 8488 O 830.053 1.90367 0.462295 0
M  V30 8489 H 828.633 0.385358 -0.639928 0
M  V30 8490 H 831.295 0.333632 -1.92023 0
M  V30 8491 H 830.391 1.68952 -2.62415 0
M  V30 8492 N 830.692 1.47107 0.565454 0
M  V30 8493 C 831.622 1.61846 1.68309 0
M  V30 8494 C 832.603 0.468159 1.63531 0
M  V30 8495 O 833.788 0.696504 1.8128 0
M  V30 8496 C 830.918 1.62474 3.06952 0
M  V30 8497 C 829.872 2.76649 3.26572 0
M  V30 8498 C 829.198 2.62345 4.65917 0
M  V30 8499 C 830.498 4.18319 3.12741 0
M  V30 8500 H 832.192 2.55407 1.5623 0
M  V30 8501 H 829.738 1.22916 0.750179 0
M  V30 8502 H 831.691 1.71378 3.84977 0
M  V30 8503 H 830.415 0.654692 3.19971 0
M  V30 8504 H 829.074 2.67242 2.50952 0
M  V30 8505 H 828.722 1.63386 4.75725 0
M  V30 8506 H 828.422 3.38936 4.79996 0
M  V30 8507 H 829.946 2.73165 5.46089 0
M  V30 8508 H 831.36 4.28745 3.80593 0
M  V30 8509 H 829.757 4.95632 3.38333 0
M  V30 8510 H 830.827 4.37263 2.09592 0
M  V30 8511 N 832.17 -0.811516 1.35101 0
M  V30 8512 C 833.419 -1.56343 1.27435 0
M  V30 8513 C 833.732 -1.95019 -0.150696 0
M  V30 8514 O 834.938 -2.6924 -0.349586 0
M  V30 8515 C 833.394 -2.82124 2.23459 0
M  V30 8516 C 833.002 -2.50706 3.71283 0
M  V30 8517 C 834.746 -3.60137 2.24726 0
M  V30 8518 C 832.653 -3.72748 4.59143 0
M  V30 8519 H 831.583 -0.58682 0.473453 0
M  V30 8520 H 834.234 -0.892465 1.60335 0
M  V30 8521 H 832.616 -3.50905 1.83525 0
M  V30 8522 H 833.79 -1.89962 4.19823 0
M  V30 8523 H 832.105 -1.85947 3.72576 0
M  V30 8524 H 834.702 -4.50775 2.87587 0
M  V30 8525 H 835.045 -3.97101 1.24965 0
M  V30 8526 H 835.578 -2.98311 2.63164 0
M  V30 8527 H 832.317 -3.40896 5.59884 0
M  V30 8528 H 831.837 -4.32735 4.15332 0
M  V30 8529 H 833.516 -4.40033 4.74321 0
M  V30 8530 N 833.648 -1.19017 -1.03309 0
M  V30 8531 C 834.925 -0.899659 -1.73682 0
M  V30 8532 C 835.305 0.595677 -2.02521 0
M  V30 8533 O 834.653 1.55263 -1.67648 0
M  V30 8534 C 834.863 -1.75508 -3.01659 0
M  V30 8535 C 836.211 -1.98679 -3.75249 0
M  V30 8536 O 837.235 -1.72624 -3.11576 0
M  V30 8537 O 836.094 -2.42587 -4.89708 0
M  V30 8538 H 833.188 -0.334903 -0.756154 0
M  V30 8539 H 835.734 -1.29809 -1.09305 0
M  V30 8540 H 834.506 -2.7684 -2.76542 0
M  V30 8541 H 834.129 -1.35565 -3.73775 0
M  V30 8542 N 835.127 1.22348 -0.993418 0
M  V30 8543 C 836.057 2.26584 -0.564088 0
M  V30 8544 C 837.038 1.65102 0.409298 0
M  V30 8545 O 838.223 1.91872 0.299819 0
M  V30 8546 C 835.353 3.47087 0.121554 0
M  V30 8547 C 834.307 4.21009 -0.770429 0
M  V30 8548 C 833.633 5.34678 0.0481586 0
M  V30 8549 C 834.933 4.79636 -2.06752 0
M  V30 8550 H 836.627 2.62749 -1.43538 0
M  V30 8551 H 834.173 1.26303 -0.691628 0
M  V30 8552 H 836.126 4.19166 0.433303 0
M  V30 8553 H 834.85 3.1002 1.0274 0
M  V30 8554 H 833.509 3.50764 -1.06583 0
M  V30 8555 H 833.157 4.93852 0.954933 0
M  V30 8556 H 832.857 5.85061 -0.545641 0
M  V30 8557 H 834.381 6.09573 0.353991 0
M  V30 8558 H 835.795 5.43654 -1.81969 0
M  V30 8559 H 834.192 5.4036 -2.61019 0
M  V30 8560 H 835.262 3.99659 -2.74592 0
M  V30 8561 N 836.605 0.766683 1.37694 0
M  V30 8562 C 837.535 0.163432 2.32927 0
M  V30 8563 C 838.516 -0.688861 1.55527 0
M  V30 8564 O 839.701 -0.627363 1.83787 0
M  V30 8565 C 836.831 -0.720416 3.39746 0
M  V30 8566 C 835.785 0.0301718 4.27989 0
M  V30 8567 C 835.111 -0.972788 5.25776 0
M  V30 8568 C 836.411 1.20623 5.0818 0
M  V30 8569 H 838.105 0.958988 2.83626 0
M  V30 8570 H 835.651 0.462601 1.36367 0
M  V30 8571 H 837.604 -1.15221 4.05342 0
M  V30 8572 H 836.328 -1.54844 2.8756 0
M  V30 8573 H 834.987 0.442685 3.63917 0
M  V30 8574 H 834.635 -1.79522 4.69873 0
M  V30 8575 H 834.335 -0.475145 5.85676 0
M  V30 8576 H 835.859 -1.40362 5.94248 0
M  V30 8577 H 837.273 0.851341 5.66944 0
M  V30 8578 H 835.67 1.63561 5.7738 0
M  V30 8579 H 836.74 2.01281 4.41151 0
M  V30 8580 N 838.083 -1.48885 0.516809 0
M  V30 8581 C 839.308 -2.0739 -0.0205201 0
M  V30 8582 C 839.733 -1.37259 -1.28614 0
M  V30 8583 O 839.091 -0.434304 -1.76021 0
M  V30 8584 C 839.139 -3.59793 -0.24104 0
M  V30 8585 O 838.243 -3.90957 -1.31251 0
M  V30 8586 H 837.584 -0.663167 0.0332564 0
M  V30 8587 H 840.114 -1.91477 0.720956 0
M  V30 8588 H 840.124 -4.0531 -0.467737 0
M  V30 8589 H 838.799 -4.10244 0.68356 0
M  V30 8590 H 837.376 -3.57234 -1.06951 0
M  V30 8591 N 839.561 -0.251338 -1.55583 0
M  V30 8592 C 840.801 0.373651 -2.00956 0
M  V30 8593 C 841.165 1.54806 -1.13574 0
M  V30 8594 O 842.366 2.24108 -1.48422 0
M  V30 8595 C 840.637 0.768919 -3.49031 0
M  V30 8596 S 842.196 1.38381 -4.16409 0
M  V30 8597 H 839.014 0.117371 -0.701245 0
M  V30 8598 H 841.616 -0.367611 -1.92013 0
M  V30 8599 H 840.32 -0.0950492 -4.1029 0
M  V30 8600 H 839.851 1.54225 -3.61909 0
M  V30 8601 H 841.866 2.6728 -4.18062 0
M  V30 8602 N 841.039 1.57585 0.0217189 0
M  V30 8603 C 841.972 2.02435 1.05334 0
M  V30 8604 C 842.95 0.91006 1.34747 0
M  V30 8605 O 844.134 1.17648 1.47279 0
M  V30 8606 C 841.261 2.40362 2.38629 0
M  V30 8607 C 840.307 3.62307 2.25025 0
M  V30 8608 S 841.14 5.11141 1.59673 0
M  V30 8609 C 842.296 5.52316 2.94444 0
M  V30 8610 H 842.529 2.89621 0.671354 0
M  V30 8611 H 840.062 1.52648 0.231925 0
M  V30 8612 H 842.02 2.62883 3.15282 0
M  V30 8613 H 840.681 1.53615 2.73973 0
M  V30 8614 H 839.874 3.86523 3.23443 0
M  V30 8615 H 839.476 3.39675 1.56515 0
M  V30 8616 H 841.768 5.53449 3.90768 0
M  V30 8617 H 842.711 6.52539 2.74952 0
M  V30 8618 H 843.119 4.79834 2.97355 0
M  V30 8619 N 842.517 -0.29412 1.54831 0
M  V30 8620 C 843.765 -1.02643 1.74094 0
M  V30 8621 C 844.086 -1.87563 0.533402 0
M  V30 8622 O 843.356 -1.9061 -0.452192 0
M  V30 8623 H 841.936 -0.381959 0.641963 0
M  V30 8624 H 844.598 -0.323444 1.92197 0
M  V30 8625 H 843.694 -1.67558 2.63307 0
M  V30 8626 N 843.995 -1.47404 -0.557645 0
M  V30 8627 C 844.925 -1.62736 -1.67449 0
M  V30 8628 C 845.906 -0.476824 -1.6328 0
M  V30 8629 O 847.091 -0.706108 -1.80908 0
M  V30 8630 C 844.221 -1.641 -3.06086 0
M  V30 8631 C 843.175 -2.78377 -3.25101 0
M  V30 8632 C 842.501 -2.64812 -4.6452 0
M  V30 8633 C 843.801 -4.19971 -3.10518 0
M  V30 8634 H 845.495 -2.56232 -1.54873 0
M  V30 8635 H 843.041 -1.23312 -0.743649 0
M  V30 8636 H 844.994 -1.73417 -3.84063 0
M  V30 8637 H 843.718 -0.671652 -3.19619 0
M  V30 8638 H 842.377 -2.6857 -2.49531 0
M  V30 8639 H 842.025 -1.65906 -4.74852 0
M  V30 8640 H 841.725 -3.41477 -4.78191 0
M  V30 8641 H 843.249 -2.76057 -5.44633 0
M  V30 8642 H 844.663 -4.30757 -3.78313 0
M  V30 8643 H 843.06 -4.97419 -3.35699 0
M  V30 8644 H 844.13 -4.38369 -2.0727 0
M  V30 8645 N 845.473 0.80434 -1.35529 0
M  V30 8646 C 846.889 1.10023 -1.15616 0
M  V30 8647 C 847.089 2.01478 0.0298535 0
M  V30 8648 O 846.145 2.42609 0.699778 0
M  V30 8649 C 847.458 1.72905 -2.46017 0
M  V30 8650 C 849.006 1.85315 -2.52245 0
M  V30 8651 C 849.481 2.51612 -3.82695 0
M  V30 8652 N 850.972 2.59095 -3.83958 0
M  V30 8653 C 851.707 3.11167 -4.81625 0
M  V30 8654 N 851.203 3.63659 -5.89681 0
M  V30 8655 N 852.996 3.09741 -4.6906 0
M  V30 8656 H 845.147 0.196428 -2.1149 0
M  V30 8657 H 847.41 0.149735 -0.9361 0
M  V30 8658 H 847.116 1.13171 -3.32994 0
M  V30 8659 H 846.99 2.72579 -2.6073 0
M  V30 8660 H 849.377 2.44191 -1.65695 0
M  V30 8661 H 849.458 0.844886 -2.41444 0
M  V30 8662 H 849.102 1.93385 -4.69643 0
M  V30 8663 H 849.032 3.5298 -3.90785 0
M  V30 8664 H 851.523 2.21908 -3.05884 0
M  V30 8665 H 851.836 4.01699 -6.60195 0
M  V30 8666 H 850.181 3.61852 -5.9337 0
M  V30 8667 H 853.372 2.68011 -3.83781 0
M  V30 8668 H 853.545 3.50016 -5.45338 0
M  V30 8669 N 846.951 1.19563 1.02676 0
M  V30 8670 C 848.362 1.00158 1.57561 0
M  V30 8671 C 848.713 -0.444922 1.91089 0
M  V30 8672 O 847.838 -1.32466 1.71119 0
M  V30 8673 C 848.433 1.81181 2.86284 0
M  V30 8674 C 846.992 1.66171 3.37734 0
M  V30 8675 C 846.139 1.7975 2.11152 0
M  V30 8676 H 849.09 1.33904 0.85179 0
M  V30 8677 H 849.111 1.30916 3.57269 0
M  V30 8678 H 848.623 2.86454 2.6185 0
M  V30 8679 H 846.724 0.634927 3.6715 0
M  V30 8680 H 846.837 2.46832 4.10622 0
M  V30 8681 H 845.201 1.22833 2.23123 0
M  V30 8682 H 845.984 2.86487 1.89157 0
M  V30 8683 N 848.429 -1.21819 0.999893 0
M  V30 8684 C 849.706 -1.86318 0.595384 0
M  V30 8685 C 850.086 -1.8965 -0.927143 0
M  V30 8686 O 849.434 -1.3921 -1.81199 0
M  V30 8687 C 849.644 -3.26837 1.22387 0
M  V30 8688 C 850.992 -4.03272 1.32878 0
M  V30 8689 O 852.016 -3.36129 1.1788 0
M  V30 8690 O 850.875 -5.23477 1.56952 0
M  V30 8691 H 847.969 -0.801638 0.203238 0
M  V30 8692 H 850.515 -1.29542 1.09622 0
M  V30 8693 H 849.287 -3.19084 2.26497 0
M  V30 8694 H 848.91 -3.91226 0.709069 0
M  V30 8695 N 849.908 -0.773975 -1.37286 0
M  V30 8696 C 851.156 -0.338636 -1.99243 0
M  V30 8697 C 851.477 1.08919 -1.61746 0
M  V30 8698 O 850.747 1.74822 -0.88397 0
M  V30 8699 H 849.327 -0.12222 -0.736934 0
M  V30 8700 H 851.989 -0.992595 -1.67731 0
M  V30 8701 H 851.085 -0.418055 -3.09287 0
M  V30 8702 N 851.386 1.48609 -0.524698 0
M  V30 8703 C 852.635 2.01696 0.0132937 0
M  V30 8704 C 852.948 1.40751 1.35825 0
M  V30 8705 O 854.154 1.85304 1.9843 0
M  V30 8706 C 852.61 3.59824 0.0741012 0
M  V30 8707 C 852.218 4.2975 -1.26564 0
M  V30 8708 C 853.962 4.20774 0.5612 0
M  V30 8709 C 851.869 5.79798 -1.16571 0
M  V30 8710 H 850.799 0.753949 0.00873931 0
M  V30 8711 H 853.45 1.70922 -0.667684 0
M  V30 8712 H 851.832 3.87416 0.820043 0
M  V30 8713 H 853.006 4.13836 -2.02674 0
M  V30 8714 H 851.321 3.80649 -1.68806 0
M  V30 8715 H 853.918 5.30687 0.653853 0
M  V30 8716 H 854.261 3.85734 1.56573 0
M  V30 8717 H 854.794 3.97591 -0.128901 0
M  V30 8718 H 851.533 6.19403 -2.14523 0
M  V30 8719 H 851.053 5.9814 -0.445894 0
M  V30 8720 H 852.732 6.41337 -0.854186 0
M  V30 8721 N 852.864 0.259585 1.55447 0
M  V30 8722 C 854.11 -0.362143 1.9954 0
M  V30 8723 C 854.443 -1.5666 1.14767 0
M  V30 8724 O 853.718 -1.93319 0.214025 0
M  V30 8725 C 854.001 -0.759588 3.51998 0
M  V30 8726 C 853.854 0.451134 4.47532 0
M  V30 8727 C 855.173 -1.60186 4.09913 0
M  V30 8728 H 852.292 -0.130157 0.725416 0
M  V30 8729 H 854.934 0.363431 1.86492 0
M  V30 8730 H 853.084 -1.3778 3.63248 0
M  V30 8731 H 854.756 1.08965 4.48246 0
M  V30 8732 H 852.999 1.092 4.19831 0
M  V30 8733 H 853.67 0.129518 5.51848 0
M  V30 8734 H 856.146 -1.0799 4.01842 0
M  V30 8735 H 855.022 -1.84879 5.16828 0
M  V30 8736 H 855.283 -2.57787 3.59163 0
M  V30 8737 N 854.342 -1.57594 -0.0133615 0
M  V30 8738 C 855.59 -1.89605 -0.699596 0
M  V30 8739 C 855.911 -0.85926 -1.75048 0
M  V30 8740 O 855.181 0.105112 -1.95618 0
M  V30 8741 H 853.761 -0.699776 -0.261385 0
M  V30 8742 H 856.423 -1.94885 0.0244044 0
M  V30 8743 H 855.519 -2.88962 -1.17928 0
M  V30 8744 N 855.82 0.285905 -1.54985 0
M  V30 8745 C 856.77 1.35505 -1.83364 0
M  V30 8746 C 857.754 1.45273 -0.691698 0
M  V30 8747 O 858.946 1.49172 -0.952725 0
M  V30 8748 C 856.075 2.71756 -2.0977 0
M  V30 8749 C 855.161 2.6615 -3.30189 0
M  V30 8750 N 855.552 2.30161 -4.50399 0
M  V30 8751 C 853.85 2.97232 -3.3252 0
M  V30 8752 C 854.551 2.34228 -5.32459 0
M  V30 8753 N 853.527 2.72187 -4.70548 0
M  V30 8754 H 857.329 1.06668 -2.7386 0
M  V30 8755 H 854.843 0.494521 -1.54688 0
M  V30 8756 H 856.84 3.48864 -2.28253 0
M  V30 8757 H 855.5 3.01492 -1.20551 0
M  V30 8758 H 856.511 2.02358 -4.7673 0
M  V30 8759 H 853.188 3.31764 -2.53454 0
M  V30 8760 H 854.578 2.09074 -6.38543 0
M  V30 8761 N 857.298 1.47698 0.54982 0
M  V30 8762 C 858.523 1.58579 1.33669 0
M  V30 8763 C 858.948 0.239049 1.86575 0
M  V30 8764 O 858.306 -0.786256 1.63364 0
M  V30 8765 C 858.354 2.62029 2.47736 0
M  V30 8766 O 857.458 2.17813 3.50188 0
M  V30 8767 H 856.799 0.532447 0.396732 0
M  V30 8768 H 859.329 1.93536 0.6637 0
M  V30 8769 H 859.339 2.82682 2.94202 0
M  V30 8770 H 858.014 3.59812 2.08586 0
M  V30 8771 H 856.591 2.07291 3.09976 0
M  V30 8772 N 858.776 -0.797141 1.35954 0
M  V30 8773 C 859.706 -1.92387 1.32323 0
M  V30 8774 C 860.687 -1.68967 0.196007 0
M  V30 8775 O 861.872 -1.90193 0.39245 0
M  V30 8776 C 859.002 -3.29286 1.10398 0
M  V30 8777 C 857.956 -3.67212 2.19862 0
M  V30 8778 C 857.282 -5.02377 1.8309 0
M  V30 8779 C 858.582 -3.76602 3.61896 0
M  V30 8780 H 860.276 -1.95683 2.26602 0
M  V30 8781 H 857.822 -0.94007 1.09081 0
M  V30 8782 H 859.775 -4.07721 1.06495 0
M  V30 8783 H 858.499 -3.26358 0.125668 0
M  V30 8784 H 857.158 -2.91069 2.22878 0
M  V30 8785 H 856.806 -4.95961 0.838527 0
M  V30 8786 H 856.506 -5.28722 2.56372 0
M  V30 8787 H 858.03 -5.8324 1.80729 0
M  V30 8788 H 859.444 -4.45246 3.6115 0
M  V30 8789 H 857.841 -4.14425 4.34018 0
M  V30 8790 H 858.911 -2.77906 3.97361 0
M  V30 8791 N 860.254 -1.20106 -1.0204 0
M  V30 8792 C 861.502 -1.0069 -1.75231 0
M  V30 8793 C 861.823 0.462491 -1.89436 0
M  V30 8794 O 861.093 1.33455 -1.4341 0
M  V30 8795 H 859.673 -0.369576 -0.649171 0
M  V30 8796 H 862.335 -1.51149 -1.23044 0
M  V30 8797 H 861.431 -1.46205 -2.75736 0
M  V30 8798 N 861.732 1.21287 -1.00634 0
M  V30 8799 C 862.642 2.27388 -0.577226 0
M  V30 8800 C 863.658 1.69791 0.380399 0
M  V30 8801 O 864.834 1.99918 0.2439 0
M  V30 8802 C 861.899 3.46588 0.0880532 0
M  V30 8803 C 860.96 4.19453 -0.914222 0
M  V30 8804 C 860.193 5.32962 -0.280596 0
M  V30 8805 O 860.416 5.62895 0.922265 0
M  V30 8806 O 859.35 5.93666 -0.992196 0
M  V30 8807 H 863.176 2.66289 -1.46028 0
M  V30 8808 H 860.761 1.2771 -0.775283 0
M  V30 8809 H 862.643 4.18881 0.460094 0
M  V30 8810 H 861.318 3.09585 0.945461 0
M  V30 8811 H 860.225 3.49376 -1.33744 0
M  V30 8812 H 861.558 4.6037 -1.74126 0
M  V30 8813 N 863.21 0.781244 1.36873 0
M  V30 8814 C 864.456 0.350407 1.9975 0
M  V30 8815 C 864.789 -1.07293 1.6187 0
M  V30 8816 O 864.064 -1.73983 0.869491 0
M  V30 8817 C 864.347 0.504834 3.56544 0
M  V30 8818 C 864.2 1.97127 4.04303 0
M  V30 8819 C 865.519 -0.0851272 4.40018 0
M  V30 8820 H 862.638 0.128794 0.725659 0
M  V30 8821 H 865.28 0.98606 1.6241 0
M  V30 8822 H 863.43 -0.0363006 3.88483 0
M  V30 8823 H 865.102 2.57284 3.82887 0
M  V30 8824 H 863.345 2.47676 3.56145 0
M  V30 8825 H 864.016 2.03033 5.13305 0
M  V30 8826 H 866.492 0.376704 4.14391 0
M  V30 8827 H 865.368 0.0530015 5.48874 0
M  V30 8828 H 865.629 -1.17642 4.2616 0
M  V30 8829 N 864.689 -1.48329 0.532571 0
M  V30 8830 C 865.652 -2.2816 -0.218069 0
M  V30 8831 C 866.652 -1.35526 -0.865409 0
M  V30 8832 O 867.842 -1.58394 -0.725061 0
M  V30 8833 C 864.974 -3.1448 -1.31586 0
M  V30 8834 H 866.167 -2.95987 0.482865 0
M  V30 8835 H 863.72 -1.53612 0.288603 0
M  V30 8836 H 864.455 -2.5129 -2.04997 0
M  V30 8837 H 864.24 -3.82625 -0.856779 0
M  V30 8838 H 865.73 -3.74693 -1.84377 0
M  V30 8839 N 866.167 -0.267825 -1.55308 0
M  V30 8840 C 867.407 0.352316 -2.01341 0
M  V30 8841 C 867.771 1.53593 -1.1521 0
M  V30 8842 O 868.972 2.22521 -1.50791 0
M  V30 8843 C 867.243 0.731857 -3.49827 0
M  V30 8844 S 868.802 1.33956 -4.17853 0
M  V30 8845 H 865.62 0.109927 -0.702451 0
M  V30 8846 H 868.222 -0.387955 -1.91612 0
M  V30 8847 H 866.926 -0.138561 -4.10166 0
M  V30 8848 H 866.457 1.50378 -3.63525 0
M  V30 8849 H 868.472 2.62831 -4.20874 0
M  V30 8850 N 867.645 1.57599 0.00500368 0
M  V30 8851 C 868.893 1.89973 0.68953 0
M  V30 8852 C 869.214 0.868531 1.7459 0
M  V30 8853 O 868.484 -0.0947367 1.95671 0
M  V30 8854 H 867.064 0.701153 0.25767 0
M  V30 8855 H 869.726 1.94869 -0.0347392 0
M  V30 8856 H 868.822 2.89584 1.16394 0
M  V30 8857 N 869.123 -0.277682 1.55134 0
M  V30 8858 C 870.353 -1.02677 1.79279 0
M  V30 8859 C 870.761 -1.80599 0.563962 0
M  V30 8860 O 870.104 -1.77416 -0.476378 0
M  V30 8861 C 870.166 -2.03617 2.96277 0
M  V30 8862 C 869.83 -1.44676 4.33495 0
M  V30 8863 C 870.827 -0.864811 5.12657 0
M  V30 8864 C 868.512 -1.47537 4.80144 0
M  V30 8865 C 870.506 -0.319322 6.366 0
M  V30 8866 C 868.193 -0.926016 6.04043 0
M  V30 8867 C 869.191 -0.348988 6.82108 0
M  V30 8868 O 868.879 0.191964 8.03671 0
M  V30 8869 H 868.611 -0.309232 0.601125 0
M  V30 8870 H 871.165 -0.315308 2.02965 0
M  V30 8871 H 869.395 -2.78509 2.68272 0
M  V30 8872 H 871.084 -2.64616 3.07788 0
M  V30 8873 H 871.85 -0.835438 4.7775 0
M  V30 8874 H 867.729 -1.91389 4.19394 0
M  V30 8875 H 871.273 0.131709 6.97476 0
M  V30 8876 H 867.17 -0.952613 6.38432 0
M  V30 8877 H 867.938 0.0808779 8.1846 0
M  V30 8878 N 870.601 -1.47988 -0.541979 0
M  V30 8879 C 871.564 -1.61148 -1.62984 0
M  V30 8880 C 872.564 -0.48553 -1.53295 0
M  V30 8881 O 873.754 -0.751012 -1.5718 0
M  V30 8882 C 870.886 -1.57038 -3.02576 0
M  V30 8883 H 872.079 -2.58138 -1.52659 0
M  V30 8884 H 869.632 -1.36405 -0.763106 0
M  V30 8885 H 870.367 -0.614807 -3.18419 0
M  V30 8886 H 870.152 -2.38769 -3.11018 0
M  V30 8887 H 871.642 -1.69416 -3.81691 0
M  V30 8888 N 872.079 0.78992 -1.36375 0
M  V30 8889 C 873.356 1.53584 -1.21126 0
M  V30 8890 C 873.736 2.10124 0.202785 0
M  V30 8891 O 873.084 1.93936 1.20835 0
M  V30 8892 C 873.294 2.63117 -2.29282 0
M  V30 8893 C 874.642 3.31013 -2.65924 0
M  V30 8894 O 875.666 2.734 -2.28321 0
M  V30 8895 O 874.525 4.35129 -3.30643 0
M  V30 8896 H 871.619 0.679366 -0.471583 0
M  V30 8897 H 874.165 0.828446 -1.48104 0
M  V30 8898 H 872.937 2.19329 -3.24053 0
M  V30 8899 H 872.56 3.41476 -2.03666 0
M  V30 8900 N 873.557 1.20646 1.01402 0
M  V30 8901 C 874.805 1.01618 1.74695 0
M  V30 8902 C 875.126 -0.452438 1.89679 0
M  V30 8903 O 874.396 -1.32693 1.44116 0
M  V30 8904 H 872.976 0.373013 0.647202 0
M  V30 8905 H 875.638 1.518 1.22241 0
M  V30 8906 H 874.734 1.47666 2.74957 0
M  V30 8907 N 875.035 -1.20752 1.01276 0
M  V30 8908 C 876.275 -1.91733 0.708372 0
M  V30 8909 C 876.639 -1.76836 -0.747855 0
M  V30 8910 O 877.84 -2.42262 -1.16458 0
M  V30 8911 C 876.111 -3.39155 1.12732 0
M  V30 8912 S 877.67 -4.28518 0.944325 0
M  V30 8913 H 874.488 -0.662394 0.25837 0
M  V30 8914 H 877.09 -1.46085 1.29921 0
M  V30 8915 H 875.794 -3.47516 2.18313 0
M  V30 8916 H 875.325 -3.89826 0.5291 0
M  V30 8917 H 877.34 -4.9596 -0.154278 0
M  V30 8918 N 876.513 -0.788492 -1.36457 0
M  V30 8919 C 877.443 -0.200468 -2.32638 0
M  V30 8920 C 878.424 0.664031 -1.56603 0
M  V30 8921 O 879.609 0.598045 -1.84762 0
M  V30 8922 C 876.739 0.666274 -3.40849 0
M  V30 8923 C 875.693 -0.0982574 -4.27887 0
M  V30 8924 C 875.019 0.889018 -5.27258 0
M  V30 8925 C 876.319 -1.28692 -5.06197 0
M  V30 8926 H 878.013 -1.00399 -2.82065 0
M  V30 8927 H 875.559 -0.484237 -1.35614 0
M  V30 8928 H 877.512 1.08757 -4.07124 0
M  V30 8929 H 876.236 1.50249 -2.89987 0
M  V30 8930 H 874.895 -0.500525 -3.63167 0
M  V30 8931 H 874.543 1.72024 -4.7267 0
M  V30 8932 H 874.243 0.381909 -5.86358 0
M  V30 8933 H 875.767 1.30891 -5.96406 0
M  V30 8934 H 877.181 -0.941429 -5.65517 0
M  V30 8935 H 875.578 -1.72726 -5.74705 0
M  V30 8936 H 876.648 -2.08273 -4.37893 0
M  V30 8937 N 877.991 1.48044 -0.54043 0
M  V30 8938 C 879.216 2.07396 -0.0124765 0
M  V30 8939 C 879.641 1.39288 1.26414 0
M  V30 8940 O 878.999 0.462252 1.75308 0
M  V30 8941 C 879.047 3.60131 0.18377 0
M  V30 8942 O 878.151 3.92995 1.25014 0
M  V30 8943 H 877.492 0.662554 -0.0438026 0
M  V30 8944 H 880.022 1.90306 -0.751327 0
M  V30 8945 H 880.032 4.06003 0.403197 0
M  V30 8946 H 878.707 4.09105 -0.74874 0
M  V30 8947 H 877.284 3.5889 1.01254 0
M  V30 8948 N 879.47 0.276058 1.55163 0
M  V30 8949 C 880.402 -0.644254 2.19959 0
M  V30 8950 C 881.415 -1.11675 1.18459 0
M  V30 8951 O 882.604 -1.0385 1.45181 0
M  V30 8952 C 879.704 -1.89093 2.81242 0
M  V30 8953 C 878.877 -1.56509 4.08441 0
M  V30 8954 C 877.936 -2.66433 4.53762 0
M  V30 8955 O 876.962 -2.32579 5.19515 0
M  V30 8956 N 878.164 -3.96509 4.23982 0
M  V30 8957 H 880.929 -0.0896808 2.99566 0
M  V30 8958 H 878.49 0.0971981 1.61608 0
M  V30 8959 H 880.482 -2.61929 3.08505 0
M  V30 8960 H 879.052 -2.35453 2.05622 0
M  V30 8961 H 878.272 -0.670522 3.88455 0
M  V30 8962 H 879.56 -1.32242 4.91314 0
M  V30 8963 H 878.958 -4.26834 3.71254 0
M  V30 8964 H 877.515 -4.6572 4.56014 0
M  V30 8965 N 880.948 -1.576 0.00335426 0
M  V30 8966 C 881.858 -2.12067 -1.00322 0
M  V30 8967 C 882.874 -1.06672 -1.37467 0
M  V30 8968 O 884.05 -1.38592 -1.46131 0
M  V30 8969 C 881.115 -2.61593 -2.27531 0
M  V30 8970 C 880.176 -3.81602 -1.96668 0
M  V30 8971 C 879.409 -4.28756 -3.17811 0
M  V30 8972 O 879.632 -3.75222 -4.2961 0
M  V30 8973 O 878.566 -5.20877 -3.01613 0
M  V30 8974 H 882.392 -2.98299 -0.570199 0
M  V30 8975 H 879.977 -1.47835 -0.215682 0
M  V30 8976 H 881.859 -2.93631 -3.02256 0
M  V30 8977 H 880.534 -1.78457 -2.70065 0
M  V30 8978 H 879.441 -3.54531 -1.19408 0
M  V30 8979 H 880.774 -4.65822 -1.58968 0
M  V30 8980 N 882.426 0.269451 -1.5528 0
M  V30 8981 C 883.336 1.35511 -1.91505 0
M  V30 8982 C 884.352 1.53854 -0.812712 0
M  V30 8983 O 885.528 1.67912 -1.1121 0
M  V30 8984 C 882.593 2.6937 -2.18267 0
M  V30 8985 C 881.654 2.59743 -3.41807 0
M  V30 8986 C 880.887 3.87219 -3.67283 0
M  V30 8987 O 881.11 4.88066 -2.95208 0
M  V30 8988 O 880.044 3.87209 -4.60818 0
M  V30 8989 H 883.87 1.07785 -2.8393 0
M  V30 8990 H 881.455 0.468282 -1.41871 0
M  V30 8991 H 883.337 3.48513 -2.36889 0
M  V30 8992 H 882.012 2.96874 -1.29024 0
M  V30 8993 H 880.919 1.78964 -3.28516 0
M  V30 8994 H 882.252 2.37188 -4.3128 0
M  V30 8995 N 883.904 1.48273 0.534124 0
M  V30 8996 C 884.867 1.6201 1.62127 0
M  V30 8997 C 885.867 0.493653 1.53035 0
M  V30 8998 O 887.057 0.759337 1.56779 0
M  V30 8999 C 884.189 1.5864 3.01739 0
M  V30 9000 H 885.382 2.58944 1.51288 0
M  V30 9001 H 882.935 1.36808 0.755861 0
M  V30 9002 H 883.67 0.631685 3.18088 0
M  V30 9003 H 883.455 2.40415 3.09747 0
M  V30 9004 H 884.945 1.71438 3.80787 0
M  V30 9005 N 885.382 -0.782676 1.36792 0
M  V30 9006 C 886.628 -1.54311 1.3159 0
M  V30 9007 C 886.961 -1.93928 -0.102696 0
M  V30 9008 O 886.236 -1.63233 -1.05761 0
M  V30 9009 C 886.519 -2.81561 2.24489 0
M  V30 9010 C 886.372 -2.48268 3.75078 0
M  V30 9011 C 887.691 -3.83428 2.16034 0
M  V30 9012 H 884.81 -0.559828 0.479335 0
M  V30 9013 H 887.452 -0.898717 1.67401 0
M  V30 9014 H 885.602 -3.36549 1.9408 0
M  V30 9015 H 887.274 -1.99279 4.16036 0
M  V30 9016 H 885.517 -1.81116 3.94182 0
M  V30 9017 H 886.188 -3.39183 4.35499 0
M  V30 9018 H 888.664 -3.37905 2.42815 0
M  V30 9019 H 887.54 -4.70204 2.83194 0
M  V30 9020 H 887.801 -4.26887 1.14976 0
M  V30 9021 N 886.86 -1.21182 -1.00761 0
M  V30 9022 C 887.79 -0.992773 -2.11344 0
M  V30 9023 C 888.771 0.0813618 -1.69905 0
M  V30 9024 O 889.956 -0.0779503 -1.94043 0
M  V30 9025 C 887.086 -0.553826 -3.42856 0
M  V30 9026 C 886.04 -1.57223 -3.98077 0
M  V30 9027 C 885.366 -0.989605 -5.25463 0
M  V30 9028 C 886.666 -2.95839 -4.30438 0
M  V30 9029 H 888.36 -1.91766 -2.29927 0
M  V30 9030 H 885.906 -0.923426 -1.10494 0
M  V30 9031 H 887.859 -0.387771 -4.19612 0
M  V30 9032 H 886.583 0.406702 -3.24058 0
M  V30 9033 H 885.242 -1.7258 -3.23437 0
M  V30 9034 H 884.89 -0.0208743 -5.02996 0
M  V30 9035 H 884.59 -1.66984 -5.63374 0
M  V30 9036 H 886.114 -0.834815 -6.04866 0
M  V30 9037 H 887.528 -2.8394 -4.98047 0
M  V30 9038 H 885.925 -3.60851 -4.79486 0
M  V30 9039 H 886.995 -3.46882 -3.38823 0
M  V30 9040 N 888.338 1.20213 -1.01915 0
M  V30 9041 C 889.301 2.21307 -0.596327 0
M  V30 9042 C 890.301 1.57274 0.334879 0
M  V30 9043 O 891.491 1.73764 0.12322 0
M  V30 9044 C 888.623 3.40657 0.128808 0
M  V30 9045 H 889.816 2.60228 -1.49068 0
M  V30 9046 H 887.369 1.33721 -0.809226 0
M  V30 9047 H 888.104 3.07241 1.03796 0
M  V30 9048 H 887.889 3.88361 -0.540183 0
M  V30 9049 H 889.379 4.15564 0.411892 0
M  V30 9050 N 889.816 0.795718 1.36037 0
M  V30 9051 C 890.779 0.204318 2.28287 0
M  V30 9052 C 891.779 -0.602017 1.49105 0
M  V30 9053 O 892.969 -0.422089 1.69009 0
M  V30 9054 C 890.101 -0.716431 3.33287 0
M  V30 9055 H 891.294 1.01781 2.821 0
M  V30 9056 H 888.847 0.565588 1.45708 0
M  V30 9057 H 889.582 -1.55403 2.84641 0
M  V30 9058 H 889.367 -0.140096 3.9185 0
M  V30 9059 H 890.857 -1.12488 4.02164 0
M  V30 9060 N 891.294 -1.47756 0.548274 0
M  V30 9061 C 892.524 -2.06584 0.0254503 0
M  V30 9062 C 892.932 -1.40268 -1.26971 0
M  V30 9063 O 892.275 -0.49019 -1.77039 0
M  V30 9064 C 892.337 -3.58628 -0.250301 0
M  V30 9065 C 892.001 -4.4693 0.954087 0
M  V30 9066 C 892.998 -4.85592 1.85733 0
M  V30 9067 C 890.683 -4.88573 1.16624 0
M  V30 9068 C 892.677 -5.64686 2.95648 0
M  V30 9069 C 890.364 -5.67435 2.2685 0
M  V30 9070 C 891.362 -6.05401 3.16194 0
M  V30 9071 O 891.05 -6.82676 4.24511 0
M  V30 9072 H 890.782 -0.67489 0.0387264 0
M  V30 9073 H 893.336 -1.90876 0.758663 0
M  V30 9074 H 891.566 -3.72516 -1.03771 0
M  V30 9075 H 893.255 -3.9951 -0.717419 0
M  V30 9076 H 894.021 -4.54026 1.70544 0
M  V30 9077 H 889.9 -4.58494 0.480039 0
M  V30 9078 H 893.444 -5.9424 3.65411 0
M  V30 9079 H 889.341 -5.98413 2.42016 0
M  V30 9080 H 890.109 -7.01057 4.22447 0
M  V30 9081 N 892.772 -0.284283 -1.55015 0
M  V30 9082 C 894.018 0.3233 -2.00814 0
M  V30 9083 C 894.373 1.52796 -1.16923 0
M  V30 9084 O 893.666 1.90172 -0.233499 0
M  V30 9085 C 893.86 0.747219 -3.49502 0
M  V30 9086 C 893.689 -0.414821 -4.47783 0
M  V30 9087 C 892.459 -0.901531 -4.97193 0
M  V30 9088 C 894.657 -1.25433 -4.9877 0
M  V30 9089 N 892.639 -2.03208 -5.79292 0
M  V30 9090 C 894.01 -2.23262 -5.78406 0
M  V30 9091 C 896.065 -1.28662 -4.80989 0
M  V30 9092 C 894.768 -3.24077 -6.42158 0
M  V30 9093 C 896.794 -2.28326 -5.45547 0
M  V30 9094 C 896.156 -3.24887 -6.25002 0
M  V30 9095 H 892.255 0.0832226 -0.777559 0
M  V30 9096 H 894.839 -0.410393 -1.90326 0
M  V30 9097 H 893.01 1.45012 -3.60314 0
M  V30 9098 H 894.742 1.33292 -3.8212 0
M  V30 9099 H 891.497 -0.479291 -4.71169 0
M  V30 9100 H 891.921 -2.60125 -6.25031 0
M  V30 9101 H 896.563 -0.553858 -4.19157 0
M  V30 9102 H 894.281 -3.98281 -7.03134 0
M  V30 9103 H 897.867 -2.31578 -5.33726 0
M  V30 9104 H 896.747 -4.00745 -6.74072 0
M  V30 9105 N 894.251 1.57596 -0.0117121 0
M  V30 9106 C 895.667 1.55837 0.344506 0
M  V30 9107 C 895.867 1.01557 1.74036 0
M  V30 9108 O 894.923 0.654563 2.43868 0
M  V30 9109 C 896.236 2.99973 0.209023 0
M  V30 9110 C 897.784 3.11717 0.283092 0
M  V30 9111 C 898.259 4.57659 0.176599 0
M  V30 9112 N 899.75 4.62608 0.234133 0
M  V30 9113 C 900.485 5.73132 0.175252 0
M  V30 9114 N 899.981 6.92768 0.0662888 0
M  V30 9115 N 901.774 5.61638 0.227972 0
M  V30 9116 H 893.925 1.91215 -0.924692 0
M  V30 9117 H 896.188 0.878807 -0.355531 0
M  V30 9118 H 895.894 3.4357 -0.751826 0
M  V30 9119 H 895.768 3.64075 0.98635 0
M  V30 9120 H 898.155 2.68043 1.23439 0
M  V30 9121 H 898.236 2.50369 -0.52431 0
M  V30 9122 H 897.88 5.02011 -0.771205 0
M  V30 9123 H 897.81 5.16967 1.00264 0
M  V30 9124 H 900.301 3.76549 0.319203 0
M  V30 9125 H 900.614 7.72795 0.0275765 0
M  V30 9126 H 898.959 6.94993 0.0317502 0
M  V30 9127 H 902.15 4.67063 0.311377 0
M  V30 9128 H 902.323 6.47754 0.178621 0
M  V30 9129 N 895.729 -0.261212 1.5542 0
M  V30 9130 C 896.977 -0.989272 1.76232 0
M  V30 9131 C 897.298 -1.86389 0.573067 0
M  V30 9132 O 896.568 -1.91526 -0.41166 0
M  V30 9133 H 895.148 -0.368256 0.64992 0
M  V30 9134 H 897.81 -0.282603 1.9284 0
M  V30 9135 H 896.906 -1.61935 2.66802 0
M  V30 9136 N 897.207 -1.48554 -0.526253 0
M  V30 9137 C 898.139 -1.59446 -1.6465 0
M  V30 9138 C 899.152 -0.478525 -1.55608 0
M  V30 9139 O 900.341 -0.74953 -1.62001 0
M  V30 9140 C 897.441 -1.51164 -3.03319 0
M  V30 9141 C 896.614 -2.77861 -3.37805 0
M  V30 9142 C 895.673 -2.62982 -4.5577 0
M  V30 9143 O 894.699 -3.36876 -4.58806 0
M  V30 9144 N 895.901 -1.72847 -5.5417 0
M  V30 9145 H 898.666 -2.56055 -1.55743 0
M  V30 9146 H 896.227 -1.45325 -0.713606 0
M  V30 9147 H 898.219 -1.389 -3.80117 0
M  V30 9148 H 896.789 -0.625147 -3.06285 0
M  V30 9149 H 896.009 -3.04663 -2.50149 0
M  V30 9150 H 897.297 -3.61908 -3.57632 0
M  V30 9151 H 896.695 -1.12022 -5.54498 0
M  V30 9152 H 895.252 -1.6652 -6.3017 0
M  V30 9153 N 898.685 0.775411 -1.37205 0
M  V30 9154 C 899.925 1.54689 -1.33606 0
M  V30 9155 C 900.289 1.91834 0.0798549 0
M  V30 9156 O 901.49 2.67722 0.240531 0
M  V30 9157 C 899.761 2.7804 -2.24563 0
M  V30 9158 S 901.32 3.68143 -2.38781 0
M  V30 9159 H 898.138 0.529631 -0.474355 0
M  V30 9160 H 900.74 0.912128 -1.72918 0
M  V30 9161 H 899.444 2.48825 -3.26365 0
M  V30 9162 H 898.975 3.46479 -1.86322 0
M  V30 9163 H 900.99 4.69843 -1.59568 0
M  V30 9164 N 900.163 1.21714 1.00117 0
M  V30 9165 C 901.412 1.03087 1.73367 0
M  V30 9166 C 901.725 -0.435532 1.90689 0
M  V30 9167 O 902.931 -0.741291 2.61184 0
M  V30 9168 C 901.387 1.79593 3.11888 0
M  V30 9169 C 900.995 3.30428 3.02525 0
M  V30 9170 C 902.739 1.69386 3.89241 0
M  V30 9171 C 900.646 3.99408 4.3615 0
M  V30 9172 H 899.576 0.382117 0.650002 0
M  V30 9173 H 902.227 1.45486 1.11831 0
M  V30 9174 H 900.609 1.29988 3.74058 0
M  V30 9175 H 901.783 3.87364 2.49571 0
M  V30 9176 H 900.098 3.4122 2.38659 0
M  V30 9177 H 902.695 2.18251 4.8813 0
M  V30 9178 H 903.038 0.652773 4.1115 0
M  V30 9179 H 903.571 2.16489 3.33733 0
M  V30 9180 H 900.31 5.03735 4.19442 0
M  V30 9181 H 899.83 3.47261 4.8905 0
M  V30 9182 H 901.509 4.04537 5.04934 0
M  V30 9183 N 901.641 -1.19671 1.02551 0
M  V30 9184 C 902.588 -2.22773 0.603394 0
M  V30 9185 C 903.558 -1.61669 -0.381081 0
M  V30 9186 O 904.743 -1.88756 -0.278505 0
M  V30 9187 C 901.883 -3.45073 -0.0431034 0
M  V30 9188 C 900.996 -4.20574 0.987006 0
M  V30 9189 C 900.131 -5.30291 0.310626 0
M  V30 9190 C 899.17 -5.97545 1.32688 0
M  V30 9191 N 898.307 -6.98833 0.676542 0
M  V30 9192 H 903.147 -2.58238 1.48719 0
M  V30 9193 H 900.684 -1.26881 0.744286 0
M  V30 9194 H 902.642 -4.14925 -0.435141 0
M  V30 9195 H 901.272 -3.10274 -0.890495 0
M  V30 9196 H 900.324 -3.497 1.49713 0
M  V30 9197 H 901.636 -4.66736 1.75952 0
M  V30 9198 H 900.79 -6.06547 -0.136438 0
M  V30 9199 H 899.529 -4.8519 -0.49412 0
M  V30 9200 H 898.534 -5.20043 1.78424 0
M  V30 9201 H 899.759 -6.4473 2.13306 0
M  V30 9202 H 897.705 -6.55911 -0.108172 0
M  V30 9203 H 897.622 -7.43168 1.38699 0
M  V30 9204 H 898.89 -7.79088 0.253367 0
M  V30 9205 N 903.119 -0.802921 -1.35613 0
M  V30 9206 C 904.029 -0.212177 -2.33639 0
M  V30 9207 C 905.045 0.642871 -1.61689 0
M  V30 9208 O 906.221 0.555485 -1.93588 0
M  V30 9209 C 903.286 0.632406 -3.40883 0
M  V30 9210 C 902.347 -0.242708 -4.28613 0
M  V30 9211 C 901.58 0.56166 -5.30736 0
M  V30 9212 O 901.803 1.79664 -5.41366 0
M  V30 9213 O 900.737 -0.0455387 -6.01883 0
M  V30 9214 H 904.563 -1.023 -2.85952 0
M  V30 9215 H 902.148 -0.564636 -1.38319 0
M  V30 9216 H 904.03 1.11358 -4.0642 0
M  V30 9217 H 902.705 1.42089 -2.90848 0
M  V30 9218 H 901.612 -0.77094 -3.6607 0
M  V30 9219 H 902.945 -0.995046 -4.82037 0
M  V30 9220 N 904.597 1.47463 -0.556102 0
M  V30 9221 C 905.56 2.28478 0.181743 0
M  V30 9222 C 906.56 1.36886 0.843738 0
M  V30 9223 O 907.75 1.59527 0.69977 0
M  V30 9224 C 904.882 3.16534 1.26566 0
M  V30 9225 H 906.075 2.95182 -0.529892 0
M  V30 9226 H 903.628 1.53134 -0.313005 0
M  V30 9227 H 904.363 2.5452 2.00973 0
M  V30 9228 H 904.148 3.83939 0.795798 0
M  V30 9229 H 905.638 3.77579 1.78393 0
M  V30 9230 N 906.075 0.2925 1.54862 0
M  V30 9231 C 907.025 -0.60226 2.19902 0
M  V30 9232 C 908.009 -1.10535 1.16923 0
M  V30 9233 O 909.201 -1.04753 1.42674 0
M  V30 9234 C 906.33 -1.77774 2.93686 0
M  V30 9235 C 905.416 -1.29101 4.03972 0
M  V30 9236 N 905.807 -0.521671 5.03103 0
M  V30 9237 C 904.105 -1.57248 4.17359 0
M  V30 9238 C 904.806 -0.263545 5.81103 0
M  V30 9239 N 903.782 -0.840937 5.37056 0
M  V30 9240 H 907.584 -0.00682274 2.93899 0
M  V30 9241 H 905.098 0.0968604 1.62111 0
M  V30 9242 H 907.095 -2.43021 3.38743 0
M  V30 9243 H 905.755 -2.37696 2.21203 0
M  V30 9244 H 906.766 -0.167364 5.1763 0
M  V30 9245 H 903.443 -2.1798 3.56077 0
M  V30 9246 H 904.833 0.353783 6.70968 0
M  V30 9247 N 907.553 -1.57587 0.0200696 0
M  V30 9248 C 908.483 -2.12702 -0.963333 0
M  V30 9249 C 909.464 -1.04094 -1.34531 0
M  V30 9250 O 910.649 -1.31881 -1.42552 0
M  V30 9251 C 907.779 -2.64673 -2.24868 0
M  V30 9252 C 906.733 -3.77987 -2.00772 0
M  V30 9253 C 906.059 -4.16351 -3.35494 0
M  V30 9254 C 907.359 -5.0444 -1.35416 0
M  V30 9255 H 909.053 -2.95121 -0.504363 0
M  V30 9256 H 906.599 -1.41966 -0.24116 0
M  V30 9257 H 908.552 -3.01862 -2.94036 0
M  V30 9258 H 907.276 -1.79403 -2.72914 0
M  V30 9259 H 905.935 -3.41223 -1.34025 0
M  V30 9260 H 905.583 -3.28075 -3.81282 0
M  V30 9261 H 905.283 -4.92705 -3.20181 0
M  V30 9262 H 906.807 -4.56115 -4.05945 0
M  V30 9263 H 908.221 -5.39273 -1.94571 0
M  V30 9264 H 906.618 -5.85732 -1.30529 0
M  V30 9265 H 907.688 -4.83803 -0.325923 0
M  V30 9266 N 909.032 0.252966 -1.55557 0
M  V30 9267 C 910.443 0.822503 -1.67606 0
M  V30 9268 C 910.794 1.86265 -0.616411 0
M  V30 9269 O 909.919 2.15082 0.238447 0
M  V30 9270 C 910.514 1.49866 -3.03852 0
M  V30 9271 C 909.073 2.01597 -3.17861 0
M  V30 9272 C 908.22 0.864943 -2.63465 0
M  V30 9273 H 911.171 0.0288958 -1.58674 0
M  V30 9274 H 911.192 2.36646 -2.97958 0
M  V30 9275 H 910.704 0.741378 -3.80953 0
M  V30 9276 H 908.805 2.80224 -2.45571 0
M  V30 9277 H 908.918 2.21752 -4.24692 0
M  V30 9278 H 907.282 1.2638 -2.21134 0
M  V30 9279 H 908.065 0.120847 -3.43087 0
M  V30 9280 N 910.51 1.48831 0.518367 0
M  V30 9281 C 911.921 1.50842 1.10016 0
M  V30 9282 C 912.272 0.284744 1.94123 0
M  V30 9283 O 911.397 -0.607088 2.0771 0
M  V30 9284 C 911.992 2.73329 2.00191 0
M  V30 9285 C 910.551 2.78175 2.53566 0
M  V30 9286 C 909.698 2.4452 1.30786 0
M  V30 9287 H 912.649 1.55779 0.303073 0
M  V30 9288 H 912.67 2.52506 2.84642 0
M  V30 9289 H 912.182 3.62374 1.3895 0
M  V30 9290 H 910.283 1.93368 3.18496 0
M  V30 9291 H 910.396 3.79905 2.91906 0
M  V30 9292 H 908.76 1.95924 1.62744 0
M  V30 9293 H 909.543 3.35819 0.712797 0
M  V30 9294 N 911.988 -0.768124 1.37614 0
M  V30 9295 C 913.236 -1.52379 1.3276 0
M  V30 9296 C 913.557 -1.94809 -0.0863564 0
M  V30 9297 O 912.827 -1.66568 -1.03112 0
M  V30 9298 H 911.407 -0.565179 0.488448 0
M  V30 9299 H 914.069 -0.913974 1.72141 0
M  V30 9300 H 913.165 -2.4215 1.96901 0
M  V30 9301 N 913.466 -1.22244 -0.994698 0
M  V30 9302 C 914.429 -0.992308 -2.06606 0
M  V30 9303 C 915.429 0.0405872 -1.60749 0
M  V30 9304 O 916.619 -0.197737 -1.73074 0
M  V30 9305 C 913.751 -0.498499 -3.37236 0
M  V30 9306 H 914.944 -1.9429 -2.28455 0
M  V30 9307 H 912.497 -1.04087 -1.166 0
M  V30 9308 H 913.232 0.456531 -3.21071 0
M  V30 9309 H 913.017 -1.24367 -3.71854 0
M  V30 9310 H 914.507 -0.35768 -4.16065 0
M  V30 9311 N 914.944 1.19125 -1.03184 0
M  V30 9312 C 915.877 2.21229 -0.559739 0
M  V30 9313 C 916.855 1.57578 0.400998 0
M  V30 9314 O 918.039 1.85809 0.317399 0
M  V30 9315 C 915.166 3.38203 0.183442 0
M  V30 9316 C 914.212 4.2022 -0.729182 0
M  V30 9317 S 915.045 4.87903 -2.20706 0
M  V30 9318 C 916.201 6.08284 -1.47448 0
M  V30 9319 H 916.434 2.60932 -1.42484 0
M  V30 9320 H 913.967 1.29419 -0.842028 0
M  V30 9321 H 915.925 4.06001 0.606084 0
M  V30 9322 H 914.586 2.96929 1.02432 0
M  V30 9323 H 913.779 5.03761 -0.155272 0
M  V30 9324 H 913.381 3.57755 -1.09028 0
M  V30 9325 H 915.673 6.73193 -0.762687 0
M  V30 9326 H 916.616 6.70165 -2.28659 0
M  V30 9327 H 917.024 5.56092 -0.97068 0
M  V30 9328 N 916.422 0.810101 1.35185 0
M  V30 9329 C 917.385 0.22852 2.28058 0
M  V30 9330 C 918.385 -0.586168 1.49735 0
M  V30 9331 O 919.575 -0.40414 1.69447 0
M  V30 9332 C 916.707 -0.681041 3.34028 0
M  V30 9333 H 917.9 1.04768 2.81005 0
M  V30 9334 H 915.453 0.58101 1.451 0
M  V30 9335 H 916.188 -1.52375 2.86273 0
M  V30 9336 H 915.973 -0.0985276 3.91976 0
M  V30 9337 H 917.463 -1.08217 4.03335 0
M  V30 9338 N 917.9 -1.47166 0.563914 0
M  V30 9339 C 918.863 -2.28571 -0.169624 0
M  V30 9340 C 919.863 -1.37331 -0.836467 0
M  V30 9341 O 921.053 -1.59896 -0.6913 0
M  V30 9342 C 918.185 -3.17201 -1.24886 0
M  V30 9343 H 919.378 -2.94896 0.545539 0
M  V30 9344 H 916.931 -1.52966 0.321121 0
M  V30 9345 H 917.666 -2.55582 -1.99621 0
M  V30 9346 H 917.451 -3.84356 -0.775426 0
M  V30 9347 H 918.941 -3.7852 -1.76388 0
M  V30 9348 N 919.378 -0.300708 -1.54705 0
M  V30 9349 C 920.624 0.309111 -2.0043 0
M  V30 9350 C 920.957 1.53562 -1.1888 0
M  V30 9351 O 920.232 1.92683 -0.265205 0
M  V30 9352 C 920.515 0.665995 -3.53888 0
M  V30 9353 C 920.368 -0.56963 -4.46178 0
M  V30 9354 C 921.687 1.49262 -4.14016 0
M  V30 9355 H 918.806 0.110878 -0.728612 0
M  V30 9356 H 921.448 -0.412748 -1.85463 0
M  V30 9357 H 919.598 1.281 -3.66773 0
M  V30 9358 H 921.27 -1.20811 -4.45199 0
M  V30 9359 H 919.513 -1.20292 -4.16788 0
M  V30 9360 H 920.184 -0.275785 -5.51311 0
M  V30 9361 H 922.66 0.972979 -4.04564 0
M  V30 9362 H 921.536 1.71111 -5.21548 0
M  V30 9363 H 921.797 2.48174 -3.65872 0
M  V30 9364 N 920.856 1.57574 -0.0284266 0
M  V30 9365 C 922.104 1.91393 0.649079 0
M  V30 9366 C 922.425 0.905368 1.72708 0
M  V30 9367 O 921.695 -0.0532107 1.95828 0
M  V30 9368 H 920.275 0.70646 0.24274 0
M  V30 9369 H 922.937 1.94752 -0.076066 0
M  V30 9370 H 922.033 2.91988 1.10226 0
M  V30 9371 N 922.334 -0.244713 1.55689 0
M  V30 9372 C 923.264 -1.30667 1.93516 0
M  V30 9373 C 924.245 -1.50094 0.800371 0
M  V30 9374 O 925.43 -1.62665 1.06083 0
M  V30 9375 C 922.56 -2.66101 2.23176 0
M  V30 9376 C 921.514 -2.61366 3.38927 0
M  V30 9377 C 920.84 -4.00616 3.54134 0
M  V30 9378 C 922.14 -2.18161 4.74555 0
M  V30 9379 H 923.834 -0.992546 2.82469 0
M  V30 9380 H 921.38 -0.476018 1.35905 0
M  V30 9381 H 923.333 -3.4053 2.48228 0
M  V30 9382 H 922.057 -2.99154 1.31051 0
M  V30 9383 H 920.716 -1.89395 3.13887 0
M  V30 9384 H 920.364 -4.30938 2.59426 0
M  V30 9385 H 920.064 -3.98335 4.31975 0
M  V30 9386 H 921.588 -4.76741 3.8151 0
M  V30 9387 H 923.002 -2.82323 4.98965 0
M  V30 9388 H 921.399 -2.26988 5.55515 0
M  V30 9389 H 922.469 -1.13333 4.7147 0
M  V30 9390 N 923.813 -1.49104 -0.510467 0
M  V30 9391 C 925.038 -1.62068 -1.29417 0
M  V30 9392 C 925.463 -0.288432 -1.85875 0
M  V30 9393 O 924.821 0.742667 -1.65391 0
M  V30 9394 C 924.869 -2.68506 -2.40701 0
M  V30 9395 O 923.973 -2.27021 -3.4429 0
M  V30 9396 H 923.314 -0.542778 -0.382476 0
M  V30 9397 H 925.844 -1.95228 -0.612154 0
M  V30 9398 H 925.854 -2.90383 -2.86604 0
M  V30 9399 H 924.529 -3.65216 -1.98973 0
M  V30 9400 H 923.106 -2.15436 -3.04371 0
M  V30 9401 N 925.291 0.760815 -1.38019 0
M  V30 9402 C 926.537 1.52109 -1.35034 0
M  V30 9403 C 926.892 1.92302 0.0615509 0
M  V30 9404 O 926.185 1.62028 1.02261 0
M  V30 9405 C 926.379 2.79024 -2.23339 0
M  V30 9406 C 926.208 2.51238 -3.72974 0
M  V30 9407 C 924.978 2.44818 -4.42032 0
M  V30 9408 C 927.176 2.18499 -4.65578 0
M  V30 9409 N 925.158 2.09232 -5.77144 0
M  V30 9410 C 926.529 1.93143 -5.89148 0
M  V30 9411 C 928.584 2.04747 -4.53854 0
M  V30 9412 C 927.287 1.55423 -7.02308 0
M  V30 9413 C 929.313 1.68428 -5.66909 0
M  V30 9414 C 928.675 1.43939 -6.89537 0
M  V30 9415 H 924.774 0.556482 -0.54941 0
M  V30 9416 H 927.358 0.886614 -1.73341 0
M  V30 9417 H 925.529 3.40292 -1.87232 0
M  V30 9418 H 927.261 3.45016 -2.11533 0
M  V30 9419 H 924.016 2.61045 -3.95161 0
M  V30 9420 H 924.44 1.94104 -6.48577 0
M  V30 9421 H 929.082 2.22358 -3.59607 0
M  V30 9422 H 926.8 1.36551 -7.96479 0
M  V30 9423 H 930.386 1.5843 -5.59814 0
M  V30 9424 H 929.266 1.16253 -7.75535 0
M  V30 9425 N 926.769 1.22769 0.988202 0
M  V30 9426 C 927.679 1.01844 2.11341 0
M  V30 9427 C 928.695 -0.0346937 1.73965 0
M  V30 9428 O 929.871 0.159061 2.00771 0
M  V30 9429 C 926.936 0.603837 3.41401 0
M  V30 9430 C 925.997 1.73113 3.92849 0
M  V30 9431 C 925.23 1.33621 5.16702 0
M  V30 9432 O 925.453 0.217041 5.69987 0
M  V30 9433 O 924.387 2.15444 5.62021 0
M  V30 9434 H 928.213 1.96127 2.31879 0
M  V30 9435 H 925.798 1.01405 1.09715 0
M  V30 9436 H 927.68 0.383196 4.19654 0
M  V30 9437 H 926.355 -0.310082 3.22211 0
M  V30 9438 H 925.262 2.00634 3.15748 0
M  V30 9439 H 926.595 2.62308 4.1648 0
M  V30 9440 N 928.247 -1.18576 1.03814 0
M  V30 9441 C 929.157 -2.25778 0.637311 0
M  V30 9442 C 930.173 -1.7074 -0.335248 0
M  V30 9443 O 931.349 -2.00494 -0.19081 0
M  V30 9444 C 928.414 -3.467 0.00386953 0
M  V30 9445 C 927.475 -4.16881 1.02511 0
M  V30 9446 C 926.708 -5.32031 0.421802 0
M  V30 9447 O 926.931 -5.65142 -0.772699 0
M  V30 9448 O 925.865 -5.90826 1.14925 0
M  V30 9449 H 929.691 -2.62323 1.53037 0
M  V30 9450 H 927.276 -1.25609 0.80887 0
M  V30 9451 H 929.158 -4.19953 -0.348873 0
M  V30 9452 H 927.833 -3.11983 -0.863047 0
M  V30 9453 H 926.74 -3.45707 1.4296 0
M  V30 9454 H 928.073 -4.55592 1.86271 0
M  V30 9455 N 929.725 -0.817259 -1.34754 0
M  V30 9456 C 930.965 -0.408429 -2.00278 0
M  V30 9457 C 931.329 1.00818 -1.634 0
M  V30 9458 O 932.53 1.51959 -2.21725 0
M  V30 9459 C 930.801 -0.598219 -3.52358 0
M  V30 9460 S 932.36 -0.281395 -4.37897 0
M  V30 9461 H 929.178 -0.154587 -0.693991 0
M  V30 9462 H 931.78 -1.06184 -1.6415 0
M  V30 9463 H 930.484 -1.62901 -3.76685 0
M  V30 9464 H 930.015 0.0701299 -3.93337 0
M  V30 9465 H 932.03 0.907024 -4.8784 0
M  V30 9466 N 931.203 1.46865 -0.571711 0
M  V30 9467 C 932.15 2.30189 0.167808 0
M  V30 9468 C 933.12 1.3995 0.89461 0
M  V30 9469 O 934.305 1.68905 0.887451 0
M  V30 9470 C 931.445 3.24205 1.1826 0
M  V30 9471 C 930.558 4.2954 0.460376 0
M  V30 9472 C 929.693 5.10693 1.46173 0
M  V30 9473 C 928.732 6.07788 0.725291 0
M  V30 9474 N 927.869 6.81847 1.67417 0
M  V30 9475 H 932.709 2.92902 -0.548831 0
M  V30 9476 H 930.246 1.44362 -0.282474 0
M  V30 9477 H 932.204 3.77147 1.7837 0
M  V30 9478 H 930.834 2.63324 1.86709 0
M  V30 9479 H 929.886 3.79541 -0.255546 0
M  V30 9480 H 931.198 4.98665 -0.115855 0
M  V30 9481 H 930.352 5.67857 2.13595 0
M  V30 9482 H 929.091 4.41502 2.07188 0
M  V30 9483 H 928.096 5.49787 0.037228 0
M  V30 9484 H 929.321 6.78993 0.120678 0
M  V30 9485 H 927.267 6.15376 2.27263 0
M  V30 9486 H 927.184 7.47195 1.15046 0
M  V30 9487 H 928.452 7.43577 2.33908 0
M  V30 9488 N 932.681 0.308908 1.54543 0
M  V30 9489 C 933.613 -0.597453 2.21276 0
M  V30 9490 C 934.626 -1.09137 1.20801 0
M  V30 9491 O 935.815 -1.00747 1.47351 0
M  V30 9492 C 932.915 -1.83085 2.85189 0
M  V30 9493 C 932.088 -1.4781 4.11669 0
M  V30 9494 C 931.147 -2.56748 4.59311 0
M  V30 9495 O 930.173 -2.21507 5.24331 0
M  V30 9496 N 931.375 -3.87427 4.32297 0
M  V30 9497 H 934.14 -0.0261183 2.99689 0
M  V30 9498 H 931.701 0.131456 1.61365 0
M  V30 9499 H 933.693 -2.55326 3.13992 0
M  V30 9500 H 932.263 -2.31039 2.1057 0
M  V30 9501 H 931.483 -0.587974 3.8979 0
M  V30 9502 H 932.771 -1.2179 4.94009 0
M  V30 9503 H 932.169 -4.18863 3.80224 0
M  V30 9504 H 930.726 -4.55942 4.6579 0
M  V30 9505 N 934.159 -1.57557 0.0367827 0
M  V30 9506 C 935.575 -1.56366 -0.31967 0
M  V30 9507 C 935.775 -1.04313 -1.72398 0
M  V30 9508 O 934.831 -0.693278 -2.42796 0
M  V30 9509 C 936.144 -3.00267 -0.161274 0
M  V30 9510 C 937.692 -3.12128 -0.233464 0
M  V30 9511 C 938.167 -4.57882 -0.103767 0
M  V30 9512 N 939.658 -4.62922 -0.160506 0
M  V30 9513 C 940.393 -5.73338 -0.0840493 0
M  V30 9514 N 939.889 -6.92786 0.043933 0
M  V30 9515 N 941.682 -5.61929 -0.138592 0
M  V30 9516 H 933.833 -1.8972 0.954996 0
M  V30 9517 H 936.096 -0.87304 0.369467 0
M  V30 9518 H 935.802 -3.42331 0.80639 0
M  V30 9519 H 935.676 -3.65599 -0.928304 0
M  V30 9520 H 938.063 -2.69972 -1.19159 0
M  V30 9521 H 938.144 -2.49503 0.564075 0
M  V30 9522 H 937.788 -5.0072 0.850973 0
M  V30 9523 H 937.718 -5.18496 -0.920268 0
M  V30 9524 H 940.209 -3.7701 -0.259257 0
M  V30 9525 H 940.522 -7.72741 0.095372 0
M  V30 9526 H 938.867 -6.94955 0.0788211 0
M  V30 9527 H 942.058 -4.67499 -0.237031 0
M  V30 9528 H 942.231 -6.47956 -0.075546 0
M  V30 9529 N 935.637 0.236453 -1.55816 0
M  V30 9530 C 936.877 0.970249 -1.79904 0
M  V30 9531 C 937.241 1.8212 -0.607965 0
M  V30 9532 O 938.442 2.58759 -0.727833 0
M  V30 9533 C 936.713 1.79938 -3.088 0
M  V30 9534 S 938.272 2.59084 -3.54148 0
M  V30 9535 H 935.09 0.32618 -0.631765 0
M  V30 9536 H 937.692 0.237147 -1.94056 0
M  V30 9537 H 936.396 1.16412 -3.93544 0
M  V30 9538 H 935.927 2.57504 -2.97414 0
M  V30 9539 H 937.942 3.82315 -3.16306 0
M  V30 9540 N 937.115 1.49373 0.502552 0
M  V30 9541 C 938.526 1.52 1.0841 0
M  V30 9542 C 938.877 0.305317 1.9381 0
M  V30 9543 O 938.002 -0.585023 2.08342 0
M  V30 9544 C 938.597 2.75437 1.97281 0
M  V30 9545 C 937.156 2.80848 2.50602 0
M  V30 9546 C 936.303 2.45894 1.28186 0
M  V30 9547 H 939.254 1.56092 0.286533 0
M  V30 9548 H 939.275 2.55511 2.81947 0
M  V30 9549 H 938.787 3.63827 1.35098 0
M  V30 9550 H 936.888 1.96735 3.16427 0
M  V30 9551 H 937.001 3.82979 2.8786 0
M  V30 9552 H 935.365 1.97639 1.60657 0
M  V30 9553 H 936.148 3.36556 0.677139 0
M  V30 9554 N 938.594 -0.753485 1.38421 0
M  V30 9555 C 940.005 -1.33081 1.30944 0
M  V30 9556 C 940.356 -1.96169 -0.0347124 0
M  V30 9557 O 939.481 -1.95073 -0.936768 0
M  V30 9558 C 940.076 -2.41973 2.37138 0
M  V30 9559 C 938.635 -2.95426 2.33239 0
M  V30 9560 C 937.782 -1.68808 2.19998 0
M  V30 9561 H 940.733 -0.552354 1.48777 0
M  V30 9562 H 940.754 -3.21913 2.02859 0
M  V30 9563 H 940.266 -1.96027 3.34956 0
M  V30 9564 H 938.367 -3.45701 1.39003 0
M  V30 9565 H 938.48 -3.49798 3.27381 0
M  V30 9566 H 936.844 -1.92438 1.66852 0
M  V30 9567 H 937.627 -1.24939 3.19758 0
M  V30 9568 N 940.072 -1.23292 -0.981677 0
M  V30 9569 C 941.32 -1.06214 -1.71939 0
M  V30 9570 C 941.641 0.401989 -1.90812 0
M  V30 9571 O 940.911 1.28825 -1.47584 0
M  V30 9572 H 939.491 -0.390042 -0.637084 0
M  V30 9573 H 942.153 -1.54988 -1.18173 0
M  V30 9574 H 941.249 -1.54904 -2.70945 0
M  V30 9575 N 941.55 1.18024 -1.04442 0
M  V30 9576 C 942.796 1.88377 -0.751133 0
M  V30 9577 C 943.129 1.80377 0.719571 0
M  V30 9578 O 942.404 1.20662 1.52548 0
M  V30 9579 C 942.687 3.38708 -1.22265 0
M  V30 9580 C 942.54 3.55499 -2.75574 0
M  V30 9581 C 943.859 4.32475 -0.815688 0
M  V30 9582 H 940.978 0.684037 -0.27434 0
M  V30 9583 H 943.62 1.38837 -1.29709 0
M  V30 9584 H 941.77 3.8103 -0.758192 0
M  V30 9585 H 943.442 3.22244 -3.30086 0
M  V30 9586 H 941.685 2.98028 -3.15217 0
M  V30 9587 H 942.356 4.60994 -3.03625 0
M  V30 9588 H 944.832 3.97953 -1.21542 0
M  V30 9589 H 943.708 5.36213 -1.17331 0
M  V30 9590 H 943.969 4.41207 0.280901 0
M  V30 9591 N 943.028 0.824394 1.34319 0
M  V30 9592 C 944.274 0.413779 1.98534 0
M  V30 9593 C 944.607 -1.02089 1.65201 0
M  V30 9594 O 943.882 -1.71129 0.924402 0
M  V30 9595 C 944.165 0.61801 3.54757 0
M  V30 9596 C 944.018 2.0989 3.97827 0
M  V30 9597 C 945.337 0.0549041 4.40066 0
M  V30 9598 H 942.456 0.151815 0.721194 0
M  V30 9599 H 945.098 1.03723 1.5919 0
M  V30 9600 H 943.248 0.0873107 3.88402 0
M  V30 9601 H 944.92 2.69335 3.74508 0
M  V30 9602 H 943.163 2.58881 3.48085 0
M  V30 9603 H 943.834 2.1926 5.06586 0
M  V30 9604 H 946.31 0.508348 4.12983 0
M  V30 9605 H 945.186 0.227595 5.48428 0
M  V30 9606 H 945.447 -1.04025 4.29687 0
M  V30 9607 N 944.506 -1.46559 0.579492 0
M  V30 9608 C 945.917 -1.8608 0.152052 0
M  V30 9609 C 946.268 -1.48346 -1.28405 0
M  V30 9610 O 945.393 -0.89685 -1.9694 0
M  V30 9611 C 945.988 -3.37729 0.269171 0
M  V30 9612 C 944.547 -3.76258 -0.103376 0
M  V30 9613 C 943.694 -2.70584 0.60659 0
M  V30 9614 H 946.645 -1.3776 0.787904 0
M  V30 9615 H 946.666 -3.77116 -0.506339 0
M  V30 9616 H 946.178 -3.65162 1.31448 0
M  V30 9617 H 944.279 -3.54443 -1.14895 0
M  V30 9618 H 944.392 -4.78335 0.270701 0
M  V30 9619 H 942.756 -2.54656 0.0471984 0
M  V30 9620 H 943.539 -3.00856 1.65349 0
M  V30 9621 N 945.984 -0.3171 -1.54377 0
M  V30 9622 C 946.947 0.53905 -2.22771 0
M  V30 9623 C 947.947 1.04865 -1.21901 0
M  V30 9624 O 949.137 0.942108 -1.46526 0
M  V30 9625 C 946.269 1.74804 -2.92671 0
M  V30 9626 H 947.462 -0.0587417 -2.99842 0
M  V30 9627 H 945.015 -0.068107 -1.56152 0
M  V30 9628 H 945.75 2.38524 -2.1972 0
M  V30 9629 H 945.535 1.39011 -3.66631 0
M  V30 9630 H 947.025 2.35592 -3.44799 0
M  V30 9631 N 947.462 1.57535 -0.0451378 0
M  V30 9632 C 948.702 1.9432 0.633955 0
M  V30 9633 C 949.066 0.922924 1.68363 0
M  V30 9634 O 950.267 1.17751 2.41636 0
M  V30 9635 C 948.538 3.35933 1.21999 0
M  V30 9636 S 950.097 3.94666 1.91793 0
M  V30 9637 H 946.915 0.679798 0.208318 0
M  V30 9638 H 949.517 1.95175 -0.112633 0
M  V30 9639 H 948.221 4.07993 0.443821 0
M  V30 9640 H 947.752 3.38559 2.00353 0
M  V30 9641 H 949.767 3.79401 3.19796 0
M  V30 9642 N 948.94 -0.228186 1.55939 0
M  V30 9643 C 949.89 -1.28607 1.88267 0
M  V30 9644 C 950.874 -1.42606 0.745139 0
M  V30 9645 O 952.066 -1.45533 1.00743 0
M  V30 9646 C 949.195 -2.63783 2.19712 0
M  V30 9647 C 948.281 -2.53712 3.3984 0
M  V30 9648 N 948.672 -2.13287 4.58631 0
M  V30 9649 C 946.97 -2.84686 3.43322 0
M  V30 9650 C 947.671 -2.14305 5.40785 0
M  V30 9651 N 946.647 -2.54536 4.80325 0
M  V30 9652 H 950.449 -0.964307 2.7763 0
M  V30 9653 H 947.963 -0.436769 1.56416 0
M  V30 9654 H 949.96 -3.40152 2.41044 0
M  V30 9655 H 948.62 -2.9681 1.31657 0
M  V30 9656 H 949.631 -1.84525 4.83912 0
M  V30 9657 H 946.308 -3.22129 2.65592 0
M  V30 9658 H 947.698 -1.85231 6.45863 0
M  V30 9659 N 950.418 -1.49637 -0.494624 0
M  V30 9660 C 951.366 -1.6727 -1.61627 0
M  V30 9661 C 952.36 -0.538587 -1.6061 0
M  V30 9662 O 953.566 -0.718411 -1.65042 0
M  V30 9663 H 949.941 -0.527557 -0.535899 0
M  V30 9664 H 951.912 -2.61405 -1.43909 0
M  V30 9665 C 950.661 -1.7624 -2.99725 0
M  V30 9666 H 949.984 -2.62886 -3.01216 0
M  V30 9667 H 951.424 -1.92611 -3.77726 0
M  V30 9668 C 949.883 -0.508632 -3.33038 0
M  V30 9669 O 950.413 0.362828 -4.00058 0
M  V30 9670 N 948.619 -0.369667 -2.88239 0
M  V30 9671 H 948.166 -1.07984 -2.33875 0
M  V30 9672 H 948.124 0.468112 -3.10896 0
M  V30 9673 N 951.896 0.746133 -1.38819 0
M  V30 9674 C 953.121 1.54049 -1.38866 0
M  V30 9675 C 953.546 1.88092 0.0176624 0
M  V30 9676 O 952.904 1.51113 1.00173 0
M  V30 9677 C 952.952 2.8116 -2.25791 0
M  V30 9678 O 952.056 3.76623 -1.68014 0
M  V30 9679 H 951.397 0.465648 -0.473359 0
M  V30 9680 H 953.927 0.921469 -1.82675 0
M  V30 9681 H 953.937 3.30009 -2.39913 0
M  V30 9682 H 952.612 2.55713 -3.27999 0
M  V30 9683 H 951.189 3.35352 -1.63074 0
M  V30 9684 N 953.375 1.23811 0.975125 0
M  V30 9685 C 954.322 1.02394 2.06843 0
M  V30 9686 C 955.292 -0.060337 1.6599 0
M  V30 9687 O 956.477 0.0928187 1.90574 0
M  V30 9688 C 953.617 0.626882 3.39359 0
M  V30 9689 C 952.73 1.78385 3.9345 0
M  V30 9690 C 951.865 1.33307 5.14201 0
M  V30 9691 C 950.904 2.46045 5.60471 0
M  V30 9692 N 950.041 2.01888 6.72448 0
M  V30 9693 H 954.881 1.95973 2.24496 0
M  V30 9694 H 952.418 0.976206 1.10039 0
M  V30 9695 H 954.376 0.377742 4.15486 0
M  V30 9696 H 953.006 -0.271907 3.21653 0
M  V30 9697 H 952.058 2.14685 3.14029 0
M  V30 9698 H 953.37 2.63122 4.23755 0
M  V30 9699 H 952.524 1.04237 5.97678 0
M  V30 9700 H 951.263 0.456143 4.85562 0
M  V30 9701 H 950.268 2.75884 4.75571 0
M  V30 9702 H 951.493 3.34283 5.91127 0
M  V30 9703 H 949.439 1.16583 6.45558 0
M  V30 9704 H 949.356 2.80182 7.02164 0
M  V30 9705 H 950.624 1.75937 7.59386 0
M  V30 9706 N 954.853 -1.17469 1.05066 0
M  V30 9707 C 956.13 -1.83625 0.673872 0
M  V30 9708 C 956.51 -1.93412 -0.845871 0
M  V30 9709 O 955.858 -1.4677 -1.75131 0
M  V30 9710 C 956.068 -3.21352 1.36139 0
M  V30 9711 C 957.416 -3.97274 1.49863 0
M  V30 9712 O 958.44 -3.30827 1.3203 0
M  V30 9713 O 957.299 -5.16349 1.79013 0
M  V30 9714 H 954.393 -0.792297 0.237055 0
M  V30 9715 H 956.939 -1.24776 1.15017 0
M  V30 9716 H 955.711 -3.0919 2.39827 0
M  V30 9717 H 955.334 -3.87867 0.874364 0
M  V30 9718 N 956.331 -0.831506 -1.3388 0
M  V30 9719 C 957.559 -0.436925 -2.02234 0
M  V30 9720 C 957.974 0.959689 -1.6259 0
M  V30 9721 O 957.331 1.62248 -0.835576 0
M  V30 9722 C 957.382 -0.539429 -3.57453 0
M  V30 9723 O 957.103 -1.88101 -3.95664 0
M  V30 9724 C 958.604 -0.140852 -4.43076 0
M  V30 9725 H 955.824 -0.174302 -0.647966 0
M  V30 9726 H 958.368 -1.12204 -1.70969 0
M  V30 9727 H 956.523 0.0976959 -3.87277 0
M  V30 9728 H 956.937 -1.86131 -4.90363 0
M  V30 9729 H 958.411 -0.26364 -5.5137 0
M  V30 9730 H 958.888 0.916505 -4.29531 0
M  V30 9731 H 959.494 -0.752117 -4.18597 0
M  V30 9732 N 957.809 1.4625 -0.587256 0
M  V30 9733 C 959.055 2.02662 -0.0746851 0
M  V30 9734 C 959.388 1.45723 1.28368 0
M  V30 9735 O 958.663 0.624062 1.84216 0
M  V30 9736 C 958.946 3.60097 -0.0138109 0
M  V30 9737 C 958.799 4.27412 -1.4014 0
M  V30 9738 C 960.118 4.34744 0.684491 0
M  V30 9739 H 957.237 0.736444 -0.0286144 0
M  V30 9740 H 959.879 1.74341 -0.755328 0
M  V30 9741 H 958.029 3.84357 0.56583 0
M  V30 9742 H 959.701 4.14401 -2.02656 0
M  V30 9743 H 957.944 3.86598 -1.96785 0
M  V30 9744 H 958.615 5.362 -1.31124 0
M  V30 9745 H 961.091 4.15657 0.192023 0
M  V30 9746 H 959.967 5.44468 0.696127 0
M  V30 9747 H 960.228 4.06132 1.74669 0
M  V30 9748 N 959.287 0.325282 1.54207 0
M  V30 9749 C 960.515 -0.27869 2.05014 0
M  V30 9750 C 960.93 -1.45649 1.20133 0
M  V30 9751 O 960.287 -1.81014 0.232398 0
M  V30 9752 C 960.338 -0.711486 3.54429 0
M  V30 9753 O 960.059 0.419458 4.36087 0
M  V30 9754 C 961.56 -1.37809 4.21336 0
M  V30 9755 H 958.78 -0.0570388 0.668571 0
M  V30 9756 H 961.324 0.47197 1.98979 0
M  V30 9757 H 959.479 -1.41212 3.60746 0
M  V30 9758 H 959.893 0.0781037 5.24442 0
M  V30 9759 H 961.367 -1.63184 5.27328 0
M  V30 9760 H 961.844 -2.32593 3.72555 0
M  V30 9761 H 962.45 -0.719987 4.19161 0
M  V30 9762 N 960.765 -1.57509 0.0534917 0
M  V30 9763 C 962.014 -1.91959 -0.619244 0
M  V30 9764 C 962.327 -0.933882 -1.71866 0
M  V30 9765 O 963.533 -1.17052 -2.44972 0
M  V30 9766 C 961.989 -3.40938 -1.15278 0
M  V30 9767 C 961.597 -4.47919 -0.085348 0
M  V30 9768 C 963.341 -3.84419 -1.80063 0
M  V30 9769 C 961.248 -5.88014 -0.631897 0
M  V30 9770 H 960.178 -0.71642 -0.235072 0
M  V30 9771 H 962.829 -1.83089 0.122758 0
M  V30 9772 H 961.211 -3.44821 -1.94717 0
M  V30 9773 H 962.385 -4.55629 0.688374 0
M  V30 9774 H 960.7 -4.13793 0.465178 0
M  V30 9775 H 963.297 -4.86457 -2.21954 0
M  V30 9776 H 963.64 -3.20791 -2.65328 0
M  V30 9777 H 964.173 -3.83062 -1.07275 0
M  V30 9778 H 960.912 -6.55244 0.183175 0
M  V30 9779 H 960.432 -5.83861 -1.37355 0
M  V30 9780 H 962.111 -6.37336 -1.11407 0
M  V30 9781 N 962.243 0.219913 -1.56058 0
M  V30 9782 C 963.468 0.965073 -1.83579 0
M  V30 9783 C 963.893 1.77092 -0.634024 0
M  V30 9784 O 963.251 1.76434 0.417205 0
M  V30 9785 C 963.299 1.85705 -3.09105 0
M  V30 9786 O 962.403 2.95261 -2.87914 0
M  V30 9787 H 961.744 0.273173 -0.605204 0
M  V30 9788 H 964.274 0.23273 -2.03272 0
M  V30 9789 H 964.284 2.26655 -3.39252 0
M  V30 9790 H 962.959 1.26476 -3.96203 0
M  V30 9791 H 961.536 2.58246 -2.69005 0
M  V30 9792 N 963.721 1.49897 0.486681 0
M  V30 9793 C 964.969 1.59789 1.23742 0
M  V30 9794 C 965.29 0.293056 1.92785 0
M  V30 9795 O 964.56 -0.688534 1.83401 0
M  V30 9796 H 963.14 0.588775 0.459731 0
M  V30 9797 H 965.802 1.86597 0.562808 0
M  V30 9798 H 964.898 2.40121 1.9937 0
M  V30 9799 N 965.199 -0.738761 1.39212 0
M  V30 9800 C 966.61 -1.31684 1.32348 0
M  V30 9801 C 966.961 -1.96195 -0.0139041 0
M  V30 9802 O 966.086 -1.96056 -0.916025 0
M  V30 9803 C 966.681 -2.39444 2.39691 0
M  V30 9804 C 965.24 -2.92935 2.36359 0
M  V30 9805 C 964.387 -1.66465 2.21776 0
M  V30 9806 H 967.338 -0.536543 1.49355 0
M  V30 9807 H 967.359 -3.19744 2.06262 0
M  V30 9808 H 966.871 -1.92463 3.37016 0
M  V30 9809 H 964.972 -3.44207 1.42662 0
M  V30 9810 H 965.085 -3.46306 3.31073 0
M  V30 9811 H 963.449 -1.90657 1.68884 0
M  V30 9812 H 964.232 -1.21541 3.21065 0
M  V30 9813 N 966.677 -1.24326 -0.968545 0
M  V30 9814 C 967.609 -0.992749 -2.06584 0
M  V30 9815 C 968.622 0.0374902 -1.62757 0
M  V30 9816 O 969.811 -0.199448 -1.77382 0
M  V30 9817 C 966.911 -0.476165 -3.35538 0
M  V30 9818 C 966.084 -1.56934 -4.08277 0
M  V30 9819 C 965.143 -1.05555 -5.15504 0
M  V30 9820 O 964.169 -1.74707 -5.41725 0
M  V30 9821 N 965.371 0.110465 -5.80395 0
M  V30 9822 H 968.136 -1.93752 -2.28649 0
M  V30 9823 H 965.697 -1.15344 -1.13611 0
M  V30 9824 H 967.689 -0.117223 -4.0453 0
M  V30 9825 H 966.259 0.374315 -3.10351 0
M  V30 9826 H 965.479 -2.10051 -3.33575 0
M  V30 9827 H 966.767 -2.30415 -4.53637 0
M  V30 9828 H 966.165 0.688614 -5.61493 0
M  V30 9829 H 964.722 0.41056 -6.50506 0
M  V30 9830 N 968.156 1.1691 -1.05688 0
M  V30 9831 C 969.119 2.19297 -0.666433 0
M  V30 9832 C 970.119 1.5826 0.284674 0
M  V30 9833 O 971.309 1.74068 0.0678757 0
M  V30 9834 C 968.441 3.40894 0.0203656 0
M  V30 9835 H 969.634 2.55354 -1.57272 0
M  V30 9836 H 967.187 1.31078 -0.851359 0
M  V30 9837 H 967.922 3.10388 0.939686 0
M  V30 9838 H 967.707 3.86446 -0.663464 0
M  V30 9839 H 969.197 4.16664 0.279475 0
M  V30 9840 N 969.634 0.838594 1.33437 0
M  V30 9841 C 971.045 0.490934 1.8013 0
M  V30 9842 C 971.396 -0.990024 1.6939 0
M  V30 9843 O 970.521 -1.77139 1.24302 0
M  V30 9844 C 971.116 0.884347 3.27055 0
M  V30 9845 C 969.675 0.588829 3.71766 0
M  V30 9846 C 968.822 1.09282 2.54858 0
M  V30 9847 H 971.773 1.02732 1.20962 0
M  V30 9848 H 971.794 0.194283 3.80004 0
M  V30 9849 H 971.306 1.96225 3.34839 0
M  V30 9850 H 969.407 -0.479018 3.69508 0
M  V30 9851 H 969.52 1.14387 4.65245 0
M  V30 9852 H 967.884 0.513702 2.49466 0
M  V30 9853 H 968.667 2.1775 2.65405 0
M  V30 9854 N 971.112 -1.45937 0.595003 0
M  V30 9855 C 972.358 -2.0262 0.0854317 0
M  V30 9856 C 972.691 -1.46402 -1.27594 0
M  V30 9857 O 971.966 -0.633823 -1.83883 0
M  V30 9858 C 972.249 -3.60085 0.0329075 0
M  V30 9859 C 972.102 -4.26663 1.42405 0
M  V30 9860 C 973.421 -4.35101 -0.661426 0
M  V30 9861 H 970.54 -0.736282 0.0325196 0
M  V30 9862 H 973.182 -1.73938 0.764563 0
M  V30 9863 H 971.332 -3.84652 -0.545439 0
M  V30 9864 H 973.004 -4.13321 2.04851 0
M  V30 9865 H 971.247 -3.85549 1.98833 0
M  V30 9866 H 971.918 -5.35497 1.33965 0
M  V30 9867 H 974.394 -4.15753 -0.169977 0
M  V30 9868 H 973.27 -5.44829 -0.667243 0
M  V30 9869 H 973.531 -4.07053 -1.72513 0
M  V30 9870 N 972.59 -0.333456 -1.54032 0
M  V30 9871 C 973.837 0.266133 -2.00744 0
M  V30 9872 C 974.165 1.51361 -1.22148 0
M  V30 9873 O 973.42 1.93473 -0.294368 0
M  V30 9874 C 973.719 0.63565 -3.51702 0
M  V30 9875 C 973.385 -0.513786 -4.47963 0
M  V30 9876 C 972.047 -0.829253 -4.74001 0
M  V30 9877 C 974.399 -1.2854 -5.05101 0
M  V30 9878 C 971.727 -1.91888 -5.54433 0
M  V30 9879 C 974.079 -2.3652 -5.86721 0
M  V30 9880 C 972.743 -2.68637 -6.11057 0
M  V30 9881 H 972.013 0.097385 -0.734573 0
M  V30 9882 H 974.66 -0.459282 -1.85911 0
M  V30 9883 H 972.965 1.44163 -3.64313 0
M  V30 9884 H 974.662 1.11129 -3.85294 0
M  V30 9885 H 971.252 -0.25784 -4.27824 0
M  V30 9886 H 975.436 -1.05494 -4.84958 0
M  V30 9887 H 970.692 -2.17208 -5.71516 0
M  V30 9888 H 974.866 -2.96747 -6.30011 0
M  V30 9889 H 972.493 -3.53197 -6.73169 0
M  V30 9890 N 974.068 1.57479 -0.061844 0
M  V30 9891 C 974.978 2.15645 0.923826 0
M  V30 9892 C 975.994 1.117 1.33413 0
M  V30 9893 O 977.17 1.4392 1.40887 0
M  V30 9894 C 974.235 2.69857 2.17665 0
M  V30 9895 C 973.296 3.88638 1.8237 0
M  V30 9896 C 972.529 4.40256 3.01679 0
M  V30 9897 O 972.752 3.90908 4.15388 0
M  V30 9898 O 971.686 5.31713 2.82073 0
M  V30 9899 H 975.512 3.0021 0.459094 0
M  V30 9900 H 973.097 1.48534 0.160665 0
M  V30 9901 H 974.979 3.04647 2.9115 0
M  V30 9902 H 973.654 1.88357 2.63255 0
M  V30 9903 H 972.561 3.58719 1.06167 0
M  V30 9904 H 973.894 4.71401 1.4157 0
M  V30 9905 N 975.546 -0.211634 1.56173 0
M  V30 9906 C 976.793 -0.93455 1.79645 0
M  V30 9907 C 977.121 -1.83936 0.632294 0
M  V30 9908 O 976.376 -1.91919 -0.382841 0
M  V30 9909 C 976.675 -1.79657 3.08963 0
M  V30 9910 C 976.341 -1.04415 4.38644 0
M  V30 9911 C 975.003 -0.836351 4.73876 0
M  V30 9912 C 977.355 -0.51355 5.18664 0
M  V30 9913 C 974.683 -0.0861976 5.86637 0
M  V30 9914 C 977.035 0.223309 6.32206 0
M  V30 9915 C 975.699 0.442279 6.66033 0
M  V30 9916 H 974.969 -0.341976 0.657368 0
M  V30 9917 H 977.616 -0.202024 1.90431 0
M  V30 9918 H 975.921 -2.59726 2.93342 0
M  V30 9919 H 977.618 -2.35823 3.24328 0
M  V30 9920 H 974.208 -1.21611 4.10985 0
M  V30 9921 H 978.392 -0.661541 4.91871 0
M  V30 9922 H 973.648 0.0935866 6.11328 0
M  V30 9923 H 977.822 0.641917 6.93435 0
M  V30 9924 H 975.449 1.02547 7.53252 0
M  V30 9925 N 977.024 -1.50153 -0.478725 0
M  V30 9926 C 978.27 -1.60998 -1.23318 0
M  V30 9927 C 978.603 -0.305868 -1.91776 0
M  V30 9928 O 977.878 0.692158 -1.81767 0
M  V30 9929 C 978.161 -2.78495 -2.28282 0
M  V30 9930 C 978.014 -4.18767 -1.64178 0
M  V30 9931 C 979.333 -2.91569 -3.2966 0
M  V30 9932 H 976.452 -0.585983 -0.446982 0
M  V30 9933 H 979.094 -1.82514 -0.528063 0
M  V30 9934 H 977.244 -2.60281 -2.8842 0
M  V30 9935 H 978.916 -4.48552 -1.07696 0
M  V30 9936 H 977.159 -4.23379 -0.94514 0
M  V30 9937 H 977.83 -4.96894 -2.40417 0
M  V30 9938 H 980.306 -3.08219 -2.79536 0
M  V30 9939 H 979.182 -3.75419 -4.0044 0
M  V30 9940 H 979.443 -2.01859 -3.93326 0
M  V30 9941 N 978.502 0.731368 -1.39602 0
M  V30 9942 C 979.412 1.87579 -1.40894 0
M  V30 9943 C 980.428 1.71336 -0.303319 0
M  V30 9944 O 981.604 1.93875 -0.545377 0
M  V30 9945 C 978.669 3.23211 -1.25442 0
M  V30 9946 C 977.73 3.51822 -2.46008 0
M  V30 9947 C 976.963 4.80982 -2.31284 0
M  V30 9948 O 977.186 5.54958 -1.31824 0
M  V30 9949 O 976.12 5.09574 -3.20341 0
M  V30 9950 H 979.946 1.89444 -2.3737 0
M  V30 9951 H 977.531 0.879675 -1.20756 0
M  V30 9952 H 979.413 4.04257 -1.18972 0
M  V30 9953 H 978.088 3.22108 -0.320637 0
M  V30 9954 H 976.995 2.70847 -2.58055 0
M  V30 9955 H 978.328 3.57707 -3.38093 0
M  V30 9956 N 979.98 1.24838 0.961938 0
M  V30 9957 C 980.912 1.00369 2.06055 0
M  V30 9958 C 981.925 -0.0288583 1.62774 0
M  V30 9959 O 983.114 0.208853 1.77274 0
M  V30 9960 C 980.214 0.493953 3.35281 0
M  V30 9961 C 979.387 1.59097 4.07439 0
M  V30 9962 C 978.446 1.08288 5.14937 0
M  V30 9963 O 977.472 1.77577 5.40791 0
M  V30 9964 N 978.674 -0.0796836 5.80445 0
M  V30 9965 H 981.439 1.94962 2.27618 0
M  V30 9966 H 979 1.15945 1.12997 0
M  V30 9967 H 980.992 0.138675 4.04462 0
M  V30 9968 H 979.562 -0.357851 3.10545 0
M  V30 9969 H 978.782 2.11817 3.32456 0
M  V30 9970 H 980.07 2.32817 4.52409 0
M  V30 9971 H 979.468 -0.658827 5.6185 0
M  V30 9972 H 978.025 -0.376057 6.50714 0
M  V30 9973 N 981.458 -1.16348 1.06306 0
M  V30 9974 C 982.388 -2.2291 0.695234 0
M  V30 9975 C 983.369 -1.67208 -0.312343 0
M  V30 9976 O 984.554 -1.93293 -0.187442 0
M  V30 9977 C 981.684 -3.47205 0.0810149 0
M  V30 9978 C 980.638 -4.15801 1.01458 0
M  V30 9979 C 979.964 -5.3405 0.263656 0
M  V30 9980 C 981.264 -4.66766 2.34365 0
M  V30 9981 H 982.958 -2.53934 1.58613 0
M  V30 9982 H 980.504 -1.22056 0.76409 0
M  V30 9983 H 982.457 -4.2098 -0.18818 0
M  V30 9984 H 981.181 -3.15482 -0.844897 0
M  V30 9985 H 979.84 -3.43954 1.26852 0
M  V30 9986 H 979.488 -4.9858 -0.665378 0
M  V30 9987 H 979.188 -5.80885 0.88582 0
M  V30 9988 H 980.712 -6.106 0.00200994 0
M  V30 9989 H 982.126 -5.3212 2.13356 0
M  V30 9990 H 980.523 -5.24223 2.9208 0
M  V30 9991 H 981.593 -3.82969 2.97426 0
M  V30 9992 N 982.937 -0.845659 -1.3299 0
M  V30 9993 C 984.353 -0.53433 -1.5039 0
M  V30 9994 C 984.553 0.936939 -1.78392 0
M  V30 9995 O 983.609 1.72043 -1.84818 0
M  V30 9996 C 984.922 -1.41354 -2.65404 0
M  V30 9997 C 986.47 -1.41303 -2.79289 0
M  V30 9998 C 986.945 -2.27724 -3.97373 0
M  V30 9999 N 988.436 -2.25471 -4.0462 0
M  V30 10000 C 989.171 -2.89074 -4.95201 0
M  V30 10001 N 988.667 -3.61755 -5.90851 0
M  V30 10002 N 990.46 -2.78508 -4.88251 0
M  V30 10003 H 982.611 -1.79798 -1.13078 0
M  V30 10004 H 984.874 -0.767454 -0.556524 0
M  V30 10005 H 984.58 -2.45936 -2.51413 0
M  V30 10006 H 984.454 -1.09445 -3.60973 0
M  V30 10007 H 986.841 -0.374899 -2.92709 0
M  V30 10008 H 986.922 -1.77222 -1.84461 0
M  V30 10009 H 986.566 -3.316 -3.84713 0
M  V30 10010 H 986.496 -1.89142 -4.9146 0
M  V30 10011 H 988.987 -1.72622 -3.3617 0
M  V30 10012 H 989.3 -4.07475 -6.56646 0
M  V30 10013 H 987.645 -3.65863 -5.90906 0
M  V30 10014 H 990.836 -2.21285 -4.12493 0
M  V30 10015 H 991.009 -3.2836 -5.58645 0
M  V30 10016 N 984.415 1.45619 -0.602734 0
M  V30 10017 C 985.362 2.30493 0.118944 0
M  V30 10018 C 986.332 1.41816 0.864723 0
M  V30 10019 O 987.517 1.7075 0.851424 0
M  V30 10020 C 984.657 3.2664 1.11356 0
M  V30 10021 C 983.77 4.3042 0.369161 0
M  V30 10022 C 982.905 5.13678 1.35307 0
M  V30 10023 C 981.944 6.09189 0.596207 0
M  V30 10024 N 981.081 6.85245 1.52916 0
M  V30 10025 H 985.921 2.91672 -0.610836 0
M  V30 10026 H 983.458 1.43731 -0.313032 0
M  V30 10027 H 985.416 3.80846 1.7033 0
M  V30 10028 H 984.046 2.67225 1.81081 0
M  V30 10029 H 983.098 3.78913 -0.335994 0
M  V30 10030 H 984.41 4.98307 -0.221603 0
M  V30 10031 H 983.564 5.7226 2.01502 0
M  V30 10032 H 982.303 4.45798 1.97777 0
M  V30 10033 H 981.308 5.49743 -0.0793984 0
M  V30 10034 H 982.533 6.79096 -0.0233734 0
M  V30 10035 H 980.479 6.20058 2.14159 0
M  V30 10036 H 980.396 7.49467 0.991713 0
M  V30 10037 H 981.664 7.48371 2.18083 0
M  V30 10038 N 985.893 0.34162 1.53853 0
M  V30 10039 C 986.803 -0.524555 2.2866 0
M  V30 10040 C 987.819 -1.1136 1.33697 0
M  V30 10041 O 988.995 -1.1297 1.66732 0
M  V30 10042 C 986.06 -1.66065 3.04341 0
M  V30 10043 C 985.121 -1.10158 4.14926 0
M  V30 10044 C 984.354 -2.18353 4.86988 0
M  V30 10045 O 984.577 -3.39038 4.58704 0
M  V30 10046 O 983.511 -1.82756 5.73484 0
M  V30 10047 H 987.337 0.0835014 3.03585 0
M  V30 10048 H 984.922 0.106727 1.49018 0
M  V30 10049 H 986.804 -2.3217 3.51674 0
M  V30 10050 H 985.479 -2.25456 2.32275 0
M  V30 10051 H 984.386 -0.405109 3.719 0
M  V30 10052 H 985.719 -0.552567 4.89088 0
M  V30 10053 N 987.371 -1.57444 0.0701946 0
M  V30 10054 C 988.619 -1.93047 -0.598106 0
M  V30 10055 C 988.94 -0.950841 -1.70247 0
M  V30 10056 O 988.21 0.00127177 -1.959 0
M  V30 10057 H 986.79 -0.712648 -0.223924 0
M  V30 10058 H 989.452 -1.94481 0.127674 0
M  V30 10059 H 988.548 -2.94807 -1.02445 0
M  V30 10060 N 988.849 0.203349 -1.56283 0
M  V30 10061 C 990.095 0.926381 -1.80405 0
M  V30 10062 C 990.428 1.8325 -0.642883 0
M  V30 10063 O 989.703 1.91196 0.356998 0
M  V30 10064 C 989.986 1.74972 -3.14733 0
M  V30 10065 C 989.839 0.868866 -4.41328 0
M  V30 10066 C 991.158 2.72394 -3.45672 0
M  V30 10067 H 988.277 0.335346 -0.656286 0
M  V30 10068 H 990.919 0.1942 -1.89005 0
M  V30 10069 H 989.069 2.37394 -3.07533 0
M  V30 10070 H 990.741 0.259986 -4.60567 0
M  V30 10071 H 988.984 0.175161 -4.33446 0
M  V30 10072 H 989.655 1.47975 -5.31796 0
M  V30 10073 H 992.131 2.20105 -3.53119 0
M  V30 10074 H 991.007 3.27091 -4.40798 0
M  V30 10075 H 991.268 3.51035 -2.6875 0
M  V30 10076 N 990.327 1.50405 0.470755 0
M  V30 10077 C 991.574 1.61411 1.22281 0
M  V30 10078 C 991.902 0.314603 1.91939 0
M  V30 10079 O 991.157 -0.699531 1.82771 0
M  V30 10080 C 991.456 2.74426 2.28965 0
M  V30 10081 C 991.122 4.14896 1.76557 0
M  V30 10082 C 989.784 4.53116 1.61985 0
M  V30 10083 C 992.136 5.02686 1.3768 0
M  V30 10084 C 989.464 5.76868 1.0696 0
M  V30 10085 C 991.816 6.26985 0.840967 0
M  V30 10086 C 990.48 6.64008 0.68188 0
M  V30 10087 H 989.75 0.590645 0.447459 0
M  V30 10088 H 992.397 1.84339 0.518783 0
M  V30 10089 H 990.702 2.45588 3.05277 0
M  V30 10090 H 992.399 2.80146 2.86914 0
M  V30 10091 H 988.989 3.84743 1.88867 0
M  V30 10092 H 993.173 4.7379 1.47772 0
M  V30 10093 H 988.429 6.04227 0.933808 0
M  V30 10094 H 992.603 6.94372 0.531066 0
M  V30 10095 H 990.23 7.59778 0.25335 0
M  V30 10096 N 991.805 -0.723954 1.39988 0
M  V30 10097 C 992.768 -1.81973 1.3935 0
M  V30 10098 C 993.768 -1.58187 0.288702 0
M  V30 10099 O 994.958 -1.65383 0.547181 0
M  V30 10100 C 992.09 -3.19937 1.177 0
M  V30 10101 H 993.283 -1.83939 2.36868 0
M  V30 10102 H 990.836 -0.928742 1.25714 0
M  V30 10103 H 991.571 -3.23625 0.209093 0
M  V30 10104 H 991.356 -3.386 1.97719 0
M  V30 10105 H 992.846 -3.99981 1.20022 0
M  V30 10106 N 993.283 -1.25346 -0.955304 0
M  V30 10107 C 994.23 -1.05672 -2.05188 0
M  V30 10108 C 995.2 0.0339217 -1.66065 0
M  V30 10109 O 996.385 -0.123126 -1.90402 0
M  V30 10110 C 993.525 -0.680791 -3.38318 0
M  V30 10111 C 992.638 -1.84622 -3.90562 0
M  V30 10112 C 991.773 -1.41471 -5.12015 0
M  V30 10113 C 990.812 -2.54931 -5.56486 0
M  V30 10114 N 989.949 -2.1256 -6.69151 0
M  V30 10115 H 994.789 -1.9952 -2.2135 0
M  V30 10116 H 992.326 -0.993588 -1.08472 0
M  V30 10117 H 994.284 -0.443794 -4.14833 0
M  V30 10118 H 992.914 0.2207 -3.22045 0
M  V30 10119 H 991.966 -2.19654 -3.10574 0
M  V30 10120 H 993.278 -2.6983 -4.19515 0
M  V30 10121 H 992.432 -1.13732 -5.95945 0
M  V30 10122 H 991.171 -0.533334 -4.84775 0
M  V30 10123 H 990.176 -2.83415 -4.71122 0
M  V30 10124 H 991.401 -3.43645 -5.85734 0
M  V30 10125 H 989.347 -1.26838 -6.43621 0
M  V30 10126 H 989.264 -2.91317 -6.97618 0
M  V30 10127 H 990.532 -1.87996 -7.5649 0
M  V30 10128 N 994.761 1.15782 -1.06922 0
M  V30 10129 C 995.671 2.24008 -0.696948 0
M  V30 10130 C 996.687 1.71569 0.289862 0
M  V30 10131 O 997.863 2.00929 0.137585 0
M  V30 10132 C 994.928 3.46568 -0.0957895 0
M  V30 10133 C 993.989 4.14017 -1.13528 0
M  V30 10134 C 993.222 5.30725 -0.562713 0
M  V30 10135 O 993.445 5.66992 0.62259 0
M  V30 10136 O 992.379 5.87572 -1.30549 0
M  V30 10137 H 996.205 2.58174 -1.59938 0
M  V30 10138 H 993.79 1.2342 -0.841889 0
M  V30 10139 H 995.672 4.20731 0.237407 0
M  V30 10140 H 994.347 3.14161 0.780027 0
M  V30 10141 H 993.254 3.41795 -1.52076 0
M  V30 10142 H 994.587 4.50493 -1.98285 0
M  V30 10143 N 996.239 0.8527 1.3254 0
M  V30 10144 C 997.485 0.455798 1.97612 0
M  V30 10145 C 997.818 -0.985616 1.6733 0
M  V30 10146 O 997.093 -1.69129 0.960493 0
M  V30 10147 C 997.376 0.69312 3.53366 0
M  V30 10148 C 997.229 2.18281 3.93285 0
M  V30 10149 C 998.548 0.148236 4.3985 0
M  V30 10150 H 995.667 0.167078 0.717812 0
M  V30 10151 H 998.309 1.07076 1.56954 0
M  V30 10152 H 996.459 0.169677 3.88129 0
M  V30 10153 H 998.131 2.77218 3.68711 0
M  V30 10154 H 996.374 2.66206 3.42515 0
M  V30 10155 H 997.045 2.29957 5.01821 0
M  V30 10156 H 999.521 0.595834 4.11812 0
M  V30 10157 H 998.397 0.343873 5.47822 0
M  V30 10158 H 998.658 -0.948872 4.31797 0
M  V30 10159 N 997.718 -1.45297 0.610449 0
M  V30 10160 C 999.134 -1.57225 0.274332 0
M  V30 10161 C 999.334 -1.60136 -1.22306 0
M  V30 10162 O 998.39 -1.5332 -2.00622 0
M  V30 10163 C 999.703 -2.85365 0.948028 0
M  V30 10164 C 1001.25 -2.99044 0.924216 0
M  V30 10165 C 1001.73 -4.29958 1.57798 0
M  V30 10166 N 1003.22 -4.36723 1.5436 0
M  V30 10167 C 1003.95 -5.36695 2.01857 0
M  V30 10168 N 1003.45 -6.43187 2.57453 0
M  V30 10169 N 1005.24 -5.28071 1.92608 0
M  V30 10170 H 997.392 -1.41651 1.58268 0
M  V30 10171 H 999.655 -0.67744 0.663158 0
M  V30 10172 H 999.361 -2.89125 2.00249 0
M  V30 10173 H 999.235 -3.74222 0.473062 0
M  V30 10174 H 1001.62 -2.94849 -0.121709 0
M  V30 10175 H 1001.7 -2.1159 1.43748 0
M  V30 10176 H 1001.35 -4.34912 2.62325 0
M  V30 10177 H 1001.28 -5.16234 1.03972 0
M  V30 10178 H 1003.77 -3.60374 1.13749 0
M  V30 10179 H 1004.08 -7.15722 2.91482 0
M  V30 10180 H 1002.43 -6.4393 2.61493 0
M  V30 10181 H 1005.62 -4.43783 1.48912 0
M  V30 10182 H 1005.79 -6.05832 2.29938 0
M  V30 10183 N 999.196 -0.349774 -1.5367 0
M  V30 10184 C 1000.42 0.246038 -2.05432 0
M  V30 10185 C 1000.84 1.43719 -1.22435 0
M  V30 10186 O 1000.2 1.80622 -0.261166 0
M  V30 10187 C 1000.25 0.65501 -3.55516 0
M  V30 10188 O 999.968 -0.488782 -4.35365 0
M  V30 10189 C 1001.47 1.31088 -4.23475 0
M  V30 10190 H 998.689 0.0463952 -0.669394 0
M  V30 10191 H 1001.23 -0.503566 -1.98203 0
M  V30 10192 H 999.388 1.35455 -3.62947 0
M  V30 10193 H 999.802 -0.161528 -5.24251 0
M  V30 10194 H 1001.28 1.54774 -5.29857 0
M  V30 10195 H 1001.75 2.26636 -3.76208 0
M  V30 10196 H 1002.36 0.653211 -4.20254 0
M  V30 10197 N 1000.67 1.57404 -0.0785433 0
M  V30 10198 C 1001.92 1.93361 0.58786 0
M  V30 10199 C 1002.24 0.959856 1.6974 0
M  V30 10200 O 1001.51 0.0091173 1.95898 0
M  V30 10201 H 1000.09 0.713825 0.220141 0
M  V30 10202 H 1002.75 1.94411 -0.137986 0
M  V30 10203 H 1001.85 2.95346 1.00881 0
M  V30 10204 N 1002.15 -0.195058 1.56388 0
M  V30 10205 C 1003.4 -0.913636 1.8027 0
M  V30 10206 C 1003.72 -1.83791 0.651606 0
M  V30 10207 O 1002.99 -1.931 -0.330057 0
M  V30 10208 H 1001.57 -0.34036 0.664954 0
M  V30 10209 H 1004.23 -0.200559 1.93865 0
M  V30 10210 H 1003.33 -1.50473 2.7343 0
M  V30 10211 N 1003.63 -1.50653 -0.462772 0
M  V30 10212 C 1004.56 -1.64773 -1.57877 0
M  V30 10213 C 1005.54 -0.495664 -1.54861 0
M  V30 10214 O 1006.72 -0.716248 -1.74362 0
M  V30 10215 C 1003.85 -1.63796 -2.9646 0
M  V30 10216 C 1002.9 -2.84663 -3.17599 0
M  V30 10217 S 1003.73 -4.45852 -2.96608 0
M  V30 10218 C 1004.89 -4.47581 -4.37518 0
M  V30 10219 H 1005.12 -2.59172 -1.45661 0
M  V30 10220 H 1002.65 -1.40019 -0.650699 0
M  V30 10221 H 1004.61 -1.63918 -3.76353 0
M  V30 10222 H 1003.27 -0.706185 -3.06059 0
M  V30 10223 H 1002.46 -2.80308 -4.1886 0
M  V30 10224 H 1002.07 -2.82152 -2.45492 0
M  V30 10225 H 1004.36 -4.21656 -5.30295 0
M  V30 10226 H 1005.3 -5.49248 -4.46914 0
M  V30 10227 H 1005.71 -3.7719 -4.19985 0
M  V30 10228 N 1005.11 0.71652 -1.4037 0
M  V30 10229 C 1006.07 1.81231 -1.40313 0
M  V30 10230 C 1007.07 1.58032 -0.297087 0
M  V30 10231 O 1008.26 1.65091 -0.555944 0
M  V30 10232 C 1005.39 3.19308 -1.19395 0
M  V30 10233 H 1006.59 1.8268 -2.3784 0
M  V30 10234 H 1004.14 0.922062 -1.26205 0
M  V30 10235 H 1004.87 3.2351 -0.226252 0
M  V30 10236 H 1004.66 3.37546 -1.99512 0
M  V30 10237 H 1006.15 3.99339 -1.22141 0
M  V30 10238 N 1006.59 1.25851 0.948643 0
M  V30 10239 C 1007.83 1.10954 1.69397 0
M  V30 10240 C 1008.16 -0.348443 1.91353 0
M  V30 10241 O 1007.42 -1.27285 1.48651 0
M  V30 10242 C 1007.72 1.81565 3.07846 0
M  V30 10243 C 1007.38 3.31477 3.0567 0
M  V30 10244 C 1006.04 3.72371 3.04784 0
M  V30 10245 C 1008.4 4.27225 2.98543 0
M  V30 10246 C 1005.72 5.07416 2.94527 0
M  V30 10247 C 1008.08 5.62301 2.89828 0
M  V30 10248 C 1006.74 6.02516 2.87281 0
M  V30 10249 H 1006.01 0.406011 0.619868 0
M  V30 10250 H 1008.66 1.562 1.10787 0
M  V30 10251 H 1006.96 1.28767 3.70035 0
M  V30 10252 H 1008.66 1.67486 3.64348 0
M  V30 10253 H 1005.25 2.98941 3.07135 0
M  V30 10254 H 1009.43 3.96618 2.98342 0
M  V30 10255 H 1004.69 5.37746 2.90928 0
M  V30 10256 H 1008.86 6.36182 2.83276 0
M  V30 10257 H 1006.49 7.07116 2.79089 0
M  V30 10258 N 1008.06 -1.15214 1.07534 0
M  V30 10259 C 1009.01 -2.18022 0.667108 0
M  V30 10260 C 1010 -1.57911 -0.308714 0
M  V30 10261 O 1011.19 -1.76578 -0.122147 0
M  V30 10262 C 1008.32 -3.43232 0.0684348 0
M  V30 10263 C 1007.41 -4.10393 1.06951 0
M  V30 10264 N 1007.8 -4.53013 2.24973 0
M  V30 10265 C 1006.09 -4.36758 0.903262 0
M  V30 10266 C 1006.8 -5.05118 2.88498 0
M  V30 10267 N 1005.77 -4.98777 2.16153 0
M  V30 10268 H 1009.57 -2.48706 1.56597 0
M  V30 10269 H 1007.09 -1.31801 0.948796 0
M  V30 10270 H 1009.08 -4.16197 -0.241934 0
M  V30 10271 H 1007.74 -3.14031 -0.825525 0
M  V30 10272 H 1008.76 -4.4634 2.6268 0
M  V30 10273 H 1005.43 -4.17453 0.0623543 0
M  V30 10274 H 1006.82 -5.48039 3.8872 0
M  V30 10275 N 1009.54 -0.859717 -1.32086 0
M  V30 10276 C 1010.77 -0.478865 -2.01796 0
M  V30 10277 C 1011.19 0.918274 -1.64163 0
M  V30 10278 O 1010.55 1.60409 -0.844896 0
M  V30 10279 C 1010.6 -0.631356 -3.5503 0
M  V30 10280 O 1009.7 0.333712 -4.11048 0
M  V30 10281 H 1009.04 -0.191775 -0.635703 0
M  V30 10282 H 1011.57 -1.16031 -1.68517 0
M  V30 10283 H 1011.58 -0.520783 -4.04663 0
M  V30 10284 H 1010.26 -1.65015 -3.81763 0
M  V30 10285 H 1008.84 0.178953 -3.7247 0
M  V30 10286 N 1011.02 1.44971 -0.618145 0
M  V30 10287 C 1012.25 2.06228 -0.123985 0
M  V30 10288 C 1012.66 1.46166 1.20134 0
M  V30 10289 O 1012 0.574099 1.74499 0
M  V30 10290 C 1012.06 3.59413 0.0789098 0
M  V30 10291 C 1011.73 4.41869 -1.16624 0
M  V30 10292 C 1012.72 4.76177 -2.0869 0
M  V30 10293 C 1010.41 4.82453 -1.39802 0
M  V30 10294 C 1012.4 5.49938 -3.22254 0
M  V30 10295 C 1010.09 5.55965 -2.53665 0
M  V30 10296 C 1011.09 5.89626 -3.44718 0
M  V30 10297 O 1010.78 6.61644 -4.56598 0
M  V30 10298 H 1010.51 0.672274 -0.0708822 0
M  V30 10299 H 1013.06 1.87038 -0.848868 0
M  V30 10300 H 1011.29 3.77043 0.8588 0
M  V30 10301 H 1012.98 4.02478 0.52599 0
M  V30 10302 H 1013.75 4.45372 -1.92012 0
M  V30 10303 H 1009.63 4.55681 -0.698245 0
M  V30 10304 H 1013.17 5.76129 -3.93347 0
M  V30 10305 H 1009.07 5.86185 -2.70291 0
M  V30 10306 H 1009.84 6.80103 -4.55414 0
M  V30 10307 N 1012.5 0.357919 1.53482 0
M  V30 10308 C 1013.75 -0.234163 2.01142 0
M  V30 10309 C 1014.07 -1.49399 1.2454 0
M  V30 10310 O 1013.33 -1.92981 0.325111 0
M  V30 10311 C 1013.63 -0.579617 3.52669 0
M  V30 10312 C 1013.29 0.584988 4.47089 0
M  V30 10313 C 1011.96 0.904558 4.72622 0
M  V30 10314 C 1014.31 1.3656 5.02992 0
M  V30 10315 C 1011.64 2.00685 5.5131 0
M  V30 10316 C 1013.99 2.45824 5.82884 0
M  V30 10317 C 1012.65 2.78325 6.06706 0
M  V30 10318 H 1011.92 -0.0856863 0.736029 0
M  V30 10319 H 1014.57 0.488801 1.85157 0
M  V30 10320 H 1012.87 -1.38349 3.66561 0
M  V30 10321 H 1014.57 -1.04985 3.87013 0
M  V30 10322 H 1011.16 0.32587 4.27359 0
M  V30 10323 H 1015.34 1.13196 4.83219 0
M  V30 10324 H 1010.6 2.26272 5.67988 0
M  V30 10325 H 1014.77 3.06732 6.25211 0
M  V30 10326 H 1012.4 3.63862 6.67464 0
M  V30 10327 N 1013.98 -1.5736 0.0868897 0
M  V30 10328 C 1014.91 -2.09211 -0.911382 0
M  V30 10329 C 1015.89 -1.00072 -1.28157 0
M  V30 10330 O 1017.07 -1.27514 -1.38825 0
M  V30 10331 C 1014.2 -2.56229 -2.21504 0
M  V30 10332 C 1013.24 -3.76948 -1.99531 0
M  V30 10333 S 1014.08 -5.20926 -1.24083 0
M  V30 10334 C 1015.23 -5.71288 -2.55697 0
M  V30 10335 H 1015.47 -2.93557 -0.470245 0
M  V30 10336 H 1013 -1.53883 -0.126218 0
M  V30 10337 H 1014.96 -2.83978 -2.96424 0
M  V30 10338 H 1013.62 -1.72123 -2.6274 0
M  V30 10339 H 1012.81 -4.07887 -2.96048 0
M  V30 10340 H 1012.41 -3.4965 -1.32744 0
M  V30 10341 H 1014.71 -5.79054 -3.51714 0
M  V30 10342 H 1015.65 -6.6993 -2.29347 0
M  V30 10343 H 1016.06 -4.99178 -2.63594 0
M  V30 10344 N 1015.45 0.186762 -1.56489 0
M  V30 10345 C 1016.36 1.25169 -1.98419 0
M  V30 10346 C 1017.38 1.49329 -0.893124 0
M  V30 10347 O 1018.56 1.61781 -1.19954 0
M  V30 10348 C 1015.62 2.57422 -2.32239 0
M  V30 10349 C 1014.68 2.4126 -3.55095 0
M  V30 10350 C 1013.92 3.67206 -3.87292 0
M  V30 10351 O 1014.14 4.71731 -3.20665 0
M  V30 10352 O 1013.07 3.62238 -4.80695 0
M  V30 10353 H 1016.9 0.925834 -2.89244 0
M  V30 10354 H 1014.48 0.392421 -1.44154 0
M  V30 10355 H 1016.37 3.35466 -2.5503 0
M  V30 10356 H 1015.04 2.89618 -1.44579 0
M  V30 10357 H 1013.95 1.61299 -3.37541 0
M  V30 10358 H 1015.28 2.13994 -4.43247 0
M  V30 10359 N 1016.93 1.50896 0.454776 0
M  V30 10360 C 1017.9 1.70377 1.53312 0
M  V30 10361 C 1018.9 0.57408 1.50203 0
M  V30 10362 O 1020.09 0.841374 1.52534 0
M  V30 10363 C 1017.22 1.74411 2.92905 0
M  V30 10364 H 1018.41 2.66599 1.37349 0
M  V30 10365 H 1015.96 1.40622 0.68228 0
M  V30 10366 H 1016.7 0.799408 3.14293 0
M  V30 10367 H 1016.48 2.56496 2.96568 0
M  V30 10368 H 1017.97 1.91382 3.71164 0
M  V30 10369 N 1018.41 -0.709066 1.40748 0
M  V30 10370 C 1019.66 -1.4646 1.38681 0
M  V30 10371 C 1019.97 -1.95599 -0.0056209 0
M  V30 10372 O 1021.18 -2.71091 -0.148907 0
M  V30 10373 C 1019.63 -2.64771 2.43771 0
M  V30 10374 C 1019.24 -2.22474 3.88856 0
M  V30 10375 C 1020.99 -3.42475 2.50821 0
M  V30 10376 C 1018.89 -3.37663 4.85528 0
M  V30 10377 H 1017.82 -0.550084 0.515678 0
M  V30 10378 H 1020.47 -0.771074 1.66513 0
M  V30 10379 H 1018.86 -3.36325 2.09048 0
M  V30 10380 H 1020.03 -1.58297 4.32757 0
M  V30 10381 H 1018.35 -1.57798 3.85342 0
M  V30 10382 H 1020.94 -4.28201 3.20232 0
M  V30 10383 H 1021.29 -3.86738 1.54076 0
M  V30 10384 H 1021.82 -2.77969 2.84567 0
M  V30 10385 H 1018.56 -2.98426 5.83628 0
M  V30 10386 H 1018.08 -4.00734 4.46287 0
M  V30 10387 H 1019.76 -4.03636 5.05655 0
M  V30 10388 N 1019.89 -1.26353 -0.941956 0
M  V30 10389 C 1020.85 -1.07904 -2.02211 0
M  V30 10390 C 1021.85 -0.0276283 -1.60776 0
M  V30 10391 O 1023.04 -0.270965 -1.7208 0
M  V30 10392 C 1020.17 -0.641084 -3.34818 0
M  V30 10393 H 1021.37 -2.03804 -2.20009 0
M  V30 10394 H 1018.92 -1.08939 -1.12081 0
M  V30 10395 H 1019.66 0.319943 -3.22718 0
M  V30 10396 H 1019.44 -1.40027 -3.66244 0
M  V30 10397 H 1020.93 -0.533826 -4.14174 0
M  V30 10398 N 1021.37 1.14642 -1.08144 0
M  V30 10399 C 1022.78 1.6719 -0.830923 0
M  V30 10400 C 1023.13 1.85373 0.642749 0
M  V30 10401 O 1022.25 1.56293 1.49671 0
M  V30 10402 C 1022.85 3.03697 -1.50179 0
M  V30 10403 C 1021.41 3.5329 -1.29858 0
M  V30 10404 C 1020.56 2.28828 -1.5663 0
M  V30 10405 H 1023.51 0.987441 -1.24239 0
M  V30 10406 H 1023.53 3.69023 -0.9275 0
M  V30 10407 H 1023.04 2.90431 -2.57432 0
M  V30 10408 H 1021.14 3.71783 -0.246626 0
M  V30 10409 H 1021.25 4.34231 -2.02436 0
M  V30 10410 H 1019.62 2.34769 -0.987716 0
M  V30 10411 H 1020.4 2.18141 -2.65084 0
M  V30 10412 N 1022.85 0.866709 1.31628 0
M  V30 10413 C 1024.26 0.529032 1.79048 0
M  V30 10414 C 1024.61 -0.953871 1.71452 0
M  V30 10415 O 1023.73 -1.74462 1.28031 0
M  V30 10416 C 1024.33 0.953522 3.25105 0
M  V30 10417 C 1022.89 0.667554 3.70433 0
M  V30 10418 C 1022.03 1.14664 2.52483 0
M  V30 10419 H 1024.98 1.05275 1.18756 0
M  V30 10420 H 1025.01 0.274844 3.79506 0
M  V30 10421 H 1024.52 2.03283 3.30602 0
M  V30 10422 H 1022.62 -0.400532 3.70441 0
M  V30 10423 H 1022.73 1.2423 4.62714 0
M  V30 10424 H 1021.1 0.566502 2.4832 0
M  V30 10425 H 1021.88 2.2333 2.60727 0
M  V30 10426 N 1024.32 -1.44642 0.625825 0
M  V30 10427 C 1025.25 -2.33397 -0.0692188 0
M  V30 10428 C 1026.23 -1.47898 -0.840241 0
M  V30 10429 O 1027.42 -1.7663 -0.807176 0
M  V30 10430 C 1024.55 -3.30888 -1.055 0
M  V30 10431 C 1023.5 -4.26164 -0.395968 0
M  V30 10432 C 1022.83 -5.13483 -1.49128 0
M  V30 10433 C 1024.13 -5.17663 0.694433 0
M  V30 10434 H 1025.82 -2.91763 0.671925 0
M  V30 10435 H 1023.37 -1.40294 0.324573 0
M  V30 10436 H 1025.32 -3.91861 -1.54993 0
M  V30 10437 H 1024.05 -2.7072 -1.82696 0
M  V30 10438 H 1022.71 -3.66516 0.0782691 0
M  V30 10439 H 1022.35 -4.49672 -2.25399 0
M  V30 10440 H 1022.05 -5.78038 -1.05573 0
M  V30 10441 H 1023.58 -5.77327 -1.98813 0
M  V30 10442 H 1024.99 -5.72602 0.282818 0
M  V30 10443 H 1023.39 -5.90793 1.05281 0
M  V30 10444 H 1024.46 -4.58994 1.56372 0
M  V30 10445 N 1025.8 -0.366053 -1.5329 0
M  V30 10446 C 1026.73 0.47211 -2.28677 0
M  V30 10447 C 1027.71 1.08353 -1.31125 0
M  V30 10448 O 1028.9 1.10069 -1.59995 0
M  V30 10449 C 1026.03 1.61174 -3.07637 0
M  V30 10450 C 1024.98 1.12755 -4.12881 0
M  V30 10451 C 1024.31 2.35745 -4.79925 0
M  V30 10452 C 1025.61 0.211954 -5.2187 0
M  V30 10453 H 1027.3 -0.156838 -2.98989 0
M  V30 10454 H 1024.85 -0.0768709 -1.43795 0
M  V30 10455 H 1026.8 2.20473 -3.59123 0
M  V30 10456 H 1025.52 2.26793 -2.35016 0
M  V30 10457 H 1024.18 0.557234 -3.6234 0
M  V30 10458 H 1023.83 2.99821 -4.03877 0
M  V30 10459 H 1023.53 2.04019 -5.51044 0
M  V30 10460 H 1025.06 2.95729 -5.34207 0
M  V30 10461 H 1026.47 0.71244 -5.68856 0
M  V30 10462 H 1024.87 -0.0144501 -6.00098 0
M  V30 10463 H 1025.94 -0.745753 -4.79131 0
M  V30 10464 N 1027.28 1.57312 -0.0952337 0
M  V30 10465 C 1028.21 2.11059 0.893678 0
M  V30 10466 C 1029.22 1.04787 1.24594 0
M  V30 10467 O 1030.41 1.32233 1.19903 0
M  V30 10468 C 1027.51 2.57552 2.20272 0
M  V30 10469 C 1026.69 3.87661 2.02578 0
M  V30 10470 C 1025.75 4.2 3.16996 0
M  V30 10471 O 1024.77 4.89219 2.90953 0
M  V30 10472 N 1025.97 3.75414 4.42769 0
M  V30 10473 H 1028.74 2.96532 0.434632 0
M  V30 10474 H 1026.3 1.6165 0.0898661 0
M  V30 10475 H 1028.29 2.76232 2.95766 0
M  V30 10476 H 1026.86 1.7709 2.576 0
M  V30 10477 H 1026.08 3.78128 1.11413 0
M  V30 10478 H 1027.37 4.7278 1.88032 0
M  V30 10479 H 1026.77 3.1954 4.66809 0
M  V30 10480 H 1025.32 3.99249 5.15212 0
M  V30 10481 N 1028.76 -0.17846 1.56586 0
M  V30 10482 C 1029.67 -1.24115 1.9908 0
M  V30 10483 C 1030.68 -1.48854 0.901031 0
M  V30 10484 O 1031.86 -1.61142 1.2081 0
M  V30 10485 C 1028.92 -2.56187 2.33601 0
M  V30 10486 C 1027.99 -2.39373 3.56369 0
M  V30 10487 C 1027.22 -3.65147 3.89234 0
M  V30 10488 O 1027.44 -4.70024 3.23162 0
M  V30 10489 O 1026.38 -3.59683 4.82609 0
M  V30 10490 H 1030.2 -0.910482 2.89731 0
M  V30 10491 H 1027.79 -0.38477 1.4436 0
M  V30 10492 H 1029.67 -3.34109 2.56806 0
M  V30 10493 H 1028.34 -2.88847 1.46113 0
M  V30 10494 H 1027.25 -1.59506 3.38391 0
M  V30 10495 H 1028.58 -2.1164 4.44375 0
M  V30 10496 N 1030.24 -1.51135 -0.446768 0
M  V30 10497 C 1031.17 -1.74709 -1.54916 0
M  V30 10498 C 1032.15 -0.596628 -1.59293 0
M  V30 10499 O 1033.33 -0.838356 -1.75172 0
M  V30 10500 C 1030.46 -1.86353 -2.9307 0
M  V30 10501 C 1029.42 -3.01725 -3.03556 0
M  V30 10502 C 1028.74 -2.9854 -4.43597 0
M  V30 10503 C 1030.04 -4.41848 -2.7851 0
M  V30 10504 H 1031.74 -2.67014 -1.3544 0
M  V30 10505 H 1029.28 -1.28489 -0.650131 0
M  V30 10506 H 1031.23 -2.01428 -3.70141 0
M  V30 10507 H 1029.96 -0.906887 -3.13756 0
M  V30 10508 H 1028.62 -2.86339 -2.28922 0
M  V30 10509 H 1028.27 -2.00673 -4.61237 0
M  V30 10510 H 1027.97 -3.76008 -4.51544 0
M  V30 10511 H 1029.49 -3.15696 -5.22655 0
M  V30 10512 H 1030.9 -4.57633 -3.45319 0
M  V30 10513 H 1029.3 -5.2095 -2.97877 0
M  V30 10514 H 1030.37 -4.52536 -1.74182 0
M  V30 10515 N 1031.71 0.701592 -1.41122 0
M  V30 10516 C 1032.66 1.81559 -1.42495 0
M  V30 10517 C 1033.63 1.63722 -0.280078 0
M  V30 10518 O 1034.82 1.84658 -0.480231 0
M  V30 10519 C 1031.96 3.19392 -1.30702 0
M  V30 10520 C 1031.07 3.48704 -2.55009 0
M  V30 10521 C 1030.2 4.76118 -2.35554 0
M  V30 10522 C 1029.24 4.98378 -3.55367 0
M  V30 10523 N 1028.38 6.17014 -3.3502 0
M  V30 10524 H 1033.22 1.7972 -2.37707 0
M  V30 10525 H 1030.76 0.877727 -1.18044 0
M  V30 10526 H 1032.71 3.99004 -1.21867 0
M  V30 10527 H 1031.34 3.20423 -0.391012 0
M  V30 10528 H 1030.4 2.63542 -2.74317 0
M  V30 10529 H 1031.71 3.61057 -3.44151 0
M  V30 10530 H 1030.86 5.63774 -2.24152 0
M  V30 10531 H 1029.6 4.66 -1.43859 0
M  V30 10532 H 1028.61 4.09172 -3.6723 0
M  V30 10533 H 1029.83 5.10359 -4.48007 0
M  V30 10534 H 1027.78 6.0812 -2.4602 0
M  V30 10535 H 1027.69 6.30107 -4.17733 0
M  V30 10536 H 1028.96 7.0742 -3.27379 0
M  V30 10537 N 1033.19 1.2685 0.935242 0
M  V30 10538 C 1034.14 1.08923 2.03481 0
M  V30 10539 C 1035.11 -0.00749786 1.66098 0
M  V30 10540 O 1036.29 0.153401 1.90182 0
M  V30 10541 C 1033.43 0.734529 3.37192 0
M  V30 10542 C 1032.55 1.90812 3.87576 0
M  V30 10543 C 1031.68 1.49599 5.097 0
M  V30 10544 C 1030.72 2.63752 5.5236 0
M  V30 10545 N 1029.86 2.23179 6.65684 0
M  V30 10546 H 1034.7 2.03016 2.18148 0
M  V30 10547 H 1032.23 1.01072 1.06878 0
M  V30 10548 H 1034.19 0.509734 4.14074 0
M  V30 10549 H 1032.82 -0.169438 3.22355 0
M  V30 10550 H 1031.87 2.24567 3.0704 0
M  V30 10551 H 1033.19 2.7647 4.1517 0
M  V30 10552 H 1032.34 1.23199 5.9406 0
M  V30 10553 H 1031.08 0.61039 4.83865 0
M  V30 10554 H 1030.08 2.90874 4.66554 0
M  V30 10555 H 1031.31 3.5292 5.80193 0
M  V30 10556 H 1029.26 1.37061 6.41522 0
M  V30 10557 H 1029.17 3.02379 6.92895 0
M  V30 10558 H 1030.44 2.00007 7.53404 0
M  V30 10559 N 1034.67 -1.14067 1.0875 0
M  V30 10560 C 1035.92 -1.85459 0.82053 0
M  V30 10561 C 1036.25 -1.82923 -0.65213 0
M  V30 10562 O 1035.52 -1.26241 -1.47965 0
M  V30 10563 C 1035.81 -3.33937 1.34752 0
M  V30 10564 C 1035.66 -3.45026 2.88578 0
M  V30 10565 C 1036.98 -4.2915 0.975636 0
M  V30 10566 H 1034.1 -0.673384 0.299538 0
M  V30 10567 H 1036.74 -1.33927 1.34772 0
M  V30 10568 H 1034.89 -3.77953 0.899086 0
M  V30 10569 H 1036.56 -3.09771 3.41818 0
M  V30 10570 H 1034.81 -2.86124 3.26061 0
M  V30 10571 H 1035.48 -4.49408 3.20526 0
M  V30 10572 H 1037.95 -3.93168 1.36228 0
M  V30 10573 H 1036.83 -5.31489 1.37152 0
M  V30 10574 H 1037.09 -4.41945 -0.116956 0
M  V30 10575 N 1036.15 -0.873678 -1.31166 0
M  V30 10576 C 1037.4 -0.482577 -1.95842 0
M  V30 10577 C 1037.71 0.970881 -1.69804 0
M  V30 10578 O 1038.92 1.4683 -2.28371 0
M  V30 10579 C 1037.37 -0.812074 -3.50619 0
M  V30 10580 C 1036.98 -2.28254 -3.85492 0
M  V30 10581 C 1038.72 -0.489624 -4.21667 0
M  V30 10582 C 1036.63 -2.55426 -5.33396 0
M  V30 10583 H 1035.56 -0.176736 -0.732994 0
M  V30 10584 H 1038.21 -1.06709 -1.49283 0
M  V30 10585 H 1036.59 -0.156769 -3.9569 0
M  V30 10586 H 1037.77 -2.98122 -3.51369 0
M  V30 10587 H 1036.08 -2.5714 -3.27518 0
M  V30 10588 H 1038.68 -0.669811 -5.30488 0
M  V30 10589 H 1039.02 0.570204 -4.12376 0
M  V30 10590 H 1039.56 -1.10163 -3.82242 0
M  V30 10591 H 1036.3 -3.60106 -5.47726 0
M  V30 10592 H 1035.82 -1.90156 -5.68859 0
M  V30 10593 H 1037.49 -2.40345 -6.00702 0
M  V30 10594 N 1037.63 1.44308 -0.633487 0
M  V30 10595 C 1039.04 1.56768 -0.29931 0
M  V30 10596 C 1039.24 1.62061 1.19743 0
M  V30 10597 O 1038.3 1.56492 1.98158 0
M  V30 10598 C 1039.61 2.8382 -0.993307 0
M  V30 10599 C 1041.16 2.97536 -0.971674 0
M  V30 10600 C 1041.63 4.27393 -1.64618 0
M  V30 10601 N 1043.13 4.34212 -1.61288 0
M  V30 10602 C 1043.86 5.33415 -2.1037 0
M  V30 10603 N 1043.36 6.3901 -2.67653 0
M  V30 10604 N 1045.15 5.24939 -2.00985 0
M  V30 10605 H 1037.3 1.39115 -1.60501 0
M  V30 10606 H 1039.56 0.666804 -0.673852 0
M  V30 10607 H 1039.27 2.85902 -2.04823 0
M  V30 10608 H 1039.14 3.73422 -0.532537 0
M  V30 10609 H 1041.53 2.95005 0.0747854 0
M  V30 10610 H 1041.61 2.09276 -1.47096 0
M  V30 10611 H 1041.26 4.30683 -2.6921 0
M  V30 10612 H 1041.19 5.14515 -1.12171 0
M  V30 10613 H 1043.68 3.58519 -1.19468 0
M  V30 10614 H 1043.99 7.10994 -3.02831 0
M  V30 10615 H 1042.33 6.39689 -2.71705 0
M  V30 10616 H 1045.53 4.41357 -1.55953 0
M  V30 10617 H 1045.7 6.02097 -2.39547 0
M  V30 10618 N 1039.1 0.374177 1.53094 0
M  V30 10619 C 1040.01 -0.475935 2.29722 0
M  V30 10620 C 1041.03 -1.085 1.36029 0
M  V30 10621 O 1042.21 -1.09408 1.69091 0
M  V30 10622 C 1039.27 -1.59572 3.07795 0
M  V30 10623 C 1038.33 -1.01332 4.17169 0
M  V30 10624 C 1037.57 -2.07975 4.9151 0
M  V30 10625 O 1037.79 -3.29232 4.65793 0
M  V30 10626 O 1036.72 -1.7055 5.77232 0
M  V30 10627 H 1040.55 0.147877 3.0334 0
M  V30 10628 H 1038.13 0.138312 1.48758 0
M  V30 10629 H 1040.02 -2.24658 3.5652 0
M  V30 10630 H 1038.69 -2.20478 2.37005 0
M  V30 10631 H 1037.6 -0.326133 3.72676 0
M  V30 10632 H 1038.93 -0.4487 4.90151 0
M  V30 10633 N 1040.58 -1.57259 0.103575 0
M  V30 10634 C 1041.99 -1.81816 -0.424239 0
M  V30 10635 C 1042.34 -1.01976 -1.67617 0
M  V30 10636 O 1041.47 -0.251673 -2.14932 0
M  V30 10637 C 1042.06 -3.29783 -0.776453 0
M  V30 10638 C 1040.62 -3.55074 -1.24897 0
M  V30 10639 C 1039.77 -2.76172 -0.249875 0
M  V30 10640 H 1042.72 -1.55254 0.328913 0
M  V30 10641 H 1042.74 -3.43569 -1.63526 0
M  V30 10642 H 1042.25 -3.87865 0.134906 0
M  V30 10643 H 1040.36 -3.02332 -2.17775 0
M  V30 10644 H 1040.47 -4.637 -1.20495 0
M  V30 10645 H 1038.83 -2.43902 -0.733767 0
M  V30 10646 H 1039.62 -3.37007 0.65431 0
M  V30 10647 N 1042.06 0.170153 -1.56679 0
M  V30 10648 C 1043.01 1.21064 -1.965 0
M  V30 10649 C 1043.98 1.43928 -0.829092 0
M  V30 10650 O 1045.16 1.56649 -1.08931 0
M  V30 10651 C 1042.3 2.54468 -2.33109 0
M  V30 10652 C 1041.42 2.38974 -3.59883 0
M  V30 10653 C 1040.55 3.65252 -3.857 0
M  V30 10654 C 1039.59 3.44696 -5.05817 0
M  V30 10655 N 1038.73 4.63047 -5.27761 0
M  V30 10656 H 1043.57 0.864055 -2.85198 0
M  V30 10657 H 1041.1 0.415243 -1.41117 0
M  V30 10658 H 1043.06 3.32222 -2.52358 0
M  V30 10659 H 1041.69 2.8712 -1.4752 0
M  V30 10660 H 1040.74 1.5239 -3.48542 0
M  V30 10661 H 1042.06 2.19731 -4.47794 0
M  V30 10662 H 1041.21 4.51441 -4.05322 0
M  V30 10663 H 1039.95 3.87475 -2.96166 0
M  V30 10664 H 1038.95 2.56893 -4.86092 0
M  V30 10665 H 1040.18 3.23894 -5.96883 0
M  V30 10666 H 1038.12 4.85487 -4.41179 0
M  V30 10667 H 1038.04 4.46722 -6.09898 0
M  V30 10668 H 1039.31 5.50516 -5.51863 0
M  V30 10669 N 1043.54 1.5137 0.438746 0
M  V30 10670 C 1044.95 1.56462 1.01866 0
M  V30 10671 C 1045.3 0.387244 1.9234 0
M  V30 10672 O 1044.43 -0.496131 2.10636 0
M  V30 10673 C 1045.02 2.83557 1.85421 0
M  V30 10674 C 1043.58 2.91224 2.38464 0
M  V30 10675 C 1042.73 2.51109 1.17641 0
M  V30 10676 H 1045.68 1.57167 0.220072 0
M  V30 10677 H 1045.7 2.6724 2.70857 0
M  V30 10678 H 1045.21 3.69229 1.19546 0
M  V30 10679 H 1043.31 2.09979 3.07798 0
M  V30 10680 H 1043.42 3.94844 2.71358 0
M  V30 10681 H 1041.79 2.04276 1.5213 0
M  V30 10682 H 1042.57 3.39125 0.533785 0
M  V30 10683 N 1045.02 -0.694098 1.41492 0
M  V30 10684 C 1046.43 -1.00487 1.23994 0
M  V30 10685 C 1046.63 -2.01078 0.130346 0
M  V30 10686 O 1045.69 -2.47403 -0.504775 0
M  V30 10687 C 1047 -1.52808 2.58979 0
M  V30 10688 C 1048.55 -1.64684 2.66173 0
M  V30 10689 C 1049.02 -2.20406 4.01479 0
M  V30 10690 N 1050.52 -2.27765 4.03333 0
M  V30 10691 C 1051.25 -2.7191 5.04829 0
M  V30 10692 N 1050.75 -3.1565 6.16714 0
M  V30 10693 N 1052.54 -2.71487 4.9219 0
M  V30 10694 H 1044.69 -0.027746 2.12382 0
M  V30 10695 H 1046.95 -0.0748741 0.945039 0
M  V30 10696 H 1046.66 -0.863519 3.40934 0
M  V30 10697 H 1046.53 -2.50998 2.81566 0
M  V30 10698 H 1048.92 -2.30251 1.84576 0
M  V30 10699 H 1049 -0.65035 2.47395 0
M  V30 10700 H 1048.65 -1.55454 4.83525 0
M  V30 10701 H 1048.58 -3.2081 4.17599 0
M  V30 10702 H 1051.07 -1.96899 3.22551 0
M  V30 10703 H 1051.38 -3.47966 6.90029 0
M  V30 10704 H 1049.72 -3.13555 6.20248 0
M  V30 10705 H 1052.92 -2.36666 4.03865 0
M  V30 10706 H 1053.09 -3.05573 5.71427 0
M  V30 10707 N 1046.49 -1.27344 -0.928501 0
M  V30 10708 C 1047.72 -1.16557 -1.7155 0
M  V30 10709 C 1048.14 0.274044 -1.86093 0
M  V30 10710 O 1047.5 1.19847 -1.36038 0
M  V30 10711 C 1047.55 -1.85332 -3.09329 0
M  V30 10712 O 1046.65 -1.15074 -3.9602 0
M  V30 10713 H 1046 -0.405423 -0.525859 0
M  V30 10714 H 1048.53 -1.68399 -1.16202 0
M  V30 10715 H 1048.54 -1.92659 -3.59648 0
M  V30 10716 H 1047.21 -2.90056 -2.98061 0
M  V30 10717 H 1045.79 -1.1581 -3.54461 0
M  V30 10718 N 1047.97 1.13488 -1.09353 0
M  V30 10719 C 1048.94 2.17066 -0.735863 0
M  V30 10720 C 1049.94 1.59086 0.234181 0
M  V30 10721 O 1051.13 1.74196 0.012463 0
M  V30 10722 C 1048.26 3.40786 -0.0880975 0
M  V30 10723 H 1049.45 2.50221 -1.65316 0
M  V30 10724 H 1047 1.28304 -0.89263 0
M  V30 10725 H 1047.74 3.1322 0.840462 0
M  V30 10726 H 1047.52 3.8414 -0.786073 0
M  V30 10727 H 1049.01 4.17342 0.146775 0
M  V30 10728 N 1049.45 0.880621 1.30701 0
M  V30 10729 C 1050.87 0.574015 1.4892 0
M  V30 10730 C 1051.07 -0.889312 1.80813 0
M  V30 10731 O 1050.12 -1.67082 1.89314 0
M  V30 10732 C 1051.44 1.48341 2.61563 0
M  V30 10733 C 1052.98 1.48658 2.75445 0
M  V30 10734 C 1053.46 2.3818 3.91196 0
M  V30 10735 N 1054.95 2.36119 3.985 0
M  V30 10736 C 1055.69 3.02101 4.87363 0
M  V30 10737 N 1055.18 3.77293 5.81052 0
M  V30 10738 N 1056.97 2.91356 4.80696 0
M  V30 10739 H 1049.13 1.82732 1.08271 0
M  V30 10740 H 1051.39 0.781939 0.535981 0
M  V30 10741 H 1051.09 2.52515 2.44804 0
M  V30 10742 H 1050.97 1.18977 3.57944 0
M  V30 10743 H 1053.36 0.452374 2.91612 0
M  V30 10744 H 1053.44 1.8205 1.79698 0
M  V30 10745 H 1053.08 3.41683 3.75786 0
M  V30 10746 H 1053.01 2.02106 4.86272 0
M  V30 10747 H 1055.5 1.81474 3.31475 0
M  V30 10748 H 1055.81 4.24742 6.45612 0
M  V30 10749 H 1054.16 3.81401 5.80998 0
M  V30 10750 H 1057.35 2.32143 4.06481 0
M  V30 10751 H 1057.52 3.43056 5.49742 0
M  V30 10752 N 1050.93 -1.4397 0.641131 0
M  V30 10753 C 1052.18 -2.02782 0.158406 0
M  V30 10754 C 1052.53 -1.496 -1.20986 0
M  V30 10755 O 1051.82 -0.674517 -1.79334 0
M  V30 10756 C 1052.02 -3.5727 0.0963368 0
M  V30 10757 C 1051.85 -4.25441 1.45704 0
M  V30 10758 C 1050.62 -4.62008 2.04637 0
M  V30 10759 C 1052.81 -4.55238 2.39297 0
M  V30 10760 N 1050.8 -5.15194 3.33839 0
M  V30 10761 C 1052.17 -5.09613 3.53121 0
M  V30 10762 C 1054.22 -4.37197 2.38251 0
M  V30 10763 C 1052.93 -5.47847 4.66108 0
M  V30 10764 C 1054.95 -4.76485 3.50309 0
M  V30 10765 C 1054.31 -5.30982 4.62858 0
M  V30 10766 H 1050.41 -0.775304 0.102117 0
M  V30 10767 H 1053 -1.75321 0.846805 0
M  V30 10768 H 1051.17 -3.84322 -0.561369 0
M  V30 10769 H 1052.9 -4.02757 -0.39614 0
M  V30 10770 H 1049.65 -4.46653 1.57474 0
M  V30 10771 H 1050.08 -5.46253 3.99921 0
M  V30 10772 H 1054.72 -3.94347 1.5248 0
M  V30 10773 H 1052.44 -5.89646 5.52579 0
M  V30 10774 H 1056.02 -4.6423 3.50687 0
M  V30 10775 H 1054.9 -5.6082 5.48133 0
M  V30 10776 N 1052.41 -0.382291 -1.52893 0
M  V30 10777 C 1053.34 0.447829 -2.29165 0
M  V30 10778 C 1054.32 1.06956 -1.32267 0
M  V30 10779 O 1055.5 1.08365 -1.61154 0
M  V30 10780 C 1052.63 1.57902 -3.09329 0
M  V30 10781 C 1051.59 1.08369 -4.14053 0
M  V30 10782 C 1050.91 2.30641 -4.82399 0
M  V30 10783 C 1052.21 0.156591 -5.22065 0
M  V30 10784 H 1053.91 -0.188541 -2.98806 0
M  V30 10785 H 1051.45 -0.0921179 -1.43705 0
M  V30 10786 H 1053.41 2.16652 -3.61442 0
M  V30 10787 H 1052.13 2.24287 -2.37409 0
M  V30 10788 H 1050.79 0.518772 -3.62911 0
M  V30 10789 H 1050.44 2.9552 -4.07034 0
M  V30 10790 H 1050.14 1.98163 -5.53177 0
M  V30 10791 H 1051.66 2.90047 -5.37313 0
M  V30 10792 H 1053.08 0.652065 -5.6958 0
M  V30 10793 H 1051.47 -0.0780978 -6.00049 0
M  V30 10794 H 1052.54 -0.796529 -4.78313 0
M  V30 10795 N 1053.89 1.57202 -0.111913 0
M  V30 10796 C 1055.11 1.99723 0.559054 0
M  V30 10797 C 1055.54 0.990968 1.59879 0
M  V30 10798 O 1054.89 -0.038311 1.8126 0
M  V30 10799 C 1054.94 3.41151 1.16826 0
M  V30 10800 O 1054.05 3.43383 2.2839 0
M  V30 10801 H 1053.39 0.649004 0.140319 0
M  V30 10802 H 1055.92 2.03637 -0.198295 0
M  V30 10803 H 1055.93 3.79208 1.50551 0
M  V30 10804 H 1054.6 4.13907 0.406637 0
M  V30 10805 H 1053.18 3.17138 1.96158 0
M  V30 10806 N 1055.36 -0.161842 1.56767 0
M  V30 10807 C 1056.59 -0.892247 1.86672 0
M  V30 10808 C 1057.01 -1.75407 0.69841 0
M  V30 10809 O 1056.36 -1.7945 -0.332251 0
M  V30 10810 C 1056.41 -1.7612 3.15696 0
M  V30 10811 O 1056.14 -0.934131 4.28025 0
M  V30 10812 C 1057.64 -2.60046 3.59014 0
M  V30 10813 H 1054.86 -0.258747 0.619105 0
M  V30 10814 H 1057.4 -0.159089 2.0388 0
M  V30 10815 H 1055.56 -2.44759 3.00286 0
M  V30 10816 H 1055.97 -1.52931 5.01709 0
M  V30 10817 H 1057.44 -3.16618 4.5217 0
M  V30 10818 H 1057.92 -3.35374 2.83586 0
M  V30 10819 H 1058.53 -1.96724 3.77067 0
M  V30 10820 N 1056.84 -1.516 -0.430713 0
M  V30 10821 C 1058.07 -1.687 -1.20644 0
M  V30 10822 C 1058.49 -0.386555 -1.84085 0
M  V30 10823 O 1057.85 0.653952 -1.69095 0
M  V30 10824 C 1057.9 -2.80887 -2.2613 0
M  V30 10825 O 1057 -2.44952 -3.31772 0
M  V30 10826 H 1056.34 -0.562289 -0.353167 0
M  V30 10827 H 1058.87 -1.98198 -0.507807 0
M  V30 10828 H 1058.88 -3.05167 -2.70809 0
M  V30 10829 H 1057.56 -3.75249 -1.79334 0
M  V30 10830 H 1056.13 -2.31267 -2.92523 0
M  V30 10831 N 1058.32 0.686584 -1.41858 0
M  V30 10832 C 1059.57 1.44235 -1.40994 0
M  V30 10833 C 1059.88 1.95583 -0.0254979 0
M  V30 10834 O 1061.09 2.71294 0.10576 0
M  V30 10835 C 1059.54 2.6086 -2.47952 0
M  V30 10836 C 1059.15 2.16259 -3.92347 0
M  V30 10837 C 1060.9 3.38441 -2.56237 0
M  V30 10838 C 1058.8 3.29896 -4.90838 0
M  V30 10839 H 1057.73 0.54181 -0.524364 0
M  V30 10840 H 1060.38 0.744486 -1.67719 0
M  V30 10841 H 1058.77 3.32957 -2.14373 0
M  V30 10842 H 1059.94 1.51392 -4.35221 0
M  V30 10843 H 1058.25 1.51648 -3.87804 0
M  V30 10844 H 1060.85 4.23052 -3.27003 0
M  V30 10845 H 1061.19 3.84238 -1.6021 0
M  V30 10846 H 1061.73 2.73406 -2.88953 0
M  V30 10847 H 1058.47 2.89104 -5.88302 0
M  V30 10848 H 1057.99 3.93584 -4.52606 0
M  V30 10849 H 1059.67 3.95541 -5.12012 0
M  V30 10850 N 1059.8 1.27835 0.921735 0
M  V30 10851 C 1061.21 1.13151 1.48505 0
M  V30 10852 C 1061.56 -0.281373 1.94172 0
M  V30 10853 O 1060.68 -1.17487 1.8173 0
M  V30 10854 C 1061.28 2.04792 2.69899 0
M  V30 10855 C 1059.84 1.94196 3.22436 0
M  V30 10856 C 1058.99 1.96999 1.95158 0
M  V30 10857 H 1061.94 1.40641 0.735241 0
M  V30 10858 H 1061.96 1.60724 3.44889 0
M  V30 10859 H 1061.47 3.07615 2.36631 0
M  V30 10860 H 1059.57 0.943805 3.60448 0
M  V30 10861 H 1059.68 2.80744 3.88226 0
M  V30 10862 H 1058.05 1.41301 2.11911 0
M  V30 10863 H 1058.83 3.01487 1.64196 0
M  V30 10864 N 1061.28 -1.12907 1.09954 0
M  V30 10865 C 1062.19 -2.22082 0.756095 0
M  V30 10866 C 1063.2 -1.72277 -0.244272 0
M  V30 10867 O 1064.38 -2.01224 -0.0842637 0
M  V30 10868 C 1061.44 -3.46192 0.187642 0
M  V30 10869 C 1060.5 -4.10861 1.24465 0
M  V30 10870 C 1059.74 -5.29047 0.703227 0
M  V30 10871 O 1059.96 -5.68443 -0.472043 0
M  V30 10872 O 1058.89 -5.83904 1.46082 0
M  V30 10873 H 1062.72 -2.53842 1.66727 0
M  V30 10874 H 1060.3 -1.21145 0.874316 0
M  V30 10875 H 1062.19 -4.21212 -0.125774 0
M  V30 10876 H 1060.86 -3.16119 -0.696459 0
M  V30 10877 H 1059.77 -3.37643 1.61085 0
M  V30 10878 H 1061.1 -4.45078 2.10159 0
M  V30 10879 N 1062.75 -0.88754 -1.30232 0
M  V30 10880 C 1063.72 -0.361095 -2.26338 0
M  V30 10881 C 1064.72 0.497871 -1.52898 0
M  V30 10882 O 1065.91 0.30466 -1.71515 0
M  V30 10883 C 1063.04 0.485135 -3.3743 0
M  V30 10884 H 1064.23 -1.20973 -2.74419 0
M  V30 10885 H 1061.78 -0.664619 -1.41466 0
M  V30 10886 H 1062.52 1.35425 -2.9467 0
M  V30 10887 H 1062.3 -0.130173 -3.91884 0
M  V30 10888 H 1063.79 0.845169 -4.08958 0
M  V30 10889 N 1064.23 1.43628 -0.648757 0
M  V30 10890 C 1065.16 2.29045 0.0841858 0
M  V30 10891 C 1066.18 1.42262 0.791537 0
M  V30 10892 O 1067.37 1.66243 0.650039 0
M  V30 10893 C 1064.47 3.19075 1.14212 0
M  V30 10894 C 1063.64 4.34372 0.513799 0
M  V30 10895 C 1062.7 5.05307 1.46803 0
M  V30 10896 O 1061.72 5.60729 0.978346 0
M  V30 10897 N 1062.93 5.08393 2.80209 0
M  V30 10898 H 1065.69 2.9259 -0.648948 0
M  V30 10899 H 1063.25 1.54268 -0.491209 0
M  V30 10900 H 1065.24 3.63395 1.78119 0
M  V30 10901 H 1063.81 2.57161 1.77728 0
M  V30 10902 H 1063.03 3.93024 -0.304262 0
M  V30 10903 H 1064.32 5.08745 0.0749871 0
M  V30 10904 H 1063.72 4.64729 3.22557 0
M  V30 10905 H 1062.28 5.56445 3.3943 0
M  V30 10906 N 1065.71 0.390394 1.52688 0
M  V30 10907 C 1066.96 -0.184195 2.02564 0
M  V30 10908 C 1067.31 -1.44379 1.27171 0
M  V30 10909 O 1066.6 -1.88112 0.36395 0
M  V30 10910 C 1066.8 -0.50468 3.53819 0
M  V30 10911 C 1066.63 0.722304 4.43861 0
M  V30 10912 C 1065.4 1.24189 4.89801 0
M  V30 10913 C 1067.6 1.59494 4.88944 0
M  V30 10914 N 1065.58 2.42631 5.63918 0
M  V30 10915 C 1066.95 2.62577 5.61652 0
M  V30 10916 C 1069 1.61491 4.70983 0
M  V30 10917 C 1067.71 3.67544 6.18307 0
M  V30 10918 C 1069.73 2.65365 5.28522 0
M  V30 10919 C 1069.09 3.6717 6.01137 0
M  V30 10920 H 1065.19 -0.0294605 0.781445 0
M  V30 10921 H 1067.78 0.54053 1.87046 0
M  V30 10922 H 1065.95 -1.19846 3.69448 0
M  V30 10923 H 1067.68 -1.06652 3.90394 0
M  V30 10924 H 1064.44 0.802731 4.66747 0
M  V30 10925 H 1064.86 3.02564 6.05627 0
M  V30 10926 H 1069.5 0.841291 4.14345 0
M  V30 10927 H 1067.22 4.45773 6.74027 0
M  V30 10928 H 1070.81 2.67795 5.16505 0
M  V30 10929 H 1069.69 4.46228 6.44864 0
M  V30 10930 N 1067.19 -1.57141 0.120249 0
M  V30 10931 C 1068.14 -2.11936 -0.84067 0
M  V30 10932 C 1069.12 -1.04044 -1.22734 0
M  V30 10933 O 1070.31 -1.30275 -1.19822 0
M  V30 10934 C 1067.44 -2.72332 -2.09023 0
M  V30 10935 C 1066.53 -3.87306 -1.72786 0
M  V30 10936 N 1066.92 -4.94302 -1.07232 0
M  V30 10937 C 1065.22 -3.97513 -2.02236 0
M  V30 10938 C 1065.92 -5.7467 -0.901626 0
M  V30 10939 N 1064.9 -5.24535 -1.42702 0
M  V30 10940 H 1068.7 -2.92038 -0.330308 0
M  V30 10941 H 1066.21 -1.62192 -0.0821814 0
M  V30 10942 H 1068.21 -3.09932 -2.78833 0
M  V30 10943 H 1066.87 -1.93693 -2.60601 0
M  V30 10944 H 1067.88 -5.12641 -0.736158 0
M  V30 10945 H 1064.56 -3.29917 -2.55853 0
M  V30 10946 H 1065.95 -6.70785 -0.386974 0
M  V30 10947 N 1068.67 0.153526 -1.5685 0
M  V30 10948 C 1069.89 0.886343 -1.87507 0
M  V30 10949 C 1070.32 1.74244 -0.708565 0
M  V30 10950 O 1069.67 1.78045 0.341997 0
M  V30 10951 C 1069.72 1.72428 -3.16703 0
M  V30 10952 O 1068.83 2.82784 -3.00178 0
M  V30 10953 H 1068.17 0.247259 -0.616246 0
M  V30 10954 H 1070.7 0.146306 -2.04076 0
M  V30 10955 H 1070.71 2.12062 -3.4856 0
M  V30 10956 H 1069.38 1.09558 -4.01211 0
M  V30 10957 H 1067.96 2.46604 -2.79716 0
M  V30 10958 N 1070.14 1.51827 0.422667 0
M  V30 10959 C 1071.37 1.69337 1.19748 0
M  V30 10960 C 1071.79 0.396312 1.83878 0
M  V30 10961 O 1071.15 -0.644976 1.6944 0
M  V30 10962 C 1071.2 2.82082 2.24637 0
M  V30 10963 O 1070.3 2.46708 3.30468 0
M  V30 10964 H 1069.65 0.564154 0.35018 0
M  V30 10965 H 1072.18 1.98465 0.497289 0
M  V30 10966 H 1072.19 3.06599 2.69186 0
M  V30 10967 H 1070.86 3.76195 1.77341 0
M  V30 10968 H 1069.44 2.32815 2.91293 0
M  V30 10969 N 1071.62 -0.679052 1.4222 0
M  V30 10970 C 1072.55 -1.80481 1.48152 0
M  V30 10971 C 1073.53 -1.66698 0.338502 0
M  V30 10972 O 1074.72 -1.86183 0.552228 0
M  V30 10973 C 1071.85 -3.18746 1.37908 0
M  V30 10974 C 1070.8 -3.47258 2.50192 0
M  V30 10975 C 1070.13 -4.85052 2.25008 0
M  V30 10976 C 1071.43 -3.44576 3.92511 0
M  V30 10977 H 1073.12 -1.75774 2.42371 0
M  V30 10978 H 1070.67 -0.844241 1.16656 0
M  V30 10979 H 1072.62 -3.97229 1.40666 0
M  V30 10980 H 1071.35 -3.24119 0.401806 0
M  V30 10981 H 1070 -2.71133 2.46744 0
M  V30 10982 H 1069.65 -4.8707 1.25584 0
M  V30 10983 H 1069.35 -5.05092 3.00259 0
M  V30 10984 H 1070.88 -5.65825 2.29508 0
M  V30 10985 H 1072.29 -4.13036 3.97585 0
M  V30 10986 H 1070.69 -3.76151 4.67579 0
M  V30 10987 H 1071.76 -2.4323 4.19484 0
M  V30 10988 N 1073.1 -1.28322 -0.914942 0
M  V30 10989 C 1074.06 -1.12169 -1.99877 0
M  V30 10990 C 1075.06 -0.0617252 -1.60681 0
M  V30 10991 O 1076.25 -0.307405 -1.71466 0
M  V30 10992 C 1073.39 -0.711959 -3.33383 0
M  V30 10993 H 1074.58 -2.08425 -2.15636 0
M  V30 10994 H 1072.13 -1.11291 -1.09745 0
M  V30 10995 H 1072.87 0.251418 -3.23324 0
M  V30 10996 H 1072.65 -1.47764 -3.63192 0
M  V30 10997 H 1074.14 -0.621558 -4.12948 0
M  V30 10998 N 1074.58 1.12322 -1.10551 0
M  V30 10999 C 1075.99 1.35858 -0.837543 0
M  V30 11000 C 1076.19 1.94062 0.54241 0
M  V30 11001 O 1075.25 2.1676 1.29505 0
M  V30 11002 C 1076.56 2.299 -1.9382 0
M  V30 11003 C 1078.11 2.43488 -1.96679 0
M  V30 11004 C 1078.59 3.40846 -3.05922 0
M  V30 11005 N 1080.08 3.48404 -3.05236 0
M  V30 11006 C 1080.81 4.2365 -3.86405 0
M  V30 11007 N 1080.31 5.01951 -4.77512 0
M  V30 11008 N 1082.1 4.19068 -3.74618 0
M  V30 11009 H 1074.25 0.729002 -1.99498 0
M  V30 11010 H 1076.52 0.38339 -0.867016 0
M  V30 11011 H 1076.22 1.94309 -2.9315 0
M  V30 11012 H 1076.1 3.30033 -1.82641 0
M  V30 11013 H 1078.48 2.78359 -0.979813 0
M  V30 11014 H 1078.56 1.43239 -2.11934 0
M  V30 11015 H 1078.21 3.06704 -4.04839 0
M  V30 11016 H 1078.14 4.40927 -2.87907 0
M  V30 11017 H 1080.63 2.92545 -2.39219 0
M  V30 11018 H 1080.94 5.56707 -5.36002 0
M  V30 11019 H 1079.29 5.01143 -4.8154 0
M  V30 11020 H 1082.48 3.5698 -3.02792 0
M  V30 11021 H 1082.65 4.77455 -4.38111 0
M  V30 11022 N 1076.06 0.894434 1.2976 0
M  V30 11023 C 1077.28 0.532916 1.99919 0
M  V30 11024 C 1077.7 -0.881022 1.66983 0
M  V30 11025 O 1077.06 -1.58076 0.912035 0
M  V30 11026 C 1077.11 0.70936 3.54472 0
M  V30 11027 O 1076.83 2.06764 3.86239 0
M  V30 11028 C 1078.33 0.352089 4.419 0
M  V30 11029 H 1075.55 0.205019 0.638912 0
M  V30 11030 H 1078.09 1.20233 1.65421 0
M  V30 11031 H 1076.25 0.0871901 3.87302 0
M  V30 11032 H 1076.66 2.09315 4.80924 0
M  V30 11033 H 1078.14 0.526405 5.49484 0
M  V30 11034 H 1078.61 -0.710527 4.33415 0
M  V30 11035 H 1079.22 0.950979 4.14532 0
M  V30 11036 N 1077.53 -1.43282 0.656365 0
M  V30 11037 C 1078.76 -2.06641 0.177245 0
M  V30 11038 C 1079.18 -1.48893 -1.14946 0
M  V30 11039 O 1078.54 -0.600099 -1.7108 0
M  V30 11040 C 1078.59 -3.60453 0.10299 0
M  V30 11041 O 1077.69 -4.01687 -0.933895 0
M  V30 11042 H 1077.04 -0.656978 0.096314 0
M  V30 11043 H 1079.57 -1.83733 0.900178 0
M  V30 11044 H 1079.58 -4.07923 -0.079291 0
M  V30 11045 H 1078.25 -4.01861 1.07147 0
M  V30 11046 H 1076.83 -3.65801 -0.724148 0
M  V30 11047 N 1079.01 -0.398486 -1.52479 0
M  V30 11048 C 1080.24 0.183059 -2.06591 0
M  V30 11049 C 1080.66 1.3898 -1.26753 0
M  V30 11050 O 1080.02 1.78885 -0.294959 0
M  V30 11051 C 1080.07 0.522392 -3.56796 0
M  V30 11052 O 1079.17 1.61499 -3.79462 0
M  V30 11053 H 1078.51 0.0188411 -0.663733 0
M  V30 11054 H 1081.04 -0.56861 -1.9654 0
M  V30 11055 H 1081.05 0.784078 -4.00395 0
M  V30 11056 H 1079.73 -0.359807 -4.14341 0
M  V30 11057 H 1078.31 1.3463 -3.47749 0
M  V30 11058 N 1080.49 1.57075 -0.12858 0
M  V30 11059 C 1081.45 2.14643 0.803813 0
M  V30 11060 C 1082.45 1.08363 1.18803 0
M  V30 11061 O 1083.64 1.34093 1.11197 0
M  V30 11062 C 1080.78 2.6945 2.08829 0
M  V30 11063 H 1081.97 2.98362 0.303347 0
M  V30 11064 H 1079.52 1.55833 0.120735 0
M  V30 11065 H 1080.26 1.89345 2.63285 0
M  V30 11066 H 1080.04 3.47187 1.82218 0
M  V30 11067 H 1081.53 3.13865 2.7546 0
M  V30 11068 N 1081.97 -0.145205 1.5693 0
M  V30 11069 C 1082.88 -1.19864 2.01667 0
M  V30 11070 C 1083.9 -1.46909 0.932402 0
M  V30 11071 O 1085.07 -1.58543 1.24201 0
M  V30 11072 C 1082.14 -2.51174 2.38982 0
M  V30 11073 C 1081.2 -2.3176 3.61366 0
M  V30 11074 C 1080.43 -3.56809 3.96892 0
M  V30 11075 O 1080.65 -4.63063 3.33059 0
M  V30 11076 O 1079.59 -3.49366 4.9013 0
M  V30 11077 H 1083.41 -0.848821 2.91597 0
M  V30 11078 H 1081 -0.354063 1.45144 0
M  V30 11079 H 1082.88 -3.28587 2.63835 0
M  V30 11080 H 1081.56 -2.85683 1.52207 0
M  V30 11081 H 1080.46 -1.52293 3.41698 0
M  V30 11082 H 1081.8 -2.02167 4.48764 0
M  V30 11083 N 1083.45 -1.52049 -0.414609 0
M  V30 11084 C 1084.68 -1.69433 -1.18221 0
M  V30 11085 C 1085.09 -0.40104 -1.84901 0
M  V30 11086 O 1084.43 0.632342 -1.72474 0
M  V30 11087 C 1084.49 -2.76986 -2.2917 0
M  V30 11088 C 1084.15 -4.18903 -1.82671 0
M  V30 11089 C 1085.15 -5.02929 -1.31751 0
M  V30 11090 C 1082.84 -4.65113 -1.89672 0
M  V30 11091 C 1084.83 -6.31234 -0.884461 0
M  V30 11092 C 1082.52 -5.93408 -1.45978 0
M  V30 11093 C 1083.52 -6.76297 -0.9545 0
M  V30 11094 O 1083.2 -8.02191 -0.523852 0
M  V30 11095 H 1082.94 -0.571228 -0.36149 0
M  V30 11096 H 1085.49 -1.99355 -0.494643 0
M  V30 11097 H 1083.72 -2.42428 -3.01273 0
M  V30 11098 H 1085.41 -2.83023 -2.90951 0
M  V30 11099 H 1086.17 -4.68422 -1.2572 0
M  V30 11100 H 1082.05 -4.00702 -2.27945 0
M  V30 11101 H 1085.6 -6.95881 -0.489383 0
M  V30 11102 H 1081.49 -6.27424 -1.51687 0
M  V30 11103 H 1082.26 -8.15934 -0.647656 0
M  V30 11104 N 1084.93 0.6715 -1.42579 0
M  V30 11105 C 1085.87 1.80623 -1.46554 0
M  V30 11106 C 1086.87 1.65934 -0.340932 0
M  V30 11107 O 1088.07 1.72502 -0.514098 0
M  V30 11108 H 1084.45 0.595619 -0.459067 0
M  V30 11109 H 1086.42 1.74388 -2.42139 0
M  V30 11110 C 1085.17 3.18794 -1.38801 0
M  V30 11111 H 1084.49 3.30725 -2.24635 0
M  V30 11112 H 1085.93 3.98201 -1.45645 0
M  V30 11113 C 1084.39 3.36742 -0.103219 0
M  V30 11114 O 1084.92 3.92761 0.842715 0
M  V30 11115 N 1083.13 2.90594 -0.0193034 0
M  V30 11116 H 1082.67 2.45192 -0.78986 0
M  V30 11117 H 1082.63 3.0298 0.839686 0
M  V30 11118 N 1086.4 1.28806 0.908124 0
M  V30 11119 C 1087.65 1.1646 1.66027 0
M  V30 11120 C 1087.98 -0.285025 1.92097 0
M  V30 11121 O 1087.26 -1.20675 1.52538 0
M  V30 11122 C 1087.54 1.96951 3.01467 0
M  V30 11123 C 1087.39 3.50007 2.82515 0
M  V30 11124 C 1088.71 1.78932 4.02084 0
M  V30 11125 H 1085.83 0.424435 0.602515 0
M  V30 11126 H 1088.47 1.58185 1.0525 0
M  V30 11127 H 1086.62 1.61495 3.53344 0
M  V30 11128 H 1088.3 3.95401 2.37605 0
M  V30 11129 H 1086.54 3.75356 2.17463 0
M  V30 11130 H 1087.21 4.01591 3.7872 0
M  V30 11131 H 1089.69 2.09885 3.59287 0
M  V30 11132 H 1088.56 2.37615 4.94803 0
M  V30 11133 H 1088.82 0.742286 4.35824 0
M  V30 11134 N 1087.88 -1.11734 1.11145 0
M  V30 11135 C 1088.83 -2.19765 0.761982 0
M  V30 11136 C 1089.82 -1.67616 -0.24518 0
M  V30 11137 O 1091.03 -1.79695 -0.104781 0
M  V30 11138 H 1087.4 -0.71644 0.228513 0
M  V30 11139 H 1089.38 -2.4649 1.68183 0
M  V30 11140 C 1088.12 -3.47016 0.218057 0
M  V30 11141 H 1087.45 -3.87494 0.984299 0
M  V30 11142 H 1088.89 -4.23998 0.0116825 0
M  V30 11143 C 1087.35 -3.20088 -1.05096 0
M  V30 11144 O 1087.88 -3.40503 -2.1312 0
M  V30 11145 N 1086.08 -2.73844 -0.972523 0
M  V30 11146 H 1085.63 -2.57431 -0.0933459 0
M  V30 11147 H 1085.59 -2.56204 -1.82228 0
M  V30 11148 N 1089.36 -0.901303 -1.29284 0
M  V30 11149 C 1090.31 -0.370142 -2.29636 0
M  V30 11150 C 1091.3 0.53157 -1.60844 0
M  V30 11151 O 1092.51 0.414194 -1.7517 0
M  V30 11152 H 1088.88 -0.101072 -0.745177 0
M  V30 11153 H 1090.85 -1.22985 -2.71877 0
M  V30 11154 C 1089.6 0.385806 -3.45553 0
M  V30 11155 H 1088.93 -0.298818 -3.98682 0
M  V30 11156 H 1090.37 0.722299 -4.17802 0
M  V30 11157 C 1088.82 1.58907 -2.97069 0
M  V30 11158 O 1089.35 2.68835 -2.98481 0
M  V30 11159 N 1087.56 1.43178 -2.5288 0
M  V30 11160 H 1087.11 0.537467 -2.51931 0
M  V30 11161 H 1087.07 2.23819 -2.208 0
M  V30 11162 N 1090.84 1.42931 -0.663954 0
M  V30 11163 C 1091.77 2.33499 0.00731327 0
M  V30 11164 C 1092.75 1.50074 0.800733 0
M  V30 11165 O 1093.93 1.78708 0.760062 0
M  V30 11166 C 1091.06 3.33569 0.966897 0
M  V30 11167 C 1090.02 4.27064 0.282839 0
M  V30 11168 C 1089.34 5.17257 1.35461 0
M  V30 11169 C 1090.64 5.1564 -0.831438 0
M  V30 11170 H 1092.34 2.89879 -0.749044 0
M  V30 11171 H 1089.88 1.39385 -0.361656 0
M  V30 11172 H 1091.84 3.95833 1.44549 0
M  V30 11173 H 1090.56 2.75469 1.75455 0
M  V30 11174 H 1089.22 3.6618 -0.175417 0
M  V30 11175 H 1088.87 4.5549 2.13397 0
M  V30 11176 H 1088.57 5.80634 0.902098 0
M  V30 11177 H 1090.09 5.82395 1.83436 0
M  V30 11178 H 1091.51 5.71651 -0.434534 0
M  V30 11179 H 1089.9 5.87794 -1.20908 0
M  V30 11180 H 1090.97 4.54687 -1.68487 0
M  V30 11181 N 1092.32 0.406567 1.52266 0
M  V30 11182 C 1093.56 -0.170305 2.02084 0
M  V30 11183 C 1093.89 -1.45008 1.29176 0
M  V30 11184 O 1093.17 -1.90399 0.39731 0
M  V30 11185 C 1093.45 -0.420627 3.57635 0
M  V30 11186 C 1093.31 0.87564 4.41194 0
M  V30 11187 C 1094.62 -1.20387 4.23314 0
M  V30 11188 H 1091.74 -0.0604219 0.734519 0
M  V30 11189 H 1094.39 0.539529 1.82179 0
M  V30 11190 H 1092.54 -1.0253 3.74726 0
M  V30 11191 H 1094.21 1.51192 4.35819 0
M  V30 11192 H 1092.45 1.48718 4.07511 0
M  V30 11193 H 1093.12 0.654916 5.48101 0
M  V30 11194 H 1095.6 -0.691972 4.10306 0
M  V30 11195 H 1094.47 -1.34776 5.32096 0
M  V30 11196 H 1094.73 -2.2238 3.82099 0
M  V30 11197 N 1093.79 -1.57004 0.136909 0
M  V30 11198 C 1095.02 -2.00587 -0.527209 0
M  V30 11199 C 1095.44 -1.01628 -1.58283 0
M  V30 11200 O 1094.8 0.00946934 -1.81298 0
M  V30 11201 C 1094.85 -3.42967 -1.11384 0
M  V30 11202 O 1093.95 -3.46973 -2.22898 0
M  V30 11203 H 1093.3 -0.651155 -0.129976 0
M  V30 11204 H 1095.83 -2.03296 0.230667 0
M  V30 11205 H 1095.84 -3.81555 -1.44499 0
M  V30 11206 H 1094.51 -4.14502 -0.340736 0
M  V30 11207 H 1093.09 -3.20219 -1.91087 0
M  V30 11208 N 1095.27 0.136881 -1.57004 0
M  V30 11209 C 1096.68 0.695911 -1.73245 0
M  V30 11210 C 1097.03 1.8118 -0.75288 0
M  V30 11211 O 1096.16 2.16258 0.0782477 0
M  V30 11212 C 1096.75 1.26914 -3.14131 0
M  V30 11213 C 1095.31 1.77463 -3.31939 0
M  V30 11214 C 1094.46 0.667128 -2.69156 0
M  V30 11215 H 1097.41 -0.0888841 -1.58451 0
M  V30 11216 H 1097.43 2.13892 -3.14691 0
M  V30 11217 H 1096.94 0.456754 -3.85403 0
M  V30 11218 H 1095.05 2.61236 -2.65681 0
M  V30 11219 H 1095.16 1.89638 -4.39971 0
M  V30 11220 H 1093.52 1.09629 -2.29899 0
M  V30 11221 H 1094.31 -0.13398 -3.43038 0
M  V30 11222 N 1096.75 1.52266 0.40654 0
M  V30 11223 C 1098 1.66699 1.15496 0
M  V30 11224 C 1098.33 0.397019 1.90098 0
M  V30 11225 O 1097.6 -0.604646 1.84863 0
M  V30 11226 C 1097.89 2.8907 2.14734 0
M  V30 11227 C 1097.74 4.26123 1.44012 0
M  V30 11228 C 1099.06 3.06966 3.15373 0
M  V30 11229 H 1096.18 0.606642 0.418515 0
M  V30 11230 H 1098.82 1.84826 0.440381 0
M  V30 11231 H 1096.97 2.73745 2.75673 0
M  V30 11232 H 1098.64 4.5318 0.861722 0
M  V30 11233 H 1096.89 4.27406 0.742064 0
M  V30 11234 H 1097.56 5.07799 2.16436 0
M  V30 11235 H 1100.03 3.21205 2.64512 0
M  V30 11236 H 1098.91 3.94097 3.82072 0
M  V30 11237 H 1099.17 2.20395 3.83247 0
M  V30 11238 N 1098.23 -0.663929 1.42933 0
M  V30 11239 C 1099.16 -1.78899 1.50058 0
M  V30 11240 C 1100.14 -1.66329 0.356164 0
M  V30 11241 O 1101.32 -1.85587 0.571944 0
M  V30 11242 C 1098.45 -3.17265 1.41281 0
M  V30 11243 C 1097.41 -3.44584 2.53861 0
M  V30 11244 C 1096.73 -4.82638 2.3014 0
M  V30 11245 C 1098.03 -3.40394 3.96143 0
M  V30 11246 H 1099.73 -1.73194 2.44222 0
M  V30 11247 H 1097.27 -0.83182 1.17545 0
M  V30 11248 H 1099.23 -3.95715 1.44872 0
M  V30 11249 H 1097.95 -3.23675 0.43616 0
M  V30 11250 H 1096.61 -2.685 2.49606 0
M  V30 11251 H 1096.26 -4.85711 1.30743 0
M  V30 11252 H 1095.96 -5.01879 3.056 0
M  V30 11253 H 1097.48 -5.63359 2.35497 0
M  V30 11254 H 1098.9 -4.08796 4.01943 0
M  V30 11255 H 1097.29 -3.7117 4.71543 0
M  V30 11256 H 1098.36 -2.38767 4.22041 0
M  V30 11257 N 1099.71 -1.29285 -0.901281 0
M  V30 11258 C 1100.95 -1.17165 -1.65162 0
M  V30 11259 C 1101.28 0.277184 -1.92515 0
M  V30 11260 O 1100.54 1.2168 -1.53273 0
M  V30 11261 C 1100.84 -1.92865 -3.00895 0
M  V30 11262 C 1100.5 -3.42593 -2.93157 0
M  V30 11263 C 1099.16 -3.83426 -2.90754 0
M  V30 11264 C 1101.52 -4.38011 -2.82481 0
M  V30 11265 C 1098.84 -5.17997 -2.75492 0
M  V30 11266 C 1101.2 -5.7267 -2.68759 0
M  V30 11267 C 1099.86 -6.12764 -2.64721 0
M  V30 11268 H 1099.13 -0.428737 -0.604372 0
M  V30 11269 H 1101.78 -1.60204 -1.04914 0
M  V30 11270 H 1100.08 -1.42412 -3.65001 0
M  V30 11271 H 1101.78 -1.80893 -3.57881 0
M  V30 11272 H 1098.37 -3.10134 -2.95829 0
M  V30 11273 H 1102.55 -4.07417 -2.83416 0
M  V30 11274 H 1097.81 -5.48173 -2.70769 0
M  V30 11275 H 1101.98 -6.46258 -2.59469 0
M  V30 11276 H 1099.61 -7.16987 -2.52652 0
M  V30 11277 N 1101.18 1.11143 -1.11736 0
M  V30 11278 C 1102.12 2.1705 -0.736325 0
M  V30 11279 C 1103.13 1.61116 0.233528 0
M  V30 11280 O 1104.32 1.78493 0.0159602 0
M  V30 11281 C 1101.42 3.38832 -0.067974 0
M  V30 11282 C 1100.59 4.24226 -1.06543 0
M  V30 11283 C 1099.65 5.24472 -0.426063 0
M  V30 11284 O 1098.68 5.58843 -1.0809 0
M  V30 11285 N 1099.88 5.74825 0.809711 0
M  V30 11286 H 1102.64 2.50349 -1.64758 0
M  V30 11287 H 1100.2 1.26693 -1.00799 0
M  V30 11288 H 1102.2 4.02991 0.371563 0
M  V30 11289 H 1100.77 3.0357 0.745917 0
M  V30 11290 H 1099.99 3.56475 -1.68283 0
M  V30 11291 H 1101.27 4.78117 -1.74016 0
M  V30 11292 H 1100.67 5.49088 1.36084 0
M  V30 11293 H 1099.23 6.40804 1.19218 0
M  V30 11294 N 1102.66 0.908147 1.28804 0
M  V30 11295 C 1103.57 0.397167 2.31214 0
M  V30 11296 C 1104.59 -0.512352 1.66286 0
M  V30 11297 O 1105.76 -0.399893 1.9739 0
M  V30 11298 C 1102.83 -0.359522 3.44831 0
M  V30 11299 C 1101.89 0.582539 4.25329 0
M  V30 11300 C 1101.12 -0.138133 5.33521 0
M  V30 11301 O 1101.35 -1.36076 5.53931 0
M  V30 11302 O 1100.28 0.523682 5.99618 0
M  V30 11303 H 1104.11 1.247 2.76918 0
M  V30 11304 H 1101.69 0.672766 1.33395 0
M  V30 11305 H 1103.57 -0.787098 4.13984 0
M  V30 11306 H 1102.25 -1.18528 3.01219 0
M  V30 11307 H 1101.16 1.0594 3.58786 0
M  V30 11308 H 1102.49 1.37495 4.72605 0
M  V30 11309 N 1104.14 -1.42577 0.671525 0
M  V30 11310 C 1105.1 -2.292 0.000392482 0
M  V30 11311 C 1106.1 -1.43158 -0.732294 0
M  V30 11312 O 1107.29 -1.64583 -0.570789 0
M  V30 11313 C 1104.43 -3.25591 -1.01013 0
M  V30 11314 H 1105.62 -2.90037 0.762783 0
M  V30 11315 H 1103.17 -1.50162 0.433703 0
M  V30 11316 H 1103.91 -2.69685 -1.80112 0
M  V30 11317 H 1103.69 -3.89049 -0.488183 0
M  V30 11318 H 1105.18 -3.90561 -1.47824 0
M  V30 11319 N 1105.62 -0.414636 -1.52048 0
M  V30 11320 C 1106.55 0.399119 -2.30064 0
M  V30 11321 C 1107.53 1.04126 -1.34506 0
M  V30 11322 O 1108.71 1.04923 -1.63416 0
M  V30 11323 C 1105.84 1.51305 -3.12608 0
M  V30 11324 C 1104.8 0.995621 -4.16259 0
M  V30 11325 C 1104.12 2.20357 -4.87183 0
M  V30 11326 C 1105.42 0.0458178 -5.2228 0
M  V30 11327 H 1107.12 -0.251879 -2.98339 0
M  V30 11328 H 1104.66 -0.122579 -1.43477 0
M  V30 11329 H 1106.62 2.08936 -3.65956 0
M  V30 11330 H 1105.34 2.19201 -2.42113 0
M  V30 11331 H 1104 0.441676 -3.6393 0
M  V30 11332 H 1103.65 2.8682 -4.13211 0
M  V30 11333 H 1103.35 1.86385 -5.57256 0
M  V30 11334 H 1104.87 2.78584 -5.43345 0
M  V30 11335 H 1106.29 0.531102 -5.70835 0
M  V30 11336 H 1104.68 -0.20536 -5.99749 0
M  V30 11337 H 1105.75 -0.897807 -4.76516 0
M  V30 11338 N 1107.1 1.56929 -0.145233 0
M  V30 11339 C 1108.34 1.97141 0.500689 0
M  V30 11340 C 1108.7 1.02864 1.62594 0
M  V30 11341 O 1107.99 0.0633701 1.91495 0
M  V30 11342 C 1108.18 3.41467 1.05522 0
M  V30 11343 C 1108.01 4.49698 -0.0147676 0
M  V30 11344 C 1106.78 5.03242 -0.455585 0
M  V30 11345 C 1108.98 5.07952 -0.80558 0
M  V30 11346 N 1106.96 5.95075 -1.5086 0
M  V30 11347 C 1108.33 5.95977 -1.70914 0
M  V30 11348 C 1110.39 4.90529 -0.853564 0
M  V30 11349 C 1109.09 6.68445 -2.65656 0
M  V30 11350 C 1111.12 5.63698 -1.78881 0
M  V30 11351 C 1110.48 6.5143 -2.6799 0
M  V30 11352 H 1106.58 0.767071 0.152075 0
M  V30 11353 H 1109.16 1.93222 -0.239426 0
M  V30 11354 H 1107.33 3.45983 1.76495 0
M  V30 11355 H 1109.07 3.68745 1.66762 0
M  V30 11356 H 1105.82 4.73564 -0.0581751 0
M  V30 11357 H 1106.25 6.45697 -2.03482 0
M  V30 11358 H 1110.89 4.22422 -0.178723 0
M  V30 11359 H 1108.61 7.35782 -3.34141 0
M  V30 11360 H 1112.19 5.52213 -1.83172 0
M  V30 11361 H 1111.07 7.07054 -3.39181 0
M  V30 11362 N 1108.58 -0.128553 1.57075 0
M  V30 11363 C 1109.53 -1.16373 1.96065 0
M  V30 11364 C 1110.51 -1.37579 0.834323 0
M  V30 11365 O 1111.7 -1.38831 1.09795 0
M  V30 11366 C 1108.83 -2.49276 2.36043 0
M  V30 11367 C 1107.92 -2.31586 3.55287 0
M  V30 11368 N 1108.31 -1.83688 4.71267 0
M  V30 11369 C 1106.61 -2.62275 3.60732 0
M  V30 11370 C 1107.31 -1.79479 5.53319 0
M  V30 11371 N 1106.28 -2.23474 4.95541 0
M  V30 11372 H 1110.08 -0.785792 2.832 0
M  V30 11373 H 1107.6 -0.33641 1.58877 0
M  V30 11374 H 1109.6 -3.24134 2.62188 0
M  V30 11375 H 1108.26 -2.87837 1.50267 0
M  V30 11376 H 1109.27 -1.53376 4.94668 0
M  V30 11377 H 1105.94 -3.04586 2.85541 0
M  V30 11378 H 1107.33 -1.43781 6.56336 0
M  V30 11379 N 1110.05 -1.5248 -0.398459 0
M  V30 11380 C 1111.3 -1.67309 -1.1461 0
M  V30 11381 C 1111.63 -0.407095 -1.89885 0
M  V30 11382 O 1110.91 0.594834 -1.85181 0
M  V30 11383 C 1111.19 -2.90204 -2.13198 0
M  V30 11384 C 1111.04 -4.26881 -1.4175 0
M  V30 11385 C 1112.36 -3.08634 -3.13741 0
M  V30 11386 H 1109.48 -0.608853 -0.415292 0
M  V30 11387 H 1112.12 -1.85057 -0.430573 0
M  V30 11388 H 1110.27 -2.75204 -2.74218 0
M  V30 11389 H 1111.95 -4.53631 -0.837676 0
M  V30 11390 H 1110.19 -4.27793 -0.719387 0
M  V30 11391 H 1110.86 -5.08939 -2.1374 0
M  V30 11392 H 1113.34 -3.22603 -2.62805 0
M  V30 11393 H 1112.21 -3.96117 -3.79977 0
M  V30 11394 H 1112.47 -2.22425 -3.82073 0
M  V30 11395 N 1111.53 0.65634 -1.43283 0
M  V30 11396 C 1112.94 1.23744 -1.39801 0
M  V30 11397 C 1113.29 1.95942 -0.100507 0
M  V30 11398 O 1112.42 2.01063 0.800161 0
M  V30 11399 C 1113.01 2.25062 -2.53244 0
M  V30 11400 C 1111.57 2.78657 -2.53036 0
M  V30 11401 C 1110.72 1.53251 -2.31105 0
M  V30 11402 H 1113.67 0.448553 -1.52229 0
M  V30 11403 H 1113.69 3.07174 -2.24553 0
M  V30 11404 H 1113.2 1.72487 -3.47664 0
M  V30 11405 H 1111.3 3.35304 -1.62487 0
M  V30 11406 H 1111.42 3.26414 -3.507 0
M  V30 11407 H 1109.78 1.80487 -1.79713 0
M  V30 11408 H 1110.56 1.02615 -3.27605 0
M  V30 11409 N 1113.01 1.29761 0.894412 0
M  V30 11410 C 1113.92 1.1724 2.03204 0
M  V30 11411 C 1114.94 0.0944452 1.73743 0
M  V30 11412 O 1116.11 0.307549 1.99038 0
M  V30 11413 C 1113.18 0.855416 3.35981 0
M  V30 11414 C 1112.24 2.01777 3.78926 0
M  V30 11415 C 1111.47 1.71581 5.05367 0
M  V30 11416 O 1111.69 0.639245 5.66807 0
M  V30 11417 O 1110.63 2.56539 5.44492 0
M  V30 11418 H 1114.45 2.12787 2.16692 0
M  V30 11419 H 1112.04 1.09264 1.0189 0
M  V30 11420 H 1113.92 0.693429 4.15656 0
M  V30 11421 H 1112.6 -0.0702195 3.23624 0
M  V30 11422 H 1111.5 2.23502 2.99996 0
M  V30 11423 H 1112.84 2.92479 3.95875 0
M  V30 11424 N 1114.49 -1.10549 1.12324 0
M  V30 11425 C 1115.44 -2.14997 0.758979 0
M  V30 11426 C 1116.42 -1.59078 -0.241461 0
M  V30 11427 O 1117.61 -1.76937 -0.0471439 0
M  V30 11428 C 1114.74 -3.42633 0.21395 0
M  V30 11429 C 1113.83 -4.05487 1.24261 0
M  V30 11430 N 1114.22 -4.43064 2.43984 0
M  V30 11431 C 1112.52 -4.32534 1.08769 0
M  V30 11432 C 1113.22 -4.92427 3.09662 0
M  V30 11433 N 1112.19 -4.89161 2.37114 0
M  V30 11434 H 1116 -2.4184 1.67005 0
M  V30 11435 H 1113.51 -1.27659 1.00384 0
M  V30 11436 H 1115.51 -4.16849 -0.0651928 0
M  V30 11437 H 1114.17 -3.17249 -0.691591 0
M  V30 11438 H 1115.18 -4.34797 2.81375 0
M  V30 11439 H 1111.86 -4.16813 0.239354 0
M  V30 11440 H 1113.25 -5.31059 4.11614 0
M  V30 11441 N 1115.97 -0.914965 -1.28321 0
M  V30 11442 C 1116.93 -0.409024 -2.25521 0
M  V30 11443 C 1117.93 0.465327 -1.5392 0
M  V30 11444 O 1119.12 0.26821 -1.72123 0
M  V30 11445 C 1116.25 0.413452 -3.38383 0
M  V30 11446 H 1117.44 -1.26767 -2.71791 0
M  V30 11447 H 1115 -0.694477 -1.40024 0
M  V30 11448 H 1115.73 1.29145 -2.97476 0
M  V30 11449 H 1115.52 -0.213268 -3.9152 0
M  V30 11450 H 1117.01 0.758232 -4.10659 0
M  V30 11451 N 1117.44 1.42219 -0.679077 0
M  V30 11452 C 1118.69 2.01777 -0.20342 0
M  V30 11453 C 1119.02 1.53592 1.18841 0
M  V30 11454 O 1118.3 0.739954 1.79875 0
M  V30 11455 C 1118.58 3.59281 -0.242791 0
M  V30 11456 C 1118.43 4.17634 -1.67038 0
M  V30 11457 C 1119.75 4.38218 0.406624 0
M  V30 11458 H 1116.87 0.733134 -0.0753916 0
M  V30 11459 H 1119.51 1.69185 -0.864673 0
M  V30 11460 H 1117.66 3.87178 0.320248 0
M  V30 11461 H 1119.34 4.00674 -2.286 0
M  V30 11462 H 1117.58 3.73301 -2.20973 0
M  V30 11463 H 1118.25 5.26776 -1.64958 0
M  V30 11464 H 1120.73 4.16036 -0.0727077 0
M  V30 11465 H 1119.6 5.47793 0.348457 0
M  V30 11466 H 1119.86 4.16418 1.48487 0
M  V30 11467 N 1118.92 0.422693 1.51826 0
M  V30 11468 C 1120.17 -0.148861 2.02253 0
M  V30 11469 C 1120.5 -1.43629 1.30707 0
M  V30 11470 O 1119.78 -1.89967 0.417482 0
M  V30 11471 C 1120.06 -0.382672 3.58061 0
M  V30 11472 C 1119.91 0.922386 4.40241 0
M  V30 11473 C 1121.23 -1.1589 4.24567 0
M  V30 11474 H 1118.35 -0.0526279 0.735119 0
M  V30 11475 H 1120.99 0.558821 1.81596 0
M  V30 11476 H 1119.14 -0.985495 3.75793 0
M  V30 11477 H 1120.81 1.55806 4.34191 0
M  V30 11478 H 1119.06 1.53032 4.05911 0
M  V30 11479 H 1119.73 0.713012 5.47376 0
M  V30 11480 H 1122.2 -0.648415 4.11017 0
M  V30 11481 H 1121.08 -1.29125 5.33496 0
M  V30 11482 H 1121.34 -2.18315 3.84436 0
M  V30 11483 N 1120.4 -1.5685 0.153553 0
M  V30 11484 C 1121.33 -2.20101 -0.779601 0
M  V30 11485 C 1122.31 -1.15121 -1.25225 0
M  V30 11486 O 1123.5 -1.43487 -1.30862 0
M  V30 11487 C 1120.63 -2.82778 -2.01628 0
M  V30 11488 C 1119.58 -3.93643 -1.68015 0
M  V30 11489 C 1118.91 -4.43286 -2.99001 0
M  V30 11490 C 1120.21 -5.14102 -0.921774 0
M  V30 11491 H 1121.9 -2.98334 -0.252432 0
M  V30 11492 H 1119.45 -1.43499 -0.119975 0
M  V30 11493 H 1121.4 -3.25696 -2.67395 0
M  V30 11494 H 1120.12 -2.01887 -2.56728 0
M  V30 11495 H 1118.78 -3.51354 -1.04624 0
M  V30 11496 H 1118.43 -3.59208 -3.52106 0
M  V30 11497 H 1118.13 -5.18068 -2.77272 0
M  V30 11498 H 1119.65 -4.88878 -3.65828 0
M  V30 11499 H 1121.07 -5.53823 -1.48167 0
M  V30 11500 H 1119.46 -5.94687 -0.804185 0
M  V30 11501 H 1120.53 -4.84825 0.0852757 0
M  V30 11502 N 1121.88 0.120221 -1.57141 0
M  V30 11503 C 1122.79 1.16641 -2.03549 0
M  V30 11504 C 1123.8 1.45407 -0.955656 0
M  V30 11505 O 1124.98 1.56547 -1.26708 0
M  V30 11506 C 1122.04 2.4734 -2.42948 0
M  V30 11507 C 1121.11 2.25982 -3.65008 0
M  V30 11508 C 1120.34 3.50449 -4.02518 0
M  V30 11509 O 1120.56 4.57706 -3.40384 0
M  V30 11510 O 1119.5 3.41524 -4.95626 0
M  V30 11511 H 1123.32 0.802323 -2.9291 0
M  V30 11512 H 1120.91 0.330927 -1.45689 0
M  V30 11513 H 1122.79 3.24348 -2.69029 0
M  V30 11514 H 1121.46 2.83225 -1.56733 0
M  V30 11515 H 1120.37 1.46837 -3.44078 0
M  V30 11516 H 1121.7 1.95002 -4.51924 0
M  V30 11517 N 1123.36 1.52689 0.390367 0
M  V30 11518 C 1124.61 1.6689 1.13272 0
M  V30 11519 C 1124.92 0.414433 1.91159 0
M  V30 11520 O 1126.12 0.436559 2.67967 0
M  V30 11521 C 1124.58 2.94929 2.06264 0
M  V30 11522 C 1124.19 4.27551 1.33805 0
M  V30 11523 C 1125.93 3.18497 2.80642 0
M  V30 11524 C 1123.84 5.46698 2.25554 0
M  V30 11525 H 1122.77 0.621749 0.426549 0
M  V30 11526 H 1125.42 1.79185 0.395615 0
M  V30 11527 H 1123.8 2.76378 2.83604 0
M  V30 11528 H 1124.98 4.56651 0.616997 0
M  V30 11529 H 1123.29 4.10234 0.713913 0
M  V30 11530 H 1125.89 4.04693 3.49467 0
M  V30 11531 H 1126.23 2.33511 3.44642 0
M  V30 11532 H 1126.76 3.37607 2.10395 0
M  V30 11533 H 1123.5 6.34088 1.66171 0
M  V30 11534 H 1123.02 5.21913 2.95579 0
M  V30 11535 H 1124.7 5.80519 2.85668 0
M  V30 11536 N 1124.83 -0.648732 1.43629 0
M  V30 11537 C 1125.8 -1.74331 1.488 0
M  V30 11538 C 1126.8 -1.56434 0.372147 0
M  V30 11539 O 1127.99 -1.6225 0.634078 0
M  V30 11540 C 1125.12 -3.13248 1.34494 0
M  V30 11541 H 1126.31 -1.71125 2.46285 0
M  V30 11542 H 1123.87 -0.860798 1.30461 0
M  V30 11543 H 1124.6 -3.22062 0.380345 0
M  V30 11544 H 1124.39 -3.27643 2.15389 0
M  V30 11545 H 1125.88 -3.93056 1.41055 0
M  V30 11546 N 1126.31 -1.30234 -0.887518 0
M  V30 11547 C 1127.72 -1.17048 -1.45453 0
M  V30 11548 C 1128.07 0.229793 -1.9485 0
M  V30 11549 O 1127.2 1.12628 -1.84781 0
M  V30 11550 C 1127.79 -2.11876 -2.64375 0
M  V30 11551 C 1126.35 -2.02676 -3.17174 0
M  V30 11552 C 1125.5 -2.02104 -1.89866 0
M  V30 11553 H 1128.45 -1.42541 -0.697694 0
M  V30 11554 H 1128.47 -1.69811 -3.40506 0
M  V30 11555 H 1127.98 -3.13781 -2.28392 0
M  V30 11556 H 1126.09 -1.03904 -3.57819 0
M  V30 11557 H 1126.2 -2.90939 -3.80646 0
M  V30 11558 H 1124.56 -1.4687 -2.0809 0
M  V30 11559 H 1125.35 -3.05735 -1.56145 0
M  V30 11560 N 1127.79 1.09952 -1.12909 0
M  V30 11561 C 1128.74 2.14591 -0.77037 0
M  V30 11562 C 1129.72 1.59204 0.233021 0
M  V30 11563 O 1130.92 1.7696 0.0377599 0
M  V30 11564 C 1128.05 3.42514 -0.232117 0
M  V30 11565 C 1127.13 4.04823 -1.26409 0
M  V30 11566 N 1127.52 4.41763 -2.46331 0
M  V30 11567 C 1125.82 4.31951 -1.11062 0
M  V30 11568 C 1126.52 4.90778 -3.12269 0
M  V30 11569 N 1125.5 4.87896 -2.39704 0
M  V30 11570 H 1129.3 2.40951 -1.68285 0
M  V30 11571 H 1126.81 1.27125 -1.0106 0
M  V30 11572 H 1128.81 4.16878 0.0430853 0
M  V30 11573 H 1127.47 3.17612 0.674757 0
M  V30 11574 H 1128.48 4.33299 -2.83677 0
M  V30 11575 H 1125.16 4.16681 -0.261456 0
M  V30 11576 H 1126.55 5.28868 -4.14425 0
M  V30 11577 N 1129.27 0.921757 1.27833 0
M  V30 11578 C 1130.23 0.420978 2.25301 0
M  V30 11579 C 1131.23 -0.457158 1.54165 0
M  V30 11580 O 1132.42 -0.259079 1.72263 0
M  V30 11581 C 1129.55 -0.395501 3.38598 0
M  V30 11582 H 1130.75 1.28206 2.71115 0
M  V30 11583 H 1128.3 0.701893 1.39654 0
M  V30 11584 H 1129.03 -1.27565 2.98157 0
M  V30 11585 H 1128.82 0.234029 3.91401 0
M  V30 11586 H 1130.31 -0.736444 4.11055 0
M  V30 11587 N 1130.75 -1.41857 0.686609 0
M  V30 11588 C 1131.68 -2.33481 0.0298353 0
M  V30 11589 C 1132.66 -1.51329 -0.776756 0
M  V30 11590 O 1133.84 -1.79895 -0.731535 0
M  V30 11591 C 1130.97 -3.35065 -0.913707 0
M  V30 11592 C 1129.93 -4.2746 -0.214861 0
M  V30 11593 C 1129.25 -5.19346 -1.27215 0
M  V30 11594 C 1130.55 -5.14252 0.913367 0
M  V30 11595 H 1132.25 -2.8865 0.795067 0
M  V30 11596 H 1129.79 -1.38792 0.383785 0
M  V30 11597 H 1131.75 -3.98082 -1.38234 0
M  V30 11598 H 1130.47 -2.78226 -1.7105 0
M  V30 11599 H 1129.13 -3.65855 0.233651 0
M  V30 11600 H 1128.78 -4.58827 -2.06124 0
M  V30 11601 H 1128.48 -5.81996 -0.80961 0
M  V30 11602 H 1130 -5.85239 -1.74147 0
M  V30 11603 H 1131.41 -5.70887 0.525424 0
M  V30 11604 H 1129.81 -5.85796 1.30244 0
M  V30 11605 H 1130.88 -4.51949 1.75699 0
M  V30 11606 N 1132.22 -0.430739 -1.51599 0
M  V30 11607 C 1133.15 0.374695 -2.30474 0
M  V30 11608 C 1134.14 1.02694 -1.35602 0
M  V30 11609 O 1135.32 1.03184 -1.6452 0
M  V30 11610 C 1132.45 1.47981 -3.14196 0
M  V30 11611 C 1131.4 0.951415 -4.17291 0
M  V30 11612 C 1130.73 2.15177 -4.89492 0
M  V30 11613 C 1132.03 -0.00957951 -5.22299 0
M  V30 11614 H 1133.72 -0.283508 -2.98055 0
M  V30 11615 H 1131.27 -0.13779 -1.43339 0
M  V30 11616 H 1133.22 2.05043 -3.68151 0
M  V30 11617 H 1131.95 2.16621 -2.44424 0
M  V30 11618 H 1130.61 0.403052 -3.64378 0
M  V30 11619 H 1130.25 2.82421 -4.1623 0
M  V30 11620 H 1129.95 1.80464 -5.59202 0
M  V30 11621 H 1131.48 2.72806 -5.46269 0
M  V30 11622 H 1132.89 0.470527 -5.71366 0
M  V30 11623 H 1131.29 -0.268959 -5.99497 0
M  V30 11624 H 1132.36 -0.948297 -4.75537 0
M  V30 11625 N 1133.7 1.56767 -0.161869 0
M  V30 11626 C 1134.63 2.1466 0.803356 0
M  V30 11627 C 1135.65 1.09977 1.20037 0
M  V30 11628 O 1136.84 1.37199 1.14187 0
M  V30 11629 C 1133.94 2.66663 2.09151 0
M  V30 11630 C 1133.11 3.95904 1.85953 0
M  V30 11631 C 1132.17 4.33067 2.98897 0
M  V30 11632 O 1131.19 5.01119 2.69942 0
M  V30 11633 N 1132.4 3.93856 4.26448 0
M  V30 11634 H 1135.16 2.98108 0.308472 0
M  V30 11635 H 1132.72 1.61886 0.0212238 0
M  V30 11636 H 1134.71 2.88528 2.83784 0
M  V30 11637 H 1133.28 1.87856 2.49857 0
M  V30 11638 H 1132.5 3.82513 0.952751 0
M  V30 11639 H 1133.79 4.8033 1.67811 0
M  V30 11640 H 1133.19 3.39051 4.52836 0
M  V30 11641 H 1131.75 4.20741 4.97815 0
M  V30 11642 N 1135.18 -0.111886 1.57202 0
M  V30 11643 C 1136.14 -1.12101 1.99915 0
M  V30 11644 C 1137.14 -1.33906 0.890272 0
M  V30 11645 O 1138.33 -1.30303 1.15615 0
M  V30 11646 C 1135.47 -2.47392 2.34543 0
M  V30 11647 H 1136.66 -0.753736 2.90274 0
M  V30 11648 H 1134.21 -0.35641 1.52182 0
M  V30 11649 H 1134.95 -2.89026 1.47086 0
M  V30 11650 H 1134.73 -2.32917 3.15423 0
M  V30 11651 H 1136.22 -3.20004 2.68304 0
M  V30 11652 N 1136.66 -1.52894 -0.382264 0
M  V30 11653 C 1137.9 -1.68515 -1.12829 0
M  V30 11654 C 1138.24 -0.427211 -1.89443 0
M  V30 11655 O 1137.51 0.57516 -1.85801 0
M  V30 11656 C 1137.8 -2.92449 -2.10108 0
M  V30 11657 C 1137.65 -4.2836 -1.37214 0
M  V30 11658 C 1138.97 -3.11944 -3.1045 0
M  V30 11659 H 1136.09 -0.613223 -0.408811 0
M  V30 11660 H 1138.73 -1.85503 -0.410921 0
M  V30 11661 H 1136.88 -2.78097 -2.71283 0
M  V30 11662 H 1138.55 -4.54493 -0.789516 0
M  V30 11663 H 1136.79 -4.28532 -0.673973 0
M  V30 11664 H 1137.46 -5.11178 -2.0833 0
M  V30 11665 H 1139.94 -3.25372 -2.59369 0
M  V30 11666 H 1138.82 -4.00125 -3.75754 0
M  V30 11667 H 1139.08 -2.26465 -3.79692 0
M  V30 11668 N 1138.14 0.641106 -1.43971 0
M  V30 11669 C 1139.07 1.76489 -1.52885 0
M  V30 11670 C 1140.05 1.65742 -0.38258 0
M  V30 11671 O 1141.23 1.84653 -0.601397 0
M  V30 11672 C 1138.36 3.14977 -1.4631 0
M  V30 11673 C 1137.32 3.40502 -2.59311 0
M  V30 11674 C 1136.64 4.78916 -2.37789 0
M  V30 11675 C 1137.94 3.34048 -4.01509 0
M  V30 11676 H 1139.64 1.69286 -2.46946 0
M  V30 11677 H 1137.18 0.813015 -1.18853 0
M  V30 11678 H 1139.14 3.9336 -1.51149 0
M  V30 11679 H 1137.86 3.2294 -0.487599 0
M  V30 11680 H 1136.52 2.64495 -2.53846 0
M  V30 11681 H 1136.17 4.8357 -1.38454 0
M  V30 11682 H 1135.87 4.96954 -3.13545 0
M  V30 11683 H 1137.39 5.59541 -2.4443 0
M  V30 11684 H 1138.81 4.0235 -4.08396 0
M  V30 11685 H 1137.2 3.63622 -4.77388 0
M  V30 11686 H 1138.27 2.32022 -4.25786 0
M  V30 11687 N 1139.62 1.30703 0.880598 0
M  V30 11688 C 1140.56 1.17455 1.98678 0
M  V30 11689 C 1141.53 0.0629569 1.65981 0
M  V30 11690 O 1142.72 0.233926 1.89361 0
M  V30 11691 C 1139.86 0.876882 3.33774 0
M  V30 11692 C 1138.97 2.07078 3.79134 0
M  V30 11693 C 1138.11 1.71082 5.02896 0
M  V30 11694 C 1137.14 2.86942 5.40676 0
M  V30 11695 N 1136.28 2.51212 6.55619 0
M  V30 11696 H 1141.12 2.12086 2.09341 0
M  V30 11697 H 1138.66 1.05514 1.02495 0
M  V30 11698 H 1140.62 0.684899 4.1154 0
M  V30 11699 H 1139.25 -0.0325633 3.22784 0
M  V30 11700 H 1138.3 2.37388 2.97239 0
M  V30 11701 H 1139.61 2.9383 4.0307 0
M  V30 11702 H 1138.76 1.48284 5.883 0
M  V30 11703 H 1137.5 0.815064 4.80841 0
M  V30 11704 H 1136.51 3.10401 4.53797 0
M  V30 11705 H 1137.73 3.77211 5.64703 0
M  V30 11706 H 1135.68 1.64147 6.35131 0
M  V30 11707 H 1135.6 3.31495 6.79446 0
M  V30 11708 H 1136.86 2.31781 7.44243 0
M  V30 11709 N 1141.09 -1.09351 1.1349 0
M  V30 11710 C 1142.51 -1.3359 0.873269 0
M  V30 11711 C 1142.71 -1.95432 -0.490767 0
M  V30 11712 O 1141.77 -2.20117 -1.23712 0
M  V30 11713 C 1143.08 -2.24681 1.99847 0
M  V30 11714 C 1144.63 -2.38188 2.03065 0
M  V30 11715 C 1145.1 -3.32615 3.14851 0
M  V30 11716 N 1146.59 -3.40188 3.14366 0
M  V30 11717 C 1147.33 -4.13256 3.97501 0
M  V30 11718 N 1146.82 -4.89114 4.90652 0
M  V30 11719 N 1148.62 -4.08988 3.85597 0
M  V30 11720 H 1140.77 -0.675852 2.0136 0
M  V30 11721 H 1143.03 -0.360268 0.876876 0
M  V30 11722 H 1142.74 -1.86469 2.98198 0
M  V30 11723 H 1142.61 -3.25075 1.91327 0
M  V30 11724 H 1145 -2.75663 1.05327 0
M  V30 11725 H 1145.08 -1.3757 2.15658 0
M  V30 11726 H 1144.72 -2.95863 4.12829 0
M  V30 11727 H 1144.65 -4.33139 2.99496 0
M  V30 11728 H 1147.14 -2.861 2.46892 0
M  V30 11729 H 1147.46 -5.423 5.50573 0
M  V30 11730 H 1145.8 -4.882 4.94657 0
M  V30 11731 H 1148.99 -3.48826 3.12151 0
M  V30 11732 H 1149.17 -4.65671 4.50615 0
M  V30 11733 N 1142.57 -0.928524 -1.27343 0
M  V30 11734 C 1143.82 -0.568267 -1.93946 0
M  V30 11735 C 1144.14 0.893501 -1.73325 0
M  V30 11736 O 1143.41 1.63344 -1.08147 0
M  V30 11737 H 1141.99 -0.207173 -0.717696 0
M  V30 11738 H 1144.65 -1.1811 -1.55036 0
M  V30 11739 H 1143.75 -0.775246 -3.02318 0
M  V30 11740 N 1144.05 1.41491 -0.694123 0
M  V30 11741 C 1144.98 2.33462 -0.0422169 0
M  V30 11742 C 1145.96 1.51739 0.76872 0
M  V30 11743 O 1147.15 1.8028 0.721985 0
M  V30 11744 C 1144.28 3.35545 0.895925 0
M  V30 11745 C 1143.23 4.27568 0.192188 0
M  V30 11746 C 1142.56 5.20014 1.24459 0
M  V30 11747 C 1143.86 5.1376 -0.940626 0
M  V30 11748 H 1145.55 2.88225 -0.810363 0
M  V30 11749 H 1143.1 1.38586 -0.39114 0
M  V30 11750 H 1145.05 3.9881 1.36121 0
M  V30 11751 H 1143.77 2.79129 1.69572 0
M  V30 11752 H 1142.43 3.65726 -0.25305 0
M  V30 11753 H 1142.08 4.59913 2.03687 0
M  V30 11754 H 1141.78 5.82417 0.778734 0
M  V30 11755 H 1143.3 5.86155 1.71041 0
M  V30 11756 H 1144.72 5.70601 -0.555692 0
M  V30 11757 H 1143.11 5.85097 -1.33349 0
M  V30 11758 H 1144.18 4.51011 -1.78093 0
M  V30 11759 N 1145.53 0.438773 1.51369 0
M  V30 11760 C 1146.47 -0.37195 2.27783 0
M  V30 11761 C 1147.44 -1.01558 1.31435 0
M  V30 11762 O 1148.63 -1.03421 1.60339 0
M  V30 11763 C 1145.77 -1.46636 3.12397 0
M  V30 11764 C 1144.88 -0.840727 4.2374 0
M  V30 11765 C 1144.02 -1.91031 4.95662 0
M  V30 11766 C 1143.06 -1.26318 5.98924 0
M  V30 11767 N 1142.19 -2.27419 6.64248 0
M  V30 11768 H 1147.03 0.286048 2.96624 0
M  V30 11769 H 1144.57 0.152909 1.46303 0
M  V30 11770 H 1146.53 -2.11219 3.59781 0
M  V30 11771 H 1145.16 -2.09397 2.45668 0
M  V30 11772 H 1144.21 -0.0831588 3.80309 0
M  V30 11773 H 1145.52 -0.328285 4.97719 0
M  V30 11774 H 1144.68 -2.63272 5.46601 0
M  V30 11775 H 1143.42 -2.45649 4.21317 0
M  V30 11776 H 1142.42 -0.526246 5.47276 0
M  V30 11777 H 1143.65 -0.724324 6.75226 0
M  V30 11778 H 1141.59 -2.81114 5.92715 0
M  V30 11779 H 1141.51 -1.81071 7.33996 0
M  V30 11780 H 1142.78 -2.99139 7.19817 0
M  V30 11781 N 1147.01 -1.56678 0.170181 0
M  V30 11782 C 1148.42 -1.83452 -0.346742 0
M  V30 11783 C 1148.77 -1.08993 -1.63141 0
M  V30 11784 O 1147.89 -0.342607 -2.13671 0
M  V30 11785 C 1148.49 -3.32779 -0.635882 0
M  V30 11786 C 1147.05 -3.60052 -1.09725 0
M  V30 11787 C 1146.19 -2.76983 -0.132516 0
M  V30 11788 H 1149.14 -1.53719 0.394465 0
M  V30 11789 H 1149.17 -3.50195 -1.48806 0
M  V30 11790 H 1148.68 -3.86944 0.299291 0
M  V30 11791 H 1146.78 -3.11297 -2.04756 0
M  V30 11792 H 1146.89 -4.68393 -1.00719 0
M  V30 11793 H 1145.26 -2.46794 -0.62966 0
M  V30 11794 H 1146.04 -3.33929 0.796658 0
M  V30 11795 N 1148.48 0.103547 -1.57259 0
M  V30 11796 C 1149.71 0.82624 -1.90232 0
M  V30 11797 C 1150.13 1.71902 -0.763641 0
M  V30 11798 O 1149.49 1.79043 0.285181 0
M  V30 11799 C 1149.54 1.62265 -3.22029 0
M  V30 11800 O 1148.64 2.73091 -3.09023 0
M  V30 11801 H 1147.98 0.227528 -0.6238 0
M  V30 11802 H 1150.51 0.081307 -2.04438 0
M  V30 11803 H 1150.52 2.00865 -3.5513 0
M  V30 11804 H 1149.2 0.967383 -4.04493 0
M  V30 11805 H 1147.78 2.3758 -2.8742 0
M  V30 11806 N 1149.96 1.53094 0.37415 0
M  V30 11807 C 1151.2 1.70558 1.12647 0
M  V30 11808 C 1151.57 0.443515 1.86807 0
M  V30 11809 O 1152.77 0.49472 2.64208 0
M  V30 11810 C 1151.04 2.91565 2.06699 0
M  V30 11811 S 1152.6 3.29692 2.89567 0
M  V30 11812 H 1149.41 0.600238 0.381097 0
M  V30 11813 H 1152.02 1.91177 0.408865 0
M  V30 11814 H 1150.72 3.81625 1.50965 0
M  V30 11815 H 1150.25 2.73323 2.82945 0
M  V30 11816 H 1152.27 2.81036 4.08942 0
M  V30 11817 N 1151.44 -0.633461 1.44309 0
M  V30 11818 C 1152.67 -1.42033 1.50447 0
M  V30 11819 C 1153.08 -1.88362 0.128585 0
M  V30 11820 O 1152.44 -1.60695 -0.865071 0
M  V30 11821 C 1152.49 -2.6422 2.46719 0
M  V30 11822 O 1152.21 -2.19823 3.78958 0
M  V30 11823 C 1153.71 -3.57372 2.62298 0
M  V30 11824 H 1150.93 -0.435667 0.510329 0
M  V30 11825 H 1153.48 -0.774907 1.8925 0
M  V30 11826 H 1151.63 -3.24859 2.11058 0
M  V30 11827 H 1152.05 -2.99022 4.30913 0
M  V30 11828 H 1153.52 -4.39719 3.33693 0
M  V30 11829 H 1154 -4.06026 1.67449 0
M  V30 11830 H 1154.6 -3.02603 2.9885 0
M  V30 11831 N 1152.92 -1.31168 -0.873655 0
M  V30 11832 C 1154.17 -1.20003 -1.62118 0
M  V30 11833 C 1154.48 0.241505 -1.94103 0
M  V30 11834 O 1155.69 0.474801 -2.67316 0
M  V30 11835 C 1154.14 -2.10055 -2.92241 0
M  V30 11836 C 1153.75 -3.59183 -2.67752 0
M  V30 11837 C 1155.49 -2.07681 -3.70228 0
M  V30 11838 C 1153.4 -4.41255 -3.93761 0
M  V30 11839 H 1152.33 -0.445564 -0.608267 0
M  V30 11840 H 1154.98 -1.55997 -0.966287 0
M  V30 11841 H 1153.36 -1.66956 -3.59085 0
M  V30 11842 H 1154.54 -4.10504 -2.09339 0
M  V30 11843 H 1152.85 -3.63496 -2.03125 0
M  V30 11844 H 1155.45 -2.66246 -4.637 0
M  V30 11845 H 1155.79 -1.06304 -4.02499 0
M  V30 11846 H 1156.33 -2.48961 -3.10263 0
M  V30 11847 H 1153.07 -5.43372 -3.66643 0
M  V30 11848 H 1152.59 -3.94694 -4.51638 0
M  V30 11849 H 1154.26 -4.53278 -4.6168 0
M  V30 11850 N 1154.4 1.08748 -1.14068 0
M  V30 11851 C 1155.65 1.8044 -0.901352 0
M  V30 11852 C 1155.96 1.86995 0.573791 0
M  V30 11853 O 1157.16 2.55065 0.930275 0
M  V30 11854 C 1155.62 3.24185 -1.56308 0
M  V30 11855 C 1155.23 3.25875 -3.07424 0
M  V30 11856 C 1156.97 4.00584 -1.40473 0
M  V30 11857 C 1154.88 4.64186 -3.66449 0
M  V30 11858 H 1153.81 0.676201 -0.333569 0
M  V30 11859 H 1156.46 1.22169 -1.3692 0
M  V30 11860 H 1154.84 3.82561 -1.0229 0
M  V30 11861 H 1156.02 2.77225 -3.6808 0
M  V30 11862 H 1154.33 2.62969 -3.22856 0
M  V30 11863 H 1156.93 5.02781 -1.81976 0
M  V30 11864 H 1157.27 4.14823 -0.350408 0
M  V30 11865 H 1157.8 3.48668 -1.91508 0
M  V30 11866 H 1154.54 4.5515 -4.71719 0
M  V30 11867 H 1154.06 5.13132 -3.10574 0
M  V30 11868 H 1155.74 5.33161 -3.66536 0
M  V30 11869 N 1155.87 0.935264 1.26849 0
M  V30 11870 C 1157.29 0.623198 1.75992 0
M  V30 11871 C 1157.64 -0.861647 1.76267 0
M  V30 11872 O 1156.76 -1.6743 1.37099 0
M  V30 11873 C 1157.36 1.12451 3.19594 0
M  V30 11874 C 1155.92 0.862974 3.66374 0
M  V30 11875 C 1155.06 1.27886 2.4605 0
M  V30 11876 H 1158.01 1.11422 1.13008 0
M  V30 11877 H 1158.03 0.475626 3.77516 0
M  V30 11878 H 1157.55 2.20522 3.19361 0
M  V30 11879 H 1155.65 -0.203606 3.72043 0
M  V30 11880 H 1155.76 1.48582 4.55478 0
M  V30 11881 H 1154.12 0.697335 2.44968 0
M  V30 11882 H 1154.91 2.36837 2.48522 0
M  V30 11883 N 1157.35 -1.41121 0.701616 0
M  V30 11884 C 1158.28 -2.33436 0.0545974 0
M  V30 11885 C 1159.26 -1.52144 -0.760662 0
M  V30 11886 O 1160.45 -1.80661 -0.712414 0
M  V30 11887 C 1157.58 -3.36015 -0.878117 0
M  V30 11888 C 1156.53 -4.27664 -0.169511 0
M  V30 11889 C 1155.86 -5.20666 -1.21699 0
M  V30 11890 C 1157.16 -5.13254 0.967859 0
M  V30 11891 H 1158.85 -2.87791 0.825637 0
M  V30 11892 H 1156.4 -1.38377 0.398484 0
M  V30 11893 H 1158.35 -3.99526 -1.34004 0
M  V30 11894 H 1157.08 -2.80024 -1.68089 0
M  V30 11895 H 1155.73 -3.65586 0.272441 0
M  V30 11896 H 1155.38 -4.60987 -2.01246 0
M  V30 11897 H 1155.08 -5.82822 -0.747836 0
M  V30 11898 H 1156.61 -5.87053 -1.6793 0
M  V30 11899 H 1158.02 -5.70298 0.585944 0
M  V30 11900 H 1156.42 -5.84381 1.3645 0
M  V30 11901 H 1157.49 -4.5006 1.80483 0
M  V30 11902 N 1158.83 -0.446794 -1.51134 0
M  V30 11903 C 1159.76 0.405311 -2.24572 0
M  V30 11904 C 1160.74 1.01679 -1.26886 0
M  V30 11905 O 1161.93 1.05743 -1.56047 0
M  V30 11906 C 1159.05 1.56573 -3.00338 0
M  V30 11907 C 1158.1 1.07401 -4.12756 0
M  V30 11908 S 1158.93 0.00835038 -5.35499 0
M  V30 11909 C 1160.09 1.17321 -6.14806 0
M  V30 11910 H 1160.32 -0.218143 -2.96499 0
M  V30 11911 H 1157.85 -0.231405 -1.52656 0
M  V30 11912 H 1159.81 2.23092 -3.44587 0
M  V30 11913 H 1158.47 2.16062 -2.27982 0
M  V30 11914 H 1157.67 1.94204 -4.65082 0
M  V30 11915 H 1157.27 0.486906 -3.70817 0
M  V30 11916 H 1159.56 2.08972 -6.44466 0
M  V30 11917 H 1160.5 0.689723 -7.04733 0
M  V30 11918 H 1160.91 1.41605 -5.4645 0
M  V30 11919 N 1160.31 1.56586 -0.178487 0
M  V30 11920 C 1161.26 2.18309 0.74899 0
M  V30 11921 C 1162.23 1.12525 1.22178 0
M  V30 11922 O 1163.41 1.40706 1.28866 0
M  V30 11923 C 1160.55 2.83353 1.9699 0
M  V30 11924 C 1159.66 4.03618 1.54002 0
M  V30 11925 C 1158.8 4.56567 2.71514 0
M  V30 11926 C 1157.84 5.69226 2.25051 0
M  V30 11927 N 1156.97 6.16654 3.35682 0
M  V30 11928 H 1161.81 2.97217 0.21587 0
M  V30 11929 H 1159.35 1.46794 0.0948182 0
M  V30 11930 H 1161.31 3.19226 2.68609 0
M  V30 11931 H 1159.94 2.07037 2.4766 0
M  V30 11932 H 1158.99 3.73518 0.720298 0
M  V30 11933 H 1160.3 4.85148 1.15901 0
M  V30 11934 H 1159.46 4.94659 3.5128 0
M  V30 11935 H 1158.2 3.7411 3.12879 0
M  V30 11936 H 1157.2 5.30679 1.43734 0
M  V30 11937 H 1158.43 6.5349 1.84736 0
M  V30 11938 H 1156.37 5.37124 3.76609 0
M  V30 11939 H 1156.29 6.93192 3.01697 0
M  V30 11940 H 1157.56 6.59397 4.15711 0
M  V30 11941 N 1161.79 -0.095206 1.57312 0
M  V30 11942 C 1162.73 -1.11551 2.02052 0
M  V30 11943 C 1163.7 -1.39808 0.896818 0
M  V30 11944 O 1164.89 -1.51273 1.1628 0
M  V30 11945 C 1162.03 -2.43056 2.44985 0
M  V30 11946 C 1161.14 -2.21531 3.70875 0
M  V30 11947 C 1160.28 -3.46434 4.02687 0
M  V30 11948 C 1159.32 -3.2017 5.21687 0
M  V30 11949 N 1158.45 -4.37339 5.49253 0
M  V30 11950 H 1163.29 -0.727 2.88996 0
M  V30 11951 H 1160.83 -0.347441 1.42938 0
M  V30 11952 H 1162.79 -3.19803 2.67921 0
M  V30 11953 H 1161.42 -2.79754 1.61051 0
M  V30 11954 H 1160.47 -1.35587 3.55416 0
M  V30 11955 H 1161.78 -1.98116 4.57768 0
M  V30 11956 H 1160.94 -4.31589 4.26399 0
M  V30 11957 H 1159.67 -3.72904 3.14315 0
M  V30 11958 H 1158.68 -2.33409 4.97796 0
M  V30 11959 H 1159.9 -2.95047 6.11657 0
M  V30 11960 H 1157.85 -4.63885 4.6384 0
M  V30 11961 H 1157.77 -4.17114 6.30517 0
M  V30 11962 H 1159.04 -5.23559 5.775 0
M  V30 11963 N 1163.26 -1.53291 -0.366026 0
M  V30 11964 C 1164.54 -1.60055 -1.12436 0
M  V30 11965 C 1164.92 -0.407811 -2.07123 0
M  V30 11966 O 1164.27 0.601977 -2.20428 0
M  V30 11967 C 1164.48 -2.95062 -1.86385 0
M  V30 11968 C 1165.83 -3.49623 -2.40934 0
M  V30 11969 O 1166.85 -2.97088 -1.96512 0
M  V30 11970 O 1165.71 -4.41461 -3.2214 0
M  V30 11971 H 1162.8 -0.646476 -0.51575 0
M  V30 11972 H 1165.35 -1.65632 -0.369326 0
M  V30 11973 H 1164.12 -3.73312 -1.17277 0
M  V30 11974 H 1163.75 -2.92973 -2.68798 0
M  V30 11975 N 1164.74 0.6258 -1.44643 0
M  V30 11976 C 1165.69 1.73135 -1.48352 0
M  V30 11977 C 1166.68 1.57076 -0.348716 0
M  V30 11978 O 1167.87 1.66722 -0.594379 0
M  V30 11979 C 1165 3.11838 -1.43568 0
M  V30 11980 C 1164.08 3.33348 -2.62183 0
M  V30 11981 N 1164.47 3.252 -3.87399 0
M  V30 11982 C 1162.77 3.64162 -2.57492 0
M  V30 11983 C 1163.47 3.47544 -4.66463 0
M  V30 11984 N 1162.45 3.70672 -3.97622 0
M  V30 11985 H 1166.25 1.65301 -2.43008 0
M  V30 11986 H 1163.77 0.828449 -1.3968 0
M  V30 11987 H 1165.76 3.91127 -1.44309 0
M  V30 11988 H 1164.42 3.20834 -0.499547 0
M  V30 11989 H 1165.43 3.04001 -4.19289 0
M  V30 11990 H 1162.11 3.80107 -1.727 0
M  V30 11991 H 1163.5 3.46792 -5.75487 0
M  V30 11992 N 1166.22 1.31629 0.866686 0
M  V30 11993 C 1167.64 1.10358 1.15296 0
M  V30 11994 C 1167.84 -0.123807 2.01119 0
M  V30 11995 O 1166.89 -0.81219 2.39081 0
M  V30 11996 C 1168.21 2.37684 1.84193 0
M  V30 11997 C 1169.75 2.43326 1.9688 0
M  V30 11998 C 1170.23 3.70541 2.69191 0
M  V30 11999 N 1171.72 3.71454 2.76724 0
M  V30 12000 C 1172.45 4.66585 3.33295 0
M  V30 12001 N 1171.95 5.72075 3.90771 0
M  V30 12002 N 1173.74 4.541 3.31284 0
M  V30 12003 H 1165.89 2.10343 0.29487 0
M  V30 12004 H 1168.16 0.928096 0.193239 0
M  V30 12005 H 1167.86 3.27352 1.28582 0
M  V30 12006 H 1167.74 2.47731 2.84445 0
M  V30 12007 H 1170.12 1.54124 2.51654 0
M  V30 12008 H 1170.21 2.3724 0.956596 0
M  V30 12009 H 1169.85 4.60111 2.15083 0
M  V30 12010 H 1169.78 3.73894 3.70825 0
M  V30 12011 H 1172.27 2.952 2.35936 0
M  V30 12012 H 1172.58 6.40738 4.32058 0
M  V30 12013 H 1170.93 5.75844 3.89138 0
M  V30 12014 H 1174.12 3.70861 2.85622 0
M  V30 12015 H 1174.29 5.28416 3.75074 0
M  V30 12016 N 1167.7 -1.08142 1.14644 0
M  V30 12017 C 1168.98 -1.77254 0.827071 0
M  V30 12018 C 1169.36 -1.99885 -0.67891 0
M  V30 12019 O 1168.7 -1.61084 -1.62062 0
M  V30 12020 C 1168.91 -3.08658 1.62884 0
M  V30 12021 C 1170.26 -3.83143 1.82993 0
M  V30 12022 O 1171.29 -3.18447 1.59593 0
M  V30 12023 O 1170.15 -4.9932 2.2213 0
M  V30 12024 H 1167.24 -0.769356 0.30335 0
M  V30 12025 H 1169.79 -1.1458 1.25178 0
M  V30 12026 H 1168.56 -2.87753 2.65168 0
M  V30 12027 H 1168.18 -3.79061 1.19994 0
M  V30 12028 N 1169.18 -0.941978 -1.26351 0
M  V30 12029 C 1170.13 -0.443011 -2.28342 0
M  V30 12030 C 1171.12 0.48013 -1.62453 0
M  V30 12031 O 1172.33 0.358255 -1.76399 0
M  V30 12032 H 1168.7 -0.124728 -0.741584 0
M  V30 12033 H 1170.67 -1.31573 -2.67827 0
M  V30 12034 C 1169.42 0.275675 -3.46605 0
M  V30 12035 H 1168.74 -0.425504 -3.97529 0
M  V30 12036 H 1170.18 0.589012 -4.19889 0
M  V30 12037 C 1168.64 1.49376 -3.01974 0
M  V30 12038 O 1169.17 2.59203 -3.06883 0
M  V30 12039 N 1167.38 1.35061 -2.57307 0
M  V30 12040 H 1166.93 0.457045 -2.53513 0
M  V30 12041 H 1166.88 2.16681 -2.27809 0
M  V30 12042 N 1170.66 1.40747 -0.709091 0
M  V30 12043 C 1171.59 2.33404 -0.0669763 0
M  V30 12044 C 1172.57 1.52546 0.752582 0
M  V30 12045 O 1173.75 1.81036 0.702823 0
M  V30 12046 C 1170.88 3.36476 0.860285 0
M  V30 12047 C 1169.84 4.27748 0.146828 0
M  V30 12048 C 1169.16 5.21304 1.18937 0
M  V30 12049 C 1170.46 5.12734 -0.995064 0
M  V30 12050 H 1172.16 2.87349 -0.840888 0
M  V30 12051 H 1169.7 1.38163 -0.405817 0
M  V30 12052 H 1171.65 4.00231 1.31883 0
M  V30 12053 H 1170.38 2.80912 1.66602 0
M  V30 12054 H 1169.04 3.65437 -0.291826 0
M  V30 12055 H 1168.69 4.62048 1.98798 0
M  V30 12056 H 1168.39 5.8321 0.716917 0
M  V30 12057 H 1169.91 5.87936 1.64815 0
M  V30 12058 H 1171.32 5.69979 -0.61618 0
M  V30 12059 H 1169.72 5.83649 -1.39547 0
M  V30 12060 H 1170.79 4.49097 -1.82867 0
M  V30 12061 N 1172.13 0.454803 1.50895 0
M  V30 12062 C 1173.04 -0.353495 2.31921 0
M  V30 12063 C 1174.06 -1.01136 1.41589 0
M  V30 12064 O 1175.24 -1.00291 1.74653 0
M  V30 12065 C 1172.3 -1.43032 3.15821 0
M  V30 12066 C 1171.36 -0.790763 4.21954 0
M  V30 12067 C 1170.59 -1.81628 5.01843 0
M  V30 12068 O 1170.82 -3.04078 4.8259 0
M  V30 12069 O 1169.75 -1.39713 5.8546 0
M  V30 12070 H 1173.58 0.308463 3.02129 0
M  V30 12071 H 1171.16 0.216971 1.47816 0
M  V30 12072 H 1173.04 -2.05444 3.67927 0
M  V30 12073 H 1171.72 -2.07605 2.48358 0
M  V30 12074 H 1170.63 -0.128127 3.73881 0
M  V30 12075 H 1171.96 -0.188251 4.9184 0
M  V30 12076 N 1173.61 -1.56489 0.186789 0
M  V30 12077 C 1174.86 -1.97341 -0.454158 0
M  V30 12078 C 1175.19 -1.07337 -1.622 0
M  V30 12079 O 1174.44 -0.1107 -1.95387 0
M  V30 12080 C 1174.74 -3.44145 -0.964315 0
M  V30 12081 C 1174.41 -4.50812 0.0892734 0
M  V30 12082 C 1173.07 -4.79707 0.378794 0
M  V30 12083 C 1175.42 -5.14968 0.8036 0
M  V30 12084 C 1172.75 -5.70051 1.38776 0
M  V30 12085 C 1175.1 -6.06402 1.80166 0
M  V30 12086 C 1173.76 -6.33657 2.09847 0
M  V30 12087 H 1173.03 -0.722124 -0.166188 0
M  V30 12088 H 1175.68 -1.89412 0.282008 0
M  V30 12089 H 1173.99 -3.49103 -1.7786 0
M  V30 12090 H 1175.68 -3.73104 -1.4695 0
M  V30 12091 H 1172.27 -4.28349 -0.146552 0
M  V30 12092 H 1176.46 -4.92743 0.593147 0
M  V30 12093 H 1171.71 -5.89445 1.62373 0
M  V30 12094 H 1175.89 -6.55176 2.36045 0
M  V30 12095 H 1173.51 -7.03462 2.88175 0
M  V30 12096 N 1175.09 0.086862 -1.5736 0
M  V30 12097 C 1176.34 0.78884 -1.86504 0
M  V30 12098 C 1176.66 1.78329 -0.77646 0
M  V30 12099 O 1175.92 1.94354 0.229122 0
M  V30 12100 C 1176.22 1.54537 -3.22263 0
M  V30 12101 C 1175.88 0.692284 -4.45554 0
M  V30 12102 C 1174.55 0.45714 -4.79024 0
M  V30 12103 C 1176.9 0.0997695 -5.21105 0
M  V30 12104 C 1174.23 -0.380247 -5.85466 0
M  V30 12105 C 1176.58 -0.724986 -6.28432 0
M  V30 12106 C 1175.24 -0.970144 -6.60412 0
M  V30 12107 H 1174.51 0.288657 -0.682465 0
M  V30 12108 H 1177.16 0.050059 -1.91435 0
M  V30 12109 H 1175.46 2.35594 -3.13053 0
M  V30 12110 H 1177.16 2.09305 -3.42042 0
M  V30 12111 H 1173.75 0.885675 -4.19349 0
M  V30 12112 H 1177.94 0.268583 -4.95573 0
M  V30 12113 H 1173.19 -0.579084 -6.08651 0
M  V30 12114 H 1177.37 -1.19093 -6.86141 0
M  V30 12115 H 1174.99 -1.6208 -7.42721 0
M  V30 12116 N 1176.57 1.53483 0.357892 0
M  V30 12117 C 1177.5 1.83444 1.44466 0
M  V30 12118 C 1178.48 0.688486 1.55544 0
M  V30 12119 O 1179.66 0.93906 1.69986 0
M  V30 12120 C 1176.79 2.03122 2.81707 0
M  V30 12121 C 1175.75 3.1891 2.85448 0
M  V30 12122 C 1175.07 3.23895 4.25436 0
M  V30 12123 C 1176.37 4.57334 2.52275 0
M  V30 12124 H 1178.07 2.74456 1.19642 0
M  V30 12125 H 1175.61 1.3206 0.574112 0
M  V30 12126 H 1177.57 2.22666 3.57768 0
M  V30 12127 H 1176.29 1.08827 3.07935 0
M  V30 12128 H 1174.95 2.99199 2.11838 0
M  V30 12129 H 1174.6 2.27223 4.48753 0
M  V30 12130 H 1174.3 4.01694 4.28854 0
M  V30 12131 H 1175.82 3.45632 5.0336 0
M  V30 12132 H 1177.24 4.76988 3.1805 0
M  V30 12133 H 1175.63 5.37431 2.66998 0
M  V30 12134 H 1176.7 4.61921 1.47501 0
M  V30 12135 N 1178.05 -0.61812 1.44973 0
M  V30 12136 C 1179.01 -1.71135 1.52465 0
M  V30 12137 C 1180.01 -1.5561 0.405246 0
M  V30 12138 O 1181.2 -1.60869 0.668351 0
M  V30 12139 C 1178.33 -3.10324 1.41108 0
M  V30 12140 H 1179.52 -1.65862 2.49859 0
M  V30 12141 H 1177.08 -0.832932 1.32257 0
M  V30 12142 H 1177.81 -3.21183 0.448574 0
M  V30 12143 H 1177.6 -3.23001 2.2229 0
M  V30 12144 H 1179.09 -3.89976 1.49361 0
M  V30 12145 N 1179.52 -1.32087 -0.859693 0
M  V30 12146 C 1180.77 -1.22119 -1.61033 0
M  V30 12147 C 1181.09 0.218289 -1.93774 0
M  V30 12148 O 1180.36 1.14172 -1.5919 0
M  V30 12149 H 1178.94 -0.448989 -0.597008 0
M  V30 12150 H 1181.6 -1.65545 -1.02863 0
M  V30 12151 H 1180.7 -1.80023 -2.54947 0
M  V30 12152 N 1181 1.07532 -1.15215 0
M  V30 12153 C 1182.25 1.79474 -0.920439 0
M  V30 12154 C 1182.56 1.87593 0.553926 0
M  V30 12155 O 1183.77 2.56037 0.903169 0
M  V30 12156 C 1182.23 3.22509 -1.59738 0
M  V30 12157 C 1181.83 3.22596 -3.10863 0
M  V30 12158 C 1183.58 3.99072 -1.44714 0
M  V30 12159 C 1181.48 4.60273 -3.71352 0
M  V30 12160 H 1180.41 0.672625 -0.340722 0
M  V30 12161 H 1183.07 1.2071 -1.38208 0
M  V30 12162 H 1181.45 3.81454 -1.06342 0
M  V30 12163 H 1182.62 2.73306 -3.70999 0
M  V30 12164 H 1180.94 2.5953 -3.25627 0
M  V30 12165 H 1183.53 5.00823 -1.87299 0
M  V30 12166 H 1183.88 4.14428 -0.394386 0
M  V30 12167 H 1184.41 3.46617 -1.95195 0
M  V30 12168 H 1181.15 4.50122 -4.76519 0
M  V30 12169 H 1180.67 5.09809 -3.15998 0
M  V30 12170 H 1182.35 5.29243 -3.7217 0
M  V30 12171 N 1182.48 0.948665 1.2585 0
M  V30 12172 C 1183.73 0.59905 1.93018 0
M  V30 12173 C 1184.05 -0.865813 1.74725 0
M  V30 12174 O 1183.32 -1.61602 1.10732 0
M  V30 12175 H 1181.9 0.218565 0.71431 0
M  V30 12176 H 1184.56 1.20561 1.53137 0
M  V30 12177 H 1183.66 0.823244 3.01047 0
M  V30 12178 N 1183.96 -1.40369 0.716545 0
M  V30 12179 C 1185.37 -1.54757 0.390202 0
M  V30 12180 C 1185.57 -1.68767 -1.10091 0
M  V30 12181 O 1184.63 -1.67779 -1.88697 0
M  V30 12182 C 1185.94 -2.77546 1.15709 0
M  V30 12183 C 1187.49 -2.91364 1.14349 0
M  V30 12184 C 1187.97 -4.17068 1.89256 0
M  V30 12185 N 1189.46 -4.2407 1.8633 0
M  V30 12186 C 1190.19 -5.20243 2.41112 0
M  V30 12187 N 1189.69 -6.22318 3.04454 0
M  V30 12188 N 1191.48 -5.12328 2.31249 0
M  V30 12189 H 1183.63 -1.29521 1.68339 0
M  V30 12190 H 1185.9 -0.626382 0.711582 0
M  V30 12191 H 1185.6 -2.73474 2.21144 0
M  V30 12192 H 1185.48 -3.69682 0.749347 0
M  V30 12193 H 1187.86 -2.94939 0.0973383 0
M  V30 12194 H 1187.94 -2.00344 1.59047 0
M  V30 12195 H 1187.59 -4.14255 2.93863 0
M  V30 12196 H 1187.52 -5.07099 1.41978 0
M  V30 12197 H 1190.01 -3.50944 1.40168 0
M  V30 12198 H 1190.32 -6.92129 3.43769 0
M  V30 12199 H 1188.67 -6.22759 3.08538 0
M  V30 12200 H 1191.86 -4.31514 1.8142 0
M  V30 12201 H 1192.03 -5.87107 2.74243 0
M  V30 12202 N 1185.44 -0.462799 -1.50652 0
M  V30 12203 C 1186.37 0.325724 -2.31217 0
M  V30 12204 C 1187.35 0.997942 -1.3775 0
M  V30 12205 O 1188.53 0.996707 -1.66671 0
M  V30 12206 C 1185.66 1.41283 -3.17264 0
M  V30 12207 C 1184.62 0.862687 -4.19216 0
M  V30 12208 C 1183.94 2.04746 -4.93946 0
M  V30 12209 C 1185.24 -0.120365 -5.22161 0
M  V30 12210 H 1186.94 -0.346666 -2.97386 0
M  V30 12211 H 1184.48 -0.168163 -1.43015 0
M  V30 12212 H 1186.44 1.97188 -3.72418 0
M  V30 12213 H 1185.16 2.11387 -2.48964 0
M  V30 12214 H 1183.82 0.325671 -3.65151 0
M  V30 12215 H 1183.47 2.73529 -4.22127 0
M  V30 12216 H 1183.17 1.68562 -5.62904 0
M  V30 12217 H 1184.69 2.61157 -5.51932 0
M  V30 12218 H 1186.1 0.349226 -5.72235 0
M  V30 12219 H 1184.5 -0.396061 -5.98792 0
M  V30 12220 H 1185.57 -1.04895 -4.73418 0
M  V30 12221 N 1186.91 1.56388 -0.195085 0
M  V30 12222 C 1187.86 2.15705 0.738595 0
M  V30 12223 C 1188.85 1.09782 1.1763 0
M  V30 12224 O 1190.04 1.35844 1.1347 0
M  V30 12225 C 1187.17 2.81994 1.95791 0
M  V30 12226 C 1186.26 3.95108 1.54111 0
M  V30 12227 N 1186.65 4.98856 0.835261 0
M  V30 12228 C 1184.94 4.06709 1.8304 0
M  V30 12229 C 1185.65 5.78317 0.626417 0
M  V30 12230 N 1184.62 5.30746 1.17513 0
M  V30 12231 H 1188.42 2.93281 0.190597 0
M  V30 12232 H 1185.94 1.62399 0.00470391 0
M  V30 12233 H 1187.93 3.22883 2.63728 0
M  V30 12234 H 1186.59 2.05906 2.51063 0
M  V30 12235 H 1187.61 5.1557 0.490732 0
M  V30 12236 H 1184.28 3.41749 2.39821 0
M  V30 12237 H 1185.67 6.71867 0.0664935 0
M  V30 12238 N 1188.39 -0.0785156 1.57404 0
M  V30 12239 C 1189.32 -1.09446 2.06262 0
M  V30 12240 C 1190.3 -1.40777 0.954772 0
M  V30 12241 O 1191.49 -1.5052 1.22708 0
M  V30 12242 C 1188.62 -2.40979 2.50093 0
M  V30 12243 C 1187.57 -2.24017 3.64692 0
M  V30 12244 C 1186.9 -3.60873 3.94556 0
M  V30 12245 C 1188.2 -1.66696 4.94985 0
M  V30 12246 H 1189.89 -0.687928 2.9139 0
M  V30 12247 H 1187.44 -0.329466 1.4018 0
M  V30 12248 H 1189.39 -3.12337 2.82884 0
M  V30 12249 H 1188.12 -2.83599 1.61985 0
M  V30 12250 H 1186.77 -1.55101 3.32174 0
M  V30 12251 H 1186.42 -4.01051 3.0359 0
M  V30 12252 H 1186.12 -3.50365 4.71718 0
M  V30 12253 H 1187.65 -4.33673 4.29837 0
M  V30 12254 H 1189.06 -2.27913 5.2605 0
M  V30 12255 H 1187.46 -1.66902 5.76423 0
M  V30 12256 H 1188.53 -0.627827 4.80818 0
M  V30 12257 N 1189.87 -1.5367 -0.349747 0
M  V30 12258 C 1191.1 -1.74858 -1.11532 0
M  V30 12259 C 1191.52 -0.483591 -1.81777 0
M  V30 12260 O 1190.88 0.563399 -1.72324 0
M  V30 12261 C 1190.93 -2.92479 -2.10923 0
M  V30 12262 O 1190.03 -2.62194 -3.18321 0
M  V30 12263 H 1189.37 -0.580219 -0.322865 0
M  V30 12264 H 1191.9 -2.00611 -0.402033 0
M  V30 12265 H 1191.91 -3.19093 -2.54252 0
M  V30 12266 H 1190.59 -3.84228 -1.59191 0
M  V30 12267 H 1189.16 -2.46448 -2.79853 0
M  V30 12268 N 1191.35 0.610423 -1.45298 0
M  V30 12269 C 1192.6 1.3668 -1.48872 0
M  V30 12270 C 1192.92 1.94562 -0.130686 0
M  V30 12271 O 1192.19 1.76996 0.839607 0
M  V30 12272 H 1190.77 0.507393 -0.548235 0
M  V30 12273 H 1193.43 0.716997 -1.81232 0
M  V30 12274 H 1192.53 2.18766 -2.22593 0
M  V30 12275 N 1192.83 1.32541 0.852676 0
M  V30 12276 C 1194.08 1.22567 1.60188 0
M  V30 12277 C 1194.39 -0.210594 1.94463 0
M  V30 12278 O 1195.59 -0.432214 2.68038 0
M  V30 12279 C 1194.05 2.14678 2.88862 0
M  V30 12280 C 1193.66 3.63398 2.62004 0
M  V30 12281 C 1195.4 2.13545 3.66877 0
M  V30 12282 C 1193.31 4.47464 3.86691 0
M  V30 12283 H 1192.24 0.455184 0.601102 0
M  V30 12284 H 1194.89 1.57515 0.941347 0
M  V30 12285 H 1193.27 1.72647 3.56383 0
M  V30 12286 H 1194.45 4.13783 2.02782 0
M  V30 12287 H 1192.76 3.66681 1.97316 0
M  V30 12288 H 1195.36 2.73589 4.59405 0
M  V30 12289 H 1195.7 1.12694 4.00756 0
M  V30 12290 H 1196.23 2.53866 3.06263 0
M  V30 12291 H 1192.97 5.49136 3.57952 0
M  V30 12292 H 1192.49 4.01829 4.45302 0
M  V30 12293 H 1194.17 4.60565 4.5441 0
M  V30 12294 N 1194.3 -1.0692 1.15784 0
M  V30 12295 C 1195.58 -1.76367 0.845825 0
M  V30 12296 C 1195.96 -2.00594 -0.657672 0
M  V30 12297 O 1195.31 -1.62794 -1.60345 0
M  V30 12298 C 1195.52 -3.06913 1.66149 0
M  V30 12299 C 1196.87 -3.81181 1.87046 0
M  V30 12300 O 1197.89 -3.16737 1.62961 0
M  V30 12301 O 1196.75 -4.96936 2.27413 0
M  V30 12302 H 1193.84 -0.766095 0.311493 0
M  V30 12303 H 1196.39 -1.13246 1.26386 0
M  V30 12304 H 1195.16 -2.84924 2.68205 0
M  V30 12305 H 1194.79 -3.77767 1.24007 0
M  V30 12306 N 1195.78 -0.955326 -1.25345 0
M  V30 12307 C 1196.75 -0.480564 -2.24105 0
M  V30 12308 C 1197.75 0.416123 -1.55322 0
M  V30 12309 O 1198.94 0.213315 -1.72889 0
M  V30 12310 C 1196.07 0.305589 -3.39528 0
M  V30 12311 H 1197.26 -1.35349 -2.6762 0
M  V30 12312 H 1194.81 -0.738673 -1.37744 0
M  V30 12313 H 1195.55 1.19615 -3.01434 0
M  V30 12314 H 1195.33 -0.337719 -3.90643 0
M  V30 12315 H 1196.82 0.627201 -4.12863 0
M  V30 12316 N 1197.26 1.39987 -0.723979 0
M  V30 12317 C 1198.21 2.32507 -0.0658033 0
M  V30 12318 C 1199.2 1.52484 0.737908 0
M  V30 12319 O 1200.41 1.68225 0.640332 0
M  V30 12320 H 1196.78 0.751996 -0.00247717 0
M  V30 12321 H 1198.76 2.85657 -0.862696 0
M  V30 12322 C 1197.5 3.37509 0.835628 0
M  V30 12323 H 1196.83 3.99157 0.226589 0
M  V30 12324 H 1198.27 4.04722 1.26396 0
M  V30 12325 C 1196.73 2.73665 1.96492 0
M  V30 12326 O 1197.26 2.60649 3.05655 0
M  V30 12327 N 1195.46 2.3192 1.75104 0
M  V30 12328 H 1195.01 2.42707 0.863204 0
M  V30 12329 H 1194.97 1.89542 2.50841 0
M  V30 12330 N 1198.74 0.470782 1.50404 0
M  V30 12331 C 1200.15 0.0155901 1.86693 0
M  V30 12332 C 1200.5 -1.38908 1.38561 0
M  V30 12333 O 1199.63 -2.02971 0.750454 0
M  V30 12334 C 1200.22 0.0215152 3.38793 0
M  V30 12335 C 1198.78 -0.378206 3.74495 0
M  V30 12336 C 1197.93 0.407126 2.74295 0
M  V30 12337 H 1200.88 0.68507 1.43152 0
M  V30 12338 H 1200.9 -0.780717 3.72404 0
M  V30 12339 H 1200.41 1.04397 3.73795 0
M  V30 12340 H 1198.51 -1.40503 3.45094 0
M  V30 12341 H 1198.63 -0.0797643 4.79034 0
M  V30 12342 H 1196.99 -0.139123 2.5432 0
M  V30 12343 H 1197.77 1.42909 3.12141 0
M  V30 12344 N 1200.22 -1.56282 0.203376 0
M  V30 12345 C 1201.17 -2.20822 -0.730784 0
M  V30 12346 C 1202.16 -1.18193 -1.21354 0
M  V30 12347 O 1203.37 -1.36318 -1.17547 0
M  V30 12348 H 1199.74 -0.707792 -0.254036 0
M  V30 12349 H 1201.71 -2.97955 -0.162825 0
M  V30 12350 C 1200.46 -2.88803 -1.93618 0
M  V30 12351 H 1199.78 -3.67521 -1.57379 0
M  V30 12352 H 1201.22 -3.37387 -2.56799 0
M  V30 12353 C 1199.68 -1.90285 -2.78017 0
M  V30 12354 O 1200.21 -1.40833 -3.76203 0
M  V30 12355 N 1198.42 -1.58332 -2.43679 0
M  V30 12356 H 1197.97 -1.9874 -1.63891 0
M  V30 12357 H 1197.92 -0.926722 -3.00432 0
M  V30 12358 N 1201.7 0.070167 -1.57444 0
M  V30 12359 C 1202.66 1.06761 -2.02817 0
M  V30 12360 C 1203.66 1.31498 -0.925462 0
M  V30 12361 O 1204.85 1.27192 -1.19029 0
M  V30 12362 C 1201.98 2.41086 -2.41019 0
M  V30 12363 H 1203.17 0.67651 -2.9217 0
M  V30 12364 H 1200.73 0.315936 -1.53074 0
M  V30 12365 H 1201.46 2.85025 -1.54697 0
M  V30 12366 H 1201.25 2.24472 -3.21488 0
M  V30 12367 H 1202.74 3.12778 -2.76694 0
M  V30 12368 N 1203.17 1.53854 0.341593 0
M  V30 12369 C 1204.1 1.84966 1.42513 0
M  V30 12370 C 1205.08 0.704944 1.54805 0
M  V30 12371 O 1206.27 0.957036 1.68981 0
M  V30 12372 C 1203.4 2.06099 2.79536 0
M  V30 12373 C 1202.35 3.21919 2.82049 0
M  V30 12374 C 1201.68 3.28389 4.21977 0
M  V30 12375 C 1202.98 4.59984 2.4741 0
M  V30 12376 H 1204.67 2.7571 1.16724 0
M  V30 12377 H 1202.22 1.32662 0.560073 0
M  V30 12378 H 1204.17 2.26448 3.55386 0
M  V30 12379 H 1202.9 1.12087 3.06764 0
M  V30 12380 H 1201.56 3.01429 2.08653 0
M  V30 12381 H 1201.2 2.3197 4.46317 0
M  V30 12382 H 1200.9 4.0622 4.24569 0
M  V30 12383 H 1202.43 3.50951 4.99666 0
M  V30 12384 H 1203.84 4.80334 3.12973 0
M  V30 12385 H 1202.24 5.40233 2.61282 0
M  V30 12386 H 1203.31 4.6346 1.42594 0
M  V30 12387 N 1204.65 -0.602709 1.4562 0
M  V30 12388 C 1205.9 -1.36158 1.49891 0
M  V30 12389 C 1206.23 -1.93977 0.142581 0
M  V30 12390 O 1205.48 -1.75822 -0.859374 0
M  V30 12391 C 1205.78 -2.52474 2.52966 0
M  V30 12392 C 1205.45 -2.12772 3.97541 0
M  V30 12393 C 1204.11 -2.01658 4.36907 0
M  V30 12394 C 1206.46 -1.8186 4.88443 0
M  V30 12395 C 1203.79 -1.57862 5.65063 0
M  V30 12396 C 1206.14 -1.39548 6.17016 0
M  V30 12397 C 1204.8 -1.26997 6.55308 0
M  V30 12398 H 1204.07 -0.498236 0.54849 0
M  V30 12399 H 1206.72 -0.680738 1.78992 0
M  V30 12400 H 1205.03 -3.25917 2.17452 0
M  V30 12401 H 1206.72 -3.10701 2.53507 0
M  V30 12402 H 1203.31 -2.22349 3.66413 0
M  V30 12403 H 1207.5 -1.89341 4.58763 0
M  V30 12404 H 1202.75 -1.46771 5.93522 0
M  V30 12405 H 1206.93 -1.14677 6.86893 0
M  V30 12406 H 1204.55 -0.928346 7.5451 0
M  V30 12407 N 1206.13 -1.32992 -0.845635 0
M  V30 12408 C 1207.54 -1.21616 -1.41656 0
M  V30 12409 C 1207.89 0.167687 -1.95482 0
M  V30 12410 O 1207.02 1.06692 -1.8827 0
M  V30 12411 C 1207.61 -2.2018 -2.575 0
M  V30 12412 C 1206.17 -2.12664 -3.10565 0
M  V30 12413 C 1205.32 -2.08042 -1.83341 0
M  V30 12414 H 1208.27 -1.44688 -0.651993 0
M  V30 12415 H 1208.29 -1.80558 -3.34931 0
M  V30 12416 H 1207.8 -3.20888 -2.18294 0
M  V30 12417 H 1205.9 -1.15235 -3.54333 0
M  V30 12418 H 1206.02 -3.02902 -3.71197 0
M  V30 12419 H 1204.38 -1.53416 -2.03312 0
M  V30 12420 H 1205.16 -3.10547 -1.46339 0
M  V30 12421 N 1207.61 1.06304 -1.1635 0
M  V30 12422 C 1209.02 1.60566 -0.952652 0
M  V30 12423 C 1209.37 1.8963 0.503473 0
M  V30 12424 O 1208.49 1.66964 1.37666 0
M  V30 12425 C 1209.09 2.9172 -1.72292 0
M  V30 12426 C 1207.65 3.42684 -1.55707 0
M  V30 12427 C 1206.8 2.16579 -1.73172 0
M  V30 12428 H 1209.75 0.892563 -1.31221 0
M  V30 12429 H 1209.77 3.61126 -1.19868 0
M  V30 12430 H 1209.28 2.70535 -2.78267 0
M  V30 12431 H 1207.38 3.68929 -0.521726 0
M  V30 12432 H 1207.49 4.18018 -2.34088 0
M  V30 12433 H 1205.86 2.26795 -1.15914 0
M  V30 12434 H 1206.64 1.97877 -2.80535 0
M  V30 12435 N 1209.09 0.96196 1.24836 0
M  V30 12436 C 1210.33 0.621634 1.93038 0
M  V30 12437 C 1210.66 -0.840257 1.75081 0
M  V30 12438 O 1209.94 -1.60381 1.10038 0
M  V30 12439 C 1210.22 0.990107 3.46221 0
M  V30 12440 C 1210.08 2.50827 3.73371 0
M  V30 12441 C 1211.39 0.520478 4.37011 0
M  V30 12442 H 1208.51 0.227312 0.701069 0
M  V30 12443 H 1211.16 1.19993 1.47315 0
M  V30 12444 H 1209.31 0.498008 3.85295 0
M  V30 12445 H 1210.98 3.07469 3.4389 0
M  V30 12446 H 1209.22 2.94277 3.18722 0
M  V30 12447 H 1209.89 2.71659 4.80526 0
M  V30 12448 H 1212.37 0.942703 4.05281 0
M  V30 12449 H 1211.24 0.806918 5.42937 0
M  V30 12450 H 1211.5 -0.579507 4.38285 0
M  V30 12451 N 1210.56 -1.39601 0.731392 0
M  V30 12452 C 1211.47 -2.34425 0.090527 0
M  V30 12453 C 1212.49 -1.58131 -0.725992 0
M  V30 12454 O 1213.67 -1.90441 -0.655294 0
M  V30 12455 C 1210.73 -3.37138 -0.808624 0
M  V30 12456 C 1209.79 -4.29295 0.0197365 0
M  V30 12457 C 1209.02 -5.27102 -0.836593 0
M  V30 12458 O 1209.25 -5.31302 -2.07543 0
M  V30 12459 O 1208.18 -6.01307 -0.267172 0
M  V30 12460 H 1212.01 -2.9088 0.873084 0
M  V30 12461 H 1209.59 -1.41066 0.492024 0
M  V30 12462 H 1211.47 -4.00087 -1.32319 0
M  V30 12463 H 1210.15 -2.83074 -1.57006 0
M  V30 12464 H 1209.06 -3.69581 0.579744 0
M  V30 12465 H 1210.39 -4.86555 0.743308 0
M  V30 12466 N 1212.04 -0.478751 -1.50152 0
M  V30 12467 C 1213.29 0.073585 -2.02366 0
M  V30 12468 C 1213.62 1.3903 -1.36018 0
M  V30 12469 O 1212.87 1.89787 -0.477435 0
M  V30 12470 C 1213.17 0.297535 -3.56159 0
M  V30 12471 C 1212.84 -0.938419 -4.41027 0
M  V30 12472 C 1211.5 -1.27727 -4.63939 0
M  V30 12473 C 1213.85 -1.76098 -4.9055 0
M  V30 12474 C 1211.18 -2.4386 -5.33619 0
M  V30 12475 C 1213.53 -2.91366 -5.61506 0
M  V30 12476 C 1212.2 -3.25657 -5.8267 0
M  V30 12477 H 1211.47 0.0269267 -0.740511 0
M  V30 12478 H 1214.11 -0.63439 -1.80687 0
M  V30 12479 H 1212.42 1.08783 -3.76395 0
M  V30 12480 H 1214.11 0.73899 -3.94132 0
M  V30 12481 H 1210.7 -0.664441 -4.23418 0
M  V30 12482 H 1214.89 -1.51237 -4.72696 0
M  V30 12483 H 1210.14 -2.70692 -5.48211 0
M  V30 12484 H 1214.32 -3.55445 -5.98859 0
M  V30 12485 H 1211.95 -4.15751 -6.36439 0
M  V30 12486 N 1213.52 1.56172 -0.211661 0
M  V30 12487 C 1214.93 1.84307 0.297982 0
M  V30 12488 C 1215.28 1.1328 1.60194 0
M  V30 12489 O 1214.41 0.399137 2.12687 0
M  V30 12490 C 1215 3.34348 0.547428 0
M  V30 12491 C 1213.56 3.62835 1.0014 0
M  V30 12492 C 1212.71 2.77237 0.0590326 0
M  V30 12493 H 1215.66 1.5262 -0.435083 0
M  V30 12494 H 1215.68 3.54018 1.39469 0
M  V30 12495 H 1215.19 3.86015 -0.401778 0
M  V30 12496 H 1213.29 3.16616 1.96431 0
M  V30 12497 H 1213.41 4.70899 0.882653 0
M  V30 12498 H 1211.77 2.48377 0.564005 0
M  V30 12499 H 1212.55 3.31699 -0.884913 0
M  V30 12500 N 1215 -0.0618163 1.57479 0
M  V30 12501 C 1215.96 -1.05684 2.0338 0
M  V30 12502 C 1216.96 -1.31006 0.932423 0
M  V30 12503 O 1218.15 -1.26559 1.19702 0
M  V30 12504 C 1215.28 -2.39805 2.42294 0
M  V30 12505 H 1216.48 -0.661006 2.92525 0
M  V30 12506 H 1214.03 -0.307814 1.53239 0
M  V30 12507 H 1214.76 -2.84201 1.56207 0
M  V30 12508 H 1214.55 -2.22764 3.22674 0
M  V30 12509 H 1216.04 -3.11307 2.78349 0
M  V30 12510 N 1216.48 -1.54033 -0.333429 0
M  V30 12511 C 1217.89 -1.63107 -0.908455 0
M  V30 12512 C 1218.24 -0.518823 -1.89216 0
M  V30 12513 O 1217.36 0.34985 -2.13553 0
M  V30 12514 C 1217.96 -2.95657 -1.65447 0
M  V30 12515 C 1216.52 -3.0696 -2.17836 0
M  V30 12516 C 1215.66 -2.58617 -1.00063 0
M  V30 12517 H 1218.62 -1.58309 -0.11128 0
M  V30 12518 H 1218.64 -2.85263 -2.51804 0
M  V30 12519 H 1218.15 -3.76588 -0.938263 0
M  V30 12520 H 1216.25 -2.30683 -2.92602 0
M  V30 12521 H 1216.36 -4.12599 -2.43513 0
M  V30 12522 H 1214.73 -2.1427 -1.37697 0
M  V30 12523 H 1215.51 -3.41996 -0.298901 0
M  V30 12524 N 1217.95 0.594978 -1.45938 0
M  V30 12525 C 1219.37 0.917069 -1.30622 0
M  V30 12526 C 1219.57 1.99702 -0.268554 0
M  V30 12527 O 1218.63 2.50293 0.333146 0
M  V30 12528 C 1219.94 1.34604 -2.68891 0
M  V30 12529 C 1221.49 1.45957 -2.76886 0
M  V30 12530 C 1221.96 1.92225 -4.15708 0
M  V30 12531 N 1223.45 1.99439 -4.18065 0
M  V30 12532 C 1224.19 2.36488 -5.22361 0
M  V30 12533 N 1223.68 2.72416 -6.36994 0
M  V30 12534 N 1225.48 2.36936 -5.09723 0
M  V30 12535 H 1217.63 -0.118625 -2.12068 0
M  V30 12536 H 1219.89 0.00959453 -0.947951 0
M  V30 12537 H 1219.6 0.626605 -3.46073 0
M  V30 12538 H 1219.47 2.31006 -2.98188 0
M  V30 12539 H 1221.86 2.16989 -1.99999 0
M  V30 12540 H 1221.94 0.47838 -2.51287 0
M  V30 12541 H 1221.58 1.21775 -4.93085 0
M  V30 12542 H 1221.51 2.9128 -4.38707 0
M  V30 12543 H 1224 1.74212 -3.35349 0
M  V30 12544 H 1224.32 2.99604 -7.1236 0
M  V30 12545 H 1222.66 2.70083 -6.40375 0
M  V30 12546 H 1225.85 2.08282 -4.19209 0
M  V30 12547 H 1226.03 2.65483 -5.9112 0
M  V30 12548 N 1219.43 1.33438 0.838571 0
M  V30 12549 C 1220.68 1.24665 1.59069 0
M  V30 12550 C 1221 -0.187433 1.94097 0
M  V30 12551 O 1220.27 -1.11625 1.60987 0
M  V30 12552 H 1218.85 0.45843 0.589789 0
M  V30 12553 H 1221.51 1.67161 1.00216 0
M  V30 12554 H 1220.61 1.84057 2.52051 0
M  V30 12555 N 1220.91 -1.05686 1.16912 0
M  V30 12556 C 1222.14 -1.82282 0.978811 0
M  V30 12557 C 1222.55 -1.8278 -0.472972 0
M  V30 12558 O 1221.91 -1.25143 -1.32836 0
M  V30 12559 C 1221.96 -3.28623 1.50629 0
M  V30 12560 O 1221.68 -3.28269 2.90122 0
M  V30 12561 C 1223.18 -4.21927 1.35987 0
M  V30 12562 H 1220.4 -0.574558 0.346588 0
M  V30 12563 H 1222.95 -1.33301 1.55084 0
M  V30 12564 H 1221.1 -3.74893 0.976404 0
M  V30 12565 H 1221.52 -4.19824 3.14401 0
M  V30 12566 H 1222.99 -5.2261 1.77716 0
M  V30 12567 H 1223.47 -4.38131 0.30626 0
M  V30 12568 H 1224.07 -3.81508 1.87968 0
M  V30 12569 N 1222.39 -0.968567 -1.24324 0
M  V30 12570 C 1223.8 -0.66964 -1.74278 0
M  V30 12571 C 1224.15 0.81461 -1.7849 0
M  V30 12572 O 1223.28 1.63736 -1.4149 0
M  V30 12573 C 1223.87 -1.20885 -3.165 0
M  V30 12574 C 1222.43 -0.959808 -3.63957 0
M  V30 12575 C 1221.58 -1.34365 -2.42573 0
M  V30 12576 H 1224.53 -1.14379 -1.10015 0
M  V30 12577 H 1224.55 -0.57555 -3.76122 0
M  V30 12578 H 1224.06 -2.28912 -3.13402 0
M  V30 12579 H 1222.16 0.104894 -3.72452 0
M  V30 12580 H 1222.27 -1.60606 -4.51378 0
M  V30 12581 H 1220.64 -0.762039 -2.43033 0
M  V30 12582 H 1221.42 -2.43343 -2.42155 0
M  V30 12583 N 1223.87 1.39211 -0.738786 0
M  V30 12584 C 1224.8 2.33209 -0.11647 0
M  V30 12585 C 1225.78 1.54108 0.720056 0
M  V30 12586 O 1226.96 1.82486 0.664264 0
M  V30 12587 C 1224.09 3.38226 0.78872 0
M  V30 12588 C 1223.05 4.27963 0.0560636 0
M  V30 12589 C 1222.37 5.2371 1.07852 0
M  V30 12590 C 1223.67 5.10508 -1.1036 0
M  V30 12591 H 1225.37 2.85501 -0.901649 0
M  V30 12592 H 1222.91 1.37272 -0.435032 0
M  V30 12593 H 1224.87 4.02938 1.23364 0
M  V30 12594 H 1223.59 2.84382 1.60606 0
M  V30 12595 H 1222.25 3.64735 -0.369274 0
M  V30 12596 H 1221.9 4.66161 1.88953 0
M  V30 12597 H 1221.6 5.846 0.593048 0
M  V30 12598 H 1223.12 5.91299 1.52307 0
M  V30 12599 H 1224.53 5.68544 -0.736943 0
M  V30 12600 H 1222.93 5.80558 -1.51895 0
M  V30 12601 H 1224 4.45117 -1.92352 0
M  V30 12602 N 1225.34 0.486708 1.49896 0
M  V30 12603 C 1226.59 -0.0646197 2.01596 0
M  V30 12604 C 1226.91 -1.39363 1.37249 0
M  V30 12605 O 1228.11 -2.03082 1.80194 0
M  V30 12606 C 1226.57 -0.16565 3.59519 0
M  V30 12607 C 1226.18 1.15586 4.32832 0
M  V30 12608 C 1227.92 -0.668103 4.1921 0
M  V30 12609 C 1225.83 1.01778 5.82576 0
M  V30 12610 H 1224.76 -0.0279241 0.753483 0
M  V30 12611 H 1227.41 0.623969 1.72566 0
M  V30 12612 H 1225.79 -0.918372 3.85204 0
M  V30 12613 H 1226.96 1.92076 4.1886 0
M  V30 12614 H 1225.28 1.59064 3.84822 0
M  V30 12615 H 1227.88 -0.788698 5.28851 0
M  V30 12616 H 1228.22 -1.66339 3.81624 0
M  V30 12617 H 1228.75 0.0276746 3.9779 0
M  V30 12618 H 1225.49 1.9869 6.24662 0
M  V30 12619 H 1225.01 0.293527 5.99081 0
M  V30 12620 H 1226.69 0.690693 6.43303 0
M  V30 12621 N 1226.82 -1.56058 0.219941 0
M  V30 12622 C 1228.05 -2.031 -0.42014 0
M  V30 12623 C 1228.47 -1.09875 -1.52673 0
M  V30 12624 O 1227.83 -0.0866458 -1.81093 0
M  V30 12625 C 1227.88 -3.48389 -0.93047 0
M  V30 12626 O 1226.98 -3.583 -2.04192 0
M  V30 12627 H 1226.32 -0.657129 -0.0952772 0
M  V30 12628 H 1228.85 -2.01787 0.338105 0
M  V30 12629 H 1228.86 -3.88678 -1.2407 0
M  V30 12630 H 1227.54 -4.15725 -0.120539 0
M  V30 12631 H 1226.12 -3.29898 -1.73845 0
M  V30 12632 N 1228.3 0.053464 -1.57509 0
M  V30 12633 C 1229.71 0.603099 -1.76691 0
M  V30 12634 C 1230.06 1.76934 -0.847861 0
M  V30 12635 O 1229.19 2.16369 -0.0364962 0
M  V30 12636 C 1229.78 1.10084 -3.20417 0
M  V30 12637 C 1228.34 1.59618 -3.4088 0
M  V30 12638 C 1227.49 0.523516 -2.72313 0
M  V30 12639 H 1230.44 -0.172751 -1.57757 0
M  V30 12640 H 1230.46 1.9691 -3.25587 0
M  V30 12641 H 1229.97 0.251818 -3.87282 0
M  V30 12642 H 1228.07 2.46786 -2.79155 0
M  V30 12643 H 1228.19 1.6605 -4.49404 0
M  V30 12644 H 1226.55 0.972886 -2.35387 0
M  V30 12645 H 1227.33 -0.315629 -3.41846 0
M  V30 12646 N 1229.78 1.54207 0.325255 0
M  V30 12647 C 1230.71 1.86467 1.40543 0
M  V30 12648 C 1231.69 0.721324 1.54048 0
M  V30 12649 O 1232.88 0.974905 1.67956 0
M  V30 12650 C 1230.01 2.09052 2.77335 0
M  V30 12651 C 1228.96 3.24893 2.78619 0
M  V30 12652 C 1228.29 3.32846 4.1847 0
M  V30 12653 C 1229.59 4.62582 2.42518 0
M  V30 12654 H 1231.28 2.76932 1.13794 0
M  V30 12655 H 1228.83 1.33248 0.545971 0
M  V30 12656 H 1230.78 2.30204 3.52964 0
M  V30 12657 H 1229.5 1.15335 3.05558 0
M  V30 12658 H 1228.16 3.03625 2.05444 0
M  V30 12659 H 1227.81 2.3669 4.43832 0
M  V30 12660 H 1227.51 4.10701 4.20237 0
M  V30 12661 H 1229.03 3.56231 4.95915 0
M  V30 12662 H 1230.45 4.83627 3.07861 0
M  V30 12663 H 1228.84 5.42974 2.55538 0
M  V30 12664 H 1229.91 4.64946 1.3767 0
M  V30 12665 N 1231.26 -0.58723 1.46251 0
M  V30 12666 C 1232.51 -1.34179 1.50595 0
M  V30 12667 C 1232.82 -1.94943 0.160171 0
M  V30 12668 O 1234.03 -2.71378 0.0813797 0
M  V30 12669 C 1232.48 -2.43159 2.65333 0
M  V30 12670 C 1232.09 -1.88718 4.06312 0
M  V30 12671 C 1233.83 -3.19986 2.78943 0
M  V30 12672 C 1231.74 -2.953 5.12398 0
M  V30 12673 H 1230.67 -0.504401 0.560442 0
M  V30 12674 H 1233.32 -0.627179 1.72449 0
M  V30 12675 H 1231.7 -3.17398 2.368 0
M  V30 12676 H 1232.88 -1.21051 4.44616 0
M  V30 12677 H 1231.19 -1.24572 3.97329 0
M  V30 12678 H 1233.79 -3.9952 3.5537 0
M  V30 12679 H 1234.13 -3.72288 1.86298 0
M  V30 12680 H 1234.67 -2.52852 3.07101 0
M  V30 12681 H 1231.4 -2.4789 6.0682 0
M  V30 12682 H 1230.92 -3.61469 4.78644 0
M  V30 12683 H 1232.6 -3.5933 5.38044 0
M  V30 12684 N 1232.74 -1.33881 -0.831482 0
M  V30 12685 C 1233.68 -1.24748 -1.94182 0
M  V30 12686 C 1234.65 -0.124516 -1.65633 0
M  V30 12687 O 1235.84 -0.304045 -1.88362 0
M  V30 12688 C 1232.98 -1.00016 -3.30289 0
M  V30 12689 C 1232.09 -2.21007 -3.71187 0
M  V30 12690 C 1231.23 -1.89629 -4.962 0
M  V30 12691 C 1230.26 -3.06811 -5.29654 0
M  V30 12692 N 1229.4 -2.75372 -6.45844 0
M  V30 12693 H 1234.24 -2.19709 -2.01325 0
M  V30 12694 H 1231.78 -1.09245 -0.985081 0
M  V30 12695 H 1233.74 -0.837167 -4.08714 0
M  V30 12696 H 1232.37 -0.0872582 -3.22682 0
M  V30 12697 H 1231.42 -2.48256 -2.88224 0
M  V30 12698 H 1232.73 -3.08587 -3.91887 0
M  V30 12699 H 1231.88 -1.70016 -5.82391 0
M  V30 12700 H 1230.62 -0.992964 -4.77485 0
M  V30 12701 H 1229.63 -3.27029 -4.41964 0
M  V30 12702 H 1230.85 -3.97909 -5.50314 0
M  V30 12703 H 1228.8 -1.87607 -6.28601 0
M  V30 12704 H 1228.72 -3.56483 -6.66675 0
M  V30 12705 H 1229.98 -2.59244 -7.35128 0
M  V30 12706 N 1234.21 1.05064 -1.1747 0
M  V30 12707 C 1235.46 1.78491 -0.975314 0
M  V30 12708 C 1235.81 1.86036 0.490734 0
M  V30 12709 O 1235.11 1.35005 1.35956 0
M  V30 12710 C 1235.3 3.21961 -1.55164 0
M  V30 12711 C 1235.13 3.28399 -3.0722 0
M  V30 12712 C 1233.9 3.37611 -3.75962 0
M  V30 12713 C 1236.1 3.17234 -4.04805 0
M  V30 12714 N 1234.08 3.33193 -5.15612 0
M  V30 12715 C 1235.45 3.20202 -5.30915 0
M  V30 12716 C 1237.51 3.01205 -3.96459 0
M  V30 12717 C 1236.21 3.08787 -6.49648 0
M  V30 12718 C 1238.24 2.91133 -5.14777 0
M  V30 12719 C 1237.6 2.94735 -6.39774 0
M  V30 12720 H 1233.7 0.665407 -0.4108 0
M  V30 12721 H 1236.28 1.25236 -1.49077 0
M  V30 12722 H 1234.45 3.73585 -1.0625 0
M  V30 12723 H 1236.18 3.83632 -1.28876 0
M  V30 12724 H 1232.94 3.42926 -3.26648 0
M  V30 12725 H 1233.36 3.3445 -5.88619 0
M  V30 12726 H 1238 2.97258 -3.00662 0
M  V30 12727 H 1235.72 3.11489 -7.45654 0
M  V30 12728 H 1239.31 2.798 -5.10101 0
M  V30 12729 H 1238.19 2.87016 -7.29789 0
M  V30 12730 N 1235.69 0.975146 1.23809 0
M  V30 12731 C 1236.97 0.557725 1.8748 0
M  V30 12732 C 1237.35 -0.965164 1.87744 0
M  V30 12733 O 1236.7 -1.83966 1.35531 0
M  V30 12734 C 1236.91 1.15777 3.29236 0
M  V30 12735 C 1238.25 1.24726 4.05868 0
M  V30 12736 O 1239.28 1.11084 3.38436 0
M  V30 12737 O 1238.14 1.46373 5.26533 0
M  V30 12738 H 1235.23 0.187045 0.80557 0
M  V30 12739 H 1237.78 1.06989 1.31725 0
M  V30 12740 H 1236.55 2.20023 3.23583 0
M  V30 12741 H 1236.17 0.630103 3.92575 0
M  V30 12742 N 1237.17 -1.38817 0.746158 0
M  V30 12743 C 1238.12 -2.27825 0.089362 0
M  V30 12744 C 1239.1 -1.44826 -0.701013 0
M  V30 12745 O 1240.3 -1.67632 -0.568188 0
M  V30 12746 C 1237.42 -3.33639 -0.808682 0
M  V30 12747 C 1236.51 -4.24098 -0.0118582 0
M  V30 12748 N 1236.9 -4.95393 1.02075 0
M  V30 12749 C 1235.2 -4.45355 -0.239815 0
M  V30 12750 C 1235.9 -5.61969 1.5022 0
M  V30 12751 N 1234.88 -5.37398 0.818816 0
M  V30 12752 H 1238.68 -2.80406 0.88033 0
M  V30 12753 H 1236.19 -1.51632 0.581512 0
M  V30 12754 H 1238.19 -3.96284 -1.29478 0
M  V30 12755 H 1236.85 -2.82617 -1.59868 0
M  V30 12756 H 1237.86 -4.98552 1.40237 0
M  V30 12757 H 1234.54 -4.05255 -1.00374 0
M  V30 12758 H 1235.93 -6.29017 2.36192 0
M  V30 12759 N 1238.65 -0.49465 -1.49636 0
M  V30 12760 C 1239.87 0.051305 -2.07337 0
M  V30 12761 C 1240.3 1.30637 -1.35335 0
M  V30 12762 O 1239.66 1.76647 -0.408126 0
M  V30 12763 C 1239.7 0.294425 -3.59396 0
M  V30 12764 O 1238.81 1.3704 -3.88965 0
M  V30 12765 H 1238.15 -0.023408 -0.663587 0
M  V30 12766 H 1240.68 -0.692451 -1.92526 0
M  V30 12767 H 1240.69 0.527854 -4.04571 0
M  V30 12768 H 1239.36 -0.622583 -4.11214 0
M  V30 12769 H 1237.94 1.12242 -3.55607 0
M  V30 12770 N 1240.13 1.55939 -0.228214 0
M  V30 12771 C 1241.06 2.2357 0.6737 0
M  V30 12772 C 1242.04 1.20964 1.1959 0
M  V30 12773 O 1243.22 1.49568 1.23867 0
M  V30 12774 C 1240.35 2.92076 1.87906 0
M  V30 12775 C 1239.31 4.01211 1.49043 0
M  V30 12776 C 1238.63 4.57047 2.77511 0
M  V30 12777 C 1239.93 5.17914 0.67544 0
M  V30 12778 H 1241.63 2.99199 0.109806 0
M  V30 12779 H 1239.17 1.43908 0.0513732 0
M  V30 12780 H 1241.12 3.38083 2.51551 0
M  V30 12781 H 1239.85 2.13906 2.46803 0
M  V30 12782 H 1238.51 3.55945 0.877411 0
M  V30 12783 H 1238.16 3.75599 3.34566 0
M  V30 12784 H 1237.86 5.30707 2.52239 0
M  V30 12785 H 1239.38 5.05776 3.42087 0
M  V30 12786 H 1240.79 5.60261 1.21575 0
M  V30 12787 H 1239.19 5.97847 0.519536 0
M  V30 12788 H 1240.26 4.83866 -0.316495 0
M  V30 12789 N 1241.6 -0.0451101 1.57535 0
M  V30 12790 C 1242.57 -1.03521 2.0449 0
M  V30 12791 C 1243.57 -1.30009 0.946265 0
M  V30 12792 O 1244.76 -1.25282 1.21038 0
M  V30 12793 C 1241.89 -2.37221 2.44824 0
M  V30 12794 H 1243.08 -0.629943 2.93209 0
M  V30 12795 H 1240.64 -0.291544 1.53557 0
M  V30 12796 H 1241.37 -2.82528 1.59212 0
M  V30 12797 H 1241.16 -2.19329 3.25018 0
M  V30 12798 H 1242.65 -3.08337 2.81635 0
M  V30 12799 N 1243.08 -1.54377 -0.317073 0
M  V30 12800 C 1244.33 -1.74083 -1.05198 0
M  V30 12801 C 1244.68 -0.511755 -1.85469 0
M  V30 12802 O 1243.98 0.495851 -1.85073 0
M  V30 12803 C 1244.17 -2.96066 -2.00199 0
M  V30 12804 C 1244 -4.3072 -1.29269 0
M  V30 12805 C 1242.77 -4.94764 -1.0265 0
M  V30 12806 C 1244.97 -5.09441 -0.705297 0
M  V30 12807 N 1242.95 -6.13234 -0.285795 0
M  V30 12808 C 1244.32 -6.19925 -0.0965349 0
M  V30 12809 C 1246.38 -4.94165 -0.608753 0
M  V30 12810 C 1245.08 -7.16798 0.599411 0
M  V30 12811 C 1247.1 -5.91354 0.0735046 0
M  V30 12812 C 1246.47 -7.01195 0.671184 0
M  V30 12813 H 1242.57 -0.689774 -0.368423 0
M  V30 12814 H 1245.15 -1.91841 -0.332412 0
M  V30 12815 H 1243.32 -2.79762 -2.69421 0
M  V30 12816 H 1245.05 -3.0437 -2.66722 0
M  V30 12817 H 1241.81 -4.54818 -1.32052 0
M  V30 12818 H 1242.23 -6.76963 0.0706046 0
M  V30 12819 H 1246.87 -4.09386 -1.05655 0
M  V30 12820 H 1244.59 -8.01131 1.05902 0
M  V30 12821 H 1248.18 -5.81612 0.147931 0
M  V30 12822 H 1247.06 -7.75107 1.19073 0
M  V30 12823 N 1244.56 0.579466 -1.4656 0
M  V30 12824 C 1245.84 1.33973 -1.42515 0
M  V30 12825 C 1246.22 2.10812 -0.110317 0
M  V30 12826 O 1245.57 2.09679 0.908135 0
M  V30 12827 C 1245.78 2.26301 -2.65686 0
M  V30 12828 C 1247.12 2.88027 -3.1197 0
M  V30 12829 O 1248.15 2.36612 -2.66257 0
M  V30 12830 O 1247.01 3.81423 -3.9138 0
M  V30 12831 H 1244.1 0.602121 -0.566903 0
M  V30 12832 H 1246.65 0.600214 -1.58731 0
M  V30 12833 H 1245.42 1.68973 -3.52936 0
M  V30 12834 H 1245.04 3.07586 -2.51945 0
M  V30 12835 N 1246.04 1.3432 0.824371 0
M  V30 12836 C 1247.28 1.26783 1.58284 0
M  V30 12837 C 1247.62 -0.162282 1.93521 0
M  V30 12838 O 1246.89 -1.1073 1.59903 0
M  V30 12839 C 1247.18 2.15725 2.88331 0
M  V30 12840 C 1247.03 3.67266 2.59684 0
M  V30 12841 C 1248.35 2.04141 3.8989 0
M  V30 12842 H 1245.47 0.461893 0.574303 0
M  V30 12843 H 1248.11 1.64558 0.949769 0
M  V30 12844 H 1246.26 1.83639 3.42358 0
M  V30 12845 H 1247.93 4.09711 2.11978 0
M  V30 12846 H 1246.17 3.88426 1.93151 0
M  V30 12847 H 1246.84 4.24863 3.52414 0
M  V30 12848 H 1249.32 2.3231 3.45212 0
M  V30 12849 H 1248.2 2.68601 4.7869 0
M  V30 12850 H 1248.46 1.01795 4.30221 0
M  V30 12851 N 1247.52 -1.0444 1.18026 0
M  V30 12852 C 1248.93 -1.5903 0.978076 0
M  V30 12853 C 1249.28 -1.90407 -0.473241 0
M  V30 12854 O 1248.4 -1.69133 -1.34992 0
M  V30 12855 C 1249 -2.88942 1.76912 0
M  V30 12856 C 1247.56 -3.40164 1.61139 0
M  V30 12857 C 1246.7 -2.13797 1.76596 0
M  V30 12858 H 1249.66 -0.871574 1.32625 0
M  V30 12859 H 1249.68 -3.59173 1.25598 0
M  V30 12860 H 1249.19 -2.66074 2.82535 0
M  V30 12861 H 1247.29 -3.68053 0.580353 0
M  V30 12862 H 1247.4 -4.14241 2.40709 0
M  V30 12863 H 1245.77 -2.24922 1.19507 0
M  V30 12864 H 1246.55 -1.93389 2.83647 0
M  V30 12865 N 1248.99 -0.981699 -1.2329 0
M  V30 12866 C 1249.96 -0.527992 -2.23036 0
M  V30 12867 C 1250.96 0.383083 -1.5617 0
M  V30 12868 O 1252.15 0.176595 -1.73303 0
M  V30 12869 C 1249.28 0.233501 -3.40099 0
M  V30 12870 H 1250.47 -1.40995 -2.64689 0
M  V30 12871 H 1248.03 -0.767724 -1.36146 0
M  V30 12872 H 1248.76 1.13194 -3.03904 0
M  V30 12873 H 1248.55 -0.420505 -3.89839 0
M  V30 12874 H 1250.04 0.539485 -4.14101 0
M  V30 12875 N 1250.47 1.3842 -0.753509 0
M  V30 12876 C 1251.44 2.28808 -0.134022 0
M  V30 12877 C 1252.44 1.47184 0.647583 0
M  V30 12878 O 1253.63 1.67631 0.473861 0
M  V30 12879 C 1250.76 3.30926 0.81858 0
M  V30 12880 H 1251.95 2.85097 -0.930586 0
M  V30 12881 H 1249.5 1.47378 -0.520514 0
M  V30 12882 H 1250.24 2.79728 1.64082 0
M  V30 12883 H 1250.02 3.91234 0.260526 0
M  V30 12884 H 1251.51 3.98515 1.24802 0
M  V30 12885 N 1251.95 0.502579 1.49372 0
M  V30 12886 C 1252.86 -0.279532 2.32929 0
M  V30 12887 C 1253.88 -0.965806 1.44735 0
M  V30 12888 O 1255.05 -0.946839 1.77755 0
M  V30 12889 C 1252.12 -1.32913 3.20211 0
M  V30 12890 C 1251.18 -0.656121 4.24256 0
M  V30 12891 C 1250.41 -1.65571 5.07368 0
M  V30 12892 O 1250.63 -2.88571 4.92019 0
M  V30 12893 O 1249.57 -1.21016 5.89609 0
M  V30 12894 H 1253.39 0.404427 3.00995 0
M  V30 12895 H 1250.98 0.263888 1.47051 0
M  V30 12896 H 1252.86 -1.93635 3.74277 0
M  V30 12897 H 1251.54 -1.99598 2.54837 0
M  V30 12898 H 1250.44 -0.00911489 3.74099 0
M  V30 12899 H 1251.78 -0.0316802 4.9219 0
M  V30 12900 N 1253.43 -1.55816 0.23648 0
M  V30 12901 C 1254.71 -1.90565 -0.440933 0
M  V30 12902 C 1255.09 -1.15585 -1.76645 0
M  V30 12903 O 1254.43 -0.269949 -2.269 0
M  V30 12904 C 1254.64 -3.43462 -0.61925 0
M  V30 12905 C 1255.99 -4.14516 -0.91989 0
M  V30 12906 O 1257.02 -3.49144 -0.705496 0
M  V30 12907 O 1255.87 -5.3013 -1.32759 0
M  V30 12908 H 1252.97 -0.79285 -0.235199 0
M  V30 12909 H 1255.51 -1.67378 0.279774 0
M  V30 12910 H 1254.29 -3.90029 0.315124 0
M  V30 12911 H 1253.91 -3.72478 -1.39089 0
M  V30 12912 N 1254.91 0.036755 -1.57557 0
M  V30 12913 C 1256.15 0.729106 -1.88919 0
M  V30 12914 C 1256.48 1.75769 -0.832801 0
M  V30 12915 O 1255.74 1.94985 0.167173 0
M  V30 12916 C 1256.04 1.44206 -3.27016 0
M  V30 12917 C 1255.7 0.550184 -4.47531 0
M  V30 12918 C 1254.36 0.304511 -4.80236 0
M  V30 12919 C 1256.72 -0.0660664 -5.21158 0
M  V30 12920 C 1254.04 -0.566316 -5.8396 0
M  V30 12921 C 1256.4 -0.92455 -6.25807 0
M  V30 12922 C 1255.06 -1.17976 -6.56992 0
M  V30 12923 H 1254.33 0.266799 -0.691303 0
M  V30 12924 H 1256.98 -0.0108698 -1.91497 0
M  V30 12925 H 1255.28 2.25516 -3.2039 0
M  V30 12926 H 1256.98 1.98317 -3.48527 0
M  V30 12927 H 1253.57 0.751814 -4.21955 0
M  V30 12928 H 1257.75 0.110784 -4.96176 0
M  V30 12929 H 1253.01 -0.772428 -6.06501 0
M  V30 12930 H 1257.18 -1.40861 -6.82005 0
M  V30 12931 H 1254.81 -1.85627 -7.37188 0
M  V30 12932 N 1256.39 1.54543 0.308881 0
M  V30 12933 C 1257.8 1.64532 0.882392 0
M  V30 12934 C 1258.15 0.54886 1.88367 0
M  V30 12935 O 1257.27 -0.315832 2.14083 0
M  V30 12936 C 1257.87 2.98251 1.60722 0
M  V30 12937 C 1256.43 3.10387 2.12925 0
M  V30 12938 C 1255.57 2.60176 0.959362 0
M  V30 12939 H 1258.52 1.58466 0.0860803 0
M  V30 12940 H 1258.55 2.89233 2.47233 0
M  V30 12941 H 1258.06 3.78033 0.878233 0
M  V30 12942 H 1256.16 2.35309 2.88895 0
M  V30 12943 H 1256.27 4.16421 2.36918 0
M  V30 12944 H 1254.64 2.16434 1.3427 0
M  V30 12945 H 1255.42 3.42429 0.244454 0
M  V30 12946 N 1257.86 -0.571685 1.46866 0
M  V30 12947 C 1258.81 -1.70098 1.58649 0
M  V30 12948 C 1259.81 -1.63191 0.45443 0
M  V30 12949 O 1261.01 -1.68551 0.63171 0
M  V30 12950 H 1257.39 -0.56258 0.499007 0
M  V30 12951 H 1259.36 -1.57293 2.53577 0
M  V30 12952 C 1258.11 -3.08475 1.60433 0
M  V30 12953 H 1257.43 -3.14465 2.46884 0
M  V30 12954 H 1258.87 -3.87221 1.7273 0
M  V30 12955 C 1257.33 -3.35231 0.334948 0
M  V30 12956 O 1257.86 -3.97633 -0.570149 0
M  V30 12957 N 1256.06 -2.8977 0.219441 0
M  V30 12958 H 1255.61 -2.39168 0.956891 0
M  V30 12959 H 1255.57 -3.08044 -0.628975 0
M  V30 12960 N 1259.34 -1.34755 -0.817236 0
M  V30 12961 C 1260.59 -1.2718 -1.57066 0
M  V30 12962 C 1260.91 0.156531 -1.94371 0
M  V30 12963 O 1260.18 1.09049 -1.62742 0
M  V30 12964 H 1258.76 -0.467755 -0.582421 0
M  V30 12965 H 1261.42 -1.68734 -0.975438 0
M  V30 12966 H 1260.52 -1.88043 -2.49091 0
M  V30 12967 N 1260.82 1.03812 -1.18578 0
M  V30 12968 C 1262.04 1.8124 -1.00831 0
M  V30 12969 C 1262.47 1.82917 0.43853 0
M  V30 12970 O 1261.83 1.24835 1.31476 0
M  V30 12971 C 1261.88 3.24592 -1.57075 0
M  V30 12972 O 1260.98 4.04688 -0.793824 0
M  V30 12973 H 1260.32 0.559846 -0.357028 0
M  V30 12974 H 1262.85 1.30724 -1.57393 0
M  V30 12975 H 1262.86 3.75363 -1.59896 0
M  V30 12976 H 1261.54 3.22686 -2.62387 0
M  V30 12977 H 1260.11 3.63359 -0.838134 0
M  V30 12978 N 1262.3 0.988223 1.22768 0
M  V30 12979 C 1263.55 0.660154 1.91014 0
M  V30 12980 C 1263.87 -0.809788 1.77391 0
M  V30 12981 O 1263.14 -1.57998 1.15817 0
M  V30 12982 H 1261.72 0.24118 0.706995 0
M  V30 12983 H 1264.38 1.25372 1.49224 0
M  V30 12984 H 1263.47 0.918603 2.98275 0
M  V30 12985 N 1263.78 -1.38018 0.760839 0
M  V30 12986 C 1265 -2.04757 0.330038 0
M  V30 12987 C 1265.43 -1.57009 -1.03585 0
M  V30 12988 O 1264.78 -0.725349 -1.66158 0
M  V30 12989 C 1264.83 -3.58696 0.370082 0
M  V30 12990 O 1263.94 -4.07507 -0.633361 0
M  V30 12991 H 1263.28 -0.648023 0.144782 0
M  V30 12992 H 1265.81 -1.7655 1.03399 0
M  V30 12993 H 1265.82 -4.07387 0.223515 0
M  V30 12994 H 1264.49 -3.92806 1.36661 0
M  V30 12995 H 1263.07 -3.70165 -0.45081 0
M  V30 12996 N 1265.25 -0.510493 -1.49103 0
M  V30 12997 C 1266.66 -0.0650831 -1.86587 0
M  V30 12998 C 1267.02 1.35185 -1.42195 0
M  V30 12999 O 1266.14 2.0091 -0.804004 0
M  V30 13000 C 1266.74 -0.111333 -3.38617 0
M  V30 13001 C 1265.29 0.278782 -3.75366 0
M  V30 13002 C 1264.44 -0.479707 -2.73119 0
M  V30 13003 H 1267.39 -0.722784 -1.41285 0
M  V30 13004 H 1267.41 0.681706 -3.74343 0
M  V30 13005 H 1266.93 -1.14271 -3.70896 0
M  V30 13006 H 1265.03 1.31304 -3.48698 0
M  V30 13007 H 1265.14 -0.047271 -4.79077 0
M  V30 13008 H 1263.5 0.0716459 -2.54599 0
M  V30 13009 H 1264.29 -1.51135 -3.08242 0
M  V30 13010 N 1266.73 1.55688 -0.24474 0
M  V30 13011 C 1267.96 2.03743 0.387776 0
M  V30 13012 C 1268.38 1.1229 1.50906 0
M  V30 13013 O 1267.74 0.115445 1.80932 0
M  V30 13014 C 1267.79 3.49825 0.874927 0
M  V30 13015 O 1266.89 3.61504 1.98466 0
M  V30 13016 H 1266.23 0.658561 0.0848107 0
M  V30 13017 H 1268.76 2.01224 -0.370165 0
M  V30 13018 H 1268.77 3.90603 1.17871 0
M  V30 13019 H 1267.45 4.15864 0.0543852 0
M  V30 13020 H 1266.02 3.32622 1.68574 0
M  V30 13021 N 1268.21 -0.0283989 1.57574 0
M  V30 13022 C 1269.17 -1.01346 2.05576 0
M  V30 13023 C 1270.17 -1.28999 0.960001 0
M  V30 13024 O 1271.36 -1.23991 1.2236 0
M  V30 13025 C 1268.49 -2.34611 2.47327 0
M  V30 13026 H 1269.69 -0.598809 2.93861 0
M  V30 13027 H 1267.24 -0.27524 1.53857 0
M  V30 13028 H 1267.98 -2.80823 1.622 0
M  V30 13029 H 1267.76 -2.1587 3.27326 0
M  V30 13030 H 1269.25 -3.05332 2.84889 0
M  V30 13031 N 1269.69 -1.54705 -0.300681 0
M  V30 13032 C 1270.65 -1.84934 -1.35395 0
M  V30 13033 C 1271.65 -0.72226 -1.43666 0
M  V30 13034 O 1272.84 -0.990543 -1.43296 0
M  V30 13035 C 1269.97 -2.02991 -2.73875 0
M  V30 13036 H 1271.17 -2.79063 -1.09835 0
M  V30 13037 H 1268.72 -1.46772 -0.537365 0
M  V30 13038 H 1269.45 -1.11151 -3.04657 0
M  V30 13039 H 1269.24 -2.85027 -2.69262 0
M  V30 13040 H 1270.73 -2.27747 -3.5003 0
M  V30 13041 N 1271.17 0.563888 -1.47167 0
M  V30 13042 C 1272.42 1.31766 -1.5271 0
M  V30 13043 C 1272.73 1.94664 -0.191164 0
M  V30 13044 O 1273.93 2.71214 -0.124543 0
M  V30 13045 C 1272.39 2.38907 -2.69168 0
M  V30 13046 C 1272 1.8223 -4.09263 0
M  V30 13047 C 1273.74 3.15508 -2.83999 0
M  V30 13048 C 1271.65 2.87111 -5.17031 0
M  V30 13049 H 1270.58 0.495421 -0.568396 0
M  V30 13050 H 1273.23 0.599665 -1.73425 0
M  V30 13051 H 1271.61 3.13591 -2.4182 0
M  V30 13052 H 1272.79 1.13963 -4.46485 0
M  V30 13053 H 1271.1 1.18235 -3.99261 0
M  V30 13054 H 1273.7 3.93816 -3.61681 0
M  V30 13055 H 1274.04 3.69277 -1.92197 0
M  V30 13056 H 1274.57 2.47934 -3.11085 0
M  V30 13057 H 1271.31 2.38204 -6.10687 0
M  V30 13058 H 1270.83 3.53809 -4.84334 0
M  V30 13059 H 1272.51 3.50724 -5.43692 0
M  V30 13060 N 1272.64 1.35187 0.810078 0
M  V30 13061 C 1273.87 1.31181 1.59609 0
M  V30 13062 C 1274.28 -0.113556 1.88859 0
M  V30 13063 O 1273.63 -1.07491 1.48968 0
M  V30 13064 C 1273.69 2.04749 2.95496 0
M  V30 13065 C 1273.35 3.53952 2.89079 0
M  V30 13066 C 1274.35 4.48612 2.6276 0
M  V30 13067 C 1272.03 3.96551 3.08306 0
M  V30 13068 C 1274.03 5.83846 2.5574 0
M  V30 13069 C 1271.71 5.31881 3.00909 0
M  V30 13070 C 1272.71 6.2534 2.74661 0
M  V30 13071 O 1272.4 7.58188 2.6722 0
M  V30 13072 H 1272.13 0.452285 0.502408 0
M  V30 13073 H 1274.69 1.78571 1.01497 0
M  V30 13074 H 1272.92 1.51992 3.55577 0
M  V30 13075 H 1274.61 1.93866 3.5661 0
M  V30 13076 H 1275.37 4.1702 2.47628 0
M  V30 13077 H 1271.25 3.24194 3.27749 0
M  V30 13078 H 1274.79 6.56765 2.35172 0
M  V30 13079 H 1270.69 5.63088 3.15598 0
M  V30 13080 H 1271.46 7.68073 2.82853 0
M  V30 13081 N 1274.12 -1.03182 1.19127 0
M  V30 13082 C 1275.07 -2.13507 0.922899 0
M  V30 13083 C 1276.06 -1.68973 -0.120171 0
M  V30 13084 O 1277.27 -1.79977 0.0288007 0
M  V30 13085 H 1273.65 -0.697516 0.281027 0
M  V30 13086 H 1275.62 -2.33335 1.86003 0
M  V30 13087 C 1274.37 -3.44442 0.474864 0
M  V30 13088 H 1273.69 -3.79125 1.26902 0
M  V30 13089 H 1275.13 -4.22744 0.326162 0
M  V30 13090 C 1273.59 -3.27002 -0.81063 0
M  V30 13091 O 1274.12 -3.55374 -1.87276 0
M  V30 13092 N 1272.32 -2.80303 -0.766713 0
M  V30 13093 H 1271.87 -2.57414 0.0978672 0
M  V30 13094 H 1271.83 -2.69015 -1.62721 0
M  V30 13095 N 1275.6 -0.99472 -1.22242 0
M  V30 13096 C 1276.85 -0.667045 -1.90351 0
M  V30 13097 C 1277.16 0.804615 -1.78284 0
M  V30 13098 O 1278.37 1.24395 -2.41326 0
M  V30 13099 C 1276.82 -1.14256 -3.41282 0
M  V30 13100 C 1276.43 -2.63958 -3.61981 0
M  V30 13101 C 1278.18 -0.889302 -4.1508 0
M  V30 13102 C 1276.08 -3.05103 -5.06622 0
M  V30 13103 H 1275.01 -0.245795 -0.712812 0
M  V30 13104 H 1277.66 -1.20452 -1.38432 0
M  V30 13105 H 1276.05 -0.533203 -3.92394 0
M  V30 13106 H 1277.22 -3.30255 -3.21354 0
M  V30 13107 H 1275.54 -2.87186 -3.01518 0
M  V30 13108 H 1278.13 -1.17239 -5.21689 0
M  V30 13109 H 1278.48 0.174556 -4.15934 0
M  V30 13110 H 1279.01 -1.46095 -3.70002 0
M  V30 13111 H 1275.75 -4.10672 -5.1091 0
M  V30 13112 H 1275.27 -2.4351 -5.48145 0
M  V30 13113 H 1276.95 -2.96506 -5.75059 0
M  V30 13114 N 1277.08 1.37613 -0.768148 0
M  V30 13115 C 1278.36 1.93921 -0.255724 0
M  V30 13116 C 1278.74 1.70215 1.2486 0
M  V30 13117 O 1278.08 1.0489 2.03003 0
M  V30 13118 C 1278.29 3.43354 -0.625204 0
M  V30 13119 C 1279.64 4.20439 -0.592978 0
M  V30 13120 O 1280.67 3.51701 -0.564375 0
M  V30 13121 O 1279.52 5.43008 -0.616849 0
M  V30 13122 H 1276.62 0.824968 -0.0579366 0
M  V30 13123 H 1279.16 1.46921 -0.849257 0
M  V30 13124 H 1277.94 3.54177 -1.66356 0
M  V30 13125 H 1277.56 3.976 -0.00442816 0
M  V30 13126 N 1278.56 0.518393 1.4883 0
M  V30 13127 C 1279.78 -0.0162 2.06894 0
M  V30 13128 C 1280.2 -1.29222 1.37649 0
M  V30 13129 O 1279.56 -1.766 0.460288 0
M  V30 13130 C 1279.61 -0.255836 3.60594 0
M  V30 13131 O 1279.33 0.969612 4.27235 0
M  V30 13132 C 1280.83 -0.832117 4.3542 0
M  V30 13133 H 1278.05 0.0282877 0.670403 0
M  V30 13134 H 1280.59 0.720726 1.91379 0
M  V30 13135 H 1278.75 -0.942782 3.75753 0
M  V30 13136 H 1279.16 0.743172 5.19208 0
M  V30 13137 H 1280.64 -0.949279 5.43776 0
M  V30 13138 H 1281.11 -1.83421 3.99066 0
M  V30 13139 H 1281.72 -0.1821 4.2491 0
M  V30 13140 N 1280.03 -1.55556 0.252993 0
M  V30 13141 C 1281.26 -2.03945 -0.376965 0
M  V30 13142 C 1281.68 -1.13089 -1.50308 0
M  V30 13143 O 1281.04 -0.125039 -1.80868 0
M  V30 13144 C 1281.09 -3.50284 -0.856363 0
M  V30 13145 O 1280.19 -3.62551 -1.96546 0
M  V30 13146 H 1279.54 -0.659002 -0.081317 0
M  V30 13147 H 1282.07 -2.01024 0.380831 0
M  V30 13148 H 1282.08 -3.91222 -1.15798 0
M  V30 13149 H 1280.75 -4.15887 -0.0323302 0
M  V30 13150 H 1279.33 -3.33511 -1.66808 0
M  V30 13151 N 1281.51 0.0200419 -1.57587 0
M  V30 13152 C 1282.74 0.724241 -1.94344 0
M  V30 13153 C 1283.16 1.67612 -0.853688 0
M  V30 13154 O 1282.52 1.80303 0.189873 0
M  V30 13155 C 1282.57 1.44967 -3.30177 0
M  V30 13156 O 1281.67 2.56326 -3.23064 0
M  V30 13157 H 1281.01 0.194142 -0.634984 0
M  V30 13158 H 1283.54 -0.0271756 -2.04582 0
M  V30 13159 H 1283.55 1.81758 -3.65278 0
M  V30 13160 H 1282.23 0.75161 -4.09052 0
M  V30 13161 H 1280.81 2.22011 -2.99609 0
M  V30 13162 N 1282.99 1.54862 0.292472 0
M  V30 13163 C 1283.9 1.89472 1.38339 0
M  V30 13164 C 1284.92 0.789783 1.55043 0
M  V30 13165 O 1286.09 1.08705 1.69544 0
M  V30 13166 C 1283.16 2.14244 2.72581 0
M  V30 13167 C 1282.22 3.37913 2.64789 0
M  V30 13168 C 1281.45 3.61494 3.92629 0
M  V30 13169 O 1281.67 2.87931 4.92394 0
M  V30 13170 O 1280.61 4.55019 3.94007 0
M  V30 13171 H 1284.43 2.82298 1.11989 0
M  V30 13172 H 1282.02 1.41161 0.489291 0
M  V30 13173 H 1283.9 2.31689 3.51991 0
M  V30 13174 H 1282.58 1.24603 2.98757 0
M  V30 13175 H 1281.48 3.25823 1.83821 0
M  V30 13176 H 1282.82 4.27711 2.43565 0
M  V30 13177 N 1284.47 -0.556076 1.47464 0
M  V30 13178 C 1285.69 -1.3434 1.58011 0
M  V30 13179 C 1286.12 -1.86674 0.231138 0
M  V30 13180 O 1285.48 -1.63029 -0.793174 0
M  V30 13181 C 1285.52 -2.48844 2.60977 0
M  V30 13182 O 1284.63 -3.51108 2.16326 0
M  V30 13183 H 1283.97 -0.398986 0.53076 0
M  V30 13184 H 1286.5 -0.671898 1.93253 0
M  V30 13185 H 1286.51 -2.95398 2.81432 0
M  V30 13186 H 1285.18 -2.10109 3.58925 0
M  V30 13187 H 1283.76 -3.10852 2.05975 0
M  V30 13188 N 1285.95 -1.35615 -0.802897 0
M  V30 13189 C 1287.36 -1.26062 -1.37715 0
M  V30 13190 C 1287.71 0.105411 -1.95917 0
M  V30 13191 O 1286.83 1.00648 -1.91569 0
M  V30 13192 C 1287.43 -2.28261 -2.50365 0
M  V30 13193 C 1285.99 -2.22437 -3.03642 0
M  V30 13194 C 1285.14 -2.1377 -1.76629 0
M  V30 13195 H 1288.09 -1.46689 -0.605631 0
M  V30 13196 H 1288.11 -1.91122 -3.29017 0
M  V30 13197 H 1287.62 -3.27671 -2.07975 0
M  V30 13198 H 1285.72 -1.2645 -3.50487 0
M  V30 13199 H 1285.83 -3.14558 -3.61373 0
M  V30 13200 H 1284.2 -1.59806 -1.98328 0
M  V30 13201 H 1284.98 -3.15046 -1.36385 0
M  V30 13202 N 1287.43 1.02549 -1.19673 0
M  V30 13203 C 1288.7 1.73106 -0.9107 0
M  V30 13204 C 1289.08 2.02897 0.582769 0
M  V30 13205 O 1288.43 1.68633 1.54192 0
M  V30 13206 C 1288.64 3.00535 -1.77425 0
M  V30 13207 C 1289.99 3.73976 -2.01065 0
M  V30 13208 O 1291.01 3.1047 -1.74605 0
M  V30 13209 O 1289.87 4.88153 -2.457 0
M  V30 13210 H 1286.97 0.754006 -0.339711 0
M  V30 13211 H 1289.51 1.08477 -1.30502 0
M  V30 13212 H 1288.28 2.74773 -2.78595 0
M  V30 13213 H 1287.91 3.72904 -1.37943 0
M  V30 13214 N 1288.9 1.00119 1.21713 0
M  V30 13215 C 1289.85 0.529464 2.21767 0
M  V30 13216 C 1290.84 -0.406858 1.55671 0
M  V30 13217 O 1292.03 -0.232329 1.75469 0
M  V30 13218 C 1289.16 -0.146336 3.42988 0
M  V30 13219 C 1288.24 0.81078 4.16278 0
M  V30 13220 N 1288.64 1.96204 4.66195 0
M  V30 13221 C 1286.93 0.628371 4.41551 0
M  V30 13222 C 1287.63 2.56346 5.2217 0
M  V30 13223 N 1286.61 1.8454 5.11318 0
M  V30 13224 H 1290.41 1.40738 2.58012 0
M  V30 13225 H 1287.93 0.864518 1.37477 0
M  V30 13226 H 1289.92 -0.501726 4.1387 0
M  V30 13227 H 1288.58 -1.02029 3.08254 0
M  V30 13228 H 1289.59 2.34255 4.61893 0
M  V30 13229 H 1286.27 -0.198819 4.17026 0
M  V30 13230 H 1287.66 3.53688 5.71274 0
M  V30 13231 N 1290.38 -1.37203 0.775435 0
M  V30 13232 C 1291.61 -2.03572 0.352416 0
M  V30 13233 C 1292.02 -1.58612 -1.03145 0
M  V30 13234 O 1291.36 -0.764478 -1.67037 0
M  V30 13235 C 1291.42 -3.58064 0.321026 0
M  V30 13236 C 1291.09 -4.2617 1.6501 0
M  V30 13237 C 1292.09 -4.50034 2.60318 0
M  V30 13238 C 1289.77 -4.63927 1.92555 0
M  V30 13239 C 1291.76 -5.10716 3.81376 0
M  V30 13240 C 1289.45 -5.24329 3.13883 0
M  V30 13241 C 1290.45 -5.47661 4.08113 0
M  V30 13242 O 1290.14 -6.068 5.27304 0
M  V30 13243 H 1289.87 -0.660231 0.145159 0
M  V30 13244 H 1292.42 -1.76446 1.05148 0
M  V30 13245 H 1290.65 -3.84252 -0.434439 0
M  V30 13246 H 1292.34 -4.0583 -0.0754241 0
M  V30 13247 H 1293.11 -4.21273 2.4032 0
M  V30 13248 H 1288.99 -4.45098 1.20036 0
M  V30 13249 H 1292.53 -5.28844 4.5494 0
M  V30 13250 H 1288.43 -5.52514 3.33765 0
M  V30 13251 H 1289.2 -6.25276 5.28179 0
M  V30 13252 N 1291.86 -0.526279 -1.48553 0
M  V30 13253 C 1292.79 0.227364 -2.3239 0
M  V30 13254 C 1293.77 0.93862 -1.41859 0
M  V30 13255 O 1294.96 0.925119 -1.70749 0
M  V30 13256 C 1292.09 1.277 -3.22971 0
M  V30 13257 C 1291.04 0.684107 -4.22497 0
M  V30 13258 C 1290.37 1.83612 -5.02186 0
M  V30 13259 C 1291.67 -0.341723 -5.21181 0
M  V30 13260 H 1293.36 -0.472486 -2.95648 0
M  V30 13261 H 1290.91 -0.228669 -1.42173 0
M  V30 13262 H 1292.86 1.81215 -3.80446 0
M  V30 13263 H 1291.58 2.00638 -2.57705 0
M  V30 13264 H 1290.24 0.170505 -3.66203 0
M  V30 13265 H 1289.89 2.55379 -4.33348 0
M  V30 13266 H 1289.59 1.44536 -5.69547 0
M  V30 13267 H 1291.11 2.37513 -5.62512 0
M  V30 13268 H 1292.53 0.106207 -5.73202 0
M  V30 13269 H 1290.92 -0.649673 -5.96573 0
M  V30 13270 H 1291.99 -1.2488 -4.68543 0
M  V30 13271 N 1293.34 1.5542 -0.261239 0
M  V30 13272 C 1294.58 1.99579 0.36002 0
M  V30 13273 C 1294.92 1.14933 1.56538 0
M  V30 13274 O 1294.19 0.216082 1.93296 0
M  V30 13275 C 1294.47 3.52078 0.755842 0
M  V30 13276 C 1294.33 4.47484 -0.455896 0
M  V30 13277 C 1295.65 4.10083 1.5975 0
M  V30 13278 H 1292.77 0.725554 0.129385 0
M  V30 13279 H 1295.41 1.86453 -0.365415 0
M  V30 13280 H 1293.56 3.63394 1.37393 0
M  V30 13281 H 1295.23 4.4813 -1.09441 0
M  V30 13282 H 1293.47 4.19714 -1.09646 0
M  V30 13283 H 1294.14 5.51834 -0.13539 0
M  V30 13284 H 1296.62 4.01957 1.07562 0
M  V30 13285 H 1295.5 5.17024 1.84329 0
M  V30 13286 H 1295.76 3.59438 2.57404 0
M  V30 13287 N 1294.82 -0.0116844 1.57596 0
M  V30 13288 C 1296.09 -0.735344 1.81251 0
M  V30 13289 C 1296.47 -1.92634 0.863446 0
M  V30 13290 O 1295.82 -2.28321 -0.0905028 0
M  V30 13291 C 1296.03 -1.15206 3.29437 0
M  V30 13292 C 1297.38 -1.56078 3.94873 0
M  V30 13293 O 1298.4 -1.24618 3.3369 0
M  V30 13294 O 1297.26 -2.14534 5.0263 0
M  V30 13295 H 1294.36 -0.357044 0.745955 0
M  V30 13296 H 1296.9 0.0128733 1.69695 0
M  V30 13297 H 1295.67 -0.302619 3.90128 0
M  V30 13298 H 1295.3 -1.95975 3.45947 0
M  V30 13299 N 1296.29 -1.55015 -0.284256 0
M  V30 13300 C 1297.24 -1.83508 -1.3531 0
M  V30 13301 C 1298.23 -0.693244 -1.452 0
M  V30 13302 O 1299.42 -0.954312 -1.4907 0
M  V30 13303 C 1296.55 -2.10059 -2.71533 0
M  V30 13304 C 1295.63 -3.30472 -2.65799 0
M  V30 13305 N 1296.03 -4.50644 -2.29682 0
M  V30 13306 C 1294.32 -3.32836 -2.96878 0
M  V30 13307 C 1295.02 -5.32708 -2.33661 0
M  V30 13308 N 1294 -4.70837 -2.71687 0
M  V30 13309 H 1297.8 -2.73973 -1.06377 0
M  V30 13310 H 1295.32 -1.5474 -0.492875 0
M  V30 13311 H 1297.31 -2.28624 -3.48621 0
M  V30 13312 H 1295.97 -1.20872 -3.01364 0
M  V30 13313 H 1296.98 -4.76945 -2.0185 0
M  V30 13314 H 1293.66 -2.53807 -3.31494 0
M  V30 13315 H 1295.05 -6.38766 -2.08394 0
M  V30 13316 N 1297.77 0.548248 -1.47757 0
M  V30 13317 C 1299 1.3302 -1.58472 0
M  V30 13318 C 1299.41 1.87292 -0.238186 0
M  V30 13319 O 1298.77 1.65465 0.76991 0
M  V30 13320 C 1298.82 2.49386 -2.61704 0
M  V30 13321 O 1298.54 1.97355 -3.9113 0
M  V30 13322 C 1300.04 3.41471 -2.82688 0
M  V30 13323 H 1297.26 0.405172 -0.534861 0
M  V30 13324 H 1299.81 0.663251 -1.93446 0
M  V30 13325 H 1297.96 3.12001 -2.29639 0
M  V30 13326 H 1298.38 2.7339 -4.47614 0
M  V30 13327 H 1299.85 4.19516 -3.58762 0
M  V30 13328 H 1300.33 3.95573 -1.90837 0
M  V30 13329 H 1300.93 2.84664 -3.15985 0
M  V30 13330 N 1299.25 1.36039 0.795694 0
M  V30 13331 C 1300.18 1.32528 1.92246 0
M  V30 13332 C 1301.16 0.197805 1.68946 0
M  V30 13333 O 1302.35 0.394474 1.90151 0
M  V30 13334 C 1299.48 1.10748 3.29169 0
M  V30 13335 C 1298.43 2.20253 3.66978 0
M  V30 13336 C 1297.76 1.83624 5.02181 0
M  V30 13337 C 1299.06 3.62296 3.76216 0
M  V30 13338 H 1300.75 2.2681 1.95442 0
M  V30 13339 H 1298.3 1.09181 0.938908 0
M  V30 13340 H 1300.25 1.06929 4.07608 0
M  V30 13341 H 1298.97 0.129141 3.26345 0
M  V30 13342 H 1297.63 2.23187 2.90832 0
M  V30 13343 H 1297.28 0.843804 4.95872 0
M  V30 13344 H 1296.98 2.56935 5.28449 0
M  V30 13345 H 1298.5 1.81349 5.83048 0
M  V30 13346 H 1299.92 3.61623 4.44861 0
M  V30 13347 H 1298.31 4.34459 4.13963 0
M  V30 13348 H 1299.38 3.97657 2.77483 0
M  V30 13349 N 1300.73 -1.01913 1.20215 0
M  V30 13350 C 1302.01 -1.7262 0.919867 0
M  V30 13351 C 1302.39 -2.03203 -0.572001 0
M  V30 13352 O 1301.73 -1.69448 -1.53296 0
M  V30 13353 C 1301.94 -2.9959 1.79016 0
M  V30 13354 C 1303.29 -3.72905 2.03045 0
M  V30 13355 O 1304.32 -3.0954 1.76249 0
M  V30 13356 O 1303.17 -4.86844 2.48285 0
M  V30 13357 H 1300.27 -0.752194 0.343705 0
M  V30 13358 H 1302.81 -1.07783 1.31076 0
M  V30 13359 H 1301.59 -2.73292 2.80048 0
M  V30 13360 H 1301.21 -3.72168 1.39918 0
M  V30 13361 N 1302.21 -1.00763 -1.2118 0
M  V30 13362 C 1303.45 -0.690459 -1.8994 0
M  V30 13363 C 1303.78 0.781464 -1.78656 0
M  V30 13364 O 1303.05 1.56135 -1.18316 0
M  V30 13365 H 1301.63 -0.252397 -0.703068 0
M  V30 13366 H 1304.29 -1.2773 -1.47211 0
M  V30 13367 H 1303.38 -0.96594 -2.96776 0
M  V30 13368 N 1303.68 1.3679 -0.7827 0
M  V30 13369 C 1305.1 1.52719 -0.463594 0
M  V30 13370 C 1305.3 1.73827 1.01914 0
M  V30 13371 O 1304.36 1.76591 1.80477 0
M  V30 13372 C 1305.67 2.71709 -1.2882 0
M  V30 13373 C 1307.22 2.85577 -1.2812 0
M  V30 13374 C 1307.69 4.07564 -2.0894 0
M  V30 13375 N 1309.18 4.14697 -2.0635 0
M  V30 13376 C 1309.92 5.08147 -2.65659 0
M  V30 13377 N 1309.41 6.07083 -3.33799 0
M  V30 13378 N 1311.21 5.00712 -2.55429 0
M  V30 13379 H 1303.36 1.21342 -1.74327 0
M  V30 13380 H 1305.62 0.591719 -0.740657 0
M  V30 13381 H 1305.33 2.62612 -2.3394 0
M  V30 13382 H 1305.2 3.65686 -0.924873 0
M  V30 13383 H 1307.59 2.94139 -0.237947 0
M  V30 13384 H 1307.67 1.92528 -1.68424 0
M  V30 13385 H 1307.31 3.99763 -3.13293 0
M  V30 13386 H 1307.24 4.99748 -1.66011 0
M  V30 13387 H 1309.73 3.43856 -1.56752 0
M  V30 13388 H 1310.05 6.74939 -3.764 0
M  V30 13389 H 1308.39 6.07329 -3.379 0
M  V30 13390 H 1311.58 4.22367 -2.01802 0
M  V30 13391 H 1311.76 5.73354 -3.01943 0
M  V30 13392 N 1305.16 0.53415 1.48272 0
M  V30 13393 C 1306.41 0.00157492 2.028 0
M  V30 13394 C 1306.74 -1.33538 1.41001 0
M  V30 13395 O 1306.02 -1.86347 0.557245 0
M  V30 13396 C 1306.3 -0.116016 3.59913 0
M  V30 13397 C 1306.15 1.2464 4.32186 0
M  V30 13398 C 1307.47 -0.840775 4.31994 0
M  V30 13399 H 1304.59 0.00204634 0.736997 0
M  V30 13400 H 1307.23 0.691985 1.76951 0
M  V30 13401 H 1305.38 -0.704027 3.82068 0
M  V30 13402 H 1307.05 1.87584 4.21438 0
M  V30 13403 H 1305.3 1.8272 3.93441 0
M  V30 13404 H 1305.97 1.11708 5.40579 0
M  V30 13405 H 1308.44 -0.341746 4.14694 0
M  V30 13406 H 1307.32 -0.89196 5.41604 0
M  V30 13407 H 1307.58 -1.89197 3.99571 0
M  V30 13408 N 1306.64 -1.55279 0.269478 0
M  V30 13409 C 1307.57 -2.25278 -0.614188 0
M  V30 13410 C 1308.55 -1.24092 -1.1634 0
M  V30 13411 O 1309.74 -1.52799 -1.19858 0
M  V30 13412 C 1306.87 -2.96956 -1.80096 0
M  V30 13413 C 1305.82 -4.05021 -1.38353 0
M  V30 13414 C 1305.15 -4.64244 -2.65295 0
M  V30 13415 C 1306.45 -5.19523 -0.537886 0
M  V30 13416 H 1308.14 -2.99385 -0.0304397 0
M  V30 13417 H 1305.69 -1.43994 -0.0132004 0
M  V30 13418 H 1307.64 -3.44633 -2.42499 0
M  V30 13419 H 1306.36 -2.20374 -2.41045 0
M  V30 13420 H 1305.02 -3.58146 -0.78273 0
M  V30 13421 H 1304.67 -3.84337 -3.2449 0
M  V30 13422 H 1304.37 -5.37208 -2.38079 0
M  V30 13423 H 1305.89 -5.14668 -3.28557 0
M  V30 13424 H 1307.31 -5.63287 -1.06677 0
M  V30 13425 H 1305.71 -5.99014 -0.360845 0
M  V30 13426 H 1306.78 -4.82857 0.444672 0
M  V30 13427 N 1308.12 0.00332656 -1.576 0
M  V30 13428 C 1309.37 0.688869 -1.90423 0
M  V30 13429 C 1309.69 1.73963 -0.869896 0
M  V30 13430 O 1308.95 1.95295 0.125777 0
M  V30 13431 C 1309.25 1.37237 -3.30001 0
M  V30 13432 C 1308.91 0.455132 -4.48597 0
M  V30 13433 C 1307.58 0.202577 -4.80773 0
M  V30 13434 C 1309.93 -0.176597 -5.20901 0
M  V30 13435 C 1307.26 -0.690055 -5.82628 0
M  V30 13436 C 1309.61 -1.05708 -6.23705 0
M  V30 13437 C 1308.27 -1.31885 -6.54341 0
M  V30 13438 H 1307.54 0.252075 -0.696806 0
M  V30 13439 H 1310.19 -0.0514867 -1.91431 0
M  V30 13440 H 1308.49 2.18669 -3.25102 0
M  V30 13441 H 1310.19 1.9088 -3.52656 0
M  V30 13442 H 1306.78 0.662142 -4.23454 0
M  V30 13443 H 1310.96 0.0055127 -4.963 0
M  V30 13444 H 1306.22 -0.900902 -6.04726 0
M  V30 13445 H 1310.39 -1.55296 -6.78864 0
M  V30 13446 H 1308.02 -2.01222 -7.33085 0
M  V30 13447 N 1309.6 1.55164 0.276031 0
M  V30 13448 C 1311.01 1.66367 0.847293 0
M  V30 13449 C 1311.36 0.588692 1.8716 0
M  V30 13450 O 1310.48 -0.27035 2.14705 0
M  V30 13451 C 1311.08 3.01593 1.5436 0
M  V30 13452 C 1309.64 3.14833 2.06293 0
M  V30 13453 C 1308.78 2.62152 0.903959 0
M  V30 13454 H 1311.74 1.58613 0.0524478 0
M  V30 13455 H 1311.76 2.94412 2.41043 0
M  V30 13456 H 1311.27 3.7981 0.797849 0
M  V30 13457 H 1309.37 2.41384 2.83839 0
M  V30 13458 H 1309.48 4.21353 2.28032 0
M  V30 13459 H 1307.85 2.19233 1.29649 0
M  V30 13460 H 1308.63 3.4287 0.171765 0
M  V30 13461 N 1311.07 -0.540404 1.48045 0
M  V30 13462 C 1312.04 -1.62813 1.61322 0
M  V30 13463 C 1313.04 -1.53243 0.487161 0
M  V30 13464 O 1314.23 -1.571 0.752684 0
M  V30 13465 C 1311.36 -3.02408 1.5736 0
M  V30 13466 H 1312.55 -1.52385 2.583 0
M  V30 13467 H 1310.11 -0.761654 1.36486 0
M  V30 13468 H 1310.84 -3.18353 0.618195 0
M  V30 13469 H 1310.63 -3.10763 2.39099 0
M  V30 13470 H 1312.12 -3.8151 1.69822 0
M  V30 13471 N 1312.55 -1.36459 -0.788468 0
M  V30 13472 C 1313.78 -1.33898 -1.57731 0
M  V30 13473 C 1314.2 0.0795471 -1.88632 0
M  V30 13474 O 1313.55 1.03671 -1.50195 0
M  V30 13475 C 1313.6 -2.16134 -2.89773 0
M  V30 13476 O 1313.32 -3.52457 -2.60203 0
M  V30 13477 C 1314.83 -2.21364 -3.84074 0
M  V30 13478 H 1312.05 -0.459269 -0.489197 0
M  V30 13479 H 1314.59 -1.79569 -0.978526 0
M  V30 13480 H 1312.74 -1.74015 -3.46118 0
M  V30 13481 H 1313.16 -3.95378 -3.4464 0
M  V30 13482 H 1314.63 -2.83261 -4.7378 0
M  V30 13483 H 1315.11 -1.21736 -4.21992 0
M  V30 13484 H 1315.72 -2.63723 -3.33662 0
M  V30 13485 N 1314.03 1.01274 -1.20754 0
M  V30 13486 C 1315.28 1.74586 -1.01804 0
M  V30 13487 C 1315.6 1.89727 0.450419 0
M  V30 13488 O 1314.87 1.44257 1.32539 0
M  V30 13489 H 1313.45 0.646804 -0.373702 0
M  V30 13490 H 1316.11 1.22079 -1.5193 0
M  V30 13491 H 1315.21 2.748 -1.47958 0
M  V30 13492 N 1315.51 1.01404 1.20644 0
M  V30 13493 C 1316.74 0.719995 1.93648 0
M  V30 13494 C 1317.15 -0.722872 1.74846 0
M  V30 13495 O 1316.49 -1.50172 1.05802 0
M  V30 13496 C 1316.55 0.972637 3.46092 0
M  V30 13497 C 1316.22 2.40412 3.88653 0
M  V30 13498 C 1317.21 3.38481 3.94622 0
M  V30 13499 C 1314.9 2.74418 4.20714 0
M  V30 13500 C 1316.89 4.68619 4.32059 0
M  V30 13501 C 1314.58 4.04769 4.57826 0
M  V30 13502 C 1315.58 5.01681 4.63471 0
M  V30 13503 O 1315.27 6.297 4.99733 0
M  V30 13504 H 1315 0.263849 0.622382 0
M  V30 13505 H 1317.55 1.35741 1.54154 0
M  V30 13506 H 1315.78 0.278057 3.85699 0
M  V30 13507 H 1317.47 0.670572 4.00323 0
M  V30 13508 H 1318.24 3.13545 3.7002 0
M  V30 13509 H 1314.12 1.99675 4.15513 0
M  V30 13510 H 1317.66 5.4426 4.3638 0
M  V30 13511 H 1313.56 4.29486 4.81884 0
M  V30 13512 H 1314.32 6.3395 5.17735 0
M  V30 13513 N 1316.99 -1.36373 0.789944 0
M  V30 13514 C 1317.92 -2.32616 0.202944 0
M  V30 13515 C 1318.9 -1.56674 -0.662364 0
M  V30 13516 O 1320.08 -1.84826 -0.596078 0
M  V30 13517 C 1317.21 -3.4092 -0.662646 0
M  V30 13518 C 1316.17 -4.27877 0.102811 0
M  V30 13519 C 1315.49 -5.27352 -0.883407 0
M  V30 13520 C 1316.79 -5.0606 1.29231 0
M  V30 13521 H 1318.49 -2.81958 1.00699 0
M  V30 13522 H 1316.03 -1.35562 0.48568 0
M  V30 13523 H 1317.99 -4.07239 -1.08324 0
M  V30 13524 H 1316.71 -2.90147 -1.4994 0
M  V30 13525 H 1315.37 -3.63114 0.504389 0
M  V30 13526 H 1315.02 -4.72853 -1.71521 0
M  V30 13527 H 1314.72 -5.86398 -0.375669 0
M  V30 13528 H 1316.24 -5.96545 -1.30256 0
M  V30 13529 H 1317.66 -5.65417 0.947446 0
M  V30 13530 H 1316.05 -5.74521 1.73338 0
M  V30 13531 H 1317.12 -4.37671 2.08739 0
M  V30 13532 N 1318.47 -0.542005 -1.47987 0
M  V30 13533 C 1319.69 -0.0146835 -2.07395 0
M  V30 13534 C 1320.12 1.26266 -1.39422 0
M  V30 13535 O 1319.47 1.75259 -0.464118 0
M  V30 13536 C 1319.52 0.179937 -3.60151 0
M  V30 13537 O 1318.63 1.24596 -3.93128 0
M  V30 13538 H 1317.97 -0.0445076 -0.662507 0
M  V30 13539 H 1320.5 -0.753352 -1.90226 0
M  V30 13540 H 1320.51 0.398876 -4.06046 0
M  V30 13541 H 1319.18 -0.753093 -4.09025 0
M  V30 13542 H 1317.76 1.00872 -3.58997 0
M  V30 13543 N 1319.94 1.55134 -0.277709 0
M  V30 13544 C 1321.19 1.98831 0.338982 0
M  V30 13545 C 1321.51 1.16958 1.56781 0
M  V30 13546 O 1322.71 1.50811 2.25762 0
M  V30 13547 C 1321.17 3.53899 0.654465 0
M  V30 13548 C 1320.78 4.44553 -0.554703 0
M  V30 13549 C 1322.52 4.06179 1.23364 0
M  V30 13550 C 1320.43 5.91014 -0.213663 0
M  V30 13551 H 1319.36 0.742632 0.130434 0
M  V30 13552 H 1322.01 1.79463 -0.382768 0
M  V30 13553 H 1320.39 3.69078 1.43519 0
M  V30 13554 H 1321.56 4.41143 -1.33151 0
M  V30 13555 H 1319.88 4.02921 -1.0509 0
M  V30 13556 H 1322.48 5.13152 1.50265 0
M  V30 13557 H 1322.82 3.5537 2.16836 0
M  V30 13558 H 1323.35 3.9445 0.515147 0
M  V30 13559 H 1320.09 6.45924 -1.11633 0
M  V30 13560 H 1319.61 5.97486 0.526329 0
M  V30 13561 H 1321.29 6.46712 0.19319 0
M  V30 13562 N 1321.42 0.00503138 1.57599 0
M  V30 13563 C 1322.67 -0.679766 1.91068 0
M  V30 13564 C 1323 -1.73144 0.879486 0
M  V30 13565 O 1322.28 -1.94237 -0.101116 0
M  V30 13566 C 1322.56 -1.3183 3.35101 0
M  V30 13567 C 1322.41 -0.277833 4.48941 0
M  V30 13568 C 1323.73 -2.24308 3.78647 0
M  V30 13569 H 1320.85 -0.245646 0.694857 0
M  V30 13570 H 1323.49 0.057357 1.89913 0
M  V30 13571 H 1321.64 -1.94657 3.36216 0
M  V30 13572 H 1323.31 0.351136 4.59962 0
M  V30 13573 H 1321.56 0.399365 4.31958 0
M  V30 13574 H 1322.23 -0.763759 5.46691 0
M  V30 13575 H 1324.7 -1.71494 3.79116 0
M  V30 13576 H 1323.58 -2.6595 4.80169 0
M  V30 13577 H 1323.84 -3.12427 3.12797 0
M  V30 13578 N 1322.9 -1.55308 -0.267798 0
M  V30 13579 C 1324.15 -1.77342 -0.99606 0
M  V30 13580 C 1324.5 -0.570502 -1.83747 0
M  V30 13581 O 1323.79 0.436721 -1.86556 0
M  V30 13582 C 1323.99 -3.02286 -1.90678 0
M  V30 13583 C 1323.82 -4.34614 -1.15501 0
M  V30 13584 C 1322.59 -4.97779 -0.868576 0
M  V30 13585 C 1324.78 -5.11427 -0.542865 0
M  V30 13586 N 1322.77 -6.13833 -0.0905541 0
M  V30 13587 C 1324.14 -6.19918 0.100738 0
M  V30 13588 C 1326.19 -4.95851 -0.45123 0
M  V30 13589 C 1324.9 -7.14528 0.827151 0
M  V30 13590 C 1326.92 -5.90821 0.261602 0
M  V30 13591 C 1326.28 -6.98705 0.893924 0
M  V30 13592 H 1322.38 -0.701146 -0.346292 0
M  V30 13593 H 1324.97 -1.92802 -0.271211 0
M  V30 13594 H 1323.14 -2.88192 -2.60384 0
M  V30 13595 H 1324.87 -3.12702 -2.56904 0
M  V30 13596 H 1321.62 -4.58789 -1.17515 0
M  V30 13597 H 1322.05 -6.76396 0.28594 0
M  V30 13598 H 1326.69 -4.1254 -0.925774 0
M  V30 13599 H 1324.41 -7.97356 1.31336 0
M  V30 13600 H 1327.99 -5.80847 0.332892 0
M  V30 13601 H 1326.87 -7.70927 1.43672 0
M  V30 13602 N 1324.38 0.532545 -1.4833 0
M  V30 13603 C 1325.32 1.63737 -1.62661 0
M  V30 13604 C 1326.29 1.59348 -0.468758 0
M  V30 13605 O 1327.48 1.77812 -0.691921 0
M  V30 13606 C 1324.62 3.02006 -1.66993 0
M  V30 13607 C 1323.73 3.16648 -2.93867 0
M  V30 13608 C 1322.87 4.4546 -2.89376 0
M  V30 13609 C 1321.91 4.53622 -4.10966 0
M  V30 13610 N 1321.04 5.7382 -4.04567 0
M  V30 13611 H 1325.88 1.50828 -2.57012 0
M  V30 13612 H 1323.42 0.734348 -1.27459 0
M  V30 13613 H 1325.38 3.82105 -1.67486 0
M  V30 13614 H 1324.01 3.13693 -0.76135 0
M  V30 13615 H 1323.06 2.29817 -3.0313 0
M  V30 13616 H 1324.37 3.1854 -3.8384 0
M  V30 13617 H 1323.53 5.33848 -2.88256 0
M  V30 13618 H 1322.27 4.46085 -1.97127 0
M  V30 13619 H 1321.27 3.63642 -4.12364 0
M  V30 13620 H 1322.5 4.54738 -5.04371 0
M  V30 13621 H 1320.44 5.75347 -3.15137 0
M  V30 13622 H 1320.36 5.77196 -4.88243 0
M  V30 13623 H 1321.63 6.64502 -4.07502 0
M  V30 13624 N 1325.86 1.36875 0.78122 0
M  V30 13625 C 1327.08 1.34732 1.57019 0
M  V30 13626 C 1327.5 -0.0695423 1.88672 0
M  V30 13627 O 1326.86 -1.02873 1.50743 0
M  V30 13628 C 1326.91 2.17668 2.88623 0
M  V30 13629 O 1326.63 3.53832 2.5833 0
M  V30 13630 C 1328.13 2.23398 3.82895 0
M  V30 13631 H 1325.35 0.461857 0.486754 0
M  V30 13632 H 1327.89 1.80086 0.968989 0
M  V30 13633 H 1326.05 1.75848 3.4519 0
M  V30 13634 H 1326.46 3.972 3.42538 0
M  V30 13635 H 1327.94 2.85769 4.72271 0
M  V30 13636 H 1328.41 1.23972 4.2134 0
M  V30 13637 H 1329.02 2.65489 3.32258 0
M  V30 13638 N 1327.33 -1.00632 1.21289 0
M  V30 13639 C 1328.26 -2.11238 0.995021 0
M  V30 13640 C 1329.24 -1.69914 -0.0795537 0
M  V30 13641 O 1330.43 -1.94035 0.0800152 0
M  V30 13642 C 1327.56 -3.42797 0.557475 0
M  V30 13643 C 1326.51 -3.97909 1.57646 0
M  V30 13644 C 1325.84 -5.25357 0.995197 0
M  V30 13645 C 1327.14 -4.30123 2.96297 0
M  V30 13646 H 1328.83 -2.29722 1.9201 0
M  V30 13647 H 1326.38 -1.10395 0.924602 0
M  V30 13648 H 1328.33 -4.19571 0.392236 0
M  V30 13649 H 1327.06 -3.24101 -0.403253 0
M  V30 13650 H 1325.72 -3.23254 1.72924 0
M  V30 13651 H 1325.36 -5.02993 0.026227 0
M  V30 13652 H 1325.06 -5.63196 1.67583 0
M  V30 13653 H 1326.59 -6.04777 0.841251 0
M  V30 13654 H 1328 -4.97744 2.8447 0
M  V30 13655 H 1326.4 -4.79101 3.61361 0
M  V30 13656 H 1327.47 -3.38454 3.47242 0
M  V30 13657 N 1328.81 -1.02043 -1.20104 0
M  V30 13658 C 1329.77 -0.598682 -2.21243 0
M  V30 13659 C 1330.77 0.333205 -1.5731 0
M  V30 13660 O 1331.96 0.12137 -1.73777 0
M  V30 13661 C 1329.1 0.125183 -3.4067 0
M  V30 13662 H 1330.29 -1.49345 -2.60069 0
M  V30 13663 H 1327.84 -0.810649 -1.33634 0
M  V30 13664 H 1328.58 1.03469 -3.07351 0
M  V30 13665 H 1328.36 -0.544316 -3.88304 0
M  V30 13666 H 1329.85 0.407469 -4.15607 0
M  V30 13667 N 1330.29 1.35952 -0.797165 0
M  V30 13668 C 1331.71 1.52218 -0.479765 0
M  V30 13669 C 1331.91 1.74898 1.00064 0
M  V30 13670 O 1330.96 1.78495 1.78594 0
M  V30 13671 C 1332.28 2.70328 -1.31694 0
M  V30 13672 C 1333.82 2.84202 -1.31142 0
M  V30 13673 C 1334.3 4.05325 -2.13251 0
M  V30 13674 N 1335.79 4.12485 -2.10737 0
M  V30 13675 C 1336.52 5.053 -2.71033 0
M  V30 13676 N 1336.02 6.03509 -3.40219 0
M  V30 13677 N 1337.81 4.97975 -2.60725 0
M  V30 13678 H 1329.96 1.19486 -1.75604 0
M  V30 13679 H 1332.23 0.58383 -0.746892 0
M  V30 13680 H 1331.93 2.60116 -2.36712 0
M  V30 13681 H 1331.81 3.64684 -0.963607 0
M  V30 13682 H 1334.19 2.9387 -0.269131 0
M  V30 13683 H 1334.28 1.9073 -1.70457 0
M  V30 13684 H 1333.92 3.96417 -3.17515 0
M  V30 13685 H 1333.85 4.97959 -1.71302 0
M  V30 13686 H 1336.34 3.42174 -1.6039 0
M  V30 13687 H 1336.65 6.70909 -3.83537 0
M  V30 13688 H 1335 6.03711 -3.44322 0
M  V30 13689 H 1338.19 4.20203 -2.0627 0
M  V30 13690 H 1338.36 5.70119 -3.08007 0
M  V30 13691 N 1331.77 0.549846 1.47697 0
M  V30 13692 C 1332.73 -0.191427 2.28399 0
M  V30 13693 C 1333.73 -0.849533 1.36527 0
M  V30 13694 O 1334.92 -0.706526 1.59229 0
M  V30 13695 C 1332.05 -1.27907 3.15995 0
M  V30 13696 H 1333.25 0.517375 2.95404 0
M  V30 13697 H 1330.8 0.30651 1.53265 0
M  V30 13698 H 1331.53 -2.0205 2.53665 0
M  V30 13699 H 1331.32 -0.812066 3.83599 0
M  V30 13700 H 1332.81 -1.79992 3.76819 0
M  V30 13701 N 1333.25 -1.54984 0.285932 0
M  V30 13702 C 1334.18 -2.25916 -0.590259 0
M  V30 13703 C 1335.16 -1.25319 -1.15018 0
M  V30 13704 O 1336.34 -1.54062 -1.18231 0
M  V30 13705 C 1333.47 -2.98849 -1.76936 0
M  V30 13706 C 1332.43 -4.06466 -1.3405 0
M  V30 13707 C 1331.75 -4.67032 -2.60356 0
M  V30 13708 C 1333.05 -5.20064 -0.482754 0
M  V30 13709 H 1334.75 -2.994 0.00131571 0
M  V30 13710 H 1332.29 -1.44 0.00207281 0
M  V30 13711 H 1334.25 -3.47186 -2.3883 0
M  V30 13712 H 1332.97 -2.22918 -2.38694 0
M  V30 13713 H 1331.63 -3.58957 -0.7447 0
M  V30 13714 H 1331.28 -3.87757 -3.20396 0
M  V30 13715 H 1330.98 -5.39703 -2.32368 0
M  V30 13716 H 1332.5 -5.18124 -3.23079 0
M  V30 13717 H 1333.91 -5.64387 -1.00697 0
M  V30 13718 H 1332.31 -5.99363 -0.297291 0
M  V30 13719 H 1333.38 -4.82358 0.495861 0
M  V30 13720 N 1334.72 -0.0133892 -1.57594 0
M  V30 13721 C 1335.97 0.667313 -1.90765 0
M  V30 13722 C 1336.29 1.73564 -0.888847 0
M  V30 13723 O 1335.56 1.95768 0.0718946 0
M  V30 13724 H 1334.14 0.24947 -0.704112 0
M  V30 13725 H 1336.81 -0.0574789 -1.94815 0
M  V30 13726 H 1335.9 1.13007 -2.90922 0
M  V30 13727 N 1336.2 1.55448 0.259558 0
M  V30 13728 C 1337.13 1.9226 1.32508 0
M  V30 13729 C 1338.11 0.786012 1.5085 0
M  V30 13730 O 1339.3 1.04526 1.6367 0
M  V30 13731 C 1336.43 2.20627 2.68218 0
M  V30 13732 C 1335.38 3.36418 2.64589 0
M  V30 13733 C 1334.71 3.50295 4.03977 0
M  V30 13734 C 1336.01 4.72452 2.2268 0
M  V30 13735 H 1337.7 2.81509 1.01945 0
M  V30 13736 H 1335.25 1.35444 0.488965 0
M  V30 13737 H 1337.2 2.44968 3.42883 0
M  V30 13738 H 1335.93 1.28191 3.00391 0
M  V30 13739 H 1334.58 3.12065 1.92382 0
M  V30 13740 H 1334.23 2.55302 4.33394 0
M  V30 13741 H 1333.93 4.28155 4.02439 0
M  V30 13742 H 1335.46 3.76944 4.8036 0
M  V30 13743 H 1336.87 4.96249 2.87071 0
M  V30 13744 H 1335.27 5.53323 2.32279 0
M  V30 13745 H 1336.34 4.70367 1.17826 0
M  V30 13746 N 1337.68 -0.524672 1.4861 0
M  V30 13747 C 1338.93 -1.27768 1.56588 0
M  V30 13748 C 1339.25 -1.93469 0.243899 0
M  V30 13749 O 1338.52 -1.8159 -0.734985 0
M  V30 13750 H 1337.1 -0.474566 0.576885 0
M  V30 13751 H 1339.76 -0.610114 1.85104 0
M  V30 13752 H 1338.86 -2.05416 2.34969 0
M  V30 13753 N 1339.16 -1.37287 -0.77395 0
M  V30 13754 C 1340.4 -1.3257 -1.5347 0
M  V30 13755 C 1340.74 0.090346 -1.9399 0
M  V30 13756 O 1340.01 1.04719 -1.63903 0
M  V30 13757 C 1340.3 -2.26277 -2.80126 0
M  V30 13758 C 1340.15 -3.76651 -2.45874 0
M  V30 13759 C 1341.47 -2.18471 -3.82045 0
M  V30 13760 H 1338.59 -0.48289 -0.556764 0
M  V30 13761 H 1341.23 -1.6797 -0.888039 0
M  V30 13762 H 1339.38 -1.96219 -3.35306 0
M  V30 13763 H 1341.05 -4.17296 -1.96626 0
M  V30 13764 H 1339.29 -3.95327 -1.78602 0
M  V30 13765 H 1339.96 -4.3765 -3.36403 0
M  V30 13766 H 1342.44 -2.44962 -3.36352 0
M  V30 13767 H 1341.32 -2.86183 -4.68392 0
M  V30 13768 H 1341.58 -1.17692 -4.26147 0
M  V30 13769 N 1340.64 0.999871 -1.21821 0
M  V30 13770 C 1341.55 2.12303 -0.99823 0
M  V30 13771 C 1342.56 1.73924 0.0512923 0
M  V30 13772 O 1343.74 2.00914 -0.139895 0
M  V30 13773 C 1340.8 3.41962 -0.571232 0
M  V30 13774 C 1339.86 3.94483 -1.69356 0
M  V30 13775 C 1339.1 5.17954 -1.28685 0
M  V30 13776 O 1339.32 5.70168 -0.162641 0
M  V30 13777 O 1338.25 5.64051 -2.10071 0
M  V30 13778 H 1342.08 2.3374 -1.93905 0
M  V30 13779 H 1339.67 1.10677 -1.00354 0
M  V30 13780 H 1341.55 4.20001 -0.343134 0
M  V30 13781 H 1340.22 3.21901 0.340814 0
M  V30 13782 H 1339.13 3.17648 -1.97612 0
M  V30 13783 H 1340.46 4.18964 -2.58322 0
M  V30 13784 N 1342.11 1.02678 1.19562 0
M  V30 13785 C 1343.05 0.563882 2.22155 0
M  V30 13786 C 1344.06 -0.359132 1.58789 0
M  V30 13787 O 1345.25 -0.155857 1.77818 0
M  V30 13788 C 1342.35 -0.197894 3.38322 0
M  V30 13789 C 1341.52 0.729542 4.31273 0
M  V30 13790 C 1340.58 0.013543 5.26198 0
M  V30 13791 O 1339.61 0.639417 5.65597 0
M  V30 13792 N 1340.81 -1.25791 5.66707 0
M  V30 13793 H 1343.57 1.44623 2.62496 0
M  V30 13794 H 1341.13 0.90555 1.34207 0
M  V30 13795 H 1343.13 -0.686381 3.98837 0
M  V30 13796 H 1341.7 -0.981632 2.96787 0
M  V30 13797 H 1340.92 1.39816 3.68572 0
M  V30 13798 H 1342.2 1.35994 4.90289 0
M  V30 13799 H 1341.6 -1.78716 5.36728 0
M  V30 13800 H 1340.16 -1.69093 6.29485 0
M  V30 13801 N 1343.59 -1.35528 0.804364 0
M  V30 13802 C 1344.52 -2.32388 0.227604 0
M  V30 13803 C 1345.5 -1.57368 -0.645709 0
M  V30 13804 O 1346.69 -1.85448 -0.576441 0
M  V30 13805 C 1343.82 -3.41603 -0.62645 0
M  V30 13806 C 1342.77 -4.27743 0.148187 0
M  V30 13807 C 1342.1 -5.28259 -0.827425 0
M  V30 13808 C 1343.4 -5.04661 1.34591 0
M  V30 13809 H 1345.09 -2.80874 1.03684 0
M  V30 13810 H 1342.64 -1.3504 0.500031 0
M  V30 13811 H 1344.59 -4.08365 -1.03999 0
M  V30 13812 H 1343.32 -2.91721 -1.46855 0
M  V30 13813 H 1341.97 -3.62558 0.542874 0
M  V30 13814 H 1341.62 -4.74645 -1.66496 0
M  V30 13815 H 1341.32 -5.86763 -0.313453 0
M  V30 13816 H 1342.85 -5.97893 -1.23921 0
M  V30 13817 H 1344.26 -5.6438 1.00736 0
M  V30 13818 H 1342.66 -5.7265 1.79422 0
M  V30 13819 H 1343.73 -4.35432 2.1337 0
M  V30 13820 N 1345.07 -0.557671 -1.47404 0
M  V30 13821 C 1346.48 -0.124411 -1.86285 0
M  V30 13822 C 1346.83 1.30593 -1.46424 0
M  V30 13823 O 1345.96 1.9825 -0.867515 0
M  V30 13824 C 1346.55 -0.219005 -3.38091 0
M  V30 13825 C 1345.11 0.159221 -3.76063 0
M  V30 13826 C 1344.26 -0.566355 -2.71455 0
M  V30 13827 H 1347.21 -0.767367 -1.38914 0
M  V30 13828 H 1347.23 0.562267 -3.76323 0
M  V30 13829 H 1346.74 -1.26013 -3.67073 0
M  V30 13830 H 1344.84 1.20144 -3.52698 0
M  V30 13831 H 1344.96 -0.199662 -4.78684 0
M  V30 13832 H 1343.32 -0.00938921 -2.54698 0
M  V30 13833 H 1344.1 -1.60865 -3.03278 0
M  V30 13834 N 1346.55 1.54831 -0.294147 0
M  V30 13835 C 1347.8 2.00298 0.317605 0
M  V30 13836 C 1348.13 1.18228 1.54064 0
M  V30 13837 O 1347.4 0.257034 1.92794 0
M  V30 13838 C 1347.69 3.53602 0.680991 0
M  V30 13839 C 1347.54 4.46416 -0.550711 0
M  V30 13840 C 1348.86 4.13379 1.51016 0
M  V30 13841 H 1345.98 0.728135 0.113965 0
M  V30 13842 H 1348.62 1.85636 -0.404883 0
M  V30 13843 H 1346.77 3.66227 1.29654 0
M  V30 13844 H 1348.44 4.45707 -1.18922 0
M  V30 13845 H 1346.68 4.17294 -1.18524 0
M  V30 13846 H 1347.36 5.51423 -0.252412 0
M  V30 13847 H 1349.83 4.04148 0.99012 0
M  V30 13848 H 1348.71 5.20818 1.73321 0
M  V30 13849 H 1348.97 3.64817 2.49722 0
M  V30 13850 N 1348.03 0.0217466 1.57585 0
M  V30 13851 C 1349.27 -0.659463 1.91778 0
M  V30 13852 C 1349.61 -1.72201 0.897801 0
M  V30 13853 O 1348.88 -1.94333 -0.080509 0
M  V30 13854 C 1349.16 -1.28269 3.36481 0
M  V30 13855 C 1349.02 -0.230201 4.49211 0
M  V30 13856 C 1350.34 -2.20279 3.81005 0
M  V30 13857 H 1347.46 -0.238263 0.697424 0
M  V30 13858 H 1350.1 0.0774967 1.89842 0
M  V30 13859 H 1348.25 -1.9108 3.38262 0
M  V30 13860 H 1349.92 0.399901 4.59563 0
M  V30 13861 H 1348.16 0.445157 4.3151 0
M  V30 13862 H 1348.83 -0.705732 5.4747 0
M  V30 13863 H 1351.31 -1.67463 3.80914 0
M  V30 13864 H 1350.19 -2.60842 4.82962 0
M  V30 13865 H 1350.45 -3.09092 3.16093 0
M  V30 13866 N 1349.51 -1.55583 -0.251311 0
M  V30 13867 C 1350.75 -1.77209 -0.979966 0
M  V30 13868 C 1351.08 -0.585279 -1.85485 0
M  V30 13869 O 1350.34 0.431559 -1.90882 0
M  V30 13870 C 1350.63 -3.04291 -1.87461 0
M  V30 13871 C 1350.3 -4.35844 -1.15545 0
M  V30 13872 C 1348.96 -4.71594 -0.956679 0
M  V30 13873 C 1351.31 -5.17189 -0.645381 0
M  V30 13874 C 1348.64 -5.86227 -0.235465 0
M  V30 13875 C 1350.99 -6.32569 0.0623441 0
M  V30 13876 C 1349.66 -6.66943 0.272634 0
M  V30 13877 H 1348.93 -0.648452 -0.358595 0
M  V30 13878 H 1351.58 -1.89856 -0.250423 0
M  V30 13879 H 1349.88 -2.86637 -2.67108 0
M  V30 13880 H 1351.58 -3.18221 -2.44001 0
M  V30 13881 H 1348.17 -4.07757 -1.32031 0
M  V30 13882 H 1352.35 -4.90028 -0.786505 0
M  V30 13883 H 1347.61 -6.11369 -0.0620232 0
M  V30 13884 H 1351.78 -6.94844 0.465234 0
M  V30 13885 H 1349.41 -7.55617 0.833442 0
M  V30 13886 N 1350.98 0.516783 -1.48886 0
M  V30 13887 C 1351.89 1.6467 -1.67095 0
M  V30 13888 C 1352.91 1.64963 -0.553466 0
M  V30 13889 O 1354.09 1.83673 -0.826206 0
M  V30 13890 C 1351.15 3.01095 -1.71879 0
M  V30 13891 C 1350.21 3.11554 -2.95352 0
M  V30 13892 C 1349.44 4.41471 -2.99898 0
M  V30 13893 O 1349.67 5.29348 -2.12477 0
M  V30 13894 O 1348.6 4.56573 -3.92205 0
M  V30 13895 H 1352.43 1.52242 -2.62785 0
M  V30 13896 H 1350.01 0.69134 -1.32442 0
M  V30 13897 H 1351.89 3.82207 -1.77471 0
M  V30 13898 H 1350.57 3.1382 -0.793656 0
M  V30 13899 H 1349.48 2.29689 -2.95286 0
M  V30 13900 H 1350.81 3.03751 -3.87294 0
M  V30 13901 N 1352.46 1.37696 0.766659 0
M  V30 13902 C 1353.74 1.23715 1.51506 0
M  V30 13903 C 1354.12 -0.167091 2.10438 0
M  V30 13904 O 1353.47 -1.17526 1.95959 0
M  V30 13905 C 1353.68 2.33715 2.59188 0
M  V30 13906 C 1355.02 2.71504 3.26451 0
M  V30 13907 O 1356.05 2.32929 2.69486 0
M  V30 13908 O 1354.91 3.37981 4.29454 0
M  V30 13909 H 1352 0.483046 0.671264 0
M  V30 13910 H 1354.55 1.49489 0.803188 0
M  V30 13911 H 1353.32 3.27729 2.13797 0
M  V30 13912 H 1352.94 2.09433 3.3797 0
M  V30 13913 N 1353.94 -0.993397 1.22349 0
M  V30 13914 C 1355.19 -1.73544 1.04931 0
M  V30 13915 C 1355.52 -1.89721 -0.414661 0
M  V30 13916 O 1354.79 -1.44001 -1.30743 0
M  V30 13917 C 1355.08 -3.14131 1.7605 0
M  V30 13918 C 1354.93 -3.05604 3.30039 0
M  V30 13919 C 1356.25 -4.13294 1.51249 0
M  V30 13920 H 1353.37 -0.629915 0.382591 0
M  V30 13921 H 1356.01 -1.15737 1.50682 0
M  V30 13922 H 1354.16 -3.63483 1.37157 0
M  V30 13923 H 1355.83 -2.63876 3.78374 0
M  V30 13924 H 1354.07 -2.42421 3.59742 0
M  V30 13925 H 1354.75 -4.05086 3.74979 0
M  V30 13926 H 1357.22 -3.72696 1.85033 0
M  V30 13927 H 1356.1 -5.09781 2.03507 0
M  V30 13928 H 1356.36 -4.39855 0.444973 0
M  V30 13929 N 1355.42 -1.03311 -1.19015 0
M  V30 13930 C 1356.66 -0.733124 -1.89085 0
M  V30 13931 C 1357 0.73675 -1.79682 0
M  V30 13932 O 1356.27 1.53692 -1.19201 0
M  V30 13933 C 1356.55 -1.19028 -3.39859 0
M  V30 13934 C 1356.41 -2.72169 -3.58112 0
M  V30 13935 C 1357.73 -0.774383 -4.33234 0
M  V30 13936 H 1354.85 -0.2678 -0.686624 0
M  V30 13937 H 1357.49 -1.28378 -1.40068 0
M  V30 13938 H 1355.64 -0.721799 -3.81736 0
M  V30 13939 H 1357.31 -3.26996 -3.25379 0
M  V30 13940 H 1355.55 -3.12358 -3.01023 0
M  V30 13941 H 1356.22 -2.99213 -4.6387 0
M  V30 13942 H 1358.7 -1.17739 -3.99095 0
M  V30 13943 H 1357.58 -1.12209 -5.37308 0
M  V30 13944 H 1357.84 0.322989 -4.40919 0
M  V30 13945 N 1356.9 1.35099 -0.81154 0
M  V30 13946 C 1357.83 2.32264 -0.239925 0
M  V30 13947 C 1358.81 1.57708 0.637354 0
M  V30 13948 O 1359.99 1.85751 0.566598 0
M  V30 13949 C 1357.12 3.41931 0.608325 0
M  V30 13950 C 1356.08 4.27659 -0.170869 0
M  V30 13951 C 1355.4 5.28691 0.799398 0
M  V30 13952 C 1356.7 5.0394 -1.37266 0
M  V30 13953 H 1358.4 2.8032 -1.05172 0
M  V30 13954 H 1355.94 1.34773 -0.507185 0
M  V30 13955 H 1357.89 4.08911 1.01832 0
M  V30 13956 H 1356.62 2.92496 1.45306 0
M  V30 13957 H 1355.28 3.62265 -0.562094 0
M  V30 13958 H 1354.93 4.75521 1.63977 0
M  V30 13959 H 1354.63 5.86921 0.282331 0
M  V30 13960 H 1356.15 5.98542 1.20749 0
M  V30 13961 H 1357.56 5.63838 -1.03728 0
M  V30 13962 H 1355.96 5.7169 -1.82456 0
M  V30 13963 H 1357.03 4.34295 -2.15676 0
M  V30 13964 N 1358.37 0.56548 1.47106 0
M  V30 13965 C 1359.32 -0.198133 2.27137 0
M  V30 13966 C 1360.31 -0.877743 1.3485 0
M  V30 13967 O 1361.5 -0.774683 1.59147 0
M  V30 13968 C 1358.63 -1.22223 3.20806 0
M  V30 13969 C 1357.71 -0.545616 4.20576 0
M  V30 13970 N 1358.11 0.389029 5.04302 0
M  V30 13971 C 1356.4 -0.798517 4.38793 0
M  V30 13972 C 1357.1 0.782852 5.76408 0
M  V30 13973 N 1356.08 0.13583 5.4343 0
M  V30 13974 H 1359.88 0.520354 2.89257 0
M  V30 13975 H 1357.4 0.386013 1.57746 0
M  V30 13976 H 1359.39 -1.78332 3.76833 0
M  V30 13977 H 1358.05 -1.94172 2.60244 0
M  V30 13978 H 1359.06 0.763644 5.12239 0
M  V30 13979 H 1355.74 -1.50589 3.89396 0
M  V30 13980 H 1357.13 1.55133 6.53746 0
M  V30 13981 N 1359.85 -1.54672 0.302354 0
M  V30 13982 C 1360.78 -2.21021 -0.606828 0
M  V30 13983 C 1361.8 -1.20337 -1.09648 0
M  V30 13984 O 1362.99 -1.46923 -1.0137 0
M  V30 13985 C 1360.09 -2.84411 -1.84293 0
M  V30 13986 C 1359.26 -4.11038 -1.49554 0
M  V30 13987 C 1358.32 -4.58219 -2.58693 0
M  V30 13988 O 1357.34 -5.23387 -2.23728 0
M  V30 13989 N 1358.55 -4.30651 -3.89256 0
M  V30 13990 H 1361.31 -2.99675 -0.0388221 0
M  V30 13991 H 1358.87 -1.6142 0.124614 0
M  V30 13992 H 1360.86 -3.12906 -2.56655 0
M  V30 13993 H 1359.43 -2.09589 -2.31929 0
M  V30 13994 H 1358.65 -3.89538 -0.604492 0
M  V30 13995 H 1359.94 -4.93488 -1.23884 0
M  V30 13996 H 1359.34 -3.78445 -4.20471 0
M  V30 13997 H 1357.9 -4.63853 -4.57913 0
M  V30 13998 N 1361.33 -0.0301034 -1.57571 0
M  V30 13999 C 1362.29 0.936465 -2.09196 0
M  V30 14000 C 1363.29 1.25347 -1.00722 0
M  V30 14001 O 1364.48 1.19364 -1.26877 0
M  V30 14002 C 1361.62 2.2527 -2.55864 0
M  V30 14003 H 1362.81 0.489332 -2.95881 0
M  V30 14004 H 1360.36 0.217948 -1.54773 0
M  V30 14005 H 1361.1 2.7461 -1.72511 0
M  V30 14006 H 1360.88 2.03573 -3.35113 0
M  V30 14007 H 1362.37 2.94549 -2.96025 0
M  V30 14008 N 1362.81 1.55714 0.243056 0
M  V30 14009 C 1364.04 1.81786 0.98801 0
M  V30 14010 C 1364.45 0.606352 1.78798 0
M  V30 14011 O 1363.81 -0.425018 1.77482 0
M  V30 14012 C 1363.86 3.06121 1.92281 0
M  V30 14013 O 1363.58 4.22595 1.15521 0
M  V30 14014 C 1365.08 3.45021 2.78344 0
M  V30 14015 H 1362.3 0.604829 0.290557 0
M  V30 14016 H 1364.85 2.02779 0.26478 0
M  V30 14017 H 1363 2.87167 2.60027 0
M  V30 14018 H 1363.41 4.93088 1.78786 0
M  V30 14019 H 1364.89 4.35112 3.39678 0
M  V30 14020 H 1365.37 2.65782 3.49652 0
M  V30 14021 H 1365.97 3.66339 2.16045 0
M  V30 14022 N 1364.29 -0.50888 1.49158 0
M  V30 14023 C 1365.54 -1.26008 1.57496 0
M  V30 14024 C 1365.85 -1.9382 0.263281 0
M  V30 14025 O 1367.05 -2.70565 0.225117 0
M  V30 14026 C 1365.51 -2.28752 2.7785 0
M  V30 14027 C 1365.12 -1.66915 4.15744 0
M  V30 14028 C 1366.86 -3.0475 2.95513 0
M  V30 14029 C 1364.77 -2.67724 5.27331 0
M  V30 14030 H 1363.7 -0.473984 0.586392 0
M  V30 14031 H 1366.35 -0.534886 1.75531 0
M  V30 14032 H 1364.73 -3.044 2.53292 0
M  V30 14033 H 1365.91 -0.973131 4.50407 0
M  V30 14034 H 1364.22 -1.03336 4.03374 0
M  V30 14035 H 1366.82 -3.80121 3.76048 0
M  V30 14036 H 1367.16 -3.6189 2.05771 0
M  V30 14037 H 1367.69 -2.36217 3.20072 0
M  V30 14038 H 1364.43 -2.15375 6.19107 0
M  V30 14039 H 1363.95 -3.35589 4.97132 0
M  V30 14040 H 1365.63 -3.30304 5.56335 0
M  V30 14041 N 1365.76 -1.381 -0.759346 0
M  V30 14042 C 1366.69 -1.37578 -1.88665 0
M  V30 14043 C 1367.68 -0.242529 -1.68362 0
M  V30 14044 O 1368.86 -0.444751 -1.89039 0
M  V30 14045 C 1365.99 -1.19437 -3.26117 0
M  V30 14046 C 1364.94 -2.29905 -3.61009 0
M  V30 14047 C 1364.27 -1.96874 -4.97136 0
M  V30 14048 C 1365.57 -3.72143 -3.66479 0
M  V30 14049 H 1367.26 -2.31912 -1.89359 0
M  V30 14050 H 1364.81 -1.11632 -0.909631 0
M  V30 14051 H 1366.76 -1.17698 -4.0463 0
M  V30 14052 H 1365.49 -0.21562 -3.25887 0
M  V30 14053 H 1364.15 -2.3082 -2.84812 0
M  V30 14054 H 1363.79 -0.974979 -4.9346 0
M  V30 14055 H 1363.49 -2.70855 -5.21451 0
M  V30 14056 H 1365.02 -1.96744 -5.78035 0
M  V30 14057 H 1366.43 -3.73291 -4.35117 0
M  V30 14058 H 1364.83 -4.45282 -4.02299 0
M  V30 14059 H 1365.9 -4.04874 -2.66843 0
M  V30 14060 N 1367.24 0.986894 -1.22875 0
M  V30 14061 C 1368.65 1.54182 -1.05284 0
M  V30 14062 C 1369 1.92448 0.381856 0
M  V30 14063 O 1368.13 1.75381 1.26769 0
M  V30 14064 C 1368.72 2.80173 -1.90496 0
M  V30 14065 C 1367.28 3.32088 -1.77185 0
M  V30 14066 C 1366.43 2.05128 -1.86596 0
M  V30 14067 H 1369.38 0.807304 -1.36632 0
M  V30 14068 H 1369.4 3.52772 -1.42591 0
M  V30 14069 H 1368.91 2.52291 -2.94908 0
M  V30 14070 H 1367.02 3.64864 -0.755295 0
M  V30 14071 H 1367.13 4.02285 -2.60199 0
M  V30 14072 H 1365.49 2.18964 -1.30103 0
M  V30 14073 H 1366.28 1.79635 -2.92551 0
M  V30 14074 N 1368.72 1.0394 1.18466 0
M  V30 14075 C 1369.67 0.629352 2.22054 0
M  V30 14076 C 1370.64 -0.362187 1.62103 0
M  V30 14077 O 1371.82 -0.256457 1.89069 0
M  V30 14078 C 1368.96 -0.00282888 3.451 0
M  V30 14079 C 1368.08 1.03602 4.19393 0
M  V30 14080 C 1367.21 0.372492 5.29892 0
M  V30 14081 C 1366.25 1.39652 5.95956 0
M  V30 14082 N 1365.39 0.758053 6.97996 0
M  V30 14083 H 1370.23 1.51722 2.56485 0
M  V30 14084 H 1367.76 0.759043 1.26004 0
M  V30 14085 H 1369.72 -0.386688 4.15404 0
M  V30 14086 H 1368.35 -0.854224 3.11292 0
M  V30 14087 H 1367.4 1.53784 3.47929 0
M  V30 14088 H 1368.72 1.81387 4.64651 0
M  V30 14089 H 1367.87 -0.065642 6.06664 0
M  V30 14090 H 1366.61 -0.437462 4.85734 0
M  V30 14091 H 1365.61 1.84481 5.17926 0
M  V30 14092 H 1366.84 2.20816 6.42197 0
M  V30 14093 H 1364.78 -0.0316173 6.55992 0
M  V30 14094 H 1364.7 1.47363 7.41499 0
M  V30 14095 H 1365.97 0.344273 7.78739 0
M  V30 14096 N 1370.2 -1.34667 0.818693 0
M  V30 14097 C 1371.43 -2.02642 0.417608 0
M  V30 14098 C 1371.84 -1.61667 -0.97516 0
M  V30 14099 O 1371.2 -0.820056 -1.63038 0
M  V30 14100 C 1371.25 -3.57951 0.505295 0
M  V30 14101 O 1370.97 -3.97441 1.84317 0
M  V30 14102 C 1372.47 -4.4319 0.0985667 0
M  V30 14103 H 1369.69 -0.6496 0.168111 0
M  V30 14104 H 1372.24 -1.72032 1.10568 0
M  V30 14105 H 1370.39 -3.87166 -0.134646 0
M  V30 14106 H 1370.8 -4.92116 1.81444 0
M  V30 14107 H 1372.28 -5.51597 0.211015 0
M  V30 14108 H 1372.76 -4.28637 -0.95745 0
M  V30 14109 H 1373.36 -4.19295 0.71214 0
M  V30 14110 N 1371.68 -0.573274 -1.46804 0
M  V30 14111 C 1372.92 -0.0551522 -2.02025 0
M  V30 14112 C 1373.25 1.30577 -1.44826 0
M  V30 14113 O 1372.52 1.85514 -0.629403 0
M  V30 14114 H 1371.1 -0.0173982 -0.746797 0
M  V30 14115 H 1373.76 -0.746919 -1.8002 0
M  V30 14116 H 1372.85 0.0209326 -3.12093 0
M  V30 14117 N 1373.15 1.5451 -0.310553 0
M  V30 14118 C 1374.38 2.04739 0.29824 0
M  V30 14119 C 1374.8 1.18737 1.46788 0
M  V30 14120 O 1374.15 0.215114 1.81228 0
M  V30 14121 C 1374.21 3.53734 0.745274 0
M  V30 14122 O 1373.93 4.36468 -0.377826 0
M  V30 14123 C 1375.43 4.20001 1.41823 0
M  V30 14124 H 1372.65 0.667997 0.0634159 0
M  V30 14125 H 1375.19 1.9942 -0.452961 0
M  V30 14126 H 1373.35 3.59383 1.44648 0
M  V30 14127 H 1373.76 5.24492 -0.0280567 0
M  V30 14128 H 1375.23 5.25747 1.68209 0
M  V30 14129 H 1375.71 3.70319 2.36137 0
M  V30 14130 H 1376.32 4.18455 0.759951 0
M  V30 14131 N 1374.63 0.0384594 1.57553 0
M  V30 14132 C 1375.88 -0.639085 1.92467 0
M  V30 14133 C 1376.21 -1.71239 0.916014 0
M  V30 14134 O 1375.49 -1.94408 -0.0598928 0
M  V30 14135 C 1375.77 -1.24693 3.37822 0
M  V30 14136 C 1375.62 -0.182544 4.49429 0
M  V30 14137 C 1376.94 -2.16226 3.8332 0
M  V30 14138 H 1374.06 -0.230852 0.699912 0
M  V30 14139 H 1376.7 0.0976276 1.89749 0
M  V30 14140 H 1374.85 -1.87481 3.40269 0
M  V30 14141 H 1376.53 0.448622 4.59113 0
M  V30 14142 H 1374.77 0.4909 4.31013 0
M  V30 14143 H 1375.44 -0.647626 5.48188 0
M  V30 14144 H 1377.92 -1.63413 3.82669 0
M  V30 14145 H 1376.79 -2.55705 4.85702 0
M  V30 14146 H 1377.05 -3.05722 3.19353 0
M  V30 14147 N 1376.11 -1.55841 -0.234795 0
M  V30 14148 C 1377.34 -1.82649 -0.982547 0
M  V30 14149 C 1377.76 -0.617097 -1.77689 0
M  V30 14150 O 1377.12 0.434022 -1.76028 0
M  V30 14151 C 1377.17 -3.07319 -1.88646 0
M  V30 14152 O 1376.27 -2.85084 -2.97995 0
M  V30 14153 H 1375.61 -0.60257 -0.278936 0
M  V30 14154 H 1378.14 -2.03041 -0.252117 0
M  V30 14155 H 1378.15 -3.37073 -2.29882 0
M  V30 14156 H 1376.83 -3.94978 -1.30251 0
M  V30 14157 H 1375.4 -2.66528 -2.60801 0
M  V30 14158 N 1377.59 0.500963 -1.49426 0
M  V30 14159 C 1378.52 1.61114 -1.69011 0
M  V30 14160 C 1379.5 1.61341 -0.538813 0
M  V30 14161 O 1380.69 1.78081 -0.77466 0
M  V30 14162 C 1377.82 2.99598 -1.75666 0
M  V30 14163 C 1376.77 3.14236 -2.90585 0
M  V30 14164 C 1376.1 4.54071 -2.82354 0
M  V30 14165 C 1377.4 2.94258 -4.3152 0
M  V30 14166 H 1379.09 1.44978 -2.61957 0
M  V30 14167 H 1376.64 0.69603 -1.26061 0
M  V30 14168 H 1378.59 3.77163 -1.87953 0
M  V30 14169 H 1377.31 3.16822 -0.793186 0
M  V30 14170 H 1375.97 2.39096 -2.779 0
M  V30 14171 H 1375.62 4.68172 -1.83914 0
M  V30 14172 H 1375.32 4.64806 -3.59485 0
M  V30 14173 H 1376.84 5.33696 -2.96649 0
M  V30 14174 H 1378.26 3.61592 -4.44886 0
M  V30 14175 H 1376.65 3.16464 -5.09873 0
M  V30 14176 H 1377.72 1.90383 -4.45962 0
M  V30 14177 N 1379.07 1.38501 0.752011 0
M  V30 14178 C 1379.98 1.38094 1.8965 0
M  V30 14179 C 1380.99 0.277851 1.71767 0
M  V30 14180 O 1382.17 0.516536 1.94663 0
M  V30 14181 C 1379.23 1.2063 3.25037 0
M  V30 14182 C 1378.3 2.40758 3.55435 0
M  V30 14183 C 1377.53 2.24118 4.84362 0
M  V30 14184 O 1377.75 1.23571 5.56854 0
M  V30 14185 O 1376.69 3.12741 5.14273 0
M  V30 14186 H 1380.51 2.34532 1.92947 0
M  V30 14187 H 1378.1 1.19437 0.897504 0
M  V30 14188 H 1379.98 1.12957 4.05979 0
M  V30 14189 H 1378.65 0.272785 3.22549 0
M  V30 14190 H 1377.56 2.54006 2.74648 0
M  V30 14191 H 1378.89 3.32745 3.62686 0
M  V30 14192 N 1380.55 -0.980364 1.23396 0
M  V30 14193 C 1381.79 -1.72421 1.06765 0
M  V30 14194 C 1382.12 -1.90151 -0.394515 0
M  V30 14195 O 1381.4 -1.4538 -1.29209 0
M  V30 14196 C 1381.68 -3.12246 1.79372 0
M  V30 14197 C 1381.54 -3.02087 3.33262 0
M  V30 14198 C 1382.85 -4.11667 1.55624 0
M  V30 14199 H 1379.97 -0.625822 0.389251 0
M  V30 14200 H 1382.62 -1.14132 1.51901 0
M  V30 14201 H 1380.77 -3.62008 1.41004 0
M  V30 14202 H 1382.44 -2.59848 3.81152 0
M  V30 14203 H 1380.68 -2.38592 3.62293 0
M  V30 14204 H 1381.35 -4.01087 3.79254 0
M  V30 14205 H 1383.83 -3.70712 1.88975 0
M  V30 14206 H 1382.7 -5.07593 2.08902 0
M  V30 14207 H 1382.96 -4.39358 0.491601 0
M  V30 14208 N 1382.02 -1.04567 -1.17913 0
M  V30 14209 C 1383.44 -0.76584 -1.40025 0
M  V30 14210 C 1383.64 0.642484 -1.90983 0
M  V30 14211 O 1382.7 1.40589 -2.0974 0
M  V30 14212 C 1384.01 -1.81616 -2.39658 0
M  V30 14213 C 1385.56 -1.83765 -2.53376 0
M  V30 14214 C 1386.03 -2.87803 -3.56277 0
M  V30 14215 N 1387.52 -2.86726 -3.63789 0
M  V30 14216 C 1388.26 -3.63876 -4.4315 0
M  V30 14217 N 1387.75 -4.50793 -5.26077 0
M  V30 14218 N 1389.55 -3.52344 -4.37962 0
M  V30 14219 H 1381.7 -1.95442 -0.831647 0
M  V30 14220 H 1383.96 -0.84593 -0.42791 0
M  V30 14221 H 1383.67 -2.8266 -2.09275 0
M  V30 14222 H 1383.54 -1.65251 -3.39075 0
M  V30 14223 H 1385.93 -0.833896 -2.83073 0
M  V30 14224 H 1386.01 -2.04208 -1.54055 0
M  V30 14225 H 1385.65 -3.88361 -3.2732 0
M  V30 14226 H 1385.58 -2.64614 -4.55288 0
M  V30 14227 H 1388.07 -2.237 -3.04576 0
M  V30 14228 H 1388.39 -5.0636 -5.83798 0
M  V30 14229 H 1386.73 -4.54858 -5.2548 0
M  V30 14230 H 1389.92 -2.8384 -3.72226 0
M  V30 14231 H 1390.1 -4.12718 -4.99568 0
M  V30 14232 N 1383.5 1.34231 -0.825823 0
M  V30 14233 C 1384.43 2.31997 -0.264546 0
M  V30 14234 C 1385.41 1.58375 0.620592 0
M  V30 14235 O 1386.6 1.86341 0.546865 0
M  V30 14236 C 1383.73 3.42557 0.572025 0
M  V30 14237 C 1382.68 4.27454 -0.216219 0
M  V30 14238 C 1382.01 5.29509 0.743279 0
M  V30 14239 C 1383.31 5.02456 -1.42603 0
M  V30 14240 H 1385 2.79189 -1.08139 0
M  V30 14241 H 1382.55 1.34227 -0.521451 0
M  V30 14242 H 1384.5 4.09968 0.974889 0
M  V30 14243 H 1383.22 2.94021 1.42195 0
M  V30 14244 H 1381.88 3.61649 -0.600485 0
M  V30 14245 H 1381.53 4.77234 1.58924 0
M  V30 14246 H 1381.23 5.87188 0.220064 0
M  V30 14247 H 1382.76 5.99789 1.14394 0
M  V30 14248 H 1384.17 5.62706 -1.09702 0
M  V30 14249 H 1382.57 5.69723 -1.88509 0
M  V30 14250 H 1383.64 4.31983 -2.2027 0
M  V30 14251 N 1384.98 0.581051 1.46498 0
M  V30 14252 C 1385.91 -0.140957 2.33074 0
M  V30 14253 C 1386.89 -0.885323 1.45245 0
M  V30 14254 O 1388.08 -0.86111 1.74065 0
M  V30 14255 C 1385.21 -1.15625 3.27488 0
M  V30 14256 C 1384.16 -0.526829 4.24745 0
M  V30 14257 C 1383.49 -1.64847 5.08655 0
M  V30 14258 C 1384.79 0.53492 5.19554 0
M  V30 14259 H 1386.48 0.581888 2.93691 0
M  V30 14260 H 1384.03 0.281278 1.41226 0
M  V30 14261 H 1385.98 -1.6697 3.8691 0
M  V30 14262 H 1384.7 -1.90935 2.64974 0
M  V30 14263 H 1383.36 -0.0344738 3.66584 0
M  V30 14264 H 1383.01 -2.3912 4.42528 0
M  V30 14265 H 1382.71 -1.23298 5.74518 0
M  V30 14266 H 1384.23 -2.16472 5.7094 0
M  V30 14267 H 1385.65 0.106606 5.73201 0
M  V30 14268 H 1384.04 0.870639 5.93751 0
M  V30 14269 H 1385.11 1.42184 4.63586 0
M  V30 14270 N 1386.46 -1.54343 0.318742 0
M  V30 14271 C 1387.37 -2.27856 -0.558442 0
M  V30 14272 C 1388.38 -1.32029 -1.13333 0
M  V30 14273 O 1389.56 -1.65037 -1.15433 0
M  V30 14274 C 1386.62 -3.01842 -1.70565 0
M  V30 14275 C 1385.69 -4.13245 -1.16305 0
M  V30 14276 C 1384.92 -4.83693 -2.25559 0
M  V30 14277 O 1385.14 -4.53621 -3.4581 0
M  V30 14278 O 1384.08 -5.70708 -1.91249 0
M  V30 14279 H 1387.9 -3.03676 0.0384247 0
M  V30 14280 H 1385.49 -1.4916 0.0845936 0
M  V30 14281 H 1387.37 -3.48189 -2.37365 0
M  V30 14282 H 1386.04 -2.28902 -2.28879 0
M  V30 14283 H 1384.95 -3.71258 -0.460274 0
M  V30 14284 H 1386.28 -4.88214 -0.625111 0
M  V30 14285 N 1387.94 -0.0468143 -1.5753 0
M  V30 14286 C 1388.9 0.914225 -2.10177 0
M  V30 14287 C 1389.9 1.24271 -1.02045 0
M  V30 14288 O 1391.09 1.18012 -1.28136 0
M  V30 14289 C 1388.22 2.22544 -2.58238 0
M  V30 14290 H 1389.41 0.457922 -2.96383 0
M  V30 14291 H 1386.97 0.20152 -1.54995 0
M  V30 14292 H 1387.7 2.72765 -1.75413 0
M  V30 14293 H 1387.49 2.00007 -3.37253 0
M  V30 14294 H 1388.98 2.91392 -2.99133 0
M  V30 14295 N 1389.41 1.55964 0.226527 0
M  V30 14296 C 1390.64 1.83168 0.972846 0
M  V30 14297 C 1391.06 0.626512 1.7736 0
M  V30 14298 O 1390.42 -0.42468 1.76256 0
M  V30 14299 C 1390.47 3.08315 1.87014 0
M  V30 14300 O 1389.57 2.8666 2.96479 0
M  V30 14301 H 1388.92 0.604041 0.275736 0
M  V30 14302 H 1391.45 2.03172 0.241345 0
M  V30 14303 H 1391.46 3.38288 2.28091 0
M  V30 14304 H 1390.13 3.95663 1.28154 0
M  V30 14305 H 1388.71 2.67907 2.59384 0
M  V30 14306 N 1390.89 -0.493031 1.4969 0
M  V30 14307 C 1392.31 -0.824908 1.36629 0
M  V30 14308 C 1392.51 -1.97378 0.405487 0
M  V30 14309 O 1391.56 -2.51993 -0.159933 0
M  V30 14310 C 1392.88 -1.15761 2.77524 0
M  V30 14311 C 1394.43 -1.26536 2.86282 0
M  V30 14312 C 1394.9 -1.63131 4.27963 0
M  V30 14313 N 1396.39 -1.70165 4.30811 0
M  V30 14314 C 1397.13 -1.99942 5.37411 0
M  V30 14315 N 1396.62 -2.27888 6.54247 0
M  V30 14316 N 1398.42 -2.0126 5.24834 0
M  V30 14317 H 1390.57 0.264433 2.10748 0
M  V30 14318 H 1392.83 0.0557306 0.94636 0
M  V30 14319 H 1392.54 -0.386714 3.49567 0
M  V30 14320 H 1392.41 -2.09915 3.13393 0
M  V30 14321 H 1394.8 -2.02696 2.14472 0
M  V30 14322 H 1394.88 -0.304137 2.53986 0
M  V30 14323 H 1394.52 -0.875184 5.00303 0
M  V30 14324 H 1394.45 -2.60367 4.5773 0
M  V30 14325 H 1396.94 -1.50696 3.46553 0
M  V30 14326 H 1397.26 -2.4982 7.31307 0
M  V30 14327 H 1395.6 -2.25327 6.57459 0
M  V30 14328 H 1398.79 -1.78909 4.32561 0
M  V30 14329 H 1398.96 -2.24131 6.08004 0
M  V30 14330 N 1392.37 -1.38898 -0.744656 0
M  V30 14331 C 1393.33 -1.36633 -1.84022 0
M  V30 14332 C 1394.33 -0.265187 -1.58598 0
M  V30 14333 O 1395.52 -0.522569 -1.66177 0
M  V30 14334 C 1392.66 -1.12938 -3.21649 0
M  V30 14335 H 1393.85 -2.34111 -1.87435 0
M  V30 14336 H 1391.4 -1.24322 -0.947302 0
M  V30 14337 H 1392.14 -0.161027 -3.239 0
M  V30 14338 H 1391.92 -1.9267 -3.41498 0
M  V30 14339 H 1393.41 -1.14071 -4.01718 0
M  V30 14340 N 1393.85 0.973806 -1.23914 0
M  V30 14341 C 1395.1 1.71598 -1.07519 0
M  V30 14342 C 1395.42 1.90613 0.386926 0
M  V30 14343 O 1394.68 1.46056 1.30254 0
M  V30 14344 C 1394.98 3.11441 -1.75326 0
M  V30 14345 C 1394.64 3.12286 -3.25251 0
M  V30 14346 C 1393.31 3.12224 -3.66155 0
M  V30 14347 C 1395.66 3.0709 -4.21124 0
M  V30 14348 C 1392.99 3.0469 -5.01379 0
M  V30 14349 C 1395.34 3.01098 -5.56348 0
M  V30 14350 C 1394 2.99362 -5.96606 0
M  V30 14351 H 1393.27 0.627922 -0.39344 0
M  V30 14352 H 1395.92 1.13912 -1.53936 0
M  V30 14353 H 1394.22 3.72555 -1.21286 0
M  V30 14354 H 1395.92 3.67649 -1.60111 0
M  V30 14355 H 1392.51 3.13096 -2.92693 0
M  V30 14356 H 1396.69 3.06272 -3.90527 0
M  V30 14357 H 1391.95 3.01703 -5.31776 0
M  V30 14358 H 1396.12 2.96036 -6.30346 0
M  V30 14359 H 1393.75 2.93279 -7.0135 0
M  V30 14360 N 1395.33 1.05191 1.17357 0
M  V30 14361 C 1396.24 0.663617 2.25018 0
M  V30 14362 C 1397.25 -0.315299 1.71119 0
M  V30 14363 O 1398.43 -0.167398 2.00703 0
M  V30 14364 C 1395.49 0.0443307 3.46672 0
M  V30 14365 C 1394.55 1.07369 4.15656 0
M  V30 14366 C 1393.79 0.483864 5.31502 0
M  V30 14367 O 1394.01 -0.706692 5.66005 0
M  V30 14368 O 1392.94 1.21812 5.89445 0
M  V30 14369 H 1396.77 1.56088 2.60519 0
M  V30 14370 H 1394.36 0.823474 1.24657 0
M  V30 14371 H 1396.24 -0.299839 4.20332 0
M  V30 14372 H 1394.91 -0.826579 3.12969 0
M  V30 14373 H 1393.82 1.46985 3.44015 0
M  V30 14374 H 1395.15 1.91575 4.53387 0
M  V30 14375 N 1396.8 -1.33791 0.83293 0
M  V30 14376 C 1398.05 -1.98266 0.426412 0
M  V30 14377 C 1398.38 -1.65848 -1.01035 0
M  V30 14378 O 1397.66 -0.93528 -1.70537 0
M  V30 14379 C 1397.94 -3.54356 0.640586 0
M  V30 14380 C 1397.79 -3.96482 2.12419 0
M  V30 14381 C 1399.11 -4.40022 0.0829237 0
M  V30 14382 H 1396.23 -0.720213 0.156404 0
M  V30 14383 H 1398.87 -1.58527 1.04735 0
M  V30 14384 H 1397.02 -3.88338 0.11204 0
M  V30 14385 H 1398.7 -3.72786 2.71714 0
M  V30 14386 H 1396.94 -3.46429 2.61092 0
M  V30 14387 H 1397.61 -5.05179 2.22482 0
M  V30 14388 H 1400.09 -4.12651 0.534634 0
M  V30 14389 H 1398.96 -5.48272 0.262511 0
M  V30 14390 H 1399.22 -4.30341 -1.01287 0
M  V30 14391 N 1398.28 -0.588812 -1.46187 0
M  V30 14392 C 1399.51 -0.0806571 -2.07243 0
M  V30 14393 C 1399.93 1.21766 -1.43369 0
M  V30 14394 O 1399.29 1.73694 -0.51964 0
M  V30 14395 C 1399.34 0.065267 -3.60541 0
M  V30 14396 O 1398.44 1.12026 -3.96893 0
M  V30 14397 H 1397.78 -0.0655622 -0.660755 0
M  V30 14398 H 1400.31 -0.813489 -1.87733 0
M  V30 14399 H 1400.32 0.269494 -4.07109 0
M  V30 14400 H 1399 -0.88284 -4.06422 0
M  V30 14401 H 1397.58 0.894 -3.62025 0
M  V30 14402 N 1399.76 1.54172 -0.326923 0
M  V30 14403 C 1400.67 2.28149 0.546351 0
M  V30 14404 C 1401.69 1.32628 1.12631 0
M  V30 14405 O 1402.86 1.65647 1.14556 0
M  V30 14406 C 1399.93 3.02742 1.68962 0
M  V30 14407 C 1398.99 4.13856 1.14112 0
M  V30 14408 C 1398.22 4.84882 2.2299 0
M  V30 14409 O 1398.44 4.55448 3.43399 0
M  V30 14410 O 1397.38 5.71714 1.8822 0
M  V30 14411 H 1401.2 3.03651 -0.0545288 0
M  V30 14412 H 1398.79 1.49113 -0.0925027 0
M  V30 14413 H 1400.67 3.49443 2.35515 0
M  V30 14414 H 1399.35 2.30113 2.27662 0
M  V30 14415 H 1398.25 3.71497 0.440579 0
M  V30 14416 H 1399.59 4.88539 0.599211 0
M  V30 14417 N 1401.24 0.0551678 1.57503 0
M  V30 14418 C 1402.19 -0.935665 2.12951 0
M  V30 14419 C 1403.18 -1.31954 1.06229 0
M  V30 14420 O 1404.39 -1.29873 1.24632 0
M  V30 14421 H 1400.76 -0.319618 0.680697 0
M  V30 14422 H 1402.73 -0.442937 2.95094 0
M  V30 14423 C 1401.48 -2.19977 2.69268 0
M  V30 14424 H 1400.8 -1.91319 3.51051 0
M  V30 14425 H 1402.24 -2.87456 3.11681 0
M  V30 14426 C 1400.7 -2.94714 1.63233 0
M  V30 14427 O 1401.23 -3.87803 1.04747 0
M  V30 14428 N 1399.44 -2.57518 1.34659 0
M  V30 14429 H 1398.99 -1.81894 1.82407 0
M  V30 14430 H 1398.94 -3.07829 0.639425 0
M  V30 14431 N 1402.72 -1.56081 -0.218252 0
M  V30 14432 C 1403.96 -1.78893 -0.940296 0
M  V30 14433 C 1404.29 -0.62425 -1.84738 0
M  V30 14434 O 1403.56 0.358686 -1.92588 0
M  V30 14435 H 1402.14 -0.659828 -0.350193 0
M  V30 14436 H 1404.8 -1.93546 -0.229316 0
M  V30 14437 H 1403.89 -2.71167 -1.54516 0
M  V30 14438 N 1404.2 0.485086 -1.49949 0
M  V30 14439 C 1405.14 1.60559 -1.68296 0
M  V30 14440 C 1406.14 1.60264 -0.548802 0
M  V30 14441 O 1407.34 1.64581 -0.728905 0
M  V30 14442 H 1403.72 0.532529 -0.530958 0
M  V30 14443 H 1405.69 1.42242 -2.62316 0
M  V30 14444 C 1404.44 2.98596 -1.78145 0
M  V30 14445 H 1403.76 2.99536 -2.64799 0
M  V30 14446 H 1405.2 3.76492 -1.95012 0
M  V30 14447 C 1403.66 3.32708 -0.529828 0
M  V30 14448 O 1404.19 4.00281 0.337347 0
M  V30 14449 N 1402.4 2.87998 -0.388012 0
M  V30 14450 H 1401.94 2.33182 -1.0947 0
M  V30 14451 H 1401.9 3.11187 0.448307 0
M  V30 14452 N 1405.67 1.39291 0.737279 0
M  V30 14453 C 1406.6 1.40562 1.86452 0
M  V30 14454 C 1407.58 0.269283 1.67955 0
M  V30 14455 O 1408.77 0.474769 1.88307 0
M  V30 14456 C 1405.9 1.2461 3.24175 0
M  V30 14457 C 1404.85 2.35619 3.57306 0
M  V30 14458 C 1404.18 2.04758 4.93941 0
M  V30 14459 C 1405.48 3.77927 3.60512 0
M  V30 14460 H 1407.17 2.34896 1.85646 0
M  V30 14461 H 1404.72 1.13065 0.891756 0
M  V30 14462 H 1406.67 1.2412 4.02706 0
M  V30 14463 H 1405.4 0.267438 3.25503 0
M  V30 14464 H 1404.06 2.35322 2.81104 0
M  V30 14465 H 1403.7 1.05336 4.91847 0
M  V30 14466 H 1403.4 2.79117 5.17076 0
M  V30 14467 H 1404.93 2.05915 5.74832 0
M  V30 14468 H 1406.34 3.80166 4.29123 0
M  V30 14469 H 1404.74 4.51626 3.95164 0
M  V30 14470 H 1405.81 4.09068 2.60368 0
M  V30 14471 N 1407.15 -0.967221 1.24429 0
M  V30 14472 C 1408.4 -1.71279 1.08588 0
M  V30 14473 C 1408.73 -1.90558 -0.374325 0
M  V30 14474 O 1408.01 -1.46742 -1.27659 0
M  V30 14475 C 1408.29 -3.10326 1.82674 0
M  V30 14476 C 1408.14 -2.98535 3.36447 0
M  V30 14477 C 1409.46 -4.09993 1.59981 0
M  V30 14478 H 1406.58 -0.621658 0.395867 0
M  V30 14479 H 1409.22 -1.12514 1.53103 0
M  V30 14480 H 1407.37 -3.60492 1.44836 0
M  V30 14481 H 1409.04 -2.55791 3.83886 0
M  V30 14482 H 1407.29 -2.34736 3.64803 0
M  V30 14483 H 1407.96 -3.97041 3.83487 0
M  V30 14484 H 1410.43 -3.68687 1.92897 0
M  V30 14485 H 1409.31 -5.05349 2.14274 0
M  V30 14486 H 1409.57 -4.38812 0.538173 0
M  V30 14487 N 1408.63 -1.05812 -1.16797 0
M  V30 14488 C 1409.88 -0.773066 -1.87487 0
M  V30 14489 C 1410.21 0.698471 -1.81204 0
M  V30 14490 O 1409.48 1.51129 -1.22434 0
M  V30 14491 C 1409.77 -1.2621 -3.37258 0
M  V30 14492 C 1409.62 -2.79704 -3.52258 0
M  V30 14493 C 1410.94 -0.866104 -4.31494 0
M  V30 14494 H 1408.06 -0.282304 -0.680789 0
M  V30 14495 H 1410.7 -1.3132 -1.37314 0
M  V30 14496 H 1408.85 -0.802608 -3.80119 0
M  V30 14497 H 1410.52 -3.33824 -3.1837 0
M  V30 14498 H 1408.76 -3.18673 -2.94329 0
M  V30 14499 H 1409.44 -3.08985 -4.57419 0
M  V30 14500 H 1411.91 -1.26178 -3.96508 0
M  V30 14501 H 1410.79 -1.23581 -5.34807 0
M  V30 14502 H 1411.05 0.229391 -4.41504 0
M  V30 14503 N 1410.11 1.33347 -0.840014 0
M  V30 14504 C 1411.33 2.02485 -0.448856 0
M  V30 14505 C 1411.76 1.62781 0.942543 0
M  V30 14506 O 1411.12 0.82099 1.61646 0
M  V30 14507 C 1411.16 3.55928 -0.578582 0
M  V30 14508 O 1410.27 4.10507 0.394695 0
M  V30 14509 H 1409.61 0.63848 -0.182317 0
M  V30 14510 H 1412.14 1.70221 -1.13516 0
M  V30 14511 H 1412.15 4.05391 -0.460653 0
M  V30 14512 H 1410.82 3.8417 -1.5933 0
M  V30 14513 H 1409.4 3.72164 0.234227 0
M  V30 14514 N 1411.59 0.596556 1.45873 0
M  V30 14515 C 1412.83 0.0872856 2.01911 0
M  V30 14516 C 1413.15 -1.28257 1.46885 0
M  V30 14517 O 1412.42 -1.84489 0.658837 0
M  V30 14518 H 1411 0.0292769 0.746426 0
M  V30 14519 H 1413.67 0.775464 1.78809 0
M  V30 14520 H 1412.76 0.0287213 3.12087 0
M  V30 14521 N 1413.06 -1.53996 0.335095 0
M  V30 14522 C 1414.01 -2.24736 -0.52559 0
M  V30 14523 C 1414.98 -1.24244 -1.10239 0
M  V30 14524 O 1416.17 -1.52955 -1.14058 0
M  V30 14525 C 1413.31 -3.01732 -1.67487 0
M  V30 14526 C 1412.42 -4.17062 -1.1262 0
M  V30 14527 C 1411.55 -4.81563 -2.2421 0
M  V30 14528 C 1410.59 -5.88977 -1.6665 0
M  V30 14529 N 1409.73 -6.47293 -2.71949 0
M  V30 14530 H 1414.57 -2.97881 0.0842008 0
M  V30 14531 H 1412.11 -1.47003 0.0533254 0
M  V30 14532 H 1414.06 -3.44626 -2.35135 0
M  V30 14533 H 1412.69 -2.30899 -2.25578 0
M  V30 14534 H 1411.75 -3.78869 -0.340917 0
M  V30 14535 H 1413.06 -4.94346 -0.665113 0
M  V30 14536 H 1412.21 -5.27486 -2.9974 0
M  V30 14537 H 1410.95 -4.03685 -2.73659 0
M  V30 14538 H 1409.96 -5.42446 -0.89623 0
M  V30 14539 H 1411.18 -6.68758 -1.18064 0
M  V30 14540 H 1409.13 -5.72283 -3.20668 0
M  V30 14541 H 1409.04 -7.20024 -2.30438 0
M  V30 14542 H 1410.31 -6.97869 -3.47273 0
M  V30 14543 N 1414.54 -0.0635198 -1.57472 0
M  V30 14544 C 1415.79 0.608384 -1.93459 0
M  V30 14545 C 1416.12 1.6976 -0.943141 0
M  V30 14546 O 1415.4 1.94478 0.0289567 0
M  V30 14547 C 1415.68 1.19302 -3.39763 0
M  V30 14548 C 1415.53 0.11102 -4.49663 0
M  V30 14549 C 1416.85 2.101 -3.86712 0
M  V30 14550 H 1413.97 0.219688 -0.703496 0
M  V30 14551 H 1416.61 -0.127803 -1.8957 0
M  V30 14552 H 1414.76 1.82044 -3.43209 0
M  V30 14553 H 1416.43 -0.521606 -4.58342 0
M  V30 14554 H 1414.68 -0.559408 -4.30178 0
M  V30 14555 H 1415.35 0.560332 -5.49149 0
M  V30 14556 H 1417.82 1.57305 -3.8522 0
M  V30 14557 H 1416.7 2.47945 -4.89708 0
M  V30 14558 H 1416.96 3.00603 -3.24177 0
M  V30 14559 N 1416.02 1.56195 0.209972 0
M  V30 14560 C 1417.25 1.83574 0.947852 0
M  V30 14561 C 1417.66 0.641947 1.77977 0
M  V30 14562 O 1417 -0.398794 1.79319 0
M  V30 14563 C 1417.06 3.0485 1.90543 0
M  V30 14564 C 1416.73 4.39375 1.25692 0
M  V30 14565 C 1417.72 5.15932 0.641107 0
M  V30 14566 C 1415.41 4.86104 1.26522 0
M  V30 14567 C 1417.4 6.37386 0.0422484 0
M  V30 14568 C 1415.09 6.07498 0.662523 0
M  V30 14569 C 1416.09 6.8298 0.0521007 0
M  V30 14570 O 1415.78 8.02076 -0.541192 0
M  V30 14571 H 1415.51 0.614001 0.282805 0
M  V30 14572 H 1418.06 2.04144 0.226767 0
M  V30 14573 H 1416.29 2.80127 2.66582 0
M  V30 14574 H 1417.98 3.19001 2.50984 0
M  V30 14575 H 1418.75 4.80931 0.626938 0
M  V30 14576 H 1414.63 4.27318 1.72974 0
M  V30 14577 H 1418.17 6.96244 -0.434823 0
M  V30 14578 H 1414.07 6.4197 0.674144 0
M  V30 14579 H 1414.83 8.17335 -0.43664 0
M  V30 14580 N 1417.5 -0.477127 1.50204 0
M  V30 14581 C 1418.43 -1.59319 1.64773 0
M  V30 14582 C 1419.44 -1.53951 0.529427 0
M  V30 14583 O 1420.63 -1.59449 0.802388 0
M  V30 14584 C 1417.73 -2.98185 1.61055 0
M  V30 14585 C 1416.9 -3.28486 2.88817 0
M  V30 14586 C 1415.96 -4.46878 2.77825 0
M  V30 14587 O 1414.99 -4.47483 3.51778 0
M  V30 14588 N 1416.19 -5.48187 1.90974 0
M  V30 14589 H 1418.96 -1.4724 2.61037 0
M  V30 14590 H 1416.52 -0.66544 1.47592 0
M  V30 14591 H 1418.51 -3.75345 1.51323 0
M  V30 14592 H 1417.08 -3.04064 0.725509 0
M  V30 14593 H 1416.3 -2.39997 3.12722 0
M  V30 14594 H 1417.59 -3.4554 3.7347 0
M  V30 14595 H 1416.99 -5.50515 1.30192 0
M  V30 14596 H 1415.54 -6.24355 1.87148 0
M  V30 14597 N 1418.98 -1.3968 -0.729882 0
M  V30 14598 C 1420.22 -1.38389 -1.49064 0
M  V30 14599 C 1420.58 0.0186997 -1.92391 0
M  V30 14600 O 1419.87 0.986266 -1.64266 0
M  V30 14601 C 1420.06 -2.29499 -2.7398 0
M  V30 14602 C 1419.89 -3.78478 -2.42868 0
M  V30 14603 C 1418.66 -4.47375 -2.34911 0
M  V30 14604 C 1420.86 -4.70329 -2.08074 0
M  V30 14605 N 1418.84 -5.81662 -1.96324 0
M  V30 14606 C 1420.21 -5.93305 -1.79971 0
M  V30 14607 C 1422.27 -4.58302 -1.94586 0
M  V30 14608 C 1420.97 -7.05596 -1.3974 0
M  V30 14609 C 1423 -5.7052 -1.55758 0
M  V30 14610 C 1422.36 -6.92572 -1.28544 0
M  V30 14611 H 1418.46 -0.56167 -0.544106 0
M  V30 14612 H 1421.04 -1.75273 -0.847782 0
M  V30 14613 H 1419.21 -1.94765 -3.36037 0
M  V30 14614 H 1420.95 -2.19166 -3.40218 0
M  V30 14615 H 1417.7 -4.00878 -2.52178 0
M  V30 14616 H 1418.13 -6.5274 -1.79608 0
M  V30 14617 H 1422.77 -3.6447 -2.14292 0
M  V30 14618 H 1420.49 -7.99323 -1.18776 0
M  V30 14619 H 1424.07 -5.63204 -1.45921 0
M  V30 14620 H 1422.95 -7.77932 -0.989491 0
M  V30 14621 N 1420.45 0.960609 -1.2494 0
M  V30 14622 C 1421.73 1.68035 -1.00118 0
M  V30 14623 C 1422.11 2.057 0.474399 0
M  V30 14624 O 1421.46 1.76569 1.45036 0
M  V30 14625 C 1421.67 2.90708 -1.93106 0
M  V30 14626 C 1423.02 3.62792 -2.20606 0
M  V30 14627 O 1424.04 3.00778 -1.90816 0
M  V30 14628 O 1422.9 4.74443 -2.71231 0
M  V30 14629 H 1419.99 0.734939 -0.379202 0
M  V30 14630 H 1422.54 1.01407 -1.36069 0
M  V30 14631 H 1421.31 2.59619 -2.92769 0
M  V30 14632 H 1420.94 3.65068 -1.57515 0
M  V30 14633 N 1421.93 1.0643 1.16234 0
M  V30 14634 C 1423.21 0.695256 1.82827 0
M  V30 14635 C 1423.59 -0.823242 1.94386 0
M  V30 14636 O 1422.94 -1.73406 1.48804 0
M  V30 14637 C 1423.15 1.3988 3.19741 0
M  V30 14638 C 1424.5 1.54489 3.95498 0
M  V30 14639 O 1425.52 1.35882 3.29264 0
M  V30 14640 O 1424.38 1.85027 5.14225 0
M  V30 14641 H 1421.47 0.246285 0.789476 0
M  V30 14642 H 1424.02 1.16466 1.23426 0
M  V30 14643 H 1422.79 2.43419 3.06371 0
M  V30 14644 H 1422.41 0.91957 3.8682 0
M  V30 14645 N 1423.41 -1.329 0.847073 0
M  V30 14646 C 1424.82 -1.79813 0.502394 0
M  V30 14647 C 1425.17 -1.70017 -0.979218 0
M  V30 14648 O 1424.3 -1.25427 -1.76344 0
M  V30 14649 C 1424.89 -3.26485 0.905154 0
M  V30 14650 C 1423.45 -3.71383 0.612489 0
M  V30 14651 C 1422.6 -2.54157 1.10903 0
M  V30 14652 H 1425.55 -1.20306 1.035 0
M  V30 14653 H 1425.57 -3.79872 0.218476 0
M  V30 14654 H 1425.08 -3.33583 1.98353 0
M  V30 14655 H 1423.18 -3.69806 -0.45548 0
M  V30 14656 H 1423.3 -4.64507 1.17347 0
M  V30 14657 H 1421.66 -2.49134 0.529576 0
M  V30 14658 H 1422.44 -2.64013 2.19435 0
M  V30 14659 N 1424.89 -0.604284 -1.45555 0
M  V30 14660 C 1426.17 -0.0303285 -1.95576 0
M  V30 14661 C 1426.55 1.43661 -1.54676 0
M  V30 14662 O 1425.89 2.13747 -0.807731 0
M  V30 14663 C 1426.1 -0.22497 -3.48274 0
M  V30 14664 C 1427.45 -0.104042 -4.24473 0
M  V30 14665 O 1428.48 -0.154919 -3.55863 0
M  V30 14666 O 1427.33 0.0136297 -5.46498 0
M  V30 14667 H 1424.43 0.0376106 -0.826144 0
M  V30 14668 H 1426.97 -0.674114 -1.55736 0
M  V30 14669 H 1425.75 -1.24391 -3.71002 0
M  V30 14670 H 1425.37 0.454234 -3.94997 0
M  V30 14671 N 1426.37 1.53816 -0.343257 0
M  V30 14672 C 1427.78 1.86169 0.140709 0
M  V30 14673 C 1428.13 1.26449 1.50017 0
M  V30 14674 O 1427.25 0.577955 2.08539 0
M  V30 14675 C 1427.85 3.37785 0.262097 0
M  V30 14676 C 1426.41 3.70016 0.690294 0
M  V30 14677 C 1425.55 2.7674 -0.17614 0
M  V30 14678 H 1428.51 1.48383 -0.562863 0
M  V30 14679 H 1428.53 3.64564 1.08964 0
M  V30 14680 H 1428.04 3.81221 -0.727481 0
M  V30 14681 H 1426.14 3.32124 1.68891 0
M  V30 14682 H 1426.25 4.76686 0.480388 0
M  V30 14683 H 1424.62 2.52263 0.351476 0
M  V30 14684 H 1425.4 3.23006 -1.16285 0
M  V30 14685 N 1427.84 0.0718701 1.57436 0
M  V30 14686 C 1429.26 -0.28476 1.57039 0
M  V30 14687 C 1429.46 -1.70032 1.08127 0
M  V30 14688 O 1428.52 -2.41191 0.747189 0
M  V30 14689 C 1429.83 -0.0943482 3.00552 0
M  V30 14690 C 1431.38 -0.163879 3.12571 0
M  V30 14691 C 1431.85 -0.00174658 4.58 0
M  V30 14692 N 1433.34 -0.0573489 4.63164 0
M  V30 14693 C 1434.08 0.0436849 5.73383 0
M  V30 14694 N 1433.57 0.198243 6.92516 0
M  V30 14695 N 1435.37 -0.0133856 5.62098 0
M  V30 14696 H 1427.52 0.99702 1.87545 0
M  V30 14697 H 1429.78 0.388822 0.864593 0
M  V30 14698 H 1429.49 0.882445 3.40449 0
M  V30 14699 H 1429.36 -0.846636 3.67576 0
M  V30 14700 H 1431.75 -1.13116 2.7256 0
M  V30 14701 H 1431.83 0.619513 2.48185 0
M  V30 14702 H 1431.47 0.9623 4.98701 0
M  V30 14703 H 1431.4 -0.804543 5.20418 0
M  V30 14704 H 1433.89 -0.175212 3.77494 0
M  V30 14705 H 1434.21 0.267479 7.72337 0
M  V30 14706 H 1432.55 0.233606 6.94607 0
M  V30 14707 H 1435.74 -0.132835 4.67911 0
M  V30 14708 H 1435.92 0.0688076 6.47963 0
M  V30 14709 N 1429.32 -1.56304 -0.201686 0
M  V30 14710 C 1430.25 -1.97046 -1.25281 0
M  V30 14711 C 1431.23 -0.841458 -1.47829 0
M  V30 14712 O 1432.42 -1.10529 -1.59678 0
M  V30 14713 C 1429.55 -2.30429 -2.59845 0
M  V30 14714 C 1428.5 -3.46006 -2.5192 0
M  V30 14715 C 1427.83 -3.65047 -3.90697 0
M  V30 14716 C 1429.13 -4.80391 -2.04992 0
M  V30 14717 H 1430.82 -2.85099 -0.914272 0
M  V30 14718 H 1428.37 -1.37166 -0.438359 0
M  V30 14719 H 1430.32 -2.57525 -3.33555 0
M  V30 14720 H 1429.05 -1.39251 -2.95426 0
M  V30 14721 H 1427.7 -3.18991 -1.80667 0
M  V30 14722 H 1427.35 -2.71211 -4.2362 0
M  V30 14723 H 1427.05 -4.42796 -3.86271 0
M  V30 14724 H 1428.58 -3.94512 -4.66039 0
M  V30 14725 H 1429.99 -5.06561 -2.68456 0
M  V30 14726 H 1428.39 -5.61563 -2.11582 0
M  V30 14727 H 1429.46 -4.74416 -1.00288 0
M  V30 14728 N 1430.8 0.469154 -1.50455 0
M  V30 14729 C 1432.05 1.22109 -1.61541 0
M  V30 14730 C 1432.38 1.91905 -0.316646 0
M  V30 14731 O 1431.63 1.82845 0.697585 0
M  V30 14732 C 1431.93 2.28673 -2.7467 0
M  V30 14733 C 1431.6 1.76115 -4.15083 0
M  V30 14734 C 1430.26 1.61503 -4.53288 0
M  V30 14735 C 1432.61 1.37145 -5.02833 0
M  V30 14736 C 1429.94 1.06346 -5.76981 0
M  V30 14737 C 1432.29 0.834294 -6.27074 0
M  V30 14738 C 1430.95 0.674814 -6.6408 0
M  V30 14739 H 1430.22 0.44683 -0.591121 0
M  V30 14740 H 1432.87 0.516821 -1.84394 0
M  V30 14741 H 1431.18 3.05015 -2.45912 0
M  V30 14742 H 1432.87 2.86615 -2.80451 0
M  V30 14743 H 1429.46 1.88457 -3.84944 0
M  V30 14744 H 1433.65 1.47268 -4.73947 0
M  V30 14745 H 1428.9 0.927377 -6.04326 0
M  V30 14746 H 1433.08 0.523676 -6.94428 0
M  V30 14747 H 1430.7 0.245264 -7.59804 0
M  V30 14748 N 1432.28 1.40065 0.722464 0
M  V30 14749 C 1433.56 1.28473 1.47493 0
M  V30 14750 C 1433.94 -0.100058 2.10863 0
M  V30 14751 O 1433.28 -1.11232 1.99599 0
M  V30 14752 C 1433.49 2.41842 2.51621 0
M  V30 14753 C 1434.84 2.81753 3.17648 0
M  V30 14754 O 1435.87 2.41385 2.61939 0
M  V30 14755 O 1434.72 3.51473 4.18484 0
M  V30 14756 H 1431.82 0.504158 0.655556 0
M  V30 14757 H 1434.36 1.51969 0.755223 0
M  V30 14758 H 1433.14 3.34365 2.03263 0
M  V30 14759 H 1432.76 2.20079 3.31136 0
M  V30 14760 N 1433.76 -0.95397 1.25448 0
M  V30 14761 C 1434.71 -2.03623 1.02575 0
M  V30 14762 C 1435.69 -1.60856 -0.0375824 0
M  V30 14763 O 1436.88 -1.76104 0.177833 0
M  V30 14764 C 1434.01 -3.37145 0.64714 0
M  V30 14765 C 1433.1 -3.86434 1.74726 0
M  V30 14766 N 1433.49 -4.08509 2.98251 0
M  V30 14767 C 1431.79 -4.15228 1.62793 0
M  V30 14768 C 1432.49 -4.49137 3.69663 0
M  V30 14769 N 1431.46 -4.55106 2.97287 0
M  V30 14770 H 1435.27 -2.18685 1.96352 0
M  V30 14771 H 1432.78 -1.13884 1.15777 0
M  V30 14772 H 1434.78 -4.14305 0.464462 0
M  V30 14773 H 1433.44 -3.23462 -0.283296 0
M  V30 14774 H 1434.45 -3.95564 3.3429 0
M  V30 14775 H 1431.13 -4.10403 0.766501 0
M  V30 14776 H 1432.52 -4.74515 4.75695 0
M  V30 14777 N 1435.24 -1.07045 -1.15668 0
M  V30 14778 C 1436.65 -0.814932 -1.67975 0
M  V30 14779 C 1437 0.660408 -1.84751 0
M  V30 14780 O 1436.12 1.51156 -1.54857 0
M  V30 14781 C 1436.72 -1.47274 -3.05116 0
M  V30 14782 C 1435.28 -1.26481 -3.54513 0
M  V30 14783 C 1434.42 -1.54439 -2.30312 0
M  V30 14784 H 1437.37 -1.23291 -0.999251 0
M  V30 14785 H 1437.4 -0.892244 -3.69891 0
M  V30 14786 H 1436.91 -2.54649 -2.92874 0
M  V30 14787 H 1435.01 -0.211138 -3.72001 0
M  V30 14788 H 1435.12 -1.98283 -4.36143 0
M  V30 14789 H 1433.49 -0.965269 -2.357 0
M  V30 14790 H 1434.27 -2.6299 -2.20661 0
M  V30 14791 N 1436.71 1.32449 -0.85411 0
M  V30 14792 C 1437.62 2.32658 -0.301221 0
M  V30 14793 C 1438.64 1.64025 0.580673 0
M  V30 14794 O 1439.82 1.95568 0.481172 0
M  V30 14795 C 1436.88 3.43049 0.501803 0
M  V30 14796 C 1435.94 4.27374 -0.406166 0
M  V30 14797 C 1435.17 5.32494 0.358627 0
M  V30 14798 O 1435.4 5.4783 1.58865 0
M  V30 14799 O 1434.33 6.0127 -0.275291 0
M  V30 14800 H 1438.16 2.81838 -1.13143 0
M  V30 14801 H 1435.74 1.36063 -0.617032 0
M  V30 14802 H 1437.62 4.10375 0.957608 0
M  V30 14803 H 1436.3 2.9606 1.30882 0
M  V30 14804 H 1435.21 3.6286 -0.910136 0
M  V30 14805 H 1436.54 4.77887 -1.17835 0
M  V30 14806 N 1438.19 0.611994 1.45232 0
M  V30 14807 C 1439.42 0.113618 2.07089 0
M  V30 14808 C 1439.84 -1.1947 1.45288 0
M  V30 14809 O 1439.2 -1.72845 0.547207 0
M  V30 14810 C 1439.25 -0.00789978 3.60599 0
M  V30 14811 O 1438.35 -1.05697 3.98625 0
M  V30 14812 H 1437.69 0.076066 0.659629 0
M  V30 14813 H 1440.22 0.843253 1.86415 0
M  V30 14814 H 1440.23 -0.204692 4.07486 0
M  V30 14815 H 1438.91 0.947386 4.04966 0
M  V30 14816 H 1437.48 -0.836291 3.63401 0
M  V30 14817 N 1439.67 -1.53632 0.351409 0
M  V30 14818 C 1441.08 -1.86241 -0.130834 0
M  V30 14819 C 1441.43 -1.27243 -1.49344 0
M  V30 14820 O 1440.56 -0.589006 -2.0823 0
M  V30 14821 C 1441.15 -3.37919 -0.244179 0
M  V30 14822 C 1439.71 -3.70377 -0.670662 0
M  V30 14823 C 1438.86 -2.76643 0.190813 0
M  V30 14824 H 1441.81 -1.48083 0.570724 0
M  V30 14825 H 1441.83 -3.65137 -1.07029 0
M  V30 14826 H 1441.34 -3.8083 0.747688 0
M  V30 14827 H 1439.44 -3.33015 -1.67127 0
M  V30 14828 H 1439.56 -4.76934 -0.455102 0
M  V30 14829 H 1437.92 -2.52446 -0.338092 0
M  V30 14830 H 1438.7 -3.22385 1.17996 0
M  V30 14831 N 1441.15 -0.0802183 -1.57396 0
M  V30 14832 C 1442.38 0.595754 -1.98137 0
M  V30 14833 C 1442.79 1.62638 -0.958871 0
M  V30 14834 O 1442.15 1.82422 0.0534316 0
M  V30 14835 C 1442.2 1.2568 -3.38949 0
M  V30 14836 O 1441.92 0.267417 -4.37283 0
M  V30 14837 C 1443.42 2.0198 -3.94612 0
M  V30 14838 H 1440.64 0.160853 -0.651435 0
M  V30 14839 H 1443.18 -0.155111 -2.03911 0
M  V30 14840 H 1441.34 1.9587 -3.34236 0
M  V30 14841 H 1441.75 0.742695 -5.19215 0
M  V30 14842 H 1443.23 2.43613 -4.95335 0
M  V30 14843 H 1443.7 2.87973 -3.31614 0
M  V30 14844 H 1444.31 1.36639 -4.02753 0
M  V30 14845 N 1442.63 1.56409 0.193394 0
M  V30 14846 C 1444.04 1.70624 0.757915 0
M  V30 14847 C 1444.39 0.687074 1.83776 0
M  V30 14848 O 1443.51 -0.15616 2.15836 0
M  V30 14849 C 1444.11 3.09352 1.38156 0
M  V30 14850 C 1442.67 3.25326 1.89315 0
M  V30 14851 C 1441.81 2.66576 0.763727 0
M  V30 14852 H 1444.76 1.58668 -0.0317034 0
M  V30 14853 H 1444.79 3.06776 2.25098 0
M  V30 14854 H 1444.3 3.83506 0.595398 0
M  V30 14855 H 1442.4 2.5609 2.70644 0
M  V30 14856 H 1442.51 4.32848 2.05376 0
M  V30 14857 H 1440.88 2.25797 1.17846 0
M  V30 14858 H 1441.66 3.43298 -0.0102243 0
M  V30 14859 N 1444.1 -0.461169 1.50702 0
M  V30 14860 C 1445.05 -1.57861 1.70829 0
M  V30 14861 C 1446.05 -1.59371 0.57423 0
M  V30 14862 O 1447.25 -1.63401 0.754996 0
M  V30 14863 H 1443.63 -0.524015 0.539363 0
M  V30 14864 H 1445.6 -1.3805 2.64546 0
M  V30 14865 C 1444.35 -2.95724 1.82873 0
M  V30 14866 H 1443.67 -2.95285 2.6953 0
M  V30 14867 H 1445.11 -3.73342 2.00977 0
M  V30 14868 C 1443.57 -3.31823 0.582691 0
M  V30 14869 O 1444.1 -4.00767 -0.273623 0
M  V30 14870 N 1442.3 -2.87344 0.433781 0
M  V30 14871 H 1441.85 -2.31411 1.13166 0
M  V30 14872 H 1441.81 -3.11861 -0.398743 0
M  V30 14873 N 1445.58 -1.40446 -0.715026 0
M  V30 14874 C 1446.99 -1.34564 -1.29419 0
M  V30 14875 C 1447.34 -0.0193984 -1.9619 0
M  V30 14876 O 1446.47 0.882616 -1.97582 0
M  V30 14877 C 1447.06 -2.43721 -2.35342 0
M  V30 14878 C 1445.62 -2.41297 -2.88881 0
M  V30 14879 C 1444.77 -2.2457 -1.62676 0
M  V30 14880 H 1447.72 -1.50244 -0.511116 0
M  V30 14881 H 1447.74 -2.1166 -3.16197 0
M  V30 14882 H 1447.25 -3.40234 -1.86715 0
M  V30 14883 H 1445.35 -1.48483 -3.41736 0
M  V30 14884 H 1445.47 -3.36903 -3.40637 0
M  V30 14885 H 1443.83 -1.72096 -1.87763 0
M  V30 14886 H 1444.61 -3.23082 -1.16074 0
M  V30 14887 N 1447.06 0.947303 -1.25952 0
M  V30 14888 C 1448.29 1.7273 -1.13895 0
M  V30 14889 C 1448.7 1.86296 0.306488 0
M  V30 14890 O 1448.06 1.36594 1.2103 0
M  V30 14891 C 1448.11 3.13727 -1.79604 0
M  V30 14892 O 1447.83 3.00816 -3.18499 0
M  V30 14893 C 1449.33 4.0797 -1.73422 0
M  V30 14894 H 1446.55 0.54102 -0.39691 0
M  V30 14895 H 1449.1 1.18797 -1.66456 0
M  V30 14896 H 1447.25 3.6458 -1.30997 0
M  V30 14897 H 1447.67 3.89813 -3.50922 0
M  V30 14898 H 1449.14 5.04487 -2.24047 0
M  V30 14899 H 1449.62 4.33594 -0.699481 0
M  V30 14900 H 1450.22 3.63035 -2.21553 0
M  V30 14901 N 1448.54 1.07657 1.15099 0
M  V30 14902 C 1449.45 0.711198 2.2356 0
M  V30 14903 C 1450.46 -0.278932 1.7175 0
M  V30 14904 O 1451.64 -0.124788 2.01013 0
M  V30 14905 C 1448.71 0.117855 3.465 0
M  V30 14906 C 1447.77 1.16162 4.13286 0
M  V30 14907 C 1447 0.596494 5.30356 0
M  V30 14908 O 1447.22 -0.586474 5.67377 0
M  V30 14909 O 1446.16 1.34288 5.86729 0
M  V30 14910 H 1449.98 1.61578 2.5715 0
M  V30 14911 H 1447.57 0.84973 1.22882 0
M  V30 14912 H 1449.45 -0.210613 4.20873 0
M  V30 14913 H 1448.12 -0.760008 3.14652 0
M  V30 14914 H 1447.03 1.54249 3.4082 0
M  V30 14915 H 1448.36 2.01149 4.49221 0
M  V30 14916 N 1450.02 -1.31994 0.861122 0
M  V30 14917 C 1451.43 -1.79271 0.521437 0
M  V30 14918 C 1451.78 -1.71046 -0.96113 0
M  V30 14919 O 1450.9 -1.2729 -1.75003 0
M  V30 14920 C 1451.5 -3.25507 0.939731 0
M  V30 14921 C 1450.06 -3.70713 0.651845 0
M  V30 14922 C 1449.2 -2.52967 1.13592 0
M  V30 14923 H 1452.16 -1.19201 1.0477 0
M  V30 14924 H 1452.18 -3.79619 0.258754 0
M  V30 14925 H 1451.69 -3.3146 2.0188 0
M  V30 14926 H 1449.79 -3.70268 -0.416232 0
M  V30 14927 H 1449.9 -4.63236 1.22267 0
M  V30 14928 H 1448.27 -2.48558 0.555971 0
M  V30 14929 H 1449.05 -2.61671 2.22223 0
M  V30 14930 N 1451.49 -0.619688 -1.44906 0
M  V30 14931 C 1452.42 0.0791121 -2.33366 0
M  V30 14932 C 1453.41 0.846503 -1.47541 0
M  V30 14933 O 1454.59 0.814657 -1.76287 0
M  V30 14934 C 1451.72 1.06901 -3.30438 0
M  V30 14935 C 1450.67 0.41403 -4.25993 0
M  V30 14936 C 1450 1.51303 -5.12846 0
M  V30 14937 C 1451.3 -0.672483 -5.17953 0
M  V30 14938 H 1452.99 -0.659551 -2.92045 0
M  V30 14939 H 1450.54 -0.318623 -1.40431 0
M  V30 14940 H 1452.49 1.56653 -3.912 0
M  V30 14941 H 1451.22 1.83842 -2.69944 0
M  V30 14942 H 1449.88 -0.0627315 -3.66546 0
M  V30 14943 H 1449.52 2.27303 -4.48712 0
M  V30 14944 H 1449.22 1.08022 -5.77586 0
M  V30 14945 H 1450.75 2.01258 -5.76479 0
M  V30 14946 H 1452.16 -0.258542 -5.72717 0
M  V30 14947 H 1450.56 -1.02776 -5.91234 0
M  V30 14948 H 1451.63 -1.54425 -4.59653 0
M  V30 14949 N 1452.97 1.53444 -0.359552 0
M  V30 14950 C 1454.22 2.01166 0.232022 0
M  V30 14951 C 1454.55 1.24699 1.49266 0
M  V30 14952 O 1453.8 0.327164 1.92946 0
M  V30 14953 C 1454.1 3.5273 0.575863 0
M  V30 14954 C 1453.77 4.47027 -0.589746 0
M  V30 14955 C 1452.43 4.72525 -0.909587 0
M  V30 14956 C 1454.78 5.02846 -1.37095 0
M  V30 14957 C 1452.11 5.51096 -2.01271 0
M  V30 14958 C 1454.46 5.82622 -2.46444 0
M  V30 14959 C 1453.13 6.06409 -2.7897 0
M  V30 14960 H 1452.4 0.73612 0.084903 0
M  V30 14961 H 1455.04 1.85105 -0.490771 0
M  V30 14962 H 1453.35 3.66708 1.37959 0
M  V30 14963 H 1455.04 3.87125 1.04573 0
M  V30 14964 H 1451.63 4.27324 -0.330418 0
M  V30 14965 H 1455.82 4.83098 -1.1371 0
M  V30 14966 H 1451.07 5.67747 -2.26877 0
M  V30 14967 H 1455.25 6.24884 -3.07398 0
M  V30 14968 H 1452.88 6.67077 -3.64572 0
M  V30 14969 N 1454.45 0.0885642 1.57351 0
M  V30 14970 C 1455.38 -0.869946 2.16689 0
M  V30 14971 C 1456.36 -1.29878 1.09844 0
M  V30 14972 O 1457.55 -1.36684 1.37954 0
M  V30 14973 C 1454.68 -2.13148 2.74199 0
M  V30 14974 C 1453.63 -1.84149 3.86359 0
M  V30 14975 C 1452.96 -3.17075 4.30543 0
M  V30 14976 C 1454.26 -1.13357 5.09851 0
M  V30 14977 H 1455.95 -0.375578 2.97035 0
M  V30 14978 H 1453.5 -0.17921 1.42881 0
M  V30 14979 H 1455.45 -2.80634 3.14361 0
M  V30 14980 H 1454.17 -2.64856 1.91098 0
M  V30 14981 H 1452.83 -1.19063 3.46727 0
M  V30 14982 H 1452.48 -3.66658 3.44342 0
M  V30 14983 H 1452.18 -2.98457 5.06159 0
M  V30 14984 H 1453.7 -3.85731 4.73333 0
M  V30 14985 H 1455.12 -1.70941 5.47222 0
M  V30 14986 H 1453.52 -1.0494 5.90853 0
M  V30 14987 H 1454.59 -0.115273 4.84763 0
M  V30 14988 N 1455.93 -1.56509 -0.185096 0
M  V30 14989 C 1456.89 -1.94468 -1.21305 0
M  V30 14990 C 1457.89 -0.826838 -1.37913 0
M  V30 14991 O 1459.08 -1.09411 -1.35554 0
M  V30 14992 C 1456.21 -2.22747 -2.58063 0
M  V30 14993 H 1457.41 -2.86442 -0.888323 0
M  V30 14994 H 1454.96 -1.50354 -0.427012 0
M  V30 14995 H 1455.69 -1.33443 -2.95573 0
M  V30 14996 H 1455.48 -3.04215 -2.47378 0
M  V30 14997 H 1456.97 -2.53084 -3.32172 0
M  V30 14998 N 1457.41 0.45317 -1.50944 0
M  V30 14999 C 1458.34 1.56678 -1.67287 0
M  V30 15000 C 1459.35 1.53089 -0.553853 0
M  V30 15001 O 1460.54 1.58152 -0.827653 0
M  V30 15002 C 1457.64 2.95585 -1.65779 0
M  V30 15003 C 1456.81 3.2385 -2.94007 0
M  V30 15004 C 1455.87 4.42401 -2.84899 0
M  V30 15005 O 1454.9 4.4183 -3.58853 0
M  V30 15006 N 1456.1 5.4508 -1.99671 0
M  V30 15007 H 1458.87 1.43069 -2.63347 0
M  V30 15008 H 1456.43 0.641875 -1.48632 0
M  V30 15009 H 1458.42 3.7289 -1.57275 0
M  V30 15010 H 1456.99 3.02872 -0.773791 0
M  V30 15011 H 1456.21 2.34991 -3.16501 0
M  V30 15012 H 1457.5 3.39554 -3.7892 0
M  V30 15013 H 1456.89 5.48374 -1.38933 0
M  V30 15014 H 1455.45 6.21298 -1.97057 0
M  V30 15015 N 1458.88 1.40823 0.707568 0
M  V30 15016 C 1459.85 1.41464 1.80334 0
M  V30 15017 C 1460.85 0.307143 1.57839 0
M  V30 15018 O 1462.04 0.566444 1.64733 0
M  V30 15019 C 1459.17 1.21426 3.18541 0
M  V30 15020 H 1460.36 2.38998 1.81162 0
M  V30 15021 H 1457.92 1.2679 0.914007 0
M  V30 15022 H 1458.65 0.246847 3.23359 0
M  V30 15023 H 1458.44 2.01657 3.36269 0
M  V30 15024 H 1459.93 1.24681 3.98553 0
M  V30 15025 N 1460.36 -0.94061 1.26453 0
M  V30 15026 C 1461.27 -2.07298 1.09839 0
M  V30 15027 C 1462.29 -1.73971 0.0317477 0
M  V30 15028 O 1463.46 -2.00017 0.235594 0
M  V30 15029 C 1460.53 -3.38847 0.733736 0
M  V30 15030 C 1459.59 -3.85954 1.87985 0
M  V30 15031 C 1458.82 -5.11224 1.5325 0
M  V30 15032 O 1459.05 -5.68743 0.434491 0
M  V30 15033 O 1457.98 -5.53386 2.36743 0
M  V30 15034 H 1461.81 -2.24222 2.04837 0
M  V30 15035 H 1459.39 -1.05763 1.0552 0
M  V30 15036 H 1461.27 -4.17885 0.543131 0
M  V30 15037 H 1459.95 -3.2316 -0.186843 0
M  V30 15038 H 1458.86 -3.07858 2.12542 0
M  V30 15039 H 1460.19 -4.06162 2.78017 0
M  V30 15040 N 1461.84 -1.08266 -1.14527 0
M  V30 15041 C 1463.09 -0.812661 -1.85805 0
M  V30 15042 C 1463.42 0.659878 -1.82645 0
M  V30 15043 O 1462.69 1.48498 -1.25612 0
M  V30 15044 C 1462.98 -1.33335 -3.34505 0
M  V30 15045 C 1462.83 -2.87113 -3.46246 0
M  V30 15046 C 1464.15 -0.957435 -4.29559 0
M  V30 15047 H 1461.27 -0.296681 -0.674648 0
M  V30 15048 H 1463.91 -1.34203 -1.34497 0
M  V30 15049 H 1462.06 -0.883056 -3.78331 0
M  V30 15050 H 1463.73 -3.40502 -3.11217 0
M  V30 15051 H 1461.98 -3.24845 -2.87504 0
M  V30 15052 H 1462.65 -3.18618 -4.50762 0
M  V30 15053 H 1465.12 -1.3456 -3.93742 0
M  V30 15054 H 1464 -1.34897 -5.32066 0
M  V30 15055 H 1464.26 0.135689 -4.41892 0
M  V30 15056 N 1463.32 1.31536 -0.86811 0
M  V30 15057 C 1464.55 2.00661 -0.491815 0
M  V30 15058 C 1464.96 1.65341 0.919733 0
M  V30 15059 O 1464.3 0.87773 1.61374 0
M  V30 15060 C 1464.36 3.55002 -0.566926 0
M  V30 15061 C 1464.03 4.1379 -1.93976 0
M  V30 15062 C 1465.02 4.31032 -2.90702 0
M  V30 15063 C 1462.71 4.4956 -2.24056 0
M  V30 15064 C 1464.7 4.8323 -4.15653 0
M  V30 15065 C 1462.39 5.01461 -3.49257 0
M  V30 15066 C 1463.39 5.18246 -4.44871 0
M  V30 15067 O 1463.08 5.69033 -5.67852 0
M  V30 15068 H 1462.81 0.648663 -0.190296 0
M  V30 15069 H 1465.36 1.68783 -1.17053 0
M  V30 15070 H 1463.59 3.86332 0.168704 0
M  V30 15071 H 1465.28 4.05385 -0.204323 0
M  V30 15072 H 1466.05 4.03717 -2.6877 0
M  V30 15073 H 1461.93 4.35772 -1.50412 0
M  V30 15074 H 1465.47 4.96247 -4.9029 0
M  V30 15075 H 1461.37 5.28209 -3.71033 0
M  V30 15076 H 1462.13 5.87405 -5.69998 0
M  V30 15077 N 1464.8 0.627364 1.44575 0
M  V30 15078 C 1465.74 -0.0798044 2.30662 0
M  V30 15079 C 1466.71 -0.840528 1.43263 0
M  V30 15080 O 1467.9 -0.82232 1.7217 0
M  V30 15081 C 1465.04 -1.05796 3.28483 0
M  V30 15082 C 1464.15 -0.296052 4.30984 0
M  V30 15083 C 1463.29 -1.26569 5.15901 0
M  V30 15084 C 1462.33 -0.492722 6.10114 0
M  V30 15085 N 1461.46 -1.41263 6.87742 0
M  V30 15086 H 1466.3 0.660254 2.90594 0
M  V30 15087 H 1463.84 0.337382 1.43179 0
M  V30 15088 H 1465.8 -1.63842 3.83682 0
M  V30 15089 H 1464.43 -1.7652 2.7026 0
M  V30 15090 H 1463.48 0.400259 3.78288 0
M  V30 15091 H 1464.79 0.306149 4.9786 0
M  V30 15092 H 1463.95 -1.9176 5.75598 0
M  V30 15093 H 1462.69 -1.90182 4.4909 0
M  V30 15094 H 1461.69 0.172696 5.49529 0
M  V30 15095 H 1462.92 0.138634 6.78958 0
M  V30 15096 H 1460.86 -2.03604 6.23604 0
M  V30 15097 H 1460.78 -0.864362 7.51042 0
M  V30 15098 H 1462.05 -2.0535 7.51965 0
M  V30 15099 N 1466.28 -1.53251 0.367684 0
M  V30 15100 C 1467.19 -2.29518 -0.485669 0
M  V30 15101 C 1468.2 -1.35568 -1.09075 0
M  V30 15102 O 1469.38 -1.68626 -1.10124 0
M  V30 15103 C 1466.44 -3.07115 -1.60876 0
M  V30 15104 C 1465.5 -4.16736 -1.031 0
M  V30 15105 C 1464.74 -4.90624 -2.10056 0
M  V30 15106 O 1464.96 -4.64393 -3.31203 0
M  V30 15107 O 1463.89 -5.76503 -1.72996 0
M  V30 15108 H 1467.72 -3.034 0.135017 0
M  V30 15109 H 1465.3 -1.48816 0.132005 0
M  V30 15110 H 1467.19 -3.55564 -2.26168 0
M  V30 15111 H 1465.86 -2.36068 -2.21481 0
M  V30 15112 H 1464.77 -3.72534 -0.341928 0
M  V30 15113 H 1466.1 -4.89956 -0.469473 0
M  V30 15114 N 1467.75 -0.0969077 -1.57302 0
M  V30 15115 C 1468.68 0.858443 -2.17147 0
M  V30 15116 C 1469.66 1.29294 -1.10531 0
M  V30 15117 O 1470.85 1.3595 -1.38676 0
M  V30 15118 C 1467.98 2.11691 -2.75326 0
M  V30 15119 C 1466.93 1.82097 -3.8733 0
M  V30 15120 C 1466.26 3.14787 -4.32219 0
M  V30 15121 C 1467.56 1.10651 -5.10444 0
M  V30 15122 H 1469.25 0.35982 -2.9723 0
M  V30 15123 H 1466.8 0.17163 -1.42974 0
M  V30 15124 H 1468.75 2.78963 -3.15844 0
M  V30 15125 H 1467.48 2.63839 -1.925 0
M  V30 15126 H 1466.14 1.17222 -3.47354 0
M  V30 15127 H 1465.78 3.64826 -3.46281 0
M  V30 15128 H 1465.48 2.95769 -5.07735 0
M  V30 15129 H 1467.01 3.83215 -4.75372 0
M  V30 15130 H 1468.42 1.68036 -5.48121 0
M  V30 15131 H 1466.82 1.01805 -5.91401 0
M  V30 15132 H 1467.89 0.0895634 -4.84817 0
M  V30 15133 N 1469.23 1.56605 0.176793 0
M  V30 15134 C 1470.65 1.50601 0.528354 0
M  V30 15135 C 1470.85 0.800205 1.8493 0
M  V30 15136 O 1469.9 0.358299 2.49945 0
M  V30 15137 C 1471.22 2.95322 0.566172 0
M  V30 15138 C 1472.76 3.06097 0.653751 0
M  V30 15139 C 1473.24 4.52265 0.722511 0
M  V30 15140 N 1474.73 4.5649 0.785548 0
M  V30 15141 C 1475.47 5.66926 0.859232 0
M  V30 15142 N 1474.96 6.87006 0.894088 0
M  V30 15143 N 1476.75 5.54883 0.897832 0
M  V30 15144 H 1468.91 2.00899 -0.689442 0
M  V30 15145 H 1471.17 0.915011 -0.24791 0
M  V30 15146 H 1470.87 3.50095 -0.33566 0
M  V30 15147 H 1470.75 3.49671 1.41456 0
M  V30 15148 H 1473.14 2.51361 1.54601 0
M  V30 15149 H 1473.22 2.54842 -0.221207 0
M  V30 15150 H 1472.86 5.0763 -0.165469 0
M  V30 15151 H 1472.79 5.01271 1.61353 0
M  V30 15152 H 1475.28 3.70032 0.767117 0
M  V30 15153 H 1475.59 7.66922 0.951333 0
M  V30 15154 H 1473.94 6.89628 0.862457 0
M  V30 15155 H 1477.13 4.5999 0.867564 0
M  V30 15156 H 1477.3 6.40972 0.951795 0
M  V30 15157 N 1470.71 -0.445159 1.51182 0
M  V30 15158 C 1471.64 -1.5473 1.74874 0
M  V30 15159 C 1472.62 -1.5923 0.598323 0
M  V30 15160 O 1473.81 -1.75083 0.840219 0
M  V30 15161 C 1470.94 -2.92872 1.86664 0
M  V30 15162 C 1469.89 -3.03235 3.02048 0
M  V30 15163 C 1469.22 -4.43279 2.99012 0
M  V30 15164 C 1470.52 -2.7804 4.42144 0
M  V30 15165 H 1472.21 -1.35156 2.67158 0
M  V30 15166 H 1469.76 -0.648763 1.28558 0
M  V30 15167 H 1471.71 -3.69927 2.01822 0
M  V30 15168 H 1470.43 -3.1366 0.910225 0
M  V30 15169 H 1469.09 -2.28617 2.86583 0
M  V30 15170 H 1468.74 -4.61023 2.01163 0
M  V30 15171 H 1468.44 -4.51144 3.76488 0
M  V30 15172 H 1469.96 -5.22319 3.16252 0
M  V30 15173 H 1471.38 -3.44831 4.58 0
M  V30 15174 H 1469.77 -2.97323 5.21267 0
M  V30 15175 H 1470.84 -1.737 4.52721 0
M  V30 15176 N 1472.19 -1.41197 -0.700089 0
M  V30 15177 C 1473.6 -1.23567 -1.01012 0
M  V30 15178 C 1473.8 -0.121821 -2.01131 0
M  V30 15179 O 1472.86 0.515258 -2.47187 0
M  V30 15180 C 1474.17 -2.58329 -1.53904 0
M  V30 15181 C 1475.72 -2.65473 -1.65811 0
M  V30 15182 C 1476.2 -4.00541 -2.22106 0
M  V30 15183 N 1477.69 -4.02364 -2.29472 0
M  V30 15184 C 1478.42 -5.03672 -2.74048 0
M  V30 15185 N 1477.92 -6.15371 -3.18262 0
M  V30 15186 N 1479.71 -4.91035 -2.73571 0
M  V30 15187 H 1471.86 -2.12368 -0.0367488 0
M  V30 15188 H 1474.12 -0.944713 -0.0788795 0
M  V30 15189 H 1473.83 -3.40565 -0.877964 0
M  V30 15190 H 1473.7 -2.805 -2.5219 0
M  V30 15191 H 1476.09 -1.83598 -2.31032 0
M  V30 15192 H 1476.17 -2.47117 -0.660831 0
M  V30 15193 H 1475.82 -4.82862 -1.57502 0
M  V30 15194 H 1475.75 -4.16235 -3.22577 0
M  V30 15195 H 1478.24 -3.21713 -1.98265 0
M  V30 15196 H 1478.55 -6.88548 -3.50888 0
M  V30 15197 H 1476.9 -6.18914 -3.16182 0
M  V30 15198 H 1480.09 -4.02858 -2.38376 0
M  V30 15199 H 1480.26 -5.70127 -3.07993 0
M  V30 15200 N 1473.67 0.933891 -1.2695 0
M  V30 15201 C 1474.91 1.67759 -1.12701 0
M  V30 15202 C 1475.23 1.92207 0.328848 0
M  V30 15203 O 1474.5 1.52394 1.23097 0
M  V30 15204 H 1473.08 0.621729 -0.41408 0
M  V30 15205 H 1475.75 1.1217 -1.59386 0
M  V30 15206 H 1474.84 2.64834 -1.65135 0
M  V30 15207 N 1475.14 1.08871 1.13951 0
M  V30 15208 C 1476.37 0.841691 1.88677 0
M  V30 15209 C 1476.78 -0.610213 1.79089 0
M  V30 15210 O 1476.12 -1.4314 1.15138 0
M  V30 15211 C 1476.19 1.19077 3.39206 0
M  V30 15212 C 1475.85 2.64642 3.72577 0
M  V30 15213 C 1476.85 3.62892 3.72297 0
M  V30 15214 C 1474.53 3.00618 4.0241 0
M  V30 15215 C 1476.53 4.95148 4.01382 0
M  V30 15216 C 1474.21 4.33066 4.31158 0
M  V30 15217 C 1475.21 5.3014 4.30628 0
M  V30 15218 O 1474.9 6.60207 4.58675 0
M  V30 15219 H 1474.63 0.302896 0.604343 0
M  V30 15220 H 1477.19 1.4527 1.45209 0
M  V30 15221 H 1475.42 0.522784 3.8315 0
M  V30 15222 H 1477.1 0.923805 3.95248 0
M  V30 15223 H 1477.87 3.36442 3.4933 0
M  V30 15224 H 1473.75 2.25696 4.01973 0
M  V30 15225 H 1477.29 5.7091 4.00884 0
M  V30 15226 H 1473.19 4.59262 4.53595 0
M  V30 15227 H 1473.96 6.65593 4.7637 0
M  V30 15228 N 1476.62 -1.31073 0.875073 0
M  V30 15229 C 1477.9 -1.91276 0.409015 0
M  V30 15230 C 1478.28 -1.79599 -1.10939 0
M  V30 15231 O 1477.63 -1.2069 -1.94026 0
M  V30 15232 C 1477.84 -3.373 0.896074 0
M  V30 15233 C 1479.18 -4.14397 0.925205 0
M  V30 15234 O 1480.21 -3.46104 0.842069 0
M  V30 15235 O 1479.07 -5.36389 1.0464 0
M  V30 15236 H 1476.16 -0.817755 0.12331 0
M  V30 15237 H 1478.71 -1.39708 0.963322 0
M  V30 15238 H 1477.48 -3.39837 1.93975 0
M  V30 15239 H 1477.1 -3.96307 0.320367 0
M  V30 15240 N 1478.1 -0.635022 -1.4424 0
M  V30 15241 C 1479.33 -0.148045 -2.06069 0
M  V30 15242 C 1479.74 1.1842 -1.47558 0
M  V30 15243 O 1479.08 1.73817 -0.594425 0
M  V30 15244 C 1479.14 0.0369593 -3.59481 0
M  V30 15245 C 1478.81 -1.21773 -4.40478 0
M  V30 15246 C 1479.8 -2.14233 -4.73709 0
M  V30 15247 C 1477.49 -1.45423 -4.80788 0
M  V30 15248 C 1479.48 -3.2865 -5.46139 0
M  V30 15249 C 1477.17 -2.60136 -5.52967 0
M  V30 15250 C 1478.17 -3.51576 -5.85562 0
M  V30 15251 O 1477.86 -4.64289 -6.5627 0
M  V30 15252 H 1477.59 -0.0787231 -0.671401 0
M  V30 15253 H 1480.14 -0.870639 -1.86035 0
M  V30 15254 H 1478.37 0.814739 -3.7802 0
M  V30 15255 H 1480.06 0.478984 -4.03064 0
M  V30 15256 H 1480.83 -1.97196 -4.43101 0
M  V30 15257 H 1476.71 -0.751378 -4.54835 0
M  V30 15258 H 1480.25 -4.00043 -5.71499 0
M  V30 15259 H 1476.15 -2.77114 -5.82991 0
M  V30 15260 H 1476.92 -4.6332 -6.74742 0
M  V30 15261 N 1479.58 1.53054 -0.375806 0
M  V30 15262 C 1480.83 2.01003 0.210257 0
M  V30 15263 C 1481.15 1.26451 1.48442 0
M  V30 15264 O 1480.42 0.380687 1.92166 0
M  V30 15265 H 1479 0.74263 0.0806861 0
M  V30 15266 H 1481.66 1.8826 -0.504393 0
M  V30 15267 H 1480.76 3.09123 0.430027 0
M  V30 15268 N 1481.06 0.105248 1.57248 0
M  V30 15269 C 1482.47 -0.422304 1.81861 0
M  V30 15270 C 1482.82 -1.67508 1.02154 0
M  V30 15271 O 1481.94 -2.14905 0.253961 0
M  V30 15272 C 1482.54 -0.772943 3.29865 0
M  V30 15273 C 1481.1 -1.24519 3.55207 0
M  V30 15274 C 1480.24 -0.246936 2.76198 0
M  V30 15275 H 1483.2 0.330565 1.55219 0
M  V30 15276 H 1483.22 -1.6316 3.43743 0
M  V30 15277 H 1482.73 0.139033 3.87851 0
M  V30 15278 H 1480.83 -2.17453 3.02564 0
M  V30 15279 H 1480.94 -1.20001 4.63828 0
M  V30 15280 H 1479.31 -0.731171 2.43979 0
M  V30 15281 H 1480.09 0.657896 3.36937 0
M  V30 15282 N 1482.53 -1.56697 -0.168486 0
M  V30 15283 C 1483.48 -1.93039 -1.21325 0
M  V30 15284 C 1484.47 -0.799039 -1.39657 0
M  V30 15285 O 1485.66 -1.06226 -1.41581 0
M  V30 15286 C 1482.79 -2.29622 -2.55203 0
M  V30 15287 C 1481.88 -3.49278 -2.40553 0
M  V30 15288 N 1482.27 -4.6644 -1.95622 0
M  V30 15289 C 1480.56 -3.53941 -2.71371 0
M  V30 15290 C 1481.27 -5.48572 -1.93502 0
M  V30 15291 N 1480.24 -4.89693 -2.36012 0
M  V30 15292 H 1484.04 -2.81109 -0.857611 0
M  V30 15293 H 1481.56 -1.5797 -0.376734 0
M  V30 15294 H 1483.55 -2.53854 -3.30702 0
M  V30 15295 H 1482.21 -1.42893 -2.91568 0
M  V30 15296 H 1483.23 -4.90604 -1.65916 0
M  V30 15297 H 1479.9 -2.77697 -3.11754 0
M  V30 15298 H 1481.29 -6.52464 -1.60438 0
M  V30 15299 N 1484.01 0.437135 -1.51416 0
M  V30 15300 C 1485.26 1.18655 -1.64095 0
M  V30 15301 C 1485.59 1.9119 -0.35728 0
M  V30 15302 O 1484.84 1.84283 0.658644 0
M  V30 15303 C 1485.14 2.22795 -2.79458 0
M  V30 15304 C 1484.81 1.67271 -4.18726 0
M  V30 15305 C 1483.47 1.51852 -4.56612 0
M  V30 15306 C 1485.82 1.26448 -5.05629 0
M  V30 15307 C 1483.15 0.940834 -5.79107 0
M  V30 15308 C 1485.5 0.701095 -6.28703 0
M  V30 15309 C 1484.17 0.533801 -6.65362 0
M  V30 15310 H 1483.44 0.434191 -0.600466 0
M  V30 15311 H 1486.08 0.477592 -1.85449 0
M  V30 15312 H 1484.39 2.99731 -2.52327 0
M  V30 15313 H 1486.08 2.80602 -2.86467 0
M  V30 15314 H 1482.67 1.80249 -3.88855 0
M  V30 15315 H 1486.86 1.37182 -4.76964 0
M  V30 15316 H 1482.11 0.798982 -6.06157 0
M  V30 15317 H 1486.29 0.37626 -6.95383 0
M  V30 15318 H 1483.92 0.0840431 -7.60154 0
M  V30 15319 N 1485.49 1.41566 0.692592 0
M  V30 15320 C 1486.42 1.39582 1.81795 0
M  V30 15321 C 1487.44 0.29754 1.60058 0
M  V30 15322 O 1488.62 0.559463 1.69506 0
M  V30 15323 C 1485.72 1.15506 3.18609 0
M  V30 15324 C 1484.9 2.37432 3.67349 0
M  V30 15325 C 1483.96 2.09168 4.82841 0
M  V30 15326 O 1482.98 2.8223 4.94303 0
M  V30 15327 N 1484.18 1.08377 5.70294 0
M  V30 15328 H 1486.95 2.36577 1.83988 0
M  V30 15329 H 1484.51 1.36216 0.875026 0
M  V30 15330 H 1486.5 0.945452 3.93501 0
M  V30 15331 H 1485.07 0.270987 3.11423 0
M  V30 15332 H 1484.29 2.74076 2.8333 0
M  V30 15333 H 1485.58 3.18661 3.96652 0
M  V30 15334 H 1484.98 0.479122 5.63667 0
M  V30 15335 H 1483.54 0.934042 6.45073 0
M  V30 15336 N 1486.97 -0.927146 1.27443 0
M  V30 15337 C 1488.22 -1.67159 1.13589 0
M  V30 15338 C 1488.54 -1.92379 -0.31865 0
M  V30 15339 O 1487.81 -1.53045 -1.22287 0
M  V30 15340 H 1486.39 -0.619524 0.417371 0
M  V30 15341 H 1489.05 -1.11323 1.59979 0
M  V30 15342 H 1488.15 -2.63954 1.66537 0
M  V30 15343 N 1488.45 -1.09474 -1.13372 0
M  V30 15344 C 1489.7 -0.825968 -1.84013 0
M  V30 15345 C 1490.01 0.650623 -1.84462 0
M  V30 15346 O 1491.21 1.03495 -2.51 0
M  V30 15347 C 1489.67 -1.42769 -3.30371 0
M  V30 15348 C 1489.28 -2.93686 -3.38308 0
M  V30 15349 C 1491.02 -1.23788 -4.0605 0
M  V30 15350 C 1488.93 -3.46942 -4.78942 0
M  V30 15351 H 1487.86 -0.305322 -0.689416 0
M  V30 15352 H 1490.51 -1.31751 -1.27726 0
M  V30 15353 H 1488.89 -0.86384 -3.86463 0
M  V30 15354 H 1490.07 -3.56302 -2.92208 0
M  V30 15355 H 1488.38 -3.11706 -2.76094 0
M  V30 15356 H 1490.98 -1.61031 -5.09876 0
M  V30 15357 H 1491.32 -0.178578 -4.15917 0
M  V30 15358 H 1491.85 -1.76927 -3.56289 0
M  V30 15359 H 1488.59 -4.52495 -4.74267 0
M  V30 15360 H 1488.11 -2.8909 -5.25535 0
M  V30 15361 H 1489.79 -3.44176 -5.47861 0
M  V30 15362 N 1489.92 1.30607 -0.882012 0
M  V30 15363 C 1490.85 2.30666 -0.362706 0
M  V30 15364 C 1491.84 1.60865 0.552861 0
M  V30 15365 O 1493.02 1.88493 0.467339 0
M  V30 15366 C 1490.15 3.44675 0.42622 0
M  V30 15367 C 1489.1 4.26152 -0.397322 0
M  V30 15368 C 1488.43 5.32185 0.518027 0
M  V30 15369 C 1489.73 4.95955 -1.63785 0
M  V30 15370 H 1491.42 2.74351 -1.19883 0
M  V30 15371 H 1488.97 1.31895 -0.577912 0
M  V30 15372 H 1490.92 4.13734 0.80013 0
M  V30 15373 H 1489.65 2.99787 1.29597 0
M  V30 15374 H 1488.31 3.58776 -0.753332 0
M  V30 15375 H 1487.95 4.83545 1.3854 0
M  V30 15376 H 1487.65 5.87593 -0.0291802 0
M  V30 15377 H 1489.18 6.04101 0.888518 0
M  V30 15378 H 1490.59 5.57547 -1.3347 0
M  V30 15379 H 1488.99 5.61215 -2.12504 0
M  V30 15380 H 1490.06 4.22252 -2.38394 0
M  V30 15381 N 1491.4 0.642663 1.43901 0
M  V30 15382 C 1492.31 -0.0562462 2.34533 0
M  V30 15383 C 1493.33 -0.823457 1.53281 0
M  V30 15384 O 1494.5 -0.773103 1.85971 0
M  V30 15385 C 1491.57 -1.01787 3.31422 0
M  V30 15386 C 1490.63 -0.248759 4.28579 0
M  V30 15387 C 1489.86 -1.16458 5.20839 0
M  V30 15388 O 1490.09 -2.40361 5.17284 0
M  V30 15389 O 1489.02 -0.642671 5.98459 0
M  V30 15390 H 1492.85 0.689476 2.9577 0
M  V30 15391 H 1490.43 0.402847 1.43866 0
M  V30 15392 H 1492.31 -1.5708 3.91029 0
M  V30 15393 H 1490.99 -1.744 2.72702 0
M  V30 15394 H 1489.9 0.347495 3.72483 0
M  V30 15395 H 1491.23 0.437589 4.90251 0
M  V30 15396 N 1492.88 -1.52852 0.383918 0
M  V30 15397 C 1493.84 -2.24904 -0.441687 0
M  V30 15398 C 1494.84 -1.26345 -0.99466 0
M  V30 15399 O 1496.03 -1.50484 -0.877513 0
M  V30 15400 C 1493.17 -2.99994 -1.61915 0
M  V30 15401 H 1494.36 -2.99304 0.189047 0
M  V30 15402 H 1491.91 -1.55708 0.135932 0
M  V30 15403 H 1492.65 -2.29882 -2.28746 0
M  V30 15404 H 1492.43 -3.72328 -1.2294 0
M  V30 15405 H 1493.92 -3.54716 -2.20378 0
M  V30 15406 N 1494.36 -0.113586 -1.5719 0
M  V30 15407 C 1495.58 0.556928 -1.99783 0
M  V30 15408 C 1496.01 1.59774 -0.992669 0
M  V30 15409 O 1495.37 1.81263 0.0363821 0
M  V30 15410 C 1495.42 1.16463 -3.41275 0
M  V30 15411 O 1494.52 2.28024 -3.43626 0
M  V30 15412 H 1493.86 0.139628 -0.649153 0
M  V30 15413 H 1496.39 -0.200462 -2.03616 0
M  V30 15414 H 1496.4 1.50147 -3.79368 0
M  V30 15415 H 1495.08 0.402232 -4.1395 0
M  V30 15416 H 1493.65 1.9582 -3.17347 0
M  V30 15417 N 1495.84 1.56784 0.160173 0
M  V30 15418 C 1496.77 2.00298 1.20012 0
M  V30 15419 C 1497.75 0.880356 1.45546 0
M  V30 15420 O 1498.93 1.14724 1.56691 0
M  V30 15421 C 1496.06 2.37238 2.53645 0
M  V30 15422 C 1495.02 3.52563 2.42658 0
M  V30 15423 C 1494.34 3.75278 3.80881 0
M  V30 15424 C 1495.64 4.85657 1.92183 0
M  V30 15425 H 1497.34 2.87423 0.838362 0
M  V30 15426 H 1494.88 1.3828 0.401838 0
M  V30 15427 H 1496.84 2.66278 3.2661 0
M  V30 15428 H 1495.56 1.47035 2.9163 0
M  V30 15429 H 1494.22 3.23669 1.72146 0
M  V30 15430 H 1493.87 2.82347 4.1628 0
M  V30 15431 H 1493.57 4.52882 3.74396 0
M  V30 15432 H 1495.09 4.0673 4.55415 0
M  V30 15433 H 1496.51 5.13501 2.54931 0
M  V30 15434 H 1494.9 5.66975 1.96619 0
M  V30 15435 H 1495.97 4.76908 0.876742 0
M  V30 15436 N 1497.32 -0.429099 1.51646 0
M  V30 15437 C 1498.23 -1.54648 1.76412 0
M  V30 15438 C 1499.24 -1.61455 0.648703 0
M  V30 15439 O 1500.42 -1.78544 0.931888 0
M  V30 15440 C 1497.48 -2.90562 1.89142 0
M  V30 15441 C 1496.54 -2.93804 3.13014 0
M  V30 15442 C 1495.78 -4.23235 3.25127 0
M  V30 15443 O 1496 -5.1606 2.42979 0
M  V30 15444 O 1494.93 -4.32929 4.18158 0
M  V30 15445 H 1498.76 -1.36661 2.71215 0
M  V30 15446 H 1496.34 -0.612946 1.36247 0
M  V30 15447 H 1498.23 -3.7121 1.99453 0
M  V30 15448 H 1496.9 -3.08659 0.975272 0
M  V30 15449 H 1495.81 -2.12082 3.08175 0
M  V30 15450 H 1497.14 -2.80654 4.04344 0
M  V30 15451 N 1498.79 -1.41931 -0.685074 0
M  V30 15452 C 1500.04 -1.41571 -1.44229 0
M  V30 15453 C 1500.36 -0.0294445 -1.94978 0
M  V30 15454 O 1499.63 0.930414 -1.72395 0
M  V30 15455 H 1498.21 -0.521138 -0.535186 0
M  V30 15456 H 1500.87 -1.77263 -0.81017 0
M  V30 15457 H 1499.97 -2.10929 -2.30034 0
M  V30 15458 N 1500.27 0.920374 -1.27933 0
M  V30 15459 C 1501.55 1.64765 -1.05413 0
M  V30 15460 C 1501.93 2.07106 0.408717 0
M  V30 15461 O 1501.28 1.81094 1.39346 0
M  V30 15462 C 1501.49 2.84417 -2.02257 0
M  V30 15463 C 1502.83 3.5559 -2.32036 0
M  V30 15464 O 1503.86 2.94555 -2.00289 0
M  V30 15465 O 1502.72 4.65574 -2.86187 0
M  V30 15466 H 1499.81 0.722503 -0.402391 0
M  V30 15467 H 1502.36 0.970263 -1.39226 0
M  V30 15468 H 1501.13 2.50174 -3.0088 0
M  V30 15469 H 1500.75 3.59872 -1.6905 0
M  V30 15470 N 1501.75 1.10074 1.1279 0
M  V30 15471 C 1502.97 0.863106 1.88587 0
M  V30 15472 C 1503.4 -0.580595 1.78915 0
M  V30 15473 O 1502.76 -1.40859 1.14142 0
M  V30 15474 C 1502.81 1.31142 3.35908 0
M  V30 15475 O 1501.91 0.474088 4.09666 0
M  V30 15476 H 1501.25 0.312034 0.586115 0
M  V30 15477 H 1503.78 1.46659 1.42662 0
M  V30 15478 H 1503.79 1.29974 3.86744 0
M  V30 15479 H 1502.47 2.36279 3.42265 0
M  V30 15480 H 1501.04 0.550665 3.68812 0
M  V30 15481 N 1503.23 -1.30138 0.888926 0
M  V30 15482 C 1504.48 -1.95602 0.508359 0
M  V30 15483 C 1504.8 -1.70495 -0.946377 0
M  V30 15484 O 1504.07 -1.03073 -1.66592 0
M  V30 15485 H 1502.65 -0.723728 0.185006 0
M  V30 15486 H 1505.31 -1.58594 1.13286 0
M  V30 15487 H 1504.4 -3.04559 0.681915 0
M  V30 15488 N 1504.71 -0.650285 -1.43559 0
M  V30 15489 C 1506.12 -0.317586 -1.56408 0
M  V30 15490 C 1506.32 1.17844 -1.63447 0
M  V30 15491 O 1505.38 1.96318 -1.58794 0
M  V30 15492 C 1506.69 -1.02636 -2.82642 0
M  V30 15493 C 1508.24 -1.00633 -2.96381 0
M  V30 15494 C 1508.71 -1.69595 -4.25443 0
M  V30 15495 N 1510.2 -1.66345 -4.323 0
M  V30 15496 C 1510.94 -2.16581 -5.30924 0
M  V30 15497 N 1510.44 -2.75092 -6.35843 0
M  V30 15498 N 1512.23 -2.07098 -5.22558 0
M  V30 15499 H 1504.38 -1.62114 -1.37233 0
M  V30 15500 H 1506.64 -0.681588 -0.658895 0
M  V30 15501 H 1506.35 -2.08146 -2.83493 0
M  V30 15502 H 1506.22 -0.576081 -3.72775 0
M  V30 15503 H 1508.61 0.0403519 -2.95072 0
M  V30 15504 H 1508.69 -1.49528 -2.07545 0
M  V30 15505 H 1508.33 -2.74218 -4.27512 0
M  V30 15506 H 1508.26 -1.18168 -5.1317 0
M  V30 15507 H 1510.76 -1.23644 -3.571 0
M  V30 15508 H 1511.07 -3.11108 -7.07412 0
M  V30 15509 H 1509.41 -2.79152 -6.36474 0
M  V30 15510 H 1512.6 -1.61093 -4.39507 0
M  V30 15511 H 1512.78 -2.46557 -5.99261 0
M  V30 15512 N 1506.18 1.52647 -0.392018 0
M  V30 15513 C 1507.11 2.29446 0.433228 0
M  V30 15514 C 1508.09 1.32945 1.06111 0
M  V30 15515 O 1509.28 1.61841 1.07337 0
M  V30 15516 C 1506.41 3.10328 1.55929 0
M  V30 15517 C 1505.36 4.14735 1.05731 0
M  V30 15518 C 1504.69 4.83858 2.27565 0
M  V30 15519 C 1505.99 5.22154 0.123346 0
M  V30 15520 H 1507.68 2.9868 -0.207563 0
M  V30 15521 H 1505.23 1.43643 -0.101266 0
M  V30 15522 H 1507.18 3.62814 2.14346 0
M  V30 15523 H 1505.91 2.38832 2.22771 0
M  V30 15524 H 1504.57 3.63234 0.495653 0
M  V30 15525 H 1504.21 4.08907 2.92923 0
M  V30 15526 H 1503.91 5.54428 1.94637 0
M  V30 15527 H 1505.44 5.39149 2.86619 0
M  V30 15528 H 1506.85 5.69983 0.615784 0
M  V30 15529 H 1505.25 5.99987 -0.116304 0
M  V30 15530 H 1506.32 4.77796 -0.826969 0
M  V30 15531 N 1507.66 0.121921 1.57128 0
M  V30 15532 C 1508.59 -0.823788 2.18486 0
M  V30 15533 C 1509.57 -1.27519 1.12574 0
M  V30 15534 O 1510.76 -1.33727 1.40822 0
M  V30 15535 C 1507.89 -2.07284 2.78659 0
M  V30 15536 C 1506.84 -1.75912 3.90178 0
M  V30 15537 C 1506.17 -3.07871 4.37172 0
M  V30 15538 C 1507.47 -1.02517 5.1214 0
M  V30 15539 H 1509.16 -0.312488 2.97765 0
M  V30 15540 H 1506.71 -0.148862 1.43228 0
M  V30 15541 H 1508.66 -2.73903 3.20242 0
M  V30 15542 H 1507.39 -2.60743 1.96673 0
M  V30 15543 H 1506.04 -1.11681 3.49174 0
M  V30 15544 H 1505.69 -3.59271 3.52041 0
M  V30 15545 H 1505.39 -2.87653 5.12376 0
M  V30 15546 H 1506.92 -3.75604 4.81409 0
M  V30 15547 H 1508.33 -1.59295 5.50725 0
M  V30 15548 H 1506.73 -0.923836 5.92946 0
M  V30 15549 H 1507.8 -0.0124219 4.84898 0
M  V30 15550 N 1509.14 -1.56867 -0.151857 0
M  V30 15551 C 1510.39 -1.84242 -0.861767 0
M  V30 15552 C 1510.74 -0.705229 -1.79009 0
M  V30 15553 O 1510.03 0.297135 -1.89282 0
M  V30 15554 C 1510.23 -3.15597 -1.6773 0
M  V30 15555 C 1510.06 -4.41985 -0.829442 0
M  V30 15556 C 1508.83 -5.0285 -0.496943 0
M  V30 15557 C 1511.03 -5.14045 -0.162006 0
M  V30 15558 N 1509.01 -6.12814 0.365022 0
M  V30 15559 C 1510.38 -6.17463 0.560301 0
M  V30 15560 C 1512.43 -4.97832 -0.0821767 0
M  V30 15561 C 1511.14 -7.06424 1.35489 0
M  V30 15562 C 1513.16 -5.87253 0.699138 0
M  V30 15563 C 1512.52 -6.90149 1.40974 0
M  V30 15564 H 1508.62 -0.724902 -0.293329 0
M  V30 15565 H 1511.21 -1.94282 -0.127448 0
M  V30 15566 H 1509.38 -3.06713 -2.3829 0
M  V30 15567 H 1511.11 -3.30897 -2.33001 0
M  V30 15568 H 1507.87 -4.66242 -0.831596 0
M  V30 15569 H 1508.29 -6.72411 0.786886 0
M  V30 15570 H 1512.93 -4.18271 -0.617211 0
M  V30 15571 H 1510.65 -7.85417 1.9012 0
M  V30 15572 H 1514.24 -5.76777 0.762833 0
M  V30 15573 H 1513.12 -7.58146 2.00461 0
M  V30 15574 N 1510.62 0.421051 -1.51871 0
M  V30 15575 C 1511.57 1.5122 -1.74359 0
M  V30 15576 C 1512.54 1.55432 -0.585667 0
M  V30 15577 O 1513.72 1.7219 -0.821912 0
M  V30 15578 C 1510.86 2.88787 -1.88935 0
M  V30 15579 C 1509.97 2.93977 -3.16546 0
M  V30 15580 C 1509.11 4.22768 -3.21622 0
M  V30 15581 C 1508.15 4.21888 -4.43483 0
M  V30 15582 N 1507.28 5.4223 -4.46017 0
M  V30 15583 H 1512.12 1.31348 -2.67492 0
M  V30 15584 H 1509.66 0.637779 -1.32555 0
M  V30 15585 H 1511.62 3.68629 -1.95368 0
M  V30 15586 H 1510.25 3.07181 -0.991942 0
M  V30 15587 H 1509.3 2.06699 -3.19343 0
M  V30 15588 H 1510.61 2.8919 -4.06412 0
M  V30 15589 H 1509.77 5.10995 -3.27061 0
M  V30 15590 H 1508.51 4.30234 -2.29674 0
M  V30 15591 H 1507.51 3.32052 -4.38202 0
M  V30 15592 H 1508.74 4.16072 -5.36713 0
M  V30 15593 H 1506.68 5.50386 -3.56947 0
M  V30 15594 H 1506.6 5.39389 -5.29713 0
M  V30 15595 H 1507.87 6.32443 -4.55671 0
M  V30 15596 N 1512.1 1.42293 0.677538 0
M  V30 15597 C 1513.37 1.331 1.43331 0
M  V30 15598 C 1513.75 -0.0329227 2.11074 0
M  V30 15599 O 1513.1 -1.04826 2.03036 0
M  V30 15600 C 1513.31 2.49725 2.438 0
M  V30 15601 C 1514.66 2.91716 3.08524 0
M  V30 15602 O 1515.68 2.49596 2.54127 0
M  V30 15603 O 1514.54 3.64609 4.07091 0
M  V30 15604 H 1511.64 0.524758 0.639185 0
M  V30 15605 H 1514.18 1.54294 0.706493 0
M  V30 15606 H 1512.95 3.40663 1.92522 0
M  V30 15607 H 1512.58 2.30503 3.23966 0
M  V30 15608 N 1513.57 -0.913576 1.28419 0
M  V30 15609 C 1514.52 -2.03739 1.1222 0
M  V30 15610 C 1515.52 -1.69349 0.0414309 0
M  V30 15611 O 1516.72 -1.78883 0.200213 0
M  V30 15612 H 1513.1 -0.667554 0.34623 0
M  V30 15613 H 1515.07 -2.14544 2.07397 0
M  V30 15614 C 1513.82 -3.38348 0.801003 0
M  V30 15615 H 1513.14 -3.65304 1.6246 0
M  V30 15616 H 1514.58 -4.1771 0.727611 0
M  V30 15617 C 1513.04 -3.3324 -0.495261 0
M  V30 15618 O 1513.57 -3.71606 -1.52551 0
M  V30 15619 N 1511.78 -2.86335 -0.496054 0
M  V30 15620 H 1511.32 -2.55309 0.342773 0
M  V30 15621 H 1511.28 -2.833 -1.3634 0
M  V30 15622 N 1515.05 -1.1067 -1.12204 0
M  V30 15623 C 1516.3 -0.861787 -1.84241 0
M  V30 15624 C 1516.65 0.60611 -1.82604 0
M  V30 15625 O 1515.95 1.44133 -1.26239 0
M  V30 15626 C 1516.14 -1.34727 -3.31034 0
M  V30 15627 C 1515.97 -2.86083 -3.46968 0
M  V30 15628 C 1514.74 -3.54113 -3.6046 0
M  V30 15629 C 1516.94 -3.84175 -3.41927 0
M  V30 15630 N 1514.92 -4.93767 -3.64784 0
M  V30 15631 C 1516.29 -5.09853 -3.52775 0
M  V30 15632 C 1518.35 -3.76847 -3.25408 0
M  V30 15633 C 1517.05 -6.29067 -3.48808 0
M  V30 15634 C 1519.07 -4.95564 -3.22755 0
M  V30 15635 C 1518.44 -6.20091 -3.34166 0
M  V30 15636 H 1514.54 -0.368386 -0.689794 0
M  V30 15637 H 1517.12 -1.40954 -1.34314 0
M  V30 15638 H 1515.29 -0.826806 -3.79498 0
M  V30 15639 H 1517.02 -1.04633 -3.9094 0
M  V30 15640 H 1513.78 -3.04564 -3.62682 0
M  V30 15641 H 1514.2 -5.66552 -3.70604 0
M  V30 15642 H 1518.84 -2.81485 -3.15478 0
M  V30 15643 H 1516.56 -7.24716 -3.57509 0
M  V30 15644 H 1520.15 -4.91606 -3.11151 0
M  V30 15645 H 1519.03 -7.10412 -3.32091 0
M  V30 15646 N 1516.53 1.29665 -0.895815 0
M  V30 15647 C 1517.78 1.96006 -0.520522 0
M  V30 15648 C 1518.11 1.7048 0.930068 0
M  V30 15649 O 1517.38 1.01558 1.6588 0
M  V30 15650 C 1517.67 3.50897 -0.808925 0
M  V30 15651 C 1517.52 3.85896 -2.31093 0
M  V30 15652 C 1518.84 4.39125 -0.292769 0
M  V30 15653 H 1515.96 0.711931 -0.190588 0
M  V30 15654 H 1518.6 1.53349 -1.12179 0
M  V30 15655 H 1516.75 3.87362 -0.297194 0
M  V30 15656 H 1518.42 3.59397 -2.89191 0
M  V30 15657 H 1516.67 3.33578 -2.77323 0
M  V30 15658 H 1517.34 4.93989 -2.46331 0
M  V30 15659 H 1519.81 4.0963 -0.730906 0
M  V30 15660 H 1518.69 5.46395 -0.523799 0
M  V30 15661 H 1518.95 4.34683 0.806393 0
M  V30 15662 N 1518.01 0.657889 1.43212 0
M  V30 15663 C 1519.23 0.179444 2.06622 0
M  V30 15664 C 1519.66 -1.14787 1.49015 0
M  V30 15665 O 1519.02 -1.71016 0.60192 0
M  V30 15666 C 1519.06 0.106826 3.60442 0
M  V30 15667 O 1518.17 -0.92962 4.01786 0
M  V30 15668 H 1517.51 0.0970131 0.656875 0
M  V30 15669 H 1520.04 0.902132 1.83638 0
M  V30 15670 H 1520.05 -0.07495 4.07931 0
M  V30 15671 H 1518.72 1.07574 4.01747 0
M  V30 15672 H 1517.3 -0.720255 3.65878 0
M  V30 15673 N 1519.49 -1.52437 0.400108 0
M  V30 15674 C 1520.73 -2.01711 -0.178605 0
M  V30 15675 C 1521.06 -1.28613 -1.45908 0
M  V30 15676 O 1520.32 -0.378206 -1.92011 0
M  V30 15677 C 1520.62 -3.54133 -0.482141 0
M  V30 15678 C 1520.28 -4.45306 0.70806 0
M  V30 15679 C 1518.94 -4.69947 1.03455 0
M  V30 15680 C 1521.3 -4.99035 1.50379 0
M  V30 15681 C 1518.62 -5.45566 2.15812 0
M  V30 15682 C 1520.98 -5.75883 2.61805 0
M  V30 15683 C 1519.64 -5.98799 2.9495 0
M  V30 15684 H 1518.91 -0.738112 -0.0653562 0
M  V30 15685 H 1521.56 -1.83738 0.539676 0
M  V30 15686 H 1519.86 -3.70237 -1.28188 0
M  V30 15687 H 1521.56 -3.89761 -0.942725 0
M  V30 15688 H 1518.15 -4.26298 0.443599 0
M  V30 15689 H 1522.33 -4.79913 1.26479 0
M  V30 15690 H 1517.59 -5.61532 2.4185 0
M  V30 15691 H 1521.76 -6.16514 3.23857 0
M  V30 15692 H 1519.39 -6.57176 3.8213 0
M  V30 15693 N 1520.96 -0.130252 -1.57061 0
M  V30 15694 C 1521.9 0.853341 -2.11644 0
M  V30 15695 C 1522.88 1.25349 -1.03568 0
M  V30 15696 O 1524.06 1.35256 -1.31294 0
M  V30 15697 C 1521.19 2.14354 -2.6224 0
M  V30 15698 C 1520.23 1.8906 -3.82307 0
M  V30 15699 S 1521.07 1.0967 -5.2415 0
M  V30 15700 C 1522.22 2.39845 -5.78122 0
M  V30 15701 H 1522.45 0.389112 -2.94743 0
M  V30 15702 H 1519.99 0.083734 -1.54173 0
M  V30 15703 H 1521.95 2.8848 -2.92044 0
M  V30 15704 H 1520.61 2.57894 -1.79303 0
M  V30 15705 H 1519.8 2.84687 -4.15896 0
M  V30 15706 H 1519.4 1.23051 -3.53178 0
M  V30 15707 H 1521.69 3.35612 -5.88533 0
M  V30 15708 H 1522.64 2.10785 -6.75999 0
M  V30 15709 H 1523.04 2.49727 -5.06257 0
M  V30 15710 N 1522.44 1.56945 0.143535 0
M  V30 15711 C 1523.72 1.74461 0.884454 0
M  V30 15712 C 1524.1 0.699201 1.99184 0
M  V30 15713 O 1523.45 -0.281267 2.26762 0
M  V30 15714 C 1523.66 3.18639 1.42373 0
M  V30 15715 C 1525.01 3.80426 1.88577 0
M  V30 15716 O 1526.03 3.2209 1.52107 0
M  V30 15717 O 1524.89 4.82913 2.55847 0
M  V30 15718 H 1521.98 0.713457 0.41822 0
M  V30 15719 H 1524.53 1.69208 0.12919 0
M  V30 15720 H 1523.3 3.86227 0.628056 0
M  V30 15721 H 1522.92 3.28332 2.2424 0
M  V30 15722 N 1523.92 -0.412991 1.52093 0
M  V30 15723 C 1525.15 -1.18212 1.69805 0
M  V30 15724 C 1525.56 -1.84386 0.405844 0
M  V30 15725 O 1524.92 -1.71725 -0.617809 0
M  V30 15726 C 1524.97 -2.24811 2.83094 0
M  V30 15727 O 1524.69 -1.61338 4.0731 0
M  V30 15728 C 1526.19 -3.14633 3.12283 0
M  V30 15729 H 1523.41 -0.355371 0.569168 0
M  V30 15730 H 1525.96 -0.486392 1.98632 0
M  V30 15731 H 1524.11 -2.90058 2.56797 0
M  V30 15732 H 1524.53 -2.31979 4.7041 0
M  V30 15733 H 1526 -3.85511 3.95076 0
M  V30 15734 H 1526.48 -3.76785 2.25677 0
M  V30 15735 H 1527.08 -2.55059 3.40331 0
M  V30 15736 N 1525.4 -1.4265 -0.669982 0
M  V30 15737 C 1526.33 -1.4094 -1.79475 0
M  V30 15738 C 1527.31 -0.273018 -1.60292 0
M  V30 15739 O 1528.49 -0.463994 -1.827 0
M  V30 15740 C 1525.62 -1.20489 -3.16544 0
M  V30 15741 C 1524.67 -2.37184 -3.54466 0
M  V30 15742 S 1525.5 -3.99722 -3.56346 0
M  V30 15743 C 1526.66 -3.81624 -4.96099 0
M  V30 15744 H 1526.89 -2.36119 -1.80652 0
M  V30 15745 H 1524.42 -1.2948 -0.841092 0
M  V30 15746 H 1526.38 -1.09377 -3.9566 0
M  V30 15747 H 1525.04 -0.268876 -3.12947 0
M  V30 15748 H 1524.23 -2.18636 -4.54108 0
M  V30 15749 H 1523.84 -2.44836 -2.82722 0
M  V30 15750 H 1526.13 -3.42912 -5.8431 0
M  V30 15751 H 1527.07 -4.8096 -5.19696 0
M  V30 15752 H 1527.48 -3.14397 -4.68844 0
M  V30 15753 N 1526.88 0.906753 -1.28902 0
M  V30 15754 C 1527.81 2.02663 -1.15974 0
M  V30 15755 C 1528.79 1.70009 -0.0557202 0
M  V30 15756 O 1529.97 1.92786 -0.233952 0
M  V30 15757 C 1527.1 3.37283 -0.828115 0
M  V30 15758 C 1526.06 3.84123 -1.88767 0
M  V30 15759 C 1525.38 5.15787 -1.40953 0
M  V30 15760 C 1526.68 4.05217 -3.2954 0
M  V30 15761 H 1528.38 2.13738 -2.09658 0
M  V30 15762 H 1525.92 1.02699 -1.0094 0
M  V30 15763 H 1527.88 4.15127 -0.724408 0
M  V30 15764 H 1526.6 3.2628 0.14443 0
M  V30 15765 H 1525.26 3.0849 -1.98065 0
M  V30 15766 H 1524.91 5.01194 -0.425848 0
M  V30 15767 H 1524.61 5.48098 -2.11807 0
M  V30 15768 H 1526.13 5.9618 -1.31918 0
M  V30 15769 H 1527.55 4.73565 -3.23124 0
M  V30 15770 H 1525.94 4.48871 -3.9829 0
M  V30 15771 H 1527.01 3.0979 -3.73039 0
M  V30 15772 N 1528.36 1.11264 1.11616 0
M  V30 15773 C 1529.29 0.727118 2.17361 0
M  V30 15774 C 1530.3 -0.240356 1.61016 0
M  V30 15775 O 1531.49 -0.0235265 1.78484 0
M  V30 15776 C 1528.59 0.05361 3.38858 0
M  V30 15777 C 1527.76 1.04744 4.24673 0
M  V30 15778 C 1526.82 0.403827 5.24648 0
M  V30 15779 O 1525.85 1.0572 5.59296 0
M  V30 15780 N 1527.05 -0.834071 5.74477 0
M  V30 15781 H 1529.81 1.63696 2.51045 0
M  V30 15782 H 1527.38 1.00261 1.2712 0
M  V30 15783 H 1529.37 -0.388643 4.0283 0
M  V30 15784 H 1527.94 -0.758778 3.03251 0
M  V30 15785 H 1527.16 1.6677 3.57185 0
M  V30 15786 H 1528.45 1.71988 4.7885 0
M  V30 15787 H 1527.84 -1.3841 5.48506 0
M  V30 15788 H 1526.4 -1.21933 6.40293 0
M  V30 15789 N 1529.83 -1.29188 0.902679 0
M  V30 15790 C 1530.77 -2.25842 0.327193 0
M  V30 15791 C 1531.74 -1.52567 -0.562321 0
M  V30 15792 O 1532.93 -1.81513 -0.508462 0
M  V30 15793 C 1530.06 -3.34475 -0.533338 0
M  V30 15794 C 1529.1 -4.25518 0.289268 0
M  V30 15795 S 1529.93 -5.08168 1.68896 0
M  V30 15796 C 1531.09 -6.20299 0.835428 0
M  V30 15797 H 1531.32 -2.74307 1.14644 0
M  V30 15798 H 1528.86 -1.37456 0.703212 0
M  V30 15799 H 1530.81 -3.97522 -1.02404 0
M  V30 15800 H 1529.48 -2.84699 -1.32685 0
M  V30 15801 H 1528.67 -5.02653 -0.368218 0
M  V30 15802 H 1528.27 -3.67136 0.71322 0
M  V30 15803 H 1530.56 -6.77473 0.0601329 0
M  V30 15804 H 1531.51 -6.90271 1.57896 0
M  V30 15805 H 1531.91 -5.63162 0.388497 0
M  V30 15806 N 1531.31 -0.665475 -1.42861 0
M  V30 15807 C 1532.54 -0.190399 -2.06524 0
M  V30 15808 C 1532.96 1.13995 -1.49622 0
M  V30 15809 O 1532.32 1.70695 -0.610981 0
M  V30 15810 C 1532.37 -0.12594 -3.6038 0
M  V30 15811 O 1531.47 0.908299 -4.02273 0
M  V30 15812 H 1530.81 -0.100495 -0.656351 0
M  V30 15813 H 1533.34 -0.911858 -1.83156 0
M  V30 15814 H 1533.35 0.0533153 -4.07965 0
M  V30 15815 H 1532.03 -1.09703 -4.01171 0
M  V30 15816 H 1530.6 0.700841 -3.66255 0
M  V30 15817 N 1532.79 1.52222 -0.408187 0
M  V30 15818 C 1534.04 2.00989 0.169252 0
M  V30 15819 C 1534.35 1.29824 1.46305 0
M  V30 15820 O 1535.56 1.69402 2.12168 0
M  V30 15821 C 1534.01 3.58173 0.352179 0
M  V30 15822 C 1533.62 4.38252 -0.929468 0
M  V30 15823 C 1535.37 4.15173 0.88496 0
M  V30 15824 C 1533.27 5.87077 -0.713781 0
M  V30 15825 H 1532.2 0.751015 0.0670261 0
M  V30 15826 H 1534.85 1.75574 -0.533487 0
M  V30 15827 H 1533.24 3.79913 1.11723 0
M  V30 15828 H 1534.41 4.28272 -1.70059 0
M  V30 15829 H 1532.72 3.92565 -1.38859 0
M  V30 15830 H 1535.32 5.2404 1.06235 0
M  V30 15831 H 1535.66 3.72468 1.85938 0
M  V30 15832 H 1536.2 3.97397 0.178995 0
M  V30 15833 H 1532.94 6.3414 -1.65974 0
M  V30 15834 H 1532.46 5.99797 0.0180631 0
M  V30 15835 H 1534.14 6.46022 -0.355596 0
M  V30 15836 N 1534.27 0.138579 1.5699 0
M  V30 15837 C 1535.2 -0.800568 2.19347 0
M  V30 15838 C 1536.18 -1.26318 1.13921 0
M  V30 15839 O 1537.36 -1.32226 1.42232 0
M  V30 15840 C 1534.49 -2.04317 2.80842 0
M  V30 15841 C 1533.45 -1.71764 3.92022 0
M  V30 15842 C 1532.77 -3.03217 4.40413 0
M  V30 15843 C 1534.07 -0.970789 5.13199 0
M  V30 15844 H 1535.77 -0.280888 2.98079 0
M  V30 15845 H 1533.31 -0.133663 1.43378 0
M  V30 15846 H 1535.27 -2.70491 3.2313 0
M  V30 15847 H 1533.99 -2.58643 1.99428 0
M  V30 15848 H 1532.65 -1.07972 3.50339 0
M  V30 15849 H 1532.3 -3.55517 3.55832 0
M  V30 15850 H 1532 -2.82203 5.15398 0
M  V30 15851 H 1533.52 -3.70477 4.85365 0
M  V30 15852 H 1534.94 -1.53445 5.52384 0
M  V30 15853 H 1533.33 -0.860895 5.93893 0
M  V30 15854 H 1534.4 0.0390088 4.84884 0
M  V30 15855 N 1535.75 -1.57019 -0.13521 0
M  V30 15856 C 1536.99 -1.83626 -0.844147 0
M  V30 15857 C 1537.31 -0.721298 -1.81169 0
M  V30 15858 O 1536.58 0.256095 -1.94219 0
M  V30 15859 H 1535.16 -0.677464 -0.314725 0
M  V30 15860 H 1537.83 -1.9449 -0.126399 0
M  V30 15861 H 1536.92 -2.78976 -1.39925 0
M  V30 15862 N 1537.22 0.404919 -1.52309 0
M  V30 15863 C 1538.45 1.17764 -1.70723 0
M  V30 15864 C 1538.87 1.83403 -0.417744 0
M  V30 15865 O 1538.23 1.70181 0.625157 0
M  V30 15866 C 1538.28 2.2133 -2.84685 0
M  V30 15867 O 1537.38 3.27566 -2.50548 0
M  V30 15868 H 1536.73 0.343572 -0.568203 0
M  V30 15869 H 1539.26 0.474093 -1.99031 0
M  V30 15870 H 1539.27 2.6559 -3.09719 0
M  V30 15871 H 1537.94 1.72939 -3.78239 0
M  V30 15872 H 1536.52 2.88556 -2.36199 0
M  V30 15873 N 1538.7 1.43003 0.662408 0
M  V30 15874 C 1539.67 1.4713 1.75743 0
M  V30 15875 C 1540.67 0.357203 1.56782 0
M  V30 15876 O 1541.86 0.618566 1.62848 0
M  V30 15877 C 1538.99 1.31499 3.14517 0
M  V30 15878 H 1540.18 2.44641 1.73467 0
M  V30 15879 H 1537.73 1.29633 0.873208 0
M  V30 15880 H 1538.47 0.349596 3.2241 0
M  V30 15881 H 1538.25 2.12253 3.29683 0
M  V30 15882 H 1539.74 1.37298 3.94384 0
M  V30 15883 N 1540.18 -0.899904 1.29381 0
M  V30 15884 C 1541.13 -2.004 1.14493 0
M  V30 15885 C 1542.1 -1.66056 0.0383099 0
M  V30 15886 O 1543.28 -1.89687 0.20579 0
M  V30 15887 C 1540.42 -3.35039 0.827237 0
M  V30 15888 C 1539.54 -3.82166 2.01427 0
M  V30 15889 C 1538.67 -5.0538 1.63598 0
M  V30 15890 C 1537.71 -5.44876 2.78884 0
M  V30 15891 N 1536.85 -6.59276 2.41452 0
M  V30 15892 H 1541.69 -2.12466 2.08955 0
M  V30 15893 H 1539.22 -1.0405 1.03981 0
M  V30 15894 H 1541.18 -4.12511 0.62373 0
M  V30 15895 H 1539.81 -3.227 -0.0804772 0
M  V30 15896 H 1538.86 -3.00731 2.32949 0
M  V30 15897 H 1540.18 -4.07387 2.87814 0
M  V30 15898 H 1539.33 -5.90436 1.39534 0
M  V30 15899 H 1538.07 -4.81998 0.743593 0
M  V30 15900 H 1537.07 -4.58355 3.0363 0
M  V30 15901 H 1538.3 -5.7024 3.68786 0
M  V30 15902 H 1536.24 -6.37498 1.54701 0
M  V30 15903 H 1536.16 -6.84293 3.21372 0
M  V30 15904 H 1537.43 -7.47602 2.20708 0
M  V30 15905 N 1541.66 -1.11854 -1.11024 0
M  V30 15906 C 1542.61 -0.749858 -2.15316 0
M  V30 15907 C 1543.59 0.248202 -1.58974 0
M  V30 15908 O 1544.78 0.054644 -1.76916 0
M  V30 15909 C 1541.91 -0.199423 -3.4272 0
M  V30 15910 C 1541 -1.22541 -4.06011 0
M  V30 15911 N 1541.39 -2.42104 -4.44094 0
M  V30 15912 C 1539.69 -1.06935 -4.32991 0
M  V30 15913 C 1540.39 -3.07572 -4.93735 0
M  V30 15914 N 1539.37 -2.35038 -4.90161 0
M  V30 15915 H 1543.17 -1.65978 -2.42546 0
M  V30 15916 H 1540.68 -0.998423 -1.28083 0
M  V30 15917 H 1542.68 0.0828628 -4.16818 0
M  V30 15918 H 1541.34 0.705033 -3.16953 0
M  V30 15919 H 1542.35 -2.79529 -4.35986 0
M  V30 15920 H 1539.03 -0.221683 -4.16911 0
M  V30 15921 H 1540.42 -4.0936 -5.32799 0
M  V30 15922 N 1543.14 1.28707 -0.909517 0
M  V30 15923 C 1544.38 1.94768 -0.539413 0
M  V30 15924 C 1544.71 1.7198 0.919133 0
M  V30 15925 O 1543.98 1.0571 1.64931 0
M  V30 15926 H 1542.56 0.720693 -0.196496 0
M  V30 15927 H 1545.22 1.56772 -1.15795 0
M  V30 15928 H 1544.31 3.03436 -0.730281 0
M  V30 15929 N 1544.61 0.673042 1.42506 0
M  V30 15930 C 1545.54 0.00755467 2.33499 0
M  V30 15931 C 1546.53 -0.791161 1.50581 0
M  V30 15932 O 1547.71 -0.748668 1.79189 0
M  V30 15933 C 1544.84 -0.945638 3.34178 0
M  V30 15934 C 1543.79 -0.25564 4.27236 0
M  V30 15935 C 1543.12 -1.32165 5.18109 0
M  V30 15936 C 1544.42 0.864254 5.151 0
M  V30 15937 H 1546.11 0.767487 2.89396 0
M  V30 15938 H 1543.66 0.370524 1.39151 0
M  V30 15939 H 1545.61 -1.42026 3.96745 0
M  V30 15940 H 1544.34 -1.73697 2.76581 0
M  V30 15941 H 1543 0.19873 3.66061 0
M  V30 15942 H 1542.64 -2.10492 4.56839 0
M  V30 15943 H 1542.34 -0.865109 5.81197 0
M  V30 15944 H 1543.87 -1.79724 5.83551 0
M  V30 15945 H 1545.28 0.470924 5.71363 0
M  V30 15946 H 1543.68 1.24648 5.87012 0
M  V30 15947 H 1544.75 1.71378 4.53605 0
M  V30 15948 N 1546.09 -1.52004 0.416254 0
M  V30 15949 C 1547.32 -2.06008 -0.156264 0
M  V30 15950 C 1547.73 -1.28562 -1.3881 0
M  V30 15951 O 1547.07 -0.33265 -1.80663 0
M  V30 15952 C 1547.14 -3.55039 -0.564614 0
M  V30 15953 C 1546.8 -4.53587 0.557481 0
M  V30 15954 C 1547.8 -5.0004 1.42324 0
M  V30 15955 C 1545.48 -4.96935 0.732205 0
M  V30 15956 C 1547.48 -5.88492 2.4486 0
M  V30 15957 C 1545.16 -5.85181 1.76087 0
M  V30 15958 C 1546.16 -6.30855 2.61747 0
M  V30 15959 O 1545.85 -7.17353 3.6285 0
M  V30 15960 H 1545.58 -0.675681 -0.0207555 0
M  V30 15961 H 1548.13 -1.96806 0.58792 0
M  V30 15962 H 1546.36 -3.61951 -1.36119 0
M  V30 15963 H 1548.05 -3.91656 -1.06586 0
M  V30 15964 H 1548.82 -4.67261 1.29968 0
M  V30 15965 H 1544.7 -4.60939 0.0751016 0
M  V30 15966 H 1548.24 -6.24063 3.11754 0
M  V30 15967 H 1544.14 -6.17373 1.8847 0
M  V30 15968 H 1544.91 -7.35481 3.59179 0
M  V30 15969 N 1547.57 -0.146903 -1.56914 0
M  V30 15970 C 1548.5 0.788924 -2.19769 0
M  V30 15971 C 1549.48 1.25712 -1.14589 0
M  V30 15972 O 1550.67 1.3147 -1.42931 0
M  V30 15973 C 1547.8 2.02824 -2.81921 0
M  V30 15974 C 1546.75 1.69683 -3.92927 0
M  V30 15975 C 1546.08 3.00877 -4.42015 0
M  V30 15976 C 1547.38 0.943559 -5.13706 0
M  V30 15977 H 1549.07 0.265076 -2.98224 0
M  V30 15978 H 1546.62 0.126057 -1.43447 0
M  V30 15979 H 1548.57 2.68773 -3.2456 0
M  V30 15980 H 1547.29 2.57581 -2.00797 0
M  V30 15981 H 1545.95 1.06112 -3.50907 0
M  V30 15982 H 1545.6 3.53625 -3.57713 0
M  V30 15983 H 1545.3 2.79466 -5.16888 0
M  V30 15984 H 1546.82 3.67897 -4.87323 0
M  V30 15985 H 1548.24 1.50513 -5.5319 0
M  V30 15986 H 1546.64 0.829387 -5.94341 0
M  V30 15987 H 1547.71 -0.0647228 -4.84857 0
M  V30 15988 N 1549.05 1.57088 0.126881 0
M  V30 15989 C 1550.46 1.73685 0.684865 0
M  V30 15990 C 1550.81 0.764401 1.80697 0
M  V30 15991 O 1549.94 -0.0644761 2.16304 0
M  V30 15992 C 1550.53 3.14933 1.24911 0
M  V30 15993 C 1549.09 3.33063 1.75346 0
M  V30 15994 C 1548.24 2.69575 0.649976 0
M  V30 15995 H 1551.19 1.58391 -0.0989715 0
M  V30 15996 H 1551.21 3.16047 2.11884 0
M  V30 15997 H 1550.72 3.85686 0.432204 0
M  V30 15998 H 1548.82 2.67339 2.59539 0
M  V30 15999 H 1548.93 4.41169 1.86833 0
M  V30 16000 H 1547.3 2.30592 1.08163 0
M  V30 16001 H 1548.08 3.42946 -0.15582 0
M  V30 16002 N 1550.53 -0.396836 1.52522 0
M  V30 16003 C 1551.75 -1.16404 1.71049 0
M  V30 16004 C 1552.17 -1.83946 0.425378 0
M  V30 16005 O 1551.53 -1.7237 -0.599561 0
M  V30 16006 C 1551.58 -2.21796 2.85463 0
M  V30 16007 O 1551.3 -1.57009 4.08998 0
M  V30 16008 C 1552.8 -3.11303 3.15603 0
M  V30 16009 H 1550.02 -0.349314 0.572905 0
M  V30 16010 H 1552.56 -0.465297 1.99136 0
M  V30 16011 H 1550.72 -2.87318 2.59859 0
M  V30 16012 H 1551.13 -2.26977 4.72844 0
M  V30 16013 H 1552.61 -3.81299 3.99143 0
M  V30 16014 H 1553.08 -3.7437 2.2966 0
M  V30 16015 H 1553.69 -2.51435 3.43017 0
M  V30 16016 N 1552.01 -1.43353 -0.654814 0
M  V30 16017 C 1553.42 -1.26718 -0.970297 0
M  V30 16018 C 1553.62 -0.185747 -2.00642 0
M  V30 16019 O 1552.68 0.436357 -2.48701 0
M  V30 16020 C 1553.99 -2.63095 -1.45608 0
M  V30 16021 C 1555.54 -2.70613 -1.57281 0
M  V30 16022 C 1556.01 -4.07404 -2.0925 0
M  V30 16023 N 1557.5 -4.09461 -2.16555 0
M  V30 16024 C 1558.24 -5.12135 -2.57885 0
M  V30 16025 N 1557.74 -6.25185 -2.98523 0
M  V30 16026 N 1559.53 -4.9949 -2.57811 0
M  V30 16027 H 1551.68 -2.12378 0.0308331 0
M  V30 16028 H 1553.94 -0.946744 -0.0487843 0
M  V30 16029 H 1553.65 -3.43186 -0.769171 0
M  V30 16030 H 1553.52 -2.88381 -2.43138 0
M  V30 16031 H 1555.91 -1.90855 -2.25074 0
M  V30 16032 H 1555.99 -2.49094 -0.581879 0
M  V30 16033 H 1555.63 -4.87628 -1.4206 0
M  V30 16034 H 1555.56 -4.26287 -3.09172 0
M  V30 16035 H 1558.06 -3.27858 -1.87929 0
M  V30 16036 H 1558.37 -6.99362 -3.28804 0
M  V30 16037 H 1556.71 -6.28659 -2.96332 0
M  V30 16038 H 1559.9 -4.10238 -2.25438 0
M  V30 16039 H 1560.08 -5.79637 -2.89699 0
M  V30 16040 N 1553.48 0.89303 -1.29857 0
M  V30 16041 C 1554.73 1.64657 -1.18389 0
M  V30 16042 C 1555.06 1.92417 0.262587 0
M  V30 16043 O 1554.34 1.53936 1.18887 0
M  V30 16044 C 1554.62 2.99148 -2.00456 0
M  V30 16045 C 1554.47 2.78411 -3.53281 0
M  V30 16046 C 1555.79 3.99968 -1.83613 0
M  V30 16047 H 1552.91 0.59752 -0.431438 0
M  V30 16048 H 1555.55 1.03397 -1.59402 0
M  V30 16049 H 1553.7 3.51435 -1.65607 0
M  V30 16050 H 1555.38 2.32974 -3.98147 0
M  V30 16051 H 1553.62 2.13067 -3.77869 0
M  V30 16052 H 1554.29 3.74008 -4.05983 0
M  V30 16053 H 1556.77 3.56813 -2.14064 0
M  V30 16054 H 1555.64 4.91997 -2.43373 0
M  V30 16055 H 1555.9 4.34928 -0.793098 0
M  V30 16056 N 1554.96 1.12442 1.10429 0
M  V30 16057 C 1556.19 0.902599 1.86174 0
M  V30 16058 C 1556.6 -0.548147 1.80668 0
M  V30 16059 O 1555.96 -1.37898 1.19543 0
M  V30 16060 C 1556.01 1.36912 3.34571 0
M  V30 16061 O 1555.73 2.763 3.39985 0
M  V30 16062 C 1557.23 1.18424 4.27189 0
M  V30 16063 H 1554.45 0.322534 0.588399 0
M  V30 16064 H 1557 1.49439 1.396 0
M  V30 16065 H 1555.15 0.82055 3.7861 0
M  V30 16066 H 1555.57 2.96772 4.32466 0
M  V30 16067 H 1557.04 1.55954 5.29511 0
M  V30 16068 H 1557.52 0.12483 4.39023 0
M  V30 16069 H 1558.12 1.72032 3.88954 0
M  V30 16070 N 1556.44 -1.28223 0.91633 0
M  V30 16071 C 1557.4 -2.25477 0.411423 0
M  V30 16072 C 1558.4 -1.53969 -0.463689 0
M  V30 16073 O 1559.59 -1.72151 -0.266379 0
M  V30 16074 C 1556.72 -3.38427 -0.409851 0
M  V30 16075 H 1557.92 -2.71656 1.27056 0
M  V30 16076 H 1555.47 -1.3995 0.695966 0
M  V30 16077 H 1556.21 -2.97614 -1.28828 0
M  V30 16078 H 1555.99 -3.91497 0.217435 0
M  V30 16079 H 1557.48 -4.10739 -0.753862 0
M  V30 16080 N 1557.92 -0.68059 -1.42147 0
M  V30 16081 C 1559.17 -0.202445 -2.00681 0
M  V30 16082 C 1559.48 1.19997 -1.54467 0
M  V30 16083 O 1560.69 1.77479 -2.05459 0
M  V30 16084 C 1559.14 -0.311064 -3.58553 0
M  V30 16085 C 1558.75 -1.7179 -4.13754 0
M  V30 16086 C 1560.49 0.108072 -4.24362 0
M  V30 16087 C 1558.4 -1.77897 -5.64009 0
M  V30 16088 H 1557.33 -0.0719266 -0.750561 0
M  V30 16089 H 1559.98 -0.846614 -1.62803 0
M  V30 16090 H 1558.36 0.401098 -3.93963 0
M  V30 16091 H 1559.54 -2.45761 -3.89793 0
M  V30 16092 H 1557.85 -2.08539 -3.60417 0
M  V30 16093 H 1560.45 0.0826684 -5.34636 0
M  V30 16094 H 1560.79 1.14431 -4.00264 0
M  V30 16095 H 1561.33 -0.553285 -3.93933 0
M  V30 16096 H 1558.06 -2.79523 -5.92914 0
M  V30 16097 H 1557.58 -1.0829 -5.89944 0
M  V30 16098 H 1559.26 -1.53504 -6.28527 0
M  V30 16099 N 1559.4 1.51781 -0.424309 0
M  V30 16100 C 1560.35 2.24259 0.411339 0
M  V30 16101 C 1561.33 1.25976 1.00094 0
M  V30 16102 O 1562.52 1.51136 0.921238 0
M  V30 16103 C 1559.65 3.07858 1.51917 0
M  V30 16104 C 1558.74 4.13561 0.939599 0
M  V30 16105 N 1559.13 5.05723 0.08803 0
M  V30 16106 C 1557.43 4.29314 1.20855 0
M  V30 16107 C 1558.13 5.81221 -0.236076 0
M  V30 16108 N 1557.1 5.42291 0.376983 0
M  V30 16109 H 1560.9 2.92874 -0.2454 0
M  V30 16110 H 1558.42 1.60682 -0.235612 0
M  V30 16111 H 1560.42 3.58347 2.13056 0
M  V30 16112 H 1559.08 2.40784 2.17837 0
M  V30 16113 H 1560.09 5.17156 -0.277436 0
M  V30 16114 H 1556.76 3.73469 1.86621 0
M  V30 16115 H 1558.15 6.65457 -0.928241 0
M  V30 16116 N 1560.87 0.155222 1.56834 0
M  V30 16117 C 1562.12 -0.493831 1.95561 0
M  V30 16118 C 1562.44 -1.65468 1.04305 0
M  V30 16119 O 1563.64 -2.36891 1.32646 0
M  V30 16120 C 1562.1 -0.929923 3.47679 0
M  V30 16121 C 1561.71 0.204447 4.47533 0
M  V30 16122 C 1563.45 -1.5483 3.95257 0
M  V30 16123 C 1561.36 -0.250375 5.9087 0
M  V30 16124 H 1560.29 -0.188258 0.73012 0
M  V30 16125 H 1562.94 0.240883 1.81912 0
M  V30 16126 H 1561.32 -1.72014 3.56689 0
M  V30 16127 H 1562.49 0.981535 4.50225 0
M  V30 16128 H 1560.81 0.731756 4.0992 0
M  V30 16129 H 1563.41 -1.90036 4.9979 0
M  V30 16130 H 1563.75 -2.44031 3.37275 0
M  V30 16131 H 1564.28 -0.822828 3.89197 0
M  V30 16132 H 1561.02 0.606461 6.52689 0
M  V30 16133 H 1560.54 -0.993164 5.9152 0
M  V30 16134 H 1562.22 -0.699645 6.43206 0
M  V30 16135 N 1562.35 -1.57153 -0.118549 0
M  V30 16136 C 1563.63 -1.75846 -0.856587 0
M  V30 16137 C 1564.01 -0.730801 -1.98047 0
M  V30 16138 O 1563.36 0.245156 -2.27181 0
M  V30 16139 C 1563.57 -3.20864 -1.37286 0
M  V30 16140 C 1564.91 -3.83378 -1.82501 0
M  V30 16141 O 1565.94 -3.24469 -1.46964 0
M  V30 16142 O 1564.8 -4.86922 -2.48132 0
M  V30 16143 H 1561.89 -0.72002 -0.406817 0
M  V30 16144 H 1564.44 -1.69392 -0.102254 0
M  V30 16145 H 1563.21 -3.87177 -0.566531 0
M  V30 16146 H 1562.83 -3.31858 -2.18988 0
M  V30 16147 N 1563.83 0.388742 -1.5273 0
M  V30 16148 C 1565.24 0.966667 -1.59726 0
M  V30 16149 C 1565.59 1.90963 -0.450272 0
M  V30 16150 O 1564.72 2.12153 0.426611 0
M  V30 16151 C 1565.31 1.75998 -2.895 0
M  V30 16152 C 1563.87 2.28761 -2.98907 0
M  V30 16153 C 1563.02 1.09322 -2.54841 0
M  V30 16154 H 1565.97 0.16828 -1.57805 0
M  V30 16155 H 1565.99 2.61924 -2.76 0
M  V30 16156 H 1565.5 1.07342 -3.7296 0
M  V30 16157 H 1563.6 3.00728 -2.19985 0
M  V30 16158 H 1563.72 2.58229 -4.03552 0
M  V30 16159 H 1562.08 1.45332 -2.09167 0
M  V30 16160 H 1562.86 0.421999 -3.40696 0
M  V30 16161 N 1565.31 1.43698 0.647203 0
M  V30 16162 C 1566.27 1.48986 1.74172 0
M  V30 16163 C 1567.27 0.373812 1.56395 0
M  V30 16164 O 1568.46 0.635804 1.62183 0
M  V30 16165 C 1565.59 1.34827 3.13104 0
M  V30 16166 H 1566.79 2.46467 1.70863 0
M  V30 16167 H 1564.34 1.30552 0.859409 0
M  V30 16168 H 1565.07 0.383772 3.22021 0
M  V30 16169 H 1564.86 2.15738 3.27414 0
M  V30 16170 H 1566.35 1.41473 3.92906 0
M  V30 16171 N 1566.79 -0.886131 1.30328 0
M  V30 16172 C 1568.01 -1.67099 1.22007 0
M  V30 16173 C 1568.43 -1.87546 -0.217255 0
M  V30 16174 O 1567.79 -1.42213 -1.14375 0
M  V30 16175 C 1567.84 -3.048 1.94368 0
M  V30 16176 O 1567.56 -2.85277 3.32489 0
M  V30 16177 C 1569.06 -3.99231 1.9269 0
M  V30 16178 H 1566.28 -0.521467 0.422271 0
M  V30 16179 H 1568.82 -1.1072 1.71934 0
M  V30 16180 H 1566.98 -3.57915 1.48242 0
M  V30 16181 H 1567.39 -3.72626 3.69121 0
M  V30 16182 H 1568.87 -4.93223 2.47861 0
M  V30 16183 H 1569.34 -4.29763 0.905558 0
M  V30 16184 H 1569.95 -3.52051 2.38621 0
M  V30 16185 N 1568.26 -1.13026 -1.09832 0
M  V30 16186 C 1569.21 -0.772653 -2.14509 0
M  V30 16187 C 1570.2 0.231327 -1.59228 0
M  V30 16188 O 1571.39 0.0358767 -1.76964 0
M  V30 16189 C 1568.52 -0.235762 -3.42489 0
M  V30 16190 C 1567.61 -1.2684 -4.04688 0
M  V30 16191 N 1568 -2.46801 -4.41501 0
M  V30 16192 C 1566.29 -1.11521 -4.31832 0
M  V30 16193 C 1567 -3.12791 -4.90445 0
M  V30 16194 N 1565.97 -2.40224 -4.87641 0
M  V30 16195 H 1569.77 -1.68541 -2.40772 0
M  V30 16196 H 1567.29 -1.01195 -1.27017 0
M  V30 16197 H 1569.28 0.038649 -4.16882 0
M  V30 16198 H 1567.94 0.671377 -3.17683 0
M  V30 16199 H 1568.96 -2.84137 -4.32997 0
M  V30 16200 H 1565.63 -0.26589 -4.16652 0
M  V30 16201 H 1567.02 -4.14988 -5.28427 0
M  V30 16202 N 1569.74 1.27735 -0.923117 0
M  V30 16203 C 1571.16 1.46952 -0.622666 0
M  V30 16204 C 1571.36 1.8364 0.829384 0
M  V30 16205 O 1570.41 1.94705 1.60767 0
M  V30 16206 C 1571.73 2.56545 -1.56861 0
M  V30 16207 C 1573.28 2.70408 -1.57634 0
M  V30 16208 C 1573.75 3.83154 -2.50913 0
M  V30 16209 N 1575.24 3.90521 -2.49093 0
M  V30 16210 C 1575.98 4.77167 -3.17962 0
M  V30 16211 N 1575.47 5.68334 -3.96193 0
M  V30 16212 N 1577.27 4.70857 -3.07002 0
M  V30 16213 H 1569.42 1.02205 -1.86193 0
M  V30 16214 H 1571.68 0.509982 -0.799138 0
M  V30 16215 H 1571.39 2.3637 -2.60427 0
M  V30 16216 H 1571.26 3.53839 -1.30681 0
M  V30 16217 H 1573.65 2.89967 -0.548005 0
M  V30 16218 H 1573.73 1.73615 -1.8786 0
M  V30 16219 H 1573.37 3.64349 -3.53853 0
M  V30 16220 H 1573.3 4.79365 -2.17984 0
M  V30 16221 H 1575.79 3.25329 -1.92274 0
M  V30 16222 H 1576.11 6.31298 -4.45738 0
M  V30 16223 H 1574.45 5.68144 -4.00297 0
M  V30 16224 H 1577.64 3.98629 -2.45382 0
M  V30 16225 H 1577.81 5.38166 -3.60945 0
M  V30 16226 N 1571.22 0.688118 1.41784 0
M  V30 16227 C 1572.15 -0.02099 2.2919 0
M  V30 16228 C 1573.17 -0.752005 1.44391 0
M  V30 16229 O 1574.35 -0.603947 1.67972 0
M  V30 16230 C 1571.45 -1.0537 3.22103 0
M  V30 16231 C 1570.63 -0.393817 4.35624 0
M  V30 16232 C 1569.69 -1.32812 5.09163 0
M  V30 16233 O 1568.71 -0.823341 5.63214 0
M  V30 16234 N 1569.91 -2.66083 5.15927 0
M  V30 16235 H 1572.68 0.729389 2.90689 0
M  V30 16236 H 1570.24 0.533564 1.52855 0
M  V30 16237 H 1572.23 -1.6803 3.68169 0
M  V30 16238 H 1570.8 -1.70568 2.61964 0
M  V30 16239 H 1570.02 0.41253 3.92035 0
M  V30 16240 H 1571.31 0.065338 5.08758 0
M  V30 16241 H 1570.71 -3.09619 4.73448 0
M  V30 16242 H 1569.27 -3.23956 5.65593 0
M  V30 16243 N 1572.7 -1.51554 0.432352 0
M  V30 16244 C 1573.65 -2.27623 -0.381602 0
M  V30 16245 C 1574.62 -1.31003 -1.02114 0
M  V30 16246 O 1575.8 -1.59899 -1.041 0
M  V30 16247 C 1572.94 -3.11772 -1.47959 0
M  V30 16248 C 1572.05 -4.2338 -0.858682 0
M  V30 16249 C 1571.19 -4.94847 -1.93131 0
M  V30 16250 C 1570.23 -5.98383 -1.28856 0
M  V30 16251 N 1569.36 -6.63278 -2.30233 0
M  V30 16252 H 1574.2 -2.96743 0.273472 0
M  V30 16253 H 1571.74 -1.46367 0.146706 0
M  V30 16254 H 1573.7 -3.58882 -2.12742 0
M  V30 16255 H 1572.33 -2.44778 -2.10437 0
M  V30 16256 H 1571.38 -3.8027 -0.0992797 0
M  V30 16257 H 1572.69 -4.97575 -0.349381 0
M  V30 16258 H 1571.85 -5.4548 -2.65587 0
M  V30 16259 H 1570.59 -4.20272 -2.47432 0
M  V30 16260 H 1569.59 -5.47048 -0.549441 0
M  V30 16261 H 1570.82 -6.74913 -0.752941 0
M  V30 16262 H 1568.76 -5.91518 -2.83624 0
M  V30 16263 H 1568.68 -7.33221 -1.84181 0
M  V30 16264 H 1569.95 -7.18542 -3.02188 0
M  V30 16265 N 1574.18 -0.163538 -1.56749 0
M  V30 16266 C 1575.11 0.765571 -2.20593 0
M  V30 16267 C 1576.09 1.24489 -1.15916 0
M  V30 16268 O 1577.27 1.29946 -1.44318 0
M  V30 16269 C 1574.4 1.99823 -2.84057 0
M  V30 16270 C 1573.36 1.65506 -3.94705 0
M  V30 16271 C 1572.68 2.96172 -4.45181 0
M  V30 16272 C 1573.98 0.88902 -5.14678 0
M  V30 16273 H 1575.68 0.233431 -2.98489 0
M  V30 16274 H 1573.22 0.110836 -1.43573 0
M  V30 16275 H 1575.18 2.65316 -3.27392 0
M  V30 16276 H 1573.9 2.55437 -2.03517 0
M  V30 16277 H 1572.56 1.02384 -3.52013 0
M  V30 16278 H 1572.21 3.49811 -3.61443 0
M  V30 16279 H 1571.91 2.73968 -5.19823 0
M  V30 16280 H 1573.43 3.62708 -4.91198 0
M  V30 16281 H 1574.84 1.44637 -5.54755 0
M  V30 16282 H 1573.24 0.766302 -5.95187 0
M  V30 16283 H 1574.31 -0.116145 -4.84761 0
M  V30 16284 N 1575.65 1.57214 0.110213 0
M  V30 16285 C 1576.88 1.8923 0.829187 0
M  V30 16286 C 1577.29 0.753834 1.73534 0
M  V30 16287 O 1576.64 -0.283946 1.81492 0
M  V30 16288 C 1576.7 3.16351 1.7077 0
M  V30 16289 C 1576.36 4.46479 0.974949 0
M  V30 16290 C 1577.36 5.18965 0.311696 0
M  V30 16291 C 1575.04 4.93167 0.953516 0
M  V30 16292 C 1577.04 6.36364 -0.363191 0
M  V30 16293 C 1574.72 6.10482 0.274836 0
M  V30 16294 C 1575.72 6.81929 -0.382355 0
M  V30 16295 O 1575.41 7.97011 -1.05019 0
M  V30 16296 H 1575.14 0.630744 0.243184 0
M  V30 16297 H 1577.7 2.05173 0.09648 0
M  V30 16298 H 1575.93 2.96513 2.48227 0
M  V30 16299 H 1577.62 3.34317 2.30189 0
M  V30 16300 H 1578.38 4.83944 0.319815 0
M  V30 16301 H 1574.26 4.37454 1.45448 0
M  V30 16302 H 1577.8 6.92069 -0.876728 0
M  V30 16303 H 1573.7 6.44958 0.26451 0
M  V30 16304 H 1574.47 8.12903 -0.95555 0
M  V30 16305 N 1577.13 -0.380637 1.52934 0
M  V30 16306 C 1578.36 -1.14583 1.72274 0
M  V30 16307 C 1578.78 -1.83484 0.444864 0
M  V30 16308 O 1578.13 -1.72997 -0.581245 0
M  V30 16309 C 1578.18 -2.18756 2.87799 0
M  V30 16310 O 1577.9 -1.52662 4.10641 0
M  V30 16311 C 1579.41 -3.07938 3.18887 0
M  V30 16312 H 1576.63 -0.343218 0.576578 0
M  V30 16313 H 1579.17 -0.444149 1.99619 0
M  V30 16314 H 1577.32 -2.84546 2.62892 0
M  V30 16315 H 1577.74 -2.21949 4.75225 0
M  V30 16316 H 1579.21 -3.77045 4.03164 0
M  V30 16317 H 1579.69 -3.71913 2.33618 0
M  V30 16318 H 1580.3 -2.47783 3.45664 0
M  V30 16319 N 1578.61 -1.44039 -0.639573 0
M  V30 16320 C 1579.54 -1.53073 -1.76327 0
M  V30 16321 C 1580.52 -0.384344 -1.65701 0
M  V30 16322 O 1581.71 -0.603362 -1.84589 0
M  V30 16323 C 1578.84 -1.46646 -3.14821 0
M  V30 16324 C 1577.79 -2.59673 -3.40226 0
M  V30 16325 C 1577.12 -2.38298 -4.78663 0
M  V30 16326 C 1578.42 -4.01864 -3.33621 0
M  V30 16327 H 1580.11 -2.47126 -1.69023 0
M  V30 16328 H 1577.66 -1.1894 -0.811749 0
M  V30 16329 H 1579.61 -1.51567 -3.93199 0
M  V30 16330 H 1578.33 -0.491035 -3.22888 0
M  V30 16331 H 1576.99 -2.54127 -2.64225 0
M  V30 16332 H 1576.64 -1.38968 -4.83422 0
M  V30 16333 H 1576.34 -3.14074 -4.9662 0
M  V30 16334 H 1577.86 -2.45025 -5.59281 0
M  V30 16335 H 1579.28 -4.08824 -4.01915 0
M  V30 16336 H 1577.68 -4.77775 -3.63113 0
M  V30 16337 H 1578.75 -4.26033 -2.31569 0
M  V30 16338 N 1580.09 0.879207 -1.30796 0
M  V30 16339 C 1581.02 1.99134 -1.13482 0
M  V30 16340 C 1582.03 1.6262 -0.0764492 0
M  V30 16341 O 1583.22 1.75553 -0.323038 0
M  V30 16342 C 1580.32 3.31386 -0.709706 0
M  V30 16343 C 1579.5 3.963 -1.85108 0
M  V30 16344 C 1578.55 5.06858 -1.41356 0
M  V30 16345 O 1577.58 5.28178 -2.12172 0
M  V30 16346 N 1578.78 5.79746 -0.295789 0
M  V30 16347 H 1581.55 2.14536 -2.09271 0
M  V30 16348 H 1579.11 1.05264 -1.23009 0
M  V30 16349 H 1581.1 4.02719 -0.399903 0
M  V30 16350 H 1579.67 3.12209 0.156309 0
M  V30 16351 H 1578.89 3.18065 -2.3287 0
M  V30 16352 H 1580.18 4.36408 -2.61582 0
M  V30 16353 H 1579.58 5.64935 0.294166 0
M  V30 16354 H 1578.13 6.51784 -0.0454707 0
M  V30 16355 N 1581.57 1.13606 1.09231 0
M  V30 16356 C 1582.84 0.81012 1.78035 0
M  V30 16357 C 1583.22 -0.697953 1.99228 0
M  V30 16358 O 1582.57 -1.63592 1.5953 0
M  V30 16359 C 1582.78 1.59932 3.10198 0
M  V30 16360 C 1584.13 1.79328 3.84872 0
M  V30 16361 O 1585.15 1.56547 3.19955 0
M  V30 16362 O 1584.01 2.17355 5.01417 0
M  V30 16363 H 1581.11 0.295995 0.772215 0
M  V30 16364 H 1583.65 1.24079 1.15769 0
M  V30 16365 H 1582.43 2.6241 2.9027 0
M  V30 16366 H 1582.05 1.16371 3.80189 0
M  V30 16367 N 1583.05 -1.27244 0.929878 0
M  V30 16368 C 1583.99 -2.26773 0.429287 0
M  V30 16369 C 1584.96 -1.58238 -0.50498 0
M  V30 16370 O 1586.15 -1.86037 -0.423661 0
M  V30 16371 C 1583.29 -3.43706 -0.309865 0
M  V30 16372 C 1582.4 -4.26948 0.658764 0
M  V30 16373 C 1581.54 -5.31105 -0.10045 0
M  V30 16374 C 1580.57 -6.06018 0.860743 0
M  V30 16375 N 1579.71 -7.01972 0.134015 0
M  V30 16376 H 1584.55 -2.68967 1.283 0
M  V30 16377 H 1582.09 -1.32257 0.643923 0
M  V30 16378 H 1584.05 -4.10316 -0.754754 0
M  V30 16379 H 1582.68 -3.02457 -1.1278 0
M  V30 16380 H 1581.73 -3.60232 1.22218 0
M  V30 16381 H 1583.04 -4.78946 1.39326 0
M  V30 16382 H 1582.19 -6.03674 -0.605153 0
M  V30 16383 H 1580.93 -4.79915 -0.867902 0
M  V30 16384 H 1579.94 -5.32285 1.37668 0
M  V30 16385 H 1581.16 -6.59297 1.62801 0
M  V30 16386 H 1579.11 -6.53109 -0.615152 0
M  V30 16387 H 1579.03 -7.51669 0.808045 0
M  V30 16388 H 1580.29 -7.78714 -0.349964 0
M  V30 16389 N 1584.52 -0.695628 -1.41417 0
M  V30 16390 C 1585.49 -0.0392949 -2.29166 0
M  V30 16391 C 1586.49 0.70789 -1.4438 0
M  V30 16392 O 1587.68 0.542771 -1.65528 0
M  V30 16393 C 1584.81 0.954719 -3.27258 0
M  V30 16394 H 1586 -0.811902 -2.88701 0
M  V30 16395 H 1583.55 -0.459128 -1.49405 0
M  V30 16396 H 1584.29 1.75509 -2.72703 0
M  V30 16397 H 1584.07 0.422079 -3.89822 0
M  V30 16398 H 1585.56 1.41174 -3.93014 0
M  V30 16399 N 1586 1.51322 -0.440383 0
M  V30 16400 C 1586.93 2.25587 0.40537 0
M  V30 16401 C 1587.95 1.29721 0.983686 0
M  V30 16402 O 1589.14 1.55453 0.877308 0
M  V30 16403 C 1586.24 2.99848 1.57938 0
M  V30 16404 C 1585.41 4.22834 1.11939 0
M  V30 16405 C 1584.47 4.79649 2.16387 0
M  V30 16406 O 1583.49 5.41405 1.75697 0
M  V30 16407 N 1584.7 4.63948 3.48902 0
M  V30 16408 H 1587.46 2.98807 -0.231143 0
M  V30 16409 H 1585.02 1.59642 -0.26944 0
M  V30 16410 H 1587.01 3.34743 2.2744 0
M  V30 16411 H 1585.58 2.29619 2.12117 0
M  V30 16412 H 1584.8 3.93398 0.251323 0
M  V30 16413 H 1586.09 5.02637 0.7895 0
M  V30 16414 H 1585.49 4.14764 3.84691 0
M  V30 16415 H 1584.05 5.03196 4.14291 0
M  V30 16416 N 1587.48 0.171848 1.5666 0
M  V30 16417 C 1588.73 -0.473669 1.97191 0
M  V30 16418 C 1589.06 -1.6286 1.05784 0
M  V30 16419 O 1588.33 -1.94216 0.105084 0
M  V30 16420 C 1588.62 -0.956134 3.47174 0
M  V30 16421 C 1588.47 0.199007 4.4936 0
M  V30 16422 C 1589.79 -1.82962 4.00266 0
M  V30 16423 H 1586.91 -0.170704 0.716958 0
M  V30 16424 H 1589.55 0.25809 1.88239 0
M  V30 16425 H 1587.7 -1.57969 3.54934 0
M  V30 16426 H 1589.37 0.836109 4.53659 0
M  V30 16427 H 1587.61 0.85442 4.25302 0
M  V30 16428 H 1588.29 -0.180704 5.51704 0
M  V30 16429 H 1590.76 -1.30394 3.95141 0
M  V30 16430 H 1589.64 -2.13621 5.05625 0
M  V30 16431 H 1589.9 -2.77557 3.44114 0
M  V30 16432 N 1588.96 -1.5727 -0.101874 0
M  V30 16433 C 1589.92 -2.00625 -1.10826 0
M  V30 16434 C 1590.92 -0.89878 -1.33336 0
M  V30 16435 O 1592.11 -1.16442 -1.29564 0
M  V30 16436 C 1589.24 -2.36113 -2.45893 0
M  V30 16437 H 1590.44 -2.90748 -0.735238 0
M  V30 16438 H 1587.99 -1.52406 -0.346713 0
M  V30 16439 H 1588.72 -1.48923 -2.88084 0
M  V30 16440 H 1588.51 -3.169 -2.30904 0
M  V30 16441 H 1590 -2.70336 -3.1829 0
M  V30 16442 N 1590.44 0.372521 -1.53134 0
M  V30 16443 C 1591.71 1.13113 -1.59577 0
M  V30 16444 C 1592.09 2.07294 -0.399027 0
M  V30 16445 O 1591.44 2.20171 0.611316 0
M  V30 16446 C 1591.65 1.87635 -2.94269 0
M  V30 16447 C 1593 2.42414 -3.48598 0
M  V30 16448 O 1594.02 1.9777 -2.96252 0
M  V30 16449 O 1592.88 3.24008 -4.40092 0
M  V30 16450 H 1589.98 0.518486 -0.644284 0
M  V30 16451 H 1592.52 0.376344 -1.65474 0
M  V30 16452 H 1591.29 1.18859 -3.72811 0
M  V30 16453 H 1590.92 2.70037 -2.91831 0
M  V30 16454 N 1591.91 1.44376 0.631925 0
M  V30 16455 C 1593.16 1.47335 1.39356 0
M  V30 16456 C 1593.49 0.10525 1.93915 0
M  V30 16457 O 1592.77 -0.877006 1.73605 0
M  V30 16458 C 1593.05 2.53308 2.55943 0
M  V30 16459 C 1592.9 3.99473 2.06739 0
M  V30 16460 C 1594.22 2.55794 3.58131 0
M  V30 16461 H 1591.34 0.536447 0.505365 0
M  V30 16462 H 1593.98 1.76051 0.714572 0
M  V30 16463 H 1592.13 2.28953 3.13868 0
M  V30 16464 H 1593.81 4.34958 1.53652 0
M  V30 16465 H 1592.05 4.11288 1.37929 0
M  V30 16466 H 1592.72 4.69269 2.90672 0
M  V30 16467 H 1595.2 2.77554 3.10005 0
M  V30 16468 H 1594.07 3.31847 4.37228 0
M  V30 16469 H 1594.33 1.59962 4.12146 0
M  V30 16470 N 1593.39 -0.872258 1.31261 0
M  V30 16471 C 1594.64 -1.62752 1.20994 0
M  V30 16472 C 1594.97 -1.9281 -0.231942 0
M  V30 16473 O 1594.25 -1.55808 -1.16423 0
M  V30 16474 C 1594.53 -2.95921 2.0519 0
M  V30 16475 C 1594.38 -2.72756 3.57665 0
M  V30 16476 C 1595.7 -3.96996 1.89953 0
M  V30 16477 H 1592.82 -0.590581 0.440889 0
M  V30 16478 H 1595.46 -1.00848 1.61027 0
M  V30 16479 H 1593.61 -3.48756 1.71177 0
M  V30 16480 H 1595.28 -2.26611 4.01803 0
M  V30 16481 H 1593.53 -2.07029 3.81211 0
M  V30 16482 H 1594.2 -3.67502 4.11882 0
M  V30 16483 H 1596.67 -3.53363 2.19713 0
M  V30 16484 H 1595.55 -4.88063 2.51169 0
M  V30 16485 H 1595.81 -4.33611 0.862191 0
M  V30 16486 N 1594.87 -1.14184 -1.08627 0
M  V30 16487 C 1596.12 -0.91001 -1.81236 0
M  V30 16488 C 1596.45 0.562134 -1.85886 0
M  V30 16489 O 1595.72 1.41631 -1.33307 0
M  V30 16490 C 1596.01 -1.50879 -3.26967 0
M  V30 16491 C 1595.86 -3.05063 -3.3054 0
M  V30 16492 C 1597.18 -1.18379 -4.2388 0
M  V30 16493 H 1594.3 -0.332025 -0.657973 0
M  V30 16494 H 1596.94 -1.41144 -1.27194 0
M  V30 16495 H 1595.09 -1.08236 -3.73118 0
M  V30 16496 H 1596.76 -3.5652 -2.9273 0
M  V30 16497 H 1595 -3.39628 -2.6988 0
M  V30 16498 H 1595.68 -3.42064 -4.33239 0
M  V30 16499 H 1598.15 -1.55242 -3.86056 0
M  V30 16500 H 1597.03 -1.62911 -5.24167 0
M  V30 16501 H 1597.29 -0.0987385 -4.4199 0
M  V30 16502 N 1596.35 1.26749 -0.936613 0
M  V30 16503 C 1597.57 1.98597 -0.597817 0
M  V30 16504 C 1598 1.69324 0.8192 0
M  V30 16505 O 1597.36 0.938634 1.55111 0
M  V30 16506 C 1597.4 3.50656 -0.841007 0
M  V30 16507 O 1596.51 4.12304 0.0891038 0
M  V30 16508 H 1595.85 0.623197 -0.229176 0
M  V30 16509 H 1598.38 1.61332 -1.2583 0
M  V30 16510 H 1598.39 4.00857 -0.760093 0
M  V30 16511 H 1597.06 3.71293 -1.87388 0
M  V30 16512 H 1595.64 3.72876 -0.0424804 0
M  V30 16513 N 1597.83 0.703118 1.41046 0
M  V30 16514 C 1599.24 0.375417 1.55122 0
M  V30 16515 C 1599.44 -1.11696 1.67709 0
M  V30 16516 O 1598.5 -1.90289 1.65971 0
M  V30 16517 C 1599.81 1.13056 2.78638 0
M  V30 16518 C 1601.36 1.11564 2.92442 0
M  V30 16519 C 1601.83 1.85268 4.18855 0
M  V30 16520 N 1603.33 1.82275 4.25829 0
M  V30 16521 C 1604.06 2.36137 5.2252 0
M  V30 16522 N 1603.56 2.98502 6.25195 0
M  V30 16523 N 1605.35 2.26349 5.14512 0
M  V30 16524 H 1597.5 1.67096 1.31121 0
M  V30 16525 H 1599.76 0.705573 0.633144 0
M  V30 16526 H 1599.47 2.18524 2.75572 0
M  V30 16527 H 1599.34 0.714037 3.7038 0
M  V30 16528 H 1601.73 0.0691901 2.95019 0
M  V30 16529 H 1601.81 1.57128 2.01853 0
M  V30 16530 H 1601.46 2.89896 4.1704 0
M  V30 16531 H 1601.39 1.37133 5.08431 0
M  V30 16532 H 1603.88 1.36812 3.52265 0
M  V30 16533 H 1604.19 3.37149 6.95378 0
M  V30 16534 H 1602.53 3.02582 6.25675 0
M  V30 16535 H 1605.73 1.77294 4.33226 0
M  V30 16536 H 1605.9 2.68629 5.89697 0
M  V30 16537 N 1599.3 -1.51086 0.448402 0
M  V30 16538 C 1600.55 -2.0312 -0.106726 0
M  V30 16539 C 1600.91 -1.3259 -1.39419 0
M  V30 16540 O 1600.2 -0.435501 -1.86585 0
M  V30 16541 C 1600.39 -3.55488 -0.369232 0
M  V30 16542 C 1600.22 -4.4078 0.891233 0
M  V30 16543 C 1598.99 -4.84703 1.42798 0
M  V30 16544 C 1601.19 -4.82498 1.78044 0
M  V30 16545 N 1599.17 -5.54243 2.63984 0
M  V30 16546 C 1600.54 -5.51218 2.83828 0
M  V30 16547 C 1602.6 -4.64474 1.79354 0
M  V30 16548 C 1601.3 -6.03825 3.90881 0
M  V30 16549 C 1603.33 -5.18005 2.8535 0
M  V30 16550 C 1602.69 -5.86681 3.89853 0
M  V30 16551 H 1598.79 -0.782 0.000394759 0
M  V30 16552 H 1601.37 -1.84846 0.611546 0
M  V30 16553 H 1599.54 -3.73754 -1.05654 0
M  V30 16554 H 1601.27 -3.94181 -0.916694 0
M  V30 16555 H 1598.03 -4.63343 0.980339 0
M  V30 16556 H 1598.45 -5.93634 3.25465 0
M  V30 16557 H 1603.1 -4.10832 0.998865 0
M  V30 16558 H 1600.81 -6.56517 4.7118 0
M  V30 16559 H 1604.4 -5.05905 2.87318 0
M  V30 16560 H 1603.28 -6.27358 4.70522 0
M  V30 16561 N 1600.78 -0.180154 -1.56567 0
M  V30 16562 C 1601.71 0.742131 -2.21393 0
M  V30 16563 C 1602.69 1.23253 -1.1723 0
M  V30 16564 O 1603.88 1.28408 -1.45688 0
M  V30 16565 C 1601.01 1.96799 -2.8616 0
M  V30 16566 C 1599.96 1.6131 -3.96438 0
M  V30 16567 C 1599.29 2.91434 -4.48297 0
M  V30 16568 C 1600.59 0.834382 -5.15592 0
M  V30 16569 H 1602.28 0.201759 -2.98719 0
M  V30 16570 H 1599.83 0.0956016 -1.43682 0
M  V30 16571 H 1601.78 2.61828 -3.30188 0
M  V30 16572 H 1600.51 2.53264 -2.06215 0
M  V30 16573 H 1599.16 0.986451 -3.53079 0
M  V30 16574 H 1598.81 3.45958 -3.65133 0
M  V30 16575 H 1598.51 2.68439 -5.22699 0
M  V30 16576 H 1600.04 3.57478 -4.95017 0
M  V30 16577 H 1601.45 1.38745 -5.56258 0
M  V30 16578 H 1599.85 0.703132 -5.95966 0
M  V30 16579 H 1600.92 -0.167554 -4.8461 0
M  V30 16580 N 1602.26 1.57322 0.0935319 0
M  V30 16581 C 1603.68 1.5319 0.447781 0
M  V30 16582 C 1603.88 0.897107 1.80428 0
M  V30 16583 O 1602.93 0.490285 2.47694 0
M  V30 16584 C 1604.25 2.97908 0.408832 0
M  V30 16585 C 1605.79 3.09132 0.490576 0
M  V30 16586 C 1606.27 4.55459 0.481759 0
M  V30 16587 N 1607.76 4.60013 0.542468 0
M  V30 16588 C 1608.49 5.70683 0.557509 0
M  V30 16589 N 1607.99 6.9078 0.528664 0
M  V30 16590 N 1609.78 5.58862 0.602438 0
M  V30 16591 H 1601.93 1.96962 -0.794965 0
M  V30 16592 H 1604.2 0.900583 -0.296064 0
M  V30 16593 H 1603.9 3.47823 -0.520766 0
M  V30 16594 H 1603.78 3.56678 1.22722 0
M  V30 16595 H 1606.16 2.59203 1.41059 0
M  V30 16596 H 1606.25 2.53311 -0.355982 0
M  V30 16597 H 1605.89 5.0604 -0.43432 0
M  V30 16598 H 1605.82 5.09119 1.34555 0
M  V30 16599 H 1608.31 3.73578 0.569892 0
M  V30 16600 H 1608.62 7.70887 0.543467 0
M  V30 16601 H 1606.97 6.9323 0.495687 0
M  V30 16602 H 1610.16 4.63942 0.622514 0
M  V30 16603 H 1610.33 6.45116 0.610691 0
M  V30 16604 N 1603.74 -0.364395 1.53329 0
M  V30 16605 C 1604.98 -1.10855 1.6982 0
M  V30 16606 C 1605.32 -1.88931 0.449291 0
M  V30 16607 O 1604.59 -1.8646 -0.553437 0
M  V30 16608 C 1604.88 -2.06681 2.94881 0
M  V30 16609 C 1604.73 -1.32206 4.29932 0
M  V30 16610 C 1606.05 -3.06788 3.15546 0
M  V30 16611 H 1603.17 -0.401626 0.617953 0
M  V30 16612 H 1605.81 -0.389244 1.8597 0
M  V30 16613 H 1603.96 -2.68019 2.81244 0
M  V30 16614 H 1605.63 -0.73642 4.55384 0
M  V30 16615 H 1603.87 -0.623916 4.2929 0
M  V30 16616 H 1604.54 -2.0235 5.13574 0
M  V30 16617 H 1607.02 -2.55554 3.28377 0
M  V30 16618 H 1605.9 -3.71059 4.04483 0
M  V30 16619 H 1606.16 -3.77023 2.3088 0
M  V30 16620 N 1605.22 -1.44709 -0.62426 0
M  V30 16621 C 1606.44 -1.51348 -1.41072 0
M  V30 16622 C 1606.86 -0.140576 -1.88276 0
M  V30 16623 O 1606.22 0.854821 -1.61242 0
M  V30 16624 C 1606.27 -2.48396 -2.62643 0
M  V30 16625 O 1605.99 -3.8035 -2.17406 0
M  V30 16626 C 1607.49 -2.64568 -3.55694 0
M  V30 16627 H 1604.71 -0.513092 -0.432409 0
M  V30 16628 H 1607.25 -1.89739 -0.762841 0
M  V30 16629 H 1605.41 -2.13122 -3.23508 0
M  V30 16630 H 1605.82 -4.32809 -2.96272 0
M  V30 16631 H 1607.3 -3.36486 -4.37585 0
M  V30 16632 H 1607.77 -1.70031 -4.04952 0
M  V30 16633 H 1608.38 -3.00771 -3.00694 0
M  V30 16634 N 1606.69 0.865285 -1.31722 0
M  V30 16635 C 1607.94 1.62108 -1.21855 0
M  V30 16636 C 1608.27 1.9293 0.221714 0
M  V30 16637 O 1607.55 1.56423 1.15595 0
M  V30 16638 C 1607.83 2.94828 -2.06756 0
M  V30 16639 C 1607.68 2.70855 -3.59107 0
M  V30 16640 C 1609 3.95983 -1.92055 0
M  V30 16641 H 1606.12 0.588234 -0.444015 0
M  V30 16642 H 1608.76 0.999922 -1.6156 0
M  V30 16643 H 1606.91 3.47843 -1.73025 0
M  V30 16644 H 1608.59 2.24477 -4.02999 0
M  V30 16645 H 1606.83 2.05004 -3.82303 0
M  V30 16646 H 1607.5 3.65312 -4.13825 0
M  V30 16647 H 1609.98 3.52193 -2.21584 0
M  V30 16648 H 1608.85 4.86724 -2.53754 0
M  V30 16649 H 1609.11 4.33148 -0.885174 0
M  V30 16650 N 1608.17 1.14759 1.0802 0
M  V30 16651 C 1609.14 0.840859 2.13219 0
M  V30 16652 C 1610.14 -0.156309 1.60038 0
M  V30 16653 O 1611.33 0.0725143 1.74049 0
M  V30 16654 C 1608.46 0.254208 3.39951 0
M  V30 16655 H 1609.65 1.77323 2.4186 0
M  V30 16656 H 1607.2 0.954146 1.23797 0
M  V30 16657 H 1607.94 -0.686692 3.16946 0
M  V30 16658 H 1607.72 0.972499 3.79848 0
M  V30 16659 H 1609.21 0.0569551 4.17561 0
M  V30 16660 N 1609.65 -1.26251 0.943322 0
M  V30 16661 C 1610.9 -1.9327 0.590863 0
M  V30 16662 C 1611.22 -1.74356 -0.873212 0
M  V30 16663 O 1610.49 -1.10046 -1.6207 0
M  V30 16664 H 1609.07 -0.71523 0.215535 0
M  V30 16665 H 1611.73 -1.53647 1.19911 0
M  V30 16666 H 1610.83 -3.01393 0.810475 0
M  V30 16667 N 1611.13 -0.710588 -1.40671 0
M  V30 16668 C 1612.38 -0.247459 -2.00579 0
M  V30 16669 C 1612.7 1.16179 -1.56612 0
M  V30 16670 O 1611.97 1.7867 -0.803358 0
M  V30 16671 H 1610.55 -0.0884992 -0.741739 0
M  V30 16672 H 1613.21 -0.915103 -1.72081 0
M  V30 16673 H 1612.31 -0.276631 -3.10872 0
M  V30 16674 N 1612.61 1.50847 -0.456408 0
M  V30 16675 C 1613.85 2.02534 0.103772 0
M  V30 16676 C 1614.19 1.33874 1.40682 0
M  V30 16677 O 1613.46 0.459695 1.8899 0
M  V30 16678 C 1613.74 3.58825 0.302817 0
M  V30 16679 C 1613.6 4.38077 -1.02022 0
M  V30 16680 C 1614.92 4.27044 1.06404 0
M  V30 16681 H 1612.04 0.736108 0.0362398 0
M  V30 16682 H 1614.68 1.80306 -0.599134 0
M  V30 16683 H 1612.83 3.77895 0.901542 0
M  V30 16684 H 1614.5 4.30613 -1.6544 0
M  V30 16685 H 1612.74 4.02401 -1.62036 0
M  V30 16686 H 1613.41 5.45652 -0.834766 0
M  V30 16687 H 1615.89 4.12359 0.556698 0
M  V30 16688 H 1614.77 5.3624 1.17209 0
M  V30 16689 H 1615.03 3.89204 2.09697 0
M  V30 16690 N 1614.09 0.188454 1.56469 0
M  V30 16691 C 1615.04 -0.747732 2.1539 0
M  V30 16692 C 1616.02 -1.18094 1.09282 0
M  V30 16693 O 1617.21 -1.14045 1.35362 0
M  V30 16694 C 1614.34 -1.96985 2.81162 0
M  V30 16695 C 1613.43 -1.55784 3.94452 0
M  V30 16696 N 1613.82 -0.8564 4.98497 0
M  V30 16697 C 1612.12 -1.84762 4.0593 0
M  V30 16698 C 1612.82 -0.650927 5.78047 0
M  V30 16699 N 1611.79 -1.19762 5.30243 0
M  V30 16700 H 1615.59 -0.203028 2.93198 0
M  V30 16701 H 1613.11 -0.0115881 1.62396 0
M  V30 16702 H 1615.11 -2.65094 3.21762 0
M  V30 16703 H 1613.77 -2.51934 2.0484 0
M  V30 16704 H 1614.78 -0.512583 5.15357 0
M  V30 16705 H 1611.45 -2.41267 3.40729 0
M  V30 16706 H 1612.84 -0.0949739 6.71833 0
M  V30 16707 N 1615.56 -1.5737 -0.0851874 0
M  V30 16708 C 1616.81 -1.85772 -0.785604 0
M  V30 16709 C 1617.13 -0.779172 -1.79411 0
M  V30 16710 O 1618.33 -0.950621 -2.54314 0
M  V30 16711 C 1616.79 -3.29484 -1.44805 0
M  V30 16712 C 1616.4 -4.45434 -0.478799 0
M  V30 16713 C 1618.14 -3.671 -2.13161 0
M  V30 16714 C 1616.05 -5.80183 -1.1464 0
M  V30 16715 H 1614.98 -0.69298 -0.297145 0
M  V30 16716 H 1617.63 -1.83459 -0.0386776 0
M  V30 16717 H 1616.01 -3.26367 -2.24278 0
M  V30 16718 H 1617.18 -4.59917 0.285148 0
M  V30 16719 H 1615.5 -4.16281 0.0995964 0
M  V30 16720 H 1618.1 -4.65061 -2.6386 0
M  V30 16721 H 1618.44 -2.96223 -2.92503 0
M  V30 16722 H 1618.97 -3.72148 -1.40536 0
M  V30 16723 H 1615.71 -6.54317 -0.393583 0
M  V30 16724 H 1615.23 -5.69525 -1.88153 0
M  V30 16725 H 1616.91 -6.25074 -1.67006 0
M  V30 16726 N 1617.04 0.356258 -1.53521 0
M  V30 16727 C 1618.27 1.12273 -1.74383 0
M  V30 16728 C 1618.69 1.81981 -0.475881 0
M  V30 16729 O 1618.05 1.72083 0.570699 0
M  V30 16730 C 1618.1 2.12161 -2.91582 0
M  V30 16731 O 1617.2 3.1943 -2.60842 0
M  V30 16732 H 1616.54 0.325321 -0.578845 0
M  V30 16733 H 1619.07 0.410533 -2.00439 0
M  V30 16734 H 1619.08 2.55602 -3.18012 0
M  V30 16735 H 1617.76 1.60818 -3.8355 0
M  V30 16736 H 1616.33 2.80895 -2.4526 0
M  V30 16737 N 1618.52 1.45038 0.616577 0
M  V30 16738 C 1619.77 1.48292 1.3731 0
M  V30 16739 C 1620.09 0.122437 1.94615 0
M  V30 16740 O 1619.36 -0.847103 1.76638 0
M  V30 16741 H 1617.94 0.546079 0.509712 0
M  V30 16742 H 1620.6 1.80927 0.724673 0
M  V30 16743 H 1619.7 2.21664 2.19708 0
M  V30 16744 N 1620 -0.858287 1.32179 0
M  V30 16745 C 1620.93 -1.98219 1.23415 0
M  V30 16746 C 1621.91 -1.69685 0.118779 0
M  V30 16747 O 1623.09 -1.91785 0.305342 0
M  V30 16748 C 1620.22 -3.33977 0.952725 0
M  V30 16749 C 1619.18 -3.76853 2.02894 0
M  V30 16750 C 1618.5 -5.10201 1.59999 0
M  V30 16751 C 1619.8 -3.92707 3.44352 0
M  V30 16752 H 1621.5 -2.05809 2.17446 0
M  V30 16753 H 1619.04 -0.988817 1.04682 0
M  V30 16754 H 1621 -4.12152 0.87798 0
M  V30 16755 H 1619.72 -3.26592 -0.023234 0
M  V30 16756 H 1618.38 -3.00926 2.09378 0
M  V30 16757 H 1618.03 -4.99268 0.61157 0
M  V30 16758 H 1617.73 -5.39859 2.32004 0
M  V30 16759 H 1619.25 -5.90873 1.53954 0
M  V30 16760 H 1620.67 -4.61246 3.40477 0
M  V30 16761 H 1619.06 -4.33779 4.14675 0
M  V30 16762 H 1620.13 -2.95731 3.8428 0
M  V30 16763 N 1621.48 -1.1533 -1.07409 0
M  V30 16764 C 1622.43 -0.81798 -2.12822 0
M  V30 16765 C 1623.41 0.1975 -1.59683 0
M  V30 16766 O 1624.6 -0.00166798 -1.77 0
M  V30 16767 C 1621.73 -0.308356 -3.41912 0
M  V30 16768 C 1620.82 -1.35396 -4.01906 0
M  V30 16769 N 1621.21 -2.5611 -4.36167 0
M  V30 16770 C 1619.51 -1.20656 -4.29369 0
M  V30 16771 C 1620.21 -3.23124 -4.837 0
M  V30 16772 N 1619.18 -2.50513 -4.82436 0
M  V30 16773 H 1622.98 -1.73611 -2.37143 0
M  V30 16774 H 1620.5 -1.03867 -1.24842 0
M  V30 16775 H 1622.5 -0.0497865 -4.1687 0
M  V30 16776 H 1621.16 0.60384 -3.19036 0
M  V30 16777 H 1622.17 -2.93258 -4.26873 0
M  V30 16778 H 1618.84 -0.354208 -4.15995 0
M  V30 16779 H 1620.23 -4.26103 -5.19505 0
M  V30 16780 N 1622.95 1.25748 -0.950004 0
M  V30 16781 C 1624.18 1.97413 -0.61933 0
M  V30 16782 C 1624.6 1.70656 0.807591 0
M  V30 16783 O 1623.95 0.979899 1.53962 0
M  V30 16784 C 1624 3.51053 -0.862801 0
M  V30 16785 O 1623.73 3.76884 -2.23361 0
M  V30 16786 C 1625.23 4.39951 -0.543879 0
M  V30 16787 H 1622.45 0.629394 -0.232603 0
M  V30 16788 H 1624.99 1.60037 -1.27312 0
M  V30 16789 H 1623.15 3.86557 -0.255493 0
M  V30 16790 H 1623.56 4.71368 -2.30026 0
M  V30 16791 H 1625.03 5.46676 -0.764804 0
M  V30 16792 H 1625.51 4.36094 0.521421 0
M  V30 16793 H 1626.12 4.10005 -1.1303 0
M  V30 16794 N 1624.43 0.718038 1.40292 0
M  V30 16795 C 1625.34 0.0681535 2.34501 0
M  V30 16796 C 1626.36 -0.741048 1.57431 0
M  V30 16797 O 1627.53 -0.673437 1.89807 0
M  V30 16798 C 1624.6 -0.840758 3.36351 0
M  V30 16799 C 1623.66 -0.0212287 4.29295 0
M  V30 16800 C 1622.89 -0.886852 5.2628 0
M  V30 16801 O 1623.12 -2.12603 5.29298 0
M  V30 16802 O 1622.05 -0.324537 6.01024 0
M  V30 16803 H 1625.88 0.845288 2.91699 0
M  V30 16804 H 1623.46 0.478541 1.41529 0
M  V30 16805 H 1625.34 -1.36131 3.98806 0
M  V30 16806 H 1624.02 -1.597 2.81563 0
M  V30 16807 H 1622.92 0.544451 3.70117 0
M  V30 16808 H 1624.26 0.696846 4.87242 0
M  V30 16809 N 1625.91 -1.50602 0.464402 0
M  V30 16810 C 1627.14 -2.07191 -0.0930678 0
M  V30 16811 C 1627.56 -1.32675 -1.33338 0
M  V30 16812 O 1626.92 -0.372453 -1.77433 0
M  V30 16813 C 1626.97 -3.5873 -0.366775 0
M  V30 16814 O 1626.07 -3.86125 -1.44849 0
M  V30 16815 H 1625.41 -0.663924 0.0100336 0
M  V30 16816 H 1627.94 -1.93882 0.653522 0
M  V30 16817 H 1627.95 -4.03425 -0.609258 0
M  V30 16818 H 1626.63 -4.12385 0.539608 0
M  V30 16819 H 1625.2 -3.53273 -1.19384 0
M  V30 16820 N 1627.39 -0.19675 -1.56367 0
M  V30 16821 C 1628.35 0.709734 -2.17934 0
M  V30 16822 C 1629.35 1.13979 -1.13426 0
M  V30 16823 O 1630.54 1.05261 -1.38801 0
M  V30 16824 C 1627.67 1.96917 -2.78274 0
M  V30 16825 H 1628.87 0.173342 -2.99399 0
M  V30 16826 H 1626.42 0.0528698 -1.56211 0
M  V30 16827 H 1627.15 2.54804 -2.00613 0
M  V30 16828 H 1626.94 1.66951 -3.54781 0
M  V30 16829 H 1628.43 2.61554 -3.25545 0
M  V30 16830 N 1628.87 1.57413 0.0768405 0
M  V30 16831 C 1630.28 1.75776 0.629262 0
M  V30 16832 C 1630.63 0.821502 1.78173 0
M  V30 16833 O 1629.75 0.00437198 2.164 0
M  V30 16834 C 1630.35 3.18747 1.14828 0
M  V30 16835 C 1628.91 3.38472 1.64661 0
M  V30 16836 C 1628.05 2.71506 0.563884 0
M  V30 16837 H 1631.01 1.57996 -0.149312 0
M  V30 16838 H 1631.03 3.22628 2.01722 0
M  V30 16839 H 1630.54 3.86866 0.309282 0
M  V30 16840 H 1628.64 2.75461 2.50903 0
M  V30 16841 H 1628.75 4.4689 1.72703 0
M  V30 16842 H 1627.12 2.33917 1.00772 0
M  V30 16843 H 1627.9 3.42277 -0.264847 0
M  V30 16844 N 1630.34 -0.348112 1.53707 0
M  V30 16845 C 1631.76 -0.690926 1.43869 0
M  V30 16846 C 1631.96 -1.92614 0.59177 0
M  V30 16847 O 1631.02 -2.5237 0.0809797 0
M  V30 16848 C 1632.33 -0.887824 2.87295 0
M  V30 16849 C 1633.88 -0.986731 2.9704 0
M  V30 16850 C 1634.35 -1.21598 4.41563 0
M  V30 16851 N 1635.84 -1.28328 4.45069 0
M  V30 16852 C 1636.58 -1.47809 5.54022 0
M  V30 16853 N 1636.07 -1.64492 6.72989 0
M  V30 16854 N 1637.87 -1.5032 5.41628 0
M  V30 16855 H 1630.02 0.464101 2.07268 0
M  V30 16856 H 1632.28 0.145678 0.93674 0
M  V30 16857 H 1631.99 -0.0517672 3.51662 0
M  V30 16858 H 1631.86 -1.79089 3.31974 0
M  V30 16859 H 1634.25 -1.81331 2.32815 0
M  V30 16860 H 1634.33 -0.0606692 2.55728 0
M  V30 16861 H 1633.97 -0.394341 5.06367 0
M  V30 16862 H 1633.9 -2.15553 4.80463 0
M  V30 16863 H 1636.39 -1.16979 3.59339 0
M  V30 16864 H 1636.71 -1.78979 7.51789 0
M  V30 16865 H 1635.05 -1.61636 6.75943 0
M  V30 16866 H 1638.24 -1.36865 4.47644 0
M  V30 16867 H 1638.42 -1.6516 6.26599 0
M  V30 16868 N 1631.82 -1.45363 -0.608876 0
M  V30 16869 C 1633.24 -1.29741 -0.929491 0
M  V30 16870 C 1633.44 -0.249486 -1.9995 0
M  V30 16871 O 1632.49 0.357014 -2.49963 0
M  V30 16872 C 1633.81 -2.67594 -1.37164 0
M  V30 16873 C 1635.36 -2.7548 -1.48592 0
M  V30 16874 C 1635.83 -4.13855 -1.96183 0
M  V30 16875 N 1637.32 -4.16143 -2.03419 0
M  V30 16876 C 1638.06 -5.20081 -2.41462 0
M  V30 16877 N 1637.55 -6.34365 -2.78482 0
M  V30 16878 N 1639.35 -5.07439 -2.4179 0
M  V30 16879 H 1631.5 -2.12172 0.0983838 0
M  V30 16880 H 1633.76 -0.947817 -0.0186397 0
M  V30 16881 H 1633.47 -3.45459 -0.6596 0
M  V30 16882 H 1633.34 -2.9597 -2.33841 0
M  V30 16883 H 1635.73 -1.97919 -2.18888 0
M  V30 16884 H 1635.81 -2.50819 -0.502337 0
M  V30 16885 H 1635.45 -4.91901 -1.26475 0
M  V30 16886 H 1635.38 -4.35907 -2.95453 0
M  V30 16887 H 1637.87 -3.33671 -1.77404 0
M  V30 16888 H 1638.19 -7.09469 -3.06388 0
M  V30 16889 H 1636.53 -6.37769 -2.76181 0
M  V30 16890 H 1639.72 -4.17202 -2.12273 0
M  V30 16891 H 1639.89 -5.8856 -2.71112 0
M  V30 16892 N 1633.3 0.851265 -1.32632 0
M  V30 16893 C 1634.23 1.96682 -1.17681 0
M  V30 16894 C 1635.25 1.62422 -0.110926 0
M  V30 16895 O 1636.43 1.74828 -0.360202 0
M  V30 16896 C 1633.53 3.29806 -0.779838 0
M  V30 16897 C 1632.71 3.92284 -1.93473 0
M  V30 16898 C 1631.77 5.03745 -1.52075 0
M  V30 16899 O 1630.79 5.23558 -2.23328 0
M  V30 16900 N 1631.99 5.78988 -0.418695 0
M  V30 16901 H 1634.76 2.10049 -2.13775 0
M  V30 16902 H 1632.32 1.02631 -1.25214 0
M  V30 16903 H 1634.31 4.0178 -0.485236 0
M  V30 16904 H 1632.88 3.1247 0.0900498 0
M  V30 16905 H 1632.1 3.13054 -2.39564 0
M  V30 16906 H 1633.39 4.30762 -2.7078 0
M  V30 16907 H 1632.79 5.65432 0.174269 0
M  V30 16908 H 1631.35 6.51541 -0.183714 0
M  V30 16909 N 1634.78 1.15898 1.06796 0
M  V30 16910 C 1635.71 0.818654 2.14081 0
M  V30 16911 C 1636.72 -0.171847 1.6189 0
M  V30 16912 O 1637.91 0.052196 1.78424 0
M  V30 16913 C 1635.01 0.197283 3.38325 0
M  V30 16914 C 1634.19 1.22662 4.19849 0
M  V30 16915 C 1633.24 0.625985 5.22463 0
M  V30 16916 O 1632.27 1.29347 5.54309 0
M  V30 16917 N 1633.47 -0.589665 5.77497 0
M  V30 16918 H 1636.24 1.74196 2.43877 0
M  V30 16919 H 1633.8 1.05562 1.22753 0
M  V30 16920 H 1635.79 -0.217439 4.04115 0
M  V30 16921 H 1634.36 -0.629476 3.06197 0
M  V30 16922 H 1633.58 1.8177 3.49791 0
M  V30 16923 H 1634.87 1.92143 4.71125 0
M  V30 16924 H 1634.27 -1.15022 5.53883 0
M  V30 16925 H 1632.82 -0.946667 6.44889 0
M  V30 16926 N 1636.26 -1.25243 0.956659 0
M  V30 16927 C 1637.17 -2.29529 0.48515 0
M  V30 16928 C 1638.18 -1.68121 -0.448494 0
M  V30 16929 O 1639.36 -1.98773 -0.324243 0
M  V30 16930 C 1636.42 -3.45952 -0.227611 0
M  V30 16931 C 1635.48 -4.22795 0.744495 0
M  V30 16932 C 1634.72 -5.3366 0.0656539 0
M  V30 16933 O 1634.94 -5.58722 -1.14829 0
M  V30 16934 O 1633.87 -5.97181 0.75222 0
M  V30 16935 H 1637.7 -2.71955 1.35181 0
M  V30 16936 H 1635.29 -1.30729 0.723203 0
M  V30 16937 H 1637.17 -4.16687 -0.628474 0
M  V30 16938 H 1635.84 -3.05524 -1.06942 0
M  V30 16939 H 1634.75 -3.5448 1.1956 0
M  V30 16940 H 1636.08 -4.67012 1.55438 0
M  V30 16941 N 1637.73 -0.725468 -1.3991 0
M  V30 16942 C 1638.67 -0.0397832 -2.29165 0
M  V30 16943 C 1639.68 0.713458 -1.46334 0
M  V30 16944 O 1640.87 0.559199 -1.69515 0
M  V30 16945 C 1637.97 0.967929 -3.24784 0
M  V30 16946 C 1637.14 0.278181 -4.36515 0
M  V30 16947 C 1636.2 1.19266 -5.12506 0
M  V30 16948 O 1635.23 0.673726 -5.65199 0
M  V30 16949 N 1636.43 2.5231 -5.228 0
M  V30 16950 H 1639.19 -0.806204 -2.88653 0
M  V30 16951 H 1636.75 -0.573904 -1.51387 0
M  V30 16952 H 1638.75 1.58209 -3.72494 0
M  V30 16953 H 1637.32 1.63563 -2.66394 0
M  V30 16954 H 1636.54 -0.516326 -3.90804 0
M  V30 16955 H 1637.82 -0.200203 -5.08406 0
M  V30 16956 H 1637.22 2.96957 -4.8149 0
M  V30 16957 H 1635.78 3.08846 -5.73984 0
M  V30 16958 N 1639.21 1.50354 -0.472382 0
M  V30 16959 C 1640.14 2.26396 0.357429 0
M  V30 16960 C 1641.16 1.31778 0.955949 0
M  V30 16961 O 1642.35 1.57279 0.844136 0
M  V30 16962 C 1639.45 3.03131 1.51542 0
M  V30 16963 C 1638.62 4.25113 1.02945 0
M  V30 16964 C 1637.68 4.84131 2.06164 0
M  V30 16965 O 1636.7 5.4501 1.64174 0
M  V30 16966 N 1637.91 4.71244 3.38983 0
M  V30 16967 H 1640.67 2.9825 -0.294473 0
M  V30 16968 H 1638.23 1.59035 -0.303242 0
M  V30 16969 H 1640.22 3.39492 2.20289 0
M  V30 16970 H 1638.79 2.34067 2.07199 0
M  V30 16971 H 1638.01 3.93843 0.167821 0
M  V30 16972 H 1639.3 5.04199 0.682705 0
M  V30 16973 H 1638.7 4.22831 3.75807 0
M  V30 16974 H 1637.26 5.11871 4.03524 0
M  V30 16975 N 1640.69 0.205039 1.56261 0
M  V30 16976 C 1641.94 -0.431735 1.98151 0
M  V30 16977 C 1642.27 -1.60579 1.09215 0
M  V30 16978 O 1641.55 -1.93949 0.146257 0
M  V30 16979 C 1641.83 -0.882278 3.49124 0
M  V30 16980 C 1641.68 0.294278 4.48836 0
M  V30 16981 C 1643 -1.7443 4.04057 0
M  V30 16982 H 1640.12 -0.155457 0.720418 0
M  V30 16983 H 1642.76 0.29796 1.87649 0
M  V30 16984 H 1640.91 -1.50404 3.58205 0
M  V30 16985 H 1642.58 0.932148 4.51784 0
M  V30 16986 H 1640.83 0.94444 4.23394 0
M  V30 16987 H 1641.5 -0.063639 5.51963 0
M  V30 16988 H 1643.97 -1.21983 3.97818 0
M  V30 16989 H 1642.85 -2.02848 5.10043 0
M  V30 16990 H 1643.11 -2.70195 3.49924 0
M  V30 16991 N 1642.17 -1.57451 -0.0684915 0
M  V30 16992 C 1643.58 -1.76107 -0.619932 0
M  V30 16993 C 1643.93 -0.830939 -1.77735 0
M  V30 16994 O 1643.06 -0.0158481 -2.16394 0
M  V30 16995 C 1643.65 -3.19352 -1.13136 0
M  V30 16996 C 1642.21 -3.39341 -1.62864 0
M  V30 16997 C 1641.36 -2.71801 -0.549477 0
M  V30 16998 H 1644.31 -1.57915 0.157689 0
M  V30 16999 H 1644.33 -3.23693 -2.00008 0
M  V30 17000 H 1643.84 -3.87024 -0.288762 0
M  V30 17001 H 1641.94 -2.76787 -2.49438 0
M  V30 17002 H 1642.06 -4.47799 -1.70331 0
M  V30 17003 H 1640.42 -2.34448 -0.995302 0
M  V30 17004 H 1641.2 -3.42132 0.282995 0
M  V30 17005 N 1643.65 0.339955 -1.5389 0
M  V30 17006 C 1644.9 1.07723 -1.70524 0
M  V30 17007 C 1645.21 1.89693 -0.477058 0
M  V30 17008 O 1646.42 2.66387 -0.524424 0
M  V30 17009 C 1644.87 1.96455 -3.01551 0
M  V30 17010 C 1644.48 1.19675 -4.3172 0
M  V30 17011 C 1646.22 2.70019 -3.27552 0
M  V30 17012 C 1644.13 2.07458 -5.53819 0
M  V30 17013 H 1643.06 0.405877 -0.635437 0
M  V30 17014 H 1645.71 0.336489 -1.80388 0
M  V30 17015 H 1644.09 2.74364 -2.85553 0
M  V30 17016 H 1645.27 0.466526 -4.58432 0
M  V30 17017 H 1643.58 0.578651 -4.1236 0
M  V30 17018 H 1646.18 3.35973 -4.15964 0
M  V30 17019 H 1646.52 3.36779 -2.44716 0
M  V30 17020 H 1647.06 1.99182 -3.44342 0
M  V30 17021 H 1643.79 1.45234 -6.39208 0
M  V30 17022 H 1643.31 2.7826 -5.31349 0
M  V30 17023 H 1644.99 2.66428 -5.89598 0
M  V30 17024 N 1645.13 1.45684 0.601159 0
M  V30 17025 C 1646.06 1.57694 1.72206 0
M  V30 17026 C 1647.04 0.428141 1.64624 0
M  V30 17027 O 1648.22 0.65209 1.82925 0
M  V30 17028 C 1645.35 1.54941 3.10822 0
M  V30 17029 C 1644.31 2.68603 3.33222 0
M  V30 17030 C 1643.63 2.50906 4.72176 0
M  V30 17031 C 1644.93 4.10568 3.22849 0
M  V30 17032 H 1646.63 2.51521 1.62412 0
M  V30 17033 H 1644.17 1.2105 0.779929 0
M  V30 17034 H 1646.12 1.61939 3.89042 0
M  V30 17035 H 1644.85 0.576471 3.21472 0
M  V30 17036 H 1643.51 2.61043 2.57394 0
M  V30 17037 H 1643.16 1.51736 4.79568 0
M  V30 17038 H 1642.86 3.27131 4.88118 0
M  V30 17039 H 1644.38 2.59767 5.52588 0
M  V30 17040 H 1645.79 4.19336 3.90935 0
M  V30 17041 H 1644.19 4.87234 3.50318 0
M  V30 17042 H 1645.26 4.32022 2.20192 0
M  V30 17043 N 1646.6 -0.84422 1.33082 0
M  V30 17044 C 1647.51 -1.9858 1.24913 0
M  V30 17045 C 1648.53 -1.73256 0.160708 0
M  V30 17046 O 1649.71 -1.97719 0.383313 0
M  V30 17047 C 1646.77 -3.32471 0.983063 0
M  V30 17048 C 1645.83 -3.70946 2.16096 0
M  V30 17049 C 1645.06 -4.98448 1.90749 0
M  V30 17050 O 1645.29 -5.63953 0.855173 0
M  V30 17051 O 1644.22 -5.34301 2.7714 0
M  V30 17052 H 1648.05 -2.0841 2.20905 0
M  V30 17053 H 1645.63 -0.976447 1.13075 0
M  V30 17054 H 1647.51 -4.12705 0.851612 0
M  V30 17055 H 1646.19 -3.23656 0.053384 0
M  V30 17056 H 1645.1 -2.91244 2.34793 0
M  V30 17057 H 1646.43 -3.8442 3.07379 0
M  V30 17058 N 1648.08 -1.16463 -1.0618 0
M  V30 17059 C 1649.03 -0.87224 -2.13683 0
M  V30 17060 C 1650 0.179784 -1.65124 0
M  V30 17061 O 1651.18 0.0447406 -1.90748 0
M  V30 17062 C 1648.32 -0.380728 -3.42993 0
M  V30 17063 C 1647.44 -1.49571 -4.05281 0
M  V30 17064 C 1646.57 -0.959099 -5.2247 0
M  V30 17065 C 1645.61 -2.05021 -5.76743 0
M  V30 17066 N 1644.75 -1.5291 -6.85247 0
M  V30 17067 H 1649.59 -1.79288 -2.38033 0
M  V30 17068 H 1647.12 -0.894379 -1.16787 0
M  V30 17069 H 1649.08 -0.0773816 -4.17128 0
M  V30 17070 H 1647.71 0.502966 -3.18857 0
M  V30 17071 H 1646.76 -1.915 -3.28682 0
M  V30 17072 H 1648.08 -2.31904 -4.41613 0
M  V30 17073 H 1647.23 -0.609003 -6.03636 0
M  V30 17074 H 1645.97 -0.105086 -4.87587 0
M  V30 17075 H 1644.97 -2.40899 -4.94214 0
M  V30 17076 H 1646.2 -2.90821 -6.13678 0
M  V30 17077 H 1644.15 -0.697639 -6.5228 0
M  V30 17078 H 1644.06 -2.28859 -7.20527 0
M  V30 17079 H 1645.33 -1.20762 -7.70089 0
M  V30 17080 N 1649.56 1.24734 -0.963288 0
M  V30 17081 C 1650.81 1.92686 -0.622766 0
M  V30 17082 C 1651.13 1.75357 0.841442 0
M  V30 17083 O 1650.39 1.09757 1.62025 0
M  V30 17084 C 1650.69 3.44867 -0.938151 0
M  V30 17085 C 1650.35 3.82361 -2.38979 0
M  V30 17086 C 1649.02 3.92307 -2.78655 0
M  V30 17087 C 1651.37 4.00775 -3.3321 0
M  V30 17088 C 1648.7 4.1808 -4.11614 0
M  V30 17089 C 1651.05 4.28043 -4.65792 0
M  V30 17090 C 1649.71 4.36207 -5.05252 0
M  V30 17091 H 1648.98 0.705088 -0.227886 0
M  V30 17092 H 1651.63 1.48107 -1.21395 0
M  V30 17093 H 1649.93 3.90905 -0.264676 0
M  V30 17094 H 1651.63 3.95645 -0.653134 0
M  V30 17095 H 1648.22 3.75182 -2.07212 0
M  V30 17096 H 1652.41 3.92497 -3.03743 0
M  V30 17097 H 1647.66 4.22619 -4.41818 0
M  V30 17098 H 1651.84 4.41236 -5.3878 0
M  V30 17099 H 1649.46 4.55931 -6.08301 0
M  V30 17100 N 1651.04 0.732878 1.39523 0
M  V30 17101 C 1652.28 0.284541 2.0241 0
M  V30 17102 C 1652.64 -1.10672 1.56894 0
M  V30 17103 O 1653.84 -1.65302 2.11964 0
M  V30 17104 C 1652.11 0.380486 3.55369 0
M  V30 17105 S 1653.67 0.0116789 4.38798 0
M  V30 17106 H 1650.49 0.111634 0.702182 0
M  V30 17107 H 1653.09 0.958924 1.70367 0
M  V30 17108 H 1651.8 1.39437 3.85986 0
M  V30 17109 H 1651.33 -0.31179 3.92163 0
M  V30 17110 H 1653.34 -1.20519 4.81341 0
M  V30 17111 N 1652.52 -1.50101 0.480349 0
M  V30 17112 C 1653.76 -2.02374 -0.0714315 0
M  V30 17113 C 1654.09 -1.36166 -1.38885 0
M  V30 17114 O 1653.35 -0.479455 -1.89736 0
M  V30 17115 C 1653.64 -3.56191 -0.293745 0
M  V30 17116 C 1653.31 -4.40927 0.943111 0
M  V30 17117 C 1651.97 -4.63803 1.2822 0
M  V30 17118 C 1654.32 -4.90362 1.7662 0
M  V30 17119 C 1651.65 -5.33359 2.44428 0
M  V30 17120 C 1654 -5.61195 2.91963 0
M  V30 17121 C 1652.67 -5.82323 3.26276 0
M  V30 17122 H 1651.94 -0.740539 -0.0261386 0
M  V30 17123 H 1654.59 -1.80619 0.636313 0
M  V30 17124 H 1652.89 -3.76511 -1.08382 0
M  V30 17125 H 1654.59 -3.9421 -0.734796 0
M  V30 17126 H 1651.18 -4.23347 0.668947 0
M  V30 17127 H 1655.36 -4.72534 1.5174 0
M  V30 17128 H 1650.62 -5.47923 2.71275 0
M  V30 17129 H 1654.79 -5.9848 3.56082 0
M  V30 17130 H 1652.42 -6.35996 4.16428 0
M  V30 17131 N 1653.99 -0.213323 -1.5615 0
M  V30 17132 C 1655.22 0.425688 -2.02473 0
M  V30 17133 C 1655.64 1.53926 -1.09326 0
M  V30 17134 O 1654.99 1.82218 -0.101364 0
M  V30 17135 C 1655.04 0.965021 -3.48381 0
M  V30 17136 O 1654.77 -0.104145 -4.37976 0
M  V30 17137 C 1656.27 1.6781 -4.10311 0
M  V30 17138 H 1653.49 0.105064 -0.662724 0
M  V30 17139 H 1656.03 -0.327369 -2.01863 0
M  V30 17140 H 1654.19 1.66838 -3.49634 0
M  V30 17141 H 1654.6 0.299985 -5.23641 0
M  V30 17142 H 1656.07 2.00757 -5.14199 0
M  V30 17143 H 1656.55 2.58833 -3.54827 0
M  V30 17144 H 1657.16 1.02014 -4.12884 0
M  V30 17145 N 1655.47 1.57485 0.0601405 0
M  V30 17146 C 1656.88 1.76433 0.610583 0
M  V30 17147 C 1657.23 0.840353 1.77292 0
M  V30 17148 O 1656.36 0.0273238 2.16383 0
M  V30 17149 C 1656.95 3.19947 1.11441 0
M  V30 17150 C 1655.51 3.402 1.61062 0
M  V30 17151 C 1654.66 2.72089 0.535055 0
M  V30 17152 H 1657.61 1.57829 -0.166062 0
M  V30 17153 H 1657.63 3.24749 1.98288 0
M  V30 17154 H 1657.14 3.87172 0.268233 0
M  V30 17155 H 1655.25 2.78106 2.47967 0
M  V30 17156 H 1655.36 4.48696 1.67954 0
M  V30 17157 H 1653.72 2.34972 0.982855 0
M  V30 17158 H 1654.51 3.41977 -0.301135 0
M  V30 17159 N 1656.95 -0.331789 1.54068 0
M  V30 17160 C 1657.9 -1.40889 1.7926 0
M  V30 17161 C 1658.88 -1.47263 0.648266 0
M  V30 17162 O 1660.08 -1.51934 0.908021 0
M  V30 17163 C 1657.21 -2.77864 2.0161 0
M  V30 17164 C 1656.29 -2.75835 3.22142 0
M  V30 17165 N 1656.68 -2.43431 4.43368 0
M  V30 17166 C 1654.98 -3.06972 3.23549 0
M  V30 17167 C 1655.68 -2.49932 5.2527 0
M  V30 17168 N 1654.66 -2.86037 4.6226 0
M  V30 17169 H 1658.46 -1.14751 2.70572 0
M  V30 17170 H 1655.97 -0.540225 1.53151 0
M  V30 17171 H 1657.97 -3.55486 2.17796 0
M  V30 17172 H 1656.63 -3.04938 1.11547 0
M  V30 17173 H 1657.64 -2.16421 4.70513 0
M  V30 17174 H 1654.32 -3.39142 2.43493 0
M  V30 17175 H 1655.71 -2.27938 6.32055 0
M  V30 17176 N 1658.43 -1.46001 -0.593424 0
M  V30 17177 C 1659.66 -1.54307 -1.3783 0
M  V30 17178 C 1660.07 -0.18048 -1.87935 0
M  V30 17179 O 1659.43 0.820427 -1.63019 0
M  V30 17180 C 1659.48 -2.53911 -2.57316 0
M  V30 17181 O 1659.2 -3.84876 -2.09289 0
M  V30 17182 C 1660.7 -2.72054 -3.50002 0
M  V30 17183 H 1657.92 -0.522149 -0.421428 0
M  V30 17184 H 1660.47 -1.91315 -0.722423 0
M  V30 17185 H 1658.62 -2.19937 -3.18915 0
M  V30 17186 H 1659.03 -4.38996 -2.87025 0
M  V30 17187 H 1660.51 -3.45692 -4.3035 0
M  V30 17188 H 1660.99 -1.78583 -4.01254 0
M  V30 17189 H 1661.59 -3.07082 -2.94246 0
M  V30 17190 N 1659.91 0.83715 -1.33527 0
M  V30 17191 C 1660.82 1.97915 -1.25964 0
M  V30 17192 C 1661.83 1.73169 -0.169894 0
M  V30 17193 O 1663.01 1.97513 -0.393793 0
M  V30 17194 C 1660.07 3.31945 -1.00068 0
M  V30 17195 C 1659.13 3.69795 -2.1806 0
M  V30 17196 C 1658.37 4.97429 -1.9339 0
M  V30 17197 O 1658.59 5.63492 -0.885069 0
M  V30 17198 O 1657.52 5.32823 -2.79969 0
M  V30 17199 H 1661.35 2.07236 -2.22007 0
M  V30 17200 H 1658.94 0.970437 -1.13591 0
M  V30 17201 H 1660.82 4.12248 -0.873487 0
M  V30 17202 H 1659.49 3.23623 -0.0705475 0
M  V30 17203 H 1658.4 2.89995 -2.36334 0
M  V30 17204 H 1659.73 3.82784 -3.09414 0
M  V30 17205 N 1661.38 1.17024 1.05561 0
M  V30 17206 C 1662.29 0.898107 2.16728 0
M  V30 17207 C 1663.31 -0.132369 1.73496 0
M  V30 17208 O 1664.49 0.0460203 2.01347 0
M  V30 17209 C 1661.55 0.411091 3.44254 0
M  V30 17210 C 1660.61 1.5077 4.01954 0
M  V30 17211 C 1659.85 1.04383 5.23393 0
M  V30 17212 O 1660.07 -0.10351 5.70306 0
M  V30 17213 O 1659 1.8353 5.73237 0
M  V30 17214 H 1662.83 1.82791 2.42531 0
M  V30 17215 H 1660.41 0.950816 1.15238 0
M  V30 17216 H 1662.3 0.146837 4.21144 0
M  V30 17217 H 1660.97 -0.490605 3.19961 0
M  V30 17218 H 1659.88 1.82579 3.26521 0
M  V30 17219 H 1661.21 2.38497 4.30558 0
M  V30 17220 N 1662.86 -1.24221 0.969889 0
M  V30 17221 C 1664.11 -1.91973 0.631725 0
M  V30 17222 C 1664.43 -1.76169 -0.836032 0
M  V30 17223 O 1663.7 -1.13459 -1.597 0
M  V30 17224 H 1662.28 -0.710497 0.230658 0
M  V30 17225 H 1664.94 -1.51069 1.23143 0
M  V30 17226 H 1664.04 -2.99606 0.874223 0
M  V30 17227 N 1664.34 -0.740267 -1.39132 0
M  V30 17228 C 1665.58 -0.295271 -2.02256 0
M  V30 17229 C 1665.94 1.09839 -1.57478 0
M  V30 17230 O 1667.15 1.64176 -2.12838 0
M  V30 17231 C 1665.42 -0.399327 -3.55162 0
M  V30 17232 S 1666.98 -0.0349493 -4.38786 0
M  V30 17233 H 1663.79 -0.115356 -0.70158 0
M  V30 17234 H 1666.4 -0.967946 -1.69856 0
M  V30 17235 H 1665.1 -1.41482 -3.85241 0
M  V30 17236 H 1664.63 0.290988 -3.92322 0
M  V30 17237 H 1666.65 1.17965 -4.81974 0
M  V30 17238 N 1665.82 1.49844 -0.488302 0
M  V30 17239 C 1666.75 2.31737 0.286432 0
M  V30 17240 C 1667.73 1.39424 0.974418 0
M  V30 17241 O 1668.91 1.68339 0.968274 0
M  V30 17242 C 1666.04 3.19616 1.35878 0
M  V30 17243 C 1665 4.20619 0.791409 0
M  V30 17244 C 1664.32 4.9735 1.96333 0
M  V30 17245 C 1665.62 5.21882 -0.208975 0
M  V30 17246 H 1667.32 2.96755 -0.397092 0
M  V30 17247 H 1664.86 1.42709 -0.192413 0
M  V30 17248 H 1666.82 3.75711 1.90838 0
M  V30 17249 H 1665.54 2.52516 2.07131 0
M  V30 17250 H 1664.2 3.65651 0.263647 0
M  V30 17251 H 1663.85 4.26708 2.66325 0
M  V30 17252 H 1663.55 5.65684 1.58983 0
M  V30 17253 H 1665.07 5.56286 2.51751 0
M  V30 17254 H 1666.49 5.72746 0.252049 0
M  V30 17255 H 1664.88 5.98033 -0.497638 0
M  V30 17256 H 1665.95 4.7157 -1.12916 0
M  V30 17257 N 1667.3 0.221601 1.56034 0
M  V30 17258 C 1668.52 -0.417979 2.03145 0
M  V30 17259 C 1668.95 -1.52556 1.10038 0
M  V30 17260 O 1668.3 -1.81084 0.0885729 0
M  V30 17261 C 1668.35 -0.926762 3.48487 0
M  V30 17262 O 1667.46 -2.03811 3.58518 0
M  V30 17263 H 1666.8 -0.0945778 0.65723 0
M  V30 17264 H 1669.33 0.340252 2.01751 0
M  V30 17265 H 1669.34 -1.23656 3.8881 0
M  V30 17266 H 1668.01 -0.116115 4.15738 0
M  V30 17267 H 1666.59 -1.73494 3.30082 0
M  V30 17268 N 1668.77 -1.57515 -0.0517878 0
M  V30 17269 C 1669.68 -2.08427 -1.07681 0
M  V30 17270 C 1670.7 -1.01797 -1.41115 0
M  V30 17271 O 1671.88 -1.33394 -1.50891 0
M  V30 17272 C 1668.94 -2.53472 -2.36544 0
M  V30 17273 C 1668 -3.74488 -2.09899 0
M  V30 17274 C 1667.24 -4.17374 -3.32618 0
M  V30 17275 O 1667.46 -3.59962 -4.42475 0
M  V30 17276 O 1666.39 -5.10006 -3.19653 0
M  V30 17277 H 1670.22 -2.96122 -0.674217 0
M  V30 17278 H 1667.8 -1.4699 -0.267274 0
M  V30 17279 H 1669.69 -2.82876 -3.12345 0
M  V30 17280 H 1668.36 -1.68899 -2.76143 0
M  V30 17281 H 1667.27 -3.50137 -1.31739 0
M  V30 17282 H 1668.6 -4.59975 -1.75169 0
M  V30 17283 N 1670.25 0.323614 -1.54242 0
M  V30 17284 C 1671.67 0.66795 -1.4495 0
M  V30 17285 C 1671.87 1.91649 -0.622338 0
M  V30 17286 O 1670.93 2.52209 -0.121119 0
M  V30 17287 C 1672.24 0.842006 -2.88671 0
M  V30 17288 C 1673.79 0.93935 -2.98572 0
M  V30 17289 C 1674.26 1.14557 -4.43442 0
M  V30 17290 N 1675.75 1.21231 -4.47054 0
M  V30 17291 C 1676.49 1.38976 -5.56303 0
M  V30 17292 N 1675.98 1.53764 -6.75521 0
M  V30 17293 N 1677.78 1.41684 -5.4395 0
M  V30 17294 H 1669.93 -0.497017 -2.06503 0
M  V30 17295 H 1672.19 -0.160563 -0.934304 0
M  V30 17296 H 1671.9 -0.00418568 -3.517 0
M  V30 17297 H 1671.77 1.73785 -3.34782 0
M  V30 17298 H 1674.16 1.77605 -2.35671 0
M  V30 17299 H 1674.24 0.0199775 -2.55792 0
M  V30 17300 H 1673.88 0.313732 -5.0693 0
M  V30 17301 H 1673.81 2.07882 -4.83831 0
M  V30 17302 H 1676.3 1.11247 -3.61154 0
M  V30 17303 H 1676.62 1.66996 -7.54541 0
M  V30 17304 H 1674.96 1.50862 -6.78429 0
M  V30 17305 H 1678.15 1.29726 -4.49765 0
M  V30 17306 H 1678.33 1.5517 -6.29147 0
M  V30 17307 N 1671.73 1.46313 0.585673 0
M  V30 17308 C 1672.69 1.56239 1.67696 0
M  V30 17309 C 1673.69 0.439808 1.54668 0
M  V30 17310 O 1674.88 0.704019 1.5934 0
M  V30 17311 C 1672.02 1.47986 3.07104 0
M  V30 17312 H 1673.21 2.53492 1.60255 0
M  V30 17313 H 1670.76 1.3408 0.803264 0
M  V30 17314 H 1671.5 0.520007 3.20104 0
M  V30 17315 H 1671.28 2.2943 3.17969 0
M  V30 17316 H 1672.77 1.5801 3.86552 0
M  V30 17317 N 1673.21 -0.830057 1.33969 0
M  V30 17318 C 1674.17 -1.92206 1.24858 0
M  V30 17319 C 1675.17 -1.59946 0.16549 0
M  V30 17320 O 1676.36 -1.6912 0.417629 0
M  V30 17321 C 1673.49 -3.28082 0.926029 0
M  V30 17322 H 1674.69 -2.01708 2.21932 0
M  V30 17323 H 1672.24 -1.02319 1.18154 0
M  V30 17324 H 1672.98 -3.24273 -0.0418364 0
M  V30 17325 H 1672.76 -3.52878 1.70938 0
M  V30 17326 H 1674.25 -4.08065 0.887263 0
M  V30 17327 N 1674.69 -1.17582 -1.04939 0
M  V30 17328 C 1675.62 -0.918221 -2.14688 0
M  V30 17329 C 1676.6 0.140757 -1.69517 0
M  V30 17330 O 1677.78 -0.0100118 -1.94197 0
M  V30 17331 C 1674.91 -0.433531 -3.44584 0
M  V30 17332 C 1673.87 -1.43199 -4.03334 0
M  V30 17333 C 1673.19 -0.805154 -5.28603 0
M  V30 17334 C 1674.49 -2.80598 -4.40525 0
M  V30 17335 H 1676.19 -1.83604 -2.36495 0
M  V30 17336 H 1673.73 -0.884202 -1.13657 0
M  V30 17337 H 1675.69 -0.240722 -4.20712 0
M  V30 17338 H 1674.41 0.519832 -3.22437 0
M  V30 17339 H 1673.07 -1.61158 -3.29277 0
M  V30 17340 H 1672.72 0.155124 -5.02761 0
M  V30 17341 H 1672.42 -1.4717 -5.68871 0
M  V30 17342 H 1673.94 -0.622677 -6.07417 0
M  V30 17343 H 1675.36 -2.66341 -5.07676 0
M  V30 17344 H 1673.75 -3.43854 -4.91817 0
M  V30 17345 H 1674.82 -3.34815 -3.50752 0
M  V30 17346 N 1676.17 1.23705 -0.976463 0
M  V30 17347 C 1677.1 2.24297 -0.471538 0
M  V30 17348 C 1678.11 1.57169 0.424484 0
M  V30 17349 O 1679.3 1.77022 0.229252 0
M  V30 17350 C 1676.4 3.37214 0.337621 0
M  V30 17351 C 1675.57 4.33921 -0.550586 0
M  V30 17352 C 1674.63 5.25804 0.204053 0
M  V30 17353 O 1673.66 5.67757 -0.404995 0
M  V30 17354 N 1674.86 5.61021 1.49116 0
M  V30 17355 H 1677.62 2.68252 -1.33645 0
M  V30 17356 H 1675.19 1.37836 -0.849281 0
M  V30 17357 H 1677.18 3.95658 0.850714 0
M  V30 17358 H 1675.75 2.92474 1.10351 0
M  V30 17359 H 1674.97 3.74038 -1.24455 0
M  V30 17360 H 1676.26 4.95493 -1.15604 0
M  V30 17361 H 1675.65 5.28879 2.00757 0
M  V30 17362 H 1674.21 6.21954 1.94978 0
M  V30 17363 N 1677.64 0.747635 1.38738 0
M  V30 17364 C 1678.55 0.117879 2.34304 0
M  V30 17365 C 1679.57 -0.707488 1.58967 0
M  V30 17366 O 1680.75 -0.633025 1.91193 0
M  V30 17367 C 1677.81 -0.769223 3.38059 0
M  V30 17368 C 1676.87 0.0698358 4.29243 0
M  V30 17369 C 1676.1 -0.775021 5.28043 0
M  V30 17370 O 1676.33 -2.01328 5.33688 0
M  V30 17371 O 1675.26 -0.196978 6.01578 0
M  V30 17372 H 1679.09 0.906972 2.89841 0
M  V30 17373 H 1676.67 0.508453 1.40482 0
M  V30 17374 H 1678.55 -1.27641 4.01604 0
M  V30 17375 H 1677.23 -1.53691 2.84887 0
M  V30 17376 H 1676.14 0.622836 3.68879 0
M  V30 17377 H 1677.47 0.80004 4.85654 0
M  V30 17378 N 1679.12 -1.49583 0.496242 0
M  V30 17379 C 1680.03 -2.32808 -0.289404 0
M  V30 17380 C 1681.05 -1.44324 -0.971933 0
M  V30 17381 O 1682.22 -1.77352 -0.954366 0
M  V30 17382 C 1679.29 -3.19645 -1.34269 0
M  V30 17383 C 1678.35 -4.23975 -0.6741 0
M  V30 17384 C 1677.58 -5.06661 -1.6772 0
M  V30 17385 O 1677.81 -4.90792 -2.90654 0
M  V30 17386 O 1676.74 -5.89091 -1.23514 0
M  V30 17387 H 1680.57 -3.01164 0.391664 0
M  V30 17388 H 1678.15 -1.47162 0.257652 0
M  V30 17389 H 1680.03 -3.73453 -1.9522 0
M  V30 17390 H 1678.71 -2.53989 -2.00677 0
M  V30 17391 H 1677.61 -3.74092 -0.0249732 0
M  V30 17392 H 1678.95 -4.92172 -0.0525442 0
M  V30 17393 N 1680.6 -0.229873 -1.55915 0
M  V30 17394 C 1681.53 0.671321 -2.23642 0
M  V30 17395 C 1682.51 1.19461 -1.21091 0
M  V30 17396 O 1683.7 1.23708 -1.49699 0
M  V30 17397 C 1680.83 1.87595 -2.92276 0
M  V30 17398 C 1679.78 1.48616 -4.01369 0
M  V30 17399 C 1679.11 2.77024 -4.57342 0
M  V30 17400 C 1680.41 0.669928 -5.17986 0
M  V30 17401 H 1682.1 0.106622 -2.9921 0
M  V30 17402 H 1679.65 0.0498418 -1.43914 0
M  V30 17403 H 1681.6 2.51191 -3.3835 0
M  V30 17404 H 1680.32 2.46576 -2.14168 0
M  V30 17405 H 1678.98 0.873623 -3.56038 0
M  V30 17406 H 1678.63 3.34166 -3.75955 0
M  V30 17407 H 1678.33 2.51674 -5.30975 0
M  V30 17408 H 1679.85 3.41548 -5.0614 0
M  V30 17409 H 1681.27 1.20978 -5.6039 0
M  V30 17410 H 1679.66 0.513174 -5.97902 0
M  V30 17411 H 1680.73 -0.321644 -4.83832 0
M  V30 17412 N 1682.08 1.5754 0.0434337 0
M  V30 17413 C 1683.01 2.02385 1.07577 0
M  V30 17414 C 1684.02 0.934273 1.33324 0
M  V30 17415 O 1685.21 1.2118 1.31064 0
M  V30 17416 C 1682.31 2.3719 2.42062 0
M  V30 17417 C 1681.48 3.68351 2.35874 0
M  V30 17418 C 1680.54 3.90506 3.52692 0
M  V30 17419 O 1679.57 4.61746 3.32836 0
M  V30 17420 N 1680.77 3.35035 4.74059 0
M  V30 17421 H 1683.54 2.91563 0.693641 0
M  V30 17422 H 1681.1 1.60234 0.231631 0
M  V30 17423 H 1683.09 2.49161 3.18906 0
M  V30 17424 H 1681.66 1.53758 2.72171 0
M  V30 17425 H 1680.88 3.66869 1.44224 0
M  V30 17426 H 1682.17 4.54419 2.28868 0
M  V30 17427 H 1681.57 2.77264 4.93094 0
M  V30 17428 H 1680.12 3.52409 5.48317 0
M  V30 17429 N 1683.56 -0.31543 1.54411 0
M  V30 17430 C 1684.49 -1.39353 1.87358 0
M  V30 17431 C 1685.47 -1.53586 0.731118 0
M  V30 17432 O 1686.65 -1.67332 0.98558 0
M  V30 17433 C 1683.78 -2.75998 2.10814 0
M  V30 17434 C 1682.74 -2.76545 3.2666 0
M  V30 17435 C 1682.06 -4.16343 3.35504 0
M  V30 17436 C 1683.36 -2.39567 4.64117 0
M  V30 17437 H 1685.06 -1.12028 2.77651 0
M  V30 17438 H 1682.6 -0.537476 1.33593 0
M  V30 17439 H 1684.55 -3.51491 2.32447 0
M  V30 17440 H 1683.28 -3.04817 1.17278 0
M  V30 17441 H 1681.94 -2.03507 3.04927 0
M  V30 17442 H 1681.59 -4.42316 2.39512 0
M  V30 17443 H 1681.29 -4.17613 4.13368 0
M  V30 17444 H 1682.81 -4.93637 3.59381 0
M  V30 17445 H 1684.22 -3.04775 4.85577 0
M  V30 17446 H 1682.62 -2.52075 5.4459 0
M  V30 17447 H 1683.69 -1.34707 4.65813 0
M  V30 17448 N 1685.03 -1.46622 -0.577906 0
M  V30 17449 C 1686.27 -1.53743 -1.34694 0
M  V30 17450 C 1686.64 -0.186609 -1.91091 0
M  V30 17451 O 1687.84 -0.132588 -2.68473 0
M  V30 17452 C 1686.11 -2.60908 -2.44258 0
M  V30 17453 S 1687.67 -2.87468 -3.31523 0
M  V30 17454 H 1684.49 -0.543138 -0.458827 0
M  V30 17455 H 1687.09 -1.83884 -0.663842 0
M  V30 17456 H 1685.79 -3.57682 -2.01225 0
M  V30 17457 H 1685.32 -2.32515 -3.17333 0
M  V30 17458 H 1687.34 -2.23104 -4.43214 0
M  V30 17459 N 1686.51 0.822941 -1.34408 0
M  V30 17460 C 1687.46 1.93383 -1.25982 0
M  V30 17461 C 1688.43 1.6555 -0.13506 0
M  V30 17462 O 1689.61 1.88164 -0.316033 0
M  V30 17463 C 1686.75 3.29646 -1.02117 0
M  V30 17464 C 1685.87 3.69772 -2.23366 0
M  V30 17465 C 1685 4.94982 -1.92784 0
M  V30 17466 C 1684.04 5.2769 -3.10177 0
M  V30 17467 N 1683.18 6.44078 -2.79479 0
M  V30 17468 H 1688.02 1.99922 -2.20987 0
M  V30 17469 H 1685.56 0.978105 -1.0987 0
M  V30 17470 H 1687.51 4.08173 -0.863175 0
M  V30 17471 H 1686.14 3.2262 -0.107803 0
M  V30 17472 H 1685.2 2.86637 -2.50086 0
M  V30 17473 H 1686.51 3.89914 -3.11076 0
M  V30 17474 H 1685.66 5.81297 -1.73721 0
M  V30 17475 H 1684.4 4.76843 -1.02335 0
M  V30 17476 H 1683.41 4.39873 -3.29837 0
M  V30 17477 H 1684.63 5.47769 -4.01405 0
M  V30 17478 H 1682.58 6.27394 -1.91605 0
M  V30 17479 H 1682.49 6.64392 -3.60721 0
M  V30 17480 H 1683.76 7.33462 -2.63919 0
M  V30 17481 N 1687.99 1.18137 1.04314 0
M  V30 17482 C 1689.24 0.973277 1.77121 0
M  V30 17483 C 1689.56 -0.498558 1.88519 0
M  V30 17484 O 1688.83 -1.36168 1.40837 0
M  V30 17485 H 1687.41 0.35712 0.656105 0
M  V30 17486 H 1690.07 1.48774 1.25906 0
M  V30 17487 H 1689.17 1.40917 2.78476 0
M  V30 17488 N 1689.47 -1.23186 0.98301 0
M  V30 17489 C 1690.4 -2.27054 0.544858 0
M  V30 17490 C 1691.38 -1.64749 -0.423281 0
M  V30 17491 O 1692.56 -1.91611 -0.316075 0
M  V30 17492 C 1689.69 -3.46972 -0.150976 0
M  V30 17493 C 1688.65 -4.21647 0.734707 0
M  V30 17494 C 1687.97 -5.34618 -0.0934874 0
M  V30 17495 C 1689.27 -4.81372 2.02679 0
M  V30 17496 H 1690.97 -2.63957 1.41305 0
M  V30 17497 H 1688.51 -1.26885 0.680895 0
M  V30 17498 H 1690.47 -4.18784 -0.468825 0
M  V30 17499 H 1689.19 -3.09137 -1.05364 0
M  V30 17500 H 1687.85 -3.51655 1.03605 0
M  V30 17501 H 1687.5 -4.93025 -0.996768 0
M  V30 17502 H 1687.2 -5.85503 0.496019 0
M  V30 17503 H 1688.72 -6.09251 -0.405658 0
M  V30 17504 H 1690.14 -5.45178 1.77353 0
M  V30 17505 H 1688.53 -5.42554 2.56429 0
M  V30 17506 H 1689.6 -4.01972 2.71194 0
M  V30 17507 N 1690.95 -0.754982 -1.38339 0
M  V30 17508 C 1692.19 -0.312224 -2.00382 0
M  V30 17509 C 1692.53 1.10362 -1.59793 0
M  V30 17510 O 1691.8 1.75611 -0.83613 0
M  V30 17511 C 1692.08 -0.436701 -3.57442 0
M  V30 17512 C 1691.94 -1.89376 -4.07991 0
M  V30 17513 C 1693.26 0.169083 -4.39775 0
M  V30 17514 H 1690.37 -0.114922 -0.727985 0
M  V30 17515 H 1693.02 -0.954887 -1.64262 0
M  V30 17516 H 1691.17 0.11043 -3.88343 0
M  V30 17517 H 1692.84 -2.4993 -3.87728 0
M  V30 17518 H 1691.08 -2.40834 -3.60807 0
M  V30 17519 H 1691.75 -1.932 -5.17086 0
M  V30 17520 H 1694.23 -0.297554 -4.15035 0
M  V30 17521 H 1693.1 0.0517531 -5.48876 0
M  V30 17522 H 1693.37 1.25754 -4.23838 0
M  V30 17523 N 1692.42 1.49318 -0.504168 0
M  V30 17524 C 1693.36 2.27103 0.309327 0
M  V30 17525 C 1694.37 1.33776 0.927781 0
M  V30 17526 O 1695.56 1.59034 0.810585 0
M  V30 17527 C 1692.66 3.06277 1.45078 0
M  V30 17528 C 1691.83 4.27201 0.939045 0
M  V30 17529 C 1690.89 4.88395 1.95849 0
M  V30 17530 O 1689.92 5.4837 1.52576 0
M  V30 17531 N 1691.12 4.78328 3.28911 0
M  V30 17532 H 1693.88 2.97558 -0.35767 0
M  V30 17533 H 1691.44 1.58356 -0.336907 0
M  V30 17534 H 1693.44 3.44088 2.13038 0
M  V30 17535 H 1692.01 2.38409 2.02188 0
M  V30 17536 H 1691.23 3.9411 0.0842433 0
M  V30 17537 H 1692.51 5.05534 0.575603 0
M  V30 17538 H 1691.91 4.30707 3.66753 0
M  V30 17539 H 1690.47 5.20315 3.92576 0
M  V30 17540 N 1693.9 0.238138 1.5579 0
M  V30 17541 C 1694.87 -0.651703 2.1974 0
M  V30 17542 C 1695.87 -1.10932 1.16408 0
M  V30 17543 O 1697.06 -1.01544 1.41543 0
M  V30 17544 C 1694.19 -1.8947 2.83397 0
M  V30 17545 H 1695.38 -0.0939013 2.99753 0
M  V30 17546 H 1692.93 -0.0114348 1.56296 0
M  V30 17547 H 1693.67 -2.49395 2.07298 0
M  V30 17548 H 1693.45 -1.57486 3.59083 0
M  V30 17549 H 1694.94 -2.52831 3.32365 0
M  V30 17550 N 1695.38 -1.57561 -0.0350783 0
M  V30 17551 C 1696.31 -2.09201 -1.03716 0
M  V30 17552 C 1697.29 -0.993231 -1.3809 0
M  V30 17553 O 1698.48 -1.26812 -1.47079 0
M  V30 17554 C 1695.61 -2.56643 -2.3399 0
M  V30 17555 C 1694.56 -3.70731 -2.13874 0
M  V30 17556 C 1693.89 -4.04358 -3.49855 0
M  V30 17557 C 1695.19 -4.99393 -1.52982 0
M  V30 17558 H 1696.88 -2.93176 -0.60731 0
M  V30 17559 H 1694.43 -1.41036 -0.290683 0
M  V30 17560 H 1696.38 -2.9139 -3.04417 0
M  V30 17561 H 1695.1 -1.69744 -2.79024 0
M  V30 17562 H 1693.76 -3.36325 -1.45881 0
M  V30 17563 H 1693.41 -3.14534 -3.92527 0
M  V30 17564 H 1693.11 -4.81201 -3.37223 0
M  V30 17565 H 1694.63 -4.41633 -4.21654 0
M  V30 17566 H 1696.05 -5.32135 -2.13319 0
M  V30 17567 H 1694.45 -5.80807 -1.50943 0
M  V30 17568 H 1695.52 -4.82367 -0.494993 0
M  V30 17569 N 1696.86 0.307236 -1.54576 0
M  V30 17570 C 1697.79 1.40019 -1.81459 0
M  V30 17571 C 1698.8 1.47113 -0.697246 0
M  V30 17572 O 1699.99 1.49544 -0.974626 0
M  V30 17573 C 1697.09 2.78439 -1.93197 0
M  V30 17574 C 1696.27 2.94353 -3.23536 0
M  V30 17575 C 1695.32 4.13232 -3.25769 0
M  V30 17576 O 1694.35 4.05614 -3.99331 0
M  V30 17577 N 1695.55 5.23567 -2.50715 0
M  V30 17578 H 1698.32 1.17317 -2.75784 0
M  V30 17579 H 1695.88 0.497286 -1.54074 0
M  V30 17580 H 1697.87 3.56202 -1.921 0
M  V30 17581 H 1696.44 2.94117 -1.05895 0
M  V30 17582 H 1695.66 2.03754 -3.37458 0
M  V30 17583 H 1696.95 3.01892 -4.09559 0
M  V30 17584 H 1696.35 5.32635 -1.90569 0
M  V30 17585 H 1694.9 5.99687 -2.55379 0
M  V30 17586 N 1698.34 1.46926 0.570122 0
M  V30 17587 C 1699.56 1.5648 1.35358 0
M  V30 17588 C 1699.98 0.210356 1.87624 0
M  V30 17589 O 1699.34 -0.794388 1.64304 0
M  V30 17590 C 1699.39 2.57973 2.53243 0
M  V30 17591 O 1699.11 3.88157 2.03139 0
M  V30 17592 C 1700.61 2.77587 3.4563 0
M  V30 17593 H 1697.83 0.528787 0.413068 0
M  V30 17594 H 1700.37 1.9244 0.691895 0
M  V30 17595 H 1698.53 2.24982 3.15375 0
M  V30 17596 H 1698.94 4.43506 2.80004 0
M  V30 17597 H 1700.42 3.52495 4.24795 0
M  V30 17598 H 1700.89 1.84944 3.98362 0
M  V30 17599 H 1701.5 3.11724 2.89324 0
M  V30 17600 N 1699.82 -0.815801 1.34842 0
M  V30 17601 C 1700.76 -1.92713 1.27006 0
M  V30 17602 C 1701.73 -1.65476 0.143838 0
M  V30 17603 O 1702.92 -1.87994 0.326007 0
M  V30 17604 C 1700.06 -3.29099 1.03863 0
M  V30 17605 C 1699.17 -3.68583 2.25324 0
M  V30 17606 C 1698.31 -4.93953 1.95407 0
M  V30 17607 C 1697.34 -5.26037 3.12971 0
M  V30 17608 N 1696.48 -6.42586 2.82891 0
M  V30 17609 H 1701.32 -1.98747 2.22044 0
M  V30 17610 H 1698.86 -0.972265 1.10388 0
M  V30 17611 H 1700.82 -4.07709 0.884809 0
M  V30 17612 H 1699.45 -3.22558 0.124911 0
M  V30 17613 H 1698.5 -2.85307 2.51603 0
M  V30 17614 H 1699.81 -3.88259 3.1314 0
M  V30 17615 H 1698.96 -5.80367 1.76801 0
M  V30 17616 H 1697.7 -4.76293 1.04862 0
M  V30 17617 H 1696.71 -4.38117 3.32165 0
M  V30 17618 H 1697.93 -5.45632 4.04305 0
M  V30 17619 H 1695.88 -6.26369 1.9493 0
M  V30 17620 H 1695.8 -6.62469 3.64239 0
M  V30 17621 H 1697.06 -7.32052 2.67805 0
M  V30 17622 N 1701.29 -1.18689 -1.03686 0
M  V30 17623 C 1702.54 -0.98606 -1.77214 0
M  V30 17624 C 1702.87 0.482788 -1.88103 0
M  V30 17625 O 1702.15 1.3585 -1.39194 0
M  V30 17626 C 1702.43 -1.64611 -3.20274 0
M  V30 17627 C 1702.28 -3.18808 -3.17304 0
M  V30 17628 C 1703.6 -1.36251 -4.18478 0
M  V30 17629 H 1700.72 -0.359634 -0.643298 0
M  V30 17630 H 1703.36 -1.46412 -1.21094 0
M  V30 17631 H 1701.51 -1.23964 -3.68192 0
M  V30 17632 H 1703.19 -3.68615 -2.77346 0
M  V30 17633 H 1701.43 -3.50769 -2.55232 0
M  V30 17634 H 1702.1 -3.60131 -4.18341 0
M  V30 17635 H 1704.58 -1.71476 -3.79124 0
M  V30 17636 H 1703.45 -1.84997 -5.16786 0
M  V30 17637 H 1703.71 -0.286113 -4.41173 0
M  V30 17638 N 1702.77 1.22662 -0.989529 0
M  V30 17639 C 1704 1.95343 -0.681822 0
M  V30 17640 C 1704.41 1.73139 0.752889 0
M  V30 17641 O 1703.77 1.02838 1.50766 0
M  V30 17642 C 1703.82 3.4813 -0.974049 0
M  V30 17643 O 1703.54 3.69587 -2.35238 0
M  V30 17644 C 1705.04 4.37998 -0.683571 0
M  V30 17645 H 1702.26 0.621675 -0.252509 0
M  V30 17646 H 1704.81 1.55906 -1.32339 0
M  V30 17647 H 1702.96 3.85548 -0.378344 0
M  V30 17648 H 1703.38 4.63812 -2.44906 0
M  V30 17649 H 1704.85 5.43966 -0.938338 0
M  V30 17650 H 1705.33 4.37532 0.382417 0
M  V30 17651 H 1705.93 4.06202 -1.26017 0
M  V30 17652 N 1704.25 0.762308 1.37937 0
M  V30 17653 C 1705.18 0.100528 2.28979 0
M  V30 17654 C 1706.19 -0.674409 1.48174 0
M  V30 17655 O 1707.38 -0.514059 1.70938 0
M  V30 17656 C 1704.48 -0.881478 3.27236 0
M  V30 17657 C 1703.66 -0.162349 4.37099 0
M  V30 17658 C 1702.72 -1.05636 5.15488 0
M  V30 17659 O 1701.74 -0.523636 5.66786 0
M  V30 17660 N 1702.94 -2.3836 5.29306 0
M  V30 17661 H 1705.71 0.882451 2.86414 0
M  V30 17662 H 1703.27 0.613839 1.49812 0
M  V30 17663 H 1705.26 -1.48278 3.76558 0
M  V30 17664 H 1703.83 -1.56443 2.70637 0
M  V30 17665 H 1703.05 0.61976 3.89298 0
M  V30 17666 H 1704.34 0.334928 5.07696 0
M  V30 17667 H 1703.74 -2.84087 4.89194 0
M  V30 17668 H 1702.29 -2.9352 5.8197 0
M  V30 17669 N 1705.73 -1.49049 0.51208 0
M  V30 17670 C 1706.66 -2.27264 -0.297278 0
M  V30 17671 C 1707.67 -1.34266 -0.920674 0
M  V30 17672 O 1708.86 -1.59461 -0.80214 0
M  V30 17673 C 1705.96 -3.07042 -1.43452 0
M  V30 17674 C 1705.13 -4.27693 -0.916376 0
M  V30 17675 C 1704.19 -4.89427 -1.93256 0
M  V30 17676 O 1703.22 -5.49171 -1.49666 0
M  V30 17677 N 1704.42 -4.80066 -3.26369 0
M  V30 17678 H 1707.19 -2.97364 0.373445 0
M  V30 17679 H 1704.75 -1.58175 0.3453 0
M  V30 17680 H 1706.74 -3.45213 -2.1121 0
M  V30 17681 H 1705.31 -2.39478 -2.0092 0
M  V30 17682 H 1704.53 -3.94149 -0.0633415 0
M  V30 17683 H 1705.82 -5.05832 -0.548786 0
M  V30 17684 H 1705.22 -4.32646 -3.64464 0
M  V30 17685 H 1703.77 -5.2239 -3.89811 0
M  V30 17686 N 1707.21 -0.246397 -1.55662 0
M  V30 17687 C 1708.45 0.377739 -1.98539 0
M  V30 17688 C 1708.77 1.58504 -1.13585 0
M  V30 17689 O 1708.04 1.94677 -0.218528 0
M  V30 17690 H 1706.62 0.142554 -0.733272 0
M  V30 17691 H 1709.29 -0.345069 -1.91821 0
M  V30 17692 H 1708.38 0.687224 -3.0444 0
M  V30 17693 N 1708.68 1.57577 0.026722 0
M  V30 17694 C 1709.61 2.09748 1.02605 0
M  V30 17695 C 1710.59 1.00054 1.37562 0
M  V30 17696 O 1711.78 1.2759 1.46405 0
M  V30 17697 C 1708.91 2.57881 2.32626 0
M  V30 17698 C 1707.86 3.7186 2.11905 0
M  V30 17699 C 1707.19 4.06208 3.47706 0
M  V30 17700 C 1708.49 5.00198 1.50332 0
M  V30 17701 H 1710.18 2.93494 0.591753 0
M  V30 17702 H 1707.73 1.41188 0.283199 0
M  V30 17703 H 1709.68 2.93 3.02868 0
M  V30 17704 H 1708.41 1.71222 2.7812 0
M  V30 17705 H 1707.07 3.37094 1.44096 0
M  V30 17706 H 1706.71 3.16611 3.90853 0
M  V30 17707 H 1706.41 4.82982 3.34667 0
M  V30 17708 H 1707.94 4.43863 4.19306 0
M  V30 17709 H 1709.35 5.33259 2.10494 0
M  V30 17710 H 1707.75 5.81599 1.4786 0
M  V30 17711 H 1708.82 4.82623 0.469405 0
M  V30 17712 N 1710.16 -0.299034 1.54737 0
M  V30 17713 C 1711.11 -1.36887 1.85824 0
M  V30 17714 C 1712.08 -1.50287 0.70733 0
M  V30 17715 O 1713.26 -1.65114 0.956143 0
M  V30 17716 C 1710.4 -2.7286 2.11286 0
M  V30 17717 C 1709.52 -2.67893 3.38906 0
M  V30 17718 C 1708.65 -3.95873 3.542 0
M  V30 17719 C 1707.69 -3.85312 4.75606 0
M  V30 17720 N 1706.83 -5.05072 4.87695 0
M  V30 17721 H 1711.67 -1.09676 2.77083 0
M  V30 17722 H 1709.2 -0.530427 1.37204 0
M  V30 17723 H 1711.16 -3.51938 2.24043 0
M  V30 17724 H 1709.79 -2.98327 1.23291 0
M  V30 17725 H 1708.84 -1.80669 3.34758 0
M  V30 17726 H 1710.16 -2.5598 4.28107 0
M  V30 17727 H 1709.31 -4.83389 3.66633 0
M  V30 17728 H 1708.05 -4.10622 2.63136 0
M  V30 17729 H 1707.05 -2.9618 4.63203 0
M  V30 17730 H 1708.28 -3.72106 5.68079 0
M  V30 17731 H 1706.23 -5.20281 3.99554 0
M  V30 17732 H 1706.14 -4.9559 5.709 0
M  V30 17733 H 1707.41 -5.94233 5.04487 0
M  V30 17734 N 1711.64 -1.47227 -0.562322 0
M  V30 17735 C 1712.57 -1.53865 -1.68526 0
M  V30 17736 C 1713.55 -0.391166 -1.57825 0
M  V30 17737 O 1714.73 -0.598238 -1.78755 0
M  V30 17738 C 1711.86 -1.43638 -3.06734 0
M  V30 17739 C 1710.91 -2.62824 -3.35895 0
M  V30 17740 S 1711.74 -4.25054 -3.25714 0
M  V30 17741 C 1712.9 -4.17372 -4.66424 0
M  V30 17742 H 1713.13 -2.48869 -1.6264 0
M  V30 17743 H 1710.66 -1.35362 -0.74273 0
M  V30 17744 H 1712.62 -1.38425 -3.86457 0
M  V30 17745 H 1711.28 -0.500271 -3.1009 0
M  V30 17746 H 1710.47 -2.51718 -4.3664 0
M  V30 17747 H 1710.08 -2.65133 -2.63782 0
M  V30 17748 H 1712.37 -3.8531 -5.57263 0
M  V30 17749 H 1713.31 -5.18184 -4.82587 0
M  V30 17750 H 1713.72 -3.48309 -4.44231 0
M  V30 17751 N 1713.12 0.808639 -1.35273 0
M  V30 17752 C 1714.36 1.56794 -1.28621 0
M  V30 17753 C 1714.7 1.93697 0.139686 0
M  V30 17754 O 1713.97 1.61185 1.08856 0
M  V30 17755 C 1714.25 2.85794 -2.19075 0
M  V30 17756 C 1714.11 2.5538 -3.70271 0
M  V30 17757 C 1715.43 3.87481 -2.08678 0
M  V30 17758 H 1712.55 0.568873 -0.468564 0
M  V30 17759 H 1715.19 0.930499 -1.65655 0
M  V30 17760 H 1713.34 3.40191 -1.87622 0
M  V30 17761 H 1715.01 2.07182 -4.12157 0
M  V30 17762 H 1713.25 1.88605 -3.90654 0
M  V30 17763 H 1713.92 3.47432 -4.28947 0
M  V30 17764 H 1716.4 3.42478 -2.36323 0
M  V30 17765 H 1715.28 4.75523 -2.7417 0
M  V30 17766 H 1715.54 4.29004 -1.06809 0
M  V30 17767 N 1714.6 1.19237 1.03055 0
M  V30 17768 C 1715.84 0.995444 1.76688 0
M  V30 17769 C 1716.18 -0.472805 1.88357 0
M  V30 17770 O 1715.45 -1.3511 1.39913 0
M  V30 17771 C 1715.73 1.66308 3.19396 0
M  V30 17772 C 1715.59 3.20486 3.15609 0
M  V30 17773 C 1716.91 1.38468 4.17749 0
M  V30 17774 H 1714.02 0.36304 0.641382 0
M  V30 17775 H 1716.67 1.47052 1.20315 0
M  V30 17776 H 1714.82 1.25915 3.67529 0
M  V30 17777 H 1716.49 3.70081 2.75387 0
M  V30 17778 H 1714.73 3.52118 2.53369 0
M  V30 17779 H 1715.4 3.62345 4.16426 0
M  V30 17780 H 1717.88 1.73485 3.78209 0
M  V30 17781 H 1716.75 1.87735 5.15797 0
M  V30 17782 H 1717.02 0.309505 4.41015 0
M  V30 17783 N 1716.07 -1.22136 0.99602 0
M  V30 17784 C 1717.49 -1.72743 0.708295 0
M  V30 17785 C 1717.84 -1.8026 -0.774649 0
M  V30 17786 O 1716.96 -1.45102 -1.60544 0
M  V30 17787 C 1717.56 -3.13729 1.27905 0
M  V30 17788 C 1716.12 -3.61729 1.04064 0
M  V30 17789 C 1715.26 -2.39519 1.39735 0
M  V30 17790 H 1718.21 -1.07439 1.16801 0
M  V30 17791 H 1718.23 -3.74746 0.65919 0
M  V30 17792 H 1717.75 -3.08225 2.35836 0
M  V30 17793 H 1715.85 -3.72594 -0.0219029 0
M  V30 17794 H 1715.96 -4.47689 1.70621 0
M  V30 17795 H 1714.32 -2.41275 0.815986 0
M  V30 17796 H 1715.11 -2.36675 2.48677 0
M  V30 17797 N 1717.55 -0.769612 -1.37531 0
M  V30 17798 C 1718.8 -0.332309 -1.99349 0
M  V30 17799 C 1719.12 1.09432 -1.61399 0
M  V30 17800 O 1718.39 1.75102 -0.878415 0
M  V30 17801 H 1716.97 -0.119879 -0.737318 0
M  V30 17802 H 1719.63 -0.987265 -1.68045 0
M  V30 17803 H 1718.73 -0.408233 -3.09419 0
M  V30 17804 N 1719.03 1.48775 -0.519977 0
M  V30 17805 C 1719.96 2.32292 0.237213 0
M  V30 17806 C 1720.94 1.4146 0.944625 0
M  V30 17807 O 1722.13 1.70355 0.932349 0
M  V30 17808 C 1719.26 3.22426 1.29068 0
M  V30 17809 C 1718.21 4.22204 0.702011 0
M  V30 17810 C 1717.54 5.01403 1.85739 0
M  V30 17811 C 1718.84 5.21321 -0.319626 0
M  V30 17812 H 1720.53 2.95846 -0.459949 0
M  V30 17813 H 1718.08 1.42268 -0.222641 0
M  V30 17814 H 1720.03 3.79674 1.82826 0
M  V30 17815 H 1718.75 2.56853 2.01728 0
M  V30 17816 H 1717.41 3.66128 0.186027 0
M  V30 17817 H 1717.06 4.32262 2.57214 0
M  V30 17818 H 1716.76 5.68929 1.46949 0
M  V30 17819 H 1718.28 5.615 2.39895 0
M  V30 17820 H 1719.7 5.73151 0.130505 0
M  V30 17821 H 1718.1 5.96843 -0.624377 0
M  V30 17822 H 1719.17 4.69069 -1.22893 0
M  V30 17823 N 1720.51 0.254649 1.55529 0
M  V30 17824 C 1721.79 -0.418663 1.91067 0
M  V30 17825 C 1722.17 -1.75284 1.17638 0
M  V30 17826 O 1721.51 -2.26569 0.296411 0
M  V30 17827 C 1721.72 -0.579125 3.44162 0
M  V30 17828 C 1723.07 -0.871451 4.15561 0
M  V30 17829 O 1724.1 -0.664702 3.49943 0
M  V30 17830 O 1722.95 -1.26563 5.31643 0
M  V30 17831 H 1720.05 -0.22593 0.795541 0
M  V30 17832 H 1722.59 0.299288 1.6704 0
M  V30 17833 H 1721.37 0.36062 3.89635 0
M  V30 17834 H 1720.99 -1.34732 3.74076 0
M  V30 17835 N 1721.99 -1.57589 -0.0183649 0
M  V30 17836 C 1723.23 -1.89382 -0.705612 0
M  V30 17837 C 1723.56 -0.853698 -1.7532 0
M  V30 17838 O 1722.83 0.111322 -1.95583 0
M  V30 17839 H 1721.41 -0.698943 -0.263605 0
M  V30 17840 H 1724.07 -1.94891 0.0182168 0
M  V30 17841 H 1723.16 -2.88587 -1.18845 0
M  V30 17842 N 1723.46 0.290824 -1.54893 0
M  V30 17843 C 1724.43 1.34215 -1.85793 0
M  V30 17844 C 1725.43 1.43204 -0.731393 0
M  V30 17845 O 1726.62 1.42663 -0.999647 0
M  V30 17846 C 1723.75 2.72577 -2.0473 0
M  V30 17847 H 1724.94 1.08056 -2.79757 0
M  V30 17848 H 1722.5 0.528008 -1.47111 0
M  V30 17849 H 1723.23 3.03943 -1.13088 0
M  V30 17850 H 1723.02 2.67442 -2.86736 0
M  V30 17851 H 1724.51 3.48573 -2.29971 0
M  V30 17852 N 1724.94 1.47523 0.554506 0
M  V30 17853 C 1725.87 1.56275 1.67663 0
M  V30 17854 C 1726.89 0.448743 1.56493 0
M  V30 17855 O 1728.08 0.718478 1.63402 0
M  V30 17856 C 1725.18 1.45348 3.06149 0
M  V30 17857 C 1724.35 2.71364 3.43046 0
M  V30 17858 C 1723.41 2.54237 4.60706 0
M  V30 17859 O 1722.43 3.28059 4.65152 0
M  V30 17860 N 1723.64 1.6224 5.57367 0
M  V30 17861 H 1726.4 2.53036 1.60601 0
M  V30 17862 H 1723.96 1.43936 0.741209 0
M  V30 17863 H 1725.95 1.31621 3.82698 0
M  V30 17864 H 1724.52 0.566583 3.07423 0
M  V30 17865 H 1723.74 2.99833 2.55917 0
M  V30 17866 H 1725.03 3.55017 3.64473 0
M  V30 17867 H 1724.43 1.01419 5.56534 0
M  V30 17868 H 1722.99 1.54463 6.33233 0
M  V30 17869 N 1726.42 -0.801453 1.357 0
M  V30 17870 C 1727.67 -1.55392 1.28594 0
M  V30 17871 C 1727.98 -1.95125 -0.136199 0
M  V30 17872 O 1729.19 -2.69492 -0.329568 0
M  V30 17873 C 1727.64 -2.80456 2.2555 0
M  V30 17874 C 1727.25 -2.47939 3.73135 0
M  V30 17875 C 1729 -3.58457 2.27396 0
M  V30 17876 C 1726.9 -3.69326 4.61901 0
M  V30 17877 H 1725.83 -0.583286 0.477801 0
M  V30 17878 H 1728.48 -0.880525 1.60994 0
M  V30 17879 H 1726.87 -3.49532 1.86127 0
M  V30 17880 H 1728.04 -1.86837 4.21223 0
M  V30 17881 H 1726.36 -1.83173 3.73947 0
M  V30 17882 H 1728.95 -4.48625 2.90929 0
M  V30 17883 H 1729.3 -3.96162 1.27912 0
M  V30 17884 H 1729.83 -2.96348 2.65373 0
M  V30 17885 H 1726.57 -3.36726 5.62402 0
M  V30 17886 H 1726.09 -4.29636 4.18536 0
M  V30 17887 H 1727.77 -4.36496 4.77578 0
M  V30 17888 N 1727.9 -1.19782 -1.02421 0
M  V30 17889 C 1729.31 -1.00493 -1.57347 0
M  V30 17890 C 1729.66 0.440854 -1.91183 0
M  V30 17891 O 1728.79 1.32102 -1.714 0
M  V30 17892 C 1729.38 -1.8179 -2.85898 0
M  V30 17893 C 1727.94 -1.66889 -3.3738 0
M  V30 17894 C 1727.09 -1.80199 -2.10769 0
M  V30 17895 H 1730.04 -1.34085 -0.848938 0
M  V30 17896 H 1730.06 -1.31676 -3.5699 0
M  V30 17897 H 1729.57 -2.87011 -2.6124 0
M  V30 17898 H 1727.67 -0.64274 -3.67014 0
M  V30 17899 H 1727.78 -2.47705 -4.10096 0
M  V30 17900 H 1726.15 -1.23308 -2.22862 0
M  V30 17901 H 1726.93 -2.86889 -1.88546 0
M  V30 17902 N 1729.38 1.21606 -1.00248 0
M  V30 17903 C 1730.79 1.42695 -0.714862 0
M  V30 17904 C 1730.99 1.88542 0.710917 0
M  V30 17905 O 1730.05 2.04535 1.48059 0
M  V30 17906 C 1731.36 2.4605 -1.72858 0
M  V30 17907 C 1732.91 2.59836 -1.74511 0
M  V30 17908 C 1733.39 3.66421 -2.74772 0
M  V30 17909 N 1734.88 3.73889 -2.73425 0
M  V30 17910 C 1735.61 4.5598 -3.47664 0
M  V30 17911 N 1735.11 5.41987 -4.31535 0
M  V30 17912 N 1736.9 4.50379 -3.36326 0
M  V30 17913 H 1729.05 0.901565 -1.92316 0
M  V30 17914 H 1731.31 0.458128 -0.829954 0
M  V30 17915 H 1731.02 2.19329 -2.74932 0
M  V30 17916 H 1730.89 3.44812 -1.5292 0
M  V30 17917 H 1733.28 2.85895 -0.731304 0
M  V30 17918 H 1733.36 1.61317 -1.98521 0
M  V30 17919 H 1733.01 3.41108 -3.76308 0
M  V30 17920 H 1732.94 4.64531 -2.48029 0
M  V30 17921 H 1735.43 3.12443 -2.12575 0
M  V30 17922 H 1735.74 6.01673 -4.84984 0
M  V30 17923 H 1734.09 5.41537 -4.35618 0
M  V30 17924 H 1737.28 3.82217 -2.70237 0
M  V30 17925 H 1737.45 5.14122 -3.9444 0
M  V30 17926 N 1730.86 0.776895 1.37121 0
M  V30 17927 C 1732.13 0.268067 1.93754 0
M  V30 17928 C 1732.51 -1.23774 1.71007 0
M  V30 17929 O 1731.86 -2.02331 1.0618 0
M  V30 17930 C 1732.07 0.647054 3.42949 0
M  V30 17931 C 1733.42 0.619737 4.20053 0
M  V30 17932 O 1734.44 0.586757 3.51334 0
M  V30 17933 O 1733.3 0.651412 5.42604 0
M  V30 17934 H 1730.4 0.0631883 0.824582 0
M  V30 17935 H 1732.94 0.858594 1.46377 0
M  V30 17936 H 1731.71 1.68608 3.5311 0
M  V30 17937 H 1731.34 0.0297448 3.97589 0
M  V30 17938 N 1732.33 -1.48497 0.527859 0
M  V30 17939 C 1733.74 -1.86498 0.0868541 0
M  V30 17940 C 1734.1 -1.43763 -1.33517 0
M  V30 17941 O 1733.22 -0.827397 -1.99958 0
M  V30 17942 C 1733.82 -3.38464 0.150843 0
M  V30 17943 C 1732.37 -3.75666 -0.234956 0
M  V30 17944 C 1731.52 -2.72541 0.511549 0
M  V30 17945 H 1734.47 -1.40432 0.739223 0
M  V30 17946 H 1734.49 -3.75114 -0.637972 0
M  V30 17947 H 1734.01 -3.69537 1.18592 0
M  V30 17948 H 1732.11 -3.50206 -1.27225 0
M  V30 17949 H 1732.22 -4.78989 0.103178 0
M  V30 17950 H 1730.58 -2.54665 -0.0419281 0
M  V30 17951 H 1731.37 -3.06457 1.54722 0
M  V30 17952 N 1733.81 -0.262893 -1.55392 0
M  V30 17953 C 1735.04 0.363972 -2.04181 0
M  V30 17954 C 1735.46 1.49585 -1.14044 0
M  V30 17955 O 1734.82 1.80785 -0.136553 0
M  V30 17956 C 1734.87 0.834041 -3.50822 0
M  V30 17957 O 1733.97 1.94234 -3.63795 0
M  V30 17958 H 1733.31 0.0771193 -0.659506 0
M  V30 17959 H 1735.84 -0.393623 -2.00778 0
M  V30 17960 H 1735.85 1.13304 -3.91952 0
M  V30 17961 H 1734.53 0.00584833 -4.159 0
M  V30 17962 H 1733.1 1.64681 -3.34566 0
M  V30 17963 N 1735.29 1.57597 0.0100073 0
M  V30 17964 C 1736.22 2.04622 1.0326 0
M  V30 17965 C 1737.23 0.962343 1.31312 0
M  V30 17966 O 1738.42 1.23933 1.28464 0
M  V30 17967 C 1735.52 2.42271 2.36976 0
M  V30 17968 C 1734.7 3.73271 2.28008 0
M  V30 17969 C 1733.76 3.97899 3.4433 0
M  V30 17970 O 1732.78 4.68702 3.22966 0
M  V30 17971 N 1733.98 3.45015 4.66846 0
M  V30 17972 H 1736.75 2.92968 0.63164 0
M  V30 17973 H 1734.31 1.6069 0.197591 0
M  V30 17974 H 1736.3 2.55869 3.13549 0
M  V30 17975 H 1734.87 1.59496 2.68849 0
M  V30 17976 H 1734.09 3.69846 1.3641 0
M  V30 17977 H 1735.38 4.59172 2.19178 0
M  V30 17978 H 1734.78 2.87661 4.87101 0
M  V30 17979 H 1733.33 3.6396 5.40718 0
M  V30 17980 N 1736.77 -0.282606 1.55045 0
M  V30 17981 C 1737.7 -1.37115 1.83663 0
M  V30 17982 C 1738.71 -1.45985 0.720563 0
M  V30 17983 O 1739.9 -1.47974 0.998294 0
M  V30 17984 C 1737 -2.7533 1.97603 0
M  V30 17985 C 1736.17 -2.89168 3.28177 0
M  V30 17986 C 1735.23 -4.07997 3.32302 0
M  V30 17987 O 1734.26 -3.9921 4.05734 0
M  V30 17988 N 1735.46 -5.19512 2.59013 0
M  V30 17989 H 1738.23 -1.12914 2.77616 0
M  V30 17990 H 1735.79 -0.472711 1.54845 0
M  V30 17991 H 1737.78 -3.531 1.97743 0
M  V30 17992 H 1736.35 -2.92396 1.1056 0
M  V30 17993 H 1735.57 -1.9836 3.40657 0
M  V30 17994 H 1736.86 -2.95338 4.1431 0
M  V30 17995 H 1736.26 -5.29536 1.99018 0
M  V30 17996 H 1734.81 -5.95549 2.64887 0
M  V30 17997 N 1738.25 -1.47815 -0.546675 0
M  V30 17998 C 1739.16 -1.63744 -1.68003 0
M  V30 17999 C 1740.17 -0.520118 -1.66044 0
M  V30 18000 O 1741.35 -0.789033 -1.853 0
M  V30 18001 C 1738.41 -1.65778 -3.04497 0
M  V30 18002 C 1737.47 -2.89015 -3.17441 0
M  V30 18003 C 1736.71 -2.90943 -4.47424 0
M  V30 18004 O 1736.93 -2.01769 -5.33522 0
M  V30 18005 O 1735.86 -3.82927 -4.64382 0
M  V30 18006 H 1739.69 -2.59665 -1.57505 0
M  V30 18007 H 1737.27 -1.31022 -0.717883 0
M  V30 18008 H 1739.16 -1.69734 -3.85705 0
M  V30 18009 H 1737.83 -0.730268 -3.15355 0
M  V30 18010 H 1736.74 -2.90599 -2.35591 0
M  V30 18011 H 1738.07 -3.81095 -3.11492 0
M  V30 18012 N 1739.72 0.794246 -1.36123 0
M  V30 18013 C 1740.65 1.92105 -1.32732 0
M  V30 18014 C 1741.63 1.68925 -0.199603 0
M  V30 18015 O 1742.82 1.90109 -0.396498 0
M  V30 18016 C 1739.95 3.29051 -1.11098 0
M  V30 18017 C 1738.9 3.66743 -2.20643 0
M  V30 18018 C 1738.23 5.01986 -1.84159 0
M  V30 18019 C 1739.53 3.75831 -3.62696 0
M  V30 18020 H 1741.22 1.952 -2.27018 0
M  V30 18021 H 1738.77 0.937746 -1.09281 0
M  V30 18022 H 1740.72 4.07494 -1.07362 0
M  V30 18023 H 1739.45 3.26331 -0.132614 0
M  V30 18024 H 1738.11 2.90594 -2.23497 0
M  V30 18025 H 1737.75 4.95782 -0.849081 0
M  V30 18026 H 1737.45 5.28175 -2.57497 0
M  V30 18027 H 1738.98 5.82855 -1.8197 0
M  V30 18028 H 1740.39 4.44476 -3.62096 0
M  V30 18029 H 1738.79 4.135 -4.34899 0
M  V30 18030 H 1739.86 2.7706 -3.97952 0
M  V30 18031 N 1741.2 1.20323 1.01785 0
M  V30 18032 C 1742.61 1.01326 1.56812 0
M  V30 18033 C 1742.96 -0.430709 1.91414 0
M  V30 18034 O 1742.09 -1.31191 1.72098 0
M  V30 18035 C 1742.68 1.83304 2.8493 0
M  V30 18036 C 1741.24 1.68676 3.3649 0
M  V30 18037 C 1740.39 1.81315 2.0981 0
M  V30 18038 H 1743.34 1.34533 0.841815 0
M  V30 18039 H 1743.36 1.33567 3.56286 0
M  V30 18040 H 1742.87 2.88392 2.59714 0
M  V30 18041 H 1740.97 0.662195 3.66668 0
M  V30 18042 H 1741.09 2.49877 4.08777 0
M  V30 18043 H 1739.45 1.24488 2.22204 0
M  V30 18044 H 1740.23 2.87885 1.87022 0
M  V30 18045 N 1742.68 -1.21073 1.00892 0
M  V30 18046 C 1744.1 -1.42314 0.72242 0
M  V30 18047 C 1744.3 -1.88917 -0.700908 0
M  V30 18048 O 1743.35 -2.05318 -1.46973 0
M  V30 18049 C 1744.66 -2.4513 1.74161 0
M  V30 18050 C 1746.21 -2.58907 1.75887 0
M  V30 18051 C 1746.69 -3.64959 2.76711 0
M  V30 18052 N 1748.18 -3.72434 2.75404 0
M  V30 18053 C 1748.91 -4.54129 3.50077 0
M  V30 18054 N 1748.41 -5.39691 4.34403 0
M  V30 18055 N 1750.2 -4.48589 3.38709 0
M  V30 18056 H 1742.35 -0.891353 1.92792 0
M  V30 18057 H 1744.62 -0.45372 0.832371 0
M  V30 18058 H 1744.32 -2.17868 2.76091 0
M  V30 18059 H 1744.2 -3.43996 1.54746 0
M  V30 18060 H 1746.58 -2.85503 0.746455 0
M  V30 18061 H 1746.66 -1.60261 1.99374 0
M  V30 18062 H 1746.31 -3.39107 3.78112 0
M  V30 18063 H 1746.24 -4.63209 2.50489 0
M  V30 18064 H 1748.73 -3.11311 2.14228 0
M  V30 18065 H 1749.04 -5.99092 4.88168 0
M  V30 18066 H 1747.39 -5.39219 4.38484 0
M  V30 18067 H 1750.58 -3.80778 2.7226 0
M  V30 18068 H 1750.75 -5.12023 3.97161 0
M  V30 18069 N 1744.16 -0.784156 -1.36707 0
M  V30 18070 C 1745.09 -0.193081 -2.327 0
M  V30 18071 C 1746.07 0.668999 -1.56392 0
M  V30 18072 O 1747.25 0.603908 -1.84571 0
M  V30 18073 C 1744.38 0.677092 -3.40636 0
M  V30 18074 C 1743.34 -0.0846718 -4.27916 0
M  V30 18075 C 1742.66 0.905754 -5.26973 0
M  V30 18076 C 1743.96 -1.27085 -5.06603 0
M  V30 18077 H 1745.66 -0.995029 -2.82382 0
M  V30 18078 H 1743.2 -0.479929 -1.35767 0
M  V30 18079 H 1745.16 1.1005 -4.06776 0
M  V30 18080 H 1743.88 1.51169 -2.89509 0
M  V30 18081 H 1742.54 -0.488992 -3.63324 0
M  V30 18082 H 1742.19 1.73524 -4.72121 0
M  V30 18083 H 1741.89 0.400524 -5.86233 0
M  V30 18084 H 1743.41 1.32784 -5.95987 0
M  V30 18085 H 1744.83 -0.923469 -5.65814 0
M  V30 18086 H 1743.22 -1.70901 -5.7525 0
M  V30 18087 H 1744.29 -2.06882 -4.38552 0
M  V30 18088 N 1745.64 1.48215 -0.535727 0
M  V30 18089 C 1746.57 2.3253 0.212562 0
M  V30 18090 C 1747.55 1.42454 0.929568 0
M  V30 18091 O 1748.73 1.71334 0.914228 0
M  V30 18092 C 1745.86 3.23777 1.25641 0
M  V30 18093 C 1744.82 4.22924 0.657191 0
M  V30 18094 C 1744.14 5.03345 1.80411 0
M  V30 18095 C 1745.44 5.20953 -0.374902 0
M  V30 18096 H 1747.14 2.95341 -0.491301 0
M  V30 18097 H 1744.68 1.42024 -0.237718 0
M  V30 18098 H 1746.64 3.81592 1.78789 0
M  V30 18099 H 1745.36 2.58978 1.98993 0
M  V30 18100 H 1744.02 3.66304 0.147184 0
M  V30 18101 H 1743.67 4.34965 2.52615 0
M  V30 18102 H 1743.37 5.70455 1.40906 0
M  V30 18103 H 1744.89 5.64013 2.33926 0
M  V30 18104 H 1746.3 5.73258 0.0697072 0
M  V30 18105 H 1744.7 5.96147 -0.687646 0
M  V30 18106 H 1745.77 4.67739 -1.27861 0
M  V30 18107 N 1747.11 0.27113 1.5525 0
M  V30 18108 C 1748.34 -0.353138 2.04371 0
M  V30 18109 C 1748.76 -1.48978 1.14835 0
M  V30 18110 O 1748.12 -1.8071 0.146138 0
M  V30 18111 C 1748.17 -0.815425 3.51259 0
M  V30 18112 O 1747.27 -1.92302 3.6482 0
M  V30 18113 H 1746.62 -0.0736207 0.659906 0
M  V30 18114 H 1749.15 0.404266 2.00566 0
M  V30 18115 H 1749.16 -1.11224 3.92547 0
M  V30 18116 H 1747.83 0.0162079 4.15897 0
M  V30 18117 H 1746.41 -1.62904 3.35435 0
M  V30 18118 N 1748.59 -1.576 -0.00164943 0
M  V30 18119 C 1749.56 -2.07267 -0.978423 0
M  V30 18120 C 1750.56 -0.981758 -1.27351 0
M  V30 18121 O 1751.75 -1.24446 -1.21896 0
M  V30 18122 C 1748.88 -2.51273 -2.30379 0
M  V30 18123 H 1750.07 -2.94835 -0.548845 0
M  V30 18124 H 1747.62 -1.54302 -0.249086 0
M  V30 18125 H 1748.36 -1.66943 -2.7803 0
M  V30 18126 H 1748.14 -3.30943 -2.10283 0
M  V30 18127 H 1749.63 -2.90031 -3.00453 0
M  V30 18128 N 1750.07 0.274379 -1.55193 0
M  V30 18129 C 1751.03 1.32237 -1.87206 0
M  V30 18130 C 1752.03 1.4242 -0.74654 0
M  V30 18131 O 1753.22 1.41595 -1.01472 0
M  V30 18132 C 1750.36 2.7039 -2.0761 0
M  V30 18133 H 1751.55 1.05083 -2.80887 0
M  V30 18134 H 1749.1 0.512375 -1.47663 0
M  V30 18135 H 1749.84 3.02727 -1.16306 0
M  V30 18136 H 1749.62 2.64385 -2.89556 0
M  V30 18137 H 1751.11 3.46114 -2.33655 0
M  V30 18138 N 1751.55 1.48103 0.538828 0
M  V30 18139 C 1752.79 1.5726 1.3057 0
M  V30 18140 C 1753.15 0.237208 1.90529 0
M  V30 18141 O 1754.35 0.203723 2.68027 0
M  V30 18142 C 1752.62 2.67292 2.37254 0
M  V30 18143 S 1754.18 2.96157 3.23785 0
M  V30 18144 H 1751 0.555112 0.444265 0
M  V30 18145 H 1753.6 1.8558 0.614855 0
M  V30 18146 H 1752.31 3.62892 1.91671 0
M  V30 18147 H 1751.84 2.40846 3.11057 0
M  V30 18148 H 1753.85 2.34777 4.37143 0
M  V30 18149 N 1753.03 -0.787016 1.36542 0
M  V30 18150 C 1754.44 -1.08541 1.17008 0
M  V30 18151 C 1754.64 -2.015 -0.00419378 0
M  V30 18152 O 1753.7 -2.43481 -0.668826 0
M  V30 18153 C 1755.01 -1.69758 2.48199 0
M  V30 18154 C 1756.56 -1.82088 2.54584 0
M  V30 18155 C 1757.03 -2.46719 3.85868 0
M  V30 18156 N 1758.53 -2.54185 3.87227 0
M  V30 18157 C 1759.26 -3.05008 4.85549 0
M  V30 18158 N 1758.76 -3.56121 5.94264 0
M  V30 18159 N 1760.55 -3.03742 4.72966 0
M  V30 18160 H 1752.7 -0.16948 2.11723 0
M  V30 18161 H 1754.96 -0.137802 0.937931 0
M  V30 18162 H 1754.67 -1.08922 3.34408 0
M  V30 18163 H 1754.54 -2.69237 2.6418 0
M  V30 18164 H 1756.93 -2.42061 1.68792 0
M  V30 18165 H 1757.01 -0.814071 2.42501 0
M  V30 18166 H 1756.66 -1.87389 4.72068 0
M  V30 18167 H 1756.59 -3.47975 3.95248 0
M  V30 18168 H 1759.08 -2.17995 3.08685 0
M  V30 18169 H 1759.39 -3.93259 6.65257 0
M  V30 18170 H 1757.73 -3.54266 5.9793 0
M  V30 18171 H 1760.93 -2.63102 3.87163 0
M  V30 18172 H 1761.1 -3.43043 5.49751 0
M  V30 18173 N 1754.5 -1.20861 -1.01145 0
M  V30 18174 C 1755.43 -0.986058 -2.11658 0
M  V30 18175 C 1756.42 0.0867558 -1.69879 0
M  V30 18176 O 1757.6 -0.0717892 -1.94067 0
M  V30 18177 C 1754.73 -0.542938 -3.4303 0
M  V30 18178 C 1753.68 -1.55958 -3.98574 0
M  V30 18179 C 1753.01 -0.972917 -5.25774 0
M  V30 18180 C 1754.31 -2.94471 -4.31375 0
M  V30 18181 H 1756 -1.91035 -2.30534 0
M  V30 18182 H 1753.55 -0.919914 -1.10786 0
M  V30 18183 H 1755.5 -0.374446 -4.19733 0
M  V30 18184 H 1754.23 0.416988 -3.23927 0
M  V30 18185 H 1752.89 -1.71552 -3.23984 0
M  V30 18186 H 1752.53 -0.00490446 -5.03 0
M  V30 18187 H 1752.23 -1.65194 -5.63901 0
M  V30 18188 H 1753.76 -0.815607 -6.05128 0
M  V30 18189 H 1755.17 -2.82358 -4.98946 0
M  V30 18190 H 1753.57 -3.59327 -4.80629 0
M  V30 18191 H 1754.64 -3.45804 -3.39923 0
M  V30 18192 N 1755.98 1.20536 -1.01532 0
M  V30 18193 C 1756.91 2.22683 -0.542658 0
M  V30 18194 C 1757.93 1.5844 0.374267 0
M  V30 18195 O 1759.12 1.77661 0.172818 0
M  V30 18196 C 1756.22 3.38117 0.230168 0
M  V30 18197 C 1755.39 4.3195 -0.688356 0
M  V30 18198 C 1754.45 5.26187 0.0366686 0
M  V30 18199 O 1753.47 5.66182 -0.585418 0
M  V30 18200 N 1754.68 5.65481 1.31193 0
M  V30 18201 H 1757.44 2.63864 -1.42111 0
M  V30 18202 H 1755 1.35065 -0.892703 0
M  V30 18203 H 1756.99 3.98164 0.724408 0
M  V30 18204 H 1755.56 2.95837 1.00991 0
M  V30 18205 H 1754.78 3.69889 -1.36292 0
M  V30 18206 H 1756.07 4.91564 -1.3131 0
M  V30 18207 H 1755.47 5.34998 1.83829 0
M  V30 18208 H 1754.03 6.27842 1.75092 0
M  V30 18209 N 1757.46 0.791395 1.36289 0
M  V30 18210 C 1758.39 0.205419 2.32595 0
M  V30 18211 C 1759.37 -0.660696 1.56744 0
M  V30 18212 O 1760.56 -0.594111 1.84889 0
M  V30 18213 C 1757.69 -0.659018 3.4099 0
M  V30 18214 C 1756.64 0.107364 4.27865 0
M  V30 18215 C 1755.97 -0.877795 5.27446 0
M  V30 18216 C 1757.27 1.29769 5.05922 0
M  V30 18217 H 1758.96 1.00999 2.8185 0
M  V30 18218 H 1756.51 0.487122 1.35511 0
M  V30 18219 H 1758.46 -1.07891 4.07354 0
M  V30 18220 H 1757.18 -1.49632 2.90307 0
M  V30 18221 H 1755.84 0.508253 3.6306 0
M  V30 18222 H 1755.49 -1.71018 4.73035 0
M  V30 18223 H 1755.19 -0.369429 5.86438 0
M  V30 18224 H 1756.71 -1.29621 5.96683 0
M  V30 18225 H 1758.13 0.953463 5.65316 0
M  V30 18226 H 1756.53 1.73949 5.74336 0
M  V30 18227 H 1757.6 2.09205 4.37449 0
M  V30 18228 N 1758.94 -1.47929 0.54358 0
M  V30 18229 C 1759.89 -2.3151 -0.224935 0
M  V30 18230 C 1760.88 -1.4208 -0.922473 0
M  V30 18231 O 1762.09 -1.58917 -0.845309 0
M  V30 18232 H 1758.46 -0.746424 -0.0914091 0
M  V30 18233 H 1760.43 -2.94192 0.499381 0
M  V30 18234 C 1759.18 -3.24439 -1.25038 0
M  V30 18235 H 1758.51 -3.93207 -0.723059 0
M  V30 18236 H 1759.95 -3.8578 -1.75927 0
M  V30 18237 C 1758.4 -2.46998 -2.29115 0
M  V30 18238 O 1758.93 -2.20457 -3.358 0
M  V30 18239 N 1757.14 -2.08249 -2.02684 0
M  V30 18240 H 1756.69 -2.30034 -1.15941 0
M  V30 18241 H 1756.65 -1.56748 -2.72539 0
M  V30 18242 N 1760.42 -0.27936 -1.55104 0
M  V30 18243 C 1761.67 0.335541 -1.99295 0
M  V30 18244 C 1761.99 1.56059 -1.16921 0
M  V30 18245 O 1761.26 1.9417 -0.259773 0
M  V30 18246 H 1759.84 0.126968 -0.736131 0
M  V30 18247 H 1762.5 -0.385679 -1.91046 0
M  V30 18248 H 1761.59 0.622493 -3.05829 0
M  V30 18249 N 1761.9 1.57599 -0.0067085 0
M  V30 18250 C 1762.84 2.09973 1.00071 0
M  V30 18251 C 1763.84 1.02121 1.35158 0
M  V30 18252 O 1765.04 1.20579 1.33644 0
M  V30 18253 H 1761.42 0.670547 0.340398 0
M  V30 18254 H 1763.39 2.93593 0.533471 0
M  V30 18255 C 1762.14 2.62376 2.28153 0
M  V30 18256 H 1761.46 3.45002 2.02024 0
M  V30 18257 H 1762.9 3.02694 2.96905 0
M  V30 18258 C 1761.36 1.54093 2.99595 0
M  V30 18259 O 1761.89 0.927722 3.9084 0
M  V30 18260 N 1760.1 1.26676 2.61537 0
M  V30 18261 H 1759.64 1.76728 1.87417 0
M  V30 18262 H 1759.6 0.544464 3.0965 0
M  V30 18263 N 1763.37 -0.266145 1.55336 0
M  V30 18264 C 1764.3 -1.33322 1.91697 0
M  V30 18265 C 1765.28 -1.51182 0.77961 0
M  V30 18266 O 1766.47 -1.64112 1.03832 0
M  V30 18267 C 1763.6 -2.69151 2.19488 0
M  V30 18268 C 1762.55 -2.66012 3.35293 0
M  V30 18269 C 1761.88 -4.05458 3.4858 0
M  V30 18270 C 1763.18 -2.24681 4.71504 0
M  V30 18271 H 1764.87 -1.03138 2.81075 0
M  V30 18272 H 1762.42 -0.494702 1.35236 0
M  V30 18273 H 1764.37 -3.43918 2.43512 0
M  V30 18274 H 1763.1 -3.00932 1.26916 0
M  V30 18275 H 1761.76 -1.93703 3.11247 0
M  V30 18276 H 1761.4 -4.34472 2.53462 0
M  V30 18277 H 1761.1 -4.04251 4.26445 0
M  V30 18278 H 1762.63 -4.81954 3.74904 0
M  V30 18279 H 1764.04 -2.89173 4.95027 0
M  V30 18280 H 1762.44 -2.34622 5.52334 0
M  V30 18281 H 1763.51 -1.19819 4.69863 0
M  V30 18282 N 1764.85 -1.48386 -0.530967 0
M  V30 18283 C 1765.78 -1.58922 -1.65156 0
M  V30 18284 C 1766.8 -0.473583 -1.5576 0
M  V30 18285 O 1767.99 -0.744383 -1.62238 0
M  V30 18286 C 1765.09 -1.50201 -3.03798 0
M  V30 18287 C 1764.26 -2.76787 -3.38685 0
M  V30 18288 C 1763.32 -2.61534 -4.56603 0
M  V30 18289 O 1762.34 -3.35417 -4.59874 0
M  V30 18290 N 1763.55 -1.71087 -5.54716 0
M  V30 18291 H 1766.31 -2.55559 -1.56555 0
M  V30 18292 H 1763.87 -1.45097 -0.718216 0
M  V30 18293 H 1765.86 -1.37693 -3.80556 0
M  V30 18294 H 1764.43 -0.615419 -3.06482 0
M  V30 18295 H 1763.65 -3.03867 -2.51115 0
M  V30 18296 H 1764.94 -3.6077 -3.58779 0
M  V30 18297 H 1764.34 -1.10261 -5.54851 0
M  V30 18298 H 1762.9 -1.64518 -6.30696 0
M  V30 18299 N 1766.33 0.779763 -1.36958 0
M  V30 18300 C 1767.26 1.90687 -1.34762 0
M  V30 18301 C 1768.24 1.68704 -0.217508 0
M  V30 18302 O 1769.43 1.89678 -0.416639 0
M  V30 18303 C 1766.56 3.27854 -1.14582 0
M  V30 18304 C 1765.51 3.64383 -2.2452 0
M  V30 18305 C 1764.84 5.00004 -1.89473 0
M  V30 18306 C 1766.14 3.71963 -3.66662 0
M  V30 18307 H 1767.83 1.92781 -2.29076 0
M  V30 18308 H 1765.38 0.926102 -1.10269 0
M  V30 18309 H 1767.33 4.06332 -1.11678 0
M  V30 18310 H 1766.05 3.26172 -0.167218 0
M  V30 18311 H 1764.71 2.88207 -2.26566 0
M  V30 18312 H 1764.36 4.94853 -0.901617 0
M  V30 18313 H 1764.06 5.25414 -2.63085 0
M  V30 18314 H 1765.58 5.80892 -1.88141 0
M  V30 18315 H 1767 4.40611 -3.6679 0
M  V30 18316 H 1765.39 4.08864 -4.39261 0
M  V30 18317 H 1766.46 2.72824 -4.00868 0
M  V30 18318 N 1767.81 1.21396 1.00503 0
M  V30 18319 C 1768.72 0.989221 2.12724 0
M  V30 18320 C 1769.73 -0.0586646 1.73901 0
M  V30 18321 O 1770.91 0.131377 2.00971 0
M  V30 18322 C 1767.97 0.556731 3.42201 0
M  V30 18323 C 1767.04 1.67683 3.95197 0
M  V30 18324 C 1766.27 1.26488 5.18494 0
M  V30 18325 O 1766.49 0.13847 5.70232 0
M  V30 18326 O 1765.43 2.07678 5.64937 0
M  V30 18327 H 1769.25 1.92913 2.3456 0
M  V30 18328 H 1766.84 0.998837 1.11102 0
M  V30 18329 H 1768.72 0.325327 4.20142 0
M  V30 18330 H 1767.39 -0.354457 3.21753 0
M  V30 18331 H 1766.3 1.96263 3.18483 0
M  V30 18332 H 1767.63 2.56544 4.20055 0
M  V30 18333 N 1769.29 -1.19996 1.0217 0
M  V30 18334 C 1770.22 -2.25206 0.616818 0
M  V30 18335 C 1771.2 -1.66013 -0.370653 0
M  V30 18336 O 1772.38 -1.92519 -0.254956 0
M  V30 18337 C 1769.51 -3.47276 -0.0405129 0
M  V30 18338 C 1768.47 -4.19096 0.868479 0
M  V30 18339 C 1767.79 -5.34645 0.0766447 0
M  V30 18340 C 1769.09 -4.7468 2.1789 0
M  V30 18341 H 1770.79 -2.59328 1.49632 0
M  V30 18342 H 1768.33 -1.24655 0.720917 0
M  V30 18343 H 1770.28 -4.20063 -0.335355 0
M  V30 18344 H 1769.01 -3.12333 -0.954759 0
M  V30 18345 H 1767.67 -3.48181 1.1474 0
M  V30 18346 H 1767.32 -4.95946 -0.839411 0
M  V30 18347 H 1767.02 -5.83628 0.682041 0
M  V30 18348 H 1768.54 -6.10233 -0.211624 0
M  V30 18349 H 1769.95 -5.39259 1.94608 0
M  V30 18350 H 1768.35 -5.34121 2.7356 0
M  V30 18351 H 1769.42 -3.93141 2.83845 0
M  V30 18352 N 1770.76 -0.798611 -1.35867 0
M  V30 18353 C 1771.73 -0.209177 -2.28243 0
M  V30 18354 C 1772.73 0.598842 -1.49233 0
M  V30 18355 O 1773.92 0.418491 -1.69098 0
M  V30 18356 C 1771.05 0.709336 -3.33438 0
M  V30 18357 H 1772.24 -1.02382 -2.81883 0
M  V30 18358 H 1769.79 -0.568687 -1.45587 0
M  V30 18359 H 1770.53 1.54797 -2.84971 0
M  V30 18360 H 1770.31 0.131756 -3.91879 0
M  V30 18361 H 1771.8 1.11632 -4.02403 0
M  V30 18362 N 1772.24 1.47639 -0.551417 0
M  V30 18363 C 1773.17 2.27972 0.236919 0
M  V30 18364 C 1774.19 1.3666 0.884752 0
M  V30 18365 O 1775.38 1.61532 0.75958 0
M  V30 18366 C 1772.48 3.10738 1.3526 0
M  V30 18367 C 1771.65 4.29972 0.802659 0
M  V30 18368 C 1770.71 4.94379 1.80212 0
M  V30 18369 O 1769.73 5.52946 1.35053 0
M  V30 18370 N 1770.94 4.8855 3.13526 0
M  V30 18371 H 1773.7 2.9627 -0.452154 0
M  V30 18372 H 1771.26 1.57204 -0.387116 0
M  V30 18373 H 1773.25 3.50692 2.01983 0
M  V30 18374 H 1771.82 2.44721 1.945 0
M  V30 18375 H 1771.04 3.94178 -0.0411825 0
M  V30 18376 H 1772.33 5.07109 0.41448 0
M  V30 18377 H 1771.73 4.42157 3.52865 0
M  V30 18378 H 1770.29 5.32541 3.75823 0
M  V30 18379 N 1773.72 0.287581 1.54954 0
M  V30 18380 C 1774.97 -0.326093 2.00161 0
M  V30 18381 C 1775.3 -1.54564 1.17574 0
M  V30 18382 O 1774.57 -1.92901 0.248859 0
M  V30 18383 C 1774.86 -0.695974 3.5331 0
M  V30 18384 C 1774.71 0.531783 4.46645 0
M  V30 18385 C 1776.03 -1.52767 4.12735 0
M  V30 18386 H 1773.15 -0.117051 0.727646 0
M  V30 18387 H 1775.79 0.39701 1.85806 0
M  V30 18388 H 1773.94 -1.31205 3.65674 0
M  V30 18389 H 1775.61 1.17032 4.46208 0
M  V30 18390 H 1773.86 1.16754 4.17793 0
M  V30 18391 H 1774.53 0.229034 5.51525 0
M  V30 18392 H 1777 -1.00724 4.03725 0
M  V30 18393 H 1775.88 -1.75527 5.20078 0
M  V30 18394 H 1776.14 -2.51267 3.63755 0
M  V30 18395 N 1775.2 -1.57593 0.0150662 0
M  V30 18396 C 1776.13 -2.12395 -0.970081 0
M  V30 18397 C 1777.11 -1.03666 -1.34861 0
M  V30 18398 O 1778.29 -1.31427 -1.4297 0
M  V30 18399 C 1775.42 -2.63958 -2.25707 0
M  V30 18400 C 1774.38 -3.77348 -2.01971 0
M  V30 18401 C 1773.7 -4.15284 -3.36814 0
M  V30 18402 C 1775 -5.04008 -1.37017 0
M  V30 18403 H 1776.7 -2.9496 -0.513731 0
M  V30 18404 H 1774.24 -1.41889 -0.245666 0
M  V30 18405 H 1776.2 -3.00927 -2.94993 0
M  V30 18406 H 1774.92 -1.78535 -2.73483 0
M  V30 18407 H 1773.58 -3.40795 -1.35107 0
M  V30 18408 H 1773.23 -3.26863 -3.82321 0
M  V30 18409 H 1772.93 -4.91686 -3.21744 0
M  V30 18410 H 1774.45 -4.54824 -4.07391 0
M  V30 18411 H 1775.87 -5.38652 -1.96282 0
M  V30 18412 H 1774.26 -5.85315 -1.32388 0
M  V30 18413 H 1775.33 -4.83698 -0.341281 0
M  V30 18414 N 1776.68 0.257904 -1.55475 0
M  V30 18415 C 1777.64 1.30244 -1.88598 0
M  V30 18416 C 1778.64 1.4162 -0.761604 0
M  V30 18417 O 1779.83 1.4051 -1.02968 0
M  V30 18418 C 1776.96 2.68173 -2.10466 0
M  V30 18419 H 1778.15 1.02098 -2.81986 0
M  V30 18420 H 1775.71 0.496685 -1.48198 0
M  V30 18421 H 1776.44 3.01476 -1.1951 0
M  V30 18422 H 1776.23 2.61299 -2.92344 0
M  V30 18423 H 1777.72 3.43616 -2.37313 0
M  V30 18424 N 1778.15 1.48666 0.52309 0
M  V30 18425 C 1779.09 1.59796 1.64311 0
M  V30 18426 C 1780.1 0.481836 1.55506 0
M  V30 18427 O 1781.29 0.752977 1.61841 0
M  V30 18428 C 1778.39 1.5181 3.02997 0
M  V30 18429 C 1777.56 2.7858 3.37212 0
M  V30 18430 C 1776.62 2.63952 4.5521 0
M  V30 18431 O 1775.65 3.37851 4.58088 0
M  V30 18432 N 1776.85 1.74026 5.53801 0
M  V30 18433 H 1779.61 2.56386 1.55197 0
M  V30 18434 H 1777.17 1.45476 0.710511 0
M  V30 18435 H 1779.17 1.39709 3.7982 0
M  V30 18436 H 1777.74 0.631664 3.06152 0
M  V30 18437 H 1776.96 3.05194 2.495 0
M  V30 18438 H 1778.24 3.62668 3.56861 0
M  V30 18439 H 1777.64 1.13202 5.54258 0
M  V30 18440 H 1776.2 1.6786 6.29814 0
M  V30 18441 N 1779.63 -0.772489 1.37369 0
M  V30 18442 C 1780.54 -1.91679 1.35263 0
M  V30 18443 C 1781.56 -1.72161 0.252321 0
M  V30 18444 O 1782.73 -1.95409 0.487581 0
M  V30 18445 C 1779.8 -3.26792 1.15792 0
M  V30 18446 C 1778.86 -3.5897 2.35455 0
M  V30 18447 C 1778.09 -4.87636 2.16903 0
M  V30 18448 O 1778.32 -5.58627 1.15291 0
M  V30 18449 O 1777.25 -5.18859 3.05072 0
M  V30 18450 H 1781.08 -1.96408 2.31641 0
M  V30 18451 H 1778.66 -0.915136 1.18092 0
M  V30 18452 H 1780.54 -4.07611 1.06918 0
M  V30 18453 H 1779.22 -3.22918 0.224872 0
M  V30 18454 H 1778.13 -2.78389 2.49901 0
M  V30 18455 H 1779.46 -3.67586 3.27325 0
M  V30 18456 N 1781.11 -1.21927 -0.998575 0
M  V30 18457 C 1782.53 -0.978007 -1.26124 0
M  V30 18458 C 1782.73 0.3318 -1.98749 0
M  V30 18459 O 1781.78 1.05585 -2.29364 0
M  V30 18460 C 1783.1 -2.17291 -2.07858 0
M  V30 18461 C 1784.64 -2.21586 -2.21062 0
M  V30 18462 C 1785.12 -3.40613 -3.06181 0
M  V30 18463 N 1786.61 -3.40739 -3.13769 0
M  V30 18464 C 1787.34 -4.29488 -3.79905 0
M  V30 18465 N 1786.84 -5.28445 -4.48015 0
M  V30 18466 N 1788.63 -4.17279 -3.76609 0
M  V30 18467 H 1780.78 -2.06149 -0.51151 0
M  V30 18468 H 1783.05 -0.903039 -0.288487 0
M  V30 18469 H 1782.75 -3.12246 -1.61851 0
M  V30 18470 H 1782.63 -2.16883 -3.08612 0
M  V30 18471 H 1785.01 -1.27183 -2.66286 0
M  V30 18472 H 1785.1 -2.26035 -1.19757 0
M  V30 18473 H 1784.74 -4.35313 -2.61659 0
M  V30 18474 H 1784.67 -3.33403 -4.07615 0
M  V30 18475 H 1787.16 -2.69128 -2.65289 0
M  V30 18476 H 1787.47 -5.92454 -4.96203 0
M  V30 18477 H 1785.82 -5.32364 -4.46782 0
M  V30 18478 H 1789.01 -3.39226 -3.22557 0
M  V30 18479 H 1789.18 -4.86651 -4.27873 0
M  V30 18480 N 1782.59 1.19452 -1.02805 0
M  V30 18481 C 1784 1.70804 -0.753845 0
M  V30 18482 C 1784.35 1.8225 0.726584 0
M  V30 18483 O 1783.48 1.49307 1.56641 0
M  V30 18484 C 1784.07 3.10227 -1.36178 0
M  V30 18485 C 1782.63 3.58842 -1.13618 0
M  V30 18486 C 1781.78 2.3573 -1.46036 0
M  V30 18487 H 1784.73 1.04305 -1.19608 0
M  V30 18488 H 1784.75 3.72867 -0.758315 0
M  V30 18489 H 1784.26 3.01864 -2.43925 0
M  V30 18490 H 1782.36 3.72521 -0.0768914 0
M  V30 18491 H 1782.47 4.43008 -1.82431 0
M  V30 18492 H 1780.84 2.39027 -0.879669 0
M  V30 18493 H 1781.62 2.29998 -2.54864 0
M  V30 18494 N 1784.07 0.805805 1.35442 0
M  V30 18495 C 1785.01 0.213632 2.29809 0
M  V30 18496 C 1785.98 -0.651878 1.52774 0
M  V30 18497 O 1787.17 -0.597124 1.81216 0
M  V30 18498 C 1784.31 -0.632444 3.39255 0
M  V30 18499 C 1783.42 0.253414 4.31256 0
M  V30 18500 C 1782.56 -0.600593 5.27794 0
M  V30 18501 C 1781.6 0.285712 6.11433 0
M  V30 18502 N 1780.73 -0.528222 7.0011 0
M  V30 18503 H 1785.57 1.02378 2.79862 0
M  V30 18504 H 1783.11 0.516397 1.37738 0
M  V30 18505 H 1785.07 -1.13814 4.01376 0
M  V30 18506 H 1783.7 -1.40786 2.90481 0
M  V30 18507 H 1782.75 0.877202 3.70148 0
M  V30 18508 H 1784.06 0.935631 4.89946 0
M  V30 18509 H 1783.22 -1.17145 5.95283 0
M  V30 18510 H 1781.95 -1.31638 4.69598 0
M  V30 18511 H 1780.96 0.868843 5.42891 0
M  V30 18512 H 1782.18 0.999349 6.71707 0
M  V30 18513 H 1780.13 -1.228 6.44404 0
M  V30 18514 H 1780.05 0.0959658 7.55939 0
M  V30 18515 H 1781.32 -1.08238 7.71949 0
M  V30 18516 N 1785.54 -1.47344 0.559239 0
M  V30 18517 C 1786.47 -2.32839 -0.175542 0
M  V30 18518 C 1787.46 -1.43914 -0.906787 0
M  V30 18519 O 1788.64 -1.72767 -0.886855 0
M  V30 18520 C 1785.77 -3.25735 -1.20474 0
M  V30 18521 C 1784.72 -4.23916 -0.589825 0
M  V30 18522 C 1784.05 -5.06151 -1.7238 0
M  V30 18523 C 1785.35 -5.2029 0.457733 0
M  V30 18524 H 1787.04 -2.94522 0.538225 0
M  V30 18525 H 1784.59 -1.41628 0.260282 0
M  V30 18526 H 1786.54 -3.84388 -1.72695 0
M  V30 18527 H 1785.27 -2.62111 -1.94847 0
M  V30 18528 H 1783.93 -3.66492 -0.0888897 0
M  V30 18529 H 1783.57 -4.38929 -2.45663 0
M  V30 18530 H 1783.27 -5.72625 -1.31813 0
M  V30 18531 H 1784.8 -5.67663 -2.24923 0
M  V30 18532 H 1786.21 -5.73296 0.0215019 0
M  V30 18533 H 1784.61 -5.94978 0.7824 0
M  V30 18534 H 1785.68 -4.65645 1.35286 0
M  V30 18535 N 1787.02 -0.295795 -1.54799 0
M  V30 18536 C 1788.43 0.19789 -1.85648 0
M  V30 18537 C 1788.78 1.53834 -1.21776 0
M  V30 18538 O 1787.91 2.10218 -0.513554 0
M  V30 18539 C 1788.5 0.365844 -3.36819 0
M  V30 18540 C 1787.06 0.80375 -3.67718 0
M  V30 18541 C 1786.21 -0.0909572 -2.77151 0
M  V30 18542 H 1789.16 -0.516968 -1.50044 0
M  V30 18543 H 1789.18 1.20123 -3.61041 0
M  V30 18544 H 1788.69 -0.60991 -3.83278 0
M  V30 18545 H 1786.8 1.79024 -3.26774 0
M  V30 18546 H 1786.91 0.626745 -4.74983 0
M  V30 18547 H 1785.27 0.428882 -2.51063 0
M  V30 18548 H 1786.06 -1.06297 -3.26429 0
M  V30 18549 N 1788.5 1.57583 -0.0234236 0
M  V30 18550 C 1789.41 2.13328 0.976138 0
M  V30 18551 C 1790.43 1.08414 1.36097 0
M  V30 18552 O 1791.6 1.40441 1.44354 0
M  V30 18553 C 1788.67 2.64469 2.24181 0
M  V30 18554 C 1787.73 3.84076 1.91793 0
M  V30 18555 C 1786.96 4.32768 3.12326 0
M  V30 18556 O 1787.19 3.80663 4.24797 0
M  V30 18557 O 1786.12 5.24676 2.94956 0
M  V30 18558 H 1789.95 2.99001 0.532166 0
M  V30 18559 H 1787.53 1.48098 0.196838 0
M  V30 18560 H 1789.41 2.97456 2.98492 0
M  V30 18561 H 1788.09 1.81881 2.6777 0
M  V30 18562 H 1786.99 3.56023 1.14883 0
M  V30 18563 H 1788.33 4.67808 1.53024 0
M  V30 18564 N 1789.98 -0.249655 1.5561 0
M  V30 18565 C 1791.26 -1.00075 1.68061 0
M  V30 18566 C 1791.64 -2.03468 0.562492 0
M  V30 18567 O 1790.98 -2.24332 -0.434424 0
M  V30 18568 C 1791.19 -1.63657 3.08249 0
M  V30 18569 C 1792.54 -2.13946 3.66759 0
M  V30 18570 O 1793.57 -1.73603 3.11031 0
M  V30 18571 O 1792.43 -2.88012 4.64447 0
M  V30 18572 H 1789.52 -0.465648 0.683448 0
M  V30 18573 H 1792.07 -0.243659 1.67942 0
M  V30 18574 H 1790.84 -0.888572 3.81078 0
M  V30 18575 H 1790.46 -2.45993 3.12367 0
M  V30 18576 N 1791.46 -1.48941 -0.515198 0
M  V30 18577 C 1792.87 -1.51076 -1.09695 0
M  V30 18578 C 1793.22 -0.288875 -1.94062 0
M  V30 18579 O 1792.34 0.602665 -2.07839 0
M  V30 18580 C 1792.94 -2.73755 -1.99609 0
M  V30 18581 C 1791.5 -2.78714 -2.52974 0
M  V30 18582 C 1790.65 -2.44798 -1.30266 0
M  V30 18583 H 1793.6 -1.55843 -0.299757 0
M  V30 18584 H 1793.62 -2.53112 -2.84103 0
M  V30 18585 H 1793.13 -3.62668 -1.38178 0
M  V30 18586 H 1791.23 -1.94045 -3.18084 0
M  V30 18587 H 1791.34 -3.80525 -2.91097 0
M  V30 18588 H 1789.71 -1.9627 -1.62327 0
M  V30 18589 H 1790.49 -3.35969 -0.705648 0
M  V30 18590 N 1792.94 0.765193 -1.37777 0
M  V30 18591 C 1793.87 1.89247 -1.36777 0
M  V30 18592 C 1794.85 1.68463 -0.235389 0
M  V30 18593 O 1796.03 1.89225 -0.436733 0
M  V30 18594 C 1793.16 3.2662 -1.18053 0
M  V30 18595 C 1792.12 3.61981 -2.28372 0
M  V30 18596 C 1791.44 4.97967 -1.94765 0
M  V30 18597 C 1792.74 3.68053 -3.70587 0
M  V30 18598 H 1794.44 1.90341 -2.31108 0
M  V30 18599 H 1791.98 0.914355 -1.11245 0
M  V30 18600 H 1793.93 4.05125 -1.15982 0
M  V30 18601 H 1792.66 3.25976 -0.201803 0
M  V30 18602 H 1791.32 2.85788 -2.2961 0
M  V30 18603 H 1790.97 4.93869 -0.954052 0
M  V30 18604 H 1790.67 5.22594 -2.68642 0
M  V30 18605 H 1792.19 5.78864 -1.94292 0
M  V30 18606 H 1793.6 4.36696 -3.71443 0
M  V30 18607 H 1792 4.04183 -4.43572 0
M  V30 18608 H 1793.07 2.68556 -4.03739 0
M  V30 18609 N 1794.41 1.22455 0.992094 0
M  V30 18610 C 1795.34 1.01961 2.10063 0
M  V30 18611 C 1796.32 -0.0597186 1.69995 0
M  V30 18612 O 1797.51 0.102655 1.93928 0
M  V30 18613 C 1794.64 0.597442 3.42123 0
M  V30 18614 C 1793.59 1.62279 3.96042 0
M  V30 18615 C 1792.92 1.05644 5.2416 0
M  V30 18616 C 1794.22 3.01296 4.26635 0
M  V30 18617 H 1795.91 1.94678 2.27466 0
M  V30 18618 H 1793.46 0.937422 1.09309 0
M  V30 18619 H 1795.41 0.441175 4.19084 0
M  V30 18620 H 1794.14 -0.365401 3.24549 0
M  V30 18621 H 1792.8 1.76685 3.21213 0
M  V30 18622 H 1792.44 0.0849267 5.02928 0
M  V30 18623 H 1792.14 1.74144 5.61202 0
M  V30 18624 H 1793.67 0.911774 6.03754 0
M  V30 18625 H 1795.08 2.9026 4.94391 0
M  V30 18626 H 1793.48 3.66928 4.74852 0
M  V30 18627 H 1794.55 3.51168 3.34378 0
M  V30 18628 N 1795.89 -1.18905 1.03437 0
M  V30 18629 C 1797.12 -1.93219 0.753743 0
M  V30 18630 C 1797.54 -1.75299 -0.682055 0
M  V30 18631 O 1796.9 -1.05892 -1.47161 0
M  V30 18632 C 1796.95 -3.42864 1.117 0
M  V30 18633 O 1796.05 -4.11708 0.238816 0
M  V30 18634 H 1795.39 -0.603015 0.277973 0
M  V30 18635 H 1797.92 -1.50823 1.38252 0
M  V30 18636 H 1797.93 -3.9355 1.07623 0
M  V30 18637 H 1796.61 -3.55228 2.163 0
M  V30 18638 H 1795.18 -3.71359 0.338652 0
M  V30 18639 N 1797.37 -0.812977 -1.35013 0
M  V30 18640 C 1798.62 -0.395562 -1.98191 0
M  V30 18641 C 1798.94 1.04242 -1.64799 0
M  V30 18642 O 1798.21 1.72219 -0.933678 0
M  V30 18643 H 1796.79 -0.143276 -0.733131 0
M  V30 18644 H 1799.45 -1.04023 -1.64819 0
M  V30 18645 H 1798.55 -0.506466 -3.07963 0
M  V30 18646 N 1798.85 1.47045 -0.567045 0
M  V30 18647 C 1799.78 2.32929 0.163191 0
M  V30 18648 C 1800.76 1.44393 0.899142 0
M  V30 18649 O 1801.94 1.73235 0.87768 0
M  V30 18650 C 1799.07 3.26369 1.18745 0
M  V30 18651 C 1798.03 4.24223 0.567335 0
M  V30 18652 C 1797.35 5.07058 1.69693 0
M  V30 18653 C 1798.65 5.2004 -0.485319 0
M  V30 18654 H 1800.35 2.94233 -0.553837 0
M  V30 18655 H 1797.89 1.41488 -0.267789 0
M  V30 18656 H 1799.85 3.85299 1.70654 0
M  V30 18657 H 1798.57 2.6314 1.93455 0
M  V30 18658 H 1797.23 3.66534 0.0694525 0
M  V30 18659 H 1796.88 4.40226 2.43331 0
M  V30 18660 H 1796.58 5.73316 1.28774 0
M  V30 18661 H 1798.1 5.68848 2.2191 0
M  V30 18662 H 1799.52 5.73277 -0.0519049 0
M  V30 18663 H 1797.91 5.94554 -0.813942 0
M  V30 18664 H 1798.98 4.64921 -1.37754 0
M  V30 18665 N 1800.33 0.304 1.5464 0
M  V30 18666 C 1801.26 -0.563854 2.2659 0
M  V30 18667 C 1802.24 -1.13547 1.26653 0
M  V30 18668 O 1803.42 -1.16425 1.55431 0
M  V30 18669 C 1800.55 -1.73437 3.00894 0
M  V30 18670 C 1799.51 -1.29297 4.08003 0
M  V30 18671 C 1798.83 -2.54888 4.70038 0
M  V30 18672 C 1800.13 -0.422027 5.20592 0
M  V30 18673 H 1801.83 0.0362569 2.99378 0
M  V30 18674 H 1799.37 0.0188781 1.43988 0
M  V30 18675 H 1801.32 -2.34762 3.4995 0
M  V30 18676 H 1800.05 -2.36076 2.25689 0
M  V30 18677 H 1798.71 -0.702757 3.59801 0
M  V30 18678 H 1798.36 -3.15848 3.9147 0
M  V30 18679 H 1798.06 -2.26054 5.42378 0
M  V30 18680 H 1799.58 -3.17011 5.21859 0
M  V30 18681 H 1800.99 -0.941036 5.65524 0
M  V30 18682 H 1799.39 -0.227323 5.99669 0
M  V30 18683 H 1800.46 0.55212 4.81746 0
M  V30 18684 N 1801.8 -1.57568 0.0317802 0
M  V30 18685 C 1803.08 -1.8321 -0.685081 0
M  V30 18686 C 1803.46 -0.91624 -1.9018 0
M  V30 18687 O 1802.81 0.0275043 -2.28483 0
M  V30 18688 C 1803.02 -3.32488 -1.06078 0
M  V30 18689 C 1804.37 -3.99027 -1.45129 0
M  V30 18690 O 1805.39 -3.36999 -1.15368 0
M  V30 18691 O 1804.25 -5.08355 -2.00592 0
M  V30 18692 H 1801.34 -0.755517 -0.336337 0
M  V30 18693 H 1803.89 -1.69595 0.0596652 0
M  V30 18694 H 1802.66 -3.90814 -0.194918 0
M  V30 18695 H 1802.28 -3.5122 -1.8636 0
M  V30 18696 N 1803.28 0.241399 -1.5574 0
M  V30 18697 C 1804.51 0.99028 -1.82231 0
M  V30 18698 C 1804.93 1.77949 -0.609559 0
M  V30 18699 O 1804.29 1.75843 0.44148 0
M  V30 18700 C 1804.34 1.89947 -3.06516 0
M  V30 18701 O 1803.44 2.99201 -2.83818 0
M  V30 18702 H 1802.78 0.281488 -0.601382 0
M  V30 18703 H 1805.31 0.260721 -2.02932 0
M  V30 18704 H 1805.32 2.31308 -3.36096 0
M  V30 18705 H 1804 1.31924 -3.94422 0
M  V30 18706 H 1802.58 2.61929 -2.6542 0
M  V30 18707 N 1804.76 1.49212 0.507292 0
M  V30 18708 C 1806.17 1.51655 1.08892 0
M  V30 18709 C 1806.52 0.299163 1.93906 0
M  V30 18710 O 1805.65 -0.591635 2.08155 0
M  V30 18711 C 1806.24 2.7481 1.98154 0
M  V30 18712 C 1804.8 2.80051 2.51492 0
M  V30 18713 C 1803.95 2.45486 1.28966 0
M  V30 18714 H 1806.9 1.56 0.291488 0
M  V30 18715 H 1806.92 2.54615 2.82757 0
M  V30 18716 H 1806.43 3.63396 1.36253 0
M  V30 18717 H 1804.53 1.95729 3.1705 0
M  V30 18718 H 1804.65 3.82064 2.89075 0
M  V30 18719 H 1803.01 1.97128 1.61284 0
M  V30 18720 H 1803.79 3.36339 0.687821 0
M  V30 18721 N 1806.24 -0.757876 1.38181 0
M  V30 18722 C 1807.2 -1.85317 1.34871 0
M  V30 18723 C 1808.2 -1.58844 0.250041 0
M  V30 18724 O 1809.39 -1.66668 0.506688 0
M  V30 18725 C 1806.52 -3.22712 1.09864 0
M  V30 18726 H 1807.72 -1.89661 2.32312 0
M  V30 18727 H 1805.27 -0.959122 1.23412 0
M  V30 18728 H 1806 -3.24039 0.130112 0
M  V30 18729 H 1805.79 -3.4332 1.89403 0
M  V30 18730 H 1807.28 -4.02789 1.10232 0
M  V30 18731 N 1807.72 -1.22979 -0.985586 0
M  V30 18732 C 1808.65 -1.03073 -2.09519 0
M  V30 18733 C 1809.63 0.0507025 -1.70024 0
M  V30 18734 O 1810.81 -0.112938 -1.93871 0
M  V30 18735 C 1807.94 -0.615578 -3.41801 0
M  V30 18736 C 1806.9 -1.64377 -3.95176 0
M  V30 18737 C 1806.22 -1.08422 -5.23592 0
M  V30 18738 C 1807.52 -3.03555 -4.25032 0
M  V30 18739 H 1809.22 -1.95882 -2.2643 0
M  V30 18740 H 1806.76 -0.943206 -1.0881 0
M  V30 18741 H 1808.72 -0.463394 -4.18844 0
M  V30 18742 H 1807.44 0.348185 -3.24739 0
M  V30 18743 H 1806.1 -1.78386 -3.20272 0
M  V30 18744 H 1805.75 -0.111597 -5.02876 0
M  V30 18745 H 1805.45 -1.77118 -5.6027 0
M  V30 18746 H 1806.97 -0.94378 -6.03262 0
M  V30 18747 H 1808.38 -2.92878 -4.92844 0
M  V30 18748 H 1806.78 -3.69441 -4.72899 0
M  V30 18749 H 1807.85 -3.52937 -3.32511 0
M  V30 18750 N 1809.19 1.18355 -1.04066 0
M  V30 18751 C 1810.14 2.21987 -0.631714 0
M  V30 18752 C 1811.11 1.62142 0.360462 0
M  V30 18753 O 1812.3 1.89096 0.254445 0
M  V30 18754 C 1809.44 3.451 -0.000843566 0
M  V30 18755 C 1808.55 4.19283 -1.04048 0
M  V30 18756 C 1807.68 5.29852 -0.37813 0
M  V30 18757 C 1806.72 5.95807 -1.40287 0
M  V30 18758 N 1805.86 6.97915 -0.765481 0
M  V30 18759 H 1810.7 2.56323 -1.51995 0
M  V30 18760 H 1808.24 1.25923 -0.760384 0
M  V30 18761 H 1810.2 4.15445 0.382267 0
M  V30 18762 H 1808.83 3.11383 0.850911 0
M  V30 18763 H 1807.88 3.47765 -1.54154 0
M  V30 18764 H 1809.19 4.64457 -1.81882 0
M  V30 18765 H 1808.34 6.06671 0.059186 0
M  V30 18766 H 1807.08 4.8578 0.432293 0
M  V30 18767 H 1806.09 5.17729 -1.85032 0
M  V30 18768 H 1807.31 6.41962 -2.21499 0
M  V30 18769 H 1805.26 6.55995 0.0246364 0
M  V30 18770 H 1805.18 7.41341 -1.48152 0
M  V30 18771 H 1806.44 7.78702 -0.35256 0
M  V30 18772 N 1810.67 0.820125 1.3458 0
M  V30 18773 C 1811.64 0.245462 2.27882 0
M  V30 18774 C 1812.64 -0.575025 1.50167 0
M  V30 18775 O 1813.83 -0.391536 1.69743 0
M  V30 18776 C 1810.96 -0.656199 3.34525 0
M  V30 18777 H 1812.15 1.06853 2.80218 0
M  V30 18778 H 1809.7 0.591777 1.44664 0
M  V30 18779 H 1810.44 -1.50244 2.87398 0
M  V30 18780 H 1810.22 -0.0693951 3.92039 0
M  V30 18781 H 1811.71 -1.05216 4.04128 0
M  V30 18782 N 1812.15 -1.46743 0.574835 0
M  V30 18783 C 1813.39 -2.04312 0.0599973 0
M  V30 18784 C 1813.75 -1.43757 -1.27271 0
M  V30 18785 O 1814.96 -1.92479 -1.87631 0
M  V30 18786 C 1813.23 -3.57398 -0.0130197 0
M  V30 18787 S 1814.79 -4.3626 -0.471425 0
M  V30 18788 H 1811.6 -0.710203 0.0336583 0
M  V30 18789 H 1814.21 -1.79887 0.765555 0
M  V30 18790 H 1812.91 -3.9899 0.961003 0
M  V30 18791 H 1812.44 -3.86347 -0.741591 0
M  V30 18792 H 1814.46 -4.65149 -1.72773 0
M  V30 18793 N 1813.63 -0.312197 -1.54477 0
M  V30 18794 C 1814.56 0.551829 -2.26886 0
M  V30 18795 C 1815.54 1.12874 -1.27254 0
M  V30 18796 O 1816.72 1.15599 -1.56046 0
M  V30 18797 C 1813.85 1.71839 -3.01809 0
M  V30 18798 C 1812.81 1.27131 -4.08683 0
M  V30 18799 C 1812.13 2.52392 -4.71384 0
M  V30 18800 C 1813.43 0.394413 -5.20809 0
M  V30 18801 H 1815.13 -0.0521331 -2.99355 0
M  V30 18802 H 1812.67 -0.0265138 -1.43976 0
M  V30 18803 H 1814.63 2.32903 -3.5119 0
M  V30 18804 H 1813.35 2.34876 -2.26938 0
M  V30 18805 H 1812.01 0.683666 -3.60169 0
M  V30 18806 H 1811.66 3.13768 -3.93139 0
M  V30 18807 H 1811.36 2.23174 -5.43569 0
M  V30 18808 H 1812.88 3.14239 -5.23533 0
M  V30 18809 H 1814.3 0.911031 -5.66015 0
M  V30 18810 H 1812.69 0.195517 -5.99781 0
M  V30 18811 H 1813.76 -0.577661 -4.81447 0
M  V30 18812 N 1815.11 1.57549 -0.040136 0
M  V30 18813 C 1816.38 1.83571 0.675355 0
M  V30 18814 C 1816.76 0.926313 1.89691 0
M  V30 18815 O 1816.11 -0.0153869 2.28495 0
M  V30 18816 C 1816.32 3.33046 1.04313 0
M  V30 18817 C 1817.67 3.99791 1.43011 0
M  V30 18818 O 1818.69 3.37607 1.13579 0
M  V30 18819 O 1817.55 5.09412 1.97893 0
M  V30 18820 H 1814.65 0.75729 0.332325 0
M  V30 18821 H 1817.19 1.69561 -0.0686584 0
M  V30 18822 H 1815.96 3.90912 0.174189 0
M  V30 18823 H 1815.59 3.52203 1.84495 0
M  V30 18824 N 1816.58 -0.233136 1.55866 0
M  V30 18825 C 1817.81 -0.976415 1.82411 0
M  V30 18826 C 1818.23 -1.78409 0.617724 0
M  V30 18827 O 1817.58 -1.77749 -0.413709 0
M  V30 18828 C 1817.64 -1.90328 3.07339 0
M  V30 18829 O 1817.36 -1.12828 4.23322 0
M  V30 18830 C 1818.86 -2.76142 3.46786 0
M  V30 18831 H 1816.08 -0.2867 0.606666 0
M  V30 18832 H 1818.62 -0.251863 2.02943 0
M  V30 18833 H 1816.78 -2.58193 2.88816 0
M  V30 18834 H 1817.19 -1.75643 4.94216 0
M  V30 18835 H 1818.66 -3.36901 4.37266 0
M  V30 18836 H 1819.14 -3.47953 2.68003 0
M  V30 18837 H 1819.75 -2.13708 3.67708 0
M  V30 18838 N 1818.06 -1.49479 -0.499372 0
M  V30 18839 C 1819.03 -1.6575 -1.58302 0
M  V30 18840 C 1820.03 -0.529236 -1.51841 0
M  V30 18841 O 1821.22 -0.795721 -1.54964 0
M  V30 18842 C 1818.35 -1.65639 -2.97954 0
M  V30 18843 H 1819.54 -2.62404 -1.45203 0
M  V30 18844 H 1817.09 -1.38535 -0.723725 0
M  V30 18845 H 1817.83 -0.705752 -3.16527 0
M  V30 18846 H 1817.61 -2.47578 -3.04051 0
M  V30 18847 H 1819.1 -1.80279 -3.76682 0
M  V30 18848 N 1819.54 0.750537 -1.38581 0
M  V30 18849 C 1820.79 1.51198 -1.35156 0
M  V30 18850 C 1821.12 1.94115 0.0574068 0
M  V30 18851 O 1820.4 1.65657 1.01922 0
M  V30 18852 C 1820.68 2.76245 -2.30999 0
M  V30 18853 C 1820.53 2.39446 -3.8077 0
M  V30 18854 C 1821.85 3.78282 -2.24924 0
M  V30 18855 H 1818.97 0.548488 -0.492271 0
M  V30 18856 H 1821.61 0.859402 -1.69453 0
M  V30 18857 H 1819.76 3.31928 -2.01882 0
M  V30 18858 H 1821.43 1.89515 -4.20573 0
M  V30 18859 H 1819.68 1.71866 -3.98302 0
M  V30 18860 H 1820.35 3.28926 -4.43296 0
M  V30 18861 H 1822.82 3.32146 -2.50636 0
M  V30 18862 H 1821.7 4.63467 -2.94091 0
M  V30 18863 H 1821.96 4.24088 -1.24908 0
M  V30 18864 N 1821.02 1.235 0.979051 0
M  V30 18865 C 1821.93 1.03412 2.10578 0
M  V30 18866 C 1822.95 -0.0217644 1.73986 0
M  V30 18867 O 1824.12 0.173977 2.00647 0
M  V30 18868 C 1821.19 0.629192 3.40943 0
M  V30 18869 C 1820.25 1.76028 3.91552 0
M  V30 18870 C 1819.48 1.37457 5.15695 0
M  V30 18871 O 1819.7 0.259393 5.6981 0
M  V30 18872 O 1818.64 2.19614 5.60404 0
M  V30 18873 H 1822.46 1.97845 2.30415 0
M  V30 18874 H 1820.05 1.02218 1.08958 0
M  V30 18875 H 1821.93 0.414372 4.19358 0
M  V30 18876 H 1820.61 -0.286128 3.22433 0
M  V30 18877 H 1819.51 2.02975 3.14248 0
M  V30 18878 H 1820.85 2.65396 4.14519 0
M  V30 18879 N 1822.5 -1.17802 1.04693 0
M  V30 18880 C 1823.45 -2.23698 0.637319 0
M  V30 18881 C 1824.44 -1.65974 -0.338957 0
M  V30 18882 O 1825.65 -1.78822 -0.205565 0
M  V30 18883 H 1822.02 -0.728146 0.187903 0
M  V30 18884 H 1823.99 -2.55549 1.5407 0
M  V30 18885 C 1822.74 -3.47693 0.0227662 0
M  V30 18886 H 1822.06 -3.92412 0.765058 0
M  V30 18887 H 1823.5 -4.23394 -0.22653 0
M  V30 18888 C 1821.96 -3.13679 -1.22912 0
M  V30 18889 O 1822.49 -3.27993 -2.31913 0
M  V30 18890 N 1820.7 -2.67948 -1.12483 0
M  V30 18891 H 1820.25 -2.565 -0.237818 0
M  V30 18892 H 1820.2 -2.45562 -1.96333 0
M  V30 18893 N 1823.98 -0.827251 -1.34143 0
M  V30 18894 C 1824.91 -0.197383 -2.27345 0
M  V30 18895 C 1825.89 0.648729 -1.49098 0
M  V30 18896 O 1827.07 0.611527 -1.78305 0
M  V30 18897 C 1824.2 0.723918 -3.30873 0
M  V30 18898 C 1823.24 -0.0452254 -4.26476 0
M  V30 18899 S 1824.08 -1.39531 -5.17002 0
M  V30 18900 C 1825.23 -0.478996 -6.24064 0
M  V30 18901 H 1825.47 -0.987544 -2.80419 0
M  V30 18902 H 1823 -0.623379 -1.41256 0
M  V30 18903 H 1824.96 1.2499 -3.91009 0
M  V30 18904 H 1823.62 1.48764 -2.76637 0
M  V30 18905 H 1822.81 0.655335 -4.99721 0
M  V30 18906 H 1822.41 -0.5019 -3.70617 0
M  V30 18907 H 1824.7 0.327755 -6.76707 0
M  V30 18908 H 1825.65 -1.18126 -6.98178 0
M  V30 18909 H 1826.06 -0.0655033 -5.64462 0
M  V30 18910 N 1825.45 1.46436 -0.582609 0
M  V30 18911 C 1826.86 1.86047 -0.156012 0
M  V30 18912 C 1827.22 1.48619 1.28089 0
M  V30 18913 O 1826.34 0.90104 1.96749 0
M  V30 18914 C 1826.94 3.37671 -0.276358 0
M  V30 18915 C 1825.49 3.76279 0.0953682 0
M  V30 18916 C 1824.64 2.70454 -0.612348 0
M  V30 18917 H 1827.59 1.37592 -0.790834 0
M  V30 18918 H 1827.61 3.77223 0.498312 0
M  V30 18919 H 1827.13 3.64881 -1.32225 0
M  V30 18920 H 1825.23 3.54687 1.1414 0
M  V30 18921 H 1825.34 4.78276 -0.280881 0
M  V30 18922 H 1823.7 2.54646 -0.0526182 0
M  V30 18923 H 1824.49 3.00504 -1.65989 0
M  V30 18924 N 1826.93 0.320385 1.54309 0
M  V30 18925 C 1828.16 -0.28794 2.05391 0
M  V30 18926 C 1828.58 -1.45249 1.19517 0
M  V30 18927 O 1827.94 -1.80154 0.203556 0
M  V30 18928 C 1827.99 -0.703261 3.53676 0
M  V30 18929 O 1827.09 -1.80598 3.70753 0
M  V30 18930 H 1826.43 -0.052589 0.661914 0
M  V30 18931 H 1828.96 0.46787 1.99179 0
M  V30 18932 H 1828.97 -0.986793 3.95887 0
M  V30 18933 H 1827.65 0.148514 4.15635 0
M  V30 18934 H 1826.22 -1.5215 3.40448 0
M  V30 18935 N 1828.41 -1.57525 0.0484906 0
M  V30 18936 C 1829.34 -2.14405 -0.924811 0
M  V30 18937 C 1830.32 -1.06503 -1.32631 0
M  V30 18938 O 1831.51 -1.3443 -1.4015 0
M  V30 18939 C 1828.64 -2.68686 -2.20057 0
M  V30 18940 C 1827.59 -3.81547 -1.93922 0
M  V30 18941 C 1826.92 -4.22334 -3.27929 0
M  V30 18942 C 1828.22 -5.06801 -1.26295 0
M  V30 18943 H 1829.91 -2.95983 -0.45105 0
M  V30 18944 H 1827.46 -1.42378 -0.215514 0
M  V30 18945 H 1829.41 -3.07117 -2.88543 0
M  V30 18946 H 1828.13 -1.84296 -2.69634 0
M  V30 18947 H 1826.79 -3.43585 -1.27848 0
M  V30 18948 H 1826.44 -3.34899 -3.75302 0
M  V30 18949 H 1826.14 -4.984 -3.11242 0
M  V30 18950 H 1827.66 -4.63363 -3.97652 0
M  V30 18951 H 1829.08 -5.42695 -1.84812 0
M  V30 18952 H 1827.47 -5.87991 -1.19943 0
M  V30 18953 H 1828.54 -4.84313 -0.238605 0
M  V30 18954 N 1829.89 0.224867 -1.55988 0
M  V30 18955 C 1830.83 1.27865 -1.92144 0
M  V30 18956 C 1831.8 1.46741 -0.778228 0
M  V30 18957 O 1832.99 1.60364 -1.03383 0
M  V30 18958 C 1830.13 2.62468 -2.24063 0
M  V30 18959 C 1829.24 2.51419 -3.51301 0
M  V30 18960 C 1828.38 3.78523 -3.72684 0
M  V30 18961 C 1827.42 3.62182 -4.93448 0
M  V30 18962 N 1826.55 4.81228 -5.11237 0
M  V30 18963 H 1831.39 0.96331 -2.82001 0
M  V30 18964 H 1828.93 0.464362 -1.39578 0
M  V30 18965 H 1830.89 3.40848 -2.4058 0
M  V30 18966 H 1829.52 2.92105 -1.37384 0
M  V30 18967 H 1828.57 1.64491 -3.42997 0
M  V30 18968 H 1829.88 2.35263 -4.39833 0
M  V30 18969 H 1829.04 4.65346 -3.89279 0
M  V30 18970 H 1827.78 3.976 -2.82428 0
M  V30 18971 H 1826.78 2.73743 -4.76807 0
M  V30 18972 H 1828.01 3.44579 -5.85186 0
M  V30 18973 H 1825.95 5.00625 -4.23923 0
M  V30 18974 H 1825.87 4.67787 -5.93895 0
M  V30 18975 H 1827.14 5.69487 -5.32264 0
M  V30 18976 N 1831.37 1.49742 0.491438 0
M  V30 18977 C 1832.3 1.6173 1.60993 0
M  V30 18978 C 1833.28 0.466021 1.55779 0
M  V30 18979 O 1834.46 0.682843 1.75697 0
M  V30 18980 C 1831.59 1.58109 2.99532 0
M  V30 18981 C 1830.63 2.78551 3.22973 0
M  V30 18982 S 1831.47 4.4011 3.05063 0
M  V30 18983 C 1832.62 4.3915 4.4598 0
M  V30 18984 H 1832.86 2.56345 1.50581 0
M  V30 18985 H 1830.39 1.38752 0.677301 0
M  V30 18986 H 1832.35 1.56706 3.79412 0
M  V30 18987 H 1831.01 0.64765 3.0735 0
M  V30 18988 H 1830.2 2.72264 4.24133 0
M  V30 18989 H 1829.8 2.77416 2.50831 0
M  V30 18990 H 1832.09 4.11459 5.38245 0
M  V30 18991 H 1833.04 5.40619 4.57315 0
M  V30 18992 H 1833.45 3.69107 4.27107 0
M  V30 18993 N 1832.84 -0.743177 1.38977 0
M  V30 18994 C 1833.79 -1.85709 1.37043 0
M  V30 18995 C 1834.76 -1.64481 0.231351 0
M  V30 18996 O 1835.95 -1.86002 0.4252 0
M  V30 18997 C 1833.09 -3.23131 1.21162 0
M  V30 18998 C 1832.2 -3.5612 2.44545 0
M  V30 18999 C 1831.33 -4.82901 2.21315 0
M  V30 19000 C 1830.37 -5.08708 3.40415 0
M  V30 19001 N 1829.51 -6.26688 3.16555 0
M  V30 19002 H 1834.35 -1.86698 2.32267 0
M  V30 19003 H 1831.89 -0.912384 1.15386 0
M  V30 19004 H 1833.85 -4.02446 1.09968 0
M  V30 19005 H 1832.48 -3.21443 0.295716 0
M  V30 19006 H 1831.53 -2.71569 2.66373 0
M  V30 19007 H 1832.84 -3.71114 3.3328 0
M  V30 19008 H 1831.99 -5.70179 2.07317 0
M  V30 19009 H 1830.73 -4.70065 1.29962 0
M  V30 19010 H 1829.74 -4.19894 3.54921 0
M  V30 19011 H 1830.96 -5.23434 4.32659 0
M  V30 19012 H 1828.91 -6.15156 2.27858 0
M  V30 19013 H 1828.83 -6.4223 3.98843 0
M  V30 19014 H 1830.09 -7.16827 3.06233 0
M  V30 19015 N 1834.32 -1.24018 -0.972487 0
M  V30 19016 C 1835.57 -1.07861 -1.71738 0
M  V30 19017 C 1835.9 0.382399 -1.90398 0
M  V30 19018 O 1835.18 1.2828 -1.462 0
M  V30 19019 C 1835.46 -1.81357 -3.11098 0
M  V30 19020 C 1835.31 -3.35179 -2.99959 0
M  V30 19021 C 1836.63 -1.58242 -4.10667 0
M  V30 19022 H 1833.75 -0.393228 -0.623331 0
M  V30 19023 H 1836.39 -1.52625 -1.13162 0
M  V30 19024 H 1834.54 -1.43307 -3.61103 0
M  V30 19025 H 1836.21 -3.82798 -2.57416 0
M  V30 19026 H 1834.46 -3.63805 -2.3628 0
M  V30 19027 H 1835.13 -3.818 -3.98664 0
M  V30 19028 H 1837.6 -1.91332 -3.69501 0
M  V30 19029 H 1836.48 -2.1213 -5.06253 0
M  V30 19030 H 1836.74 -0.519567 -4.39036 0
M  V30 19031 N 1835.8 1.17245 -1.05316 0
M  V30 19032 C 1837.05 1.87813 -0.765112 0
M  V30 19033 C 1837.38 1.80907 0.706147 0
M  V30 19034 O 1836.65 1.21793 1.51647 0
M  V30 19035 C 1836.94 3.3779 -1.24779 0
M  V30 19036 C 1836.79 3.53441 -2.78208 0
M  V30 19037 C 1838.11 4.31857 -0.847805 0
M  V30 19038 H 1835.23 0.681979 -0.279415 0
M  V30 19039 H 1837.87 1.37869 -1.30737 0
M  V30 19040 H 1836.02 3.80456 -0.786487 0
M  V30 19041 H 1837.69 3.19782 -3.32472 0
M  V30 19042 H 1835.94 2.95678 -3.17423 0
M  V30 19043 H 1836.61 4.58725 -3.07043 0
M  V30 19044 H 1839.08 3.97039 -1.24496 0
M  V30 19045 H 1837.96 5.35326 -1.21313 0
M  V30 19046 H 1838.22 4.41403 0.248104 0
M  V30 19047 N 1837.28 0.834353 1.33702 0
M  V30 19048 C 1838.19 0.266649 2.3308 0
M  V30 19049 C 1839.2 -0.604958 1.63145 0
M  V30 19050 O 1840.38 -0.510151 1.94832 0
M  V30 19051 C 1837.45 -0.552673 3.42267 0
M  V30 19052 C 1836.51 0.342677 4.2793 0
M  V30 19053 C 1835.74 -0.437637 5.31903 0
M  V30 19054 O 1835.96 -1.6698 5.45412 0
M  V30 19055 O 1834.9 0.186001 6.01613 0
M  V30 19056 H 1838.72 1.08946 2.83486 0
M  V30 19057 H 1836.31 0.596765 1.36964 0
M  V30 19058 H 1838.19 -1.01842 4.08908 0
M  V30 19059 H 1836.86 -1.35263 2.94085 0
M  V30 19060 H 1835.77 0.856168 3.64171 0
M  V30 19061 H 1837.1 1.10728 4.79583 0
M  V30 19062 N 1838.76 -1.46125 0.590367 0
M  V30 19063 C 1840 -2.02646 0.0789983 0
M  V30 19064 C 1840.34 -1.45996 -1.28058 0
M  V30 19065 O 1839.61 -0.627981 -1.84083 0
M  V30 19066 C 1839.89 -3.60094 0.0214749 0
M  V30 19067 C 1839.75 -4.27112 1.41049 0
M  V30 19068 C 1841.07 -4.34889 -0.675236 0
M  V30 19069 H 1838.18 -0.736382 0.0301818 0
M  V30 19070 H 1840.83 -1.7418 0.759037 0
M  V30 19071 H 1838.98 -3.84477 -0.557648 0
M  V30 19072 H 1840.65 -4.13969 2.03537 0
M  V30 19073 H 1838.89 -3.86178 1.97607 0
M  V30 19074 H 1839.56 -5.3592 1.32264 0
M  V30 19075 H 1842.04 -4.15697 -0.183176 0
M  V30 19076 H 1840.91 -5.44615 -0.684538 0
M  V30 19077 H 1841.18 -4.06503 -1.73804 0
M  V30 19078 N 1840.23 -0.328564 -1.54137 0
M  V30 19079 C 1841.16 0.527734 -2.27458 0
M  V30 19080 C 1842.15 1.11518 -1.28444 0
M  V30 19081 O 1843.33 1.13938 -1.57264 0
M  V30 19082 C 1840.46 1.68628 -3.03615 0
M  V30 19083 C 1839.41 1.22789 -4.10008 0
M  V30 19084 C 1838.74 2.47378 -4.74034 0
M  V30 19085 C 1840.04 0.339152 -5.21198 0
M  V30 19086 H 1841.73 -0.0838808 -2.99282 0
M  V30 19087 H 1839.28 -0.0417829 -1.43939 0
M  V30 19088 H 1841.23 2.29165 -3.5364 0
M  V30 19089 H 1839.96 2.32456 -2.29416 0
M  V30 19090 H 1838.62 0.645427 -3.60874 0
M  V30 19091 H 1838.26 3.09581 -3.96445 0
M  V30 19092 H 1837.96 2.17396 -5.45905 0
M  V30 19093 H 1839.49 3.08668 -5.26836 0
M  V30 19094 H 1840.9 0.850947 -5.6695 0
M  V30 19095 H 1839.3 0.131892 -5.99955 0
M  V30 19096 H 1840.37 -0.628692 -4.80807 0
M  V30 19097 N 1841.71 1.57497 -0.0568439 0
M  V30 19098 C 1842.68 2.10755 0.900823 0
M  V30 19099 C 1843.68 1.02835 1.23619 0
M  V30 19100 O 1844.87 1.28885 1.17194 0
M  V30 19101 C 1842 2.5965 2.20895 0
M  V30 19102 H 1843.19 2.96669 0.439041 0
M  V30 19103 H 1840.74 1.55121 0.191646 0
M  V30 19104 H 1841.48 1.77147 2.71642 0
M  V30 19105 H 1841.26 3.3852 1.97855 0
M  V30 19106 H 1842.75 3.00982 2.89482 0
M  V30 19107 N 1843.19 -0.216591 1.56105 0
M  V30 19108 C 1844.44 -0.938392 1.78993 0
M  V30 19109 C 1844.76 -1.84671 0.626215 0
M  V30 19110 O 1844.03 -1.92626 -0.356636 0
M  V30 19111 H 1842.61 -0.349491 0.660201 0
M  V30 19112 H 1845.27 -0.227256 1.93571 0
M  V30 19113 H 1844.37 -1.54227 2.71331 0
M  V30 19114 N 1844.67 -1.5 -0.48349 0
M  V30 19115 C 1845.62 -1.64347 -1.58032 0
M  V30 19116 C 1846.6 -0.498472 -1.52984 0
M  V30 19117 O 1847.79 -0.752287 -1.60217 0
M  V30 19118 C 1844.92 -1.72952 -2.96551 0
M  V30 19119 C 1844.01 -2.93088 -3.06529 0
M  V30 19120 N 1844.4 -4.16937 -2.86352 0
M  V30 19121 C 1842.7 -2.91389 -3.37652 0
M  V30 19122 C 1843.4 -4.97786 -3.00972 0
M  V30 19123 N 1842.38 -4.31494 -3.30626 0
M  V30 19124 H 1846.18 -2.57807 -1.41112 0
M  V30 19125 H 1843.69 -1.47014 -0.689978 0
M  V30 19126 H 1845.69 -1.81332 -3.75399 0
M  V30 19127 H 1844.35 -0.80642 -3.14527 0
M  V30 19128 H 1845.36 -4.46635 -2.62178 0
M  V30 19129 H 1842.04 -2.08528 -3.61694 0
M  V30 19130 H 1843.43 -6.06229 -2.89716 0
M  V30 19131 N 1846.15 0.735796 -1.39369 0
M  V30 19132 C 1847.39 1.49239 -1.3628 0
M  V30 19133 C 1847.72 1.94957 0.0408659 0
M  V30 19134 O 1846.99 1.68929 0.991959 0
M  V30 19135 H 1845.57 0.553626 -0.501506 0
M  V30 19136 H 1848.23 0.873549 -1.74227 0
M  V30 19137 H 1847.32 2.37488 -2.02499 0
M  V30 19138 N 1847.63 1.24532 0.965897 0
M  V30 19139 C 1848.58 1.00627 2.04593 0
M  V30 19140 C 1849.56 -0.0529299 1.60813 0
M  V30 19141 O 1850.75 0.16102 1.76266 0
M  V30 19142 C 1847.88 0.614939 3.37748 0
M  V30 19143 C 1846.97 1.71031 3.88084 0
M  V30 19144 N 1847.36 2.94339 4.11337 0
M  V30 19145 C 1845.66 1.58823 4.16763 0
M  V30 19146 C 1846.36 3.65361 4.52644 0
M  V30 19147 N 1845.33 2.92931 4.57922 0
M  V30 19148 H 1849.13 1.94256 2.20549 0
M  V30 19149 H 1846.65 1.14685 1.14983 0
M  V30 19150 H 1848.65 0.424907 4.14729 0
M  V30 19151 H 1847.31 -0.314149 3.23177 0
M  V30 19152 H 1848.32 3.305 3.98736 0
M  V30 19153 H 1844.99 0.727304 4.11116 0
M  V30 19154 H 1846.38 4.71145 4.79032 0
M  V30 19155 N 1849.1 -1.16685 1.05936 0
M  V30 19156 C 1850.03 -2.23129 0.688153 0
M  V30 19157 C 1851.01 -1.67108 -0.31765 0
M  V30 19158 O 1852.2 -1.93233 -0.193578 0
M  V30 19159 C 1849.33 -3.47229 0.069991 0
M  V30 19160 C 1848.28 -4.16121 1.00137 0
M  V30 19161 C 1847.61 -5.34131 0.246699 0
M  V30 19162 C 1848.91 -4.67508 2.32882 0
M  V30 19163 H 1850.6 -2.54436 1.57806 0
M  V30 19164 H 1848.15 -1.22298 0.76021 0
M  V30 19165 H 1850.1 -4.20918 -0.201545 0
M  V30 19166 H 1848.83 -3.15212 -0.854909 0
M  V30 19167 H 1847.49 -3.44355 1.25759 0
M  V30 19168 H 1847.13 -4.98366 -0.681204 0
M  V30 19169 H 1846.83 -5.81163 0.867373 0
M  V30 19170 H 1848.36 -6.10598 -0.0173762 0
M  V30 19171 H 1849.77 -5.32795 2.11666 0
M  V30 19172 H 1848.17 -5.25147 2.90414 0
M  V30 19173 H 1849.24 -3.83912 2.96209 0
M  V30 19174 N 1850.58 -0.841432 -1.33258 0
M  V30 19175 C 1851.81 -0.451287 -2.01611 0
M  V30 19176 C 1852.22 0.952858 -1.63454 0
M  V30 19177 O 1851.56 1.6311 -0.845039 0
M  V30 19178 C 1851.62 -0.495287 -3.56072 0
M  V30 19179 C 1851.29 -1.856 -4.17614 0
M  V30 19180 C 1852.29 -2.81959 -4.36801 0
M  V30 19181 C 1849.97 -2.14953 -4.53983 0
M  V30 19182 C 1851.96 -4.05832 -4.91507 0
M  V30 19183 C 1849.65 -3.39083 -5.08395 0
M  V30 19184 C 1850.65 -4.34339 -5.27104 0
M  V30 19185 O 1850.34 -5.56273 -5.80359 0
M  V30 19186 H 1850.07 -0.177188 -0.652365 0
M  V30 19187 H 1852.62 -1.13629 -1.71107 0
M  V30 19188 H 1850.85 0.246506 -3.85914 0
M  V30 19189 H 1852.54 -0.122606 -4.05715 0
M  V30 19190 H 1853.31 -2.60582 -4.0905 0
M  V30 19191 H 1849.19 -1.41602 -4.38714 0
M  V30 19192 H 1852.73 -4.80192 -5.06025 0
M  V30 19193 H 1848.63 -3.60316 -5.35577 0
M  V30 19194 H 1849.4 -5.58047 -5.9877 0
M  V30 19195 N 1852.06 1.4581 -0.598108 0
M  V30 19196 C 1853.28 2.07188 -0.0938515 0
M  V30 19197 C 1853.71 1.44141 1.20851 0
M  V30 19198 O 1853.07 0.530689 1.73359 0
M  V30 19199 C 1853.12 3.60575 0.0423086 0
M  V30 19200 O 1852.22 3.97598 1.09496 0
M  V30 19201 H 1851.56 0.660324 -0.0697682 0
M  V30 19202 H 1854.09 1.87211 -0.825426 0
M  V30 19203 H 1854.1 4.07272 0.243566 0
M  V30 19204 H 1852.78 4.05852 -0.9087 0
M  V30 19205 H 1851.35 3.62587 0.87093 0
M  V30 19206 N 1853.54 0.336733 1.53961 0
M  V30 19207 C 1854.95 -0.0154439 1.59593 0
M  V30 19208 C 1855.15 -1.49328 1.35291 0
M  V30 19209 O 1854.21 -2.25107 1.14381 0
M  V30 19210 C 1855.52 0.414613 2.97828 0
M  V30 19211 C 1857.07 0.36638 3.10848 0
M  V30 19212 C 1857.55 0.7718 4.5145 0
M  V30 19213 N 1859.04 0.725719 4.5748 0
M  V30 19214 C 1859.77 1.01145 5.64409 0
M  V30 19215 N 1859.27 1.36499 6.7922 0
M  V30 19216 N 1861.06 0.936141 5.5425 0
M  V30 19217 H 1853.21 1.29944 1.68012 0
M  V30 19218 H 1855.47 0.529259 0.786504 0
M  V30 19219 H 1855.18 1.44476 3.20655 0
M  V30 19220 H 1855.05 -0.21367 3.76594 0
M  V30 19221 H 1857.44 -0.65458 2.87749 0
M  V30 19222 H 1857.52 1.02978 2.34157 0
M  V30 19223 H 1857.17 1.79074 4.75284 0
M  V30 19224 H 1857.1 0.0859543 5.2653 0
M  V30 19225 H 1859.59 0.464858 3.7503 0
M  V30 19226 H 1859.9 1.56805 7.56725 0
M  V30 19227 H 1858.25 1.40338 6.80684 0
M  V30 19228 H 1861.44 0.659334 4.63433 0
M  V30 19229 H 1861.61 1.16217 6.37493 0
M  V30 19230 N 1855.02 -1.57465 0.0651956 0
M  V30 19231 C 1856.26 -1.92414 -0.604961 0
M  V30 19232 C 1856.58 -0.946628 -1.71167 0
M  V30 19233 O 1857.78 -1.18869 -2.44095 0
M  V30 19234 C 1856.24 -3.41786 -1.12741 0
M  V30 19235 C 1855.85 -4.4797 -0.0520584 0
M  V30 19236 C 1857.59 -3.85746 -1.77201 0
M  V30 19237 C 1855.5 -5.88468 -0.588181 0
M  V30 19238 H 1854.43 -0.718147 -0.229742 0
M  V30 19239 H 1857.08 -1.82993 0.136361 0
M  V30 19240 H 1855.46 -3.46258 -1.92149 0
M  V30 19241 H 1856.64 -4.55105 0.722215 0
M  V30 19242 H 1854.95 -4.13436 0.495917 0
M  V30 19243 H 1857.55 -4.88093 -2.18332 0
M  V30 19244 H 1857.89 -3.22754 -2.62937 0
M  V30 19245 H 1858.42 -3.83849 -1.04426 0
M  V30 19246 H 1855.16 -6.5509 0.231865 0
M  V30 19247 H 1854.68 -5.84866 -1.33012 0
M  V30 19248 H 1856.36 -6.38147 -1.06667 0
M  V30 19249 N 1856.49 0.20831 -1.56217 0
M  V30 19250 C 1857.9 0.774162 -1.69893 0
M  V30 19251 C 1858.26 1.84424 -0.669506 0
M  V30 19252 O 1857.38 2.15677 0.176748 0
M  V30 19253 C 1857.98 1.41102 -3.08019 0
M  V30 19254 C 1856.53 1.9241 -3.23505 0
M  V30 19255 C 1855.68 0.789129 -2.65835 0
M  V30 19256 H 1858.63 -0.0165614 -1.58691 0
M  V30 19257 H 1858.65 2.28015 -3.04614 0
M  V30 19258 H 1858.17 0.631966 -3.8292 0
M  V30 19259 H 1856.27 2.73076 -2.53496 0
M  V30 19260 H 1856.38 2.09497 -4.30868 0
M  V30 19261 H 1854.74 1.19995 -2.24663 0
M  V30 19262 H 1855.53 0.0225345 -3.43293 0
M  V30 19263 N 1857.97 1.50255 0.475528 0
M  V30 19264 C 1859.22 1.60704 1.22551 0
M  V30 19265 C 1859.54 0.307375 1.92562 0
M  V30 19266 O 1858.81 -0.674885 1.83908 0
M  V30 19267 H 1857.39 0.592176 0.455343 0
M  V30 19268 H 1860.05 1.8701 0.548926 0
M  V30 19269 H 1859.15 2.41596 1.9758 0
M  V30 19270 N 1859.45 -0.728395 1.39758 0
M  V30 19271 C 1860.38 -1.85554 1.41747 0
M  V30 19272 C 1861.36 -1.6778 0.279972 0
M  V30 19273 O 1862.55 -1.88001 0.48675 0
M  V30 19274 C 1859.68 -3.23375 1.26671 0
M  V30 19275 C 1858.63 -3.55799 2.37889 0
M  V30 19276 C 1857.96 -4.92628 2.07899 0
M  V30 19277 C 1859.26 -3.58098 3.80215 0
M  V30 19278 H 1860.95 -1.84146 2.36073 0
M  V30 19279 H 1858.5 -0.884539 1.13631 0
M  V30 19280 H 1860.45 -4.01907 1.26682 0
M  V30 19281 H 1859.17 -3.25326 0.288159 0
M  V30 19282 H 1857.83 -2.796 2.37107 0
M  V30 19283 H 1857.48 -4.91166 1.08466 0
M  V30 19284 H 1857.18 -5.15288 2.82404 0
M  V30 19285 H 1858.7 -5.73509 2.09571 0
M  V30 19286 H 1860.12 -4.26694 3.82891 0
M  V30 19287 H 1858.51 -3.9228 4.54133 0
M  V30 19288 H 1859.58 -2.57758 4.10718 0
M  V30 19289 N 1860.93 -1.25042 -0.959279 0
M  V30 19290 C 1861.86 -1.07494 -2.07285 0
M  V30 19291 C 1862.84 0.0146264 -1.70094 0
M  V30 19292 O 1864.02 -0.154035 -1.93588 0
M  V30 19293 C 1861.15 -0.68794 -3.40418 0
M  V30 19294 C 1860.11 -1.72722 -3.91601 0
M  V30 19295 C 1859.43 -1.19504 -5.21175 0
M  V30 19296 C 1860.73 -3.12502 -4.18497 0
M  V30 19297 H 1862.43 -2.00641 -2.22224 0
M  V30 19298 H 1859.97 -0.966074 -1.06785 0
M  V30 19299 H 1861.93 -0.552133 -4.17767 0
M  V30 19300 H 1860.65 0.279224 -3.25404 0
M  V30 19301 H 1859.31 -1.85139 -3.16416 0
M  V30 19302 H 1858.96 -0.218239 -5.02526 0
M  V30 19303 H 1858.66 -1.88962 -5.56387 0
M  V30 19304 H 1860.18 -1.07153 -6.01124 0
M  V30 19305 H 1861.6 -3.03266 -4.86521 0
M  V30 19306 H 1859.99 -3.79389 -4.64956 0
M  V30 19307 H 1861.06 -3.5991 -3.2495 0
M  V30 19308 N 1862.41 1.16121 -1.06553 0
M  V30 19309 C 1863.63 1.91152 -0.804706 0
M  V30 19310 C 1864.06 1.77045 0.635338 0
M  V30 19311 O 1863.41 1.09757 1.44302 0
M  V30 19312 C 1863.46 3.39782 -1.20751 0
M  V30 19313 O 1862.57 4.1093 -0.347889 0
M  V30 19314 H 1861.91 0.595433 -0.293863 0
M  V30 19315 H 1864.44 1.47104 -1.42203 0
M  V30 19316 H 1864.45 3.90558 -1.1802 0
M  V30 19317 H 1863.12 3.49369 -2.25642 0
M  V30 19318 H 1861.7 3.70331 -0.436993 0
M  V30 19319 N 1863.88 0.848487 1.3281 0
M  V30 19320 C 1865.3 0.504307 1.7976 0
M  V30 19321 C 1865.65 -0.977408 1.70121 0
M  V30 19322 O 1864.77 -1.7621 1.25614 0
M  V30 19323 C 1865.37 0.908628 3.26388 0
M  V30 19324 C 1863.93 0.616441 3.71318 0
M  V30 19325 C 1863.07 1.11173 2.54039 0
M  V30 19326 H 1866.02 1.03628 1.20195 0
M  V30 19327 H 1866.04 0.222518 3.79849 0
M  V30 19328 H 1865.56 1.98708 3.33372 0
M  V30 19329 H 1863.66 -0.451545 3.69854 0
M  V30 19330 H 1863.77 1.17841 4.64382 0
M  V30 19331 H 1862.13 0.532227 2.49077 0
M  V30 19332 H 1862.92 2.19716 2.6378 0
M  V30 19333 N 1865.36 -1.4549 0.605832 0
M  V30 19334 C 1866.31 -2.27597 -0.13542 0
M  V30 19335 C 1867.3 -1.37219 -0.840222 0
M  V30 19336 O 1868.49 -1.61222 -0.730501 0
M  V30 19337 C 1865.62 -3.24054 -1.1333 0
M  V30 19338 C 1864.7 -4.2192 -0.429427 0
M  V30 19339 N 1865.09 -5.03037 0.527952 0
M  V30 19340 C 1863.39 -4.40829 -0.677207 0
M  V30 19341 C 1864.09 -5.7403 0.941511 0
M  V30 19342 N 1863.07 -5.42849 0.28564 0
M  V30 19343 H 1866.87 -2.87712 0.599924 0
M  V30 19344 H 1864.39 -1.56621 0.429367 0
M  V30 19345 H 1866.38 -3.81608 -1.67872 0
M  V30 19346 H 1865.04 -2.655 -1.86922 0
M  V30 19347 H 1866.05 -5.09938 0.904614 0
M  V30 19348 H 1862.73 -3.93401 -1.39794 0
M  V30 19349 H 1864.12 -6.49219 1.73103 0
M  V30 19350 N 1866.84 -0.344893 -1.5378 0
M  V30 19351 C 1868.25 0.138727 -1.86184 0
M  V30 19352 C 1868.6 1.49882 -1.26609 0
M  V30 19353 O 1867.73 2.08478 -0.580174 0
M  V30 19354 C 1868.32 0.258502 -3.37812 0
M  V30 19355 C 1866.88 0.686356 -3.70089 0
M  V30 19356 C 1866.03 -0.179085 -2.76721 0
M  V30 19357 H 1868.98 -0.564442 -1.48323 0
M  V30 19358 H 1869 1.08576 -3.6468 0
M  V30 19359 H 1868.51 -0.731538 -3.81143 0
M  V30 19360 H 1866.61 1.68537 -3.32304 0
M  V30 19361 H 1866.73 0.475315 -4.76736 0
M  V30 19362 H 1865.09 0.348791 -2.523 0
M  V30 19363 H 1865.87 -1.16628 -3.22882 0
M  V30 19364 N 1868.32 1.57428 -0.0735454 0
M  V30 19365 C 1869.25 2.15849 0.890584 0
M  V30 19366 C 1870.23 1.086 1.3092 0
M  V30 19367 O 1871.41 1.36643 1.37994 0
M  V30 19368 C 1868.54 2.72153 2.15755 0
M  V30 19369 C 1867.5 3.84584 1.87827 0
M  V30 19370 C 1866.82 4.27498 3.21169 0
M  V30 19371 C 1868.12 5.08746 1.18217 0
M  V30 19372 H 1869.82 2.96663 0.403904 0
M  V30 19373 H 1867.36 1.42703 0.192836 0
M  V30 19374 H 1869.32 3.11668 2.83621 0
M  V30 19375 H 1868.04 1.88562 2.66668 0
M  V30 19376 H 1866.7 3.45575 1.22366 0
M  V30 19377 H 1866.35 3.40827 3.69927 0
M  V30 19378 H 1866.05 5.03288 3.03273 0
M  V30 19379 H 1867.57 4.69631 3.9023 0
M  V30 19380 H 1868.99 5.45566 1.76155 0
M  V30 19381 H 1867.38 5.89825 1.10573 0
M  V30 19382 H 1868.45 4.84631 0.161525 0
M  V30 19383 N 1869.8 -0.200022 1.56326 0
M  V30 19384 C 1870.73 -1.25071 1.97179 0
M  V30 19385 C 1871.71 -1.4774 0.84303 0
M  V30 19386 O 1872.89 -1.5956 1.10699 0
M  V30 19387 C 1870.02 -2.596 2.30706 0
M  V30 19388 C 1868.98 -2.51552 3.46274 0
M  V30 19389 C 1868.3 -3.90309 3.65463 0
M  V30 19390 C 1869.6 -2.0448 4.80609 0
M  V30 19391 H 1871.3 -0.911238 2.85196 0
M  V30 19392 H 1868.84 -0.436899 1.37212 0
M  V30 19393 H 1870.8 -3.33281 2.5788 0
M  V30 19394 H 1869.52 -2.95278 1.39565 0
M  V30 19395 H 1868.18 -1.80327 3.19183 0
M  V30 19396 H 1867.83 -4.23331 2.71662 0
M  V30 19397 H 1867.53 -3.858 4.43207 0
M  V30 19398 H 1869.05 -4.65619 3.95008 0
M  V30 19399 H 1870.46 -2.67917 5.06847 0
M  V30 19400 H 1868.86 -2.10985 5.61788 0
M  V30 19401 H 1869.93 -0.997828 4.74522 0
M  V30 19402 N 1871.27 -1.50505 -0.467553 0
M  V30 19403 C 1872.21 -1.65784 -1.58267 0
M  V30 19404 C 1873.22 -0.539219 -1.53611 0
M  V30 19405 O 1874.41 -0.812524 -1.58935 0
M  V30 19406 C 1871.51 -1.62951 -2.97154 0
M  V30 19407 C 1870.68 -2.90903 -3.26641 0
M  V30 19408 C 1869.74 -2.80665 -4.451 0
M  V30 19409 O 1868.77 -3.5462 -4.45234 0
M  V30 19410 N 1869.97 -1.9446 -5.4696 0
M  V30 19411 H 1872.73 -2.6197 -1.45575 0
M  V30 19412 H 1870.29 -1.48013 -0.656029 0
M  V30 19413 H 1872.29 -1.53709 -3.74373 0
M  V30 19414 H 1870.86 -0.744855 -3.03596 0
M  V30 19415 H 1870.08 -3.14244 -2.38001 0
M  V30 19416 H 1871.36 -3.75663 -3.43155 0
M  V30 19417 H 1870.76 -1.33694 -5.49675 0
M  V30 19418 H 1869.32 -1.9112 -6.2315 0
M  V30 19419 N 1872.75 0.720973 -1.40142 0
M  V30 19420 C 1873.68 1.84799 -1.42729 0
M  V30 19421 C 1874.66 1.67629 -0.288866 0
M  V30 19422 O 1875.85 1.8774 -0.496713 0
M  V30 19423 C 1872.98 3.22699 -1.28385 0
M  V30 19424 C 1871.93 3.54532 -2.39773 0
M  V30 19425 C 1871.26 4.91518 -2.10509 0
M  V30 19426 C 1872.56 3.56077 -3.82108 0
M  V30 19427 H 1874.25 1.82892 -2.37046 0
M  V30 19428 H 1871.8 0.8785 -1.14098 0
M  V30 19429 H 1873.75 4.0123 -1.28812 0
M  V30 19430 H 1872.48 3.25169 -0.305408 0
M  V30 19431 H 1871.13 2.78338 -2.38586 0
M  V30 19432 H 1870.78 4.90584 -1.11069 0
M  V30 19433 H 1870.48 5.13783 -2.85132 0
M  V30 19434 H 1872.01 5.72389 -2.1261 0
M  V30 19435 H 1873.42 4.24657 -3.85148 0
M  V30 19436 H 1871.82 3.89866 -4.56207 0
M  V30 19437 H 1872.89 2.55576 -4.12079 0
M  V30 19438 N 1874.23 1.25549 0.952634 0
M  V30 19439 C 1875.46 1.13262 1.73743 0
M  V30 19440 C 1875.88 -0.309507 1.85536 0
M  V30 19441 O 1875.24 -1.22422 1.33726 0
M  V30 19442 C 1875.29 1.79395 3.12809 0
M  V30 19443 O 1874.39 1.07496 3.98144 0
M  V30 19444 H 1873.73 0.395314 0.5335 0
M  V30 19445 H 1876.26 1.66151 1.19394 0
M  V30 19446 H 1876.27 1.85761 3.63259 0
M  V30 19447 H 1874.95 2.84316 3.03542 0
M  V30 19448 H 1873.52 1.09025 3.56606 0
M  V30 19449 N 1875.71 -1.15554 1.07168 0
M  V30 19450 C 1876.94 -1.89906 0.813588 0
M  V30 19451 C 1877.35 -1.78164 -0.636732 0
M  V30 19452 O 1876.69 -1.13 -1.44833 0
M  V30 19453 C 1876.75 -3.40937 1.14028 0
M  V30 19454 C 1876.42 -3.76465 2.59082 0
M  V30 19455 C 1877.41 -3.77643 3.57326 0
M  V30 19456 C 1875.1 -4.06829 2.94611 0
M  V30 19457 C 1877.09 -4.08688 4.89134 0
M  V30 19458 C 1874.78 -4.37539 4.26618 0
M  V30 19459 C 1875.78 -4.3845 5.23689 0
M  V30 19460 O 1875.46 -4.68425 6.53325 0
M  V30 19461 H 1875.2 -0.608773 0.293891 0
M  V30 19462 H 1877.75 -1.4735 1.43098 0
M  V30 19463 H 1875.98 -3.83884 0.465848 0
M  V30 19464 H 1877.67 -3.96575 0.865029 0
M  V30 19465 H 1878.44 -3.54286 3.31219 0
M  V30 19466 H 1874.31 -4.05279 2.19704 0
M  V30 19467 H 1877.86 -4.09315 5.64896 0
M  V30 19468 H 1873.76 -4.60363 4.52478 0
M  V30 19469 H 1874.52 -4.86198 6.58448 0
M  V30 19470 N 1877.19 -0.855519 -1.32358 0
M  V30 19471 C 1878.42 -0.473331 -2.01413 0
M  V30 19472 C 1878.83 0.930206 -1.64294 0
M  V30 19473 O 1878.19 1.60714 -0.864705 0
M  V30 19474 C 1878.24 -0.603815 -3.56422 0
M  V30 19475 O 1877.96 -1.95207 -3.92207 0
M  V30 19476 C 1879.46 -0.220748 -4.4275 0
M  V30 19477 H 1876.68 -0.185962 -0.644716 0
M  V30 19478 H 1879.22 -1.1527 -1.68918 0
M  V30 19479 H 1877.38 0.0278263 -3.8739 0
M  V30 19480 H 1877.79 -1.94946 -4.86925 0
M  V30 19481 H 1879.27 -0.363048 -5.50805 0
M  V30 19482 H 1879.74 0.838881 -4.31114 0
M  V30 19483 H 1880.35 -0.827498 -4.17172 0
M  V30 19484 N 1878.67 1.45167 -0.61354 0
M  V30 19485 C 1879.63 2.29016 0.0919454 0
M  V30 19486 C 1880.63 1.40091 0.789373 0
M  V30 19487 O 1881.82 1.6215 0.636631 0
M  V30 19488 C 1878.95 3.21257 1.14048 0
M  V30 19489 H 1880.14 2.92875 -0.645317 0
M  V30 19490 H 1877.7 1.51788 -0.372855 0
M  V30 19491 H 1878.43 2.6221 1.90831 0
M  V30 19492 H 1878.22 3.86766 0.644523 0
M  V30 19493 H 1879.71 3.84288 1.63439 0
M  V30 19494 N 1880.14 0.353044 1.53595 0
M  V30 19495 C 1881.37 -0.241665 2.05484 0
M  V30 19496 C 1881.79 -1.43458 1.2274 0
M  V30 19497 O 1881.14 -1.80566 0.26501 0
M  V30 19498 C 1881.19 -0.647442 3.55655 0
M  V30 19499 O 1880.92 0.498047 4.3526 0
M  V30 19500 C 1882.42 -1.30187 4.23753 0
M  V30 19501 H 1879.64 -0.0449704 0.669491 0
M  V30 19502 H 1882.18 0.507783 1.98095 0
M  V30 19503 H 1880.34 -1.34682 3.63235 0
M  V30 19504 H 1880.75 0.172685 5.24216 0
M  V30 19505 H 1882.22 -1.53646 5.30186 0
M  V30 19506 H 1882.7 -2.25835 3.7669 0
M  V30 19507 H 1883.31 -0.644265 4.20392 0
M  V30 19508 N 1881.62 -1.57387 0.0818932 0
M  V30 19509 C 1882.9 -1.85297 -0.626447 0
M  V30 19510 C 1883.28 -0.976281 -1.87168 0
M  V30 19511 O 1882.63 -0.0451999 -2.28455 0
M  V30 19512 C 1882.84 -3.35695 -0.954461 0
M  V30 19513 C 1884.18 -4.03442 -1.32361 0
M  V30 19514 O 1885.21 -3.40499 -1.04588 0
M  V30 19515 O 1884.07 -5.1448 -1.84317 0
M  V30 19516 H 1881.16 -0.765835 -0.31213 0
M  V30 19517 H 1883.71 -1.69319 0.11359 0
M  V30 19518 H 1882.48 -3.91237 -0.0704846 0
M  V30 19519 H 1882.1 -3.56971 -1.75092 0
M  V30 19520 N 1883.1 0.191729 -1.56429 0
M  V30 19521 C 1884.52 0.542701 -1.5009 0
M  V30 19522 C 1884.72 1.85685 -0.782522 0
M  V30 19523 O 1883.77 2.50275 -0.334432 0
M  V30 19524 C 1885.08 0.594326 -2.94768 0
M  V30 19525 C 1886.63 0.682929 -3.05459 0
M  V30 19526 C 1887.11 0.765634 -4.51555 0
M  V30 19527 N 1888.6 0.829072 -4.5572 0
M  V30 19528 C 1889.33 0.91329 -5.6608 0
M  V30 19529 N 1888.83 0.959603 -6.86122 0
M  V30 19530 N 1890.62 0.950739 -5.54001 0
M  V30 19531 H 1882.77 -0.670241 -2.01548 0
M  V30 19532 H 1885.04 -0.239168 -0.917335 0
M  V30 19533 H 1884.74 -0.302238 -3.50399 0
M  V30 19534 H 1884.62 1.44787 -3.48305 0
M  V30 19535 H 1887 1.56992 -2.49875 0
M  V30 19536 H 1887.08 -0.19688 -2.55041 0
M  V30 19537 H 1886.73 -0.117022 -5.07765 0
M  V30 19538 H 1886.66 1.66129 -4.99709 0
M  V30 19539 H 1889.15 0.802391 -3.69283 0
M  V30 19540 H 1889.46 1.02447 -7.65979 0
M  V30 19541 H 1887.81 0.928223 -6.88774 0
M  V30 19542 H 1891 0.911418 -4.59141 0
M  V30 19543 H 1891.17 1.01291 -6.40034 0
M  V30 19544 N 1884.58 1.50751 0.459565 0
M  V30 19545 C 1885.53 1.6684 1.55397 0
M  V30 19546 C 1886.51 0.522747 1.52171 0
M  V30 19547 O 1887.7 0.777681 1.59 0
M  V30 19548 C 1884.83 1.77648 2.93762 0
M  V30 19549 C 1883.92 2.97927 3.01828 0
M  V30 19550 N 1884.31 4.2144 2.79682 0
M  V30 19551 C 1882.61 2.96724 3.32973 0
M  V30 19552 C 1883.31 5.02511 2.93015 0
M  V30 19553 N 1882.28 4.367 3.2372 0
M  V30 19554 H 1886.09 2.60019 1.36993 0
M  V30 19555 H 1883.6 1.48093 0.666502 0
M  V30 19556 H 1885.6 1.87281 3.72467 0
M  V30 19557 H 1884.26 0.856356 3.13204 0
M  V30 19558 H 1885.27 4.5075 2.55039 0
M  V30 19559 H 1881.95 2.14256 3.5833 0
M  V30 19560 H 1883.34 6.10762 2.80035 0
M  V30 19561 N 1886.06 -0.713531 1.40522 0
M  V30 19562 C 1887.47 -1.29276 1.34702 0
M  V30 19563 C 1887.82 -1.96188 0.0214862 0
M  V30 19564 O 1886.94 -1.97676 -0.880513 0
M  V30 19565 C 1887.54 -2.35082 2.43971 0
M  V30 19566 C 1886.1 -2.88624 2.41605 0
M  V30 19567 C 1885.24 -1.62437 2.24743 0
M  V30 19568 H 1888.19 -0.509517 1.50298 0
M  V30 19569 H 1888.22 -3.15971 2.11996 0
M  V30 19570 H 1887.73 -1.86353 3.40432 0
M  V30 19571 H 1885.83 -3.41578 1.48847 0
M  V30 19572 H 1885.94 -3.40278 3.37265 0
M  V30 19573 H 1884.31 -1.8758 1.72296 0
M  V30 19574 H 1885.09 -1.1573 3.23205 0
M  V30 19575 N 1887.53 -1.26053 -0.945962 0
M  V30 19576 C 1888.47 -1.02985 -2.0476 0
M  V30 19577 C 1889.48 0.00812739 -1.62798 0
M  V30 19578 O 1890.67 -0.231411 -1.76994 0
M  V30 19579 C 1887.77 -0.536609 -3.34625 0
M  V30 19580 C 1886.94 -1.64273 -4.0538 0
M  V30 19581 C 1886 -1.14836 -5.13516 0
M  V30 19582 O 1885.03 -1.84449 -5.38486 0
M  V30 19583 N 1886.23 0.00576017 -5.805 0
M  V30 19584 H 1888.99 -1.97845 -2.25117 0
M  V30 19585 H 1886.55 -1.17375 -1.11512 0
M  V30 19586 H 1888.55 -0.19017 -4.04253 0
M  V30 19587 H 1887.12 0.318275 -3.10976 0
M  V30 19588 H 1886.34 -2.16034 -3.29732 0
M  V30 19589 H 1887.62 -2.3856 -4.49407 0
M  V30 19590 H 1887.02 0.587225 -5.62644 0
M  V30 19591 H 1885.58 0.293161 -6.5114 0
M  V30 19592 N 1889.01 1.14984 -1.07779 0
M  V30 19593 C 1889.97 2.1806 -0.705879 0
M  V30 19594 C 1890.97 1.58748 0.256082 0
M  V30 19595 O 1892.16 1.74162 0.0364678 0
M  V30 19596 C 1889.3 3.40875 -0.0411253 0
M  V30 19597 H 1890.49 2.52476 -1.61852 0
M  V30 19598 H 1888.04 1.29522 -0.874863 0
M  V30 19599 H 1888.78 3.12032 0.883548 0
M  V30 19600 H 1888.56 3.85186 -0.73306 0
M  V30 19601 H 1890.05 4.171 0.204275 0
M  V30 19602 N 1890.49 0.862526 1.31902 0
M  V30 19603 C 1891.42 0.328423 2.31179 0
M  V30 19604 C 1892.4 -0.57668 1.60026 0
M  V30 19605 O 1893.59 -0.49527 1.87778 0
M  V30 19606 C 1890.72 -0.47734 3.44004 0
M  V30 19607 C 1889.67 0.334015 4.26695 0
M  V30 19608 C 1889 -0.596973 5.31357 0
M  V30 19609 C 1890.3 1.56405 4.98332 0
M  V30 19610 H 1891.99 1.15797 2.761 0
M  V30 19611 H 1889.54 0.558268 1.32738 0
M  V30 19612 H 1891.49 -0.861461 4.12501 0
M  V30 19613 H 1890.21 -1.34033 2.9783 0
M  V30 19614 H 1888.87 0.699989 3.59855 0
M  V30 19615 H 1888.52 -1.45703 4.81435 0
M  V30 19616 H 1888.22 -0.0580517 5.87571 0
M  V30 19617 H 1889.74 -0.978099 6.02715 0
M  V30 19618 H 1891.16 1.25178 5.59467 0
M  V30 19619 H 1889.55 2.04149 5.64308 0
M  V30 19620 H 1890.62 2.32099 4.25744 0
M  V30 19621 N 1891.97 -1.4484 0.62123 0
M  V30 19622 C 1892.88 -2.34423 -0.0910566 0
M  V30 19623 C 1893.89 -1.52042 -0.846121 0
M  V30 19624 O 1895.07 -1.84802 -0.800625 0
M  V30 19625 C 1892.14 -3.29874 -1.06696 0
M  V30 19626 C 1891.2 -4.28162 -0.312354 0
M  V30 19627 C 1890.43 -5.19053 -1.24177 0
M  V30 19628 O 1890.65 -5.13659 -2.48014 0
M  V30 19629 O 1889.59 -5.97439 -0.731442 0
M  V30 19630 H 1893.41 -2.96761 0.645493 0
M  V30 19631 H 1891 -1.44448 0.381445 0
M  V30 19632 H 1892.88 -3.88654 -1.62867 0
M  V30 19633 H 1891.55 -2.70083 -1.78429 0
M  V30 19634 H 1890.46 -3.72957 0.292161 0
M  V30 19635 H 1891.79 -4.90847 0.364763 0
M  V30 19636 N 1893.45 -0.361184 -1.53405 0
M  V30 19637 C 1894.41 0.475026 -2.24223 0
M  V30 19638 C 1895.41 1.01331 -1.24855 0
M  V30 19639 O 1896.6 0.899756 -1.49164 0
M  V30 19640 C 1893.73 1.6635 -2.97557 0
M  V30 19641 H 1894.92 -0.144595 -2.99551 0
M  V30 19642 H 1892.48 -0.112802 -1.55892 0
M  V30 19643 H 1893.21 2.32133 -2.26461 0
M  V30 19644 H 1893 1.28454 -3.70462 0
M  V30 19645 H 1894.49 2.2562 -3.51405 0
M  V30 19646 N 1894.92 1.57341 -0.0902386 0
M  V30 19647 C 1895.89 2.12619 0.855916 0
M  V30 19648 C 1896.89 1.05434 1.2141 0
M  V30 19649 O 1898.08 1.31342 1.14433 0
M  V30 19650 C 1895.21 2.64277 2.15338 0
M  V30 19651 H 1896.4 2.97533 0.376014 0
M  V30 19652 H 1893.96 1.55492 0.1587 0
M  V30 19653 H 1894.69 1.82869 2.67824 0
M  V30 19654 H 1894.48 3.4264 1.9063 0
M  V30 19655 H 1895.97 3.07055 2.83032 0
M  V30 19656 N 1896.4 -0.183431 1.56529 0
M  V30 19657 C 1897.33 -1.25157 1.92011 0
M  V30 19658 C 1898.35 -1.41107 0.811945 0
M  V30 19659 O 1899.54 -1.41326 1.09038 0
M  V30 19660 C 1896.64 -2.62206 2.14712 0
M  V30 19661 C 1895.81 -2.67712 3.45903 0
M  V30 19662 C 1894.87 -3.86038 3.57576 0
M  V30 19663 O 1893.89 -3.72599 4.30301 0
M  V30 19664 N 1895.1 -5.01988 2.91528 0
M  V30 19665 H 1897.86 -0.950304 2.84235 0
M  V30 19666 H 1895.42 -0.373278 1.57538 0
M  V30 19667 H 1897.41 -3.3981 2.19798 0
M  V30 19668 H 1895.98 -2.84772 1.28932 0
M  V30 19669 H 1895.2 -1.76294 3.52582 0
M  V30 19670 H 1896.49 -2.68392 4.32254 0
M  V30 19671 H 1895.89 -5.15807 2.32292 0
M  V30 19672 H 1894.45 -5.77497 3.02225 0
M  V30 19673 N 1897.88 -1.50992 -0.451564 0
M  V30 19674 C 1898.84 -1.70703 -1.52949 0
M  V30 19675 C 1899.84 -0.577275 -1.50081 0
M  V30 19676 O 1901.03 -0.844619 -1.52354 0
M  V30 19677 C 1898.17 -1.75035 -2.92533 0
M  V30 19678 H 1899.36 -2.66891 -1.36782 0
M  V30 19679 H 1896.91 -1.40767 -0.679285 0
M  V30 19680 H 1897.65 -0.806096 -3.14122 0
M  V30 19681 H 1897.43 -2.57126 -2.96021 0
M  V30 19682 H 1898.92 -1.92171 -3.70756 0
M  V30 19683 N 1899.36 0.706069 -1.40899 0
M  V30 19684 C 1900.27 1.85007 -1.44255 0
M  V30 19685 C 1901.28 1.70761 -0.334174 0
M  V30 19686 O 1902.46 1.9286 -0.580258 0
M  V30 19687 C 1899.53 3.20896 -1.31251 0
M  V30 19688 C 1898.59 3.47327 -2.52314 0
M  V30 19689 C 1897.82 4.76732 -2.39922 0
M  V30 19690 O 1898.04 5.5249 -1.41813 0
M  V30 19691 O 1896.98 5.03713 -3.2948 0
M  V30 19692 H 1900.8 1.85132 -2.40748 0
M  V30 19693 H 1898.39 0.857751 -1.22323 0
M  V30 19694 H 1900.27 4.02045 -1.26244 0
M  V30 19695 H 1898.94 3.21477 -0.378684 0
M  V30 19696 H 1897.85 2.66149 -2.62899 0
M  V30 19697 H 1899.18 3.5155 -3.4449 0
M  V30 19698 N 1900.84 1.26553 0.939264 0
M  V30 19699 C 1901.77 1.10778 2.05549 0
M  V30 19700 C 1902.75 0.0124359 1.70095 0
M  V30 19701 O 1903.93 0.184814 1.93319 0
M  V30 19702 C 1901.06 0.742011 3.39281 0
M  V30 19703 C 1900.02 1.78931 3.88803 0
M  V30 19704 C 1899.34 1.2778 5.19207 0
M  V30 19705 C 1900.64 3.1912 4.13473 0
M  V30 19706 H 1902.34 2.04151 2.19004 0
M  V30 19707 H 1899.88 0.98294 1.05234 0
M  V30 19708 H 1901.84 0.618526 4.16836 0
M  V30 19709 H 1900.56 -0.22742 3.25807 0
M  V30 19710 H 1899.22 1.9015 3.13431 0
M  V30 19711 H 1898.87 0.298159 5.02116 0
M  V30 19712 H 1898.57 1.9779 5.53311 0
M  V30 19713 H 1900.09 1.16703 5.99344 0
M  V30 19714 H 1901.5 3.10967 4.81635 0
M  V30 19715 H 1899.9 3.86738 4.58862 0
M  V30 19716 H 1900.97 3.65034 3.19183 0
M  V30 19717 N 1902.31 -1.14411 1.08387 0
M  V30 19718 C 1903.25 -2.19141 0.671565 0
M  V30 19719 C 1904.26 -1.60352 -0.281256 0
M  V30 19720 O 1905.45 -1.78367 -0.0689422 0
M  V30 19721 C 1902.55 -3.38884 -0.0326447 0
M  V30 19722 C 1901.72 -4.27201 0.939024 0
M  V30 19723 C 1900.78 -5.25506 0.270176 0
M  V30 19724 O 1899.81 -5.61805 0.914522 0
M  V30 19725 N 1901.01 -5.72168 -0.980002 0
M  V30 19726 H 1903.77 -2.5513 1.57254 0
M  V30 19727 H 1901.33 -1.2963 0.969931 0
M  V30 19728 H 1903.33 -4.0171 -0.491035 0
M  V30 19729 H 1901.9 -3.01222 -0.835708 0
M  V30 19730 H 1901.12 -3.61314 1.57626 0
M  V30 19731 H 1902.4 -4.83072 1.59746 0
M  V30 19732 H 1901.8 -5.44806 -1.52325 0
M  V30 19733 H 1900.36 -6.36983 -1.38189 0
M  V30 19734 N 1903.79 -0.869509 -1.31443 0
M  V30 19735 C 1904.72 -0.282169 -2.27456 0
M  V30 19736 C 1905.74 0.55453 -1.53065 0
M  V30 19737 O 1906.93 0.376597 -1.74482 0
M  V30 19738 C 1904.03 0.618652 -3.33206 0
M  V30 19739 C 1903.2 -0.185505 -4.37006 0
M  V30 19740 C 1902.26 0.643383 -5.22252 0
M  V30 19741 O 1901.28 0.0715827 -5.69155 0
M  V30 19742 N 1902.49 1.95545 -5.46573 0
M  V30 19743 H 1905.25 -1.10726 -2.78496 0
M  V30 19744 H 1902.81 -0.730947 -1.4446 0
M  V30 19745 H 1904.8 1.17886 -3.8715 0
M  V30 19746 H 1903.37 1.34442 -2.82213 0
M  V30 19747 H 1902.59 -0.927156 -3.83142 0
M  V30 19748 H 1903.88 -0.73731 -5.03429 0
M  V30 19749 H 1903.28 2.44315 -5.10222 0
M  V30 19750 H 1901.84 2.46345 -6.03455 0
M  V30 19751 N 1905.27 1.44508 -0.628902 0
M  V30 19752 C 1906.22 2.27784 0.0991943 0
M  V30 19753 C 1907.2 1.38538 0.818285 0
M  V30 19754 O 1908.4 1.62364 0.704759 0
M  V30 19755 C 1905.53 3.25816 1.0816 0
M  V30 19756 C 1904.61 4.2255 0.362249 0
M  V30 19757 N 1905 5.02133 -0.607915 0
M  V30 19758 C 1903.3 4.4185 0.60699 0
M  V30 19759 C 1904 5.7246 -1.03271 0
M  V30 19760 N 1902.98 5.42326 -0.371966 0
M  V30 19761 H 1906.78 2.86721 -0.645621 0
M  V30 19762 H 1904.29 1.55918 -0.45423 0
M  V30 19763 H 1906.29 3.8423 1.6178 0
M  V30 19764 H 1904.95 2.6844 1.82674 0
M  V30 19765 H 1905.96 5.08435 -0.985626 0
M  V30 19766 H 1902.64 3.95575 1.33517 0
M  V30 19767 H 1904.03 6.46383 -1.83409 0
M  V30 19768 N 1906.75 0.369315 1.53212 0
M  V30 19769 C 1908.03 -0.275781 1.93646 0
M  V30 19770 C 1908.41 -1.66075 1.30316 0
M  V30 19771 O 1907.75 -2.23746 0.463658 0
M  V30 19772 C 1907.96 -0.322239 3.47509 0
M  V30 19773 C 1909.31 -0.560798 4.2088 0
M  V30 19774 O 1910.34 -0.403291 3.5391 0
M  V30 19775 O 1909.2 -0.86778 5.39566 0
M  V30 19776 H 1906.29 -0.166296 0.810108 0
M  V30 19777 H 1908.84 0.42237 1.6436 0
M  V30 19778 H 1907.61 0.648648 3.85886 0
M  V30 19779 H 1907.23 -1.06613 3.8304 0
M  V30 19780 N 1908.23 -1.57291 0.0985816 0
M  V30 19781 C 1909.47 -1.94767 -0.56514 0
M  V30 19782 C 1909.81 -0.980722 -1.67617 0
M  V30 19783 O 1909.08 -0.0143714 -1.94495 0
M  V30 19784 C 1909.36 -3.42336 -1.11704 0
M  V30 19785 C 1909.22 -4.49799 -0.0108284 0
M  V30 19786 C 1910.54 -3.91296 -2.01434 0
M  V30 19787 H 1907.66 -0.708215 -0.203963 0
M  V30 19788 H 1910.3 -1.89238 0.169998 0
M  V30 19789 H 1908.45 -3.47179 -1.74354 0
M  V30 19790 H 1910.12 -4.57066 0.623574 0
M  V30 19791 H 1908.36 -4.28825 0.655093 0
M  V30 19792 H 1909.03 -5.50261 -0.437868 0
M  V30 19793 H 1911.51 -3.88628 -1.48685 0
M  V30 19794 H 1910.39 -4.9511 -2.36975 0
M  V30 19795 H 1910.65 -3.30792 -2.93307 0
M  V30 19796 N 1909.71 0.175127 -1.56624 0
M  V30 19797 C 1910.67 1.20064 -1.95237 0
M  V30 19798 C 1911.67 1.37384 -0.835603 0
M  V30 19799 O 1912.86 1.34855 -1.10272 0
M  V30 19800 C 1909.99 2.5664 -2.24386 0
M  V30 19801 H 1911.18 0.870066 -2.87001 0
M  V30 19802 H 1908.74 0.41743 -1.50623 0
M  V30 19803 H 1909.47 2.94717 -1.35322 0
M  V30 19804 H 1909.26 2.45436 -3.05784 0
M  V30 19805 H 1910.75 3.30554 -2.55194 0
M  V30 19806 N 1911.18 1.5123 0.44355 0
M  V30 19807 C 1912.12 1.68281 1.55609 0
M  V30 19808 C 1913.13 0.563589 1.52733 0
M  V30 19809 O 1914.32 0.837706 1.57622 0
M  V30 19810 C 1911.42 1.67657 2.94524 0
M  V30 19811 C 1910.59 2.96063 3.21971 0
M  V30 19812 C 1909.65 2.8771 4.40578 0
M  V30 19813 O 1908.68 3.61659 4.39536 0
M  V30 19814 N 1909.88 2.03137 5.43797 0
M  V30 19815 H 1912.64 2.64252 1.41389 0
M  V30 19816 H 1910.2 1.49038 0.632398 0
M  V30 19817 H 1912.2 1.59646 3.71881 0
M  V30 19818 H 1910.77 0.79306 3.02373 0
M  V30 19819 H 1909.99 3.17991 2.32971 0
M  V30 19820 H 1911.27 3.81074 3.37135 0
M  V30 19821 H 1910.67 1.42422 5.47478 0
M  V30 19822 H 1909.23 2.0101 6.20031 0
M  V30 19823 N 1912.66 -0.698586 1.41271 0
M  V30 19824 C 1913.91 -1.45573 1.40189 0
M  V30 19825 C 1914.23 -1.94997 0.0108379 0
M  V30 19826 O 1913.5 -1.715 -0.946822 0
M  V30 19827 H 1912.08 -0.540134 0.516008 0
M  V30 19828 H 1914.74 -0.827048 1.76482 0
M  V30 19829 H 1913.84 -2.32036 2.08724 0
M  V30 19830 N 1914.14 -1.27049 -0.93254 0
M  V30 19831 C 1915.07 -1.05151 -2.03656 0
M  V30 19832 C 1916.08 -0.00913996 -1.62797 0
M  V30 19833 O 1917.27 -0.25017 -1.76738 0
M  V30 19834 C 1914.37 -0.572071 -3.34037 0
M  V30 19835 C 1913.55 -1.68563 -4.03615 0
M  V30 19836 C 1912.61 -1.20276 -5.12269 0
M  V30 19837 O 1911.63 -1.9015 -5.36499 0
M  V30 19838 N 1912.83 -0.0558099 -5.80473 0
M  V30 19839 H 1915.6 -2.00221 -2.23006 0
M  V30 19840 H 1913.16 -1.18551 -1.1026 0
M  V30 19841 H 1915.15 -0.233036 -4.04029 0
M  V30 19842 H 1913.72 0.285274 -3.11296 0
M  V30 19843 H 1912.94 -2.19519 -3.27422 0
M  V30 19844 H 1914.23 -2.43313 -4.46852 0
M  V30 19845 H 1913.63 0.527516 -5.63235 0
M  V30 19846 H 1912.18 0.224082 -6.51415 0
M  V30 19847 N 1915.62 1.13835 -1.08993 0
M  V30 19848 C 1916.86 1.855 -0.834342 0
M  V30 19849 C 1917.22 1.81684 0.63315 0
M  V30 19850 O 1916.51 1.24085 1.45991 0
M  V30 19851 C 1916.71 3.32997 -1.29798 0
M  V30 19852 C 1916.53 3.51176 -2.80901 0
M  V30 19853 C 1915.3 3.65678 -3.48723 0
M  V30 19854 C 1917.5 3.47593 -3.79056 0
M  V30 19855 N 1915.48 3.72074 -4.88297 0
M  V30 19856 C 1916.86 3.60305 -5.04559 0
M  V30 19857 C 1918.91 3.30967 -3.71975 0
M  V30 19858 C 1917.61 3.58108 -6.2382 0
M  V30 19859 C 1919.64 3.30076 -4.90718 0
M  V30 19860 C 1919 3.43334 -6.15062 0
M  V30 19861 H 1915.1 0.695187 -0.358105 0
M  V30 19862 H 1917.68 1.36391 -1.38944 0
M  V30 19863 H 1915.86 3.80683 -0.770378 0
M  V30 19864 H 1917.59 3.9245 -0.988183 0
M  V30 19865 H 1914.34 3.67163 -2.99146 0
M  V30 19866 H 1914.77 3.78974 -5.60988 0
M  V30 19867 H 1919.41 3.19622 -2.7677 0
M  V30 19868 H 1917.13 3.68228 -7.19329 0
M  V30 19869 H 1920.71 3.18415 -4.86933 0
M  V30 19870 H 1919.59 3.426 -7.05404 0
M  V30 19871 N 1917.1 0.876467 1.3098 0
M  V30 19872 C 1918.37 0.411051 1.91232 0
M  V30 19873 C 1918.75 -1.10748 1.79717 0
M  V30 19874 O 1918.1 -1.93898 1.20896 0
M  V30 19875 C 1918.31 0.899663 3.37205 0
M  V30 19876 C 1919.66 0.929615 4.14299 0
M  V30 19877 O 1920.68 0.845752 3.46014 0
M  V30 19878 O 1919.54 1.05211 5.36277 0
M  V30 19879 H 1916.64 0.12418 0.817624 0
M  V30 19880 H 1919.18 0.964808 1.39605 0
M  V30 19881 H 1917.95 1.94336 3.39631 0
M  V30 19882 H 1917.58 0.324585 3.96273 0
M  V30 19883 N 1918.57 -1.44173 0.636557 0
M  V30 19884 C 1919.98 -1.8534 0.224954 0
M  V30 19885 C 1920.34 -1.53271 -1.22485 0
M  V30 19886 O 1919.46 -0.973441 -1.93269 0
M  V30 19887 C 1920.06 -3.36413 0.401492 0
M  V30 19888 C 1918.61 -3.76374 0.0443511 0
M  V30 19889 C 1917.76 -2.67995 0.712303 0
M  V30 19890 H 1920.71 -1.34562 0.841356 0
M  V30 19891 H 1920.73 -3.78812 -0.357965 0
M  V30 19892 H 1920.25 -3.59722 1.45677 0
M  V30 19893 H 1918.35 -3.58679 -1.00897 0
M  V30 19894 H 1918.46 -4.76904 0.458196 0
M  V30 19895 H 1916.82 -2.54275 0.147092 0
M  V30 19896 H 1917.61 -2.94136 1.77028 0
M  V30 19897 N 1920.05 -0.377435 -1.53014 0
M  V30 19898 C 1921.01 0.451217 -2.24715 0
M  V30 19899 C 1922.01 1.00001 -1.25923 0
M  V30 19900 O 1923.2 0.883884 -1.5011 0
M  V30 19901 C 1920.34 1.63185 -2.99305 0
M  V30 19902 H 1921.53 -0.176358 -2.99381 0
M  V30 19903 H 1919.08 -0.12933 -1.55764 0
M  V30 19904 H 1919.82 2.29718 -2.2891 0
M  V30 19905 H 1919.6 1.24517 -3.71804 0
M  V30 19906 H 1921.09 2.2188 -3.53778 0
M  V30 19907 N 1921.53 1.57237 -0.106922 0
M  V30 19908 C 1922.81 1.8627 0.596889 0
M  V30 19909 C 1923.19 1.00593 1.85591 0
M  V30 19910 O 1922.54 0.0815394 2.28354 0
M  V30 19911 C 1922.75 3.37171 0.900934 0
M  V30 19912 C 1924.09 4.05497 1.25926 0
M  V30 19913 O 1925.12 3.4212 0.99158 0
M  V30 19914 O 1923.98 5.17347 1.76109 0
M  V30 19915 H 1921.07 0.770704 0.299907 0
M  V30 19916 H 1923.62 1.69117 -0.140513 0
M  V30 19917 H 1922.39 3.91299 0.00823337 0
M  V30 19918 H 1922.01 3.59712 1.69391 0
M  V30 19919 N 1923.01 -0.166818 1.56715 0
M  V30 19920 C 1924.42 -0.728845 1.71886 0
M  V30 19921 C 1924.77 -1.82584 0.718168 0
M  V30 19922 O 1923.9 -2.1607 -0.119503 0
M  V30 19923 C 1924.49 -1.32885 3.11652 0
M  V30 19924 C 1923.05 -1.83766 3.28492 0
M  V30 19925 C 1922.2 -0.718371 2.67833 0
M  V30 19926 H 1925.15 0.0586298 1.58592 0
M  V30 19927 H 1925.17 -2.19858 3.10552 0
M  V30 19928 H 1924.68 -0.530219 3.84461 0
M  V30 19929 H 1922.78 -2.66259 2.60647 0
M  V30 19930 H 1922.89 -1.98 4.36271 0
M  V30 19931 H 1921.26 -1.13996 2.27765 0
M  V30 19932 H 1922.04 0.0684914 3.43232 0
M  V30 19933 N 1924.49 -1.51463 -0.435524 0
M  V30 19934 C 1925.45 -1.72315 -1.51129 0
M  V30 19935 C 1926.45 -0.593161 -1.4946 0
M  V30 19936 O 1927.64 -0.860731 -1.5145 0
M  V30 19937 C 1924.77 -1.78127 -2.9066 0
M  V30 19938 H 1925.96 -2.68327 -1.33943 0
M  V30 19939 H 1923.52 -1.4148 -0.664317 0
M  V30 19940 H 1924.25 -0.839367 -3.13249 0
M  V30 19941 H 1924.04 -2.60252 -2.93277 0
M  V30 19942 H 1925.53 -1.96093 -3.68697 0
M  V30 19943 N 1925.96 0.691085 -1.4164 0
M  V30 19944 C 1927.38 1.27116 -1.36742 0
M  V30 19945 C 1927.73 1.96129 -0.0526953 0
M  V30 19946 O 1926.85 1.99052 0.848953 0
M  V30 19947 C 1927.45 2.31171 -2.4768 0
M  V30 19948 C 1926.01 2.84744 -2.46166 0
M  V30 19949 C 1925.15 1.58841 -2.27299 0
M  V30 19950 H 1928.1 0.485541 -1.5109 0
M  V30 19951 H 1928.12 3.12559 -2.16996 0
M  V30 19952 H 1927.64 1.80913 -3.43354 0
M  V30 19953 H 1925.74 3.39167 -1.54262 0
M  V30 19954 H 1925.85 3.34869 -3.42636 0
M  V30 19955 H 1924.21 1.84815 -1.75258 0
M  V30 19956 H 1925 1.10573 -3.25005 0
M  V30 19957 N 1927.44 1.27542 0.925789 0
M  V30 19958 C 1928.67 1.16921 1.71301 0
M  V30 19959 C 1929.09 -0.270082 1.86151 0
M  V30 19960 O 1928.45 -1.19558 1.36293 0
M  V30 19961 C 1928.5 1.8599 3.08934 0
M  V30 19962 O 1927.6 1.15917 3.95774 0
M  V30 19963 H 1926.94 0.406542 0.524995 0
M  V30 19964 H 1929.47 1.68646 1.15843 0
M  V30 19965 H 1929.48 1.93424 3.59237 0
M  V30 19966 H 1928.16 2.9069 2.97443 0
M  V30 19967 H 1926.74 1.16564 3.54213 0
M  V30 19968 N 1928.92 -1.13255 1.09595 0
M  V30 19969 C 1929.88 -2.16909 0.740481 0
M  V30 19970 C 1930.88 -1.59135 -0.230794 0
M  V30 19971 O 1932.07 -1.74198 -0.00875551 0
M  V30 19972 C 1929.21 -3.40767 0.0953504 0
M  V30 19973 H 1930.4 -2.49869 1.65848 0
M  V30 19974 H 1927.95 -1.28113 0.895358 0
M  V30 19975 H 1928.69 -3.13398 -0.833794 0
M  V30 19976 H 1928.47 -3.83972 0.794247 0
M  V30 19977 H 1929.96 -4.17372 -0.137892 0
M  V30 19978 N 1930.4 -0.883401 -1.30514 0
M  V30 19979 C 1931.33 -0.36516 -2.30627 0
M  V30 19980 C 1932.31 0.551149 -1.60923 0
M  V30 19981 O 1933.49 0.465333 -1.88543 0
M  V30 19982 C 1930.62 0.422552 -3.4472 0
M  V30 19983 C 1929.58 -0.401856 -4.26109 0
M  V30 19984 C 1928.9 0.512363 -5.3224 0
M  V30 19985 C 1930.2 -1.64313 -4.95781 0
M  V30 19986 H 1931.9 -1.20175 -2.74223 0
M  V30 19987 H 1929.44 -0.579315 -1.31833 0
M  V30 19988 H 1931.4 0.795726 -4.13819 0
M  V30 19989 H 1930.12 1.29278 -2.99925 0
M  V30 19990 H 1928.78 -0.75715 -3.58696 0
M  V30 19991 H 1928.43 1.38025 -4.83692 0
M  V30 19992 H 1928.13 -0.0354331 -5.87589 0
M  V30 19993 H 1929.65 0.882088 -6.04195 0
M  V30 19994 H 1931.07 -1.34063 -5.57405 0
M  V30 19995 H 1929.46 -2.13101 -5.60989 0
M  V30 19996 H 1930.53 -2.38843 -4.21998 0
M  V30 19997 N 1931.88 1.43833 -0.644194 0
M  V30 19998 C 1933.12 2.01515 -0.153623 0
M  V30 19999 C 1933.45 1.51022 1.23358 0
M  V30 20000 O 1932.72 0.719137 1.82223 0
M  V30 20001 H 1931.3 0.74506 -0.053802 0
M  V30 20002 H 1933.96 1.76163 -0.833833 0
M  V30 20003 H 1933.05 3.11824 -0.131313 0
M  V30 20004 N 1933.35 0.385544 1.52811 0
M  V30 20005 C 1934.58 -0.200568 2.06428 0
M  V30 20006 C 1935 -1.40049 1.2557 0
M  V30 20007 O 1934.36 -1.79128 0.279782 0
M  V30 20008 C 1934.41 -0.552623 3.5634 0
M  V30 20009 O 1933.51 -1.64711 3.7808 0
M  V30 20010 H 1932.86 -0.0244676 0.663549 0
M  V30 20011 H 1935.39 0.551927 1.97015 0
M  V30 20012 H 1935.4 -0.817996 3.99716 0
M  V30 20013 H 1934.07 0.324665 4.14631 0
M  V30 20014 H 1932.65 -1.37574 3.46595 0
M  V30 20015 N 1934.83 -1.57178 0.115259 0
M  V30 20016 C 1935.8 -2.13953 -0.821982 0
M  V30 20017 C 1936.8 -1.07352 -1.19717 0
M  V30 20018 O 1937.99 -1.33146 -1.12329 0
M  V30 20019 C 1935.12 -2.6767 -2.11106 0
M  V30 20020 H 1936.31 -2.98094 -0.328631 0
M  V30 20021 H 1933.86 -1.55725 -0.133942 0
M  V30 20022 H 1934.6 -1.87106 -2.6488 0
M  V30 20023 H 1934.38 -3.4563 -1.85155 0
M  V30 20024 H 1935.87 -3.11519 -2.78111 0
M  V30 20025 N 1936.31 0.158505 -1.56801 0
M  V30 20026 C 1937.59 0.901061 -1.73609 0
M  V30 20027 C 1937.97 1.99842 -0.680163 0
M  V30 20028 O 1937.32 2.26484 0.302892 0
M  V30 20029 C 1937.53 1.45407 -3.17266 0
M  V30 20030 C 1938.87 1.92199 -3.78609 0
M  V30 20031 O 1939.9 1.55173 -3.20624 0
M  V30 20032 O 1938.76 2.60443 -4.80449 0
M  V30 20033 H 1935.85 0.425009 -0.709434 0
M  V30 20034 H 1938.4 0.14533 -1.69077 0
M  V30 20035 H 1937.17 0.664882 -3.8561 0
M  V30 20036 H 1936.79 2.27363 -3.26178 0
M  V30 20037 N 1937.79 1.51692 0.427485 0
M  V30 20038 C 1938.72 1.76668 1.52679 0
M  V30 20039 C 1939.7 0.616865 1.58521 0
M  V30 20040 O 1940.89 0.860595 1.7409 0
M  V30 20041 C 1938.02 1.9007 2.90673 0
M  V30 20042 C 1936.97 3.05566 2.99689 0
M  V30 20043 C 1936.3 3.04165 4.39759 0
M  V30 20044 C 1937.6 4.45359 2.72861 0
M  V30 20045 H 1939.29 2.68717 1.32029 0
M  V30 20046 H 1936.84 1.29306 0.633716 0
M  V30 20047 H 1938.79 2.06125 3.67546 0
M  V30 20048 H 1937.51 0.946769 3.12576 0
M  V30 20049 H 1936.17 2.89231 2.25257 0
M  V30 20050 H 1935.82 2.0653 4.58644 0
M  V30 20051 H 1935.52 3.81727 4.46719 0
M  V30 20052 H 1937.04 3.22326 5.18592 0
M  V30 20053 H 1938.46 4.61993 3.39463 0
M  V30 20054 H 1936.85 5.24701 2.91219 0
M  V30 20055 H 1937.92 4.54717 1.68405 0
M  V30 20056 N 1939.27 -0.683564 1.42004 0
M  V30 20057 C 1940.2 -1.8095 1.47578 0
M  V30 20058 C 1941.18 -1.66804 0.333208 0
M  V30 20059 O 1942.36 -1.86357 0.546314 0
M  V30 20060 C 1939.49 -3.19182 1.36895 0
M  V30 20061 C 1938.45 -3.4805 2.49089 0
M  V30 20062 C 1937.77 -4.85764 2.23467 0
M  V30 20063 C 1939.07 -3.4582 3.91415 0
M  V30 20064 H 1940.77 -1.76543 2.41812 0
M  V30 20065 H 1938.31 -0.84794 1.16387 0
M  V30 20066 H 1940.27 -3.97674 1.39404 0
M  V30 20067 H 1938.99 -3.24245 0.391513 0
M  V30 20068 H 1937.65 -2.71915 2.45882 0
M  V30 20069 H 1937.3 -4.87467 1.24037 0
M  V30 20070 H 1937 -5.06043 2.98654 0
M  V30 20071 H 1938.52 -5.66551 2.27711 0
M  V30 20072 H 1939.94 -4.14297 3.96272 0
M  V30 20073 H 1938.33 -3.77633 4.66383 0
M  V30 20074 H 1939.4 -2.4456 4.1871 0
M  V30 20075 N 1940.75 -1.28031 -0.919012 0
M  V30 20076 C 1941.99 -1.15048 -1.67008 0
M  V30 20077 C 1942.32 0.301301 -1.91848 0
M  V30 20078 O 1941.6 1.21964 -1.51509 0
M  V30 20079 C 1941.88 -1.94388 -3.03126 0
M  V30 20080 C 1941.74 -3.476 -2.85473 0
M  V30 20081 C 1943.05 -1.75517 -4.03586 0
M  V30 20082 H 1940.17 -0.419311 -0.606091 0
M  V30 20083 H 1942.82 -1.57287 -1.06587 0
M  V30 20084 H 1940.97 -1.58493 -3.547 0
M  V30 20085 H 1942.64 -3.93372 -2.40949 0
M  V30 20086 H 1940.88 -3.73499 -2.20637 0
M  V30 20087 H 1941.55 -3.98365 -3.82111 0
M  V30 20088 H 1944.03 -2.06832 -3.61054 0
M  V30 20089 H 1942.9 -2.33411 -4.968 0
M  V30 20090 H 1943.16 -0.705309 -4.36438 0
M  V30 20091 N 1942.22 1.12672 -1.10194 0
M  V30 20092 C 1943.46 1.85769 -0.852599 0
M  V30 20093 C 1943.83 1.82027 0.610749 0
M  V30 20094 O 1945.03 2.50442 0.976339 0
M  V30 20095 C 1943.3 3.29565 -1.38281 0
M  V30 20096 S 1944.86 4.20064 -1.26853 0
M  V30 20097 H 1941.68 0.64075 -0.308157 0
M  V30 20098 H 1944.28 1.35746 -1.40689 0
M  V30 20099 H 1942.98 3.29846 -2.44192 0
M  V30 20100 H 1942.51 3.84652 -0.824994 0
M  V30 20101 H 1944.53 4.95691 -0.224588 0
M  V30 20102 N 1943.7 0.89031 1.30043 0
M  V30 20103 C 1944.65 0.35066 2.29942 0
M  V30 20104 C 1945.64 -0.545188 1.60387 0
M  V30 20105 O 1946.85 -0.42903 1.74812 0
M  V30 20106 H 1943.22 0.0947502 0.746007 0
M  V30 20107 H 1945.2 1.20676 2.7291 0
M  V30 20108 C 1943.94 -0.415088 3.45213 0
M  V30 20109 H 1943.27 0.265007 3.98921 0
M  V30 20110 H 1944.71 -0.757694 4.17175 0
M  V30 20111 C 1943.17 -1.6142 2.95711 0
M  V30 20112 O 1943.7 -2.71355 2.96191 0
M  V30 20113 N 1941.9 -1.45317 2.51657 0
M  V30 20114 H 1941.45 -0.558807 2.51466 0
M  V30 20115 H 1941.41 -2.25683 2.18894 0
M  V30 20116 N 1945.18 -1.43489 0.651812 0
M  V30 20117 C 1946.42 -2.03707 0.168214 0
M  V30 20118 C 1946.78 -1.50302 -1.19471 0
M  V30 20119 O 1947.98 -2.02154 -1.77164 0
M  V30 20120 C 1946.26 -3.56964 0.176447 0
M  V30 20121 S 1947.81 -4.38146 -0.239511 0
M  V30 20122 H 1944.63 -0.70742 0.0712573 0
M  V30 20123 H 1947.23 -1.75577 0.859833 0
M  V30 20124 H 1945.94 -3.93335 1.17115 0
M  V30 20125 H 1945.47 -3.89735 -0.535755 0
M  V30 20126 H 1947.48 -4.73654 -1.47874 0
M  V30 20127 N 1946.66 -0.393643 -1.52605 0
M  V30 20128 C 1947.62 0.427358 -2.25181 0
M  V30 20129 C 1948.62 0.986595 -1.26976 0
M  V30 20130 O 1949.81 0.867913 -1.51039 0
M  V30 20131 C 1946.94 1.60001 -3.01019 0
M  V30 20132 H 1948.14 -0.208101 -2.99177 0
M  V30 20133 H 1945.69 -0.145844 -1.55618 0
M  V30 20134 H 1946.42 2.27278 -2.31334 0
M  V30 20135 H 1946.21 1.20567 -3.73103 0
M  V30 20136 H 1947.7 2.18115 -3.56112 0
M  V30 20137 N 1948.14 1.57115 -0.123593 0
M  V30 20138 C 1949.38 1.95641 0.534082 0
M  V30 20139 C 1949.71 1.00726 1.66036 0
M  V30 20140 O 1948.99 0.045312 1.94447 0
M  V30 20141 C 1949.27 3.4407 1.06244 0
M  V30 20142 C 1949.13 4.49759 -0.0607321 0
M  V30 20143 C 1950.44 3.94451 1.95183 0
M  V30 20144 H 1947.56 0.71137 0.19267 0
M  V30 20145 H 1950.21 1.88944 -0.200083 0
M  V30 20146 H 1948.36 3.49909 1.68808 0
M  V30 20147 H 1950.03 4.56016 -0.69621 0
M  V30 20148 H 1948.27 4.27729 -0.723232 0
M  V30 20149 H 1948.94 5.50888 0.350271 0
M  V30 20150 H 1951.42 3.90945 1.42483 0
M  V30 20151 H 1950.29 4.98817 2.29069 0
M  V30 20152 H 1950.55 3.35417 2.88007 0
M  V30 20153 N 1949.61 -0.150187 1.56883 0
M  V30 20154 C 1950.58 -1.16943 1.97122 0
M  V30 20155 C 1951.58 -1.36037 0.857354 0
M  V30 20156 O 1952.77 -1.33083 1.12403 0
M  V30 20157 C 1949.9 -2.53037 2.2844 0
M  V30 20158 H 1951.09 -0.824297 2.88349 0
M  V30 20159 H 1948.64 -0.393414 1.51268 0
M  V30 20160 H 1949.38 -2.92527 1.39994 0
M  V30 20161 H 1949.16 -2.4054 3.0965 0
M  V30 20162 H 1950.65 -3.26452 2.6042 0
M  V30 20163 N 1951.09 -1.51916 -0.419434 0
M  V30 20164 C 1952.06 -1.73908 -1.49293 0
M  V30 20165 C 1953.06 -0.60898 -1.48822 0
M  V30 20166 O 1954.25 -0.876745 -1.50528 0
M  V30 20167 C 1951.38 -1.812 -2.88755 0
M  V30 20168 H 1952.57 -2.69732 -1.3109 0
M  V30 20169 H 1950.12 -1.42176 -0.649274 0
M  V30 20170 H 1950.86 -0.872544 -3.12341 0
M  V30 20171 H 1950.64 -2.63348 -2.905 0
M  V30 20172 H 1952.13 -1.99992 -3.66596 0
M  V30 20173 N 1952.57 0.676023 -1.42365 0
M  V30 20174 C 1953.5 1.80165 -1.48536 0
M  V30 20175 C 1954.48 1.66625 -0.342049 0
M  V30 20176 O 1955.67 1.86065 -0.55619 0
M  V30 20177 C 1952.8 3.18451 -1.38586 0
M  V30 20178 C 1951.75 3.46724 -2.50931 0
M  V30 20179 C 1951.08 4.84572 -2.2604 0
M  V30 20180 C 1952.38 3.4374 -3.93243 0
M  V30 20181 H 1954.07 1.75258 -2.42745 0
M  V30 20182 H 1951.62 0.841756 -1.16835 0
M  V30 20183 H 1953.57 3.96929 -1.41511 0
M  V30 20184 H 1952.29 3.24033 -0.408703 0
M  V30 20185 H 1950.95 2.70607 -2.47321 0
M  V30 20186 H 1950.6 4.86802 -1.2662 0
M  V30 20187 H 1950.3 5.04452 -3.01334 0
M  V30 20188 H 1951.82 5.65336 -2.30712 0
M  V30 20189 H 1953.24 4.12189 -3.98463 0
M  V30 20190 H 1951.64 3.75155 -4.68379 0
M  V30 20191 H 1952.71 2.42337 -4.20001 0
M  V30 20192 N 1954.05 1.28517 0.912209 0
M  V30 20193 C 1955.3 1.15532 1.65822 0
M  V30 20194 C 1955.62 -0.296177 1.92738 0
M  V30 20195 O 1954.89 -1.20492 1.54462 0
M  V30 20196 H 1953.47 0.424573 0.614611 0
M  V30 20197 H 1956.13 1.61267 1.09448 0
M  V30 20198 H 1955.23 1.69606 2.61993 0
M  V30 20199 N 1955.53 -1.12086 1.1079 0
M  V30 20200 C 1956.8 -1.80039 0.764549 0
M  V30 20201 C 1957.18 -1.97387 -0.748429 0
M  V30 20202 O 1956.53 -1.55315 -1.67599 0
M  V30 20203 C 1956.74 -3.14168 1.51985 0
M  V30 20204 C 1958.09 -3.89311 1.69476 0
M  V30 20205 O 1959.11 -3.23836 1.48354 0
M  V30 20206 O 1957.97 -5.06786 2.04524 0
M  V30 20207 H 1955.07 -0.779498 0.276246 0
M  V30 20208 H 1957.61 -1.18889 1.21093 0
M  V30 20209 H 1956.38 -2.96854 2.54938 0
M  V30 20210 H 1956.01 -3.83027 1.06658 0
M  V30 20211 N 1957 -0.897194 -1.29569 0
M  V30 20212 C 1958.42 -0.570676 -1.77764 0
M  V30 20213 C 1958.77 0.913595 -1.73631 0
M  V30 20214 O 1957.89 1.71426 -1.32068 0
M  V30 20215 C 1958.49 -1.02914 -3.22791 0
M  V30 20216 C 1957.05 -0.753828 -3.68774 0
M  V30 20217 C 1956.19 -1.20525 -2.49738 0
M  V30 20218 H 1959.14 -1.08018 -1.16266 0
M  V30 20219 H 1959.16 -0.363343 -3.78761 0
M  V30 20220 H 1958.68 -2.10944 -3.25767 0
M  V30 20221 H 1956.78 0.313965 -3.71275 0
M  V30 20222 H 1956.89 -1.34995 -4.59688 0
M  V30 20223 H 1955.25 -0.624304 -2.4693 0
M  V30 20224 H 1956.04 -2.29355 -2.55443 0
M  V30 20225 N 1958.48 1.43142 -0.659413 0
M  V30 20226 C 1959.45 2.29192 0.0190393 0
M  V30 20227 C 1960.45 1.42532 0.744404 0
M  V30 20228 O 1961.64 1.64093 0.584722 0
M  V30 20229 C 1958.77 3.24723 1.03769 0
M  V30 20230 H 1959.96 2.90674 -0.738166 0
M  V30 20231 H 1957.51 1.50525 -0.420956 0
M  V30 20232 H 1958.25 2.68149 1.82392 0
M  V30 20233 H 1958.03 3.88621 0.52115 0
M  V30 20234 H 1959.52 3.89294 1.5113 0
M  V30 20235 N 1959.96 0.40173 1.52394 0
M  V30 20236 C 1961.19 -0.178662 2.06629 0
M  V30 20237 C 1961.61 -1.3871 1.27048 0
M  V30 20238 O 1960.97 -1.78821 0.298765 0
M  V30 20239 C 1961.02 -0.514797 3.56906 0
M  V30 20240 O 1960.12 -1.60691 3.79805 0
M  V30 20241 H 1959.46 -0.0174284 0.663771 0
M  V30 20242 H 1961.99 0.572792 1.96419 0
M  V30 20243 H 1962 -0.775554 4.00561 0
M  V30 20244 H 1960.68 0.368624 4.14263 0
M  V30 20245 H 1959.25 -1.3389 3.48034 0
M  V30 20246 N 1961.44 -1.57047 0.131923 0
M  V30 20247 C 1962.4 -2.14813 -0.799243 0
M  V30 20248 C 1963.4 -1.08616 -1.18572 0
M  V30 20249 O 1964.59 -1.3433 -1.10911 0
M  V30 20250 C 1961.72 -2.69894 -2.08255 0
M  V30 20251 H 1962.92 -2.98426 -0.296996 0
M  V30 20252 H 1960.47 -1.55858 -0.117418 0
M  V30 20253 H 1961.2 -1.89905 -2.62881 0
M  V30 20254 H 1960.99 -3.47574 -1.81479 0
M  V30 20255 H 1962.48 -3.14451 -2.74792 0
M  V30 20256 N 1962.92 0.141865 -1.5696 0
M  V30 20257 C 1963.85 1.17667 -2.01685 0
M  V30 20258 C 1964.83 1.44509 -0.897282 0
M  V30 20259 O 1966.01 1.55342 -1.16544 0
M  V30 20260 C 1963.14 2.50859 -2.40182 0
M  V30 20261 C 1962.1 2.38527 -3.55371 0
M  V30 20262 C 1961.42 3.76476 -3.79697 0
M  V30 20263 C 1962.72 1.86502 -4.87867 0
M  V30 20264 H 1964.42 0.804761 -2.88382 0
M  V30 20265 H 1961.96 0.385672 -1.38739 0
M  V30 20266 H 1963.92 3.2348 -2.70071 0
M  V30 20267 H 1962.64 2.89895 -1.50428 0
M  V30 20268 H 1961.3 1.68357 -3.25656 0
M  V30 20269 H 1960.95 4.12957 -2.87186 0
M  V30 20270 H 1960.65 3.69085 -4.5722 0
M  V30 20271 H 1962.17 4.50638 -4.12017 0
M  V30 20272 H 1963.58 2.48921 -5.16441 0
M  V30 20273 H 1961.98 1.89989 -5.69231 0
M  V30 20274 H 1963.05 0.821025 -4.77899 0
M  V30 20275 N 1964.39 1.52136 0.411372 0
M  V30 20276 C 1965.62 1.70223 1.18486 0
M  V30 20277 C 1966.04 0.409966 1.83578 0
M  V30 20278 O 1965.4 -0.632366 1.69914 0
M  V30 20279 C 1965.45 2.83744 2.22535 0
M  V30 20280 O 1964.55 2.49157 3.28625 0
M  V30 20281 H 1963.9 0.566741 0.345978 0
M  V30 20282 H 1966.43 1.98829 0.482526 0
M  V30 20283 H 1966.44 3.08591 2.669 0
M  V30 20284 H 1965.11 3.77503 1.74541 0
M  V30 20285 H 1963.69 2.34974 2.89554 0
M  V30 20286 N 1965.87 -0.668464 1.42721 0
M  V30 20287 C 1966.82 -1.80311 1.46938 0
M  V30 20288 C 1967.82 -1.65861 0.344463 0
M  V30 20289 O 1969.02 -1.72392 0.517768 0
M  V30 20290 H 1965.4 -0.59464 0.460333 0
M  V30 20291 H 1967.37 -1.73872 2.4251 0
M  V30 20292 C 1966.12 -3.18498 1.3948 0
M  V30 20293 H 1965.44 -3.30246 2.25338 0
M  V30 20294 H 1966.88 -3.9789 1.46492 0
M  V30 20295 C 1965.34 -3.36719 0.110386 0
M  V30 20296 O 1965.87 -3.92939 -0.834354 0
M  V30 20297 N 1964.07 -2.90589 0.0254882 0
M  V30 20298 H 1963.62 -2.45023 0.795077 0
M  V30 20299 H 1963.58 -3.03158 -0.833236 0
M  V30 20300 N 1967.35 -1.28999 -0.905381 0
M  V30 20301 C 1968.28 -1.07966 -2.01044 0
M  V30 20302 C 1969.26 0.00678474 -1.62599 0
M  V30 20303 O 1970.45 -0.142798 -1.87958 0
M  V30 20304 C 1967.57 -0.642417 -3.32552 0
M  V30 20305 C 1966.62 -1.72673 -3.89982 0
M  V30 20306 S 1967.45 -3.32466 -4.19794 0
M  V30 20307 C 1968.61 -2.90596 -5.54351 0
M  V30 20308 H 1968.84 -2.01523 -2.18576 0
M  V30 20309 H 1966.37 -1.13081 -1.05128 0
M  V30 20310 H 1968.33 -0.396855 -4.08577 0
M  V30 20311 H 1966.99 0.273463 -3.12907 0
M  V30 20312 H 1966.19 -1.37261 -4.84949 0
M  V30 20313 H 1965.79 -1.92552 -3.20624 0
M  V30 20314 H 1968.08 -2.37288 -6.34587 0
M  V30 20315 H 1969.02 -3.84392 -5.94683 0
M  V30 20316 H 1969.43 -2.2906 -5.15938 0
M  V30 20317 N 1968.83 1.11497 -1.11383 0
M  V30 20318 C 1970.08 1.83494 -0.863592 0
M  V30 20319 C 1970.41 1.84395 0.609259 0
M  V30 20320 O 1969.68 1.2966 1.44978 0
M  V30 20321 C 1969.97 3.30701 -1.42509 0
M  V30 20322 C 1969.82 3.38197 -2.96552 0
M  V30 20323 C 1971.14 4.26756 -1.07553 0
M  V30 20324 H 1968.26 0.666209 -0.315173 0
M  V30 20325 H 1970.9 1.30745 -1.37861 0
M  V30 20326 H 1969.05 3.75752 -0.987053 0
M  V30 20327 H 1970.72 3.01709 -3.48955 0
M  V30 20328 H 1968.96 2.78436 -3.3265 0
M  V30 20329 H 1969.64 4.41804 -3.30927 0
M  V30 20330 H 1972.11 3.89882 -1.45367 0
M  V30 20331 H 1970.99 5.28143 -1.49519 0
M  V30 20332 H 1971.25 4.42098 0.0137773 0
M  V30 20333 N 1970.31 0.904053 1.29092 0
M  V30 20334 C 1971.27 0.389889 2.25859 0
M  V30 20335 C 1972.27 -0.47836 1.5352 0
M  V30 20336 O 1973.46 -0.282793 1.71889 0
M  V30 20337 C 1970.59 -0.442126 3.38021 0
M  V30 20338 H 1971.79 1.24458 2.72856 0
M  V30 20339 H 1969.34 0.68258 1.40608 0
M  V30 20340 H 1970.07 -1.31662 2.96371 0
M  V30 20341 H 1969.86 0.180067 3.91686 0
M  V30 20342 H 1971.35 -0.793021 4.10001 0
M  V30 20343 N 1971.79 -1.4279 0.666995 0
M  V30 20344 C 1972.75 -2.29199 -0.00688445 0
M  V30 20345 C 1973.75 -1.42924 -0.736835 0
M  V30 20346 O 1974.94 -1.64401 -0.576011 0
M  V30 20347 C 1972.07 -3.25268 -1.02046 0
M  V30 20348 H 1973.26 -2.90278 0.753571 0
M  V30 20349 H 1970.82 -1.50299 0.428933 0
M  V30 20350 H 1971.55 -2.69112 -1.80967 0
M  V30 20351 H 1971.34 -3.88892 -0.500533 0
M  V30 20352 H 1972.83 -3.9009 -1.49063 0
M  V30 20353 N 1973.26 -0.409806 -1.52179 0
M  V30 20354 C 1974.19 0.406421 -2.29936 0
M  V30 20355 C 1975.17 1.04553 -1.34174 0
M  V30 20356 O 1976.36 1.05441 -1.63082 0
M  V30 20357 C 1973.49 1.52297 -3.12127 0
M  V30 20358 C 1972.44 1.00883 -4.15941 0
M  V30 20359 C 1971.77 2.21903 -4.8648 0
M  V30 20360 C 1973.07 0.0623996 -5.22263 0
M  V30 20361 H 1974.76 -0.242406 -2.98417 0
M  V30 20362 H 1972.31 -0.118023 -1.43516 0
M  V30 20363 H 1974.26 2.10097 -3.65291 0
M  V30 20364 H 1972.99 2.19968 -2.41416 0
M  V30 20365 H 1971.65 0.453228 -3.63788 0
M  V30 20366 H 1971.29 2.88131 -4.12298 0
M  V30 20367 H 1970.99 1.88153 -5.56662 0
M  V30 20368 H 1972.52 2.80308 -5.42457 0
M  V30 20369 H 1973.93 0.549223 -5.70663 0
M  V30 20370 H 1972.33 -0.186317 -5.99811 0
M  V30 20371 H 1973.4 -0.882673 -4.76799 0
M  V30 20372 N 1974.74 1.56975 -0.14025 0
M  V30 20373 C 1976.16 1.58129 0.216215 0
M  V30 20374 C 1976.36 1.15417 1.6517 0
M  V30 20375 O 1975.41 0.851345 2.37715 0
M  V30 20376 C 1976.73 3.00678 -0.0364108 0
M  V30 20377 C 1978.27 3.12988 0.0278286 0
M  V30 20378 C 1978.75 4.57574 -0.197378 0
M  V30 20379 N 1980.24 4.62976 -0.144073 0
M  V30 20380 C 1980.98 5.72651 -0.292931 0
M  V30 20381 N 1980.47 6.91 -0.499138 0
M  V30 20382 N 1982.26 5.61625 -0.231008 0
M  V30 20383 H 1974.42 1.83033 -1.07762 0
M  V30 20384 H 1976.68 0.846871 -0.426044 0
M  V30 20385 H 1976.38 3.36291 -1.02963 0
M  V30 20386 H 1976.26 3.70909 0.686026 0
M  V30 20387 H 1978.65 2.7722 1.01159 0
M  V30 20388 H 1978.73 2.45257 -0.726829 0
M  V30 20389 H 1978.37 4.94045 -1.17821 0
M  V30 20390 H 1978.3 5.23424 0.577522 0
M  V30 20391 H 1980.79 3.77898 0.0109252 0
M  V30 20392 H 1981.1 7.70444 -0.603012 0
M  V30 20393 H 1979.45 6.92935 -0.535376 0
M  V30 20394 H 1982.64 4.68047 -0.0707224 0
M  V30 20395 H 1982.81 6.47052 -0.350455 0
M  V30 20396 N 1976.22 -0.133539 1.57033 0
M  V30 20397 C 1977.13 -1.18362 2.02553 0
M  V30 20398 C 1978.15 -1.46212 0.943294 0
M  V30 20399 O 1979.32 -1.57616 1.25376 0
M  V30 20400 C 1976.39 -2.49391 2.40842 0
M  V30 20401 C 1975.45 -2.29068 3.63079 0
M  V30 20402 C 1974.68 -3.53849 3.99533 0
M  V30 20403 O 1974.9 -4.60576 3.36491 0
M  V30 20404 O 1973.84 -3.45713 4.92713 0
M  V30 20405 H 1977.66 -0.827128 2.9222 0
M  V30 20406 H 1975.25 -0.343267 1.45403 0
M  V30 20407 H 1977.13 -3.26617 2.66269 0
M  V30 20408 H 1975.81 -2.84544 1.54326 0
M  V30 20409 H 1974.71 -1.49749 3.42821 0
M  V30 20410 H 1976.05 -1.98826 4.50254 0
M  V30 20411 N 1977.7 -1.52352 -0.403298 0
M  V30 20412 C 1978.95 -1.66368 -1.14744 0
M  V30 20413 C 1979.27 -0.398899 -1.90876 0
M  V30 20414 O 1978.54 0.586372 -1.86918 0
M  V30 20415 H 1977.12 -0.613226 -0.426571 0
M  V30 20416 H 1979.78 -1.89416 -0.459075 0
M  V30 20417 H 1978.87 -2.50748 -1.85828 0
M  V30 20418 N 1979.18 0.660885 -1.43074 0
M  V30 20419 C 1980.42 1.41805 -1.43999 0
M  V30 20420 C 1980.74 1.949 -0.0625341 0
M  V30 20421 O 1980.01 1.7395 0.901019 0
M  V30 20422 H 1978.59 0.526263 -0.530147 0
M  V30 20423 H 1981.26 0.779967 -1.78613 0
M  V30 20424 H 1980.35 2.2642 -2.14803 0
M  V30 20425 N 1980.65 1.29477 0.898527 0
M  V30 20426 C 1981.9 1.17516 1.64913 0
M  V30 20427 C 1982.23 -0.273086 1.92573 0
M  V30 20428 O 1981.48 -1.21353 1.53531 0
M  V30 20429 C 1981.78 1.93505 3.00484 0
M  V30 20430 C 1981.45 3.43216 2.92427 0
M  V30 20431 C 1980.11 3.84044 2.89937 0
M  V30 20432 C 1982.46 4.38611 2.81548 0
M  V30 20433 C 1979.79 5.18582 2.74389 0
M  V30 20434 C 1982.14 5.73241 2.67539 0
M  V30 20435 C 1980.81 6.13326 2.63416 0
M  V30 20436 H 1980.08 0.430023 0.603458 0
M  V30 20437 H 1982.72 1.60427 1.04572 0
M  V30 20438 H 1981.03 1.43189 3.64698 0
M  V30 20439 H 1982.73 1.81654 3.57495 0
M  V30 20440 H 1979.32 3.10763 2.95168 0
M  V30 20441 H 1983.5 4.0802 2.82548 0
M  V30 20442 H 1978.76 5.48748 2.69602 0
M  V30 20443 H 1982.93 6.46808 2.58093 0
M  V30 20444 H 1980.56 7.17523 2.51126 0
M  V30 20445 N 1982.13 -1.10905 1.11972 0
M  V30 20446 C 1983.06 -2.19168 0.805461 0
M  V30 20447 C 1984.04 -1.68557 -0.228623 0
M  V30 20448 O 1985.23 -1.93987 -0.0908778 0
M  V30 20449 C 1982.36 -3.4637 0.253951 0
M  V30 20450 C 1981.31 -4.10228 1.22054 0
M  V30 20451 C 1980.64 -5.32072 0.529483 0
M  V30 20452 C 1981.94 -4.54506 2.57336 0
M  V30 20453 H 1983.63 -2.45713 1.71071 0
M  V30 20454 H 1981.18 -1.18096 0.823969 0
M  V30 20455 H 1983.13 -4.21394 0.0218576 0
M  V30 20456 H 1981.86 -3.19301 -0.68662 0
M  V30 20457 H 1980.51 -3.37204 1.43836 0
M  V30 20458 H 1980.16 -5.01276 -0.416074 0
M  V30 20459 H 1979.86 -5.75748 1.17422 0
M  V30 20460 H 1981.39 -6.09831 0.306313 0
M  V30 20461 H 1982.8 -5.20826 2.3961 0
M  V30 20462 H 1981.2 -5.09015 3.17842 0
M  V30 20463 H 1982.27 -3.67671 3.16143 0
M  V30 20464 N 1983.61 -0.910886 -1.2861 0
M  V30 20465 C 1984.54 -0.413998 -2.29801 0
M  V30 20466 C 1985.52 0.51689 -1.62056 0
M  V30 20467 O 1986.71 0.425236 -1.89487 0
M  V30 20468 C 1983.84 0.349336 -3.45539 0
M  V30 20469 C 1982.79 -0.49215 -4.25161 0
M  V30 20470 C 1982.12 0.399352 -5.33207 0
M  V30 20471 C 1983.42 -1.74792 -4.92184 0
M  V30 20472 H 1985.11 -1.25965 -2.71612 0
M  V30 20473 H 1982.66 -0.607149 -1.30575 0
M  V30 20474 H 1984.61 0.70777 -4.15414 0
M  V30 20475 H 1983.33 1.22887 -3.02599 0
M  V30 20476 H 1981.99 -0.833064 -3.57009 0
M  V30 20477 H 1981.64 1.27734 -4.86511 0
M  V30 20478 H 1981.34 -0.160062 -5.87382 0
M  V30 20479 H 1982.86 0.753731 -6.0593 0
M  V30 20480 H 1984.28 -1.45856 -5.54436 0
M  V30 20481 H 1982.68 -2.24952 -5.56342 0
M  V30 20482 H 1983.75 -2.4774 -4.16837 0
M  V30 20483 N 1985.09 1.42434 -0.674558 0
M  V30 20484 C 1986.02 2.33498 -0.0100395 0
M  V30 20485 C 1987 1.50665 0.789558 0
M  V30 20486 O 1988.18 1.79268 0.74676 0
M  V30 20487 C 1985.31 3.34279 0.942081 0
M  V30 20488 C 1984.27 4.27263 0.251094 0
M  V30 20489 C 1983.59 5.18249 1.31614 0
M  V30 20490 C 1984.89 5.15008 -0.869735 0
M  V30 20491 H 1986.59 2.89314 -0.770566 0
M  V30 20492 H 1984.13 1.39112 -0.372004 0
M  V30 20493 H 1986.09 3.96896 1.41604 0
M  V30 20494 H 1984.81 2.76765 1.73403 0
M  V30 20495 H 1983.47 3.6604 -0.202625 0
M  V30 20496 H 1983.12 4.57063 2.10006 0
M  V30 20497 H 1982.82 5.81288 0.858923 0
M  V30 20498 H 1984.34 5.83742 1.79103 0
M  V30 20499 H 1985.76 5.71312 -0.477004 0
M  V30 20500 H 1984.15 5.86879 -1.25273 0
M  V30 20501 H 1985.22 4.53422 -1.71861 0
M  V30 20502 N 1986.57 0.417871 1.51959 0
M  V30 20503 C 1987.52 -0.420841 2.24082 0
M  V30 20504 C 1988.5 -1.00627 1.25551 0
M  V30 20505 O 1989.69 -0.927636 1.50745 0
M  V30 20506 C 1986.82 -1.5322 3.07211 0
M  V30 20507 C 1985.91 -0.957122 4.13159 0
M  V30 20508 N 1986.3 -0.109467 5.05682 0
M  V30 20509 C 1984.6 -1.22673 4.28797 0
M  V30 20510 C 1985.3 0.211436 5.81316 0
M  V30 20511 N 1984.27 -0.399968 5.42127 0
M  V30 20512 H 1988.08 0.232982 2.92975 0
M  V30 20513 H 1985.59 0.228798 1.6078 0
M  V30 20514 H 1987.59 -2.14574 3.57441 0
M  V30 20515 H 1986.25 -2.18856 2.39859 0
M  V30 20516 H 1987.26 0.25551 5.17269 0
M  V30 20517 H 1983.93 -1.88203 3.72674 0
M  V30 20518 H 1985.32 0.900024 6.65845 0
M  V30 20519 N 1988.04 -1.56898 0.148573 0
M  V30 20520 C 1989.27 -2.0054 -0.509047 0
M  V30 20521 C 1989.69 -1.02867 -1.58315 0
M  V30 20522 O 1989.04 -0.0259297 -1.82482 0
M  V30 20523 C 1989.1 -3.44093 -1.10825 0
M  V30 20524 O 1988.82 -4.38032 -0.077048 0
M  V30 20525 C 1990.32 -4.03021 -1.84633 0
M  V30 20526 H 1987.54 -0.657812 -0.132378 0
M  V30 20527 H 1990.08 -2.03044 0.243618 0
M  V30 20528 H 1988.24 -3.42436 -1.81153 0
M  V30 20529 H 1988.65 -5.21953 -0.516256 0
M  V30 20530 H 1990.12 -5.05458 -2.21847 0
M  V30 20531 H 1990.6 -3.43821 -2.73283 0
M  V30 20532 H 1991.21 -4.08313 -1.19 0
M  V30 20533 N 1989.52 0.125209 -1.57102 0
M  V30 20534 C 1990.45 1.15521 -2.02922 0
M  V30 20535 C 1991.43 1.43549 -0.912559 0
M  V30 20536 O 1992.62 1.54097 -1.18185 0
M  V30 20537 C 1989.75 2.48297 -2.42829 0
M  V30 20538 C 1988.7 2.34744 -3.57881 0
M  V30 20539 C 1988.03 3.72427 -3.83669 0
M  V30 20540 C 1989.33 1.81317 -4.89818 0
M  V30 20541 H 1991.02 0.774129 -2.89219 0
M  V30 20542 H 1988.57 0.370935 -1.3914 0
M  V30 20543 H 1990.52 3.20597 -2.73487 0
M  V30 20544 H 1989.25 2.88283 -1.53495 0
M  V30 20545 H 1987.9 1.64893 -3.27423 0
M  V30 20546 H 1987.55 4.09887 -2.9155 0
M  V30 20547 H 1987.25 3.64215 -4.61109 0
M  V30 20548 H 1988.78 4.46242 -4.16773 0
M  V30 20549 H 1990.19 2.43429 -5.19052 0
M  V30 20550 H 1988.59 1.83941 -5.71214 0
M  V30 20551 H 1989.66 0.770291 -4.78743 0
M  V30 20552 N 1991 1.52564 0.395213 0
M  V30 20553 C 1991.93 1.79867 1.48897 0
M  V30 20554 C 1992.91 0.650351 1.57176 0
M  V30 20555 O 1994.1 0.897328 1.72226 0
M  V30 20556 C 1991.23 1.96192 2.86576 0
M  V30 20557 C 1990.18 3.11854 2.9314 0
M  V30 20558 C 1989.51 3.13424 4.33208 0
M  V30 20559 C 1990.81 4.51046 2.63353 0
M  V30 20560 H 1992.5 2.71457 1.26299 0
M  V30 20561 H 1990.05 1.30621 0.606145 0
M  V30 20562 H 1992 2.13875 3.63091 0
M  V30 20563 H 1990.72 1.01286 3.10498 0
M  V30 20564 H 1989.38 2.93944 2.19072 0
M  V30 20565 H 1989.03 2.16212 4.5416 0
M  V30 20566 H 1988.73 3.91117 4.38522 0
M  V30 20567 H 1990.25 3.33254 5.11639 0
M  V30 20568 H 1991.67 4.6909 3.29587 0
M  V30 20569 H 1990.07 5.3076 2.80024 0
M  V30 20570 H 1991.14 4.58187 1.58722 0
M  V30 20571 N 1992.48 -0.653289 1.43422 0
M  V30 20572 C 1993.89 -0.968948 1.26821 0
M  V30 20573 C 1994.09 -2.00622 0.187882 0
M  V30 20574 O 1993.15 -2.48747 -0.43371 0
M  V30 20575 C 1994.46 -1.45328 2.63249 0
M  V30 20576 C 1996.01 -1.56993 2.70781 0
M  V30 20577 C 1996.49 -2.08817 4.07627 0
M  V30 20578 N 1997.98 -2.16119 4.09691 0
M  V30 20579 C 1998.71 -2.5734 5.1241 0
M  V30 20580 N 1998.21 -2.97858 6.25502 0
M  V30 20581 N 2000 -2.57279 4.99764 0
M  V30 20582 H 1992.15 0.0330932 2.12374 0
M  V30 20583 H 1994.42 -0.0477768 0.946795 0
M  V30 20584 H 1994.12 -0.765519 3.43268 0
M  V30 20585 H 1994 -2.42831 2.8864 0
M  V30 20586 H 1996.38 -2.24871 1.91095 0
M  V30 20587 H 1996.46 -0.579228 2.49156 0
M  V30 20588 H 1996.11 -1.41541 4.87779 0
M  V30 20589 H 1996.04 -3.08718 4.26616 0
M  V30 20590 H 1998.53 -1.8758 3.28058 0
M  V30 20591 H 1998.84 -3.2806 6.99712 0
M  V30 20592 H 1997.19 -2.95662 6.28974 0
M  V30 20593 H 2000.38 -2.25002 4.10478 0
M  V30 20594 H 2000.55 -2.89082 5.79944 0
M  V30 20595 N 1993.96 -1.29952 -0.891648 0
M  V30 20596 C 1995.2 -1.18155 -1.63963 0
M  V30 20597 C 1995.53 0.265477 -1.93184 0
M  V30 20598 O 1994.8 1.1802 -1.56359 0
M  V30 20599 H 1993.38 -0.434297 -0.607779 0
M  V30 20600 H 1996.04 -1.62988 -1.06869 0
M  V30 20601 H 1995.13 -1.73753 -2.59261 0
M  V30 20602 N 1995.44 1.1031 -1.12559 0
M  V30 20603 C 1996.39 2.14835 -0.763553 0
M  V30 20604 C 1997.37 1.59129 0.238075 0
M  V30 20605 O 1998.56 1.76947 0.043378 0
M  V30 20606 C 1995.69 3.42586 -0.221241 0
M  V30 20607 C 1994.78 4.05222 -1.25124 0
M  V30 20608 N 1995.17 4.42543 -2.44927 0
M  V30 20609 C 1993.47 4.32301 -1.0969 0
M  V30 20610 C 1994.17 4.91767 -3.10709 0
M  V30 20611 N 1993.14 4.88655 -2.38154 0
M  V30 20612 H 1996.94 2.41484 -1.67519 0
M  V30 20613 H 1994.46 1.27445 -1.00656 0
M  V30 20614 H 1996.46 4.16862 0.0563207 0
M  V30 20615 H 1995.12 3.17396 0.684837 0
M  V30 20616 H 1996.13 4.34197 -2.82299 0
M  V30 20617 H 1992.8 4.16761 -0.248225 0
M  V30 20618 H 1994.19 5.30181 -4.12744 0
M  V30 20619 N 1996.91 0.917694 1.28125 0
M  V30 20620 C 1998.32 0.598885 1.76834 0
M  V30 20621 C 1998.68 -0.885857 1.75063 0
M  V30 20622 O 1997.8 -1.69304 1.34778 0
M  V30 20623 C 1998.4 1.08036 3.21113 0
M  V30 20624 C 1996.95 0.812402 3.67528 0
M  V30 20625 C 1996.1 1.24483 2.47789 0
M  V30 20626 H 1999.05 1.09854 1.14533 0
M  V30 20627 H 1999.07 0.423555 3.78135 0
M  V30 20628 H 1998.59 2.161 3.2237 0
M  V30 20629 H 1996.69 -0.254859 3.71727 0
M  V30 20630 H 1996.8 1.42291 4.57482 0
M  V30 20631 H 1995.16 0.663509 2.45906 0
M  V30 20632 H 1995.95 2.3339 2.51762 0
M  V30 20633 N 1998.39 -1.42074 0.682102 0
M  V30 20634 C 1999.32 -2.33489 0.0224223 0
M  V30 20635 C 2000.3 -1.51082 -0.781557 0
M  V30 20636 O 2001.49 -1.79662 -0.737243 0
M  V30 20637 C 1998.62 -3.34773 -0.92434 0
M  V30 20638 C 1997.57 -4.2739 -0.228431 0
M  V30 20639 C 1996.9 -5.1894 -1.28863 0
M  V30 20640 C 1998.2 -5.14539 0.897035 0
M  V30 20641 H 1999.89 -2.88901 0.785898 0
M  V30 20642 H 1997.44 -1.38913 0.379376 0
M  V30 20643 H 1999.39 -3.97641 -1.39497 0
M  V30 20644 H 1998.11 -2.77681 -1.71932 0
M  V30 20645 H 1996.77 -3.65927 0.222034 0
M  V30 20646 H 1996.42 -4.5817 -2.07579 0
M  V30 20647 H 1996.12 -5.81736 -0.828084 0
M  V30 20648 H 1997.65 -5.84683 -1.76005 0
M  V30 20649 H 1999.06 -5.71051 0.507296 0
M  V30 20650 H 1997.46 -5.86206 1.28383 0
M  V30 20651 H 1998.53 -4.52505 1.74263 0
M  V30 20652 N 1999.87 -0.425924 -1.51735 0
M  V30 20653 C 2001.12 0.144058 -2.01586 0
M  V30 20654 C 2001.44 1.44204 -1.31264 0
M  V30 20655 O 2000.71 1.9081 -0.443661 0
M  V30 20656 H 1999.29 0.0562264 -0.744881 0
M  V30 20657 H 2001.95 -0.566016 -1.865 0
M  V30 20658 H 2001.05 0.328161 -3.1037 0
M  V30 20659 N 2001.35 1.56817 -0.156891 0
M  V30 20660 C 2002.62 1.88075 0.537326 0
M  V30 20661 C 2003 1.06447 1.82297 0
M  V30 20662 O 2002.35 0.154147 2.27979 0
M  V30 20663 C 2002.56 3.39866 0.79321 0
M  V30 20664 C 2003.91 4.09298 1.12961 0
M  V30 20665 O 2004.93 3.45102 0.882235 0
M  V30 20666 O 2003.79 5.22688 1.59561 0
M  V30 20667 H 2000.89 0.779855 0.275236 0
M  V30 20668 H 2003.43 1.68585 -0.194246 0
M  V30 20669 H 2002.21 3.91127 -0.11626 0
M  V30 20670 H 2001.83 3.64919 1.57861 0
M  V30 20671 N 2002.83 -0.116876 1.57166 0
M  V30 20672 C 2004.07 -0.822873 1.84151 0
M  V30 20673 C 2004.39 -1.80944 0.742867 0
M  V30 20674 O 2005.59 -2.56177 0.89919 0
M  V30 20675 C 2004.05 -1.51414 3.26499 0
M  V30 20676 C 2003.66 -0.568446 4.44379 0
M  V30 20677 C 2005.4 -2.20514 3.62731 0
M  V30 20678 C 2003.31 -1.26306 5.77755 0
M  V30 20679 H 2002.24 -0.311047 0.686852 0
M  V30 20680 H 2004.89 -0.0756323 1.83344 0
M  V30 20681 H 2003.27 -2.30807 3.21782 0
M  V30 20682 H 2004.45 0.192429 4.60398 0
M  V30 20683 H 2002.76 0.0157058 4.16397 0
M  V30 20684 H 2005.36 -2.73177 4.5965 0
M  V30 20685 H 2005.7 -2.98411 2.90269 0
M  V30 20686 H 2006.23 -1.48006 3.69241 0
M  V30 20687 H 2002.97 -0.525332 6.53392 0
M  V30 20688 H 2002.49 -1.99589 5.65618 0
M  V30 20689 H 2004.17 -1.79566 6.21583 0
M  V30 20690 N 2004.3 -1.52772 -0.387116 0
M  V30 20691 C 2005.55 -1.68156 -1.13364 0
M  V30 20692 C 2005.88 -0.421195 -1.89577 0
M  V30 20693 O 2005.16 0.581056 -1.85618 0
M  V30 20694 C 2005.44 -2.91781 -2.11036 0
M  V30 20695 C 2005.29 -4.27922 -1.38573 0
M  V30 20696 C 2006.61 -3.10957 -3.11438 0
M  V30 20697 H 2003.73 -0.611922 -0.410755 0
M  V30 20698 H 2006.37 -1.85372 -0.416809 0
M  V30 20699 H 2004.52 -2.77234 -2.72165 0
M  V30 20700 H 2006.2 -4.54241 -0.803941 0
M  V30 20701 H 2004.44 -4.28316 -0.687576 0
M  V30 20702 H 2005.11 -5.10514 -2.09952 0
M  V30 20703 H 2007.59 -3.24547 -2.604 0
M  V30 20704 H 2006.46 -3.9893 -3.77022 0
M  V30 20705 H 2006.72 -2.25258 -3.80409 0
M  V30 20706 N 2005.78 0.645673 -1.43767 0
M  V30 20707 C 2006.74 1.74013 -1.49171 0
M  V30 20708 C 2007.74 1.56355 -0.375476 0
M  V30 20709 O 2008.93 1.62115 -0.637529 0
M  V30 20710 C 2006.07 3.12961 -1.3516 0
M  V30 20711 H 2007.26 1.706 -2.46649 0
M  V30 20712 H 2004.81 0.858019 -1.30643 0
M  V30 20713 H 2005.55 3.2198 -0.387199 0
M  V30 20714 H 2005.33 3.27184 -2.16086 0
M  V30 20715 H 2006.82 3.92755 -1.41891 0
M  V30 20716 N 2007.26 1.30423 0.884744 0
M  V30 20717 C 2008.51 1.19259 1.63657 0
M  V30 20718 C 2008.83 -0.252645 1.92852 0
M  V30 20719 O 2008.09 -1.19718 1.5481 0
M  V30 20720 C 2008.39 1.96681 2.98415 0
M  V30 20721 C 2008.05 3.46298 2.8877 0
M  V30 20722 C 2006.72 3.87098 2.85847 0
M  V30 20723 C 2009.07 4.41573 2.7688 0
M  V30 20724 C 2006.4 5.21464 2.68873 0
M  V30 20725 C 2008.75 5.76047 2.61444 0
M  V30 20726 C 2007.41 6.16085 2.56896 0
M  V30 20727 H 2006.68 0.436399 0.598863 0
M  V30 20728 H 2009.33 1.61527 1.02865 0
M  V30 20729 H 2007.63 1.47049 3.63158 0
M  V30 20730 H 2009.33 1.85436 3.55548 0
M  V30 20731 H 2005.92 3.13877 2.91855 0
M  V30 20732 H 2010.11 4.10994 2.78205 0
M  V30 20733 H 2005.36 5.51577 2.63766 0
M  V30 20734 H 2009.54 6.49509 2.51218 0
M  V30 20735 H 2007.16 7.20147 2.43501 0
M  V30 20736 N 2008.74 -1.09711 1.13142 0
M  V30 20737 C 2009.67 -2.18301 0.828662 0
M  V30 20738 C 2010.65 -1.6879 -0.210733 0
M  V30 20739 O 2011.83 -1.94073 -0.0702977 0
M  V30 20740 C 2008.96 -3.46081 0.290674 0
M  V30 20741 C 2007.92 -4.0891 1.26398 0
M  V30 20742 C 2007.24 -5.3148 0.585887 0
M  V30 20743 C 2008.54 -4.51751 2.62142 0
M  V30 20744 H 2010.24 -2.43885 1.73668 0
M  V30 20745 H 2007.78 -1.17216 0.836449 0
M  V30 20746 H 2009.74 -4.21347 0.0665509 0
M  V30 20747 H 2008.46 -3.20011 -0.652716 0
M  V30 20748 H 2007.12 -3.3566 1.47405 0
M  V30 20749 H 2006.77 -5.01689 -0.362883 0
M  V30 20750 H 2006.47 -5.7447 1.23522 0
M  V30 20751 H 2007.99 -6.09472 0.370976 0
M  V30 20752 H 2009.41 -5.18255 2.45121 0
M  V30 20753 H 2007.8 -5.05615 3.23223 0
M  V30 20754 H 2008.87 -3.64297 3.20025 0
M  V30 20755 N 2010.22 -0.924476 -1.27637 0
M  V30 20756 C 2011.44 -0.579431 -1.98621 0
M  V30 20757 C 2011.86 0.84181 -1.68994 0
M  V30 20758 O 2011.22 1.55905 -0.948681 0
M  V30 20759 C 2011.27 -0.791898 -3.5272 0
M  V30 20760 O 2010.99 -2.15722 -3.81308 0
M  V30 20761 C 2012.49 -0.45513 -4.40957 0
M  V30 20762 H 2009.71 -0.219875 -0.633953 0
M  V30 20763 H 2012.25 -1.24062 -1.6257 0
M  V30 20764 H 2010.41 -0.17756 -3.86993 0
M  V30 20765 H 2010.82 -2.20483 -4.75907 0
M  V30 20766 H 2012.3 -0.654507 -5.48106 0
M  V30 20767 H 2012.77 0.609177 -4.34955 0
M  V30 20768 H 2013.38 -1.04747 -4.12199 0
M  V30 20769 N 2011.69 1.41711 -0.689627 0
M  V30 20770 C 2012.92 2.06171 -0.225425 0
M  V30 20771 C 2013.34 1.51535 1.11439 0
M  V30 20772 O 2012.7 0.639865 1.69633 0
M  V30 20773 C 2012.75 3.60114 -0.187089 0
M  V30 20774 O 2011.85 4.03757 0.83989 0
M  V30 20775 H 2011.2 0.654551 -0.111621 0
M  V30 20776 H 2013.73 1.81582 -0.942814 0
M  V30 20777 H 2013.74 4.07997 -0.0159369 0
M  V30 20778 H 2012.41 3.99251 -1.16497 0
M  V30 20779 H 2010.99 3.67392 0.638575 0
M  V30 20780 N 2013.17 0.433965 1.51507 0
M  V30 20781 C 2014.4 -0.132403 2.06476 0
M  V30 20782 C 2014.82 -1.3675 1.30172 0
M  V30 20783 O 2014.17 -1.78907 0.360351 0
M  V30 20784 C 2014.22 -0.458007 3.58587 0
M  V30 20785 O 2013.94 0.728069 4.32008 0
M  V30 20786 C 2015.45 -1.07541 4.30058 0
M  V30 20787 H 2012.67 -0.00941889 0.670934 0
M  V30 20788 H 2015.21 0.612075 1.95125 0
M  V30 20789 H 2013.36 -1.15238 3.69863 0
M  V30 20790 H 2013.78 0.450318 5.22563 0
M  V30 20791 H 2015.25 -1.25326 5.37585 0
M  V30 20792 H 2015.73 -2.0555 3.88131 0
M  V30 20793 H 2016.34 -0.420519 4.23216 0
M  V30 20794 N 2014.65 -1.56732 0.165206 0
M  V30 20795 C 2015.56 -2.2125 -0.780107 0
M  V30 20796 C 2016.58 -1.20227 -1.25784 0
M  V30 20797 O 2017.75 -1.52868 -1.31124 0
M  V30 20798 C 2014.82 -2.83579 -1.99459 0
M  V30 20799 C 2013.88 -3.99784 -1.56434 0
M  V30 20800 C 2013.11 -4.5913 -2.72094 0
M  V30 20801 O 2013.33 -4.17363 -3.88799 0
M  V30 20802 O 2012.27 -5.49101 -2.46519 0
M  V30 20803 H 2016.09 -3.02578 -0.260803 0
M  V30 20804 H 2013.68 -1.49268 -0.0627015 0
M  V30 20805 H 2015.56 -3.23123 -2.70499 0
M  V30 20806 H 2014.24 -2.05251 -2.50307 0
M  V30 20807 H 2013.14 -3.64921 -0.823629 0
M  V30 20808 H 2014.48 -4.79686 -1.10284 0
M  V30 20809 N 2016.13 0.10854 -1.57226 0
M  V30 20810 C 2017.54 0.664549 -1.74472 0
M  V30 20811 C 2017.89 1.79792 -0.785438 0
M  V30 20812 O 2017.02 2.16364 0.0392281 0
M  V30 20813 C 2017.61 1.21227 -3.16369 0
M  V30 20814 C 2016.17 1.71447 -3.35086 0
M  V30 20815 C 2015.32 0.618471 -2.70315 0
M  V30 20816 H 2018.27 -0.11745 -1.58265 0
M  V30 20817 H 2018.29 2.08181 -3.18498 0
M  V30 20818 H 2017.8 0.387164 -3.86164 0
M  V30 20819 H 2015.9 2.56402 -2.7035 0
M  V30 20820 H 2016.01 1.81672 -4.4332 0
M  V30 20821 H 2014.38 1.05465 -2.31839 0
M  V30 20822 H 2015.16 -0.195832 -3.42741 0
M  V30 20823 N 2017.61 1.52975 0.379009 0
M  V30 20824 C 2018.54 1.74729 1.48332 0
M  V30 20825 C 2019.55 0.627862 1.50206 0
M  V30 20826 O 2020.74 0.903805 1.53927 0
M  V30 20827 C 2017.84 1.79998 2.87148 0
M  V30 20828 C 2017.01 3.09452 3.09125 0
M  V30 20829 C 2016.07 3.06138 4.27979 0
M  V30 20830 O 2015.1 3.79976 4.23801 0
M  V30 20831 N 2016.3 2.26019 5.34692 0
M  V30 20832 H 2019.07 2.70011 1.30054 0
M  V30 20833 H 2016.63 1.51586 0.568617 0
M  V30 20834 H 2018.62 1.75275 3.64775 0
M  V30 20835 H 2017.19 0.920593 2.98737 0
M  V30 20836 H 2016.41 3.27586 2.19274 0
M  V30 20837 H 2017.7 3.9503 3.20669 0
M  V30 20838 H 2017.09 1.65515 5.40945 0
M  V30 20839 H 2015.65 2.27126 6.10948 0
M  V30 20840 N 2019.08 -0.63804 1.44107 0
M  V30 20841 C 2020.31 -1.42303 1.49778 0
M  V30 20842 C 2020.72 -1.88825 0.119087 0
M  V30 20843 O 2020.07 -1.61034 -0.883953 0
M  V30 20844 C 2020.13 -2.68134 2.39467 0
M  V30 20845 C 2019.79 -2.43453 3.86755 0
M  V30 20846 C 2020.79 -2.05716 4.77469 0
M  V30 20847 C 2018.47 -2.57307 4.31391 0
M  V30 20848 C 2020.47 -1.82151 6.10819 0
M  V30 20849 C 2018.15 -2.33357 5.6479 0
M  V30 20850 C 2019.15 -1.95837 6.54322 0
M  V30 20851 O 2018.84 -1.72148 7.85252 0
M  V30 20852 H 2018.57 -0.443102 0.510526 0
M  V30 20853 H 2021.13 -0.788144 1.89677 0
M  V30 20854 H 2019.36 -3.34236 1.94483 0
M  V30 20855 H 2021.05 -3.30121 2.36167 0
M  V30 20856 H 2021.81 -1.94576 4.44258 0
M  V30 20857 H 2017.69 -2.85483 3.61967 0
M  V30 20858 H 2021.23 -1.5279 6.80662 0
M  V30 20859 H 2017.13 -2.44105 5.97564 0
M  V30 20860 H 2017.9 -1.8645 7.96981 0
M  V30 20861 N 2020.56 -1.3089 -0.877815 0
M  V30 20862 C 2021.81 -1.19888 -1.627 0
M  V30 20863 C 2022.13 0.244972 -1.93455 0
M  V30 20864 O 2021.4 1.16355 -1.57602 0
M  V30 20865 H 2019.98 -0.440719 -0.603138 0
M  V30 20866 H 2022.64 -1.64112 -1.05134 0
M  V30 20867 H 2021.74 -1.76493 -2.57404 0
M  V30 20868 N 2022.04 1.0911 -1.13723 0
M  V30 20869 C 2022.97 2.15687 -0.775355 0
M  V30 20870 C 2023.99 1.61511 0.204429 0
M  V30 20871 O 2025.17 1.78493 -0.0162374 0
M  V30 20872 C 2022.27 3.38654 -0.129079 0
M  V30 20873 C 2021.45 4.22235 -1.14178 0
M  V30 20874 C 2020.51 5.23618 -0.520594 0
M  V30 20875 O 2019.53 5.56802 -1.18152 0
M  V30 20876 N 2020.73 5.76192 0.705897 0
M  V30 20877 H 2023.5 2.47337 -1.69247 0
M  V30 20878 H 2021.06 1.24855 -1.03067 0
M  V30 20879 H 2023.05 4.03595 0.298814 0
M  V30 20880 H 2021.62 3.04866 0.69104 0
M  V30 20881 H 2020.84 3.53382 -1.74685 0
M  V30 20882 H 2022.13 4.749 -1.82612 0
M  V30 20883 H 2021.53 5.51453 1.26158 0
M  V30 20884 H 2020.09 6.42851 1.0764 0
M  V30 20885 N 2023.52 0.931232 1.27145 0
M  V30 20886 C 2024.77 0.572394 1.93825 0
M  V30 20887 C 2025.09 -0.88981 1.73515 0
M  V30 20888 O 2024.36 -1.63113 1.08494 0
M  V30 20889 H 2022.94 0.2087 0.717254 0
M  V30 20890 H 2025.6 1.18439 1.54784 0
M  V30 20891 H 2024.7 0.781679 3.02153 0
M  V30 20892 N 2025 -1.41343 0.697132 0
M  V30 20893 C 2026.25 -2.00432 0.225852 0
M  V30 20894 C 2026.56 -1.55857 -1.18186 0
M  V30 20895 O 2027.77 -2.07516 -1.75069 0
M  V30 20896 C 2026.22 -3.58166 0.352888 0
M  V30 20897 C 2025.83 -4.11721 1.76607 0
M  V30 20898 C 2027.57 -4.2446 -0.0585393 0
M  V30 20899 C 2025.48 -5.61895 1.84467 0
M  V30 20900 H 2024.41 -0.749671 0.0806811 0
M  V30 20901 H 2027.06 -1.61804 0.865556 0
M  V30 20902 H 2025.44 -3.94405 -0.355093 0
M  V30 20903 H 2026.62 -3.86898 2.50293 0
M  V30 20904 H 2024.93 -3.57959 2.12731 0
M  V30 20905 H 2027.53 -5.34696 -0.0202684 0
M  V30 20906 H 2027.87 -4.01572 -1.09752 0
M  V30 20907 H 2028.41 -3.93261 0.599221 0
M  V30 20908 H 2025.14 -5.89612 2.86423 0
M  V30 20909 H 2024.66 -5.8864 1.15167 0
M  V30 20910 H 2026.34 -6.26692 1.60828 0
M  V30 20911 N 2026.48 -0.441993 -1.51275 0
M  V30 20912 C 2027.41 0.357557 -2.30746 0
M  V30 20913 C 2028.39 1.01683 -1.36362 0
M  V30 20914 O 2029.57 1.01958 -1.65282 0
M  V30 20915 C 2026.7 1.45642 -3.15287 0
M  V30 20916 C 2025.66 0.920377 -4.17987 0
M  V30 20917 C 2024.98 2.11534 -4.91078 0
M  V30 20918 C 2026.28 -0.0483941 -5.22278 0
M  V30 20919 H 2027.98 -0.30565 -2.97836 0
M  V30 20920 H 2025.52 -0.148438 -1.43233 0
M  V30 20921 H 2027.47 2.02301 -3.69665 0
M  V30 20922 H 2026.2 2.14798 -2.46027 0
M  V30 20923 H 2024.86 0.375962 -3.64667 0
M  V30 20924 H 2024.51 2.7932 -4.18317 0
M  V30 20925 H 2024.21 1.76303 -5.60527 0
M  V30 20926 H 2025.73 2.68738 -5.48281 0
M  V30 20927 H 2027.14 0.428053 -5.717 0
M  V30 20928 H 2025.54 -0.313504 -5.99281 0
M  V30 20929 H 2026.61 -0.983611 -4.74819 0
M  V30 20930 N 2027.95 1.56642 -0.173515 0
M  V30 20931 C 2029.18 2.01763 0.480249 0
M  V30 20932 C 2029.6 1.05294 1.55868 0
M  V30 20933 O 2028.96 0.0328468 1.8127 0
M  V30 20934 C 2029.01 3.45473 1.03349 0
M  V30 20935 O 2028.11 3.52081 2.14739 0
M  V30 20936 H 2027.45 0.654011 0.114743 0
M  V30 20937 H 2029.98 2.02702 -0.278052 0
M  V30 20938 H 2029.99 3.84823 1.35554 0
M  V30 20939 H 2028.67 4.15184 0.243902 0
M  V30 20940 H 2027.25 3.24591 1.83562 0
M  V30 20941 N 2029.43 -0.1002 1.57281 0
M  V30 20942 C 2030.36 -1.14803 1.98376 0
M  V30 20943 C 2031.38 -1.36605 0.885602 0
M  V30 20944 O 2032.57 -1.35347 1.16376 0
M  V30 20945 C 2029.67 -2.50456 2.2831 0
M  V30 20946 C 2028.84 -2.49 3.59608 0
M  V30 20947 C 2027.9 -3.66541 3.77537 0
M  V30 20948 O 2026.92 -3.49266 4.49447 0
M  V30 20949 N 2028.13 -4.85829 3.17727 0
M  V30 20950 H 2030.89 -0.798301 2.88872 0
M  V30 20951 H 2028.45 -0.289246 1.59295 0
M  V30 20952 H 2030.44 -3.27681 2.37502 0
M  V30 20953 H 2029.01 -2.77538 1.43846 0
M  V30 20954 H 2028.23 -1.57357 3.61431 0
M  V30 20955 H 2029.52 -2.45101 4.45873 0
M  V30 20956 H 2028.92 -5.02769 2.59307 0
M  V30 20957 H 2027.48 -5.60665 3.32412 0
M  V30 20958 N 2030.91 -1.53174 -0.370891 0
M  V30 20959 C 2032.19 -1.59697 -1.12943 0
M  V30 20960 C 2032.57 -0.401233 -2.07252 0
M  V30 20961 O 2031.91 0.608973 -2.20236 0
M  V30 20962 C 2032.12 -2.94469 -1.87321 0
M  V30 20963 C 2033.47 -3.48856 -2.42043 0
M  V30 20964 O 2034.5 -2.96463 -1.97455 0
M  V30 20965 O 2033.36 -4.40436 -3.2354 0
M  V30 20966 H 2030.45 -0.644835 -0.5178 0
M  V30 20967 H 2033 -1.65514 -0.374583 0
M  V30 20968 H 2031.77 -3.72938 -1.18462 0
M  V30 20969 H 2031.39 -2.92119 -2.69727 0
M  V30 20970 N 2032.39 0.630389 -1.44443 0
M  V30 20971 C 2033.35 1.72422 -1.51008 0
M  V30 20972 C 2034.35 1.55948 -0.392038 0
M  V30 20973 O 2035.54 1.61429 -0.654688 0
M  V30 20974 C 2032.67 3.1151 -1.38472 0
M  V30 20975 H 2033.87 1.67975 -2.48444 0
M  V30 20976 H 2031.42 0.844115 -1.31546 0
M  V30 20977 H 2032.15 3.21551 -0.421327 0
M  V30 20978 H 2031.94 3.24874 -2.19544 0
M  V30 20979 H 2033.43 3.91228 -1.46049 0
M  V30 20980 N 2033.87 1.31354 0.870861 0
M  V30 20981 C 2035.11 1.22177 1.62617 0
M  V30 20982 C 2035.47 -0.218204 1.91159 0
M  V30 20983 O 2034.76 -1.15137 1.53147 0
M  V30 20984 C 2034.95 1.99835 2.96312 0
M  V30 20985 C 2034.78 3.51238 2.80824 0
M  V30 20986 C 2033.55 4.20589 2.80059 0
M  V30 20987 C 2035.75 4.46204 2.55747 0
M  V30 20988 N 2033.73 5.58154 2.55612 0
M  V30 20989 C 2035.1 5.71431 2.40555 0
M  V30 20990 C 2037.16 4.3564 2.41085 0
M  V30 20991 C 2035.86 6.8729 2.12192 0
M  V30 20992 C 2037.89 5.51282 2.14109 0
M  V30 20993 C 2037.25 6.75498 1.99705 0
M  V30 20994 H 2033.35 0.502188 0.599443 0
M  V30 20995 H 2035.93 1.65532 1.02505 0
M  V30 20996 H 2034.1 1.58851 3.54431 0
M  V30 20997 H 2035.84 1.82685 3.61121 0
M  V30 20998 H 2032.59 3.72551 2.92408 0
M  V30 20999 H 2033.01 6.30583 2.46361 0
M  V30 21000 H 2037.66 3.40271 2.5095 0
M  V30 21001 H 2035.37 7.82687 2.01064 0
M  V30 21002 H 2038.96 5.45025 2.03565 0
M  V30 21003 H 2037.84 7.63468 1.79126 0
M  V30 21004 N 2035.34 -1.08505 1.143 0
M  V30 21005 C 2036.25 -2.18944 0.84266 0
M  V30 21006 C 2037.27 -1.73103 -0.17648 0
M  V30 21007 O 2038.45 -2.01399 -0.0052364 0
M  V30 21008 C 2035.51 -3.45189 0.323347 0
M  V30 21009 C 2034.57 -4.05661 1.40492 0
M  V30 21010 C 2033.8 -5.2588 0.910289 0
M  V30 21011 O 2034.03 -5.69858 -0.248616 0
M  V30 21012 O 2032.96 -5.77722 1.68882 0
M  V30 21013 H 2036.79 -2.47104 1.76559 0
M  V30 21014 H 2034.37 -1.17621 0.921181 0
M  V30 21015 H 2036.25 -4.21381 0.039611 0
M  V30 21016 H 2034.93 -3.18608 -0.571874 0
M  V30 21017 H 2033.84 -3.31061 1.7421 0
M  V30 21018 H 2035.17 -4.36488 2.27462 0
M  V30 21019 N 2036.82 -0.937962 -1.26649 0
M  V30 21020 C 2038.05 -0.59993 -1.98534 0
M  V30 21021 C 2038.47 0.817397 -1.69411 0
M  V30 21022 O 2037.83 1.55011 -0.940284 0
M  V30 21023 C 2037.88 -0.844738 -3.50566 0
M  V30 21024 O 2036.98 0.0847162 -4.12313 0
M  V30 21025 H 2036.32 -0.229839 -0.622953 0
M  V30 21026 H 2038.85 -1.26002 -1.61198 0
M  V30 21027 H 2038.86 -0.764359 -4.00776 0
M  V30 21028 H 2037.54 -1.87783 -3.71094 0
M  V30 21029 H 2036.11 -0.0464484 -3.72871 0
M  V30 21030 N 2038.3 1.40971 -0.704618 0
M  V30 21031 C 2039.23 2.33424 -0.0595656 0
M  V30 21032 C 2040.21 1.52306 0.757422 0
M  V30 21033 O 2041.4 1.80812 0.708567 0
M  V30 21034 C 2038.53 3.36202 0.870964 0
M  V30 21035 C 2037.48 4.27699 0.160408 0
M  V30 21036 C 2036.81 5.20924 1.20591 0
M  V30 21037 C 2038.11 5.13047 -0.97878 0
M  V30 21038 H 2039.8 2.87615 -0.83176 0
M  V30 21039 H 2037.35 1.38292 -0.401428 0
M  V30 21040 H 2039.3 3.9981 1.33153 0
M  V30 21041 H 2038.02 2.80381 1.67493 0
M  V30 21042 H 2036.68 3.65527 -0.280222 0
M  V30 21043 H 2036.33 4.61414 2.00264 0
M  V30 21044 H 2036.03 5.8298 0.73543 0
M  V30 21045 H 2037.55 5.8741 1.6668 0
M  V30 21046 H 2038.97 5.70172 -0.598081 0
M  V30 21047 H 2037.36 5.8409 -1.37693 0
M  V30 21048 H 2038.43 4.49675 -1.8144 0
M  V30 21049 N 2039.78 0.45001 1.51039 0
M  V30 21050 C 2041.03 -0.11219 2.02189 0
M  V30 21051 C 2041.35 -1.416 1.3334 0
M  V30 21052 O 2040.61 -1.90663 0.44113 0
M  V30 21053 C 2040.91 -0.365449 3.55527 0
M  V30 21054 C 2040.57 0.854084 4.42737 0
M  V30 21055 C 2039.24 1.1885 4.66292 0
M  V30 21056 C 2041.59 1.66705 4.93821 0
M  V30 21057 C 2038.92 2.33632 5.38176 0
M  V30 21058 C 2041.27 2.80597 5.66964 0
M  V30 21059 C 2039.93 3.14478 5.88778 0
M  V30 21060 H 2039.2 -0.0410534 0.739862 0
M  V30 21061 H 2041.85 0.599793 1.81865 0
M  V30 21062 H 2040.15 -1.15946 3.74251 0
M  V30 21063 H 2041.85 -0.81407 3.9265 0
M  V30 21064 H 2038.44 0.583517 4.24609 0
M  V30 21065 H 2042.62 1.42189 4.75496 0
M  V30 21066 H 2037.88 2.60181 5.53277 0
M  V30 21067 H 2042.05 3.43952 6.05533 0
M  V30 21068 H 2039.68 4.0353 6.44257 0
M  V30 21069 N 2041.26 -1.56548 0.18182 0
M  V30 21070 C 2042.48 -2.02015 -0.469543 0
M  V30 21071 C 2042.91 -1.06119 -1.55307 0
M  V30 21072 O 2042.26 -0.0424595 -1.8125 0
M  V30 21073 C 2042.31 -3.46016 -1.01515 0
M  V30 21074 O 2041.42 -3.53215 -2.12869 0
M  V30 21075 H 2040.76 -0.65461 -0.111273 0
M  V30 21076 H 2043.29 -2.02552 0.288798 0
M  V30 21077 H 2043.3 -3.85537 -1.33511 0
M  V30 21078 H 2041.97 -4.15308 -0.22188 0
M  V30 21079 H 2040.55 -3.2556 -1.81838 0
M  V30 21080 N 2042.73 0.0918577 -1.57332 0
M  V30 21081 C 2044.15 0.446151 -1.53237 0
M  V30 21082 C 2044.35 1.80332 -0.899027 0
M  V30 21083 O 2043.41 2.47642 -0.492921 0
M  V30 21084 C 2044.72 0.405662 -2.97951 0
M  V30 21085 C 2046.27 0.487286 -3.09184 0
M  V30 21086 C 2046.74 0.476912 -4.5551 0
M  V30 21087 N 2048.23 0.537573 -4.6007 0
M  V30 21088 C 2048.97 0.551436 -5.70742 0
M  V30 21089 N 2048.46 0.521312 -6.90836 0
M  V30 21090 N 2050.26 0.59649 -5.58926 0
M  V30 21091 H 2042.41 -0.797061 -1.96877 0
M  V30 21092 H 2044.67 -0.297022 -0.900268 0
M  V30 21093 H 2044.38 -0.524467 -3.47768 0
M  V30 21094 H 2044.25 1.22343 -3.56808 0
M  V30 21095 H 2046.64 1.40783 -2.59353 0
M  V30 21096 H 2046.72 -0.358678 -2.53273 0
M  V30 21097 H 2046.36 -0.439705 -5.05993 0
M  V30 21098 H 2046.29 1.34013 -5.09262 0
M  V30 21099 H 2048.78 0.565916 -3.73639 0
M  V30 21100 H 2049.1 0.535263 -7.70944 0
M  V30 21101 H 2047.44 0.48831 -6.93282 0
M  V30 21102 H 2050.63 0.617576 -4.64008 0
M  V30 21103 H 2050.81 0.603826 -6.45181 0
M  V30 21104 N 2044.21 1.53368 0.362763 0
M  V30 21105 C 2045.46 1.69938 1.10674 0
M  V30 21106 C 2045.79 0.451301 1.88883 0
M  V30 21107 O 2045.07 -0.551452 1.86519 0
M  V30 21108 C 2045.35 2.95101 2.06367 0
M  V30 21109 C 2045.2 4.30073 1.31748 0
M  V30 21110 C 2046.52 3.15872 3.06452 0
M  V30 21111 H 2043.64 0.61838 0.400968 0
M  V30 21112 H 2046.28 1.86011 0.387265 0
M  V30 21113 H 2044.43 2.81529 2.6772 0
M  V30 21114 H 2046.1 4.55462 0.731574 0
M  V30 21115 H 2044.35 4.29356 0.619347 0
M  V30 21116 H 2045.02 5.13789 2.01803 0
M  V30 21117 H 2047.49 3.28649 2.55204 0
M  V30 21118 H 2046.37 4.04878 3.70628 0
M  V30 21119 H 2046.63 2.31281 3.76778 0
M  V30 21120 N 2045.69 -0.62272 1.44776 0
M  V30 21121 C 2046.92 -1.41403 1.51723 0
M  V30 21122 C 2047.34 -1.87534 0.145802 0
M  V30 21123 O 2046.7 -1.59244 -0.866667 0
M  V30 21124 C 2046.75 -2.60482 2.49362 0
M  V30 21125 O 2045.85 -3.60604 2.00096 0
M  V30 21126 H 2045.19 -0.422766 0.51202 0
M  V30 21127 H 2047.72 -0.759294 1.89989 0
M  V30 21128 H 2047.73 -3.0792 2.67674 0
M  V30 21129 H 2046.41 -2.26253 3.48974 0
M  V30 21130 H 2044.98 -3.19918 1.9159 0
M  V30 21131 N 2047.17 -1.31814 -0.863883 0
M  V30 21132 C 2048.1 -1.22574 -1.98741 0
M  V30 21133 C 2049.08 -0.111585 -1.69734 0
M  V30 21134 O 2050.26 -0.29721 -1.91912 0
M  V30 21135 C 2047.39 -0.938559 -3.34378 0
M  V30 21136 C 2046.35 -2.01295 -3.7771 0
M  V30 21137 C 2045.67 -1.57834 -5.10874 0
M  V30 21138 C 2046.97 -3.42684 -3.94164 0
M  V30 21139 H 2048.67 -2.16572 -2.06729 0
M  V30 21140 H 2046.21 -1.04262 -0.993246 0
M  V30 21141 H 2048.17 -0.860501 -4.12521 0
M  V30 21142 H 2046.89 0.0370783 -3.26579 0
M  V30 21143 H 2045.55 -2.081 -3.01811 0
M  V30 21144 H 2045.2 -0.5904 -4.99523 0
M  V30 21145 H 2044.9 -2.29713 -5.40838 0
M  V30 21146 H 2046.42 -1.51448 -5.9152 0
M  V30 21147 H 2047.84 -3.38519 -4.62685 0
M  V30 21148 H 2046.23 -4.12833 -4.35533 0
M  V30 21149 H 2047.3 -3.83023 -2.97358 0
M  V30 21150 N 2048.65 1.07897 -1.14873 0
M  V30 21151 C 2050.06 1.32467 -0.89021 0
M  V30 21152 C 2050.26 1.96041 0.46584 0
M  V30 21153 O 2049.32 2.21675 1.20899 0
M  V30 21154 C 2050.63 2.22118 -2.02692 0
M  V30 21155 C 2052.18 2.35583 -2.06082 0
M  V30 21156 C 2052.65 3.28579 -3.19061 0
M  V30 21157 N 2054.15 3.36158 -3.18673 0
M  V30 21158 C 2054.88 4.0816 -4.02731 0
M  V30 21159 N 2054.38 4.82826 -4.96841 0
M  V30 21160 N 2056.17 4.04045 -3.90774 0
M  V30 21161 H 2048.32 0.650155 -2.02205 0
M  V30 21162 H 2050.58 0.349072 -0.881393 0
M  V30 21163 H 2050.29 1.82656 -3.00549 0
M  V30 21164 H 2050.16 3.22612 -1.95452 0
M  V30 21165 H 2052.55 2.743 -1.08829 0
M  V30 21166 H 2052.63 1.34812 -2.17392 0
M  V30 21167 H 2052.28 2.90582 -4.16563 0
M  V30 21168 H 2052.21 4.2929 -3.04988 0
M  V30 21169 H 2054.7 2.82932 -2.50515 0
M  V30 21170 H 2055.01 5.35244 -5.57434 0
M  V30 21171 H 2053.35 4.81861 -5.00834 0
M  V30 21172 H 2056.55 3.44823 -3.16567 0
M  V30 21173 H 2056.72 4.59895 -4.56509 0
M  V30 21174 N 2050.12 0.944665 1.2615 0
M  V30 21175 C 2051.05 0.47478 2.28622 0
M  V30 21176 C 2052.04 -0.473742 1.6337 0
M  V30 21177 O 2053.22 -0.374847 1.90548 0
M  V30 21178 C 2050.35 -0.2576 3.46343 0
M  V30 21179 C 2049.3 0.604701 4.23707 0
M  V30 21180 C 2048.63 -0.257841 5.34078 0
M  V30 21181 C 2049.93 1.8778 4.87377 0
M  V30 21182 H 2051.62 1.33122 2.68177 0
M  V30 21183 H 2049.17 0.641555 1.28919 0
M  V30 21184 H 2051.12 -0.597382 4.17144 0
M  V30 21185 H 2049.85 -1.14821 3.05751 0
M  V30 21186 H 2048.51 0.927426 3.54675 0
M  V30 21187 H 2048.15 -1.1479 4.89727 0
M  V30 21188 H 2047.85 0.315739 5.86751 0
M  V30 21189 H 2049.38 -0.592815 6.07715 0
M  V30 21190 H 2050.79 1.60505 5.50374 0
M  V30 21191 H 2049.19 2.39623 5.50182 0
M  V30 21192 H 2050.26 2.58705 4.10122 0
M  V30 21193 N 2051.6 -1.40596 0.712085 0
M  V30 21194 C 2052.85 -2.01247 0.250458 0
M  V30 21195 C 2053.18 -1.56324 -1.15224 0
M  V30 21196 O 2052.46 -0.781734 -1.78099 0
M  V30 21197 C 2052.74 -3.58616 0.326579 0
M  V30 21198 C 2052.59 -4.13622 1.7674 0
M  V30 21199 C 2053.91 -4.39047 -0.304236 0
M  V30 21200 H 2051.03 -0.731174 0.0924819 0
M  V30 21201 H 2053.67 -1.6712 0.903924 0
M  V30 21202 H 2051.82 -3.8782 -0.229796 0
M  V30 21203 H 2053.49 -3.9523 2.37889 0
M  V30 21204 H 2051.74 -3.68042 2.29625 0
M  V30 21205 H 2052.41 -5.22782 1.77208 0
M  V30 21206 H 2054.88 -4.15753 0.169788 0
M  V30 21207 H 2053.76 -5.48457 -0.220511 0
M  V30 21208 H 2054.02 -4.1977 -1.38727 0
M  V30 21209 N 2053.08 -0.458013 -1.50798 0
M  V30 21210 C 2054.33 0.101266 -2.01846 0
M  V30 21211 C 2054.65 1.41388 -1.34293 0
M  V30 21212 O 2053.92 1.89826 -0.484035 0
M  V30 21213 H 2052.5 0.0404137 -0.745906 0
M  V30 21214 H 2055.16 -0.605448 -1.85257 0
M  V30 21215 H 2054.26 0.262253 -3.10996 0
M  V30 21216 N 2054.56 1.56449 -0.190119 0
M  V30 21217 C 2055.49 2.21861 0.728019 0
M  V30 21218 C 2056.47 1.18012 1.22504 0
M  V30 21219 O 2057.66 1.46503 1.27478 0
M  V30 21220 C 2054.79 2.87407 1.94973 0
M  V30 21221 C 2053.74 3.97457 1.58782 0
M  V30 21222 C 2053.07 4.50144 2.88573 0
M  V30 21223 C 2054.37 5.16113 0.801535 0
M  V30 21224 H 2056.06 2.98842 0.182734 0
M  V30 21225 H 2053.61 1.4374 0.0864508 0
M  V30 21226 H 2055.56 3.31848 2.59721 0
M  V30 21227 H 2054.28 2.07824 2.51946 0
M  V30 21228 H 2052.94 3.537 0.96395 0
M  V30 21229 H 2052.59 3.67328 3.43626 0
M  V30 21230 H 2052.29 5.24398 2.65105 0
M  V30 21231 H 2053.81 4.97283 3.54318 0
M  V30 21232 H 2055.23 5.5713 1.35201 0
M  V30 21233 H 2053.62 5.96402 0.66517 0
M  V30 21234 H 2054.69 4.84494 -0.198407 0
M  V30 21235 N 2056.04 -0.0835127 1.57379 0
M  V30 21236 C 2056.98 -1.10046 2.02875 0
M  V30 21237 C 2057.95 -1.39138 0.907183 0
M  V30 21238 O 2059.14 -1.50405 1.17401 0
M  V30 21239 C 2056.28 -2.41229 2.46784 0
M  V30 21240 C 2055.39 -2.18769 3.72511 0
M  V30 21241 C 2054.53 -3.43432 4.05251 0
M  V30 21242 C 2053.57 -3.16284 5.24052 0
M  V30 21243 N 2052.7 -4.33246 5.52488 0
M  V30 21244 H 2057.54 -0.705503 2.89528 0
M  V30 21245 H 2055.08 -0.336809 1.43192 0
M  V30 21246 H 2057.04 -3.17803 2.7029 0
M  V30 21247 H 2055.67 -2.7855 1.63125 0
M  V30 21248 H 2054.72 -1.32942 3.56414 0
M  V30 21249 H 2056.03 -1.94708 4.59228 0
M  V30 21250 H 2055.19 -4.28408 4.29595 0
M  V30 21251 H 2053.93 -3.70558 3.17078 0
M  V30 21252 H 2052.93 -2.29703 4.99516 0
M  V30 21253 H 2054.16 -2.90493 6.13833 0
M  V30 21254 H 2052.1 -4.60425 4.67274 0
M  V30 21255 H 2052.02 -4.12417 6.336 0
M  V30 21256 H 2053.29 -5.19253 5.81375 0
M  V30 21257 N 2057.52 -1.53558 -0.354624 0
M  V30 21258 C 2058.46 -1.80769 -1.43497 0
M  V30 21259 C 2059.43 -0.65269 -1.52739 0
M  V30 21260 O 2060.62 -0.895997 -1.68453 0
M  V30 21261 C 2057.76 -2.01311 -2.80299 0
M  V30 21262 C 2056.87 -3.29028 -2.79937 0
M  V30 21263 C 2056.01 -3.39698 -4.08385 0
M  V30 21264 C 2055.04 -4.61406 -4.02208 0
M  V30 21265 N 2054.18 -4.6917 -5.22326 0
M  V30 21266 H 2059.02 -2.72949 -1.19594 0
M  V30 21267 H 2056.56 -1.35202 -0.579546 0
M  V30 21268 H 2058.52 -2.1121 -3.59786 0
M  V30 21269 H 2057.15 -1.12456 -3.02578 0
M  V30 21270 H 2056.2 -3.28027 -1.92619 0
M  V30 21271 H 2057.51 -4.186 -2.71248 0
M  V30 21272 H 2056.66 -3.48968 -4.96292 0
M  V30 21273 H 2055.4 -2.48162 -4.19842 0
M  V30 21274 H 2054.41 -4.52225 -3.12687 0
M  V30 21275 H 2055.63 -5.54295 -3.92344 0
M  V30 21276 H 2053.58 -3.80538 -5.34347 0
M  V30 21277 H 2053.5 -5.52662 -5.15849 0
M  V30 21278 H 2054.76 -4.82736 -6.12034 0
M  V30 21279 N 2058.99 0.615033 -1.45104 0
M  V30 21280 C 2060.22 1.40596 -1.52471 0
M  V30 21281 C 2060.64 1.87454 -0.155745 0
M  V30 21282 O 2060 1.59701 0.858209 0
M  V30 21283 C 2060.05 2.59156 -2.5074 0
M  V30 21284 O 2059.15 3.59538 -2.02006 0
M  V30 21285 H 2058.49 0.420045 -0.514255 0
M  V30 21286 H 2061.02 0.749208 -1.90389 0
M  V30 21287 H 2061.03 3.06496 -2.69303 0
M  V30 21288 H 2059.71 2.24399 -3.50169 0
M  V30 21289 H 2058.29 3.18897 -1.93284 0
M  V30 21290 N 2060.47 1.3227 0.85688 0
M  V30 21291 C 2061.72 1.22703 1.6109 0
M  V30 21292 C 2062.05 -0.211682 1.93345 0
M  V30 21293 O 2061.3 -1.16408 1.57314 0
M  V30 21294 C 2061.6 2.02967 2.94175 0
M  V30 21295 C 2061.27 3.52346 2.8136 0
M  V30 21296 C 2059.93 3.93074 2.77572 0
M  V30 21297 C 2062.28 4.47347 2.67452 0
M  V30 21298 C 2059.61 5.27049 2.57751 0
M  V30 21299 C 2061.96 5.81463 2.49167 0
M  V30 21300 C 2060.62 6.21396 2.4377 0
M  V30 21301 H 2059.89 0.449003 0.589472 0
M  V30 21302 H 2062.54 1.63673 0.994156 0
M  V30 21303 H 2060.85 1.54719 3.59957 0
M  V30 21304 H 2062.54 1.92936 3.51535 0
M  V30 21305 H 2059.13 3.19997 2.85132 0
M  V30 21306 H 2063.32 4.16802 2.69424 0
M  V30 21307 H 2058.57 5.57048 2.52007 0
M  V30 21308 H 2062.75 6.54692 2.37384 0
M  V30 21309 H 2060.37 7.2515 2.28171 0
M  V30 21310 N 2061.95 -1.07287 1.15444 0
M  V30 21311 C 2063.18 -1.83348 0.952215 0
M  V30 21312 C 2063.59 -1.82396 -0.50282 0
M  V30 21313 O 2062.93 -1.23432 -1.36052 0
M  V30 21314 C 2062.99 -3.31539 1.39004 0
M  V30 21315 C 2062.66 -3.56209 2.86293 0
M  V30 21316 C 2063.65 -3.50097 3.84354 0
M  V30 21317 C 2061.34 -3.83854 3.23977 0
M  V30 21318 C 2063.33 -3.7128 5.18102 0
M  V30 21319 C 2061.02 -4.04688 4.57898 0
M  V30 21320 C 2062.02 -3.98396 5.5477 0
M  V30 21321 O 2061.71 -4.18672 6.86271 0
M  V30 21322 H 2061.44 -0.585295 0.338239 0
M  V30 21323 H 2063.99 -1.36329 1.53634 0
M  V30 21324 H 2062.22 -3.79371 0.74932 0
M  V30 21325 H 2063.91 -3.89066 1.15682 0
M  V30 21326 H 2064.68 -3.28741 3.56587 0
M  V30 21327 H 2060.56 -3.87866 2.49161 0
M  V30 21328 H 2064.1 -3.66284 5.93702 0
M  V30 21329 H 2060 -4.25531 4.8538 0
M  V30 21330 H 2060.76 -4.36016 6.92699 0
M  V30 21331 N 2063.43 -0.951342 -1.25647 0
M  V30 21332 C 2064.68 -0.603157 -1.9289 0
M  V30 21333 C 2065 0.862093 -1.74908 0
M  V30 21334 O 2064.27 1.61366 -1.11075 0
M  V30 21335 H 2062.85 -0.220085 -0.713843 0
M  V30 21336 H 2065.51 -1.20887 -1.5288 0
M  V30 21337 H 2064.6 -0.82965 -3.00871 0
M  V30 21338 N 2064.91 1.40216 -0.719531 0
M  V30 21339 C 2066.13 2.05647 -0.269106 0
M  V30 21340 C 2066.56 1.53865 1.082 0
M  V30 21341 O 2065.91 0.675703 1.68238 0
M  V30 21342 C 2065.96 3.59636 -0.263433 0
M  V30 21343 O 2065.07 4.05448 0.754058 0
M  V30 21344 H 2064.41 0.652036 -0.12548 0
M  V30 21345 H 2066.94 1.79542 -0.981119 0
M  V30 21346 H 2066.95 4.07871 -0.102475 0
M  V30 21347 H 2065.62 3.9669 -1.24939 0
M  V30 21348 H 2064.2 3.68664 0.560502 0
M  V30 21349 N 2066.38 0.466004 1.50553 0
M  V30 21350 C 2067.61 -0.0885768 2.0671 0
M  V30 21351 C 2068.03 -1.33958 1.33044 0
M  V30 21352 O 2067.38 -1.78102 0.398219 0
M  V30 21353 C 2067.43 -0.381842 3.59478 0
M  V30 21354 O 2067.16 0.81954 4.30366 0
M  V30 21355 C 2068.66 -0.98395 4.32242 0
M  V30 21356 H 2065.88 0.00481473 0.670983 0
M  V30 21357 H 2068.42 0.653327 1.93783 0
M  V30 21358 H 2066.58 -1.07367 3.72224 0
M  V30 21359 H 2066.99 0.56106 5.21491 0
M  V30 21360 H 2068.46 -1.13895 5.40122 0
M  V30 21361 H 2068.94 -1.97271 3.92404 0
M  V30 21362 H 2069.55 -0.330654 4.24013 0
M  V30 21363 N 2067.86 -1.56346 0.198413 0
M  V30 21364 C 2068.79 -2.22244 -0.716243 0
M  V30 21365 C 2069.77 -1.1866 -1.21876 0
M  V30 21366 O 2070.96 -1.47177 -1.26699 0
M  V30 21367 C 2068.09 -2.88437 -1.93446 0
M  V30 21368 C 2067.04 -3.98294 -1.56672 0
M  V30 21369 C 2066.37 -4.51668 -2.86182 0
M  V30 21370 C 2067.67 -5.16531 -0.774153 0
M  V30 21371 H 2069.36 -2.98935 -0.166883 0
M  V30 21372 H 2066.91 -1.43784 -0.0788267 0
M  V30 21373 H 2068.86 -3.33221 -2.57957 0
M  V30 21374 H 2067.58 -2.09157 -2.5084 0
M  V30 21375 H 2066.24 -3.54206 -0.945178 0
M  V30 21376 H 2065.89 -3.69146 -3.41673 0
M  V30 21377 H 2065.59 -5.25796 -2.6232 0
M  V30 21378 H 2067.12 -4.99155 -3.51676 0
M  V30 21379 H 2068.53 -5.57839 -1.32244 0
M  V30 21380 H 2066.93 -5.96746 -0.633532 0
M  V30 21381 H 2068 -4.84382 0.224098 0
M  V30 21382 N 2069.34 0.0751653 -1.57421 0
M  V30 21383 C 2070.59 0.774958 -1.87085 0
M  V30 21384 C 2070.92 1.77747 -0.789691 0
M  V30 21385 O 2070.17 1.94519 0.214672 0
M  V30 21386 C 2070.47 1.52138 -3.23402 0
M  V30 21387 C 2070.14 0.659153 -4.46056 0
M  V30 21388 C 2068.8 0.421528 -4.7935 0
M  V30 21389 C 2071.15 0.0610407 -5.21164 0
M  V30 21390 C 2068.48 -0.423745 -5.85168 0
M  V30 21391 C 2070.83 -0.771668 -6.27876 0
M  V30 21392 C 2069.49 -1.0192 -6.59673 0
M  V30 21393 H 2068.76 0.283577 -0.684591 0
M  V30 21394 H 2071.41 0.0358311 -1.91466 0
M  V30 21395 H 2069.72 2.33261 -3.14796 0
M  V30 21396 H 2071.41 2.06757 -3.43588 0
M  V30 21397 H 2068 0.854487 -4.19996 0
M  V30 21398 H 2072.19 0.231747 -4.95759 0
M  V30 21399 H 2067.44 -0.6243 -6.08204 0
M  V30 21400 H 2071.62 -1.24188 -6.85237 0
M  V30 21401 H 2069.24 -1.67595 -7.41496 0
M  V30 21402 N 2070.82 1.53744 0.346476 0
M  V30 21403 C 2071.75 1.84512 1.43099 0
M  V30 21404 C 2072.73 0.700026 1.55028 0
M  V30 21405 O 2073.91 0.951666 1.69284 0
M  V30 21406 C 2071.04 2.0521 2.80189 0
M  V30 21407 C 2070 3.21022 2.8307 0
M  V30 21408 C 2069.32 3.27048 4.23018 0
M  V30 21409 C 2070.62 4.59196 2.4887 0
M  V30 21410 H 2072.32 2.75338 1.17599 0
M  V30 21411 H 2069.86 1.32483 0.564283 0
M  V30 21412 H 2071.82 2.25318 3.56103 0
M  V30 21413 H 2070.54 1.11113 3.07118 0
M  V30 21414 H 2069.2 3.00765 2.09609 0
M  V30 21415 H 2068.85 2.30551 4.47052 0
M  V30 21416 H 2068.55 4.0487 4.25857 0
M  V30 21417 H 2070.07 3.49363 5.00777 0
M  V30 21418 H 2071.49 4.79338 3.14496 0
M  V30 21419 H 2069.88 5.39401 2.62996 0
M  V30 21420 H 2070.95 4.63005 1.44064 0
M  V30 21421 N 2072.3 -0.607329 1.45428 0
M  V30 21422 C 2073.54 -1.37764 1.50998 0
M  V30 21423 C 2073.9 -1.91428 0.148071 0
M  V30 21424 O 2075.1 -2.68685 0.0784708 0
M  V30 21425 C 2073.37 -2.49465 2.55934 0
M  V30 21426 S 2074.93 -3.37247 2.8073 0
M  V30 21427 H 2071.75 -0.469677 0.533783 0
M  V30 21428 H 2074.35 -0.700755 1.82509 0
M  V30 21429 H 2073.06 -2.08391 3.53556 0
M  V30 21430 H 2072.59 -3.21954 2.26074 0
M  V30 21431 H 2074.6 -4.47619 2.14129 0
M  V30 21432 N 2073.77 -1.32722 -0.849853 0
M  V30 21433 C 2075.19 -1.11818 -1.13882 0
M  V30 21434 C 2075.39 0.0981854 -2.01261 0
M  V30 21435 O 2074.45 0.781678 -2.40096 0
M  V30 21436 C 2075.76 -2.4001 -1.81151 0
M  V30 21437 C 2077.31 -2.45813 -1.93765 0
M  V30 21438 C 2077.78 -3.73939 -2.6445 0
M  V30 21439 N 2079.27 -3.74948 -2.71971 0
M  V30 21440 C 2080.01 -4.70792 -3.27326 0
M  V30 21441 N 2079.5 -5.77005 -3.83454 0
M  V30 21442 N 2081.3 -4.58282 -3.25475 0
M  V30 21443 H 2073.45 -2.10702 -0.26806 0
M  V30 21444 H 2075.71 -0.930482 -0.181405 0
M  V30 21445 H 2075.42 -3.28963 -1.24403 0
M  V30 21446 H 2075.29 -2.51333 -2.81267 0
M  V30 21447 H 2077.68 -1.57316 -2.49671 0
M  V30 21448 H 2077.76 -2.38439 -0.926307 0
M  V30 21449 H 2077.4 -4.62812 -2.09206 0
M  V30 21450 H 2077.33 -3.78586 -3.66034 0
M  V30 21451 H 2079.82 -2.9818 -2.32157 0
M  V30 21452 H 2080.14 -6.46188 -4.23864 0
M  V30 21453 H 2078.48 -5.80753 -3.81773 0
M  V30 21454 H 2081.67 -3.74468 -2.80876 0
M  V30 21455 H 2081.85 -5.3315 -3.68314 0
M  V30 21456 N 2075.25 1.06673 -1.16011 0
M  V30 21457 C 2076.67 1.31515 -0.90421 0
M  V30 21458 C 2076.87 1.96524 0.445021 0
M  V30 21459 O 2075.92 2.22945 1.18541 0
M  V30 21460 C 2077.24 2.19955 -2.05037 0
M  V30 21461 C 2078.79 2.33384 -2.08569 0
M  V30 21462 C 2079.26 3.25176 -3.22528 0
M  V30 21463 N 2080.75 3.32759 -3.2222 0
M  V30 21464 C 2081.49 4.03866 -4.07038 0
M  V30 21465 N 2080.98 4.77529 -5.01934 0
M  V30 21466 N 2082.78 3.99877 -3.95037 0
M  V30 21467 H 2074.93 0.628672 -2.02883 0
M  V30 21468 H 2077.19 0.339704 -0.885045 0
M  V30 21469 H 2076.9 1.79458 -3.02469 0
M  V30 21470 H 2076.77 3.20521 -1.98862 0
M  V30 21471 H 2079.16 2.7313 -1.11732 0
M  V30 21472 H 2079.24 1.32499 -2.1881 0
M  V30 21473 H 2078.88 2.86147 -4.19622 0
M  V30 21474 H 2078.81 4.26031 -3.09524 0
M  V30 21475 H 2081.3 2.80259 -2.53502 0
M  V30 21476 H 2081.62 5.29302 -5.6308 0
M  V30 21477 H 2079.96 4.76522 -5.05917 0
M  V30 21478 H 2083.15 3.41446 -3.20207 0
M  V30 21479 H 2083.32 4.55027 -4.61361 0
M  V30 21480 N 2076.73 0.957992 1.25141 0
M  V30 21481 C 2078.14 0.65484 1.74839 0
M  V30 21482 C 2078.49 -0.829713 1.77793 0
M  V30 21483 O 2077.62 -1.6493 1.40096 0
M  V30 21484 C 2078.21 1.18197 3.17513 0
M  V30 21485 C 2076.77 0.928917 3.64758 0
M  V30 21486 C 2075.92 1.32303 2.43703 0
M  V30 21487 H 2078.87 1.13442 1.1098 0
M  V30 21488 H 2078.89 0.543641 3.76596 0
M  V30 21489 H 2078.4 2.26246 3.15332 0
M  V30 21490 H 2076.5 -0.136467 3.7235 0
M  V30 21491 H 2076.62 1.56774 4.52724 0
M  V30 21492 H 2074.98 0.741407 2.4367 0
M  V30 21493 H 2075.76 2.41281 2.4421 0
M  V30 21494 N 2078.21 -1.39832 0.726957 0
M  V30 21495 C 2079.44 -2.04978 0.281383 0
M  V30 21496 C 2079.85 -1.54795 -1.08092 0
M  V30 21497 O 2079.21 -0.709375 -1.68149 0
M  V30 21498 C 2079.26 -3.60526 0.265184 0
M  V30 21499 O 2078.98 -4.0886 1.5737 0
M  V30 21500 C 2080.48 -4.4286 -0.197547 0
M  V30 21501 H 2077.7 -0.659374 0.124366 0
M  V30 21502 H 2080.25 -1.7903 0.988352 0
M  V30 21503 H 2078.4 -3.85403 -0.392835 0
M  V30 21504 H 2078.81 -5.03132 1.48183 0
M  V30 21505 H 2080.29 -5.51775 -0.157727 0
M  V30 21506 H 2080.77 -4.21288 -1.24149 0
M  V30 21507 H 2081.37 -4.23114 0.430611 0
M  V30 21508 N 2079.69 -0.473982 -1.50304 0
M  V30 21509 C 2081.1 -0.0195635 -1.8669 0
M  V30 21510 C 2081.45 1.38613 -1.38856 0
M  V30 21511 O 2080.57 2.02811 -0.754772 0
M  V30 21512 C 2081.17 -0.0287258 -3.38788 0
M  V30 21513 C 2079.73 0.370234 -3.74575 0
M  V30 21514 C 2078.87 -0.412963 -2.74208 0
M  V30 21515 H 2081.83 -0.688116 -1.43006 0
M  V30 21516 H 2081.85 0.772789 -3.7257 0
M  V30 21517 H 2081.36 -1.05193 -3.73572 0
M  V30 21518 H 2079.46 1.39768 -3.45392 0
M  V30 21519 H 2079.57 0.0695687 -4.79049 0
M  V30 21520 H 2077.94 0.13371 -2.54349 0
M  V30 21521 H 2078.72 -1.43573 -3.11836 0
M  V30 21522 N 2081.16 1.56239 -0.206702 0
M  V30 21523 C 2082.1 2.16873 0.741546 0
M  V30 21524 C 2083.11 1.1337 1.16838 0
M  V30 21525 O 2084.3 1.40413 1.1021 0
M  V30 21526 C 2081.4 2.72544 2.01427 0
M  V30 21527 C 2080.57 4.01068 1.74538 0
M  V30 21528 C 2079.63 4.4145 2.86371 0
M  V30 21529 O 2078.66 5.08645 2.55479 0
M  V30 21530 N 2079.86 4.05908 4.14993 0
M  V30 21531 H 2082.62 2.98869 0.222965 0
M  V30 21532 H 2080.18 1.6188 -0.0251503 0
M  V30 21533 H 2082.18 2.96538 2.75404 0
M  V30 21534 H 2080.75 1.94935 2.44375 0
M  V30 21535 H 2079.97 3.85085 0.842806 0
M  V30 21536 H 2081.25 4.84939 1.53985 0
M  V30 21537 H 2080.65 3.51882 4.4294 0
M  V30 21538 H 2079.21 4.34827 4.85561 0
M  V30 21539 N 2082.64 -0.0668159 1.57458 0
M  V30 21540 C 2083.92 -0.798309 1.78568 0
M  V30 21541 C 2084.3 -1.95537 0.79552 0
M  V30 21542 O 2083.65 -2.27864 -0.170331 0
M  V30 21543 C 2083.86 -1.26662 3.25204 0
M  V30 21544 C 2085.21 -1.69798 3.89171 0
M  V30 21545 O 2086.23 -1.36216 3.29125 0
M  V30 21546 O 2085.09 -2.31989 4.94817 0
M  V30 21547 H 2082.18 -0.382924 0.733006 0
M  V30 21548 H 2084.73 -0.0465065 1.69636 0
M  V30 21549 H 2083.5 -0.438929 3.8883 0
M  V30 21550 H 2083.12 -2.07959 3.38879 0
M  V30 21551 N 2084.12 -1.53926 -0.338317 0
M  V30 21552 C 2085.35 -1.75682 -1.1023 0
M  V30 21553 C 2085.77 -0.497087 -1.81413 0
M  V30 21554 O 2085.13 0.550577 -1.72738 0
M  V30 21555 C 2085.18 -2.94038 -2.08743 0
M  V30 21556 O 2084.28 -2.64552 -3.16364 0
M  V30 21557 H 2083.62 -0.582603 -0.318544 0
M  V30 21558 H 2086.15 -2.00904 -0.387113 0
M  V30 21559 H 2086.16 -3.20973 -2.51873 0
M  V30 21560 H 2084.84 -3.854 -1.56331 0
M  V30 21561 H 2083.41 -2.48521 -2.78014 0
M  V30 21562 N 2085.6 0.599608 -1.45748 0
M  V30 21563 C 2087.01 1.18163 -1.44549 0
M  V30 21564 C 2087.36 1.95397 -0.17732 0
M  V30 21565 O 2086.49 2.04048 0.720645 0
M  V30 21566 C 2087.08 2.14951 -2.6188 0
M  V30 21567 C 2085.64 2.68513 -2.63776 0
M  V30 21568 C 2084.79 1.44065 -2.3694 0
M  V30 21569 H 2087.74 0.388471 -1.53872 0
M  V30 21570 H 2087.76 2.98126 -2.36434 0
M  V30 21571 H 2087.27 1.58711 -3.54164 0
M  V30 21572 H 2085.37 3.28669 -1.7552 0
M  V30 21573 H 2085.49 3.12401 -3.63239 0
M  V30 21574 H 2083.85 1.73296 -1.86657 0
M  V30 21575 H 2084.63 0.896802 -3.31379 0
M  V30 21576 N 2087.08 1.33171 0.842803 0
M  V30 21577 C 2088.33 1.23754 1.59273 0
M  V30 21578 C 2088.64 -0.196137 1.94614 0
M  V30 21579 O 2089.85 -0.412282 2.68351 0
M  V30 21580 C 2088.3 2.16819 2.87259 0
M  V30 21581 C 2087.91 3.65335 2.59296 0
M  V30 21582 C 2089.65 2.16266 3.6528 0
M  V30 21583 C 2087.56 4.50325 3.83355 0
M  V30 21584 H 2086.49 0.459639 0.597702 0
M  V30 21585 H 2089.14 1.5821 0.929616 0
M  V30 21586 H 2087.52 1.75291 3.5509 0
M  V30 21587 H 2088.7 4.15278 1.99701 0
M  V30 21588 H 2087.01 3.68138 1.94586 0
M  V30 21589 H 2089.61 2.76995 4.57359 0
M  V30 21590 H 2089.95 1.1567 3.99908 0
M  V30 21591 H 2090.49 2.56135 3.04368 0
M  V30 21592 H 2087.22 5.51781 3.53861 0
M  V30 21593 H 2086.74 4.05127 4.42303 0
M  V30 21594 H 2088.42 4.6393 4.50975 0
M  V30 21595 N 2088.56 -1.06056 1.16576 0
M  V30 21596 C 2089.8 -1.78899 0.94875 0
M  V30 21597 C 2090.13 -1.87329 -0.523266 0
M  V30 21598 O 2089.39 -1.36291 -1.40439 0
M  V30 21599 C 2089.68 -3.23265 1.52429 0
M  V30 21600 C 2089.35 -3.34911 3.01904 0
M  V30 21601 C 2088.01 -3.37796 3.42706 0
M  V30 21602 C 2090.36 -3.36636 3.97902 0
M  V30 21603 C 2087.69 -3.40025 4.78121 0
M  V30 21604 C 2090.04 -3.40403 5.33206 0
M  V30 21605 C 2088.71 -3.41572 5.73485 0
M  V30 21606 H 2087.98 -0.654639 0.347172 0
M  V30 21607 H 2090.63 -1.24708 1.45328 0
M  V30 21608 H 2088.93 -3.80326 0.94126 0
M  V30 21609 H 2090.63 -3.7823 1.33204 0
M  V30 21610 H 2087.22 -3.33372 2.69372 0
M  V30 21611 H 2091.4 -3.33615 3.67443 0
M  V30 21612 H 2086.66 -3.39236 5.08654 0
M  V30 21613 H 2090.83 -3.40686 6.07377 0
M  V30 21614 H 2088.46 -3.43052 6.78395 0
M  V30 21615 N 2090.03 -0.964615 -1.24631 0
M  V30 21616 C 2090.96 -0.511091 -2.27838 0
M  V30 21617 C 2091.94 0.447692 -1.64103 0
M  V30 21618 O 2093.13 0.344485 -1.9112 0
M  V30 21619 C 2090.26 0.202467 -3.46709 0
M  V30 21620 C 2089.21 -0.672032 -4.22691 0
M  V30 21621 C 2088.54 0.172842 -5.34421 0
M  V30 21622 C 2089.84 -1.9551 -4.84327 0
M  V30 21623 H 2091.53 -1.37371 -2.66025 0
M  V30 21624 H 2089.08 -0.661983 -1.27882 0
M  V30 21625 H 2091.03 0.530942 -4.18042 0
M  V30 21626 H 2089.76 1.09942 -3.07539 0
M  V30 21627 H 2088.42 -0.983734 -3.53155 0
M  V30 21628 H 2088.06 1.06985 -4.91491 0
M  V30 21629 H 2087.76 -0.409046 -5.86175 0
M  V30 21630 H 2089.29 0.496057 -6.08582 0
M  V30 21631 H 2090.7 -1.69241 -5.4775 0
M  V30 21632 H 2089.1 -2.48346 -5.46301 0
M  V30 21633 H 2090.17 -2.65197 -4.05954 0
M  V30 21634 N 2091.51 1.39445 -0.734362 0
M  V30 21635 C 2092.92 1.8335 -0.352097 0
M  V30 21636 C 2093.27 1.61344 1.11635 0
M  V30 21637 O 2092.4 1.10427 1.86105 0
M  V30 21638 C 2092.99 3.32848 -0.632286 0
M  V30 21639 C 2091.55 3.75174 -0.303522 0
M  V30 21640 C 2090.7 2.62452 -0.895228 0
M  V30 21641 H 2093.65 1.28446 -0.932054 0
M  V30 21642 H 2093.67 3.80378 0.0961584 0
M  V30 21643 H 2093.18 3.48832 -1.70111 0
M  V30 21644 H 2091.28 3.64777 0.759492 0
M  V30 21645 H 2091.4 4.72615 -0.785637 0
M  V30 21646 H 2089.76 2.52658 -0.321907 0
M  V30 21647 H 2090.54 2.81242 -1.9687 0
M  V30 21648 N 2092.99 0.481946 1.5005 0
M  V30 21649 C 2094.24 -0.0693805 2.02681 0
M  V30 21650 C 2094.57 -1.3839 1.36242 0
M  V30 21651 O 2093.84 -1.88182 0.491706 0
M  V30 21652 C 2094.13 -0.24187 3.59287 0
M  V30 21653 C 2093.98 1.09443 4.36282 0
M  V30 21654 C 2095.3 -0.991404 4.28788 0
M  V30 21655 H 2092.42 -0.0237405 0.736618 0
M  V30 21656 H 2095.06 0.629651 1.79263 0
M  V30 21657 H 2093.21 -0.837271 3.79371 0
M  V30 21658 H 2094.88 1.72725 4.27743 0
M  V30 21659 H 2093.12 1.68843 3.99593 0
M  V30 21660 H 2093.8 0.92726 5.44156 0
M  V30 21661 H 2096.27 -0.486628 4.13245 0
M  V30 21662 H 2095.15 -1.08091 5.38152 0
M  V30 21663 H 2095.41 -2.03061 3.92707 0
M  V30 21664 N 2094.47 -1.56127 0.214985 0
M  V30 21665 C 2095.74 -1.8994 -0.467153 0
M  V30 21666 C 2096.12 -1.13139 -1.78221 0
M  V30 21667 O 2095.47 -0.238654 -2.2725 0
M  V30 21668 C 2095.68 -3.42576 -0.666524 0
M  V30 21669 C 2097.03 -4.13209 -0.976927 0
M  V30 21670 O 2098.05 -3.48138 -0.753545 0
M  V30 21671 O 2096.91 -5.2825 -1.40052 0
M  V30 21672 H 2094.01 -0.789533 -0.246102 0
M  V30 21673 H 2096.55 -1.67748 0.256681 0
M  V30 21674 H 2095.33 -3.90426 0.261344 0
M  V30 21675 H 2094.95 -3.70526 -1.44209 0
M  V30 21676 N 2095.95 0.0584645 -1.57492 0
M  V30 21677 C 2097.22 0.788828 -1.78988 0
M  V30 21678 C 2097.6 1.95112 -0.805878 0
M  V30 21679 O 2096.95 2.27951 0.158244 0
M  V30 21680 C 2097.16 1.24936 -3.25871 0
M  V30 21681 C 2098.51 1.67732 -3.90066 0
M  V30 21682 O 2099.53 1.34469 -3.29843 0
M  V30 21683 O 2098.39 2.29361 -4.9604 0
M  V30 21684 H 2095.49 0.379032 -0.735027 0
M  V30 21685 H 2098.03 0.0375096 -1.69659 0
M  V30 21686 H 2096.8 0.418302 -3.89058 0
M  V30 21687 H 2096.43 2.06159 -3.39977 0
M  V30 21688 N 2097.42 1.54103 0.330149 0
M  V30 21689 C 2098.65 1.75948 1.08857 0
M  V30 21690 C 2099.07 0.504949 1.81922 0
M  V30 21691 O 2098.42 -0.524053 1.74814 0
M  V30 21692 C 2098.47 2.94836 2.09175 0
M  V30 21693 O 2098.2 4.15438 1.39079 0
M  V30 21694 C 2099.7 3.28839 2.97287 0
M  V30 21695 H 2096.92 0.587551 0.324076 0
M  V30 21696 H 2099.46 2.00971 0.378279 0
M  V30 21697 H 2097.62 2.72105 2.75749 0
M  V30 21698 H 2098.03 4.82266 2.06204 0
M  V30 21699 H 2099.5 4.15343 3.63586 0
M  V30 21700 H 2099.98 2.4572 3.64031 0
M  V30 21701 H 2100.59 3.53624 2.36284 0
M  V30 21702 N 2098.9 -0.59187 1.46064 0
M  V30 21703 C 2100.13 -1.38153 1.54688 0
M  V30 21704 C 2100.55 -1.87183 0.185547 0
M  V30 21705 O 2099.91 -1.61046 -0.832694 0
M  V30 21706 C 2099.96 -2.55134 2.54831 0
M  V30 21707 O 2099.06 -3.56279 2.077 0
M  V30 21708 H 2098.4 -0.41181 0.520873 0
M  V30 21709 H 2100.93 -0.718824 1.91557 0
M  V30 21710 H 2100.94 -3.02173 2.74145 0
M  V30 21711 H 2099.62 -2.188 3.53694 0
M  V30 21712 H 2098.2 -3.15782 1.98333 0
M  V30 21713 N 2100.38 -1.33616 -0.835729 0
M  V30 21714 C 2101.63 -1.25251 -1.59118 0
M  V30 21715 C 2101.96 0.180895 -1.93657 0
M  V30 21716 O 2101.21 1.1389 -1.59146 0
M  V30 21717 C 2101.51 -2.07621 -2.90909 0
M  V30 21718 C 2101.18 -3.56777 -2.75719 0
M  V30 21719 C 2099.84 -3.9744 -2.71283 0
M  V30 21720 C 2102.19 -4.51545 -2.60301 0
M  V30 21721 C 2099.52 -5.31083 -2.49334 0
M  V30 21722 C 2101.87 -5.85353 -2.39885 0
M  V30 21723 C 2100.53 -6.25195 -2.33853 0
M  V30 21724 H 2099.8 -0.458325 -0.582254 0
M  V30 21725 H 2102.45 -1.65234 -0.967991 0
M  V30 21726 H 2100.76 -1.60426 -3.5745 0
M  V30 21727 H 2102.45 -1.98504 -3.48421 0
M  V30 21728 H 2099.04 -3.24492 -2.80005 0
M  V30 21729 H 2103.23 -4.21036 -2.62759 0
M  V30 21730 H 2098.48 -5.60987 -2.43113 0
M  V30 21731 H 2102.66 -6.58386 -2.26939 0
M  V30 21732 H 2100.28 -7.28688 -2.16606 0
M  V30 21733 N 2101.86 1.05436 -1.17136 0
M  V30 21734 C 2103.27 1.30549 -0.918108 0
M  V30 21735 C 2103.47 1.96985 0.424152 0
M  V30 21736 O 2102.53 2.24189 1.1617 0
M  V30 21737 C 2103.84 2.17768 -2.07358 0
M  V30 21738 C 2105.39 2.31158 -2.11033 0
M  V30 21739 C 2105.87 3.21737 -3.25959 0
M  V30 21740 N 2107.36 3.29322 -3.25731 0
M  V30 21741 C 2108.09 3.99526 -4.11299 0
M  V30 21742 N 2107.59 4.72178 -5.06971 0
M  V30 21743 N 2109.38 3.95665 -3.99256 0
M  V30 21744 H 2101.53 0.607118 -2.03538 0
M  V30 21745 H 2103.8 0.330298 -0.888599 0
M  V30 21746 H 2103.5 1.7624 -3.04356 0
M  V30 21747 H 2103.38 3.18394 -2.02251 0
M  V30 21748 H 2105.76 2.71929 -1.14623 0
M  V30 21749 H 2105.84 1.30171 -2.20203 0
M  V30 21750 H 2105.49 2.8168 -4.22633 0
M  V30 21751 H 2105.42 4.22724 -3.14025 0
M  V30 21752 H 2107.91 2.77555 -2.5646 0
M  V30 21753 H 2108.22 5.233 -5.68662 0
M  V30 21754 H 2106.57 4.71129 -5.10943 0
M  V30 21755 H 2109.76 3.3803 -3.2381 0
M  V30 21756 H 2109.93 4.50108 -4.66161 0
M  V30 21757 N 2103.34 0.971211 1.24118 0
M  V30 21758 C 2104.58 0.645565 1.92883 0
M  V30 21759 C 2104.94 -0.810841 1.7448 0
M  V30 21760 O 2104.23 -1.57617 1.08938 0
M  V30 21761 C 2104.42 0.960091 3.44263 0
M  V30 21762 C 2104.25 2.44552 3.77391 0
M  V30 21763 C 2103.02 3.10595 3.98571 0
M  V30 21764 C 2105.22 3.42577 3.83595 0
M  V30 21765 N 2103.2 4.48839 4.18828 0
M  V30 21766 C 2104.57 4.66192 4.08736 0
M  V30 21767 C 2106.63 3.37186 3.66347 0
M  V30 21768 C 2105.33 5.85078 4.18421 0
M  V30 21769 C 2107.36 4.55428 3.77279 0
M  V30 21770 C 2106.72 5.77834 4.02848 0
M  V30 21771 H 2102.82 0.287133 0.727378 0
M  V30 21772 H 2105.4 1.24679 1.49543 0
M  V30 21773 H 2103.57 0.387647 3.86461 0
M  V30 21774 H 2105.31 0.592659 4.00337 0
M  V30 21775 H 2102.06 2.61116 3.95115 0
M  V30 21776 H 2102.49 5.20482 4.32929 0
M  V30 21777 H 2107.13 2.43583 3.45582 0
M  V30 21778 H 2104.85 6.79106 4.37996 0
M  V30 21779 H 2108.43 4.52822 3.65299 0
M  V30 21780 H 2107.31 6.67801 4.1111 0
M  V30 21781 N 2104.81 -1.39054 0.741747 0
M  V30 21782 C 2106.06 -2.00671 0.293089 0
M  V30 21783 C 2106.39 -1.58733 -1.11882 0
M  V30 21784 O 2105.67 -0.819335 -1.76401 0
M  V30 21785 C 2105.95 -3.57843 0.402573 0
M  V30 21786 C 2105.8 -4.0978 1.85474 0
M  V30 21787 C 2107.12 -4.39594 -0.211039 0
M  V30 21788 H 2104.24 -0.729048 0.10797 0
M  V30 21789 H 2106.88 -1.65165 0.939169 0
M  V30 21790 H 2105.03 -3.8822 -0.147482 0
M  V30 21791 H 2106.71 -3.90095 2.46219 0
M  V30 21792 H 2104.95 -3.63088 2.3738 0
M  V30 21793 H 2105.62 -5.18906 1.88257 0
M  V30 21794 H 2108.1 -4.153 0.257937 0
M  V30 21795 H 2106.97 -5.48801 -0.104126 0
M  V30 21796 H 2107.23 -4.22618 -1.29792 0
M  V30 21797 N 2106.29 -0.489897 -1.49792 0
M  V30 21798 C 2107.2 0.29927 -2.32683 0
M  V30 21799 C 2108.22 0.978042 -1.43911 0
M  V30 21800 O 2109.39 0.961875 -1.76946 0
M  V30 21801 C 2106.46 1.35623 -3.19073 0
M  V30 21802 C 2105.52 0.692067 -4.23685 0
M  V30 21803 C 2104.75 1.69866 -5.05946 0
M  V30 21804 O 2104.98 2.92732 -4.89555 0
M  V30 21805 O 2103.91 1.2601 -5.88562 0
M  V30 21806 H 2107.74 -0.378894 -3.01327 0
M  V30 21807 H 2105.32 -0.251411 -1.47269 0
M  V30 21808 H 2107.2 1.96801 -3.72622 0
M  V30 21809 H 2105.88 2.01752 -2.53136 0
M  V30 21810 H 2104.79 0.040831 -3.74078 0
M  V30 21811 H 2106.12 0.0734074 -4.92145 0
M  V30 21812 N 2107.77 1.56011 -0.223262 0
M  V30 21813 C 2109 2.03189 0.415817 0
M  V30 21814 C 2109.42 1.102 1.52439 0
M  V30 21815 O 2108.78 0.0904999 1.81074 0
M  V30 21816 C 2108.83 3.48586 0.923053 0
M  V30 21817 O 2107.93 3.58734 2.03429 0
M  V30 21818 H 2107.27 0.65733 0.0938783 0
M  V30 21819 H 2109.8 2.01715 -0.342399 0
M  V30 21820 H 2109.81 3.88941 1.23243 0
M  V30 21821 H 2108.49 4.1575 0.11169 0
M  V30 21822 H 2107.06 3.30267 1.73142 0
M  V30 21823 N 2109.25 -0.0501116 1.5752 0
M  V30 21824 C 2110.18 -1.05708 2.08202 0
M  V30 21825 C 2111.16 -1.39032 0.980009 0
M  V30 21826 O 2112.34 -1.48283 1.25403 0
M  V30 21827 C 2109.47 -2.36429 2.54399 0
M  V30 21828 C 2108.43 -2.17402 3.68674 0
M  V30 21829 C 2107.75 -3.53698 4.01001 0
M  V30 21830 C 2109.05 -1.57741 4.97911 0
M  V30 21831 H 2110.75 -0.635258 2.92583 0
M  V30 21832 H 2108.29 -0.304127 1.40752 0
M  V30 21833 H 2110.25 -3.07184 2.88472 0
M  V30 21834 H 2108.97 -2.80631 1.67074 0
M  V30 21835 H 2107.63 -1.49084 3.34917 0
M  V30 21836 H 2107.28 -3.9551 3.10774 0
M  V30 21837 H 2106.98 -3.418 4.77961 0
M  V30 21838 H 2108.5 -4.25849 4.3759 0
M  V30 21839 H 2109.92 -2.18387 5.30075 0
M  V30 21840 H 2108.31 -1.56478 5.7934 0
M  V30 21841 H 2109.38 -0.540999 4.81873 0
M  V30 21842 N 2110.73 -1.54276 -0.321972 0
M  V30 21843 C 2111.67 -1.83772 -1.3963 0
M  V30 21844 C 2112.64 -0.684941 -1.5132 0
M  V30 21845 O 2113.83 -0.931526 -1.66515 0
M  V30 21846 C 2110.97 -2.07212 -2.75966 0
M  V30 21847 C 2110.08 -3.34892 -2.72895 0
M  V30 21848 C 2109.22 -3.48284 -4.01088 0
M  V30 21849 C 2108.26 -4.69833 -3.9233 0
M  V30 21850 N 2107.39 -4.80144 -5.12256 0
M  V30 21851 H 2112.23 -2.75425 -1.13777 0
M  V30 21852 H 2109.77 -1.36401 -0.550737 0
M  V30 21853 H 2111.73 -2.18794 -3.55225 0
M  V30 21854 H 2110.36 -1.18848 -3.00125 0
M  V30 21855 H 2109.41 -3.32039 -1.85618 0
M  V30 21856 H 2110.72 -4.2426 -2.62307 0
M  V30 21857 H 2109.88 -3.59417 -4.88778 0
M  V30 21858 H 2108.61 -2.57011 -4.14483 0
M  V30 21859 H 2107.62 -4.58755 -3.03024 0
M  V30 21860 H 2108.84 -5.62492 -3.80498 0
M  V30 21861 H 2106.79 -3.91787 -5.26155 0
M  V30 21862 H 2106.71 -5.6348 -5.0401 0
M  V30 21863 H 2107.98 -4.9561 -6.01657 0
M  V30 21864 N 2112.2 0.584116 -1.46376 0
M  V30 21865 C 2113.45 1.33973 -1.51313 0
M  V30 21866 C 2113.77 1.94294 -0.165758 0
M  V30 21867 O 2113.04 1.78481 0.807546 0
M  V30 21868 H 2111.62 0.497422 -0.557298 0
M  V30 21869 H 2114.29 0.684191 -1.82496 0
M  V30 21870 H 2113.38 2.14716 -2.26503 0
M  V30 21871 N 2113.68 1.34058 0.828631 0
M  V30 21872 C 2114.93 1.25437 1.57951 0
M  V30 21873 C 2115.25 -0.175484 1.94811 0
M  V30 21874 O 2116.45 -0.383797 2.68774 0
M  V30 21875 C 2114.91 2.19853 2.84943 0
M  V30 21876 C 2114.52 3.68064 2.55407 0
M  V30 21877 C 2116.26 2.20128 3.62966 0
M  V30 21878 C 2114.17 4.54366 3.78557 0
M  V30 21879 H 2113.1 0.465952 0.592794 0
M  V30 21880 H 2115.75 1.59187 0.912783 0
M  V30 21881 H 2114.13 1.79047 3.53211 0
M  V30 21882 H 2115.3 4.17373 1.95286 0
M  V30 21883 H 2113.62 3.70181 1.9067 0
M  V30 21884 H 2116.22 2.81831 4.54396 0
M  V30 21885 H 2116.56 1.19905 3.98658 0
M  V30 21886 H 2117.09 2.59349 3.01634 0
M  V30 21887 H 2113.83 5.55503 3.47989 0
M  V30 21888 H 2113.35 4.09795 4.37982 0
M  V30 21889 H 2115.03 4.68687 4.46029 0
M  V30 21890 N 2115.16 -1.04814 1.17694 0
M  V30 21891 C 2116.09 -2.1459 0.920505 0
M  V30 21892 C 2117.07 -1.69531 -0.138953 0
M  V30 21893 O 2118.26 -1.94196 0.0120784 0
M  V30 21894 C 2115.39 -3.44537 0.437198 0
M  V30 21895 C 2114.34 -4.03181 1.43628 0
M  V30 21896 C 2113.67 -5.28517 0.810779 0
M  V30 21897 C 2114.97 -4.40226 2.81066 0
M  V30 21898 H 2116.66 -2.363 1.83856 0
M  V30 21899 H 2114.21 -1.13563 0.885411 0
M  V30 21900 H 2116.16 -4.20686 0.245199 0
M  V30 21901 H 2114.88 -3.22492 -0.516401 0
M  V30 21902 H 2113.54 -3.29106 1.61508 0
M  V30 21903 H 2113.19 -5.02777 -0.149773 0
M  V30 21904 H 2112.89 -5.68714 1.47776 0
M  V30 21905 H 2114.42 -6.0735 0.62914 0
M  V30 21906 H 2115.83 -5.07393 2.66881 0
M  V30 21907 H 2114.23 -4.91451 3.44377 0
M  V30 21908 H 2115.3 -3.50396 3.35188 0
M  V30 21909 N 2116.64 -0.977779 -1.23601 0
M  V30 21910 C 2117.6 -0.520908 -2.23202 0
M  V30 21911 C 2118.6 0.38804 -1.56048 0
M  V30 21912 O 2119.79 0.182096 -1.73246 0
M  V30 21913 C 2116.92 0.244298 -3.40024 0
M  V30 21914 H 2118.12 -1.40154 -2.65135 0
M  V30 21915 H 2115.67 -0.763397 -1.36389 0
M  V30 21916 H 2116.41 1.14159 -3.03543 0
M  V30 21917 H 2116.19 -0.408125 -3.8997 0
M  V30 21918 H 2117.68 0.55263 -4.13927 0
M  V30 21919 N 2118.12 1.38658 -0.749111 0
M  V30 21920 C 2119.39 1.94255 -0.228976 0
M  V30 21921 C 2119.77 1.68478 1.27194 0
M  V30 21922 O 2119.12 1.02082 2.0443 0
M  V30 21923 C 2119.33 3.44183 -0.577827 0
M  V30 21924 C 2120.68 4.21216 -0.534981 0
M  V30 21925 O 2121.7 3.52445 -0.515853 0
M  V30 21926 O 2120.56 5.43806 -0.541959 0
M  V30 21927 H 2117.66 0.825688 -0.0465621 0
M  V30 21928 H 2120.2 1.48077 -0.828929 0
M  V30 21929 H 2118.98 3.56436 -1.6146 0
M  V30 21930 H 2118.6 3.97568 0.0503656 0
M  V30 21931 N 2119.6 0.497834 1.49531 0
M  V30 21932 C 2120.51 -0.286926 2.32839 0
M  V30 21933 C 2121.52 -0.970397 1.44427 0
M  V30 21934 O 2122.7 -0.952478 1.77454 0
M  V30 21935 C 2119.76 -1.33928 3.19788 0
M  V30 21936 C 2118.82 -0.669588 4.24046 0
M  V30 21937 C 2118.06 -1.67181 5.0684 0
M  V30 21938 O 2118.28 -2.90132 4.91101 0
M  V30 21939 O 2117.21 -1.22887 5.89222 0
M  V30 21940 H 2121.04 0.394869 3.01122 0
M  V30 21941 H 2118.62 0.259218 1.47134 0
M  V30 21942 H 2120.51 -1.94822 3.73661 0
M  V30 21943 H 2119.18 -2.00407 2.54202 0
M  V30 21944 H 2118.09 -0.0209922 3.74094 0
M  V30 21945 H 2119.42 -0.0473067 4.92177 0
M  V30 21946 N 2121.07 -1.5589 0.231532 0
M  V30 21947 C 2122.35 -1.90424 -0.446981 0
M  V30 21948 C 2122.73 -1.15023 -1.77011 0
M  V30 21949 O 2122.08 -0.262744 -2.26984 0
M  V30 21950 C 2122.29 -3.43264 -0.630152 0
M  V30 21951 C 2123.64 -4.14221 -0.933046 0
M  V30 21952 O 2124.66 -3.48918 -0.716578 0
M  V30 21953 O 2123.52 -5.29705 -1.34441 0
M  V30 21954 H 2120.61 -0.792099 -0.237715 0
M  V30 21955 H 2123.16 -1.67466 0.274458 0
M  V30 21956 H 2121.93 -3.90127 0.302739 0
M  V30 21957 H 2121.55 -3.72035 -1.40271 0
M  V30 21958 N 2122.55 0.0417572 -1.57545 0
M  V30 21959 C 2123.78 0.750955 -1.93327 0
M  V30 21960 C 2124.2 1.68773 -0.830508 0
M  V30 21961 O 2123.56 1.80024 0.214702 0
M  V30 21962 C 2123.61 1.49503 -3.28148 0
M  V30 21963 O 2122.71 2.60754 -3.19501 0
M  V30 21964 H 2122.05 0.202874 -0.632248 0
M  V30 21965 H 2124.58 0.00102047 -2.046 0
M  V30 21966 H 2124.59 1.86775 -3.62738 0
M  V30 21967 H 2123.27 0.80791 -4.07977 0
M  V30 21968 H 2121.84 2.26119 -2.96521 0
M  V30 21969 N 2124.03 1.54445 0.313786 0
M  V30 21970 C 2125.25 1.77413 1.07421 0
M  V30 21971 C 2125.68 0.525885 1.80599 0
M  V30 21972 O 2125.04 -0.523027 1.73592 0
M  V30 21973 C 2125.09 2.97322 2.04039 0
M  V30 21974 O 2124.19 2.69552 3.12115 0
M  V30 21975 H 2123.53 0.587597 0.309235 0
M  V30 21976 H 2126.06 2.01495 0.355102 0
M  V30 21977 H 2126.07 3.2494 2.46735 0
M  V30 21978 H 2124.75 3.87839 1.5018 0
M  V30 21979 H 2123.32 2.52913 2.74025 0
M  V30 21980 N 2125.51 -0.576345 1.46683 0
M  V30 21981 C 2126.92 -0.900361 1.31779 0
M  V30 21982 C 2127.12 -1.99344 0.293964 0
M  V30 21983 O 2126.18 -2.50697 -0.301245 0
M  V30 21984 C 2127.49 -1.31169 2.70583 0
M  V30 21985 C 2129.04 -1.42419 2.78722 0
M  V30 21986 C 2129.52 -1.86916 4.18123 0
M  V30 21987 N 2131.01 -1.94099 4.20571 0
M  V30 21988 C 2131.74 -2.29817 5.2533 0
M  V30 21989 N 2131.24 -2.64282 6.40411 0
M  V30 21990 N 2133.03 -2.30426 5.12699 0
M  V30 21991 H 2125.18 0.145622 2.119 0
M  V30 21992 H 2127.44 0.00247797 0.947997 0
M  V30 21993 H 2127.15 -0.582484 3.46843 0
M  V30 21994 H 2127.02 -2.2719 3.01106 0
M  V30 21995 H 2129.41 -2.14425 2.02746 0
M  V30 21996 H 2129.49 -0.446341 2.51876 0
M  V30 21997 H 2129.14 -1.15486 4.94596 0
M  V30 21998 H 2129.07 -2.8567 4.4238 0
M  V30 21999 H 2131.56 -1.69927 3.3754 0
M  V30 22000 H 2131.87 -2.90509 7.16118 0
M  V30 22001 H 2130.22 -2.61906 6.43762 0
M  V30 22002 H 2133.41 -2.02927 4.21827 0
M  V30 22003 H 2133.58 -2.57934 5.94453 0
M  V30 22004 N 2126.99 -1.34495 -0.82151 0
M  V30 22005 C 2128.4 -1.24152 -1.39439 0
M  V30 22006 C 2128.75 0.1324 -1.95753 0
M  V30 22007 O 2127.87 1.03279 -1.90164 0
M  V30 22008 C 2128.47 -2.24789 -2.53487 0
M  V30 22009 C 2127.03 -2.18232 -3.06679 0
M  V30 22010 C 2126.17 -2.11315 -1.79558 0
M  V30 22011 H 2129.12 -1.45841 -0.625789 0
M  V30 22012 H 2129.15 -1.8657 -3.3162 0
M  V30 22013 H 2128.66 -3.24774 -2.1247 0
M  V30 22014 H 2126.76 -1.21608 -3.52196 0
M  V30 22015 H 2126.87 -3.09548 -3.65673 0
M  V30 22016 H 2125.24 -1.57058 -2.00512 0
M  V30 22017 H 2126.02 -3.13136 -1.40714 0
M  V30 22018 N 2128.46 1.04188 -1.18248 0
M  V30 22019 C 2129.71 1.7763 -0.978539 0
M  V30 22020 C 2130.04 1.87897 0.490757 0
M  V30 22021 O 2129.32 1.38617 1.36439 0
M  V30 22022 C 2129.6 3.20968 -1.63252 0
M  V30 22023 C 2129.45 3.18653 -3.1746 0
M  V30 22024 C 2130.77 4.19052 -1.34475 0
M  V30 22025 H 2127.89 0.644817 -0.356903 0
M  V30 22026 H 2130.53 1.21713 -1.45897 0
M  V30 22027 H 2128.68 3.68714 -1.22402 0
M  V30 22028 H 2130.36 2.78906 -3.67436 0
M  V30 22029 H 2128.6 2.56717 -3.49684 0
M  V30 22030 H 2129.27 4.19864 -3.58354 0
M  V30 22031 H 2131.75 3.79848 -1.69868 0
M  V30 22032 H 2130.62 5.17565 -1.82804 0
M  V30 22033 H 2130.88 4.41291 -0.267408 0
M  V30 22034 N 2129.94 0.98432 1.23081 0
M  V30 22035 C 2131.19 0.665987 1.92188 0
M  V30 22036 C 2131.54 -0.79229 1.7533 0
M  V30 22037 O 2130.84 -1.56452 1.10604 0
M  V30 22038 C 2131.03 0.996551 3.43225 0
M  V30 22039 C 2130.86 2.48541 3.74776 0
M  V30 22040 C 2129.63 3.14805 3.95254 0
M  V30 22041 C 2131.83 3.46626 3.7994 0
M  V30 22042 N 2129.81 4.53256 4.14044 0
M  V30 22043 C 2131.18 4.70501 4.03769 0
M  V30 22044 C 2133.24 3.41053 3.6275 0
M  V30 22045 C 2131.94 5.89483 4.12192 0
M  V30 22046 C 2133.96 4.59404 3.72428 0
M  V30 22047 C 2133.33 5.82075 3.96697 0
M  V30 22048 H 2129.43 0.294831 0.724292 0
M  V30 22049 H 2132.01 1.26258 1.48213 0
M  V30 22050 H 2130.18 0.428615 3.86028 0
M  V30 22051 H 2131.91 0.635087 3.99686 0
M  V30 22052 H 2128.67 2.65292 3.92323 0
M  V30 22053 H 2129.09 5.25045 4.27384 0
M  V30 22054 H 2133.73 2.47235 3.42979 0
M  V30 22055 H 2131.45 6.83713 4.30769 0
M  V30 22056 H 2135.04 4.56671 3.60476 0
M  V30 22057 H 2133.92 6.72124 4.04004 0
M  V30 22058 N 2131.42 -1.38259 0.756453 0
M  V30 22059 C 2132.35 -2.33042 0.146158 0
M  V30 22060 C 2133.33 -1.55012 -0.700373 0
M  V30 22061 O 2134.52 -1.83317 -0.640972 0
M  V30 22062 C 2131.65 -3.39202 -0.745585 0
M  V30 22063 C 2130.6 -4.28 -0.00155995 0
M  V30 22064 C 2129.93 -5.25041 -1.01174 0
M  V30 22065 C 2131.23 -5.09061 1.16852 0
M  V30 22066 H 2132.92 -2.84329 0.937934 0
M  V30 22067 H 2130.47 -1.36706 0.452478 0
M  V30 22068 H 2132.42 -4.04477 -1.18223 0
M  V30 22069 H 2131.14 -2.86405 -1.56971 0
M  V30 22070 H 2129.8 -3.64236 0.415692 0
M  V30 22071 H 2129.45 -4.68529 -1.83001 0
M  V30 22072 H 2129.15 -5.85307 -0.518554 0
M  V30 22073 H 2130.67 -5.93191 -1.44764 0
M  V30 22074 H 2132.09 -5.67559 0.809284 0
M  V30 22075 H 2130.49 -5.78577 1.59276 0
M  V30 22076 H 2131.56 -4.42631 1.98004 0
M  V30 22077 N 2132.9 -0.505757 -1.49264 0
M  V30 22078 C 2133.85 0.270127 -2.29214 0
M  V30 22079 C 2134.82 0.956031 -1.35828 0
M  V30 22080 O 2136 0.961771 -1.64787 0
M  V30 22081 C 2133.14 1.32577 -3.18618 0
M  V30 22082 C 2132.25 0.65116 -4.27064 0
M  V30 22083 C 2131.39 1.68765 -5.03678 0
M  V30 22084 C 2130.43 0.995172 -6.03956 0
M  V30 22085 N 2129.56 1.97608 -6.73718 0
M  V30 22086 H 2134.4 -0.41788 -2.95056 0
M  V30 22087 H 2131.94 -0.217921 -1.45477 0
M  V30 22088 H 2133.9 1.94985 -3.68832 0
M  V30 22089 H 2132.53 1.98248 -2.5475 0
M  V30 22090 H 2131.58 -0.0863124 -3.80302 0
M  V30 22091 H 2132.89 0.106277 -4.98687 0
M  V30 22092 H 2132.05 2.38665 -5.57785 0
M  V30 22093 H 2130.79 2.2664 -4.3184 0
M  V30 22094 H 2129.79 0.281968 -5.49076 0
M  V30 22095 H 2131.02 0.422861 -6.77782 0
M  V30 22096 H 2128.96 2.54436 -6.04647 0
M  V30 22097 H 2128.88 1.48199 -7.41332 0
M  V30 22098 H 2130.15 2.66782 -7.32426 0
M  V30 22099 N 2134.38 1.55765 -0.239796 0
M  V30 22100 C 2135.34 2.19809 0.649364 0
M  V30 22101 C 2136.34 1.16526 1.10808 0
M  V30 22102 O 2137.53 1.41651 1.01394 0
M  V30 22103 C 2134.66 2.83599 1.89168 0
M  V30 22104 H 2135.85 2.99763 0.0907114 0
M  V30 22105 H 2133.41 1.56297 0.00977153 0
M  V30 22106 H 2134.14 2.07564 2.49174 0
M  V30 22107 H 2133.93 3.5925 1.57104 0
M  V30 22108 H 2135.42 3.32634 2.52477 0
M  V30 22109 N 2135.85 -0.0334016 1.57565 0
M  V30 22110 C 2137.1 -0.724102 1.88254 0
M  V30 22111 C 2137.42 -1.76752 0.837737 0
M  V30 22112 O 2138.62 -2.51051 1.03372 0
M  V30 22113 C 2137.08 -1.33894 3.34067 0
M  V30 22114 C 2136.69 -0.332091 4.46767 0
M  V30 22115 C 2138.43 -2.00977 3.7391 0
M  V30 22116 C 2136.34 -0.955024 5.83638 0
M  V30 22117 H 2135.27 -0.274201 0.702375 0
M  V30 22118 H 2137.92 0.0216608 1.83487 0
M  V30 22119 H 2136.3 -2.13426 3.33565 0
M  V30 22120 H 2137.47 0.436205 4.58731 0
M  V30 22121 H 2135.79 0.236407 4.15728 0
M  V30 22122 H 2138.39 -2.48428 4.73485 0
M  V30 22123 H 2138.73 -2.82605 3.05679 0
M  V30 22124 H 2139.26 -1.28225 3.76568 0
M  V30 22125 H 2136 -0.178244 6.55258 0
M  V30 22126 H 2135.52 -1.69326 5.75403 0
M  V30 22127 H 2137.2 -1.46364 6.30227 0
M  V30 22128 N 2137.33 -1.54609 -0.305591 0
M  V30 22129 C 2138.28 -1.85991 -1.39679 0
M  V30 22130 C 2139.27 -0.733256 -1.52708 0
M  V30 22131 O 2140.48 -0.917183 -1.5488 0
M  V30 22132 H 2136.86 -0.589836 -0.466474 0
M  V30 22133 H 2138.83 -2.77209 -1.10444 0
M  V30 22134 C 2137.58 -2.11986 -2.75604 0
M  V30 22135 H 2136.9 -2.9815 -2.66358 0
M  V30 22136 H 2138.34 -2.37886 -3.50979 0
M  V30 22137 C 2136.8 -0.916972 -3.24181 0
M  V30 22138 O 2137.33 -0.135175 -4.01472 0
M  V30 22139 N 2135.53 -0.723621 -2.81446 0
M  V30 22140 H 2135.08 -1.36103 -2.18709 0
M  V30 22141 H 2135.04 0.0796694 -3.14299 0
M  V30 22142 N 2138.81 0.568558 -1.46987 0
M  V30 22143 C 2140.05 1.33712 -1.54598 0
M  V30 22144 C 2140.41 1.90968 -0.198773 0
M  V30 22145 O 2141.62 2.68383 -0.14968 0
M  V30 22146 C 2139.89 2.42591 -2.62458 0
M  V30 22147 S 2141.45 3.29686 -2.89573 0
M  V30 22148 H 2138.26 0.455359 -0.546048 0
M  V30 22149 H 2140.87 0.65212 -1.84303 0
M  V30 22150 H 2139.57 1.98943 -3.58956 0
M  V30 22151 H 2139.1 3.15846 -2.34531 0
M  V30 22152 H 2141.12 4.41785 -2.25922 0
M  V30 22153 N 2140.29 1.34929 0.814366 0
M  V30 22154 C 2141.25 1.27093 1.90736 0
M  V30 22155 C 2142.25 0.184145 1.59742 0
M  V30 22156 O 2143.44 0.437337 1.68621 0
M  V30 22157 C 2140.57 0.964254 3.26979 0
M  V30 22158 H 2141.77 2.24271 1.99105 0
M  V30 22159 H 2139.32 1.19341 1.00933 0
M  V30 22160 H 2140.05 -0.0039895 3.243 0
M  V30 22161 H 2139.84 1.75045 3.50859 0
M  V30 22162 H 2141.33 0.934826 4.07002 0
M  V30 22163 N 2141.77 -1.0356 1.18799 0
M  V30 22164 C 2142.99 -1.80487 1.01153 0
M  V30 22165 C 2143.41 -1.83603 -0.439927 0
M  V30 22166 O 2142.77 -1.27518 -1.30558 0
M  V30 22167 C 2142.82 -3.25853 1.56532 0
M  V30 22168 O 2142.54 -3.22983 2.95996 0
M  V30 22169 C 2144.04 -4.19406 1.43575 0
M  V30 22170 H 2141.26 -0.568214 0.356895 0
M  V30 22171 H 2143.8 -1.30482 1.57463 0
M  V30 22172 H 2141.96 -3.73071 1.04387 0
M  V30 22173 H 2142.37 -4.14085 3.21922 0
M  V30 22174 H 2143.85 -5.19319 1.87114 0
M  V30 22175 H 2144.32 -4.37507 0.385237 0
M  V30 22176 H 2144.93 -3.78055 1.94818 0
M  V30 22177 N 2143.25 -0.990834 -1.22557 0
M  V30 22178 C 2144.47 -0.683595 -1.9581 0
M  V30 22179 C 2144.9 0.744808 -1.72726 0
M  V30 22180 O 2144.25 1.50883 -1.00518 0
M  V30 22181 C 2144.3 -0.992665 -3.46668 0
M  V30 22182 O 2143.41 -0.0902361 -4.12301 0
M  V30 22183 H 2142.75 -0.256053 -0.612644 0
M  V30 22184 H 2145.28 -1.32725 -1.55709 0
M  V30 22185 H 2145.29 -0.933654 -3.97174 0
M  V30 22186 H 2143.96 -2.03353 -3.62795 0
M  V30 22187 H 2142.54 -0.204554 -3.72339 0
M  V30 22188 N 2144.72 1.37856 -0.763775 0
M  V30 22189 C 2145.97 1.99488 -0.323855 0
M  V30 22190 C 2146.29 1.60934 1.10115 0
M  V30 22191 O 2145.56 0.870985 1.75473 0
M  V30 22192 H 2144.14 0.73782 -0.116753 0
M  V30 22193 H 2146.8 1.68462 -0.980132 0
M  V30 22194 H 2145.9 3.09589 -0.395113 0
M  V30 22195 N 2146.2 0.513665 1.48994 0
M  V30 22196 C 2147.45 -0.0263732 2.02783 0
M  V30 22197 C 2147.78 -1.35469 1.39147 0
M  V30 22198 O 2147.06 -1.87097 0.531511 0
M  V30 22199 C 2147.34 -0.165605 3.59719 0
M  V30 22200 C 2147.19 1.18673 4.33863 0
M  V30 22201 C 2148.51 -0.900228 4.30794 0
M  V30 22202 H 2145.63 -0.00811043 0.736955 0
M  V30 22203 H 2148.27 0.667534 1.77888 0
M  V30 22204 H 2146.42 -0.756613 3.81061 0
M  V30 22205 H 2148.09 1.81759 4.23983 0
M  V30 22206 H 2146.34 1.77281 3.95922 0
M  V30 22207 H 2147.01 1.04247 5.42067 0
M  V30 22208 H 2149.48 -0.398863 4.14184 0
M  V30 22209 H 2148.36 -0.966514 5.40324 0
M  V30 22210 H 2148.62 -1.94685 3.96926 0
M  V30 22211 N 2147.68 -1.55636 0.248053 0
M  V30 22212 C 2148.93 -1.99266 -0.376927 0
M  V30 22213 C 2149.26 -1.13602 -1.57506 0
M  V30 22214 O 2148.53 -0.199686 -1.93472 0
M  V30 22215 C 2148.82 -3.51425 -0.785664 0
M  V30 22216 C 2148.67 -4.47854 0.417942 0
M  V30 22217 C 2149.99 -4.08714 -1.63221 0
M  V30 22218 H 2147.11 -0.724431 -0.135531 0
M  V30 22219 H 2149.75 -1.86756 0.349594 0
M  V30 22220 H 2147.9 -3.62216 -1.40469 0
M  V30 22221 H 2149.57 -4.49041 1.05638 0
M  V30 22222 H 2147.81 -4.20629 1.06084 0
M  V30 22223 H 2148.49 -5.51929 0.0886002 0
M  V30 22224 H 2150.96 -4.01031 -1.10966 0
M  V30 22225 H 2149.84 -5.15443 -1.88706 0
M  V30 22226 H 2150.1 -3.57242 -2.60443 0
M  V30 22227 N 2149.16 0.0250451 -1.5758 0
M  V30 22228 C 2150.41 0.713634 -1.89081 0
M  V30 22229 C 2150.73 1.7568 -0.846258 0
M  V30 22230 O 2150 1.95534 0.119612 0
M  V30 22231 H 2148.58 0.266566 -0.697819 0
M  V30 22232 H 2151.24 -0.00995501 -1.94897 0
M  V30 22233 H 2150.33 1.20068 -2.8808 0
M  V30 22234 N 2150.64 1.54769 0.297388 0
M  V30 22235 C 2151.57 1.88972 1.37157 0
M  V30 22236 C 2152.55 0.748993 1.52722 0
M  V30 22237 O 2153.73 1.00504 1.6617 0
M  V30 22238 C 2150.86 2.1402 2.73519 0
M  V30 22239 C 2149.82 3.29865 2.72714 0
M  V30 22240 C 2149.14 3.4034 4.12399 0
M  V30 22241 C 2150.44 4.66881 2.34135 0
M  V30 22242 H 2152.14 2.7894 1.0878 0
M  V30 22243 H 2149.68 1.34212 0.521848 0
M  V30 22244 H 2151.63 2.36533 3.48755 0
M  V30 22245 H 2150.36 1.20827 3.03428 0
M  V30 22246 H 2149.02 3.07281 1.99934 0
M  V30 22247 H 2148.67 2.44657 4.3949 0
M  V30 22248 H 2148.37 4.18214 4.1276 0
M  V30 22249 H 2149.89 3.65118 4.89409 0
M  V30 22250 H 2151.3 4.89101 2.99087 0
M  V30 22251 H 2149.7 5.47495 2.45703 0
M  V30 22252 H 2150.77 4.67354 1.29261 0
M  V30 22253 N 2152.11 -0.560755 1.47286 0
M  V30 22254 C 2153.36 -1.32004 1.53957 0
M  V30 22255 C 2153.69 -1.9317 0.199705 0
M  V30 22256 O 2152.97 -1.77676 -0.791288 0
M  V30 22257 C 2153.25 -2.43284 2.6549 0
M  V30 22258 C 2153.1 -1.87009 4.09081 0
M  V30 22259 C 2154.42 -3.45228 2.72957 0
M  V30 22260 H 2151.54 -0.478599 0.560457 0
M  V30 22261 H 2154.18 -0.627854 1.79327 0
M  V30 22262 H 2152.33 -3.02327 2.43989 0
M  V30 22263 H 2154.01 -1.32254 4.41935 0
M  V30 22264 H 2152.25 -1.17705 4.17526 0
M  V30 22265 H 2152.92 -2.67438 4.82888 0
M  V30 22266 H 2155.4 -2.96099 2.92344 0
M  V30 22267 H 2154.27 -4.20522 3.52778 0
M  V30 22268 H 2154.53 -4.03854 1.79874 0
M  V30 22269 N 2153.59 -1.35359 -0.807199 0
M  V30 22270 C 2154.54 -1.28262 -1.9404 0
M  V30 22271 C 2155.53 -0.177666 -1.68466 0
M  V30 22272 O 2156.74 -0.34361 -1.7669 0
M  V30 22273 H 2153.11 -0.398861 -0.637506 0
M  V30 22274 H 2155.09 -2.23999 -1.97147 0
M  V30 22275 C 2153.83 -1.07086 -3.30799 0
M  V30 22276 H 2153.16 -1.91349 -3.51035 0
M  V30 22277 H 2154.6 -1.06161 -4.10495 0
M  V30 22278 C 2153.06 0.225309 -3.36146 0
M  V30 22279 O 2153.59 1.22131 -3.82684 0
M  V30 22280 N 2151.79 0.26387 -2.894 0
M  V30 22281 H 2151.34 -0.54725 -2.5172 0
M  V30 22282 H 2151.3 1.13084 -2.93359 0
M  V30 22283 N 2155.07 1.02928 -1.19346 0
M  V30 22284 C 2156.31 1.77875 -1.00697 0
M  V30 22285 C 2156.67 1.86548 0.454282 0
M  V30 22286 O 2157.87 2.57815 0.760575 0
M  V30 22287 C 2156.15 3.1666 -1.65715 0
M  V30 22288 S 2157.7 4.07802 -1.61997 0
M  V30 22289 H 2154.52 0.612328 -0.361352 0
M  V30 22290 H 2157.12 1.23334 -1.51687 0
M  V30 22291 H 2155.83 3.07964 -2.71268 0
M  V30 22292 H 2155.36 3.76277 -1.14802 0
M  V30 22293 H 2157.37 4.92005 -0.643881 0
M  V30 22294 N 2156.55 0.997319 1.2203 0
M  V30 22295 C 2157.48 0.571319 2.26403 0
M  V30 22296 C 2158.46 -0.404025 1.65232 0
M  V30 22297 O 2159.64 -0.293692 1.91966 0
M  V30 22298 C 2156.77 -0.110472 3.47124 0
M  V30 22299 C 2155.73 0.783865 4.20761 0
M  V30 22300 C 2155.05 -0.0310887 5.34691 0
M  V30 22301 C 2156.35 2.08283 4.78974 0
M  V30 22302 H 2158.05 1.44376 2.6229 0
M  V30 22303 H 2155.59 0.695656 1.26082 0
M  V30 22304 H 2157.55 -0.419919 4.19303 0
M  V30 22305 H 2156.27 -1.01749 3.10346 0
M  V30 22306 H 2154.93 1.07702 3.50422 0
M  V30 22307 H 2154.58 -0.939162 4.94155 0
M  V30 22308 H 2154.28 0.564316 5.84884 0
M  V30 22309 H 2155.8 -0.334528 6.09683 0
M  V30 22310 H 2157.22 1.83704 5.43071 0
M  V30 22311 H 2155.61 2.62743 5.39524 0
M  V30 22312 H 2156.68 2.75867 3.9878 0
M  V30 22313 N 2158.03 -1.37449 0.771075 0
M  V30 22314 C 2159.44 -1.53106 0.450629 0
M  V30 22315 C 2159.64 -1.72957 -1.03384 0
M  V30 22316 O 2158.7 -1.75055 -1.81967 0
M  V30 22317 C 2160.01 -2.72792 1.26511 0
M  V30 22318 C 2161.56 -2.86653 1.25695 0
M  V30 22319 C 2162.03 -4.09321 2.05477 0
M  V30 22320 N 2163.53 -4.16432 2.02827 0
M  V30 22321 C 2164.26 -5.10381 2.61341 0
M  V30 22322 N 2163.76 -6.09892 3.2864 0
M  V30 22323 N 2165.55 -5.02859 2.51175 0
M  V30 22324 H 2157.7 -1.22815 1.73292 0
M  V30 22325 H 2159.96 -0.597977 0.735614 0
M  V30 22326 H 2159.67 -2.64586 2.31705 0
M  V30 22327 H 2159.54 -3.66457 0.893837 0
M  V30 22328 H 2161.93 -2.9433 0.213001 0
M  V30 22329 H 2162.01 -1.93949 1.66786 0
M  V30 22330 H 2161.66 -4.02404 3.09892 0
M  V30 22331 H 2161.59 -5.01137 1.61768 0
M  V30 22332 H 2164.08 -3.45173 1.53831 0
M  V30 22333 H 2164.39 -6.78106 3.70664 0
M  V30 22334 H 2162.73 -6.10172 3.32738 0
M  V30 22335 H 2165.93 -4.24063 1.98213 0
M  V30 22336 H 2166.1 -5.75893 2.97071 0
M  V30 22337 N 2159.5 -0.52156 -1.4872 0
M  V30 22338 C 2160.92 -0.178852 -1.58595 0
M  V30 22339 C 2161.12 1.31757 -1.52455 0
M  V30 22340 O 2160.18 2.09518 -1.4092 0
M  V30 22341 C 2161.49 -0.773908 -2.9057 0
M  V30 22342 C 2163.04 -0.741876 -3.04081 0
M  V30 22343 C 2163.51 -1.31536 -4.38705 0
M  V30 22344 N 2165 -1.27696 -4.45251 0
M  V30 22345 C 2165.74 -1.69067 -5.47909 0
M  V30 22346 N 2165.23 -2.18128 -6.57565 0
M  V30 22347 N 2167.03 -1.60356 -5.38742 0
M  V30 22348 H 2159.18 -1.49422 -1.50953 0
M  V30 22349 H 2161.44 -0.621023 -0.716264 0
M  V30 22350 H 2161.15 -1.82417 -3.00694 0
M  V30 22351 H 2161.02 -0.246131 -3.76396 0
M  V30 22352 H 2163.41 0.299604 -2.93575 0
M  V30 22353 H 2163.49 -1.30703 -2.19887 0
M  V30 22354 H 2163.13 -2.35572 -4.49964 0
M  V30 22355 H 2163.06 -0.72596 -5.21572 0
M  V30 22356 H 2165.55 -0.917714 -3.66588 0
M  V30 22357 H 2165.87 -2.47712 -7.32023 0
M  V30 22358 H 2164.21 -2.22116 -6.58551 0
M  V30 22359 H 2167.4 -1.21831 -4.51968 0
M  V30 22360 H 2167.58 -1.92919 -6.18616 0
M  V30 22361 N 2160.98 1.55502 -0.256304 0
M  V30 22362 C 2161.89 2.25422 0.649785 0
M  V30 22363 C 2162.91 1.27356 1.1856 0
M  V30 22364 O 2164.08 1.60253 1.21988 0
M  V30 22365 C 2161.15 2.94725 1.82587 0
M  V30 22366 C 2160.21 4.08224 1.32859 0
M  V30 22367 C 2159.44 4.74213 2.44862 0
M  V30 22368 O 2159.67 4.39321 3.63804 0
M  V30 22369 O 2158.6 5.6254 2.14086 0
M  V30 22370 H 2162.43 3.03584 0.083948 0
M  V30 22371 H 2160.01 1.4938 -0.0244329 0
M  V30 22372 H 2161.89 3.38344 2.512 0
M  V30 22373 H 2160.57 2.19495 2.37915 0
M  V30 22374 H 2159.48 3.69102 0.609468 0
M  V30 22375 H 2160.81 4.853 0.82129 0
M  V30 22376 N 2162.46 -0.0166879 1.57591 0
M  V30 22377 C 2163.87 -0.561696 1.7805 0
M  V30 22378 C 2164.22 -1.74907 0.888926 0
M  V30 22379 O 2163.35 -2.16225 0.0869853 0
M  V30 22380 C 2163.94 -1.02576 3.22899 0
M  V30 22381 C 2162.5 -1.51619 3.44512 0
M  V30 22382 C 2161.65 -0.459817 2.73461 0
M  V30 22383 H 2164.6 0.209523 1.57311 0
M  V30 22384 H 2164.62 -1.89257 3.30094 0
M  V30 22385 H 2164.13 -0.16136 3.87764 0
M  V30 22386 H 2162.23 -2.40203 2.84839 0
M  V30 22387 H 2162.35 -1.55516 4.53157 0
M  V30 22388 H 2160.71 -0.917683 2.37594 0
M  V30 22389 H 2161.49 0.395327 3.41016 0
M  V30 22390 N 2163.94 -1.54924 -0.289176 0
M  V30 22391 C 2165.19 -1.74421 -1.02087 0
M  V30 22392 C 2165.51 -0.539388 -1.87392 0
M  V30 22393 O 2164.78 0.446105 -1.90753 0
M  V30 22394 H 2163.36 -0.643179 -0.379908 0
M  V30 22395 H 2166.02 -1.923 -0.317306 0
M  V30 22396 H 2165.12 -2.63841 -1.66716 0
M  V30 22397 N 2165.42 0.552936 -1.47582 0
M  V30 22398 C 2166.66 1.30733 -1.54121 0
M  V30 22399 C 2166.99 1.93899 -0.206934 0
M  V30 22400 O 2166.26 1.80154 0.769505 0
M  V30 22401 H 2164.84 0.485489 -0.567723 0
M  V30 22402 H 2167.5 0.645327 -1.83906 0
M  V30 22403 H 2166.59 2.09863 -2.31006 0
M  V30 22404 N 2166.89 1.35785 0.800009 0
M  V30 22405 C 2167.84 1.29289 1.93357 0
M  V30 22406 C 2168.84 0.186598 1.68369 0
M  V30 22407 O 2170.04 0.352975 1.76505 0
M  V30 22408 H 2166.42 0.402237 0.635382 0
M  V30 22409 H 2168.39 2.25042 1.95956 0
M  V30 22410 C 2167.14 1.08839 3.30226 0
M  V30 22411 H 2166.46 1.93208 3.50015 0
M  V30 22412 H 2167.9 1.08337 4.09926 0
M  V30 22413 C 2166.36 -0.207479 3.36261 0
M  V30 22414 O 2166.89 -1.201 3.83326 0
M  V30 22415 N 2165.1 -0.248518 2.89535 0
M  V30 22416 H 2164.64 0.560592 2.51426 0
M  V30 22417 H 2164.6 -1.11527 2.93954 0
M  V30 22418 N 2168.37 -1.02294 1.19891 0
M  V30 22419 C 2169.79 -1.28069 0.952398 0
M  V30 22420 C 2169.99 -1.98041 -0.371776 0
M  V30 22421 O 2169.04 -2.2719 -1.10185 0
M  V30 22422 C 2170.36 -2.12194 2.13059 0
M  V30 22423 C 2171.91 -2.25482 2.17087 0
M  V30 22424 C 2172.38 -3.12982 3.34375 0
M  V30 22425 N 2173.87 -3.2057 3.34348 0
M  V30 22426 C 2174.61 -3.88481 4.21747 0
M  V30 22427 N 2174.1 -4.58571 5.19311 0
M  V30 22428 N 2175.9 -3.8494 4.09606 0
M  V30 22429 H 2168.05 -0.55294 2.05076 0
M  V30 22430 H 2170.31 -0.306622 0.897043 0
M  V30 22431 H 2170.02 -1.68109 3.08921 0
M  V30 22432 H 2169.89 -3.12919 2.10621 0
M  V30 22433 H 2172.28 -2.68795 1.21792 0
M  V30 22434 H 2172.36 -1.24287 2.23576 0
M  V30 22435 H 2172 -2.70376 4.29953 0
M  V30 22436 H 2171.93 -4.1425 3.25123 0
M  V30 22437 H 2174.42 -2.70658 2.63729 0
M  V30 22438 H 2174.74 -5.08039 5.82337 0
M  V30 22439 H 2173.08 -4.57417 5.23254 0
M  V30 22440 H 2176.27 -3.29326 3.32659 0
M  V30 22441 H 2176.44 -4.37591 4.77931 0
M  V30 22442 N 2169.85 -1.00378 -1.21499 0
M  V30 22443 C 2170.78 -0.583318 -2.26097 0
M  V30 22444 C 2171.76 0.395257 -1.65444 0
M  V30 22445 O 2172.95 0.283508 -1.92119 0
M  V30 22446 C 2170.08 0.0920619 -3.47178 0
M  V30 22447 C 2169.03 -0.806168 -4.20339 0
M  V30 22448 C 2168.36 0.0027323 -5.347 0
M  V30 22449 C 2169.66 -2.1082 -4.77862 0
M  V30 22450 H 2171.35 -1.45765 -2.6152 0
M  V30 22451 H 2168.9 -0.702333 -1.25711 0
M  V30 22452 H 2170.85 0.397677 -4.19519 0
M  V30 22453 H 2169.57 1.00102 -3.10881 0
M  V30 22454 H 2168.23 -1.09559 -3.49846 0
M  V30 22455 H 2167.88 0.912942 -4.94646 0
M  V30 22456 H 2167.58 -0.595326 -5.84576 0
M  V30 22457 H 2169.1 0.302191 -6.09852 0
M  V30 22458 H 2170.52 -1.86581 -5.42089 0
M  V30 22459 H 2168.92 -2.656 -5.38123 0
M  V30 22460 H 2169.99 -2.77978 -3.97311 0
M  V30 22461 N 2171.33 1.37038 -0.778354 0
M  V30 22462 C 2172.74 1.52865 -0.458743 0
M  V30 22463 C 2172.94 1.73503 1.02465 0
M  V30 22464 O 2172 1.76017 1.81036 0
M  V30 22465 C 2173.31 2.72117 -1.27956 0
M  V30 22466 C 2174.86 2.85982 -1.27213 0
M  V30 22467 C 2175.34 4.08225 -2.07645 0
M  V30 22468 N 2176.83 4.1535 -2.05033 0
M  V30 22469 C 2177.56 5.08988 -2.64044 0
M  V30 22470 N 2177.06 6.0814 -3.3187 0
M  V30 22471 N 2178.85 5.0152 -2.53838 0
M  V30 22472 H 2171 1.21895 -1.73941 0
M  V30 22473 H 2173.27 0.594067 -0.738775 0
M  V30 22474 H 2172.97 2.63353 -2.33105 0
M  V30 22475 H 2172.85 3.65977 -0.913259 0
M  V30 22476 H 2175.23 2.94213 -0.228607 0
M  V30 22477 H 2175.31 1.93061 -1.67812 0
M  V30 22478 H 2174.96 4.00755 -3.12022 0
M  V30 22479 H 2174.89 5.00272 -1.64423 0
M  V30 22480 H 2177.38 3.44352 -1.55659 0
M  V30 22481 H 2177.69 6.76131 -3.74255 0
M  V30 22482 H 2176.04 6.08399 -3.3597 0
M  V30 22483 H 2179.23 4.23005 -2.0046 0
M  V30 22484 H 2179.4 5.7431 -3.00121 0
M  V30 22485 N 2172.81 0.529439 1.48441 0
M  V30 22486 C 2174.05 -0.00285821 2.044 0
M  V30 22487 C 2174.41 -1.31631 1.39776 0
M  V30 22488 O 2175.61 -1.93461 1.86618 0
M  V30 22489 C 2173.88 -0.122915 3.57189 0
M  V30 22490 S 2175.44 -0.605355 4.34604 0
M  V30 22491 H 2172.26 0.0118032 0.710902 0
M  V30 22492 H 2174.86 0.709877 1.82157 0
M  V30 22493 H 2173.57 0.837857 4.01756 0
M  V30 22494 H 2173.1 -0.860045 3.83884 0
M  V30 22495 H 2175.11 -1.86995 4.59616 0
M  V30 22496 N 2174.29 -1.55364 0.264547 0
M  V30 22497 C 2175.53 -1.99655 -0.355771 0
M  V30 22498 C 2175.86 -1.15266 -1.56293 0
M  V30 22499 O 2175.14 -0.220196 -1.9325 0
M  V30 22500 C 2175.42 -3.52238 -0.748347 0
M  V30 22501 C 2175.28 -4.47386 0.465419 0
M  V30 22502 C 2176.59 -4.10422 -1.58877 0
M  V30 22503 H 2173.71 -0.725828 -0.12784 0
M  V30 22504 H 2176.36 -1.86375 0.369383 0
M  V30 22505 H 2174.51 -3.63686 -1.36619 0
M  V30 22506 H 2176.18 -4.47896 1.10395 0
M  V30 22507 H 2174.42 -4.1948 1.10539 0
M  V30 22508 H 2175.09 -5.51804 0.147135 0
M  V30 22509 H 2177.57 -4.02185 -1.06707 0
M  V30 22510 H 2176.44 -5.17415 -1.83228 0
M  V30 22511 H 2176.7 -3.59985 -2.56639 0
M  V30 22512 N 2175.76 0.00833021 -1.57598 0
M  V30 22513 C 2176.69 1.0015 -2.10932 0
M  V30 22514 C 2177.67 1.36385 -1.01653 0
M  V30 22515 O 2178.86 1.44906 -1.2929 0
M  V30 22516 C 2175.99 2.296 -2.60578 0
M  V30 22517 C 2174.94 2.07551 -3.74308 0
M  V30 22518 C 2174.27 3.42942 -4.10238 0
M  V30 22519 C 2175.57 1.44484 -5.01918 0
M  V30 22520 H 2177.26 0.557461 -2.94164 0
M  V30 22521 H 2174.81 0.266703 -1.41509 0
M  V30 22522 H 2176.76 2.99428 -2.96515 0
M  V30 22523 H 2175.49 2.76103 -1.74456 0
M  V30 22524 H 2174.15 1.40152 -3.38752 0
M  V30 22525 H 2173.79 3.87132 -3.21151 0
M  V30 22526 H 2173.49 3.29007 -4.86855 0
M  V30 22527 H 2175.02 4.14098 -4.48726 0
M  V30 22528 H 2176.43 2.04256 -5.35679 0
M  V30 22529 H 2174.83 1.41063 -5.83285 0
M  V30 22530 H 2175.9 0.413049 -4.83138 0
M  V30 22531 N 2177.24 1.55075 0.280956 0
M  V30 22532 C 2178.17 1.90416 1.35145 0
M  V30 22533 C 2179.15 0.765149 1.51919 0
M  V30 22534 O 2180.34 1.02261 1.65095 0
M  V30 22535 C 2177.47 2.16909 2.71233 0
M  V30 22536 C 2176.42 3.32739 2.692 0
M  V30 22537 C 2175.75 3.44695 4.08766 0
M  V30 22538 C 2177.05 4.69338 2.2917 0
M  V30 22539 H 2178.74 2.80078 1.05815 0
M  V30 22540 H 2176.29 1.34758 0.507584 0
M  V30 22541 H 2178.24 2.40219 3.46226 0
M  V30 22542 H 2176.96 1.24039 3.02129 0
M  V30 22543 H 2175.62 3.09385 1.96664 0
M  V30 22544 H 2175.27 2.49305 4.36871 0
M  V30 22545 H 2174.97 4.22568 4.08301 0
M  V30 22546 H 2176.5 3.70288 4.85509 0
M  V30 22547 H 2177.91 4.92246 2.93883 0
M  V30 22548 H 2176.31 5.5007 2.39882 0
M  V30 22549 H 2177.38 4.68698 1.24297 0
M  V30 22550 N 2178.72 -0.545102 1.47873 0
M  V30 22551 C 2179.94 -1.33162 1.59005 0
M  V30 22552 C 2180.37 -1.86498 0.245004 0
M  V30 22553 O 2179.73 -1.63614 -0.781037 0
M  V30 22554 C 2179.78 -2.46898 2.62819 0
M  V30 22555 O 2178.88 -3.49491 2.1893 0
M  V30 22556 H 2178.22 -0.395031 0.53371 0
M  V30 22557 H 2180.75 -0.657518 1.93747 0
M  V30 22558 H 2180.76 -2.93298 2.8362 0
M  V30 22559 H 2179.44 -2.07436 3.60476 0
M  V30 22560 H 2178.01 -3.09312 2.08279 0
M  V30 22561 N 2180.2 -1.36208 -0.792797 0
M  V30 22562 C 2181.15 -1.30313 -1.92669 0
M  V30 22563 C 2182.14 -0.195525 -1.68268 0
M  V30 22564 O 2183.35 -0.362331 -1.76316 0
M  V30 22565 H 2179.72 -0.4056 -0.63324 0
M  V30 22566 H 2181.69 -2.26078 -1.9476 0
M  V30 22567 C 2180.44 -1.10589 -3.29644 0
M  V30 22568 H 2179.76 -1.95061 -3.48986 0
M  V30 22569 H 2181.2 -1.10509 -4.09345 0
M  V30 22570 C 2179.66 0.189643 -3.36366 0
M  V30 22571 O 2180.19 1.18066 -3.83958 0
M  V30 22572 N 2178.4 0.23316 -2.89663 0
M  V30 22573 H 2177.95 -0.573917 -2.51125 0
M  V30 22574 H 2177.9 1.09966 -2.94542 0
M  V30 22575 N 2181.68 1.01656 -1.20431 0
M  V30 22576 C 2182.61 2.12074 -0.977076 0
M  V30 22577 C 2183.59 1.6984 0.0939563 0
M  V30 22578 O 2184.77 1.94096 -0.0635618 0
M  V30 22579 C 2181.9 3.43257 -0.528392 0
M  V30 22580 C 2180.86 3.99231 -1.54267 0
M  V30 22581 C 2180.18 5.26182 -0.950621 0
M  V30 22582 C 2181.48 4.32619 -2.92639 0
M  V30 22583 H 2183.18 2.31342 -1.90056 0
M  V30 22584 H 2180.72 1.11175 -0.915209 0
M  V30 22585 H 2182.67 4.19888 -0.35665 0
M  V30 22586 H 2181.4 3.23747 0.430716 0
M  V30 22587 H 2180.06 3.24708 -1.70177 0
M  V30 22588 H 2179.71 5.02997 0.0164182 0
M  V30 22589 H 2179.41 5.64597 -1.62802 0
M  V30 22590 H 2180.93 6.05469 -0.789947 0
M  V30 22591 H 2182.34 5.00138 -2.8024 0
M  V30 22592 H 2180.74 4.82148 -3.57286 0
M  V30 22593 H 2181.81 3.41386 -3.4436 0
M  V30 22594 N 2183.15 1.01021 1.20965 0
M  V30 22595 C 2184.38 0.714661 1.94698 0
M  V30 22596 C 2184.8 -0.717235 1.73889 0
M  V30 22597 O 2184.16 -1.49265 1.02906 0
M  V30 22598 C 2184.21 1.04769 3.45045 0
M  V30 22599 O 2183.31 0.155818 4.12106 0
M  V30 22600 H 2182.65 0.265768 0.608493 0
M  V30 22601 H 2185.18 1.35186 1.53577 0
M  V30 22602 H 2185.19 0.996722 3.95638 0
M  V30 22603 H 2183.87 2.09099 3.59514 0
M  V30 22604 H 2182.45 0.263764 3.71966 0
M  V30 22605 N 2184.63 -1.36623 0.78561 0
M  V30 22606 C 2185.86 -2.04129 0.366917 0
M  V30 22607 C 2186.28 -1.58852 -1.00736 0
M  V30 22608 O 2185.64 -0.755202 -1.64822 0
M  V30 22609 C 2185.69 -3.5797 0.43472 0
M  V30 22610 O 2184.79 -4.08584 -0.559755 0
M  V30 22611 H 2184.13 -0.645306 0.156447 0
M  V30 22612 H 2186.66 -1.74656 1.06566 0
M  V30 22613 H 2186.67 -4.06918 0.296959 0
M  V30 22614 H 2185.35 -3.90277 1.43724 0
M  V30 22615 H 2183.92 -3.70918 -0.38397 0
M  V30 22616 N 2186.11 -0.537304 -1.48158 0
M  V30 22617 C 2187.34 -0.0101482 -2.06898 0
M  V30 22618 C 2187.75 1.27458 -1.39283 0
M  V30 22619 O 2187.11 1.76 -0.48274 0
M  V30 22620 C 2187.16 0.209896 -3.6089 0
M  V30 22621 O 2186.88 -1.02394 -4.25966 0
M  V30 22622 C 2188.38 0.776601 -4.36444 0
M  V30 22623 H 2185.6 -0.0368227 -0.669989 0
M  V30 22624 H 2188.15 -0.745039 -1.90445 0
M  V30 22625 H 2186.3 0.894855 -3.76923 0
M  V30 22626 H 2186.72 -0.809231 -5.1822 0
M  V30 22627 H 2188.19 0.879955 -5.44941 0
M  V30 22628 H 2188.67 1.78324 -4.01369 0
M  V30 22629 H 2189.27 0.127975 -4.25107 0
M  V30 22630 N 2187.59 1.55221 -0.272782 0
M  V30 22631 C 2188.81 2.04409 0.350963 0
M  V30 22632 C 2189.24 1.14994 1.48856 0
M  V30 22633 O 2188.6 0.148061 1.80694 0
M  V30 22634 C 2188.64 3.51346 0.811686 0
M  V30 22635 O 2187.75 3.65025 1.91914 0
M  V30 22636 H 2187.09 0.659984 0.0729184 0
M  V30 22637 H 2189.62 2.00523 -0.4064 0
M  V30 22638 H 2189.63 3.92665 1.10806 0
M  V30 22639 H 2188.3 4.15895 -0.0206338 0
M  V30 22640 H 2186.88 3.35608 1.62547 0
M  V30 22641 N 2189.07 2.77022e-05 1.576 0
M  V30 22642 C 2190.02 -0.99989 2.04905 0
M  V30 22643 C 2191 -1.30313 0.943787 0
M  V30 22644 O 2192.19 -1.29411 1.20755 0
M  V30 22645 C 2189.32 -2.29188 2.55593 0
M  V30 22646 C 2188.41 -2.01827 3.72997 0
M  V30 22647 N 2188.8 -1.44626 4.84682 0
M  V30 22648 C 2187.1 -2.3197 3.80928 0
M  V30 22649 C 2187.8 -1.33737 5.66118 0
M  V30 22650 N 2186.77 -1.82299 5.12121 0
M  V30 22651 H 2190.58 -0.552119 2.88667 0
M  V30 22652 H 2188.09 -0.205666 1.61092 0
M  V30 22653 H 2190.09 -3.01663 2.87759 0
M  V30 22654 H 2188.75 -2.74617 1.7325 0
M  V30 22655 H 2189.76 -1.12507 5.05532 0
M  V30 22656 H 2186.43 -2.80274 3.09439 0
M  V30 22657 H 2187.82 -0.897537 6.65878 0
M  V30 22658 N 2190.54 -1.55222 -0.272728 0
M  V30 22659 C 2191.79 -1.76102 -1.00578 0
M  V30 22660 C 2192.12 -0.560658 -1.85931 0
M  V30 22661 O 2191.4 0.441768 -1.89417 0
M  V30 22662 C 2191.68 -3.06631 -1.88811 0
M  V30 22663 C 2191.53 -4.37022 -1.06449 0
M  V30 22664 C 2192.85 -3.33202 -2.87514 0
M  V30 22665 H 2189.97 -0.640705 -0.364233 0
M  V30 22666 H 2192.61 -1.87953 -0.278156 0
M  V30 22667 H 2190.76 -2.96659 -2.5085 0
M  V30 22668 H 2192.44 -4.58953 -0.464782 0
M  V30 22669 H 2190.68 -4.32237 -0.367967 0
M  V30 22670 H 2191.35 -5.24681 -1.71505 0
M  V30 22671 H 2193.83 -3.42969 -2.35609 0
M  V30 22672 H 2192.7 -4.25798 -3.46392 0
M  V30 22673 H 2192.96 -2.52855 -3.62652 0
M  V30 22674 N 2192.02 0.537252 -1.4816 0
M  V30 22675 C 2193.43 1.11926 -1.49431 0
M  V30 22676 C 2193.78 1.94469 -0.260035 0
M  V30 22677 O 2192.91 2.06921 0.633453 0
M  V30 22678 C 2193.5 2.03651 -2.70762 0
M  V30 22679 C 2192.06 2.57083 -2.74927 0
M  V30 22680 C 2191.21 1.33885 -2.42837 0
M  V30 22681 H 2194.16 0.322859 -1.55381 0
M  V30 22682 H 2194.18 2.8783 -2.48866 0
M  V30 22683 H 2193.69 1.43547 -3.60577 0
M  V30 22684 H 2191.8 3.20929 -1.89302 0
M  V30 22685 H 2191.91 2.96714 -3.76162 0
M  V30 22686 H 2190.27 1.65223 -1.93839 0
M  V30 22687 H 2191.06 0.755445 -3.34885 0
M  V30 22688 N 2193.5 1.36626 0.785562 0
M  V30 22689 C 2194.41 1.33428 1.92961 0
M  V30 22690 C 2195.43 0.235882 1.72394 0
M  V30 22691 O 2196.6 0.468912 1.95865 0
M  V30 22692 C 2193.67 1.12668 3.27882 0
M  V30 22693 C 2192.73 2.32019 3.612 0
M  V30 22694 C 2191.96 2.1224 4.89684 0
M  V30 22695 O 2192.18 1.09955 5.59702 0
M  V30 22696 O 2191.12 3.00107 5.21746 0
M  V30 22697 H 2194.94 2.29757 1.98609 0
M  V30 22698 H 2192.53 1.17213 0.926363 0
M  V30 22699 H 2194.41 1.03024 4.08612 0
M  V30 22700 H 2193.09 0.194048 3.23118 0
M  V30 22701 H 2191.99 2.47233 2.80761 0
M  V30 22702 H 2193.33 3.23802 3.70693 0
M  V30 22703 N 2194.98 -1.01016 1.20969 0
M  V30 22704 C 2196.22 -1.74973 1.02529 0
M  V30 22705 C 2196.56 -1.89132 -0.440767 0
M  V30 22706 O 2195.83 -1.42186 -1.32715 0
M  V30 22707 C 2196.12 -3.16527 1.71705 0
M  V30 22708 C 2195.97 -3.10124 3.25797 0
M  V30 22709 C 2197.29 -4.15339 1.45539 0
M  V30 22710 H 2194.41 -0.635128 0.373874 0
M  V30 22711 H 2197.05 -1.17802 1.49073 0
M  V30 22712 H 2195.2 -3.65339 1.32135 0
M  V30 22713 H 2196.87 -2.69066 3.74702 0
M  V30 22714 H 2195.11 -2.47356 3.56367 0
M  V30 22715 H 2195.78 -4.10216 3.6936 0
M  V30 22716 H 2198.26 -3.7521 1.79879 0
M  V30 22717 H 2197.14 -5.12537 1.96462 0
M  V30 22718 H 2197.4 -4.40426 0.384315 0
M  V30 22719 N 2196.46 -1.01661 -1.20428 0
M  V30 22720 C 2197.73 -0.621037 -1.85479 0
M  V30 22721 C 2198.11 0.900885 -1.90912 0
M  V30 22722 O 2197.46 1.7926 -1.41697 0
M  V30 22723 C 2197.67 -1.26885 -3.25117 0
M  V30 22724 C 2199.02 -1.3843 -4.014 0
M  V30 22725 O 2200.04 -1.22507 -3.34471 0
M  V30 22726 O 2198.9 -1.6416 -5.21262 0
M  V30 22727 H 2196 -0.21428 -0.798757 0
M  V30 22728 H 2198.54 -1.11399 -1.28017 0
M  V30 22729 H 2197.31 -2.30879 -3.15928 0
M  V30 22730 H 2196.94 -0.762986 -3.90211 0
M  V30 22731 N 2197.93 1.36205 -0.792844 0
M  V30 22732 C 2199.35 1.81692 -0.429545 0
M  V30 22733 C 2199.7 1.65934 1.04692 0
M  V30 22734 O 2198.82 1.18221 1.81253 0
M  V30 22735 C 2199.42 3.29866 -0.772889 0
M  V30 22736 C 2197.98 3.73549 -0.462373 0
M  V30 22737 C 2197.12 2.58419 -1.00574 0
M  V30 22738 H 2200.07 1.24378 -0.985694 0
M  V30 22739 H 2200.09 3.80444 -0.0652596 0
M  V30 22740 H 2199.61 3.41303 -1.84753 0
M  V30 22741 H 2197.71 3.6767 0.604094 0
M  V30 22742 H 2197.82 4.68857 -0.985382 0
M  V30 22743 H 2196.18 2.51065 -0.428778 0
M  V30 22744 H 2196.97 2.72639 -2.08621 0
M  V30 22745 N 2199.41 0.545154 1.47871 0
M  V30 22746 C 2200.66 0.0165886 2.02093 0
M  V30 22747 C 2200.98 -1.33317 1.42308 0
M  V30 22748 O 2200.25 -1.86681 0.593886 0
M  V30 22749 H 2198.83 0.00314351 0.746993 0
M  V30 22750 H 2201.49 0.712429 1.81412 0
M  V30 22751 H 2200.59 -0.0804873 3.11996 0
M  V30 22752 N 2200.89 -1.55074 0.28101 0
M  V30 22753 C 2202.12 -2.04592 -0.340118 0
M  V30 22754 C 2202.54 -1.15782 -1.48244 0
M  V30 22755 O 2201.9 -0.157642 -1.80613 0
M  V30 22756 C 2201.95 -3.51772 -0.793042 0
M  V30 22757 O 2201.05 -3.66037 -1.89975 0
M  V30 22758 H 2200.39 -0.660361 -0.0694173 0
M  V30 22759 H 2202.92 -2.00305 0.417028 0
M  V30 22760 H 2202.93 -3.93247 -1.08722 0
M  V30 22761 H 2201.61 -4.15878 0.0426894 0
M  V30 22762 H 2200.18 -3.36465 -1.60765 0
M  V30 22763 N 2202.37 -0.00838561 -1.57598 0
M  V30 22764 C 2203.33 0.965206 -2.07886 0
M  V30 22765 C 2204.33 1.26723 -0.989847 0
M  V30 22766 O 2205.52 1.21101 -1.2522 0
M  V30 22767 C 2202.65 2.28775 -2.52735 0
M  V30 22768 H 2203.85 0.53006 -2.95179 0
M  V30 22769 H 2201.4 0.239256 -1.54458 0
M  V30 22770 H 2202.14 2.76961 -1.6871 0
M  V30 22771 H 2201.92 2.08172 -3.32276 0
M  V30 22772 H 2203.41 2.986 -2.91938 0
M  V30 22773 N 2203.85 1.55365 0.264492 0
M  V30 22774 C 2204.76 1.91936 1.34899 0
M  V30 22775 C 2205.77 0.81762 1.53594 0
M  V30 22776 O 2206.95 1.11745 1.67556 0
M  V30 22777 C 2204.01 2.19126 2.68672 0
M  V30 22778 C 2203.08 3.42634 2.58651 0
M  V30 22779 C 2202.31 3.68517 3.86045 0
M  V30 22780 O 2202.53 2.96765 4.87121 0
M  V30 22781 O 2201.47 4.62051 3.85736 0
M  V30 22782 H 2205.29 2.84272 1.06878 0
M  V30 22783 H 2202.88 1.4202 0.46375 0
M  V30 22784 H 2204.76 2.38001 3.47755 0
M  V30 22785 H 2203.43 1.29971 2.96461 0
M  V30 22786 H 2202.34 3.29086 1.77914 0
M  V30 22787 H 2203.67 4.32035 2.3581 0
M  V30 22788 N 2205.33 -0.529387 1.48443 0
M  V30 22789 C 2206.26 -1.6431 1.65905 0
M  V30 22790 C 2207.24 -1.6234 0.507926 0
M  V30 22791 O 2208.42 -1.79526 0.740534 0
M  V30 22792 C 2205.55 -3.02895 1.69917 0
M  V30 22793 C 2204.51 -3.19724 2.84536 0
M  V30 22794 C 2203.83 -4.59377 2.73637 0
M  V30 22795 C 2205.13 -3.02439 4.25826 0
M  V30 22796 H 2206.83 -1.49951 2.59143 0
M  V30 22797 H 2204.37 -0.71996 1.2471 0
M  V30 22798 H 2206.32 -3.80681 1.80721 0
M  V30 22799 H 2205.05 -3.18278 0.73258 0
M  V30 22800 H 2203.71 -2.44356 2.73287 0
M  V30 22801 H 2203.36 -4.71596 1.74946 0
M  V30 22802 H 2203.06 -4.71582 3.50549 0
M  V30 22803 H 2204.58 -5.3926 2.8641 0
M  V30 22804 H 2205.99 -3.70016 4.37905 0
M  V30 22805 H 2204.39 -3.26137 5.03741 0
M  V30 22806 H 2205.46 -1.98859 4.42248 0
M  V30 22807 N 2206.8 -1.37041 -0.778305 0
M  V30 22808 C 2207.74 -1.28143 -1.90032 0
M  V30 22809 C 2208.75 -0.198586 -1.61584 0
M  V30 22810 O 2209.94 -0.454206 -1.72625 0
M  V30 22811 C 2207.04 -0.957025 -3.25107 0
M  V30 22812 C 2206.21 -2.14401 -3.81249 0
M  V30 22813 C 2205.27 -1.79091 -4.94786 0
M  V30 22814 O 2204.3 -2.5131 -5.10717 0
M  V30 22815 N 2205.5 -0.731144 -5.75877 0
M  V30 22816 H 2208.26 -2.24819 -1.98183 0
M  V30 22817 H 2205.82 -1.3058 -0.957106 0
M  V30 22818 H 2207.82 -0.701771 -3.98569 0
M  V30 22819 H 2206.39 -0.0790361 -3.125 0
M  V30 22820 H 2205.61 -2.56141 -2.99642 0
M  V30 22821 H 2206.89 -2.93675 -4.1549 0
M  V30 22822 H 2206.29 -0.131718 -5.65547 0
M  V30 22823 H 2204.85 -0.535736 -6.49595 0
M  V30 22824 N 2208.28 1.00373 -1.21503 0
M  V30 22825 C 2209.23 2.09175 -0.975424 0
M  V30 22826 C 2210.2 1.65805 0.0990324 0
M  V30 22827 O 2211.38 1.90739 -0.0483483 0
M  V30 22828 C 2208.52 3.40728 -0.547567 0
M  V30 22829 C 2207.64 3.97503 -1.6916 0
M  V30 22830 C 2206.77 5.1717 -1.21279 0
M  V30 22831 C 2205.81 5.66057 -2.32907 0
M  V30 22832 N 2204.95 6.76973 -1.8615 0
M  V30 22833 H 2209.79 2.29005 -1.90684 0
M  V30 22834 H 2207.32 1.12286 -0.950277 0
M  V30 22835 H 2209.28 4.16254 -0.280741 0
M  V30 22836 H 2207.91 3.20931 0.346848 0
M  V30 22837 H 2206.96 3.18951 -2.07303 0
M  V30 22838 H 2208.28 4.29776 -2.53167 0
M  V30 22839 H 2207.43 5.99947 -0.902697 0
M  V30 22840 H 2206.17 4.86494 -0.342777 0
M  V30 22841 H 2205.17 4.81876 -2.64718 0
M  V30 22842 H 2206.4 5.98763 -3.20406 0
M  V30 22843 H 2204.35 6.48101 -1.01495 0
M  V30 22844 H 2204.26 7.08507 -2.6373 0
M  V30 22845 H 2205.53 7.63282 -1.58179 0
M  V30 22846 N 2209.76 1.02298 1.19887 0
M  V30 22847 C 2211.01 0.717066 1.897 0
M  V30 22848 C 2211.34 -0.751958 1.79051 0
M  V30 22849 O 2210.61 -1.54698 1.17894 0
M  V30 22850 C 2210.9 1.16142 3.40856 0
M  V30 22851 C 2210.75 2.69123 3.60407 0
M  V30 22852 C 2212.07 0.737625 4.33875 0
M  V30 22853 H 2209.19 0.261969 0.68887 0
M  V30 22854 H 2211.83 1.27186 1.41152 0
M  V30 22855 H 2209.98 0.689409 3.82334 0
M  V30 22856 H 2211.65 3.24226 3.28139 0
M  V30 22857 H 2209.89 3.09795 3.0366 0
M  V30 22858 H 2210.57 2.95269 4.66391 0
M  V30 22859 H 2213.04 1.14351 4.00079 0
M  V30 22860 H 2211.92 1.0765 5.3824 0
M  V30 22861 H 2212.18 -0.360359 4.40629 0
M  V30 22862 N 2211.24 -1.35782 0.800057 0
M  V30 22863 C 2212.17 -2.32459 0.220225 0
M  V30 22864 C 2213.15 -1.57162 -0.650702 0
M  V30 22865 O 2214.33 -1.85264 -0.582326 0
M  V30 22866 C 2211.46 -3.41403 -0.637293 0
M  V30 22867 C 2210.42 -4.27788 0.134606 0
M  V30 22868 C 2209.74 -5.27994 -0.844192 0
M  V30 22869 C 2211.04 -5.05086 1.32988 0
M  V30 22870 H 2212.74 -2.81201 1.02792 0
M  V30 22871 H 2210.28 -1.35198 0.495741 0
M  V30 22872 H 2212.24 -4.08033 -1.05295 0
M  V30 22873 H 2210.96 -2.91253 -1.4778 0
M  V30 22874 H 2209.62 -3.62729 0.53136 0
M  V30 22875 H 2209.27 -4.74114 -1.68002 0
M  V30 22876 H 2208.97 -5.86661 -0.332081 0
M  V30 22877 H 2210.49 -5.97496 -1.25819 0
M  V30 22878 H 2211.91 -5.64697 0.989439 0
M  V30 22879 H 2210.3 -5.73217 1.77603 0
M  V30 22880 H 2211.37 -4.36108 2.11986 0
M  V30 22881 N 2212.72 -0.552988 -1.4758 0
M  V30 22882 C 2213.65 0.234493 -2.27997 0
M  V30 22883 C 2214.66 0.883297 -1.36754 0
M  V30 22884 O 2215.85 0.75786 -1.61613 0
M  V30 22885 C 2212.95 1.3493 -3.10881 0
M  V30 22886 C 2212.12 0.798083 -4.30057 0
M  V30 22887 C 2211.18 1.79686 -4.9457 0
M  V30 22888 O 2210.21 1.34465 -5.53089 0
M  V30 22889 N 2211.41 3.13006 -4.88884 0
M  V30 22890 H 2214.17 -0.455307 -2.96221 0
M  V30 22891 H 2211.74 -0.388789 -1.57162 0
M  V30 22892 H 2213.73 2.0161 -3.50907 0
M  V30 22893 H 2212.3 1.9424 -2.44928 0
M  V30 22894 H 2211.52 -0.0453772 -3.94174 0
M  V30 22895 H 2212.81 0.409084 -5.07153 0
M  V30 22896 H 2212.2 3.52394 -4.42532 0
M  V30 22897 H 2210.76 3.75256 -5.32941 0
M  V30 22898 N 2214.19 1.54923 -0.28923 0
M  V30 22899 C 2215.44 1.99505 0.322844 0
M  V30 22900 C 2215.76 1.17913 1.55311 0
M  V30 22901 O 2215.03 0.272131 1.94001 0
M  V30 22902 H 2213.61 0.736924 0.122278 0
M  V30 22903 H 2216.27 1.90796 -0.397836 0
M  V30 22904 H 2215.37 3.06219 0.603007 0
M  V30 22905 N 2215.67 0.0167433 1.57591 0
M  V30 22906 C 2216.95 -0.702532 1.82548 0
M  V30 22907 C 2217.33 -1.91045 0.898051 0
M  V30 22908 O 2216.68 -2.28447 -0.0493055 0
M  V30 22909 C 2216.89 -1.09246 3.31461 0
M  V30 22910 C 2218.23 -1.4893 3.97624 0
M  V30 22911 O 2219.26 -1.18578 3.35883 0
M  V30 22912 O 2218.12 -2.05433 5.06418 0
M  V30 22913 H 2215.21 -0.343531 0.752274 0
M  V30 22914 H 2217.76 0.0434794 1.69644 0
M  V30 22915 H 2216.53 -0.232201 3.9061 0
M  V30 22916 H 2216.15 -1.89703 3.49426 0
M  V30 22917 N 2217.15 -1.55503 -0.256249 0
M  V30 22918 C 2218.08 -1.92542 -1.32098 0
M  V30 22919 C 2219.06 -0.789221 -1.50683 0
M  V30 22920 O 2220.25 -1.04874 -1.63447 0
M  V30 22921 C 2217.38 -2.21197 -2.67748 0
M  V30 22922 C 2216.33 -3.3698 -2.63872 0
M  V30 22923 C 2215.66 -3.51154 -4.0323 0
M  V30 22924 C 2216.96 -4.72925 -2.21674 0
M  V30 22925 H 2218.65 -2.81726 -1.01346 0
M  V30 22926 H 2216.2 -1.35548 -0.486081 0
M  V30 22927 H 2218.15 -2.45697 -3.42361 0
M  V30 22928 H 2216.87 -1.2883 -3.00117 0
M  V30 22929 H 2215.53 -3.12474 -1.91717 0
M  V30 22930 H 2215.18 -2.56224 -4.32849 0
M  V30 22931 H 2214.88 -4.2901 -4.01527 0
M  V30 22932 H 2216.4 -3.77965 -4.79557 0
M  V30 22933 H 2217.82 -4.96859 -2.86015 0
M  V30 22934 H 2216.22 -5.53816 -2.311 0
M  V30 22935 H 2217.29 -4.70617 -1.16825 0
M  V30 22936 N 2218.63 0.521507 -1.48721 0
M  V30 22937 C 2219.87 1.27876 -1.57403 0
M  V30 22938 C 2220.21 1.92573 -0.25085 0
M  V30 22939 O 2219.48 1.79712 0.743902 0
M  V30 22940 C 2219.77 2.36159 -2.71847 0
M  V30 22941 C 2219.62 1.76098 -4.13896 0
M  V30 22942 C 2220.94 3.3787 -2.82014 0
M  V30 22943 H 2218.06 0.463571 -0.572949 0
M  V30 22944 H 2220.7 0.580088 -1.80928 0
M  V30 22945 H 2218.85 2.95752 -2.51919 0
M  V30 22946 H 2220.52 1.20491 -4.45286 0
M  V30 22947 H 2218.76 1.06594 -4.205 0
M  V30 22948 H 2219.43 2.54541 -4.89809 0
M  V30 22949 H 2221.91 2.88244 -3.00091 0
M  V30 22950 H 2220.79 4.11021 -3.63803 0
M  V30 22951 H 2221.05 3.98943 -1.90518 0
M  V30 22952 N 2220.11 1.37452 0.771027 0
M  V30 22953 C 2221.04 1.27641 1.89164 0
M  V30 22954 C 2222.02 0.15681 1.61842 0
M  V30 22955 O 2223.2 0.331144 1.85569 0
M  V30 22956 C 2220.33 0.973678 3.24403 0
M  V30 22957 C 2219.37 2.11027 3.70635 0
M  V30 22958 S 2220.21 3.73007 3.84221 0
M  V30 22959 C 2221.36 3.44885 5.22307 0
M  V30 22960 H 2221.6 2.22488 1.97196 0
M  V30 22961 H 2219.13 1.23083 0.932202 0
M  V30 22962 H 2221.09 0.805837 4.02513 0
M  V30 22963 H 2219.75 0.0426831 3.14071 0
M  V30 22964 H 2218.94 1.85347 4.68682 0
M  V30 22965 H 2218.54 2.23828 2.99628 0
M  V30 22966 H 2220.84 2.99918 6.07499 0
M  V30 22967 H 2221.78 4.42263 5.53 0
M  V30 22968 H 2222.19 2.79798 4.90279 0
M  V30 22969 N 2221.58 -0.997276 1.22033 0
M  V30 22970 C 2222.53 -2.10776 0.983671 0
M  V30 22971 C 2223.53 -1.69248 -0.0717267 0
M  V30 22972 O 2224.73 -1.79821 0.0803357 0
M  V30 22973 H 2221.11 -0.689181 0.300889 0
M  V30 22974 H 2223.08 -2.27912 1.9261 0
M  V30 22975 C 2221.83 -3.42941 0.57332 0
M  V30 22976 H 2221.15 -3.75335 1.37708 0
M  V30 22977 H 2222.59 -4.21636 0.447105 0
M  V30 22978 C 2221.05 -3.2919 -0.716642 0
M  V30 22979 O 2221.58 -3.60592 -1.77021 0
M  V30 22980 N 2219.79 -2.82384 -0.686117 0
M  V30 22981 H 2219.33 -2.57028 0.171552 0
M  V30 22982 H 2219.29 -2.73565 -1.5495 0
M  V30 22983 N 2223.06 -1.02932 -1.19343 0
M  V30 22984 C 2224.31 -0.727117 -1.89317 0
M  V30 22985 C 2224.64 0.742451 -1.79447 0
M  V30 22986 O 2223.92 1.5407 -1.18712 0
M  V30 22987 C 2224.2 -1.17948 -3.40236 0
M  V30 22988 C 2224.05 -2.7103 -3.58974 0
M  V30 22989 C 2225.37 -0.760624 -4.33477 0
M  V30 22990 H 2222.49 -0.265619 -0.687471 0
M  V30 22991 H 2225.13 -1.27932 -1.40475 0
M  V30 22992 H 2223.28 -0.709675 -3.81963 0
M  V30 22993 H 2224.95 -3.25961 -3.26415 0
M  V30 22994 H 2223.2 -3.11401 -3.02013 0
M  V30 22995 H 2223.87 -2.97738 -4.64818 0
M  V30 22996 H 2226.34 -1.16471 -3.99467 0
M  V30 22997 H 2225.22 -1.10503 -5.37662 0
M  V30 22998 H 2225.48 0.336986 -4.40814 0
M  V30 22999 N 2224.54 1.35356 -0.807246 0
M  V30 23000 C 2225.77 2.02694 -0.399832 0
M  V30 23001 C 2226.18 1.60976 0.994148 0
M  V30 23002 O 2225.52 0.803255 1.65207 0
M  V30 23003 C 2225.58 3.57217 -0.404508 0
M  V30 23004 C 2225.25 4.22203 -1.74911 0
M  V30 23005 C 2226.24 4.43836 -2.70751 0
M  V30 23006 C 2223.93 4.59306 -2.0333 0
M  V30 23007 C 2225.92 5.01676 -3.93192 0
M  V30 23008 C 2223.61 5.1686 -3.26035 0
M  V30 23009 C 2224.61 5.37987 -4.20784 0
M  V30 23010 O 2224.3 5.94327 -5.41323 0
M  V30 23011 H 2224.03 0.656663 -0.160528 0
M  V30 23012 H 2226.58 1.73943 -1.09238 0
M  V30 23013 H 2224.81 3.85161 0.344639 0
M  V30 23014 H 2226.5 4.05895 -0.0193143 0
M  V30 23015 H 2227.27 4.1555 -2.50087 0
M  V30 23016 H 2223.15 4.42175 -1.30391 0
M  V30 23017 H 2226.69 5.18082 -4.67159 0
M  V30 23018 H 2222.59 5.44573 -3.46569 0
M  V30 23019 H 2223.36 6.12778 -5.42628 0
M  V30 23020 N 2226.02 0.560807 1.47284 0
M  V30 23021 C 2227.43 0.220837 1.58065 0
M  V30 23022 C 2227.63 -1.27668 1.55894 0
M  V30 23023 O 2226.69 -2.05708 1.46426 0
M  V30 23024 C 2228 0.850676 2.88416 0
M  V30 23025 C 2229.55 0.822237 3.02007 0
M  V30 23026 C 2230.03 1.43121 4.35064 0
M  V30 23027 N 2231.52 1.39456 4.41708 0
M  V30 23028 C 2232.25 1.83534 5.43234 0
M  V30 23029 N 2231.75 2.35485 6.51551 0
M  V30 23030 N 2233.54 1.74583 5.34301 0
M  V30 23031 H 2225.69 1.53371 1.46939 0
M  V30 23032 H 2227.96 0.639795 0.699547 0
M  V30 23033 H 2227.66 1.90326 2.95752 0
M  V30 23034 H 2227.54 0.345839 3.75611 0
M  V30 23035 H 2229.92 -0.221663 2.94266 0
M  V30 23036 H 2230 1.36487 2.16345 0
M  V30 23037 H 2229.65 2.4742 4.43561 0
M  V30 23038 H 2229.58 0.86399 5.19464 0
M  V30 23039 H 2232.07 1.01459 3.64026 0
M  V30 23040 H 2232.38 2.67034 7.25198 0
M  V30 23041 H 2230.73 2.39498 6.5243 0
M  V30 23042 H 2233.92 1.33771 4.48579 0
M  V30 23043 H 2234.09 2.09253 6.13284 0
M  V30 23044 N 2227.5 -1.54768 0.297442 0
M  V30 23045 C 2228.77 -1.92149 -0.365813 0
M  V30 23046 C 2229.15 -1.22427 -1.71973 0
M  V30 23047 O 2228.5 -0.358779 -2.25666 0
M  V30 23048 C 2228.71 -3.45628 -0.483995 0
M  V30 23049 C 2230.06 -4.17806 -0.756521 0
M  V30 23050 O 2231.08 -3.51643 -0.567945 0
M  V30 23051 O 2229.94 -5.34931 -1.11853 0
M  V30 23052 H 2227.04 -0.801468 -0.203905 0
M  V30 23053 H 2229.58 -1.66151 0.345239 0
M  V30 23054 H 2228.35 -3.88492 0.467933 0
M  V30 23055 H 2227.98 -3.77649 -1.24365 0
M  V30 23056 N 2228.97 -0.0251005 -1.5758 0
M  V30 23057 C 2230.22 0.653118 -1.91256 0
M  V30 23058 C 2230.54 1.72899 -0.901721 0
M  V30 23059 O 2229.81 1.95816 0.0573441 0
M  V30 23060 H 2228.39 0.24423 -0.705947 0
M  V30 23061 H 2231.06 -0.0719551 -1.94767 0
M  V30 23062 H 2230.15 1.10842 -2.91754 0
M  V30 23063 N 2230.45 1.55637 0.247999 0
M  V30 23064 C 2231.42 1.89423 1.29041 0
M  V30 23065 C 2232.42 0.770606 1.41132 0
M  V30 23066 O 2233.61 1.03861 1.39852 0
M  V30 23067 C 2230.74 2.12169 2.66828 0
M  V30 23068 H 2231.93 2.8263 1.003 0
M  V30 23069 H 2229.48 1.48512 0.487239 0
M  V30 23070 H 2230.22 1.21427 3.00709 0
M  V30 23071 H 2230 2.94002 2.59433 0
M  V30 23072 H 2231.49 2.39496 3.42098 0
M  V30 23073 N 2231.93 -0.513613 1.48996 0
M  V30 23074 C 2233.18 -1.2678 1.59055 0
M  V30 23075 C 2233.53 -1.90522 0.268169 0
M  V30 23076 O 2232.83 -1.77128 -0.730503 0
M  V30 23077 C 2233.02 -2.36726 2.6776 0
M  V30 23078 C 2232.85 -1.83764 4.1044 0
M  V30 23079 C 2231.62 -1.65631 4.77383 0
M  V30 23080 C 2233.82 -1.35673 4.96082 0
M  V30 23081 N 2231.8 -1.07465 6.04421 0
M  V30 23082 C 2233.17 -0.895607 6.13497 0
M  V30 23083 C 2235.22 -1.24128 4.82179 0
M  V30 23084 C 2233.93 -0.330474 7.1854 0
M  V30 23085 C 2235.95 -0.690125 5.8736 0
M  V30 23086 C 2235.32 -0.239168 7.03994 0
M  V30 23087 H 2231.41 -0.454344 0.636471 0
M  V30 23088 H 2234 -0.577163 1.85949 0
M  V30 23089 H 2232.17 -3.03266 2.4266 0
M  V30 23090 H 2233.9 -3.03765 2.67411 0
M  V30 23091 H 2230.66 -1.89632 4.33978 0
M  V30 23092 H 2231.08 -0.803461 6.72215 0
M  V30 23093 H 2235.72 -1.57594 3.92331 0
M  V30 23094 H 2233.44 0.0164855 8.08098 0
M  V30 23095 H 2237.03 -0.60375 5.78659 0
M  V30 23096 H 2235.91 0.180664 7.83992 0
M  V30 23097 N 2233.41 -1.37859 -0.763727 0
M  V30 23098 C 2234.66 -1.33245 -1.51954 0
M  V30 23099 C 2234.98 0.0801367 -1.94835 0
M  V30 23100 O 2234.25 1.02579 -1.66896 0
M  V30 23101 H 2232.83 -0.49025 -0.563617 0
M  V30 23102 H 2235.49 -1.72432 -0.908474 0
M  V30 23103 H 2234.59 -1.97673 -2.4152 0
M  V30 23104 N 2234.89 0.990791 -1.22561 0
M  V30 23105 C 2235.85 2.06288 -0.998899 0
M  V30 23106 C 2236.85 1.60761 0.0354551 0
M  V30 23107 O 2238.04 1.7301 -0.203261 0
M  V30 23108 C 2235.17 3.37075 -0.509263 0
M  V30 23109 H 2236.37 2.27833 -1.95018 0
M  V30 23110 H 2233.92 1.16267 -1.04459 0
M  V30 23111 H 2234.65 3.21215 0.446279 0
M  V30 23112 H 2234.44 3.71455 -1.25554 0
M  V30 23113 H 2235.93 4.15949 -0.370961 0
M  V30 23114 N 2236.37 1.03564 1.18795 0
M  V30 23115 C 2237.61 0.736056 1.88649 0
M  V30 23116 C 2237.94 -0.735857 1.80043 0
M  V30 23117 O 2237.2 -1.55223 1.19182 0
M  V30 23118 C 2237.49 1.14123 3.3869 0
M  V30 23119 C 2237.16 2.61256 3.675 0
M  V30 23120 C 2235.82 3.01453 3.75072 0
M  V30 23121 C 2238.17 3.56415 3.80287 0
M  V30 23122 C 2235.5 4.35707 3.92907 0
M  V30 23123 C 2237.85 4.90381 3.99636 0
M  V30 23124 C 2236.52 5.30256 4.05443 0
M  V30 23125 H 2235.79 0.269342 0.690316 0
M  V30 23126 H 2238.44 1.29973 1.40639 0
M  V30 23127 H 2236.74 0.49627 3.88644 0
M  V30 23128 H 2238.44 0.886858 3.9107 0
M  V30 23129 H 2235.03 2.29119 3.62219 0
M  V30 23130 H 2239.21 3.26508 3.73773 0
M  V30 23131 H 2234.47 4.66128 3.95645 0
M  V30 23132 H 2238.64 5.64024 4.08473 0
M  V30 23133 H 2236.27 6.34295 4.19015 0
M  V30 23134 N 2237.84 -1.34926 0.814413 0
M  V30 23135 C 2239.26 -1.51595 0.499111 0
M  V30 23136 C 2239.46 -1.76158 -0.978288 0
M  V30 23137 O 2238.52 -1.80755 -1.76306 0
M  V30 23138 C 2239.83 -2.68629 1.35126 0
M  V30 23139 C 2241.38 -2.82509 1.34751 0
M  V30 23140 C 2241.85 -4.02576 2.18395 0
M  V30 23141 N 2243.34 -4.09768 2.15973 0
M  V30 23142 C 2244.08 -5.01808 2.77446 0
M  V30 23143 N 2243.57 -5.99127 3.47877 0
M  V30 23144 N 2245.37 -4.94614 2.67046 0
M  V30 23145 H 2237.52 -1.1724 1.77112 0
M  V30 23146 H 2239.78 -0.574271 0.754266 0
M  V30 23147 H 2239.49 -2.5708 2.40005 0
M  V30 23148 H 2239.36 -3.63427 1.00997 0
M  V30 23149 H 2241.75 -2.93504 0.306532 0
M  V30 23150 H 2241.83 -1.88544 1.72872 0
M  V30 23151 H 2241.47 -3.92342 3.22537 0
M  V30 23152 H 2241.4 -4.95737 1.77629 0
M  V30 23153 H 2243.89 -3.40104 1.64735 0
M  V30 23154 H 2244.21 -6.6597 3.9205 0
M  V30 23155 H 2242.55 -5.99278 3.51982 0
M  V30 23156 H 2245.74 -4.17542 2.11604 0
M  V30 23157 H 2245.92 -5.66151 3.15242 0
M  V30 23158 N 2239.32 -0.56861 -1.46985 0
M  V30 23159 C 2240.27 0.193299 -2.27179 0
M  V30 23160 C 2241.26 0.874871 -1.35036 0
M  V30 23161 O 2242.45 0.771294 -1.59311 0
M  V30 23162 C 2239.58 1.2154 -3.21065 0
M  V30 23163 C 2238.66 0.536664 -4.20691 0
M  V30 23164 N 2239.05 -0.399761 -5.04218 0
M  V30 23165 C 2237.35 0.789176 -4.38962 0
M  V30 23166 C 2238.05 -0.795118 -5.7624 0
M  V30 23167 N 2237.03 -0.147395 -5.434 0
M  V30 23168 H 2240.83 -0.526509 -2.89145 0
M  V30 23169 H 2238.34 -0.389369 -1.57663 0
M  V30 23170 H 2240.34 1.7753 -3.77212 0
M  V30 23171 H 2239 1.93618 -2.60657 0
M  V30 23172 H 2240.01 -0.774544 -5.12075 0
M  V30 23173 H 2236.69 1.4976 -3.89716 0
M  V30 23174 H 2238.08 -1.56524 -6.53414 0
M  V30 23175 N 2240.8 1.54608 -0.305646 0
M  V30 23176 C 2242.05 2.00231 0.302263 0
M  V30 23177 C 2242.37 1.194 1.53538 0
M  V30 23178 O 2241.63 0.259457 1.93972 0
M  V30 23179 C 2241.93 3.50499 0.698922 0
M  V30 23180 C 2241.59 4.48816 -0.432982 0
M  V30 23181 C 2240.26 4.75418 -0.743706 0
M  V30 23182 C 2242.61 5.07335 -1.19418 0
M  V30 23183 C 2239.94 5.57801 -1.81867 0
M  V30 23184 C 2242.29 5.90887 -2.25909 0
M  V30 23185 C 2240.95 6.15798 -2.57583 0
M  V30 23186 H 2240.22 0.732699 0.110606 0
M  V30 23187 H 2242.87 1.86708 -0.425707 0
M  V30 23188 H 2241.17 3.61656 1.50705 0
M  V30 23189 H 2242.87 3.83229 1.18054 0
M  V30 23190 H 2239.46 4.28219 -0.180706 0
M  V30 23191 H 2243.65 4.86781 -0.96738 0
M  V30 23192 H 2238.9 5.75337 -2.06874 0
M  V30 23193 H 2243.08 6.35256 -2.85346 0
M  V30 23194 H 2240.7 6.79424 -3.41009 0
M  V30 23195 N 2242.28 0.033457 1.57564 0
M  V30 23196 C 2243.21 -0.945228 2.13513 0
M  V30 23197 C 2244.19 -1.33642 1.05233 0
M  V30 23198 O 2245.37 -1.41427 1.33087 0
M  V30 23199 C 2242.5 -2.22611 2.66574 0
M  V30 23200 C 2241.46 -1.97554 3.79679 0
M  V30 23201 C 2240.78 -3.31945 4.19186 0
M  V30 23202 C 2242.08 -1.31126 5.05572 0
M  V30 23203 H 2243.78 -0.479273 2.95539 0
M  V30 23204 H 2241.32 -0.22909 1.42166 0
M  V30 23205 H 2243.28 -2.91461 3.04349 0
M  V30 23206 H 2242 -2.7138 1.81715 0
M  V30 23207 H 2240.66 -1.31121 3.42349 0
M  V30 23208 H 2240.31 -3.78481 3.31302 0
M  V30 23209 H 2240.01 -3.15983 4.95407 0
M  V30 23210 H 2241.53 -4.02055 4.59548 0
M  V30 23211 H 2242.95 -1.89982 5.40906 0
M  V30 23212 H 2241.34 -1.25548 5.8682 0
M  V30 23213 H 2242.41 -0.284809 4.84063 0
M  V30 23214 N 2243.76 -1.55766 -0.239741 0
M  V30 23215 C 2244.69 -1.93932 -1.30049 0
M  V30 23216 C 2245.67 -0.805158 -1.49837 0
M  V30 23217 O 2246.85 -1.06602 -1.62326 0
M  V30 23218 C 2243.98 -2.24024 -2.65387 0
M  V30 23219 C 2242.94 -3.3976 -2.60283 0
M  V30 23220 C 2242.26 -3.55412 -3.99483 0
M  V30 23221 C 2243.56 -4.7525 -2.16645 0
M  V30 23222 H 2245.26 -2.82785 -0.983523 0
M  V30 23223 H 2242.8 -1.36056 -0.471677 0
M  V30 23224 H 2244.75 -2.49314 -3.39736 0
M  V30 23225 H 2243.48 -1.32006 -2.98734 0
M  V30 23226 H 2242.14 -3.1449 -1.88392 0
M  V30 23227 H 2241.79 -2.608 -4.30107 0
M  V30 23228 H 2241.49 -4.33245 -3.96954 0
M  V30 23229 H 2243.01 -3.8303 -4.75521 0
M  V30 23230 H 2244.42 -4.99864 -2.80729 0
M  V30 23231 H 2242.82 -5.56236 -2.25213 0
M  V30 23232 H 2243.89 -4.71829 -1.11827 0
M  V30 23233 N 2245.23 0.505704 -1.49266 0
M  V30 23234 C 2246.14 1.63424 -1.68315 0
M  V30 23235 C 2247.16 1.64547 -0.56571 0
M  V30 23236 O 2248.34 1.83054 -0.839833 0
M  V30 23237 C 2245.4 2.9981 -1.74112 0
M  V30 23238 C 2244.46 3.0935 -2.97659 0
M  V30 23239 C 2243.69 4.3923 -3.03171 0
M  V30 23240 O 2243.92 5.27755 -2.16405 0
M  V30 23241 O 2242.85 4.53645 -3.95588 0
M  V30 23242 H 2246.68 1.50284 -2.6391 0
M  V30 23243 H 2244.26 0.681478 -1.32952 0
M  V30 23244 H 2246.14 3.80877 -1.80306 0
M  V30 23245 H 2244.82 3.13221 -0.816956 0
M  V30 23246 H 2243.73 2.27488 -2.96985 0
M  V30 23247 H 2245.06 3.00864 -3.8954 0
M  V30 23248 N 2246.71 1.38262 0.756405 0
M  V30 23249 C 2247.62 1.37491 1.90088 0
M  V30 23250 C 2248.64 0.272396 1.71855 0
M  V30 23251 O 2249.81 0.510353 1.94826 0
M  V30 23252 C 2246.88 1.19598 3.25419 0
M  V30 23253 C 2245.94 2.39629 3.56197 0
M  V30 23254 C 2245.17 2.22579 4.85071 0
M  V30 23255 O 2245.4 1.21803 5.57243 0
M  V30 23256 O 2244.33 3.11107 5.15263 0
M  V30 23257 H 2248.16 2.33918 1.93691 0
M  V30 23258 H 2245.74 1.19152 0.901292 0
M  V30 23259 H 2247.62 1.11668 4.06335 0
M  V30 23260 H 2246.3 0.262543 3.22634 0
M  V30 23261 H 2245.21 2.53133 2.75453 0
M  V30 23262 H 2246.54 3.31592 3.63741 0
M  V30 23263 N 2248.19 -0.984277 1.23084 0
M  V30 23264 C 2249.47 -1.69915 0.968929 0
M  V30 23265 C 2249.85 -2.04758 -0.513568 0
M  V30 23266 O 2249.2 -1.73769 -1.4838 0
M  V30 23267 C 2249.41 -2.9434 1.87524 0
M  V30 23268 C 2250.75 -3.66936 2.13642 0
M  V30 23269 O 2251.78 -3.04365 1.85042 0
M  V30 23270 O 2250.64 -4.79533 2.62127 0
M  V30 23271 H 2247.73 -0.742041 0.365108 0
M  V30 23272 H 2250.28 -1.03985 1.34109 0
M  V30 23273 H 2249.05 -2.65159 2.87761 0
M  V30 23274 H 2248.67 -3.68007 1.5052 0
M  V30 23275 N 2249.67 -1.04192 -1.18244 0
M  V30 23276 C 2250.62 -0.634076 -2.21919 0
M  V30 23277 C 2251.59 0.358736 -1.6218 0
M  V30 23278 O 2252.77 0.252433 -1.89123 0
M  V30 23279 C 2249.91 -0.00451601 -3.451 0
M  V30 23280 C 2249.02 -1.04495 -4.19172 0
M  V30 23281 C 2248.16 -0.383769 -5.29812 0
M  V30 23282 C 2247.2 -1.40921 -5.95657 0
M  V30 23283 N 2246.33 -0.772907 -6.97833 0
M  V30 23284 H 2251.17 -1.52268 -2.56161 0
M  V30 23285 H 2248.71 -0.761723 -1.25842 0
M  V30 23286 H 2250.67 0.377846 -4.15485 0
M  V30 23287 H 2249.3 0.847597 -3.11473 0
M  V30 23288 H 2248.35 -1.54524 -3.47601 0
M  V30 23289 H 2249.66 -1.82376 -4.64263 0
M  V30 23290 H 2248.82 0.05273 -6.06677 0
M  V30 23291 H 2247.56 0.427123 -4.85826 0
M  V30 23292 H 2246.56 -1.85583 -5.17532 0
M  V30 23293 H 2247.79 -2.22182 -6.41726 0
M  V30 23294 H 2245.73 0.0176555 -6.55998 0
M  V30 23295 H 2245.65 -1.48941 -7.41183 0
M  V30 23296 H 2246.92 -0.360847 -7.78664 0
M  V30 23297 N 2251.15 1.34492 -0.821557 0
M  V30 23298 C 2252.56 1.80739 -0.467988 0
M  V30 23299 C 2252.91 1.68117 1.01148 0
M  V30 23300 O 2252.03 1.22039 1.78705 0
M  V30 23301 C 2252.63 3.28153 -0.842684 0
M  V30 23302 C 2251.19 3.72484 -0.541504 0
M  V30 23303 C 2250.33 2.56227 -1.06033 0
M  V30 23304 H 2253.29 1.22259 -1.01185 0
M  V30 23305 H 2253.31 3.8022 -0.145943 0
M  V30 23306 H 2252.82 3.37308 -1.91951 0
M  V30 23307 H 2250.92 3.68869 0.52597 0
M  V30 23308 H 2251.03 4.66662 -1.08461 0
M  V30 23309 H 2249.4 2.50099 -0.481936 0
M  V30 23310 H 2250.18 2.68153 -2.14357 0
M  V30 23311 N 2252.62 0.576397 1.46681 0
M  V30 23312 C 2253.53 -0.1631 2.34032 0
M  V30 23313 C 2254.55 -0.892475 1.49368 0
M  V30 23314 O 2255.73 -0.857074 1.82253 0
M  V30 23315 C 2252.79 -1.16789 3.26437 0
M  V30 23316 C 2251.85 -0.443869 4.26999 0
M  V30 23317 C 2251.09 -1.40079 5.14989 0
M  V30 23318 O 2251.31 -2.63692 5.05789 0
M  V30 23319 O 2250.24 -0.914812 5.94907 0
M  V30 23320 H 2254.07 0.553932 2.98606 0
M  V30 23321 H 2251.65 0.336846 1.45553 0
M  V30 23322 H 2253.54 -1.74741 3.83462 0
M  V30 23323 H 2252.21 -1.8665 2.64468 0
M  V30 23324 H 2251.12 0.177336 3.73679 0
M  V30 23325 H 2252.45 0.213652 4.91736 0
M  V30 23326 N 2254.1 -1.54444 0.313841 0
M  V30 23327 C 2255.01 -2.27678 -0.565674 0
M  V30 23328 C 2256.03 -1.31668 -1.13752 0
M  V30 23329 O 2257.2 -1.6467 -1.15956 0
M  V30 23330 C 2254.27 -3.01299 -1.71522 0
M  V30 23331 C 2253.33 -4.12874 -1.17617 0
M  V30 23332 C 2252.56 -4.82974 -2.27093 0
M  V30 23333 O 2252.79 -4.5252 -3.47248 0
M  V30 23334 O 2251.72 -5.70098 -1.9306 0
M  V30 23335 H 2255.55 -3.03686 0.028783 0
M  V30 23336 H 2253.13 -1.49186 0.0798574 0
M  V30 23337 H 2255.01 -3.47434 -2.3847 0
M  V30 23338 H 2253.69 -2.28174 -2.29604 0
M  V30 23339 H 2252.6 -3.7111 -0.472059 0
M  V30 23340 H 2253.93 -4.88013 -0.640609 0
M  V30 23341 N 2255.58 -0.0418125 -1.57545 0
M  V30 23342 C 2256.99 0.495227 -1.80012 0
M  V30 23343 C 2257.34 1.71488 -0.953229 0
M  V30 23344 O 2256.47 2.15753 -0.167176 0
M  V30 23345 C 2257.06 0.905208 -3.26483 0
M  V30 23346 C 2255.62 1.38728 -3.49902 0
M  V30 23347 C 2254.77 0.358007 -2.74979 0
M  V30 23348 H 2257.72 -0.267763 -1.56425 0
M  V30 23349 H 2257.74 1.76876 -3.36891 0
M  V30 23350 H 2257.25 0.0173328 -3.88096 0
M  V30 23351 H 2255.35 2.29466 -2.93558 0
M  V30 23352 H 2255.47 1.3859 -4.58617 0
M  V30 23353 H 2253.83 0.828869 -2.40836 0
M  V30 23354 H 2254.61 -0.521621 -3.39314 0
M  V30 23355 N 2257.06 1.55891 0.231477 0
M  V30 23356 C 2258.29 1.82515 0.974473 0
M  V30 23357 C 2258.7 0.619622 1.78343 0
M  V30 23358 O 2258.06 -0.411817 1.77793 0
M  V30 23359 C 2258.11 3.07542 1.90001 0
M  V30 23360 O 2257.83 4.23442 1.12377 0
M  V30 23361 C 2259.33 3.4708 2.75773 0
M  V30 23362 H 2256.55 0.606971 0.286054 0
M  V30 23363 H 2259.1 2.0297 0.249703 0
M  V30 23364 H 2257.25 2.89091 2.57886 0
M  V30 23365 H 2257.66 4.94403 1.75117 0
M  V30 23366 H 2259.14 4.37625 3.36435 0
M  V30 23367 H 2259.62 2.68373 3.47667 0
M  V30 23368 H 2260.22 3.67935 2.13317 0
M  V30 23369 N 2258.54 -0.497781 1.49532 0
M  V30 23370 C 2259.5 -1.58125 1.65919 0
M  V30 23371 C 2260.5 -1.51785 0.530851 0
M  V30 23372 O 2261.69 -1.54879 0.79737 0
M  V30 23373 C 2258.82 -2.97777 1.65956 0
M  V30 23374 H 2260.01 -1.44924 2.62559 0
M  V30 23375 H 2257.57 -0.722251 1.38612 0
M  V30 23376 H 2258.3 -3.16452 0.70912 0
M  V30 23377 H 2258.09 -3.03788 2.47902 0
M  V30 23378 H 2259.58 -3.7649 1.80679 0
M  V30 23379 N 2260.01 -1.38661 -0.749062 0
M  V30 23380 C 2260.96 -1.32754 -1.85365 0
M  V30 23381 C 2261.95 -0.210973 -1.59511 0
M  V30 23382 O 2263.14 -0.447329 -1.71254 0
M  V30 23383 C 2260.27 -1.15941 -3.23129 0
M  V30 23384 C 2259.36 -2.32239 -3.5486 0
M  V30 23385 N 2259.75 -3.57691 -3.57618 0
M  V30 23386 C 2258.04 -2.2489 -3.8515 0
M  V30 23387 C 2258.75 -4.34515 -3.86745 0
M  V30 23388 N 2257.72 -3.63926 -4.03806 0
M  V30 23389 H 2261.52 -2.27732 -1.85783 0
M  V30 23390 H 2259.04 -1.31957 -0.946635 0
M  V30 23391 H 2261.03 -1.09793 -4.02183 0
M  V30 23392 H 2259.69 -0.219004 -3.23961 0
M  V30 23393 H 2260.71 -3.91301 -3.39269 0
M  V30 23394 H 2257.38 -1.39034 -3.9367 0
M  V30 23395 H 2258.77 -5.43192 -3.95465 0
M  V30 23396 N 2261.49 0.977736 -1.23605 0
M  V30 23397 C 2262.46 2.05217 -1.02072 0
M  V30 23398 C 2263.46 1.60789 0.0184023 0
M  V30 23399 O 2264.65 1.72785 -0.2216 0
M  V30 23400 C 2261.78 3.36516 -0.544985 0
M  V30 23401 H 2262.97 2.25752 -1.97424 0
M  V30 23402 H 2260.52 1.15153 -1.05686 0
M  V30 23403 H 2261.26 3.2167 0.412184 0
M  V30 23404 H 2261.04 3.70102 -1.29486 0
M  V30 23405 H 2262.53 4.15532 -0.415058 0
M  V30 23406 N 2262.97 1.04818 1.1769 0
M  V30 23407 C 2264.22 0.756023 1.87858 0
M  V30 23408 C 2264.55 -0.71672 1.80813 0
M  V30 23409 O 2263.8 -1.5395 1.20821 0
M  V30 23410 C 2264.1 1.17709 3.3746 0
M  V30 23411 C 2263.77 2.65139 3.64708 0
M  V30 23412 C 2262.43 3.05415 3.71854 0
M  V30 23413 C 2264.78 3.60428 3.76485 0
M  V30 23414 C 2262.11 4.3985 3.88264 0
M  V30 23415 C 2264.46 4.94592 3.94413 0
M  V30 23416 C 2263.12 5.34527 3.99797 0
M  V30 23417 H 2262.39 0.276648 0.68742 0
M  V30 23418 H 2265.04 1.31457 1.39252 0
M  V30 23419 H 2263.35 0.537463 3.88096 0
M  V30 23420 H 2265.04 0.928286 3.90107 0
M  V30 23421 H 2261.63 2.32948 3.59768 0
M  V30 23422 H 2265.82 3.30454 3.70289 0
M  V30 23423 H 2261.07 4.70298 3.90678 0
M  V30 23424 H 2265.25 5.68325 4.02467 0
M  V30 23425 H 2262.87 6.38704 4.12264 0
M  V30 23426 N 2264.45 -1.34055 0.828678 0
M  V30 23427 C 2265.7 -1.98401 0.420115 0
M  V30 23428 C 2266.03 -1.65527 -1.01561 0
M  V30 23429 O 2265.3 -0.929861 -1.70833 0
M  V30 23430 C 2265.59 -3.54558 0.629333 0
M  V30 23431 C 2265.44 -3.97155 2.11159 0
M  V30 23432 C 2266.76 -4.40046 0.0689529 0
M  V30 23433 H 2263.88 -0.720706 0.154117 0
M  V30 23434 H 2266.52 -1.58858 1.04231 0
M  V30 23435 H 2264.67 -3.88372 0.09971 0
M  V30 23436 H 2266.34 -3.73647 2.70529 0
M  V30 23437 H 2264.58 -3.47257 2.59991 0
M  V30 23438 H 2265.26 -5.05883 2.20877 0
M  V30 23439 H 2267.73 -4.12819 0.52153 0
M  V30 23440 H 2266.61 -5.48352 0.245102 0
M  V30 23441 H 2266.87 -4.30017 -1.02653 0
M  V30 23442 N 2265.93 -0.584167 -1.46374 0
M  V30 23443 C 2267.15 -0.0740769 -2.07268 0
M  V30 23444 C 2267.58 1.22221 -1.42981 0
M  V30 23445 O 2266.94 1.73858 -0.514123 0
M  V30 23446 C 2266.98 0.0767136 -3.60518 0
M  V30 23447 O 2266.09 1.13285 -3.96535 0
M  V30 23448 H 2265.43 -0.0634641 -0.66096 0
M  V30 23449 H 2267.96 -0.807525 -1.8799 0
M  V30 23450 H 2267.97 0.282418 -4.07021 0
M  V30 23451 H 2266.64 -0.869932 -4.067 0
M  V30 23452 H 2265.22 0.905489 -3.61739 0
M  V30 23453 N 2267.41 1.54275 -0.322027 0
M  V30 23454 C 2268.63 2.04955 0.283016 0
M  V30 23455 C 2269.05 1.19825 1.45902 0
M  V30 23456 O 2268.41 0.228576 1.81063 0
M  V30 23457 C 2268.46 3.54278 0.718966 0
M  V30 23458 O 2268.18 4.36175 -0.410252 0
M  V30 23459 C 2269.68 4.21044 1.38698 0
M  V30 23460 H 2266.9 0.668449 0.0584499 0
M  V30 23461 H 2269.44 1.99078 -0.467769 0
M  V30 23462 H 2267.6 3.60448 1.41973 0
M  V30 23463 H 2268.01 5.24457 -0.0670338 0
M  V30 23464 H 2269.49 5.26982 1.64297 0
M  V30 23465 H 2269.96 3.72063 2.33379 0
M  V30 23466 H 2270.57 4.19008 0.728833 0
M  V30 23467 N 2268.88 0.0501669 1.5752 0
M  V30 23468 C 2269.81 -0.922529 2.14503 0
M  V30 23469 C 2270.79 -1.32518 1.06644 0
M  V30 23470 O 2271.98 -1.40007 1.34579 0
M  V30 23471 C 2269.11 -2.19771 2.6892 0
M  V30 23472 C 2268.06 -1.93516 3.81753 0
M  V30 23473 C 2267.39 -3.2748 4.22683 0
M  V30 23474 C 2268.69 -1.25756 5.06935 0
M  V30 23475 H 2270.38 -0.4479 2.96031 0
M  V30 23476 H 2267.93 -0.213999 1.42401 0
M  V30 23477 H 2269.88 -2.88216 3.07424 0
M  V30 23478 H 2268.61 -2.69438 1.84583 0
M  V30 23479 H 2267.27 -1.27483 3.4372 0
M  V30 23480 H 2266.91 -3.74946 3.35298 0
M  V30 23481 H 2266.61 -3.10711 4.98731 0
M  V30 23482 H 2268.14 -3.97158 4.63786 0
M  V30 23483 H 2269.55 -1.84234 5.42891 0
M  V30 23484 H 2267.95 -1.19317 5.88119 0
M  V30 23485 H 2269.02 -0.233451 4.84338 0
M  V30 23486 N 2270.36 -1.56011 -0.223207 0
M  V30 23487 C 2271.59 -1.83029 -0.96478 0
M  V30 23488 C 2272 -0.629072 -1.78012 0
M  V30 23489 O 2271.36 0.402382 -1.78009 0
M  V30 23490 C 2271.41 -3.08545 -1.88368 0
M  V30 23491 O 2271.13 -4.24032 -1.1013 0
M  V30 23492 C 2272.63 -3.48537 -2.73928 0
M  V30 23493 H 2269.85 -0.60848 -0.282831 0
M  V30 23494 H 2272.4 -2.03099 -0.238936 0
M  V30 23495 H 2270.55 -2.90455 -2.56349 0
M  V30 23496 H 2270.97 -4.95325 -1.72492 0
M  V30 23497 H 2272.44 -4.39403 -3.3411 0
M  V30 23498 H 2272.92 -2.70213 -3.46239 0
M  V30 23499 H 2273.52 -3.69061 -2.11362 0
M  V30 23500 N 2271.84 0.489844 -1.49794 0
M  V30 23501 C 2273.26 0.821998 -1.36804 0
M  V30 23502 C 2273.46 1.97291 -0.409687 0
M  V30 23503 O 2272.51 2.52026 0.154569 0
M  V30 23504 C 2273.82 1.1517 -2.7777 0
M  V30 23505 C 2275.37 1.25926 -2.86551 0
M  V30 23506 C 2275.85 1.6222 -4.28309 0
M  V30 23507 N 2277.34 1.69248 -4.31172 0
M  V30 23508 C 2278.07 1.98798 -5.37836 0
M  V30 23509 N 2277.57 2.26495 -6.5473 0
M  V30 23510 N 2279.36 2.00142 -5.25261 0
M  V30 23511 H 2271.51 -0.268918 -2.10691 0
M  V30 23512 H 2273.78 -0.0577447 -0.94624 0
M  V30 23513 H 2273.48 0.379273 -3.49649 0
M  V30 23514 H 2273.36 2.09248 -3.13839 0
M  V30 23515 H 2275.74 2.02239 -2.14903 0
M  V30 23516 H 2275.82 0.298731 -2.5405 0
M  V30 23517 H 2275.47 0.864534 -5.00488 0
M  V30 23518 H 2275.4 2.59392 -4.58283 0
M  V30 23519 H 2277.89 1.49958 -3.46873 0
M  V30 23520 H 2278.2 2.48263 -7.31837 0
M  V30 23521 H 2276.55 2.23927 -6.57937 0
M  V30 23522 H 2279.74 1.77988 -4.32941 0
M  V30 23523 H 2279.91 2.22837 -6.0848 0
M  V30 23524 N 2273.32 1.39056 0.741698 0
M  V30 23525 C 2274.57 1.35646 1.49815 0
M  V30 23526 C 2274.89 -0.0491299 1.94938 0
M  V30 23527 O 2274.16 -0.999111 1.68507 0
M  V30 23528 H 2272.74 0.499154 0.555746 0
M  V30 23529 H 2275.4 1.73855 0.880927 0
M  V30 23530 H 2274.49 2.0149 2.38344 0
M  V30 23531 N 2274.8 -0.971167 1.24121 0
M  V30 23532 C 2276.07 -1.68878 0.986897 0
M  V30 23533 C 2276.45 -2.05291 -0.491821 0
M  V30 23534 O 2275.8 -1.75333 -1.46528 0
M  V30 23535 C 2276.01 -2.92334 1.90635 0
M  V30 23536 C 2277.36 -3.6465 2.17522 0
M  V30 23537 O 2278.38 -3.02385 1.8826 0
M  V30 23538 O 2277.24 -4.76726 2.67198 0
M  V30 23539 H 2274.34 -0.738127 0.372957 0
M  V30 23540 H 2276.88 -1.02557 1.35204 0
M  V30 23541 H 2275.65 -2.62092 2.90557 0
M  V30 23542 H 2275.28 -3.6639 1.54415 0
M  V30 23543 N 2276.27 -1.05441 -1.17133 0
M  V30 23544 C 2277.2 -0.678688 -2.23419 0
M  V30 23545 C 2278.19 0.324731 -1.66972 0
M  V30 23546 O 2279.37 0.201768 -1.93149 0
M  V30 23547 C 2276.5 -0.055271 -3.47256 0
M  V30 23548 C 2275.45 -0.983723 -4.16542 0
M  V30 23549 C 2274.78 -0.224055 -5.3423 0
M  V30 23550 C 2276.08 -2.30898 -4.68491 0
M  V30 23551 H 2277.77 -1.56726 -2.55103 0
M  V30 23552 H 2275.32 -0.755019 -1.22619 0
M  V30 23553 H 2277.27 0.219386 -4.20829 0
M  V30 23554 H 2276 0.868264 -3.14847 0
M  V30 23555 H 2274.66 -1.24299 -3.44885 0
M  V30 23556 H 2274.3 0.702325 -4.98073 0
M  V30 23557 H 2274 -0.842729 -5.81525 0
M  V30 23558 H 2275.53 0.0432598 -6.10585 0
M  V30 23559 H 2276.94 -2.09405 -5.33688 0
M  V30 23560 H 2275.34 -2.88185 -5.26374 0
M  V30 23561 H 2276.41 -2.94579 -3.85164 0
M  V30 23562 N 2277.75 1.33613 -0.835776 0
M  V30 23563 C 2278.98 2.02626 -0.442425 0
M  V30 23564 C 2279.4 1.62481 0.947707 0
M  V30 23565 O 2278.76 0.815854 1.61906 0
M  V30 23566 C 2278.81 3.5611 -0.567279 0
M  V30 23567 O 2277.91 4.1038 0.407726 0
M  V30 23568 H 2277.25 0.639055 -0.180289 0
M  V30 23569 H 2279.78 1.70581 -1.12975 0
M  V30 23570 H 2279.79 4.05535 -0.44778 0
M  V30 23571 H 2278.47 3.84674 -1.58109 0
M  V30 23572 H 2277.05 3.72087 0.246042 0
M  V30 23573 N 2279.23 0.591922 1.46062 0
M  V30 23574 C 2280.46 0.0850678 2.07225 0
M  V30 23575 C 2280.88 -1.21461 1.43628 0
M  V30 23576 O 2280.24 -1.73583 0.523336 0
M  V30 23577 C 2280.29 -0.0575933 3.60554 0
M  V30 23578 O 2279.39 -1.11181 3.9713 0
M  V30 23579 H 2278.73 0.0669684 0.660614 0
M  V30 23580 H 2281.26 0.817483 1.87559 0
M  V30 23581 H 2281.27 -0.260829 4.07165 0
M  V30 23582 H 2279.95 0.891488 4.06233 0
M  V30 23583 H 2278.52 -0.886292 3.62214 0
M  V30 23584 N 2280.71 -1.54102 0.330204 0
M  V30 23585 C 2281.96 -1.99867 -0.271301 0
M  V30 23586 C 2282.27 -1.22212 -1.52721 0
M  V30 23587 O 2283.48 -1.58387 -2.20513 0
M  V30 23588 C 2281.93 -3.55917 -0.53397 0
M  V30 23589 C 2281.54 -4.42414 0.705271 0
M  V30 23590 C 2283.28 -4.10132 -1.09506 0
M  V30 23591 C 2281.19 -5.89948 0.414138 0
M  V30 23592 H 2280.12 -0.746632 -0.105153 0
M  V30 23593 H 2282.77 -1.78061 0.44346 0
M  V30 23594 H 2281.15 -3.73736 -1.30909 0
M  V30 23595 H 2282.33 -4.3637 1.48047 0
M  V30 23596 H 2280.64 -3.99122 1.18705 0
M  V30 23597 H 2283.24 -5.17956 -1.32761 0
M  V30 23598 H 2283.58 -3.62525 -2.04649 0
M  V30 23599 H 2284.12 -3.95972 -0.380969 0
M  V30 23600 H 2280.86 -6.41763 1.33492 0
M  V30 23601 H 2280.38 -5.98928 -0.323231 0
M  V30 23602 H 2282.05 -6.46995 0.0264242 0
M  V30 23603 N 2282.19 -0.0585199 -1.57491 0
M  V30 23604 C 2283.6 0.298063 -1.56792 0
M  V30 23605 C 2283.8 1.70942 -1.06682 0
M  V30 23606 O 2282.86 2.41816 -0.726714 0
M  V30 23607 C 2284.17 0.119826 -3.00461 0
M  V30 23608 C 2285.72 0.190373 -3.12421 0
M  V30 23609 C 2286.19 0.0405762 -4.57982 0
M  V30 23610 N 2287.69 0.0966144 -4.63099 0
M  V30 23611 C 2288.42 0.00492864 -5.734 0
M  V30 23612 N 2287.92 -0.139524 -6.92659 0
M  V30 23613 N 2289.71 0.0610403 -5.62067 0
M  V30 23614 H 2281.86 -0.981084 -1.88384 0
M  V30 23615 H 2284.12 -0.381478 -0.867858 0
M  V30 23616 H 2283.83 -0.85355 -3.41185 0
M  V30 23617 H 2283.7 0.877769 -3.66845 0
M  V30 23618 H 2286.09 1.15423 -2.71591 0
M  V30 23619 H 2286.17 -0.598449 -2.48701 0
M  V30 23620 H 2285.82 -0.919985 -4.99498 0
M  V30 23621 H 2285.75 0.848636 -5.19717 0
M  V30 23622 H 2288.24 0.20721 -3.77331 0
M  V30 23623 H 2288.55 -0.20199 -7.72536 0
M  V30 23624 H 2286.89 -0.174708 -6.9478 0
M  V30 23625 H 2290.09 0.1725 -4.67782 0
M  V30 23626 H 2290.26 -0.0138701 -6.47999 0
M  V30 23627 N 2283.66 1.56128 0.21493 0
M  V30 23628 C 2284.91 1.80621 0.935293 0
M  V30 23629 C 2285.27 0.632539 1.81705 0
M  V30 23630 O 2284.56 -0.373149 1.87931 0
M  V30 23631 C 2284.75 3.08583 1.80308 0
M  V30 23632 C 2284.58 4.38284 1.00683 0
M  V30 23633 C 2283.35 5.0044 0.699123 0
M  V30 23634 C 2285.55 5.12975 0.368967 0
M  V30 23635 N 2283.53 6.13787 -0.117842 0
M  V30 23636 C 2284.9 6.19219 -0.311089 0
M  V30 23637 C 2286.96 4.97097 0.282671 0
M  V30 23638 C 2285.66 7.11309 -1.0692 0
M  V30 23639 C 2287.69 5.89593 -0.461985 0
M  V30 23640 C 2287.05 6.95268 -1.13056 0
M  V30 23641 H 2283.15 0.712496 0.322295 0
M  V30 23642 H 2285.73 1.93611 0.205615 0
M  V30 23643 H 2283.9 2.96864 2.50453 0
M  V30 23644 H 2285.63 3.21241 2.46142 0
M  V30 23645 H 2282.39 4.62513 1.01876 0
M  V30 23646 H 2282.81 6.75036 -0.515353 0
M  V30 23647 H 2287.46 4.15445 0.785219 0
M  V30 23648 H 2285.17 7.92439 -1.58324 0
M  V30 23649 H 2288.76 5.79382 -0.529848 0
M  V30 23650 H 2287.64 7.65606 -1.69755 0
M  V30 23651 N 2285.14 -0.481893 1.50052 0
M  V30 23652 C 2286.39 -1.23658 1.60738 0
M  V30 23653 C 2286.72 -1.9184 0.30182 0
M  V30 23654 O 2286 -1.81621 -0.695993 0
M  V30 23655 C 2286.28 -2.28869 2.78013 0
M  V30 23656 C 2286.13 -1.65062 4.18419 0
M  V30 23657 C 2287.45 -3.30274 2.90873 0
M  V30 23658 H 2284.57 -0.448218 0.585038 0
M  V30 23659 H 2287.21 -0.531914 1.82403 0
M  V30 23660 H 2285.36 -2.88969 2.59672 0
M  V30 23661 H 2287.03 -1.08642 4.48324 0
M  V30 23662 H 2285.28 -0.954074 4.23178 0
M  V30 23663 H 2285.95 -2.41465 4.96385 0
M  V30 23664 H 2288.42 -2.80186 3.07628 0
M  V30 23665 H 2287.3 -4.01231 3.74573 0
M  V30 23666 H 2287.56 -3.93751 2.01028 0
M  V30 23667 N 2286.62 -1.39448 -0.734313 0
M  V30 23668 C 2287.86 -1.38142 -1.50652 0
M  V30 23669 C 2288.22 0.0228364 -1.91986 0
M  V30 23670 O 2289.43 0.160899 -2.68318 0
M  V30 23671 C 2287.7 -2.32723 -2.71247 0
M  V30 23672 S 2289.26 -2.49611 -3.60888 0
M  V30 23673 H 2286.07 -0.489878 -0.515307 0
M  V30 23674 H 2288.68 -1.75551 -0.860361 0
M  V30 23675 H 2287.38 -3.33612 -2.39021 0
M  V30 23676 H 2286.91 -1.96532 -3.40791 0
M  V30 23677 H 2288.93 -1.73454 -4.64896 0
M  V30 23678 N 2288.1 0.964571 -1.24635 0
M  V30 23679 C 2289.32 1.74816 -1.11599 0
M  V30 23680 C 2289.75 1.85232 0.327197 0
M  V30 23681 O 2289.11 1.32552 1.23692 0
M  V30 23682 C 2289.15 3.14507 -1.76402 0
M  V30 23683 O 2288.26 3.99151 -1.03692 0
M  V30 23684 H 2287.6 0.537248 -0.390205 0
M  V30 23685 H 2290.13 1.20974 -1.65004 0
M  V30 23686 H 2290.14 3.65015 -1.82286 0
M  V30 23687 H 2288.81 3.06241 -2.81406 0
M  V30 23688 H 2287.39 3.5763 -1.05617 0
M  V30 23689 N 2289.58 1.0606 1.16572 0
M  V30 23690 C 2290.8 0.796596 1.91492 0
M  V30 23691 C 2291.23 -0.642837 1.76774 0
M  V30 23692 O 2290.58 -1.44766 1.09144 0
M  V30 23693 C 2290.63 1.19309 3.40291 0
M  V30 23694 O 2289.74 0.330466 4.11074 0
M  V30 23695 H 2289.08 0.291337 0.596673 0
M  V30 23696 H 2291.61 1.41578 1.47706 0
M  V30 23697 H 2291.62 1.16363 3.91055 0
M  V30 23698 H 2290.29 2.24159 3.50322 0
M  V30 23699 H 2288.87 0.42129 3.70513 0
M  V30 23700 N 2291.06 -1.33168 0.84285 0
M  V30 23701 C 2291.99 -2.31641 0.294069 0
M  V30 23702 C 2292.97 -1.59153 -0.600373 0
M  V30 23703 O 2294.15 -1.87022 -0.523091 0
M  V30 23704 C 2291.28 -3.43257 -0.528355 0
M  V30 23705 C 2290.24 -4.27143 0.270635 0
M  V30 23706 C 2289.56 -5.30412 -0.675788 0
M  V30 23707 C 2290.86 -5.00599 1.4899 0
M  V30 23708 H 2292.56 -2.77789 1.11686 0
M  V30 23709 H 2290.1 -1.33552 0.538502 0
M  V30 23710 H 2292.05 -4.11176 -0.922602 0
M  V30 23711 H 2290.78 -2.95808 -1.38439 0
M  V30 23712 H 2289.44 -3.60855 0.646491 0
M  V30 23713 H 2289.09 -4.79219 -1.52834 0
M  V30 23714 H 2288.79 -5.8742 -0.145271 0
M  V30 23715 H 2290.31 -6.01197 -1.06746 0
M  V30 23716 H 2291.72 -5.61264 1.16859 0
M  V30 23717 H 2290.12 -5.67276 1.95749 0
M  V30 23718 H 2291.19 -4.29143 2.25753 0
M  V30 23719 N 2292.53 -0.599659 -1.45746 0
M  V30 23720 C 2293.95 -0.262668 -1.57424 0
M  V30 23721 C 2294.15 1.2349 -1.59224 0
M  V30 23722 O 2293.21 2.01753 -1.51828 0
M  V30 23723 C 2294.52 -0.926845 -2.8606 0
M  V30 23724 C 2296.07 -0.90202 -2.99721 0
M  V30 23725 C 2296.54 -1.54606 -4.31116 0
M  V30 23726 N 2298.03 -1.51118 -4.37856 0
M  V30 23727 C 2298.77 -1.97873 -5.38177 0
M  V30 23728 N 2298.26 -2.52677 -6.45078 0
M  V30 23729 N 2300.06 -1.88688 -5.29484 0
M  V30 23730 H 2292.21 -1.57213 -1.42821 0
M  V30 23731 H 2294.47 -0.658117 -0.682338 0
M  V30 23732 H 2294.18 -1.981 -2.90602 0
M  V30 23733 H 2294.05 -0.445304 -3.74562 0
M  V30 23734 H 2296.44 0.143565 -2.94751 0
M  V30 23735 H 2296.52 -1.42175 -2.1265 0
M  V30 23736 H 2296.16 -2.59093 -4.36845 0
M  V30 23737 H 2296.09 -1.00141 -5.16991 0
M  V30 23738 H 2298.58 -1.11074 -3.61208 0
M  V30 23739 H 2298.9 -2.86167 -7.17864 0
M  V30 23740 H 2297.24 -2.56712 -6.45851 0
M  V30 23741 H 2300.43 -1.45617 -4.44874 0
M  V30 23742 H 2300.61 -2.2544 -6.0752 0
M  V30 23743 N 2294.01 1.53925 -0.338371 0
M  V30 23744 C 2294.96 2.21594 0.536673 0
M  V30 23745 C 2295.95 1.20154 1.07013 0
M  V30 23746 O 2297.14 1.45722 1.00469 0
M  V30 23747 C 2294.27 2.98837 1.68971 0
M  V30 23748 C 2293.35 4.07629 1.17045 0
M  V30 23749 N 2293.74 5.0443 0.371996 0
M  V30 23750 C 2292.04 4.21846 1.44782 0
M  V30 23751 C 2292.74 5.81629 0.0908148 0
M  V30 23752 N 2291.72 5.39317 0.681036 0
M  V30 23753 H 2295.52 2.9379 -0.0804815 0
M  V30 23754 H 2293.03 1.61752 -0.144972 0
M  V30 23755 H 2295.03 3.45812 2.32851 0
M  V30 23756 H 2293.69 2.28166 2.3102 0
M  V30 23757 H 2294.7 5.17898 0.0135307 0
M  V30 23758 H 2291.38 3.62395 2.07307 0
M  V30 23759 H 2292.77 6.69621 -0.552935 0
M  V30 23760 N 2295.49 0.0668712 1.57458 0
M  V30 23761 C 2296.45 -0.887385 2.11325 0
M  V30 23762 C 2297.45 -1.22962 1.0362 0
M  V30 23763 O 2298.64 -1.16371 1.29628 0
M  V30 23764 C 2295.77 -2.19237 2.61051 0
M  V30 23765 H 2296.97 -0.420142 2.96942 0
M  V30 23766 H 2294.52 -0.181765 1.5524 0
M  V30 23767 H 2295.26 -2.70509 1.78873 0
M  V30 23768 H 2295.04 -1.95696 3.39773 0
M  V30 23769 H 2296.53 -2.87559 3.02819 0
M  V30 23770 N 2296.97 -1.56239 -0.206647 0
M  V30 23771 C 2297.9 -1.90132 -1.27994 0
M  V30 23772 C 2298.91 -0.790908 -1.42297 0
M  V30 23773 O 2300.1 -1.06928 -1.42929 0
M  V30 23774 C 2297.2 -2.10796 -2.65364 0
M  V30 23775 C 2296.37 -3.41891 -2.72818 0
M  V30 23776 C 2295.43 -3.51806 -3.91304 0
M  V30 23777 O 2294.46 -4.24722 -3.78946 0
M  V30 23778 N 2295.66 -2.84043 -5.0626 0
M  V30 23779 H 2298.43 -2.82793 -0.992394 0
M  V30 23780 H 2295.99 -1.56967 -0.396624 0
M  V30 23781 H 2297.98 -2.1473 -3.43035 0
M  V30 23782 H 2296.55 -1.2469 -2.86655 0
M  V30 23783 H 2295.77 -3.49926 -1.81509 0
M  V30 23784 H 2297.06 -4.28222 -2.74779 0
M  V30 23785 H 2296.46 -2.24609 -5.19199 0
M  V30 23786 H 2295.01 -2.93619 -5.8192 0
M  V30 23787 N 2298.45 0.473929 -1.50305 0
M  V30 23788 C 2299.86 1.05487 -1.54043 0
M  V30 23789 C 2300.21 1.93191 -0.342282 0
M  V30 23790 O 2299.33 2.09422 0.54512 0
M  V30 23791 C 2299.93 1.91984 -2.79155 0
M  V30 23792 C 2298.49 2.45191 -2.85584 0
M  V30 23793 C 2297.63 1.23465 -2.48297 0
M  V30 23794 H 2300.58 0.256666 -1.56611 0
M  V30 23795 H 2300.61 2.77015 -2.6085 0
M  V30 23796 H 2300.12 1.28124 -3.66341 0
M  V30 23797 H 2298.22 3.12612 -2.02743 0
M  V30 23798 H 2298.33 2.80492 -3.88408 0
M  V30 23799 H 2296.7 1.56853 -2.00672 0
M  V30 23800 H 2297.48 0.612729 -3.37788 0
M  V30 23801 N 2299.92 1.39835 0.726907 0
M  V30 23802 C 2301.15 1.4079 1.51611 0
M  V30 23803 C 2301.57 0.00454824 1.88799 0
M  V30 23804 O 2300.92 -0.968782 1.54664 0
M  V30 23805 C 2300.97 2.28826 2.79859 0
M  V30 23806 O 2300.7 3.63697 2.44247 0
M  V30 23807 C 2302.2 2.38251 3.73833 0
M  V30 23808 H 2299.42 0.480602 0.468255 0
M  V30 23809 H 2301.96 1.83749 0.897575 0
M  V30 23810 H 2300.12 1.89258 3.38024 0
M  V30 23811 H 2300.53 4.10336 3.26688 0
M  V30 23812 H 2302 3.04081 4.60693 0
M  V30 23813 H 2302.48 1.40411 4.16151 0
M  V30 23814 H 2303.09 2.78323 3.21584 0
M  V30 23815 N 2301.4 -0.957948 1.25144 0
M  V30 23816 C 2302.64 -1.71701 1.10896 0
M  V30 23817 C 2303.01 -1.8888 -0.344747 0
M  V30 23818 O 2304.21 -2.61811 -0.608968 0
M  V30 23819 C 2302.48 -3.0646 1.83895 0
M  V30 23820 S 2304.04 -3.97663 1.85498 0
M  V30 23821 H 2300.85 -0.590219 0.396438 0
M  V30 23822 H 2303.46 -1.1428 1.5862 0
M  V30 23823 H 2302.16 -2.91625 2.88762 0
M  V30 23824 H 2301.69 -3.68943 1.36545 0
M  V30 23825 H 2303.71 -4.87414 0.929639 0
M  V30 23826 N 2302.88 -1.06677 -1.16008 0
M  V30 23827 C 2304.29 -0.809595 -1.68233 0
M  V30 23828 C 2304.64 0.666271 -1.84541 0
M  V30 23829 O 2303.77 1.51647 -1.54377 0
M  V30 23830 C 2304.36 -1.46304 -3.05582 0
M  V30 23831 C 2302.92 -1.25355 -3.54913 0
M  V30 23832 C 2302.07 -1.53707 -2.30801 0
M  V30 23833 H 2305.02 -1.22973 -1.00316 0
M  V30 23834 H 2305.04 -0.880496 -3.70172 0
M  V30 23835 H 2304.55 -2.53718 -2.93681 0
M  V30 23836 H 2302.65 -0.199327 -3.72066 0
M  V30 23837 H 2302.77 -1.96897 -4.3677 0
M  V30 23838 H 2301.13 -0.95778 -2.36006 0
M  V30 23839 H 2301.91 -2.62288 -2.21494 0
M  V30 23840 N 2304.36 1.32719 -0.8499 0
M  V30 23841 C 2305.61 1.97025 -0.450067 0
M  V30 23842 C 2305.93 1.67611 0.996574 0
M  V30 23843 O 2305.2 0.980815 1.69578 0
M  V30 23844 H 2303.78 0.728901 -0.163439 0
M  V30 23845 H 2306.44 1.61888 -1.08528 0
M  V30 23846 H 2305.53 3.06449 -0.5912 0
M  V30 23847 N 2305.84 0.60738 1.45426 0
M  V30 23848 C 2306.8 -0.101653 2.28974 0
M  V30 23849 C 2307.8 -0.795304 1.39755 0
M  V30 23850 O 2308.99 -0.643499 1.61879 0
M  V30 23851 C 2306.12 -1.15409 3.2077 0
M  V30 23852 H 2307.31 0.632896 2.93146 0
M  V30 23853 H 2304.87 0.366417 1.51944 0
M  V30 23854 H 2305.6 -1.91941 2.61399 0
M  V30 23855 H 2305.39 -0.660912 3.8649 0
M  V30 23856 H 2306.88 -1.65066 3.83592 0
M  V30 23857 N 2307.31 -1.53743 0.34653 0
M  V30 23858 C 2308.25 -2.22668 -0.543277 0
M  V30 23859 C 2309.26 -1.23428 -1.06157 0
M  V30 23860 O 2310.45 -1.49766 -0.971208 0
M  V30 23861 C 2307.55 -2.89572 -1.76071 0
M  V30 23862 C 2306.72 -4.15153 -1.3772 0
M  V30 23863 C 2305.78 -4.6544 -2.45463 0
M  V30 23864 O 2304.81 -5.2958 -2.08646 0
M  V30 23865 N 2306.01 -4.41623 -3.76762 0
M  V30 23866 H 2308.77 -2.99663 0.047023 0
M  V30 23867 H 2306.33 -1.60997 0.170795 0
M  V30 23868 H 2308.33 -3.20129 -2.47588 0
M  V30 23869 H 2306.9 -2.16146 -2.25831 0
M  V30 23870 H 2306.12 -3.91109 -0.492678 0
M  V30 23871 H 2307.4 -4.96834 -1.09699 0
M  V30 23872 H 2306.8 -3.90332 -4.0946 0
M  V30 23873 H 2305.36 -4.76777 -4.4444 0
M  V30 23874 N 2308.79 -0.0752207 -1.5742 0
M  V30 23875 C 2309.72 0.888286 -2.15944 0
M  V30 23876 C 2310.7 1.30804 -1.08739 0
M  V30 23877 O 2311.89 1.37848 -1.3679 0
M  V30 23878 C 2309.02 2.15465 -2.72382 0
M  V30 23879 C 2307.97 1.87418 -3.84784 0
M  V30 23880 C 2307.3 3.20714 -4.2784 0
M  V30 23881 C 2308.6 1.17675 -5.08871 0
M  V30 23882 H 2310.29 0.400747 -2.96706 0
M  V30 23883 H 2307.84 0.191317 -1.42723 0
M  V30 23884 H 2309.79 2.83289 -3.1197 0
M  V30 23885 H 2308.52 2.66467 -1.88846 0
M  V30 23886 H 2307.17 1.21998 -3.45705 0
M  V30 23887 H 2306.82 3.69564 -3.41221 0
M  V30 23888 H 2306.52 3.02738 -5.03611 0
M  V30 23889 H 2308.05 3.8973 -4.70046 0
M  V30 23890 H 2309.46 1.75574 -5.45753 0
M  V30 23891 H 2307.86 1.09946 -5.89942 0
M  V30 23892 H 2308.93 0.156368 -4.84648 0
M  V30 23893 N 2310.27 1.56347 0.198358 0
M  V30 23894 C 2311.51 1.82218 0.926058 0
M  V30 23895 C 2311.87 0.652227 1.80582 0
M  V30 23896 O 2313.08 0.790761 2.56905 0
M  V30 23897 C 2311.35 3.13099 1.72348 0
M  V30 23898 S 2312.91 3.60365 2.50365 0
M  V30 23899 H 2309.72 0.639537 0.310666 0
M  V30 23900 H 2312.33 1.94577 0.18972 0
M  V30 23901 H 2311.03 3.96267 1.06773 0
M  V30 23902 H 2310.56 3.03609 2.5017 0
M  V30 23903 H 2312.58 3.25542 3.74482 0
M  V30 23904 N 2311.75 -0.465951 1.50554 0
M  V30 23905 C 2312.98 -1.2408 1.65565 0
M  V30 23906 C 2313.39 -1.85693 0.341083 0
M  V30 23907 O 2312.75 -1.69458 -0.677513 0
M  V30 23908 C 2312.8 -2.34578 2.75055 0
M  V30 23909 O 2312.52 -1.7549 4.01416 0
M  V30 23910 C 2314.02 -3.25366 3.01084 0
M  V30 23911 H 2311.24 -0.375067 0.556386 0
M  V30 23912 H 2313.79 -0.55559 1.96808 0
M  V30 23913 H 2311.94 -2.98866 2.46492 0
M  V30 23914 H 2312.35 -2.48295 4.62006 0
M  V30 23915 H 2313.83 -3.99098 3.81346 0
M  V30 23916 H 2314.31 -3.8445 2.12356 0
M  V30 23917 H 2314.91 -2.6681 3.31198 0
M  V30 23918 N 2313.23 -1.40218 -0.719481 0
M  V30 23919 C 2314.47 -1.3849 -1.4815 0
M  V30 23920 C 2314.81 0.0141526 -1.94195 0
M  V30 23921 O 2314.08 0.982067 -1.67886 0
M  V30 23922 C 2314.36 -2.37096 -2.71031 0
M  V30 23923 C 2314.22 -3.86009 -2.30905 0
M  V30 23924 C 2315.54 -2.33295 -3.73178 0
M  V30 23925 H 2312.65 -0.504366 -0.537386 0
M  V30 23926 H 2315.3 -1.71325 -0.821442 0
M  V30 23927 H 2313.45 -2.09226 -3.27348 0
M  V30 23928 H 2315.12 -4.2469 -1.80099 0
M  V30 23929 H 2313.36 -4.02031 -1.62951 0
M  V30 23930 H 2314.03 -4.50513 -3.1897 0
M  V30 23931 H 2316.51 -2.57972 -3.26481 0
M  V30 23932 H 2315.38 -3.04342 -4.56801 0
M  V30 23933 H 2315.65 -1.34324 -4.212 0
M  V30 23934 N 2314.7 0.951297 -1.25651 0
M  V30 23935 C 2315.93 1.72839 -1.13182 0
M  V30 23936 C 2316.34 1.86529 0.316795 0
M  V30 23937 O 2315.69 1.36492 1.22946 0
M  V30 23938 C 2315.75 3.15875 -1.71649 0
M  V30 23939 C 2315.41 3.25604 -3.20673 0
M  V30 23940 C 2316.41 3.09659 -4.17621 0
M  V30 23941 C 2314.09 3.49318 -3.60946 0
M  V30 23942 C 2316.09 3.1728 -5.52822 0
M  V30 23943 C 2313.77 3.56575 -4.96284 0
M  V30 23944 C 2314.77 3.4057 -5.92031 0
M  V30 23945 O 2314.46 3.47516 -7.24906 0
M  V30 23946 H 2314.19 0.548303 -0.395399 0
M  V30 23947 H 2316.75 1.20184 -1.66568 0
M  V30 23948 H 2314.98 3.69909 -1.12713 0
M  V30 23949 H 2316.67 3.75456 -1.54232 0
M  V30 23950 H 2317.43 2.91204 -3.87847 0
M  V30 23951 H 2313.31 3.60835 -2.86913 0
M  V30 23952 H 2316.85 3.04705 -6.27535 0
M  V30 23953 H 2312.75 3.74547 -5.25723 0
M  V30 23954 H 2313.52 3.64125 -7.33045 0
M  V30 23955 N 2316.18 1.07291 1.1544 0
M  V30 23956 C 2317.41 0.815609 1.89819 0
M  V30 23957 C 2317.82 -0.634836 1.78232 0
M  V30 23958 O 2317.16 -1.44713 1.13154 0
M  V30 23959 C 2317.23 1.14391 3.40815 0
M  V30 23960 C 2316.89 2.59482 3.76189 0
M  V30 23961 C 2317.89 3.57727 3.77263 0
M  V30 23962 C 2315.57 2.95044 4.06515 0
M  V30 23963 C 2317.57 4.89569 4.08168 0
M  V30 23964 C 2315.25 4.27083 4.37085 0
M  V30 23965 C 2316.25 5.24156 4.37893 0
M  V30 23966 O 2315.94 6.53823 4.67729 0
M  V30 23967 H 2315.67 0.294539 0.608459 0
M  V30 23968 H 2318.22 1.43255 1.47198 0
M  V30 23969 H 2316.45 0.469933 3.83834 0
M  V30 23970 H 2318.14 0.869248 3.96483 0
M  V30 23971 H 2318.91 3.31596 3.53934 0
M  V30 23972 H 2314.79 2.20135 4.05045 0
M  V30 23973 H 2318.33 5.65331 4.08713 0
M  V30 23974 H 2314.23 4.52968 4.59881 0
M  V30 23975 H 2315 6.58965 4.85497 0
M  V30 23976 N 2317.66 -1.32267 0.856927 0
M  V30 23977 C 2318.62 -2.27118 0.308211 0
M  V30 23978 C 2319.62 -1.51696 -0.533394 0
M  V30 23979 O 2320.81 -1.70758 -0.344577 0
M  V30 23980 C 2317.95 -3.36207 -0.563698 0
M  V30 23981 H 2319.14 -2.77165 1.1454 0
M  V30 23982 H 2316.69 -1.42977 0.631446 0
M  V30 23983 H 2317.43 -2.91432 -1.42261 0
M  V30 23984 H 2317.21 -3.92081 0.0387439 0
M  V30 23985 H 2318.7 -4.06876 -0.940315 0
M  V30 23986 N 2319.14 -0.615084 -1.45102 0
M  V30 23987 C 2320.36 -0.118025 -2.07064 0
M  V30 23988 C 2320.79 1.1916 -1.45542 0
M  V30 23989 O 2320.15 1.72728 -0.550885 0
M  V30 23990 C 2320.19 0.000225002 -3.606 0
M  V30 23991 O 2319.3 1.04849 -3.98849 0
M  V30 23992 H 2318.64 -0.0774697 -0.659465 0
M  V30 23993 H 2321.17 -0.847218 -1.86235 0
M  V30 23994 H 2321.18 0.196019 -4.07529 0
M  V30 23995 H 2319.85 -0.956003 -4.04763 0
M  V30 23996 H 2318.43 0.828555 -3.63579 0
M  V30 23997 N 2320.62 1.53557 -0.354678 0
M  V30 23998 C 2321.55 2.28321 0.489051 0
M  V30 23999 C 2322.53 1.30318 1.09322 0
M  V30 24000 O 2323.71 1.59175 1.11252 0
M  V30 24001 C 2320.84 3.06433 1.6345 0
M  V30 24002 C 2319.8 4.12033 1.15813 0
M  V30 24003 C 2319.12 4.78164 2.39297 0
M  V30 24004 C 2320.42 5.21698 0.250639 0
M  V30 24005 H 2322.12 2.99097 -0.134666 0
M  V30 24006 H 2319.66 1.43848 -0.0662079 0
M  V30 24007 H 2321.62 3.57479 2.2313 0
M  V30 24008 H 2320.34 2.33329 2.28529 0
M  V30 24009 H 2319 3.61917 0.584083 0
M  V30 24010 H 2318.65 4.01643 3.02807 0
M  V30 24011 H 2318.35 5.49517 2.08099 0
M  V30 24012 H 2319.87 5.31999 2.99682 0
M  V30 24013 H 2321.29 5.68312 0.754595 0
M  V30 24014 H 2319.68 6.00092 0.0300413 0
M  V30 24015 H 2320.75 4.79671 -0.710209 0
M  V30 24016 N 2322.1 0.083568 1.57378 0
M  V30 24017 C 2323.04 -0.897102 2.14604 0
M  V30 24018 C 2324.04 -1.30016 1.08591 0
M  V30 24019 O 2325.24 -1.27604 1.26954 0
M  V30 24020 H 2321.62 -0.307288 0.686351 0
M  V30 24021 H 2323.59 -0.389638 2.95845 0
M  V30 24022 C 2322.34 -2.15085 2.73192 0
M  V30 24023 H 2321.66 -1.84956 3.54445 0
M  V30 24024 H 2323.1 -2.81788 3.16815 0
M  V30 24025 C 2321.56 -2.91722 1.68522 0
M  V30 24026 O 2322.09 -3.8585 1.11725 0
M  V30 24027 N 2320.3 -2.55047 1.39282 0
M  V30 24028 H 2319.84 -1.78574 1.85659 0
M  V30 24029 H 2319.8 -3.06626 0.694845 0
M  V30 24030 N 2323.57 -1.5645 -0.190064 0
M  V30 24031 C 2324.82 -1.80918 -0.909673 0
M  V30 24032 C 2325.15 -0.657615 -1.83046 0
M  V30 24033 O 2324.4 0.356322 -1.92429 0
M  V30 24034 C 2324.7 -3.11413 -1.75376 0
M  V30 24035 C 2324.37 -4.40043 -0.983528 0
M  V30 24036 C 2323.03 -4.74985 -0.770883 0
M  V30 24037 C 2325.38 -5.19323 -0.441933 0
M  V30 24038 C 2322.71 -5.867 -0.00524167 0
M  V30 24039 C 2325.06 -6.31837 0.310523 0
M  V30 24040 C 2323.73 -6.65359 0.53414 0
M  V30 24041 H 2323 -0.662025 -0.332873 0
M  V30 24042 H 2325.64 -1.90692 -0.175728 0
M  V30 24043 H 2323.95 -2.96898 -2.55654 0
M  V30 24044 H 2325.65 -3.27551 -2.31325 0
M  V30 24045 H 2322.24 -4.12624 -1.15928 0
M  V30 24046 H 2326.42 -4.92737 -0.593607 0
M  V30 24047 H 2321.68 -6.11141 0.177933 0
M  V30 24048 H 2325.85 -6.92483 0.73754 0
M  V30 24049 H 2323.48 -7.51765 1.12931 0
M  V30 24050 N 2325.05 0.45796 -1.50799 0
M  V30 24051 C 2326.47 0.792795 -1.38517 0
M  V30 24052 C 2326.67 1.96378 -0.451443 0
M  V30 24053 O 2325.72 2.52298 0.101076 0
M  V30 24054 C 2327.04 1.09253 -2.80151 0
M  V30 24055 C 2328.58 1.1982 -2.89158 0
M  V30 24056 C 2329.06 1.53098 -4.31654 0
M  V30 24057 N 2330.55 1.60064 -4.34665 0
M  V30 24058 C 2331.29 1.87345 -5.41931 0
M  V30 24059 N 2330.78 2.12556 -6.59387 0
M  V30 24060 N 2332.57 1.88956 -5.29388 0
M  V30 24061 H 2324.73 -0.313548 -2.10073 0
M  V30 24062 H 2326.99 -0.0778028 -0.944802 0
M  V30 24063 H 2326.69 0.305022 -3.50375 0
M  V30 24064 H 2326.57 2.02544 -3.18207 0
M  V30 24065 H 2328.96 1.97636 -2.19144 0
M  V30 24066 H 2329.04 0.244776 -2.54626 0
M  V30 24067 H 2328.68 0.758178 -5.02209 0
M  V30 24068 H 2328.61 2.49613 -4.63682 0
M  V30 24069 H 2331.1 1.42567 -3.49976 0
M  V30 24070 H 2331.41 2.32684 -7.36938 0
M  V30 24071 H 2329.76 2.09921 -6.62539 0
M  V30 24072 H 2332.95 1.68765 -4.36619 0
M  V30 24073 H 2333.12 2.0988 -6.1307 0
M  V30 24074 N 2326.53 1.40598 0.712035 0
M  V30 24075 C 2327.81 1.29565 1.46534 0
M  V30 24076 C 2328.19 -0.0843847 2.10931 0
M  V30 24077 O 2327.53 -1.09746 2.0042 0
M  V30 24078 C 2327.74 2.43706 2.49817 0
M  V30 24079 C 2329.09 2.84106 3.15546 0
M  V30 24080 O 2330.12 2.43325 2.60138 0
M  V30 24081 O 2328.98 3.54573 4.15861 0
M  V30 24082 H 2326.07 0.509015 0.651792 0
M  V30 24083 H 2328.62 1.52526 0.743908 0
M  V30 24084 H 2327.39 3.35866 2.00772 0
M  V30 24085 H 2327.01 2.22534 3.29491 0
M  V30 24086 N 2328.01 -0.94462 1.26153 0
M  V30 24087 C 2329.26 -1.68485 1.10886 0
M  V30 24088 C 2329.57 -1.92477 -0.348119 0
M  V30 24089 O 2330.78 -2.64293 -0.621412 0
M  V30 24090 C 2329.23 -3.03374 1.93629 0
M  V30 24091 C 2328.84 -2.87142 3.4388 0
M  V30 24092 C 2330.58 -3.81112 1.8696 0
M  V30 24093 C 2328.49 -4.17482 4.18882 0
M  V30 24094 H 2327.42 -0.6319 0.411362 0
M  V30 24095 H 2330.07 -1.0508 1.50434 0
M  V30 24096 H 2328.45 -3.67741 1.46911 0
M  V30 24097 H 2329.63 -2.31646 3.98342 0
M  V30 24098 H 2327.94 -2.2285 3.51748 0
M  V30 24099 H 2330.54 -4.77669 2.40284 0
M  V30 24100 H 2330.88 -4.07746 0.83959 0
M  V30 24101 H 2331.42 -3.23513 2.31483 0
M  V30 24102 H 2328.15 -3.96034 5.22339 0
M  V30 24103 H 2327.67 -4.72705 3.69201 0
M  V30 24104 H 2329.35 -4.85961 4.27143 0
M  V30 24105 N 2329.49 -1.07901 -1.1487 0
M  V30 24106 C 2330.42 -0.648449 -2.18793 0
M  V30 24107 C 2331.4 0.337161 -1.59066 0
M  V30 24108 O 2332.58 0.242251 -1.86937 0
M  V30 24109 C 2329.71 0.0469822 -3.38667 0
M  V30 24110 C 2328.75 -0.897957 -4.1694 0
M  V30 24111 S 2329.59 -2.40192 -4.78611 0
M  V30 24112 C 2330.74 -1.71845 -6.01847 0
M  V30 24113 H 2330.98 -1.52885 -2.54977 0
M  V30 24114 H 2328.51 -0.893506 -1.2592 0
M  V30 24115 H 2330.47 0.441955 -4.08114 0
M  V30 24116 H 2329.13 0.903808 -3.00816 0
M  V30 24117 H 2328.32 -0.358184 -5.02726 0
M  V30 24118 H 2327.92 -1.23358 -3.53071 0
M  V30 24119 H 2330.21 -1.03339 -6.69572 0
M  V30 24120 H 2331.16 -2.55484 -6.60404 0
M  V30 24121 H 2331.57 -1.19402 -5.51728 0
M  V30 24122 N 2330.96 1.31811 -0.863929 0
M  V30 24123 C 2331.89 2.31144 -0.330883 0
M  V30 24124 C 2332.87 1.60088 0.574977 0
M  V30 24125 O 2334.06 1.87831 0.493271 0
M  V30 24126 C 2331.19 3.44055 0.473679 0
M  V30 24127 C 2330.14 4.26659 -0.338556 0
M  V30 24128 C 2329.47 5.3142 0.591318 0
M  V30 24129 C 2330.77 4.98165 -1.56935 0
M  V30 24130 H 2332.46 2.75977 -1.16091 0
M  V30 24131 H 2330.01 1.32678 -0.559681 0
M  V30 24132 H 2331.96 4.12592 0.857071 0
M  V30 24133 H 2330.69 2.97973 1.33716 0
M  V30 24134 H 2329.35 3.5978 -0.703818 0
M  V30 24135 H 2328.99 4.8159 1.4519 0
M  V30 24136 H 2328.69 5.87577 0.0517989 0
M  V30 24137 H 2330.22 6.02819 0.971685 0
M  V30 24138 H 2331.63 5.59333 -1.25774 0
M  V30 24139 H 2330.03 5.6409 -2.04749 0
M  V30 24140 H 2331.1 4.25497 -2.32552 0
M  V30 24141 N 2332.44 0.62277 1.44773 0
M  V30 24142 C 2333.4 -0.0773612 2.29069 0
M  V30 24143 C 2334.4 -0.780437 1.40591 0
M  V30 24144 O 2335.59 -0.626293 1.62552 0
M  V30 24145 C 2332.73 -1.12 3.21976 0
M  V30 24146 H 2333.92 0.663952 2.92458 0
M  V30 24147 H 2331.47 0.382512 1.51547 0
M  V30 24148 H 2332.21 -1.89157 2.6342 0
M  V30 24149 H 2331.99 -0.619883 3.87169 0
M  V30 24150 H 2333.48 -1.60988 3.85321 0
M  V30 24151 N 2333.92 -1.53367 0.362817 0
M  V30 24152 C 2335.15 -2.05634 -0.228577 0
M  V30 24153 C 2335.56 -1.23651 -1.42674 0
M  V30 24154 O 2334.92 -0.276502 -1.80393 0
M  V30 24155 C 2334.97 -3.5606 -0.624783 0
M  V30 24156 O 2334.69 -4.34934 0.525752 0
M  V30 24157 C 2336.19 -4.24573 -1.27486 0
M  V30 24158 H 2333.41 -0.669764 -0.0407066 0
M  V30 24159 H 2335.96 -1.97768 0.520386 0
M  V30 24160 H 2334.11 -3.64085 -1.32366 0
M  V30 24161 H 2334.53 -5.24095 0.206061 0
M  V30 24162 H 2336 -5.31153 -1.50267 0
M  V30 24163 H 2336.48 -3.7812 -2.23432 0
M  V30 24164 H 2337.08 -4.20794 -0.617484 0
M  V30 24165 N 2335.4 -0.091913 -1.57332 0
M  V30 24166 C 2336.65 0.571412 -1.93854 0
M  V30 24167 C 2336.97 1.68919 -0.974242 0
M  V30 24168 O 2336.24 1.95883 -0.0257598 0
M  V30 24169 H 2334.82 0.214069 -0.71567 0
M  V30 24170 H 2337.48 -0.154498 -1.94287 0
M  V30 24171 H 2336.58 0.983677 -2.96193 0
M  V30 24172 N 2336.88 1.56548 0.181765 0
M  V30 24173 C 2337.82 1.95597 1.22518 0
M  V30 24174 C 2338.79 0.818398 1.44539 0
M  V30 24175 O 2339.98 1.07766 1.57452 0
M  V30 24176 C 2337.12 2.31216 2.56189 0
M  V30 24177 C 2336.23 3.58101 2.41635 0
M  V30 24178 C 2335.37 3.82981 3.68102 0
M  V30 24179 C 2334.41 5.03248 3.48436 0
M  V30 24180 N 2333.54 5.24314 4.66947 0
M  V30 24181 H 2338.38 2.8455 0.885176 0
M  V30 24182 H 2335.92 1.40806 0.425694 0
M  V30 24183 H 2337.88 2.49888 3.34084 0
M  V30 24184 H 2336.51 1.45387 2.88206 0
M  V30 24185 H 2335.56 3.47403 1.5497 0
M  V30 24186 H 2336.87 4.46153 2.23045 0
M  V30 24187 H 2336.03 4.01964 4.54434 0
M  V30 24188 H 2334.76 2.93285 3.8966 0
M  V30 24189 H 2333.77 4.84175 2.6049 0
M  V30 24190 H 2334.99 5.94466 3.2831 0
M  V30 24191 H 2332.94 4.37567 4.88744 0
M  V30 24192 H 2332.86 6.06569 4.51231 0
M  V30 24193 H 2334.13 5.47766 5.54592 0
M  V30 24194 N 2338.35 -0.449957 1.5104 0
M  V30 24195 C 2339.28 -1.55284 1.74382 0
M  V30 24196 C 2340.27 -1.59419 0.593264 0
M  V30 24197 O 2341.45 -1.75349 0.834656 0
M  V30 24198 C 2338.58 -2.93463 1.85734 0
M  V30 24199 C 2337.53 -3.04192 3.01083 0
M  V30 24200 C 2336.86 -4.44226 2.97603 0
M  V30 24201 C 2338.16 -2.79442 4.41259 0
M  V30 24202 H 2339.85 -1.36003 2.66727 0
M  V30 24203 H 2337.4 -0.652842 1.28351 0
M  V30 24204 H 2339.35 -3.70566 2.00646 0
M  V30 24205 H 2338.08 -3.13947 0.900262 0
M  V30 24206 H 2336.74 -2.29526 2.85855 0
M  V30 24207 H 2336.38 -4.61659 1.99699 0
M  V30 24208 H 2336.08 -4.52337 3.75054 0
M  V30 24209 H 2337.61 -5.2332 3.14592 0
M  V30 24210 H 2339.02 -3.46284 4.56903 0
M  V30 24211 H 2337.42 -2.98976 5.2032 0
M  V30 24212 H 2338.49 -1.75137 4.52167 0
M  V30 24213 N 2339.83 -1.40974 -0.704569 0
M  V30 24214 C 2341.06 -1.4338 -1.49856 0
M  V30 24215 C 2341.48 -0.0382171 -1.88061 0
M  V30 24216 O 2340.84 0.956398 -1.54022 0
M  V30 24217 C 2340.89 -2.34043 -2.74329 0
M  V30 24218 O 2339.99 -1.79127 -3.71466 0
M  V30 24219 H 2339.33 -0.486982 -0.451381 0
M  V30 24220 H 2341.86 -1.85331 -0.8668 0
M  V30 24221 H 2341.87 -2.49609 -3.22737 0
M  V30 24222 H 2340.55 -3.35451 -2.45857 0
M  V30 24223 H 2339.13 -1.72964 -3.3036 0
M  V30 24224 N 2341.31 0.937917 -1.26653 0
M  V30 24225 C 2342.72 1.49932 -1.11253 0
M  V30 24226 C 2343.07 1.93798 0.306043 0
M  V30 24227 O 2342.2 1.80221 1.19789 0
M  V30 24228 C 2342.79 2.72482 -2.01343 0
M  V30 24229 C 2341.35 3.24879 -1.9008 0
M  V30 24230 C 2340.5 1.97648 -1.94501 0
M  V30 24231 H 2343.45 0.753067 -1.39695 0
M  V30 24232 H 2343.47 3.46905 -1.56325 0
M  V30 24233 H 2342.98 2.40524 -3.04581 0
M  V30 24234 H 2341.08 3.6162 -0.89789 0
M  V30 24235 H 2341.2 3.91765 -2.75785 0
M  V30 24236 H 2339.56 2.1369 -1.38595 0
M  V30 24237 H 2340.34 1.68017 -2.99375 0
M  V30 24238 N 2342.79 1.08509 1.14296 0
M  V30 24239 C 2344.07 0.72812 1.81543 0
M  V30 24240 C 2344.45 -0.788046 1.95839 0
M  V30 24241 O 2343.79 -1.70694 1.51907 0
M  V30 24242 C 2344 1.45625 3.17166 0
M  V30 24243 C 2345.35 1.61597 3.92647 0
M  V30 24244 O 2346.38 1.41799 3.26759 0
M  V30 24245 O 2345.23 1.94272 5.10804 0
M  V30 24246 H 2342.33 0.260485 0.784905 0
M  V30 24247 H 2344.87 1.18673 1.21305 0
M  V30 24248 H 2343.65 2.48905 3.0193 0
M  V30 24249 H 2343.27 0.989192 3.85098 0
M  V30 24250 N 2344.27 -1.31351 0.870907 0
M  V30 24251 C 2345.23 -2.26779 0.332283 0
M  V30 24252 C 2346.23 -1.52253 -0.517275 0
M  V30 24253 O 2347.42 -1.71114 -0.326447 0
M  V30 24254 C 2344.55 -3.36786 -0.528007 0
M  V30 24255 H 2345.74 -2.75935 1.17473 0
M  V30 24256 H 2343.3 -1.42299 0.646575 0
M  V30 24257 H 2344.03 -2.92924 -1.39162 0
M  V30 24258 H 2343.82 -3.92018 0.0803271 0
M  V30 24259 H 2345.31 -4.0785 -0.897107 0
M  V30 24260 N 2345.74 -0.630439 -1.44441 0
M  V30 24261 C 2346.99 -0.132108 -2.01267 0
M  V30 24262 C 2347.31 1.25328 -1.50174 0
M  V30 24263 O 2348.51 1.84559 -1.99124 0
M  V30 24264 C 2346.97 -0.185425 -3.59422 0
M  V30 24265 C 2346.58 -1.57208 -4.19511 0
M  V30 24266 C 2348.32 0.256479 -4.23724 0
M  V30 24267 C 2346.23 -1.58055 -5.69888 0
M  V30 24268 H 2345.16 -0.0456224 -0.752618 0
M  V30 24269 H 2347.81 -0.789135 -1.65665 0
M  V30 24270 H 2346.19 0.53869 -3.92319 0
M  V30 24271 H 2347.36 -2.31973 -3.98152 0
M  V30 24272 H 2345.68 -1.95801 -3.67493 0
M  V30 24273 H 2348.28 0.269673 -5.3402 0
M  V30 24274 H 2348.62 1.28365 -3.96015 0
M  V30 24275 H 2349.15 -0.415119 -3.95628 0
M  V30 24276 H 2345.89 -2.58607 -6.02331 0
M  V30 24277 H 2345.41 -0.875829 -5.93371 0
M  V30 24278 H 2347.09 -1.31419 -6.33512 0
M  V30 24279 N 2347.22 1.53172 -0.370945 0
M  V30 24280 C 2348.63 1.86393 0.107106 0
M  V30 24281 C 2348.98 1.29135 1.47712 0
M  V30 24282 O 2348.11 0.615475 2.07463 0
M  V30 24283 C 2348.7 3.38202 0.201127 0
M  V30 24284 C 2347.26 3.71201 0.623441 0
M  V30 24285 C 2346.41 2.76377 -0.226027 0
M  V30 24286 H 2349.36 1.47344 -0.589536 0
M  V30 24287 H 2349.38 3.6647 1.02371 0
M  V30 24288 H 2348.89 3.79847 -0.796124 0
M  V30 24289 H 2347 3.35117 1.62873 0
M  V30 24290 H 2347.11 4.77474 0.39433 0
M  V30 24291 H 2345.47 2.52856 0.305917 0
M  V30 24292 H 2346.26 3.20856 -1.22092 0
M  V30 24293 N 2348.7 0.100255 1.57281 0
M  V30 24294 C 2349.95 -0.561123 1.94154 0
M  V30 24295 C 2350.27 -1.684 0.983186 0
M  V30 24296 O 2349.54 -1.95867 0.0361476 0
M  V30 24297 H 2348.12 -0.210271 0.716795 0
M  V30 24298 H 2350.78 0.164799 1.94202 0
M  V30 24299 H 2349.88 -0.967956 2.9671 0
M  V30 24300 N 2350.18 -1.56643 -0.17346 0
M  V30 24301 C 2351.13 -1.96244 -1.21479 0
M  V30 24302 C 2352.1 -0.826052 -1.44103 0
M  V30 24303 O 2353.28 -1.086 -1.56878 0
M  V30 24304 C 2350.42 -2.32572 -2.5496 0
M  V30 24305 C 2349.53 -3.59378 -2.39733 0
M  V30 24306 C 2348.67 -3.84928 -3.66066 0
M  V30 24307 C 2347.71 -5.05089 -3.45763 0
M  V30 24308 N 2346.85 -5.26783 -4.6416 0
M  V30 24309 H 2351.69 -2.85015 -0.870073 0
M  V30 24310 H 2349.22 -1.4103 -0.41822 0
M  V30 24311 H 2351.18 -2.51656 -3.32754 0
M  V30 24312 H 2349.81 -1.46913 -2.8743 0
M  V30 24313 H 2348.86 -3.4822 -1.53125 0
M  V30 24314 H 2350.17 -4.4733 -2.20675 0
M  V30 24315 H 2349.33 -4.04368 -4.52296 0
M  V30 24316 H 2348.07 -2.95347 -3.881 0
M  V30 24317 H 2347.07 -4.85549 -2.57919 0
M  V30 24318 H 2348.3 -5.96198 -3.25153 0
M  V30 24319 H 2346.24 -4.40153 -4.86417 0
M  V30 24320 H 2346.16 -6.08954 -4.48008 0
M  V30 24321 H 2347.43 -5.507 -5.51679 0
M  V30 24322 N 2351.66 0.44194 -1.51277 0
M  V30 24323 C 2352.9 1.19047 -1.64922 0
M  V30 24324 C 2353.26 1.89026 -0.358764 0
M  V30 24325 O 2352.55 1.80411 0.645161 0
M  V30 24326 C 2352.75 2.23681 -2.7875 0
M  V30 24327 C 2352.57 1.63972 -4.1874 0
M  V30 24328 C 2351.34 1.42665 -4.84742 0
M  V30 24329 C 2353.54 1.11849 -5.0199 0
M  V30 24330 N 2351.52 0.785052 -6.0886 0
M  V30 24331 C 2352.9 0.60188 -6.17072 0
M  V30 24332 C 2354.95 1.00981 -4.87552 0
M  V30 24333 C 2353.65 -0.0127276 -7.19299 0
M  V30 24334 C 2355.68 0.409103 -5.89983 0
M  V30 24335 C 2355.04 -0.0969889 -7.04333 0
M  V30 24336 H 2351.14 0.42346 -0.657424 0
M  V30 24337 H 2353.72 0.487787 -1.88491 0
M  V30 24338 H 2351.9 2.91343 -2.56853 0
M  V30 24339 H 2353.63 2.90661 -2.816 0
M  V30 24340 H 2350.38 1.68711 -4.42531 0
M  V30 24341 H 2350.81 0.481823 -6.75283 0
M  V30 24342 H 2355.45 1.38696 -3.99404 0
M  V30 24343 H 2353.17 -0.402021 -8.07099 0
M  V30 24344 H 2356.75 0.326977 -5.8088 0
M  V30 24345 H 2355.63 -0.554511 -7.82237 0
M  V30 24346 N 2353.14 1.41345 0.697083 0
M  V30 24347 C 2354.36 1.43974 1.4859 0
M  V30 24348 C 2354.78 0.0445944 1.88747 0
M  V30 24349 O 2354.14 -0.935758 1.56684 0
M  V30 24350 C 2354.19 2.34711 2.74942 0
M  V30 24351 O 2353.91 3.68796 2.36477 0
M  V30 24352 C 2355.41 2.46127 3.68695 0
M  V30 24353 H 2352.63 0.490426 0.457956 0
M  V30 24354 H 2355.17 1.85612 0.858397 0
M  V30 24355 H 2353.33 1.96386 3.33933 0
M  V30 24356 H 2353.74 4.17173 3.1791 0
M  V30 24357 H 2355.22 3.13785 4.5414 0
M  V30 24358 H 2355.69 1.49206 4.13079 0
M  V30 24359 H 2356.3 2.85081 3.15608 0
M  V30 24360 N 2354.61 -0.931187 1.27148 0
M  V30 24361 C 2355.84 -1.71795 1.16194 0
M  V30 24362 C 2356.26 -1.86035 -0.277971 0
M  V30 24363 O 2355.62 -1.35784 -1.20134 0
M  V30 24364 C 2355.67 -3.09719 1.84679 0
M  V30 24365 O 2354.77 -3.96262 1.14238 0
M  V30 24366 H 2354.11 -0.526714 0.404312 0
M  V30 24367 H 2356.64 -1.16557 1.68154 0
M  V30 24368 H 2356.65 -3.60054 1.919 0
M  V30 24369 H 2355.33 -2.98672 2.89427 0
M  V30 24370 H 2353.91 -3.54704 1.15062 0
M  V30 24371 N 2356.09 -1.09114 -1.13719 0
M  V30 24372 C 2357.02 -0.685505 -2.18709 0
M  V30 24373 C 2358.04 0.27104 -1.60528 0
M  V30 24374 O 2359.23 0.0575835 -1.78407 0
M  V30 24375 C 2356.33 0.0110659 -3.38898 0
M  V30 24376 C 2355.5 -0.966206 -4.26595 0
M  V30 24377 C 2354.56 -0.303632 -5.25323 0
M  V30 24378 O 2353.58 -0.950276 -5.61212 0
M  V30 24379 N 2354.79 0.94355 -5.7278 0
M  V30 24380 H 2357.55 -1.58875 -2.54124 0
M  V30 24381 H 2355.11 -0.978165 -1.2901 0
M  V30 24382 H 2357.1 0.465446 -4.02015 0
M  V30 24383 H 2355.67 0.816511 -3.01748 0
M  V30 24384 H 2354.89 -1.59923 -3.60303 0
M  V30 24385 H 2356.18 -1.62819 -4.82045 0
M  V30 24386 H 2355.58 1.48853 -5.45765 0
M  V30 24387 H 2354.14 1.3413 -6.3785 0
M  V30 24388 N 2357.57 1.30887 -0.877861 0
M  V30 24389 C 2358.85 1.91188 -0.413085 0
M  V30 24390 C 2359.23 1.79834 1.10557 0
M  V30 24391 O 2358.57 1.21102 1.93769 0
M  V30 24392 C 2358.78 3.37109 -0.90325 0
M  V30 24393 C 2360.13 4.14199 -0.934023 0
M  V30 24394 O 2361.16 3.45923 -0.849434 0
M  V30 24395 O 2360.02 5.36165 -1.05781 0
M  V30 24396 H 2357.11 0.817491 -0.12505 0
M  V30 24397 H 2359.66 1.39502 -0.966293 0
M  V30 24398 H 2358.43 3.39424 -1.94698 0
M  V30 24399 H 2358.05 3.96238 -0.328801 0
M  V30 24400 N 2359.05 0.638091 1.44105 0
M  V30 24401 C 2360.27 0.150952 2.0685 0
M  V30 24402 C 2360.7 -1.1683 1.47419 0
M  V30 24403 O 2360.06 -1.7183 0.578295 0
M  V30 24404 C 2360.1 0.0571434 3.60555 0
M  V30 24405 O 2359.21 -0.984902 4.00467 0
M  V30 24406 H 2358.55 0.0879514 0.658149 0
M  V30 24407 H 2361.08 0.87674 1.84863 0
M  V30 24408 H 2361.09 -0.13116 4.07789 0
M  V30 24409 H 2359.76 1.02028 4.03191 0
M  V30 24410 H 2358.34 -0.770608 3.64851 0
M  V30 24411 N 2360.53 -1.52973 0.379063 0
M  V30 24412 C 2361.46 -2.2907 -0.452665 0
M  V30 24413 C 2362.44 -1.32041 -1.07235 0
M  V30 24414 O 2363.62 -1.60925 -1.08705 0
M  V30 24415 C 2360.75 -3.08995 -1.58554 0
M  V30 24416 C 2359.71 -4.13824 -1.09243 0
M  V30 24417 C 2359.03 -4.81911 -2.31659 0
M  V30 24418 C 2360.33 -5.22031 -0.16761 0
M  V30 24419 H 2362.03 -2.98845 0.182233 0
M  V30 24420 H 2359.57 -1.43724 0.0890845 0
M  V30 24421 H 2361.52 -3.60983 -2.17414 0
M  V30 24422 H 2360.25 -2.36935 -2.24788 0
M  V30 24423 H 2358.91 -3.62801 -0.526431 0
M  V30 24424 H 2358.56 -4.06409 -2.96379 0
M  V30 24425 H 2358.26 -5.52758 -1.9933 0
M  V30 24426 H 2359.78 -5.367 -2.9118 0
M  V30 24427 H 2361.19 -5.69441 -0.664086 0
M  V30 24428 H 2359.59 -6.00064 0.065432 0
M  V30 24429 H 2360.66 -4.7848 0.786431 0
M  V30 24430 N 2362 -0.108595 -1.57225 0
M  V30 24431 C 2362.93 0.842282 -2.17779 0
M  V30 24432 C 2363.91 1.28469 -1.11489 0
M  V30 24433 O 2365.1 1.34916 -1.39683 0
M  V30 24434 C 2362.23 2.09639 -2.76891 0
M  V30 24435 C 2361.18 1.79214 -3.88673 0
M  V30 24436 C 2360.51 3.11567 -4.34546 0
M  V30 24437 C 2361.81 1.06855 -5.11253 0
M  V30 24438 H 2363.5 0.337721 -2.97489 0
M  V30 24439 H 2361.05 0.161 -1.43097 0
M  V30 24440 H 2363 2.76608 -3.17909 0
M  V30 24441 H 2361.73 2.62401 -1.94456 0
M  V30 24442 H 2360.39 1.14638 -3.48215 0
M  V30 24443 H 2360.03 3.62243 -3.48983 0
M  V30 24444 H 2359.73 2.91987 -5.09919 0
M  V30 24445 H 2361.26 3.79672 -4.78207 0
M  V30 24446 H 2362.67 1.63958 -5.49355 0
M  V30 24447 H 2361.07 0.974074 -5.92142 0
M  V30 24448 H 2362.14 0.0535316 -4.8487 0
M  V30 24449 N 2363.48 1.56732 0.16515 0
M  V30 24450 C 2364.73 1.81982 0.879036 0
M  V30 24451 C 2365.05 0.686593 1.82513 0
M  V30 24452 O 2364.32 -0.293112 1.93695 0
M  V30 24453 H 2362.9 0.671334 0.327596 0
M  V30 24454 H 2365.56 1.94213 0.163492 0
M  V30 24455 H 2364.66 2.76255 1.45223 0
M  V30 24456 N 2364.96 -0.433911 1.51509 0
M  V30 24457 C 2365.89 -1.54701 1.67758 0
M  V30 24458 C 2366.87 -1.53886 0.525154 0
M  V30 24459 O 2368.05 -1.72962 0.749423 0
M  V30 24460 C 2365.18 -2.93277 1.69429 0
M  V30 24461 C 2364.23 -3.12103 2.90678 0
M  V30 24462 S 2365.06 -2.88038 4.51436 0
M  V30 24463 C 2366.22 -4.28889 4.55856 0
M  V30 24464 H 2366.45 -1.40684 2.61907 0
M  V30 24465 H 2363.98 -0.623835 1.41236 0
M  V30 24466 H 2365.94 -3.73153 1.71077 0
M  V30 24467 H 2364.6 -3.04654 0.764517 0
M  V30 24468 H 2363.8 -4.13429 2.88258 0
M  V30 24469 H 2363.4 -2.40057 2.8679 0
M  V30 24470 H 2365.69 -5.22144 4.31708 0
M  V30 24471 H 2366.63 -4.36342 5.57684 0
M  V30 24472 H 2367.04 -4.12704 3.85144 0
M  V30 24473 N 2366.44 -1.41713 -0.689577 0
M  V30 24474 C 2367.35 -1.46404 -1.83311 0
M  V30 24475 C 2368.36 -0.35408 -1.70359 0
M  V30 24476 O 2369.54 -0.602726 -1.9217 0
M  V30 24477 C 2366.61 -1.34988 -3.19342 0
M  V30 24478 C 2365.67 -2.5635 -3.44359 0
M  V30 24479 C 2364.9 -2.45469 -4.73899 0
M  V30 24480 O 2365.12 -1.48251 -5.50798 0
M  V30 24481 O 2364.06 -3.35336 -4.99833 0
M  V30 24482 H 2367.88 -2.42893 -1.8231 0
M  V30 24483 H 2365.47 -1.23316 -0.843417 0
M  V30 24484 H 2367.35 -1.30927 -4.00545 0
M  V30 24485 H 2366.02 -0.416176 -3.21013 0
M  V30 24486 H 2364.93 -2.65987 -2.63063 0
M  V30 24487 H 2366.26 -3.48569 -3.47506 0
M  V30 24488 N 2367.92 0.924431 -1.2764 0
M  V30 24489 C 2369.16 1.67247 -1.1417 0
M  V30 24490 C 2369.49 1.91984 0.311829 0
M  V30 24491 O 2368.75 1.51055 1.24422 0
M  V30 24492 C 2369.05 3.04321 -1.87412 0
M  V30 24493 C 2368.71 2.99283 -3.37255 0
M  V30 24494 C 2367.37 2.97616 -3.78125 0
M  V30 24495 C 2369.73 2.90328 -4.3285 0
M  V30 24496 C 2367.05 2.84781 -5.12949 0
M  V30 24497 C 2369.41 2.79035 -5.67735 0
M  V30 24498 C 2368.07 2.75719 -6.07894 0
M  V30 24499 H 2367.34 0.611999 -0.417777 0
M  V30 24500 H 2369.99 1.07783 -1.58288 0
M  V30 24501 H 2368.29 3.67508 -1.35812 0
M  V30 24502 H 2369.99 3.61082 -1.74415 0
M  V30 24503 H 2366.58 3.01369 -3.04753 0
M  V30 24504 H 2370.76 2.90712 -4.02244 0
M  V30 24505 H 2366.02 2.80603 -5.43205 0
M  V30 24506 H 2370.19 2.71072 -6.41477 0
M  V30 24507 H 2367.82 2.65531 -7.12318 0
M  V30 24508 N 2369.39 1.09715 1.13139 0
M  V30 24509 C 2370.62 0.857114 1.88861 0
M  V30 24510 C 2371.04 -0.586273 1.7873 0
M  V30 24511 O 2370.4 -1.4122 1.13695 0
M  V30 24512 C 2370.45 1.30075 3.36323 0
M  V30 24513 O 2369.55 0.461079 4.09814 0
M  V30 24514 H 2368.9 0.310172 0.587103 0
M  V30 24515 H 2371.43 1.46205 1.43127 0
M  V30 24516 H 2371.44 1.28745 3.87155 0
M  V30 24517 H 2370.11 2.35191 3.43013 0
M  V30 24518 H 2368.69 0.538953 3.68985 0
M  V30 24519 N 2370.87 -1.30419 0.88479 0
M  V30 24520 C 2372.12 -1.95762 0.502146 0
M  V30 24521 C 2372.44 -1.70194 -0.951785 0
M  V30 24522 O 2371.71 -1.02543 -1.66918 0
M  V30 24523 H 2370.29 -0.724312 0.182707 0
M  V30 24524 H 2372.95 -1.58953 1.12782 0
M  V30 24525 H 2372.05 -3.04774 0.672242 0
M  V30 24526 N 2372.35 -0.645724 -1.43764 0
M  V30 24527 C 2373.77 -0.312618 -1.56508 0
M  V30 24528 C 2373.97 1.18362 -1.63072 0
M  V30 24529 O 2373.02 1.96821 -1.5817 0
M  V30 24530 C 2374.34 -1.01738 -2.82966 0
M  V30 24531 C 2375.88 -0.996917 -2.96699 0
M  V30 24532 C 2376.36 -1.68243 -4.25979 0
M  V30 24533 N 2377.85 -1.64971 -4.32826 0
M  V30 24534 C 2378.58 -2.14894 -5.31609 0
M  V30 24535 N 2378.08 -2.73072 -6.36713 0
M  V30 24536 N 2379.87 -2.05437 -5.23213 0
M  V30 24537 H 2372.02 -1.61677 -1.37747 0
M  V30 24538 H 2374.29 -0.679492 -0.661055 0
M  V30 24539 H 2373.99 -2.07245 -2.84152 0
M  V30 24540 H 2373.87 -0.564243 -3.72956 0
M  V30 24541 H 2376.25 0.04972 -2.95058 0
M  V30 24542 H 2376.34 -1.48868 -2.08019 0
M  V30 24543 H 2375.98 -2.7286 -4.28381 0
M  V30 24544 H 2375.91 -1.16538 -5.13543 0
M  V30 24545 H 2378.4 -1.2251 -3.57491 0
M  V30 24546 H 2378.71 -3.08861 -7.08396 0
M  V30 24547 H 2377.06 -2.7713 -6.37357 0
M  V30 24548 H 2380.25 -1.59697 -4.40016 0
M  V30 24549 H 2380.42 -2.44653 -6.00041 0
M  V30 24550 N 2373.83 1.5277 -0.38717 0
M  V30 24551 C 2375.11 1.93955 0.253163 0
M  V30 24552 C 2375.49 1.32246 1.64543 0
M  V30 24553 O 2374.83 0.489738 2.2319 0
M  V30 24554 C 2375.04 3.47862 0.281661 0
M  V30 24555 C 2376.39 4.21506 0.511641 0
M  V30 24556 O 2377.42 3.54356 0.361961 0
M  V30 24557 O 2376.27 5.40542 0.804752 0
M  V30 24558 H 2373.37 0.811993 0.15683 0
M  V30 24559 H 2375.91 1.63856 -0.441523 0
M  V30 24560 H 2374.69 3.85103 -0.693639 0
M  V30 24561 H 2374.31 3.84258 1.02136 0
M  V30 24562 N 2375.31 0.116931 1.57166 0
M  V30 24563 C 2376.27 -0.819705 2.14041 0
M  V30 24564 C 2377.27 -1.19603 1.07479 0
M  V30 24565 O 2378.46 -1.12188 1.33265 0
M  V30 24566 C 2375.59 -2.10821 2.67894 0
M  V30 24567 H 2376.78 -0.325459 2.98129 0
M  V30 24568 H 2374.34 -0.132285 1.55739 0
M  V30 24569 H 2375.07 -2.64681 1.87388 0
M  V30 24570 H 2374.86 -1.84787 3.45827 0
M  V30 24571 H 2376.35 -2.7778 3.11814 0
M  V30 24572 N 2376.78 -1.56818 -0.156836 0
M  V30 24573 C 2378.01 -1.87319 -0.890298 0
M  V30 24574 C 2378.43 -0.704885 -1.74393 0
M  V30 24575 O 2377.79 0.345755 -1.77973 0
M  V30 24576 C 2377.84 -3.16339 -1.73096 0
M  V30 24577 O 2376.94 -2.99581 -2.83417 0
M  V30 24578 H 2376.29 -0.615723 -0.248559 0
M  V30 24579 H 2378.82 -2.04045 -0.150614 0
M  V30 24580 H 2378.83 -3.48111 -2.12797 0
M  V30 24581 H 2377.5 -4.00978 -1.10405 0
M  V30 24582 H 2376.08 -2.79194 -2.47194 0
M  V30 24583 N 2378.26 0.425871 -1.51737 0
M  V30 24584 C 2379.51 1.17201 -1.64646 0
M  V30 24585 C 2379.83 1.91448 -0.370519 0
M  V30 24586 O 2379.1 1.86027 0.614055 0
M  V30 24587 H 2377.68 0.435627 -0.606826 0
M  V30 24588 H 2380.34 0.487144 -1.88714 0
M  V30 24589 H 2379.44 1.8953 -2.47961 0
M  V30 24590 N 2379.74 1.42077 0.682052 0
M  V30 24591 C 2380.69 1.44987 1.79576 0
M  V30 24592 C 2381.66 0.302643 1.6332 0
M  V30 24593 O 2382.84 0.505665 1.83977 0
M  V30 24594 C 2379.98 1.35096 3.17558 0
M  V30 24595 C 2379.1 2.59797 3.45152 0
M  V30 24596 C 2378.23 2.42101 4.72822 0
M  V30 24597 C 2377.27 3.6221 4.93427 0
M  V30 24598 N 2376.41 3.43502 6.12332 0
M  V30 24599 H 2381.25 2.40164 1.76423 0
M  V30 24600 H 2378.78 1.19244 0.861355 0
M  V30 24601 H 2380.74 1.27361 3.97284 0
M  V30 24602 H 2379.37 0.435189 3.19853 0
M  V30 24603 H 2378.42 2.77928 2.59731 0
M  V30 24604 H 2379.74 3.491 3.56273 0
M  V30 24605 H 2378.89 2.3191 5.60627 0
M  V30 24606 H 2377.63 1.50276 4.6397 0
M  V30 24607 H 2376.63 3.72841 4.04066 0
M  V30 24608 H 2377.86 4.55007 5.04128 0
M  V30 24609 H 2375.8 2.54388 6.04668 0
M  V30 24610 H 2375.72 4.26388 6.24283 0
M  V30 24611 H 2376.99 3.37109 7.02835 0
M  V30 24612 N 2381.22 -0.917649 1.28129 0
M  V30 24613 C 2382.64 -1.19536 1.05751 0
M  V30 24614 C 2382.84 -2.00479 -0.202598 0
M  V30 24615 O 2381.89 -2.35711 -0.905341 0
M  V30 24616 C 2383.2 -1.93374 2.30276 0
M  V30 24617 C 2384.75 -2.06272 2.35416 0
M  V30 24618 C 2385.23 -2.83517 3.59697 0
M  V30 24619 N 2386.72 -2.91081 3.60314 0
M  V30 24620 C 2387.45 -3.5134 4.53153 0
M  V30 24621 N 2386.95 -4.12909 5.56307 0
M  V30 24622 N 2388.74 -3.48841 4.40757 0
M  V30 24623 H 2380.89 -0.377148 2.09025 0
M  V30 24624 H 2383.16 -0.229494 0.919802 0
M  V30 24625 H 2382.86 -1.41323 3.22057 0
M  V30 24626 H 2382.74 -2.93943 2.36384 0
M  V30 24627 H 2385.12 -2.57506 1.44134 0
M  V30 24628 H 2385.2 -1.04891 2.33305 0
M  V30 24629 H 2384.85 -2.32965 4.5132 0
M  V30 24630 H 2384.78 -3.85205 3.59061 0
M  V30 24631 H 2387.27 -2.47333 2.85718 0
M  V30 24632 H 2387.58 -4.56858 6.23298 0
M  V30 24633 H 2385.93 -4.11425 5.60138 0
M  V30 24634 H 2389.12 -2.99948 3.59373 0
M  V30 24635 H 2389.29 -3.95511 5.13298 0
M  V30 24636 N 2382.7 -1.10314 -1.12555 0
M  V30 24637 C 2383.94 -0.846043 -1.84309 0
M  V30 24638 C 2384.28 0.626827 -1.83806 0
M  V30 24639 O 2383.55 1.46209 -1.2827 0
M  V30 24640 C 2383.83 -1.39347 -3.32046 0
M  V30 24641 C 2383.69 -2.93311 -3.41011 0
M  V30 24642 C 2385.01 -1.03476 -4.27762 0
M  V30 24643 H 2382.13 -0.308801 -0.669187 0
M  V30 24644 H 2384.77 -1.36607 -1.32055 0
M  V30 24645 H 2382.92 -0.951153 -3.76677 0
M  V30 24646 H 2384.59 -3.4606 -3.05025 0
M  V30 24647 H 2382.83 -3.29978 -2.81598 0
M  V30 24648 H 2383.5 -3.26696 -4.44942 0
M  V30 24649 H 2385.98 -1.4164 -3.91251 0
M  V30 24650 H 2384.86 -1.44472 -5.29546 0
M  V30 24651 H 2385.12 0.0559627 -4.42065 0
M  V30 24652 N 2384.18 1.29948 -0.891694 0
M  V30 24653 C 2385.11 2.26111 -0.308034 0
M  V30 24654 C 2386.09 1.52085 0.575236 0
M  V30 24655 O 2387.27 1.81075 0.523833 0
M  V30 24656 C 2384.4 3.3401 0.561675 0
M  V30 24657 C 2383.44 4.25748 -0.253182 0
M  V30 24658 S 2384.28 5.09581 -1.64581 0
M  V30 24659 C 2385.43 6.20985 -0.782808 0
M  V30 24660 H 2385.67 2.75269 -1.12314 0
M  V30 24661 H 2383.2 1.38048 -0.691533 0
M  V30 24662 H 2385.16 3.96639 1.05771 0
M  V30 24663 H 2383.82 2.83564 1.35094 0
M  V30 24664 H 2383.01 5.02323 0.41082 0
M  V30 24665 H 2382.61 3.67728 -0.682069 0
M  V30 24666 H 2384.9 6.775 -0.00269385 0
M  V30 24667 H 2385.85 6.91585 -1.52038 0
M  V30 24668 H 2386.26 5.63471 -0.340737 0
M  V30 24669 N 2385.65 0.653339 1.4342 0
M  V30 24670 C 2386.9 0.166451 2.01413 0
M  V30 24671 C 2387.22 -1.22394 1.51805 0
M  V30 24672 O 2386.49 -1.81761 0.730725 0
M  V30 24673 H 2385.07 0.058545 0.744702 0
M  V30 24674 H 2387.73 0.845034 1.75628 0
M  V30 24675 H 2386.83 0.151166 3.11734 0
M  V30 24676 N 2387.13 -1.52563 0.395266 0
M  V30 24677 C 2388.06 -2.29538 -0.428344 0
M  V30 24678 C 2389.04 -1.33171 -1.05828 0
M  V30 24679 O 2390.23 -1.62069 -1.06992 0
M  V30 24680 C 2387.36 -3.10659 -1.55268 0
M  V30 24681 C 2386.31 -4.14959 -1.04848 0
M  V30 24682 C 2385.64 -4.84341 -2.26535 0
M  V30 24683 C 2386.94 -5.22179 -0.112232 0
M  V30 24684 H 2388.63 -2.98635 0.213919 0
M  V30 24685 H 2386.18 -1.43622 0.104323 0
M  V30 24686 H 2388.13 -3.63269 -2.13573 0
M  V30 24687 H 2386.85 -2.39306 -2.22262 0
M  V30 24688 H 2385.51 -3.63339 -0.487921 0
M  V30 24689 H 2385.16 -4.0953 -2.92052 0
M  V30 24690 H 2384.86 -5.54841 -1.93457 0
M  V30 24691 H 2386.39 -5.39758 -2.85471 0
M  V30 24692 H 2387.8 -5.70113 -0.603652 0
M  V30 24693 H 2386.2 -5.99961 0.129073 0
M  V30 24694 H 2387.27 -4.77619 0.837136 0
M  V30 24695 N 2388.61 -0.125265 -1.57101 0
M  V30 24696 C 2389.86 0.532 -1.95698 0
M  V30 24697 C 2390.19 1.65928 -1.00903 0
M  V30 24698 O 2389.46 1.94442 -0.0473812 0
M  V30 24699 C 2389.75 1.05878 -3.44183 0
M  V30 24700 C 2389.6 -0.0655182 -4.49752 0
M  V30 24701 C 2390.92 1.94764 -3.94658 0
M  V30 24702 H 2388.04 0.191913 -0.711575 0
M  V30 24703 H 2390.68 -0.202094 -1.88922 0
M  V30 24704 H 2388.83 1.68436 -3.50088 0
M  V30 24705 H 2390.5 -0.701063 -4.55942 0
M  V30 24706 H 2388.74 -0.727784 -4.27651 0
M  V30 24707 H 2389.42 0.344409 -5.50925 0
M  V30 24708 H 2391.89 1.42067 -3.91096 0
M  V30 24709 H 2390.77 2.28538 -4.99061 0
M  V30 24710 H 2391.03 2.8765 -3.35723 0
M  V30 24711 N 2390.09 1.56899 0.148518 0
M  V30 24712 C 2391.5 1.72725 0.708736 0
M  V30 24713 C 2391.85 0.739427 1.81733 0
M  V30 24714 O 2390.97 -0.0942789 2.16195 0
M  V30 24715 C 2391.57 3.13182 1.29239 0
M  V30 24716 C 2390.13 3.30615 1.79919 0
M  V30 24717 C 2389.28 2.68654 0.687064 0
M  V30 24718 H 2392.23 1.58512 -0.0771342 0
M  V30 24719 H 2392.25 3.13097 2.16219 0
M  V30 24720 H 2391.76 3.85054 0.485315 0
M  V30 24721 H 2389.86 2.63737 2.63199 0
M  V30 24722 H 2389.97 4.38552 1.92895 0
M  V30 24723 H 2388.34 2.2908 1.11331 0
M  V30 24724 H 2389.12 3.43128 -0.108543 0
M  V30 24725 N 2391.57 -0.417818 1.51961 0
M  V30 24726 C 2392.53 -1.49108 1.74067 0
M  V30 24727 C 2393.53 -1.48757 0.610563 0
M  V30 24728 O 2394.72 -1.50435 0.878347 0
M  V30 24729 C 2391.85 -2.88562 1.81507 0
M  V30 24730 H 2393.04 -1.30803 2.69872 0
M  V30 24731 H 2390.6 -0.64776 1.42245 0
M  V30 24732 H 2391.33 -3.12248 0.875868 0
M  V30 24733 H 2391.12 -2.9022 2.63656 0
M  V30 24734 H 2392.61 -3.66383 2.00382 0
M  V30 24735 N 2393.04 -1.42436 -0.674508 0
M  V30 24736 C 2393.99 -1.45937 -1.78804 0
M  V30 24737 C 2394.96 -0.3113 -1.63157 0
M  V30 24738 O 2396.15 -0.515415 -1.83707 0
M  V30 24739 C 2393.29 -1.36779 -3.16837 0
M  V30 24740 C 2392.4 -2.61623 -3.43769 0
M  V30 24741 C 2391.53 -2.44605 -4.71531 0
M  V30 24742 C 2390.57 -3.64822 -4.91499 0
M  V30 24743 N 2389.71 -3.46744 -6.10502 0
M  V30 24744 H 2394.55 -2.41097 -1.75147 0
M  V30 24745 H 2392.09 -1.19699 -0.855019 0
M  V30 24746 H 2394.04 -1.29466 -3.96603 0
M  V30 24747 H 2392.67 -0.452145 -3.19618 0
M  V30 24748 H 2391.73 -2.79301 -2.58254 0
M  V30 24749 H 2393.04 -3.50984 -3.54417 0
M  V30 24750 H 2392.19 -2.3488 -5.59389 0
M  V30 24751 H 2390.93 -1.52734 -4.63167 0
M  V30 24752 H 2389.94 -3.74979 -4.02083 0
M  V30 24753 H 2391.16 -4.57674 -5.01708 0
M  V30 24754 H 2389.11 -2.57591 -6.0331 0
M  V30 24755 H 2389.02 -4.29693 -6.22013 0
M  V30 24756 H 2390.29 -3.40832 -7.01038 0
M  V30 24757 N 2394.52 0.910841 -1.28614 0
M  V30 24758 C 2395.77 1.65699 -1.15708 0
M  V30 24759 C 2396.09 1.92769 0.294126 0
M  V30 24760 O 2395.36 1.5459 1.20328 0
M  V30 24761 H 2393.94 0.614159 -0.425227 0
M  V30 24762 H 2396.6 1.09277 -1.61383 0
M  V30 24763 H 2395.7 2.61812 -1.69885 0
M  V30 24764 N 2396 1.10909 1.11969 0
M  V30 24765 C 2396.93 0.784511 2.19927 0
M  V30 24766 C 2397.91 -0.244697 1.68331 0
M  V30 24767 O 2399.1 -0.109384 1.93892 0
M  V30 24768 C 2396.23 0.220888 3.46597 0
M  V30 24769 C 2395.18 1.18134 4.11374 0
M  V30 24770 C 2394.51 0.478688 5.32553 0
M  V30 24771 C 2395.81 2.52987 4.56941 0
M  V30 24772 H 2397.5 1.68719 2.47334 0
M  V30 24773 H 2395.05 0.812663 1.18877 0
M  V30 24774 H 2397 -0.0183538 4.21396 0
M  V30 24775 H 2395.72 -0.717057 3.18631 0
M  V30 24776 H 2394.38 1.40612 3.38561 0
M  V30 24777 H 2394.03 -0.463888 5.00856 0
M  V30 24778 H 2393.73 1.11922 5.76842 0
M  V30 24779 H 2395.25 0.248107 6.10096 0
M  V30 24780 H 2396.67 2.3463 5.23089 0
M  V30 24781 H 2395.07 3.12971 5.12025 0
M  V30 24782 H 2396.14 3.1262 3.70671 0
M  V30 24783 N 2397.48 -1.29474 0.898573 0
M  V30 24784 C 2398.44 -2.26023 0.380311 0
M  V30 24785 C 2399.44 -1.53316 -0.484864 0
M  V30 24786 O 2400.63 -1.71768 -0.290077 0
M  V30 24787 C 2397.76 -3.3783 -0.456451 0
M  V30 24788 H 2398.96 -2.73381 1.233 0
M  V30 24789 H 2396.51 -1.40896 0.676614 0
M  V30 24790 H 2397.24 -2.9581 -1.32917 0
M  V30 24791 H 2397.03 -3.91759 0.163462 0
M  V30 24792 H 2398.52 -4.09661 -0.810394 0
M  V30 24793 N 2398.96 -0.660936 -1.43071 0
M  V30 24794 C 2400.18 -0.185458 -2.06067 0
M  V30 24795 C 2400.6 1.15195 -1.49584 0
M  V30 24796 O 2399.96 1.71275 -0.630164 0
M  V30 24797 C 2400.01 -0.0967158 -3.61371 0
M  V30 24798 O 2399.73 -1.38126 -4.15756 0
M  V30 24799 C 2401.23 0.403918 -4.41456 0
M  V30 24800 H 2398.45 -0.0934721 -0.664458 0
M  V30 24801 H 2400.99 -0.903762 -1.83446 0
M  V30 24802 H 2399.15 0.572191 -3.83151 0
M  V30 24803 H 2399.56 -1.24551 -5.09497 0
M  V30 24804 H 2401.04 0.414948 -5.50438 0
M  V30 24805 H 2401.51 1.43666 -4.15038 0
M  V30 24806 H 2402.12 -0.232766 -4.24663 0
M  V30 24807 N 2400.43 1.52351 -0.403352 0
M  V30 24808 C 2401.66 2.06648 0.176463 0
M  V30 24809 C 2402.08 1.27196 1.38574 0
M  V30 24810 O 2401.44 0.300668 1.78789 0
M  V30 24811 C 2401.49 3.56961 0.510999 0
M  V30 24812 O 2400.59 3.79976 1.60287 0
M  V30 24813 H 2399.94 0.663789 0.016722 0
M  V30 24814 H 2402.47 1.96357 -0.574882 0
M  V30 24815 H 2402.48 4.00643 0.771291 0
M  V30 24816 H 2401.15 4.14224 -0.373033 0
M  V30 24817 H 2399.73 3.48177 1.3352 0
M  V30 24818 N 2401.91 0.133594 1.57033 0
M  V30 24819 C 2403.16 -0.521614 1.95977 0
M  V30 24820 C 2403.49 -1.65391 1.01782 0
M  V30 24821 O 2402.77 -1.94414 0.0576923 0
M  V30 24822 C 2403.05 -1.04051 3.4474 0
M  V30 24823 C 2402.9 0.0893688 4.49711 0
M  V30 24824 C 2404.22 -1.92668 3.95686 0
M  V30 24825 H 2401.34 -0.188136 0.712582 0
M  V30 24826 H 2403.98 0.21211 1.88812 0
M  V30 24827 H 2402.13 -1.66577 3.50976 0
M  V30 24828 H 2403.8 0.725232 4.55563 0
M  V30 24829 H 2402.05 0.750453 4.27259 0
M  V30 24830 H 2402.72 -0.315187 5.51099 0
M  V30 24831 H 2405.19 -1.39991 3.91844 0
M  V30 24832 H 2404.07 -2.25888 5.00266 0
M  V30 24833 H 2404.33 -2.85866 3.37244 0
M  V30 24834 N 2403.39 -1.56975 -0.140195 0
M  V30 24835 C 2404.32 -2.0181 -1.17452 0
M  V30 24836 C 2405.3 -0.898819 -1.44413 0
M  V30 24837 O 2406.49 -1.1671 -1.55218 0
M  V30 24838 C 2403.62 -2.40449 -2.50603 0
M  V30 24839 C 2402.57 -3.55625 -2.38149 0
M  V30 24840 C 2401.9 -3.80098 -3.76072 0
M  V30 24841 C 2403.2 -4.88065 -1.85983 0
M  V30 24842 H 2404.89 -2.88467 -0.801692 0
M  V30 24843 H 2402.44 -1.3878 -0.384196 0
M  V30 24844 H 2404.39 -2.70416 -3.23193 0
M  V30 24845 H 2403.11 -1.50737 -2.89734 0
M  V30 24846 H 2401.77 -3.25834 -1.6801 0
M  V30 24847 H 2401.42 -2.87625 -4.12651 0
M  V30 24848 H 2401.12 -4.57613 -3.68598 0
M  V30 24849 H 2402.64 -4.12496 -4.50199 0
M  V30 24850 H 2404.06 -5.16706 -2.48371 0
M  V30 24851 H 2402.46 -5.69433 -1.89383 0
M  V30 24852 H 2403.53 -4.77986 -0.815938 0
M  V30 24853 N 2404.87 0.409753 -1.5218 0
M  V30 24854 C 2405.8 1.50606 -1.78438 0
M  V30 24855 C 2406.78 1.5779 -0.635323 0
M  V30 24856 O 2407.96 1.73074 -0.880853 0
M  V30 24857 C 2405.09 2.88435 -1.93449 0
M  V30 24858 C 2404.05 2.96102 -3.09043 0
M  V30 24859 C 2403.37 4.36179 -3.09276 0
M  V30 24860 C 2404.67 2.67645 -4.48513 0
M  V30 24861 H 2406.37 1.28884 -2.70239 0
M  V30 24862 H 2403.91 0.618582 -1.30037 0
M  V30 24863 H 2405.87 3.65116 -2.10401 0
M  V30 24864 H 2404.59 3.1145 -0.983184 0
M  V30 24865 H 2403.25 2.21866 -2.9184 0
M  V30 24866 H 2402.9 4.56202 -2.11869 0
M  V30 24867 H 2402.6 4.42234 -3.86915 0
M  V30 24868 H 2404.12 5.14795 -3.28357 0
M  V30 24869 H 2405.54 3.34048 -4.65924 0
M  V30 24870 H 2403.93 2.85076 -5.28064 0
M  V30 24871 H 2405 1.63087 -4.56652 0
M  V30 24872 N 2406.35 1.42792 0.666944 0
M  V30 24873 C 2407.57 1.47303 1.46002 0
M  V30 24874 C 2408 0.0880648 1.87894 0
M  V30 24875 O 2407.35 -0.915225 1.56503 0
M  V30 24876 C 2407.4 2.41234 2.68027 0
M  V30 24877 O 2406.51 1.88913 3.66587 0
M  V30 24878 H 2405.85 0.498778 0.438311 0
M  V30 24879 H 2408.38 1.87564 0.817358 0
M  V30 24880 H 2408.39 2.58079 3.16006 0
M  V30 24881 H 2407.06 3.41851 2.36877 0
M  V30 24882 H 2405.64 1.81662 3.25658 0
M  V30 24883 N 2407.82 -0.904008 1.29095 0
M  V30 24884 C 2409.24 -1.4693 1.15189 0
M  V30 24885 C 2409.59 -1.94542 -0.254553 0
M  V30 24886 O 2408.71 -1.83334 -1.14969 0
M  V30 24887 C 2409.31 -2.67048 2.08497 0
M  V30 24888 C 2407.87 -3.19726 1.98627 0
M  V30 24889 C 2407.01 -1.92421 1.99673 0
M  V30 24890 H 2409.96 -0.715764 1.41642 0
M  V30 24891 H 2409.98 -3.42638 1.65467 0
M  V30 24892 H 2409.5 -2.32364 3.10851 0
M  V30 24893 H 2407.6 -3.59112 0.993452 0
M  V30 24894 H 2407.71 -3.84315 2.86075 0
M  V30 24895 H 2406.07 -2.09941 1.44212 0
M  V30 24896 H 2406.86 -1.6002 3.03724 0
M  V30 24897 N 2409.3 -1.11501 -1.11379 0
M  V30 24898 C 2410.58 -0.775997 -1.79548 0
M  V30 24899 C 2410.96 0.735845 -1.9786 0
M  V30 24900 O 2410.31 1.66607 -1.56379 0
M  V30 24901 C 2410.52 -1.53983 -3.13194 0
M  V30 24902 C 2411.87 -1.71951 -3.88224 0
M  V30 24903 O 2412.89 -1.50412 -3.22885 0
M  V30 24904 O 2411.75 -2.07747 -5.05474 0
M  V30 24905 H 2408.84 -0.281204 -0.777723 0
M  V30 24906 H 2411.39 -1.21847 -1.18116 0
M  V30 24907 H 2410.16 -2.56823 -2.95225 0
M  V30 24908 H 2409.78 -1.09095 -3.8234 0
M  V30 24909 N 2410.78 1.28995 -0.905426 0
M  V30 24910 C 2412.03 1.95325 -0.534282 0
M  V30 24911 C 2412.36 1.71339 0.920505 0
M  V30 24912 O 2411.61 1.02257 1.66859 0
M  V30 24913 C 2411.91 3.48785 -0.779967 0
M  V30 24914 C 2411.58 3.92857 -2.213 0
M  V30 24915 C 2410.24 4.04602 -2.60482 0
M  V30 24916 C 2412.59 4.15548 -3.14594 0
M  V30 24917 C 2409.92 4.36409 -3.92128 0
M  V30 24918 C 2412.27 4.48831 -4.45795 0
M  V30 24919 C 2410.93 4.58786 -4.84842 0
M  V30 24920 H 2410.2 0.714743 -0.195508 0
M  V30 24921 H 2412.85 1.53486 -1.14517 0
M  V30 24922 H 2411.16 3.91705 -0.0862053 0
M  V30 24923 H 2412.85 3.98211 -0.472099 0
M  V30 24924 H 2409.44 3.84237 -1.89894 0
M  V30 24925 H 2413.63 4.05935 -2.85535 0
M  V30 24926 H 2408.88 4.4232 -4.22094 0
M  V30 24927 H 2413.06 4.65337 -5.18106 0
M  V30 24928 H 2410.68 4.83187 -5.86885 0
M  V30 24929 N 2412.26 0.668514 1.42719 0
M  V30 24930 C 2413.19 0.000141219 2.335 0
M  V30 24931 C 2414.17 -0.795938 1.50329 0
M  V30 24932 O 2415.36 -0.754353 1.7895 0
M  V30 24933 C 2412.49 -0.956243 3.33876 0
M  V30 24934 C 2411.44 -0.269203 4.27153 0
M  V30 24935 C 2410.77 -1.33809 5.17686 0
M  V30 24936 C 2412.07 0.847896 5.15372 0
M  V30 24937 H 2413.76 0.758295 2.89638 0
M  V30 24938 H 2411.31 0.366104 1.39268 0
M  V30 24939 H 2413.26 -1.43285 3.96292 0
M  V30 24940 H 2411.98 -1.74574 2.76028 0
M  V30 24941 H 2410.64 0.187106 3.66122 0
M  V30 24942 H 2410.29 -2.11942 4.56168 0
M  V30 24943 H 2409.99 -0.883557 5.80919 0
M  V30 24944 H 2411.51 -1.81576 5.82977 0
M  V30 24945 H 2412.93 0.452782 5.71509 0
M  V30 24946 H 2411.32 1.22784 5.87405 0
M  V30 24947 H 2412.39 1.69937 4.54147 0
M  V30 24948 N 2413.74 -1.52135 0.411426 0
M  V30 24949 C 2414.98 -2.02799 -0.156226 0
M  V30 24950 C 2415.34 -1.29151 -1.4261 0
M  V30 24951 O 2414.63 -0.389872 -1.87591 0
M  V30 24952 C 2414.83 -3.54482 -0.45581 0
M  V30 24953 C 2414.65 -4.42822 0.783482 0
M  V30 24954 C 2413.42 -4.88041 1.30936 0
M  V30 24955 C 2415.62 -4.86697 1.66226 0
M  V30 24956 N 2413.6 -5.60516 2.5039 0
M  V30 24957 C 2414.98 -5.57976 2.70302 0
M  V30 24958 C 2417.03 -4.6871 1.67974 0
M  V30 24959 C 2415.73 -6.13177 3.76041 0
M  V30 24960 C 2417.76 -5.2481 2.72633 0
M  V30 24961 C 2417.12 -5.96013 3.7543 0
M  V30 24962 H 2413.22 -0.781777 -0.0186749 0
M  V30 24963 H 2415.8 -1.86283 0.566288 0
M  V30 24964 H 2413.98 -3.71066 -1.14737 0
M  V30 24965 H 2415.71 -3.91829 -1.01255 0
M  V30 24966 H 2412.46 -4.65595 0.867059 0
M  V30 24967 H 2412.89 -6.01394 3.10892 0
M  V30 24968 H 2417.53 -4.13145 0.898384 0
M  V30 24969 H 2415.25 -6.67812 4.55031 0
M  V30 24970 H 2418.83 -5.12761 2.74896 0
M  V30 24971 H 2417.71 -6.38646 4.55084 0
M  V30 24972 N 2415.22 -0.14192 -1.5696 0
M  V30 24973 C 2416.49 0.555248 -1.87554 0
M  V30 24974 C 2416.87 1.83305 -1.04703 0
M  V30 24975 O 2416.22 2.28116 -0.132386 0
M  V30 24976 C 2416.43 0.825605 -3.39094 0
M  V30 24977 C 2417.78 1.16862 -4.08202 0
M  V30 24978 O 2418.8 0.915125 -3.44244 0
M  V30 24979 O 2417.66 1.64541 -5.21141 0
M  V30 24980 H 2414.76 0.282665 -0.777193 0
M  V30 24981 H 2417.3 -0.17815 -1.68762 0
M  V30 24982 H 2416.07 -0.0789321 -3.9122 0
M  V30 24983 H 2415.7 1.61336 -3.63396 0
M  V30 24984 N 2416.69 1.57047 0.131868 0
M  V30 24985 C 2417.94 1.84442 0.843147 0
M  V30 24986 C 2418.27 0.725781 1.80128 0
M  V30 24987 O 2417.55 -0.269436 1.92625 0
M  V30 24988 C 2417.83 3.22385 1.60437 0
M  V30 24989 C 2417.68 4.44832 0.666704 0
M  V30 24990 C 2419 3.57735 2.56347 0
M  V30 24991 H 2416.12 0.670896 0.305069 0
M  V30 24992 H 2418.76 1.89694 0.107806 0
M  V30 24993 H 2416.91 3.18039 2.23122 0
M  V30 24994 H 2418.59 4.61273 0.0496835 0
M  V30 24995 H 2416.83 4.33794 -0.0226853 0
M  V30 24996 H 2417.5 5.37991 1.23569 0
M  V30 24997 H 2419.98 3.62789 2.03773 0
M  V30 24998 H 2418.85 4.55256 3.06649 0
M  V30 24999 H 2419.11 2.84479 3.38414 0
M  V30 25000 N 2418.17 -0.401677 1.52395 0
M  V30 25001 C 2419.58 -0.980174 1.58901 0
M  V30 25002 C 2419.93 -1.91338 0.434066 0
M  V30 25003 O 2419.06 -2.11784 -0.444582 0
M  V30 25004 C 2419.65 -1.78446 2.87997 0
M  V30 25005 C 2418.21 -2.31287 2.96957 0
M  V30 25006 C 2417.36 -1.11478 2.53905 0
M  V30 25007 H 2420.31 -0.181652 1.57657 0
M  V30 25008 H 2420.33 -2.64254 2.7377 0
M  V30 25009 H 2419.84 -1.105 3.72037 0
M  V30 25010 H 2417.94 -3.02582 2.17427 0
M  V30 25011 H 2418.06 -2.61642 4.01348 0
M  V30 25012 H 2416.42 -1.471 2.07927 0
M  V30 25013 H 2417.2 -0.450869 3.40326 0
M  V30 25014 N 2419.65 -1.43144 -0.659362 0
M  V30 25015 C 2420.87 -1.48075 -1.45219 0
M  V30 25016 C 2421.3 -0.098028 -1.87844 0
M  V30 25017 O 2420.66 0.906913 -1.56987 0
M  V30 25018 C 2420.71 -2.42652 -2.66744 0
M  V30 25019 O 2419.81 -1.90854 -3.6558 0
M  V30 25020 H 2419.15 -0.501095 -0.43566 0
M  V30 25021 H 2421.68 -1.87995 -0.807399 0
M  V30 25022 H 2421.69 -2.59751 -3.14632 0
M  V30 25023 H 2420.37 -3.43103 -2.35061 0
M  V30 25024 H 2418.94 -1.83387 -3.2469 0
M  V30 25025 N 2421.13 0.897149 -1.29572 0
M  V30 25026 C 2422.08 2.02293 -1.14805 0
M  V30 25027 C 2423.07 1.69283 -0.0629934 0
M  V30 25028 O 2424.28 1.78614 -0.222976 0
M  V30 25029 H 2420.65 0.663091 -0.354703 0
M  V30 25030 H 2422.62 2.11886 -2.10112 0
M  V30 25031 C 2421.37 3.373 -0.844025 0
M  V30 25032 H 2420.69 3.63205 -1.67099 0
M  V30 25033 H 2422.13 4.1675 -0.780745 0
M  V30 25034 C 2420.59 3.33843 0.452785 0
M  V30 25035 O 2421.12 3.73519 1.47806 0
M  V30 25036 N 2419.33 2.86943 0.459551 0
M  V30 25037 H 2418.88 2.54852 -0.375258 0
M  V30 25038 H 2418.83 2.85013 1.32721 0
M  V30 25039 N 2422.61 1.1209 1.10786 0
M  V30 25040 C 2423.85 0.88518 1.83129 0
M  V30 25041 C 2424.21 -0.582807 1.83361 0
M  V30 25042 O 2423.5 -1.42514 1.28064 0
M  V30 25043 C 2423.69 1.38932 3.29291 0
M  V30 25044 C 2423.52 2.90478 3.43297 0
M  V30 25045 C 2422.29 3.58675 3.55922 0
M  V30 25046 C 2424.49 3.88498 3.37007 0
M  V30 25047 N 2422.47 4.98372 3.58467 0
M  V30 25048 C 2423.84 5.14304 3.46254 0
M  V30 25049 C 2425.9 3.80961 3.20583 0
M  V30 25050 C 2424.6 6.33458 3.40769 0
M  V30 25051 C 2426.63 4.99634 3.16418 0
M  V30 25052 C 2425.99 6.24296 3.26242 0
M  V30 25053 H 2422.09 0.37714 0.685047 0
M  V30 25054 H 2424.67 1.42653 1.32508 0
M  V30 25055 H 2422.84 0.875066 3.78414 0
M  V30 25056 H 2424.58 1.09603 3.89576 0
M  V30 25057 H 2421.33 3.09158 3.58774 0
M  V30 25058 H 2421.75 5.71226 3.6336 0
M  V30 25059 H 2426.4 2.85479 3.11868 0
M  V30 25060 H 2424.11 7.2921 3.48251 0
M  V30 25061 H 2427.7 4.95528 3.04866 0
M  V30 25062 H 2426.58 7.14584 3.23017 0
M  V30 25063 N 2424.08 -1.28513 0.912254 0
M  V30 25064 C 2425.31 -1.99165 0.560451 0
M  V30 25065 C 2425.73 -1.68183 -0.857897 0
M  V30 25066 O 2425.08 -0.933761 -1.56803 0
M  V30 25067 C 2425.13 -3.53459 0.758204 0
M  V30 25068 O 2424.86 -3.83349 2.12074 0
M  V30 25069 C 2426.36 -4.41372 0.413032 0
M  V30 25070 H 2423.58 -0.636022 0.213816 0
M  V30 25071 H 2426.12 -1.63746 1.22505 0
M  V30 25072 H 2424.28 -3.87145 0.140624 0
M  V30 25073 H 2424.69 -4.77989 2.15931 0
M  V30 25074 H 2426.16 -5.48706 0.602176 0
M  V30 25075 H 2426.64 -4.34354 -0.650654 0
M  V30 25076 H 2427.25 -4.1318 1.00809 0
M  V30 25077 N 2425.56 -0.676073 -1.42362 0
M  V30 25078 C 2426.49 -0.0125243 -2.33497 0
M  V30 25079 C 2427.47 0.787954 -1.50749 0
M  V30 25080 O 2428.66 0.744852 -1.79348 0
M  V30 25081 C 2425.79 0.938523 -3.34379 0
M  V30 25082 C 2424.74 0.246547 -4.27289 0
M  V30 25083 C 2424.07 1.31062 -5.18389 0
M  V30 25084 C 2425.37 -0.875215 -5.14915 0
M  V30 25085 H 2427.06 -0.773644 -2.89232 0
M  V30 25086 H 2424.61 -0.373484 -1.39072 0
M  V30 25087 H 2426.56 1.41181 -3.97046 0
M  V30 25088 H 2425.29 1.73108 -2.7695 0
M  V30 25089 H 2423.94 -0.20652 -3.66018 0
M  V30 25090 H 2423.59 2.0952 -4.57286 0
M  V30 25091 H 2423.29 0.852737 -5.8138 0
M  V30 25092 H 2424.82 1.78481 -5.83932 0
M  V30 25093 H 2426.23 -0.483084 -5.71261 0
M  V30 25094 H 2424.63 -1.25897 -5.86745 0
M  V30 25095 H 2425.7 -1.72343 -4.53239 0
M  V30 25096 N 2427.04 1.51915 -0.419488 0
M  V30 25097 C 2427.95 2.31034 0.407487 0
M  V30 25098 C 2428.97 1.39192 1.04411 0
M  V30 25099 O 2430.14 1.72266 1.04337 0
M  V30 25100 C 2427.21 3.12399 1.50359 0
M  V30 25101 C 2426.27 4.19995 0.888955 0
M  V30 25102 C 2425.5 4.97471 1.93283 0
M  V30 25103 O 2425.72 4.75367 3.1525 0
M  V30 25104 O 2424.66 5.82043 1.53329 0
M  V30 25105 H 2428.48 3.02767 -0.237918 0
M  V30 25106 H 2426.07 1.48282 -0.182439 0
M  V30 25107 H 2427.95 3.63036 2.13969 0
M  V30 25108 H 2426.63 2.43449 2.13341 0
M  V30 25109 H 2425.53 3.7348 0.215287 0
M  V30 25110 H 2426.87 4.91267 0.302905 0
M  V30 25111 N 2428.52 0.150242 1.56882 0
M  V30 25112 C 2429.43 -0.801184 2.20495 0
M  V30 25113 C 2430.44 -1.26925 1.19021 0
M  V30 25114 O 2431.62 -1.32576 1.5161 0
M  V30 25115 C 2428.69 -2.02156 2.81662 0
M  V30 25116 C 2427.75 -1.60242 3.98273 0
M  V30 25117 C 2426.98 -2.76462 4.56513 0
M  V30 25118 O 2427.2 -3.92764 4.13634 0
M  V30 25119 O 2426.14 -2.51748 5.46724 0
M  V30 25120 H 2429.96 -0.289664 3.02315 0
M  V30 25121 H 2427.55 -0.0769422 1.49202 0
M  V30 25122 H 2429.43 -2.7357 3.20527 0
M  V30 25123 H 2428.1 -2.52254 2.02853 0
M  V30 25124 H 2427.01 -0.858413 3.64118 0
M  V30 25125 H 2428.34 -1.14856 4.78611 0
M  V30 25126 N 2430 -1.57115 -0.123538 0
M  V30 25127 C 2430.96 -1.99078 -1.1358 0
M  V30 25128 C 2431.96 -0.88032 -1.34562 0
M  V30 25129 O 2433.15 -1.14646 -1.31156 0
M  V30 25130 C 2430.28 -2.32702 -2.49124 0
M  V30 25131 H 2431.47 -2.89707 -0.775236 0
M  V30 25132 H 2429.03 -1.51914 -0.367683 0
M  V30 25133 H 2429.76 -1.44939 -2.90109 0
M  V30 25134 H 2429.55 -3.13688 -2.35249 0
M  V30 25135 H 2431.04 -2.65924 -3.21985 0
M  V30 25136 N 2431.47 0.393589 -1.52606 0
M  V30 25137 C 2432.44 1.4632 -1.76417 0
M  V30 25138 C 2433.44 1.47767 -0.634152 0
M  V30 25139 O 2434.63 1.49019 -0.902169 0
M  V30 25140 C 2431.76 2.85638 -1.86075 0
M  V30 25141 H 2432.95 1.26493 -2.71918 0
M  V30 25142 H 2430.51 0.625048 -1.43258 0
M  V30 25143 H 2431.24 3.10815 -0.925433 0
M  V30 25144 H 2431.03 2.85989 -2.6824 0
M  V30 25145 H 2432.52 3.63149 -2.06186 0
M  V30 25146 N 2432.95 1.43492 0.651762 0
M  V30 25147 C 2434.18 1.48843 1.44431 0
M  V30 25148 C 2434.6 0.107988 1.8779 0
M  V30 25149 O 2433.96 -0.898574 1.57465 0
M  V30 25150 C 2434.01 2.44063 2.65453 0
M  V30 25151 O 2433.11 1.9279 3.64562 0
M  V30 25152 H 2432.45 0.503399 0.432996 0
M  V30 25153 H 2434.98 1.88421 0.797418 0
M  V30 25154 H 2434.99 2.61416 3.1325 0
M  V30 25155 H 2433.67 3.44344 2.33238 0
M  V30 25156 H 2432.25 1.85106 3.23713 0
M  V30 25157 N 2434.43 -0.890264 1.30046 0
M  V30 25158 C 2435.68 -1.64404 1.1874 0
M  V30 25159 C 2436.01 -1.92472 -0.258491 0
M  V30 25160 O 2435.28 -1.54188 -1.18559 0
M  V30 25161 C 2435.57 -2.9872 2.01092 0
M  V30 25162 C 2435.42 -2.77659 3.53872 0
M  V30 25163 C 2436.74 -3.99576 1.84464 0
M  V30 25164 H 2433.86 -0.596601 0.432708 0
M  V30 25165 H 2436.5 -1.03057 1.59622 0
M  V30 25166 H 2434.65 -3.51082 1.66355 0
M  V30 25167 H 2436.32 -2.32126 3.98641 0
M  V30 25168 H 2434.57 -2.12263 3.78321 0
M  V30 25169 H 2435.24 -3.73143 4.06778 0
M  V30 25170 H 2437.71 -3.56357 2.14823 0
M  V30 25171 H 2436.59 -4.91478 2.4442 0
M  V30 25172 H 2436.85 -4.34758 0.802353 0
M  V30 25173 N 2435.91 -1.12676 -1.1019 0
M  V30 25174 C 2437.32 -0.897633 -1.63705 0
M  V30 25175 C 2437.67 0.567513 -1.87813 0
M  V30 25176 O 2436.8 1.43251 -1.62198 0
M  V30 25177 C 2437.39 -1.62297 -2.97397 0
M  V30 25178 C 2435.95 -1.43992 -3.47769 0
M  V30 25179 C 2435.1 -1.65726 -2.22329 0
M  V30 25180 H 2438.05 -1.28118 -0.936565 0
M  V30 25181 H 2438.07 -1.07548 -3.64985 0
M  V30 25182 H 2437.58 -2.68929 -2.79819 0
M  V30 25183 H 2435.68 -0.396271 -3.70487 0
M  V30 25184 H 2435.79 -2.19773 -4.25719 0
M  V30 25185 H 2434.16 -1.08154 -2.30597 0
M  V30 25186 H 2434.94 -2.7366 -2.0728 0
M  V30 25187 N 2437.39 1.28028 -0.919057 0
M  V30 25188 C 2438.63 1.95035 -0.555791 0
M  V30 25189 C 2438.97 1.7213 0.899167 0
M  V30 25190 O 2438.24 1.04533 1.64021 0
M  V30 25191 C 2438.52 3.4938 -0.872085 0
M  V30 25192 C 2438.38 3.81665 -2.38016 0
M  V30 25193 C 2439.7 4.38526 -0.371927 0
M  V30 25194 H 2436.81 0.708377 -0.203398 0
M  V30 25195 H 2439.46 1.51301 -1.14927 0
M  V30 25196 H 2437.61 3.86763 -0.367014 0
M  V30 25197 H 2439.28 3.54123 -2.95626 0
M  V30 25198 H 2437.52 3.28522 -2.83295 0
M  V30 25199 H 2438.19 4.89465 -2.55201 0
M  V30 25200 H 2440.67 4.08245 -0.804673 0
M  V30 25201 H 2439.54 5.45361 -0.622268 0
M  V30 25202 H 2439.81 4.36067 0.727857 0
M  V30 25203 N 2438.86 0.683613 1.42002 0
M  V30 25204 C 2440.11 0.20986 2.01711 0
M  V30 25205 C 2440.44 -1.1835 1.53971 0
M  V30 25206 O 2439.72 -1.79638 0.745692 0
M  V30 25207 C 2440 0.25426 3.59201 0
M  V30 25208 C 2439.85 1.68371 4.17099 0
M  V30 25209 C 2441.17 -0.392632 4.38345 0
M  V30 25210 H 2438.29 0.0777317 0.732889 0
M  V30 25211 H 2440.93 0.87007 1.68908 0
M  V30 25212 H 2439.08 -0.307885 3.87278 0
M  V30 25213 H 2440.76 2.29878 3.99942 0
M  V30 25214 H 2439 2.22164 3.72593 0
M  V30 25215 H 2439.67 1.66639 5.26246 0
M  V30 25216 H 2442.15 0.0859893 4.16011 0
M  V30 25217 H 2441.02 -0.330967 5.47901 0
M  V30 25218 H 2441.28 -1.47157 4.1689 0
M  V30 25219 N 2440.34 -1.5169 0.427538 0
M  V30 25220 C 2441.57 -2.06119 -0.14095 0
M  V30 25221 C 2441.98 -1.2959 -1.37851 0
M  V30 25222 O 2441.32 -0.346067 -1.80411 0
M  V30 25223 C 2441.39 -3.55448 -0.538213 0
M  V30 25224 C 2441.05 -4.5316 0.591174 0
M  V30 25225 C 2442.05 -4.98969 1.46036 0
M  V30 25226 C 2439.73 -4.96377 0.769115 0
M  V30 25227 C 2441.73 -5.86656 2.49227 0
M  V30 25228 C 2439.41 -5.83856 1.80431 0
M  V30 25229 C 2440.41 -6.28892 2.66428 0
M  V30 25230 O 2440.1 -7.14636 3.68171 0
M  V30 25231 H 2439.83 -0.675817 -0.0157336 0
M  V30 25232 H 2442.39 -1.96364 0.60253 0
M  V30 25233 H 2440.62 -3.62953 -1.33425 0
M  V30 25234 H 2442.3 -3.92437 -1.03673 0
M  V30 25235 H 2443.07 -4.66283 1.33437 0
M  V30 25236 H 2438.95 -4.6087 0.109354 0
M  V30 25237 H 2442.49 -6.21729 3.16383 0
M  V30 25238 H 2438.39 -6.15955 1.93053 0
M  V30 25239 H 2439.16 -7.32792 3.64635 0
M  V30 25240 N 2441.82 -0.15856 -1.568 0
M  V30 25241 C 2443.05 0.49948 -2.01296 0
M  V30 25242 C 2443.47 1.56865 -1.03802 0
M  V30 25243 O 2442.83 1.81293 -0.0155481 0
M  V30 25244 C 2442.88 1.0664 -3.44471 0
M  V30 25245 O 2441.98 2.18089 -3.50016 0
M  V30 25246 H 2441.32 0.120979 -0.652886 0
M  V30 25247 H 2443.85 -0.258697 -2.02958 0
M  V30 25248 H 2443.86 1.3922 -3.83512 0
M  V30 25249 H 2442.54 0.283508 -4.14933 0
M  V30 25250 H 2441.11 1.86651 -3.22825 0
M  V30 25251 N 2443.3 1.57178 0.115204 0
M  V30 25252 C 2444.53 1.8924 0.836403 0
M  V30 25253 C 2444.94 0.750206 1.73255 0
M  V30 25254 O 2444.3 -0.2788 1.80358 0
M  V30 25255 C 2444.35 3.20788 1.66665 0
M  V30 25256 O 2444.07 4.30611 0.806576 0
M  V30 25257 C 2445.57 3.6658 2.49267 0
M  V30 25258 H 2442.79 0.626518 0.240242 0
M  V30 25259 H 2445.34 2.04263 0.0984573 0
M  V30 25260 H 2443.49 3.07424 2.35731 0
M  V30 25261 H 2443.91 5.06031 1.37961 0
M  V30 25262 H 2445.38 4.61375 3.03046 0
M  V30 25263 H 2445.86 2.93423 3.26802 0
M  V30 25264 H 2446.46 3.82745 1.85436 0
M  V30 25265 N 2444.78 -0.38549 1.52813 0
M  V30 25266 C 2445.74 -1.45382 1.77191 0
M  V30 25267 C 2446.74 -1.47429 0.641979 0
M  V30 25268 O 2447.93 -1.48538 0.910059 0
M  V30 25269 C 2445.06 -2.84647 1.87587 0
M  V30 25270 H 2446.26 -1.25049 2.72585 0
M  V30 25271 H 2443.81 -0.617442 1.43587 0
M  V30 25272 H 2444.54 -3.1032 0.941903 0
M  V30 25273 H 2444.33 -2.84562 2.69753 0
M  V30 25274 H 2445.82 -3.6205 2.08109 0
M  V30 25275 N 2446.26 -1.43835 -0.644143 0
M  V30 25276 C 2447.49 -1.49173 -1.42937 0
M  V30 25277 C 2447.89 -0.111082 -1.88874 0
M  V30 25278 O 2447.24 0.890771 -1.60658 0
M  V30 25279 C 2447.3 -2.38329 -2.69146 0
M  V30 25280 C 2446.96 -3.8572 -2.45091 0
M  V30 25281 C 2447.96 -4.76593 -2.07738 0
M  V30 25282 C 2445.64 -4.30296 -2.59134 0
M  V30 25283 C 2447.64 -6.10041 -1.84739 0
M  V30 25284 C 2445.33 -5.63796 -2.35749 0
M  V30 25285 C 2446.32 -6.53486 -1.98609 0
M  V30 25286 O 2446.01 -7.84515 -1.75475 0
M  V30 25287 H 2445.74 -0.508643 -0.445262 0
M  V30 25288 H 2448.3 -1.89341 -0.796177 0
M  V30 25289 H 2446.53 -1.93064 -3.35057 0
M  V30 25290 H 2448.22 -2.34766 -3.31119 0
M  V30 25291 H 2448.98 -4.43429 -1.96457 0
M  V30 25292 H 2444.86 -3.60754 -2.87015 0
M  V30 25293 H 2448.41 -6.80008 -1.55674 0
M  V30 25294 H 2444.3 -5.96524 -2.46636 0
M  V30 25295 H 2445.07 -7.96183 -1.89827 0
M  V30 25296 N 2447.73 0.883355 -1.30517 0
M  V30 25297 C 2448.96 1.66597 -1.22184 0
M  V30 25298 C 2449.37 1.87946 0.217474 0
M  V30 25299 O 2448.71 1.42817 1.15538 0
M  V30 25300 C 2448.78 3.06332 -1.88152 0
M  V30 25301 C 2448.44 3.08148 -3.37482 0
M  V30 25302 C 2449.44 2.87086 -4.33448 0
M  V30 25303 C 2447.12 3.29694 -3.78955 0
M  V30 25304 C 2449.12 2.8753 -5.68863 0
M  V30 25305 C 2446.8 3.29767 -5.14487 0
M  V30 25306 C 2447.8 3.08709 -6.09252 0
M  V30 25307 O 2447.49 3.08601 -7.42307 0
M  V30 25308 H 2447.22 0.526572 -0.423907 0
M  V30 25309 H 2449.78 1.11185 -1.72705 0
M  V30 25310 H 2448.01 3.63414 -1.32163 0
M  V30 25311 H 2449.69 3.66753 -1.73917 0
M  V30 25312 H 2450.46 2.70236 -4.02738 0
M  V30 25313 H 2446.34 3.45119 -3.05637 0
M  V30 25314 H 2449.88 2.71012 -6.42805 0
M  V30 25315 H 2445.78 3.46153 -5.44838 0
M  V30 25316 H 2446.55 3.24756 -7.51316 0
M  V30 25317 N 2449.21 1.13259 1.09591 0
M  V30 25318 C 2450.17 0.811396 2.14357 0
M  V30 25319 C 2451.17 -0.178349 1.59808 0
M  V30 25320 O 2452.36 0.0485217 1.74132 0
M  V30 25321 C 2449.5 0.207336 3.40269 0
M  V30 25322 H 2450.69 1.73973 2.44281 0
M  V30 25323 H 2448.24 0.936995 1.251 0
M  V30 25324 H 2448.98 -0.730305 3.1597 0
M  V30 25325 H 2448.76 0.920059 3.81153 0
M  V30 25326 H 2450.25 -0.00059454 4.176 0
M  V30 25327 N 2450.69 -1.27539 0.925834 0
M  V30 25328 C 2451.62 -2.29302 0.440788 0
M  V30 25329 C 2452.6 -1.62649 -0.497942 0
M  V30 25330 O 2453.79 -1.89971 -0.403093 0
M  V30 25331 C 2450.92 -3.45923 -0.308987 0
M  V30 25332 C 2449.87 -4.24558 0.541735 0
M  V30 25333 C 2449.2 -5.33636 -0.337097 0
M  V30 25334 C 2450.5 -4.9011 1.80524 0
M  V30 25335 H 2452.19 -2.70124 1.29126 0
M  V30 25336 H 2449.74 -1.29857 0.622346 0
M  V30 25337 H 2451.69 -4.16211 -0.659242 0
M  V30 25338 H 2450.41 -3.04013 -1.19347 0
M  V30 25339 H 2449.07 -3.56013 0.874672 0
M  V30 25340 H 2448.72 -4.87969 -1.22048 0
M  V30 25341 H 2448.42 -5.87155 0.228601 0
M  V30 25342 H 2449.94 -6.06768 -0.682965 0
M  V30 25343 H 2451.36 -5.52696 1.52317 0
M  V30 25344 H 2449.75 -5.53679 2.3143 0
M  V30 25345 H 2450.82 -4.13917 2.52588 0
M  V30 25346 N 2452.17 -0.691135 -1.41637 0
M  V30 25347 C 2453.41 -0.220555 -2.01597 0
M  V30 25348 C 2453.75 1.17532 -1.54596 0
M  V30 25349 O 2453.02 1.7924 -0.755209 0
M  V30 25350 C 2453.3 -0.273306 -3.59061 0
M  V30 25351 C 2453.16 -1.7058 -4.162 0
M  V30 25352 C 2454.48 0.36938 -4.38547 0
M  V30 25353 H 2451.6 -0.0816173 -0.732467 0
M  V30 25354 H 2454.24 -0.879015 -1.68444 0
M  V30 25355 H 2452.39 0.287343 -3.87436 0
M  V30 25356 H 2454.06 -2.31996 -3.98718 0
M  V30 25357 H 2452.3 -2.24136 -3.7141 0
M  V30 25358 H 2452.97 -1.69428 -5.25355 0
M  V30 25359 H 2455.45 -0.10805 -4.1596 0
M  V30 25360 H 2454.33 0.301906 -5.48069 0
M  V30 25361 H 2454.59 1.44944 -4.17665 0
M  V30 25362 N 2453.65 1.51461 -0.435577 0
M  V30 25363 C 2454.89 2.02372 0.131673 0
M  V30 25364 C 2455.22 1.31922 1.42514 0
M  V30 25365 O 2454.5 0.433606 1.89605 0
M  V30 25366 C 2454.78 3.58373 0.352238 0
M  V30 25367 C 2454.64 4.39441 -0.959754 0
M  V30 25368 C 2455.95 4.25537 1.12279 0
M  V30 25369 H 2453.07 0.735539 0.0463807 0
M  V30 25370 H 2455.72 1.81115 -0.574229 0
M  V30 25371 H 2453.87 3.76616 0.953534 0
M  V30 25372 H 2455.54 4.32852 -1.5949 0
M  V30 25373 H 2453.78 4.04596 -1.56475 0
M  V30 25374 H 2454.45 5.4675 -0.75949 0
M  V30 25375 H 2456.93 4.11553 0.613473 0
M  V30 25376 H 2455.8 5.34574 1.24588 0
M  V30 25377 H 2456.06 3.86277 2.15041 0
M  V30 25378 N 2455.12 0.166873 1.56714 0
M  V30 25379 C 2456.54 -0.189345 1.58473 0
M  V30 25380 C 2456.74 -1.63187 1.18204 0
M  V30 25381 O 2455.8 -2.36236 0.89157 0
M  V30 25382 C 2457.11 0.0874401 3.00573 0
M  V30 25383 C 2458.66 0.0252993 3.1299 0
M  V30 25384 C 2459.13 0.275014 4.57174 0
M  V30 25385 N 2460.62 0.222634 4.62665 0
M  V30 25386 C 2461.36 0.390086 5.72072 0
M  V30 25387 N 2460.85 0.616351 6.90053 0
M  V30 25388 N 2462.65 0.326301 5.61152 0
M  V30 25389 H 2454.8 1.10853 1.81178 0
M  V30 25390 H 2457.06 0.440357 0.839518 0
M  V30 25391 H 2456.77 1.08656 3.34495 0
M  V30 25392 H 2456.64 -0.622972 3.7202 0
M  V30 25393 H 2459.03 -0.964391 2.78897 0
M  V30 25394 H 2459.11 0.768352 2.43988 0
M  V30 25395 H 2458.75 1.26189 4.91974 0
M  V30 25396 H 2458.68 -0.488597 5.24328 0
M  V30 25397 H 2461.17 0.0532177 3.77863 0
M  V30 25398 H 2461.49 0.733694 7.69309 0
M  V30 25399 H 2459.83 0.652912 6.91926 0
M  V30 25400 H 2463.02 0.150154 4.67859 0
M  V30 25401 H 2463.2 0.46023 6.46364 0
M  V30 25402 N 2456.6 -1.57237 -0.106866 0
M  V30 25403 C 2457.85 -1.85119 -0.810889 0
M  V30 25404 C 2458.17 -0.753858 -1.79839 0
M  V30 25405 O 2457.44 0.221022 -1.94649 0
M  V30 25406 H 2456.02 -0.68303 -0.302454 0
M  V30 25407 H 2458.68 -1.94686 -0.0912982 0
M  V30 25408 H 2457.78 -2.81454 -1.3487 0
M  V30 25409 N 2458.08 0.377381 -1.53015 0
M  V30 25410 C 2459.5 0.718256 -1.42525 0
M  V30 25411 C 2459.7 1.93709 -0.554904 0
M  V30 25412 O 2458.75 2.52479 -0.0328037 0
M  V30 25413 C 2460.07 0.942488 -2.85548 0
M  V30 25414 C 2461.61 1.04324 -2.95103 0
M  V30 25415 C 2462.09 1.30002 -4.39162 0
M  V30 25416 N 2463.58 1.36798 -4.42539 0
M  V30 25417 C 2464.31 1.58355 -5.511 0
M  V30 25418 N 2463.81 1.77305 -6.69727 0
M  V30 25419 N 2465.6 1.60628 -5.3866 0
M  V30 25420 H 2457.75 -0.424462 -2.08116 0
M  V30 25421 H 2460.02 -0.127775 -0.939349 0
M  V30 25422 H 2459.72 0.118867 -3.51499 0
M  V30 25423 H 2459.6 1.85392 -3.28496 0
M  V30 25424 H 2461.98 1.85741 -2.29312 0
M  V30 25425 H 2462.07 0.10946 -2.55566 0
M  V30 25426 H 2461.71 0.490902 -5.05522 0
M  V30 25427 H 2461.64 2.24683 -4.76262 0
M  V30 25428 H 2464.13 1.23815 -3.57041 0
M  V30 25429 H 2464.44 1.93293 -7.48236 0
M  V30 25430 H 2462.79 1.74506 -6.72735 0
M  V30 25431 H 2465.98 1.45383 -4.44951 0
M  V30 25432 H 2466.15 1.77087 -6.23333 0
M  V30 25433 N 2459.56 1.44175 0.636506 0
M  V30 25434 C 2460.8 1.46892 1.39823 0
M  V30 25435 C 2461.14 0.0990926 1.93947 0
M  V30 25436 O 2460.41 -0.882514 1.73326 0
M  V30 25437 C 2460.7 2.52494 2.56746 0
M  V30 25438 C 2460.55 3.98815 2.08007 0
M  V30 25439 C 2461.87 2.54655 3.58941 0
M  V30 25440 H 2458.99 0.534839 0.507066 0
M  V30 25441 H 2461.63 1.75823 0.720157 0
M  V30 25442 H 2459.78 2.27955 3.14593 0
M  V30 25443 H 2461.45 4.34468 1.55032 0
M  V30 25444 H 2459.69 4.10848 1.39235 0
M  V30 25445 H 2460.36 4.68344 2.92161 0
M  V30 25446 H 2462.84 2.76568 3.10885 0
M  V30 25447 H 2461.72 3.30457 4.3828 0
M  V30 25448 H 2461.98 1.58653 4.12652 0
M  V30 25449 N 2461.04 -0.876421 1.30983 0
M  V30 25450 C 2462.45 -1.16111 1.095 0
M  V30 25451 C 2462.65 -2.01022 -0.138714 0
M  V30 25452 O 2461.71 -2.38472 -0.829893 0
M  V30 25453 C 2463.02 -1.8595 2.36312 0
M  V30 25454 C 2464.57 -1.98678 2.41859 0
M  V30 25455 C 2465.04 -2.7193 3.68535 0
M  V30 25456 N 2466.54 -2.7947 3.69392 0
M  V30 25457 C 2467.27 -3.36745 4.64101 0
M  V30 25458 N 2466.77 -3.95002 5.69162 0
M  V30 25459 N 2468.56 -3.34642 4.51632 0
M  V30 25460 H 2460.71 -0.310457 2.10119 0
M  V30 25461 H 2462.97 -0.200115 0.926638 0
M  V30 25462 H 2462.68 -1.31005 3.2639 0
M  V30 25463 H 2462.55 -2.86274 2.45615 0
M  V30 25464 H 2464.94 -2.5279 1.52254 0
M  V30 25465 H 2465.02 -0.974158 2.36524 0
M  V30 25466 H 2464.67 -2.18488 4.58503 0
M  V30 25467 H 2464.6 -3.73587 3.71134 0
M  V30 25468 H 2467.09 -2.38118 2.93442 0
M  V30 25469 H 2467.4 -4.36797 6.37517 0
M  V30 25470 H 2465.74 -3.93396 5.72944 0
M  V30 25471 H 2468.94 -2.88363 3.68733 0
M  V30 25472 H 2469.11 -3.78981 5.25621 0
M  V30 25473 N 2462.51 -1.13839 -1.08989 0
M  V30 25474 C 2463.93 -0.914946 -1.62744 0
M  V30 25475 C 2464.28 0.547561 -1.88404 0
M  V30 25476 O 2463.4 1.41522 -1.63708 0
M  V30 25477 C 2464 -1.65442 -2.95659 0
M  V30 25478 C 2462.56 -1.47672 -3.46222 0
M  V30 25479 C 2461.7 -1.68074 -2.20559 0
M  V30 25480 H 2464.65 -1.29104 -0.922923 0
M  V30 25481 H 2464.67 -1.11413 -3.63823 0
M  V30 25482 H 2464.19 -2.71882 -2.76951 0
M  V30 25483 H 2462.29 -0.435543 -3.70046 0
M  V30 25484 H 2462.4 -2.24276 -4.23364 0
M  V30 25485 H 2460.76 -1.10593 -2.29437 0
M  V30 25486 H 2461.55 -2.75843 -2.04366 0
M  V30 25487 N 2463.99 1.27046 -0.932584 0
M  V30 25488 C 2465.24 1.93764 -0.574456 0
M  V30 25489 C 2465.56 1.73609 0.887963 0
M  V30 25490 O 2464.83 1.08668 1.62997 0
M  V30 25491 H 2463.41 0.717031 -0.209463 0
M  V30 25492 H 2466.07 1.54658 -1.18604 0
M  V30 25493 H 2465.17 3.02069 -0.784894 0
M  V30 25494 N 2465.47 0.698636 1.41269 0
M  V30 25495 C 2466.38 0.0358304 2.34573 0
M  V30 25496 C 2467.4 -0.762673 1.56395 0
M  V30 25497 O 2468.57 -0.69953 1.88861 0
M  V30 25498 C 2465.64 -0.887031 3.35161 0
M  V30 25499 C 2464.7 -0.0803879 4.29225 0
M  V30 25500 C 2463.93 -0.959295 5.25008 0
M  V30 25501 O 2464.15 -2.19877 5.26318 0
M  V30 25502 O 2463.09 -0.407334 6.0052 0
M  V30 25503 H 2466.91 0.805009 2.92837 0
M  V30 25504 H 2464.5 0.458991 1.42175 0
M  V30 25505 H 2466.38 -1.41614 3.96892 0
M  V30 25506 H 2465.06 -1.63565 2.79335 0
M  V30 25507 H 2463.96 0.493394 3.70832 0
M  V30 25508 H 2465.3 0.629632 4.88156 0
M  V30 25509 N 2466.95 -1.51228 0.443603 0
M  V30 25510 C 2468.18 -2.06556 -0.119253 0
M  V30 25511 C 2468.59 -1.3104 -1.35919 0
M  V30 25512 O 2467.95 -0.371736 -1.78674 0
M  V30 25513 C 2468 -3.58871 -0.435165 0
M  V30 25514 O 2467.72 -4.31535 0.755562 0
M  V30 25515 C 2469.22 -4.30734 -1.04801 0
M  V30 25516 H 2466.44 -0.67098 -0.0051466 0
M  V30 25517 H 2468.99 -1.94732 0.624487 0
M  V30 25518 H 2467.14 -3.7059 -1.12881 0
M  V30 25519 H 2467.55 -5.22266 0.483582 0
M  V30 25520 H 2469.03 -5.38372 -1.21901 0
M  V30 25521 H 2469.51 -3.89432 -2.03074 0
M  V30 25522 H 2470.11 -4.23475 -0.393562 0
M  V30 25523 N 2468.43 -0.175182 -1.56623 0
M  V30 25524 C 2469.36 0.749156 -2.21156 0
M  V30 25525 C 2470.34 1.23624 -1.16838 0
M  V30 25526 O 2471.52 1.2887 -1.4528 0
M  V30 25527 C 2468.65 1.97706 -2.85534 0
M  V30 25528 C 2467.61 1.62568 -3.95924 0
M  V30 25529 C 2466.93 2.92856 -4.4737 0
M  V30 25530 C 2468.23 0.850747 -5.15325 0
M  V30 25531 H 2469.93 0.211242 -2.98654 0
M  V30 25532 H 2467.47 0.100163 -1.43651 0
M  V30 25533 H 2469.43 2.62875 -3.29355 0
M  V30 25534 H 2468.15 2.53918 -2.0541 0
M  V30 25535 H 2466.81 0.997657 -3.52764 0
M  V30 25536 H 2466.46 3.47115 -3.64033 0
M  V30 25537 H 2466.16 2.70097 -5.21844 0
M  V30 25538 H 2467.68 3.59048 -4.9388 0
M  V30 25539 H 2469.09 1.40511 -5.55814 0
M  V30 25540 H 2467.49 0.72205 -5.9574 0
M  V30 25541 H 2468.56 -0.152167 -4.84661 0
M  V30 25542 N 2469.91 1.57292 0.0985263 0
M  V30 25543 C 2470.84 2.04853 1.1206 0
M  V30 25544 C 2471.82 0.936792 1.4198 0
M  V30 25545 O 2473 1.20784 1.52069 0
M  V30 25546 C 2470.13 2.47008 2.4414 0
M  V30 25547 C 2469.09 3.61814 2.28636 0
M  V30 25548 C 2468.41 3.89935 3.65862 0
M  V30 25549 C 2469.71 4.92825 1.72977 0
M  V30 25550 H 2471.41 2.90491 0.724928 0
M  V30 25551 H 2468.95 1.3975 0.347266 0
M  V30 25552 H 2470.9 2.78889 3.15909 0
M  V30 25553 H 2469.63 1.58365 2.85636 0
M  V30 25554 H 2468.29 3.30174 1.59312 0
M  V30 25555 H 2467.94 2.98465 4.0488 0
M  V30 25556 H 2467.64 4.67224 3.56336 0
M  V30 25557 H 2469.16 4.24288 4.39104 0
M  V30 25558 H 2470.57 5.23109 2.34584 0
M  V30 25559 H 2468.97 5.74254 1.74219 0
M  V30 25560 H 2470.04 4.79981 0.688922 0
M  V30 25561 N 2471.38 -0.369261 1.53213 0
M  V30 25562 C 2472.63 -1.10958 1.68438 0
M  V30 25563 C 2472.95 -1.90569 0.440771 0
M  V30 25564 O 2474.15 -2.67339 0.473493 0
M  V30 25565 C 2472.61 -2.02174 2.97747 0
M  V30 25566 C 2472.22 -1.27892 4.29357 0
M  V30 25567 C 2473.96 -2.76221 3.22339 0
M  V30 25568 C 2471.87 -2.17989 5.49759 0
M  V30 25569 H 2470.8 -0.417929 0.627576 0
M  V30 25570 H 2473.45 -0.370853 1.79713 0
M  V30 25571 H 2471.83 -2.79763 2.80265 0
M  V30 25572 H 2473 -0.553926 4.57459 0
M  V30 25573 H 2471.32 -0.657239 4.1118 0
M  V30 25574 H 2473.92 -3.4385 4.09477 0
M  V30 25575 H 2474.26 -3.41387 2.38244 0
M  V30 25576 H 2474.79 -2.05717 3.40478 0
M  V30 25577 H 2471.53 -1.57406 6.3632 0
M  V30 25578 H 2471.05 -2.88349 5.25942 0
M  V30 25579 H 2472.73 -2.77631 5.84406 0
M  V30 25580 N 2472.86 -1.4451 -0.628851 0
M  V30 25581 C 2473.81 -1.47986 -1.73448 0
M  V30 25582 C 2474.8 -0.3454 -1.57149 0
M  V30 25583 O 2475.99 -0.590859 -1.66847 0
M  V30 25584 C 2473.12 -1.42909 -3.12141 0
M  V30 25585 C 2472.2 -2.61478 -3.33901 0
M  V30 25586 N 2472.59 -3.86712 -3.26017 0
M  V30 25587 C 2470.89 -2.56723 -3.64705 0
M  V30 25588 C 2471.59 -4.65728 -3.48528 0
M  V30 25589 N 2470.57 -3.96839 -3.7151 0
M  V30 25590 H 2474.37 -2.42658 -1.65814 0
M  V30 25591 H 2471.88 -1.39505 -0.831395 0
M  V30 25592 H 2473.88 -1.43483 -3.91431 0
M  V30 25593 H 2472.54 -0.492774 -3.20939 0
M  V30 25594 H 2473.55 -4.18647 -3.04886 0
M  V30 25595 H 2470.23 -1.71897 -3.8047 0
M  V30 25596 H 2471.62 -5.74753 -3.48006 0
M  V30 25597 N 2474.34 0.869463 -1.31446 0
M  V30 25598 C 2475.56 1.66056 -1.24259 0
M  V30 25599 C 2475.99 1.87149 0.188895 0
M  V30 25600 O 2475.35 1.41362 1.13519 0
M  V30 25601 C 2475.4 3.00555 -1.99246 0
M  V30 25602 O 2474.5 3.9036 -1.33014 0
M  V30 25603 H 2473.84 0.506824 -0.428982 0
M  V30 25604 H 2476.37 1.08401 -1.73523 0
M  V30 25605 H 2476.38 3.50488 -2.0886 0
M  V30 25606 H 2475.06 2.84523 -3.03347 0
M  V30 25607 H 2473.63 3.48811 -1.31854 0
M  V30 25608 N 2475.82 1.14415 1.08383 0
M  V30 25609 C 2477.07 0.910711 1.80417 0
M  V30 25610 C 2477.39 -0.56421 1.86659 0
M  V30 25611 O 2476.66 -1.41012 1.35987 0
M  V30 25612 H 2475.24 0.333946 0.668198 0
M  V30 25613 H 2477.9 1.44278 1.31034 0
M  V30 25614 H 2476.99 1.31087 2.83236 0
M  V30 25615 N 2477.3 -1.26549 0.939309 0
M  V30 25616 C 2478.52 -1.9847 0.602043 0
M  V30 25617 C 2478.95 -1.69498 -0.815594 0
M  V30 25618 O 2478.3 -0.941933 -1.54911 0
M  V30 25619 C 2478.35 -3.50476 0.848468 0
M  V30 25620 O 2477.46 -4.12322 -0.0803284 0
M  V30 25621 H 2476.8 -0.622708 0.230501 0
M  V30 25622 H 2479.33 -1.61064 1.26173 0
M  V30 25623 H 2479.34 -4.00695 0.768623 0
M  V30 25624 H 2478.01 -3.70894 1.88178 0
M  V30 25625 H 2476.59 -3.72866 0.0504164 0
M  V30 25626 N 2478.77 -0.706118 -1.40896 0
M  V30 25627 C 2480.02 -0.241089 -2.00657 0
M  V30 25628 C 2480.34 1.16676 -1.56243 0
M  V30 25629 O 2479.61 1.78924 -0.797681 0
M  V30 25630 H 2478.19 -0.0861438 -0.742016 0
M  V30 25631 H 2480.85 -0.909635 -1.72371 0
M  V30 25632 H 2479.95 -0.266759 -3.10958 0
M  V30 25633 N 2480.25 1.50991 -0.451617 0
M  V30 25634 C 2481.5 2.01801 0.109821 0
M  V30 25635 C 2481.82 1.33692 1.41956 0
M  V30 25636 O 2481.09 0.475984 1.90029 0
M  V30 25637 H 2479.67 0.745728 0.0435753 0
M  V30 25638 H 2482.33 1.85512 -0.59759 0
M  V30 25639 H 2481.43 3.10882 0.275434 0
M  V30 25640 N 2481.73 0.183486 1.56528 0
M  V30 25641 C 2482.98 -0.459002 1.97537 0
M  V30 25642 C 2483.31 -1.62069 1.06992 0
M  V30 25643 O 2482.58 -1.94132 0.119515 0
M  V30 25644 C 2482.87 -0.930307 3.47875 0
M  V30 25645 C 2482.72 0.232396 4.49199 0
M  V30 25646 C 2484.04 -1.79982 4.01615 0
M  V30 25647 H 2481.16 -0.165371 0.718207 0
M  V30 25648 H 2483.8 0.272072 1.88042 0
M  V30 25649 H 2481.95 -1.55327 3.56098 0
M  V30 25650 H 2483.62 0.869799 4.53026 0
M  V30 25651 H 2481.86 0.886002 4.24656 0
M  V30 25652 H 2482.54 -0.139699 5.51823 0
M  V30 25653 H 2485.01 -1.27454 3.96099 0
M  V30 25654 H 2483.89 -2.09858 5.07199 0
M  V30 25655 H 2484.15 -2.74992 3.46167 0
M  V30 25656 N 2483.21 -1.57342 -0.0901833 0
M  V30 25657 C 2484.46 -1.85969 -0.791209 0
M  V30 25658 C 2484.78 -0.77289 -1.79029 0
M  V30 25659 O 2484.05 0.200364 -1.94873 0
M  V30 25660 H 2482.63 -0.6862 -0.295193 0
M  V30 25661 H 2485.29 -1.94772 -0.070644 0
M  V30 25662 H 2484.38 -2.82869 -1.31877 0
M  V30 25663 N 2484.69 0.36113 -1.53407 0
M  V30 25664 C 2485.62 1.46282 -1.76449 0
M  V30 25665 C 2486.63 1.49463 -0.645348 0
M  V30 25666 O 2487.82 1.52862 -0.921708 0
M  V30 25667 C 2484.92 2.85028 -1.83337 0
M  V30 25668 C 2484.09 3.05492 -3.13039 0
M  V30 25669 C 2483.15 4.24377 -3.11112 0
M  V30 25670 O 2482.18 4.19338 -3.84896 0
M  V30 25671 N 2483.38 5.32018 -2.32243 0
M  V30 25672 H 2486.15 1.26894 -2.71511 0
M  V30 25673 H 2483.71 0.550888 -1.52239 0
M  V30 25674 H 2485.7 3.62705 -1.7952 0
M  V30 25675 H 2484.27 2.97642 -0.955395 0
M  V30 25676 H 2483.49 2.15436 -3.30122 0
M  V30 25677 H 2484.78 3.16037 -3.98746 0
M  V30 25678 H 2484.17 5.38976 -1.71816 0
M  V30 25679 H 2482.73 6.08255 -2.34241 0
M  V30 25680 N 2486.16 1.44842 0.621179 0
M  V30 25681 C 2487.13 1.52103 1.71457 0
M  V30 25682 C 2488.13 0.40196 1.55695 0
M  V30 25683 O 2489.32 0.664953 1.61009 0
M  V30 25684 C 2486.45 1.40453 3.10622 0
M  V30 25685 H 2487.64 2.49509 1.66389 0
M  V30 25686 H 2485.2 1.32081 0.835721 0
M  V30 25687 H 2485.93 0.441793 3.21277 0
M  V30 25688 H 2485.72 2.21608 3.23469 0
M  V30 25689 H 2487.21 1.48537 3.9029 0
M  V30 25690 N 2487.64 -0.862479 1.31905 0
M  V30 25691 C 2488.61 -1.95193 1.20134 0
M  V30 25692 C 2489.61 -1.60302 0.126437 0
M  V30 25693 O 2490.8 -1.70088 0.376264 0
M  V30 25694 C 2487.93 -3.30242 0.845749 0
M  V30 25695 H 2489.12 -2.0706 2.16947 0
M  V30 25696 H 2486.67 -1.0517 1.15624 0
M  V30 25697 H 2487.41 -3.24075 -0.1209 0
M  V30 25698 H 2487.19 -3.56941 1.62282 0
M  V30 25699 H 2488.68 -4.10108 0.78749 0
M  V30 25700 N 2489.12 -1.14988 -1.07775 0
M  V30 25701 C 2490.37 -0.916649 -1.79668 0
M  V30 25702 C 2490.68 0.557884 -1.87475 0
M  V30 25703 O 2491.89 0.908572 -2.55846 0
M  V30 25704 C 2490.34 -1.59057 -3.22845 0
M  V30 25705 C 2489.95 -3.10181 -3.23251 0
M  V30 25706 C 2491.7 -1.43871 -3.99376 0
M  V30 25707 C 2489.6 -3.7038 -4.61056 0
M  V30 25708 H 2488.53 -0.339301 -0.673343 0
M  V30 25709 H 2491.18 -1.37953 -1.21001 0
M  V30 25710 H 2489.57 -1.05537 -3.81678 0
M  V30 25711 H 2490.74 -3.70422 -2.74088 0
M  V30 25712 H 2489.06 -3.25079 -2.60217 0
M  V30 25713 H 2491.65 -1.86241 -5.01217 0
M  V30 25714 H 2492 -0.385637 -4.1451 0
M  V30 25715 H 2492.53 -1.94463 -3.47029 0
M  V30 25716 H 2489.27 -4.75568 -4.51126 0
M  V30 25717 H 2488.79 -3.14922 -5.10475 0
M  V30 25718 H 2490.47 -3.71052 -5.30028 0
M  V30 25719 N 2490.6 1.26049 -0.946007 0
M  V30 25720 C 2491.56 2.24456 -0.463936 0
M  V30 25721 C 2492.56 1.5501 0.427627 0
M  V30 25722 O 2493.75 1.72726 0.226127 0
M  V30 25723 C 2490.88 3.39292 0.330753 0
M  V30 25724 H 2492.08 2.68616 -1.33361 0
M  V30 25725 H 2489.63 1.38288 -0.72844 0
M  V30 25726 H 2490.36 3.00539 1.21847 0
M  V30 25727 H 2490.15 3.90883 -0.308748 0
M  V30 25728 H 2491.64 4.12387 0.657793 0
M  V30 25729 N 2492.08 0.71358 1.4052 0
M  V30 25730 C 2493.33 0.249228 2.00154 0
M  V30 25731 C 2493.64 -1.16359 1.57226 0
M  V30 25732 O 2494.84 -1.72635 2.09545 0
M  V30 25733 C 2493.3 0.394663 3.5773 0
M  V30 25734 C 2492.91 1.814 4.09632 0
M  V30 25735 C 2494.65 -0.00899903 4.24499 0
M  V30 25736 C 2492.56 1.91012 5.59704 0
M  V30 25737 H 2491.49 0.0894246 0.748678 0
M  V30 25738 H 2494.14 0.88438 1.60782 0
M  V30 25739 H 2492.52 -0.30904 3.94792 0
M  V30 25740 H 2493.7 2.54791 3.8395 0
M  V30 25741 H 2492.01 2.16894 3.55452 0
M  V30 25742 H 2494.61 0.0421344 5.34683 0
M  V30 25743 H 2494.95 -1.05058 4.02826 0
M  V30 25744 H 2495.48 0.645076 3.92535 0
M  V30 25745 H 2492.22 2.93285 5.86229 0
M  V30 25746 H 2491.74 1.22029 5.87255 0
M  V30 25747 H 2493.42 1.68131 6.24773 0
M  V30 25748 N 2493.55 -1.50749 0.459618 0
M  V30 25749 C 2494.52 -2.26826 -0.329053 0
M  V30 25750 C 2495.52 -1.31145 -0.930458 0
M  V30 25751 O 2496.71 -1.5467 -0.801426 0
M  V30 25752 C 2493.84 -3.07691 -1.46763 0
M  V30 25753 H 2495.03 -2.97989 0.337977 0
M  V30 25754 H 2492.59 -1.54837 0.213363 0
M  V30 25755 H 2493.32 -2.40996 -2.17005 0
M  V30 25756 H 2493.11 -3.77992 -1.04231 0
M  V30 25757 H 2494.6 -3.65258 -2.02427 0
M  V30 25758 N 2495.03 -0.191784 -1.56429 0
M  V30 25759 C 2495.96 0.725657 -2.21938 0
M  V30 25760 C 2496.94 1.22378 -1.18142 0
M  V30 25761 O 2498.13 1.27322 -1.46638 0
M  V30 25762 C 2495.26 1.94667 -2.87615 0
M  V30 25763 C 2494.21 1.58359 -3.97626 0
M  V30 25764 C 2493.54 2.88094 -4.50451 0
M  V30 25765 C 2494.84 0.796042 -5.16198 0
M  V30 25766 H 2496.53 0.179554 -2.98861 0
M  V30 25767 H 2494.08 0.0849212 -1.43749 0
M  V30 25768 H 2496.03 2.59367 -3.32124 0
M  V30 25769 H 2494.76 2.51725 -2.08092 0
M  V30 25770 H 2493.41 0.960185 -3.53802 0
M  V30 25771 H 2493.06 3.43235 -3.67694 0
M  V30 25772 H 2492.76 2.64547 -5.2468 0
M  V30 25773 H 2494.29 3.53789 -4.9766 0
M  V30 25774 H 2495.7 1.34608 -5.57273 0
M  V30 25775 H 2494.1 0.658823 -5.96473 0
M  V30 25776 H 2495.17 -0.203563 -4.84473 0
M  V30 25777 N 2496.51 1.57387 0.0818378 0
M  V30 25778 C 2497.74 1.91354 0.799912 0
M  V30 25779 C 2498.16 0.787288 1.70831 0
M  V30 25780 O 2497.52 -0.260448 1.7942 0
M  V30 25781 C 2497.57 3.24237 1.57806 0
M  V30 25782 O 2496.67 3.12762 2.68801 0
M  V30 25783 H 2496.01 0.626881 0.218899 0
M  V30 25784 H 2498.54 2.04531 0.0530896 0
M  V30 25785 H 2498.55 3.57868 1.95946 0
M  V30 25786 H 2497.23 4.05789 0.911476 0
M  V30 25787 H 2495.8 2.9067 2.33592 0
M  V30 25788 N 2497.99 -0.35299 1.53596 0
M  V30 25789 C 2498.92 -1.4388 1.83904 0
M  V30 25790 C 2499.9 -1.55323 0.693448 0
M  V30 25791 O 2501.08 -1.69686 0.944482 0
M  V30 25792 C 2498.21 -2.81057 2.04021 0
M  V30 25793 C 2497.17 -2.84428 3.19819 0
M  V30 25794 C 2496.49 -4.244 3.25252 0
M  V30 25795 C 2497.79 -2.50814 4.58137 0
M  V30 25796 H 2499.49 -1.18765 2.74837 0
M  V30 25797 H 2497.03 -0.569894 1.32243 0
M  V30 25798 H 2498.99 -3.57055 2.23807 0
M  V30 25799 H 2497.71 -3.07586 1.0981 0
M  V30 25800 H 2496.37 -2.10882 2.99874 0
M  V30 25801 H 2496.02 -4.48025 2.28654 0
M  V30 25802 H 2495.72 -4.27569 4.03061 0
M  V30 25803 H 2497.24 -5.02254 3.47237 0
M  V30 25804 H 2498.66 -3.16526 4.78001 0
M  V30 25805 H 2497.05 -2.65281 5.38281 0
M  V30 25806 H 2498.12 -1.46026 4.6239 0
M  V30 25807 N 2499.47 -1.45169 -0.613489 0
M  V30 25808 C 2500.72 -1.48583 -1.36994 0
M  V30 25809 C 2501.04 -0.126579 -1.94589 0
M  V30 25810 O 2500.31 0.843341 -1.76818 0
M  V30 25811 H 2498.89 -0.547163 -0.508549 0
M  V30 25812 H 2501.55 -1.81081 -0.720821 0
M  V30 25813 H 2500.64 -2.22131 -2.19236 0
M  V30 25814 N 2500.95 0.855472 -1.32361 0
M  V30 25815 C 2502.19 1.62346 -1.2419 0
M  V30 25816 C 2502.55 1.91022 0.193563 0
M  V30 25817 O 2503.75 2.65822 0.398993 0
M  V30 25818 C 2502.02 2.90877 -2.07666 0
M  V30 25819 S 2503.58 3.81665 -2.16512 0
M  V30 25820 H 2500.4 0.556849 -0.442086 0
M  V30 25821 H 2503 1.01314 -1.67199 0
M  V30 25822 H 2501.7 2.67756 -3.11022 0
M  V30 25823 H 2501.24 3.56926 -1.65431 0
M  V30 25824 H 2503.25 4.78485 -1.31402 0
M  V30 25825 N 2502.42 1.15558 1.07164 0
M  V30 25826 C 2503.84 0.898626 1.31897 0
M  V30 25827 C 2504.04 -0.453348 1.96334 0
M  V30 25828 O 2503.1 -1.19485 2.2244 0
M  V30 25829 C 2504.41 2.04103 2.20823 0
M  V30 25830 C 2505.96 2.07578 2.34266 0
M  V30 25831 C 2506.43 3.21147 3.26541 0
M  V30 25832 N 2507.92 3.20807 3.34122 0
M  V30 25833 C 2508.66 4.05322 4.05588 0
M  V30 25834 N 2508.15 4.99905 4.79652 0
M  V30 25835 N 2509.95 3.93339 4.01548 0
M  V30 25836 H 2502.1 2.02615 0.637267 0
M  V30 25837 H 2504.36 0.883597 0.343453 0
M  V30 25838 H 2504.07 3.01706 1.80739 0
M  V30 25839 H 2503.94 1.97502 3.21361 0
M  V30 25840 H 2506.33 1.10573 2.73601 0
M  V30 25841 H 2506.41 2.18246 1.33425 0
M  V30 25842 H 2506.05 4.18405 2.87923 0
M  V30 25843 H 2505.98 3.07715 4.27339 0
M  V30 25844 H 2508.47 2.52311 2.81331 0
M  V30 25845 H 2508.79 5.60831 5.31684 0
M  V30 25846 H 2507.13 5.03892 4.78662 0
M  V30 25847 H 2510.32 3.18757 3.428 0
M  V30 25848 H 2510.5 4.59428 4.56979 0
M  V30 25849 N 2503.9 -1.25546 0.952678 0
M  V30 25850 C 2505.15 -1.93493 0.607306 0
M  V30 25851 C 2505.48 -1.74453 -0.853214 0
M  V30 25852 O 2504.76 -1.08845 -1.61192 0
M  V30 25853 C 2505.04 -3.46945 0.964411 0
M  V30 25854 C 2504.89 -3.7522 2.48052 0
M  V30 25855 C 2506.21 -4.37385 0.488064 0
M  V30 25856 H 2503.33 -0.702735 0.222108 0
M  V30 25857 H 2505.97 -1.482 1.18898 0
M  V30 25858 H 2504.12 -3.85653 0.469429 0
M  V30 25859 H 2505.79 -3.4616 3.04911 0
M  V30 25860 H 2504.04 -3.20895 2.91906 0
M  V30 25861 H 2504.71 -4.82527 2.68089 0
M  V30 25862 H 2507.18 -4.05968 0.912629 0
M  V30 25863 H 2506.06 -5.4352 0.766643 0
M  V30 25864 H 2506.32 -4.37844 -0.611986 0
M  V30 25865 N 2505.38 -0.721022 -1.40139 0
M  V30 25866 C 2506.63 -0.262877 -2.00786 0
M  V30 25867 C 2506.95 1.1456 -1.57182 0
M  V30 25868 O 2506.21 1.79247 -0.785423 0
M  V30 25869 C 2506.51 -0.296955 -3.56164 0
M  V30 25870 C 2506.17 -1.65649 -4.1937 0
M  V30 25871 C 2504.84 -2.02863 -4.36349 0
M  V30 25872 C 2507.19 -2.54976 -4.54573 0
M  V30 25873 C 2504.52 -3.2894 -4.85814 0
M  V30 25874 C 2506.87 -3.80411 -5.05441 0
M  V30 25875 C 2505.53 -4.17735 -5.20628 0
M  V30 25876 H 2504.8 -0.0961936 -0.73473 0
M  V30 25877 H 2507.45 -0.925122 -1.67672 0
M  V30 25878 H 2505.75 0.448864 -3.8922 0
M  V30 25879 H 2507.45 0.0754503 -4.00929 0
M  V30 25880 H 2504.04 -1.35711 -4.06547 0
M  V30 25881 H 2508.23 -2.27499 -4.41087 0
M  V30 25882 H 2503.48 -3.57819 -4.95757 0
M  V30 25883 H 2507.66 -4.49795 -5.31655 0
M  V30 25884 H 2505.28 -5.15497 -5.58719 0
M  V30 25885 N 2506.86 1.50503 -0.467606 0
M  V30 25886 C 2508.09 2.0672 0.086377 0
M  V30 25887 C 2508.5 1.33186 1.33817 0
M  V30 25888 O 2507.86 0.400114 1.7806 0
M  V30 25889 C 2507.91 3.59518 0.378016 0
M  V30 25890 O 2507.63 4.30279 -0.82412 0
M  V30 25891 C 2509.13 4.32347 0.97935 0
M  V30 25892 H 2506.35 0.670977 -0.00552876 0
M  V30 25893 H 2508.89 1.93713 -0.655388 0
M  V30 25894 H 2507.05 3.72339 1.06971 0
M  V30 25895 H 2507.46 5.21431 -0.566609 0
M  V30 25896 H 2508.94 5.40243 1.1332 0
M  V30 25897 H 2509.41 3.92614 1.96853 0
M  V30 25898 H 2510.02 4.24048 0.326141 0
M  V30 25899 N 2508.34 0.200077 1.56325 0
M  V30 25900 C 2509.56 -0.442839 2.02105 0
M  V30 25901 C 2509.98 -1.54848 1.08017 0
M  V30 25902 O 2509.34 -1.82298 0.0859117 0
M  V30 25903 C 2509.39 -0.994522 3.47551 0
M  V30 25904 O 2509.11 0.0670092 4.38049 0
M  V30 25905 C 2510.61 -1.71282 4.08873 0
M  V30 25906 H 2507.83 -0.110679 0.661809 0
M  V30 25907 H 2510.37 0.310243 2.02133 0
M  V30 25908 H 2508.53 -1.69797 3.48207 0
M  V30 25909 H 2508.94 -0.34437 5.23368 0
M  V30 25910 H 2510.42 -2.05109 5.12479 0
M  V30 25911 H 2510.89 -2.61831 3.5262 0
M  V30 25912 H 2511.5 -1.05511 4.12004 0
M  V30 25913 N 2509.81 -1.57429 -0.0734901 0
M  V30 25914 C 2511.06 -1.87444 -0.774112 0
M  V30 25915 C 2511.39 -0.792134 -1.7731 0
M  V30 25916 O 2510.67 0.197759 -1.93492 0
M  V30 25917 C 2510.95 -3.28117 -1.48361 0
M  V30 25918 C 2510.8 -4.46999 -0.501149 0
M  V30 25919 C 2512.12 -3.67002 -2.42894 0
M  V30 25920 H 2509.24 -0.681757 -0.279959 0
M  V30 25921 H 2511.88 -1.89963 -0.0373282 0
M  V30 25922 H 2510.03 -3.26101 -2.11165 0
M  V30 25923 H 2511.71 -4.6114 0.121549 0
M  V30 25924 H 2509.95 -4.33411 0.18367 0
M  V30 25925 H 2510.62 -5.42207 -1.03517 0
M  V30 25926 H 2513.1 -3.70102 -1.90168 0
M  V30 25927 H 2511.97 -4.66323 -2.89541 0
M  V30 25928 H 2512.23 -2.96843 -3.27623 0
M  V30 25929 N 2511.29 0.344839 -1.53781 0
M  V30 25930 C 2512.54 1.08308 -1.70627 0
M  V30 25931 C 2512.86 1.89214 -0.471481 0
M  V30 25932 O 2512.13 1.89021 0.514583 0
M  V30 25933 H 2510.71 0.402848 -0.629065 0
M  V30 25934 H 2513.37 0.386426 -1.91031 0
M  V30 25935 H 2512.47 1.7612 -2.57659 0
M  V30 25936 N 2512.77 1.45492 0.605781 0
M  V30 25937 C 2513.99 1.53363 1.39623 0
M  V30 25938 C 2514.42 0.167678 1.87351 0
M  V30 25939 O 2513.78 -0.848023 1.60244 0
M  V30 25940 C 2513.83 2.52385 2.57554 0
M  V30 25941 O 2512.93 2.04291 3.58244 0
M  V30 25942 H 2512.27 0.516919 0.416762 0
M  V30 25943 H 2514.8 1.90862 0.73707 0
M  V30 25944 H 2514.81 2.71249 3.04775 0
M  V30 25945 H 2513.49 3.5159 2.22165 0
M  V30 25946 H 2512.06 1.95311 3.1766 0
M  V30 25947 N 2514.25 -0.848441 1.32813 0
M  V30 25948 C 2515.21 -1.93908 1.22198 0
M  V30 25949 C 2516.21 -1.60159 0.143432 0
M  V30 25950 O 2517.4 -1.69679 0.394283 0
M  V30 25951 C 2514.53 -3.29327 0.880728 0
M  V30 25952 H 2515.73 -2.04748 2.19131 0
M  V30 25953 H 2513.28 -1.03938 1.16733 0
M  V30 25954 H 2514.01 -3.24185 -0.0865206 0
M  V30 25955 H 2513.8 -3.552 1.66059 0
M  V30 25956 H 2515.29 -4.09249 0.830943 0
M  V30 25957 N 2515.73 -1.16125 -1.06549 0
M  V30 25958 C 2516.64 -0.8797 -2.17482 0
M  V30 25959 C 2517.65 0.147074 -1.73377 0
M  V30 25960 O 2518.83 -0.0289482 -2.01379 0
M  V30 25961 C 2515.89 -0.38189 -3.4459 0
M  V30 25962 C 2514.95 -1.47357 -4.03218 0
M  V30 25963 C 2514.19 -0.999417 -5.24259 0
M  V30 25964 O 2514.41 0.151857 -5.70198 0
M  V30 25965 O 2513.34 -1.78663 -5.74772 0
M  V30 25966 H 2517.17 -1.80728 -2.44072 0
M  V30 25967 H 2514.76 -0.941012 -1.1604 0
M  V30 25968 H 2516.64 -0.111127 -4.21253 0
M  V30 25969 H 2515.31 0.517714 -3.19533 0
M  V30 25970 H 2514.22 -1.79804 -3.28057 0
M  V30 25971 H 2515.55 -2.34838 -4.32564 0
M  V30 25972 N 2517.2 1.25039 -0.959323 0
M  V30 25973 C 2518.15 2.25709 -0.482097 0
M  V30 25974 C 2519.12 1.59373 0.467911 0
M  V30 25975 O 2520.31 1.86975 0.380126 0
M  V30 25976 C 2517.45 3.44336 0.229562 0
M  V30 25977 C 2516.56 4.25294 -0.758231 0
M  V30 25978 C 2515.69 5.31195 -0.0235337 0
M  V30 25979 C 2514.73 6.03844 -1.00195 0
M  V30 25980 N 2513.87 7.01468 -0.297814 0
M  V30 25981 H 2518.71 2.65899 -1.34543 0
M  V30 25982 H 2516.25 1.30719 -0.674615 0
M  V30 25983 H 2518.21 4.11966 0.658784 0
M  V30 25984 H 2516.84 3.05007 1.05691 0
M  V30 25985 H 2515.89 3.57281 -1.30592 0
M  V30 25986 H 2517.2 4.75564 -1.50467 0
M  V30 25987 H 2516.35 6.04922 0.464095 0
M  V30 25988 H 2515.09 4.8181 0.755657 0
M  V30 25989 H 2514.1 5.28927 -1.50053 0
M  V30 25990 H 2515.32 6.55318 -1.78145 0
M  V30 25991 H 2513.27 6.54367 0.462553 0
M  V30 25992 H 2513.19 7.49579 -0.98326 0
M  V30 25993 H 2514.45 7.79319 0.168123 0
M  V30 25994 N 2518.68 0.728444 1.39755 0
M  V30 25995 C 2520.1 0.403335 1.54419 0
M  V30 25996 C 2520.3 -1.08653 1.69696 0
M  V30 25997 O 2519.35 -1.87264 1.69376 0
M  V30 25998 C 2520.67 1.18063 2.76553 0
M  V30 25999 C 2522.22 1.16821 2.90382 0
M  V30 26000 C 2522.69 1.92793 4.15446 0
M  V30 26001 N 2524.18 1.89926 4.22472 0
M  V30 26002 C 2524.92 2.45523 5.18176 0
M  V30 26003 N 2524.41 3.0973 6.19709 0
M  V30 26004 N 2526.21 2.35593 5.10345 0
M  V30 26005 H 2518.36 1.69433 1.28086 0
M  V30 26006 H 2520.62 0.716878 0.620314 0
M  V30 26007 H 2520.33 2.23459 2.71586 0
M  V30 26008 H 2520.2 0.780727 3.69032 0
M  V30 26009 H 2522.59 0.122392 2.94846 0
M  V30 26010 H 2522.67 1.60743 1.98986 0
M  V30 26011 H 2522.31 2.97371 4.11744 0
M  V30 26012 H 2522.24 1.46281 5.05875 0
M  V30 26013 H 2524.73 1.43144 3.4974 0
M  V30 26014 H 2525.05 3.49637 6.89184 0
M  V30 26015 H 2523.39 3.13818 6.20116 0
M  V30 26016 H 2526.58 1.8508 4.29957 0
M  V30 26017 H 2526.75 2.79221 5.84756 0
M  V30 26018 N 2520.16 -1.50253 0.475581 0
M  V30 26019 C 2521.12 -2.27162 -0.304976 0
M  V30 26020 C 2522.12 -1.32125 -0.916496 0
M  V30 26021 O 2523.31 -1.55511 -0.784976 0
M  V30 26022 C 2520.45 -3.0923 -1.43491 0
M  V30 26023 H 2521.64 -2.97614 0.369564 0
M  V30 26024 H 2519.19 -1.54602 0.229774 0
M  V30 26025 H 2519.93 -2.43284 -2.14437 0
M  V30 26026 H 2519.71 -3.79077 -1.00217 0
M  V30 26027 H 2521.2 -3.67384 -1.98541 0
M  V30 26028 N 2521.64 -0.208365 -1.56217 0
M  V30 26029 C 2522.87 0.431488 -2.02044 0
M  V30 26030 C 2523.28 1.54817 -1.08758 0
M  V30 26031 O 2522.62 1.83494 -0.0870331 0
M  V30 26032 C 2522.68 1.03627 -3.44241 0
M  V30 26033 C 2522.35 0.0566699 -4.56965 0
M  V30 26034 C 2523.34 -0.738864 -5.14623 0
M  V30 26035 C 2521.03 -0.0582619 -5.02266 0
M  V30 26036 C 2523.02 -1.63616 -6.16043 0
M  V30 26037 C 2520.71 -0.959107 -6.03527 0
M  V30 26038 C 2521.71 -1.74661 -6.6029 0
M  V30 26039 O 2521.39 -2.63234 -7.59581 0
M  V30 26040 H 2521.13 0.111302 -0.666774 0
M  V30 26041 H 2523.68 -0.318313 -2.02919 0
M  V30 26042 H 2521.91 1.83491 -3.40394 0
M  V30 26043 H 2523.6 1.58215 -3.73795 0
M  V30 26044 H 2524.37 -0.660448 -4.80482 0
M  V30 26045 H 2520.24 0.544553 -4.57772 0
M  V30 26046 H 2523.79 -2.25128 -6.60275 0
M  V30 26047 H 2519.69 -1.03859 -6.3709 0
M  V30 26048 H 2520.45 -2.57161 -7.77052 0
M  V30 26049 N 2523.12 1.57465 0.0651402 0
M  V30 26050 C 2524.05 2.07184 1.0769 0
M  V30 26051 C 2525.03 0.966697 1.39961 0
M  V30 26052 O 2526.21 1.23982 1.49472 0
M  V30 26053 C 2523.34 2.52131 2.38845 0
M  V30 26054 C 2522.3 3.66582 2.2091 0
M  V30 26055 C 2521.62 3.97608 3.57508 0
M  V30 26056 C 2522.92 4.96383 1.62485 0
M  V30 26057 H 2524.62 2.91964 0.663148 0
M  V30 26058 H 2522.16 1.40455 0.317544 0
M  V30 26059 H 2524.12 2.85528 3.09923 0
M  V30 26060 H 2522.84 1.64389 2.82213 0
M  V30 26061 H 2521.5 3.33479 1.52273 0
M  V30 26062 H 2521.15 3.06986 3.98458 0
M  V30 26063 H 2520.85 4.74678 3.46345 0
M  V30 26064 H 2522.37 4.33506 4.30006 0
M  V30 26065 H 2523.78 5.27967 2.23435 0
M  V30 26066 H 2522.18 5.7782 1.61999 0
M  V30 26067 H 2523.25 4.81334 0.586956 0
M  V30 26068 N 2524.59 -0.336679 1.53962 0
M  V30 26069 C 2525.53 -1.43457 1.78753 0
M  V30 26070 C 2526.54 -1.48417 0.669045 0
M  V30 26071 O 2527.73 -1.51376 0.94591 0
M  V30 26072 C 2524.83 -2.82075 1.87848 0
M  V30 26073 C 2524 -3.00473 3.17859 0
M  V30 26074 C 2523.06 -4.19374 3.17824 0
M  V30 26075 O 2522.09 -4.13161 3.91518 0
M  V30 26076 N 2523.29 -5.28256 2.40678 0
M  V30 26077 H 2526.05 -1.22558 2.73495 0
M  V30 26078 H 2523.61 -0.526598 1.53097 0
M  V30 26079 H 2525.61 -3.59803 1.85268 0
M  V30 26080 H 2524.18 -2.96085 1.00263 0
M  V30 26081 H 2523.4 -2.10157 3.33508 0
M  V30 26082 H 2524.68 -3.09653 4.03723 0
M  V30 26083 H 2524.08 -5.36175 1.80369 0
M  V30 26084 H 2522.64 -6.04452 2.43888 0
M  V30 26085 N 2526.07 -1.45812 -0.598057 0
M  V30 26086 C 2527.04 -1.54811 -1.69015 0
M  V30 26087 C 2528.04 -0.426679 -1.55036 0
M  V30 26088 O 2529.23 -0.690485 -1.59931 0
M  V30 26089 C 2526.36 -1.45377 -3.08348 0
M  V30 26090 H 2527.55 -2.52124 -1.62399 0
M  V30 26091 H 2525.1 -1.33394 -0.814603 0
M  V30 26092 H 2525.84 -0.49285 -3.20533 0
M  V30 26093 H 2525.62 -2.26726 -3.19903 0
M  V30 26094 H 2527.11 -1.54728 -3.87878 0
M  V30 26095 N 2527.55 0.841385 -1.33261 0
M  V30 26096 C 2528.97 1.13167 -1.1254 0
M  V30 26097 C 2529.17 2.01319 0.0853683 0
M  V30 26098 O 2528.22 2.40589 0.766374 0
M  V30 26099 C 2529.54 1.79619 -2.41159 0
M  V30 26100 C 2531.08 1.92196 -2.47042 0
M  V30 26101 C 2531.56 2.62064 -3.75615 0
M  V30 26102 N 2533.05 2.69578 -3.76672 0
M  V30 26103 C 2533.78 3.24322 -4.72867 0
M  V30 26104 N 2533.28 3.79773 -5.79435 0
M  V30 26105 N 2535.07 3.2255 -4.60345 0
M  V30 26106 H 2527.22 0.254639 -2.10868 0
M  V30 26107 H 2529.49 0.175476 -0.931618 0
M  V30 26108 H 2529.19 1.22305 -3.29749 0
M  V30 26109 H 2529.07 2.79661 -2.53119 0
M  V30 26110 H 2531.45 2.48664 -1.58903 0
M  V30 26111 H 2531.54 0.911106 -2.39024 0
M  V30 26112 H 2531.18 2.06255 -4.64135 0
M  V30 26113 H 2531.11 3.63616 -3.80909 0
M  V30 26114 H 2533.6 2.30254 -2.99652 0
M  V30 26115 H 2533.91 4.19741 -6.48874 0
M  V30 26116 H 2532.26 3.78067 -5.83172 0
M  V30 26117 H 2535.45 2.78486 -3.76249 0
M  V30 26118 H 2535.62 3.64912 -5.35484 0
M  V30 26119 N 2529.03 1.16688 1.05932 0
M  V30 26120 C 2530.28 0.950653 1.78798 0
M  V30 26121 C 2530.6 -0.521272 1.87385 0
M  V30 26122 O 2529.86 -1.40294 1.36441 0
M  V30 26123 C 2530.16 1.52773 3.23102 0
M  V30 26124 C 2529.82 3.0226 3.34589 0
M  V30 26125 C 2528.49 3.43065 3.37431 0
M  V30 26126 C 2530.84 3.9826 3.36212 0
M  V30 26127 C 2528.17 4.78483 3.39516 0
M  V30 26128 C 2530.52 5.33568 3.39835 0
M  V30 26129 C 2529.18 5.73848 3.40961 0
M  V30 26130 H 2528.45 0.347869 0.654269 0
M  V30 26131 H 2531.1 1.45461 1.24553 0
M  V30 26132 H 2529.4 0.945307 3.80225 0
M  V30 26133 H 2531.1 1.33606 3.78088 0
M  V30 26134 H 2527.69 2.69726 3.33085 0
M  V30 26135 H 2531.88 3.67798 3.33224 0
M  V30 26136 H 2527.13 5.09015 3.38694 0
M  V30 26137 H 2531.31 6.07739 3.40039 0
M  V30 26138 H 2528.93 6.78759 3.4233 0
M  V30 26139 N 2530.51 -1.24529 0.96594 0
M  V30 26140 C 2531.92 -1.74419 0.66596 0
M  V30 26141 C 2532.27 -1.78317 -0.818376 0
M  V30 26142 O 2531.39 -1.41144 -1.64035 0
M  V30 26143 C 2531.99 -3.16754 1.20217 0
M  V30 26144 C 2530.55 -3.64159 0.952123 0
M  V30 26145 C 2529.7 -2.42856 1.33852 0
M  V30 26146 H 2532.65 -1.10256 1.14146 0
M  V30 26147 H 2532.67 -3.76243 0.56761 0
M  V30 26148 H 2532.18 -3.13885 2.2825 0
M  V30 26149 H 2530.28 -3.72429 -0.112756 0
M  V30 26150 H 2530.39 -4.51716 1.59653 0
M  V30 26151 H 2528.76 -2.43193 0.756907 0
M  V30 26152 H 2529.54 -2.42668 2.42831 0
M  V30 26153 N 2531.99 -0.735845 -1.39367 0
M  V30 26154 C 2532.92 -0.0568126 -2.2913 0
M  V30 26155 C 2533.93 0.702563 -1.4686 0
M  V30 26156 O 2535.12 0.546586 -1.69926 0
M  V30 26157 C 2532.22 0.943765 -3.25494 0
M  V30 26158 C 2531.39 0.245734 -4.36709 0
M  V30 26159 C 2530.45 1.15454 -5.13378 0
M  V30 26160 O 2529.48 0.631704 -5.65684 0
M  V30 26161 N 2530.68 2.48418 -5.24661 0
M  V30 26162 H 2533.44 -0.827633 -2.88046 0
M  V30 26163 H 2531.01 -0.585138 -1.50956 0
M  V30 26164 H 2533 1.55437 -3.7366 0
M  V30 26165 H 2531.57 1.61579 -2.67602 0
M  V30 26166 H 2530.79 -0.545355 -3.90409 0
M  V30 26167 H 2532.08 -0.23798 -5.08243 0
M  V30 26168 H 2531.47 2.93371 -4.83684 0
M  V30 26169 H 2530.03 3.04572 -5.76263 0
M  V30 26170 N 2533.46 1.49999 -0.483543 0
M  V30 26171 C 2534.39 2.31644 0.293788 0
M  V30 26172 C 2535.37 1.39114 0.97884 0
M  V30 26173 O 2536.56 1.68031 0.973614 0
M  V30 26174 C 2533.69 3.19183 1.36892 0
M  V30 26175 C 2532.64 4.20366 0.804759 0
M  V30 26176 C 2531.97 4.96725 1.97911 0
M  V30 26177 C 2533.27 5.21945 -0.192404 0
M  V30 26178 H 2534.96 2.9688 -0.387668 0
M  V30 26179 H 2532.51 1.42769 -0.187881 0
M  V30 26180 H 2534.46 3.75103 1.9203 0
M  V30 26181 H 2533.19 2.51857 2.07932 0
M  V30 26182 H 2531.85 3.65565 0.275254 0
M  V30 26183 H 2531.49 4.25861 2.67678 0
M  V30 26184 H 2531.19 5.65176 1.60779 0
M  V30 26185 H 2532.72 5.55483 2.53516 0
M  V30 26186 H 2534.13 5.72663 0.270232 0
M  V30 26187 H 2532.53 5.98188 -0.478648 0
M  V30 26188 H 2533.6 4.71926 -1.11418 0
M  V30 26189 N 2534.94 0.216646 1.56104 0
M  V30 26190 C 2536.22 -0.465131 1.89989 0
M  V30 26191 C 2536.6 -1.781 1.13329 0
M  V30 26192 O 2535.95 -2.27225 0.241072 0
M  V30 26193 C 2536.16 -0.662878 3.42647 0
M  V30 26194 C 2537.5 -0.972529 4.13312 0
M  V30 26195 O 2538.53 -0.74984 3.48218 0
M  V30 26196 O 2537.39 -1.39489 5.28398 0
M  V30 26197 H 2534.48 -0.245262 0.789795 0
M  V30 26198 H 2537.03 0.258466 1.6772 0
M  V30 26199 H 2535.8 0.265499 3.90398 0
M  V30 26200 H 2535.42 -1.43814 3.70679 0
M  V30 26201 N 2536.42 -1.57498 -0.0567885 0
M  V30 26202 C 2537.64 -1.92602 -0.769368 0
M  V30 26203 C 2538.07 -0.814366 -1.69557 0
M  V30 26204 O 2537.43 0.231871 -1.79811 0
M  V30 26205 C 2537.48 -3.26706 -1.52628 0
M  V30 26206 O 2536.58 -3.16998 -2.63791 0
M  V30 26207 H 2535.92 -0.630284 -0.208898 0
M  V30 26208 H 2538.45 -2.0459 -0.0205438 0
M  V30 26209 H 2538.46 -3.6094 -1.90228 0
M  V30 26210 H 2537.14 -4.07188 -0.846803 0
M  V30 26211 H 2535.71 -2.9435 -2.28938 0
M  V30 26212 N 2537.9 0.328509 -1.54138 0
M  V30 26213 C 2539.13 1.0867 -1.76064 0
M  V30 26214 C 2539.54 1.81868 -0.506884 0
M  V30 26215 O 2538.9 1.7487 0.522192 0
M  V30 26216 C 2538.95 2.08861 -2.95058 0
M  V30 26217 O 2538.67 1.38637 -4.15586 0
M  V30 26218 C 2540.17 2.96937 -3.29155 0
M  V30 26219 H 2537.39 0.323451 -0.587895 0
M  V30 26220 H 2539.93 0.37614 -2.01011 0
M  V30 26221 H 2538.09 2.75459 -2.72399 0
M  V30 26222 H 2538.5 2.05691 -4.82485 0
M  V30 26223 H 2539.98 3.63143 -4.15729 0
M  V30 26224 H 2540.45 3.63769 -2.46107 0
M  V30 26225 H 2541.06 2.35908 -3.53875 0
M  V30 26226 N 2539.38 1.46127 0.590316 0
M  V30 26227 C 2540.6 1.54835 1.37988 0
M  V30 26228 C 2541.03 0.187539 1.87163 0
M  V30 26229 O 2540.38 -0.830979 1.61135 0
M  V30 26230 C 2540.43 2.55102 2.54863 0
M  V30 26231 O 2539.54 2.08079 3.56057 0
M  V30 26232 H 2538.88 0.521311 0.411256 0
M  V30 26233 H 2541.41 1.91633 0.716785 0
M  V30 26234 H 2541.42 2.74466 3.01881 0
M  V30 26235 H 2540.09 3.53927 2.18423 0
M  V30 26236 H 2538.67 1.98669 3.15571 0
M  V30 26237 N 2540.85 -0.834306 1.33705 0
M  V30 26238 C 2542.1 -1.58985 1.2542 0
M  V30 26239 C 2542.43 -1.93676 -0.178835 0
M  V30 26240 O 2541.68 -1.59267 -1.13721 0
M  V30 26241 C 2541.98 -2.90688 2.07931 0
M  V30 26242 C 2541.65 -2.75339 3.5707 0
M  V30 26243 C 2540.31 -2.7086 3.97729 0
M  V30 26244 C 2542.66 -2.5982 4.51822 0
M  V30 26245 C 2539.99 -2.48769 5.31348 0
M  V30 26246 C 2542.34 -2.39262 5.85608 0
M  V30 26247 C 2541.01 -2.33188 6.25444 0
M  V30 26248 H 2540.28 -0.581766 0.458944 0
M  V30 26249 H 2542.92 -0.966232 1.65337 0
M  V30 26250 H 2541.23 -3.5728 1.60806 0
M  V30 26251 H 2542.93 -3.4821 1.98874 0
M  V30 26252 H 2539.52 -2.79659 3.2479 0
M  V30 26253 H 2543.7 -2.62311 4.21315 0
M  V30 26254 H 2538.96 -2.42516 5.61245 0
M  V30 26255 H 2543.13 -2.26238 6.58627 0
M  V30 26256 H 2540.76 -2.1583 7.28918 0
M  V30 26257 N 2542.33 -1.17248 -1.05312 0
M  V30 26258 C 2543.29 -0.890394 -2.11198 0
M  V30 26259 C 2544.29 0.118915 -1.6036 0
M  V30 26260 O 2545.48 -0.113116 -1.73832 0
M  V30 26261 C 2542.62 -0.333481 -3.39265 0
M  V30 26262 H 2543.81 -1.8292 -2.37656 0
M  V30 26263 H 2541.36 -0.98278 -1.21537 0
M  V30 26264 H 2542.1 0.612531 -3.18463 0
M  V30 26265 H 2541.88 -1.06089 -3.77475 0
M  V30 26266 H 2543.37 -0.154395 -4.17314 0
M  V30 26267 N 2543.81 1.24015 -0.972531 0
M  V30 26268 C 2544.76 2.27193 -0.498602 0
M  V30 26269 C 2545.75 1.63577 0.440343 0
M  V30 26270 O 2546.96 1.77221 0.315102 0
M  V30 26271 H 2543.33 0.73832 -0.142787 0
M  V30 26272 H 2545.3 2.64536 -1.38069 0
M  V30 26273 C 2544.05 3.47175 0.191011 0
M  V30 26274 H 2543.38 3.96372 -0.522387 0
M  V30 26275 H 2544.82 4.21201 0.486371 0
M  V30 26276 C 2543.28 3.0553 1.41962 0
M  V30 26277 O 2543.81 3.13117 2.51636 0
M  V30 26278 N 2542.01 2.60526 1.28741 0
M  V30 26279 H 2541.56 2.54553 0.395044 0
M  V30 26280 H 2541.52 2.33028 2.11057 0
M  V30 26281 N 2545.29 0.743226 1.38974 0
M  V30 26282 C 2546.51 0.303972 2.0516 0
M  V30 26283 C 2546.94 -1.05573 1.55679 0
M  V30 26284 O 2546.3 -1.67067 0.704161 0
M  V30 26285 C 2546.34 0.324437 3.59138 0
M  V30 26286 O 2545.45 -0.685132 4.06669 0
M  V30 26287 H 2544.79 0.136529 0.649812 0
M  V30 26288 H 2547.32 1.01145 1.77851 0
M  V30 26289 H 2547.33 0.171689 4.07639 0
M  V30 26290 H 2546 1.31654 3.94512 0
M  V30 26291 H 2544.58 -0.497848 3.69562 0
M  V30 26292 N 2546.77 -1.4974 0.491491 0
M  V30 26293 C 2548.18 -1.58923 0.146863 0
M  V30 26294 C 2548.38 -1.49769 -1.34802 0
M  V30 26295 O 2547.44 -1.3667 -2.12314 0
M  V30 26296 C 2548.75 -2.92071 0.715208 0
M  V30 26297 C 2550.3 -3.05514 0.680461 0
M  V30 26298 C 2550.77 -4.41266 1.2267 0
M  V30 26299 N 2552.27 -4.47733 1.18699 0
M  V30 26300 C 2553 -5.51204 1.57994 0
M  V30 26301 N 2552.5 -6.61827 2.04835 0
M  V30 26302 N 2554.29 -5.41863 1.49469 0
M  V30 26303 H 2546.44 -1.53933 1.4635 0
M  V30 26304 H 2548.7 -0.728631 0.606466 0
M  V30 26305 H 2548.41 -3.04308 1.76322 0
M  V30 26306 H 2548.28 -3.76816 0.170246 0
M  V30 26307 H 2550.67 -2.92912 -0.358692 0
M  V30 26308 H 2550.75 -2.22476 1.26246 0
M  V30 26309 H 2550.4 -4.54619 2.26459 0
M  V30 26310 H 2550.33 -5.22929 0.620729 0
M  V30 26311 H 2552.82 -3.68362 0.84367 0
M  V30 26312 H 2553.13 -7.36866 2.32914 0
M  V30 26313 H 2551.47 -6.62892 2.08803 0
M  V30 26314 H 2554.67 -4.54331 1.127 0
M  V30 26315 H 2554.84 -6.22378 1.80417 0
M  V30 26316 N 2548.24 -0.224922 -1.55987 0
M  V30 26317 C 2549.52 0.455049 -1.90233 0
M  V30 26318 C 2549.9 1.77497 -1.14272 0
M  V30 26319 O 2549.25 2.27094 -0.253119 0
M  V30 26320 C 2549.46 0.644698 -3.42994 0
M  V30 26321 C 2550.81 0.950596 -4.13822 0
M  V30 26322 O 2551.83 0.731362 -3.48611 0
M  V30 26323 O 2550.69 1.36685 -5.29131 0
M  V30 26324 H 2547.78 0.24107 -0.791084 0
M  V30 26325 H 2550.33 -0.267357 -1.67581 0
M  V30 26326 H 2549.1 -0.286199 -3.90252 0
M  V30 26327 H 2548.73 1.41847 -3.71437 0
M  V30 26328 N 2549.72 1.57526 0.0484352 0
M  V30 26329 C 2550.95 1.92618 0.755387 0
M  V30 26330 C 2551.37 0.823014 1.69917 0
M  V30 26331 O 2550.72 -0.202053 1.81378 0
M  V30 26332 C 2550.77 3.27568 1.52909 0
M  V30 26333 O 2550.49 4.33645 0.623213 0
M  V30 26334 C 2552 3.76822 2.33495 0
M  V30 26335 H 2549.22 0.636144 0.213453 0
M  V30 26336 H 2551.76 2.04497 0.0117339 0
M  V30 26337 H 2549.91 3.17145 2.2248 0
M  V30 26338 H 2550.33 5.11427 1.16374 0
M  V30 26339 H 2551.8 4.73813 2.83205 0
M  V30 26340 H 2552.28 3.0702 3.14063 0
M  V30 26341 H 2552.89 3.90265 1.69036 0
M  V30 26342 N 2551.2 -0.32033 1.5431 0
M  V30 26343 C 2552.43 -1.08172 1.76956 0
M  V30 26344 C 2552.85 -1.8082 0.518225 0
M  V30 26345 O 2552.21 -1.73369 -0.530381 0
M  V30 26346 C 2552.26 -2.05298 2.96454 0
M  V30 26347 O 2551.36 -3.13255 2.68226 0
M  V30 26348 H 2550.7 -0.311723 0.586281 0
M  V30 26349 H 2553.23 -0.36364 2.01343 0
M  V30 26350 H 2553.24 -2.4811 3.23891 0
M  V30 26351 H 2551.92 -1.51822 3.87199 0
M  V30 26352 H 2550.49 -2.75094 2.51749 0
M  V30 26353 N 2552.68 -1.46438 -0.582558 0
M  V30 26354 C 2553.93 -1.51756 -1.34076 0
M  V30 26355 C 2554.25 -0.169333 -1.93761 0
M  V30 26356 O 2553.51 0.835031 -1.76991 0
M  V30 26357 C 2553.81 -2.56426 -2.48959 0
M  V30 26358 C 2553.47 -4.00439 -2.07266 0
M  V30 26359 C 2552.14 -4.39648 -1.9561 0
M  V30 26360 C 2554.49 -4.90906 -1.75103 0
M  V30 26361 C 2551.82 -5.67188 -1.5005 0
M  V30 26362 C 2554.17 -6.18883 -1.31021 0
M  V30 26363 C 2552.83 -6.56998 -1.17942 0
M  V30 26364 H 2552.1 -0.555313 -0.49062 0
M  V30 26365 H 2554.75 -1.79914 -0.655975 0
M  V30 26366 H 2553.05 -2.21928 -3.22885 0
M  V30 26367 H 2554.75 -2.5777 -3.07174 0
M  V30 26368 H 2551.34 -3.69446 -2.17272 0
M  V30 26369 H 2555.52 -4.61332 -1.82993 0
M  V30 26370 H 2550.78 -5.95491 -1.38567 0
M  V30 26371 H 2554.95 -6.8841 -1.05188 0
M  V30 26372 H 2552.58 -7.55719 -0.824146 0
M  V30 26373 N 2554.16 0.827204 -1.34146 0
M  V30 26374 C 2555.07 1.96973 -1.27432 0
M  V30 26375 C 2556.08 1.73038 -0.182758 0
M  V30 26376 O 2557.26 1.97214 -0.408461 0
M  V30 26377 C 2554.32 3.31192 -1.02532 0
M  V30 26378 C 2553.38 3.68164 -2.20802 0
M  V30 26379 C 2552.62 4.95978 -1.97081 0
M  V30 26380 O 2552.84 5.62818 -0.926921 0
M  V30 26381 O 2551.77 5.30728 -2.83921 0
M  V30 26382 H 2555.6 2.0558 -2.23541 0
M  V30 26383 H 2553.19 0.961969 -1.14309 0
M  V30 26384 H 2555.07 4.11587 -0.904099 0
M  V30 26385 H 2553.74 3.23562 -0.0945958 0
M  V30 26386 H 2552.65 2.88231 -2.38483 0
M  V30 26387 H 2553.98 3.80474 -3.1225 0
M  V30 26388 N 2555.63 1.17805 1.04688 0
M  V30 26389 C 2556.57 0.857135 2.1257 0
M  V30 26390 C 2557.58 -0.142619 1.62174 0
M  V30 26391 O 2558.77 0.0843701 1.783 0
M  V30 26392 C 2555.87 0.258275 3.37914 0
M  V30 26393 C 2555.04 1.30215 4.17568 0
M  V30 26394 C 2554.1 0.72012 5.21249 0
M  V30 26395 O 2553.13 1.39324 5.51885 0
M  V30 26396 N 2554.33 -0.485405 5.78467 0
M  V30 26397 H 2557.09 1.78567 2.40695 0
M  V30 26398 H 2554.65 1.07759 1.20829 0
M  V30 26399 H 2556.65 -0.144513 4.04442 0
M  V30 26400 H 2555.22 -0.574145 3.07282 0
M  V30 26401 H 2554.44 1.88049 3.46455 0
M  V30 26402 H 2555.72 2.00609 4.67582 0
M  V30 26403 H 2555.12 -1.05013 5.55868 0
M  V30 26404 H 2553.68 -0.830193 6.46491 0
M  V30 26405 N 2557.11 -1.23497 0.979094 0
M  V30 26406 C 2558.06 -2.22685 0.489417 0
M  V30 26407 C 2559.05 -1.54913 -0.434843 0
M  V30 26408 O 2560.24 -1.75021 -0.26391 0
M  V30 26409 C 2557.37 -3.42669 -0.208118 0
M  V30 26410 C 2556.45 -4.17671 0.735637 0
M  V30 26411 N 2556.84 -4.69655 1.87771 0
M  V30 26412 C 2555.14 -4.42612 0.548703 0
M  V30 26413 C 2555.84 -5.26705 2.46895 0
M  V30 26414 N 2554.82 -5.1456 1.75296 0
M  V30 26415 H 2558.62 -2.60506 1.36066 0
M  V30 26416 H 2556.14 -1.39012 0.839605 0
M  V30 26417 H 2558.13 -4.12899 -0.576223 0
M  V30 26418 H 2556.79 -3.06365 -1.07567 0
M  V30 26419 H 2557.8 -4.66039 2.25893 0
M  V30 26420 H 2554.48 -4.166 -0.273933 0
M  V30 26421 H 2555.87 -5.77555 3.43336 0
M  V30 26422 N 2558.59 -0.750586 -1.38578 0
M  V30 26423 C 2559.84 -0.30586 -2.0048 0
M  V30 26424 C 2560.17 1.10869 -1.59442 0
M  V30 26425 O 2559.45 1.75875 -0.830551 0
M  V30 26426 C 2559.73 -0.42535 -3.57579 0
M  V30 26427 C 2559.58 -1.88079 -4.08591 0
M  V30 26428 C 2560.9 0.183045 -4.39719 0
M  V30 26429 H 2558.02 -0.11261 -0.728346 0
M  V30 26430 H 2560.66 -0.949667 -1.64564 0
M  V30 26431 H 2558.81 0.122759 -3.88306 0
M  V30 26432 H 2560.48 -2.48698 -3.88519 0
M  V30 26433 H 2558.73 -2.39687 -3.61569 0
M  V30 26434 H 2559.4 -1.91557 -5.17697 0
M  V30 26435 H 2561.87 -0.284376 -4.15127 0
M  V30 26436 H 2560.75 0.0691792 -5.48856 0
M  V30 26437 H 2561.01 1.27099 -4.23436 0
M  V30 26438 N 2560.07 1.49477 -0.499425 0
M  V30 26439 C 2561 2.31943 0.269203 0
M  V30 26440 C 2561.98 1.40144 0.96403 0
M  V30 26441 O 2563.17 1.69054 0.955737 0
M  V30 26442 C 2560.3 3.20617 1.33499 0
M  V30 26443 C 2559.25 4.21196 0.760128 0
M  V30 26444 C 2558.58 4.98796 1.92631 0
M  V30 26445 C 2559.88 5.21712 -0.247753 0
M  V30 26446 H 2561.57 2.96452 -0.419134 0
M  V30 26447 H 2559.12 1.42562 -0.203013 0
M  V30 26448 H 2561.07 3.77119 1.88041 0
M  V30 26449 H 2559.79 2.54048 2.05249 0
M  V30 26450 H 2558.45 3.65837 0.236466 0
M  V30 26451 H 2558.1 4.28676 2.63146 0
M  V30 26452 H 2557.8 5.6685 1.54775 0
M  V30 26453 H 2559.32 5.58141 2.4761 0
M  V30 26454 H 2560.74 5.72917 0.209479 0
M  V30 26455 H 2559.13 5.97647 -0.542067 0
M  V30 26456 H 2560.2 4.70718 -1.16417 0
M  V30 26457 N 2561.55 0.233191 1.55865 0
M  V30 26458 C 2562.79 -0.389113 1.99643 0
M  V30 26459 C 2563.15 -1.56556 1.11839 0
M  V30 26460 O 2562.44 -1.90836 0.170882 0
M  V30 26461 C 2562.64 -0.861663 3.46858 0
M  V30 26462 C 2562.46 0.267454 4.48904 0
M  V30 26463 C 2561.23 0.737665 4.99887 0
M  V30 26464 C 2563.43 1.08975 5.02622 0
M  V30 26465 N 2561.41 1.84062 5.85657 0
M  V30 26466 C 2562.79 2.04135 5.85431 0
M  V30 26467 C 2564.84 1.12787 4.84957 0
M  V30 26468 C 2563.54 3.028 6.5246 0
M  V30 26469 C 2565.57 2.10276 5.52755 0
M  V30 26470 C 2564.93 3.04174 6.35341 0
M  V30 26471 H 2561.03 -0.108728 0.774404 0
M  V30 26472 H 2563.61 0.34763 1.91571 0
M  V30 26473 H 2561.79 -1.56773 3.55354 0
M  V30 26474 H 2563.52 -1.45776 3.77533 0
M  V30 26475 H 2560.27 0.324205 4.72489 0
M  V30 26476 H 2560.7 2.39446 6.33242 0
M  V30 26477 H 2565.34 0.415823 4.2075 0
M  V30 26478 H 2563.06 3.74961 7.15842 0
M  V30 26479 H 2566.64 2.13914 5.41047 0
M  V30 26480 H 2565.52 3.78378 6.86877 0
M  V30 26481 N 2563.03 -1.57549 -0.0400806 0
M  V30 26482 C 2563.98 -2.02294 -1.05171 0
M  V30 26483 C 2564.96 -0.910317 -1.32673 0
M  V30 26484 O 2566.15 -1.17423 -1.32442 0
M  V30 26485 C 2563.28 -2.49678 -2.35618 0
M  V30 26486 C 2562.37 -3.67739 -2.11255 0
M  V30 26487 N 2562.76 -4.80845 -1.56914 0
M  V30 26488 C 2561.06 -3.74901 -2.41589 0
M  V30 26489 C 2561.76 -5.62531 -1.48101 0
M  V30 26490 N 2560.73 -5.07316 -1.95273 0
M  V30 26491 H 2564.53 -2.87169 -0.625405 0
M  V30 26492 H 2562.05 -1.60517 -0.246596 0
M  V30 26493 H 2564.05 -2.79989 -3.08888 0
M  V30 26494 H 2562.71 -1.66205 -2.78937 0
M  V30 26495 H 2563.72 -5.02505 -1.25336 0
M  V30 26496 H 2560.39 -3.02206 -2.88059 0
M  V30 26497 H 2561.78 -6.63378 -1.06671 0
M  V30 26498 N 2564.5 0.312142 -1.54478 0
M  V30 26499 C 2565.73 1.06796 -1.77206 0
M  V30 26500 C 2566.15 1.81321 -0.526145 0
M  V30 26501 O 2565.5 1.75414 0.503616 0
M  V30 26502 C 2565.55 2.0572 -2.97257 0
M  V30 26503 O 2565.28 1.34221 -4.17033 0
M  V30 26504 C 2566.78 2.93429 -3.32286 0
M  V30 26505 H 2564 0.317197 -0.591293 0
M  V30 26506 H 2566.54 0.354799 -2.01399 0
M  V30 26507 H 2564.7 2.72555 -2.75305 0
M  V30 26508 H 2565.11 2.00562 -4.84639 0
M  V30 26509 H 2566.58 3.58714 -4.19558 0
M  V30 26510 H 2567.06 3.61138 -2.49951 0
M  V30 26511 H 2567.67 2.32141 -3.56357 0
M  V30 26512 N 2565.98 1.46745 0.574784 0
M  V30 26513 C 2567.23 1.52163 1.33006 0
M  V30 26514 C 2567.55 0.178126 1.94185 0
M  V30 26515 O 2566.82 -0.796165 1.78992 0
M  V30 26516 H 2565.4 0.560454 0.493863 0
M  V30 26517 H 2568.06 1.82928 0.672557 0
M  V30 26518 H 2567.16 2.27866 2.13269 0
M  V30 26519 N 2567.46 -0.820078 1.34583 0
M  V30 26520 C 2568.71 -1.57334 1.26848 0
M  V30 26521 C 2569.03 -1.94337 -0.160633 0
M  V30 26522 O 2568.3 -1.62512 -1.09393 0
M  V30 26523 H 2566.88 -0.583407 0.466525 0
M  V30 26524 H 2569.54 -0.978998 1.68528 0
M  V30 26525 H 2568.64 -2.49487 1.87517 0
M  V30 26526 N 2568.94 -1.18359 -1.04062 0
M  V30 26527 C 2569.88 -0.91064 -2.12075 0
M  V30 26528 C 2570.85 0.149971 -1.65422 0
M  V30 26529 O 2572.04 0.0103279 -1.90797 0
M  V30 26530 C 2569.18 -0.442532 -3.42251 0
M  V30 26531 C 2568.29 -1.56857 -4.02517 0
M  V30 26532 C 2567.43 -1.05318 -5.20655 0
M  V30 26533 C 2566.47 -2.1539 -5.72951 0
M  V30 26534 N 2565.6 -1.65245 -6.82377 0
M  V30 26535 H 2570.44 -1.83552 -2.34761 0
M  V30 26536 H 2567.98 -0.915299 -1.15155 0
M  V30 26537 H 2569.94 -0.152607 -4.16921 0
M  V30 26538 H 2568.57 0.445372 -3.19713 0
M  V30 26539 H 2567.62 -1.97397 -3.25175 0
M  V30 26540 H 2568.93 -2.39832 -4.37358 0
M  V30 26541 H 2568.09 -0.717782 -6.02439 0
M  V30 26542 H 2566.83 -0.193016 -4.87318 0
M  V30 26543 H 2565.83 -2.49775 -4.89788 0
M  V30 26544 H 2567.06 -3.01842 -6.08332 0
M  V30 26545 H 2565 -0.815178 -6.50915 0
M  V30 26546 H 2564.92 -2.41818 -7.16282 0
M  V30 26547 H 2566.19 -1.34633 -7.67785 0
M  V30 26548 N 2570.42 1.22976 -0.98563 0
M  V30 26549 C 2571.66 1.91153 -0.656121 0
M  V30 26550 C 2571.98 1.77219 0.81353 0
M  V30 26551 O 2571.25 1.15483 1.58242 0
M  V30 26552 H 2569.83 0.707502 -0.239687 0
M  V30 26553 H 2572.5 1.49488 -1.25057 0
M  V30 26554 H 2571.59 2.98468 -0.912305 0
M  V30 26555 N 2571.89 0.757924 1.38178 0
M  V30 26556 C 2573.14 0.316488 2.00315 0
M  V30 26557 C 2573.47 -1.10022 1.60028 0
M  V30 26558 O 2572.75 -1.75432 0.839866 0
M  V30 26559 C 2573.03 0.444307 3.57348 0
M  V30 26560 C 2572.88 1.90243 4.07587 0
M  V30 26561 C 2574.2 -0.159723 4.3981 0
M  V30 26562 H 2571.32 0.116471 0.727739 0
M  V30 26563 H 2573.96 0.958381 1.64058 0
M  V30 26564 H 2572.11 -0.102165 3.88366 0
M  V30 26565 H 2573.79 2.50755 3.87195 0
M  V30 26566 H 2572.03 2.41602 3.60293 0
M  V30 26567 H 2572.7 1.943 5.16673 0
M  V30 26568 H 2575.18 0.306387 4.1497 0
M  V30 26569 H 2574.05 -0.040071 5.48885 0
M  V30 26570 H 2574.31 -1.24851 4.24104 0
M  V30 26571 N 2573.37 -1.4921 0.507345 0
M  V30 26572 C 2574.65 -1.95353 -0.0982359 0
M  V30 26573 C 2575.03 -1.44903 -1.53513 0
M  V30 26574 O 2574.38 -0.665548 -2.18593 0
M  V30 26575 C 2574.59 -3.49 -0.00434148 0
M  V30 26576 C 2575.94 -4.24239 -0.175072 0
M  V30 26577 O 2576.96 -3.56112 -0.0792265 0
M  V30 26578 O 2575.82 -5.45228 -0.372664 0
M  V30 26579 H 2572.91 -0.821888 -0.0918091 0
M  V30 26580 H 2575.46 -1.59829 0.570335 0
M  V30 26581 H 2574.23 -3.78373 0.997468 0
M  V30 26582 H 2573.85 -3.91159 -0.712776 0
M  V30 26583 N 2574.85 -0.241454 -1.55739 0
M  V30 26584 C 2575.78 0.654682 -2.24134 0
M  V30 26585 C 2576.76 1.18558 -1.21976 0
M  V30 26586 O 2577.95 1.22592 -1.50615 0
M  V30 26587 C 2575.08 1.85418 -2.93662 0
M  V30 26588 C 2574.03 1.45629 -4.02463 0
M  V30 26589 C 2573.36 2.73618 -4.59388 0
M  V30 26590 C 2574.66 0.631415 -5.18469 0
M  V30 26591 H 2576.35 0.0843827 -2.99281 0
M  V30 26592 H 2573.9 0.0391454 -1.43947 0
M  V30 26593 H 2575.85 2.4867 -3.40208 0
M  V30 26594 H 2574.57 2.44977 -2.15995 0
M  V30 26595 H 2573.23 0.84714 -3.56678 0
M  V30 26596 H 2572.88 3.31363 -3.78428 0
M  V30 26597 H 2572.58 2.47721 -5.3283 0
M  V30 26598 H 2574.1 3.37777 -5.08664 0
M  V30 26599 H 2575.52 1.1681 -5.61274 0
M  V30 26600 H 2573.92 0.468726 -5.98267 0
M  V30 26601 H 2574.99 -0.357591 -4.8358 0
M  V30 26602 N 2576.33 1.57568 0.0317248 0
M  V30 26603 C 2577.57 1.89431 0.724142 0
M  V30 26604 C 2577.91 0.838867 1.75148 0
M  V30 26605 O 2577.18 -0.146388 1.93948 0
M  V30 26606 C 2577.47 3.31936 1.3961 0
M  V30 26607 C 2577.32 4.48171 0.382458 0
M  V30 26608 C 2578.64 3.73313 2.33078 0
M  V30 26609 H 2575.76 0.68894 0.261785 0
M  V30 26610 H 2578.4 1.89996 -0.0130504 0
M  V30 26611 H 2576.55 3.31585 2.02445 0
M  V30 26612 H 2578.22 4.60655 -0.24377 0
M  V30 26613 H 2576.46 4.32772 -0.298516 0
M  V30 26614 H 2577.13 5.44761 0.891049 0
M  V30 26615 H 2579.61 3.75014 1.80289 0
M  V30 26616 H 2578.49 4.73836 2.77076 0
M  V30 26617 H 2578.75 3.05425 3.19637 0
M  V30 26618 N 2577.81 -0.303946 1.54641 0
M  V30 26619 C 2578.74 -1.37957 1.88389 0
M  V30 26620 C 2579.72 -1.53038 0.742512 0
M  V30 26621 O 2580.9 -1.66595 0.997988 0
M  V30 26622 C 2578.03 -2.74424 2.12859 0
M  V30 26623 C 2576.99 -2.7411 3.28706 0
M  V30 26624 C 2576.31 -4.13838 3.38589 0
M  V30 26625 C 2577.61 -2.36112 4.65885 0
M  V30 26626 H 2579.31 -1.09961 2.78476 0
M  V30 26627 H 2576.85 -0.527533 1.33989 0
M  V30 26628 H 2578.81 -3.49754 2.35053 0
M  V30 26629 H 2577.53 -3.03937 1.1954 0
M  V30 26630 H 2576.19 -2.01235 3.06431 0
M  V30 26631 H 2575.84 -4.40524 2.42792 0
M  V30 26632 H 2575.54 -4.1453 4.1646 0
M  V30 26633 H 2577.06 -4.90953 3.6304 0
M  V30 26634 H 2578.47 -3.01158 4.87829 0
M  V30 26635 H 2576.87 -2.48021 5.46448 0
M  V30 26636 H 2577.94 -1.31241 4.66802 0
M  V30 26637 N 2579.28 -1.47047 -0.566994 0
M  V30 26638 C 2580.23 -1.59191 -1.69591 0
M  V30 26639 C 2581.23 -0.459638 -1.63045 0
M  V30 26640 O 2582.43 -0.637087 -1.68348 0
M  V30 26641 H 2578.81 -0.500801 -0.560984 0
M  V30 26642 H 2580.78 -2.54078 -1.56483 0
M  V30 26643 C 2579.53 -1.61417 -3.07961 0
M  V30 26644 H 2578.85 -2.47887 -3.13675 0
M  V30 26645 H 2580.29 -1.73965 -3.86668 0
M  V30 26646 C 2578.75 -0.345649 -3.35122 0
M  V30 26647 O 2579.28 0.557451 -3.97813 0
M  V30 26648 N 2577.49 -0.228691 -2.89699 0
M  V30 26649 H 2577.03 -0.964521 -2.38861 0
M  V30 26650 H 2576.99 0.619138 -3.08243 0
M  V30 26651 N 2580.76 0.812929 -1.35016 0
M  V30 26652 C 2581.99 1.60636 -1.3119 0
M  V30 26653 C 2582.41 1.87782 0.109349 0
M  V30 26654 O 2581.77 1.46049 1.07421 0
M  V30 26655 C 2581.82 2.91834 -2.11814 0
M  V30 26656 O 2580.92 3.84367 -1.49451 0
M  V30 26657 H 2580.26 0.488173 -0.450092 0
M  V30 26658 H 2582.79 1.00944 -1.77965 0
M  V30 26659 H 2582.8 3.41314 -2.23537 0
M  V30 26660 H 2581.48 2.71401 -3.15142 0
M  V30 26661 H 2580.06 3.42904 -1.4653 0
M  V30 26662 N 2582.24 1.18909 1.03433 0
M  V30 26663 C 2583.17 0.945486 2.13501 0
M  V30 26664 C 2584.15 -0.119159 1.69682 0
M  V30 26665 O 2585.34 0.0347411 1.94169 0
M  V30 26666 C 2582.47 0.477377 3.44003 0
M  V30 26667 C 2581.42 1.48323 4.01478 0
M  V30 26668 C 2580.75 0.872404 5.27535 0
M  V30 26669 C 2582.05 2.86185 4.36916 0
M  V30 26670 H 2583.74 1.86601 2.34138 0
M  V30 26671 H 2581.29 0.898604 1.12522 0
M  V30 26672 H 2583.24 0.294278 4.20371 0
M  V30 26673 H 2581.96 -0.478729 3.23072 0
M  V30 26674 H 2580.62 1.65338 3.27198 0
M  V30 26675 H 2580.27 -0.0910868 5.02918 0
M  V30 26676 H 2579.97 1.54403 5.66951 0
M  V30 26677 H 2581.49 0.699978 6.06575 0
M  V30 26678 H 2582.91 2.72785 5.04243 0
M  V30 26679 H 2581.31 3.50089 4.87399 0
M  V30 26680 H 2582.38 3.39254 3.4646 0
M  V30 26681 N 2583.72 -1.22452 0.992137 0
M  V30 26682 C 2584.68 -2.22579 0.546922 0
M  V30 26683 C 2585.68 -1.5649 -0.369802 0
M  V30 26684 O 2586.87 -1.73446 -0.161865 0
M  V30 26685 C 2584 -3.40285 -0.204599 0
M  V30 26686 H 2585.2 -2.63482 1.43239 0
M  V30 26687 H 2582.75 -1.35489 0.779263 0
M  V30 26688 H 2583.48 -3.04854 -1.10609 0
M  V30 26689 H 2583.27 -3.89467 0.453609 0
M  V30 26690 H 2584.76 -4.14544 -0.504285 0
M  V30 26691 N 2585.2 -0.765242 -1.37774 0
M  V30 26692 C 2586.11 -0.147707 -2.34135 0
M  V30 26693 C 2587.12 0.687187 -1.59855 0
M  V30 26694 O 2588.3 0.608626 -1.91984 0
M  V30 26695 C 2585.36 0.726111 -3.39011 0
M  V30 26696 C 2584.42 -0.124492 -4.29119 0
M  V30 26697 C 2583.66 0.707715 -5.28987 0
M  V30 26698 O 2583.88 1.94515 -5.36209 0
M  V30 26699 O 2582.81 0.120354 -6.0178 0
M  V30 26700 H 2586.64 -0.943808 -2.88662 0
M  V30 26701 H 2584.23 -0.526302 -1.39823 0
M  V30 26702 H 2586.11 1.22517 -4.03197 0
M  V30 26703 H 2584.78 1.50051 -2.86821 0
M  V30 26704 H 2583.69 -0.669761 -3.68056 0
M  V30 26705 H 2585.02 -0.861821 -4.84596 0
M  V30 26706 N 2586.67 1.48939 -0.515251 0
M  V30 26707 C 2587.58 2.33158 0.259733 0
M  V30 26708 C 2588.6 1.4555 0.953475 0
M  V30 26709 O 2589.78 1.78553 0.931703 0
M  V30 26710 C 2586.84 3.21329 1.30187 0
M  V30 26711 C 2585.9 4.24799 0.620054 0
M  V30 26712 C 2585.14 5.08756 1.61254 0
M  V30 26713 O 2585.36 4.94453 2.84381 0
M  V30 26714 O 2584.29 5.90616 1.16003 0
M  V30 26715 H 2588.12 3.00641 -0.429984 0
M  V30 26716 H 2585.7 1.46821 -0.276372 0
M  V30 26717 H 2587.59 3.75909 1.90448 0
M  V30 26718 H 2586.26 2.56524 1.97426 0
M  V30 26719 H 2585.17 3.74093 -0.0226677 0
M  V30 26720 H 2586.5 4.92199 -0.0101358 0
M  V30 26721 N 2588.15 0.249709 1.55609 0
M  V30 26722 C 2589.1 -0.648655 2.21497 0
M  V30 26723 C 2590.07 -1.16919 1.17979 0
M  V30 26724 O 2591.26 -1.22315 1.46437 0
M  V30 26725 C 2588.4 -1.83863 2.92042 0
M  V30 26726 C 2587.51 -1.35435 4.10221 0
M  V30 26727 C 2586.64 -2.50411 4.68474 0
M  V30 26728 C 2585.68 -1.98859 5.78897 0
M  V30 26729 N 2584.82 -3.07212 6.3132 0
M  V30 26730 H 2589.66 -0.0801058 2.97892 0
M  V30 26731 H 2587.2 -0.0277773 1.47074 0
M  V30 26732 H 2589.15 -2.53772 3.31143 0
M  V30 26733 H 2587.78 -2.37961 2.18116 0
M  V30 26734 H 2586.84 -0.549214 3.76414 0
M  V30 26735 H 2588.15 -0.936563 4.89929 0
M  V30 26736 H 2587.3 -3.28357 5.10163 0
M  V30 26737 H 2586.04 -2.95493 3.87989 0
M  V30 26738 H 2585.05 -1.19384 5.36682 0
M  V30 26739 H 2586.27 -1.54743 6.61235 0
M  V30 26740 H 2584.22 -3.51723 5.53739 0
M  V30 26741 H 2584.13 -2.69772 7.06229 0
M  V30 26742 H 2585.4 -3.85209 6.77668 0
M  V30 26743 N 2589.63 -1.57583 -0.0233682 0
M  V30 26744 C 2590.56 -2.09966 -1.02159 0
M  V30 26745 C 2591.54 -1.00347 -1.37348 0
M  V30 26746 O 2592.73 -1.27902 -1.46133 0
M  V30 26747 C 2589.86 -2.58375 -2.32077 0
M  V30 26748 C 2588.81 -3.72311 -2.11113 0
M  V30 26749 C 2588.14 -4.06947 -3.46841 0
M  V30 26750 C 2589.44 -5.00516 -1.49267 0
M  V30 26751 H 2591.13 -2.93619 -0.585506 0
M  V30 26752 H 2588.68 -1.41248 -0.280194 0
M  V30 26753 H 2590.63 -2.93644 -3.02243 0
M  V30 26754 H 2589.35 -1.71813 -2.77755 0
M  V30 26755 H 2588.01 -3.37399 -1.43378 0
M  V30 26756 H 2587.66 -3.17442 -3.90179 0
M  V30 26757 H 2587.36 -4.83694 -3.33638 0
M  V30 26758 H 2588.89 -4.44755 -4.18361 0
M  V30 26759 H 2590.3 -5.33706 -2.09359 0
M  V30 26760 H 2588.7 -5.81912 -1.46622 0
M  V30 26761 H 2589.77 -4.82721 -0.459132 0
M  V30 26762 N 2591.11 0.29574 -1.548 0
M  V30 26763 C 2592.04 1.38667 -1.82494 0
M  V30 26764 C 2593.05 1.46591 -0.70816 0
M  V30 26765 O 2594.24 1.48815 -0.985713 0
M  V30 26766 C 2591.34 2.76995 -1.95261 0
M  V30 26767 C 2590.52 2.9194 -3.25714 0
M  V30 26768 C 2589.58 4.108 -3.28831 0
M  V30 26769 O 2588.6 4.02636 -4.02335 0
M  V30 26770 N 2589.8 5.21689 -2.54599 0
M  V30 26771 H 2592.57 1.15264 -2.76648 0
M  V30 26772 H 2590.13 0.485822 -1.54439 0
M  V30 26773 H 2592.12 3.54764 -1.94742 0
M  V30 26774 H 2590.69 2.93322 -1.08078 0
M  V30 26775 H 2589.91 2.01241 -3.38963 0
M  V30 26776 H 2591.2 2.9884 -4.11791 0
M  V30 26777 H 2590.6 5.31204 -1.94522 0
M  V30 26778 H 2589.15 5.97773 -2.59828 0
M  V30 26779 N 2592.59 1.47346 0.559187 0
M  V30 26780 C 2593.55 1.59238 1.64851 0
M  V30 26781 C 2594.55 0.467634 1.5385 0
M  V30 26782 O 2595.74 0.732645 1.58044 0
M  V30 26783 C 2592.87 1.53501 3.04385 0
M  V30 26784 H 2594.07 2.56341 1.55657 0
M  V30 26785 H 2591.62 1.35507 0.778949 0
M  V30 26786 H 2592.35 0.57766 3.19114 0
M  V30 26787 H 2592.14 2.35128 3.13779 0
M  V30 26788 H 2593.63 1.64957 3.83639 0
M  V30 26789 N 2594.07 -0.805758 1.35445 0
M  V30 26790 C 2595.29 -1.59938 1.3204 0
M  V30 26791 C 2595.72 -1.87837 -0.0993885 0
M  V30 26792 O 2595.07 -1.46617 -1.06645 0
M  V30 26793 C 2595.12 -2.90707 2.13359 0
M  V30 26794 O 2594.23 -3.83569 1.51487 0
M  V30 26795 H 2593.57 -0.485779 0.452675 0
M  V30 26796 H 2596.1 -0.999987 1.78498 0
M  V30 26797 H 2596.11 -3.40124 2.25344 0
M  V30 26798 H 2594.78 -2.69726 3.16577 0
M  V30 26799 H 2593.36 -3.42122 1.48346 0
M  V30 26800 N 2595.54 -1.19456 -1.02801 0
M  V30 26801 C 2596.79 -0.999202 -1.76476 0
M  V30 26802 C 2597.12 0.468795 -1.88457 0
M  V30 26803 O 2596.4 1.34812 -1.402 0
M  V30 26804 C 2596.68 -1.66987 -3.19041 0
M  V30 26805 C 2596.53 -3.21157 -3.14926 0
M  V30 26806 C 2597.85 -1.39357 -4.17454 0
M  V30 26807 H 2594.97 -0.364404 -0.640608 0
M  V30 26808 H 2597.61 -1.47307 -1.20002 0
M  V30 26809 H 2595.76 -1.26697 -3.6726 0
M  V30 26810 H 2597.44 -3.70666 -2.74598 0
M  V30 26811 H 2595.68 -3.52656 -2.52619 0
M  V30 26812 H 2596.35 -3.6323 -4.15654 0
M  V30 26813 H 2598.83 -1.74289 -3.77839 0
M  V30 26814 H 2597.7 -1.88832 -5.15397 0
M  V30 26815 H 2597.96 -0.318891 -4.40948 0
M  V30 26816 N 2597.02 1.21924 -0.998617 0
M  V30 26817 C 2598.44 1.42921 -0.710328 0
M  V30 26818 C 2598.64 1.88316 0.7169 0
M  V30 26819 O 2597.69 2.04064 1.48708 0
M  V30 26820 C 2599.01 2.46597 -1.72076 0
M  V30 26821 C 2600.55 2.60389 -1.73686 0
M  V30 26822 C 2601.03 3.67291 -2.73607 0
M  V30 26823 N 2602.52 3.74755 -2.72236 0
M  V30 26824 C 2603.26 4.57081 -3.46214 0
M  V30 26825 N 2602.75 5.43354 -4.29812 0
M  V30 26826 N 2604.54 4.51445 -3.34894 0
M  V30 26827 H 2596.7 0.907666 -1.92029 0
M  V30 26828 H 2598.96 0.460761 -0.828495 0
M  V30 26829 H 2598.66 2.20201 -2.74234 0
M  V30 26830 H 2598.54 3.45296 -1.51824 0
M  V30 26831 H 2600.93 2.86126 -0.722223 0
M  V30 26832 H 2601.01 1.61946 -1.98008 0
M  V30 26833 H 2600.65 3.42301 -3.75223 0
M  V30 26834 H 2600.58 4.65316 -2.46553 0
M  V30 26835 H 2603.07 3.13116 -2.11581 0
M  V30 26836 H 2603.38 6.0321 -4.83071 0
M  V30 26837 H 2601.73 5.42917 -4.33897 0
M  V30 26838 H 2604.92 3.83073 -2.69022 0
M  V30 26839 H 2605.09 5.15372 -3.92805 0
M  V30 26840 N 2598.5 0.772537 1.37367 0
M  V30 26841 C 2599.74 0.342396 2.01512 0
M  V30 26842 C 2600.1 -1.06133 1.59999 0
M  V30 26843 O 2601.3 -1.59163 2.16611 0
M  V30 26844 C 2599.58 0.48211 3.54133 0
M  V30 26845 S 2601.13 0.137349 4.38585 0
M  V30 26846 H 2597.95 0.131699 0.698696 0
M  V30 26847 H 2600.55 1.00733 1.67551 0
M  V30 26848 H 2599.26 1.50435 3.81834 0
M  V30 26849 H 2598.79 -0.199344 3.92895 0
M  V30 26850 H 2600.8 -1.06684 4.84596 0
M  V30 26851 N 2599.98 -1.48664 0.523142 0
M  V30 26852 C 2600.91 -2.32342 -0.232269 0
M  V30 26853 C 2601.89 -1.4166 -0.941612 0
M  V30 26854 O 2603.07 -1.70553 -0.928721 0
M  V30 26855 C 2600.2 -3.227 -1.28381 0
M  V30 26856 C 2599.16 -4.22352 -0.693024 0
M  V30 26857 C 2598.48 -5.01797 -1.84672 0
M  V30 26858 C 2599.78 -5.21252 0.330721 0
M  V30 26859 H 2601.48 -2.95747 0.466244 0
M  V30 26860 H 2599.02 -1.42221 0.225668 0
M  V30 26861 H 2600.98 -3.80063 -1.82018 0
M  V30 26862 H 2599.7 -2.57281 -2.01181 0
M  V30 26863 H 2598.36 -3.66166 -0.178235 0
M  V30 26864 H 2598.01 -4.32808 -2.56293 0
M  V30 26865 H 2597.71 -5.6924 -1.45737 0
M  V30 26866 H 2599.23 -5.6201 -2.38699 0
M  V30 26867 H 2600.65 -5.73178 -0.118306 0
M  V30 26868 H 2599.04 -5.96709 0.637079 0
M  V30 26869 H 2600.11 -4.68806 1.23891 0
M  V30 26870 N 2601.46 -0.257958 -1.55475 0
M  V30 26871 C 2602.42 0.623667 -2.20552 0
M  V30 26872 C 2603.42 1.0944 -1.17811 0
M  V30 26873 O 2604.61 0.997337 -1.42824 0
M  V30 26874 C 2601.74 1.85845 -2.85787 0
M  V30 26875 H 2602.93 0.0557216 -2.99848 0
M  V30 26876 H 2600.49 -0.00846967 -1.56298 0
M  V30 26877 H 2601.22 2.46735 -2.10457 0
M  V30 26878 H 2601.01 1.52901 -3.61059 0
M  V30 26879 H 2602.5 2.48578 -3.35557 0
M  V30 26880 N 2602.93 1.57593 0.0150108 0
M  V30 26881 C 2604.16 1.94176 0.71436 0
M  V30 26882 C 2604.58 0.858871 1.68133 0
M  V30 26883 O 2603.93 -0.163535 1.81766 0
M  V30 26884 C 2603.99 3.30738 1.45927 0
M  V30 26885 O 2603.71 4.34869 0.531091 0
M  V30 26886 C 2605.21 3.8169 2.2545 0
M  V30 26887 H 2602.43 0.640528 0.199912 0
M  V30 26888 H 2604.97 2.04476 -0.0316455 0
M  V30 26889 H 2603.13 3.21793 2.15703 0
M  V30 26890 H 2603.54 5.1378 1.055 0
M  V30 26891 H 2605.01 4.79714 2.73091 0
M  V30 26892 H 2605.49 3.13612 3.0748 0
M  V30 26893 H 2606.1 3.93763 1.6072 0
M  V30 26894 N 2604.41 -0.287527 1.54955 0
M  V30 26895 C 2605.36 -1.35697 1.83222 0
M  V30 26896 C 2606.35 -1.45346 0.690177 0
M  V30 26897 O 2607.54 -1.49271 0.951163 0
M  V30 26898 C 2604.67 -2.71975 2.09486 0
M  V30 26899 C 2603.75 -2.66496 3.2991 0
M  V30 26900 N 2604.14 -2.30633 4.50158 0
M  V30 26901 C 2602.44 -2.9758 3.32208 0
M  V30 26902 C 2603.14 -2.34785 5.32213 0
M  V30 26903 N 2602.12 -2.7268 4.70262 0
M  V30 26904 H 2605.92 -1.06955 2.73748 0
M  V30 26905 H 2603.44 -0.49614 1.54636 0
M  V30 26906 H 2605.43 -3.49103 2.27888 0
M  V30 26907 H 2604.09 -3.01618 1.20235 0
M  V30 26908 H 2605.1 -2.02857 4.76518 0
M  V30 26909 H 2601.78 -3.32029 2.53106 0
M  V30 26910 H 2603.17 -2.09742 6.38324 0
M  V30 26911 N 2605.89 -1.47641 -0.551365 0
M  V30 26912 C 2607.14 -1.5426 -1.30569 0
M  V30 26913 C 2607.46 -0.208997 -1.93877 0
M  V30 26914 O 2606.73 0.767588 -1.80236 0
M  V30 26915 H 2605.31 -0.56824 -0.484884 0
M  V30 26916 H 2607.97 -1.83975 -0.64337 0
M  V30 26917 H 2607.07 -2.3123 -2.09617 0
M  V30 26918 N 2607.37 0.798563 -1.3587 0
M  V30 26919 C 2608.78 1.0953 -1.16084 0
M  V30 26920 C 2608.98 2.01489 0.021277 0
M  V30 26921 O 2608.04 2.42905 0.689445 0
M  V30 26922 C 2609.35 1.71856 -2.46751 0
M  V30 26923 C 2610.9 1.84239 -2.53031 0
M  V30 26924 C 2611.38 2.49981 -3.83762 0
M  V30 26925 N 2612.87 2.57458 -3.85058 0
M  V30 26926 C 2613.6 3.09114 -4.82945 0
M  V30 26927 N 2613.1 3.61146 -5.91224 0
M  V30 26928 N 2614.89 3.07741 -4.70374 0
M  V30 26929 H 2607.04 0.187424 -2.11571 0
M  V30 26930 H 2609.31 0.145749 -0.936729 0
M  V30 26931 H 2609.01 1.11753 -3.33473 0
M  V30 26932 H 2608.89 2.71467 -2.61888 0
M  V30 26933 H 2611.27 2.43483 -1.66733 0
M  V30 26934 H 2611.35 0.834601 -2.41802 0
M  V30 26935 H 2611 1.91385 -4.70462 0
M  V30 26936 H 2610.93 3.51313 -3.92284 0
M  V30 26937 H 2613.42 2.20604 -3.06826 0
M  V30 26938 H 2613.73 3.98885 -6.61899 0
M  V30 26939 H 2612.08 3.59323 -5.94905 0
M  V30 26940 H 2615.27 2.66375 -3.84918 0
M  V30 26941 H 2615.44 3.47691 -5.46823 0
M  V30 26942 N 2608.85 1.19999 1.02166 0
M  V30 26943 C 2610.09 1.00706 1.75683 0
M  V30 26944 C 2610.42 -0.461393 1.88948 0
M  V30 26945 O 2609.68 -1.35882 1.40835 0
M  V30 26946 C 2609.98 1.62975 3.18079 0
M  V30 26947 C 2609.64 3.12751 3.24804 0
M  V30 26948 C 2608.3 3.53627 3.26346 0
M  V30 26949 C 2610.66 4.08754 3.23372 0
M  V30 26950 C 2607.98 4.89042 3.24122 0
M  V30 26951 C 2610.34 5.44109 3.22688 0
M  V30 26952 C 2609 5.84405 3.22532 0
M  V30 26953 H 2608.27 0.368508 0.642871 0
M  V30 26954 H 2610.92 1.4935 1.19862 0
M  V30 26955 H 2609.22 1.06579 3.77025 0
M  V30 26956 H 2610.92 1.45567 3.73646 0
M  V30 26957 H 2607.51 2.80187 3.24335 0
M  V30 26958 H 2611.69 3.78213 3.21354 0
M  V30 26959 H 2606.95 5.19533 3.22329 0
M  V30 26960 H 2611.12 6.18249 3.20532 0
M  V30 26961 H 2608.75 6.89307 3.20563 0
M  V30 26962 N 2610.32 -1.21392 1.00507 0
M  V30 26963 C 2611.25 -2.26034 0.585723 0
M  V30 26964 C 2612.24 -1.65486 -0.393496 0
M  V30 26965 O 2613.42 -1.92149 -0.281463 0
M  V30 26966 C 2610.55 -3.47188 -0.0883673 0
M  V30 26967 C 2609.5 -4.20253 0.810641 0
M  V30 26968 C 2608.83 -5.347 0.00295781 0
M  V30 26969 C 2610.13 -4.77638 2.11328 0
M  V30 26970 H 2611.82 -2.61365 1.46043 0
M  V30 26971 H 2609.37 -1.25636 0.70367 0
M  V30 26972 H 2611.32 -4.19561 -0.393212 0
M  V30 26973 H 2610.05 -3.10988 -0.997711 0
M  V30 26974 H 2608.71 -3.49729 1.09931 0
M  V30 26975 H 2608.35 -4.94743 -0.907678 0
M  V30 26976 H 2608.05 -5.84513 0.601547 0
M  V30 26977 H 2609.58 -6.09884 -0.295701 0
M  V30 26978 H 2610.99 -5.4189 1.87158 0
M  V30 26979 H 2609.39 -5.3784 2.66173 0
M  V30 26980 H 2610.46 -3.97015 2.784 0
M  V30 26981 N 2611.8 -0.779811 -1.36955 0
M  V30 26982 C 2612.71 -0.172532 -2.33965 0
M  V30 26983 C 2613.73 0.670193 -1.60575 0
M  V30 26984 O 2614.9 0.588229 -1.92618 0
M  V30 26985 C 2611.97 0.690113 -3.39762 0
M  V30 26986 C 2611.03 -0.169999 -4.28963 0
M  V30 26987 C 2610.26 0.651569 -5.29708 0
M  V30 26988 O 2610.49 1.88817 -5.38242 0
M  V30 26989 O 2609.42 0.0565206 -6.01873 0
M  V30 26990 H 2613.25 -0.974372 -2.87645 0
M  V30 26991 H 2610.83 -0.541102 -1.39257 0
M  V30 26992 H 2612.71 1.18233 -4.04474 0
M  V30 26993 H 2611.39 1.47 -2.88397 0
M  V30 26994 H 2610.3 -0.70876 -3.67325 0
M  V30 26995 H 2611.63 -0.91317 -4.83655 0
M  V30 26996 N 2613.28 1.48384 -0.531019 0
M  V30 26997 C 2614.53 2.01699 0.00470803 0
M  V30 26998 C 2614.84 1.41328 1.35225 0
M  V30 26999 O 2616.05 1.86147 1.9764 0
M  V30 27000 C 2614.5 3.59852 0.0587841 0
M  V30 27001 C 2614.11 4.29208 -1.28392 0
M  V30 27002 C 2615.86 4.21009 0.543284 0
M  V30 27003 C 2613.76 5.79296 -1.19038 0
M  V30 27004 H 2612.69 0.75398 0.00552992 0
M  V30 27005 H 2615.34 1.70636 -0.674954 0
M  V30 27006 H 2613.73 3.87762 0.803544 0
M  V30 27007 H 2614.9 4.12969 -2.04433 0
M  V30 27008 H 2613.22 3.79927 -1.70425 0
M  V30 27009 H 2615.81 5.30961 0.631257 0
M  V30 27010 H 2616.16 3.86397 1.5493 0
M  V30 27011 H 2616.69 3.97533 -0.145824 0
M  V30 27012 H 2613.43 6.18484 -2.17158 0
M  V30 27013 H 2612.95 5.97945 -0.471351 0
M  V30 27014 H 2614.63 6.40967 -0.881478 0
M  V30 27015 N 2614.76 0.2662 1.55336 0
M  V30 27016 C 2616.01 -0.352425 1.99003 0
M  V30 27017 C 2616.33 -1.57045 1.15594 0
M  V30 27018 O 2615.6 -1.94383 0.243302 0
M  V30 27019 H 2614.18 -0.133204 0.735028 0
M  V30 27020 H 2616.84 0.369468 1.91366 0
M  V30 27021 H 2615.94 -0.648399 3.0529 0
M  V30 27022 N 2616.24 -1.57599 -0.0066531 0
M  V30 27023 C 2617.18 -2.08001 -1.0002 0
M  V30 27024 C 2618.15 -0.973967 -1.34548 0
M  V30 27025 O 2619.34 -1.24598 -1.44499 0
M  V30 27026 C 2616.48 -2.58256 -2.28905 0
M  V30 27027 C 2615.59 -3.82738 -2.00339 0
M  V30 27028 C 2614.73 -4.21519 -3.23257 0
M  V30 27029 C 2613.77 -5.38855 -2.90347 0
M  V30 27030 N 2612.9 -5.72961 -4.05783 0
M  V30 27031 H 2617.74 -2.92625 -0.563448 0
M  V30 27032 H 2615.28 -1.44665 -0.266567 0
M  V30 27033 H 2617.24 -2.85469 -3.04242 0
M  V30 27034 H 2615.87 -1.76517 -2.70262 0
M  V30 27035 H 2614.92 -3.62473 -1.154 0
M  V30 27036 H 2616.23 -4.68178 -1.72078 0
M  V30 27037 H 2615.39 -4.49979 -4.06945 0
M  V30 27038 H 2614.12 -3.34774 -3.54651 0
M  V30 27039 H 2613.13 -5.10126 -2.05066 0
M  V30 27040 H 2614.35 -6.27271 -2.60208 0
M  V30 27041 H 2612.3 -4.89175 -4.37086 0
M  V30 27042 H 2612.22 -6.52961 -3.81023 0
M  V30 27043 H 2613.49 -6.06009 -4.90278 0
M  V30 27044 N 2617.72 0.279305 -1.55105 0
M  V30 27045 C 2618.96 1.01174 -1.75414 0
M  V30 27046 C 2619.29 1.8651 -0.55176 0
M  V30 27047 O 2618.55 1.90074 0.465885 0
M  V30 27048 C 2618.84 1.92914 -3.00864 0
M  V30 27049 C 2618.51 1.2338 -4.33691 0
M  V30 27050 C 2617.17 1.0415 -4.69794 0
M  V30 27051 C 2619.52 0.738472 -5.15942 0
M  V30 27052 C 2616.85 0.341063 -5.85708 0
M  V30 27053 C 2619.2 0.0516524 -6.32579 0
M  V30 27054 C 2617.87 -0.152409 -6.67326 0
M  V30 27055 H 2617.14 0.370222 -0.641885 0
M  V30 27056 H 2619.79 0.284593 -1.89373 0
M  V30 27057 H 2618.09 2.72229 -2.81777 0
M  V30 27058 H 2619.79 2.49695 -3.13773 0
M  V30 27059 H 2616.38 1.39357 -4.05312 0
M  V30 27060 H 2620.56 0.874678 -4.88532 0
M  V30 27061 H 2615.82 0.172179 -6.11158 0
M  V30 27062 H 2619.99 -0.33995 -6.9557 0
M  V30 27063 H 2617.62 -0.697147 -7.56997 0
M  V30 27064 N 2619.19 1.47931 0.543528 0
M  V30 27065 C 2620.47 1.45742 1.30456 0
M  V30 27066 C 2620.85 0.161729 2.1048 0
M  V30 27067 O 2620.2 -0.856697 2.11832 0
M  V30 27068 C 2620.41 2.71129 2.1975 0
M  V30 27069 C 2621.76 3.18906 2.80329 0
M  V30 27070 O 2622.78 2.71952 2.30044 0
M  V30 27071 O 2621.64 4.00572 3.71759 0
M  V30 27072 H 2618.73 0.581428 0.588107 0
M  V30 27073 H 2621.28 1.60148 0.5613 0
M  V30 27074 H 2620.05 3.56954 1.6031 0
M  V30 27075 H 2619.67 2.59376 3.01346 0
M  V30 27076 N 2620.67 -0.791347 1.36292 0
M  V30 27077 C 2621.6 -1.91822 1.33141 0
M  V30 27078 C 2622.58 -1.68882 0.203198 0
M  V30 27079 O 2623.77 -1.90024 0.400543 0
M  V30 27080 C 2620.9 -3.28814 1.11799 0
M  V30 27081 C 2619.85 -3.66273 2.21423 0
M  V30 27082 C 2619.18 -5.01593 1.85227 0
M  V30 27083 C 2620.48 -3.75058 3.63495 0
M  V30 27084 H 2622.17 -1.94716 2.27433 0
M  V30 27085 H 2619.72 -0.935418 1.0948 0
M  V30 27086 H 2621.67 -4.07264 1.08229 0
M  V30 27087 H 2620.39 -3.26302 0.139559 0
M  V30 27088 H 2619.05 -2.90118 2.24115 0
M  V30 27089 H 2618.7 -4.956 0.859631 0
M  V30 27090 H 2618.4 -5.27626 2.58621 0
M  V30 27091 H 2619.93 -5.82466 1.8321 0
M  V30 27092 H 2621.34 -4.43705 3.63042 0
M  V30 27093 H 2619.74 -4.12574 4.35778 0
M  V30 27094 H 2620.81 -2.76212 3.98541 0
M  V30 27095 N 2622.15 -1.2054 -1.01528 0
M  V30 27096 C 2623.37 -1.04274 -1.79281 0
M  V30 27097 C 2623.8 0.403511 -1.83721 0
M  V30 27098 O 2623.16 1.29067 -1.27324 0
M  V30 27099 C 2623.21 -1.63247 -3.21532 0
M  V30 27100 O 2622.31 -0.870979 -4.03098 0
M  V30 27101 H 2621.65 -0.367656 -0.552924 0
M  V30 27102 H 2624.18 -1.59861 -1.27694 0
M  V30 27103 H 2624.19 -1.67037 -3.7224 0
M  V30 27104 H 2622.87 -2.68502 -3.17615 0
M  V30 27105 H 2621.44 -0.907387 -3.61692 0
M  V30 27106 N 2623.63 1.20858 -1.01149 0
M  V30 27107 C 2624.56 2.22854 -0.535585 0
M  V30 27108 C 2625.57 1.5832 0.379296 0
M  V30 27109 O 2626.76 1.77606 0.178458 0
M  V30 27110 C 2623.86 3.38043 0.240902 0
M  V30 27111 C 2623.03 4.32166 -0.674638 0
M  V30 27112 C 2622.09 5.26173 0.0533745 0
M  V30 27113 O 2621.12 5.66365 -0.567439 0
M  V30 27114 N 2622.32 5.65062 1.32987 0
M  V30 27115 H 2625.09 2.64314 -1.41273 0
M  V30 27116 H 2622.65 1.35347 -0.88841 0
M  V30 27117 H 2624.64 3.97932 0.737046 0
M  V30 27118 H 2623.21 2.95515 1.0193 0
M  V30 27119 H 2622.43 3.7032 -1.35117 0
M  V30 27120 H 2623.72 4.91978 -1.29748 0
M  V30 27121 H 2623.12 5.34412 1.85527 0
M  V30 27122 H 2621.67 6.27283 1.77084 0
M  V30 27123 N 2625.11 0.787064 1.3654 0
M  V30 27124 C 2626.05 0.171765 2.31965 0
M  V30 27125 C 2627.05 -0.667604 1.5569 0
M  V30 27126 O 2628.25 -0.562951 1.7097 0
M  V30 27127 H 2624.63 0.0367677 0.751101 0
M  V30 27128 H 2626.6 0.992066 2.81426 0
M  V30 27129 C 2625.35 -0.680845 3.40969 0
M  V30 27130 H 2624.67 -0.0443259 3.99775 0
M  V30 27131 H 2626.11 -1.07808 4.10065 0
M  V30 27132 C 2624.57 -1.83808 2.82341 0
M  V30 27133 O 2625.1 -2.93451 2.74316 0
M  V30 27134 N 2623.31 -1.64346 2.39664 0
M  V30 27135 H 2622.85 -0.751625 2.46391 0
M  V30 27136 H 2622.81 -2.41937 2.00783 0
M  V30 27137 N 2626.58 -1.48101 0.53888 0
M  V30 27138 C 2627.53 -2.26744 -0.23903 0
M  V30 27139 C 2628.52 -1.33246 -0.9019 0
M  V30 27140 O 2629.71 -1.57725 -0.803235 0
M  V30 27141 C 2626.84 -3.18551 -1.27984 0
M  V30 27142 C 2625.92 -4.19524 -0.621314 0
M  V30 27143 N 2626.32 -5.04921 0.298093 0
M  V30 27144 C 2624.61 -4.37283 -0.877456 0
M  V30 27145 C 2625.31 -5.77725 0.678859 0
M  V30 27146 N 2624.29 -5.43587 0.0378837 0
M  V30 27147 H 2628.09 -2.90148 0.468147 0
M  V30 27148 H 2625.61 -1.58416 0.357525 0
M  V30 27149 H 2627.6 -3.73559 -1.85094 0
M  V30 27150 H 2626.26 -2.56703 -1.9883 0
M  V30 27151 H 2627.27 -5.13532 0.671217 0
M  V30 27152 H 2623.95 -3.86619 -1.57581 0
M  V30 27153 H 2625.34 -6.56435 1.43328 0
M  V30 27154 N 2628.06 -0.274434 -1.55192 0
M  V30 27155 C 2629.47 0.223456 -1.85358 0
M  V30 27156 C 2629.82 1.55498 -1.19645 0
M  V30 27157 O 2628.95 2.10906 -0.484535 0
M  V30 27158 C 2629.54 0.412226 -3.36283 0
M  V30 27159 C 2628.1 0.854349 -3.66576 0
M  V30 27160 C 2627.25 -0.0527543 -2.7725 0
M  V30 27161 H 2630.2 -0.496242 -1.50742 0
M  V30 27162 H 2630.22 1.25088 -3.59351 0
M  V30 27163 H 2629.73 -0.557032 -3.84082 0
M  V30 27164 H 2627.83 1.8351 -3.24276 0
M  V30 27165 H 2627.95 0.692143 -4.74074 0
M  V30 27166 H 2626.31 0.46344 -2.50448 0
M  V30 27167 H 2627.09 -1.01788 -3.27863 0
M  V30 27168 N 2629.54 1.576 -0.00170483 0
M  V30 27169 C 2630.47 2.11565 0.988053 0
M  V30 27170 C 2631.45 1.02519 1.35735 0
M  V30 27171 O 2632.64 1.3021 1.44079 0
M  V30 27172 C 2629.77 2.62035 2.27937 0
M  V30 27173 C 2628.72 3.75622 2.05163 0
M  V30 27174 C 2628.05 4.12413 3.40323 0
M  V30 27175 C 2629.35 5.02828 1.41285 0
M  V30 27176 H 2631.04 2.94513 0.538719 0
M  V30 27177 H 2628.59 1.41676 0.257687 0
M  V30 27178 H 2630.54 2.98415 2.97533 0
M  V30 27179 H 2629.26 1.7621 2.74986 0
M  V30 27180 H 2627.92 3.39638 1.37992 0
M  V30 27181 H 2627.57 3.2361 3.85079 0
M  V30 27182 H 2627.27 4.8894 3.25901 0
M  V30 27183 H 2628.79 4.51354 4.11232 0
M  V30 27184 H 2630.21 5.36969 2.00841 0
M  V30 27185 H 2628.6 5.84171 1.37346 0
M  V30 27186 H 2629.67 4.83391 0.382278 0
M  V30 27187 N 2631.02 -0.271076 1.55251 0
M  V30 27188 C 2632.27 -1.00044 1.75601 0
M  V30 27189 C 2632.59 -1.86749 0.56122 0
M  V30 27190 O 2631.86 -1.91261 -0.423813 0
M  V30 27191 H 2630.44 -0.372376 0.647569 0
M  V30 27192 H 2633.1 -0.294843 1.92657 0
M  V30 27193 H 2632.19 -1.63626 2.65769 0
M  V30 27194 N 2632.5 -1.48217 -0.535675 0
M  V30 27195 C 2633.43 -1.56879 -1.65723 0
M  V30 27196 C 2634.41 -0.41957 -1.57094 0
M  V30 27197 O 2635.59 -0.630383 -1.77647 0
M  V30 27198 C 2632.72 -1.49147 -3.04093 0
M  V30 27199 C 2631.76 -2.6884 -3.311 0
M  V30 27200 S 2632.6 -4.3086 -3.17994 0
M  V30 27201 C 2633.75 -4.25717 -4.5882 0
M  V30 27202 H 2633.99 -2.51762 -1.58125 0
M  V30 27203 H 2631.52 -1.3668 -0.718194 0
M  V30 27204 H 2633.48 -1.45373 -3.83897 0
M  V30 27205 H 2632.14 -0.556122 -3.09138 0
M  V30 27206 H 2631.33 -2.59553 -4.32028 0
M  V30 27207 H 2630.93 -2.69847 -2.58956 0
M  V30 27208 H 2633.23 -3.95299 -5.50223 0
M  V30 27209 H 2634.17 -5.26805 -4.73162 0
M  V30 27210 H 2634.58 -3.56265 -4.37876 0
M  V30 27211 N 2633.97 0.784108 -1.3671 0
M  V30 27212 C 2634.94 1.87857 -1.3131 0
M  V30 27213 C 2635.94 1.59292 -0.219682 0
M  V30 27214 O 2637.13 1.67605 -0.47479 0
M  V30 27215 C 2634.26 3.24749 -1.03685 0
M  V30 27216 H 2635.45 1.9406 -2.2865 0
M  V30 27217 H 2633.01 0.982499 -1.21559 0
M  V30 27218 H 2633.74 3.24228 -0.0682506 0
M  V30 27219 H 2633.53 3.46872 -1.82817 0
M  V30 27220 H 2635.02 4.04819 -1.02526 0
M  V30 27221 N 2635.45 1.21076 1.00888 0
M  V30 27222 C 2636.7 1.01984 1.74018 0
M  V30 27223 C 2637.01 -0.447631 1.90409 0
M  V30 27224 O 2638.22 -0.75786 2.60708 0
M  V30 27225 C 2636.68 1.77609 3.13023 0
M  V30 27226 C 2636.28 3.285 3.04617 0
M  V30 27227 C 2638.03 1.66911 3.90309 0
M  V30 27228 C 2635.94 3.96631 4.38678 0
M  V30 27229 H 2634.87 0.377982 0.652415 0
M  V30 27230 H 2637.52 1.44773 1.12752 0
M  V30 27231 H 2635.9 1.2761 3.74875 0
M  V30 27232 H 2637.07 3.85772 2.52025 0
M  V30 27233 H 2635.39 3.39697 2.40821 0
M  V30 27234 H 2637.98 2.15147 4.89506 0
M  V30 27235 H 2638.33 0.626652 4.11557 0
M  V30 27236 H 2638.86 2.14365 3.35101 0
M  V30 27237 H 2635.6 5.01061 4.22632 0
M  V30 27238 H 2635.12 3.44148 4.91245 0
M  V30 27239 H 2636.8 4.01323 5.07493 0
M  V30 27240 N 2636.93 -1.2032 1.01789 0
M  V30 27241 C 2638.18 -1.89721 0.70797 0
M  V30 27242 C 2638.51 -1.78931 -0.762504 0
M  V30 27243 O 2637.76 -1.16864 -1.56975 0
M  V30 27244 C 2638.06 -3.40347 1.09082 0
M  V30 27245 C 2637.73 -3.71338 2.55772 0
M  V30 27246 C 2636.39 -3.79506 2.95852 0
M  V30 27247 C 2638.74 -3.85536 3.5073 0
M  V30 27248 C 2636.07 -3.99332 4.29827 0
M  V30 27249 C 2638.42 -4.06872 4.84394 0
M  V30 27250 C 2637.08 -4.1327 5.24179 0
M  V30 27251 H 2636.35 -0.694238 0.259064 0
M  V30 27252 H 2639 -1.42553 1.27871 0
M  V30 27253 H 2637.31 -3.89338 0.438521 0
M  V30 27254 H 2639 -3.92344 0.828705 0
M  V30 27255 H 2635.59 -3.6558 2.23717 0
M  V30 27256 H 2639.78 -3.78579 3.20923 0
M  V30 27257 H 2635.03 -4.02521 4.60203 0
M  V30 27258 H 2639.21 -4.16801 5.57898 0
M  V30 27259 H 2636.83 -4.28385 6.28005 0
M  V30 27260 N 2638.41 -0.794293 -1.3612 0
M  V30 27261 C 2639.34 -0.210369 -2.3255 0
M  V30 27262 C 2640.32 0.657359 -1.56885 0
M  V30 27263 O 2641.5 0.590174 -1.85015 0
M  V30 27264 C 2638.63 0.651759 -3.4113 0
M  V30 27265 C 2637.59 -0.11647 -4.27841 0
M  V30 27266 C 2636.91 0.866567 -5.27631 0
M  V30 27267 C 2638.21 -1.30846 -5.05645 0
M  V30 27268 H 2639.91 -1.01599 -2.81635 0
M  V30 27269 H 2637.45 -0.490005 -1.35407 0
M  V30 27270 H 2639.41 1.07023 -4.07583 0
M  V30 27271 H 2638.13 1.49013 -2.90624 0
M  V30 27272 H 2636.79 -0.515979 -3.62951 0
M  V30 27273 H 2636.44 1.70011 -4.73398 0
M  V30 27274 H 2636.14 0.356947 -5.86515 0
M  V30 27275 H 2637.66 1.28351 -5.96958 0
M  V30 27276 H 2639.08 -0.965492 -5.65112 0
M  V30 27277 H 2637.47 -1.75171 -5.73964 0
M  V30 27278 H 2638.54 -2.10136 -4.37002 0
M  V30 27279 N 2639.89 1.47813 -0.546727 0
M  V30 27280 C 2640.83 2.29872 0.206814 0
M  V30 27281 C 2641.8 1.38413 0.918211 0
M  V30 27282 O 2642.99 1.67376 0.915962 0
M  V30 27283 C 2640.13 3.22153 1.2374 0
M  V30 27284 C 2639.24 4.28698 0.533141 0
M  V30 27285 C 2638.38 5.08141 1.54811 0
M  V30 27286 C 2637.42 6.06471 0.82824 0
M  V30 27287 N 2636.55 6.78911 1.78954 0
M  V30 27288 H 2641.39 2.93791 -0.499089 0
M  V30 27289 H 2638.93 1.44821 -0.257956 0
M  V30 27290 H 2640.89 3.74068 1.84739 0
M  V30 27291 H 2639.52 2.60121 1.91147 0
M  V30 27292 H 2638.57 3.79919 -0.191156 0
M  V30 27293 H 2639.88 4.9879 -0.0312863 0
M  V30 27294 H 2639.04 5.64154 2.23193 0
M  V30 27295 H 2637.77 4.37926 2.14644 0
M  V30 27296 H 2636.78 5.49645 0.130442 0
M  V30 27297 H 2638 6.78691 0.235788 0
M  V30 27298 H 2635.95 6.11434 2.37665 0
M  V30 27299 H 2635.87 7.45137 1.27699 0
M  V30 27300 H 2637.14 7.39504 2.46483 0
M  V30 27301 N 2641.36 0.28266 1.55044 0
M  V30 27302 C 2642.31 -0.617438 2.24255 0
M  V30 27303 C 2643.31 -1.15181 1.24217 0
M  V30 27304 O 2644.51 -1.10456 1.42124 0
M  V30 27305 H 2640.89 -0.21768 0.719805 0
M  V30 27306 H 2642.86 -0.0109552 2.98398 0
M  V30 27307 C 2641.61 -1.78667 2.98284 0
M  V30 27308 H 2640.93 -1.38468 3.75055 0
M  V30 27309 H 2642.37 -2.39293 3.50021 0
M  V30 27310 C 2640.83 -2.67971 2.04189 0
M  V30 27311 O 2641.36 -3.68547 1.59799 0
M  V30 27312 N 2639.57 -2.35304 1.7053 0
M  V30 27313 H 2639.11 -1.53563 2.06824 0
M  V30 27314 H 2639.07 -2.95325 1.07844 0
M  V30 27315 N 2642.84 -1.57597 0.0100627 0
M  V30 27316 C 2644.09 -1.91284 -0.673663 0
M  V30 27317 C 2644.42 -0.885009 -1.72862 0
M  V30 27318 O 2643.7 0.0949146 -1.94268 0
M  V30 27319 C 2643.98 -3.3552 -1.3076 0
M  V30 27320 C 2643.83 -4.49028 -0.263499 0
M  V30 27321 C 2645.15 -3.79362 -2.23098 0
M  V30 27322 H 2642.27 -0.695638 -0.243427 0
M  V30 27323 H 2644.91 -1.89894 0.0634197 0
M  V30 27324 H 2643.06 -3.36836 -1.93582 0
M  V30 27325 H 2644.73 -4.59847 0.365819 0
M  V30 27326 H 2642.98 -4.31828 0.413153 0
M  V30 27327 H 2643.65 -5.46932 -0.746302 0
M  V30 27328 H 2646.12 -3.79662 -1.70282 0
M  V30 27329 H 2645 -4.81015 -2.64415 0
M  V30 27330 H 2645.26 -3.13792 -3.11427 0
M  V30 27331 N 2644.32 0.262839 -1.55393 0
M  V30 27332 C 2645.55 1.01105 -1.80514 0
M  V30 27333 C 2645.96 1.79555 -0.583565 0
M  V30 27334 O 2645.32 1.76927 0.447554 0
M  V30 27335 C 2645.37 1.96159 -3.03651 0
M  V30 27336 O 2645.09 1.20886 -4.21092 0
M  V30 27337 C 2646.59 2.82709 -3.41453 0
M  V30 27338 H 2643.81 0.298225 -0.601085 0
M  V30 27339 H 2646.36 0.290546 -2.02425 0
M  V30 27340 H 2644.51 2.63658 -2.83837 0
M  V30 27341 H 2644.93 1.85042 -4.90775 0
M  V30 27342 H 2646.4 3.45184 -4.30757 0
M  V30 27343 H 2646.88 3.53004 -2.61314 0
M  V30 27344 H 2647.48 2.20686 -3.63562 0
M  V30 27345 N 2645.8 1.48499 0.527807 0
M  V30 27346 C 2647.05 1.56627 1.28352 0
M  V30 27347 C 2647.37 0.24113 1.93 0
M  V30 27348 O 2646.63 -0.768767 1.79968 0
M  V30 27349 C 2646.93 2.65489 2.39271 0
M  V30 27350 C 2646.59 4.07856 1.92261 0
M  V30 27351 C 2645.26 4.46605 1.79158 0
M  V30 27352 C 2647.61 4.97066 1.56763 0
M  V30 27353 C 2644.94 5.72366 1.28895 0
M  V30 27354 C 2647.29 6.23319 1.07961 0
M  V30 27355 C 2645.95 6.60922 0.93477 0
M  V30 27356 H 2645.22 0.57314 0.469672 0
M  V30 27357 H 2647.87 1.82225 0.588749 0
M  V30 27358 H 2646.17 2.33759 3.14426 0
M  V30 27359 H 2647.87 2.68993 2.97395 0
M  V30 27360 H 2644.46 3.77256 2.03411 0
M  V30 27361 H 2648.64 4.67806 1.65745 0
M  V30 27362 H 2643.9 6.00223 1.1637 0
M  V30 27363 H 2648.07 6.9184 0.795653 0
M  V30 27364 H 2645.7 7.58258 0.543098 0
M  V30 27365 N 2647.28 -0.776847 1.37123 0
M  V30 27366 C 2648.23 -1.88003 1.28992 0
M  V30 27367 C 2649.21 -1.59904 0.178793 0
M  V30 27368 O 2650.4 -1.72121 0.412735 0
M  V30 27369 C 2647.53 -3.254 1.09407 0
M  V30 27370 C 2646.62 -3.59467 2.25043 0
M  V30 27371 N 2647.01 -3.64752 3.50413 0
M  V30 27372 C 2645.31 -3.89603 2.17085 0
M  V30 27373 C 2646.01 -3.95421 4.26635 0
M  V30 27374 N 2644.98 -4.11056 3.55716 0
M  V30 27375 H 2648.79 -1.90333 2.23943 0
M  V30 27376 H 2646.3 -0.973029 1.30023 0
M  V30 27377 H 2648.3 -4.04313 1.01668 0
M  V30 27378 H 2646.96 -3.24336 0.153689 0
M  V30 27379 H 2647.97 -3.47084 3.84386 0
M  V30 27380 H 2644.65 -3.96391 1.31074 0
M  V30 27381 H 2646.04 -4.06328 5.35114 0
M  V30 27382 N 2648.76 -1.2161 -1.00244 0
M  V30 27383 C 2650 -1.03283 -1.73715 0
M  V30 27384 C 2650.32 0.434284 -1.90103 0
M  V30 27385 O 2649.59 1.31309 -1.45378 0
M  V30 27386 H 2648.17 -0.379183 -0.643606 0
M  V30 27387 H 2650.84 -1.52962 -1.20784 0
M  V30 27388 H 2649.93 -1.50287 -2.73533 0
M  V30 27389 N 2650.23 1.19778 -1.02425 0
M  V30 27390 C 2651.48 1.89623 -0.719085 0
M  V30 27391 C 2651.81 1.79131 0.750052 0
M  V30 27392 O 2651.09 1.18058 1.54572 0
M  V30 27393 C 2651.37 3.40732 -1.16505 0
M  V30 27394 C 2651.22 3.6012 -2.69506 0
M  V30 27395 C 2652.54 4.33796 -0.742242 0
M  V30 27396 H 2649.66 0.68859 -0.262702 0
M  V30 27397 H 2652.3 1.41016 -1.27336 0
M  V30 27398 H 2650.45 3.82261 -0.693477 0
M  V30 27399 H 2652.13 3.27794 -3.24575 0
M  V30 27400 H 2650.37 3.0333 -3.10118 0
M  V30 27401 H 2651.04 4.66076 -2.95765 0
M  V30 27402 H 2653.52 3.99957 -1.14777 0
M  V30 27403 H 2652.39 5.38126 -1.08223 0
M  V30 27404 H 2652.65 4.40667 0.355669 0
M  V30 27405 N 2651.71 0.801501 1.35697 0
M  V30 27406 C 2652.64 0.222699 2.32436 0
M  V30 27407 C 2653.62 -0.649029 1.57231 0
M  V30 27408 O 2654.81 -0.580354 1.85325 0
M  V30 27409 C 2651.94 -0.633659 3.4147 0
M  V30 27410 C 2650.89 0.139158 4.27774 0
M  V30 27411 C 2650.22 -0.838573 5.28083 0
M  V30 27412 C 2651.52 1.33526 5.04944 0
M  V30 27413 H 2653.21 1.03091 2.81092 0
M  V30 27414 H 2650.76 0.497179 1.35145 0
M  V30 27415 H 2652.71 -1.0486 4.08145 0
M  V30 27416 H 2651.43 -1.4747 2.91411 0
M  V30 27417 H 2650.09 0.53522 3.62672 0
M  V30 27418 H 2649.74 -1.67498 4.74293 0
M  V30 27419 H 2649.44 -0.325837 5.86696 0
M  V30 27420 H 2650.97 -1.25183 5.9763 0
M  V30 27421 H 2652.38 0.995448 5.64592 0
M  V30 27422 H 2650.78 1.78212 5.73027 0
M  V30 27423 H 2651.85 2.1245 4.35882 0
M  V30 27424 N 2653.19 -1.47521 0.554558 0
M  V30 27425 C 2654.12 -2.32782 -0.182933 0
M  V30 27426 C 2655.1 -1.43626 -0.911352 0
M  V30 27427 O 2656.29 -1.72485 -0.892336 0
M  V30 27428 C 2653.42 -3.25351 -1.21507 0
M  V30 27429 C 2652.37 -4.23727 -0.603281 0
M  V30 27430 C 2651.7 -5.05602 -1.73986 0
M  V30 27431 C 2653 -5.20433 0.441212 0
M  V30 27432 H 2654.69 -2.94692 0.528872 0
M  V30 27433 H 2652.24 -1.4171 0.255784 0
M  V30 27434 H 2654.19 -3.83838 -1.73915 0
M  V30 27435 H 2652.91 -2.61491 -1.95679 0
M  V30 27436 H 2651.57 -3.66462 -0.100525 0
M  V30 27437 H 2651.22 -4.38147 -2.47055 0
M  V30 27438 H 2650.92 -5.72203 -1.3363 0
M  V30 27439 H 2652.44 -5.66946 -2.26725 0
M  V30 27440 H 2653.86 -5.733 0.00330008 0
M  V30 27441 H 2652.25 -5.95223 0.763506 0
M  V30 27442 H 2653.32 -4.66073 1.33807 0
M  V30 27443 N 2654.67 -0.290879 -1.54892 0
M  V30 27444 C 2655.94 0.373955 -1.91992 0
M  V30 27445 C 2656.32 1.7249 -1.21697 0
M  V30 27446 O 2655.67 2.25816 -0.34921 0
M  V30 27447 C 2655.88 0.498642 -3.45419 0
M  V30 27448 C 2657.23 0.774225 -4.17482 0
M  V30 27449 O 2658.25 0.582846 -3.51399 0
M  V30 27450 O 2657.11 1.1412 -5.34452 0
M  V30 27451 H 2654.21 0.207301 -0.800597 0
M  V30 27452 H 2656.75 -0.338193 -1.66296 0
M  V30 27453 H 2655.53 -0.45146 -3.88687 0
M  V30 27454 H 2655.15 1.25965 -3.77119 0
M  V30 27455 N 2656.15 1.57589 -0.0184203 0
M  V30 27456 C 2657.11 2.08496 0.951949 0
M  V30 27457 C 2658.11 0.997896 1.2609 0
M  V30 27458 O 2659.3 1.25989 1.20302 0
M  V30 27459 C 2656.43 2.54186 2.27161 0
M  V30 27460 H 2657.62 2.9551 0.511255 0
M  V30 27461 H 2655.18 1.54607 0.229416 0
M  V30 27462 H 2655.91 1.7047 2.75881 0
M  V30 27463 H 2655.7 3.33594 2.06052 0
M  V30 27464 H 2657.19 2.93833 2.96735 0
M  V30 27465 N 2657.62 -0.254594 1.5553 0
M  V30 27466 C 2658.87 -0.983705 1.77001 0
M  V30 27467 C 2659.2 -1.85608 0.581363 0
M  V30 27468 O 2658.45 -1.90791 -0.435587 0
M  V30 27469 C 2658.75 -1.88103 3.03895 0
M  V30 27470 C 2658.42 -1.16465 4.35599 0
M  V30 27471 C 2657.08 -0.966631 4.71391 0
M  V30 27472 C 2659.43 -0.656296 5.17051 0
M  V30 27473 C 2656.76 -0.247839 5.86176 0
M  V30 27474 C 2659.11 0.0489919 6.32581 0
M  V30 27475 C 2657.78 0.258556 6.66999 0
M  V30 27476 H 2657.05 -0.359963 0.647694 0
M  V30 27477 H 2659.69 -0.25443 1.89802 0
M  V30 27478 H 2658 -2.67712 2.86073 0
M  V30 27479 H 2659.7 -2.44672 3.17705 0
M  V30 27480 H 2656.29 -1.32891 4.07477 0
M  V30 27481 H 2660.47 -0.796847 4.89861 0
M  V30 27482 H 2655.73 -0.0749276 6.11354 0
M  V30 27483 H 2659.9 0.450567 6.94941 0
M  V30 27484 H 2657.53 0.817491 7.55792 0
M  V30 27485 N 2659.1 -1.48777 -0.519925 0
M  V30 27486 C 2660.35 -1.57306 -1.27519 0
M  V30 27487 C 2660.68 -0.251362 -1.92869 0
M  V30 27488 O 2659.93 0.759212 -1.80373 0
M  V30 27489 C 2660.23 -2.66754 -2.37859 0
M  V30 27490 C 2659.9 -4.0887 -1.90095 0
M  V30 27491 C 2658.56 -4.47549 -1.76787 0
M  V30 27492 C 2660.91 -4.97891 -1.54124 0
M  V30 27493 C 2658.24 -5.73042 -1.25858 0
M  V30 27494 C 2660.59 -6.23883 -1.04654 0
M  V30 27495 C 2659.25 -6.61409 -0.899707 0
M  V30 27496 H 2658.52 -0.575622 -0.466626 0
M  V30 27497 H 2661.17 -1.82535 -0.579077 0
M  V30 27498 H 2659.48 -2.35423 -3.13182 0
M  V30 27499 H 2661.17 -2.70566 -2.95964 0
M  V30 27500 H 2657.76 -3.78329 -2.01407 0
M  V30 27501 H 2661.95 -4.68678 -1.63261 0
M  V30 27502 H 2657.2 -6.00832 -1.13185 0
M  V30 27503 H 2661.38 -6.92252 -0.758952 0
M  V30 27504 H 2659 -7.58535 -0.502878 0
M  V30 27505 N 2660.58 0.769564 -1.37534 0
M  V30 27506 C 2661.53 1.9043 -1.33564 0
M  V30 27507 C 2662.52 1.67912 -0.224057 0
M  V30 27508 O 2663.73 1.75675 -0.392205 0
M  V30 27509 H 2660.1 0.626264 -0.41629 0
M  V30 27510 H 2662.07 1.90894 -2.29351 0
M  V30 27511 C 2660.82 3.2772 -1.16168 0
M  V30 27512 H 2660.15 3.45625 -2.00957 0
M  V30 27513 H 2661.59 4.07411 -1.17441 0
M  V30 27514 C 2660.04 3.36639 0.132524 0
M  V30 27515 O 2660.57 3.85906 1.11532 0
M  V30 27516 N 2658.78 2.90017 0.183962 0
M  V30 27517 H 2658.33 2.50115 -0.616459 0
M  V30 27518 H 2658.29 2.96366 1.04951 0
M  V30 27519 N 2662.06 1.22139 0.995977 0
M  V30 27520 C 2662.97 1.005 2.11983 0
M  V30 27521 C 2663.98 -0.0457395 1.7394 0
M  V30 27522 O 2665.16 0.146309 2.00868 0
M  V30 27523 C 2662.23 0.582146 3.41778 0
M  V30 27524 C 2661.29 1.70615 3.9394 0
M  V30 27525 C 2660.52 1.30337 5.1754 0
M  V30 27526 O 2660.74 0.180843 5.70113 0
M  V30 27527 O 2659.68 2.1187 5.63378 0
M  V30 27528 H 2663.5 1.94651 2.3312 0
M  V30 27529 H 2661.09 1.00707 1.10356 0
M  V30 27530 H 2662.97 0.356541 4.19889 0
M  V30 27531 H 2661.64 -0.330536 3.22008 0
M  V30 27532 H 2660.55 1.98625 3.17016 0
M  V30 27533 H 2661.88 2.59658 4.18137 0
M  V30 27534 N 2663.54 -1.19233 1.03059 0
M  V30 27535 C 2664.76 -1.93457 0.747604 0
M  V30 27536 C 2665.19 -1.75081 -0.687617 0
M  V30 27537 O 2664.54 -1.05425 -1.47497 0
M  V30 27538 C 2664.59 -3.43217 1.10611 0
M  V30 27539 O 2663.7 -4.11782 0.225743 0
M  V30 27540 H 2663.04 -0.603894 0.276057 0
M  V30 27541 H 2665.57 -1.51261 1.37773 0
M  V30 27542 H 2665.58 -3.93889 1.06373 0
M  V30 27543 H 2664.25 -3.55913 2.15171 0
M  V30 27544 H 2662.83 -3.71465 0.32686 0
M  V30 27545 N 2665.01 -0.808686 -1.3527 0
M  V30 27546 C 2666.24 -0.401511 -2.03476 0
M  V30 27547 C 2666.66 0.98025 -1.60539 0
M  V30 27548 O 2666.02 1.63517 -0.783068 0
M  V30 27549 C 2666.07 -0.495416 -3.57181 0
M  V30 27550 O 2665.17 0.490325 -4.09475 0
M  V30 27551 H 2664.52 -0.167377 -0.642558 0
M  V30 27552 H 2667.05 -1.09515 -1.72822 0
M  V30 27553 H 2667.06 -0.365983 -4.06355 0
M  V30 27554 H 2665.73 -1.50327 -3.87782 0
M  V30 27555 H 2664.31 0.320958 -3.71516 0
M  V30 27556 N 2666.49 1.47225 -0.562374 0
M  V30 27557 C 2667.46 2.28554 0.172016 0
M  V30 27558 C 2668.46 1.37244 0.837904 0
M  V30 27559 O 2669.65 1.59823 0.692973 0
M  V30 27560 C 2666.78 3.1707 1.25218 0
M  V30 27561 H 2667.97 2.94953 -0.542453 0
M  V30 27562 H 2665.52 1.52999 -0.31952 0
M  V30 27563 H 2666.26 2.55373 1.99888 0
M  V30 27564 H 2666.04 3.84275 0.779448 0
M  V30 27565 H 2667.53 3.78335 1.76784 0
M  V30 27566 N 2667.97 0.299089 1.54736 0
M  V30 27567 C 2669.25 -0.363768 1.92188 0
M  V30 27568 C 2669.63 -1.71843 1.2261 0
M  V30 27569 O 2668.98 -2.25627 0.36118 0
M  V30 27570 C 2669.19 -0.480317 3.45679 0
M  V30 27571 C 2670.53 -0.752074 4.17886 0
M  V30 27572 O 2671.56 -0.564202 3.51703 0
M  V30 27573 O 2670.42 -1.11284 5.3505 0
M  V30 27574 H 2667.51 -0.203052 0.801685 0
M  V30 27575 H 2670.06 0.347007 1.66114 0
M  V30 27576 H 2668.83 0.472067 3.88442 0
M  V30 27577 H 2668.45 -1.23963 3.77781 0
M  V30 27578 N 2669.45 -1.57577 0.0267774 0
M  V30 27579 C 2670.69 -1.92816 -0.647563 0
M  V30 27580 C 2671.05 -0.903426 -1.6987 0
M  V30 27581 O 2670.34 0.0808544 -1.91429 0
M  V30 27582 C 2670.54 -3.32562 -1.30909 0
M  V30 27583 C 2670.37 -4.48535 -0.323542 0
M  V30 27584 C 2669.14 -5.05243 0.0757495 0
M  V30 27585 C 2671.33 -5.12572 0.42121 0
M  V30 27586 N 2669.32 -6.04737 1.05671 0
M  V30 27587 C 2670.69 -6.07145 1.25599 0
M  V30 27588 C 2672.74 -4.9556 0.482164 0
M  V30 27589 C 2671.44 -6.86535 2.14622 0
M  V30 27590 C 2673.47 -5.75557 1.35972 0
M  V30 27591 C 2672.83 -6.69743 2.18229 0
M  V30 27592 H 2668.93 -0.753458 -0.209344 0
M  V30 27593 H 2671.52 -1.94476 0.0934037 0
M  V30 27594 H 2669.69 -3.31726 -2.0202 0
M  V30 27595 H 2671.42 -3.55156 -1.94027 0
M  V30 27596 H 2668.17 -4.7266 -0.298211 0
M  V30 27597 H 2668.6 -6.59173 1.54335 0
M  V30 27598 H 2673.24 -4.2257 -0.139534 0
M  V30 27599 H 2670.96 -7.58832 2.77848 0
M  V30 27600 H 2674.54 -5.64427 1.41115 0
M  V30 27601 H 2673.42 -7.30565 2.85034 0
M  V30 27602 N 2670.93 0.246342 -1.55663 0
M  V30 27603 C 2672.34 0.594881 -1.48099 0
M  V30 27604 C 2672.54 1.88309 -0.717077 0
M  V30 27605 O 2671.6 2.51292 -0.246663 0
M  V30 27606 C 2672.91 0.697094 -2.92508 0
M  V30 27607 C 2674.46 0.789383 -3.02882 0
M  V30 27608 C 2674.93 0.923153 -4.486 0
M  V30 27609 N 2676.43 0.988009 -4.5254 0
M  V30 27610 C 2677.16 1.11079 -5.62538 0
M  V30 27611 N 2676.66 1.19907 -6.82345 0
M  V30 27612 N 2678.45 1.14399 -5.50336 0
M  V30 27613 H 2670.6 -0.599314 -2.03769 0
M  V30 27614 H 2672.86 -0.206926 -0.925141 0
M  V30 27615 H 2672.57 -0.179457 -3.51242 0
M  V30 27616 H 2672.44 1.56884 -3.43026 0
M  V30 27617 H 2674.83 1.65639 -2.44229 0
M  V30 27618 H 2674.91 -0.107527 -2.55574 0
M  V30 27619 H 2674.56 0.0607034 -5.07864 0
M  V30 27620 H 2674.49 1.83511 -4.9359 0
M  V30 27621 H 2676.98 0.931102 -3.6625 0
M  V30 27622 H 2677.29 1.29184 -7.61926 0
M  V30 27623 H 2675.63 1.16864 -6.85104 0
M  V30 27624 H 2678.83 1.0715 -4.55671 0
M  V30 27625 H 2679 1.23623 -6.36099 0
M  V30 27626 N 2672.4 1.4905 0.512027 0
M  V30 27627 C 2673.31 1.6762 1.64136 0
M  V30 27628 C 2674.33 0.55873 1.64785 0
M  V30 27629 O 2675.51 0.832066 1.83408 0
M  V30 27630 C 2672.57 1.7284 3.00545 0
M  V30 27631 C 2671.63 2.96345 3.10609 0
M  V30 27632 C 2670.87 3.01306 4.40512 0
M  V30 27633 O 2671.09 2.14166 5.28667 0
M  V30 27634 O 2670.02 3.93661 4.55318 0
M  V30 27635 H 2673.85 2.6327 1.51402 0
M  V30 27636 H 2671.43 1.32662 0.687108 0
M  V30 27637 H 2673.32 1.7869 3.81638 0
M  V30 27638 H 2671.99 0.803671 3.13565 0
M  V30 27639 H 2670.9 2.96018 2.28745 0
M  V30 27640 H 2672.23 3.88261 3.02513 0
M  V30 27641 N 2673.88 -0.762259 1.3794 0
M  V30 27642 C 2675.13 -1.52338 1.33869 0
M  V30 27643 C 2675.46 -1.94059 -0.073862 0
M  V30 27644 O 2674.74 -1.64787 -1.03323 0
M  V30 27645 C 2675.02 -2.78193 2.28649 0
M  V30 27646 C 2674.87 -2.42666 3.78726 0
M  V30 27647 C 2676.19 -3.80175 2.21709 0
M  V30 27648 H 2673.31 -0.552641 0.487603 0
M  V30 27649 H 2675.95 -0.873737 1.68718 0
M  V30 27650 H 2674.1 -3.33627 1.99061 0
M  V30 27651 H 2675.77 -1.93073 4.18951 0
M  V30 27652 H 2674.02 -1.75237 3.9683 0
M  V30 27653 H 2674.69 -3.32672 4.40492 0
M  V30 27654 H 2677.16 -3.34259 2.47811 0
M  V30 27655 H 2676.04 -4.65943 2.90152 0
M  V30 27656 H 2676.3 -4.25131 1.21308 0
M  V30 27657 N 2675.36 -1.22666 -0.989486 0
M  V30 27658 C 2676.61 -1.0649 -1.73296 0
M  V30 27659 C 2676.96 0.395405 -1.88293 0
M  V30 27660 O 2676.25 1.28908 -1.4175 0
M  V30 27661 C 2676.45 -1.71351 -3.13646 0
M  V30 27662 C 2676.28 -3.23538 -3.12336 0
M  V30 27663 C 2675.05 -3.92659 -3.18037 0
M  V30 27664 C 2677.25 -4.20427 -2.96218 0
M  V30 27665 N 2675.23 -5.31903 -3.06516 0
M  V30 27666 C 2676.6 -5.46525 -2.92763 0
M  V30 27667 C 2678.65 -4.11276 -2.80635 0
M  V30 27668 C 2677.36 -6.64523 -2.7532 0
M  V30 27669 C 2679.38 -5.28928 -2.64554 0
M  V30 27670 C 2678.74 -6.53947 -2.61789 0
M  V30 27671 H 2674.84 -0.444137 -0.643635 0
M  V30 27672 H 2677.43 -1.55258 -1.17486 0
M  V30 27673 H 2675.6 -1.25128 -3.67692 0
M  V30 27674 H 2677.33 -1.48235 -3.76574 0
M  V30 27675 H 2674.09 -3.43679 -3.25855 0
M  V30 27676 H 2674.51 -6.04879 -3.04056 0
M  V30 27677 H 2679.15 -3.15403 -2.81569 0
M  V30 27678 H 2676.87 -7.60542 -2.73132 0
M  V30 27679 H 2680.46 -5.23682 -2.53473 0
M  V30 27680 H 2679.34 -7.43452 -2.49497 0
M  V30 27681 N 2676.84 1.18685 -1.0369 0
M  V30 27682 C 2677.8 2.20396 -0.629154 0
M  V30 27683 C 2678.8 1.57755 0.311467 0
M  V30 27684 O 2679.99 1.73928 0.0973801 0
M  V30 27685 C 2677.12 3.4081 0.0781632 0
M  V30 27686 H 2678.32 2.57984 -1.52919 0
M  V30 27687 H 2675.87 1.32503 -0.829011 0
M  V30 27688 H 2676.61 3.0875 0.992178 0
M  V30 27689 H 2676.39 3.87515 -0.597845 0
M  V30 27690 H 2677.88 4.1613 0.350082 0
M  V30 27691 N 2678.32 0.815849 1.34839 0
M  V30 27692 C 2679.25 0.247339 2.32186 0
M  V30 27693 C 2680.23 -0.632316 1.57911 0
M  V30 27694 O 2681.41 -0.560665 1.85931 0
M  V30 27695 C 2678.54 -0.597406 3.42123 0
M  V30 27696 C 2677.5 0.184521 4.27602 0
M  V30 27697 C 2676.82 -0.782516 5.28943 0
M  V30 27698 C 2678.12 1.38874 5.03499 0
M  V30 27699 H 2679.82 1.06066 2.79983 0
M  V30 27700 H 2677.36 0.511485 1.3461 0
M  V30 27701 H 2679.32 -1.00526 4.09234 0
M  V30 27702 H 2678.04 -1.44371 2.92958 0
M  V30 27703 H 2676.7 0.573656 3.62084 0
M  V30 27704 H 2676.35 -1.62458 4.76043 0
M  V30 27705 H 2676.05 -0.263592 5.87008 0
M  V30 27706 H 2677.57 -1.18837 5.98924 0
M  V30 27707 H 2678.99 1.05527 5.63504 0
M  V30 27708 H 2677.38 1.8428 5.71105 0
M  V30 27709 H 2678.45 2.17061 4.33604 0
M  V30 27710 N 2679.8 -1.46924 0.570174 0
M  V30 27711 C 2681.04 -2.02736 0.051064 0
M  V30 27712 C 2681.37 -1.44217 -1.30058 0
M  V30 27713 O 2680.65 -0.602553 -1.84931 0
M  V30 27714 C 2680.93 -3.60089 -0.0281517 0
M  V30 27715 C 2680.79 -4.29016 1.3515 0
M  V30 27716 C 2682.1 -4.33917 -0.735104 0
M  V30 27717 H 2679.22 -0.736728 0.0200308 0
M  V30 27718 H 2681.87 -1.75209 0.734961 0
M  V30 27719 H 2680.02 -3.83672 -0.61058 0
M  V30 27720 H 2681.69 -4.16735 1.97813 0
M  V30 27721 H 2679.93 -3.88865 1.92267 0
M  V30 27722 H 2680.6 -5.37692 1.24866 0
M  V30 27723 H 2683.08 -4.15405 -0.240446 0
M  V30 27724 H 2681.95 -5.4362 -0.759526 0
M  V30 27725 H 2682.21 -4.04069 -1.7939 0
M  V30 27726 N 2681.27 -0.307291 -1.54575 0
M  V30 27727 C 2682.21 0.599768 -2.21214 0
M  V30 27728 C 2683.22 1.09264 -1.20687 0
M  V30 27729 O 2684.41 1.00901 -1.47246 0
M  V30 27730 C 2681.51 1.83384 -2.84998 0
M  V30 27731 C 2680.68 1.48241 -4.11514 0
M  V30 27732 C 2679.74 2.57229 -4.59042 0
M  V30 27733 O 2678.77 2.22056 -5.24099 0
M  V30 27734 N 2679.97 3.87879 -4.31891 0
M  V30 27735 H 2682.73 0.0292548 -2.99686 0
M  V30 27736 H 2680.29 -0.129767 -1.61379 0
M  V30 27737 H 2682.29 2.55654 -3.13724 0
M  V30 27738 H 2680.86 2.31259 -2.10328 0
M  V30 27739 H 2680.08 0.592053 -3.89729 0
M  V30 27740 H 2681.36 1.22307 -4.93881 0
M  V30 27741 H 2680.76 4.19261 -3.79785 0
M  V30 27742 H 2679.32 4.56429 -4.65312 0
M  V30 27743 N 2682.75 1.57561 -0.0351337 0
M  V30 27744 C 2683.71 2.09494 0.929782 0
M  V30 27745 C 2684.71 1.01121 1.25024 0
M  V30 27746 O 2685.9 1.27258 1.18959 0
M  V30 27747 C 2683.04 2.56581 2.24452 0
M  V30 27748 H 2684.23 2.96036 0.479883 0
M  V30 27749 H 2681.78 1.54842 0.213005 0
M  V30 27750 H 2682.52 1.73386 2.74058 0
M  V30 27751 H 2682.3 3.35761 2.02502 0
M  V30 27752 H 2683.79 2.96964 2.93602 0
M  V30 27753 N 2684.23 -0.238084 1.55791 0
M  V30 27754 C 2685.48 -0.96297 1.77683 0
M  V30 27755 C 2685.8 -1.85517 0.600706 0
M  V30 27756 O 2685.07 -1.92117 -0.383148 0
M  V30 27757 H 2683.65 -0.358556 0.655322 0
M  V30 27758 H 2686.31 -0.253911 1.93239 0
M  V30 27759 H 2685.41 -1.57952 2.6918 0
M  V30 27760 N 2685.71 -1.4932 -0.504115 0
M  V30 27761 C 2686.96 -1.57897 -1.25504 0
M  V30 27762 C 2687.27 -0.269467 -1.93735 0
M  V30 27763 O 2688.48 -0.233754 -2.70492 0
M  V30 27764 C 2686.93 -2.78578 -2.27864 0
M  V30 27765 C 2686.54 -4.16275 -1.65587 0
M  V30 27766 C 2688.28 -2.96484 -3.03805 0
M  V30 27767 C 2686.19 -5.28183 -2.66039 0
M  V30 27768 H 2685.12 -0.587902 -0.472109 0
M  V30 27769 H 2687.77 -1.75701 -0.529279 0
M  V30 27770 H 2686.15 -2.54262 -3.0359 0
M  V30 27771 H 2687.33 -4.50716 -0.958747 0
M  V30 27772 H 2685.64 -4.03702 -1.02047 0
M  V30 27773 H 2688.24 -3.77259 -3.78919 0
M  V30 27774 H 2688.58 -2.06925 -3.61231 0
M  V30 27775 H 2689.12 -3.20825 -2.35194 0
M  V30 27776 H 2685.85 -6.19792 -2.13398 0
M  V30 27777 H 2685.37 -4.982 -3.34001 0
M  V30 27778 H 2687.05 -5.57386 -3.28526 0
M  V30 27779 N 2687.19 0.754933 -1.38342 0
M  V30 27780 C 2688.6 1.05781 -1.1951 0
M  V30 27781 C 2688.8 2.01454 -0.0428359 0
M  V30 27782 O 2687.86 2.44976 0.611817 0
M  V30 27783 C 2689.17 1.63919 -2.52094 0
M  V30 27784 C 2690.72 1.76096 -2.58765 0
M  V30 27785 C 2691.19 2.37645 -3.91521 0
M  V30 27786 N 2692.68 2.45078 -3.93054 0
M  V30 27787 C 2693.42 2.93593 -4.92535 0
M  V30 27788 N 2692.92 3.42154 -6.02414 0
M  V30 27789 N 2694.71 2.92621 -4.79926 0
M  V30 27790 H 2686.86 0.120019 -2.12061 0
M  V30 27791 H 2689.12 0.115874 -0.940892 0
M  V30 27792 H 2688.83 1.01087 -3.36859 0
M  V30 27793 H 2688.7 2.62998 -2.70392 0
M  V30 27794 H 2691.09 2.38055 -1.74395 0
M  V30 27795 H 2691.17 0.757251 -2.44335 0
M  V30 27796 H 2690.81 1.7632 -4.76312 0
M  V30 27797 H 2690.74 3.38655 -4.03262 0
M  V30 27798 H 2693.24 2.10731 -3.13689 0
M  V30 27799 H 2693.55 3.77625 -6.74255 0
M  V30 27800 H 2691.89 3.40215 -6.06036 0
M  V30 27801 H 2695.08 2.53994 -3.93198 0
M  V30 27802 H 2695.26 3.30118 -5.57607 0
M  V30 27803 N 2688.66 1.23189 0.982967 0
M  V30 27804 C 2689.94 0.970737 1.69812 0
M  V30 27805 C 2690.32 -0.511388 2.04812 0
M  V30 27806 O 2689.67 -1.48195 1.73927 0
M  V30 27807 C 2689.88 1.87837 2.9414 0
M  V30 27808 C 2691.23 2.14032 3.66709 0
M  V30 27809 O 2692.25 1.85366 3.04168 0
M  V30 27810 O 2691.11 2.62637 4.79254 0
M  V30 27811 H 2688.2 0.365897 0.741652 0
M  V30 27812 H 2690.75 1.3422 1.03842 0
M  V30 27813 H 2689.52 2.88043 2.64853 0
M  V30 27814 H 2689.14 1.50912 3.67847 0
M  V30 27815 N 2690.14 -1.18133 1.04318 0
M  V30 27816 C 2691.39 -1.87805 0.746575 0
M  V30 27817 C 2691.71 -1.80899 -0.72805 0
M  V30 27818 O 2690.98 -1.22901 -1.52552 0
M  V30 27819 H 2689.56 -0.695261 0.27317 0
M  V30 27820 H 2692.22 -1.43351 1.32047 0
M  V30 27821 H 2691.32 -2.93776 1.05367 0
M  V30 27822 N 2691.62 -0.822988 -1.34405 0
M  V30 27823 C 2692.87 -0.411701 -1.98577 0
M  V30 27824 C 2693.2 1.02262 -1.65095 0
M  V30 27825 O 2692.47 1.71225 -0.922611 0
M  V30 27826 C 2692.76 -0.614297 -3.54822 0
M  V30 27827 C 2692.61 -2.09473 -3.98046 0
M  V30 27828 C 2693.93 -0.0502984 -4.40071 0
M  V30 27829 H 2691.05 -0.15106 -0.721353 0
M  V30 27830 H 2693.69 -1.03556 -1.59299 0
M  V30 27831 H 2691.84 -0.0832457 -3.88411 0
M  V30 27832 H 2693.51 -2.68943 -3.7479 0
M  V30 27833 H 2691.76 -2.58516 -3.48356 0
M  V30 27834 H 2692.43 -2.1873 -5.06815 0
M  V30 27835 H 2694.9 -0.504026 -4.13036 0
M  V30 27836 H 2693.78 -0.221855 -5.48451 0
M  V30 27837 H 2694.04 1.04475 -4.29578 0
M  V30 27838 N 2693.1 1.4662 -0.577957 0
M  V30 27839 C 2694.34 2.02706 -0.0618149 0
M  V30 27840 C 2694.68 1.44905 1.29291 0
M  V30 27841 O 2693.95 0.612352 1.84609 0
M  V30 27842 C 2694.24 3.60099 0.00905495 0
M  V30 27843 C 2694.09 4.28293 -1.37423 0
M  V30 27844 C 2695.41 4.34301 0.712082 0
M  V30 27845 H 2692.53 0.736611 -0.0239376 0
M  V30 27846 H 2695.17 1.74817 -0.744242 0
M  V30 27847 H 2693.32 3.8399 0.590225 0
M  V30 27848 H 2694.99 4.1568 -2.0002 0
M  V30 27849 H 2693.23 3.8784 -1.94326 0
M  V30 27850 H 2693.9 5.37022 -1.27716 0
M  V30 27851 H 2696.38 4.15526 0.218413 0
M  V30 27852 H 2695.26 5.44015 0.730686 0
M  V30 27853 H 2695.52 4.05015 1.77244 0
M  V30 27854 N 2694.58 0.315484 1.5441 0
M  V30 27855 C 2695.99 -0.0374359 1.59556 0
M  V30 27856 C 2696.19 -1.51178 1.3322 0
M  V30 27857 O 2695.25 -2.26662 1.11268 0
M  V30 27858 C 2696.56 0.37353 2.98371 0
M  V30 27859 C 2698.11 0.323507 3.11324 0
M  V30 27860 C 2698.58 0.709512 4.52471 0
M  V30 27861 N 2700.08 0.662605 4.58436 0
M  V30 27862 C 2700.81 0.933574 5.65749 0
M  V30 27863 N 2700.31 1.27126 6.81037 0
M  V30 27864 N 2702.1 0.859671 5.55487 0
M  V30 27865 H 2694.25 1.27617 1.69787 0
M  V30 27866 H 2696.51 0.51837 0.793723 0
M  V30 27867 H 2696.22 1.40043 3.22616 0
M  V30 27868 H 2696.09 -0.265549 3.76264 0
M  V30 27869 H 2698.48 -0.694172 2.86819 0
M  V30 27870 H 2698.56 0.997408 2.35553 0
M  V30 27871 H 2698.21 1.72507 4.77707 0
M  V30 27872 H 2698.14 0.0133849 5.26598 0
M  V30 27873 H 2700.63 0.413131 3.75635 0
M  V30 27874 H 2700.94 1.46361 7.58814 0
M  V30 27875 H 2699.28 1.30944 6.82553 0
M  V30 27876 H 2702.48 0.595406 4.64298 0
M  V30 27877 H 2702.65 1.07421 6.39034 0
M  V30 27878 N 2696.05 -1.5754 0.0434891 0
M  V30 27879 C 2697.47 -1.80065 -0.493311 0
M  V30 27880 C 2697.82 -0.955053 -1.71386 0
M  V30 27881 O 2696.94 -0.169472 -2.15735 0
M  V30 27882 C 2697.54 -3.2658 -0.901733 0
M  V30 27883 C 2696.1 -3.50049 -1.38356 0
M  V30 27884 C 2695.24 -2.75017 -0.355081 0
M  V30 27885 H 2698.19 -1.56396 0.269428 0
M  V30 27886 H 2698.21 -3.37079 -1.76517 0
M  V30 27887 H 2697.73 -3.88098 -0.0132028 0
M  V30 27888 H 2695.83 -2.93802 -2.29154 0
M  V30 27889 H 2695.94 -4.58764 -1.38102 0
M  V30 27890 H 2694.3 -2.40924 -0.826306 0
M  V30 27891 H 2695.09 -3.39258 0.525231 0
M  V30 27892 N 2697.53 0.229818 -1.55915 0
M  V30 27893 C 2698.46 1.28811 -1.94756 0
M  V30 27894 C 2699.44 1.49322 -0.814683 0
M  V30 27895 O 2700.63 1.61644 -1.07634 0
M  V30 27896 C 2697.76 2.63955 -2.2571 0
M  V30 27897 C 2696.71 2.58114 -3.4141 0
M  V30 27898 C 2696.04 3.97212 -3.57948 0
M  V30 27899 C 2697.34 2.13615 -4.76619 0
M  V30 27900 H 2699.03 0.965497 -2.83405 0
M  V30 27901 H 2696.58 0.463004 -1.36353 0
M  V30 27902 H 2698.53 3.38141 -2.51472 0
M  V30 27903 H 2697.26 2.97888 -1.33905 0
M  V30 27904 H 2695.91 1.86386 -3.15683 0
M  V30 27905 H 2695.56 4.28438 -2.63534 0
M  V30 27906 H 2695.26 3.94188 -4.35764 0
M  V30 27907 H 2696.79 4.73072 -3.8605 0
M  V30 27908 H 2698.2 2.7754 -5.01642 0
M  V30 27909 H 2696.6 2.21667 -5.57659 0
M  V30 27910 H 2697.67 1.0882 -4.72532 0
M  V30 27911 N 2699.01 1.49585 0.49619 0
M  V30 27912 C 2699.96 1.66609 1.59719 0
M  V30 27913 C 2700.93 0.507504 1.58157 0
M  V30 27914 O 2702.11 0.735107 1.7607 0
M  V30 27915 C 2699.25 1.74313 2.97841 0
M  V30 27916 C 2698.37 3.01507 3.09382 0
M  V30 27917 C 2697.5 3.0016 4.38266 0
M  V30 27918 C 2696.54 4.21914 4.43458 0
M  V30 27919 N 2695.68 4.1845 5.63777 0
M  V30 27920 H 2700.52 2.60616 1.44511 0
M  V30 27921 H 2698.05 1.29213 0.703026 0
M  V30 27922 H 2700.01 1.7676 3.77904 0
M  V30 27923 H 2698.64 0.837674 3.11742 0
M  V30 27924 H 2697.69 3.08648 2.22352 0
M  V30 27925 H 2699.01 3.915 3.09079 0
M  V30 27926 H 2698.16 3.01198 5.26654 0
M  V30 27927 H 2696.9 2.07954 4.41142 0
M  V30 27928 H 2695.9 4.21116 3.53471 0
M  V30 27929 H 2697.13 5.15318 4.42294 0
M  V30 27930 H 2695.07 3.29084 5.67486 0
M  V30 27931 H 2694.99 5.02183 5.65109 0
M  V30 27932 H 2696.26 4.23597 6.54359 0
M  V30 27933 N 2700.49 -0.747586 1.3874 0
M  V30 27934 C 2701.73 -1.51964 1.36698 0
M  V30 27935 C 2702.09 -1.91956 -0.0411551 0
M  V30 27936 O 2703.29 -2.68152 -0.186496 0
M  V30 27937 C 2701.56 -2.73455 2.30124 0
M  V30 27938 S 2703.12 -3.63253 2.46156 0
M  V30 27939 H 2699.94 -0.519958 0.484938 0
M  V30 27940 H 2702.54 -0.877074 1.74722 0
M  V30 27941 H 2701.25 -2.42194 3.31316 0
M  V30 27942 H 2700.78 -3.42651 1.93271 0
M  V30 27943 H 2702.79 -4.6653 1.6901 0
M  V30 27944 N 2701.97 -1.23709 -0.97642 0
M  V30 27945 C 2703.19 -1.09836 -1.75339 0
M  V30 27946 C 2703.61 0.349852 -1.8553 0
M  V30 27947 O 2702.97 1.24183 -1.33735 0
M  V30 27948 C 2703.02 -1.72239 -3.1783 0
M  V30 27949 O 2702.74 -3.11397 -3.08162 0
M  V30 27950 C 2704.24 -1.63861 -4.11904 0
M  V30 27951 H 2701.46 -0.384185 -0.55013 0
M  V30 27952 H 2704 -1.6364 -1.22647 0
M  V30 27953 H 2702.16 -1.22459 -3.67536 0
M  V30 27954 H 2702.57 -3.41736 -3.97891 0
M  V30 27955 H 2704.05 -2.1222 -5.09575 0
M  V30 27956 H 2704.52 -0.598169 -4.35108 0
M  V30 27957 H 2705.13 -2.13026 -3.68103 0
M  V30 27958 N 2703.44 1.17579 -1.04943 0
M  V30 27959 C 2704.69 1.88055 -0.759145 0
M  V30 27960 C 2705.02 1.80682 0.711887 0
M  V30 27961 O 2704.3 1.2131 1.52033 0
M  V30 27962 C 2704.58 3.38185 -1.23706 0
M  V30 27963 C 2704.43 3.54322 -2.77084 0
M  V30 27964 C 2705.75 4.32124 -0.83409 0
M  V30 27965 H 2702.87 0.682863 -0.277249 0
M  V30 27966 H 2705.51 1.38284 -1.30298 0
M  V30 27967 H 2703.66 3.80704 -0.774404 0
M  V30 27968 H 2705.34 3.20836 -3.31455 0
M  V30 27969 H 2703.58 2.96684 -3.16482 0
M  V30 27970 H 2704.25 4.59698 -3.05585 0
M  V30 27971 H 2706.73 3.97432 -1.23235 0
M  V30 27972 H 2705.6 5.35709 -1.19613 0
M  V30 27973 H 2705.86 4.41322 0.262117 0
M  V30 27974 N 2704.92 0.830104 1.33967 0
M  V30 27975 C 2706.17 0.421601 1.98063 0
M  V30 27976 C 2706.5 -1.01707 1.65789 0
M  V30 27977 O 2705.75 -1.72439 0.925378 0
M  V30 27978 C 2706.05 0.579042 3.52678 0
M  V30 27979 C 2705.72 1.9845 4.04881 0
M  V30 27980 C 2704.38 2.36896 4.18848 0
M  V30 27981 C 2706.73 2.90292 4.32874 0
M  V30 27982 C 2704.06 3.66505 4.58139 0
M  V30 27983 C 2706.41 4.19373 4.73613 0
M  V30 27984 C 2705.08 4.57786 4.85786 0
M  V30 27985 H 2704.35 0.154275 0.724762 0
M  V30 27986 H 2706.99 1.05544 1.5979 0
M  V30 27987 H 2705.3 -0.13815 3.91556 0
M  V30 27988 H 2706.99 0.243387 4.00261 0
M  V30 27989 H 2703.58 1.67588 3.94477 0
M  V30 27990 H 2707.77 2.61831 4.21614 0
M  V30 27991 H 2703.02 3.96083 4.65755 0
M  V30 27992 H 2707.2 4.90621 4.94231 0
M  V30 27993 H 2704.83 5.58265 5.15988 0
M  V30 27994 N 2706.4 -1.46311 0.585725 0
M  V30 27995 C 2707.35 -2.27389 -0.166773 0
M  V30 27996 C 2708.34 -1.36048 -0.859052 0
M  V30 27997 O 2709.53 -1.602 -0.75265 0
M  V30 27998 C 2706.66 -3.22462 -1.17785 0
M  V30 27999 C 2705.74 -4.21288 -0.487531 0
M  V30 28000 N 2706.13 -5.03717 0.458579 0
M  V30 28001 C 2704.43 -4.39854 -0.737894 0
M  V30 28002 C 2705.13 -5.75273 0.862314 0
M  V30 28003 N 2704.11 -5.43191 0.210803 0
M  V30 28004 H 2707.91 -2.88511 0.560218 0
M  V30 28005 H 2705.42 -1.57198 0.407743 0
M  V30 28006 H 2707.42 -3.79258 -1.73115 0
M  V30 28007 H 2706.08 -2.62899 -1.90563 0
M  V30 28008 H 2707.09 -5.11137 0.834253 0
M  V30 28009 H 2703.77 -3.91437 -1.45202 0
M  V30 28010 H 2705.16 -6.51543 1.64139 0
M  V30 28011 N 2707.88 -0.323668 -1.54241 0
M  V30 28012 C 2709.13 0.278324 -2.00174 0
M  V30 28013 C 2709.45 1.52646 -1.21343 0
M  V30 28014 O 2708.72 1.93346 -0.315278 0
M  V30 28015 H 2707.3 0.105832 -0.739465 0
M  V30 28016 H 2709.96 -0.440238 -1.89863 0
M  V30 28017 H 2709.06 0.534646 -3.07487 0
M  V30 28018 N 2709.36 1.57515 -0.0518432 0
M  V30 28019 C 2710.32 2.10468 0.90751 0
M  V30 28020 C 2711.32 1.02442 1.23945 0
M  V30 28021 O 2712.51 1.28512 1.17602 0
M  V30 28022 C 2709.64 2.58948 2.21718 0
M  V30 28023 H 2710.84 2.96528 0.448457 0
M  V30 28024 H 2708.39 1.55059 0.19657 0
M  V30 28025 H 2709.12 1.76283 2.72203 0
M  V30 28026 H 2708.91 3.3789 1.98929 0
M  V30 28027 H 2710.4 3.00061 2.90436 0
M  V30 28028 N 2710.84 -0.221546 1.56035 0
M  V30 28029 C 2711.77 -1.29802 1.88902 0
M  V30 28030 C 2712.78 -1.43045 0.777294 0
M  V30 28031 O 2713.97 -1.43943 1.05559 0
M  V30 28032 C 2711.07 -2.67363 2.08255 0
M  V30 28033 C 2710.24 -2.76068 3.39272 0
M  V30 28034 C 2709.3 -3.94643 3.48056 0
M  V30 28035 O 2708.33 -3.82981 4.21087 0
M  V30 28036 N 2709.53 -5.08948 2.792 0
M  V30 28037 H 2712.29 -1.01933 2.81833 0
M  V30 28038 H 2709.86 -0.411584 1.56581 0
M  V30 28039 H 2711.85 -3.45069 2.11447 0
M  V30 28040 H 2710.42 -2.87832 1.21949 0
M  V30 28041 H 2709.64 -1.84839 3.48178 0
M  V30 28042 H 2710.93 -2.78853 4.2558 0
M  V30 28043 H 2710.32 -5.21318 2.19645 0
M  V30 28044 H 2708.88 -5.84695 2.88053 0
M  V30 28045 N 2712.31 -1.49846 -0.48825 0
M  V30 28046 C 2713.56 -1.60212 -1.24338 0
M  V30 28047 C 2713.89 -0.293685 -1.91966 0
M  V30 28048 O 2713.17 0.703686 -1.81324 0
M  V30 28049 C 2713.45 -2.7704 -2.30045 0
M  V30 28050 C 2713.3 -4.17716 -1.66834 0
M  V30 28051 C 2714.62 -2.8947 -3.31504 0
M  V30 28052 H 2711.74 -0.583133 -0.450694 0
M  V30 28053 H 2714.38 -1.82175 -0.539641 0
M  V30 28054 H 2712.53 -2.58444 -2.90067 0
M  V30 28055 H 2714.21 -4.4786 -1.10542 0
M  V30 28056 H 2712.45 -4.2277 -0.972004 0
M  V30 28057 H 2713.12 -4.95357 -2.43567 0
M  V30 28058 H 2715.6 -3.06438 -2.81487 0
M  V30 28059 H 2714.47 -3.72869 -4.02815 0
M  V30 28060 H 2714.73 -1.99357 -3.946 0
M  V30 28061 N 2713.79 0.740218 -1.39135 0
M  V30 28062 C 2714.7 1.8847 -1.397 0
M  V30 28063 C 2715.72 1.71525 -0.292434 0
M  V30 28064 O 2716.89 1.94218 -0.533055 0
M  V30 28065 C 2713.96 3.24001 -1.23387 0
M  V30 28066 C 2713.02 3.53377 -2.43769 0
M  V30 28067 C 2712.25 4.82441 -2.28225 0
M  V30 28068 O 2712.48 5.55784 -1.28298 0
M  V30 28069 O 2711.41 5.11597 -3.17099 0
M  V30 28070 H 2715.24 1.90948 -2.36162 0
M  V30 28071 H 2712.82 0.887325 -1.20195 0
M  V30 28072 H 2714.7 4.05004 -1.16402 0
M  V30 28073 H 2713.38 3.22305 -0.300177 0
M  V30 28074 H 2712.28 2.72481 -2.5633 0
M  V30 28075 H 2713.62 3.59846 -3.35815 0
M  V30 28076 N 2715.27 1.24225 0.969846 0
M  V30 28077 C 2716.55 0.988693 1.68773 0
M  V30 28078 C 2716.93 -0.489636 2.05343 0
M  V30 28079 O 2716.27 -1.46342 1.75489 0
M  V30 28080 C 2716.48 1.90946 2.92131 0
M  V30 28081 C 2717.83 2.1791 3.64418 0
M  V30 28082 O 2718.86 1.88581 3.02185 0
M  V30 28083 O 2717.72 2.67706 4.76441 0
M  V30 28084 H 2714.81 0.373743 0.73773 0
M  V30 28085 H 2717.36 1.35314 1.02413 0
M  V30 28086 H 2716.13 2.90836 2.61783 0
M  V30 28087 H 2715.75 1.54805 3.66226 0
M  V30 28088 N 2716.75 -1.1702 1.05565 0
M  V30 28089 C 2717.71 -2.19367 0.664137 0
M  V30 28090 C 2718.71 -1.5823 -0.28633 0
M  V30 28091 O 2719.9 -1.74061 -0.0696974 0
M  V30 28092 C 2717.03 -3.40892 -0.0239333 0
M  V30 28093 H 2718.23 -2.55518 1.57004 0
M  V30 28094 H 2715.78 -1.31168 0.849987 0
M  V30 28095 H 2716.51 -3.10289 -0.942934 0
M  V30 28096 H 2716.3 -3.86515 0.659419 0
M  V30 28097 H 2717.79 -4.16634 -0.283835 0
M  V30 28098 N 2718.23 -0.837197 -1.33524 0
M  V30 28099 C 2719.47 -0.432099 -1.97836 0
M  V30 28100 C 2719.8 1.00826 -1.66326 0
M  V30 28101 O 2719.06 1.71946 -0.93451 0
M  V30 28102 C 2719.35 -0.597737 -3.52366 0
M  V30 28103 C 2719.02 -2.00595 -4.03823 0
M  V30 28104 C 2717.68 -2.39114 -4.17586 0
M  V30 28105 C 2720.03 -2.92584 -4.31328 0
M  V30 28106 C 2717.36 -3.68929 -4.56189 0
M  V30 28107 C 2719.71 -4.21879 -4.71382 0
M  V30 28108 C 2718.38 -4.60356 -4.83352 0
M  V30 28109 H 2717.65 -0.158116 -0.723934 0
M  V30 28110 H 2720.3 -1.0639 -1.59228 0
M  V30 28111 H 2718.6 0.117383 -3.91624 0
M  V30 28112 H 2720.3 -0.264611 -4.00126 0
M  V30 28113 H 2716.89 -1.69678 -3.93583 0
M  V30 28114 H 2721.07 -2.64063 -4.20219 0
M  V30 28115 H 2716.33 -3.98548 -4.63648 0
M  V30 28116 H 2720.5 -4.93235 -4.91622 0
M  V30 28117 H 2718.13 -5.60994 -5.13021 0
M  V30 28118 N 2719.7 1.45999 -0.593476 0
M  V30 28119 C 2721.12 1.57534 -0.255992 0
M  V30 28120 C 2721.32 1.58699 1.24164 0
M  V30 28121 O 2720.38 1.50972 2.02395 0
M  V30 28122 C 2721.69 2.8645 -0.914711 0
M  V30 28123 C 2723.24 3.00101 -0.889306 0
M  V30 28124 C 2723.71 4.31768 -1.52777 0
M  V30 28125 N 2725.2 4.38492 -1.4926 0
M  V30 28126 C 2725.94 5.3901 -1.9559 0
M  V30 28127 N 2725.43 6.46144 -2.49941 0
M  V30 28128 N 2727.23 5.30279 -1.86442 0
M  V30 28129 H 2719.38 1.43486 -1.56606 0
M  V30 28130 H 2721.64 0.685122 -0.655219 0
M  V30 28131 H 2721.35 2.91439 -1.96866 0
M  V30 28132 H 2721.22 3.74748 -0.429422 0
M  V30 28133 H 2723.61 2.94687 0.156059 0
M  V30 28134 H 2723.69 2.13251 -1.41272 0
M  V30 28135 H 2723.33 4.37939 -2.57239 0
M  V30 28136 H 2723.26 5.1741 -0.979489 0
M  V30 28137 H 2725.75 3.61675 -1.09542 0
M  V30 28138 H 2726.07 7.1907 -2.83122 0
M  V30 28139 H 2724.41 6.46934 -2.53972 0
M  V30 28140 H 2727.6 4.45488 -1.4373 0
M  V30 28141 H 2727.78 6.08471 -2.22862 0
M  V30 28142 N 2721.18 0.331843 1.54067 0
M  V30 28143 C 2722.41 -0.269569 2.04834 0
M  V30 28144 C 2722.82 -1.45685 1.20716 0
M  V30 28145 O 2722.16 -1.82222 0.232571 0
M  V30 28146 C 2722.23 -0.759437 3.51387 0
M  V30 28147 C 2721.89 0.306637 4.5597 0
M  V30 28148 C 2722.89 1.14547 5.07124 0
M  V30 28149 C 2720.57 0.457204 5.00215 0
M  V30 28150 C 2722.57 2.12053 6.01093 0
M  V30 28151 C 2720.25 1.43567 5.93996 0
M  V30 28152 C 2721.25 2.26579 6.44322 0
M  V30 28153 O 2720.94 3.22762 7.36261 0
M  V30 28154 H 2720.67 -0.0579645 0.67351 0
M  V30 28155 H 2723.22 0.478556 1.99747 0
M  V30 28156 H 2721.45 -1.55861 3.53899 0
M  V30 28157 H 2723.14 -1.28011 3.85186 0
M  V30 28158 H 2723.91 1.04018 4.73714 0
M  V30 28159 H 2719.79 -0.179061 4.60652 0
M  V30 28160 H 2723.33 2.76885 6.40297 0
M  V30 28161 H 2719.23 1.54157 6.26822 0
M  V30 28162 H 2720 3.18097 7.5416 0
M  V30 28163 N 2722.66 -1.57485 0.0601958 0
M  V30 28164 C 2723.59 -2.07635 -0.946724 0
M  V30 28165 C 2724.57 -0.978849 -1.29836 0
M  V30 28166 O 2725.76 -1.25142 -1.40967 0
M  V30 28167 C 2722.88 -2.52437 -2.25817 0
M  V30 28168 C 2721.93 -3.7351 -2.05894 0
M  V30 28169 S 2722.76 -5.18747 -1.32897 0
M  V30 28170 C 2723.92 -5.6687 -2.65346 0
M  V30 28171 H 2724.15 -2.92718 -0.519952 0
M  V30 28172 H 2721.68 -1.53647 -0.152292 0
M  V30 28173 H 2723.64 -2.78911 -3.01196 0
M  V30 28174 H 2722.3 -1.67643 -2.65621 0
M  V30 28175 H 2721.5 -4.02808 -3.02922 0
M  V30 28176 H 2721.1 -3.47349 -1.38653 0
M  V30 28177 H 2723.39 -5.73007 -3.61482 0
M  V30 28178 H 2724.33 -6.65945 -2.40673 0
M  V30 28179 H 2724.74 -4.94637 -2.72019 0
M  V30 28180 N 2724.14 0.213268 -1.5615 0
M  V30 28181 C 2725.1 1.24789 -1.92251 0
M  V30 28182 C 2726.1 1.39381 -0.801852 0
M  V30 28183 O 2727.29 1.37504 -1.0695 0
M  V30 28184 C 2724.42 2.62035 -2.1806 0
M  V30 28185 H 2725.62 0.939795 -2.84794 0
M  V30 28186 H 2723.17 0.454036 -1.4956 0
M  V30 28187 H 2723.9 2.9793 -1.28095 0
M  V30 28188 H 2723.69 2.52819 -2.99708 0
M  V30 28189 H 2725.18 3.36679 -2.47057 0
M  V30 28190 N 2725.62 1.50103 0.480296 0
M  V30 28191 C 2726.55 1.64436 1.59666 0
M  V30 28192 C 2727.56 0.526177 1.54062 0
M  V30 28193 O 2728.75 0.79902 1.59618 0
M  V30 28194 C 2725.85 1.60425 2.98525 0
M  V30 28195 C 2725.02 2.88123 3.29095 0
M  V30 28196 C 2724.08 2.76881 4.47463 0
M  V30 28197 O 2723.11 3.50833 4.48224 0
M  V30 28198 N 2724.31 1.89816 5.48589 0
M  V30 28199 H 2727.08 2.60726 1.47791 0
M  V30 28200 H 2724.64 1.47452 0.668554 0
M  V30 28201 H 2726.63 1.5053 3.75663 0
M  V30 28202 H 2725.2 0.719089 3.04217 0
M  V30 28203 H 2724.42 3.12215 2.40656 0
M  V30 28204 H 2725.71 3.7274 3.46327 0
M  V30 28205 H 2725.1 1.29029 5.50788 0
M  V30 28206 H 2723.66 1.8583 6.24748 0
M  V30 28207 N 2727.09 -0.732829 1.39526 0
M  V30 28208 C 2728.34 -1.48948 1.36597 0
M  V30 28209 C 2728.66 -1.94965 -0.0367165 0
M  V30 28210 O 2727.93 -1.6914 -0.988362 0
M  V30 28211 H 2726.51 -0.552557 0.502683 0
M  V30 28212 H 2729.18 -0.869839 1.74413 0
M  V30 28213 H 2728.27 -2.37057 2.03004 0
M  V30 28214 N 2728.57 -1.24737 -0.963244 0
M  V30 28215 C 2729.52 -1.04367 -2.05855 0
M  V30 28216 C 2730.49 0.0444659 -1.6604 0
M  V30 28217 O 2731.67 -0.111033 -1.90477 0
M  V30 28218 C 2728.81 -0.659295 -3.38744 0
M  V30 28219 C 2727.93 -1.82138 -3.91727 0
M  V30 28220 C 2727.06 -1.38217 -5.12903 0
M  V30 28221 C 2726.1 -2.51392 -5.58094 0
M  V30 28222 N 2725.24 -2.08307 -6.70487 0
M  V30 28223 H 2730.08 -1.9811 -2.22612 0
M  V30 28224 H 2727.62 -0.986681 -1.09101 0
M  V30 28225 H 2729.57 -0.417444 -4.15106 0
M  V30 28226 H 2728.2 0.241145 -3.21898 0
M  V30 28227 H 2727.26 -2.17677 -3.11963 0
M  V30 28228 H 2728.57 -2.67161 -4.2122 0
M  V30 28229 H 2727.72 -1.09946 -5.96655 0
M  V30 28230 H 2726.46 -0.502541 -4.85104 0
M  V30 28231 H 2725.47 -2.80418 -4.72912 0
M  V30 28232 H 2726.69 -3.39919 -5.87905 0
M  V30 28233 H 2724.64 -1.22749 -6.44414 0
M  V30 28234 H 2724.55 -2.86881 -6.99453 0
M  V30 28235 H 2725.82 -1.83188 -7.57669 0
M  V30 28236 N 2730.05 1.16459 -1.06184 0
M  V30 28237 C 2731 2.18785 -0.641657 0
M  V30 28238 C 2731.98 1.5754 0.327094 0
M  V30 28239 O 2733.18 1.76424 0.142715 0
M  V30 28240 C 2730.31 3.43288 -0.0284338 0
M  V30 28241 C 2729.39 4.11611 -1.02161 0
M  V30 28242 N 2729.78 4.55604 -2.19679 0
M  V30 28243 C 2728.08 4.3778 -0.852306 0
M  V30 28244 C 2728.78 5.08445 -2.82592 0
M  V30 28245 N 2727.76 5.01262 -2.10326 0
M  V30 28246 H 2731.56 2.50514 -1.53689 0
M  V30 28247 H 2729.07 1.32898 -0.933373 0
M  V30 28248 H 2731.07 4.15887 0.290417 0
M  V30 28249 H 2729.73 3.13047 0.862063 0
M  V30 28250 H 2730.74 4.49371 -2.57461 0
M  V30 28251 H 2727.42 4.17498 -0.0137048 0
M  V30 28252 H 2728.81 5.52531 -3.82307 0
M  V30 28253 N 2731.53 0.844266 1.33079 0
M  V30 28254 C 2732.78 0.438868 1.96868 0
M  V30 28255 C 2733.09 -1.00844 1.67601 0
M  V30 28256 O 2734.3 -1.51877 2.25046 0
M  V30 28257 C 2732.75 0.733832 3.52339 0
M  V30 28258 C 2732.36 2.19617 3.90477 0
M  V30 28259 C 2734.1 0.395649 4.22652 0
M  V30 28260 C 2732.01 2.4349 5.38949 0
M  V30 28261 H 2730.94 0.160377 0.736746 0
M  V30 28262 H 2733.59 1.0336 1.51621 0
M  V30 28263 H 2731.97 0.0686586 3.9594 0
M  V30 28264 H 2733.15 2.90227 3.57917 0
M  V30 28265 H 2731.46 2.49786 3.33161 0
M  V30 28266 H 2734.06 0.55157 5.31848 0
M  V30 28267 H 2734.4 -0.661849 4.11005 0
M  V30 28268 H 2734.94 1.01628 3.84599 0
M  V30 28269 H 2731.68 3.47825 5.55606 0
M  V30 28270 H 2731.2 1.77447 5.72951 0
M  V30 28271 H 2732.87 2.26915 6.05903 0
M  V30 28272 N 2733.01 -1.45682 0.60121 0
M  V30 28273 C 2734.25 -2.01883 0.0937311 0
M  V30 28274 C 2734.58 -1.47294 -1.27787 0
M  V30 28275 O 2733.85 -0.664724 -1.84278 0
M  V30 28276 H 2732.43 -0.746329 0.0316598 0
M  V30 28277 H 2735.09 -1.7856 0.781169 0
M  V30 28278 H 2734.18 -3.12076 0.0386845 0
M  V30 28279 N 2734.48 -0.340009 -1.53889 0
M  V30 28280 C 2735.43 0.518413 -2.24902 0
M  V30 28281 C 2736.4 1.09842 -1.24595 0
M  V30 28282 O 2737.59 1.13569 -1.53319 0
M  V30 28283 C 2734.73 1.66523 -3.02265 0
M  V30 28284 C 2733.84 1.11288 -4.17419 0
M  V30 28285 C 2732.97 2.22672 -4.82277 0
M  V30 28286 C 2732.01 1.64769 -5.89506 0
M  V30 28287 N 2731.15 2.69881 -6.48158 0
M  V30 28288 H 2735.99 -0.0937102 -2.97853 0
M  V30 28289 H 2733.53 -0.0580182 -1.46986 0
M  V30 28290 H 2735.49 2.34034 -3.45375 0
M  V30 28291 H 2734.12 2.2484 -2.31618 0
M  V30 28292 H 2733.17 0.328819 -3.78976 0
M  V30 28293 H 2734.48 0.649328 -4.94556 0
M  V30 28294 H 2733.63 2.98054 -5.2844 0
M  V30 28295 H 2732.37 2.72369 -4.04557 0
M  V30 28296 H 2731.38 0.878908 -5.42729 0
M  V30 28297 H 2732.6 1.15928 -6.69132 0
M  V30 28298 H 2730.55 3.1884 -5.73304 0
M  V30 28299 H 2730.47 2.28138 -7.20756 0
M  V30 28300 H 2731.73 3.45043 -6.98975 0
M  V30 28301 N 2735.96 1.57451 -0.0685468 0
M  V30 28302 C 2737.21 1.93653 0.602205 0
M  V30 28303 C 2737.54 0.948556 1.69458 0
M  V30 28304 O 2736.82 -0.0227478 1.94487 0
M  V30 28305 C 2737.1 3.40142 1.18217 0
M  V30 28306 C 2736.95 4.49696 0.0966641 0
M  V30 28307 C 2738.27 3.8738 2.08865 0
M  V30 28308 H 2735.39 0.704194 0.217441 0
M  V30 28309 H 2738.03 1.89528 -0.133854 0
M  V30 28310 H 2736.18 3.43788 1.80947 0
M  V30 28311 H 2737.86 4.58173 -0.536236 0
M  V30 28312 H 2736.1 4.29997 -0.573139 0
M  V30 28313 H 2736.77 5.49325 0.542798 0
M  V30 28314 H 2739.25 3.8572 1.56074 0
M  V30 28315 H 2738.12 4.90497 2.46381 0
M  V30 28316 H 2738.38 3.25135 2.99566 0
M  V30 28317 N 2737.44 -0.204984 1.56261 0
M  V30 28318 C 2738.69 -0.928268 1.80308 0
M  V30 28319 C 2739.02 -1.83317 0.640964 0
M  V30 28320 O 2738.3 -1.91158 -0.358998 0
M  V30 28321 C 2738.58 -1.75301 3.1455 0
M  V30 28322 C 2738.43 -0.873485 4.41237 0
M  V30 28323 C 2739.75 -2.72756 3.45387 0
M  V30 28324 H 2736.87 -0.336033 0.655935 0
M  V30 28325 H 2739.51 -0.196178 1.88985 0
M  V30 28326 H 2737.66 -2.37716 3.07284 0
M  V30 28327 H 2739.33 -0.264806 4.60539 0
M  V30 28328 H 2737.58 -0.179697 4.33428 0
M  V30 28329 H 2738.25 -1.48531 5.31641 0
M  V30 28330 H 2740.72 -2.20475 3.52888 0
M  V30 28331 H 2739.6 -3.27552 4.40455 0
M  V30 28332 H 2739.86 -3.51316 2.68383 0
M  V30 28333 N 2738.92 -1.50356 -0.472329 0
M  V30 28334 C 2740.17 -1.61522 -1.22632 0
M  V30 28335 C 2740.5 -0.314029 -1.91644 0
M  V30 28336 O 2739.77 0.684414 -1.8206 0
M  V30 28337 C 2740.06 -2.79464 -2.27094 0
M  V30 28338 C 2739.91 -4.19462 -1.62394 0
M  V30 28339 C 2741.23 -2.9297 -3.28415 0
M  V30 28340 H 2738.35 -0.587881 -0.444483 0
M  V30 28341 H 2740.99 -1.82738 -0.520289 0
M  V30 28342 H 2739.14 -2.61506 -2.87309 0
M  V30 28343 H 2740.81 -4.49007 -1.05786 0
M  V30 28344 H 2739.05 -4.23777 -0.927109 0
M  V30 28345 H 2739.73 -4.97913 -2.383 0
M  V30 28346 H 2742.2 -3.09406 -2.78221 0
M  V30 28347 H 2741.08 -3.7712 -3.98838 0
M  V30 28348 H 2741.34 -2.03532 -3.92463 0
M  V30 28349 N 2740.4 0.725419 -1.39912 0
M  V30 28350 C 2741.33 1.85001 -1.35305 0
M  V30 28351 C 2742.34 1.60708 -0.260131 0
M  V30 28352 O 2743.53 1.70765 -0.519779 0
M  V30 28353 C 2740.63 3.21216 -1.08045 0
M  V30 28354 C 2739.8 3.72786 -2.288 0
M  V30 28355 C 2738.86 4.87588 -1.9785 0
M  V30 28356 O 2737.89 5.0075 -2.70625 0
M  V30 28357 N 2739.09 5.72666 -0.950468 0
M  V30 28358 H 2741.86 1.89455 -2.32222 0
M  V30 28359 H 2739.42 0.906556 -1.34139 0
M  V30 28360 H 2741.41 3.95599 -0.853424 0
M  V30 28361 H 2739.98 3.11971 -0.198284 0
M  V30 28362 H 2739.2 2.89645 -2.67394 0
M  V30 28363 H 2740.49 4.03976 -3.09324 0
M  V30 28364 H 2739.89 5.64631 -0.347535 0
M  V30 28365 H 2738.44 6.47076 -0.783346 0
M  V30 28366 N 2741.88 1.25246 0.956615 0
M  V30 28367 C 2743.12 1.10039 1.7035 0
M  V30 28368 C 2743.45 -0.358122 1.90869 0
M  V30 28369 O 2742.73 -1.26408 1.47822 0
M  V30 28370 C 2743.01 1.85304 3.08763 0
M  V30 28371 C 2742.87 3.38972 2.95666 0
M  V30 28372 C 2744.18 1.63458 4.08619 0
M  V30 28373 H 2741.3 0.401134 0.618272 0
M  V30 28374 H 2743.95 1.54053 1.1121 0
M  V30 28375 H 2742.1 1.47893 3.59249 0
M  V30 28376 H 2743.77 3.86045 2.5252 0
M  V30 28377 H 2742.01 3.66785 2.31628 0
M  V30 28378 H 2742.68 3.86846 3.93769 0
M  V30 28379 H 2745.16 1.96022 3.67035 0
M  V30 28380 H 2744.03 2.1856 5.03511 0
M  V30 28381 H 2744.29 0.575434 4.38339 0
M  V30 28382 N 2743.35 -1.15894 1.068 0
M  V30 28383 C 2744.28 -2.22612 0.704716 0
M  V30 28384 C 2745.26 -1.67339 -0.305222 0
M  V30 28385 O 2746.45 -1.93371 -0.179213 0
M  V30 28386 C 2743.58 -3.47168 0.0957935 0
M  V30 28387 C 2742.53 -4.15365 1.03227 0
M  V30 28388 C 2741.86 -5.33933 0.286386 0
M  V30 28389 C 2743.16 -4.65764 2.3635 0
M  V30 28390 H 2744.85 -2.53256 1.59693 0
M  V30 28391 H 2742.4 -1.2173 0.769278 0
M  V30 28392 H 2744.35 -4.21056 -0.170259 0
M  V30 28393 H 2743.08 -3.15839 -0.831461 0
M  V30 28394 H 2741.74 -3.43411 1.28315 0
M  V30 28395 H 2741.38 -4.98858 -0.644149 0
M  V30 28396 H 2741.08 -5.80502 0.910538 0
M  V30 28397 H 2742.61 -6.10594 0.0280011 0
M  V30 28398 H 2744.02 -5.31207 2.15619 0
M  V30 28399 H 2742.42 -5.22975 2.94308 0
M  V30 28400 H 2743.49 -3.817 2.99054 0
M  V30 28401 N 2744.83 -0.851312 -1.32629 0
M  V30 28402 C 2745.79 -0.298581 -2.27247 0
M  V30 28403 C 2746.79 0.53982 -1.51468 0
M  V30 28404 O 2747.98 0.351813 -1.7061 0
M  V30 28405 C 2745.12 0.577945 -3.35965 0
M  V30 28406 H 2746.31 -1.13364 -2.77648 0
M  V30 28407 H 2743.86 -0.62538 -1.43243 0
M  V30 28408 H 2744.6 1.43495 -2.90826 0
M  V30 28409 H 2744.38 -0.0221229 -3.92094 0
M  V30 28410 H 2745.87 0.957554 -4.06473 0
M  V30 28411 N 2746.31 1.45361 -0.608928 0
M  V30 28412 C 2747.22 2.34338 0.110928 0
M  V30 28413 C 2748.24 1.51319 0.858981 0
M  V30 28414 O 2749.41 1.84117 0.816264 0
M  V30 28415 C 2746.48 3.28958 1.09488 0
M  V30 28416 C 2745.54 4.27882 0.348643 0
M  V30 28417 C 2744.77 5.17981 1.28573 0
M  V30 28418 O 2744.99 5.11538 2.5236 0
M  V30 28419 O 2743.93 5.96798 0.782067 0
M  V30 28420 H 2747.75 2.97298 -0.62031 0
M  V30 28421 H 2745.34 1.44767 -0.369185 0
M  V30 28422 H 2747.22 3.8726 1.66156 0
M  V30 28423 H 2745.9 2.6856 1.80713 0
M  V30 28424 H 2744.8 3.73192 -0.260531 0
M  V30 28425 H 2746.14 4.91138 -0.323135 0
M  V30 28426 N 2747.79 0.348166 1.53706 0
M  V30 28427 C 2748.7 -0.514817 2.28882 0
M  V30 28428 C 2749.71 -1.1079 1.3417 0
M  V30 28429 O 2750.89 -1.12259 1.67212 0
M  V30 28430 C 2747.95 -1.64768 3.05045 0
M  V30 28431 C 2747.02 -1.08391 4.15391 0
M  V30 28432 C 2746.25 -2.16278 4.87913 0
M  V30 28433 O 2746.47 -3.37082 4.60143 0
M  V30 28434 O 2745.41 -1.80313 5.74257 0
M  V30 28435 H 2749.23 0.0964232 3.03547 0
M  V30 28436 H 2746.82 0.113069 1.48972 0
M  V30 28437 H 2748.7 -2.30671 3.5266 0
M  V30 28438 H 2747.37 -2.24465 2.33232 0
M  V30 28439 H 2746.28 -0.389275 3.72069 0
M  V30 28440 H 2747.61 -0.531743 4.89319 0
M  V30 28441 N 2749.27 -1.57412 0.0768958 0
M  V30 28442 C 2750.68 -1.81071 -0.455006 0
M  V30 28443 C 2751.03 -0.991192 -1.69322 0
M  V30 28444 O 2750.15 -0.215194 -2.15327 0
M  V30 28445 C 2750.75 -3.28419 -0.832258 0
M  V30 28446 C 2749.31 -3.52905 -1.309 0
M  V30 28447 C 2748.45 -2.75709 -0.296666 0
M  V30 28448 H 2751.4 -1.5579 0.302541 0
M  V30 28449 H 2751.43 -3.40747 -1.69327 0
M  V30 28450 H 2750.94 -3.88038 0.0691214 0
M  V30 28451 H 2749.04 -2.98596 -2.2287 0
M  V30 28452 H 2749.15 -4.6159 -1.2834 0
M  V30 28453 H 2747.52 -2.42622 -0.775017 0
M  V30 28454 H 2748.3 -3.38068 0.597075 0
M  V30 28455 N 2750.74 0.196695 -1.56368 0
M  V30 28456 C 2751.65 1.26426 -1.9762 0
M  V30 28457 C 2752.67 1.49894 -0.883624 0
M  V30 28458 O 2753.85 1.62539 -1.18924 0
M  V30 28459 C 2750.91 2.58891 -2.306 0
M  V30 28460 C 2749.97 2.4351 -3.53556 0
M  V30 28461 C 2749.21 3.69658 -3.84953 0
M  V30 28462 O 2749.43 4.73758 -3.17663 0
M  V30 28463 O 2748.36 3.65283 -4.78385 0
M  V30 28464 H 2752.19 0.944182 -2.8865 0
M  V30 28465 H 2749.77 0.401566 -1.43902 0
M  V30 28466 H 2751.66 3.37079 -2.52895 0
M  V30 28467 H 2750.33 2.9053 -1.42738 0
M  V30 28468 H 2749.24 1.63439 -3.36509 0
M  V30 28469 H 2750.57 2.16804 -4.41879 0
M  V30 28470 N 2752.22 1.50604 0.464349 0
M  V30 28471 C 2753.19 1.694 1.5439 0
M  V30 28472 C 2754.19 0.56453 1.50565 0
M  V30 28473 O 2755.38 0.831672 1.53065 0
M  V30 28474 C 2752.51 1.72548 2.94007 0
M  V30 28475 H 2753.7 2.65722 1.3904 0
M  V30 28476 H 2751.25 1.40186 0.691195 0
M  V30 28477 H 2751.99 0.779435 3.14794 0
M  V30 28478 H 2751.77 2.54607 2.9819 0
M  V30 28479 H 2753.26 1.89021 3.72372 0
M  V30 28480 N 2753.7 -0.717989 1.40295 0
M  V30 28481 C 2754.95 -1.48002 1.38648 0
M  V30 28482 C 2755.28 -1.94196 -0.012086 0
M  V30 28483 O 2754.55 -1.6799 -0.98028 0
M  V30 28484 C 2754.84 -2.70778 2.37384 0
M  V30 28485 C 2754.69 -2.30494 3.86255 0
M  V30 28486 C 2756.01 -3.72929 2.33692 0
M  V30 28487 H 2753.13 -0.536849 0.504938 0
M  V30 28488 H 2755.77 -0.819619 1.71413 0
M  V30 28489 H 2753.92 -3.27125 2.09574 0
M  V30 28490 H 2755.59 -1.79647 4.24882 0
M  V30 28491 H 2753.84 -1.62523 4.02205 0
M  V30 28492 H 2754.51 -3.1849 4.50853 0
M  V30 28493 H 2756.98 -3.26206 2.58319 0
M  V30 28494 H 2755.86 -4.56477 3.04828 0
M  V30 28495 H 2756.12 -4.21057 1.34772 0
M  V30 28496 N 2755.18 -1.25752 -0.94996 0
M  V30 28497 C 2756.11 -1.09032 -2.06481 0
M  V30 28498 C 2757.09 0.00198542 -1.701 0
M  V30 28499 O 2758.27 -0.168417 -1.93468 0
M  V30 28500 C 2755.4 -0.71322 -3.39898 0
M  V30 28501 C 2754.36 -1.75628 -3.90306 0
M  V30 28502 C 2753.68 -1.23374 -5.20272 0
M  V30 28503 C 2754.98 -3.15603 -4.16163 0
M  V30 28504 H 2756.68 -2.02287 -2.20727 0
M  V30 28505 H 2754.22 -0.973983 -1.06064 0
M  V30 28506 H 2756.18 -0.583164 -4.17345 0
M  V30 28507 H 2754.9 0.255034 -3.25603 0
M  V30 28508 H 2753.56 -1.87485 -3.15031 0
M  V30 28509 H 2753.21 -0.255579 -5.0235 0
M  V30 28510 H 2752.91 -1.93092 -5.54968 0
M  V30 28511 H 2754.43 -1.11617 -6.00312 0
M  V30 28512 H 2755.85 -3.06873 -4.84254 0
M  V30 28513 H 2754.24 -3.82834 -4.62124 0
M  V30 28514 H 2755.31 -3.62315 -3.22266 0
M  V30 28515 N 2756.66 1.15326 -1.07413 0
M  V30 28516 C 2757.6 2.20086 -0.695034 0
M  V30 28517 C 2758.57 1.63107 0.313875 0
M  V30 28518 O 2759.76 1.89747 0.200182 0
M  V30 28519 C 2756.9 3.44956 -0.0996825 0
M  V30 28520 C 2756.01 4.16131 -1.16014 0
M  V30 28521 C 2755.15 5.28552 -0.529729 0
M  V30 28522 C 2754.19 5.91545 -1.57293 0
M  V30 28523 N 2753.32 6.95436 -0.965055 0
M  V30 28524 H 2758.16 2.51864 -1.59274 0
M  V30 28525 H 2755.7 1.23693 -0.796137 0
M  V30 28526 H 2757.66 4.16369 0.263124 0
M  V30 28527 H 2756.29 3.13692 0.761379 0
M  V30 28528 H 2755.34 3.43207 -1.64051 0
M  V30 28529 H 2756.65 4.59057 -1.95109 0
M  V30 28530 H 2755.81 6.06592 -0.114593 0
M  V30 28531 H 2754.54 4.86819 0.292984 0
M  V30 28532 H 2753.55 5.12217 -1.99784 0
M  V30 28533 H 2754.77 6.35355 -2.39794 0
M  V30 28534 H 2752.72 6.55797 -0.163256 0
M  V30 28535 H 2752.64 7.36794 -1.69324 0
M  V30 28536 H 2753.91 7.77373 -0.575442 0
M  V30 28537 N 2758.13 0.858334 1.32176 0
M  V30 28538 C 2759.38 0.462603 1.96734 0
M  V30 28539 C 2759.7 -0.985882 1.68242 0
M  V30 28540 O 2758.97 -1.6895 0.991593 0
M  V30 28541 H 2757.55 0.168077 0.727846 0
M  V30 28542 H 2760.22 1.09557 1.61193 0
M  V30 28543 H 2759.31 0.610701 3.06067 0
M  V30 28544 N 2759.61 -1.45036 0.616628 0
M  V30 28545 C 2760.58 -2.29035 -0.087071 0
M  V30 28546 C 2761.58 -1.40259 -0.78639 0
M  V30 28547 O 2762.77 -1.62285 -0.633178 0
M  V30 28548 C 2759.9 -3.21499 -1.13364 0
M  V30 28549 H 2761.09 -2.92737 0.651549 0
M  V30 28550 H 2758.64 -1.51708 0.376085 0
M  V30 28551 H 2759.38 -2.62616 -1.90272 0
M  V30 28552 H 2759.16 -3.86903 -0.63629 0
M  V30 28553 H 2760.65 -3.84635 -1.6262 0
M  V30 28554 N 2761.09 -0.356312 -1.53519 0
M  V30 28555 C 2762.04 0.49453 -2.2544 0
M  V30 28556 C 2763.01 1.08514 -1.25753 0
M  V30 28557 O 2764.19 1.11937 -1.54515 0
M  V30 28558 C 2761.33 1.63308 -3.04014 0
M  V30 28559 C 2760.45 1.06854 -4.18576 0
M  V30 28560 C 2759.58 2.17544 -4.84611 0
M  V30 28561 C 2758.62 1.58507 -5.91221 0
M  V30 28562 N 2757.76 2.62991 -6.50984 0
M  V30 28563 H 2762.6 -0.125296 -2.97736 0
M  V30 28564 H 2760.13 -0.0736047 -1.46916 0
M  V30 28565 H 2762.09 2.30357 -3.47838 0
M  V30 28566 H 2760.72 2.2237 -2.3399 0
M  V30 28567 H 2759.77 0.288605 -3.79304 0
M  V30 28568 H 2761.09 0.596837 -4.95216 0
M  V30 28569 H 2760.24 2.92433 -5.31571 0
M  V30 28570 H 2758.98 2.68063 -4.07423 0
M  V30 28571 H 2757.98 0.821295 -5.43631 0
M  V30 28572 H 2759.21 1.08824 -6.70324 0
M  V30 28573 H 2757.15 3.12741 -5.76653 0
M  V30 28574 H 2757.07 2.20481 -7.23135 0
M  V30 28575 H 2758.34 3.3761 -7.02595 0
M  V30 28576 N 2762.57 1.57369 -0.0852427 0
M  V30 28577 C 2763.98 1.81309 0.445397 0
M  V30 28578 C 2764.33 1.00016 1.68794 0
M  V30 28579 O 2763.46 0.226611 2.1521 0
M  V30 28580 C 2764.05 3.28856 0.814829 0
M  V30 28581 C 2762.61 3.53595 1.29026 0
M  V30 28582 C 2761.76 2.75862 0.28204 0
M  V30 28583 H 2764.71 1.55627 -0.310799 0
M  V30 28584 H 2764.73 3.4164 1.67518 0
M  V30 28585 H 2764.24 3.87996 -0.0896991 0
M  V30 28586 H 2762.34 2.99774 2.21284 0
M  V30 28587 H 2762.45 4.62265 1.2589 0
M  V30 28588 H 2760.82 2.4303 0.762139 0
M  V30 28589 H 2761.6 3.37747 -0.614995 0
M  V30 28590 N 2764.05 -0.188399 1.5647 0
M  V30 28591 C 2764.99 -1.23346 1.95076 0
M  V30 28592 C 2765.96 -1.44884 0.812264 0
M  V30 28593 O 2767.15 -1.57907 1.07098 0
M  V30 28594 C 2764.29 -2.57167 2.30128 0
M  V30 28595 C 2763.4 -2.43151 3.57074 0
M  V30 28596 C 2762.54 -3.69722 3.81417 0
M  V30 28597 C 2761.58 -3.50566 5.01766 0
M  V30 28598 N 2760.71 -4.69165 5.2233 0
M  V30 28599 H 2765.55 -0.89723 2.84172 0
M  V30 28600 H 2763.09 -0.431659 1.40624 0
M  V30 28601 H 2765.05 -3.3514 2.48469 0
M  V30 28602 H 2763.68 -2.88819 1.44164 0
M  V30 28603 H 2762.73 -1.56441 3.46743 0
M  V30 28604 H 2764.04 -2.24934 4.45204 0
M  V30 28605 H 2763.2 -4.56134 4.00034 0
M  V30 28606 H 2761.93 -3.909 2.9163 0
M  V30 28607 H 2760.94 -2.6254 4.83066 0
M  V30 28608 H 2762.16 -3.30827 5.93069 0
M  V30 28609 H 2760.11 -4.90595 4.35491 0
M  V30 28610 H 2760.03 -4.53798 6.04651 0
M  V30 28611 H 2761.3 -5.56909 5.4541 0
M  V30 28612 N 2765.53 -1.50848 -0.456355 0
M  V30 28613 C 2766.46 -1.73722 -1.56022 0
M  V30 28614 C 2767.44 -0.586501 -1.59669 0
M  V30 28615 O 2768.62 -0.827216 -1.75701 0
M  V30 28616 C 2765.75 -1.84488 -2.94247 0
M  V30 28617 C 2764.71 -2.99791 -3.05466 0
M  V30 28618 C 2764.03 -2.95717 -4.45483 0
M  V30 28619 C 2765.33 -4.4007 -2.8131 0
M  V30 28620 H 2767.03 -2.66148 -1.37133 0
M  V30 28621 H 2764.57 -1.28073 -0.658277 0
M  V30 28622 H 2766.52 -1.99074 -3.71413 0
M  V30 28623 H 2765.25 -0.886946 -3.14326 0
M  V30 28624 H 2763.91 -2.8488 -2.30736 0
M  V30 28625 H 2763.56 -1.9774 -4.62502 0
M  V30 28626 H 2763.26 -3.73133 -4.53923 0
M  V30 28627 H 2764.78 -3.12371 -5.24649 0
M  V30 28628 H 2766.19 -4.55431 -3.48218 0
M  V30 28629 H 2764.59 -5.19048 -3.01179 0
M  V30 28630 H 2765.66 -4.51421 -1.77052 0
M  V30 28631 N 2767 0.710538 -1.40674 0
M  V30 28632 C 2767.94 1.83435 -1.35745 0
M  V30 28633 C 2768.91 1.61007 -0.227025 0
M  V30 28634 O 2770.1 1.83953 -0.41151 0
M  V30 28635 C 2767.23 3.19863 -1.1138 0
M  V30 28636 C 2766.27 3.61109 -2.26941 0
M  V30 28637 S 2767.1 3.67641 -3.89359 0
M  V30 28638 C 2768.26 5.06819 -3.67267 0
M  V30 28639 H 2768.49 1.87337 -2.30851 0
M  V30 28640 H 2766.03 0.877809 -1.27019 0
M  V30 28641 H 2767.98 3.98629 -0.980074 0
M  V30 28642 H 2766.65 3.13588 -0.17919 0
M  V30 28643 H 2765.84 4.6018 -2.05548 0
M  V30 28644 H 2765.44 2.89614 -2.36643 0
M  V30 28645 H 2767.73 5.93885 -3.26047 0
M  V30 28646 H 2768.68 5.33249 -4.65887 0
M  V30 28647 H 2769.08 4.77651 -3.00849 0
M  V30 28648 N 2768.48 1.26254 0.943277 0
M  V30 28649 C 2769.71 1.1455 1.72896 0
M  V30 28650 C 2770.13 -0.29571 1.85761 0
M  V30 28651 O 2769.49 -1.21425 1.34632 0
M  V30 28652 C 2769.54 1.81715 3.11467 0
M  V30 28653 O 2768.64 1.10452 3.97334 0
M  V30 28654 H 2767.98 0.399268 0.530548 0
M  V30 28655 H 2770.51 1.67034 1.18156 0
M  V30 28656 H 2770.52 1.88455 3.61868 0
M  V30 28657 H 2769.2 2.86563 3.0142 0
M  V30 28658 H 2767.77 1.11672 3.55786 0
M  V30 28659 N 2769.96 -1.14755 1.08024 0
M  V30 28660 C 2770.92 -2.17909 0.710519 0
M  V30 28661 C 2771.92 -1.58802 -0.252703 0
M  V30 28662 O 2773.11 -1.74169 -0.0327609 0
M  V30 28663 C 2770.24 -3.40866 0.0483802 0
M  V30 28664 H 2771.44 -2.52131 1.62389 0
M  V30 28665 H 2768.99 -1.29335 0.877618 0
M  V30 28666 H 2769.73 -3.12219 -0.876904 0
M  V30 28667 H 2769.51 -3.8503 0.741256 0
M  V30 28668 H 2771 -4.17143 -0.195397 0
M  V30 28669 N 2771.44 -0.865331 -1.31719 0
M  V30 28670 C 2772.69 -0.470132 -1.96144 0
M  V30 28671 C 2773 0.981644 -1.69184 0
M  V30 28672 O 2774.21 1.48277 -2.27434 0
M  V30 28673 C 2772.66 -0.789794 -3.51127 0
M  V30 28674 C 2772.27 -2.25802 -3.86934 0
M  V30 28675 C 2774.01 -0.462839 -4.21969 0
M  V30 28676 C 2771.92 -2.52034 -5.35007 0
M  V30 28677 H 2770.85 -0.172078 -0.734102 0
M  V30 28678 H 2773.5 -1.05759 -1.49957 0
M  V30 28679 H 2771.88 -0.131641 -3.95781 0
M  V30 28680 H 2773.06 -2.95885 -3.53255 0
M  V30 28681 H 2771.37 -2.55055 -3.29144 0
M  V30 28682 H 2773.97 -0.636113 -5.30903 0
M  V30 28683 H 2774.31 0.596378 -4.12006 0
M  V30 28684 H 2774.85 -1.07734 -3.82934 0
M  V30 28685 H 2771.58 -3.56621 -5.50002 0
M  V30 28686 H 2771.1 -1.8654 -5.70055 0
M  V30 28687 H 2772.78 -2.36526 -6.02216 0
M  V30 28688 N 2772.92 1.44707 -0.624311 0
M  V30 28689 C 2774.14 2.06985 -0.131207 0
M  V30 28690 C 2774.57 1.46298 1.18231 0
M  V30 28691 O 2773.92 0.561872 1.72374 0
M  V30 28692 C 2773.97 3.60593 -0.0227358 0
M  V30 28693 O 2773.08 3.99508 1.02307 0
M  V30 28694 H 2772.42 0.658959 -0.0816672 0
M  V30 28695 H 2774.95 1.85691 -0.85906 0
M  V30 28696 H 2774.96 4.07645 0.170066 0
M  V30 28697 H 2773.63 4.04146 -0.981757 0
M  V30 28698 H 2772.21 3.64099 0.805388 0
M  V30 28699 N 2774.39 0.364449 1.53328 0
M  V30 28700 C 2775.34 -0.482567 2.25699 0
M  V30 28701 C 2776.31 -1.07846 1.26327 0
M  V30 28702 O 2777.5 -1.11116 1.55106 0
M  V30 28703 C 2774.64 -1.61694 3.04876 0
M  V30 28704 C 2773.75 -1.04633 4.19137 0
M  V30 28705 C 2772.88 -2.14971 4.85758 0
M  V30 28706 C 2771.92 -1.5537 5.92053 0
M  V30 28707 N 2771.06 -2.59535 6.52369 0
M  V30 28708 H 2775.9 0.141084 2.97666 0
M  V30 28709 H 2773.44 0.081395 1.46875 0
M  V30 28710 H 2775.39 -2.28509 3.49055 0
M  V30 28711 H 2774.02 -2.21126 2.35166 0
M  V30 28712 H 2773.08 -0.268486 3.79451 0
M  V30 28713 H 2774.39 -0.570566 4.95526 0
M  V30 28714 H 2773.54 -2.89609 5.33115 0
M  V30 28715 H 2772.28 -2.65899 4.08839 0
M  V30 28716 H 2771.29 -0.792453 5.44059 0
M  V30 28717 H 2772.51 -1.05268 6.70892 0
M  V30 28718 H 2770.46 -3.09679 5.78304 0
M  V30 28719 H 2770.37 -2.16642 7.24294 0
M  V30 28720 H 2771.64 -3.3388 7.04375 0
M  V30 28721 N 2775.87 -1.57322 0.0935872 0
M  V30 28722 C 2777.1 -1.98636 -0.578899 0
M  V30 28723 C 2777.51 -0.972654 -1.61817 0
M  V30 28724 O 2776.87 0.0379317 -1.82461 0
M  V30 28725 C 2776.92 -3.40005 -1.22796 0
M  V30 28726 O 2776.64 -4.37494 -0.230257 0
M  V30 28727 C 2778.14 -3.96314 -1.9862 0
M  V30 28728 H 2775.36 -0.652778 -0.155312 0
M  V30 28729 H 2777.91 -2.03772 0.172429 0
M  V30 28730 H 2776.06 -3.35888 -1.93023 0
M  V30 28731 H 2776.48 -5.19827 -0.698557 0
M  V30 28732 H 2777.95 -4.97387 -2.39396 0
M  V30 28733 H 2778.43 -3.34049 -2.85145 0
M  V30 28734 H 2779.03 -4.03899 -1.33213 0
M  V30 28735 N 2777.35 0.180099 -1.56568 0
M  V30 28736 C 2778.6 0.898135 -1.81493 0
M  V30 28737 C 2778.92 1.82623 -0.669257 0
M  V30 28738 O 2778.18 1.92652 0.344062 0
M  V30 28739 C 2778.48 1.7339 -3.12523 0
M  V30 28740 C 2778.14 0.955489 -4.4066 0
M  V30 28741 C 2776.81 0.740623 -4.75466 0
M  V30 28742 C 2779.16 0.408857 -5.19594 0
M  V30 28743 C 2776.49 -0.0321159 -5.86691 0
M  V30 28744 C 2778.84 -0.350749 -6.31627 0
M  V30 28745 C 2777.5 -0.576495 -6.65006 0
M  V30 28746 H 2776.77 0.328651 -0.664131 0
M  V30 28747 H 2779.42 0.163583 -1.908 0
M  V30 28748 H 2777.72 2.53758 -2.9852 0
M  V30 28749 H 2779.42 2.29235 -3.29017 0
M  V30 28750 H 2776.01 1.13299 -4.13354 0
M  V30 28751 H 2780.2 0.56222 -4.93105 0
M  V30 28752 H 2775.45 -0.216843 -6.11015 0
M  V30 28753 H 2779.63 -0.781619 -6.92 0
M  V30 28754 H 2777.25 -1.17716 -7.51031 0
M  V30 28755 N 2778.83 1.51088 0.448349 0
M  V30 28756 C 2780.07 1.64863 1.20829 0
M  V30 28757 C 2780.43 0.351907 1.88747 0
M  V30 28758 O 2781.63 0.365312 2.66306 0
M  V30 28759 C 2779.9 2.8114 2.20669 0
M  V30 28760 S 2781.46 3.15181 3.05297 0
M  V30 28761 H 2778.28 0.580943 0.409909 0
M  V30 28762 H 2780.88 1.88956 0.50159 0
M  V30 28763 H 2779.59 3.73811 1.69392 0
M  V30 28764 H 2779.12 2.59203 2.95935 0
M  V30 28765 H 2781.13 2.60763 4.22158 0
M  V30 28766 N 2780.31 -0.703068 1.41049 0
M  V30 28767 C 2781.72 -1.28271 1.35659 0
M  V30 28768 C 2782.07 -1.96167 0.0360654 0
M  V30 28769 O 2781.19 -1.98325 -0.865799 0
M  V30 28770 C 2781.79 -2.33262 2.45711 0
M  V30 28771 C 2780.35 -2.86821 2.43743 0
M  V30 28772 C 2779.49 -1.60763 2.25944 0
M  V30 28773 H 2782.45 -0.498333 1.50673 0
M  V30 28774 H 2782.47 -3.14387 2.14338 0
M  V30 28775 H 2781.98 -1.83818 3.41808 0
M  V30 28776 H 2780.08 -3.40462 1.51381 0
M  V30 28777 H 2780.19 -3.37762 3.39785 0
M  V30 28778 H 2778.56 -1.86295 1.73685 0
M  V30 28779 H 2779.34 -1.13325 3.24056 0
M  V30 28780 N 2781.78 -1.26752 -0.936569 0
M  V30 28781 C 2782.75 -1.08764 -2.0175 0
M  V30 28782 C 2783.75 -0.0344718 -1.60763 0
M  V30 28783 O 2784.94 -0.278288 -1.71963 0
M  V30 28784 C 2782.07 -0.65533 -3.34542 0
M  V30 28785 H 2783.26 -2.04739 -2.19139 0
M  V30 28786 H 2780.82 -1.09415 -1.11616 0
M  V30 28787 H 2781.55 0.306203 -3.22851 0
M  V30 28788 H 2781.34 -1.41584 -3.65645 0
M  V30 28789 H 2782.83 -0.551451 -4.13943 0
M  V30 28790 N 2783.26 1.1418 -1.08631 0
M  V30 28791 C 2784.21 2.17374 -0.68792 0
M  V30 28792 C 2785.2 1.58199 0.293604 0
M  V30 28793 O 2786.39 1.76687 0.105261 0
M  V30 28794 C 2783.52 3.43151 -0.101244 0
M  V30 28795 C 2782.6 4.09352 -1.10869 0
M  V30 28796 N 2782.99 4.50842 -2.29293 0
M  V30 28797 C 2781.29 4.35874 -0.944974 0
M  V30 28798 C 2781.99 5.02337 -2.93313 0
M  V30 28799 N 2780.97 4.96688 -2.20912 0
M  V30 28800 H 2784.77 2.47197 -1.58968 0
M  V30 28801 H 2782.29 1.30888 -0.961352 0
M  V30 28802 H 2784.28 4.1641 0.202135 0
M  V30 28803 H 2782.94 3.14805 0.795467 0
M  V30 28804 H 2783.95 4.43809 -2.66935 0
M  V30 28805 H 2780.63 4.17375 -0.102259 0
M  V30 28806 H 2782.02 5.44298 -3.93941 0
M  V30 28807 N 2784.74 0.872304 1.31258 0
M  V30 28808 C 2785.69 0.327897 2.28459 0
M  V30 28809 C 2786.66 -0.57493 1.55832 0
M  V30 28810 O 2787.84 -0.506069 1.83966 0
M  V30 28811 C 2784.98 -0.462584 3.41986 0
M  V30 28812 C 2784.1 0.468024 4.29457 0
M  V30 28813 C 2783.23 -0.33681 5.30131 0
M  V30 28814 C 2782.27 0.590077 6.09249 0
M  V30 28815 N 2781.41 -0.178651 7.01873 0
M  V30 28816 H 2786.25 1.16198 2.74412 0
M  V30 28817 H 2783.78 0.5844 1.34993 0
M  V30 28818 H 2785.74 -0.936688 4.06549 0
M  V30 28819 H 2784.37 -1.26135 2.97136 0
M  V30 28820 H 2783.42 1.06058 3.65316 0
M  V30 28821 H 2784.74 1.17864 4.84675 0
M  V30 28822 H 2783.89 -0.873322 6.00382 0
M  V30 28823 H 2782.63 -1.08071 4.75575 0
M  V30 28824 H 2781.63 1.13833 5.37887 0
M  V30 28825 H 2782.86 1.33287 6.65891 0
M  V30 28826 H 2780.8 -0.90532 6.49723 0
M  V30 28827 H 2780.72 0.472585 7.54521 0
M  V30 28828 H 2781.99 -0.696318 7.76384 0
M  V30 28829 N 2786.22 -1.44374 0.631976 0
M  V30 28830 C 2787.44 -2.06912 0.142182 0
M  V30 28831 C 2787.87 -1.46922 -1.17454 0
M  V30 28832 O 2787.23 -0.571005 -1.72073 0
M  V30 28833 C 2787.27 -3.60576 0.0418586 0
M  V30 28834 O 2786.38 -4.00045 -1.00187 0
M  V30 28835 H 2785.72 -0.658516 0.0851607 0
M  V30 28836 H 2788.25 -1.85233 0.868895 0
M  V30 28837 H 2788.26 -4.0773 -0.148445 0
M  V30 28838 H 2786.93 -4.0362 1.00318 0
M  V30 28839 H 2785.51 -3.64521 -0.786067 0
M  V30 28840 N 2787.7 -0.372575 -1.53133 0
M  V30 28841 C 2788.93 0.215166 -2.05477 0
M  V30 28842 C 2789.33 1.42433 -1.24537 0
M  V30 28843 O 2788.68 1.81541 -0.280803 0
M  V30 28844 C 2788.74 0.666006 -3.53277 0
M  V30 28845 C 2788.4 -0.427422 -4.54997 0
M  V30 28846 C 2789.4 -1.27953 -5.03909 0
M  V30 28847 C 2787.09 -0.589667 -4.98827 0
M  V30 28848 C 2789.08 -2.27915 -5.95259 0
M  V30 28849 C 2786.77 -1.59265 -5.89981 0
M  V30 28850 C 2787.76 -2.43582 -6.38088 0
M  V30 28851 O 2787.45 -3.42169 -7.27445 0
M  V30 28852 H 2787.18 0.0400872 -0.67481 0
M  V30 28853 H 2789.74 -0.531347 -1.98408 0
M  V30 28854 H 2787.97 1.46423 -3.57907 0
M  V30 28855 H 2789.66 1.17753 -3.88444 0
M  V30 28856 H 2790.42 -1.16541 -4.7079 0
M  V30 28857 H 2786.3 0.0568646 -4.60965 0
M  V30 28858 H 2789.85 -2.93764 -6.32731 0
M  V30 28859 H 2785.74 -1.70722 -6.22515 0
M  V30 28860 H 2786.51 -3.3798 -7.45461 0
M  V30 28861 N 2789.17 1.5727 -0.101929 0
M  V30 28862 C 2790.42 1.93773 0.559888 0
M  V30 28863 C 2790.74 0.98632 1.68911 0
M  V30 28864 O 2791.94 1.24534 2.41254 0
M  V30 28865 C 2790.4 3.44324 1.04733 0
M  V30 28866 C 2790.01 4.47969 -0.0525087 0
M  V30 28867 C 2791.75 3.89777 1.6815 0
M  V30 28868 C 2789.66 5.8968 0.450677 0
M  V30 28869 H 2788.59 0.723313 0.212918 0
M  V30 28870 H 2791.24 1.82625 -0.179033 0
M  V30 28871 H 2789.62 3.50648 1.84015 0
M  V30 28872 H 2790.79 4.53296 -0.828237 0
M  V30 28873 H 2789.11 4.12166 -0.592275 0
M  V30 28874 H 2791.71 4.93056 2.06881 0
M  V30 28875 H 2792.05 3.28803 2.55332 0
M  V30 28876 H 2792.58 3.86182 0.954385 0
M  V30 28877 H 2789.32 6.5437 -0.384695 0
M  V30 28878 H 2788.84 5.87811 1.19326 0
M  V30 28879 H 2790.52 6.40462 0.917443 0
M  V30 28880 N 2790.65 -0.171793 1.56661 0
M  V30 28881 C 2791.9 -0.886799 1.8116 0
M  V30 28882 C 2792.21 -1.83433 0.679105 0
M  V30 28883 O 2793.42 -2.59167 0.80901 0
M  V30 28884 C 2791.88 -1.62744 3.21002 0
M  V30 28885 C 2791.48 -0.723574 4.42118 0
M  V30 28886 C 2793.23 -2.3307 3.54794 0
M  V30 28887 C 2791.14 -1.46442 5.72982 0
M  V30 28888 H 2790.07 -0.334887 0.675549 0
M  V30 28889 H 2792.72 -0.139733 1.82967 0
M  V30 28890 H 2791.1 -2.41924 3.1351 0
M  V30 28891 H 2792.27 0.0312295 4.60789 0
M  V30 28892 H 2790.59 -0.12999 4.16197 0
M  V30 28893 H 2793.18 -2.89091 4.49811 0
M  V30 28894 H 2793.53 -3.08384 2.79651 0
M  V30 28895 H 2794.06 -1.60834 3.63837 0
M  V30 28896 H 2790.8 -0.753615 6.51154 0
M  V30 28897 H 2790.32 -2.19256 5.58289 0
M  V30 28898 H 2792 -2.01203 6.1492 0
M  V30 28899 N 2792.13 -1.51324 -0.44033 0
M  V30 28900 C 2793.09 -1.71834 -1.51676 0
M  V30 28901 C 2794.09 -0.588412 -1.49647 0
M  V30 28902 O 2795.28 -0.855918 -1.51722 0
M  V30 28903 C 2792.42 -1.77204 -2.91224 0
M  V30 28904 H 2793.61 -2.679 -1.34795 0
M  V30 28905 H 2791.16 -1.41268 -0.668805 0
M  V30 28906 H 2791.9 -0.829418 -3.13514 0
M  V30 28907 H 2791.68 -2.59319 -2.94102 0
M  V30 28908 H 2793.17 -1.94921 -3.69318 0
M  V30 28909 N 2793.61 0.695578 -1.41419 0
M  V30 28910 C 2794.86 1.45274 -1.40498 0
M  V30 28911 C 2795.18 1.94994 -0.0149881 0
M  V30 28912 O 2794.45 1.71701 0.94317 0
M  V30 28913 H 2793.03 0.539035 -0.517156 0
M  V30 28914 H 2795.69 0.82329 -1.76658 0
M  V30 28915 H 2794.79 2.31591 -2.09218 0
M  V30 28916 N 2795.09 1.27247 0.929833 0
M  V30 28917 C 2796.34 1.13236 1.67398 0
M  V30 28918 C 2796.66 -0.32271 1.92311 0
M  V30 28919 O 2795.93 -1.2261 1.52786 0
M  V30 28920 H 2794.51 0.416063 0.620404 0
M  V30 28921 H 2797.17 1.59743 1.1166 0
M  V30 28922 H 2796.26 1.6598 2.64305 0
M  V30 28923 N 2796.57 -1.13603 1.09235 0
M  V30 28924 C 2797.5 -2.21067 0.751776 0
M  V30 28925 C 2798.48 -1.67949 -0.269659 0
M  V30 28926 O 2799.66 -1.93708 -0.138156 0
M  V30 28927 C 2796.79 -3.46887 0.169411 0
M  V30 28928 C 2795.75 -4.13082 1.12014 0
M  V30 28929 C 2795.07 -5.33205 0.399577 0
M  V30 28930 C 2796.37 -4.60646 2.46176 0
M  V30 28931 H 2798.07 -2.49812 1.65029 0
M  V30 28932 H 2795.61 -1.20071 0.794926 0
M  V30 28933 H 2797.56 -4.21322 -0.0809084 0
M  V30 28934 H 2796.29 -3.17532 -0.76428 0
M  V30 28935 H 2794.95 -3.40612 1.3557 0
M  V30 28936 H 2794.6 -5.00113 -0.538189 0
M  V30 28937 H 2794.3 -5.7844 1.03347 0
M  V30 28938 H 2795.82 -6.10397 0.157511 0
M  V30 28939 H 2797.23 -5.26514 2.26838 0
M  V30 28940 H 2795.63 -5.16614 3.05335 0
M  V30 28941 H 2796.7 -3.75271 3.07083 0
M  V30 28942 N 2798.04 -0.879253 -1.30793 0
M  V30 28943 C 2799.29 -0.493843 -1.95973 0
M  V30 28944 C 2799.61 0.958991 -1.69789 0
M  V30 28945 O 2798.88 1.67351 -1.01835 0
M  V30 28946 H 2797.46 -0.179635 -0.72508 0
M  V30 28947 H 2800.12 -1.12108 -1.5943 0
M  V30 28948 H 2799.22 -0.659316 -3.05056 0
M  V30 28949 N 2799.52 1.44037 -0.639624 0
M  V30 28950 C 2800.77 2.01563 -0.147224 0
M  V30 28951 C 2801.09 1.5063 1.23837 0
M  V30 28952 O 2800.36 0.713348 1.8245 0
M  V30 28953 H 2798.94 0.745227 -0.0514362 0
M  V30 28954 H 2801.6 1.76426 -0.828236 0
M  V30 28955 H 2800.7 3.11864 -0.121412 0
M  V30 28956 N 2801 0.380691 1.52933 0
M  V30 28957 C 2802.25 -0.204242 2.01467 0
M  V30 28958 C 2802.57 -1.47531 1.26747 0
M  V30 28959 O 2801.83 -1.92476 0.353757 0
M  V30 28960 C 2802.13 -0.527137 3.53491 0
M  V30 28961 C 2801.79 0.651373 4.4617 0
M  V30 28962 C 2800.46 0.974702 4.71225 0
M  V30 28963 C 2802.81 1.4402 5.00907 0
M  V30 28964 C 2800.14 2.08856 5.48266 0
M  V30 28965 C 2802.49 2.5446 5.79166 0
M  V30 28966 C 2801.15 2.87311 6.02502 0
M  V30 28967 H 2800.42 -0.0747375 0.737221 0
M  V30 28968 H 2803.07 0.516266 1.8441 0
M  V30 28969 H 2801.37 -1.32886 3.68576 0
M  V30 28970 H 2803.07 -0.992215 3.88531 0
M  V30 28971 H 2799.66 0.389351 4.26828 0
M  V30 28972 H 2803.85 1.20365 4.81483 0
M  V30 28973 H 2799.1 2.34689 5.64563 0
M  V30 28974 H 2803.28 3.15991 6.20583 0
M  V30 28975 H 2800.9 3.73742 6.61983 0
M  V30 28976 N 2802.48 -1.57214 0.110268 0
M  V30 28977 C 2803.73 -1.94507 -0.548749 0
M  V30 28978 C 2804.05 -0.993889 -1.6777 0
M  V30 28979 O 2803.32 -0.0486185 -1.9584 0
M  V30 28980 H 2801.9 -0.718119 -0.205702 0
M  V30 28981 H 2804.56 -1.94093 0.177161 0
M  V30 28982 H 2803.65 -2.97321 -0.949043 0
M  V30 28983 N 2803.96 0.163482 -1.5675 0
M  V30 28984 C 2804.89 1.20435 -2.00044 0
M  V30 28985 C 2805.87 1.45732 -0.877282 0
M  V30 28986 O 2807.05 1.56933 -1.14393 0
M  V30 28987 C 2804.18 2.54145 -2.36702 0
M  V30 28988 C 2803.14 2.43402 -3.52051 0
M  V30 28989 C 2802.46 3.81673 -3.74473 0
M  V30 28990 C 2803.76 1.93208 -4.85251 0
M  V30 28991 H 2805.46 0.844427 -2.87245 0
M  V30 28992 H 2803 0.404755 -1.38195 0
M  V30 28993 H 2804.95 3.27171 -2.65588 0
M  V30 28994 H 2803.68 2.9194 -1.46419 0
M  V30 28995 H 2802.34 1.72829 -3.23304 0
M  V30 28996 H 2801.99 4.16875 -2.81468 0
M  V30 28997 H 2801.69 3.75351 -4.5209 0
M  V30 28998 H 2803.21 4.56273 -4.05768 0
M  V30 28999 H 2804.62 2.56014 -5.12962 0
M  V30 29000 H 2803.02 1.97815 -5.66559 0
M  V30 29001 H 2804.09 0.886806 -4.76722 0
M  V30 29002 N 2805.43 1.51555 0.432299 0
M  V30 29003 C 2806.34 1.76085 1.5502 0
M  V30 29004 C 2807.36 0.645294 1.61592 0
M  V30 29005 O 2808.54 0.928117 1.7874 0
M  V30 29006 C 2805.6 1.88528 2.90961 0
M  V30 29007 C 2804.66 3.12393 2.94464 0
M  V30 29008 C 2803.89 3.24233 4.23921 0
M  V30 29009 O 2804.12 2.41889 5.16571 0
M  V30 29010 O 2803.05 4.17243 4.33811 0
M  V30 29011 H 2806.88 2.70925 1.37234 0
M  V30 29012 H 2804.46 1.36118 0.615821 0
M  V30 29013 H 2806.34 1.98669 3.7163 0
M  V30 29014 H 2805.02 0.968755 3.08864 0
M  V30 29015 H 2803.93 3.07727 2.12732 0
M  V30 29016 H 2805.26 4.03751 2.81507 0
M  V30 29017 N 2806.91 -0.688069 1.41786 0
M  V30 29018 C 2807.84 -1.81418 1.47003 0
M  V30 29019 C 2808.82 -1.66909 0.32791 0
M  V30 29020 O 2810.01 -1.8653 0.540395 0
M  V30 29021 C 2807.14 -3.19615 1.35881 0
M  V30 29022 C 2806.09 -3.48839 2.47982 0
M  V30 29023 C 2805.42 -4.86471 2.21923 0
M  V30 29024 C 2806.72 -3.47061 3.90315 0
M  V30 29025 H 2808.41 -1.7731 2.4125 0
M  V30 29026 H 2805.96 -0.851631 1.16117 0
M  V30 29027 H 2807.91 -3.98114 1.38141 0
M  V30 29028 H 2806.63 -3.24368 0.381217 0
M  V30 29029 H 2805.29 -2.72694 2.45017 0
M  V30 29030 H 2804.94 -4.87858 1.22489 0
M  V30 29031 H 2804.64 -5.06989 2.97046 0
M  V30 29032 H 2806.17 -5.67271 2.25911 0
M  V30 29033 H 2807.58 -4.15553 3.94954 0
M  V30 29034 H 2805.98 -3.79112 4.65182 0
M  V30 29035 H 2807.05 -2.45889 4.17932 0
M  V30 29036 N 2808.39 -1.27739 -0.923072 0
M  V30 29037 C 2809.35 -1.10898 -2.00585 0
M  V30 29038 C 2810.35 -0.0515209 -1.60717 0
M  V30 29039 O 2811.54 -0.296511 -1.71658 0
M  V30 29040 C 2808.67 -0.690776 -3.33828 0
M  V30 29041 H 2809.87 -2.07052 -2.16955 0
M  V30 29042 H 2807.42 -1.10592 -1.10449 0
M  V30 29043 H 2808.16 0.271944 -3.23158 0
M  V30 29044 H 2807.94 -1.45455 -3.64123 0
M  V30 29045 H 2809.43 -0.595324 -4.13335 0
M  V30 29046 N 2809.87 1.13022 -1.09836 0
M  V30 29047 C 2810.8 2.18268 -0.699417 0
M  V30 29048 C 2811.81 1.60697 0.260813 0
M  V30 29049 O 2813 1.7844 0.0462224 0
M  V30 29050 C 2810.1 3.38898 -0.0105133 0
M  V30 29051 C 2809.28 4.25971 -0.99335 0
M  V30 29052 C 2808.33 5.25119 -0.337075 0
M  V30 29053 O 2807.36 5.60595 -0.985991 0
M  V30 29054 N 2808.56 5.7337 0.90706 0
M  V30 29055 H 2811.33 2.53107 -1.6049 0
M  V30 29056 H 2808.89 1.28384 -0.98636 0
M  V30 29057 H 2810.88 4.02303 0.439839 0
M  V30 29058 H 2809.45 3.02262 0.797281 0
M  V30 29059 H 2808.67 3.59277 -1.62214 0
M  V30 29060 H 2809.96 4.80999 -1.65885 0
M  V30 29061 H 2809.36 5.46702 1.45375 0
M  V30 29062 H 2807.91 6.38691 1.30066 0
M  V30 29063 N 2811.35 0.886177 1.30325 0
M  V30 29064 C 2812.59 0.515347 1.96763 0
M  V30 29065 C 2812.95 -0.925522 1.68677 0
M  V30 29066 O 2812.24 -1.64538 0.981722 0
M  V30 29067 C 2812.43 0.728104 3.49905 0
M  V30 29068 C 2812.26 2.1881 3.92877 0
M  V30 29069 C 2811.03 2.83291 4.18419 0
M  V30 29070 C 2813.23 3.16202 4.05611 0
M  V30 29071 N 2811.21 4.19875 4.4786 0
M  V30 29072 C 2812.58 4.37862 4.38949 0
M  V30 29073 C 2814.64 3.11975 3.88041 0
M  V30 29074 C 2813.34 5.55837 4.56549 0
M  V30 29075 C 2815.37 4.29223 4.06844 0
M  V30 29076 C 2814.73 5.49649 4.40528 0
M  V30 29077 H 2810.83 0.237929 0.744925 0
M  V30 29078 H 2813.41 1.14417 1.57534 0
M  V30 29079 H 2811.58 0.128764 3.88186 0
M  V30 29080 H 2813.32 0.324054 4.03401 0
M  V30 29081 H 2810.07 2.34154 4.11666 0
M  V30 29082 H 2810.5 4.90416 4.66713 0
M  V30 29083 H 2815.14 2.19967 3.61074 0
M  V30 29084 H 2812.86 6.48348 4.82359 0
M  V30 29085 H 2816.44 4.27422 3.94717 0
M  V30 29086 H 2815.32 6.38864 4.54778 0
M  V30 29087 N 2812.82 -1.43695 0.647253 0
M  V30 29088 C 2813.75 -2.33474 -0.0345221 0
M  V30 29089 C 2814.74 -1.49131 -0.818166 0
M  V30 29090 O 2815.92 -1.77811 -0.780835 0
M  V30 29091 C 2813.05 -3.3242 -1.0057 0
M  V30 29092 C 2812 -4.26706 -0.332585 0
M  V30 29093 C 2811.33 -5.15643 -1.4148 0
M  V30 29094 C 2812.63 -5.16574 0.771295 0
M  V30 29095 H 2814.32 -2.90732 0.715214 0
M  V30 29096 H 2811.87 -1.39797 0.345389 0
M  V30 29097 H 2813.82 -3.94121 -1.49152 0
M  V30 29098 H 2812.55 -2.73406 -1.78653 0
M  V30 29099 H 2811.21 -3.6636 0.132735 0
M  V30 29100 H 2810.85 -4.52972 -2.1869 0
M  V30 29101 H 2810.55 -5.79543 -0.969697 0
M  V30 29102 H 2812.08 -5.80218 -1.9021 0
M  V30 29103 H 2813.49 -5.72118 0.367891 0
M  V30 29104 H 2811.89 -5.89163 1.1405 0
M  V30 29105 H 2812.96 -4.5662 1.63177 0
M  V30 29106 N 2814.3 -0.388796 -1.52729 0
M  V30 29107 C 2815.55 0.194798 -2.00757 0
M  V30 29108 C 2815.86 1.47944 -1.27953 0
M  V30 29109 O 2817.07 2.14305 -1.6669 0
M  V30 29110 C 2815.53 0.397699 -3.57696 0
M  V30 29111 C 2815.13 -0.87366 -4.39399 0
M  V30 29112 C 2816.88 0.937686 -4.14014 0
M  V30 29113 C 2814.79 -0.639065 -5.87937 0
M  V30 29114 H 2813.72 0.0765713 -0.750102 0
M  V30 29115 H 2816.37 -0.511117 -1.76238 0
M  V30 29116 H 2814.75 1.16545 -3.78462 0
M  V30 29117 H 2815.92 -1.64599 -4.304 0
M  V30 29118 H 2814.24 -1.33856 -3.94299 0
M  V30 29119 H 2816.83 1.1289 -5.22647 0
M  V30 29120 H 2817.18 1.9066 -3.70074 0
M  V30 29121 H 2817.71 0.229518 -3.97137 0
M  V30 29122 H 2814.45 -1.57896 -6.36199 0
M  V30 29123 H 2813.97 0.0943376 -5.99726 0
M  V30 29124 H 2815.65 -0.273413 -6.46422 0
M  V30 29125 N 2815.78 1.57153 -0.118604 0
M  V30 29126 C 2816.71 2.12364 0.86221 0
M  V30 29127 C 2817.73 1.06627 1.23023 0
M  V30 29128 O 2818.91 1.34 1.17924 0
M  V30 29129 C 2816.01 2.60798 2.1642 0
M  V30 29130 C 2815.19 3.90629 1.96794 0
M  V30 29131 C 2814.25 4.24665 3.10719 0
M  V30 29132 O 2813.27 4.93489 2.8365 0
M  V30 29133 N 2814.47 3.81953 4.37141 0
M  V30 29134 H 2817.24 2.97145 0.390512 0
M  V30 29135 H 2814.8 1.61766 0.0658306 0
M  V30 29136 H 2816.79 2.80598 2.91628 0
M  V30 29137 H 2815.36 1.80899 2.5494 0
M  V30 29138 H 2814.58 3.79742 1.05781 0
M  V30 29139 H 2815.87 4.75523 1.80985 0
M  V30 29140 H 2815.27 3.26443 4.62008 0
M  V30 29141 H 2813.83 4.06862 5.09221 0
M  V30 29142 N 2817.26 -0.155167 1.56834 0
M  V30 29143 C 2818.67 -0.507523 1.51315 0
M  V30 29144 C 2818.87 -1.83808 0.825647 0
M  V30 29145 O 2817.93 -2.49427 0.392754 0
M  V30 29146 C 2819.24 -0.525368 2.96075 0
M  V30 29147 C 2820.79 -0.611451 3.0697 0
M  V30 29148 C 2821.27 -0.660036 4.53219 0
M  V30 29149 N 2822.76 -0.722484 4.57531 0
M  V30 29150 C 2823.49 -0.780923 5.68057 0
M  V30 29151 N 2822.99 -0.799206 6.88175 0
M  V30 29152 N 2824.78 -0.82118 5.56069 0
M  V30 29153 H 2816.93 0.717098 1.99929 0
M  V30 29154 H 2819.2 0.260512 0.911503 0
M  V30 29155 H 2818.9 0.383936 3.49598 0
M  V30 29156 H 2818.78 -1.36618 3.5159 0
M  V30 29157 H 2821.16 -1.51118 2.53471 0
M  V30 29158 H 2821.24 0.256351 2.54512 0
M  V30 29159 H 2820.89 0.235499 5.07354 0
M  V30 29160 H 2820.82 -1.54421 5.0345 0
M  V30 29161 H 2823.31 -0.715984 3.71055 0
M  V30 29162 H 2823.62 -0.845418 7.68162 0
M  V30 29163 H 2821.97 -0.767216 6.90752 0
M  V30 29164 H 2825.16 -0.80401 4.61143 0
M  V30 29165 H 2825.33 -0.863259 6.42224 0
M  V30 29166 N 2818.74 -1.51782 -0.424256 0
M  V30 29167 C 2819.98 -1.64771 -1.17025 0
M  V30 29168 C 2820.31 -0.372557 -1.91408 0
M  V30 29169 O 2819.58 0.612076 -1.86093 0
M  V30 29170 H 2818.16 -0.607289 -0.434981 0
M  V30 29171 H 2820.82 -1.88766 -0.485135 0
M  V30 29172 H 2819.91 -2.48163 -1.89266 0
M  V30 29173 N 2820.21 0.68054 -1.42149 0
M  V30 29174 C 2821.46 1.44274 -1.42523 0
M  V30 29175 C 2821.79 1.9416 -0.0394059 0
M  V30 29176 O 2821.07 1.7053 0.935395 0
M  V30 29177 C 2821.35 2.64389 -2.4448 0
M  V30 29178 C 2821.2 2.20172 -3.9223 0
M  V30 29179 C 2822.52 3.66602 -2.43497 0
M  V30 29180 H 2819.64 0.523273 -0.518994 0
M  V30 29181 H 2822.28 0.773883 -1.73525 0
M  V30 29182 H 2820.43 3.21454 -2.18173 0
M  V30 29183 H 2822.11 1.68319 -4.29496 0
M  V30 29184 H 2820.35 1.51803 -4.06372 0
M  V30 29185 H 2821.02 3.06425 -4.59138 0
M  V30 29186 H 2823.5 3.19242 -2.66877 0
M  V30 29187 H 2822.37 4.48234 -3.16824 0
M  V30 29188 H 2822.63 4.17336 -1.45889 0
M  V30 29189 N 2821.69 1.28226 0.916285 0
M  V30 29190 C 2822.62 1.07736 2.02301 0
M  V30 29191 C 2823.64 0.0298707 1.62773 0
M  V30 29192 O 2824.83 0.272657 1.76405 0
M  V30 29193 C 2821.93 0.614562 3.33281 0
M  V30 29194 C 2821.1 1.73689 4.01436 0
M  V30 29195 C 2820.16 1.2679 5.10696 0
M  V30 29196 O 2819.18 1.96967 5.34034 0
M  V30 29197 N 2820.39 0.129726 5.80355 0
M  V30 29198 H 2823.15 2.03045 2.20438 0
M  V30 29199 H 2820.71 1.19945 1.08742 0
M  V30 29200 H 2822.7 0.284468 4.03699 0
M  V30 29201 H 2821.27 -0.245609 3.11634 0
M  V30 29202 H 2820.49 2.2367 3.246 0
M  V30 29203 H 2821.78 2.48983 4.43717 0
M  V30 29204 H 2821.18 -0.455748 5.63861 0
M  V30 29205 H 2819.74 -0.141109 6.51647 0
M  V30 29206 N 2823.17 -1.12438 1.10433 0
M  V30 29207 C 2824.12 -2.18166 0.753141 0
M  V30 29208 C 2825.09 -1.63882 -0.27052 0
M  V30 29209 O 2826.27 -1.90211 -0.149804 0
M  V30 29210 C 2823.41 -3.4457 0.191106 0
M  V30 29211 C 2822.53 -4.12908 1.27006 0
M  V30 29212 C 2821.66 -5.26962 0.669679 0
M  V30 29213 C 2820.7 -5.87166 1.72922 0
M  V30 29214 N 2819.84 -6.92633 1.1491 0
M  V30 29215 H 2824.68 -2.47553 1.65896 0
M  V30 29216 H 2822.21 -1.21539 0.828652 0
M  V30 29217 H 2824.17 -4.16921 -0.152638 0
M  V30 29218 H 2822.8 -3.15601 -0.677942 0
M  V30 29219 H 2821.85 -3.38737 1.73093 0
M  V30 29220 H 2823.17 -4.53723 2.07212 0
M  V30 29221 H 2822.32 -6.06075 0.27538 0
M  V30 29222 H 2821.06 -4.87425 -0.16381 0
M  V30 29223 H 2820.06 -5.0674 2.13294 0
M  V30 29224 H 2821.29 -6.28774 2.56555 0
M  V30 29225 H 2819.23 -6.55133 0.337071 0
M  V30 29226 H 2819.15 -7.32046 1.88799 0
M  V30 29227 H 2820.42 -7.75574 0.781346 0
M  V30 29228 N 2824.65 -0.893076 -1.29853 0
M  V30 29229 C 2825.58 -0.382289 -2.30349 0
M  V30 29230 C 2826.56 0.539174 -1.61329 0
M  V30 29231 O 2827.75 0.451309 -1.88883 0
M  V30 29232 C 2824.88 0.396922 -3.45024 0
M  V30 29233 C 2823.83 -0.433512 -4.25799 0
M  V30 29234 C 2823.16 0.472796 -5.32606 0
M  V30 29235 C 2824.46 -1.67993 -4.94546 0
M  V30 29236 H 2826.15 -1.2221 -2.73322 0
M  V30 29237 H 2823.7 -0.589096 -1.31399 0
M  V30 29238 H 2825.65 0.764951 -4.14399 0
M  V30 29239 H 2824.37 1.27045 -3.00877 0
M  V30 29240 H 2823.03 -0.783786 -3.58123 0
M  V30 29241 H 2822.68 1.34427 -4.84704 0
M  V30 29242 H 2822.38 -0.0790991 -5.87547 0
M  V30 29243 H 2823.9 0.837163 -6.04834 0
M  V30 29244 H 2825.32 -1.38202 -5.56393 0
M  V30 29245 H 2823.71 -2.17264 -5.59389 0
M  V30 29246 H 2824.78 -2.41972 -4.20211 0
M  V30 29247 N 2826.13 1.4335 -0.654865 0
M  V30 29248 C 2827.37 2.02093 -0.169178 0
M  V30 29249 C 2827.71 1.51555 1.21428 0
M  V30 29250 O 2826.98 0.709348 1.81104 0
M  V30 29251 C 2827.26 3.59641 -0.181838 0
M  V30 29252 C 2827.12 4.20406 -1.59933 0
M  V30 29253 C 2828.44 4.37465 0.480868 0
M  V30 29254 H 2825.56 0.734307 -0.0629501 0
M  V30 29255 H 2828.2 1.70626 -0.835863 0
M  V30 29256 H 2826.35 3.86579 0.38585 0
M  V30 29257 H 2828.02 4.04493 -2.21773 0
M  V30 29258 H 2826.26 3.76994 -2.14612 0
M  V30 29259 H 2826.93 5.29497 -1.56003 0
M  V30 29260 H 2829.41 4.161 -0.00215586 0
M  V30 29261 H 2828.29 5.47123 0.441288 0
M  V30 29262 H 2828.55 4.13841 1.55526 0
M  V30 29263 N 2827.61 0.39689 1.52521 0
M  V30 29264 C 2828.54 -0.425901 2.29583 0
M  V30 29265 C 2829.52 -1.05686 1.33283 0
M  V30 29266 O 2830.7 -1.0682 1.62182 0
M  V30 29267 C 2827.83 -1.54938 3.10824 0
M  V30 29268 C 2826.79 -1.04406 4.1507 0
M  V30 29269 C 2826.11 -2.26019 4.84582 0
M  V30 29270 C 2827.41 -0.106675 5.22191 0
M  V30 29271 H 2829.11 0.217097 2.98612 0
M  V30 29272 H 2826.65 0.105852 1.4361 0
M  V30 29273 H 2828.6 -2.13186 3.63496 0
M  V30 29274 H 2827.33 -2.22007 2.39542 0
M  V30 29275 H 2825.99 -0.484054 3.6339 0
M  V30 29276 H 2825.64 -2.91616 4.09841 0
M  V30 29277 H 2825.34 -1.92866 5.55046 0
M  V30 29278 H 2826.86 -2.84897 5.40061 0
M  V30 29279 H 2828.27 -0.597584 5.70177 0
M  V30 29280 H 2826.67 0.135458 5.99947 0
M  V30 29281 H 2827.74 0.842218 4.7753 0
M  V30 29282 N 2829.08 -1.57088 0.126936 0
M  V30 29283 C 2830.31 -1.9982 -0.536635 0
M  V30 29284 C 2830.73 -1.00676 -1.59718 0
M  V30 29285 O 2830.08 -0.000779444 -1.825 0
M  V30 29286 C 2830.13 -3.42533 -1.15557 0
M  V30 29287 O 2829.86 -4.37884 -0.137406 0
M  V30 29288 C 2831.36 -4.00438 -1.90169 0
M  V30 29289 H 2828.58 -0.655926 -0.141431 0
M  V30 29290 H 2831.12 -2.0336 0.215613 0
M  V30 29291 H 2829.28 -3.39907 -1.85855 0
M  V30 29292 H 2829.69 -5.21192 -0.588137 0
M  V30 29293 H 2831.16 -5.02353 -2.28792 0
M  V30 29294 H 2831.64 -3.40022 -2.77996 0
M  V30 29295 H 2832.25 -4.06634 -1.24615 0
M  V30 29296 N 2830.56 0.146848 -1.56914 0
M  V30 29297 C 2831.79 0.878353 -1.87882 0
M  V30 29298 C 2832.21 1.73941 -0.715975 0
M  V30 29299 O 2831.57 1.78189 0.334416 0
M  V30 29300 C 2831.62 1.71078 -3.17434 0
M  V30 29301 O 2830.72 2.81504 -3.01379 0
M  V30 29302 H 2830.06 0.244633 -0.617293 0
M  V30 29303 H 2832.59 0.137618 -2.04137 0
M  V30 29304 H 2832.6 2.10576 -3.49459 0
M  V30 29305 H 2831.28 1.07849 -4.01673 0
M  V30 29306 H 2829.85 2.45411 -2.80763 0
M  V30 29307 N 2832.04 1.52005 0.4162 0
M  V30 29308 C 2833.46 1.4065 0.754295 0
M  V30 29309 C 2833.66 0.505427 1.95058 0
M  V30 29310 O 2832.71 -0.0314613 2.5248 0
M  V30 29311 C 2834.02 2.83057 1.01485 0
M  V30 29312 C 2835.57 2.92352 1.118 0
M  V30 29313 C 2836.05 4.35711 1.41137 0
M  V30 29314 N 2837.54 4.38914 1.48016 0
M  V30 29315 C 2838.27 5.46892 1.72328 0
M  V30 29316 N 2837.77 6.64998 1.94292 0
M  V30 29317 N 2839.56 5.34398 1.74285 0
M  V30 29318 H 2831.71 2.09128 -0.37136 0
M  V30 29319 H 2833.98 0.942297 -0.103828 0
M  V30 29320 H 2833.68 3.51083 0.208283 0
M  V30 29321 H 2833.56 3.23672 1.93692 0
M  V30 29322 H 2835.94 2.24511 1.91517 0
M  V30 29323 H 2836.02 2.55204 0.174465 0
M  V30 29324 H 2835.67 5.04109 0.619395 0
M  V30 29325 H 2835.6 4.70389 2.36731 0
M  V30 29326 H 2838.09 3.53774 1.32861 0
M  V30 29327 H 2838.4 7.43075 2.12272 0
M  V30 29328 H 2836.75 6.68076 1.91571 0
M  V30 29329 H 2839.94 4.41107 1.5666 0
M  V30 29330 H 2840.11 6.18624 1.92894 0
M  V30 29331 N 2833.52 -0.672992 1.42508 0
M  V30 29332 C 2834.74 -1.46625 1.46683 0
M  V30 29333 C 2835.17 -1.87929 0.080099 0
M  V30 29334 O 2834.53 -1.56114 -0.921851 0
M  V30 29335 C 2834.57 -2.69047 2.40096 0
M  V30 29336 O 2833.68 -3.67384 1.87357 0
M  V30 29337 H 2833.02 -0.440421 0.496915 0
M  V30 29338 H 2835.55 -0.825302 1.87216 0
M  V30 29339 H 2835.56 -3.17097 2.56737 0
M  V30 29340 H 2834.23 -2.38324 3.40844 0
M  V30 29341 H 2832.81 -3.26425 1.8028 0
M  V30 29342 N 2835 -1.2871 -0.909472 0
M  V30 29343 C 2836.24 -1.15885 -1.65575 0
M  V30 29344 C 2836.56 0.292075 -1.928 0
M  V30 29345 O 2835.83 1.20163 -1.54718 0
M  V30 29346 H 2834.41 -0.42588 -0.613706 0
M  V30 29347 H 2837.08 -1.615 -1.09105 0
M  V30 29348 H 2836.17 -1.70163 -2.61631 0
M  V30 29349 N 2836.47 1.1185 -1.11028 0
M  V30 29350 C 2837.72 1.82855 -0.851281 0
M  V30 29351 C 2838.04 1.85342 0.625108 0
M  V30 29352 O 2839.24 2.52404 1.00022 0
M  V30 29353 C 2837.7 3.28369 -1.47314 0
M  V30 29354 C 2837.31 3.34224 -2.98326 0
M  V30 29355 C 2839.05 4.04303 -1.2938 0
M  V30 29356 C 2836.96 4.74109 -3.53517 0
M  V30 29357 H 2835.89 0.685137 -0.314806 0
M  V30 29358 H 2838.54 1.25896 -1.33501 0
M  V30 29359 H 2836.92 3.85234 -0.917085 0
M  V30 29360 H 2838.09 2.87264 -3.603 0
M  V30 29361 H 2836.41 2.71767 -3.15486 0
M  V30 29362 H 2839.01 5.07605 -1.68051 0
M  V30 29363 H 2839.35 4.15631 -0.235952 0
M  V30 29364 H 2839.88 3.53814 -1.81826 0
M  V30 29365 H 2836.62 4.67978 -4.58996 0
M  V30 29366 H 2836.14 5.21496 -2.96314 0
M  V30 29367 H 2837.82 5.4306 -3.51703 0
M  V30 29368 N 2837.95 0.89995 1.29378 0
M  V30 29369 C 2839.37 0.596085 1.48051 0
M  V30 29370 C 2839.57 -0.86234 1.82115 0
M  V30 29371 O 2838.62 -1.6425 1.91777 0
M  V30 29372 C 2839.94 1.52212 2.5933 0
M  V30 29373 C 2841.48 1.52735 2.73205 0
M  V30 29374 C 2841.96 2.43968 3.87613 0
M  V30 29375 N 2843.45 2.42016 3.94946 0
M  V30 29376 C 2844.19 3.09312 4.82819 0
M  V30 29377 N 2843.68 3.85887 5.75381 0
M  V30 29378 N 2845.47 2.98468 4.76312 0
M  V30 29379 H 2837.63 1.84321 1.05543 0
M  V30 29380 H 2839.89 0.789819 0.5243 0
M  V30 29381 H 2839.59 2.56126 2.41024 0
M  V30 29382 H 2839.47 1.24284 3.56137 0
M  V30 29383 H 2841.86 0.495665 2.90907 0
M  V30 29384 H 2841.94 1.84701 1.76972 0
M  V30 29385 H 2841.58 3.47231 3.70666 0
M  V30 29386 H 2841.51 2.09311 4.83215 0
M  V30 29387 H 2844 1.8638 3.28741 0
M  V30 29388 H 2844.31 4.3429 6.39228 0
M  V30 29389 H 2842.66 3.89994 5.75265 0
M  V30 29390 H 2845.85 2.38159 4.02986 0
M  V30 29391 H 2846.02 3.51189 5.44583 0
M  V30 29392 N 2839.43 -1.43001 0.662458 0
M  V30 29393 C 2840.66 -2.06047 0.187651 0
M  V30 29394 C 2841.07 -1.49707 -1.15036 0
M  V30 29395 O 2840.43 -0.631986 -1.71208 0
M  V30 29396 C 2840.48 -3.6136 0.100561 0
M  V30 29397 O 2840.2 -4.15608 1.38569 0
M  V30 29398 C 2841.7 -4.41499 -0.39922 0
M  V30 29399 H 2838.92 -0.664358 0.0941792 0
M  V30 29400 H 2841.47 -1.8335 0.905714 0
M  V30 29401 H 2839.62 -3.83212 -0.568114 0
M  V30 29402 H 2840.04 -5.09364 1.25093 0
M  V30 29403 H 2841.51 -5.50482 -0.409091 0
M  V30 29404 H 2841.99 -4.15191 -1.43225 0
M  V30 29405 H 2842.59 -4.24638 0.237285 0
M  V30 29406 N 2840.91 -0.404973 -1.52308 0
M  V30 29407 C 2842.16 0.171824 -2.01368 0
M  V30 29408 C 2842.48 1.46 -1.29264 0
M  V30 29409 O 2841.75 1.91403 -0.417324 0
M  V30 29410 H 2840.33 0.0664863 -0.744035 0
M  V30 29411 H 2842.99 -0.540261 -1.87262 0
M  V30 29412 H 2842.09 0.370902 -3.09888 0
M  V30 29413 N 2842.39 1.57018 -0.135265 0
M  V30 29414 C 2843.62 1.99811 0.525268 0
M  V30 29415 C 2844.02 1.01417 1.59722 0
M  V30 29416 O 2843.37 0.00134167 1.837 0
M  V30 29417 C 2843.43 3.39032 1.19572 0
M  V30 29418 C 2843.09 4.56203 0.269775 0
M  V30 29419 C 2844.09 5.17509 -0.497996 0
M  V30 29420 C 2841.78 5.01991 0.1761 0
M  V30 29421 C 2843.77 6.23004 -1.34701 0
M  V30 29422 C 2841.46 6.07344 -0.676528 0
M  V30 29423 C 2842.45 6.67719 -1.4367 0
M  V30 29424 O 2842.14 7.71033 -2.27514 0
M  V30 29425 H 2841.87 0.660856 0.142285 0
M  V30 29426 H 2844.43 2.04183 -0.223308 0
M  V30 29427 H 2842.66 3.31464 1.9917 0
M  V30 29428 H 2844.35 3.66008 1.75479 0
M  V30 29429 H 2845.11 4.8304 -0.435592 0
M  V30 29430 H 2840.99 4.54734 0.757503 0
M  V30 29431 H 2844.54 6.70058 -1.94082 0
M  V30 29432 H 2840.43 6.41241 -0.740267 0
M  V30 29433 H 2841.2 7.88203 -2.20633 0
M  V30 29434 N 2843.86 -0.138524 1.5699 0
M  V30 29435 C 2844.8 -1.19606 1.95517 0
M  V30 29436 C 2845.81 -1.38724 0.852026 0
M  V30 29437 O 2847 -1.38145 1.13041 0
M  V30 29438 C 2844.1 -2.55948 2.22134 0
M  V30 29439 C 2843.27 -2.57695 3.53429 0
M  V30 29440 C 2842.33 -3.75639 3.68486 0
M  V30 29441 O 2841.36 -3.60122 4.40796 0
M  V30 29442 N 2842.56 -4.93432 3.05785 0
M  V30 29443 H 2845.32 -0.868507 2.8684 0
M  V30 29444 H 2842.88 -0.328005 1.58543 0
M  V30 29445 H 2844.88 -3.33375 2.29441 0
M  V30 29446 H 2843.45 -2.80963 1.37035 0
M  V30 29447 H 2842.67 -1.66123 3.57487 0
M  V30 29448 H 2843.95 -2.55901 4.39763 0
M  V30 29449 H 2843.35 -5.08942 2.4697 0
M  V30 29450 H 2841.91 -5.68604 3.18641 0
M  V30 29451 N 2845.34 -1.52224 -0.408133 0
M  V30 29452 C 2846.31 -1.75013 -1.47997 0
M  V30 29453 C 2847.31 -0.620023 -1.48366 0
M  V30 29454 O 2848.5 -0.887908 -1.49873 0
M  V30 29455 C 2845.63 -1.83341 -2.874 0
M  V30 29456 H 2846.82 -2.70699 -1.29082 0
M  V30 29457 H 2844.37 -1.42655 -0.63869 0
M  V30 29458 H 2845.11 -0.895732 -3.11684 0
M  V30 29459 H 2844.89 -2.65499 -2.88535 0
M  V30 29460 H 2846.38 -2.02711 -3.651 0
M  V30 29461 N 2846.82 0.665425 -1.42863 0
M  V30 29462 C 2847.77 1.77871 -1.47073 0
M  V30 29463 C 2848.74 1.62955 -0.321682 0
M  V30 29464 O 2849.92 1.83375 -0.527102 0
M  V30 29465 C 2847.06 3.1596 -1.38793 0
M  V30 29466 C 2846.18 3.42096 -2.63807 0
M  V30 29467 C 2845.31 4.69964 -2.47603 0
M  V30 29468 C 2844.35 4.89166 -3.67944 0
M  V30 29469 N 2843.49 6.08282 -3.50625 0
M  V30 29470 H 2848.33 1.73608 -2.42207 0
M  V30 29471 H 2845.86 0.84738 -1.20241 0
M  V30 29472 H 2847.82 3.95771 -1.31989 0
M  V30 29473 H 2846.45 3.19323 -0.472487 0
M  V30 29474 H 2845.5 2.5647 -2.8094 0
M  V30 29475 H 2846.82 3.52175 -3.53234 0
M  V30 29476 H 2845.97 5.57882 -2.38437 0
M  V30 29477 H 2844.71 4.62185 -1.5568 0
M  V30 29478 H 2843.71 3.99687 -3.77532 0
M  V30 29479 H 2844.94 4.98784 -4.60859 0
M  V30 29480 H 2842.88 6.01658 -2.61427 0
M  V30 29481 H 2842.8 6.19264 -4.33645 0
M  V30 29482 H 2844.07 6.98853 -3.45289 0
M  V30 29483 N 2848.3 1.29191 0.902633 0
M  V30 29484 C 2849.23 1.09875 2.01147 0
M  V30 29485 C 2850.24 0.0471332 1.62732 0
M  V30 29486 O 2851.43 0.291351 1.76106 0
M  V30 29487 C 2848.53 0.649876 3.32611 0
M  V30 29488 C 2847.71 1.77937 3.99571 0
M  V30 29489 C 2846.76 1.322 5.09323 0
M  V30 29490 O 2845.79 2.0262 5.31915 0
M  V30 29491 N 2846.99 0.191273 5.80185 0
M  V30 29492 H 2849.76 2.05371 2.18272 0
M  V30 29493 H 2847.32 1.21092 1.07463 0
M  V30 29494 H 2849.31 0.32727 4.03375 0
M  V30 29495 H 2847.88 -0.212542 3.11877 0
M  V30 29496 H 2847.1 2.27101 3.22209 0
M  V30 29497 H 2848.39 2.53676 4.41051 0
M  V30 29498 H 2847.79 -0.395917 5.64313 0
M  V30 29499 H 2846.34 -0.0719855 6.5176 0
M  V30 29500 N 2849.78 -1.1126 1.1162 0
M  V30 29501 C 2851.02 -1.83309 0.867495 0
M  V30 29502 C 2851.36 -1.84525 -0.605333 0
M  V30 29503 O 2850.63 -1.29968 -1.44702 0
M  V30 29504 C 2850.91 -3.30397 1.43213 0
M  V30 29505 C 2850.77 -3.37565 2.97271 0
M  V30 29506 C 2852.09 -4.26526 1.08461 0
M  V30 29507 H 2849.2 -0.665537 0.31659 0
M  V30 29508 H 2851.85 -1.30452 1.38139 0
M  V30 29509 H 2850 -3.75541 0.995048 0
M  V30 29510 H 2851.67 -3.00965 3.49596 0
M  V30 29511 H 2849.91 -2.77727 3.33242 0
M  V30 29512 H 2850.58 -4.41099 3.31867 0
M  V30 29513 H 2853.06 -3.89571 1.46196 0
M  V30 29514 H 2851.93 -5.27824 1.50643 0
M  V30 29515 H 2852.2 -4.421 -0.00436797 0
M  V30 29516 N 2851.25 -0.906798 -1.28899 0
M  V30 29517 C 2852.67 -0.603928 -1.47732 0
M  V30 29518 C 2852.87 0.85267 -1.8257 0
M  V30 29519 O 2851.93 1.6323 -1.92645 0
M  V30 29520 C 2853.24 -1.53585 -2.58519 0
M  V30 29521 C 2854.79 -1.54182 -2.72391 0
M  V30 29522 C 2855.26 -2.4602 -3.86314 0
M  V30 29523 N 2856.75 -2.44107 -3.93657 0
M  V30 29524 C 2857.49 -3.11868 -4.81172 0
M  V30 29525 N 2856.98 -3.88933 -5.73326 0
M  V30 29526 N 2858.78 -3.0099 -4.74723 0
M  V30 29527 H 2850.93 -1.84879 -1.04564 0
M  V30 29528 H 2853.19 -0.792588 -0.520104 0
M  V30 29529 H 2852.9 -2.574 -2.39662 0
M  V30 29530 H 2852.77 -1.26171 -3.55472 0
M  V30 29531 H 2855.16 -0.511086 -2.90641 0
M  V30 29532 H 2855.24 -1.85637 -1.7599 0
M  V30 29533 H 2854.88 -3.49191 -3.68819 0
M  V30 29534 H 2854.81 -2.11871 -4.82098 0
M  V30 29535 H 2857.3 -1.88121 -3.27748 0
M  V30 29536 H 2857.62 -4.37674 -6.36915 0
M  V30 29537 H 2855.96 -3.93039 -5.73189 0
M  V30 29538 H 2859.15 -2.40293 -4.01717 0
M  V30 29539 H 2859.33 -3.54072 -5.42713 0
M  V30 29540 N 2852.73 1.42648 -0.670032 0
M  V30 29541 C 2854.15 1.55955 -0.339137 0
M  V30 29542 C 2854.35 1.65058 1.15577 0
M  V30 29543 O 2853.4 1.61488 1.94108 0
M  V30 29544 C 2854.72 2.81198 -1.06527 0
M  V30 29545 C 2856.27 2.94965 -1.04713 0
M  V30 29546 C 2856.74 4.23062 -1.75449 0
M  V30 29547 N 2858.23 4.29964 -1.72294 0
M  V30 29548 C 2858.97 5.27885 -2.23886 0
M  V30 29549 N 2858.46 6.31986 -2.8384 0
M  V30 29550 N 2860.26 5.19651 -2.14288 0
M  V30 29551 H 2852.41 1.34983 -1.63992 0
M  V30 29552 H 2854.67 0.649427 -0.690615 0
M  V30 29553 H 2854.38 2.80594 -2.12038 0
M  V30 29554 H 2854.25 3.71945 -0.627464 0
M  V30 29555 H 2856.64 2.951 -0.000367837 0
M  V30 29556 H 2856.72 2.05462 -1.52378 0
M  V30 29557 H 2856.36 4.23688 -2.80091 0
M  V30 29558 H 2856.29 5.11491 -1.25238 0
M  V30 29559 H 2858.78 3.5536 -1.2856 0
M  V30 29560 H 2859.1 7.03052 -3.2084 0
M  V30 29561 H 2857.44 6.32562 -2.87908 0
M  V30 29562 H 2860.63 4.37243 -1.67142 0
M  V30 29563 H 2860.8 5.95802 -2.54803 0
M  V30 29564 N 2854.21 0.413044 1.52091 0
M  V30 29565 C 2855.46 -0.154068 2.02816 0
M  V30 29566 C 2855.81 -1.42473 1.29303 0
M  V30 29567 O 2855.11 -1.8755 0.391868 0
M  V30 29568 C 2855.3 -0.452037 3.5453 0
M  V30 29569 C 2855.13 0.788193 4.42739 0
M  V30 29570 C 2853.9 1.31455 4.87901 0
M  V30 29571 C 2856.1 1.66743 4.86519 0
M  V30 29572 N 2854.08 2.50986 5.60249 0
M  V30 29573 C 2855.45 2.70896 5.57688 0
M  V30 29574 C 2857.5 1.68473 4.68531 0
M  V30 29575 C 2856.21 3.76693 6.12776 0
M  V30 29576 C 2858.23 2.73191 5.24519 0
M  V30 29577 C 2857.6 3.76064 5.95613 0
M  V30 29578 H 2853.69 -0.0178429 0.781796 0
M  V30 29579 H 2856.28 0.56827 1.86222 0
M  V30 29580 H 2854.45 -1.14342 3.71188 0
M  V30 29581 H 2856.18 -1.00837 3.91936 0
M  V30 29582 H 2852.94 0.872013 4.65503 0
M  V30 29583 H 2853.36 3.11532 6.01063 0
M  V30 29584 H 2858 0.90278 4.13049 0
M  V30 29585 H 2855.72 4.55741 6.67327 0
M  V30 29586 H 2859.31 2.75442 5.12468 0
M  V30 29587 H 2858.19 4.55763 6.38161 0
M  V30 29588 N 2855.69 -1.56945 0.143591 0
M  V30 29589 C 2857.11 -1.58174 -0.212849 0
M  V30 29590 C 2857.31 -1.15768 -1.64924 0
M  V30 29591 O 2856.36 -0.856402 -2.37533 0
M  V30 29592 C 2857.67 -3.0067 0.0428101 0
M  V30 29593 C 2859.22 -3.12993 -0.0211671 0
M  V30 29594 C 2859.7 -4.57531 0.207116 0
M  V30 29595 N 2861.19 -4.62944 0.153927 0
M  V30 29596 C 2861.92 -5.72588 0.305119 0
M  V30 29597 N 2861.42 -6.90892 0.513844 0
M  V30 29598 N 2863.21 -5.61575 0.242961 0
M  V30 29599 H 2855.36 -1.82804 1.08151 0
M  V30 29600 H 2857.63 -0.845962 0.427846 0
M  V30 29601 H 2857.33 -3.36071 1.03678 0
M  V30 29602 H 2857.21 -3.71054 -0.67813 0
M  V30 29603 H 2859.59 -2.77435 -1.00569 0
M  V30 29604 H 2859.67 -2.45101 0.732047 0
M  V30 29605 H 2859.32 -4.93793 1.18872 0
M  V30 29606 H 2859.25 -5.23545 -0.566381 0
M  V30 29607 H 2861.74 -3.779 -0.00288224 0
M  V30 29608 H 2862.05 -7.70314 0.619409 0
M  V30 29609 H 2860.4 -6.92819 0.550123 0
M  V30 29610 H 2863.59 -4.6803 0.0806838 0
M  V30 29611 H 2863.76 -6.46976 0.364226 0
M  V30 29612 N 2857.17 0.130197 -1.57061 0
M  V30 29613 C 2858.58 0.483386 -1.52104 0
M  V30 29614 C 2858.78 1.82471 -0.854784 0
M  V30 29615 O 2857.84 2.4877 -0.432386 0
M  V30 29616 C 2859.15 0.478198 -2.96873 0
M  V30 29617 C 2860.7 0.562538 -3.07903 0
M  V30 29618 C 2861.18 0.587849 -4.54212 0
M  V30 29619 N 2862.67 0.649603 -4.58622 0
M  V30 29620 C 2863.4 0.690451 -5.69228 0
M  V30 29621 N 2862.9 0.689622 -6.89359 0
M  V30 29622 N 2864.69 0.73261 -5.57305 0
M  V30 29623 H 2856.84 -0.748814 -1.98763 0
M  V30 29624 H 2859.1 -0.274981 -0.907243 0
M  V30 29625 H 2858.81 -0.439506 -3.48943 0
M  V30 29626 H 2858.68 1.31007 -3.53719 0
M  V30 29627 H 2861.07 1.47066 -2.55843 0
M  V30 29628 H 2861.15 -0.296809 -2.54072 0
M  V30 29629 H 2860.8 -0.316185 -5.06915 0
M  V30 29630 H 2860.73 1.46392 -5.05843 0
M  V30 29631 H 2863.22 0.656862 -3.72147 0
M  V30 29632 H 2863.53 0.723104 -7.6941 0
M  V30 29633 H 2861.88 0.657226 -6.91885 0
M  V30 29634 H 2865.07 0.730544 -4.62364 0
M  V30 29635 H 2865.24 0.760977 -6.43516 0
M  V30 29636 N 2858.65 1.52438 0.400055 0
M  V30 29637 C 2859.58 1.72669 1.50726 0
M  V30 29638 C 2860.59 0.607102 1.51057 0
M  V30 29639 O 2861.78 0.882507 1.55158 0
M  V30 29640 C 2858.88 1.76024 2.89601 0
M  V30 29641 C 2858.05 3.05163 3.1336 0
M  V30 29642 C 2857.11 3.00211 4.32157 0
M  V30 29643 O 2856.14 3.74099 4.28997 0
M  V30 29644 N 2857.34 2.18629 5.37756 0
M  V30 29645 H 2860.1 2.68193 1.33762 0
M  V30 29646 H 2857.67 1.50788 0.589453 0
M  V30 29647 H 2859.66 1.70231 3.67156 0
M  V30 29648 H 2858.23 0.879337 2.99977 0
M  V30 29649 H 2857.45 3.24533 2.23768 0
M  V30 29650 H 2858.74 3.90574 3.26082 0
M  V30 29651 H 2858.13 1.58044 5.43174 0
M  V30 29652 H 2856.69 2.18685 6.1402 0
M  V30 29653 N 2860.12 -0.657839 1.43214 0
M  V30 29654 C 2861.37 -1.41498 1.44301 0
M  V30 29655 C 2861.69 -1.94886 0.0666821 0
M  V30 29656 O 2860.96 -1.74141 -0.897315 0
M  V30 29657 H 2859.54 -0.525134 0.531266 0
M  V30 29658 H 2862.2 -0.776163 1.78778 0
M  V30 29659 H 2861.3 -2.25963 2.15284 0
M  V30 29660 N 2861.6 -1.29668 -0.895769 0
M  V30 29661 C 2862.85 -1.18042 -1.64906 0
M  V30 29662 C 2863.18 0.266648 -1.92361 0
M  V30 29663 O 2862.46 1.19211 -1.53684 0
M  V30 29664 C 2862.74 -1.99824 -2.9957 0
M  V30 29665 C 2862.59 -3.52692 -2.79156 0
M  V30 29666 C 2863.91 -1.82768 -4.00355 0
M  V30 29667 H 2861.03 -0.430175 -0.59843 0
M  V30 29668 H 2863.67 -1.59184 -1.03733 0
M  V30 29669 H 2861.82 -1.64865 -3.51784 0
M  V30 29670 H 2863.49 -3.97654 -2.33814 0
M  V30 29671 H 2861.74 -3.77418 -2.13864 0
M  V30 29672 H 2862.41 -4.05193 -3.74864 0
M  V30 29673 H 2864.88 -2.1331 -3.57265 0
M  V30 29674 H 2863.76 -2.42334 -4.92509 0
M  V30 29675 H 2864.02 -0.783916 -4.35094 0
M  V30 29676 N 2863.08 1.10667 -1.12208 0
M  V30 29677 C 2864.01 2.16735 -0.745558 0
M  V30 29678 C 2865.02 1.61214 0.226668 0
M  V30 29679 O 2866.21 1.78498 0.00836223 0
M  V30 29680 C 2863.31 3.388 -0.0823963 0
M  V30 29681 C 2862.49 4.23768 -1.08348 0
M  V30 29682 C 2861.55 5.24286 -0.448385 0
M  V30 29683 O 2860.57 5.58378 -1.10468 0
M  V30 29684 N 2861.77 5.75165 0.785235 0
M  V30 29685 H 2864.54 2.49646 -1.65823 0
M  V30 29686 H 2862.1 1.26263 -1.01337 0
M  V30 29687 H 2864.09 4.03145 0.354406 0
M  V30 29688 H 2862.66 3.03885 0.732988 0
M  V30 29689 H 2861.88 3.55756 -1.69799 0
M  V30 29690 H 2863.17 4.77372 -1.7605 0
M  V30 29691 H 2862.57 5.49662 1.33746 0
M  V30 29692 H 2861.12 6.41306 1.16489 0
M  V30 29693 N 2864.56 0.913621 1.28416 0
M  V30 29694 C 2865.8 0.547518 1.95269 0
M  V30 29695 C 2866.14 -0.906456 1.71747 0
M  V30 29696 O 2865.41 -1.64463 1.03837 0
M  V30 29697 C 2865.69 0.857267 3.49747 0
M  V30 29698 C 2865.55 2.36396 3.82671 0
M  V30 29699 C 2866.87 0.353335 4.38679 0
M  V30 29700 H 2863.99 0.200394 0.709233 0
M  V30 29701 H 2866.63 1.14284 1.51786 0
M  V30 29702 H 2864.78 0.350616 3.86915 0
M  V30 29703 H 2866.45 2.94122 3.55373 0
M  V30 29704 H 2864.69 2.819 3.29719 0
M  V30 29705 H 2865.36 2.53124 4.90543 0
M  V30 29706 H 2867.84 0.78736 4.08583 0
M  V30 29707 H 2866.72 0.599144 5.4562 0
M  V30 29708 H 2866.98 -0.746336 4.35755 0
M  V30 29709 N 2866.04 -1.4229 0.677588 0
M  V30 29710 C 2866.97 -2.29169 -0.0379815 0
M  V30 29711 C 2867.98 -1.43829 -0.762689 0
M  V30 29712 O 2869.17 -1.6752 -0.616383 0
M  V30 29713 C 2866.27 -3.21313 -1.07755 0
M  V30 29714 C 2865.44 -4.3532 -0.426103 0
M  V30 29715 C 2864.5 -5.08165 -1.36583 0
M  V30 29716 O 2863.53 -5.62588 -0.865075 0
M  V30 29717 N 2864.73 -5.1394 -2.699 0
M  V30 29718 H 2867.49 -2.91222 0.707817 0
M  V30 29719 H 2865.06 -1.53247 0.522217 0
M  V30 29720 H 2867.05 -3.66913 -1.70755 0
M  V30 29721 H 2865.62 -2.60692 -1.72506 0
M  V30 29722 H 2864.84 -3.92331 0.383454 0
M  V30 29723 H 2866.13 -5.08793 0.0276171 0
M  V30 29724 H 2865.52 -4.71139 -3.1312 0
M  V30 29725 H 2864.08 -5.63176 -3.2814 0
M  V30 29726 N 2867.51 -0.421104 -1.5187 0
M  V30 29727 C 2868.76 0.150978 -2.02237 0
M  V30 29728 C 2869.09 1.43766 -1.30556 0
M  V30 29729 O 2868.37 1.9001 -0.415494 0
M  V30 29730 C 2868.65 0.386419 -3.58021 0
M  V30 29731 C 2868.5 -0.917777 -4.40337 0
M  V30 29732 C 2869.82 1.16334 -4.24446 0
M  V30 29733 H 2866.94 0.0533973 -0.735063 0
M  V30 29734 H 2869.58 -0.55692 -1.81655 0
M  V30 29735 H 2867.73 0.989428 -3.75689 0
M  V30 29736 H 2869.41 -1.55352 -4.34354 0
M  V30 29737 H 2867.65 -1.52607 -4.06071 0
M  V30 29738 H 2868.32 -0.707283 -5.4745 0
M  V30 29739 H 2870.8 0.652716 -4.10949 0
M  V30 29740 H 2869.67 1.29683 -5.3336 0
M  V30 29741 H 2869.93 2.18717 -3.84207 0
M  V30 29742 N 2868.99 1.56866 -0.151912 0
M  V30 29743 C 2870.22 2.01082 0.508009 0
M  V30 29744 C 2870.64 1.03136 1.57304 0
M  V30 29745 O 2870 0.00786277 1.81298 0
M  V30 29746 C 2870.05 3.44016 1.081 0
M  V30 29747 O 2869.15 3.49088 2.19571 0
M  V30 29748 H 2868.49 0.652367 0.123745 0
M  V30 29749 H 2871.02 2.03066 -0.250091 0
M  V30 29750 H 2871.03 3.82919 1.40844 0
M  V30 29751 H 2869.71 4.14809 0.301095 0
M  V30 29752 H 2868.29 3.22031 1.88017 0
M  V30 29753 N 2870.47 -0.121866 1.57128 0
M  V30 29754 C 2871.7 -0.844418 1.88884 0
M  V30 29755 C 2872.11 -1.73572 0.742854 0
M  V30 29756 O 2871.47 -1.80238 -0.286443 0
M  V30 29757 C 2871.52 -1.68023 3.20079 0
M  V30 29758 O 2871.24 -0.824823 4.30265 0
M  V30 29759 C 2872.74 -2.50819 3.6552 0
M  V30 29760 H 2869.96 -0.242896 0.625494 0
M  V30 29761 H 2872.51 -0.107115 2.04219 0
M  V30 29762 H 2870.66 -2.37032 3.06422 0
M  V30 29763 H 2871.08 -1.40104 5.05441 0
M  V30 29764 H 2872.55 -3.05 4.60086 0
M  V30 29765 H 2873.03 -3.28043 2.92035 0
M  V30 29766 H 2873.63 -1.87057 3.81955 0
M  V30 29767 N 2871.95 -1.52648 -0.391965 0
M  V30 29768 C 2873.17 -1.71718 -1.16309 0
M  V30 29769 C 2873.6 -0.433311 -1.83041 0
M  V30 29770 O 2872.96 0.610677 -1.70706 0
M  V30 29771 C 2873 -2.86555 -2.18903 0
M  V30 29772 O 2872.11 -2.53321 -3.25426 0
M  V30 29773 H 2871.45 -0.571101 -0.338733 0
M  V30 29774 H 2873.98 -1.99427 -0.457167 0
M  V30 29775 H 2873.99 -3.11964 -2.62949 0
M  V30 29776 H 2872.66 -3.79695 -1.69719 0
M  V30 29777 H 2871.24 -2.38642 -2.86539 0
M  V30 29778 N 2873.43 0.650235 -1.43561 0
M  V30 29779 C 2874.37 1.78425 -1.49223 0
M  V30 29780 C 2875.37 1.65409 -0.365557 0
M  V30 29781 O 2876.57 1.71719 -0.539679 0
M  V30 29782 H 2872.95 0.58873 -0.467869 0
M  V30 29783 H 2874.92 1.7077 -2.44704 0
M  V30 29784 C 2873.67 3.16696 -1.43524 0
M  V30 29785 H 2872.99 3.2735 -2.29526 0
M  V30 29786 H 2874.43 3.95992 -1.51547 0
M  V30 29787 C 2872.89 3.36551 -0.153256 0
M  V30 29788 O 2873.42 3.9397 0.784247 0
M  V30 29789 N 2871.63 2.90533 -0.0624913 0
M  V30 29790 H 2871.17 2.43991 -0.826215 0
M  V30 29791 H 2871.13 3.04194 0.794563 0
M  V30 29792 N 2874.9 1.30141 0.88888 0
M  V30 29793 C 2876.15 1.18106 1.63505 0
M  V30 29794 C 2876.47 -0.264107 1.93809 0
M  V30 29795 O 2877.67 -0.505919 2.66745 0
M  V30 29796 C 2876.13 2.06636 2.94669 0
M  V30 29797 C 2875.74 3.56039 2.7192 0
M  V30 29798 C 2877.48 2.03353 3.72623 0
M  V30 29799 C 2875.39 4.36637 3.98876 0
M  V30 29800 H 2874.32 0.438445 0.613418 0
M  V30 29801 H 2876.97 1.54861 0.9844 0
M  V30 29802 H 2875.35 1.6276 3.61006 0
M  V30 29803 H 2876.52 4.08037 2.14109 0
M  V30 29804 H 2874.84 3.61104 2.07347 0
M  V30 29805 H 2877.44 2.60824 4.66771 0
M  V30 29806 H 2877.78 1.01607 4.0371 0
M  V30 29807 H 2878.31 2.45329 3.13143 0
M  V30 29808 H 2875.05 5.39063 3.7295 0
M  V30 29809 H 2874.57 3.89404 4.56207 0
M  V30 29810 H 2876.25 4.47867 4.66931 0
M  V30 29811 N 2876.38 -1.1007 1.12794 0
M  V30 29812 C 2877.61 -1.86425 0.90887 0
M  V30 29813 C 2878.03 -1.80279 -0.536761 0
M  V30 29814 O 2877.39 -1.17546 -1.38031 0
M  V30 29815 C 2877.44 -3.32608 1.393 0
M  V30 29816 O 2876.54 -4.08387 0.573918 0
M  V30 29817 H 2875.88 -0.578326 0.326245 0
M  V30 29818 H 2878.41 -1.3904 1.50097 0
M  V30 29819 H 2878.42 -3.83457 1.39373 0
M  V30 29820 H 2877.1 -3.36397 2.44561 0
M  V30 29821 H 2875.68 -3.67358 0.640503 0
M  V30 29822 N 2877.86 -0.920419 -1.2793 0
M  V30 29823 C 2879.09 -0.572514 -1.99342 0
M  V30 29824 C 2879.51 0.840666 -1.68269 0
M  V30 29825 O 2878.87 1.56292 -0.918832 0
M  V30 29826 C 2878.92 -0.796346 -3.51697 0
M  V30 29827 O 2878.02 0.141529 -4.12157 0
M  V30 29828 H 2877.36 -0.221232 -0.626061 0
M  V30 29829 H 2879.89 -1.23768 -1.62919 0
M  V30 29830 H 2879.9 -0.709055 -4.01792 0
M  V30 29831 H 2878.58 -1.82651 -3.73646 0
M  V30 29832 H 2877.15 0.00494146 -3.729 0
M  V30 29833 N 2879.34 1.41929 -0.685124 0
M  V30 29834 C 2880.27 2.33484 -0.0273917 0
M  V30 29835 C 2881.25 1.51248 0.778339 0
M  V30 29836 O 2882.43 1.79818 0.733417 0
M  V30 29837 C 2879.56 3.34969 0.917213 0
M  V30 29838 C 2878.52 4.27438 0.219334 0
M  V30 29839 C 2877.84 5.19213 1.27758 0
M  V30 29840 C 2879.14 5.14347 -0.907984 0
M  V30 29841 H 2880.84 2.88733 -0.792045 0
M  V30 29842 H 2878.38 1.38832 -0.382332 0
M  V30 29843 H 2880.34 3.97937 1.3865 0
M  V30 29844 H 2879.06 2.78046 1.71341 0
M  V30 29845 H 2877.72 3.65879 -0.229822 0
M  V30 29846 H 2877.37 4.58611 2.06604 0
M  V30 29847 H 2877.07 5.81911 0.815701 0
M  V30 29848 H 2878.59 5.85057 1.7476 0
M  V30 29849 H 2880.01 5.70942 -0.519448 0
M  V30 29850 H 2878.4 5.85932 -1.29631 0
M  V30 29851 H 2879.47 4.52133 -1.75226 0
M  V30 29852 N 2880.82 0.429152 1.51644 0
M  V30 29853 C 2881.73 -0.392768 2.31289 0
M  V30 29854 C 2882.74 -1.03523 1.39854 0
M  V30 29855 O 2883.92 -1.03238 1.72927 0
M  V30 29856 C 2880.98 -1.48367 3.1335 0
M  V30 29857 C 2880.04 -0.862194 4.20553 0
M  V30 29858 C 2879.28 -1.90111 4.98692 0
M  V30 29859 O 2879.5 -3.12217 4.77364 0
M  V30 29860 O 2878.43 -1.49619 5.83007 0
M  V30 29861 H 2882.26 0.257191 3.02609 0
M  V30 29862 H 2879.85 0.191877 1.48163 0
M  V30 29863 H 2881.73 -2.11653 3.64391 0
M  V30 29864 H 2880.4 -2.11786 2.44803 0
M  V30 29865 H 2879.31 -0.191502 3.7361 0
M  V30 29866 H 2880.64 -0.271618 4.9145 0
M  V30 29867 N 2882.29 -1.56783 0.160229 0
M  V30 29868 C 2883.54 -1.96155 -0.48659 0
M  V30 29869 C 2883.86 -1.04676 -1.64523 0
M  V30 29870 O 2883.13 -0.110899 -1.95586 0
M  V30 29871 H 2881.71 -0.7243 -0.182752 0
M  V30 29872 H 2884.38 -1.93431 0.238821 0
M  V30 29873 H 2883.47 -3.00189 -0.853973 0
M  V30 29874 N 2883.77 0.113531 -1.57191 0
M  V30 29875 C 2884.74 1.1231 -1.99798 0
M  V30 29876 C 2885.74 1.33999 -0.88887 0
M  V30 29877 O 2886.93 1.30424 -1.15479 0
M  V30 29878 C 2884.06 2.47637 -2.34284 0
M  V30 29879 H 2885.25 0.756774 -2.90195 0
M  V30 29880 H 2882.8 0.358002 -1.52145 0
M  V30 29881 H 2883.54 2.8918 -1.46783 0
M  V30 29882 H 2883.32 2.33247 -3.1518 0
M  V30 29883 H 2884.81 3.20285 -2.67969 0
M  V30 29884 N 2885.25 1.52854 0.383864 0
M  V30 29885 C 2886.67 1.42219 0.724291 0
M  V30 29886 C 2886.87 0.546688 1.93942 0
M  V30 29887 O 2885.92 0.0221006 2.5249 0
M  V30 29888 C 2887.24 2.85146 0.954584 0
M  V30 29889 C 2888.78 2.94658 1.05574 0
M  V30 29890 C 2889.26 4.38607 1.31863 0
M  V30 29891 N 2890.75 4.41955 1.38673 0
M  V30 29892 C 2891.49 5.50424 1.60689 0
M  V30 29893 N 2890.98 6.6897 1.80142 0
M  V30 29894 N 2892.77 5.37975 1.6291 0
M  V30 29895 H 2884.93 2.08294 -0.415636 0
M  V30 29896 H 2887.19 0.939883 -0.123792 0
M  V30 29897 H 2886.89 3.51446 0.133767 0
M  V30 29898 H 2886.77 3.27707 1.86782 0
M  V30 29899 H 2889.16 2.28523 1.86712 0
M  V30 29900 H 2889.24 2.55517 0.120293 0
M  V30 29901 H 2888.88 5.05309 0.512327 0
M  V30 29902 H 2888.81 4.75305 2.267 0
M  V30 29903 H 2891.3 3.56513 1.25327 0
M  V30 29904 H 2891.61 7.4741 1.96463 0
M  V30 29905 H 2889.96 6.71989 1.77357 0
M  V30 29906 H 2893.15 4.44331 1.47268 0
M  V30 29907 H 2893.32 6.22577 1.79728 0
M  V30 29908 N 2886.73 -0.642612 1.43904 0
M  V30 29909 C 2887.98 -1.3996 1.45793 0
M  V30 29910 C 2888.3 -1.94804 0.0873486 0
M  V30 29911 O 2887.57 -1.75083 -0.878794 0
M  V30 29912 H 2886.15 -0.51947 0.536806 0
M  V30 29913 H 2888.81 -0.757158 1.79592 0
M  V30 29914 H 2887.91 -2.23666 2.17669 0
M  V30 29915 N 2888.21 -1.30611 -0.881966 0
M  V30 29916 C 2889.14 -1.19823 -2.00411 0
M  V30 29917 C 2890.12 -0.0881836 -1.69871 0
M  V30 29918 O 2891.3 -0.270734 -1.92304 0
M  V30 29919 C 2888.43 -0.892389 -3.35639 0
M  V30 29920 C 2887.39 -1.9607 -3.80448 0
M  V30 29921 C 2886.71 -1.50779 -5.13001 0
M  V30 29922 C 2888.01 -3.3722 -3.98849 0
M  V30 29923 H 2889.71 -2.13703 -2.09694 0
M  V30 29924 H 2887.25 -1.02884 -1.00752 0
M  V30 29925 H 2889.21 -0.80357 -4.13667 0
M  V30 29926 H 2887.93 0.0820807 -3.26497 0
M  V30 29927 H 2886.59 -2.03921 -3.0465 0
M  V30 29928 H 2886.24 -0.521504 -5.00289 0
M  V30 29929 H 2885.94 -2.22238 -5.43952 0
M  V30 29930 H 2887.46 -1.43281 -5.93551 0
M  V30 29931 H 2888.88 -3.32111 -4.67306 0
M  V30 29932 H 2887.27 -4.06792 -4.41181 0
M  V30 29933 H 2888.34 -3.78889 -3.02608 0
M  V30 29934 N 2889.69 1.0947 -1.13376 0
M  V30 29935 C 2890.93 1.81009 -0.889876 0
M  V30 29936 C 2891.25 1.86627 0.585653 0
M  V30 29937 O 2892.45 2.54469 0.946452 0
M  V30 29938 C 2890.91 3.25171 -1.54246 0
M  V30 29939 C 2890.52 3.2782 -3.05349 0
M  V30 29940 C 2892.26 4.01468 -1.37926 0
M  V30 29941 C 2890.17 4.66504 -3.63495 0
M  V30 29942 H 2889.1 0.678306 -0.329268 0
M  V30 29943 H 2891.75 1.23036 -1.36141 0
M  V30 29944 H 2890.13 3.83202 -0.998592 0
M  V30 29945 H 2891.31 2.79557 -3.66312 0
M  V30 29946 H 2889.62 2.65014 -3.2118 0
M  V30 29947 H 2892.22 5.03926 -1.7878 0
M  V30 29948 H 2892.56 4.15037 -0.32406 0
M  V30 29949 H 2893.09 3.49877 -1.8929 0
M  V30 29950 H 2889.83 4.58137 -4.68819 0
M  V30 29951 H 2889.35 5.15093 -3.07309 0
M  V30 29952 H 2891.03 5.35478 -3.63143 0
M  V30 29953 N 2891.16 0.92719 1.2744 0
M  V30 29954 C 2892.13 0.430564 2.25119 0
M  V30 29955 C 2893.13 -0.450592 1.54358 0
M  V30 29956 O 2894.32 -0.251744 1.72371 0
M  V30 29957 C 2891.45 -0.381084 3.38763 0
M  V30 29958 H 2892.64 1.29359 2.70567 0
M  V30 29959 H 2890.19 0.707831 1.39354 0
M  V30 29960 H 2890.93 -1.26295 2.98697 0
M  V30 29961 H 2890.71 0.250687 3.91298 0
M  V30 29962 H 2892.2 -0.71894 4.11365 0
M  V30 29963 N 2892.64 -1.41564 0.692641 0
M  V30 29964 C 2893.55 -2.34586 0.0258863 0
M  V30 29965 C 2894.57 -1.5607 -0.769296 0
M  V30 29966 O 2895.74 -1.88563 -0.70753 0
M  V30 29967 C 2892.81 -3.34782 -0.90123 0
M  V30 29968 C 2891.87 -4.29187 -0.0985824 0
M  V30 29969 C 2891.1 -5.24596 -0.981542 0
M  V30 29970 O 2891.33 -5.25381 -2.22106 0
M  V30 29971 O 2890.26 -6.00342 -0.432787 0
M  V30 29972 H 2894.09 -2.93175 0.792588 0
M  V30 29973 H 2891.67 -1.42368 0.45296 0
M  V30 29974 H 2893.55 -3.96288 -1.43295 0
M  V30 29975 H 2892.23 -2.7864 -1.64747 0
M  V30 29976 H 2891.13 -3.71038 0.477669 0
M  V30 29977 H 2892.47 -4.88419 0.608933 0
M  V30 29978 N 2894.12 -0.437188 -1.51415 0
M  V30 29979 C 2895.08 0.362689 -2.26312 0
M  V30 29980 C 2896.08 0.949824 -1.2975 0
M  V30 29981 O 2897.27 0.824298 -1.53463 0
M  V30 29982 C 2894.4 1.51314 -3.05478 0
M  V30 29983 H 2895.6 -0.293703 -2.98458 0
M  V30 29984 H 2893.15 -0.190354 -1.55137 0
M  V30 29985 H 2893.89 2.20559 -2.37748 0
M  V30 29986 H 2893.67 1.09831 -3.76403 0
M  V30 29987 H 2895.16 2.07827 -3.62212 0
M  V30 29988 N 2895.6 1.56696 -0.168541 0
M  V30 29989 C 2896.56 2.1662 0.74889 0
M  V30 29990 C 2897.56 1.11353 1.16005 0
M  V30 29991 O 2898.75 1.36881 1.07746 0
M  V30 29992 C 2895.88 2.74681 2.01899 0
M  V30 29993 H 2897.08 2.99038 0.227265 0
M  V30 29994 H 2894.63 1.5609 0.0810098 0
M  V30 29995 H 2895.36 1.95989 2.58377 0
M  V30 29996 H 2895.15 3.51715 1.73317 0
M  V30 29997 H 2896.64 3.20779 2.67378 0
M  V30 29998 N 2897.08 -0.105193 1.57249 0
M  V30 29999 C 2898.01 -1.15432 1.9801 0
M  V30 30000 C 2899.02 -1.36886 0.88126 0
M  V30 30001 O 2900.21 -1.35716 1.15946 0
M  V30 30002 C 2897.31 -2.51179 2.27513 0
M  V30 30003 C 2896.48 -2.50141 3.58815 0
M  V30 30004 C 2895.54 -3.67738 3.76371 0
M  V30 30005 O 2894.57 -3.50691 4.48335 0
M  V30 30006 N 2895.77 -4.86835 3.16183 0
M  V30 30007 H 2898.53 -0.807469 2.88617 0
M  V30 30008 H 2896.1 -0.294302 1.59203 0
M  V30 30009 H 2898.09 -3.28433 2.3646 0
M  V30 30010 H 2896.66 -2.77993 1.42964 0
M  V30 30011 H 2895.88 -1.58503 3.6093 0
M  V30 30012 H 2897.17 -2.46516 4.45093 0
M  V30 30013 H 2896.56 -5.03589 2.5771 0
M  V30 30014 H 2895.12 -5.61718 3.30631 0
M  V30 30015 N 2898.55 -1.53055 -0.375752 0
M  V30 30016 C 2899.48 -1.81748 -1.46594 0
M  V30 30017 C 2900.47 -0.670314 -1.56336 0
M  V30 30018 O 2901.65 -0.919188 -1.71069 0
M  V30 30019 C 2898.78 -1.99826 -2.84054 0
M  V30 30020 C 2897.73 -3.15562 -2.89145 0
M  V30 30021 C 2897.06 -3.18915 -4.29182 0
M  V30 30022 C 2898.36 -4.54363 -2.57587 0
M  V30 30023 H 2900.05 -2.73043 -1.22832 0
M  V30 30024 H 2897.6 -1.31382 -0.589462 0
M  V30 30025 H 2899.55 -2.18482 -3.60338 0
M  V30 30026 H 2898.28 -1.05232 -3.09183 0
M  V30 30027 H 2896.94 -2.9671 -2.15311 0
M  V30 30028 H 2896.58 -2.21978 -4.5137 0
M  V30 30029 H 2896.28 -3.9667 -4.33505 0
M  V30 30030 H 2897.81 -3.39742 -5.07353 0
M  V30 30031 H 2899.22 -4.73249 -3.23587 0
M  V30 30032 H 2897.62 -5.34283 -2.73242 0
M  V30 30033 H 2898.69 -4.60171 -1.52874 0
M  V30 30034 N 2900.03 0.634971 -1.44242 0
M  V30 30035 C 2901.28 1.39185 -1.46533 0
M  V30 30036 C 2901.6 1.94755 -0.0976783 0
M  V30 30037 O 2900.87 1.75546 0.869497 0
M  V30 30038 H 2899.45 0.516615 -0.539553 0
M  V30 30039 H 2902.11 0.747623 -1.79991 0
M  V30 30040 H 2901.21 2.22509 -2.18852 0
M  V30 30041 N 2901.51 1.31076 0.875027 0
M  V30 30042 C 2902.92 1.18433 1.44328 0
M  V30 30043 C 2903.27 -0.211155 1.9506 0
M  V30 30044 O 2902.4 -1.10856 1.85849 0
M  V30 30045 C 2902.99 2.14394 2.62337 0
M  V30 30046 C 2901.55 2.05699 3.15222 0
M  V30 30047 C 2900.7 2.0391 1.87926 0
M  V30 30048 H 2903.65 1.43201 0.684036 0
M  V30 30049 H 2903.67 1.73059 3.38867 0
M  V30 30050 H 2903.18 3.1595 2.25382 0
M  V30 30051 H 2901.28 1.0732 3.5681 0
M  V30 30052 H 2901.4 2.94564 3.77847 0
M  V30 30053 H 2899.76 1.48853 2.06676 0
M  V30 30054 H 2900.54 3.07213 1.53215 0
M  V30 30055 N 2902.99 -1.08867 1.13955 0
M  V30 30056 C 2904.23 -1.81428 0.906183 0
M  V30 30057 C 2904.57 -1.85767 -0.566057 0
M  V30 30058 O 2903.84 -1.33008 -1.41912 0
M  V30 30059 C 2904.13 -3.27285 1.50189 0
M  V30 30060 C 2903.98 -3.31183 3.04364 0
M  V30 30061 C 2905.3 -4.24129 1.17484 0
M  V30 30062 H 2902.42 -0.658672 0.330636 0
M  V30 30063 H 2905.06 -1.27492 1.40875 0
M  V30 30064 H 2903.21 -3.73346 1.07448 0
M  V30 30065 H 2904.88 -2.93482 3.55902 0
M  V30 30066 H 2903.12 -2.70596 3.39058 0
M  V30 30067 H 2903.79 -4.3396 3.41149 0
M  V30 30068 H 2906.27 -3.86383 1.54427 0
M  V30 30069 H 2905.15 -5.2451 1.61805 0
M  V30 30070 H 2905.41 -4.4201 0.0894089 0
M  V30 30071 N 2904.47 -0.933936 -1.26946 0
M  V30 30072 C 2905.71 -0.576518 -1.93703 0
M  V30 30073 C 2906.04 0.886115 -1.73704 0
M  V30 30074 O 2905.31 1.62882 -1.08841 0
M  V30 30075 H 2903.89 -0.210226 -0.716808 0
M  V30 30076 H 2906.55 -1.18769 -1.54532 0
M  V30 30077 H 2905.64 -0.788108 -3.01986 0
M  V30 30078 N 2905.94 1.41194 -0.700139 0
M  V30 30079 C 2907.19 2.00757 -0.232581 0
M  V30 30080 C 2907.51 1.55747 1.17337 0
M  V30 30081 O 2906.78 0.790089 1.79261 0
M  V30 30082 H 2905.36 0.742375 -0.0829976 0
M  V30 30083 H 2908.03 1.72755 -0.902319 0
M  V30 30084 H 2907.12 3.11068 -0.253575 0
M  V30 30085 N 2907.42 0.445212 1.51181 0
M  V30 30086 C 2908.67 -0.118785 2.02452 0
M  V30 30087 C 2909 -1.41671 1.32827 0
M  V30 30088 O 2908.28 -1.89325 0.44567 0
M  V30 30089 C 2908.56 -0.329412 3.5859 0
M  V30 30090 C 2908.41 0.987715 4.38821 0
M  V30 30091 C 2909.73 -1.09567 4.26243 0
M  V30 30092 H 2906.85 -0.0416963 0.73582 0
M  V30 30093 H 2909.49 0.585749 1.80746 0
M  V30 30094 H 2907.64 -0.929534 3.77216 0
M  V30 30095 H 2909.31 1.62242 4.31828 0
M  V30 30096 H 2907.56 1.59048 4.03592 0
M  V30 30097 H 2908.23 0.794288 5.46255 0
M  V30 30098 H 2910.7 -0.587255 4.11935 0
M  V30 30099 H 2909.58 -1.21182 5.35356 0
M  V30 30100 H 2909.84 -2.12577 3.87638 0
M  V30 30101 N 2908.9 -1.56605 0.176849 0
M  V30 30102 C 2910.15 -1.97049 -0.46668 0
M  V30 30103 C 2910.48 -1.06305 -1.62879 0
M  V30 30104 O 2909.73 -0.0982914 -1.95453 0
M  V30 30105 C 2910.03 -3.43526 -0.986148 0
M  V30 30106 C 2909.7 -4.50859 0.0606459 0
M  V30 30107 C 2908.36 -4.79938 0.348326 0
M  V30 30108 C 2910.71 -5.15468 0.770885 0
M  V30 30109 C 2908.04 -5.70921 1.35154 0
M  V30 30110 C 2910.39 -6.07533 1.76312 0
M  V30 30111 C 2909.05 -6.34976 2.05819 0
M  V30 30112 H 2908.32 -0.721054 -0.17077 0
M  V30 30113 H 2910.97 -1.89587 0.269975 0
M  V30 30114 H 2909.28 -3.47967 -1.80073 0
M  V30 30115 H 2910.97 -3.72164 -1.49316 0
M  V30 30116 H 2907.56 -4.28248 -0.173748 0
M  V30 30117 H 2911.75 -4.93109 0.561847 0
M  V30 30118 H 2907 -5.90464 1.58626 0
M  V30 30119 H 2911.18 -6.56662 2.3188 0
M  V30 30120 H 2908.8 -7.05278 2.83703 0
M  V30 30121 N 2910.38 0.0968524 -1.57302 0
M  V30 30122 C 2911.33 1.1365 -2.02944 0
M  V30 30123 C 2912.32 1.41576 -0.930198 0
M  V30 30124 O 2913.53 1.41277 -1.11538 0
M  V30 30125 H 2909.9 0.38372 -0.646733 0
M  V30 30126 H 2911.87 0.725216 -2.89453 0
M  V30 30127 C 2910.62 2.44899 -2.46819 0
M  V30 30128 H 2909.94 2.24255 -3.30983 0
M  V30 30129 H 2911.38 3.16151 -2.82532 0
M  V30 30130 C 2909.84 3.09072 -1.34076 0
M  V30 30131 O 2910.37 3.96091 -0.668925 0
M  V30 30132 N 2908.58 2.69295 -1.09219 0
M  V30 30133 H 2908.13 1.98623 -1.64032 0
M  V30 30134 H 2908.08 3.12558 -0.339839 0
M  V30 30135 N 2911.86 1.53252 0.36763 0
M  V30 30136 C 2912.79 1.82523 1.45628 0
M  V30 30137 C 2913.77 0.678595 1.55978 0
M  V30 30138 O 2914.95 0.928247 1.70579 0
M  V30 30139 C 2912.08 2.01329 2.82991 0
M  V30 30140 C 2911.04 3.17091 2.87467 0
M  V30 30141 C 2910.36 3.21187 4.27485 0
M  V30 30142 C 2911.66 4.55723 2.55174 0
M  V30 30143 H 2913.36 2.73691 1.21382 0
M  V30 30144 H 2910.9 1.31693 0.582486 0
M  V30 30145 H 2912.86 2.20389 3.59175 0
M  V30 30146 H 2911.58 1.0687 3.0862 0
M  V30 30147 H 2910.24 2.97848 2.13734 0
M  V30 30148 H 2909.89 2.24369 4.50186 0
M  V30 30149 H 2909.59 3.98963 4.31396 0
M  V30 30150 H 2911.11 3.42428 5.05544 0
M  V30 30151 H 2912.52 4.74958 3.21072 0
M  V30 30152 H 2910.92 5.35725 2.70405 0
M  V30 30153 H 2911.99 4.60975 1.50431 0
M  V30 30154 N 2913.34 -0.627313 1.44577 0
M  V30 30155 C 2914.3 -1.721 1.51375 0
M  V30 30156 C 2915.3 -1.55864 0.395357 0
M  V30 30157 O 2916.49 -1.6129 0.658122 0
M  V30 30158 C 2913.62 -3.11214 1.39135 0
M  V30 30159 H 2914.81 -1.67445 2.48801 0
M  V30 30160 H 2912.37 -0.841313 1.31726 0
M  V30 30161 H 2913.1 -3.21461 0.42817 0
M  V30 30162 H 2912.89 -3.24406 2.20235 0
M  V30 30163 H 2914.38 -3.90916 1.46881 0
M  V30 30164 N 2914.81 -1.31539 -0.868063 0
M  V30 30165 C 2916.06 -1.21513 -1.62365 0
M  V30 30166 C 2916.39 0.225786 -1.92883 0
M  V30 30167 O 2915.67 1.15925 -1.56178 0
M  V30 30168 C 2915.95 -2.06134 -2.95264 0
M  V30 30169 C 2915.8 -3.58534 -2.71612 0
M  V30 30170 C 2917.12 -1.91219 -3.96388 0
M  V30 30171 H 2914.24 -0.442772 -0.58917 0
M  V30 30172 H 2916.88 -1.61348 -1.00333 0
M  V30 30173 H 2915.03 -1.7229 -3.48207 0
M  V30 30174 H 2916.71 -4.02524 -2.25327 0
M  V30 30175 H 2914.95 -3.8187 -2.05811 0
M  V30 30176 H 2915.62 -4.13053 -3.66185 0
M  V30 30177 H 2918.1 -2.2084 -3.5266 0
M  V30 30178 H 2916.97 -2.52726 -4.87258 0
M  V30 30179 H 2917.23 -0.876029 -4.33334 0
M  V30 30180 N 2916.29 1.08262 -1.1453 0
M  V30 30181 C 2917.54 1.80945 -0.915791 0
M  V30 30182 C 2917.87 1.86065 0.556197 0
M  V30 30183 O 2917.15 1.33759 1.41205 0
M  V30 30184 C 2917.43 3.26484 -1.51922 0
M  V30 30185 C 2917.28 3.29565 -3.06116 0
M  V30 30186 C 2918.6 4.235 -1.19732 0
M  V30 30187 H 2915.72 0.656909 -0.334124 0
M  V30 30188 H 2918.36 1.26743 -1.41549 0
M  V30 30189 H 2916.51 3.72771 -1.09427 0
M  V30 30190 H 2918.18 2.9159 -3.57453 0
M  V30 30191 H 2916.43 2.68794 -3.40488 0
M  V30 30192 H 2917.1 4.32145 -3.43445 0
M  V30 30193 H 2919.57 3.85558 -1.56474 0
M  V30 30194 H 2918.45 5.23644 -1.64584 0
M  V30 30195 H 2918.71 4.41956 -0.112849 0
M  V30 30196 N 2917.77 0.940655 1.26449 0
M  V30 30197 C 2918.7 0.467519 2.28772 0
M  V30 30198 C 2919.68 -0.478927 1.63219 0
M  V30 30199 O 2920.87 -0.380895 1.90428 0
M  V30 30200 C 2918 -0.268595 3.4626 0
M  V30 30201 C 2916.95 0.591246 4.23897 0
M  V30 30202 C 2916.28 -0.274797 5.33993 0
M  V30 30203 C 2917.58 1.86232 4.8797 0
M  V30 30204 H 2919.27 1.3227 2.68598 0
M  V30 30205 H 2916.82 0.637458 1.29122 0
M  V30 30206 H 2918.77 -0.610623 4.16952 0
M  V30 30207 H 2917.49 -1.15791 3.05385 0
M  V30 30208 H 2916.15 0.916161 3.54968 0
M  V30 30209 H 2915.8 -1.16345 4.8936 0
M  V30 30210 H 2915.5 0.297109 5.86848 0
M  V30 30211 H 2917.02 -0.612106 6.07524 0
M  V30 30212 H 2918.44 1.58757 5.5088 0
M  V30 30213 H 2916.83 2.37875 5.5094 0
M  V30 30214 H 2917.9 2.57402 4.10941 0
M  V30 30215 N 2919.25 -1.40821 0.707617 0
M  V30 30216 C 2920.66 -1.55001 0.380367 0
M  V30 30217 C 2920.86 -1.68064 -1.1116 0
M  V30 30218 O 2919.92 -1.66578 -1.89758 0
M  V30 30219 C 2921.23 -2.78275 1.13945 0
M  V30 30220 C 2922.78 -2.92085 1.12497 0
M  V30 30221 C 2923.26 -4.18262 1.86604 0
M  V30 30222 N 2924.75 -4.25245 1.83633 0
M  V30 30223 C 2925.48 -5.21763 2.37804 0
M  V30 30224 N 2924.98 -6.24239 3.00496 0
M  V30 30225 N 2926.77 -5.13787 2.27991 0
M  V30 30226 H 2918.92 -1.30587 1.67513 0
M  V30 30227 H 2921.18 -0.630888 0.70759 0
M  V30 30228 H 2920.89 -2.74873 2.19403 0
M  V30 30229 H 2920.76 -3.7015 0.725858 0
M  V30 30230 H 2923.15 -2.94995 0.0786083 0
M  V30 30231 H 2923.23 -2.0135 1.57771 0
M  V30 30232 H 2922.88 -4.16113 2.91226 0
M  V30 30233 H 2922.81 -5.07991 1.38755 0
M  V30 30234 H 2925.3 -3.51827 1.37936 0
M  V30 30235 H 2925.61 -6.94298 3.39367 0
M  V30 30236 H 2923.96 -6.24706 3.04578 0
M  V30 30237 H 2927.15 -4.32657 1.78676 0
M  V30 30238 H 2927.32 -5.88837 2.7051 0
M  V30 30239 N 2920.73 -0.453223 -1.50943 0
M  V30 30240 C 2922 0.168599 -1.94872 0
M  V30 30241 C 2922.38 1.58637 -1.39274 0
M  V30 30242 O 2921.73 2.2085 -0.586311 0
M  V30 30243 C 2921.94 0.130156 -3.48757 0
M  V30 30244 C 2923.29 0.3279 -4.23332 0
M  V30 30245 O 2924.31 0.207557 -3.55595 0
M  V30 30246 O 2923.17 0.568981 -5.4353 0
M  V30 30247 H 2920.27 0.121379 -0.818044 0
M  V30 30248 H 2922.81 -0.512344 -1.61781 0
M  V30 30249 H 2921.58 -0.860413 -3.81723 0
M  V30 30250 H 2921.21 0.853329 -3.88335 0
M  V30 30251 N 2922.2 1.56509 -0.185151 0
M  V30 30252 C 2923.45 1.96904 0.455322 0
M  V30 30253 C 2923.77 1.0728 1.62837 0
M  V30 30254 O 2923.04 0.142001 1.95385 0
M  V30 30255 H 2921.62 0.727116 0.171206 0
M  V30 30256 H 2924.28 1.93027 -0.269564 0
M  V30 30257 H 2923.38 3.0151 0.806107 0
M  V30 30258 N 2923.68 -0.0885089 1.57351 0
M  V30 30259 C 2924.61 -1.10753 2.05562 0
M  V30 30260 C 2925.59 -1.4138 0.945814 0
M  V30 30261 O 2926.78 -1.51296 1.2175 0
M  V30 30262 C 2923.91 -2.42562 2.48558 0
M  V30 30263 C 2922.86 -2.26328 3.63263 0
M  V30 30264 C 2922.19 -3.63371 3.92257 0
M  V30 30265 C 2923.49 -1.69836 4.93916 0
M  V30 30266 H 2925.18 -0.706417 2.90947 0
M  V30 30267 H 2922.73 -0.33836 1.39968 0
M  V30 30268 H 2924.68 -3.14127 2.80895 0
M  V30 30269 H 2923.4 -2.84622 1.60181 0
M  V30 30270 H 2922.06 -1.57207 3.31182 0
M  V30 30271 H 2921.71 -4.02971 3.01037 0
M  V30 30272 H 2921.41 -3.53353 4.69484 0
M  V30 30273 H 2922.94 -4.36394 4.27075 0
M  V30 30274 H 2924.35 -2.31248 5.24592 0
M  V30 30275 H 2922.75 -1.70559 5.75352 0
M  V30 30276 H 2923.82 -0.658346 4.8041 0
M  V30 30277 N 2925.16 -1.53445 -0.359498 0
M  V30 30278 C 2926.09 -1.83293 -1.44658 0
M  V30 30279 C 2927.07 -0.686857 -1.55616 0
M  V30 30280 O 2928.26 -0.93728 -1.70084 0
M  V30 30281 C 2925.39 -2.02827 -2.81919 0
M  V30 30282 C 2924.34 -3.18611 -2.85782 0
M  V30 30283 C 2923.67 -3.2345 -4.25775 0
M  V30 30284 C 2924.97 -4.5707 -2.52754 0
M  V30 30285 H 2926.66 -2.74331 -1.19929 0
M  V30 30286 H 2924.21 -1.32 -0.575494 0
M  V30 30287 H 2926.16 -2.22291 -3.58001 0
M  V30 30288 H 2924.88 -1.08505 -3.08049 0
M  V30 30289 H 2923.54 -2.98977 -2.12151 0
M  V30 30290 H 2923.19 -2.26753 -4.4899 0
M  V30 30291 H 2922.89 -4.01245 -4.29274 0
M  V30 30292 H 2924.41 -3.45105 -5.03721 0
M  V30 30293 H 2925.83 -4.76654 -3.18549 0
M  V30 30294 H 2924.22 -5.37151 -2.6756 0
M  V30 30295 H 2925.29 -4.61767 -1.47985 0
M  V30 30296 N 2926.64 0.619637 -1.44908 0
M  V30 30297 C 2927.55 1.75952 -1.55171 0
M  V30 30298 C 2928.56 1.6843 -0.43675 0
M  V30 30299 O 2929.74 1.89001 -0.695738 0
M  V30 30300 C 2926.8 3.12378 -1.50403 0
M  V30 30301 C 2925.87 3.31446 -2.72841 0
M  V30 30302 C 2925.1 4.61363 -2.68291 0
M  V30 30303 O 2925.32 5.42911 -1.74939 0
M  V30 30304 O 2924.26 4.82882 -3.59316 0
M  V30 30305 H 2928.08 1.70246 -2.51496 0
M  V30 30306 H 2925.67 0.782266 -1.27283 0
M  V30 30307 H 2927.55 3.93682 -1.50308 0
M  V30 30308 H 2926.22 3.18602 -0.572253 0
M  V30 30309 H 2925.13 2.49776 -2.78501 0
M  V30 30310 H 2926.46 3.30091 -3.65104 0
M  V30 30311 N 2928.12 1.31997 0.861075 0
M  V30 30312 C 2929.06 1.2034 1.9905 0
M  V30 30313 C 2930.06 0.109653 1.69045 0
M  V30 30314 O 2931.26 0.272148 1.77931 0
M  V30 30315 H 2927.64 0.372854 0.653057 0
M  V30 30316 H 2929.61 2.15875 2.06011 0
M  V30 30317 C 2928.36 0.936722 3.34844 0
M  V30 30318 H 2927.68 1.77052 3.58459 0
M  V30 30319 H 2929.12 0.895375 4.14438 0
M  V30 30320 C 2927.58 -0.360548 3.34965 0
M  V30 30321 O 2928.11 -1.37449 3.77453 0
M  V30 30322 N 2926.32 -0.380246 2.88102 0
M  V30 30323 H 2925.86 0.445396 2.5372 0
M  V30 30324 H 2925.82 -1.24811 2.88565 0
M  V30 30325 N 2929.59 -1.07653 1.15103 0
M  V30 30326 C 2930.53 -2.14682 0.802759 0
M  V30 30327 C 2931.54 -1.61759 -0.183845 0
M  V30 30328 O 2932.73 -1.78457 0.0389663 0
M  V30 30329 C 2929.83 -3.38462 0.172194 0
M  V30 30330 C 2929 -4.20747 1.19545 0
M  V30 30331 C 2928.06 -5.22913 0.587232 0
M  V30 30332 O 2927.09 -5.55252 1.25234 0
M  V30 30333 N 2928.29 -5.77044 -0.632465 0
M  V30 30334 H 2931.05 -2.45161 1.72383 0
M  V30 30335 H 2928.61 -1.23532 1.04649 0
M  V30 30336 H 2930.61 -4.03943 -0.247394 0
M  V30 30337 H 2929.18 -3.05721 -0.65216 0
M  V30 30338 H 2928.4 -3.51129 1.79171 0
M  V30 30339 H 2929.68 -4.72536 1.88645 0
M  V30 30340 H 2929.08 -5.53015 -1.19125 0
M  V30 30341 H 2927.64 -6.44169 -0.994453 0
M  V30 30342 N 2931.07 -0.947348 -1.25949 0
M  V30 30343 C 2932.3 -0.615162 -1.97543 0
M  V30 30344 C 2932.72 0.811191 -1.70485 0
M  V30 30345 O 2932.07 1.54168 -0.976647 0
M  V30 30346 C 2932.12 -0.85539 -3.51234 0
M  V30 30347 O 2931.84 -2.22565 -3.77355 0
M  V30 30348 C 2933.35 -0.534592 -4.40065 0
M  V30 30349 H 2930.57 -0.231274 -0.629884 0
M  V30 30350 H 2933.11 -1.26974 -1.60306 0
M  V30 30351 H 2931.26 -0.247334 -3.8661 0
M  V30 30352 H 2931.68 -2.29031 -4.71853 0
M  V30 30353 H 2933.15 -0.753264 -5.46836 0
M  V30 30354 H 2933.63 0.530625 -4.35983 0
M  V30 30355 H 2934.24 -1.12165 -4.10243 0
M  V30 30356 N 2932.55 1.40444 -0.715075 0
M  V30 30357 C 2933.96 1.83818 -0.326796 0
M  V30 30358 C 2934.31 1.59791 1.13848 0
M  V30 30359 O 2933.44 1.07852 1.87609 0
M  V30 30360 C 2934.03 3.33687 -0.586356 0
M  V30 30361 C 2932.59 3.75557 -0.25179 0
M  V30 30362 C 2931.74 2.63661 -0.858974 0
M  V30 30363 H 2934.69 1.29719 -0.914264 0
M  V30 30364 H 2934.71 3.8021 0.148569 0
M  V30 30365 H 2934.22 3.51143 -1.65288 0
M  V30 30366 H 2932.32 3.63696 0.80969 0
M  V30 30367 H 2932.44 4.73652 -0.720431 0
M  V30 30368 H 2930.8 2.53077 -0.287058 0
M  V30 30369 H 2931.58 2.83929 -1.92975 0
M  V30 30370 N 2934.03 0.461222 1.507 0
M  V30 30371 C 2934.94 -0.34362 2.3207 0
M  V30 30372 C 2935.95 -1.00533 1.42018 0
M  V30 30373 O 2937.13 -0.995468 1.75078 0
M  V30 30374 C 2934.2 -1.41687 3.16426 0
M  V30 30375 C 2933.26 -0.772795 4.22287 0
M  V30 30376 C 2932.49 -1.7949 5.02612 0
M  V30 30377 O 2932.71 -3.02021 4.8388 0
M  V30 30378 O 2931.65 -1.37219 5.8605 0
M  V30 30379 H 2935.47 0.321321 3.01995 0
M  V30 30380 H 2933.06 0.223261 1.47722 0
M  V30 30381 H 2934.94 -2.03876 3.68799 0
M  V30 30382 H 2933.61 -2.06546 2.4924 0
M  V30 30383 H 2932.52 -0.112211 3.73932 0
M  V30 30384 H 2933.85 -0.167313 4.91916 0
M  V30 30385 N 2935.51 -1.56408 0.193449 0
M  V30 30386 C 2936.75 -1.97533 -0.445754 0
M  V30 30387 C 2937.08 -1.08027 -1.61742 0
M  V30 30388 O 2936.34 -0.119016 -1.95338 0
M  V30 30389 C 2936.64 -3.44552 -0.949657 0
M  V30 30390 C 2936.3 -4.5077 0.108462 0
M  V30 30391 C 2934.96 -4.79541 0.39921 0
M  V30 30392 C 2937.32 -5.14621 0.825514 0
M  V30 30393 C 2934.64 -5.69455 1.41202 0
M  V30 30394 C 2937 -6.05629 1.82746 0
M  V30 30395 C 2935.66 -6.32758 2.12542 0
M  V30 30396 H 2934.93 -0.722824 -0.163113 0
M  V30 30397 H 2937.58 -1.8929 0.290068 0
M  V30 30398 H 2935.88 -3.49857 -1.76372 0
M  V30 30399 H 2937.58 -3.73726 -1.4536 0
M  V30 30400 H 2934.17 -4.28408 -0.128317 0
M  V30 30401 H 2938.35 -4.92486 0.614116 0
M  V30 30402 H 2933.61 -5.88748 1.6488 0
M  V30 30403 H 2937.78 -6.54166 2.38831 0
M  V30 30404 H 2935.41 -7.02229 2.91167 0
M  V30 30405 N 2936.98 0.0801629 -1.57396 0
M  V30 30406 C 2938.23 0.780894 -1.86838 0
M  V30 30407 C 2938.56 1.77997 -0.784043 0
M  V30 30408 O 2937.81 1.9445 0.220847 0
M  V30 30409 C 2938.11 1.53164 -3.22917 0
M  V30 30410 C 2937.78 0.673312 -4.45845 0
M  V30 30411 C 2936.44 0.436745 -4.79214 0
M  V30 30412 C 2938.79 0.0775869 -5.21142 0
M  V30 30413 C 2936.12 -0.405165 -5.85299 0
M  V30 30414 C 2938.47 -0.75173 -6.28118 0
M  V30 30415 C 2937.14 -0.998247 -6.59993 0
M  V30 30416 H 2936.41 0.285749 -0.683687 0
M  V30 30417 H 2939.05 0.0419098 -1.91454 0
M  V30 30418 H 2937.36 2.3426 -3.14054 0
M  V30 30419 H 2939.06 2.07847 -3.4293 0
M  V30 30420 H 2935.65 0.867817 -4.19722 0
M  V30 30421 H 2939.83 0.247485 -4.95683 0
M  V30 30422 H 2935.09 -0.604987 -6.08399 0
M  V30 30423 H 2939.26 -1.22012 -6.85628 0
M  V30 30424 H 2936.89 -1.6524 -7.42024 0
M  V30 30425 N 2938.46 1.53634 0.351355 0
M  V30 30426 C 2939.39 1.77376 1.45156 0
M  V30 30427 C 2940.41 0.654852 1.49049 0
M  V30 30428 O 2941.6 0.931423 1.52272 0
M  V30 30429 C 2938.7 1.85148 2.83854 0
M  V30 30430 C 2937.87 3.14978 3.03493 0
M  V30 30431 C 2936.93 3.13808 4.22388 0
M  V30 30432 O 2935.95 3.87558 4.16878 0
M  V30 30433 N 2937.16 2.35626 5.30529 0
M  V30 30434 H 2939.92 2.72313 1.25162 0
M  V30 30435 H 2937.48 1.52587 0.541183 0
M  V30 30436 H 2939.47 1.81826 3.61554 0
M  V30 30437 H 2938.04 0.974327 2.97028 0
M  V30 30438 H 2937.26 3.31487 2.1333 0
M  V30 30439 H 2938.55 4.0075 3.13491 0
M  V30 30440 H 2937.95 1.75245 5.37871 0
M  V30 30441 H 2936.51 2.38109 6.06751 0
M  V30 30442 N 2939.94 -0.611943 1.45234 0
M  V30 30443 C 2941.22 -1.37112 1.39498 0
M  V30 30444 C 2941.6 -2.11005 0.0633674 0
M  V30 30445 O 2940.95 -2.07605 -0.95458 0
M  V30 30446 C 2941.16 -2.32158 2.60583 0
M  V30 30447 C 2942.5 -2.949 3.05482 0
M  V30 30448 O 2943.53 -2.4248 2.60925 0
M  V30 30449 O 2942.39 -3.9004 3.82794 0
M  V30 30450 H 2939.48 -0.61459 0.553361 0
M  V30 30451 H 2942.03 -0.635395 1.57356 0
M  V30 30452 H 2940.8 -1.76787 3.49088 0
M  V30 30453 H 2940.42 -3.13118 2.45037 0
M  V30 30454 N 2941.42 -1.32452 -0.854063 0
M  V30 30455 C 2942.66 -1.23228 -1.61067 0
M  V30 30456 C 2943 0.205315 -1.93112 0
M  V30 30457 O 2942.27 1.14262 -1.57399 0
M  V30 30458 C 2942.56 -2.09254 -2.93061 0
M  V30 30459 C 2942.41 -3.61395 -2.67794 0
M  V30 30460 C 2943.73 -1.95413 -3.94337 0
M  V30 30461 H 2940.85 -0.448996 -0.584441 0
M  V30 30462 H 2943.49 -1.62403 -0.98616 0
M  V30 30463 H 2941.64 -1.75974 -3.4636 0
M  V30 30464 H 2943.31 -4.04891 -2.21045 0
M  V30 30465 H 2941.55 -3.84031 -2.01749 0
M  V30 30466 H 2942.22 -4.16914 -3.61783 0
M  V30 30467 H 2944.7 -2.24568 -3.50297 0
M  V30 30468 H 2943.58 -2.5788 -4.8455 0
M  V30 30469 H 2943.84 -0.921941 -4.3238 0
M  V30 30470 N 2942.9 1.07041 -1.15672 0
M  V30 30471 C 2944.14 1.81289 -0.944121 0
M  V30 30472 C 2944.5 1.84845 0.519273 0
M  V30 30473 O 2945.7 2.54996 0.850312 0
M  V30 30474 C 2943.97 3.22264 -1.54534 0
M  V30 30475 S 2945.53 4.1322 -1.4763 0
M  V30 30476 H 2942.35 0.624596 -0.339707 0
M  V30 30477 H 2944.95 1.28566 -1.47279 0
M  V30 30478 H 2943.66 3.17267 -2.60327 0
M  V30 30479 H 2943.19 3.80063 -1.01567 0
M  V30 30480 H 2945.2 4.93956 -0.471347 0
M  V30 30481 N 2944.38 0.954014 1.25445 0
M  V30 30482 C 2945.32 0.472524 2.25911 0
M  V30 30483 C 2946.29 -0.474662 1.59173 0
M  V30 30484 O 2947.48 -0.388049 1.86812 0
M  V30 30485 C 2944.62 -0.244157 3.44235 0
M  V30 30486 C 2943.73 0.740196 4.25611 0
M  V30 30487 C 2942.87 0.00101564 5.312 0
M  V30 30488 C 2941.9 0.976342 6.04263 0
M  V30 30489 N 2941.04 0.268075 7.01588 0
M  V30 30490 H 2945.88 1.33415 2.66467 0
M  V30 30491 H 2943.42 0.669068 1.31003 0
M  V30 30492 H 2945.38 -0.676242 4.11683 0
M  V30 30493 H 2944.01 -1.06983 3.04556 0
M  V30 30494 H 2943.06 1.29076 3.57832 0
M  V30 30495 H 2944.37 1.48449 4.76198 0
M  V30 30496 H 2943.52 -0.489734 6.0472 0
M  V30 30497 H 2942.26 -0.776074 4.81486 0
M  V30 30498 H 2941.27 1.4781 5.29559 0
M  V30 30499 H 2942.49 1.75365 6.56067 0
M  V30 30500 H 2940.44 -0.490288 6.54165 0
M  V30 30501 H 2940.36 0.951475 7.49989 0
M  V30 30502 H 2941.62 -0.201157 7.7924 0
M  V30 30503 N 2945.85 -1.40063 0.722513 0
M  V30 30504 C 2947.26 -1.83642 0.336539 0
M  V30 30505 C 2947.62 -1.60392 -1.12999 0
M  V30 30506 O 2946.74 -1.08845 -1.87034 0
M  V30 30507 C 2947.34 -3.33372 0.604044 0
M  V30 30508 C 2945.89 -3.75418 0.271703 0
M  V30 30509 C 2945.04 -2.63201 0.872945 0
M  V30 30510 H 2947.99 -1.29232 0.921131 0
M  V30 30511 H 2948.01 -3.80283 -0.128404 0
M  V30 30512 H 2947.53 -3.50262 1.67147 0
M  V30 30513 H 2945.63 -3.6412 -0.790391 0
M  V30 30514 H 2945.74 -4.73264 0.74554 0
M  V30 30515 H 2944.1 -2.52921 0.300475 0
M  V30 30516 H 2944.89 -2.82901 1.94478 0
M  V30 30517 N 2947.33 -0.469207 -1.50453 0
M  V30 30518 C 2948.28 0.325941 -2.28487 0
M  V30 30519 C 2949.25 0.98887 -1.33456 0
M  V30 30520 O 2950.43 1.00167 -1.62392 0
M  V30 30521 C 2947.57 1.40307 -3.1529 0
M  V30 30522 C 2946.69 0.755108 -4.25349 0
M  V30 30523 C 2945.82 1.80997 -4.99413 0
M  V30 30524 C 2944.86 1.14215 -6.0135 0
M  V30 30525 N 2944 2.13978 -6.68698 0
M  V30 30526 H 2948.84 -0.345805 -2.95987 0
M  V30 30527 H 2946.37 -0.18238 -1.45965 0
M  V30 30528 H 2948.33 2.03921 -3.63967 0
M  V30 30529 H 2946.96 2.04401 -2.4984 0
M  V30 30530 H 2946.01 0.00645215 -3.80399 0
M  V30 30531 H 2947.33 0.227853 -4.98279 0
M  V30 30532 H 2946.48 2.52196 -5.51799 0
M  V30 30533 H 2945.22 2.37103 -4.26185 0
M  V30 30534 H 2944.22 0.41578 -5.48226 0
M  V30 30535 H 2945.45 0.588016 -6.76549 0
M  V30 30536 H 2943.4 2.69105 -5.98263 0
M  V30 30537 H 2943.31 1.66233 -7.37498 0
M  V30 30538 H 2944.58 2.84563 -7.25702 0
M  V30 30539 N 2948.81 1.56303 -0.201741 0
M  V30 30540 C 2950.04 2.01859 0.440049 0
M  V30 30541 C 2950.45 1.081 1.55277 0
M  V30 30542 O 2949.79 0.0792539 1.83529 0
M  V30 30543 C 2949.85 3.43799 1.05085 0
M  V30 30544 C 2949.52 4.56937 0.0760405 0
M  V30 30545 C 2950.51 5.14932 -0.717042 0
M  V30 30546 C 2948.2 5.02286 -0.0369698 0
M  V30 30547 C 2950.19 6.16731 -1.61003 0
M  V30 30548 C 2947.88 6.03928 -0.933515 0
M  V30 30549 C 2948.88 6.61024 -1.71861 0
M  V30 30550 O 2948.57 7.6069 -2.60012 0
M  V30 30551 H 2948.3 0.666296 0.114127 0
M  V30 30552 H 2950.85 2.03052 -0.309708 0
M  V30 30553 H 2949.08 3.39613 1.84932 0
M  V30 30554 H 2950.77 3.73121 1.59798 0
M  V30 30555 H 2951.54 4.80758 -0.640074 0
M  V30 30556 H 2947.42 4.57538 0.563953 0
M  V30 30557 H 2950.96 6.61224 -2.22327 0
M  V30 30558 H 2946.86 6.37524 -1.01157 0
M  V30 30559 H 2947.62 7.78135 -2.53865 0
M  V30 30560 N 2950.29 -0.0718147 1.57436 0
M  V30 30561 C 2951.51 -0.787712 1.91859 0
M  V30 30562 C 2951.94 -1.70327 0.798149 0
M  V30 30563 O 2951.3 -1.79582 -0.249018 0
M  V30 30564 C 2951.34 -1.55738 3.25235 0
M  V30 30565 O 2950.45 -2.66804 3.14467 0
M  V30 30566 H 2949.79 -0.214903 0.628262 0
M  V30 30567 H 2952.32 -0.0400653 2.04561 0
M  V30 30568 H 2952.33 -1.93663 3.59108 0
M  V30 30569 H 2951 -0.88562 4.06361 0
M  V30 30570 H 2949.58 -2.31736 2.92152 0
M  V30 30571 N 2951.77 -1.53818 -0.343203 0
M  V30 30572 C 2953.01 -1.70743 -1.08127 0
M  V30 30573 C 2953.33 -0.473494 -1.89164 0
M  V30 30574 O 2952.6 0.512571 -1.89075 0
M  V30 30575 H 2951.18 -0.629493 -0.402178 0
M  V30 30576 H 2953.85 -1.91072 -0.384393 0
M  V30 30577 H 2952.94 -2.57847 -1.75845 0
M  V30 30578 N 2953.24 0.604233 -1.45557 0
M  V30 30579 C 2954.47 1.3897 -1.53281 0
M  V30 30580 C 2954.89 1.88064 -0.166542 0
M  V30 30581 O 2954.24 1.62406 0.832491 0
M  V30 30582 C 2954.29 2.59191 -2.51997 0
M  V30 30583 O 2954.02 2.12137 -3.83314 0
M  V30 30584 C 2955.52 3.5201 -2.69451 0
M  V30 30585 H 2952.74 0.425287 -0.51901 0
M  V30 30586 H 2955.28 0.736587 -1.90774 0
M  V30 30587 H 2953.44 3.20537 -2.17566 0
M  V30 30588 H 2953.85 2.90271 -4.36856 0
M  V30 30589 H 2955.32 4.32901 -3.42492 0
M  V30 30590 H 2955.8 4.02567 -1.75603 0
M  V30 30591 H 2956.41 2.96515 -3.04892 0
M  V30 30592 N 2954.72 1.32903 0.847027 0
M  V30 30593 C 2955.65 1.25095 1.97164 0
M  V30 30594 C 2956.63 0.133191 1.69578 0
M  V30 30595 O 2957.82 0.321625 1.91518 0
M  V30 30596 C 2954.95 0.981064 3.33155 0
M  V30 30597 C 2953.9 2.06088 3.75116 0
M  V30 30598 C 2953.23 1.64327 5.08823 0
M  V30 30599 C 2954.53 3.47676 3.89768 0
M  V30 30600 H 2956.22 2.19187 2.03954 0
M  V30 30601 H 2953.77 1.05519 0.979888 0
M  V30 30602 H 2955.72 0.912964 4.11391 0
M  V30 30603 H 2954.44 0.00451299 3.266 0
M  V30 30604 H 2953.1 2.11927 2.99137 0
M  V30 30605 H 2952.75 0.653964 4.98731 0
M  V30 30606 H 2952.45 2.36582 5.37869 0
M  V30 30607 H 2953.98 1.58968 5.89543 0
M  V30 30608 H 2955.39 3.44384 4.58337 0
M  V30 30609 H 2953.79 4.18346 4.30241 0
M  V30 30610 H 2954.86 3.86778 2.92456 0
M  V30 30611 N 2956.2 -1.06426 1.16238 0
M  V30 30612 C 2957.15 -2.1597 0.863707 0
M  V30 30613 C 2958.14 -1.68578 -0.166694 0
M  V30 30614 O 2959.35 -1.79988 -0.0208109 0
M  V30 30615 H 2955.72 -0.704996 0.261697 0
M  V30 30616 H 2957.69 -2.38373 1.79502 0
M  V30 30617 C 2956.44 -3.4562 0.379757 0
M  V30 30618 H 2955.77 -3.82479 1.16405 0
M  V30 30619 H 2957.21 -4.23482 0.209532 0
M  V30 30620 C 2955.66 -3.24644 -0.900442 0
M  V30 30621 O 2956.19 -3.50078 -1.96998 0
M  V30 30622 N 2954.4 -2.78084 -0.843672 0
M  V30 30623 H 2953.95 -2.57586 0.0268882 0
M  V30 30624 H 2953.91 -2.64428 -1.70074 0
M  V30 30625 N 2957.68 -0.960653 -1.24937 0
M  V30 30626 C 2958.61 -0.503855 -2.27999 0
M  V30 30627 C 2959.59 0.4529 -1.6396 0
M  V30 30628 O 2960.77 0.350552 -1.9101 0
M  V30 30629 C 2957.9 0.213474 -3.46643 0
M  V30 30630 C 2956.86 -0.658609 -4.22902 0
M  V30 30631 C 2956.18 0.189808 -5.34363 0
M  V30 30632 C 2957.48 -1.93972 -4.84946 0
M  V30 30633 H 2959.18 -1.36526 -2.6646 0
M  V30 30634 H 2956.72 -0.65792 -1.28091 0
M  V30 30635 H 2958.68 0.544212 -4.17871 0
M  V30 30636 H 2957.4 1.10918 -3.07189 0
M  V30 30637 H 2956.06 -0.972517 -3.53465 0
M  V30 30638 H 2955.71 1.08545 -4.91149 0
M  V30 30639 H 2955.41 -0.390434 -5.86301 0
M  V30 30640 H 2956.93 0.515377 -6.08421 0
M  V30 30641 H 2958.35 -1.67501 -5.48285 0
M  V30 30642 H 2956.74 -2.4661 -5.47086 0
M  V30 30643 H 2957.81 -2.63907 -4.06794 0
M  V30 30644 N 2959.16 1.39677 -0.729931 0
M  V30 30645 C 2960.43 1.94552 -0.202184 0
M  V30 30646 C 2960.81 1.66709 1.29504 0
M  V30 30647 O 2960.16 0.992553 2.05817 0
M  V30 30648 C 2960.37 3.44947 -0.53034 0
M  V30 30649 C 2961.72 4.21913 -0.476882 0
M  V30 30650 O 2962.74 3.53122 -0.467234 0
M  V30 30651 O 2961.6 5.44501 -0.466965 0
M  V30 30652 H 2958.7 0.826251 -0.0351789 0
M  V30 30653 H 2961.24 1.49205 -0.808444 0
M  V30 30654 H 2960.01 3.58627 -1.56532 0
M  V30 30655 H 2959.64 3.97461 0.10515 0
M  V30 30656 N 2960.63 0.47718 1.50202 0
M  V30 30657 C 2962.05 0.131691 1.59056 0
M  V30 30658 C 2962.25 -1.36225 1.48476 0
M  V30 30659 O 2961.31 -2.13609 1.34638 0
M  V30 30660 C 2962.62 0.687306 2.9274 0
M  V30 30661 C 2964.17 0.651277 3.06149 0
M  V30 30662 C 2964.64 1.18454 4.42417 0
M  V30 30663 N 2966.13 1.14421 4.48845 0
M  V30 30664 C 2966.87 1.52727 5.52686 0
M  V30 30665 N 2966.36 1.98511 6.63751 0
M  V30 30666 N 2968.16 1.44292 5.43265 0
M  V30 30667 H 2960.31 1.44874 1.55323 0
M  V30 30668 H 2962.57 0.599486 0.734385 0
M  V30 30669 H 2962.28 1.7341 3.05977 0
M  V30 30670 H 2962.15 0.134282 3.76961 0
M  V30 30671 H 2964.54 -0.386626 2.92556 0
M  V30 30672 H 2964.62 1.24118 2.2367 0
M  V30 30673 H 2964.26 2.22111 4.5676 0
M  V30 30674 H 2964.19 0.570801 5.23497 0
M  V30 30675 H 2966.68 0.808481 3.6915 0
M  V30 30676 H 2967 2.25872 7.39055 0
M  V30 30677 H 2965.34 2.02468 6.64855 0
M  V30 30678 H 2968.53 1.0836 4.55385 0
M  V30 30679 H 2968.71 1.7447 6.24071 0
M  V30 30680 N 2962.11 -1.56194 0.210027 0
M  V30 30681 C 2963.36 -1.98288 -0.425407 0
M  V30 30682 C 2963.69 -1.09727 -1.6023 0
M  V30 30683 O 2962.97 -0.152448 -1.93902 0
M  V30 30684 C 2963.25 -3.49404 -0.871127 0
M  V30 30685 C 2963.1 -4.4874 0.308606 0
M  V30 30686 C 2964.42 -4.04612 -1.73139 0
M  V30 30687 H 2961.54 -0.720911 -0.153157 0
M  V30 30688 H 2964.18 -1.87553 0.303949 0
M  V30 30689 H 2962.33 -3.58683 -1.4926 0
M  V30 30690 H 2964 -4.51484 0.946567 0
M  V30 30691 H 2962.25 -4.23091 0.957952 0
M  V30 30692 H 2962.92 -5.51981 -0.0460172 0
M  V30 30693 H 2965.39 -3.98206 -1.20713 0
M  V30 30694 H 2964.27 -5.10688 -2.01219 0
M  V30 30695 H 2964.53 -3.50785 -2.69077 0
M  V30 30696 N 2963.59 0.0634645 -1.57472 0
M  V30 30697 C 2964.82 0.773733 -1.91888 0
M  V30 30698 C 2965.23 1.70695 -0.806763 0
M  V30 30699 O 2964.59 1.81177 0.219352 0
M  V30 30700 C 2964.64 1.56028 -3.26094 0
M  V30 30701 O 2964.36 0.664564 -4.3303 0
M  V30 30702 C 2965.86 2.3708 -3.74577 0
M  V30 30703 H 2963.08 0.219514 -0.634078 0
M  V30 30704 H 2965.63 0.0312469 -2.04476 0
M  V30 30705 H 2963.78 2.25496 -3.15008 0
M  V30 30706 H 2964.2 1.21249 -5.10293 0
M  V30 30707 H 2965.67 2.87714 -4.71089 0
M  V30 30708 H 2966.15 3.16978 -3.04009 0
M  V30 30709 H 2966.75 1.72752 -3.88634 0
M  V30 30710 N 2965.07 1.53998 0.33504 0
M  V30 30711 C 2966.48 1.44451 0.678679 0
M  V30 30712 C 2966.68 0.608112 1.92105 0
M  V30 30713 O 2965.74 0.102417 2.52292 0
M  V30 30714 C 2967.05 2.88038 0.863384 0
M  V30 30715 C 2968.6 2.97867 0.96146 0
M  V30 30716 C 2969.08 4.4258 1.17842 0
M  V30 30717 N 2970.57 4.46143 1.24542 0
M  V30 30718 C 2971.3 5.55258 1.43097 0
M  V30 30719 N 2970.8 6.74362 1.58768 0
M  V30 30720 N 2972.59 5.42885 1.45713 0
M  V30 30721 H 2964.74 2.06866 -0.481693 0
M  V30 30722 H 2967.01 0.935469 -0.153631 0
M  V30 30723 H 2966.71 3.51693 0.0218893 0
M  V30 30724 H 2966.59 3.33484 1.76262 0
M  V30 30725 H 2968.97 2.34347 1.79347 0
M  V30 30726 H 2969.05 2.5577 0.0389412 0
M  V30 30727 H 2968.7 5.06684 0.351307 0
M  V30 30728 H 2968.63 4.82277 2.11464 0
M  V30 30729 H 2971.12 3.6032 1.13922 0
M  V30 30730 H 2971.43 7.53282 1.72585 0
M  V30 30731 H 2969.78 6.77292 1.55888 0
M  V30 30732 H 2972.97 4.48791 1.33057 0
M  V30 30733 H 2973.14 6.27979 1.5983 0
M  V30 30734 N 2966.55 -0.596505 1.45875 0
M  V30 30735 C 2967.46 -1.73461 1.5795 0
M  V30 30736 C 2968.47 -1.67713 0.46349 0
M  V30 30737 O 2969.65 -1.8787 0.725718 0
M  V30 30738 C 2966.71 -3.09946 1.55353 0
M  V30 30739 C 2965.77 -3.27063 2.7808 0
M  V30 30740 C 2965.01 -4.57036 2.75597 0
M  V30 30741 O 2965.23 -5.40059 1.83554 0
M  V30 30742 O 2964.16 -4.77105 3.66953 0
M  V30 30743 H 2967.99 -1.66223 2.54172 0
M  V30 30744 H 2965.58 -0.761918 1.28511 0
M  V30 30745 H 2967.46 -3.91241 1.56552 0
M  V30 30746 H 2966.13 -3.17651 0.622867 0
M  V30 30747 H 2965.04 -2.45314 2.82439 0
M  V30 30748 H 2966.37 -3.24241 3.70309 0
M  V30 30749 N 2968.02 -1.3335 -0.839967 0
M  V30 30750 C 2968.99 -1.2343 -1.93126 0
M  V30 30751 C 2969.99 -0.153627 -1.60064 0
M  V30 30752 O 2971.18 -0.405079 -1.69425 0
M  V30 30753 C 2968.31 -0.901679 -3.28759 0
M  V30 30754 H 2969.5 -2.2043 -2.03348 0
M  V30 30755 H 2967.06 -1.17393 -1.03192 0
M  V30 30756 H 2967.79 0.0658768 -3.24233 0
M  V30 30757 H 2967.58 -1.68317 -3.54135 0
M  V30 30758 H 2969.07 -0.856985 -4.08712 0
M  V30 30759 N 2969.5 1.05808 -1.16801 0
M  V30 30760 C 2970.74 1.80277 -0.963296 0
M  V30 30761 C 2971.11 1.85385 0.499638 0
M  V30 30762 O 2972.31 2.55884 0.823219 0
M  V30 30763 C 2970.58 3.20607 -1.57943 0
M  V30 30764 S 2972.14 4.11631 -1.52005 0
M  V30 30765 H 2968.96 0.620958 -0.346313 0
M  V30 30766 H 2971.56 1.26996 -1.48634 0
M  V30 30767 H 2970.26 3.14488 -2.63677 0
M  V30 30768 H 2969.79 3.78964 -1.05592 0
M  V30 30769 H 2971.81 4.93429 -0.523712 0
M  V30 30770 N 2970.98 0.967265 1.24426 0
M  V30 30771 C 2972.39 0.667815 1.74348 0
M  V30 30772 C 2972.74 -0.816478 1.78404 0
M  V30 30773 O 2971.87 -1.63884 1.41318 0
M  V30 30774 C 2972.46 1.20554 3.16626 0
M  V30 30775 C 2971.02 0.955998 3.64057 0
M  V30 30776 C 2970.17 1.34111 2.42713 0
M  V30 30777 H 2973.12 1.14263 1.10134 0
M  V30 30778 H 2973.14 0.571613 3.76182 0
M  V30 30779 H 2972.65 2.28584 3.13642 0
M  V30 30780 H 2970.75 -0.108792 3.72441 0
M  V30 30781 H 2970.87 1.60134 4.51546 0
M  V30 30782 H 2969.23 0.759495 2.43113 0
M  V30 30783 H 2970.01 2.43089 2.4241 0
M  V30 30784 N 2972.46 -1.39288 0.737328 0
M  V30 30785 C 2973.37 -2.34385 0.100505 0
M  V30 30786 C 2974.39 -1.58438 -0.719254 0
M  V30 30787 O 2975.56 -1.90718 -0.647182 0
M  V30 30788 C 2972.63 -3.37479 -0.794266 0
M  V30 30789 C 2971.69 -4.29283 0.03801 0
M  V30 30790 C 2970.92 -5.27454 -0.814149 0
M  V30 30791 O 2971.14 -5.32181 -2.05279 0
M  V30 30792 O 2970.08 -6.01415 -0.241574 0
M  V30 30793 H 2973.9 -2.90505 0.885458 0
M  V30 30794 H 2971.49 -1.40855 0.498024 0
M  V30 30795 H 2973.37 -4.00647 -1.30615 0
M  V30 30796 H 2972.05 -2.8374 -1.55799 0
M  V30 30797 H 2970.95 -3.6933 0.59547 0
M  V30 30798 H 2972.29 -4.86234 0.764012 0
M  V30 30799 N 2973.94 -0.485139 -1.49947 0
M  V30 30800 C 2974.87 0.291323 -2.31676 0
M  V30 30801 C 2975.85 0.977359 -1.39218 0
M  V30 30802 O 2977.03 0.971825 -1.68134 0
M  V30 30803 C 2974.16 1.36552 -3.19329 0
M  V30 30804 C 2973.12 0.800285 -4.20451 0
M  V30 30805 C 2972.44 1.97382 -4.96935 0
M  V30 30806 C 2973.74 -0.197959 -5.21925 0
M  V30 30807 H 2975.44 -0.390827 -2.96838 0
M  V30 30808 H 2972.98 -0.189401 -1.42749 0
M  V30 30809 H 2974.94 1.91631 -3.75307 0
M  V30 30810 H 2973.66 2.07664 -2.52078 0
M  V30 30811 H 2972.32 0.271364 -3.65594 0
M  V30 30812 H 2971.97 2.67225 -4.26145 0
M  V30 30813 H 2971.67 1.60177 -5.65347 0
M  V30 30814 H 2973.19 2.52925 -5.55753 0
M  V30 30815 H 2974.61 0.264138 -5.72691 0
M  V30 30816 H 2973 -0.485014 -5.98137 0
M  V30 30817 H 2974.07 -1.1192 -4.71807 0
M  V30 30818 N 2975.42 1.56081 -0.218307 0
M  V30 30819 C 2976.69 1.90039 0.463109 0
M  V30 30820 C 2977.07 1.13518 1.7798 0
M  V30 30821 O 2976.42 0.24349 2.27199 0
M  V30 30822 C 2976.63 3.42717 0.659232 0
M  V30 30823 C 2977.98 4.13416 0.96813 0
M  V30 30824 O 2979 3.48298 0.746133 0
M  V30 30825 O 2977.86 5.28547 1.38927 0
M  V30 30826 H 2974.96 0.790055 0.244422 0
M  V30 30827 H 2977.5 1.67693 -0.26025 0
M  V30 30828 H 2976.27 3.9037 -0.269653 0
M  V30 30829 H 2975.9 3.70832 1.4342 0
M  V30 30830 N 2976.89 -0.0551124 1.57504 0
M  V30 30831 C 2978.12 -0.762439 1.92017 0
M  V30 30832 C 2978.53 -1.70789 0.814118 0
M  V30 30833 O 2977.87 -1.82375 -0.220241 0
M  V30 30834 C 2977.94 -1.59592 3.22135 0
M  V30 30835 C 2977.6 -0.818062 4.49618 0
M  V30 30836 C 2978.6 -0.129842 5.19738 0
M  V30 30837 C 2976.28 -0.780299 4.96202 0
M  V30 30838 C 2978.28 0.585727 6.34703 0
M  V30 30839 C 2975.96 -0.0609682 6.1107 0
M  V30 30840 C 2976.96 0.620829 6.80173 0
M  V30 30841 O 2976.65 1.32854 7.92846 0
M  V30 30842 H 2976.38 -0.220956 0.63887 0
M  V30 30843 H 2978.94 -0.0246001 2.05385 0
M  V30 30844 H 2977.17 -2.37696 3.05021 0
M  V30 30845 H 2978.85 -2.18345 3.4217 0
M  V30 30846 H 2979.62 -0.150214 4.84767 0
M  V30 30847 H 2975.5 -1.30046 4.42277 0
M  V30 30848 H 2979.04 1.11845 6.88576 0
M  V30 30849 H 2974.94 -0.038581 6.45488 0
M  V30 30850 H 2975.71 1.23952 8.0906 0
M  V30 30851 N 2978.37 -1.54173 -0.326869 0
M  V30 30852 C 2979.62 -1.7222 -1.0652 0
M  V30 30853 C 2979.95 -0.494147 -1.88118 0
M  V30 30854 O 2979.2 0.524114 -1.88551 0
M  V30 30855 C 2979.5 -2.94789 -2.02075 0
M  V30 30856 C 2979.17 -4.29692 -1.36658 0
M  V30 30857 C 2977.83 -4.66369 -1.18547 0
M  V30 30858 C 2980.18 -5.13427 -0.896778 0
M  V30 30859 C 2977.51 -5.84382 -0.52101 0
M  V30 30860 C 2979.86 -6.32121 -0.24615 0
M  V30 30861 C 2978.52 -6.67479 -0.0528697 0
M  V30 30862 H 2977.79 -0.630197 -0.389785 0
M  V30 30863 H 2980.44 -1.88409 -0.342692 0
M  V30 30864 H 2978.75 -2.73273 -2.80765 0
M  V30 30865 H 2980.44 -3.05946 -2.59226 0
M  V30 30866 H 2977.03 -4.00835 -1.51755 0
M  V30 30867 H 2981.22 -4.85611 -1.02449 0
M  V30 30868 H 2976.47 -6.10339 -0.360032 0
M  V30 30869 H 2980.65 -6.96286 0.125898 0
M  V30 30870 H 2978.27 -7.58782 0.464037 0
M  V30 30871 N 2979.85 0.58876 -1.4619 0
M  V30 30872 C 2981.1 1.34918 -1.5141 0
M  V30 30873 C 2981.43 1.93516 -0.162805 0
M  V30 30874 O 2980.7 1.76134 0.825051 0
M  V30 30875 C 2980.99 2.48306 -2.60799 0
M  V30 30876 C 2980.84 1.94782 -4.05438 0
M  V30 30877 C 2982.16 3.50375 -2.66319 0
M  V30 30878 H 2979.28 0.489207 -0.551221 0
M  V30 30879 H 2981.92 0.661961 -1.78096 0
M  V30 30880 H 2980.07 3.06928 -2.38175 0
M  V30 30881 H 2981.74 1.40664 -4.39331 0
M  V30 30882 H 2979.98 1.25651 -4.15204 0
M  V30 30883 H 2980.66 2.76605 -4.77696 0
M  V30 30884 H 2983.13 3.01624 -2.8664 0
M  V30 30885 H 2982.01 4.27178 -3.44688 0
M  V30 30886 H 2982.27 4.07213 -1.72134 0
M  V30 30887 N 2981.33 1.33794 0.832883 0
M  V30 30888 C 2982.57 1.25775 1.59086 0
M  V30 30889 C 2982.91 -0.174567 1.93414 0
M  V30 30890 O 2982.18 -1.11743 1.59197 0
M  V30 30891 C 2982.46 2.1389 2.89695 0
M  V30 30892 C 2982.32 3.65609 2.62011 0
M  V30 30893 C 2983.64 2.01661 3.91179 0
M  V30 30894 H 2980.76 0.458237 0.577224 0
M  V30 30895 H 2983.4 1.63952 0.960199 0
M  V30 30896 H 2981.55 1.81462 3.43517 0
M  V30 30897 H 2983.22 4.08357 2.14575 0
M  V30 30898 H 2981.46 3.87192 1.95614 0
M  V30 30899 H 2982.13 4.22616 3.55105 0
M  V30 30900 H 2984.61 2.30113 3.4668 0
M  V30 30901 H 2983.49 2.65556 4.80386 0
M  V30 30902 H 2983.75 0.990612 4.30859 0
M  V30 30903 N 2982.81 -1.05187 1.1736 0
M  V30 30904 C 2984.05 -1.78189 0.962019 0
M  V30 30905 C 2984.38 -1.87713 -0.50933 0
M  V30 30906 O 2983.64 -1.37331 -1.39423 0
M  V30 30907 C 2983.93 -3.22123 1.54827 0
M  V30 30908 C 2983.6 -3.32658 3.04384 0
M  V30 30909 C 2982.26 -3.3524 3.45207 0
M  V30 30910 C 2984.61 -3.33669 4.00392 0
M  V30 30911 C 2981.94 -3.36463 4.80635 0
M  V30 30912 C 2984.29 -3.36431 5.35721 0
M  V30 30913 C 2982.96 -3.373 5.76008 0
M  V30 30914 H 2982.23 -0.652041 0.352028 0
M  V30 30915 H 2984.88 -1.23624 1.46251 0
M  V30 30916 H 2983.18 -3.79616 0.969498 0
M  V30 30917 H 2984.88 -3.77229 1.36011 0
M  V30 30918 H 2981.47 -3.31361 2.71842 0
M  V30 30919 H 2985.65 -3.30876 3.69912 0
M  V30 30920 H 2980.91 -3.35446 5.11161 0
M  V30 30921 H 2985.08 -3.36162 6.09892 0
M  V30 30922 H 2982.71 -3.38001 6.80925 0
M  V30 30923 N 2984.28 -0.97385 -1.23911 0
M  V30 30924 C 2985.51 -0.656546 -1.96734 0
M  V30 30925 C 2985.93 0.768541 -1.71683 0
M  V30 30926 O 2985.29 1.52254 -0.984294 0
M  V30 30927 C 2985.34 -0.944796 -3.48003 0
M  V30 30928 O 2984.44 -0.0334082 -4.12386 0
M  V30 30929 H 2983.78 -0.247586 -0.616114 0
M  V30 30930 H 2986.31 -1.30567 -1.57523 0
M  V30 30931 H 2986.32 -0.87883 -3.98423 0
M  V30 30932 H 2985 -1.98334 -3.65563 0
M  V30 30933 H 2983.58 -0.153222 -3.72585 0
M  V30 30934 N 2985.76 1.38895 -0.744705 0
M  V30 30935 C 2986.99 2.05128 -0.306155 0
M  V30 30936 C 2987.41 1.55791 1.05407 0
M  V30 30937 O 2986.77 0.705938 1.66992 0
M  V30 30938 C 2986.82 3.59103 -0.328258 0
M  V30 30939 O 2985.92 4.06742 0.680804 0
M  V30 30940 H 2985.26 0.649666 -0.13722 0
M  V30 30941 H 2987.79 1.77743 -1.01334 0
M  V30 30942 H 2987.8 4.0762 -0.176027 0
M  V30 30943 H 2986.48 3.94372 -1.32074 0
M  V30 30944 H 2985.05 3.69615 0.493915 0
M  V30 30945 N 2987.24 0.493084 1.49688 0
M  V30 30946 C 2988.49 -0.0543162 2.02727 0
M  V30 30947 C 2988.82 -1.37373 1.37267 0
M  V30 30948 O 2988.09 -1.87811 0.505677 0
M  V30 30949 C 2988.38 -0.215162 3.59457 0
M  V30 30950 C 2988.23 1.12682 4.35457 0
M  V30 30951 C 2989.55 -0.959511 4.29513 0
M  V30 30952 H 2986.67 -0.0182657 0.736774 0
M  V30 30953 H 2989.31 0.642956 1.78791 0
M  V30 30954 H 2987.46 -0.809055 3.79982 0
M  V30 30955 H 2989.13 1.75899 4.26447 0
M  V30 30956 H 2987.38 1.71808 3.98327 0
M  V30 30957 H 2988.05 0.967673 5.43452 0
M  V30 30958 H 2990.52 -0.455904 4.13595 0
M  V30 30959 H 2989.4 -1.04088 5.3894 0
M  V30 30960 H 2989.66 -2.00137 3.94205 0
M  V30 30961 N 2988.72 -1.55963 0.226582 0
M  V30 30962 C 2989.94 -2.03277 -0.411491 0
M  V30 30963 C 2990.37 -1.10524 -1.52204 0
M  V30 30964 O 2989.73 -0.0943536 -1.81054 0
M  V30 30965 C 2989.77 -3.48782 -0.915632 0
M  V30 30966 O 2988.88 -3.59166 -2.02665 0
M  V30 30967 H 2988.22 -0.657528 -0.0924791 0
M  V30 30968 H 2990.75 -2.01641 0.346691 0
M  V30 30969 H 2990.76 -3.89203 -1.22415 0
M  V30 30970 H 2989.43 -4.15773 -0.102842 0
M  V30 30971 H 2988.01 -3.30635 -1.72439 0
M  V30 30972 N 2990.2 0.0467589 -1.57531 0
M  V30 30973 C 2991.44 0.746138 -1.90295 0
M  V30 30974 C 2991.8 1.73456 -0.823224 0
M  V30 30975 O 2993 2.48089 -1.03467 0
M  V30 30976 C 2991.27 1.41372 -3.28251 0
M  V30 30977 S 2992.83 2.1447 -3.82816 0
M  V30 30978 H 2989.65 0.247586 -0.6665 0
M  V30 30979 H 2992.25 0.00131707 -1.955 0
M  V30 30980 H 2990.96 0.680866 -4.04713 0
M  V30 30981 H 2990.49 2.19746 -3.26306 0
M  V30 30982 H 2992.5 3.41365 -3.60117 0
M  V30 30983 N 2991.67 1.54344 0.318688 0
M  V30 30984 C 2992.92 1.72441 1.05397 0
M  V30 30985 C 2993.24 0.503528 1.88387 0
M  V30 30986 O 2992.51 -0.482426 1.89867 0
M  V30 30987 H 2991.09 0.635812 0.392113 0
M  V30 30988 H 2993.76 1.91659 0.353946 0
M  V30 30989 H 2992.85 2.60611 1.71721 0
M  V30 30990 N 2993.15 -0.580999 1.465 0
M  V30 30991 C 2994.57 -0.90454 1.31492 0
M  V30 30992 C 2994.77 -1.99437 0.287633 0
M  V30 30993 O 2993.82 -2.506 -0.309203 0
M  V30 30994 C 2995.14 -1.32028 2.70165 0
M  V30 30995 C 2996.69 -1.43303 2.78268 0
M  V30 30996 C 2997.16 -1.88242 4.17527 0
M  V30 30997 N 2998.65 -1.95433 4.19953 0
M  V30 30998 C 2999.39 -2.31483 5.24598 0
M  V30 30999 N 2998.88 -2.66314 6.39569 0
M  V30 31000 N 3000.68 -2.32053 5.11965 0
M  V30 31001 H 2992.83 0.138893 2.11945 0
M  V30 31002 H 2995.09 -0.000531864 0.948 0
M  V30 31003 H 2994.8 -0.593493 3.46656 0
M  V30 31004 H 2994.67 -2.28144 3.00383 0
M  V30 31005 H 2997.06 -2.15068 2.02064 0
M  V30 31006 H 2997.14 -0.454336 2.51733 0
M  V30 31007 H 2996.78 -1.17056 4.94227 0
M  V30 31008 H 2996.71 -2.87073 4.41471 0
M  V30 31009 H 2999.2 -1.70998 3.36999 0
M  V30 31010 H 2999.52 -2.92781 7.15192 0
M  V30 31011 H 2997.86 -2.63949 6.42928 0
M  V30 31012 H 3001.05 -2.04265 4.21181 0
M  V30 31013 H 3001.22 -2.5982 5.93631 0
M  V30 31014 N 2994.63 -1.34234 -0.825776 0
M  V30 31015 C 2995.88 -1.2618 -1.5787 0
M  V30 31016 C 2996.2 0.16887 -1.94267 0
M  V30 31017 O 2995.47 1.10081 -1.62046 0
M  V30 31018 H 2994.05 -0.464047 -0.585379 0
M  V30 31019 H 2996.71 -1.68111 -0.986133 0
M  V30 31020 H 2995.81 -1.86458 -2.5028 0
M  V30 31021 N 2996.11 1.04563 -1.17917 0
M  V30 31022 C 2997.06 2.14568 -0.897957 0
M  V30 31023 C 2998.05 1.68822 0.139853 0
M  V30 31024 O 2999.26 1.79998 -0.00782627 0
M  V30 31025 H 2995.63 0.700743 -0.27288 0
M  V30 31026 H 2997.6 2.35487 -1.83272 0
M  V30 31027 C 2996.35 3.44972 -0.434694 0
M  V30 31028 H 2995.67 3.80578 -1.22476 0
M  V30 31029 H 2997.11 4.23095 -0.276878 0
M  V30 31030 C 2995.57 3.26035 0.84868 0
M  V30 31031 O 2996.1 3.53168 1.91404 0
M  V30 31032 N 2994.31 2.79391 0.799324 0
M  V30 31033 H 2993.86 2.57511 -0.0678644 0
M  V30 31034 H 2993.81 2.67101 1.65845 0
M  V30 31035 N 2997.59 0.980408 1.23393 0
M  V30 31036 C 2998.55 0.525658 2.23091 0
M  V30 31037 C 2999.55 -0.384718 1.5613 0
M  V30 31038 O 3000.74 -0.178408 1.73284 0
M  V30 31039 C 2997.87 -0.23706 3.40075 0
M  V30 31040 H 2999.06 1.40718 2.64837 0
M  V30 31041 H 2996.62 0.766298 1.36226 0
M  V30 31042 H 2997.35 -1.13512 3.03785 0
M  V30 31043 H 2997.14 0.416424 3.89882 0
M  V30 31044 H 2998.63 -0.543819 4.14044 0
M  V30 31045 N 2999.06 -1.38498 0.75206 0
M  V30 31046 C 3000.31 -1.99756 0.306931 0
M  V30 31047 C 3000.63 -1.59994 -1.11476 0
M  V30 31048 O 2999.9 -0.856076 -1.76205 0
M  V30 31049 H 2998.48 -0.738783 0.110493 0
M  V30 31050 H 3001.15 -1.69287 0.965815 0
M  V30 31051 H 3000.24 -3.09913 0.368851 0
M  V30 31052 N 3000.54 -0.501015 -1.49424 0
M  V30 31053 C 3001.47 0.314119 -2.27037 0
M  V30 31054 C 3002.49 0.930603 -1.3358 0
M  V30 31055 O 3003.68 0.81394 -1.58862 0
M  V30 31056 C 3000.78 1.45724 -3.0597 0
M  V30 31057 C 2999.95 0.94806 -4.27002 0
M  V30 31058 C 2999.01 1.96879 -4.87981 0
M  V30 31059 O 2998.03 1.53733 -5.48046 0
M  V30 31060 N 2999.24 3.2992 -4.77633 0
M  V30 31061 H 3002 -0.351388 -2.97633 0
M  V30 31062 H 2999.56 -0.333564 -1.58427 0
M  V30 31063 H 3001.55 2.13764 -3.43638 0
M  V30 31064 H 3000.12 2.0269 -2.37982 0
M  V30 31065 H 2999.34 0.0925618 -3.94091 0
M  V30 31066 H 3000.63 0.586273 -5.05411 0
M  V30 31067 H 3000.03 3.67661 -4.29932 0
M  V30 31068 H 2998.59 3.93673 -5.19485 0
M  V30 31069 N 3002.02 1.5584 -0.234849 0
M  V30 31070 C 3003.25 2.03492 0.400705 0
M  V30 31071 C 3003.67 1.1133 1.51616 0
M  V30 31072 O 3003.03 0.103954 1.81002 0
M  V30 31073 C 3003.08 3.49262 0.897123 0
M  V30 31074 O 3002.18 3.60236 2.00758 0
M  V30 31075 H 3001.52 0.65801 0.0889908 0
M  V30 31076 H 3004.05 2.01455 -0.35738 0
M  V30 31077 H 3004.06 3.89846 1.20349 0
M  V30 31078 H 3002.74 4.15822 0.0807908 0
M  V30 31079 H 3001.31 3.31544 1.70683 0
M  V30 31080 N 3003.5 -0.038404 1.57553 0
M  V30 31081 C 3004.45 -1.0604 2.07023 0
M  V30 31082 C 3005.44 -1.38026 0.982102 0
M  V30 31083 O 3006.65 -1.3704 1.16704 0
M  V30 31084 H 3003.02 -0.359452 0.660529 0
M  V30 31085 H 3004.99 -0.617288 2.91945 0
M  V30 31086 C 3003.74 -2.3557 2.55738 0
M  V30 31087 H 3003.07 -2.11816 3.39078 0
M  V30 31088 H 3004.51 -3.05447 2.94072 0
M  V30 31089 C 3002.96 -3.03882 1.45455 0
M  V30 31090 O 3003.49 -3.93336 0.815471 0
M  V30 31091 N 3001.7 -2.65055 1.19139 0
M  V30 31092 H 3001.25 -1.92398 1.71291 0
M  V30 31093 H 3001.21 -3.11081 0.455609 0
M  V30 31094 N 3004.98 -1.54511 -0.310498 0
M  V30 31095 C 3006.21 -1.77063 -1.06453 0
M  V30 31096 C 3006.62 -0.525559 -1.81754 0
M  V30 31097 O 3005.96 0.513873 -1.76366 0
M  V30 31098 C 3006.02 -2.91895 -2.09851 0
M  V30 31099 C 3005.68 -4.30331 -1.53831 0
M  V30 31100 C 3006.68 -5.10709 -0.973269 0
M  V30 31101 C 3004.37 -4.76909 -1.5768 0
M  V30 31102 C 3006.36 -6.3578 -0.454171 0
M  V30 31103 C 3004.05 -6.01945 -1.05383 0
M  V30 31104 C 3005.05 -6.81215 -0.493475 0
M  V30 31105 O 3004.73 -8.03897 0.0215919 0
M  V30 31106 H 3004.47 -0.594436 -0.321903 0
M  V30 31107 H 3007.02 -2.02252 -0.358253 0
M  V30 31108 H 3005.25 -2.62309 -2.84132 0
M  V30 31109 H 3006.94 -3.0211 -2.7108 0
M  V30 31110 H 3007.7 -4.75872 -0.936504 0
M  V30 31111 H 3003.58 -4.15244 -2.00234 0
M  V30 31112 H 3007.13 -6.97598 -0.0161431 0
M  V30 31113 H 3003.02 -6.3627 -1.08771 0
M  V30 31114 H 3003.79 -8.18448 -0.0926039 0
M  V30 31115 N 3006.46 0.573222 -1.46806 0
M  V30 31116 C 3007.7 1.32844 -1.52305 0
M  V30 31117 C 3008.02 1.94166 -0.180193 0
M  V30 31118 O 3007.29 1.79076 0.794259 0
M  V30 31119 H 3005.87 0.493266 -0.560979 0
M  V30 31120 H 3008.54 0.67061 -1.83 0
M  V30 31121 H 3007.63 2.13027 -2.28092 0
M  V30 31122 N 3007.93 1.3467 0.818645 0
M  V30 31123 C 3009.18 1.27267 1.5751 0
M  V30 31124 C 3009.51 -0.156219 1.93872 0
M  V30 31125 O 3008.76 -1.11854 1.60584 0
M  V30 31126 C 3009.06 2.11309 2.88242 0
M  V30 31127 C 3008.73 3.60259 2.71153 0
M  V30 31128 C 3007.39 4.00863 2.662 0
M  V30 31129 C 3009.74 4.54823 2.5453 0
M  V30 31130 C 3007.07 5.34215 2.42551 0
M  V30 31131 C 3009.42 5.8836 2.32411 0
M  V30 31132 C 3008.09 6.28122 2.25873 0
M  V30 31133 H 3007.36 0.465702 0.57637 0
M  V30 31134 H 3010 1.66453 0.946871 0
M  V30 31135 H 3008.31 1.64965 3.55379 0
M  V30 31136 H 3010.01 2.02925 3.45865 0
M  V30 31137 H 3006.6 3.28032 2.7585 0
M  V30 31138 H 3010.78 4.24348 2.57376 0
M  V30 31139 H 3006.04 5.64037 2.3595 0
M  V30 31140 H 3010.21 6.61222 2.18536 0
M  V30 31141 H 3007.84 7.31387 2.07309 0
M  V30 31142 N 3009.41 -1.03936 1.1847 0
M  V30 31143 C 3010.37 -2.10145 0.914981 0
M  V30 31144 C 3011.37 -1.60488 -0.100192 0
M  V30 31145 O 3012.56 -1.73689 0.133396 0
M  V30 31146 C 3009.7 -3.38853 0.373052 0
M  V30 31147 H 3010.89 -2.35505 1.85681 0
M  V30 31148 H 3008.44 -1.20381 0.996897 0
M  V30 31149 H 3009.18 -3.19156 -0.575324 0
M  V30 31150 H 3008.96 -3.76211 1.10487 0
M  V30 31151 H 3010.45 -4.17106 0.203087 0
M  V30 31152 N 3010.89 -0.986938 -1.22871 0
M  V30 31153 C 3011.84 -0.525082 -2.26596 0
M  V30 31154 C 3012.83 0.421223 -1.64079 0
M  V30 31155 O 3014.04 0.294398 -1.77576 0
M  V30 31156 H 3010.41 -0.151394 -0.736603 0
M  V30 31157 H 3012.38 -1.41147 -2.62907 0
M  V30 31158 C 3011.13 0.150481 -3.47374 0
M  V30 31159 H 3010.46 -0.56861 -3.95736 0
M  V30 31160 H 3011.9 0.437182 -4.2174 0
M  V30 31161 C 3010.35 1.38387 -3.07166 0
M  V30 31162 O 3010.88 2.47965 -3.16032 0
M  V30 31163 N 3009.09 1.25692 -2.62011 0
M  V30 31164 H 3008.64 0.36531 -2.54997 0
M  V30 31165 H 3008.6 2.08323 -2.35476 0
M  V30 31166 N 3012.37 1.38098 -0.759394 0
M  V30 31167 C 3013.59 2.04792 -0.327895 0
M  V30 31168 C 3014.02 1.56901 1.03749 0
M  V30 31169 O 3013.38 0.72361 1.66233 0
M  V30 31170 C 3013.42 3.58734 -0.366327 0
M  V30 31171 O 3012.53 4.07441 0.637626 0
M  V30 31172 H 3011.87 0.648175 -0.144103 0
M  V30 31173 H 3014.4 1.76658 -1.03214 0
M  V30 31174 H 3014.41 4.0741 -0.219251 0
M  V30 31175 H 3013.08 3.92949 -1.36249 0
M  V30 31176 H 3011.66 3.70118 0.454684 0
M  V30 31177 N 3013.85 0.508932 1.49156 0
M  V30 31178 C 3014.81 -0.254299 2.27785 0
M  V30 31179 C 3015.81 -0.886837 1.34134 0
M  V30 31180 O 3017 -0.75014 1.57221 0
M  V30 31181 C 3014.13 -1.36567 3.1235 0
M  V30 31182 H 3015.32 0.435767 2.96717 0
M  V30 31183 H 3012.88 0.264155 1.54052 0
M  V30 31184 H 3013.61 -2.08964 2.48001 0
M  V30 31185 H 3013.4 -0.917476 3.81215 0
M  V30 31186 H 3014.89 -1.90308 3.71716 0
M  V30 31187 N 3015.32 -1.55714 0.243111 0
M  V30 31188 C 3016.26 -2.17244 -0.698585 0
M  V30 31189 C 3017.23 -1.12333 -1.17559 0
M  V30 31190 O 3018.42 -1.40701 -1.25441 0
M  V30 31191 C 3015.55 -2.77007 -1.94896 0
M  V30 31192 C 3014.59 -3.94939 -1.61015 0
M  V30 31193 S 3015.42 -5.30691 -0.71608 0
M  V30 31194 C 3016.58 -5.93905 -1.97555 0
M  V30 31195 H 3016.81 -2.96781 -0.175672 0
M  V30 31196 H 3014.35 -1.54375 0.0275999 0
M  V30 31197 H 3016.3 -3.12076 -2.66681 0
M  V30 31198 H 3014.97 -1.97424 -2.443 0
M  V30 31199 H 3014.16 -4.35332 -2.53972 0
M  V30 31200 H 3013.76 -3.61128 -0.972766 0
M  V30 31201 H 3016.05 -6.11191 -2.92322 0
M  V30 31202 H 3017 -6.89433 -1.61516 0
M  V30 31203 H 3017.4 -5.22939 -2.12591 0
M  V30 31204 N 3016.8 0.030048 -1.57571 0
M  V30 31205 C 3017.71 1.04794 -2.09893 0
M  V30 31206 C 3018.73 1.39697 -1.03735 0
M  V30 31207 O 3019.9 1.49036 -1.35464 0
M  V30 31208 C 3016.97 2.33024 -2.56712 0
M  V30 31209 C 3016.03 2.04712 -3.77348 0
M  V30 31210 C 3015.26 3.26827 -4.21924 0
M  V30 31211 O 3015.49 4.37466 -3.66033 0
M  V30 31212 O 3014.42 3.12585 -5.14368 0
M  V30 31213 H 3018.25 0.633292 -2.97024 0
M  V30 31214 H 3015.83 0.246966 -1.47345 0
M  V30 31215 H 3017.71 3.08411 -2.87159 0
M  V30 31216 H 3016.39 2.73786 -1.72693 0
M  V30 31217 H 3015.3 1.26895 -3.51921 0
M  V30 31218 H 3016.63 1.68805 -4.62348 0
M  V30 31219 N 3018.28 1.54674 0.3023 0
M  V30 31220 C 3019.7 1.45858 0.647886 0
M  V30 31221 C 3019.9 0.648724 1.90772 0
M  V30 31222 O 3018.95 0.155909 2.52018 0
M  V30 31223 C 3020.27 2.89805 0.802093 0
M  V30 31224 C 3021.81 2.9984 0.898062 0
M  V30 31225 C 3022.29 4.4498 1.08428 0
M  V30 31226 N 3023.78 4.48684 1.15051 0
M  V30 31227 C 3024.51 5.58168 1.31287 0
M  V30 31228 N 3024.01 6.77578 1.44428 0
M  V30 31229 N 3025.8 5.45854 1.34164 0
M  V30 31230 H 3017.95 2.05798 -0.525464 0
M  V30 31231 H 3020.22 0.931999 -0.173439 0
M  V30 31232 H 3019.92 3.5166 -0.0527149 0
M  V30 31233 H 3019.8 3.37148 1.69149 0
M  V30 31234 H 3022.18 2.38099 1.74336 0
M  V30 31235 H 3022.27 2.55795 -0.0153202 0
M  V30 31236 H 3021.91 5.07315 0.243753 0
M  V30 31237 H 3021.84 4.86654 2.01186 0
M  V30 31238 H 3024.33 3.62655 1.06253 0
M  V30 31239 H 3024.64 7.56774 1.56568 0
M  V30 31240 H 3022.99 6.80446 1.41487 0
M  V30 31241 H 3026.18 4.51512 1.23508 0
M  V30 31242 H 3026.35 6.31228 1.46474 0
M  V30 31243 N 3019.76 -0.565428 1.47108 0
M  V30 31244 C 3021.01 -1.31926 1.52572 0
M  V30 31245 C 3021.32 -1.94684 0.189127 0
M  V30 31246 O 3022.53 -2.71227 0.121705 0
M  V30 31247 C 3020.98 -2.39189 2.68918 0
M  V30 31248 C 3020.59 -1.82658 4.09072 0
M  V30 31249 C 3022.33 -3.15805 2.83668 0
M  V30 31250 C 3020.24 -2.87652 5.16731 0
M  V30 31251 H 3019.17 -0.496015 0.567877 0
M  V30 31252 H 3021.82 -0.601479 1.73362 0
M  V30 31253 H 3020.2 -3.13844 2.41491 0
M  V30 31254 H 3021.38 -1.1443 4.46366 0
M  V30 31255 H 3019.69 -1.18653 3.99137 0
M  V30 31256 H 3022.29 -3.94194 3.61268 0
M  V30 31257 H 3022.63 -3.69478 1.91811 0
M  V30 31258 H 3023.17 -2.48259 3.10825 0
M  V30 31259 H 3019.91 -2.38843 6.10438 0
M  V30 31260 H 3019.43 -3.54316 4.83963 0
M  V30 31261 H 3021.1 -3.51293 5.43325 0
M  V30 31262 N 3021.24 -1.35102 -0.811492 0
M  V30 31263 C 3022.48 -1.2946 -1.58175 0
M  V30 31264 C 3022.84 0.130655 -1.91555 0
M  V30 31265 O 3024.04 0.311381 -2.6699 0
M  V30 31266 C 3022.31 -2.17117 -2.83892 0
M  V30 31267 S 3023.87 -2.28943 -3.7434 0
M  V30 31268 H 3020.69 -0.460155 -0.542013 0
M  V30 31269 H 3023.29 -1.7044 -0.957623 0
M  V30 31270 H 3022 -3.19658 -2.57385 0
M  V30 31271 H 3021.53 -1.77077 -3.51294 0
M  V30 31272 H 3023.54 -1.47063 -4.73906 0
M  V30 31273 N 3022.71 1.03306 -1.19019 0
M  V30 31274 C 3023.62 2.14973 -0.939341 0
M  V30 31275 C 3024.64 1.73717 0.0992054 0
M  V30 31276 O 3025.82 2.01223 -0.0844715 0
M  V30 31277 C 3022.88 3.43406 -0.476773 0
M  V30 31278 C 3021.94 3.99001 -1.5842 0
M  V30 31279 C 3021.18 5.21303 -1.14361 0
M  V30 31280 O 3021.4 5.704 -0.00544434 0
M  V30 31281 O 3020.33 5.69626 -1.94446 0
M  V30 31282 H 3024.16 2.38995 -1.8739 0
M  V30 31283 H 3021.74 1.13401 -0.972655 0
M  V30 31284 H 3023.63 4.20787 -0.227254 0
M  V30 31285 H 3022.3 3.20839 0.429399 0
M  V30 31286 H 3021.21 3.22974 -1.88782 0
M  V30 31287 H 3022.54 4.25924 -2.46678 0
M  V30 31288 N 3024.19 0.99344 1.22346 0
M  V30 31289 C 3025.14 0.544157 2.24293 0
M  V30 31290 C 3026.11 -0.423782 1.60603 0
M  V30 31291 O 3027.29 -0.32842 1.87952 0
M  V30 31292 C 3024.43 -0.134518 3.44838 0
M  V30 31293 C 3023.55 0.875226 4.23041 0
M  V30 31294 C 3022.68 0.170012 5.30928 0
M  V30 31295 C 3021.72 1.16809 6.00851 0
M  V30 31296 N 3020.86 0.491144 7.0038 0
M  V30 31297 H 3025.7 1.41824 2.62087 0
M  V30 31298 H 3023.24 0.710407 1.28809 0
M  V30 31299 H 3025.19 -0.544925 4.13626 0
M  V30 31300 H 3023.82 -0.972392 3.07806 0
M  V30 31301 H 3022.88 1.40395 3.53544 0
M  V30 31302 H 3024.19 1.63524 4.71234 0
M  V30 31303 H 3023.34 -0.297099 6.05972 0
M  V30 31304 H 3022.08 -0.6225 4.83711 0
M  V30 31305 H 3021.09 1.64582 5.24588 0
M  V30 31306 H 3022.31 1.96149 6.50156 0
M  V30 31307 H 3020.26 -0.281922 6.55394 0
M  V30 31308 H 3020.17 1.1896 7.46582 0
M  V30 31309 H 3021.44 0.0468539 7.79486 0
M  V30 31310 N 3025.67 -1.37693 0.766707 0
M  V30 31311 C 3027.09 -1.53248 0.445766 0
M  V30 31312 C 3027.29 -1.72628 -1.03932 0
M  V30 31313 O 3026.34 -1.74476 -1.82522 0
M  V30 31314 C 3027.66 -2.73192 1.25645 0
M  V30 31315 C 3029.2 -2.8705 1.24784 0
M  V30 31316 C 3029.68 -4.09971 2.04176 0
M  V30 31317 N 3031.17 -4.17074 2.01504 0
M  V30 31318 C 3031.9 -5.11208 2.59719 0
M  V30 31319 N 3031.4 -6.10932 3.26702 0
M  V30 31320 N 3033.19 -5.03654 2.49577 0
M  V30 31321 H 3025.34 -1.23365 1.72901 0
M  V30 31322 H 3027.61 -0.600309 0.733712 0
M  V30 31323 H 3027.31 -2.6532 2.30864 0
M  V30 31324 H 3027.19 -3.66738 0.882198 0
M  V30 31325 H 3029.57 -2.94396 0.203655 0
M  V30 31326 H 3029.66 -1.94477 1.66169 0
M  V30 31327 H 3029.3 -4.03386 3.08613 0
M  V30 31328 H 3029.23 -5.01648 1.60176 0
M  V30 31329 H 3031.72 -3.4566 1.52734 0
M  V30 31330 H 3032.03 -6.7928 3.68509 0
M  V30 31331 H 3030.38 -6.11226 3.30799 0
M  V30 31332 H 3033.57 -4.2469 1.96866 0
M  V30 31333 H 3033.74 -5.76833 2.95241 0
M  V30 31334 N 3027.15 -0.516835 -1.48884 0
M  V30 31335 C 3028.56 -0.173816 -1.58651 0
M  V30 31336 C 3028.76 1.3224 -1.52035 0
M  V30 31337 O 3027.82 2.09964 -1.40254 0
M  V30 31338 C 3029.13 -0.764679 -2.90815 0
M  V30 31339 C 3030.68 -0.732218 -3.04315 0
M  V30 31340 C 3031.16 -1.30142 -4.39121 0
M  V30 31341 N 3032.65 -1.26281 -4.45654 0
M  V30 31342 C 3033.38 -1.67326 -5.48443 0
M  V30 31343 N 3032.88 -2.16039 -6.58254 0
M  V30 31344 N 3034.67 -1.58645 -5.39248 0
M  V30 31345 H 3026.82 -1.48942 -1.51427 0
M  V30 31346 H 3029.09 -0.618746 -0.718232 0
M  V30 31347 H 3028.79 -1.81462 -3.01271 0
M  V30 31348 H 3028.67 -0.234179 -3.76472 0
M  V30 31349 H 3031.05 0.308924 -2.93479 0
M  V30 31350 H 3031.13 -1.30004 -2.20301 0
M  V30 31351 H 3030.78 -2.34143 -4.5071 0
M  V30 31352 H 3030.71 -0.709397 -5.218 0
M  V30 31353 H 3033.2 -0.906071 -3.66877 0
M  V30 31354 H 3033.51 -2.45387 -7.32806 0
M  V30 31355 H 3031.86 -2.20024 -6.59253 0
M  V30 31356 H 3035.05 -1.20395 -4.52352 0
M  V30 31357 H 3035.22 -1.90954 -6.19226 0
M  V30 31358 N 3028.63 1.55583 -0.251365 0
M  V30 31359 C 3029.58 2.18229 0.660313 0
M  V30 31360 C 3030.56 1.13953 1.13594 0
M  V30 31361 O 3031.75 1.39848 1.08497 0
M  V30 31362 C 3028.88 2.88873 1.85493 0
M  V30 31363 C 3027.97 4.0041 1.39759 0
M  V30 31364 N 3028.36 5.01544 0.654788 0
M  V30 31365 C 3026.66 4.13047 1.68251 0
M  V30 31366 C 3027.36 5.802 0.417419 0
M  V30 31367 N 3026.33 5.34639 0.982938 0
M  V30 31368 H 3030.14 2.93778 0.0846909 0
M  V30 31369 H 3027.65 1.62311 -0.0538741 0
M  V30 31370 H 3029.65 3.32185 2.5191 0
M  V30 31371 H 3028.31 2.14828 2.43473 0
M  V30 31372 H 3029.32 5.17004 0.304454 0
M  V30 31373 H 3025.99 3.50176 2.27338 0
M  V30 31374 H 3027.38 6.7167 -0.175882 0
M  V30 31375 N 3030.1 -0.0216912 1.57585 0
M  V30 31376 C 3031.01 -1.0368 2.10446 0
M  V30 31377 C 3032.03 -1.39145 1.04474 0
M  V30 31378 O 3033.21 -1.48315 1.36252 0
M  V30 31379 C 3030.27 -2.31659 2.57944 0
M  V30 31380 C 3029.33 -2.02708 3.78429 0
M  V30 31381 C 3028.57 -3.24585 4.23651 0
M  V30 31382 O 3028.79 -4.35518 3.68348 0
M  V30 31383 O 3027.72 -3.09853 5.16018 0
M  V30 31384 H 3031.55 -0.617531 2.97355 0
M  V30 31385 H 3029.13 -0.239148 1.47474 0
M  V30 31386 H 3031.02 -3.06884 2.88791 0
M  V30 31387 H 3029.69 -2.72867 1.74142 0
M  V30 31388 H 3028.6 -1.25027 3.52589 0
M  V30 31389 H 3029.93 -1.66351 4.63237 0
M  V30 31390 N 3031.58 -1.54832 -0.294093 0
M  V30 31391 C 3032.83 -1.74096 -1.0264 0
M  V30 31392 C 3033.15 -0.533435 -1.87562 0
M  V30 31393 O 3032.42 0.452159 -1.9061 0
M  V30 31394 H 3031 -0.641969 -0.381948 0
M  V30 31395 H 3033.66 -1.92198 -0.32341 0
M  V30 31396 H 3032.76 -2.6331 -1.67553 0
M  V30 31397 N 3033.06 0.557619 -1.47405 0
M  V30 31398 C 3033.99 1.67446 -1.62739 0
M  V30 31399 C 3034.97 1.63279 -0.476853 0
M  V30 31400 O 3036.16 1.80907 -0.706139 0
M  V30 31401 C 3033.29 3.06083 -1.64105 0
M  V30 31402 C 3032.24 3.25096 -2.78382 0
M  V30 31403 C 3031.57 4.64515 -2.64821 0
M  V30 31404 C 3032.87 3.10511 -4.19977 0
M  V30 31405 H 3034.56 1.54869 -2.56234 0
M  V30 31406 H 3032.11 0.743628 -1.23313 0
M  V30 31407 H 3034.06 3.8406 -1.73424 0
M  V30 31408 H 3032.78 3.19618 -0.671708 0
M  V30 31409 H 3031.44 2.49527 -2.68574 0
M  V30 31410 H 3031.09 4.74849 -1.65915 0
M  V30 31411 H 3030.79 4.78185 -3.41486 0
M  V30 31412 H 3032.32 5.44628 -2.76067 0
M  V30 31413 H 3033.73 3.78306 -4.30764 0
M  V30 31414 H 3032.13 3.35691 -4.97425 0
M  V30 31415 H 3033.2 2.07262 -4.38372 0
M  V30 31416 N 3034.54 1.35531 0.804316 0
M  V30 31417 C 3035.95 1.25917 1.37847 0
M  V30 31418 C 3036.3 -0.107461 1.95905 0
M  V30 31419 O 3035.43 -1.00849 1.91464 0
M  V30 31420 C 3036.02 2.27998 2.50604 0
M  V30 31421 C 3034.58 2.22119 3.03875 0
M  V30 31422 C 3033.73 2.13585 1.76853 0
M  V30 31423 H 3036.68 1.46626 0.607166 0
M  V30 31424 H 3036.7 1.90778 3.29217 0
M  V30 31425 H 3036.21 3.27453 2.08317 0
M  V30 31426 H 3034.31 1.26083 3.50619 0
M  V30 31427 H 3034.43 3.14179 3.61702 0
M  V30 31428 H 3032.79 1.59599 1.98495 0
M  V30 31429 H 3033.57 3.14903 1.36715 0
M  V30 31430 N 3036.02 -1.02674 1.19565 0
M  V30 31431 C 3037.27 -1.75761 0.997624 0
M  V30 31432 C 3037.59 -1.89189 -0.472497 0
M  V30 31433 O 3036.86 -1.42703 -1.34211 0
M  V30 31434 H 3035.44 -0.651115 0.366139 0
M  V30 31435 H 3038.1 -1.23841 1.50497 0
M  V30 31436 H 3037.19 -2.76505 1.44746 0
M  V30 31437 N 3037.5 -0.999914 -1.21817 0
M  V30 31438 C 3038.43 -0.576136 -2.26281 0
M  V30 31439 C 3039.41 0.400508 -1.65318 0
M  V30 31440 O 3040.59 0.289606 -1.92028 0
M  V30 31441 C 3037.72 0.103084 -3.47147 0
M  V30 31442 C 3036.68 -0.792819 -4.20593 0
M  V30 31443 C 3036 0.0197086 -5.34696 0
M  V30 31444 C 3037.3 -2.09302 -4.78529 0
M  V30 31445 H 3039 -1.44934 -2.61982 0
M  V30 31446 H 3036.54 -0.698338 -1.25933 0
M  V30 31447 H 3038.49 0.410994 -4.19391 0
M  V30 31448 H 3037.22 1.01089 -3.10562 0
M  V30 31449 H 3035.88 -1.08448 -3.50192 0
M  V30 31450 H 3035.53 0.928642 -4.94353 0
M  V30 31451 H 3035.23 -0.576763 -5.84763 0
M  V30 31452 H 3036.75 0.321551 -6.09753 0
M  V30 31453 H 3038.16 -1.84859 -5.42679 0
M  V30 31454 H 3036.56 -2.63891 -5.38964 0
M  V30 31455 H 3037.63 -2.76715 -3.98192 0
M  V30 31456 N 3038.97 1.37284 -0.773999 0
M  V30 31457 C 3039.94 2.28583 -0.168014 0
M  V30 31458 C 3040.94 1.4813 0.625636 0
M  V30 31459 O 3042.13 1.68317 0.448894 0
M  V30 31460 C 3039.26 3.32106 0.769305 0
M  V30 31461 H 3040.45 2.83682 -0.972856 0
M  V30 31462 H 3038 1.46588 -0.542361 0
M  V30 31463 H 3038.74 2.82135 1.59907 0
M  V30 31464 H 3038.52 3.91578 0.20235 0
M  V30 31465 H 3040.01 4.00326 1.18865 0
M  V30 31466 N 3040.45 0.524724 1.48608 0
M  V30 31467 C 3041.7 -0.0113025 2.02797 0
M  V30 31468 C 3042.03 -1.34431 1.4015 0
M  V30 31469 O 3041.31 -1.86697 0.545401 0
M  V30 31470 C 3041.59 -0.138868 3.59832 0
M  V30 31471 C 3041.44 1.21894 4.32969 0
M  V30 31472 C 3042.76 -0.868189 4.31452 0
M  V30 31473 H 3039.88 -0.0026335 0.736995 0
M  V30 31474 H 3042.52 0.680735 1.77387 0
M  V30 31475 H 3040.67 -0.728273 3.81613 0
M  V30 31476 H 3042.34 1.84905 4.2262 0
M  V30 31477 H 3040.59 1.80218 3.94593 0
M  V30 31478 H 3041.26 1.08273 5.41277 0
M  V30 31479 H 3043.73 -0.368072 4.14469 0
M  V30 31480 H 3042.61 -0.926333 5.41027 0
M  V30 31481 H 3042.87 -1.9173 3.98362 0
M  V30 31482 N 3041.93 -1.55447 0.259613 0
M  V30 31483 C 3042.86 -2.19265 -0.667509 0
M  V30 31484 C 3043.87 -1.1727 -1.12923 0
M  V30 31485 O 3045.06 -1.44073 -1.05381 0
M  V30 31486 C 3042.16 -2.79224 -1.92061 0
M  V30 31487 C 3041.34 -4.06761 -1.60825 0
M  V30 31488 C 3040.4 -4.50915 -2.71223 0
M  V30 31489 O 3039.42 -5.17023 -2.38067 0
M  V30 31490 N 3040.62 -4.19759 -4.00977 0
M  V30 31491 H 3043.39 -2.99454 -0.121396 0
M  V30 31492 H 3040.95 -1.61702 0.0800804 0
M  V30 31493 H 3042.94 -3.05714 -2.65181 0
M  V30 31494 H 3041.51 -2.03118 -2.37617 0
M  V30 31495 H 3040.73 -3.87724 -0.711617 0
M  V30 31496 H 3042.02 -4.89886 -1.37437 0
M  V30 31497 H 3041.42 -3.66713 -4.30741 0
M  V30 31498 H 3039.97 -4.51057 -4.70522 0
M  V30 31499 N 3043.41 0.0133338 -1.57594 0
M  V30 31500 C 3044.65 0.696423 -1.91106 0
M  V30 31501 C 3045.01 1.72115 -0.859902 0
M  V30 31502 O 3044.3 1.91162 0.129546 0
M  V30 31503 C 3044.5 1.3933 -3.29123 0
M  V30 31504 C 3044.32 0.437587 -4.47566 0
M  V30 31505 C 3043.09 0.0528565 -5.05272 0
M  V30 31506 C 3045.29 -0.290627 -5.13478 0
M  V30 31507 N 3043.27 -0.902462 -6.0723 0
M  V30 31508 C 3044.65 -1.10107 -6.10145 0
M  V30 31509 C 3046.7 -0.355891 -4.96626 0
M  V30 31510 C 3045.4 -1.97081 -6.91774 0
M  V30 31511 C 3047.43 -1.21281 -5.78831 0
M  V30 31512 C 3046.79 -2.01114 -6.7508 0
M  V30 31513 H 3042.89 0.228451 -0.747886 0
M  V30 31514 H 3045.47 -0.0438805 -1.94651 0
M  V30 31515 H 3043.65 2.10397 -3.26478 0
M  V30 31516 H 3045.38 2.03002 -3.50103 0
M  V30 31517 H 3042.13 0.418403 -4.71748 0
M  V30 31518 H 3042.56 -1.3751 -6.62888 0
M  V30 31519 H 3047.2 0.247031 -4.22078 0
M  V30 31520 H 3044.92 -2.58446 -7.65657 0
M  V30 31521 H 3048.5 -1.26704 -5.67836 0
M  V30 31522 H 3047.38 -2.6635 -7.37582 0
M  V30 31523 N 3044.89 1.54985 0.285878 0
M  V30 31524 C 3046.13 1.74638 1.01715 0
M  V30 31525 C 3046.45 0.543375 1.87276 0
M  V30 31526 O 3045.72 -0.442044 1.90848 0
M  V30 31527 H 3044.3 0.643986 0.378538 0
M  V30 31528 H 3046.97 1.92367 0.313213 0
M  V30 31529 H 3046.06 2.64195 1.66154 0
M  V30 31530 N 3046.36 -0.549794 1.47699 0
M  V30 31531 C 3047.33 -1.63834 1.60285 0
M  V30 31532 C 3048.33 -1.53549 0.477421 0
M  V30 31533 O 3049.52 -1.57574 0.742693 0
M  V30 31534 C 3046.65 -3.03401 1.55436 0
M  V30 31535 H 3047.84 -1.54022 2.57327 0
M  V30 31536 H 3045.4 -0.770305 1.36 0
M  V30 31537 H 3046.13 -3.18739 0.597968 0
M  V30 31538 H 3045.92 -3.12275 2.37121 0
M  V30 31539 H 3047.41 -3.82581 1.67396 0
M  V30 31540 N 3047.84 -1.35955 -0.797117 0
M  V30 31541 C 3049.09 -1.29089 -1.5498 0
M  V30 31542 C 3049.4 0.129969 -1.95168 0
M  V30 31543 O 3050.61 0.320962 -2.69596 0
M  V30 31544 C 3049.07 -2.26444 -2.79734 0
M  V30 31545 C 3048.67 -3.73925 -2.46747 0
M  V30 31546 C 3050.42 -2.28539 -3.57729 0
M  V30 31547 C 3048.33 -4.63077 -3.6785 0
M  V30 31548 H 3047.26 -0.479661 -0.581757 0
M  V30 31549 H 3049.91 -1.61274 -0.875381 0
M  V30 31550 H 3048.29 -1.87242 -3.48936 0
M  V30 31551 H 3049.46 -4.21817 -1.85491 0
M  V30 31552 H 3047.78 -3.7453 -1.81978 0
M  V30 31553 H 3050.37 -2.92359 -4.47694 0
M  V30 31554 H 3050.72 -1.29176 -3.95751 0
M  V30 31555 H 3051.25 -2.66318 -2.95499 0
M  V30 31556 H 3047.99 -5.63474 -3.34929 0
M  V30 31557 H 3047.51 -4.19906 -4.28298 0
M  V30 31558 H 3049.19 -4.78969 -4.34969 0
M  V30 31559 N 3049.32 1.02038 -1.20108 0
M  V30 31560 C 3050.57 1.75229 -1.00693 0
M  V30 31561 C 3050.89 1.89437 0.462457 0
M  V30 31562 O 3050.16 1.43413 1.33453 0
M  V30 31563 H 3048.74 0.649164 -0.369587 0
M  V30 31564 H 3051.4 1.23041 -1.51152 0
M  V30 31565 H 3050.5 2.75734 -1.4621 0
M  V30 31566 N 3050.8 1.00636 1.21285 0
M  V30 31567 C 3052.08 0.605289 1.85999 0
M  V30 31568 C 3052.46 -0.917039 1.90141 0
M  V30 31569 O 3051.8 -1.80455 1.40172 0
M  V30 31570 C 3052.01 1.24124 3.26181 0
M  V30 31571 C 3053.36 1.35022 4.0256 0
M  V30 31572 O 3054.39 1.19667 3.35497 0
M  V30 31573 O 3053.24 1.59735 5.22635 0
M  V30 31574 H 3050.34 0.2075 0.800545 0
M  V30 31575 H 3052.88 1.10309 1.28957 0
M  V30 31576 H 3051.66 2.28192 3.17874 0
M  V30 31577 H 3051.28 0.729876 3.90843 0
M  V30 31578 N 3052.28 -1.36872 0.781268 0
M  V30 31579 C 3053.52 -1.99749 0.350442 0
M  V30 31580 C 3053.86 -1.61872 -1.0729 0
M  V30 31581 O 3053.13 -0.869521 -1.73982 0
M  V30 31582 C 3053.41 -3.56543 0.504897 0
M  V30 31583 C 3053.27 -4.043 1.97134 0
M  V30 31584 C 3054.59 -4.40018 -0.0850499 0
M  V30 31585 H 3051.7 -0.725657 0.128807 0
M  V30 31586 H 3054.35 -1.62408 0.986089 0
M  V30 31587 H 3052.5 -3.88483 -0.0362323 0
M  V30 31588 H 3054.17 -3.82883 2.57291 0
M  V30 31589 H 3052.41 -3.5614 2.47682 0
M  V30 31590 H 3053.08 -5.13301 2.03042 0
M  V30 31591 H 3055.56 -4.14391 0.376776 0
M  V30 31592 H 3054.43 -5.48874 0.0530979 0
M  V30 31593 H 3054.7 -4.26162 -1.17635 0
M  V30 31594 N 3053.75 -0.532597 -1.48328 0
M  V30 31595 C 3055 0.000545682 -2.021 0
M  V30 31596 C 3055.32 1.34519 -1.41172 0
M  V30 31597 O 3054.59 1.87178 -0.578038 0
M  V30 31598 H 3053.17 0.00318968 -0.746993 0
M  V30 31599 H 3055.84 -0.697023 -1.8201 0
M  V30 31600 H 3054.93 0.106936 -3.11917 0
M  V30 31601 N 3055.23 1.55307 -0.267853 0
M  V30 31602 C 3056.48 1.98612 0.351601 0
M  V30 31603 C 3056.79 1.1596 1.5752 0
M  V30 31604 O 3058 1.49375 2.26715 0
M  V30 31605 C 3056.46 3.53477 0.676924 0
M  V30 31606 C 3056.06 4.44896 -0.526463 0
M  V30 31607 C 3057.81 4.05388 1.2594 0
M  V30 31608 C 3055.72 5.91138 -0.17613 0
M  V30 31609 H 3054.65 0.741789 0.135147 0
M  V30 31610 H 3057.3 1.79703 -0.371365 0
M  V30 31611 H 3055.68 3.68159 1.45859 0
M  V30 31612 H 3056.85 4.4198 -1.30347 0
M  V30 31613 H 3055.17 4.0358 -1.02529 0
M  V30 31614 H 3057.76 5.12187 1.5352 0
M  V30 31615 H 3058.11 3.53986 2.19088 0
M  V30 31616 H 3058.64 3.94115 0.540184 0
M  V30 31617 H 3055.38 6.4662 -1.07529 0
M  V30 31618 H 3054.9 5.9714 0.564258 0
M  V30 31619 H 3056.58 6.46576 0.234251 0
M  V30 31620 N 3056.71 -0.00497598 1.57599 0
M  V30 31621 C 3057.64 -0.997013 2.11144 0
M  V30 31622 C 3058.62 -1.36168 1.01943 0
M  V30 31623 O 3059.81 -1.4463 1.29599 0
M  V30 31624 C 3056.94 -2.29045 2.61066 0
M  V30 31625 C 3055.89 -2.06754 3.74749 0
M  V30 31626 C 3055.22 -3.42068 4.10967 0
M  V30 31627 C 3056.52 -1.43415 5.02224 0
M  V30 31628 H 3058.21 -0.551199 2.94282 0
M  V30 31629 H 3055.76 -0.26369 1.41565 0
M  V30 31630 H 3057.71 -2.98796 2.97151 0
M  V30 31631 H 3056.43 -2.75731 1.75043 0
M  V30 31632 H 3055.09 -1.3943 3.3905 0
M  V30 31633 H 3054.74 -3.86447 3.21974 0
M  V30 31634 H 3054.44 -3.2797 4.87554 0
M  V30 31635 H 3055.96 -4.13142 4.49607 0
M  V30 31636 H 3057.38 -2.03116 5.36113 0
M  V30 31637 H 3055.78 -1.39821 5.83584 0
M  V30 31638 H 3056.85 -0.402765 4.83224 0
M  V30 31639 N 3058.19 -1.55135 -0.277654 0
M  V30 31640 C 3059.43 -1.75782 -1.01137 0
M  V30 31641 C 3059.77 -0.554752 -1.86108 0
M  V30 31642 O 3059.04 0.44778 -1.89275 0
M  V30 31643 C 3059.33 -3.0603 -1.89783 0
M  V30 31644 C 3059.18 -4.36682 -1.07836 0
M  V30 31645 C 3060.5 -3.32287 -2.88571 0
M  V30 31646 H 3057.62 -0.639546 -0.366265 0
M  V30 31647 H 3060.26 -1.87864 -0.284122 0
M  V30 31648 H 3058.41 -2.95861 -2.51791 0
M  V30 31649 H 3060.08 -4.58803 -0.479351 0
M  V30 31650 H 3058.32 -4.32118 -0.381688 0
M  V30 31651 H 3058.99 -5.24134 -1.7317 0
M  V30 31652 H 3061.47 -3.42219 -2.36696 0
M  V30 31653 H 3060.35 -4.24696 -3.47742 0
M  V30 31654 H 3060.61 -2.51702 -3.63453 0
M  V30 31655 N 3059.67 0.541953 -1.47989 0
M  V30 31656 C 3060.58 1.6748 -1.64279 0
M  V30 31657 C 3061.59 1.65878 -0.525416 0
M  V30 31658 O 3062.77 1.85048 -0.794945 0
M  V30 31659 C 3059.83 3.03966 -1.6675 0
M  V30 31660 C 3058.89 3.16517 -2.90027 0
M  V30 31661 C 3058.13 4.46493 -2.92369 0
M  V30 31662 O 3058.35 5.32875 -2.03472 0
M  V30 31663 O 3057.28 4.63157 -3.84408 0
M  V30 31664 H 3061.11 1.56675 -2.60166 0
M  V30 31665 H 3058.7 0.713697 -1.31251 0
M  V30 31666 H 3060.58 3.85161 -1.70965 0
M  V30 31667 H 3059.25 3.1512 -0.740332 0
M  V30 31668 H 3058.16 2.34662 -2.91349 0
M  V30 31669 H 3059.49 3.10274 -3.82088 0
M  V30 31670 N 3061.15 1.36376 0.789896 0
M  V30 31671 C 3062.37 1.33732 1.57871 0
M  V30 31672 C 3062.79 -0.0815212 1.88624 0
M  V30 31673 O 3062.15 -1.03828 1.50087 0
M  V30 31674 C 3062.2 2.1583 2.89999 0
M  V30 31675 O 3061.92 3.52184 2.60572 0
M  V30 31676 C 3063.42 2.20962 3.84305 0
M  V30 31677 H 3060.64 0.458756 0.489677 0
M  V30 31678 H 3063.18 1.79467 0.980404 0
M  V30 31679 H 3061.34 1.73652 3.463 0
M  V30 31680 H 3061.75 3.95017 3.45053 0
M  V30 31681 H 3063.23 2.82765 4.74076 0
M  V30 31682 H 3063.7 1.21294 4.22119 0
M  V30 31683 H 3064.31 2.63374 3.33937 0
M  V30 31684 N 3062.62 -1.014 1.20647 0
M  V30 31685 C 3063.56 -2.09661 0.900963 0
M  V30 31686 C 3064.53 -1.61925 -0.147982 0
M  V30 31687 O 3065.72 -1.88488 -0.0209904 0
M  V30 31688 C 3062.85 -3.36875 0.351156 0
M  V30 31689 C 3061.89 -4.03506 1.3815 0
M  V30 31690 S 3062.72 -4.47083 2.94749 0
M  V30 31691 C 3063.88 -5.77495 2.41351 0
M  V30 31692 H 3064.11 -2.35253 1.81778 0
M  V30 31693 H 3061.65 -1.14553 1.03523 0
M  V30 31694 H 3063.6 -4.1048 0.0404922 0
M  V30 31695 H 3062.27 -3.0935 -0.5442 0
M  V30 31696 H 3061.46 -4.95038 0.946227 0
M  V30 31697 H 3061.06 -3.36136 1.63977 0
M  V30 31698 H 3063.35 -6.52798 1.81275 0
M  V30 31699 H 3064.3 -6.25822 3.31289 0
M  V30 31700 H 3064.7 -5.33883 1.83384 0
M  V30 31701 N 3064.1 -1.01278 -1.2075 0
M  V30 31702 C 3065.33 -0.718803 -1.94546 0
M  V30 31703 C 3065.75 0.713532 -1.74041 0
M  V30 31704 O 3065.11 1.49046 -1.03223 0
M  V30 31705 C 3065.16 -1.05503 -3.44821 0
M  V30 31706 O 3064.26 -0.164589 -4.12071 0
M  V30 31707 H 3063.6 -0.267062 -0.607926 0
M  V30 31708 H 3066.13 -1.35512 -1.53289 0
M  V30 31709 H 3066.14 -1.00514 -3.95425 0
M  V30 31710 H 3064.82 -2.09864 -3.59068 0
M  V30 31711 H 3063.39 -0.27168 -3.71909 0
M  V30 31712 N 3065.58 1.36456 -0.788516 0
M  V30 31713 C 3066.81 2.03521 -0.372401 0
M  V30 31714 C 3067.22 1.59456 1.0109 0
M  V30 31715 O 3066.58 0.783564 1.64823 0
M  V30 31716 C 3066.63 3.58987 -0.425498 0
M  V30 31717 O 3066.35 4.01445 -1.75425 0
M  V30 31718 C 3067.85 4.433 0.000102246 0
M  V30 31719 H 3065.07 0.65318 -0.153611 0
M  V30 31720 H 3067.62 1.74451 -1.06711 0
M  V30 31721 H 3065.77 3.8677 0.220788 0
M  V30 31722 H 3066.19 4.96033 -1.70445 0
M  V30 31723 H 3067.66 5.5193 -0.0881889 0
M  V30 31724 H 3068.14 4.264 1.05262 0
M  V30 31725 H 3068.74 4.20777 -0.618637 0
M  V30 31726 N 3067.06 0.540456 1.48043 0
M  V30 31727 C 3068.01 -0.229821 2.31462 0
M  V30 31728 C 3069 -0.92547 1.41885 0
M  V30 31729 O 3070.21 -0.848662 1.58738 0
M  V30 31730 H 3066.58 -0.0929844 0.746229 0
M  V30 31731 H 3068.55 0.49317 2.94296 0
M  V30 31732 C 3067.3 -1.25723 3.24174 0
M  V30 31733 H 3066.62 -0.731357 3.93054 0
M  V30 31734 H 3068.06 -1.7674 3.85407 0
M  V30 31735 C 3066.52 -2.29636 2.46514 0
M  V30 31736 O 3067.05 -3.36264 2.19748 0
M  V30 31737 N 3065.26 -2.03123 2.07821 0
M  V30 31738 H 3064.81 -1.16426 2.29788 0
M  V30 31739 H 3064.76 -2.72869 1.56173 0
M  V30 31740 N 3068.54 -1.55163 0.276085 0
M  V30 31741 C 3069.81 -1.91626 -0.392259 0
M  V30 31742 C 3070.19 -1.20046 -1.73644 0
M  V30 31743 O 3069.54 -0.327646 -2.26139 0
M  V30 31744 C 3069.75 -3.44928 -0.53158 0
M  V30 31745 C 3071.1 -4.16724 -0.814027 0
M  V30 31746 O 3072.12 -3.50827 -0.616351 0
M  V30 31747 O 3070.98 -5.33339 -1.19215 0
M  V30 31748 H 3068.08 -0.798582 -0.214931 0
M  V30 31749 H 3070.62 -1.66611 0.322309 0
M  V30 31750 H 3069.39 -3.891 0.41435 0
M  V30 31751 H 3069.02 -3.759 -1.29558 0
M  V30 31752 N 3070.01 -0.00338196 -1.576 0
M  V30 31753 C 3071.24 0.69165 -1.94997 0
M  V30 31754 C 3071.66 1.6712 -0.878434 0
M  V30 31755 O 3071.01 1.81944 0.142311 0
M  V30 31756 C 3071.06 1.42057 -3.32419 0
M  V30 31757 O 3070.79 0.480303 -4.35459 0
M  V30 31758 C 3072.29 2.2098 -3.84295 0
M  V30 31759 H 3069.51 0.192423 -0.642818 0
M  V30 31760 H 3072.05 -0.0555066 -2.04425 0
M  V30 31761 H 3070.21 2.11933 -3.24289 0
M  V30 31762 H 3070.62 0.994964 -5.14976 0
M  V30 31763 H 3072.09 2.67474 -4.82868 0
M  V30 31764 H 3072.57 3.03799 -3.17179 0
M  V30 31765 H 3073.18 1.56114 -3.95612 0
M  V30 31766 N 3071.49 1.5528 0.269423 0
M  V30 31767 C 3072.74 1.75259 0.99835 0
M  V30 31768 C 3073.05 0.563067 1.8732 0
M  V30 31769 O 3074.26 0.645359 2.63718 0
M  V30 31770 C 3072.72 3.10197 1.82499 0
M  V30 31771 C 3072.32 4.36728 0.998633 0
M  V30 31772 C 3074.07 3.39524 2.54801 0
M  V30 31773 C 3071.97 5.62703 1.81987 0
M  V30 31774 H 3070.9 0.653285 0.376477 0
M  V30 31775 H 3073.56 1.81735 0.253877 0
M  V30 31776 H 3071.94 2.97768 2.61056 0
M  V30 31777 H 3073.11 4.60083 0.256983 0
M  V30 31778 H 3071.43 4.1457 0.390001 0
M  V30 31779 H 3074.02 4.30853 3.16654 0
M  V30 31780 H 3074.37 2.59819 3.25269 0
M  V30 31781 H 3074.9 3.53067 1.83271 0
M  V30 31782 H 3071.64 6.45166 1.15933 0
M  V30 31783 H 3071.16 5.43485 2.53739 0
M  V30 31784 H 3072.84 6.01134 2.39263 0
M  V30 31785 N 3072.97 -0.534097 1.48274 0
M  V30 31786 C 3074.22 -1.29206 1.56313 0
M  V30 31787 C 3074.55 -1.92779 0.234515 0
M  V30 31788 O 3073.82 -1.79075 -0.759111 0
M  V30 31789 C 3074.11 -2.38456 2.69835 0
M  V30 31790 C 3073.96 -1.796 4.12388 0
M  V30 31791 C 3075.28 -3.40249 2.79139 0
M  V30 31792 H 3072.4 -0.468412 0.568998 0
M  V30 31793 H 3075.04 -0.595406 1.8043 0
M  V30 31794 H 3073.19 -2.97877 2.49402 0
M  V30 31795 H 3074.86 -1.24262 4.44249 0
M  V30 31796 H 3073.1 -1.10155 4.19581 0
M  V30 31797 H 3073.78 -2.58685 4.87633 0
M  V30 31798 H 3076.25 -2.90777 2.97637 0
M  V30 31799 H 3075.13 -4.14091 3.60305 0
M  V30 31800 H 3075.39 -4.00544 1.87129 0
M  V30 31801 N 3074.45 -1.36793 -0.782652 0
M  V30 31802 C 3075.67 -1.34735 -1.57674 0
M  V30 31803 C 3076.1 0.0674923 -1.87979 0
M  V30 31804 O 3075.46 1.04141 -1.48406 0
M  V30 31805 C 3075.5 -2.18262 -2.87044 0
M  V30 31806 O 3074.61 -1.57976 -3.80943 0
M  V30 31807 H 3073.95 -0.460855 -0.478026 0
M  V30 31808 H 3076.48 -1.80169 -0.969547 0
M  V30 31809 H 3076.49 -2.31085 -3.3625 0
M  V30 31810 H 3075.16 -3.21109 -2.64314 0
M  V30 31811 H 3073.74 -1.54132 -3.39555 0
M  V30 31812 N 3075.93 1.00759 -1.21184 0
M  V30 31813 C 3077.17 1.74151 -1.02546 0
M  V30 31814 C 3077.5 1.89917 0.442339 0
M  V30 31815 O 3076.77 1.4482 1.31924 0
M  V30 31816 H 3075.35 0.645208 -0.376452 0
M  V30 31817 H 3078.01 1.21431 -1.52448 0
M  V30 31818 H 3077.1 2.74167 -1.49127 0
M  V30 31819 N 3077.4 1.01917 1.20211 0
M  V30 31820 C 3078.63 0.729289 1.93621 0
M  V30 31821 C 3079.05 -0.710413 1.74924 0
M  V30 31822 O 3078.4 -1.48212 1.06487 0
M  V30 31823 C 3078.46 1.05871 3.45649 0
M  V30 31824 O 3078.18 2.44187 3.63737 0
M  V30 31825 C 3079.68 0.790253 4.36199 0
M  V30 31826 H 3076.9 0.267605 0.615328 0
M  V30 31827 H 3079.44 1.36104 1.5263 0
M  V30 31828 H 3077.6 0.472317 3.8451 0
M  V30 31829 H 3078.01 2.56151 4.57697 0
M  V30 31830 H 3079.48 1.0708 5.41514 0
M  V30 31831 H 3079.96 -0.275532 4.38335 0
M  V30 31832 H 3080.57 1.35892 4.03005 0
M  V30 31833 N 3078.88 -1.36036 0.795742 0
M  V30 31834 C 3079.81 -2.32528 0.212843 0
M  V30 31835 C 3080.79 -1.56955 -0.655689 0
M  V30 31836 O 3081.98 -1.85078 -0.588205 0
M  V30 31837 C 3079.11 -3.41199 -0.648129 0
M  V30 31838 C 3078.06 -4.27829 0.121023 0
M  V30 31839 C 3077.39 -5.27723 -0.860951 0
M  V30 31840 C 3078.69 -5.05505 1.31384 0
M  V30 31841 H 3080.38 -2.81526 1.01898 0
M  V30 31842 H 3077.93 -1.35354 0.491446 0
M  V30 31843 H 3079.88 -4.07697 -1.0659 0
M  V30 31844 H 3078.61 -2.90783 -1.48704 0
M  V30 31845 H 3077.26 -3.62896 0.519841 0
M  V30 31846 H 3076.91 -4.73578 -1.69507 0
M  V30 31847 H 3076.61 -5.86552 -0.350705 0
M  V30 31848 H 3078.14 -5.97094 -1.27715 0
M  V30 31849 H 3079.55 -5.65009 0.971506 0
M  V30 31850 H 3077.95 -5.73778 1.75782 0
M  V30 31851 H 3079.02 -4.36779 2.106 0
M  V30 31852 N 3080.36 -0.5483 -1.47755 0
M  V30 31853 C 3081.77 -0.11258 -1.8636 0
M  V30 31854 C 3082.12 1.3152 -1.45591 0
M  V30 31855 O 3081.25 1.98797 -0.854909 0
M  V30 31856 C 3081.84 -0.197532 -3.38224 0
M  V30 31857 C 3080.4 0.183097 -3.75954 0
M  V30 31858 C 3079.55 -0.549107 -2.71809 0
M  V30 31859 H 3082.5 -0.758531 -1.39399 0
M  V30 31860 H 3082.52 0.586151 -3.75958 0
M  V30 31861 H 3082.03 -1.2368 -3.67865 0
M  V30 31862 H 3080.13 1.22381 -3.51928 0
M  V30 31863 H 3080.25 -0.169262 -4.78801 0
M  V30 31864 H 3078.61 0.00678385 -2.54699 0
M  V30 31865 H 3079.39 -1.58936 -3.04293 0
M  V30 31866 N 3081.84 1.55014 -0.28431 0
M  V30 31867 C 3082.77 2.20299 0.632542 0
M  V30 31868 C 3083.78 1.19052 1.11043 0
M  V30 31869 O 3084.97 1.45732 1.03076 0
M  V30 31870 C 3082.07 2.82244 1.87594 0
M  V30 31871 C 3081.25 4.09268 1.54333 0
M  V30 31872 C 3080.3 4.55173 2.64015 0
M  V30 31873 O 3079.33 5.20745 2.29812 0
M  V30 31874 N 3080.53 4.26085 3.94248 0
M  V30 31875 H 3083.3 2.99609 0.0737402 0
M  V30 31876 H 3080.86 1.61554 -0.105796 0
M  V30 31877 H 3082.85 3.09894 2.60284 0
M  V30 31878 H 3081.42 2.06872 2.34356 0
M  V30 31879 H 3080.64 3.88807 0.649843 0
M  V30 31880 H 3081.93 4.92011 1.29626 0
M  V30 31881 H 3081.33 3.73519 4.24853 0
M  V30 31882 H 3079.88 4.58485 4.63287 0
M  V30 31883 N 3083.32 0.0117398 1.57596 0
M  V30 31884 C 3084.73 -0.344479 1.55838 0
M  V30 31885 C 3084.93 -1.74034 1.0156 0
M  V30 31886 O 3083.99 -2.43867 0.654606 0
M  V30 31887 C 3085.3 -0.208971 2.99973 0
M  V30 31888 C 3086.85 -0.283037 3.11718 0
M  V30 31889 C 3087.32 -0.176519 4.5766 0
M  V30 31890 N 3088.82 -0.234052 4.62608 0
M  V30 31891 C 3089.55 -0.175151 5.73132 0
M  V30 31892 N 3089.05 -0.066167 6.92768 0
M  V30 31893 N 3090.84 -0.227874 5.61638 0
M  V30 31894 H 3082.99 0.924726 1.91213 0
M  V30 31895 H 3085.25 0.355546 0.878801 0
M  V30 31896 H 3084.96 0.751886 3.43569 0
M  V30 31897 H 3084.83 -0.986286 3.64077 0
M  V30 31898 H 3087.22 -1.23434 2.68045 0
M  V30 31899 H 3087.3 0.524354 2.50368 0
M  V30 31900 H 3086.95 0.771294 5.02009 0
M  V30 31901 H 3086.88 -1.00255 5.16969 0
M  V30 31902 H 3089.37 -0.319137 3.7655 0
M  V30 31903 H 3089.68 -0.0274407 7.72795 0
M  V30 31904 H 3088.02 -0.0316281 6.94993 0
M  V30 31905 H 3091.22 -0.311294 4.67064 0
M  V30 31906 H 3091.39 -0.178507 6.47754 0
M  V30 31907 N 3084.79 -1.55421 -0.261185 0
M  V30 31908 C 3085.73 -1.84056 -1.34902 0
M  V30 31909 C 3086.71 -0.694492 -1.47022 0
M  V30 31910 O 3087.89 -0.938748 -1.63462 0
M  V30 31911 C 3085.02 -2.01264 -2.72416 0
M  V30 31912 C 3084.06 -3.2386 -2.7752 0
M  V30 31913 S 3084.9 -4.80902 -2.3557 0
M  V30 31914 C 3086.05 -5.01098 -3.75036 0
M  V30 31915 H 3086.28 -2.76037 -1.10411 0
M  V30 31916 H 3083.82 -1.47344 -0.461435 0
M  V30 31917 H 3085.78 -2.11863 -3.51603 0
M  V30 31918 H 3084.44 -1.1015 -2.94153 0
M  V30 31919 H 3083.63 -3.32823 -3.78477 0
M  V30 31920 H 3083.23 -3.11913 -2.06365 0
M  V30 31921 H 3085.52 -4.87565 -4.70412 0
M  V30 31922 H 3086.47 -6.03119 -3.71017 0
M  V30 31923 H 3086.87 -4.29016 -3.66886 0
M  V30 31924 N 3086.27 0.526227 -1.48555 0
M  V30 31925 C 3087.24 1.61263 -1.62871 0
M  V30 31926 C 3088.24 1.5277 -0.501789 0
M  V30 31927 O 3089.43 1.56373 -0.767668 0
M  V30 31928 C 3086.56 3.0089 -1.60243 0
M  V30 31929 H 3087.75 1.49908 -2.59745 0
M  V30 31930 H 3085.3 0.748571 -1.37208 0
M  V30 31931 H 3086.04 3.17748 -0.648601 0
M  V30 31932 H 3085.82 3.08463 -2.42059 0
M  V30 31933 H 3087.31 3.79869 -1.73462 0
M  V30 31934 N 3087.75 1.37206 0.775387 0
M  V30 31935 C 3088.98 1.3557 1.56957 0
M  V30 31936 C 3089.4 -0.0575224 1.88012 0
M  V30 31937 O 3088.76 -1.03353 1.48956 0
M  V30 31938 C 3088.81 2.19781 2.85882 0
M  V30 31939 O 3087.91 1.59994 3.801 0
M  V30 31940 H 3087.25 0.463383 0.475575 0
M  V30 31941 H 3089.78 1.80681 0.959978 0
M  V30 31942 H 3089.79 2.32865 3.3502 0
M  V30 31943 H 3088.47 3.22506 2.62607 0
M  V30 31944 H 3087.04 1.5593 3.38733 0
M  V30 31945 N 3089.23 -1.00115 1.21716 0
M  V30 31946 C 3090.47 -1.75476 1.04821 0
M  V30 31947 C 3090.83 -1.87558 -0.41062 0
M  V30 31948 O 3092.03 -2.5952 -0.700196 0
M  V30 31949 C 3090.3 -3.12706 1.7306 0
M  V30 31950 S 3091.86 -4.0391 1.71471 0
M  V30 31951 H 3088.68 -0.603728 0.375545 0
M  V30 31952 H 3091.28 -1.1976 1.54524 0
M  V30 31953 H 3089.99 -3.01549 2.78382 0
M  V30 31954 H 3089.52 -3.73495 1.23553 0
M  V30 31955 H 3091.53 -4.90368 0.758536 0
M  V30 31956 N 3090.71 -1.02553 -1.19669 0
M  V30 31957 C 3091.64 -0.624004 -2.25008 0
M  V30 31958 C 3092.62 0.365351 -1.6613 0
M  V30 31959 O 3093.8 0.248809 -1.926 0
M  V30 31960 C 3090.93 0.0294259 -3.47288 0
M  V30 31961 C 3089.89 -0.881854 -4.18817 0
M  V30 31962 C 3089.21 -0.0937128 -5.34618 0
M  V30 31963 C 3090.51 -2.19405 -4.73982 0
M  V30 31964 H 3092.21 -1.50459 -2.58849 0
M  V30 31965 H 3089.75 -0.724893 -1.24424 0
M  V30 31966 H 3091.71 0.321943 -4.20168 0
M  V30 31967 H 3090.43 0.944783 -3.12636 0
M  V30 31968 H 3089.09 -1.15851 -3.47813 0
M  V30 31969 H 3088.74 0.823574 -4.96212 0
M  V30 31970 H 3088.44 -0.70067 -5.83408 0
M  V30 31971 H 3089.96 0.192142 -6.10298 0
M  V30 31972 H 3091.38 -1.96329 -5.38635 0
M  V30 31973 H 3089.77 -2.75263 -5.33245 0
M  V30 31974 H 3090.84 -2.85099 -3.92233 0
M  V30 31975 N 3092.19 1.35612 -0.802945 0
M  V30 31976 C 3093.1 2.33638 -0.212218 0
M  V30 31977 C 3094.11 1.6169 0.642842 0
M  V30 31978 O 3095.29 1.93589 0.555451 0
M  V30 31979 C 3092.35 3.40885 0.632346 0
M  V30 31980 C 3091.41 4.28613 -0.242783 0
M  V30 31981 C 3090.65 5.30737 0.561567 0
M  V30 31982 O 3090.87 5.41369 1.79654 0
M  V30 31983 O 3089.8 6.01883 -0.0456445 0
M  V30 31984 H 3093.63 2.8595 -1.02305 0
M  V30 31985 H 3091.21 1.38318 -0.564661 0
M  V30 31986 H 3093.1 4.06422 1.11351 0
M  V30 31987 H 3091.77 2.9085 1.42084 0
M  V30 31988 H 3090.68 3.66069 -0.771005 0
M  V30 31989 H 3092.01 4.82035 -0.99513 0
M  V30 31990 N 3093.66 0.556128 1.47462 0
M  V30 31991 C 3094.91 0.0317162 2.02775 0
M  V30 31992 C 3095.24 -1.31428 1.4297 0
M  V30 31993 O 3094.52 -1.85498 0.584879 0
M  V30 31994 C 3094.8 -0.0625109 3.60046 0
M  V30 31995 C 3094.65 1.3105 4.30286 0
M  V30 31996 C 3095.97 -0.776476 4.33196 0
M  V30 31997 H 3093.09 0.0129999 0.736885 0
M  V30 31998 H 3095.73 0.718208 1.75903 0
M  V30 31999 H 3093.88 -0.647163 3.83072 0
M  V30 32000 H 3095.56 1.93827 4.18603 0
M  V30 32001 H 3093.8 1.88547 3.90682 0
M  V30 32002 H 3094.47 1.1973 5.38859 0
M  V30 32003 H 3096.95 -0.280074 4.15156 0
M  V30 32004 H 3095.82 -0.811365 5.4287 0
M  V30 32005 H 3096.08 -1.83237 4.02339 0
M  V30 32006 N 3095.14 -1.54861 0.292527 0
M  V30 32007 C 3096.07 -2.26166 -0.580638 0
M  V30 32008 C 3097.05 -1.25808 -1.14483 0
M  V30 32009 O 3098.24 -1.54564 -1.17574 0
M  V30 32010 C 3095.37 -2.996 -1.75663 0
M  V30 32011 C 3094.32 -4.07033 -1.32318 0
M  V30 32012 C 3093.65 -4.68136 -2.58366 0
M  V30 32013 C 3094.95 -5.20265 -0.460612 0
M  V30 32014 H 3096.64 -2.99397 0.0140601 0
M  V30 32015 H 3094.19 -1.43998 0.00820238 0
M  V30 32016 H 3096.14 -3.482 -2.3735 0
M  V30 32017 H 3094.86 -2.23932 -2.37743 0
M  V30 32018 H 3093.52 -3.5927 -0.729414 0
M  V30 32019 H 3093.17 -3.89118 -3.18742 0
M  V30 32020 H 3092.87 -5.40687 -2.30069 0
M  V30 32021 H 3094.4 -5.19494 -3.20871 0
M  V30 32022 H 3095.81 -5.64811 -0.982938 0
M  V30 32023 H 3094.21 -5.99484 -0.271776 0
M  V30 32024 H 3095.28 -4.82143 0.516388 0
M  V30 32025 N 3096.62 -0.0200973 -1.57587 0
M  V30 32026 C 3097.9 0.698645 -1.82697 0
M  V30 32027 C 3098.28 1.90854 -0.902115 0
M  V30 32028 O 3097.62 2.28457 0.0444432 0
M  V30 32029 C 3097.83 1.0854 -3.31693 0
M  V30 32030 C 3099.18 1.48083 -3.9794 0
M  V30 32031 O 3100.21 1.17863 -3.36135 0
M  V30 32032 O 3099.07 2.04355 -5.06854 0
M  V30 32033 H 3096.16 0.341929 -0.753003 0
M  V30 32034 H 3098.71 -0.0470899 -1.69635 0
M  V30 32035 H 3097.48 0.223887 -3.90659 0
M  V30 32036 H 3097.1 1.88959 -3.49829 0
M  V30 32037 N 3098.1 1.55557 0.252939 0
M  V30 32038 C 3099.03 1.92822 1.31688 0
M  V30 32039 C 3100.01 0.792426 1.50515 0
M  V30 32040 O 3101.19 1.05222 1.63224 0
M  V30 32041 C 3098.32 2.21766 2.67277 0
M  V30 32042 C 3097.28 3.37541 2.63154 0
M  V30 32043 C 3096.6 3.52012 4.02482 0
M  V30 32044 C 3097.9 4.73396 2.20667 0
M  V30 32045 H 3099.6 2.81941 1.00746 0
M  V30 32046 H 3097.14 1.35651 0.483195 0
M  V30 32047 H 3099.1 2.46425 3.41837 0
M  V30 32048 H 3097.82 1.29468 2.99843 0
M  V30 32049 H 3096.48 3.12882 1.91052 0
M  V30 32050 H 3096.13 2.57144 4.32303 0
M  V30 32051 H 3095.83 4.29864 4.00613 0
M  V30 32052 H 3097.35 3.78985 4.78751 0
M  V30 32053 H 3098.77 4.97466 2.84957 0
M  V30 32054 H 3097.16 5.54307 2.29921 0
M  V30 32055 H 3098.23 4.70864 1.15823 0
M  V30 32056 N 3099.58 -0.518341 1.48832 0
M  V30 32057 C 3100.82 -1.27352 1.57441 0
M  V30 32058 C 3101.15 -1.92842 0.253414 0
M  V30 32059 O 3100.41 -1.80454 -0.757292 0
M  V30 32060 C 3100.7 -2.37575 2.67007 0
M  V30 32061 C 3100.37 -1.8966 4.09072 0
M  V30 32062 C 3099.03 -1.76311 4.47736 0
M  V30 32063 C 3101.38 -1.53594 4.98054 0
M  V30 32064 C 3098.71 -1.25248 5.73175 0
M  V30 32065 C 3101.06 -1.0399 6.23994 0
M  V30 32066 C 3099.73 -0.892668 6.61504 0
M  V30 32067 H 3099 -0.466013 0.576119 0
M  V30 32068 H 3101.65 -0.577134 1.82596 0
M  V30 32069 H 3099.95 -3.12931 2.35757 0
M  V30 32070 H 3101.65 -2.95676 2.70881 0
M  V30 32071 H 3098.24 -2.01005 3.78543 0
M  V30 32072 H 3102.42 -1.62763 4.68852 0
M  V30 32073 H 3097.68 -1.12546 6.00952 0
M  V30 32074 H 3101.85 -0.751585 6.92332 0
M  V30 32075 H 3099.48 -0.494805 7.58588 0
M  V30 32076 N 3101.05 -1.37615 -0.7681 0
M  V30 32077 C 3101.98 -1.36377 -1.89535 0
M  V30 32078 C 3102.96 -0.231833 -1.68513 0
M  V30 32079 O 3104.15 -0.432738 -1.89317 0
M  V30 32080 C 3101.28 -1.17363 -3.26869 0
M  V30 32081 C 3100.23 -2.27608 -3.62462 0
M  V30 32082 C 3099.56 -1.93714 -4.98377 0
M  V30 32083 C 3100.86 -3.69809 -3.68834 0
M  V30 32084 H 3102.55 -2.30705 -1.90828 0
M  V30 32085 H 3100.1 -1.11052 -0.916701 0
M  V30 32086 H 3102.05 -1.15126 -4.05369 0
M  V30 32087 H 3100.78 -0.194922 -3.26018 0
M  V30 32088 H 3099.44 -2.29007 -2.86272 0
M  V30 32089 H 3099.08 -0.943626 -4.9407 0
M  V30 32090 H 3098.78 -2.67539 -5.2316 0
M  V30 32091 H 3100.31 -1.9307 -5.79272 0
M  V30 32092 H 3101.72 -3.7052 -4.37479 0
M  V30 32093 H 3100.12 -4.42718 -4.05118 0
M  V30 32094 H 3101.19 -4.03172 -2.69408 0
M  V30 32095 N 3102.53 0.994677 -1.22245 0
M  V30 32096 C 3103.48 2.10567 -0.988155 0
M  V30 32097 C 3104.47 1.69263 0.0681243 0
M  V30 32098 O 3105.68 1.79803 -0.0841627 0
M  V30 32099 H 3102.05 0.688539 -0.302355 0
M  V30 32100 H 3104.03 2.27502 -1.93095 0
M  V30 32101 C 3102.77 3.42818 -0.580618 0
M  V30 32102 H 3102.1 3.75041 -1.38507 0
M  V30 32103 H 3103.54 4.2154 -0.456078 0
M  V30 32104 C 3102 3.29341 0.709634 0
M  V30 32105 O 3102.53 3.60968 1.76253 0
M  V30 32106 N 3100.73 2.8253 0.680106 0
M  V30 32107 H 3100.28 2.56991 -0.177022 0
M  V30 32108 H 3100.24 2.73894 1.54367 0
M  V30 32109 N 3104.01 1.03186 1.19123 0
M  V30 32110 C 3104.94 0.573333 2.21913 0
M  V30 32111 C 3105.95 -0.352369 1.58941 0
M  V30 32112 O 3107.14 -0.148287 1.77883 0
M  V30 32113 C 3104.24 -0.183491 3.38403 0
M  V30 32114 C 3103.42 0.747893 4.30959 0
M  V30 32115 C 3102.48 0.0359414 5.26188 0
M  V30 32116 O 3101.5 0.663487 5.6532 0
M  V30 32117 N 3102.7 -1.23377 5.67237 0
M  V30 32118 H 3105.47 1.45739 2.61878 0
M  V30 32119 H 3103.03 0.911255 1.3382 0
M  V30 32120 H 3105.02 -0.669398 3.99125 0
M  V30 32121 H 3103.59 -0.96899 2.97203 0
M  V30 32122 H 3102.81 1.41383 3.67973 0
M  V30 32123 H 3104.1 1.3808 4.89705 0
M  V30 32124 H 3103.5 -1.7643 5.37484 0
M  V30 32125 H 3102.05 -1.66412 6.30199 0
M  V30 32126 N 3105.49 -1.35184 0.810125 0
M  V30 32127 C 3106.9 -1.8113 0.452648 0
M  V30 32128 C 3107.25 -1.67254 -1.0257 0
M  V30 32129 O 3106.38 -1.20519 -1.79733 0
M  V30 32130 C 3106.97 -3.28855 0.814833 0
M  V30 32131 C 3105.53 -3.7293 0.509905 0
M  V30 32132 C 3104.68 -2.57117 1.03856 0
M  V30 32133 H 3107.63 -1.23112 1.00145 0
M  V30 32134 H 3107.65 -3.8033 0.113702 0
M  V30 32135 H 3107.16 -3.38923 1.89084 0
M  V30 32136 H 3105.26 -3.6841 -0.557224 0
M  V30 32137 H 3105.37 -4.67564 1.04501 0
M  V30 32138 H 3103.74 -2.50499 0.460715 0
M  V30 32139 H 3104.52 -2.69961 2.12076 0
M  V30 32140 N 3106.97 -0.56394 -1.47165 0
M  V30 32141 C 3107.92 0.20051 -2.27117 0
M  V30 32142 C 3108.9 0.879154 -1.34758 0
M  V30 32143 O 3110.09 0.776349 -1.59065 0
M  V30 32144 C 3107.22 1.22559 -3.20678 0
M  V30 32145 C 3106.31 0.550018 -4.20518 0
M  V30 32146 N 3106.7 -0.383751 -5.04342 0
M  V30 32147 C 3105 0.803109 -4.3871 0
M  V30 32148 C 3105.7 -0.776819 -5.7649 0
M  V30 32149 N 3104.67 -0.130142 -5.43444 0
M  V30 32150 H 3108.48 -0.517326 -2.89311 0
M  V30 32151 H 3105.99 -0.384362 -1.57786 0
M  V30 32152 H 3107.99 1.78726 -3.76646 0
M  V30 32153 H 3106.65 1.94445 -2.60041 0
M  V30 32154 H 3107.66 -0.758282 -5.12319 0
M  V30 32155 H 3104.33 1.50997 -3.89238 0
M  V30 32156 H 3105.72 -1.54449 -6.53908 0
M  V30 32157 N 3108.44 1.54704 -0.300735 0
M  V30 32158 C 3109.38 2.19687 0.617475 0
M  V30 32159 C 3110.36 1.16619 1.13308 0
M  V30 32160 O 3111.54 1.4526 1.20133 0
M  V30 32161 C 3108.67 2.8405 1.84481 0
M  V30 32162 C 3107.71 4.00642 1.46246 0
M  V30 32163 S 3108.55 5.32983 0.518624 0
M  V30 32164 C 3109.7 6.00828 1.75376 0
M  V30 32165 H 3109.93 2.97228 0.0654025 0
M  V30 32166 H 3107.47 1.54167 -0.0848763 0
M  V30 32167 H 3109.43 3.21759 2.54915 0
M  V30 32168 H 3108.09 2.06355 2.36805 0
M  V30 32169 H 3107.28 4.44458 2.3764 0
M  V30 32170 H 3106.88 3.64489 0.838065 0
M  V30 32171 H 3109.17 6.21619 2.69437 0
M  V30 32172 H 3110.12 6.94953 1.35817 0
M  V30 32173 H 3110.52 5.30469 1.93036 0
M  V30 32174 N 3109.92 0.0284543 1.57574 0
M  V30 32175 C 3111.17 -0.651294 1.92057 0
M  V30 32176 C 3111.5 -1.71817 0.905122 0
M  V30 32177 O 3110.78 -1.94366 -0.0722362 0
M  V30 32178 C 3111.06 -1.26835 3.37024 0
M  V30 32179 C 3110.91 -0.211078 4.49304 0
M  V30 32180 C 3112.23 -2.18656 3.81939 0
M  V30 32181 H 3109.35 -0.235292 0.698432 0
M  V30 32182 H 3111.99 0.0855769 1.89807 0
M  V30 32183 H 3110.14 -1.89638 3.39072 0
M  V30 32184 H 3111.81 0.41946 4.59389 0
M  V30 32185 H 3110.06 0.463521 4.31316 0
M  V30 32186 H 3110.73 -0.682422 5.47765 0
M  V30 32187 H 3113.2 -1.6584 3.81623 0
M  V30 32188 H 3112.08 -2.58784 4.84068 0
M  V30 32189 H 3112.34 -3.07744 3.17405 0
M  V30 32190 N 3111.4 -1.55689 -0.244686 0
M  V30 32191 C 3112.33 -1.93518 -1.30664 0
M  V30 32192 C 3113.31 -0.800397 -1.50092 0
M  V30 32193 O 3114.5 -1.06086 -1.62663 0
M  V30 32194 C 3111.63 -2.23181 -2.66097 0
M  V30 32195 C 3110.58 -3.38932 -2.61361 0
M  V30 32196 C 3109.91 -3.54141 -4.00609 0
M  V30 32197 C 3111.21 -4.74559 -2.18153 0
M  V30 32198 H 3112.9 -2.82471 -0.992497 0
M  V30 32199 H 3110.45 -1.35905 -0.475994 0
M  V30 32200 H 3112.4 -2.48234 -3.40526 0
M  V30 32201 H 3111.12 -1.31056 -2.99152 0
M  V30 32202 H 3109.78 -3.1389 -1.8939 0
M  V30 32203 H 3109.43 -2.59433 -4.30933 0
M  V30 32204 H 3109.13 -4.31982 -3.98328 0
M  V30 32205 H 3110.65 -3.81519 -4.76735 0
M  V30 32206 H 3112.07 -4.9897 -2.82314 0
M  V30 32207 H 3110.47 -5.55519 -2.26978 0
M  V30 32208 H 3111.54 -4.71472 -1.13324 0
M  V30 32209 N 3112.88 0.510441 -1.49105 0
M  V30 32210 C 3114.1 1.29414 -1.6207 0
M  V30 32211 C 3114.53 1.85875 -0.288465 0
M  V30 32212 O 3113.89 1.65392 0.742637 0
M  V30 32213 C 3113.93 2.40697 -2.6851 0
M  V30 32214 O 3113.04 3.44286 -2.27027 0
M  V30 32215 H 3112.38 0.382467 -0.542785 0
M  V30 32216 H 3114.91 0.612119 -1.95229 0
M  V30 32217 H 3114.92 2.86599 -2.90388 0
M  V30 32218 H 3113.59 1.98967 -3.65219 0
M  V30 32219 H 3112.17 3.04367 -2.15442 0
M  V30 32220 N 3114.36 1.38021 0.760791 0
M  V30 32221 C 3115.58 1.37227 1.55511 0
M  V30 32222 C 3116.01 -0.0375779 1.88062 0
M  V30 32223 O 3115.36 -1.01767 1.50044 0
M  V30 32224 C 3115.41 2.22801 2.83535 0
M  V30 32225 O 3114.52 1.64016 3.78381 0
M  V30 32226 H 3113.86 0.468401 0.470634 0
M  V30 32227 H 3116.39 1.81689 0.94076 0
M  V30 32228 H 3116.4 2.36405 3.32531 0
M  V30 32229 H 3115.07 3.25273 2.59172 0
M  V30 32230 H 3113.65 1.59514 3.3706 0
M  V30 32231 N 3115.83 -0.98818 1.22771 0
M  V30 32232 C 3117.08 -1.72839 1.05512 0
M  V30 32233 C 3117.41 -1.90149 -0.409111 0
M  V30 32234 O 3116.66 -1.44529 -1.31947 0
M  V30 32235 C 3116.96 -3.13463 1.71684 0
M  V30 32236 C 3116.63 -3.16055 3.2159 0
M  V30 32237 C 3115.29 -3.1647 3.62492 0
M  V30 32238 C 3117.64 -3.11976 4.17517 0
M  V30 32239 C 3114.97 -3.10512 4.97794 0
M  V30 32240 C 3117.32 -3.07561 5.52801 0
M  V30 32241 C 3115.99 -3.06293 5.93077 0
M  V30 32242 H 3115.26 -0.632464 0.386096 0
M  V30 32243 H 3117.9 -1.15698 1.52598 0
M  V30 32244 H 3116.21 -3.73943 1.16936 0
M  V30 32245 H 3117.91 -3.69489 1.55816 0
M  V30 32246 H 3114.5 -3.16485 2.89024 0
M  V30 32247 H 3118.68 -3.10802 3.86931 0
M  V30 32248 H 3113.94 -3.07879 5.28224 0
M  V30 32249 H 3118.11 -3.03361 6.26853 0
M  V30 32250 H 3115.74 -3.01432 6.97885 0
M  V30 32251 N 3117.31 -1.03816 -1.18575 0
M  V30 32252 C 3118.56 -0.741166 -1.88771 0
M  V30 32253 C 3118.89 0.729095 -1.79994 0
M  V30 32254 O 3118.17 1.53184 -1.19854 0
M  V30 32255 C 3118.45 -1.20473 -3.3935 0
M  V30 32256 C 3118.3 -2.73691 -3.5695 0
M  V30 32257 C 3119.62 -0.792817 -4.329 0
M  V30 32258 H 3116.74 -0.27072 -0.685478 0
M  V30 32259 H 3119.38 -1.28973 -1.39521 0
M  V30 32260 H 3117.53 -0.738041 -3.81425 0
M  V30 32261 H 3119.2 -3.28378 -3.23984 0
M  V30 32262 H 3117.45 -3.13637 -2.9969 0
M  V30 32263 H 3118.12 -3.01185 -4.62593 0
M  V30 32264 H 3120.59 -1.19437 -3.9859 0
M  V30 32265 H 3119.47 -1.14495 -5.36826 0
M  V30 32266 H 3119.73 0.304217 -4.41052 0
M  V30 32267 N 3118.79 1.34753 -0.817283 0
M  V30 32268 C 3119.72 2.3216 -0.24981 0
M  V30 32269 C 3120.7 1.57978 0.630636 0
M  V30 32270 O 3121.89 1.8599 0.558687 0
M  V30 32271 C 3119.02 3.42187 0.593765 0
M  V30 32272 C 3117.97 4.27582 -0.189072 0
M  V30 32273 C 3117.3 5.29026 0.776886 0
M  V30 32274 C 3118.6 5.03351 -1.39409 0
M  V30 32275 H 3120.29 2.7987 -1.06364 0
M  V30 32276 H 3117.84 1.34555 -0.512917 0
M  V30 32277 H 3119.79 4.09341 1.0009 0
M  V30 32278 H 3118.51 2.93112 1.44059 0
M  V30 32279 H 3117.17 3.62023 -0.577509 0
M  V30 32280 H 3116.82 4.76215 1.61951 0
M  V30 32281 H 3116.52 5.87036 0.257345 0
M  V30 32282 H 3118.04 5.9905 1.182 0
M  V30 32283 H 3119.46 5.63391 -1.06127 0
M  V30 32284 H 3117.86 5.70908 -1.84888 0
M  V30 32285 H 3118.93 4.33373 -2.17523 0
M  V30 32286 N 3120.27 0.571737 1.46864 0
M  V30 32287 C 3121.23 -0.157459 2.28658 0
M  V30 32288 C 3122.23 -0.829148 1.37774 0
M  V30 32289 O 3123.42 -0.682782 1.60261 0
M  V30 32290 C 3120.55 -1.23196 3.17861 0
M  V30 32291 H 3121.75 0.561222 2.94602 0
M  V30 32292 H 3119.3 0.329256 1.52793 0
M  V30 32293 H 3120.04 -1.98258 2.5664 0
M  V30 32294 H 3119.82 -0.754964 3.84763 0
M  V30 32295 H 3121.31 -1.74371 3.79453 0
M  V30 32296 N 3121.75 -1.54542 0.308935 0
M  V30 32297 C 3122.66 -2.27497 -0.572899 0
M  V30 32298 C 3123.67 -1.31307 -1.14169 0
M  V30 32299 O 3124.85 -1.64301 -1.16478 0
M  V30 32300 C 3121.91 -3.00753 -1.72478 0
M  V30 32301 C 3120.98 -4.12498 -1.18927 0
M  V30 32302 C 3120.21 -4.82251 -2.28626 0
M  V30 32303 O 3120.43 -4.51416 -3.48683 0
M  V30 32304 O 3119.37 -5.69482 -1.94869 0
M  V30 32305 H 3123.19 -3.03694 0.0191411 0
M  V30 32306 H 3120.78 -1.49211 0.0751205 0
M  V30 32307 H 3122.66 -3.46675 -2.39571 0
M  V30 32308 H 3121.33 -2.27444 -2.30328 0
M  V30 32309 H 3120.24 -3.70958 -0.483839 0
M  V30 32310 H 3121.57 -4.87808 -0.6561 0
M  V30 32311 N 3123.23 -0.0368104 -1.57557 0
M  V30 32312 C 3124.17 0.942462 -2.10681 0
M  V30 32313 C 3125.14 1.31811 -1.0107 0
M  V30 32314 O 3126.33 1.41008 -1.28535 0
M  V30 32315 C 3123.47 2.21696 -2.64471 0
M  V30 32316 C 3122.58 1.89708 -3.88117 0
M  V30 32317 C 3121.72 3.1151 -4.30273 0
M  V30 32318 C 3120.75 2.75377 -5.46657 0
M  V30 32319 N 3119.89 3.89828 -5.83934 0
M  V30 32320 H 3124.73 0.482536 -2.94067 0
M  V30 32321 H 3122.27 0.226571 -1.45345 0
M  V30 32322 H 3124.23 2.96254 -2.93751 0
M  V30 32323 H 3122.86 2.65291 -1.83903 0
M  V30 32324 H 3121.91 1.0536 -3.65518 0
M  V30 32325 H 3123.22 1.59102 -4.72745 0
M  V30 32326 H 3122.37 3.94381 -4.6103 0
M  V30 32327 H 3121.11 3.45284 -3.44427 0
M  V30 32328 H 3120.12 1.9092 -5.15587 0
M  V30 32329 H 3121.34 2.42811 -6.34208 0
M  V30 32330 H 3119.29 4.2343 -5.01042 0
M  V30 32331 H 3119.21 3.62871 -6.6322 0
M  V30 32332 H 3120.47 4.7338 -6.19299 0
M  V30 32333 N 3124.7 1.55817 0.236426 0
M  V30 32334 C 3125.67 1.90377 1.27629 0
M  V30 32335 C 3126.67 0.781073 1.40556 0
M  V30 32336 O 3127.86 1.04897 1.39076 0
M  V30 32337 C 3124.99 2.14147 2.65243 0
M  V30 32338 H 3126.18 2.83368 0.981969 0
M  V30 32339 H 3123.73 1.4887 0.476188 0
M  V30 32340 H 3124.47 1.23658 2.99798 0
M  V30 32341 H 3124.25 2.95922 2.57241 0
M  V30 32342 H 3125.74 2.42032 3.40309 0
M  V30 32343 N 3126.18 -0.502526 1.49373 0
M  V30 32344 C 3127.14 -1.58651 1.65416 0
M  V30 32345 C 3128.14 -1.51953 0.52603 0
M  V30 32346 O 3129.33 -1.55132 0.792448 0
M  V30 32347 C 3126.47 -2.98303 1.6501 0
M  V30 32348 H 3127.66 -1.45757 2.62097 0
M  V30 32349 H 3125.21 -0.726648 1.38382 0
M  V30 32350 H 3125.95 -3.16676 0.69907 0
M  V30 32351 H 3125.73 -3.04573 2.46936 0
M  V30 32352 H 3127.22 -3.77062 1.79483 0
M  V30 32353 N 3127.66 -1.38422 -0.75346 0
M  V30 32354 C 3128.62 -1.35462 -1.84886 0
M  V30 32355 C 3129.62 -0.255111 -1.58763 0
M  V30 32356 O 3130.81 -0.512007 -1.66506 0
M  V30 32357 C 3127.94 -1.10893 -3.22359 0
M  V30 32358 H 3129.14 -2.32916 -1.88918 0
M  V30 32359 H 3126.69 -1.23718 -0.955177 0
M  V30 32360 H 3127.43 -0.140457 -3.23996 0
M  V30 32361 H 3127.21 -1.90498 -3.42714 0
M  V30 32362 H 3128.7 -1.11518 -4.02435 0
M  V30 32363 N 3129.14 0.981655 -1.23294 0
M  V30 32364 C 3130.37 1.75548 -1.08933 0
M  V30 32365 C 3130.78 1.85701 0.362186 0
M  V30 32366 O 3130.12 1.33453 1.26238 0
M  V30 32367 C 3130.18 3.19967 -1.63895 0
M  V30 32368 C 3129.84 3.33327 -3.12638 0
M  V30 32369 C 3130.84 3.19751 -4.09946 0
M  V30 32370 C 3128.53 3.58016 -3.52321 0
M  V30 32371 C 3130.52 3.30666 -5.44921 0
M  V30 32372 C 3128.21 3.68571 -4.87441 0
M  V30 32373 C 3129.21 3.54906 -5.8355 0
M  V30 32374 O 3128.89 3.6509 -7.16216 0
M  V30 32375 H 3128.63 0.557782 -0.381911 0
M  V30 32376 H 3131.18 1.2421 -1.63588 0
M  V30 32377 H 3129.41 3.72547 -1.03659 0
M  V30 32378 H 3131.1 3.79106 -1.4503 0
M  V30 32379 H 3131.86 3.00576 -3.8063 0
M  V30 32380 H 3127.74 3.67724 -2.78029 0
M  V30 32381 H 3131.29 3.19917 -6.19918 0
M  V30 32382 H 3127.18 3.87256 -5.16433 0
M  V30 32383 H 3127.95 3.81893 -7.23948 0
M  V30 32384 N 3130.62 1.04444 1.18022 0
M  V30 32385 C 3132.03 0.764374 1.40105 0
M  V30 32386 C 3132.23 -0.644482 1.90915 0
M  V30 32387 O 3131.29 -1.40809 2.09593 0
M  V30 32388 C 3132.6 1.81365 2.39848 0
M  V30 32389 C 3134.15 1.835 2.53568 0
M  V30 32390 C 3134.62 2.8743 3.56578 0
M  V30 32391 N 3136.11 2.86345 3.64089 0
M  V30 32392 C 3136.85 3.63412 4.4353 0
M  V30 32393 N 3136.35 4.50242 5.26549 0
M  V30 32394 N 3138.14 3.51885 4.3833 0
M  V30 32395 H 3130.29 1.95354 0.833692 0
M  V30 32396 H 3132.55 0.845482 0.428795 0
M  V30 32397 H 3132.26 2.82441 2.09571 0
M  V30 32398 H 3132.13 1.64896 3.39248 0
M  V30 32399 H 3134.52 0.830933 2.8316 0
M  V30 32400 H 3134.6 2.04046 1.54268 0
M  V30 32401 H 3134.24 3.88018 3.27726 0
M  V30 32402 H 3134.17 2.64138 4.55564 0
M  V30 32403 H 3136.67 2.23381 3.0481 0
M  V30 32404 H 3136.98 5.05748 5.84327 0
M  V30 32405 H 3135.32 4.54308 5.25956 0
M  V30 32406 H 3138.51 2.83451 3.72523 0
M  V30 32407 H 3138.69 4.12195 5 0
M  V30 32408 N 3132.09 -1.34317 0.824418 0
M  V30 32409 C 3133.37 -1.92697 0.335726 0
M  V30 32410 C 3133.75 -1.75234 -1.17712 0
M  V30 32411 O 3133.1 -1.13198 -1.98491 0
M  V30 32412 C 3133.31 -3.40474 0.766706 0
M  V30 32413 C 3134.66 -4.17626 0.766397 0
M  V30 32414 O 3135.68 -3.49065 0.709382 0
M  V30 32415 O 3134.54 -5.39991 0.840951 0
M  V30 32416 H 3131.63 -0.821865 0.092014 0
M  V30 32417 H 3134.18 -1.43282 0.909308 0
M  V30 32418 H 3132.95 -3.46992 1.80865 0
M  V30 32419 H 3132.57 -3.97241 0.168902 0
M  V30 32420 N 3133.57 -0.579517 -1.46558 0
M  V30 32421 C 3134.99 -0.240948 -1.57771 0
M  V30 32422 C 3135.19 1.25673 -1.57507 0
M  V30 32423 O 3134.24 2.03827 -1.49034 0
M  V30 32424 C 3135.56 -0.887335 -2.8731 0
M  V30 32425 C 3137.1 -0.860629 -3.00935 0
M  V30 32426 C 3137.58 -1.4865 -4.33206 0
M  V30 32427 N 3139.07 -1.45069 -4.39897 0
M  V30 32428 C 3139.81 -1.90437 -5.40852 0
M  V30 32429 N 3139.3 -2.43764 -6.48499 0
M  V30 32430 N 3141.09 -1.81373 -5.32034 0
M  V30 32431 H 3133.25 -1.5523 -1.44974 0
M  V30 32432 H 3135.51 -0.648652 -0.691343 0
M  V30 32433 H 3135.21 -1.94076 -2.93304 0
M  V30 32434 H 3135.09 -0.393643 -3.7514 0
M  V30 32435 H 3137.48 0.184171 -2.94525 0
M  V30 32436 H 3137.56 -1.39231 -2.14589 0
M  V30 32437 H 3137.2 -2.53048 -4.40374 0
M  V30 32438 H 3137.13 -0.930072 -5.18322 0
M  V30 32439 H 3139.62 -1.06086 -3.62704 0
M  V30 32440 H 3139.93 -2.76247 -7.21739 0
M  V30 32441 H 3138.28 -2.47787 -6.49328 0
M  V30 32442 H 3141.47 -1.39473 -4.46839 0
M  V30 32443 H 3141.64 -2.17046 -6.10569 0
M  V30 32444 N 3135.05 1.54376 -0.317127 0
M  V30 32445 C 3136.33 1.92599 0.341315 0
M  V30 32446 C 3136.71 1.24608 1.704 0
M  V30 32447 O 3136.06 0.387488 2.25191 0
M  V30 32448 C 3136.27 3.46216 0.439942 0
M  V30 32449 C 3137.61 4.18736 0.703254 0
M  V30 32450 O 3138.64 3.52338 0.523119 0
M  V30 32451 O 3137.5 5.36312 1.05032 0
M  V30 32452 H 3134.59 0.804 0.193682 0
M  V30 32453 H 3137.14 1.65698 -0.36637 0
M  V30 32454 H 3135.91 3.87865 -0.517368 0
M  V30 32455 H 3135.53 3.79202 1.19546 0
M  V30 32456 N 3136.53 0.0451655 1.57535 0
M  V30 32457 C 3137.75 -0.643225 1.97173 0
M  V30 32458 C 3138.18 -1.63937 0.922295 0
M  V30 32459 O 3137.54 -1.80934 -0.115123 0
M  V30 32460 C 3137.58 -1.31184 3.35891 0
M  V30 32461 O 3136.69 -2.42743 3.33391 0
M  V30 32462 H 3136.03 -0.167708 0.642472 0
M  V30 32463 H 3138.56 0.111783 2.04294 0
M  V30 32464 H 3138.57 -1.66492 3.72484 0
M  V30 32465 H 3137.24 -0.581751 4.11811 0
M  V30 32466 H 3135.82 -2.09427 3.08537 0
M  V30 32467 N 3138.01 -1.5594 -0.228159 0
M  V30 32468 C 3138.94 -1.8835 -1.30602 0
M  V30 32469 C 3139.95 -0.771223 -1.43374 0
M  V30 32470 O 3141.14 -1.04948 -1.44389 0
M  V30 32471 C 3138.24 -2.07119 -2.68244 0
M  V30 32472 C 3137.41 -3.38099 -2.77503 0
M  V30 32473 C 3136.47 -3.4638 -3.96115 0
M  V30 32474 O 3135.5 -4.1946 -3.84763 0
M  V30 32475 N 3136.7 -2.7704 -5.10127 0
M  V30 32476 H 3139.47 -2.81398 -1.03127 0
M  V30 32477 H 3137.03 -1.56405 -0.418218 0
M  V30 32478 H 3139.02 -2.09982 -3.45962 0
M  V30 32479 H 3137.59 -1.20728 -2.88346 0
M  V30 32480 H 3136.81 -3.47391 -1.86314 0
M  V30 32481 H 3138.1 -4.24394 -2.80654 0
M  V30 32482 H 3137.49 -2.17433 -5.22245 0
M  V30 32483 H 3136.05 -2.85572 -5.85911 0
M  V30 32484 N 3139.48 0.494597 -1.49638 0
M  V30 32485 C 3140.9 0.826337 -1.36542 0
M  V30 32486 C 3141.1 1.9742 -0.403421 0
M  V30 32487 O 3140.16 2.51976 0.16257 0
M  V30 32488 C 3141.47 1.16052 -2.77403 0
M  V30 32489 C 3143.02 1.26835 -2.8615 0
M  V30 32490 C 3143.49 1.63579 -4.27792 0
M  V30 32491 N 3144.98 1.70616 -4.30633 0
M  V30 32492 C 3145.72 2.00504 -5.37202 0
M  V30 32493 N 3145.21 2.28573 -6.54008 0
M  V30 32494 N 3147.01 2.01809 -5.24623 0
M  V30 32495 H 3139.16 -0.262227 -2.10775 0
M  V30 32496 H 3141.42 -0.0547401 -0.946418 0
M  V30 32497 H 3141.13 0.390373 -3.49527 0
M  V30 32498 H 3141 2.10243 -3.13173 0
M  V30 32499 H 3143.39 2.02921 -2.1426 0
M  V30 32500 H 3143.47 0.306795 -2.53954 0
M  V30 32501 H 3143.11 0.880419 -5.00211 0
M  V30 32502 H 3143.04 2.60846 -4.57457 0
M  V30 32503 H 3145.53 1.51059 -3.46395 0
M  V30 32504 H 3145.85 2.50585 -7.31045 0
M  V30 32505 H 3144.19 2.26015 -6.57223 0
M  V30 32506 H 3147.38 1.79362 -4.32374 0
M  V30 32507 H 3147.56 2.24768 -6.07769 0
M  V30 32508 N 3140.96 1.3882 0.746109 0
M  V30 32509 C 3142.24 1.25953 1.4965 0
M  V30 32510 C 3142.62 -0.135796 2.10663 0
M  V30 32511 O 3141.97 -1.14601 1.97684 0
M  V30 32512 C 3142.18 2.37541 2.55686 0
M  V30 32513 C 3143.53 2.76326 3.2238 0
M  V30 32514 O 3144.55 2.36909 2.65994 0
M  V30 32515 O 3143.41 3.44327 4.24384 0
M  V30 32516 H 3140.5 0.49297 0.66401 0
M  V30 32517 H 3143.05 1.50666 0.780882 0
M  V30 32518 H 3141.82 3.30871 2.08903 0
M  V30 32519 H 3141.44 2.14433 3.3482 0
M  V30 32520 N 3142.44 -0.975103 1.23812 0
M  V30 32521 C 3143.37 -2.08636 1.04849 0
M  V30 32522 C 3144.35 -1.70061 -0.036256 0
M  V30 32523 O 3145.54 -1.93768 0.129404 0
M  V30 32524 C 3142.67 -3.41266 0.644594 0
M  V30 32525 C 3141.62 -3.93765 1.67728 0
M  V30 32526 C 3140.95 -5.22652 1.12867 0
M  V30 32527 C 3142.25 -4.22437 3.07155 0
M  V30 32528 H 3143.94 -2.24758 1.97799 0
M  V30 32529 H 3141.49 -1.08005 0.952416 0
M  V30 32530 H 3143.44 -4.18436 0.498961 0
M  V30 32531 H 3142.16 -3.25023 -0.320583 0
M  V30 32532 H 3140.82 -3.18745 1.811 0
M  V30 32533 H 3140.47 -5.02763 0.154316 0
M  V30 32534 H 3140.17 -5.58745 1.81872 0
M  V30 32535 H 3141.69 -6.02439 0.994997 0
M  V30 32536 H 3143.11 -4.90338 2.97054 0
M  V30 32537 H 3141.51 -4.69743 3.73445 0
M  V30 32538 H 3142.58 -3.29501 3.55749 0
M  V30 32539 N 3143.92 -1.05068 -1.17467 0
M  V30 32540 C 3145.16 -0.761146 -1.87975 0
M  V30 32541 C 3145.5 0.709963 -1.80757 0
M  V30 32542 O 3144.77 1.51904 -1.21472 0
M  V30 32543 C 3145.06 -1.24066 -3.38053 0
M  V30 32544 C 3144.91 -2.77461 -3.54027 0
M  V30 32545 C 3146.23 -0.838688 -4.32035 0
M  V30 32546 H 3143.35 -0.277975 -0.682568 0
M  V30 32547 H 3145.99 -1.30445 -1.38145 0
M  V30 32548 H 3144.14 -0.778455 -3.80621 0
M  V30 32549 H 3145.81 -3.31796 -3.20483 0
M  V30 32550 H 3144.05 -3.16798 -2.96347 0
M  V30 32551 H 3144.72 -3.06074 -4.59372 0
M  V30 32552 H 3147.2 -1.23658 -3.97301 0
M  V30 32553 H 3146.08 -1.20183 -5.35581 0
M  V30 32554 H 3146.34 0.257421 -4.4135 0
M  V30 32555 N 3145.4 1.33878 -0.831529 0
M  V30 32556 C 3146.31 2.33135 -0.261729 0
M  V30 32557 C 3147.32 1.63017 0.608401 0
M  V30 32558 O 3148.5 1.94724 0.514263 0
M  V30 32559 C 3145.56 3.42149 0.559897 0
M  V30 32560 C 3144.62 4.28002 -0.333644 0
M  V30 32561 C 3143.86 5.31809 0.448863 0
M  V30 32562 O 3144.08 5.45058 1.68131 0
M  V30 32563 O 3143.01 6.0165 -0.173302 0
M  V30 32564 H 3146.84 2.83715 -1.08348 0
M  V30 32565 H 3144.43 1.37089 -0.593873 0
M  V30 32566 H 3146.31 4.08693 1.02705 0
M  V30 32567 H 3144.98 2.93798 1.35883 0
M  V30 32568 H 3143.89 3.64351 -0.84848 0
M  V30 32569 H 3145.22 4.79816 -1.09715 0
M  V30 32570 N 3146.87 0.587281 1.46249 0
M  V30 32571 C 3147.84 -0.133198 2.28813 0
M  V30 32572 C 3148.84 -0.814489 1.38646 0
M  V30 32573 O 3150.03 -0.665746 1.60977 0
M  V30 32574 C 3147.16 -1.19818 3.1915 0
M  V30 32575 H 3148.35 0.592437 2.9399 0
M  V30 32576 H 3145.91 0.345443 1.52435 0
M  V30 32577 H 3146.64 -1.95525 2.58729 0
M  V30 32578 H 3146.43 -0.714112 3.85542 0
M  V30 32579 H 3147.92 -1.70337 3.81281 0
M  V30 32580 N 3148.35 -1.54206 0.325309 0
M  V30 32581 C 3149.6 -2.00897 -0.27715 0
M  V30 32582 C 3149.93 -1.2131 -1.51649 0
M  V30 32583 O 3149.21 -0.295859 -1.92237 0
M  V30 32584 C 3149.49 -3.54904 -0.609548 0
M  V30 32585 C 3149.34 -4.45215 0.64062 0
M  V30 32586 C 3150.66 -4.1634 -1.42649 0
M  V30 32587 H 3147.78 -0.730285 -0.0992594 0
M  V30 32588 H 3150.42 -1.84782 0.442234 0
M  V30 32589 H 3148.57 -3.68767 -1.22243 0
M  V30 32590 H 3150.24 -4.43219 1.27886 0
M  V30 32591 H 3148.49 -4.14819 1.26915 0
M  V30 32592 H 3149.16 -5.50801 0.363555 0
M  V30 32593 H 3151.63 -4.06063 -0.908422 0
M  V30 32594 H 3150.51 -5.24207 -1.62783 0
M  V30 32595 H 3150.77 -3.69778 -2.42315 0
M  V30 32596 N 3149.83 -0.0535194 -1.57509 0
M  V30 32597 C 3150.79 0.90527 -2.10565 0
M  V30 32598 C 3151.79 1.23836 -1.02574 0
M  V30 32599 O 3152.98 1.17465 -1.28637 0
M  V30 32600 C 3150.12 2.21442 -2.59183 0
M  V30 32601 H 3151.31 0.445302 -2.96576 0
M  V30 32602 H 3148.86 0.19492 -1.5508 0
M  V30 32603 H 3149.6 2.72016 -1.76573 0
M  V30 32604 H 3149.38 1.98569 -3.38101 0
M  V30 32605 H 3150.87 2.90116 -3.0037 0
M  V30 32606 N 3151.31 1.56059 0.219886 0
M  V30 32607 C 3152.26 1.88948 1.27603 0
M  V30 32608 C 3153.24 0.752716 1.42208 0
M  V30 32609 O 3154.44 1.01516 1.44995 0
M  V30 32610 C 3151.56 2.21112 2.62611 0
M  V30 32611 C 3150.65 3.41185 2.519 0
M  V30 32612 N 3151.04 4.59759 2.10843 0
M  V30 32613 C 3149.34 3.44832 2.82855 0
M  V30 32614 C 3150.04 5.41918 2.11424 0
M  V30 32615 N 3149.02 4.81673 2.51976 0
M  V30 32616 H 3152.82 2.78139 0.949521 0
M  V30 32617 H 3150.33 1.56647 0.42844 0
M  V30 32618 H 3152.33 2.4285 3.38865 0
M  V30 32619 H 3150.99 1.33235 2.96106 0
M  V30 32620 H 3152 4.84887 1.81947 0
M  V30 32621 H 3148.68 2.67303 3.20711 0
M  V30 32622 H 3150.07 6.4684 1.81792 0
M  V30 32623 N 3152.79 -0.486655 1.49898 0
M  V30 32624 C 3154.04 -1.23653 1.59351 0
M  V30 32625 C 3154.35 -1.93407 0.292058 0
M  V30 32626 O 3155.56 -2.70201 0.265305 0
M  V30 32627 C 3154.01 -2.24597 2.81219 0
M  V30 32628 C 3153.62 -1.60717 4.18179 0
M  V30 32629 C 3155.36 -3.00324 3.0001 0
M  V30 32630 C 3153.27 -2.59856 5.31252 0
M  V30 32631 H 3152.2 -0.465216 0.593372 0
M  V30 32632 H 3154.85 -0.508738 1.76307 0
M  V30 32633 H 3153.23 -3.00602 2.57788 0
M  V30 32634 H 3154.41 -0.906081 4.51804 0
M  V30 32635 H 3152.72 -0.973291 4.04865 0
M  V30 32636 H 3155.32 -3.7449 3.81656 0
M  V30 32637 H 3155.66 -3.58791 2.11126 0
M  V30 32638 H 3156.2 -2.31434 3.23548 0
M  V30 32639 H 3152.93 -2.0615 6.2224 0
M  V30 32640 H 3152.45 -3.28164 5.02064 0
M  V30 32641 H 3154.13 -3.21999 5.61182 0
M  V30 32642 N 3154.27 -1.39214 -0.738737 0
M  V30 32643 C 3155.2 -1.40367 -1.866 0
M  V30 32644 C 3156.18 -0.267525 -1.67983 0
M  V30 32645 O 3157.36 -0.472798 -1.88357 0
M  V30 32646 C 3154.49 -1.2427 -3.24306 0
M  V30 32647 C 3153.45 -2.35245 -3.57552 0
M  V30 32648 C 3152.77 -2.04241 -4.94155 0
M  V30 32649 C 3154.07 -3.77549 -3.60907 0
M  V30 32650 H 3155.77 -2.34701 -1.85892 0
M  V30 32651 H 3153.31 -1.12972 -0.892939 0
M  V30 32652 H 3155.26 -1.23699 -4.02836 0
M  V30 32653 H 3153.99 -0.264032 -3.25531 0
M  V30 32654 H 3152.65 -2.35027 -2.8135 0
M  V30 32655 H 3152.3 -1.04821 -4.91957 0
M  V30 32656 H 3152 -2.78576 -5.17368 0
M  V30 32657 H 3153.52 -2.05313 -5.75047 0
M  V30 32658 H 3154.93 -3.79717 -4.29521 0
M  V30 32659 H 3153.33 -4.51212 -3.95636 0
M  V30 32660 H 3154.4 -4.08795 -2.60796 0
M  V30 32661 N 3155.74 0.968523 -1.24328 0
M  V30 32662 C 3156.99 1.70801 -1.08035 0
M  V30 32663 C 3157.31 1.91228 0.381695 0
M  V30 32664 O 3156.58 1.48944 1.2725 0
M  V30 32665 H 3155.16 0.632905 -0.396788 0
M  V30 32666 H 3157.82 1.1652 -1.56234 0
M  V30 32667 H 3156.92 2.69284 -1.57773 0
M  V30 32668 N 3157.22 1.0569 1.16908 0
M  V30 32669 C 3158.47 0.765055 1.86627 0
M  V30 32670 C 3158.78 -0.710886 1.82224 0
M  V30 32671 O 3159.99 -1.11687 2.47464 0
M  V30 32672 C 3158.45 1.31836 3.34884 0
M  V30 32673 C 3158.05 2.82411 3.47776 0
M  V30 32674 C 3159.8 1.10379 4.09899 0
M  V30 32675 C 3157.7 3.31016 4.90084 0
M  V30 32676 H 3156.63 0.282503 0.699077 0
M  V30 32677 H 3159.29 1.27483 1.31986 0
M  V30 32678 H 3157.67 0.736381 3.89093 0
M  V30 32679 H 3158.84 3.46507 3.03759 0
M  V30 32680 H 3157.16 3.02466 2.86188 0
M  V30 32681 H 3159.75 1.44189 5.14892 0
M  V30 32682 H 3160.1 0.0418103 4.16279 0
M  V30 32683 H 3160.63 1.65123 3.6191 0
M  V30 32684 H 3157.37 4.36666 4.8888 0
M  V30 32685 H 3156.89 2.71664 5.34751 0
M  V30 32686 H 3158.57 3.25987 5.58875 0
M  V30 32687 N 3158.7 -1.33435 0.838617 0
M  V30 32688 C 3160.12 -1.5067 0.526373 0
M  V30 32689 C 3160.32 -1.77894 -0.946355 0
M  V30 32690 O 3159.37 -1.83906 -1.73017 0
M  V30 32691 C 3160.68 -2.66148 1.39949 0
M  V30 32692 C 3162.23 -2.80032 1.39824 0
M  V30 32693 C 3162.71 -3.98572 2.25621 0
M  V30 32694 N 3164.2 -4.05806 2.23329 0
M  V30 32695 C 3164.93 -4.96722 2.86452 0
M  V30 32696 N 3164.43 -5.92755 3.58627 0
M  V30 32697 N 3166.22 -4.89717 2.75924 0
M  V30 32698 H 3158.37 -1.14026 1.79197 0
M  V30 32699 H 3160.64 -0.560573 0.764501 0
M  V30 32700 H 3160.34 -2.52709 2.44603 0
M  V30 32701 H 3160.22 -3.61547 1.07536 0
M  V30 32702 H 3162.6 -2.92903 0.359422 0
M  V30 32703 H 3162.68 -1.85395 1.76245 0
M  V30 32704 H 3162.33 -3.8646 3.29562 0
M  V30 32705 H 3162.26 -4.92453 1.86542 0
M  V30 32706 H 3164.75 -3.37078 1.70842 0
M  V30 32707 H 3165.06 -6.58791 4.03998 0
M  V30 32708 H 3163.41 -5.92831 3.62734 0
M  V30 32709 H 3166.6 -4.13657 2.19101 0
M  V30 32710 H 3166.77 -5.60372 3.25403 0
M  V30 32711 N 3160.18 -0.595029 -1.45935 0
M  V30 32712 C 3161.45 -0.0179092 -1.95592 0
M  V30 32713 C 3161.83 1.4464 -1.53761 0
M  V30 32714 O 3161.18 2.14256 -0.794142 0
M  V30 32715 C 3161.39 -0.202851 -3.4841 0
M  V30 32716 C 3162.74 -0.0770867 -4.2453 0
M  V30 32717 O 3163.76 -0.13232 -3.55954 0
M  V30 32718 O 3162.62 0.0483311 -5.46479 0
M  V30 32719 H 3159.72 0.0428557 -0.825889 0
M  V30 32720 H 3162.26 -0.664212 -1.56161 0
M  V30 32721 H 3161.04 -1.22033 -3.71784 0
M  V30 32722 H 3160.66 0.479307 -3.947 0
M  V30 32723 N 3161.66 1.54031 -0.333483 0
M  V30 32724 C 3162.59 2.27625 0.52047 0
M  V30 32725 C 3163.57 1.28799 1.11107 0
M  V30 32726 O 3164.75 1.57627 1.13435 0
M  V30 32727 C 3161.88 3.04152 1.67658 0
M  V30 32728 C 3160.84 4.10398 1.2148 0
M  V30 32729 C 3160.16 4.74821 2.45863 0
M  V30 32730 C 3161.46 5.21303 0.322511 0
M  V30 32731 H 3163.16 2.99254 -0.0934349 0
M  V30 32732 H 3160.7 1.43925 -0.0463779 0
M  V30 32733 H 3162.65 3.5437 2.28035 0
M  V30 32734 H 3161.38 2.30157 2.31722 0
M  V30 32735 H 3160.04 3.61078 0.633903 0
M  V30 32736 H 3159.69 3.97432 3.08313 0
M  V30 32737 H 3159.39 5.46597 2.15652 0
M  V30 32738 H 3160.91 5.27819 3.06985 0
M  V30 32739 H 3162.32 5.67218 0.832842 0
M  V30 32740 H 3160.72 5.99994 0.112737 0
M  V30 32741 H 3161.79 4.80604 -0.644038 0
M  V30 32742 N 3163.13 0.0618717 1.57479 0
M  V30 32743 C 3164.1 -0.89409 2.11042 0
M  V30 32744 C 3165.1 -1.2329 1.03229 0
M  V30 32745 O 3166.29 -1.16782 1.29258 0
M  V30 32746 C 3163.42 -2.20065 2.60354 0
M  V30 32747 H 3164.61 -0.429567 2.96808 0
M  V30 32748 H 3162.16 -0.186693 1.55181 0
M  V30 32749 H 3162.9 -2.71075 1.78013 0
M  V30 32750 H 3162.68 -1.96774 3.3915 0
M  V30 32751 H 3164.17 -2.88519 3.01905 0
M  V30 32752 N 3164.61 -1.56173 -0.211607 0
M  V30 32753 C 3165.58 -1.92383 -1.24584 0
M  V30 32754 C 3166.58 -0.803335 -1.39295 0
M  V30 32755 O 3167.77 -1.07097 -1.3739 0
M  V30 32756 C 3164.9 -2.18339 -2.61803 0
M  V30 32757 H 3166.09 -2.84894 -0.936764 0
M  V30 32758 H 3163.64 -1.49608 -0.452444 0
M  V30 32759 H 3164.38 -1.28412 -2.97793 0
M  V30 32760 H 3164.16 -2.99977 -2.525 0
M  V30 32761 H 3165.65 -2.47415 -3.36415 0
M  V30 32762 N 3166.09 0.478699 -1.50154 0
M  V30 32763 C 3167.34 1.23315 -1.61001 0
M  V30 32764 C 3167.67 1.91776 -0.305902 0
M  V30 32765 O 3166.94 1.81769 0.692126 0
M  V30 32766 C 3167.23 2.28277 -2.78499 0
M  V30 32767 C 3167.08 1.64171 -4.1877 0
M  V30 32768 C 3168.4 3.29654 -2.91575 0
M  V30 32769 H 3165.52 0.446971 -0.585991 0
M  V30 32770 H 3168.16 0.528031 -1.82515 0
M  V30 32771 H 3166.31 2.88415 -2.60286 0
M  V30 32772 H 3167.98 1.07688 -4.48554 0
M  V30 32773 H 3166.23 0.945065 -4.2338 0
M  V30 32774 H 3166.9 2.40408 -4.96898 0
M  V30 32775 H 3169.37 2.79531 -3.08224 0
M  V30 32776 H 3168.25 4.00433 -3.75426 0
M  V30 32777 H 3168.51 3.93322 -2.01866 0
M  V30 32778 N 3167.57 1.39603 0.731343 0
M  V30 32779 C 3168.52 1.38765 1.86674 0
M  V30 32780 C 3169.51 0.270277 1.6723 0
M  V30 32781 O 3170.72 0.440502 1.74527 0
M  V30 32782 H 3167.09 0.433402 0.614546 0
M  V30 32783 H 3169.06 2.34528 1.84497 0
M  V30 32784 C 3167.81 1.25161 3.24392 0
M  V30 32785 H 3167.13 2.10412 3.39951 0
M  V30 32786 H 3168.57 1.28632 4.04017 0
M  V30 32787 C 3167.03 -0.0396384 3.36877 0
M  V30 32788 O 3167.56 -1.00847 3.88835 0
M  V30 32789 N 3165.77 -0.103914 2.90414 0
M  V30 32790 H 3165.32 0.685198 2.4832 0
M  V30 32791 H 3165.27 -0.967382 2.99147 0
M  V30 32792 N 3169.05 -0.961916 1.2484 0
M  V30 32793 C 3169.98 -2.07512 1.07056 0
M  V30 32794 C 3170.96 -1.7009 -0.0182166 0
M  V30 32795 O 3172.14 -1.9362 0.149949 0
M  V30 32796 C 3169.27 -3.40563 0.680753 0
M  V30 32797 C 3168.23 -3.91964 1.71895 0
M  V30 32798 C 3167.55 -5.21426 1.18404 0
M  V30 32799 C 3168.85 -4.19156 3.11618 0
M  V30 32800 H 3170.55 -2.22647 2.00171 0
M  V30 32801 H 3168.09 -1.06989 0.963818 0
M  V30 32802 H 3170.05 -4.17883 0.543313 0
M  V30 32803 H 3168.77 -3.25345 -0.286092 0
M  V30 32804 H 3167.43 -3.16806 1.84471 0
M  V30 32805 H 3167.08 -5.02571 0.207632 0
M  V30 32806 H 3166.78 -5.56785 1.87788 0
M  V30 32807 H 3168.3 -6.01349 1.05884 0
M  V30 32808 H 3169.71 -4.8716 3.02238 0
M  V30 32809 H 3168.11 -4.65756 3.78406 0
M  V30 32810 H 3169.18 -3.25709 3.59224 0
M  V30 32811 N 3170.52 -1.06308 -1.16346 0
M  V30 32812 C 3171.8 -0.693342 -1.82899 0
M  V30 32813 C 3172.18 0.825276 -1.943 0
M  V30 32814 O 3171.53 1.73562 -1.48622 0
M  V30 32815 C 3171.74 -1.39546 -3.19888 0
M  V30 32816 C 3173.09 -1.54075 -3.95659 0
M  V30 32817 O 3174.11 -1.35537 -3.29406 0
M  V30 32818 O 3172.97 -1.84488 -5.14418 0
M  V30 32819 H 3170.06 -0.245459 -0.789733 0
M  V30 32820 H 3172.61 -1.16336 -1.23547 0
M  V30 32821 H 3171.38 -2.43098 -3.06625 0
M  V30 32822 H 3171.01 -0.915521 -3.86916 0
M  V30 32823 N 3172 1.32989 -0.845682 0
M  V30 32824 C 3173.23 2.02292 -0.457471 0
M  V30 32825 C 3173.65 1.63181 0.935606 0
M  V30 32826 O 3173.01 0.827864 1.61295 0
M  V30 32827 C 3173.06 3.55679 -0.593728 0
M  V30 32828 O 3172.16 4.10671 0.377218 0
M  V30 32829 H 3171.5 0.637698 -0.185033 0
M  V30 32830 H 3174.03 1.69736 -1.1424 0
M  V30 32831 H 3174.04 4.05191 -0.477905 0
M  V30 32832 H 3172.72 3.83489 -1.60964 0
M  V30 32833 H 3171.3 3.7226 0.218383 0
M  V30 32834 N 3173.48 0.60276 1.45618 0
M  V30 32835 C 3174.71 0.100465 2.07157 0
M  V30 32836 C 3175.13 -1.2039 1.44526 0
M  V30 32837 O 3174.49 -1.73189 0.536221 0
M  V30 32838 C 3174.54 -0.030797 3.60587 0
M  V30 32839 O 3173.64 -1.08227 3.97946 0
M  V30 32840 H 3172.98 0.0718759 0.660098 0
M  V30 32841 H 3175.51 0.831399 1.86946 0
M  V30 32842 H 3175.52 -0.230563 4.07348 0
M  V30 32843 H 3174.2 0.921652 4.05559 0
M  V30 32844 H 3172.77 -0.85935 3.62863 0
M  V30 32845 N 3174.96 -1.53852 0.341647 0
M  V30 32846 C 3175.89 -2.27898 -0.508391 0
M  V30 32847 C 3176.87 -1.29386 -1.10423 0
M  V30 32848 O 3178.05 -1.58226 -1.12597 0
M  V30 32849 C 3175.18 -3.05036 -1.66042 0
M  V30 32850 C 3174.14 -4.11037 -1.19302 0
M  V30 32851 C 3173.46 -4.76119 -2.43342 0
M  V30 32852 C 3174.76 -5.21467 -0.29486 0
M  V30 32853 H 3176.46 -2.992 0.109304 0
M  V30 32854 H 3174 -1.43899 0.05401 0
M  V30 32855 H 3175.96 -3.55574 -2.26152 0
M  V30 32856 H 3174.68 -2.31383 -2.30499 0
M  V30 32857 H 3173.34 -3.61409 -0.614745 0
M  V30 32858 H 3172.99 -3.99061 -3.06201 0
M  V30 32859 H 3172.69 -5.47733 -2.12751 0
M  V30 32860 H 3174.21 -5.29439 -3.04181 0
M  V30 32861 H 3175.63 -5.67652 -0.80275 0
M  V30 32862 H 3174.02 -6.00045 -0.0809166 0
M  V30 32863 H 3175.09 -4.80256 0.669517 0
M  V30 32864 N 3176.44 -0.0702223 -1.57443 0
M  V30 32865 C 3177.4 0.882886 -2.11513 0
M  V30 32866 C 3178.4 1.22741 -1.03881 0
M  V30 32867 O 3179.59 1.16094 -1.29876 0
M  V30 32868 C 3176.72 2.18681 -2.61518 0
M  V30 32869 H 3177.91 0.413821 -2.97031 0
M  V30 32870 H 3175.47 0.178461 -1.55278 0
M  V30 32871 H 3176.2 2.70128 -1.79448 0
M  V30 32872 H 3175.99 1.94972 -3.40188 0
M  V30 32873 H 3177.48 2.86914 -3.0343 0
M  V30 32874 N 3177.91 1.56283 0.203321 0
M  V30 32875 C 3179.19 1.70959 0.950385 0
M  V30 32876 C 3179.57 0.622683 2.01707 0
M  V30 32877 O 3178.92 -0.367595 2.25524 0
M  V30 32878 C 3179.13 3.12974 1.54428 0
M  V30 32879 C 3180.48 3.72953 2.02957 0
M  V30 32880 O 3181.5 3.16051 1.64287 0
M  V30 32881 O 3180.36 4.72798 2.74089 0
M  V30 32882 H 3177.45 0.696978 0.445141 0
M  V30 32883 H 3180 1.68591 0.193666 0
M  V30 32884 H 3178.77 3.83549 0.774983 0
M  V30 32885 H 3178.4 3.19536 2.36606 0
M  V30 32886 N 3179.39 -0.470729 1.50406 0
M  V30 32887 C 3180.32 -1.57673 1.72225 0
M  V30 32888 C 3181.3 -1.60221 0.571238 0
M  V30 32889 O 3182.49 -1.76482 0.810412 0
M  V30 32890 C 3179.62 -2.95994 1.81672 0
M  V30 32891 C 3178.57 -3.08312 2.96863 0
M  V30 32892 C 3177.9 -4.48285 2.91453 0
M  V30 32893 C 3179.2 -2.85496 4.37366 0
M  V30 32894 H 3180.89 -1.39666 2.64828 0
M  V30 32895 H 3178.44 -0.670468 1.27439 0
M  V30 32896 H 3180.39 -3.73296 1.95521 0
M  V30 32897 H 3179.12 -3.15158 0.856912 0
M  V30 32898 H 3177.78 -2.33444 2.82665 0
M  V30 32899 H 3177.42 -4.64368 1.93318 0
M  V30 32900 H 3177.12 -4.57462 3.68784 0
M  V30 32901 H 3178.65 -5.27606 3.07351 0
M  V30 32902 H 3180.06 -3.52548 4.52088 0
M  V30 32903 H 3178.46 -3.06118 5.16151 0
M  V30 32904 H 3179.53 -1.81351 4.49711 0
M  V30 32905 N 3180.87 -1.39989 -0.72393 0
M  V30 32906 C 3182.12 -1.37543 -1.48076 0
M  V30 32907 C 3182.44 0.0243015 -1.94985 0
M  V30 32908 O 3181.71 0.977572 -1.69766 0
M  V30 32909 H 3180.29 -0.506191 -0.549345 0
M  V30 32910 H 3182.95 -1.74963 -0.858715 0
M  V30 32911 H 3182.05 -2.04509 -2.35759 0
M  V30 32912 N 3182.35 0.955282 -1.25348 0
M  V30 32913 C 3183.28 2.06941 -1.08155 0
M  V30 32914 C 3184.26 1.70098 0.00919608 0
M  V30 32915 O 3185.45 1.93538 -0.160215 0
M  V30 32916 C 3182.58 3.40197 -0.698805 0
M  V30 32917 C 3181.53 3.91047 -1.73972 0
M  V30 32918 C 3180.86 5.2079 -1.21167 0
M  V30 32919 C 3182.16 4.17497 -3.13836 0
M  V30 32920 H 3183.85 2.21583 -2.01349 0
M  V30 32921 H 3181.4 1.06476 -0.969478 0
M  V30 32922 H 3183.35 4.17589 -0.565467 0
M  V30 32923 H 3182.07 3.25492 0.268834 0
M  V30 32924 H 3180.73 3.15823 -1.86148 0
M  V30 32925 H 3180.38 5.02454 -0.234281 0
M  V30 32926 H 3180.08 5.55781 -1.90738 0
M  V30 32927 H 3181.6 6.00779 -1.09071 0
M  V30 32928 H 3183.02 4.8555 -3.04817 0
M  V30 32929 H 3181.41 4.63743 -3.80871 0
M  V30 32930 H 3182.48 3.23799 -3.60946 0
M  V30 32931 N 3183.83 1.06924 1.1578 0
M  V30 32932 C 3185.1 0.703032 1.82529 0
M  V30 32933 C 3185.48 -0.81496 1.94735 0
M  V30 32934 O 3184.83 -1.72771 1.4954 0
M  V30 32935 C 3185.04 1.4124 3.19143 0
M  V30 32936 C 3186.39 1.56171 3.94836 0
M  V30 32937 O 3187.41 1.37282 3.28682 0
M  V30 32938 O 3186.27 1.87214 5.13433 0
M  V30 32939 H 3183.37 0.249644 0.788421 0
M  V30 32940 H 3185.91 1.1699 1.22929 0
M  V30 32941 H 3184.69 2.44721 3.05332 0
M  V30 32942 H 3184.31 0.936027 3.86425 0
M  V30 32943 N 3185.31 -1.32538 0.852723 0
M  V30 32944 C 3186.53 -2.02046 0.468192 0
M  V30 32945 C 3186.96 -1.63675 -0.926939 0
M  V30 32946 O 3186.31 -0.836406 -1.60854 0
M  V30 32947 C 3186.36 -3.55359 0.612582 0
M  V30 32948 O 3185.47 -4.10865 -0.355434 0
M  V30 32949 H 3184.81 -0.636708 0.188412 0
M  V30 32950 H 3187.34 -1.69128 1.15138 0
M  V30 32951 H 3187.35 -4.04932 0.499386 0
M  V30 32952 H 3186.02 -3.8263 1.62995 0
M  V30 32953 H 3184.6 -3.72371 -0.198638 0
M  V30 32954 N 3186.78 -0.610474 -1.45296 0
M  V30 32955 C 3187.71 0.0939288 -2.33311 0
M  V30 32956 C 3188.69 0.855854 -1.47 0
M  V30 32957 O 3189.88 0.825834 -1.75766 0
M  V30 32958 C 3187.01 1.08998 -3.29753 0
M  V30 32959 C 3185.96 0.441071 -4.25721 0
M  V30 32960 C 3185.29 1.54557 -5.11875 0
M  V30 32961 C 3186.59 -0.63958 -5.18369 0
M  V30 32962 H 3188.28 -0.640993 -2.92458 0
M  V30 32963 H 3185.83 -0.3097 -1.4063 0
M  V30 32964 H 3187.78 1.59134 -3.90198 0
M  V30 32965 H 3186.51 1.85553 -2.68771 0
M  V30 32966 H 3185.17 -0.0394552 -3.66579 0
M  V30 32967 H 3184.81 2.30147 -4.4726 0
M  V30 32968 H 3184.51 1.11687 -5.76888 0
M  V30 32969 H 3186.04 2.04915 -5.75189 0
M  V30 32970 H 3187.45 -0.222171 -5.72869 0
M  V30 32971 H 3185.85 -0.990193 -5.91874 0
M  V30 32972 H 3186.92 -1.51503 -4.60624 0
M  V30 32973 N 3188.26 1.53669 -0.349801 0
M  V30 32974 C 3189.19 2.2154 0.54727 0
M  V30 32975 C 3190.17 1.20165 1.09541 0
M  V30 32976 O 3191.36 1.49008 1.15451 0
M  V30 32977 C 3188.48 2.89775 1.75351 0
M  V30 32978 C 3187.53 4.05092 1.33426 0
M  V30 32979 S 3188.36 5.34363 0.348797 0
M  V30 32980 C 3189.52 6.06103 1.56172 0
M  V30 32981 H 3189.75 2.97286 -0.0291914 0
M  V30 32982 H 3187.28 1.53818 -0.13388 0
M  V30 32983 H 3189.24 3.29706 2.44549 0
M  V30 32984 H 3187.9 2.13784 2.3012 0
M  V30 32985 H 3187.1 4.51794 2.2338 0
M  V30 32986 H 3186.7 3.66971 0.721682 0
M  V30 32987 H 3188.99 6.29876 2.49524 0
M  V30 32988 H 3189.93 6.98922 1.13639 0
M  V30 32989 H 3190.34 5.36342 1.76062 0
M  V30 32990 N 3189.74 0.0785709 1.57404 0
M  V30 32991 C 3190.96 -0.601257 1.98493 0
M  V30 32992 C 3191.39 -1.61944 0.956861 0
M  V30 32993 O 3190.75 -1.81138 -0.0767184 0
M  V30 32994 C 3190.8 -1.2403 3.38599 0
M  V30 32995 O 3189.9 -2.35616 3.38465 0
M  V30 32996 H 3189.24 -0.154042 0.645885 0
M  V30 32997 H 3191.77 0.155092 2.04011 0
M  V30 32998 H 3191.78 -1.58554 3.75932 0
M  V30 32999 H 3190.46 -0.494269 4.12953 0
M  V30 33000 H 3189.03 -2.02835 3.1291 0
M  V30 33001 N 3191.22 -1.56389 -0.19503 0
M  V30 33002 C 3192.46 -1.80896 -0.916768 0
M  V30 33003 C 3192.8 -0.652624 -1.82906 0
M  V30 33004 O 3192.07 0.346819 -1.91383 0
M  V30 33005 C 3192.35 -3.1566 -1.73294 0
M  V30 33006 C 3192.21 -4.41784 -0.845372 0
M  V30 33007 C 3193.53 -3.47117 -2.70551 0
M  V30 33008 H 3190.65 -0.658062 -0.331849 0
M  V30 33009 H 3193.29 -1.89106 -0.18414 0
M  V30 33010 H 3191.44 -3.08792 -2.35754 0
M  V30 33011 H 3193.11 -4.60699 -0.235476 0
M  V30 33012 H 3191.35 -4.33533 -0.152095 0
M  V30 33013 H 3192.02 -5.32576 -1.45143 0
M  V30 33014 H 3194.5 -3.54285 -2.18223 0
M  V30 33015 H 3193.38 -4.42532 -3.24741 0
M  V30 33016 H 3193.64 -2.70614 -3.496 0
M  V30 33017 N 3192.7 0.462746 -1.50653 0
M  V30 33018 C 3193.61 1.58536 -1.72926 0
M  V30 33019 C 3194.62 1.62859 -0.612606 0
M  V30 33020 O 3195.8 1.80574 -0.891917 0
M  V30 33021 C 3192.86 2.947 -1.82628 0
M  V30 33022 C 3191.92 3.00698 -3.06397 0
M  V30 33023 C 3191.16 4.30367 -3.15626 0
M  V30 33024 O 3191.38 5.2134 -2.31432 0
M  V30 33025 O 3190.31 4.42129 -4.08418 0
M  V30 33026 H 3194.14 1.42664 -2.68106 0
M  V30 33027 H 3191.72 0.64312 -1.34849 0
M  V30 33028 H 3193.61 3.75557 -1.91141 0
M  V30 33029 H 3192.28 3.10753 -0.90633 0
M  V30 33030 H 3191.19 2.18889 -3.03379 0
M  V30 33031 H 3192.52 2.89584 -3.97997 0
M  V30 33032 N 3194.17 1.40371 0.716495 0
M  V30 33033 C 3195.42 1.38805 1.47854 0
M  V30 33034 C 3195.75 -0.0100194 1.94197 0
M  V30 33035 O 3195.03 -0.978491 1.68095 0
M  V30 33036 C 3195.31 2.37672 2.70526 0
M  V30 33037 C 3195.16 3.865 2.30083 0
M  V30 33038 C 3196.48 2.34088 3.7268 0
M  V30 33039 H 3193.6 0.505509 0.536311 0
M  V30 33040 H 3196.24 1.715 0.817794 0
M  V30 33041 H 3194.39 2.09922 3.26902 0
M  V30 33042 H 3196.07 4.25073 1.79195 0
M  V30 33043 H 3194.31 4.02377 1.62095 0
M  V30 33044 H 3194.98 4.51191 3.1801 0
M  V30 33045 H 3197.46 2.58666 3.25931 0
M  V30 33046 H 3196.33 3.05314 4.56152 0
M  V30 33047 H 3196.59 1.3522 4.20913 0
M  V30 33048 N 3195.65 -0.948621 1.25853 0
M  V30 33049 C 3197.07 -1.22079 1.02805 0
M  V30 33050 C 3197.27 -1.99925 -0.251426 0
M  V30 33051 O 3196.32 -2.33434 -0.962551 0
M  V30 33052 C 3197.64 -1.98932 2.25492 0
M  V30 33053 C 3199.19 -2.11952 2.30316 0
M  V30 33054 C 3199.66 -2.92204 3.52676 0
M  V30 33055 N 3201.15 -2.99781 3.53109 0
M  V30 33056 C 3201.89 -3.62286 4.44451 0
M  V30 33057 N 3201.38 -4.26352 5.46073 0
M  V30 33058 N 3203.18 -3.59485 4.32119 0
M  V30 33059 H 3195.33 -0.428007 2.08043 0
M  V30 33060 H 3197.59 -0.251856 0.913933 0
M  V30 33061 H 3197.3 -1.49134 3.18515 0
M  V30 33062 H 3197.17 -2.9962 2.29145 0
M  V30 33063 H 3199.56 -2.60944 1.37812 0
M  V30 33064 H 3199.64 -1.10549 2.30678 0
M  V30 33065 H 3199.28 -2.43901 4.45505 0
M  V30 33066 H 3199.21 -3.93846 3.49561 0
M  V30 33067 H 3201.7 -2.54227 2.79602 0
M  V30 33068 H 3202.02 -4.71921 6.11972 0
M  V30 33069 H 3200.36 -4.24962 5.49939 0
M  V30 33070 H 3203.55 -3.08623 3.51951 0
M  V30 33071 H 3203.72 -4.07911 5.035 0
M  V30 33072 N 3197.13 -1.07536 -1.15212 0
M  V30 33073 C 3198.06 -0.6553 -2.19633 0
M  V30 33074 C 3199.08 0.293137 -1.60139 0
M  V30 33075 O 3200.26 0.0821643 -1.78311 0
M  V30 33076 C 3197.36 0.0577685 -3.38851 0
M  V30 33077 C 3196.54 -0.907325 -4.27886 0
M  V30 33078 C 3195.6 -0.231208 -5.25692 0
M  V30 33079 O 3194.62 -0.872845 -5.62468 0
M  V30 33080 N 3195.82 1.0224 -5.71426 0
M  V30 33081 H 3198.59 -1.55358 -2.56289 0
M  V30 33082 H 3196.15 -0.960294 -1.30346 0
M  V30 33083 H 3198.14 0.520804 -4.01335 0
M  V30 33084 H 3196.71 0.858018 -3.00594 0
M  V30 33085 H 3195.93 -1.54943 -3.62473 0
M  V30 33086 H 3197.22 -1.5616 -4.84243 0
M  V30 33087 H 3196.62 1.5636 -5.43662 0
M  V30 33088 H 3195.18 1.42908 -6.35941 0
M  V30 33089 N 3198.61 1.32084 -0.85974 0
M  V30 33090 C 3199.84 2.01261 -0.479759 0
M  V30 33091 C 3200.25 1.6459 0.924956 0
M  V30 33092 O 3199.61 0.869832 1.60437 0
M  V30 33093 C 3199.66 3.56227 -0.615191 0
M  V30 33094 O 3199.38 3.91581 -1.96458 0
M  V30 33095 C 3200.88 4.42677 -0.234882 0
M  V30 33096 H 3198.1 0.644119 -0.188019 0
M  V30 33097 H 3200.65 1.68549 -1.15808 0
M  V30 33098 H 3198.8 3.87397 0.0154587 0
M  V30 33099 H 3199.21 4.86301 -1.96499 0
M  V30 33100 H 3200.69 5.50686 -0.380631 0
M  V30 33101 H 3201.17 4.3138 0.825113 0
M  V30 33102 H 3201.77 4.16906 -0.840812 0
M  V30 33103 N 3200.09 0.618171 1.4497 0
M  V30 33104 C 3201.02 -0.0815544 2.33358 0
M  V30 33105 C 3202 -0.848047 1.47452 0
M  V30 33106 O 3203.18 -0.816501 1.76201 0
M  V30 33107 C 3200.31 -1.07247 3.30326 0
M  V30 33108 C 3199.27 -0.418488 4.25949 0
M  V30 33109 C 3198.59 -1.5184 5.12688 0
M  V30 33110 C 3199.89 0.667062 5.18023 0
M  V30 33111 H 3201.59 0.656494 2.92114 0
M  V30 33112 H 3199.13 0.317153 1.40464 0
M  V30 33113 H 3201.09 -1.57062 3.91036 0
M  V30 33114 H 3199.81 -1.84125 2.69751 0
M  V30 33115 H 3198.47 0.0588952 3.66553 0
M  V30 33116 H 3198.12 -2.27772 4.48474 0
M  V30 33117 H 3197.82 -1.08626 5.77472 0
M  V30 33118 H 3199.34 -2.01861 5.76268 0
M  V30 33119 H 3200.75 0.252548 5.72743 0
M  V30 33120 H 3199.15 1.02157 5.91341 0
M  V30 33121 H 3200.22 1.53944 4.59814 0
M  V30 33122 N 3201.56 -1.53481 0.357946 0
M  V30 33123 C 3202.47 -2.29205 -0.500233 0
M  V30 33124 C 3203.49 -1.34872 -1.09934 0
M  V30 33125 O 3204.67 -1.67923 -1.11192 0
M  V30 33126 C 3201.73 -3.06088 -1.62823 0
M  V30 33127 C 3200.79 -4.16073 -1.05744 0
M  V30 33128 C 3200.03 -4.8928 -2.13167 0
M  V30 33129 O 3200.25 -4.6228 -3.34145 0
M  V30 33130 O 3199.18 -5.75393 -1.76653 0
M  V30 33131 H 3203.01 -3.03479 0.115749 0
M  V30 33132 H 3200.59 -1.48897 0.122553 0
M  V30 33133 H 3202.48 -3.54121 -2.28421 0
M  V30 33134 H 3201.15 -2.34657 -2.22975 0
M  V30 33135 H 3200.06 -3.72309 -0.365576 0
M  V30 33136 H 3201.39 -4.89648 -0.500575 0
M  V30 33137 N 3203.04 -0.0869173 -1.5736 0
M  V30 33138 C 3204.46 0.269734 -1.57304 0
M  V30 33139 C 3204.66 1.6899 -1.09748 0
M  V30 33140 O 3203.71 2.40466 -0.770213 0
M  V30 33141 C 3205.03 0.0656118 -3.00628 0
M  V30 33142 C 3206.58 0.13399 -3.12713 0
M  V30 33143 C 3207.05 -0.0420374 -4.57981 0
M  V30 33144 N 3208.54 0.0130687 -4.63198 0
M  V30 33145 C 3209.28 -0.0984972 -5.73315 0
M  V30 33146 N 3208.77 -0.264437 -6.92295 0
M  V30 33147 N 3210.57 -0.0403505 -5.62086 0
M  V30 33148 H 3202.72 -1.0149 -1.86584 0
M  V30 33149 H 3204.98 -0.39707 -0.860837 0
M  V30 33150 H 3204.69 -0.914951 -3.3959 0
M  V30 33151 H 3204.56 0.811457 -3.68368 0
M  V30 33152 H 3206.95 1.10505 -2.73629 0
M  V30 33153 H 3207.03 -0.64321 -2.47581 0
M  V30 33154 H 3206.67 -1.00993 -4.97758 0
M  V30 33155 H 3206.6 0.754755 -5.21163 0
M  V30 33156 H 3209.09 0.139117 -3.77644 0
M  V30 33157 H 3209.41 -0.341301 -7.72046 0
M  V30 33158 H 3207.75 -0.299998 -6.94352 0
M  V30 33159 H 3210.94 0.0880978 -4.68017 0
M  V30 33160 H 3211.11 -0.130748 -6.47868 0
M  V30 33161 N 3204.52 1.5649 0.186734 0
M  V30 33162 C 3205.43 1.98421 1.25165 0
M  V30 33163 C 3206.45 0.89315 1.49328 0
M  V30 33164 O 3207.62 1.19957 1.61779 0
M  V30 33165 C 3204.69 2.32243 2.57418 0
M  V30 33166 C 3203.75 3.55099 2.41254 0
M  V30 33167 C 3202.98 3.87299 3.67199 0
M  V30 33168 O 3203.2 3.20673 4.71726 0
M  V30 33169 O 3202.14 4.80701 3.62229 0
M  V30 33170 H 3205.96 2.89245 0.925784 0
M  V30 33171 H 3203.55 1.44155 0.392395 0
M  V30 33172 H 3205.43 2.55036 3.35462 0
M  V30 33173 H 3204.11 1.44585 2.89615 0
M  V30 33174 H 3203.01 3.37543 1.61293 0
M  V30 33175 H 3204.35 4.4325 2.13986 0
M  V30 33176 N 3206 -0.45475 1.50897 0
M  V30 33177 C 3206.93 -1.55837 1.73888 0
M  V30 33178 C 3207.91 -1.59606 0.5882 0
M  V30 33179 O 3209.09 -1.75613 0.829085 0
M  V30 33180 C 3206.22 -2.94051 1.84801 0
M  V30 33181 C 3205.18 -3.05146 3.00116 0
M  V30 33182 C 3204.5 -4.45169 2.96191 0
M  V30 33183 C 3205.8 -2.80842 4.4037 0
M  V30 33184 H 3207.5 -1.3685 2.66294 0
M  V30 33185 H 3205.04 -0.656913 1.28143 0
M  V30 33186 H 3207 -3.71201 1.99469 0
M  V30 33187 H 3205.72 -3.14231 0.89029 0
M  V30 33188 H 3204.38 -2.30432 2.85125 0
M  V30 33189 H 3204.03 -4.62291 1.98232 0
M  V30 33190 H 3203.73 -4.53525 3.73616 0
M  V30 33191 H 3205.25 -5.24316 3.12929 0
M  V30 33192 H 3206.67 -3.47733 4.55801 0
M  V30 33193 H 3205.06 -3.00627 5.19368 0
M  V30 33194 H 3206.13 -1.76571 4.51609 0
M  V30 33195 N 3207.48 -1.40749 -0.709041 0
M  V30 33196 C 3208.42 -1.41717 -1.84443 0
M  V30 33197 C 3209.42 -0.296847 -1.66779 0
M  V30 33198 O 3210.62 -0.468212 -1.73804 0
M  V30 33199 H 3207 -0.443124 -0.607573 0
M  V30 33200 H 3208.97 -2.37434 -1.80743 0
M  V30 33201 C 3207.72 -1.30306 -3.22359 0
M  V30 33202 H 3207.04 -2.15793 -3.36561 0
M  V30 33203 H 3208.48 -1.35043 -4.0192 0
M  V30 33204 C 3206.94 -0.0139608 -3.36897 0
M  V30 33205 O 3207.47 0.946484 -3.9039 0
M  V30 33206 N 3205.68 0.057698 -2.90543 0
M  V30 33207 H 3205.22 -0.724617 -2.47198 0
M  V30 33208 H 3205.18 0.919668 -3.00648 0
M  V30 33209 N 3208.96 0.941933 -1.26354 0
M  V30 33210 C 3209.89 2.05782 -1.10344 0
M  V30 33211 C 3210.87 1.70098 -0.00884555 0
M  V30 33212 O 3212.05 1.93357 -0.180733 0
M  V30 33213 C 3209.18 3.39437 -0.734848 0
M  V30 33214 C 3208.14 3.8918 -1.7811 0
M  V30 33215 C 3207.46 5.19476 -1.26684 0
M  V30 33216 C 3208.76 4.14145 -3.18247 0
M  V30 33217 H 3210.46 2.19435 -2.03688 0
M  V30 33218 H 3208 1.05442 -0.980717 0
M  V30 33219 H 3209.95 4.16966 -0.609726 0
M  V30 33220 H 3208.68 3.25759 0.234297 0
M  V30 33221 H 3207.34 3.13831 -1.89488 0
M  V30 33222 H 3206.99 5.02177 -0.28756 0
M  V30 33223 H 3206.69 5.53727 -1.96622 0
M  V30 33224 H 3208.21 5.99589 -1.15437 0
M  V30 33225 H 3209.62 4.8229 -3.0995 0
M  V30 33226 H 3208.02 4.59677 -3.85768 0
M  V30 33227 H 3209.09 3.19953 -3.6436 0
M  V30 33228 N 3210.43 1.08146 1.1464 0
M  V30 33229 C 3211.68 0.810716 1.8589 0
M  V30 33230 C 3212.01 -0.661789 1.82576 0
M  V30 33231 O 3211.29 -1.4863 1.25457 0
M  V30 33232 C 3211.57 1.32985 3.34644 0
M  V30 33233 C 3211.42 2.8675 3.46546 0
M  V30 33234 C 3212.74 0.952939 4.29659 0
M  V30 33235 H 3209.86 0.295975 0.674958 0
M  V30 33236 H 3212.5 1.34062 1.34638 0
M  V30 33237 H 3210.65 0.879096 3.78423 0
M  V30 33238 H 3212.33 3.40176 3.11573 0
M  V30 33239 H 3210.57 3.24544 2.87843 0
M  V30 33240 H 3211.24 3.18146 4.51096 0
M  V30 33241 H 3213.72 1.34148 3.93883 0
M  V30 33242 H 3212.59 1.3434 5.32207 0
M  V30 33243 H 3212.85 -0.140314 4.41877 0
M  V30 33244 N 3211.91 -1.31626 0.866732 0
M  V30 33245 C 3212.84 -2.31073 0.335802 0
M  V30 33246 C 3213.82 -1.6021 -0.571569 0
M  V30 33247 O 3215.01 -1.87936 -0.489273 0
M  V30 33248 C 3212.14 -3.44155 -0.466355 0
M  V30 33249 C 3211.09 -4.26586 0.347636 0
M  V30 33250 C 3210.42 -5.31545 -0.580007 0
M  V30 33251 C 3211.72 -4.9783 1.57995 0
M  V30 33252 H 3213.41 -2.75729 1.16678 0
M  V30 33253 H 3210.96 -1.32559 0.562503 0
M  V30 33254 H 3212.91 -4.12774 -0.848287 0
M  V30 33255 H 3211.63 -2.98257 -1.33081 0
M  V30 33256 H 3210.29 -3.5963 0.711473 0
M  V30 33257 H 3209.94 -4.81898 -1.44165 0
M  V30 33258 H 3209.64 -5.87587 -0.0392932 0
M  V30 33259 H 3211.17 -6.03024 -0.958852 0
M  V30 33260 H 3212.58 -5.59064 1.26964 0
M  V30 33261 H 3210.98 -5.63653 2.05949 0
M  V30 33262 H 3212.05 -4.25001 2.33457 0
M  V30 33263 N 3213.39 -0.62585 -1.4464 0
M  V30 33264 C 3214.61 -0.13341 -2.0697 0
M  V30 33265 C 3215.04 1.18076 -1.46423 0
M  V30 33266 O 3214.4 1.72314 -0.563706 0
M  V30 33267 C 3214.45 -0.0265731 -3.6059 0
M  V30 33268 O 3213.55 1.01882 -3.99617 0
M  V30 33269 H 3212.89 -0.0823684 -0.658871 0
M  V30 33270 H 3215.42 -0.861035 -1.856 0
M  V30 33271 H 3215.43 0.165728 -4.07663 0
M  V30 33272 H 3214.11 -0.986057 -4.04042 0
M  V30 33273 H 3212.68 0.801513 -3.64184 0
M  V30 33274 N 3214.87 1.53289 -0.36608 0
M  V30 33275 C 3216.11 2.01561 0.223788 0
M  V30 33276 C 3216.45 1.25288 1.48379 0
M  V30 33277 O 3215.72 0.346723 1.91385 0
M  V30 33278 C 3216 3.56395 0.515237 0
M  V30 33279 C 3215.86 4.4336 -0.758435 0
M  V30 33280 C 3217.18 4.19976 1.3156 0
M  V30 33281 H 3214.3 0.73266 0.0798623 0
M  V30 33282 H 3216.94 1.83544 -0.49107 0
M  V30 33283 H 3215.09 3.71878 1.12422 0
M  V30 33284 H 3216.76 4.39672 -1.39592 0
M  V30 33285 H 3215 4.11308 -1.37869 0
M  V30 33286 H 3215.67 5.49644 -0.509463 0
M  V30 33287 H 3218.15 4.08328 0.800442 0
M  V30 33288 H 3217.03 5.28339 1.48827 0
M  V30 33289 H 3217.29 3.76073 2.32426 0
M  V30 33290 N 3216.35 0.0952613 1.57312 0
M  V30 33291 C 3217.76 -0.261388 1.57445 0
M  V30 33292 C 3217.96 -1.68406 1.10642 0
M  V30 33293 O 3217.02 -2.40054 0.782954 0
M  V30 33294 C 3218.33 -0.0496678 3.00659 0
M  V30 33295 C 3219.88 -0.117404 3.1278 0
M  V30 33296 C 3220.35 0.0663246 4.57952 0
M  V30 33297 N 3221.84 0.011496 4.63199 0
M  V30 33298 C 3222.58 0.1289 5.73255 0
M  V30 33299 N 3222.08 0.301147 6.92145 0
M  V30 33300 N 3223.87 0.0701587 5.62056 0
M  V30 33301 H 3216.02 1.02478 1.86043 0
M  V30 33302 H 3218.28 0.40163 0.858719 0
M  V30 33303 H 3217.99 0.932948 3.391 0
M  V30 33304 H 3217.86 -0.79191 3.68793 0
M  V30 33305 H 3220.25 -1.09052 2.74211 0
M  V30 33306 H 3220.33 0.656331 2.47237 0
M  V30 33307 H 3219.97 1.03631 4.97215 0
M  V30 33308 H 3219.9 -0.727106 5.21556 0
M  V30 33309 H 3222.4 -0.119087 3.77712 0
M  V30 33310 H 3222.71 0.38224 7.71854 0
M  V30 33311 H 3221.05 0.336817 6.94183 0
M  V30 33312 H 3224.24 -0.0632765 4.68057 0
M  V30 33313 H 3224.42 0.165105 6.4779 0
M  V30 33314 N 3217.82 -1.56587 -0.178432 0
M  V30 33315 C 3218.73 -1.99082 -1.24111 0
M  V30 33316 C 3219.75 -0.901057 -1.48852 0
M  V30 33317 O 3220.93 -1.20813 -1.6114 0
M  V30 33318 C 3217.99 -2.33605 -2.56183 0
M  V30 33319 C 3217.05 -3.56373 -2.39367 0
M  V30 33320 C 3216.28 -3.89241 -3.6514 0
M  V30 33321 O 3216.51 -3.2317 -4.70018 0
M  V30 33322 O 3215.44 -4.82615 -3.59675 0
M  V30 33323 H 3219.27 -2.89732 -0.910431 0
M  V30 33324 H 3216.85 -1.44361 -0.384745 0
M  V30 33325 H 3218.73 -2.56811 -3.34105 0
M  V30 33326 H 3217.41 -1.46118 -2.88844 0
M  V30 33327 H 3216.32 -3.38394 -1.595 0
M  V30 33328 H 3217.65 -4.44379 -2.11632 0
M  V30 33329 N 3219.3 0.446741 -1.51136 0
M  V30 33330 C 3220.55 1.19872 -1.6358 0
M  V30 33331 C 3220.88 1.91084 -0.346511 0
M  V30 33332 O 3220.16 1.83196 0.653414 0
M  V30 33333 C 3220.44 2.22318 -2.83279 0
M  V30 33334 C 3220.29 1.55251 -4.22158 0
M  V30 33335 C 3221.61 3.23396 -2.98502 0
M  V30 33336 H 3218.73 0.434441 -0.59534 0
M  V30 33337 H 3221.37 0.489198 -1.83594 0
M  V30 33338 H 3219.52 2.82829 -2.66345 0
M  V30 33339 H 3221.19 0.981492 -4.50738 0
M  V30 33340 H 3219.44 0.855047 -4.2529 0
M  V30 33341 H 3220.11 2.29814 -5.01886 0
M  V30 33342 H 3222.58 2.7293 -3.14084 0
M  V30 33343 H 3221.46 3.9238 -3.83835 0
M  V30 33344 H 3221.72 3.88952 -2.10164 0
M  V30 33345 N 3220.78 1.41123 0.701567 0
M  V30 33346 C 3222.2 1.23461 1.01141 0
M  V30 33347 C 3222.4 0.119716 2.01144 0
M  V30 33348 O 3221.45 -0.517845 2.47133 0
M  V30 33349 C 3222.76 2.58168 1.54175 0
M  V30 33350 C 3224.31 2.65299 1.66089 0
M  V30 33351 C 3224.79 4.00308 2.22525 0
M  V30 33352 N 3226.28 4.02124 2.29893 0
M  V30 33353 C 3227.01 5.03385 2.74575 0
M  V30 33354 N 3226.51 6.15037 3.18906 0
M  V30 33355 N 3228.3 4.90748 2.74085 0
M  V30 33356 H 3220.45 2.12364 0.0389714 0
M  V30 33357 H 3222.72 0.94463 0.0798682 0
M  V30 33358 H 3222.42 3.40473 0.881528 0
M  V30 33359 H 3222.3 2.80236 2.52483 0
M  V30 33360 H 3224.68 1.83356 2.31224 0
M  V30 33361 H 3224.76 2.47047 0.663417 0
M  V30 33362 H 3224.41 4.82697 1.58007 0
M  V30 33363 H 3224.34 4.15897 3.23013 0
M  V30 33364 H 3226.83 3.21506 1.98601 0
M  V30 33365 H 3227.14 6.8818 3.51608 0
M  V30 33366 H 3225.49 6.18582 3.16829 0
M  V30 33367 H 3228.68 4.02608 2.38797 0
M  V30 33368 H 3228.85 5.69804 3.0859 0
M  V30 33369 N 3222.26 -0.935219 1.26852 0
M  V30 33370 C 3223.19 -2.03878 1.04721 0
M  V30 33371 C 3224.2 -1.62799 0.00570368 0
M  V30 33372 O 3225.39 -1.76791 0.246439 0
M  V30 33373 C 3222.49 -3.34157 0.565019 0
M  V30 33374 C 3221.66 -4.0397 1.67711 0
M  V30 33375 C 3220.72 -5.12522 1.19195 0
M  V30 33376 O 3219.75 -5.36899 1.89018 0
M  V30 33377 N 3220.95 -5.80484 0.0435574 0
M  V30 33378 H 3223.72 -2.23428 1.9975 0
M  V30 33379 H 3221.28 -1.1051 1.18318 0
M  V30 33380 H 3223.27 -4.04077 0.224507 0
M  V30 33381 H 3221.84 -3.11235 -0.291844 0
M  V30 33382 H 3221.06 -3.27885 2.18827 0
M  V30 33383 H 3222.35 -4.47364 2.42369 0
M  V30 33384 H 3221.75 -5.63122 -0.539403 0
M  V30 33385 H 3220.3 -6.51366 -0.237831 0
M  V30 33386 N 3223.74 -1.08752 -1.14065 0
M  V30 33387 C 3224.67 -0.742398 -2.21384 0
M  V30 33388 C 3225.65 0.276776 -1.67833 0
M  V30 33389 O 3226.83 0.146366 -1.93648 0
M  V30 33390 C 3223.96 -0.154705 -3.46955 0
M  V30 33391 C 3222.92 -1.10262 -4.13553 0
M  V30 33392 C 3222.24 -0.37697 -5.33369 0
M  V30 33393 C 3223.54 -2.44221 -4.61685 0
M  V30 33394 H 3225.24 -1.63968 -2.50509 0
M  V30 33395 H 3222.78 -0.789829 -1.20406 0
M  V30 33396 H 3224.74 0.0987679 -4.21284 0
M  V30 33397 H 3223.46 0.777733 -3.17205 0
M  V30 33398 H 3222.12 -1.34125 -3.41183 0
M  V30 33399 H 3221.77 0.559385 -4.9988 0
M  V30 33400 H 3221.47 -1.00894 -5.78873 0
M  V30 33401 H 3222.99 -0.131634 -6.10458 0
M  V30 33402 H 3224.4 -2.24605 -5.27471 0
M  V30 33403 H 3222.8 -3.03143 -5.17904 0
M  V30 33404 H 3223.87 -3.05489 -3.76569 0
M  V30 33405 N 3225.21 1.31165 -0.873701 0
M  V30 33406 C 3226.44 2.00741 -0.501079 0
M  V30 33407 C 3226.86 1.65562 0.907447 0
M  V30 33408 O 3226.21 0.886799 1.59506 0
M  V30 33409 C 3226.27 3.55554 -0.652939 0
M  V30 33410 O 3225.99 3.89476 -2.006 0
M  V30 33411 C 3227.49 4.42403 -0.28182 0
M  V30 33412 H 3224.71 0.642089 -0.19484 0
M  V30 33413 H 3227.25 1.67311 -1.1759 0
M  V30 33414 H 3225.41 3.87392 -0.0256308 0
M  V30 33415 H 3225.82 4.84189 -2.01646 0
M  V30 33416 H 3227.29 5.50251 -0.439017 0
M  V30 33417 H 3227.77 4.32231 0.779313 0
M  V30 33418 H 3228.38 4.15991 -0.884983 0
M  V30 33419 N 3226.69 0.633512 1.44307 0
M  V30 33420 C 3227.62 -0.0567992 2.33431 0
M  V30 33421 C 3228.6 -0.83236 1.48343 0
M  V30 33422 O 3229.79 -0.797767 1.77057 0
M  V30 33423 C 3226.92 -1.03738 3.31445 0
M  V30 33424 C 3225.87 -0.373287 4.26369 0
M  V30 33425 C 3225.2 -1.46394 5.14269 0
M  V30 33426 C 3226.5 0.721967 5.17286 0
M  V30 33427 H 3228.19 0.687439 2.91401 0
M  V30 33428 H 3225.74 0.332033 1.4012 0
M  V30 33429 H 3227.69 -1.52906 3.9268 0
M  V30 33430 H 3226.42 -1.81253 2.71689 0
M  V30 33431 H 3225.07 0.0977697 3.6647 0
M  V30 33432 H 3224.72 -2.23003 4.50864 0
M  V30 33433 H 3224.42 -1.02495 5.78592 0
M  V30 33434 H 3225.95 -1.95738 5.78376 0
M  V30 33435 H 3227.36 0.313281 5.72443 0
M  V30 33436 H 3225.76 1.08423 5.90224 0
M  V30 33437 H 3226.83 1.58812 4.58156 0
M  V30 33438 N 3228.17 -1.53093 0.374204 0
M  V30 33439 C 3229.59 -1.59583 0.0235063 0
M  V30 33440 C 3229.79 -1.38894 -1.45982 0
M  V30 33441 O 3228.84 -1.1984 -2.22249 0
M  V30 33442 C 3230.16 -2.96727 0.487169 0
M  V30 33443 C 3231.7 -3.09862 0.442128 0
M  V30 33444 C 3232.18 -4.49432 0.881738 0
M  V30 33445 N 3233.67 -4.55572 0.837142 0
M  V30 33446 C 3234.4 -5.61772 1.14888 0
M  V30 33447 N 3233.9 -6.75687 1.53034 0
M  V30 33448 N 3235.69 -5.518 1.07112 0
M  V30 33449 H 3227.84 -1.64791 1.34006 0
M  V30 33450 H 3230.11 -0.773354 0.548294 0
M  V30 33451 H 3229.81 -3.17034 1.52258 0
M  V30 33452 H 3229.69 -3.77004 -0.121706 0
M  V30 33453 H 3232.07 -2.8926 -0.584165 0
M  V30 33454 H 3232.16 -2.31574 1.08661 0
M  V30 33455 H 3231.8 -4.70773 1.90619 0
M  V30 33456 H 3231.73 -5.26163 0.214419 0
M  V30 33457 H 3234.22 -3.73784 0.556239 0
M  V30 33458 H 3234.53 -7.52673 1.75224 0
M  V30 33459 H 3232.88 -6.77056 1.56907 0
M  V30 33460 H 3236.07 -4.61686 0.77223 0
M  V30 33461 H 3236.24 -6.34467 1.31739 0
M  V30 33462 N 3229.65 -0.103603 -1.57259 0
M  V30 33463 C 3230.6 0.852257 -2.14488 0
M  V30 33464 C 3231.57 1.27405 -1.0657 0
M  V30 33465 O 3232.75 1.3543 -1.344 0
M  V30 33466 C 3229.89 2.1028 -2.73636 0
M  V30 33467 C 3229 1.73076 -3.95814 0
M  V30 33468 C 3228.14 2.92981 -4.43098 0
M  V30 33469 C 3227.18 2.51944 -5.57845 0
M  V30 33470 N 3226.31 3.6471 -5.99942 0
M  V30 33471 H 3231.15 0.357378 -2.95849 0
M  V30 33472 H 3228.69 0.164722 -1.46175 0
M  V30 33473 H 3230.65 2.83528 -3.06051 0
M  V30 33474 H 3229.28 2.57253 -1.94989 0
M  V30 33475 H 3228.33 0.897623 -3.69658 0
M  V30 33476 H 3229.64 1.38908 -4.79068 0
M  V30 33477 H 3228.8 3.74472 -4.77342 0
M  V30 33478 H 3227.54 3.30365 -3.58762 0
M  V30 33479 H 3226.54 1.68881 -5.2322 0
M  V30 33480 H 3227.77 2.15693 -6.43936 0
M  V30 33481 H 3225.71 4.01798 -5.18551 0
M  V30 33482 H 3225.63 3.34415 -6.78014 0
M  V30 33483 H 3226.9 4.46687 -6.3882 0
M  V30 33484 N 3231.13 1.56679 0.170126 0
M  V30 33485 C 3232.06 1.99532 1.21282 0
M  V30 33486 C 3233.04 0.871097 1.46102 0
M  V30 33487 O 3234.22 1.13726 1.57417 0
M  V30 33488 C 3231.35 2.35622 2.55146 0
M  V30 33489 C 3230.31 3.51016 2.44892 0
M  V30 33490 C 3229.63 3.72852 3.83257 0
M  V30 33491 C 3230.93 4.84427 1.95263 0
M  V30 33492 H 3232.63 2.86885 0.856596 0
M  V30 33493 H 3230.17 1.38022 0.41061 0
M  V30 33494 H 3232.13 2.64199 3.28294 0
M  V30 33495 H 3230.85 1.4518 2.92558 0
M  V30 33496 H 3229.51 3.22569 1.74198 0
M  V30 33497 H 3229.16 2.79698 4.18064 0
M  V30 33498 H 3228.86 4.50495 3.77264 0
M  V30 33499 H 3230.38 4.0383 4.57989 0
M  V30 33500 H 3231.79 5.11872 2.58186 0
M  V30 33501 H 3230.19 5.65715 2.00215 0
M  V30 33502 H 3231.26 4.76342 0.907007 0
M  V30 33503 N 3232.6 -0.43872 1.5137 0
M  V30 33504 C 3233.54 -1.55071 1.68777 0
M  V30 33505 C 3234.55 -1.52553 0.568462 0
M  V30 33506 O 3235.74 -1.57354 0.842734 0
M  V30 33507 C 3232.84 -2.93987 1.68597 0
M  V30 33508 C 3232.01 -3.21025 2.97089 0
M  V30 33509 C 3231.07 -4.39657 2.89115 0
M  V30 33510 O 3230.1 -4.38379 3.6306 0
M  V30 33511 N 3231.3 -5.43146 2.04872 0
M  V30 33512 H 3234.06 -1.40544 2.64702 0
M  V30 33513 H 3231.62 -0.627637 1.49239 0
M  V30 33514 H 3233.62 -3.71369 1.60832 0
M  V30 33515 H 3232.19 -3.02118 0.80271 0
M  V30 33516 H 3231.41 -2.31955 3.18733 0
M  V30 33517 H 3232.69 -3.35916 3.82149 0
M  V30 33518 H 3232.09 -5.47021 1.44169 0
M  V30 33519 H 3230.65 -6.19386 2.02988 0
M  V30 33520 N 3234.08 -1.41493 -0.694073 0
M  V30 33521 C 3234.99 -1.45821 -1.83775 0
M  V30 33522 C 3236.01 -0.348669 -1.70471 0
M  V30 33523 O 3237.18 -0.596621 -1.9236 0
M  V30 33524 C 3234.25 -1.33973 -3.19769 0
M  V30 33525 C 3233.31 -2.55256 -3.45171 0
M  V30 33526 C 3232.54 -2.43963 -4.74676 0
M  V30 33527 O 3232.77 -1.46501 -5.51265 0
M  V30 33528 O 3231.7 -3.33748 -5.00895 0
M  V30 33529 H 3235.53 -2.42313 -1.8308 0
M  V30 33530 H 3233.11 -1.23048 -0.847328 0
M  V30 33531 H 3234.99 -1.29655 -4.00958 0
M  V30 33532 H 3233.67 -0.405982 -3.21144 0
M  V30 33533 H 3232.58 -2.6515 -2.63906 0
M  V30 33534 H 3233.91 -3.47464 -3.48611 0
M  V30 33535 N 3235.56 0.928479 -1.27346 0
M  V30 33536 C 3236.49 2.04601 -1.12521 0
M  V30 33537 C 3237.47 1.70079 -0.0268862 0
M  V30 33538 O 3238.66 1.93155 -0.201231 0
M  V30 33539 C 3235.79 3.38638 -0.770808 0
M  V30 33540 C 3234.74 3.87269 -1.82227 0
M  V30 33541 C 3234.07 5.18103 -1.32187 0
M  V30 33542 C 3235.37 4.10746 -3.22621 0
M  V30 33543 H 3237.06 2.17262 -2.06004 0
M  V30 33544 H 3234.61 1.04396 -0.991845 0
M  V30 33545 H 3236.56 4.16295 -0.653916 0
M  V30 33546 H 3235.28 3.25989 0.199732 0
M  V30 33547 H 3233.94 3.11804 -1.92805 0
M  V30 33548 H 3233.59 5.01844 -0.340807 0
M  V30 33549 H 3233.29 5.5161 -2.02484 0
M  V30 33550 H 3234.81 5.98331 -1.2179 0
M  V30 33551 H 3236.23 4.78976 -3.15048 0
M  V30 33552 H 3234.63 4.55559 -3.90622 0
M  V30 33553 H 3235.7 3.1607 -3.67733 0
M  V30 33554 N 3237.04 1.09355 1.13486 0
M  V30 33555 C 3238.26 0.851114 1.89132 0
M  V30 33556 C 3238.69 -0.591944 1.78543 0
M  V30 33557 O 3238.05 -1.41581 1.13246 0
M  V30 33558 C 3238.09 1.29007 3.36734 0
M  V30 33559 O 3237.2 0.448065 4.09959 0
M  V30 33560 H 3236.54 0.308306 0.588084 0
M  V30 33561 H 3239.07 1.4575 1.4359 0
M  V30 33562 H 3239.08 1.27515 3.87561 0
M  V30 33563 H 3237.75 2.34101 3.43758 0
M  V30 33564 H 3236.33 0.527235 3.69154 0
M  V30 33565 N 3238.52 -1.307 0.880644 0
M  V30 33566 C 3239.74 -2.01008 0.510944 0
M  V30 33567 C 3240.17 -1.65604 -0.892012 0
M  V30 33568 O 3239.53 -0.870337 -1.59043 0
M  V30 33569 C 3239.57 -3.53979 0.687821 0
M  V30 33570 O 3238.68 -4.11527 -0.268203 0
M  V30 33571 H 3238.02 -0.632568 0.201876 0
M  V30 33572 H 3240.55 -1.66648 1.187 0
M  V30 33573 H 3240.56 -4.03782 0.585166 0
M  V30 33574 H 3239.23 -3.79086 1.71075 0
M  V30 33575 H 3237.81 -3.72708 -0.119608 0
M  V30 33576 N 3240 -0.641156 -1.43969 0
M  V30 33577 C 3240.94 0.05775 -2.30728 0
M  V30 33578 C 3241.91 0.826794 -1.4406 0
M  V30 33579 O 3243.1 0.805823 -1.72948 0
M  V30 33580 C 3240.24 1.02651 -3.2948 0
M  V30 33581 C 3239.35 0.254837 -4.31248 0
M  V30 33582 C 3238.49 1.21631 -5.17087 0
M  V30 33583 C 3237.52 0.434374 -6.10557 0
M  V30 33584 N 3236.66 1.34682 -6.89061 0
M  V30 33585 H 3241.5 -0.688004 -2.89949 0
M  V30 33586 H 3239.04 -0.351055 -1.4285 0
M  V30 33587 H 3241 1.60166 -3.85231 0
M  V30 33588 H 3239.63 1.73928 -2.71935 0
M  V30 33589 H 3238.68 -0.436405 -3.77888 0
M  V30 33590 H 3239.99 -0.35373 -4.97544 0
M  V30 33591 H 3239.14 1.86248 -5.77405 0
M  V30 33592 H 3237.88 1.8588 -4.50888 0
M  V30 33593 H 3236.89 -0.225222 -5.49339 0
M  V30 33594 H 3238.11 -0.203535 -6.78795 0
M  V30 33595 H 3236.06 1.97633 -6.25522 0
M  V30 33596 H 3235.98 0.792525 -7.51834 0
M  V30 33597 H 3237.24 1.98152 -7.53894 0
M  V30 33598 N 3241.47 1.52892 -0.382318 0
M  V30 33599 C 3242.44 2.24858 0.444041 0
M  V30 33600 C 3243.44 1.26241 0.995982 0
M  V30 33601 O 3244.63 1.50392 0.879087 0
M  V30 33602 C 3241.76 2.99824 1.62229 0
M  V30 33603 H 3242.95 2.99323 -0.185915 0
M  V30 33604 H 3240.5 1.55722 -0.134302 0
M  V30 33605 H 3241.24 2.29642 2.28987 0
M  V30 33606 H 3241.02 3.72199 1.2333 0
M  V30 33607 H 3242.51 3.54485 2.2075 0
M  V30 33608 N 3242.95 0.111941 1.57202 0
M  V30 33609 C 3244.23 -0.590939 1.8646 0
M  V30 33610 C 3244.61 -1.85269 1.01185 0
M  V30 33611 O 3243.96 -2.28327 0.0888292 0
M  V30 33612 C 3244.17 -0.890166 3.37457 0
M  V30 33613 C 3245.51 -1.2463 4.05897 0
M  V30 33614 O 3246.54 -0.980652 3.42435 0
M  V30 33615 O 3245.4 -1.74456 5.17907 0
M  V30 33616 H 3242.49 -0.297445 0.771658 0
M  V30 33617 H 3245.04 0.145912 1.69072 0
M  V30 33618 H 3243.81 0.0042589 3.913 0
M  V30 33619 H 3243.43 -1.68242 3.60251 0
M  V30 33620 N 3244.43 -1.56767 -0.161814 0
M  V30 33621 C 3245.34 -2.00387 -1.21993 0
M  V30 33622 C 3246.36 -0.916794 -1.47888 0
M  V30 33623 O 3247.53 -1.22515 -1.5985 0
M  V30 33624 C 3244.6 -2.36309 -2.5369 0
M  V30 33625 C 3243.66 -3.58892 -2.35574 0
M  V30 33626 C 3242.89 -3.93092 -3.60991 0
M  V30 33627 O 3243.11 -3.28137 -4.66564 0
M  V30 33628 O 3242.05 -4.86403 -3.54536 0
M  V30 33629 H 3245.87 -2.90682 -0.87965 0
M  V30 33630 H 3243.46 -1.44761 -0.369412 0
M  V30 33631 H 3245.34 -2.60341 -3.31362 0
M  V30 33632 H 3244.02 -1.49174 -2.87278 0
M  V30 33633 H 3242.92 -3.40067 -1.55902 0
M  V30 33634 H 3244.26 -4.46599 -2.06907 0
M  V30 33635 N 3245.91 0.430686 -1.51601 0
M  V30 33636 C 3246.87 1.50579 -1.72797 0
M  V30 33637 C 3247.87 1.4927 -0.597929 0
M  V30 33638 O 3249.06 1.51174 -0.865561 0
M  V30 33639 C 3246.19 2.9009 -1.79054 0
M  V30 33640 H 3247.39 1.33086 -2.68753 0
M  V30 33641 H 3244.94 0.659797 -1.41691 0
M  V30 33642 H 3245.67 3.1298 -0.849364 0
M  V30 33643 H 3245.46 2.92445 -2.61187 0
M  V30 33644 H 3246.95 3.68069 -1.97269 0
M  V30 33645 N 3247.39 1.4186 0.686559 0
M  V30 33646 C 3248.61 1.45277 1.48018 0
M  V30 33647 C 3249.04 0.0621627 1.87997 0
M  V30 33648 O 3248.39 -0.936706 1.55227 0
M  V30 33649 C 3248.44 2.37517 2.71326 0
M  V30 33650 O 3247.55 1.83843 3.69155 0
M  V30 33651 H 3246.89 0.49269 0.445143 0
M  V30 33652 H 3249.42 1.8642 0.843129 0
M  V30 33653 H 3249.43 2.53699 3.19532 0
M  V30 33654 H 3248.1 3.38554 2.41565 0
M  V30 33655 H 3246.68 1.77157 3.28131 0
M  V30 33656 N 3248.86 -0.921712 1.27837 0
M  V30 33657 C 3249.77 -2.05643 1.12907 0
M  V30 33658 C 3250.79 -1.73905 0.0576009 0
M  V30 33659 O 3251.97 -1.99645 0.265296 0
M  V30 33660 C 3249.03 -3.37719 0.784017 0
M  V30 33661 C 3248.09 -3.83117 1.937 0
M  V30 33662 C 3247.32 -5.0889 1.60831 0
M  V30 33663 O 3247.55 -5.68034 0.518973 0
M  V30 33664 O 3246.48 -5.49806 2.44942 0
M  V30 33665 H 3250.31 -2.21153 2.08147 0
M  V30 33666 H 3247.89 -1.04183 1.0708 0
M  V30 33667 H 3249.77 -4.17032 0.60518 0
M  V30 33668 H 3248.45 -3.23402 -0.138792 0
M  V30 33669 H 3247.36 -3.04665 2.17094 0
M  V30 33670 H 3248.69 -4.01985 2.84023 0
M  V30 33671 N 3250.34 -1.09956 -1.12905 0
M  V30 33672 C 3251.27 -0.765837 -2.20584 0
M  V30 33673 C 3252.25 0.258959 -1.68117 0
M  V30 33674 O 3253.44 0.125819 -1.93792 0
M  V30 33675 C 3250.57 -0.191496 -3.46772 0
M  V30 33676 C 3249.52 -1.14642 -4.12361 0
M  V30 33677 C 3248.85 -0.43352 -5.3294 0
M  V30 33678 C 3250.15 -2.49104 -4.59069 0
M  V30 33679 H 3251.84 -1.66616 -2.48756 0
M  V30 33680 H 3249.39 -0.802555 -1.19562 0
M  V30 33681 H 3251.34 0.0540795 -4.21365 0
M  V30 33682 H 3250.06 0.744046 -3.18012 0
M  V30 33683 H 3248.72 -1.37737 -3.39741 0
M  V30 33684 H 3248.37 0.506334 -5.00445 0
M  V30 33685 H 3248.07 -1.07028 -5.77771 0
M  V30 33686 H 3249.6 -0.196374 -6.10284 0
M  V30 33687 H 3251.01 -2.30186 -5.25059 0
M  V30 33688 H 3249.41 -3.08619 -5.1466 0
M  V30 33689 H 3250.48 -3.09466 -3.73308 0
M  V30 33690 N 3251.82 1.30231 -0.887563 0
M  V30 33691 C 3252.78 2.26337 -0.361135 0
M  V30 33692 C 3253.78 1.52899 0.497844 0
M  V30 33693 O 3254.97 1.71516 0.30463 0
M  V30 33694 C 3252.1 3.37431 0.485076 0
M  V30 33695 H 3253.3 2.74416 -1.20978 0
M  V30 33696 H 3250.85 1.41464 -0.664644 0
M  V30 33697 H 3251.59 2.94672 1.3542 0
M  V30 33698 H 3251.37 3.91884 -0.130242 0
M  V30 33699 H 3252.86 4.0896 0.845097 0
M  V30 33700 N 3253.3 0.648782 1.43627 0
M  V30 33701 C 3254.54 0.163914 2.03742 0
M  V30 33702 C 3254.9 -1.19788 1.50049 0
M  V30 33703 O 3256.1 -1.7759 2.0178 0
M  V30 33704 C 3254.37 0.168912 3.57001 0
M  V30 33705 S 3255.93 -0.248758 4.38094 0
M  V30 33706 H 3252.75 0.0697639 0.707569 0
M  V30 33707 H 3255.35 0.856125 1.75758 0
M  V30 33708 H 3254.06 1.16284 3.93581 0
M  V30 33709 H 3253.59 -0.54398 3.89621 0
M  V30 33710 H 3255.6 -1.48873 4.7334 0
M  V30 33711 N 3254.78 -1.52688 0.390421 0
M  V30 33712 C 3256.19 -1.86514 -0.0833612 0
M  V30 33713 C 3256.54 -1.31005 -1.46055 0
M  V30 33714 O 3255.66 -0.641845 -2.06662 0
M  V30 33715 C 3256.26 -3.38431 -0.158042 0
M  V30 33716 C 3254.82 -3.71965 -0.57612 0
M  V30 33717 C 3253.96 -2.76067 0.261204 0
M  V30 33718 H 3256.92 -1.46581 0.608251 0
M  V30 33719 H 3256.94 -3.67744 -0.976958 0
M  V30 33720 H 3256.45 -3.78802 0.844432 0
M  V30 33721 H 3254.55 -3.37164 -1.58592 0
M  V30 33722 H 3254.66 -4.77938 -0.333493 0
M  V30 33723 H 3253.03 -2.53225 -0.273692 0
M  V30 33724 H 3253.81 -3.19275 1.26168 0
M  V30 33725 N 3256.25 -0.120276 -1.5714 0
M  V30 33726 C 3257.48 0.545101 -1.9959 0
M  V30 33727 C 3257.9 1.60143 -0.999979 0
M  V30 33728 O 3257.25 1.82499 0.00695689 0
M  V30 33729 C 3257.31 1.17008 -3.4204 0
M  V30 33730 O 3257.03 0.155967 -4.37822 0
M  V30 33731 C 3258.53 1.91865 -3.99628 0
M  V30 33732 H 3255.75 0.14421 -0.65532 0
M  V30 33733 H 3258.29 -0.206991 -2.0345 0
M  V30 33734 H 3256.45 1.87294 -3.39116 0
M  V30 33735 H 3256.86 0.610226 -5.20938 0
M  V30 33736 H 3258.33 2.30919 -5.01378 0
M  V30 33737 H 3258.81 2.79434 -3.38841 0
M  V30 33738 H 3259.42 1.26338 -4.06102 0
M  V30 33739 N 3257.73 1.56851 0.153498 0
M  V30 33740 C 3259.14 1.72499 0.714216 0
M  V30 33741 C 3259.49 0.733653 1.81967 0
M  V30 33742 O 3258.62 -0.101142 2.16164 0
M  V30 33743 C 3259.21 3.1277 1.30233 0
M  V30 33744 C 3257.77 3.30042 1.80968 0
M  V30 33745 C 3256.92 2.68434 0.69559 0
M  V30 33746 H 3259.87 1.58536 -0.0721011 0
M  V30 33747 H 3259.89 3.12409 2.17212 0
M  V30 33748 H 3259.4 3.84898 0.497537 0
M  V30 33749 H 3257.51 2.629 2.64035 0
M  V30 33750 H 3257.62 4.37938 1.94287 0
M  V30 33751 H 3255.98 2.28725 1.12057 0
M  V30 33752 H 3256.77 3.43161 -0.0976488 0
M  V30 33753 N 3259.21 -0.42264 1.51827 0
M  V30 33754 C 3260.16 -1.51403 1.742 0
M  V30 33755 C 3261.13 -1.55493 0.58404 0
M  V30 33756 O 3262.31 -1.72276 0.820109 0
M  V30 33757 C 3259.45 -2.88984 1.88632 0
M  V30 33758 C 3258.57 -2.94308 3.16238 0
M  V30 33759 C 3257.7 -4.23104 3.21179 0
M  V30 33760 C 3256.74 -4.22352 4.43041 0
M  V30 33761 N 3255.88 -5.42696 4.45449 0
M  V30 33762 H 3260.72 -1.31627 2.67354 0
M  V30 33763 H 3258.25 -0.639166 1.32488 0
M  V30 33764 H 3260.21 -3.68833 1.94982 0
M  V30 33765 H 3258.84 -3.07285 0.988727 0
M  V30 33766 H 3257.89 -2.07033 3.19126 0
M  V30 33767 H 3259.21 -2.89616 4.06109 0
M  V30 33768 H 3258.36 -5.11337 3.26526 0
M  V30 33769 H 3257.1 -4.30474 2.29223 0
M  V30 33770 H 3256.1 -3.32511 4.37855 0
M  V30 33771 H 3257.33 -4.16634 5.36277 0
M  V30 33772 H 3255.27 -5.5076 3.56371 0
M  V30 33773 H 3255.19 -5.39943 5.29148 0
M  V30 33774 H 3256.46 -6.3292 4.55008 0
M  V30 33775 N 3260.69 -1.42222 -0.679027 0
M  V30 33776 C 3261.6 -1.47762 -1.82218 0
M  V30 33777 C 3262.61 -0.36673 -1.70091 0
M  V30 33778 O 3263.79 -0.61699 -1.91716 0
M  V30 33779 C 3260.86 -1.37357 -3.1833 0
M  V30 33780 C 3259.92 -2.58902 -3.42444 0
M  V30 33781 C 3259.15 -2.48984 -4.72062 0
M  V30 33782 O 3259.37 -1.5234 -5.49681 0
M  V30 33783 O 3258.31 -3.39042 -4.97327 0
M  V30 33784 H 3262.13 -2.44241 -1.805 0
M  V30 33785 H 3259.72 -1.23939 -0.834229 0
M  V30 33786 H 3261.6 -1.339 -3.99561 0
M  V30 33787 H 3260.27 -0.440021 -3.20695 0
M  V30 33788 H 3259.18 -2.67934 -2.61079 0
M  V30 33789 H 3260.51 -3.51142 -3.44906 0
M  V30 33790 N 3262.17 0.91492 -1.28324 0
M  V30 33791 C 3263.44 1.64315 -1.06114 0
M  V30 33792 C 3263.82 2.07278 0.399897 0
M  V30 33793 O 3263.17 1.81686 1.38574 0
M  V30 33794 C 3263.38 2.83553 -2.03466 0
M  V30 33795 C 3264.73 3.54599 -2.33547 0
M  V30 33796 O 3265.75 2.937 -2.01541 0
M  V30 33797 O 3264.61 4.64352 -2.88166 0
M  V30 33798 H 3261.71 0.720783 -0.405463 0
M  V30 33799 H 3264.25 0.964328 -1.39638 0
M  V30 33800 H 3263.02 2.48891 -3.01942 0
M  V30 33801 H 3262.65 3.59149 -1.7058 0
M  V30 33802 N 3263.64 1.10553 1.1232 0
M  V30 33803 C 3264.89 0.84703 1.83493 0
M  V30 33804 C 3265.21 -0.629172 1.84571 0
M  V30 33805 O 3264.48 -1.45683 1.3097 0
M  V30 33806 H 3263.06 0.310363 0.679473 0
M  V30 33807 H 3265.73 1.39605 1.36002 0
M  V30 33808 H 3264.82 1.21097 2.87649 0
M  V30 33809 N 3265.12 -1.29758 0.894457 0
M  V30 33810 C 3266.05 -2.30308 0.384741 0
M  V30 33811 C 3267.03 -1.61386 -0.537457 0
M  V30 33812 O 3268.22 -1.88931 -0.449299 0
M  V30 33813 C 3265.35 -3.45066 -0.39325 0
M  V30 33814 C 3264.3 -4.25752 0.438043 0
M  V30 33815 C 3263.63 -5.32656 -0.467127 0
M  V30 33816 C 3264.93 -4.94367 1.68519 0
M  V30 33817 H 3266.62 -2.73192 1.22501 0
M  V30 33818 H 3264.17 -1.31336 0.590494 0
M  V30 33819 H 3266.12 -4.1448 -0.760541 0
M  V30 33820 H 3264.85 -3.01012 -1.26725 0
M  V30 33821 H 3263.5 -3.5804 0.787596 0
M  V30 33822 H 3263.15 -4.84847 -1.33911 0
M  V30 33823 H 3262.85 -5.87538 0.0853515 0
M  V30 33824 H 3264.38 -6.04923 -0.830726 0
M  V30 33825 H 3265.79 -5.56246 1.38794 0
M  V30 33826 H 3264.19 -5.59158 2.17859 0
M  V30 33827 H 3265.26 -4.19953 2.42419 0
M  V30 33828 N 3266.6 -0.65639 -1.4328 0
M  V30 33829 C 3267.56 0.023877 -2.29188 0
M  V30 33830 C 3268.56 0.747411 -1.42374 0
M  V30 33831 O 3269.75 0.588184 -1.6397 0
M  V30 33832 C 3266.89 1.04455 -3.24503 0
M  V30 33833 H 3268.08 -0.732029 -2.90829 0
M  V30 33834 H 3265.63 -0.417778 -1.50613 0
M  V30 33835 H 3266.37 1.82958 -2.67763 0
M  V30 33836 H 3266.15 0.529352 -3.8851 0
M  V30 33837 H 3267.64 1.51951 -3.88974 0
M  V30 33838 N 3268.08 1.52478 -0.398513 0
M  V30 33839 C 3269.01 2.24384 0.467387 0
M  V30 33840 C 3270.02 1.2696 1.01906 0
M  V30 33841 O 3271.21 1.52976 0.919816 0
M  V30 33842 C 3268.31 2.95382 1.66141 0
M  V30 33843 C 3267.49 4.19588 1.2355 0
M  V30 33844 C 3266.55 4.73503 2.29524 0
M  V30 33845 O 3265.57 5.36357 1.90551 0
M  V30 33846 N 3266.77 4.54156 3.61556 0
M  V30 33847 H 3269.54 2.99331 -0.148706 0
M  V30 33848 H 3267.1 1.60324 -0.225341 0
M  V30 33849 H 3269.09 3.28348 2.36579 0
M  V30 33850 H 3267.66 2.23686 2.18365 0
M  V30 33851 H 3266.88 3.92556 0.359646 0
M  V30 33852 H 3268.17 5.00271 0.927724 0
M  V30 33853 H 3267.57 4.04005 3.95975 0
M  V30 33854 H 3266.12 4.91588 4.28001 0
M  V30 33855 N 3269.56 0.128608 1.57074 0
M  V30 33856 C 3270.49 -0.84867 2.12909 0
M  V30 33857 C 3271.5 -1.22341 1.07408 0
M  V30 33858 O 3272.69 -1.17069 1.34748 0
M  V30 33859 C 3269.79 -2.14755 2.62171 0
M  V30 33860 C 3268.96 -1.94302 3.91874 0
M  V30 33861 C 3268.02 -3.08008 4.26635 0
M  V30 33862 O 3267.05 -2.80502 4.95285 0
M  V30 33863 N 3268.25 -4.347 3.84729 0
M  V30 33864 H 3271.02 -0.371584 2.97388 0
M  V30 33865 H 3268.58 -0.055529 1.61805 0
M  V30 33866 H 3270.57 -2.89836 2.82449 0
M  V30 33867 H 3269.14 -2.53783 1.82519 0
M  V30 33868 H 3268.36 -1.03361 3.80408 0
M  V30 33869 H 3269.65 -1.77953 4.76666 0
M  V30 33870 H 3269.05 -4.5992 3.29378 0
M  V30 33871 H 3267.6 -5.0662 4.10096 0
M  V30 33872 N 3271.04 -1.5693 -0.145178 0
M  V30 33873 C 3271.97 -1.95008 -1.20434 0
M  V30 33874 C 3272.98 -0.846138 -1.39084 0
M  V30 33875 O 3274.17 -1.12454 -1.38623 0
M  V30 33876 C 3271.27 -2.21047 -2.56888 0
M  V30 33877 C 3270.44 -3.52333 -2.59191 0
M  V30 33878 C 3269.5 -3.66891 -3.77197 0
M  V30 33879 O 3268.53 -4.39265 -3.61987 0
M  V30 33880 N 3269.73 -3.03691 -4.94724 0
M  V30 33881 H 3272.49 -2.86469 -0.880659 0
M  V30 33882 H 3270.06 -1.58402 -0.334723 0
M  V30 33883 H 3272.05 -2.28025 -3.34345 0
M  V30 33884 H 3270.62 -1.35843 -2.81541 0
M  V30 33885 H 3269.84 -3.56779 -1.67637 0
M  V30 33886 H 3271.13 -4.38675 -2.57763 0
M  V30 33887 H 3270.52 -2.4481 -5.09985 0
M  V30 33888 H 3269.08 -3.16228 -5.6995 0
M  V30 33889 N 3272.51 0.414582 -1.52049 0
M  V30 33890 C 3273.74 1.18389 -1.69681 0
M  V30 33891 C 3274.16 1.84429 -0.403914 0
M  V30 33892 O 3273.51 1.7166 0.619606 0
M  V30 33893 C 3273.56 2.25107 -2.82859 0
M  V30 33894 O 3273.29 1.61765 -4.07141 0
M  V30 33895 C 3274.79 3.1496 -3.11954 0
M  V30 33896 H 3272.01 0.355967 -0.568796 0
M  V30 33897 H 3274.55 0.48847 -1.98581 0
M  V30 33898 H 3272.71 2.90327 -2.56494 0
M  V30 33899 H 3273.12 2.32471 -4.70167 0
M  V30 33900 H 3274.59 3.85925 -3.94672 0
M  V30 33901 H 3275.07 3.77021 -2.25282 0
M  V30 33902 H 3275.68 2.55415 -3.40064 0
M  V30 33903 N 3273.99 1.4258 0.671475 0
M  V30 33904 C 3274.92 1.42269 1.797 0
M  V30 33905 C 3275.94 0.321296 1.59598 0
M  V30 33906 O 3277.13 0.584594 1.68656 0
M  V30 33907 C 3274.23 1.20229 3.16857 0
M  V30 33908 C 3273.4 2.42865 3.63779 0
M  V30 33909 C 3272.46 2.16321 4.79679 0
M  V30 33910 O 3271.48 2.89545 4.90053 0
M  V30 33911 N 3272.69 1.16841 5.6862 0
M  V30 33912 H 3275.45 2.39285 1.80451 0
M  V30 33913 H 3273.01 1.37502 0.854684 0
M  V30 33914 H 3275 1.00383 3.92053 0
M  V30 33915 H 3273.57 0.317243 3.10986 0
M  V30 33916 H 3272.79 2.78257 2.79226 0
M  V30 33917 H 3274.08 3.24521 3.91872 0
M  V30 33918 H 3273.48 0.562845 5.62893 0
M  V30 33919 H 3272.04 1.02981 6.43613 0
M  V30 33920 N 3275.47 -0.908102 1.28807 0
M  V30 33921 C 3276.4 -2.02785 1.15761 0
M  V30 33922 C 3277.38 -1.70014 0.0539408 0
M  V30 33923 O 3278.57 -1.9281 0.231935 0
M  V30 33924 C 3275.7 -3.37369 0.824585 0
M  V30 33925 C 3274.65 -3.84321 1.88365 0
M  V30 33926 C 3273.98 -5.15934 1.40413 0
M  V30 33927 C 3275.28 -4.05562 3.29115 0
M  V30 33928 H 3276.97 -2.13957 2.09434 0
M  V30 33929 H 3274.52 -1.02804 1.00833 0
M  V30 33930 H 3276.47 -4.15202 0.720063 0
M  V30 33931 H 3275.19 -3.26265 -0.147845 0
M  V30 33932 H 3273.85 -3.08697 1.97742 0
M  V30 33933 H 3273.5 -5.01238 0.420603 0
M  V30 33934 H 3273.2 -5.48319 2.11234 0
M  V30 33935 H 3274.72 -5.96317 1.31294 0
M  V30 33936 H 3276.14 -4.73903 3.22628 0
M  V30 33937 H 3274.53 -4.49287 3.9782 0
M  V30 33938 H 3275.6 -3.1018 3.72715 0
M  V30 33939 N 3276.95 -1.11147 -1.11732 0
M  V30 33940 C 3277.9 -0.762021 -2.19764 0
M  V30 33941 C 3278.89 0.245151 -1.67617 0
M  V30 33942 O 3280.1 0.10475 -1.79695 0
M  V30 33943 H 3276.47 -0.228525 -0.716436 0
M  V30 33944 H 3278.44 -1.68187 -2.46487 0
M  V30 33945 C 3277.19 -0.218118 -3.47015 0
M  V30 33946 H 3276.51 -0.984367 -3.87492 0
M  V30 33947 H 3277.95 -0.0117571 -4.23998 0
M  V30 33948 C 3276.41 1.0509 -3.2009 0
M  V30 33949 O 3276.94 2.13114 -3.40507 0
M  V30 33950 N 3275.15 0.972475 -2.73845 0
M  V30 33951 H 3274.7 0.0933006 -2.57431 0
M  V30 33952 H 3274.65 1.82224 -2.56207 0
M  V30 33953 N 3278.43 1.29282 -0.901326 0
M  V30 33954 C 3279.36 2.30101 -0.396949 0
M  V30 33955 C 3280.34 1.61669 0.528891 0
M  V30 33956 O 3281.52 1.89167 0.439273 0
M  V30 33957 C 3278.65 3.4527 0.374945 0
M  V30 33958 C 3277.61 4.25514 -0.460615 0
M  V30 33959 C 3276.93 5.32896 0.438873 0
M  V30 33960 C 3278.23 4.93466 -1.71139 0
M  V30 33961 H 3279.93 2.72539 -1.23948 0
M  V30 33962 H 3277.47 1.31021 -0.597451 0
M  V30 33963 H 3279.42 4.14878 0.738549 0
M  V30 33964 H 3278.15 3.0168 1.25127 0
M  V30 33965 H 3276.81 3.57617 -0.806573 0
M  V30 33966 H 3276.46 4.85551 1.31338 0
M  V30 33967 H 3276.16 5.87484 -0.116509 0
M  V30 33968 H 3277.68 6.05355 0.798634 0
M  V30 33969 H 3279.09 5.55502 -1.41742 0
M  V30 33970 H 3277.49 5.57995 -2.20821 0
M  V30 33971 H 3278.56 4.18662 -2.44643 0
M  V30 33972 N 3279.9 0.663979 1.4293 0
M  V30 33973 C 3281.32 0.332523 1.56098 0
M  V30 33974 C 3281.52 -1.16276 1.64567 0
M  V30 33975 O 3280.58 -1.94791 1.60664 0
M  V30 33976 C 3281.89 1.05334 2.81648 0
M  V30 33977 C 3283.44 1.03462 2.95406 0
M  V30 33978 C 3283.91 1.73654 4.23802 0
M  V30 33979 N 3285.4 1.7047 4.3069 0
M  V30 33980 C 3286.14 2.21647 5.28829 0
M  V30 33981 N 3285.63 2.81158 6.33184 0
M  V30 33982 N 3287.43 2.12084 5.20554 0
M  V30 33983 H 3279.58 1.63418 1.35677 0
M  V30 33984 H 3281.84 0.687855 0.652349 0
M  V30 33985 H 3281.55 2.10847 2.8149 0
M  V30 33986 H 3281.42 0.611691 3.72207 0
M  V30 33987 H 3283.81 -0.0121417 2.95098 0
M  V30 33988 H 3283.89 1.51505 2.06106 0
M  V30 33989 H 3283.53 2.78293 4.24871 0
M  V30 33990 H 3283.46 1.23069 5.12017 0
M  V30 33991 H 3285.95 1.27052 3.55902 0
M  V30 33992 H 3286.27 3.17857 7.04405 0
M  V30 33993 H 3284.61 2.85223 6.33776 0
M  V30 33994 H 3287.8 1.65287 4.37947 0
M  V30 33995 H 3287.98 2.52275 5.96876 0
M  V30 33996 N 3281.38 -1.52265 0.406593 0
M  V30 33997 C 3282.61 -2.06685 -0.172065 0
M  V30 33998 C 3283.03 -1.2749 -1.38303 0
M  V30 33999 O 3282.39 -0.304473 -1.78725 0
M  V30 34000 C 3282.44 -3.57069 -0.5034 0
M  V30 34001 O 3281.54 -3.80316 -1.59478 0
M  V30 34002 H 3280.88 -0.663823 -0.0153092 0
M  V30 34003 H 3283.41 -1.96235 0.57906 0
M  V30 34004 H 3283.42 -4.00807 -0.762763 0
M  V30 34005 H 3282.1 -4.14143 0.381848 0
M  V30 34006 H 3280.67 -3.4846 -1.32778 0
M  V30 34007 N 3282.86 -0.136936 -1.57004 0
M  V30 34008 C 3283.79 0.802863 -2.19263 0
M  V30 34009 C 3284.77 1.26437 -1.13788 0
M  V30 34010 O 3285.96 1.32375 -1.42094 0
M  V30 34011 C 3283.09 2.0461 -2.80628 0
M  V30 34012 C 3282.04 1.72174 -3.91842 0
M  V30 34013 C 3281.37 3.03678 -4.40095 0
M  V30 34014 C 3282.67 0.976159 -5.13097 0
M  V30 34015 H 3284.36 0.284008 -2.9805 0
M  V30 34016 H 3281.91 0.135163 -1.43364 0
M  V30 34017 H 3283.86 2.70829 -3.22846 0
M  V30 34018 H 3282.58 2.58851 -1.99157 0
M  V30 34019 H 3281.24 1.08338 -3.50226 0
M  V30 34020 H 3280.89 3.55889 -3.5546 0
M  V30 34021 H 3280.59 2.82742 -5.15103 0
M  V30 34022 H 3282.11 3.70984 -4.84977 0
M  V30 34023 H 3283.53 1.54023 -5.52223 0
M  V30 34024 H 3281.93 0.86711 -5.93802 0
M  V30 34025 H 3283 -0.033934 -4.84888 0
M  V30 34026 N 3284.34 1.57005 0.136853 0
M  V30 34027 C 3285.27 2.0206 1.17022 0
M  V30 34028 C 3286.25 0.901891 1.44222 0
M  V30 34029 O 3287.43 1.1704 1.54969 0
M  V30 34030 C 3284.56 2.40981 2.5009 0
M  V30 34031 C 3283.52 3.56131 2.37391 0
M  V30 34032 C 3282.84 3.80897 3.75262 0
M  V30 34033 C 3284.14 4.8846 1.84943 0
M  V30 34034 H 3285.84 2.88637 0.795551 0
M  V30 34035 H 3283.38 1.38862 0.381241 0
M  V30 34036 H 3285.34 2.71103 3.22616 0
M  V30 34037 H 3284.06 1.51353 2.89413 0
M  V30 34038 H 3282.72 3.26191 1.67316 0
M  V30 34039 H 3282.37 2.88503 4.12038 0
M  V30 34040 H 3282.07 4.58396 3.67623 0
M  V30 34041 H 3283.59 4.13454 4.4932 0
M  V30 34042 H 3285.01 5.17233 2.47271 0
M  V30 34043 H 3283.4 5.69835 1.88171 0
M  V30 34044 H 3284.47 4.78158 0.805764 0
M  V30 34045 N 3285.82 -0.406513 1.52267 0
M  V30 34046 C 3287.06 -1.15493 1.66701 0
M  V30 34047 C 3287.4 -1.90098 0.397052 0
M  V30 34048 O 3286.67 -1.84864 -0.604614 0
M  V30 34049 C 3286.95 -2.14729 2.89073 0
M  V30 34050 C 3286.81 -1.44004 4.26125 0
M  V30 34051 C 3288.13 -3.15368 3.06971 0
M  V30 34052 H 3285.24 -0.418504 0.606649 0
M  V30 34053 H 3287.89 -0.440349 1.84827 0
M  V30 34054 H 3286.04 -2.75668 2.7375 0
M  V30 34055 H 3287.71 -0.861642 4.53181 0
M  V30 34056 H 3285.95 -0.741989 4.27407 0
M  V30 34057 H 3286.62 -2.16427 5.07803 0
M  V30 34058 H 3289.1 -2.64506 3.21209 0
M  V30 34059 H 3287.97 -3.82065 3.94104 0
M  V30 34060 H 3288.24 -3.83243 2.20402 0
M  V30 34061 N 3287.29 -1.42934 -0.663904 0
M  V30 34062 C 3288.24 -1.47513 -1.79841 0
M  V30 34063 C 3289.24 -0.349756 -1.6575 0
M  V30 34064 O 3290.44 -0.523269 -1.72226 0
M  V30 34065 H 3286.82 -0.462229 -0.593168 0
M  V30 34066 H 3288.79 -2.43064 -1.73097 0
M  V30 34067 C 3287.54 -1.40496 -3.18051 0
M  V30 34068 H 3286.86 -2.26392 -3.29525 0
M  V30 34069 H 3288.3 -1.47761 -3.9742 0
M  V30 34070 C 3286.76 -0.121135 -3.36682 0
M  V30 34071 O 3287.29 0.821805 -3.93204 0
M  V30 34072 N 3285.5 -0.0347651 -2.90579 0
M  V30 34073 H 3285.04 -0.802895 -2.44768 0
M  V30 34074 H 3285 0.823553 -3.03422 0
M  V30 34075 N 3288.77 0.901258 -1.29287 0
M  V30 34076 C 3290.18 1.46684 -1.15501 0
M  V30 34077 C 3290.53 1.94595 0.250412 0
M  V30 34078 O 3289.66 1.83578 1.14578 0
M  V30 34079 C 3290.25 2.66603 -2.09065 0
M  V30 34080 C 3288.81 3.19302 -1.99307 0
M  V30 34081 C 3287.96 1.91996 -2.00082 0
M  V30 34082 H 3290.91 0.712748 -1.41794 0
M  V30 34083 H 3290.93 3.42285 -1.66196 0
M  V30 34084 H 3290.44 2.31702 -3.11345 0
M  V30 34085 H 3288.55 3.589 -1.00109 0
M  V30 34086 H 3288.66 3.83705 -2.86892 0
M  V30 34087 H 3287.02 2.09633 -1.44658 0
M  V30 34088 H 3287.81 1.59374 -3.04064 0
M  V30 34089 N 3290.25 1.11738 1.11141 0
M  V30 34090 C 3291.16 0.791369 2.2085 0
M  V30 34091 C 3292.18 -0.216803 1.72644 0
M  V30 34092 O 3293.35 -0.0522048 2.01332 0
M  V30 34093 C 3290.42 0.242755 3.45849 0
M  V30 34094 C 3289.48 1.30993 4.08827 0
M  V30 34095 C 3288.71 0.787398 5.2786 0
M  V30 34096 O 3288.93 -0.381449 5.69123 0
M  V30 34097 O 3287.87 1.55363 5.81503 0
M  V30 34098 H 3291.69 1.70748 2.51155 0
M  V30 34099 H 3289.28 0.893499 1.19737 0
M  V30 34100 H 3291.16 -0.0586732 4.21359 0
M  V30 34101 H 3289.84 -0.646023 3.17188 0
M  V30 34102 H 3288.74 1.66442 3.35034 0
M  V30 34103 H 3290.08 2.17221 4.41674 0
M  V30 34104 N 3291.73 -1.28802 0.90817 0
M  V30 34105 C 3292.98 -1.94825 0.537374 0
M  V30 34106 C 3293.3 -1.71883 -0.920932 0
M  V30 34107 O 3292.57 -1.05537 -1.65042 0
M  V30 34108 H 3291.15 -0.720898 0.195742 0
M  V30 34109 H 3293.81 -1.56893 1.15631 0
M  V30 34110 H 3292.91 -3.03512 0.727105 0
M  V30 34111 N 3293.21 -0.67155 -1.42576 0
M  V30 34112 C 3294.62 -0.270116 -1.84736 0
M  V30 34113 C 3294.97 1.18708 -1.56214 0
M  V30 34114 O 3294.09 1.90836 -1.02031 0
M  V30 34115 C 3294.69 -0.483468 -3.35333 0
M  V30 34116 C 3293.25 -0.136185 -3.76154 0
M  V30 34117 C 3292.39 -0.777491 -2.66177 0
M  V30 34118 H 3295.35 -0.873943 -1.32469 0
M  V30 34119 H 3295.37 0.265416 -3.79573 0
M  V30 34120 H 3294.88 -1.54412 -3.5606 0
M  V30 34121 H 3292.98 0.921145 -3.61034 0
M  V30 34122 H 3293.09 -0.574439 -4.75644 0
M  V30 34123 H 3291.46 -0.209099 -2.5384 0
M  V30 34124 H 3292.24 -1.84153 -2.89729 0
M  V30 34125 N 3294.68 1.52047 -0.414663 0
M  V30 34126 C 3295.91 2.06291 0.15865 0
M  V30 34127 C 3296.33 1.28423 1.38395 0
M  V30 34128 O 3295.68 0.33757 1.79351 0
M  V30 34129 C 3295.74 3.57975 0.503571 0
M  V30 34130 O 3295.46 4.32899 -0.673072 0
M  V30 34131 C 3296.96 4.28655 1.13002 0
M  V30 34132 H 3294.18 0.67076 0.0179504 0
M  V30 34133 H 3296.72 1.95888 -0.587212 0
M  V30 34134 H 3294.88 3.68368 1.19933 0
M  V30 34135 H 3295.29 5.23094 -0.383827 0
M  V30 34136 H 3296.76 5.35947 1.32153 0
M  V30 34137 H 3297.24 3.85486 2.10469 0
M  V30 34138 H 3297.85 4.22647 0.474305 0
M  V30 34139 N 3296.16 0.145261 1.56929 0
M  V30 34140 C 3297.09 -0.791224 2.19686 0
M  V30 34141 C 3298.07 -1.25831 1.14457 0
M  V30 34142 O 3299.26 -1.31619 1.42794 0
M  V30 34143 C 3296.39 -2.03119 2.81709 0
M  V30 34144 C 3295.34 -1.70094 3.92749 0
M  V30 34145 C 3294.67 -3.0134 4.417 0
M  V30 34146 C 3295.97 -0.948935 5.13607 0
M  V30 34147 H 3297.66 -0.268197 2.98196 0
M  V30 34148 H 3295.21 -0.127558 1.43434 0
M  V30 34149 H 3297.16 -2.69113 3.24278 0
M  V30 34150 H 3295.89 -2.57791 2.00527 0
M  V30 34151 H 3294.54 -1.06479 3.50796 0
M  V30 34152 H 3294.19 -3.53999 3.57342 0
M  V30 34153 H 3293.89 -2.80006 5.16595 0
M  V30 34154 H 3295.42 -3.68407 4.86938 0
M  V30 34155 H 3296.83 -1.51092 5.53032 0
M  V30 34156 H 3295.23 -0.835607 5.94254 0
M  V30 34157 H 3296.3 0.0596483 4.84863 0
M  V30 34158 N 3297.64 -1.57075 -0.128525 0
M  V30 34159 C 3298.57 -1.94827 -1.18818 0
M  V30 34160 C 3299.55 -0.816596 -1.40608 0
M  V30 34161 O 3300.74 -1.07391 -1.54918 0
M  V30 34162 C 3297.86 -2.23627 -2.54379 0
M  V30 34163 C 3296.91 -3.46214 -2.49074 0
M  V30 34164 S 3297.74 -4.99137 -1.93966 0
M  V30 34165 C 3298.9 -5.31079 -3.31218 0
M  V30 34166 H 3299.13 -2.84402 -0.866196 0
M  V30 34167 H 3296.66 -1.50724 -0.3349 0
M  V30 34168 H 3298.62 -2.40899 -3.32382 0
M  V30 34169 H 3297.28 -1.34683 -2.83759 0
M  V30 34170 H 3296.48 -3.63702 -3.48909 0
M  V30 34171 H 3296.08 -3.2828 -1.79188 0
M  V30 34172 H 3298.37 -5.25678 -4.27398 0
M  V30 34173 H 3299.31 -6.32393 -3.18567 0
M  V30 34174 H 3299.72 -4.58566 -3.29207 0
M  V30 34175 N 3299.12 0.398432 -1.5248 0
M  V30 34176 C 3300.54 0.737829 -1.41521 0
M  V30 34177 C 3300.74 1.94455 -0.528156 0
M  V30 34178 O 3299.79 2.525 0.00199361 0
M  V30 34179 C 3301.1 0.98175 -2.84222 0
M  V30 34180 C 3302.65 1.08381 -2.93637 0
M  V30 34181 C 3303.13 1.36042 -4.37329 0
M  V30 34182 N 3304.62 1.42884 -4.40611 0
M  V30 34183 C 3305.35 1.65934 -5.48866 0
M  V30 34184 N 3304.85 1.86518 -6.6722 0
M  V30 34185 N 3306.64 1.68036 -5.36396 0
M  V30 34186 H 3298.79 -0.395741 -2.08681 0
M  V30 34187 H 3301.06 -0.114818 -0.941021 0
M  V30 34188 H 3300.76 0.167296 -3.51302 0
M  V30 34189 H 3300.64 1.89901 -3.2591 0
M  V30 34190 H 3303.02 1.88884 -2.26731 0
M  V30 34191 H 3303.1 0.144669 -2.55391 0
M  V30 34192 H 3302.75 0.560522 -5.04798 0
M  V30 34193 H 3302.68 2.31225 -4.7312 0
M  V30 34194 H 3305.17 1.28724 -3.55301 0
M  V30 34195 H 3305.48 2.03586 -7.45502 0
M  V30 34196 H 3303.83 1.83761 -6.70266 0
M  V30 34197 H 3307.02 1.51501 -4.42905 0
M  V30 34198 H 3307.19 1.85661 -6.20833 0
M  V30 34199 N 3300.6 1.43284 0.656314 0
M  V30 34200 C 3301.53 1.51007 1.78098 0
M  V30 34201 C 3302.51 0.365009 1.66138 0
M  V30 34202 O 3303.69 0.581811 1.8528 0
M  V30 34203 C 3300.82 1.42967 3.16509 0
M  V30 34204 C 3299.78 2.55691 3.43229 0
M  V30 34205 C 3299.1 2.32705 4.81407 0
M  V30 34206 C 3300.4 3.97949 3.38281 0
M  V30 34207 H 3302.1 2.4514 1.71892 0
M  V30 34208 H 3299.64 1.17986 0.825554 0
M  V30 34209 H 3301.6 1.46975 3.94938 0
M  V30 34210 H 3300.32 0.453376 3.23438 0
M  V30 34211 H 3298.98 2.51031 2.67168 0
M  V30 34212 H 3298.63 1.33325 4.85009 0
M  V30 34213 H 3298.33 3.08266 5.00246 0
M  V30 34214 H 3299.85 2.38491 5.62098 0
M  V30 34215 H 3301.27 4.04113 4.06652 0
M  V30 34216 H 3299.66 4.73511 3.68656 0
M  V30 34217 H 3300.73 4.23305 2.36518 0
M  V30 34218 N 3302.08 -0.894389 1.29763 0
M  V30 34219 C 3303.02 -2.02048 1.15236 0
M  V30 34220 C 3304.02 -1.69269 0.0665962 0
M  V30 34221 O 3305.22 -1.78566 0.226777 0
M  V30 34222 H 3301.6 -0.662335 0.356114 0
M  V30 34223 H 3303.57 -2.11438 2.10562 0
M  V30 34224 C 3302.32 -3.3712 0.851202 0
M  V30 34225 H 3301.64 -3.62849 1.67872 0
M  V30 34226 H 3303.08 -4.16583 0.789613 0
M  V30 34227 C 3301.54 -3.33939 -0.445678 0
M  V30 34228 O 3302.07 -3.73832 -1.47011 0
M  V30 34229 N 3300.28 -2.87041 -0.453443 0
M  V30 34230 H 3299.82 -2.54772 0.380681 0
M  V30 34231 H 3299.78 -2.85295 -1.32114 0
M  V30 34232 N 3303.55 -1.12326 -1.10547 0
M  V30 34233 C 3304.78 -0.900959 -1.86809 0
M  V30 34234 C 3305.2 0.544399 -1.8005 0
M  V30 34235 O 3304.56 1.38528 -1.1696 0
M  V30 34236 C 3304.61 -1.37889 -3.33195 0
M  V30 34237 O 3303.71 -0.556601 -4.08627 0
M  V30 34238 H 3303.05 -0.32379 -0.579703 0
M  V30 34239 H 3305.58 -1.49506 -1.39675 0
M  V30 34240 H 3305.59 -1.37746 -3.84044 0
M  V30 34241 H 3304.27 -2.43133 -3.37431 0
M  V30 34242 H 3302.85 -0.624924 -3.67626 0
M  V30 34243 N 3305.03 1.28319 -0.914988 0
M  V30 34244 C 3306.28 1.95211 -0.549596 0
M  V30 34245 C 3306.61 1.71843 0.904628 0
M  V30 34246 O 3305.89 1.04012 1.64352 0
M  V30 34247 C 3306.17 3.49656 -0.860988 0
M  V30 34248 C 3306.02 3.82419 -2.36803 0
M  V30 34249 C 3307.34 4.38641 -0.358003 0
M  V30 34250 H 3304.46 0.709019 -0.201148 0
M  V30 34251 H 3307.1 1.51665 -1.14446 0
M  V30 34252 H 3305.25 3.86877 -0.354733 0
M  V30 34253 H 3306.92 3.5506 -2.945 0
M  V30 34254 H 3305.17 3.29419 -2.82251 0
M  V30 34255 H 3305.84 4.90273 -2.53646 0
M  V30 34256 H 3308.31 4.08499 -0.791708 0
M  V30 34257 H 3307.19 5.45556 -0.60495 0
M  V30 34258 H 3307.45 4.35834 0.741698 0
M  V30 34259 N 3306.51 0.679102 1.42218 0
M  V30 34260 C 3307.44 -0.0355427 2.29172 0
M  V30 34261 C 3308.45 -0.761158 1.4391 0
M  V30 34262 O 3309.64 -0.6146 1.67586 0
M  V30 34263 C 3306.74 -1.07413 3.21428 0
M  V30 34264 C 3305.92 -0.421471 4.35365 0
M  V30 34265 C 3304.98 -1.36042 5.0831 0
M  V30 34266 O 3304 -0.859088 5.6268 0
M  V30 34267 N 3305.2 -2.69353 5.14227 0
M  V30 34268 H 3307.97 0.710916 2.91146 0
M  V30 34269 H 3305.53 0.523848 1.53191 0
M  V30 34270 H 3307.52 -1.70364 3.67094 0
M  V30 34271 H 3306.09 -1.72228 2.60876 0
M  V30 34272 H 3305.31 0.387628 3.9229 0
M  V30 34273 H 3306.6 0.0330315 5.08789 0
M  V30 34274 H 3306 -3.12619 4.71472 0
M  V30 34275 H 3304.55 -3.27541 5.63525 0
M  V30 34276 N 3307.99 -1.51825 0.42272 0
M  V30 34277 C 3309.21 -2.06856 -0.150133 0
M  V30 34278 C 3309.64 -1.2895 -1.36943 0
M  V30 34279 O 3309 -0.323412 -1.78392 0
M  V30 34280 C 3309.04 -3.57583 -0.4655 0
M  V30 34281 O 3308.15 -3.81986 -1.55435 0
M  V30 34282 H 3307.49 -0.663949 -0.00826764 0
M  V30 34283 H 3310.02 -1.95609 0.599841 0
M  V30 34284 H 3310.03 -4.01593 -0.720209 0
M  V30 34285 H 3308.7 -4.13715 0.425752 0
M  V30 34286 H 3307.28 -3.49849 -1.29075 0
M  V30 34287 N 3309.47 -0.153581 -1.5685 0
M  V30 34288 C 3310.69 0.505869 -2.01136 0
M  V30 34289 C 3311.12 1.57194 -1.03304 0
M  V30 34290 O 3310.47 1.81297 -0.00979208 0
M  V30 34291 C 3310.52 1.07734 -3.44131 0
M  V30 34292 O 3309.63 2.19199 -3.49321 0
M  V30 34293 H 3308.97 0.123051 -0.652499 0
M  V30 34294 H 3311.5 -0.252252 -2.03039 0
M  V30 34295 H 3311.51 1.40437 -3.83068 0
M  V30 34296 H 3310.18 0.296681 -4.1484 0
M  V30 34297 H 3308.76 1.87675 -3.22231 0
M  V30 34298 N 3310.94 1.57141 0.120193 0
M  V30 34299 C 3311.85 2.03551 1.16637 0
M  V30 34300 C 3312.87 0.955682 1.45405 0
M  V30 34301 O 3314.05 1.26711 1.56545 0
M  V30 34302 C 3311.11 2.42952 2.47336 0
M  V30 34303 C 3310.17 3.65012 2.25976 0
M  V30 34304 C 3309.4 4.02524 3.50442 0
M  V30 34305 O 3309.63 3.40392 4.577 0
M  V30 34306 O 3308.56 4.95632 3.41515 0
M  V30 34307 H 3312.39 2.92912 0.802272 0
M  V30 34308 H 3309.97 1.45689 0.330901 0
M  V30 34309 H 3311.85 2.69035 3.24343 0
M  V30 34310 H 3310.53 1.56738 2.83222 0
M  V30 34311 H 3309.44 3.44081 1.46831 0
M  V30 34312 H 3310.77 4.51927 1.94994 0
M  V30 34313 N 3312.42 -0.39034 1.5269 0
M  V30 34314 C 3313.84 -0.730313 1.4191 0
M  V30 34315 C 3314.04 -1.94172 0.538461 0
M  V30 34316 O 3313.09 -2.52497 0.0113971 0
M  V30 34317 C 3314.41 -0.966663 2.84739 0
M  V30 34318 C 3315.96 -1.06822 2.94208 0
M  V30 34319 C 3316.43 -1.33721 4.38044 0
M  V30 34320 N 3317.92 -1.40545 4.41363 0
M  V30 34321 C 3318.66 -1.63021 5.49738 0
M  V30 34322 N 3318.15 -1.82976 6.682 0
M  V30 34323 N 3319.95 -1.65189 5.37279 0
M  V30 34324 H 3312.1 0.406803 2.08468 0
M  V30 34325 H 3314.36 0.119807 0.940399 0
M  V30 34326 H 3314.07 -0.148664 3.51386 0
M  V30 34327 H 3313.94 -1.8817 3.26913 0
M  V30 34328 H 3316.33 -1.87679 2.27729 0
M  V30 34329 H 3316.41 -0.131123 2.55464 0
M  V30 34330 H 3316.05 -0.533743 5.05088 0
M  V30 34331 H 3315.98 -2.28713 4.7434 0
M  V30 34332 H 3318.47 -1.26838 3.55978 0
M  V30 34333 H 3318.79 -1.9963 7.46571 0
M  V30 34334 H 3317.13 -1.80204 6.71231 0
M  V30 34335 H 3320.32 -1.4915 4.43702 0
M  V30 34336 H 3320.49 -1.82366 6.21809 0
M  V30 34337 N 3313.9 -1.4363 -0.648706 0
M  V30 34338 C 3315.31 -1.40457 -1.22998 0
M  V30 34339 C 3315.66 -0.110931 -1.95886 0
M  V30 34340 O 3314.79 0.789451 -2.01486 0
M  V30 34341 C 3315.38 -2.54438 -2.23712 0
M  V30 34342 C 3313.94 -2.54515 -2.77306 0
M  V30 34343 C 3313.09 -2.31917 -1.5202 0
M  V30 34344 H 3316.04 -1.52466 -0.440446 0
M  V30 34345 H 3316.06 -2.26185 -3.05975 0
M  V30 34346 H 3315.57 -3.48577 -1.70634 0
M  V30 34347 H 3313.67 -1.64269 -3.34435 0
M  V30 34348 H 3313.79 -3.52432 -3.24544 0
M  V30 34349 H 3312.15 -1.8067 -1.79528 0
M  V30 34350 H 3312.93 -3.28146 -1.0087 0
M  V30 34351 N 3315.38 0.887495 -1.30236 0
M  V30 34352 C 3316.31 2.00917 -1.18973 0
M  V30 34353 C 3317.29 1.69907 -0.0809818 0
M  V30 34354 O 3318.47 1.92417 -0.26258 0
M  V30 34355 C 3315.6 3.36015 -0.878153 0
M  V30 34356 C 3314.56 3.81275 -1.94456 0
M  V30 34357 C 3313.88 5.13635 -1.48603 0
M  V30 34358 C 3315.18 4.00275 -3.35526 0
M  V30 34359 H 3316.88 2.10598 -2.12812 0
M  V30 34360 H 3314.42 1.01187 -1.02456 0
M  V30 34361 H 3316.38 4.14004 -0.786027 0
M  V30 34362 H 3315.1 3.26459 0.0959205 0
M  V30 34363 H 3313.76 3.05512 -2.02628 0
M  V30 34364 H 3313.41 5.00506 -0.500292 0
M  V30 34365 H 3313.11 5.44889 -2.1993 0
M  V30 34366 H 3314.63 5.94153 -1.40764 0
M  V30 34367 H 3316.05 4.6871 -3.30127 0
M  V30 34368 H 3314.44 4.42901 -4.04918 0
M  V30 34369 H 3315.51 3.04211 -3.77602 0
M  V30 34370 N 3316.86 1.12911 1.0995 0
M  V30 34371 C 3318.1 0.887514 1.82015 0
M  V30 34372 C 3318.43 -0.586514 1.85446 0
M  V30 34373 O 3317.69 -1.44982 1.31448 0
M  V30 34374 C 3317.99 1.41375 3.2825 0
M  V30 34375 C 3317.65 2.90368 3.44959 0
M  V30 34376 C 3316.31 3.31049 3.49227 0
M  V30 34377 C 3318.67 3.86253 3.4994 0
M  V30 34378 C 3315.99 4.66311 3.56049 0
M  V30 34379 C 3318.35 5.21351 3.58296 0
M  V30 34380 C 3317.01 5.61567 3.6083 0
M  V30 34381 H 3316.28 0.324764 0.66604 0
M  V30 34382 H 3318.93 1.41014 1.29566 0
M  V30 34383 H 3317.23 0.811697 3.833 0
M  V30 34384 H 3318.93 1.20296 3.82531 0
M  V30 34385 H 3315.52 2.57907 3.42318 0
M  V30 34386 H 3319.7 3.55914 3.45888 0
M  V30 34387 H 3314.96 4.96853 3.56296 0
M  V30 34388 H 3319.13 5.9547 3.61094 0
M  V30 34389 H 3316.76 6.66366 3.65869 0
M  V30 34390 N 3318.33 -1.27832 0.92178 0
M  V30 34391 C 3319.26 -2.29441 0.433506 0
M  V30 34392 C 3320.25 -1.6249 -0.503104 0
M  V30 34393 O 3321.43 -1.89842 -0.409122 0
M  V30 34394 C 3318.56 -3.45823 -0.319968 0
M  V30 34395 C 3317.51 -4.24728 0.528253 0
M  V30 34396 C 3316.84 -5.33527 -0.354038 0
M  V30 34397 C 3318.14 -4.90681 1.78967 0
M  V30 34398 H 3319.83 -2.70532 1.28268 0
M  V30 34399 H 3317.38 -1.30054 0.61822 0
M  V30 34400 H 3319.33 -4.16 -0.672453 0
M  V30 34401 H 3318.06 -3.03633 -1.20311 0
M  V30 34402 H 3316.72 -3.56289 0.863364 0
M  V30 34403 H 3316.36 -4.87579 -1.23596 0
M  V30 34404 H 3316.06 -5.87225 0.209958 0
M  V30 34405 H 3317.59 -6.06549 -0.702226 0
M  V30 34406 H 3319 -5.53176 1.50561 0
M  V30 34407 H 3317.4 -5.54411 2.2967 0
M  V30 34408 H 3318.47 -4.14717 2.51273 0
M  V30 34409 N 3319.81 -0.686634 -1.41856 0
M  V30 34410 C 3321.06 -0.214153 -2.01666 0
M  V30 34411 C 3321.39 1.18022 -1.54222 0
M  V30 34412 O 3320.67 1.79479 -0.749514 0
M  V30 34413 C 3320.95 -0.261905 -3.59146 0
M  V30 34414 C 3320.8 -1.69258 -4.16739 0
M  V30 34415 C 3322.12 0.383301 -4.38428 0
M  V30 34416 H 3319.24 -0.0792914 -0.732722 0
M  V30 34417 H 3321.88 -0.873663 -1.68722 0
M  V30 34418 H 3320.03 0.299642 -3.87343 0
M  V30 34419 H 3321.7 -2.30729 -3.99452 0
M  V30 34420 H 3319.95 -2.22956 -3.7212 0
M  V30 34421 H 3320.62 -1.67759 -5.25891 0
M  V30 34422 H 3323.09 -0.0948432 -4.15992 0
M  V30 34423 H 3321.97 0.319305 -5.4797 0
M  V30 34424 H 3322.23 1.46269 -4.17202 0
M  V30 34425 N 3321.29 1.51599 -0.430766 0
M  V30 34426 C 3322.24 2.24432 0.401789 0
M  V30 34427 C 3323.22 1.26401 0.995566 0
M  V30 34428 O 3324.42 1.51527 0.914796 0
M  V30 34429 C 3321.55 3.08501 1.50605 0
M  V30 34430 C 3320.63 4.13957 0.921987 0
M  V30 34431 N 3321.02 5.05756 0.0665023 0
M  V30 34432 C 3319.32 4.29824 1.19026 0
M  V30 34433 C 3320.02 5.81115 -0.260815 0
M  V30 34434 N 3319 5.42447 0.353896 0
M  V30 34435 H 3322.8 2.92767 -0.257864 0
M  V30 34436 H 3320.31 1.6058 -0.242449 0
M  V30 34437 H 3322.31 3.59251 2.11529 0
M  V30 34438 H 3320.97 2.41709 2.1681 0
M  V30 34439 H 3321.98 5.17034 -0.299447 0
M  V30 34440 H 3318.66 3.7426 1.8503 0
M  V30 34441 H 3320.05 6.65056 -0.956559 0
M  V30 34442 N 3322.77 0.161897 1.56766 0
M  V30 34443 C 3324.18 -0.356434 1.83266 0
M  V30 34444 C 3324.53 -1.63715 1.08129 0
M  V30 34445 O 3323.66 -2.13849 0.331308 0
M  V30 34446 C 3324.25 -0.653463 3.32438 0
M  V30 34447 C 3322.81 -1.11626 3.59467 0
M  V30 34448 C 3321.96 -0.147155 2.76909 0
M  V30 34449 H 3324.91 0.386335 1.53926 0
M  V30 34450 H 3324.93 -1.50655 3.49404 0
M  V30 34451 H 3324.44 0.278835 3.87097 0
M  V30 34452 H 3322.54 -2.06399 3.1021 0
M  V30 34453 H 3322.65 -1.03194 4.67855 0
M  V30 34454 H 3321.02 -0.642696 2.46458 0
M  V30 34455 H 3321.8 0.778996 3.34345 0
M  V30 34456 N 3324.25 -1.57203 -0.111858 0
M  V30 34457 C 3325.5 -1.84413 -0.81699 0
M  V30 34458 C 3325.81 -0.74864 -1.80706 0
M  V30 34459 O 3327.01 -0.907364 -2.55889 0
M  V30 34460 C 3325.47 -3.26981 -1.50371 0
M  V30 34461 C 3325.08 -4.44558 -0.554256 0
M  V30 34462 C 3326.82 -3.63433 -2.19355 0
M  V30 34463 C 3324.73 -5.78155 -1.2446 0
M  V30 34464 H 3323.66 -0.687842 -0.308852 0
M  V30 34465 H 3326.31 -1.83367 -0.0697786 0
M  V30 34466 H 3324.69 -3.22518 -2.29779 0
M  V30 34467 H 3325.87 -4.60334 0.207126 0
M  V30 34468 H 3324.18 -4.1639 0.0289993 0
M  V30 34469 H 3326.78 -4.6052 -2.71708 0
M  V30 34470 H 3327.12 -2.91221 -2.97483 0
M  V30 34471 H 3327.65 -3.69712 -1.46826 0
M  V30 34472 H 3324.39 -6.53556 -0.504469 0
M  V30 34473 H 3323.91 -5.66253 -1.97782 0
M  V30 34474 H 3325.59 -6.22153 -1.7758 0
M  V30 34475 N 3325.72 0.382237 -1.52894 0
M  V30 34476 C 3326.63 1.49147 -1.81087 0
M  V30 34477 C 3327.65 1.59383 -0.698073 0
M  V30 34478 O 3328.83 1.75592 -0.986381 0
M  V30 34479 C 3325.89 2.84605 -1.97992 0
M  V30 34480 C 3324.95 2.84034 -3.21905 0
M  V30 34481 C 3324.19 4.13031 -3.37995 0
M  V30 34482 O 3324.41 5.08339 -2.58742 0
M  V30 34483 O 3323.34 4.19858 -4.3128 0
M  V30 34484 H 3327.17 1.28252 -2.75291 0
M  V30 34485 H 3324.75 0.570735 -1.38069 0
M  V30 34486 H 3326.64 3.64897 -2.1078 0
M  V30 34487 H 3325.31 3.05512 -1.06978 0
M  V30 34488 H 3324.22 2.02499 -3.14555 0
M  V30 34489 H 3325.55 2.6808 -4.12788 0
M  V30 34490 N 3327.2 1.43972 0.64108 0
M  V30 34491 C 3328.45 1.45942 1.39805 0
M  V30 34492 C 3328.77 0.0894216 1.94795 0
M  V30 34493 O 3328.04 -0.876931 1.75176 0
M  V30 34494 H 3326.62 0.537358 0.518898 0
M  V30 34495 H 3329.28 1.79672 0.755246 0
M  V30 34496 H 3328.38 2.17907 2.23435 0
M  V30 34497 N 3328.68 -0.880575 1.30704 0
M  V30 34498 C 3329.91 -1.67103 1.22846 0
M  V30 34499 C 3330.33 -1.86982 -0.204755 0
M  V30 34500 O 3329.69 -1.40394 -1.14713 0
M  V30 34501 C 3329.74 -3.02234 1.9669 0
M  V30 34502 O 3328.84 -3.91474 1.297 0
M  V30 34503 H 3328.18 -0.510442 0.42467 0
M  V30 34504 H 3330.71 -1.09868 1.72598 0
M  V30 34505 H 3330.72 -3.52246 2.05881 0
M  V30 34506 H 3329.4 -2.87085 3.00924 0
M  V30 34507 H 3327.97 -3.49916 1.28892 0
M  V30 34508 N 3330.16 -1.13492 -1.09349 0
M  V30 34509 C 3331.39 -0.920356 -1.85303 0
M  V30 34510 C 3331.8 0.530851 -1.81183 0
M  V30 34511 O 3331.16 1.36748 -1.20856 0
M  V30 34512 C 3331.21 -1.40104 -3.33246 0
M  V30 34513 O 3330.93 -2.79537 -3.37328 0
M  V30 34514 C 3332.43 -1.22502 -4.26038 0
M  V30 34515 H 3329.65 -0.328144 -0.585288 0
M  V30 34516 H 3332.2 -1.50767 -1.38165 0
M  V30 34517 H 3330.35 -0.856707 -3.77809 0
M  V30 34518 H 3330.77 -3.00893 -4.29609 0
M  V30 34519 H 3332.24 -1.61009 -5.27996 0
M  V30 34520 H 3332.72 -0.166794 -4.38883 0
M  V30 34521 H 3333.32 -1.75742 -3.87292 0
M  V30 34522 N 3331.64 1.27341 -0.928546 0
M  V30 34523 C 3332.87 1.98435 -0.585769 0
M  V30 34524 C 3333.28 1.69262 0.83641 0
M  V30 34525 O 3332.64 0.953653 1.55601 0
M  V30 34526 C 3332.69 3.52465 -0.803154 0
M  V30 34527 O 3332.41 3.80617 -2.16938 0
M  V30 34528 C 3333.91 4.4081 -0.469205 0
M  V30 34529 H 3331.13 0.633247 -0.221898 0
M  V30 34530 H 3333.67 1.62173 -1.2458 0
M  V30 34531 H 3331.83 3.86934 -0.189914 0
M  V30 34532 H 3332.24 4.75201 -2.22001 0
M  V30 34533 H 3333.72 5.47894 -0.672002 0
M  V30 34534 H 3334.19 4.35147 0.595288 0
M  V30 34535 H 3334.8 4.11863 -1.06062 0
M  V30 34536 N 3333.12 0.694147 1.4149 0
M  V30 34537 C 3334.36 0.224845 2.0155 0
M  V30 34538 C 3334.69 -1.17202 1.54846 0
M  V30 34539 O 3333.97 -1.79079 0.759022 0
M  V30 34540 C 3334.25 0.280947 3.59002 0
M  V30 34541 C 3334.11 1.71466 4.15836 0
M  V30 34542 C 3335.42 -0.360045 4.38625 0
M  V30 34543 H 3332.54 0.0831761 0.732291 0
M  V30 34544 H 3335.19 0.882598 1.68256 0
M  V30 34545 H 3333.34 -0.279096 3.87496 0
M  V30 34546 H 3335.01 2.32844 3.98223 0
M  V30 34547 H 3333.25 2.24926 3.70932 0
M  V30 34548 H 3333.92 1.70546 5.24994 0
M  V30 34549 H 3336.4 0.116903 4.15936 0
M  V30 34550 H 3335.27 -0.29024 5.48132 0
M  V30 34551 H 3335.53 -1.44054 4.17972 0
M  V30 34552 N 3334.59 -1.51368 0.438799 0
M  V30 34553 C 3335.84 -2.021 -0.127177 0
M  V30 34554 C 3336.17 -1.32287 -1.42585 0
M  V30 34555 O 3335.42 -0.426982 -1.90985 0
M  V30 34556 C 3335.72 -3.55246 -0.391797 0
M  V30 34557 C 3335.39 -4.43358 0.821236 0
M  V30 34558 C 3334.05 -4.6716 1.15389 0
M  V30 34559 C 3336.4 -4.95043 1.63039 0
M  V30 34560 C 3333.73 -5.39893 2.29636 0
M  V30 34561 C 3336.08 -5.69029 2.76386 0
M  V30 34562 C 3334.75 -5.91094 3.10104 0
M  V30 34563 H 3334.02 -0.739537 -0.0465375 0
M  V30 34564 H 3336.66 -1.82304 0.586293 0
M  V30 34565 H 3334.97 -3.73381 -1.18718 0
M  V30 34566 H 3336.67 -3.92035 -0.843159 0
M  V30 34567 H 3333.26 -4.2503 0.55202 0
M  V30 34568 H 3337.44 -4.76537 1.38659 0
M  V30 34569 H 3332.7 -5.55191 2.56072 0
M  V30 34570 H 3336.87 -6.08066 3.39453 0
M  V30 34571 H 3334.5 -6.47231 3.98743 0
M  V30 34572 N 3336.07 -0.170208 -1.56678 0
M  V30 34573 C 3337.02 0.772781 -2.14504 0
M  V30 34574 C 3338.01 1.1936 -1.07898 0
M  V30 34575 O 3339.2 1.15614 -1.34023 0
M  V30 34576 C 3336.33 2.00248 -2.78847 0
M  V30 34577 C 3335.41 1.6037 -3.9261 0
M  V30 34578 N 3335.8 0.914431 -4.97465 0
M  V30 34579 C 3334.1 1.8948 -4.03749 0
M  V30 34580 C 3334.8 0.718241 -5.77249 0
M  V30 34581 N 3333.78 1.25933 -5.28812 0
M  V30 34582 H 3337.58 0.23718 -2.92941 0
M  V30 34583 H 3335.09 0.0305111 -1.62371 0
M  V30 34584 H 3337.09 2.68826 -3.18651 0
M  V30 34585 H 3335.75 2.54304 -2.0189 0
M  V30 34586 H 3336.76 0.572602 -5.14725 0
M  V30 34587 H 3333.44 2.45221 -3.37895 0
M  V30 34588 H 3334.83 0.173255 -6.71677 0
M  V30 34589 N 3337.55 1.5726 0.10352 0
M  V30 34590 C 3338.77 1.90233 0.826207 0
M  V30 34591 C 3339.2 0.763671 1.719 0
M  V30 34592 O 3338.56 -0.285149 1.79044 0
M  V30 34593 C 3338.61 3.22031 1.62259 0
M  V30 34594 O 3337.71 3.09028 2.73086 0
M  V30 34595 H 3337.05 0.623804 0.227517 0
M  V30 34596 H 3339.58 2.04439 0.0812711 0
M  V30 34597 H 3339.59 3.55133 2.00859 0
M  V30 34598 H 3338.27 4.04495 0.967312 0
M  V30 34599 H 3336.84 2.87424 2.37575 0
M  V30 34600 N 3339.03 -0.374123 1.53095 0
M  V30 34601 C 3339.96 -1.46401 1.81904 0
M  V30 34602 C 3340.94 -1.56264 0.671977 0
M  V30 34603 O 3342.12 -1.70971 0.921008 0
M  V30 34604 C 3339.25 -2.83842 2.00128 0
M  V30 34605 C 3338.21 -2.88809 3.15869 0
M  V30 34606 C 3337.53 -4.28842 3.19372 0
M  V30 34607 C 3338.83 -2.57104 4.54637 0
M  V30 34608 H 3340.53 -1.22542 2.73174 0
M  V30 34609 H 3338.07 -0.588064 1.31445 0
M  V30 34610 H 3340.03 -3.60106 2.18865 0
M  V30 34611 H 3338.75 -3.0907 1.05561 0
M  V30 34612 H 3337.41 -2.14995 2.96939 0
M  V30 34613 H 3337.06 -4.51133 2.22458 0
M  V30 34614 H 3336.76 -4.33083 3.97131 0
M  V30 34615 H 3338.28 -5.06991 3.40282 0
M  V30 34616 H 3339.7 -3.23083 4.73593 0
M  V30 34617 H 3338.09 -2.72673 5.34574 0
M  V30 34618 H 3339.16 -1.52384 4.60334 0
M  V30 34619 N 3340.51 -1.4431 -0.633436 0
M  V30 34620 C 3341.47 -1.50644 -1.7274 0
M  V30 34621 C 3342.47 -0.388746 -1.5603 0
M  V30 34622 O 3343.66 -0.651279 -1.61567 0
M  V30 34623 C 3340.79 -1.37814 -3.11801 0
M  V30 34624 H 3341.98 -2.48089 -1.68499 0
M  V30 34625 H 3339.54 -1.31368 -0.846889 0
M  V30 34626 H 3340.27 -0.414539 -3.2164 0
M  V30 34627 H 3340.06 -2.18858 -3.25336 0
M  V30 34628 H 3341.55 -1.45223 -3.91536 0
M  V30 34629 N 3341.98 0.873632 -1.3117 0
M  V30 34630 C 3343.21 1.6645 -1.23731 0
M  V30 34631 C 3343.63 1.87088 0.194836 0
M  V30 34632 O 3342.99 1.41 1.13967 0
M  V30 34633 C 3343.04 3.01186 -1.9829 0
M  V30 34634 O 3342.14 3.9078 -1.31774 0
M  V30 34635 H 3341.49 0.508183 -0.427371 0
M  V30 34636 H 3344.02 1.08952 -1.73178 0
M  V30 34637 H 3344.03 3.51149 -2.07746 0
M  V30 34638 H 3342.7 2.85485 -3.02442 0
M  V30 34639 H 3341.28 3.49228 -1.30746 0
M  V30 34640 N 3343.46 1.1407 1.08746 0
M  V30 34641 C 3344.88 0.880364 1.33123 0
M  V30 34642 C 3345.08 -0.480362 1.95691 0
M  V30 34643 O 3344.13 -1.22539 2.20772 0
M  V30 34644 C 3345.45 2.0104 2.23614 0
M  V30 34645 C 3347 2.0433 2.37104 0
M  V30 34646 C 3347.47 3.16616 3.30935 0
M  V30 34647 N 3348.96 3.16172 3.38511 0
M  V30 34648 C 3349.7 3.99694 4.11135 0
M  V30 34649 N 3349.19 4.93248 4.86496 0
M  V30 34650 N 3350.99 3.87768 4.06931 0
M  V30 34651 H 3343.14 2.01717 0.665129 0
M  V30 34652 H 3345.4 0.87878 0.355597 0
M  V30 34653 H 3345.11 2.99186 1.8488 0
M  V30 34654 H 3344.98 1.93054 3.24052 0
M  V30 34655 H 3347.37 1.06792 2.75099 0
M  V30 34656 H 3347.45 2.16387 1.3642 0
M  V30 34657 H 3347.09 4.14397 2.93662 0
M  V30 34658 H 3347.02 3.01797 4.31539 0
M  V30 34659 H 3349.51 2.4841 2.84782 0
M  V30 34660 H 3349.83 5.53451 5.39363 0
M  V30 34661 H 3348.17 4.97248 4.85561 0
M  V30 34662 H 3351.36 3.14002 3.4716 0
M  V30 34663 H 3351.53 4.53087 4.63267 0
M  V30 34664 N 3344.94 -1.26847 0.935286 0
M  V30 34665 C 3345.87 -2.28968 0.457817 0
M  V30 34666 C 3346.85 -1.63014 -0.485841 0
M  V30 34667 O 3348.04 -1.90265 -0.388964 0
M  V30 34668 C 3345.17 -3.46143 -0.283271 0
M  V30 34669 C 3344.12 -4.24143 0.573271 0
M  V30 34670 C 3343.45 -5.33872 -0.297431 0
M  V30 34671 C 3344.75 -4.88755 1.84162 0
M  V30 34672 H 3346.44 -2.69157 1.3113 0
M  V30 34673 H 3343.99 -1.29391 0.631979 0
M  V30 34674 H 3345.94 -4.1669 -0.628292 0
M  V30 34675 H 3344.66 -3.04892 -1.17084 0
M  V30 34676 H 3343.32 -3.55353 0.901105 0
M  V30 34677 H 3342.97 -4.88862 -1.18418 0
M  V30 34678 H 3342.67 -5.86969 0.272229 0
M  V30 34679 H 3344.19 -6.07259 -0.637854 0
M  V30 34680 H 3345.61 -5.51548 1.5642 0
M  V30 34681 H 3344.01 -5.51944 2.35538 0
M  V30 34682 H 3345.08 -4.12028 2.55657 0
M  V30 34683 N 3346.42 -0.701641 -1.4112 0
M  V30 34684 C 3347.64 -0.242933 -2.05972 0
M  V30 34685 C 3348.07 1.10148 -1.52476 0
M  V30 34686 O 3347.43 1.69083 -0.654253 0
M  V30 34687 C 3347.47 -0.217677 -3.59942 0
M  V30 34688 O 3346.58 0.805558 -4.04456 0
M  V30 34689 H 3345.92 -0.117178 -0.653579 0
M  V30 34690 H 3348.45 -0.958207 -1.80775 0
M  V30 34691 H 3348.46 -0.0505984 -4.07969 0
M  V30 34692 H 3347.13 -1.19884 -3.98247 0
M  V30 34693 H 3345.71 0.60734 -3.67921 0
M  V30 34694 N 3347.9 1.51133 -0.446821 0
M  V30 34695 C 3349.15 2.01354 0.118011 0
M  V30 34696 C 3349.46 1.33508 1.42951 0
M  V30 34697 O 3350.66 1.7475 2.07785 0
M  V30 34698 C 3349.12 3.58953 0.260849 0
M  V30 34699 C 3348.73 4.35743 -1.04078 0
M  V30 34700 C 3350.47 4.17292 0.778941 0
M  V30 34701 C 3348.38 5.85069 -0.863061 0
M  V30 34702 H 3347.31 0.752478 0.0478783 0
M  V30 34703 H 3349.96 1.74158 -0.578028 0
M  V30 34704 H 3348.34 3.82635 1.02011 0
M  V30 34705 H 3349.52 4.23802 -1.80911 0
M  V30 34706 H 3347.83 3.88901 -1.48812 0
M  V30 34707 H 3350.43 5.26576 0.928543 0
M  V30 34708 H 3350.77 3.77083 1.76392 0
M  V30 34709 H 3351.3 3.97724 0.0777323 0
M  V30 34710 H 3348.04 6.29707 -1.8207 0
M  V30 34711 H 3347.56 5.99649 -0.134693 0
M  V30 34712 H 3349.24 6.44907 -0.520003 0
M  V30 34713 N 3349.37 0.178515 1.56586 0
M  V30 34714 C 3350.79 -0.336976 1.83634 0
M  V30 34715 C 3351.14 -1.62558 1.0986 0
M  V30 34716 O 3350.26 -2.13485 0.353971 0
M  V30 34717 C 3350.86 -0.618166 3.33113 0
M  V30 34718 C 3349.42 -1.07808 3.60631 0
M  V30 34719 C 3348.56 -0.117777 2.7705 0
M  V30 34720 H 3351.51 0.402639 1.53507 0
M  V30 34721 H 3351.53 -1.46941 3.50982 0
M  V30 34722 H 3351.05 0.319876 3.8678 0
M  V30 34723 H 3349.15 -2.03097 3.12382 0
M  V30 34724 H 3349.26 -0.982257 4.68923 0
M  V30 34725 H 3347.62 -0.616519 2.47126 0
M  V30 34726 H 3348.41 0.814414 3.335 0
M  V30 34727 N 3350.85 -1.57312 -0.0951784 0
M  V30 34728 C 3352.08 -1.9029 -0.812237 0
M  V30 34729 C 3352.5 -0.772208 -1.72286 0
M  V30 34730 O 3351.85 0.25581 -1.80698 0
M  V30 34731 C 3351.9 -3.22884 -1.62566 0
M  V30 34732 O 3351.62 -4.31603 -0.751674 0
M  V30 34733 C 3353.13 -3.69724 -2.44579 0
M  V30 34734 H 3350.35 -0.629526 -0.232245 0
M  V30 34735 H 3352.89 -2.04372 -0.0724374 0
M  V30 34736 H 3351.04 -3.10401 -2.31797 0
M  V30 34737 H 3351.46 -5.07747 -1.31505 0
M  V30 34738 H 3352.93 -4.65197 -2.97146 0
M  V30 34739 H 3353.41 -2.97561 -3.23039 0
M  V30 34740 H 3354.02 -3.85075 -1.80547 0
M  V30 34741 N 3352.33 0.365999 -1.53291 0
M  V30 34742 C 3353.56 1.12767 -1.7311 0
M  V30 34743 C 3353.97 1.83531 -0.459694 0
M  V30 34744 O 3353.31 1.74399 0.57712 0
M  V30 34745 C 3353.37 2.20237 -2.8414 0
M  V30 34746 C 3353.04 1.69244 -4.24506 0
M  V30 34747 C 3354.03 1.15675 -5.06868 0
M  V30 34748 C 3351.72 1.7477 -4.70915 0
M  V30 34749 C 3353.71 0.68308 -6.33729 0
M  V30 34750 C 3351.4 1.27015 -5.97754 0
M  V30 34751 C 3352.4 0.738738 -6.78993 0
M  V30 34752 O 3352.09 0.268234 -8.03452 0
M  V30 34753 H 3351.82 0.343124 -0.582445 0
M  V30 34754 H 3354.37 0.430934 -2.00829 0
M  V30 34755 H 3352.6 2.93404 -2.51895 0
M  V30 34756 H 3354.29 2.81795 -2.92141 0
M  V30 34757 H 3355.06 1.10745 -4.72187 0
M  V30 34758 H 3350.94 2.15074 -4.07755 0
M  V30 34759 H 3354.48 0.267623 -6.97086 0
M  V30 34760 H 3350.38 1.31638 -6.31935 0
M  V30 34761 H 3351.15 0.387601 -8.17582 0
M  V30 34762 N 3353.81 1.44644 0.625774 0
M  V30 34763 C 3355.06 1.47417 1.38249 0
M  V30 34764 C 3355.38 0.110077 1.94689 0
M  V30 34765 O 3354.65 -0.858302 1.76097 0
M  V30 34766 H 3353.23 0.542832 0.513169 0
M  V30 34767 H 3355.89 1.80463 0.736147 0
M  V30 34768 H 3354.99 2.20264 2.21111 0
M  V30 34769 N 3355.29 -0.866663 1.31631 0
M  V30 34770 C 3356.22 -1.98999 1.22154 0
M  V30 34771 C 3357.2 -1.69757 0.108002 0
M  V30 34772 O 3358.38 -1.91975 0.293158 0
M  V30 34773 C 3355.51 -3.34575 0.931499 0
M  V30 34774 C 3354.47 -3.78134 2.00497 0
M  V30 34775 C 3353.79 -5.11206 1.56756 0
M  V30 34776 C 3355.09 -3.94886 3.41851 0
M  V30 34777 H 3356.79 -2.07186 2.16135 0
M  V30 34778 H 3354.33 -0.995444 1.04052 0
M  V30 34779 H 3356.29 -4.12701 0.851792 0
M  V30 34780 H 3355.01 -3.2657 -0.0439715 0
M  V30 34781 H 3353.67 -3.0225 2.07462 0
M  V30 34782 H 3353.32 -4.99647 0.579855 0
M  V30 34783 H 3353.02 -5.41322 2.28571 0
M  V30 34784 H 3354.54 -5.91838 1.50199 0
M  V30 34785 H 3355.95 -4.63399 3.37542 0
M  V30 34786 H 3354.35 -4.36403 4.11913 0
M  V30 34787 H 3355.42 -2.98165 3.82394 0
M  V30 34788 N 3356.77 -1.14645 -1.0814 0
M  V30 34789 C 3357.7 -0.793651 -2.1502 0
M  V30 34790 C 3358.71 0.190701 -1.61679 0
M  V30 34791 O 3359.9 -0.031401 -1.78472 0
M  V30 34792 C 3357 -0.157845 -3.38532 0
M  V30 34793 C 3356.17 -1.17761 -4.2125 0
M  V30 34794 C 3355.23 -0.56506 -5.23157 0
M  V30 34795 O 3354.26 -1.22879 -5.55778 0
M  V30 34796 N 3355.46 0.65692 -5.76771 0
M  V30 34797 H 3358.22 -1.71342 -2.4589 0
M  V30 34798 H 3355.79 -1.04124 -1.23975 0
M  V30 34799 H 3357.78 0.264515 -4.03835 0
M  V30 34800 H 3356.35 0.665114 -3.05442 0
M  V30 34801 H 3355.57 -1.77681 -3.51885 0
M  V30 34802 H 3356.86 -1.8664 -4.73332 0
M  V30 34803 H 3356.25 1.21468 -5.52505 0
M  V30 34804 H 3354.81 1.02175 -6.43742 0
M  V30 34805 N 3358.24 1.26349 -0.942 0
M  V30 34806 C 3359.48 1.95472 -0.597496 0
M  V30 34807 C 3359.85 1.72267 0.84782 0
M  V30 34808 O 3361.05 2.35201 1.3013 0
M  V30 34809 C 3359.32 3.4505 -0.931402 0
M  V30 34810 S 3360.88 4.3322 -0.697567 0
M  V30 34811 H 3357.7 0.676094 -0.220042 0
M  V30 34812 H 3360.3 1.5328 -1.21349 0
M  V30 34813 H 3359 3.5944 -1.98069 0
M  V30 34814 H 3358.53 3.92215 -0.305164 0
M  V30 34815 H 3360.55 4.94265 0.437828 0
M  V30 34816 N 3359.72 0.709115 1.40746 0
M  V30 34817 C 3360.95 0.255294 2.05319 0
M  V30 34818 C 3361.36 -1.10052 1.53408 0
M  V30 34819 O 3360.72 -1.69038 0.687934 0
M  V30 34820 C 3360.77 0.219314 3.60834 0
M  V30 34821 O 3360.49 1.52158 4.10828 0
M  V30 34822 C 3361.99 -0.253849 4.42573 0
M  V30 34823 H 3359.21 0.115971 0.660902 0
M  V30 34824 H 3361.76 0.965505 1.80273 0
M  V30 34825 H 3359.91 -0.441815 3.84872 0
M  V30 34826 H 3360.33 1.41773 5.04976 0
M  V30 34827 H 3361.8 -0.227883 5.51529 0
M  V30 34828 H 3362.28 -1.29497 4.19675 0
M  V30 34829 H 3362.88 0.376768 4.23628 0
M  V30 34830 N 3361.2 -1.50894 0.454829 0
M  V30 34831 C 3362.62 -1.59234 0.108065 0
M  V30 34832 C 3362.82 -1.46437 -1.38414 0
M  V30 34833 O 3361.87 -1.31452 -2.15584 0
M  V30 34834 C 3363.18 -2.93728 0.643773 0
M  V30 34835 C 3364.73 -3.07082 0.605757 0
M  V30 34836 C 3365.21 -4.44127 1.11873 0
M  V30 34837 N 3366.7 -4.50494 1.07745 0
M  V30 34838 C 3367.43 -5.54893 1.44505 0
M  V30 34839 N 3366.93 -6.66625 1.88635 0
M  V30 34840 N 3368.72 -5.45347 1.36211 0
M  V30 34841 H 3360.87 -1.57456 1.42553 0
M  V30 34842 H 3363.14 -0.743203 0.588517 0
M  V30 34843 H 3362.84 -3.08517 1.68849 0
M  V30 34844 H 3362.72 -3.77119 0.0783067 0
M  V30 34845 H 3365.1 -2.9195 -0.430013 0
M  V30 34846 H 3365.18 -2.25488 1.20783 0
M  V30 34847 H 3364.83 -4.60006 2.15305 0
M  V30 34848 H 3364.76 -5.24287 0.493025 0
M  V30 34849 H 3367.25 -3.7031 0.753591 0
M  V30 34850 H 3367.56 -7.42326 2.14876 0
M  V30 34851 H 3365.91 -6.67787 1.92576 0
M  V30 34852 H 3369.1 -4.56944 1.01587 0
M  V30 34853 H 3369.27 -6.26592 1.65186 0
M  V30 34854 N 3362.68 -0.186817 -1.56489 0
M  V30 34855 C 3363.64 0.723558 -2.17479 0
M  V30 34856 C 3364.64 1.14697 -1.127 0
M  V30 34857 O 3365.83 1.06141 -1.3813 0
M  V30 34858 C 3362.96 1.9868 -2.77018 0
M  V30 34859 H 3364.16 0.19235 -2.99283 0
M  V30 34860 H 3361.71 0.0627879 -1.56174 0
M  V30 34861 H 3362.44 2.56072 -1.98991 0
M  V30 34862 H 3362.23 1.69201 -3.53714 0
M  V30 34863 H 3363.72 2.63616 -3.23877 0
M  V30 34864 N 3364.16 1.57361 0.0868344 0
M  V30 34865 C 3365.12 2.01675 1.08903 0
M  V30 34866 C 3366.12 0.911486 1.32471 0
M  V30 34867 O 3367.31 1.17676 1.28445 0
M  V30 34868 C 3364.44 2.38453 2.43625 0
M  V30 34869 H 3365.63 2.91437 0.707409 0
M  V30 34870 H 3363.19 1.52731 0.332127 0
M  V30 34871 H 3363.92 1.5167 2.86647 0
M  V30 34872 H 3363.71 3.19093 2.27864 0
M  V30 34873 H 3365.2 2.73366 3.15691 0
M  V30 34874 N 3365.63 -0.357865 1.53483 0
M  V30 34875 C 3367.04 -0.934261 1.61643 0
M  V30 34876 C 3367.4 -1.90017 0.488688 0
M  V30 34877 O 3366.52 -2.1297 -0.383743 0
M  V30 34878 C 3367.12 -1.70124 2.9299 0
M  V30 34879 C 3365.67 -2.22687 3.03459 0
M  V30 34880 C 3364.82 -1.0416 2.56994 0
M  V30 34881 H 3367.77 -0.136424 1.58113 0
M  V30 34882 H 3367.79 -2.56305 2.81226 0
M  V30 34883 H 3367.31 -0.99799 3.75049 0
M  V30 34884 H 3365.41 -2.96231 2.26004 0
M  V30 34885 H 3365.52 -2.50039 4.08677 0
M  V30 34886 H 3363.88 -1.41084 2.12055 0
M  V30 34887 H 3364.67 -0.353212 3.41478 0
M  V30 34888 N 3367.11 -1.44974 -0.618094 0
M  V30 34889 C 3368.04 -1.55676 -1.74032 0
M  V30 34890 C 3369.02 -0.408929 -1.65111 0
M  V30 34891 O 3370.21 -0.63073 -1.83672 0
M  V30 34892 C 3367.34 -1.51308 -3.12607 0
M  V30 34893 C 3366.29 -2.64701 -3.36329 0
M  V30 34894 C 3365.62 -2.45386 -4.75068 0
M  V30 34895 C 3366.92 -4.06778 -3.27611 0
M  V30 34896 H 3368.61 -2.49611 -1.65332 0
M  V30 34897 H 3366.16 -1.20133 -0.793982 0
M  V30 34898 H 3368.11 -1.57394 -3.90903 0
M  V30 34899 H 3366.83 -0.538971 -3.22122 0
M  V30 34900 H 3365.49 -2.58026 -2.60419 0
M  V30 34901 H 3365.14 -1.46138 -4.81303 0
M  V30 34902 H 3364.84 -3.21421 -4.91897 0
M  V30 34903 H 3366.37 -2.5331 -5.55577 0
M  V30 34904 H 3367.78 -4.14753 -3.95794 0
M  V30 34905 H 3366.18 -4.83119 -3.55972 0
M  V30 34906 H 3367.25 -4.29427 -2.25212 0
M  V30 34907 N 3368.59 0.85967 -1.32089 0
M  V30 34908 C 3369.87 1.59666 -1.12987 0
M  V30 34909 C 3370.25 2.08787 0.311624 0
M  V30 34910 O 3369.59 1.87399 1.30743 0
M  V30 34911 C 3369.8 2.74669 -2.1531 0
M  V30 34912 C 3371.15 3.44375 -2.48377 0
M  V30 34913 O 3372.18 2.84888 -2.13816 0
M  V30 34914 O 3371.04 4.51712 -3.07602 0
M  V30 34915 H 3368.13 0.702938 -0.435669 0
M  V30 34916 H 3370.68 0.904235 -1.43603 0
M  V30 34917 H 3369.45 2.3586 -3.12227 0
M  V30 34918 H 3369.07 3.51591 -1.8566 0
M  V30 34919 N 3370.07 1.15217 1.0753 0
M  V30 34920 C 3371.29 0.950172 1.84354 0
M  V30 34921 C 3371.72 -0.49647 1.8143 0
M  V30 34922 O 3371.08 -1.35379 1.20591 0
M  V30 34923 C 3371.12 1.46675 3.29422 0
M  V30 34924 O 3370.23 0.664745 4.07007 0
M  V30 34925 H 3369.57 0.339046 0.570915 0
M  V30 34926 H 3372.1 1.53156 1.35662 0
M  V30 34927 H 3372.11 1.4788 3.80257 0
M  V30 34928 H 3370.78 2.51994 3.30866 0
M  V30 34929 H 3369.36 0.722174 3.6584 0
M  V30 34930 N 3371.55 -1.25848 0.948687 0
M  V30 34931 C 3372.8 -1.92694 0.595972 0
M  V30 34932 C 3373.11 -1.75177 -0.870199 0
M  V30 34933 O 3374.31 -2.36545 -1.33262 0
M  V30 34934 C 3372.77 -3.45286 1.01517 0
M  V30 34935 C 3372.38 -3.71524 2.50348 0
M  V30 34936 C 3374.12 -4.18094 0.734708 0
M  V30 34937 C 3372.03 -5.17592 2.86099 0
M  V30 34938 H 3370.96 -0.721439 0.219183 0
M  V30 34939 H 3373.61 -1.42805 1.15234 0
M  V30 34940 H 3371.99 -3.94102 0.38727 0
M  V30 34941 H 3373.17 -3.33384 3.18106 0
M  V30 34942 H 3371.48 -3.11964 2.75803 0
M  V30 34943 H 3374.08 -5.25679 0.978054 0
M  V30 34944 H 3374.42 -4.15 -0.328734 0
M  V30 34945 H 3374.95 -3.75167 1.32268 0
M  V30 34946 H 3371.69 -5.25793 3.91436 0
M  V30 34947 H 3371.21 -5.56801 2.23008 0
M  V30 34948 H 3372.89 -5.85663 2.74969 0
M  V30 34949 N 3373.02 -0.716569 -1.40368 0
M  V30 34950 C 3373.97 -0.041057 -2.27963 0
M  V30 34951 C 3374.96 0.73155 -1.43308 0
M  V30 34952 O 3376.15 0.603589 -1.66391 0
M  V30 34953 C 3373.28 0.879212 -3.31851 0
M  V30 34954 C 3372.37 0.101739 -4.23978 0
M  V30 34955 N 3372.76 -0.915524 -4.97445 0
M  V30 34956 C 3371.05 0.334149 -4.44746 0
M  V30 34957 C 3371.76 -1.38276 -5.65026 0
M  V30 34958 N 3370.73 -0.704737 -5.39012 0
M  V30 34959 H 3374.53 -0.820703 -2.82209 0
M  V30 34960 H 3372.05 -0.549244 -1.5283 0
M  V30 34961 H 3374.04 1.37848 -3.93451 0
M  V30 34962 H 3372.7 1.65822 -2.79165 0
M  V30 34963 H 3373.72 -1.2964 -5.01412 0
M  V30 34964 H 3370.39 1.08941 -4.03036 0
M  V30 34965 H 3371.78 -2.22808 -6.33882 0
M  V30 34966 N 3374.5 1.50651 -0.462825 0
M  V30 34967 C 3375.73 2.07181 0.0952362 0
M  V30 34968 C 3376.15 1.32535 1.33476 0
M  V30 34969 O 3375.51 0.370596 1.77472 0
M  V30 34970 C 3375.56 3.58691 0.370529 0
M  V30 34971 O 3374.66 3.85973 1.45253 0
M  V30 34972 H 3374 0.663934 -0.00933869 0
M  V30 34973 H 3376.53 1.9395 -0.651492 0
M  V30 34974 H 3376.54 4.03361 0.61348 0
M  V30 34975 H 3375.22 4.12441 -0.535291 0
M  V30 34976 H 3373.8 3.53148 1.19754 0
M  V30 34977 N 3375.98 0.195113 1.56388 0
M  V30 34978 C 3376.91 -0.720932 2.22092 0
M  V30 34979 C 3377.89 -1.22126 1.18403 0
M  V30 34980 O 3379.08 -1.2701 1.46909 0
M  V30 34981 C 3376.21 -1.94054 2.88028 0
M  V30 34982 C 3375.16 -1.57513 3.97962 0
M  V30 34983 C 3374.49 -2.87135 4.51063 0
M  V30 34984 C 3375.79 -0.785054 5.16366 0
M  V30 34985 H 3377.48 -0.173193 2.98899 0
M  V30 34986 H 3375.03 -0.0818615 1.43767 0
M  V30 34987 H 3376.98 -2.5866 3.32676 0
M  V30 34988 H 3375.7 -2.51281 2.08627 0
M  V30 34989 H 3374.36 -0.952653 3.54006 0
M  V30 34990 H 3374.01 -3.42451 3.68424 0
M  V30 34991 H 3373.71 -2.6343 5.25241 0
M  V30 34992 H 3375.23 -3.52729 4.98412 0
M  V30 34993 H 3376.65 -1.33421 5.57559 0
M  V30 34994 H 3375.05 -0.646126 5.96611 0
M  V30 34995 H 3376.12 0.213874 4.84428 0
M  V30 34996 N 3377.46 -1.57404 -0.0784879 0
M  V30 34997 C 3378.42 -2.0225 -1.07832 0
M  V30 34998 C 3379.42 -0.918498 -1.31986 0
M  V30 34999 O 3380.61 -1.18355 -1.27819 0
M  V30 35000 C 3377.74 -2.39742 -2.42357 0
M  V30 35001 H 3378.94 -2.91808 -0.691944 0
M  V30 35002 H 3376.49 -1.52904 -0.324023 0
M  V30 35003 H 3377.22 -1.53188 -2.85839 0
M  V30 35004 H 3377.01 -3.20297 -2.26169 0
M  V30 35005 H 3378.5 -2.75037 -3.14236 0
M  V30 35006 N 3378.94 0.34972 -1.53671 0
M  V30 35007 C 3379.9 1.41207 -1.80536 0
M  V30 35008 C 3380.9 1.4589 -0.676213 0
M  V30 35009 O 3382.09 1.46374 -0.944479 0
M  V30 35010 C 3379.22 2.80191 -1.9418 0
M  V30 35011 H 3380.41 1.18653 -2.7543 0
M  V30 35012 H 3377.97 0.583762 -1.44989 0
M  V30 35013 H 3378.7 3.08037 -1.01407 0
M  V30 35014 H 3378.49 2.78189 -2.76321 0
M  V30 35015 H 3379.98 3.57095 -2.16502 0
M  V30 35016 N 3380.41 1.45299 0.610397 0
M  V30 35017 C 3381.64 1.52469 1.39416 0
M  V30 35018 C 3382.05 0.155133 1.88563 0
M  V30 35019 O 3381.4 -0.853032 1.62693 0
M  V30 35020 C 3381.46 2.44545 2.63511 0
M  V30 35021 C 3381.12 3.91335 2.36022 0
M  V30 35022 C 3382.12 4.81312 1.96558 0
M  V30 35023 C 3379.8 4.36227 2.4902 0
M  V30 35024 C 3381.8 6.14187 1.70451 0
M  V30 35025 C 3379.48 5.69144 2.22526 0
M  V30 35026 C 3380.48 6.57943 1.83303 0
M  V30 35027 O 3380.17 7.88397 1.57117 0
M  V30 35028 H 3379.9 0.518897 0.433269 0
M  V30 35029 H 3382.46 1.91148 0.751769 0
M  V30 35030 H 3380.69 2.00831 3.3046 0
M  V30 35031 H 3382.38 2.4243 3.2555 0
M  V30 35032 H 3383.14 4.47894 1.86054 0
M  V30 35033 H 3379.02 3.67354 2.78517 0
M  V30 35034 H 3382.56 6.83456 1.39761 0
M  V30 35035 H 3378.46 6.02118 2.32646 0
M  V30 35036 H 3379.23 8.00397 1.71193 0
M  V30 35037 N 3381.89 -0.852653 1.32543 0
M  V30 35038 C 3383.12 -1.637 1.26039 0
M  V30 35039 C 3383.53 -1.88402 -0.17355 0
M  V30 35040 O 3382.87 -1.45475 -1.12173 0
M  V30 35041 C 3382.94 -3.01857 1.9525 0
M  V30 35042 C 3382.6 -3.00187 3.44582 0
M  V30 35043 C 3383.6 -2.76892 4.40031 0
M  V30 35044 C 3381.28 -3.2076 3.86547 0
M  V30 35045 C 3383.28 -2.74175 5.75419 0
M  V30 35046 C 3380.96 -3.17669 5.22044 0
M  V30 35047 C 3381.96 -2.94406 6.16291 0
M  V30 35048 O 3381.65 -2.91192 7.49308 0
M  V30 35049 H 3381.38 -0.516535 0.436082 0
M  V30 35050 H 3383.93 -1.07124 1.75253 0
M  V30 35051 H 3382.16 -3.60231 1.40609 0
M  V30 35052 H 3383.85 -3.62594 1.82429 0
M  V30 35053 H 3384.62 -2.60763 4.08935 0
M  V30 35054 H 3380.5 -3.37892 3.13608 0
M  V30 35055 H 3384.04 -2.55936 6.48955 0
M  V30 35056 H 3379.94 -3.33343 5.52768 0
M  V30 35057 H 3380.71 -3.07132 7.58691 0
M  V30 35058 N 3383.37 -1.15786 -1.06918 0
M  V30 35059 C 3384.62 -0.929975 -1.78981 0
M  V30 35060 C 3384.93 0.543936 -1.87885 0
M  V30 35061 O 3386.14 0.889533 -2.56514 0
M  V30 35062 C 3384.59 -1.61451 -3.21654 0
M  V30 35063 C 3384.2 -3.12575 -3.20937 0
M  V30 35064 C 3385.95 -1.46835 -3.98296 0
M  V30 35065 C 3383.85 -3.73796 -4.58291 0
M  V30 35066 H 3382.78 -0.344296 -0.670803 0
M  V30 35067 H 3385.43 -1.38848 -1.19973 0
M  V30 35068 H 3383.82 -1.0837 -3.80883 0
M  V30 35069 H 3384.99 -3.72448 -2.71328 0
M  V30 35070 H 3383.31 -3.27004 -2.57794 0
M  V30 35071 H 3385.9 -1.89961 -4.99819 0
M  V30 35072 H 3386.25 -0.416431 -4.14212 0
M  V30 35073 H 3386.78 -1.97037 -3.45574 0
M  V30 35074 H 3383.52 -4.78908 -4.4758 0
M  V30 35075 H 3383.04 -3.18707 -5.0812 0
M  V30 35076 H 3384.72 -3.74981 -5.27256 0
M  V30 35077 N 3384.85 1.25343 -0.955348 0
M  V30 35078 C 3386.13 1.88343 -0.527861 0
M  V30 35079 C 3386.51 1.86186 0.994878 0
M  V30 35080 O 3385.85 1.3259 1.86097 0
M  V30 35081 C 3386.06 3.31035 -1.10531 0
M  V30 35082 C 3387.41 4.07798 -1.18261 0
M  V30 35083 O 3388.44 3.40158 -1.05691 0
M  V30 35084 O 3387.29 5.28793 -1.37987 0
M  V30 35085 H 3384.39 0.808441 -0.17422 0
M  V30 35086 H 3386.93 1.33408 -1.04882 0
M  V30 35087 H 3385.71 3.27038 -2.14852 0
M  V30 35088 H 3385.33 3.93527 -0.567637 0
M  V30 35089 N 3386.33 0.724003 1.39986 0
M  V30 35090 C 3387.57 0.271683 2.02586 0
M  V30 35091 C 3387.93 -1.11666 1.56188 0
M  V30 35092 O 3389.13 -1.66645 2.1091 0
M  V30 35093 C 3387.4 0.357913 3.55603 0
M  V30 35094 S 3388.96 -0.0161843 4.38797 0
M  V30 35095 H 3385.78 0.107173 0.702876 0
M  V30 35096 H 3388.38 0.948087 1.70972 0
M  V30 35097 H 3387.09 1.36984 3.86864 0
M  V30 35098 H 3386.62 -0.336685 3.91957 0
M  V30 35099 H 3388.63 -1.23573 4.80566 0
M  V30 35100 N 3387.81 -1.50403 0.470808 0
M  V30 35101 C 3389.05 -2.01517 -0.0859627 0
M  V30 35102 C 3389.37 -1.35765 -1.40809 0
M  V30 35103 O 3390.57 -1.78034 -2.04979 0
M  V30 35104 C 3389.03 -3.59323 -0.20371 0
M  V30 35105 C 3388.64 -4.34032 1.10997 0
M  V30 35106 C 3390.38 -4.18479 -0.712455 0
M  V30 35107 C 3388.29 -5.83621 0.956031 0
M  V30 35108 H 3387.22 -0.753145 -0.0359009 0
M  V30 35109 H 3389.87 -1.73217 0.605662 0
M  V30 35110 H 3388.25 -3.8421 -0.959109 0
M  V30 35111 H 3389.43 -4.2087 1.8763 0
M  V30 35112 H 3387.74 -3.86484 1.5498 0
M  V30 35113 H 3390.34 -5.27986 -0.844652 0
M  V30 35114 H 3390.68 -3.79841 -1.70371 0
M  V30 35115 H 3391.21 -3.97797 -0.014448 0
M  V30 35116 H 3387.95 -6.26731 1.92065 0
M  V30 35117 H 3387.47 -5.99359 0.230075 0
M  V30 35118 H 3389.15 -6.43998 0.622536 0
M  V30 35119 N 3389.28 -0.203404 -1.56282 0
M  V30 35120 C 3390.7 0.152307 -1.58872 0
M  V30 35121 C 3390.9 1.60384 -1.2198 0
M  V30 35122 O 3389.96 2.3409 -0.946463 0
M  V30 35123 C 3391.27 -0.157568 -3.00287 0
M  V30 35124 C 3392.82 -0.098342 -3.12845 0
M  V30 35125 C 3393.29 -0.38164 -4.56407 0
M  V30 35126 N 3394.78 -0.330556 -4.62019 0
M  V30 35127 C 3395.52 -0.523497 -5.71005 0
M  V30 35128 N 3395.01 -0.777236 -6.88426 0
M  V30 35129 N 3396.81 -0.457181 -5.60238 0
M  V30 35130 H 3388.96 -1.15051 -1.78541 0
M  V30 35131 H 3391.22 -0.459831 -0.829011 0
M  V30 35132 H 3390.93 -1.16433 -3.31868 0
M  V30 35133 H 3390.8 0.535975 -3.73373 0
M  V30 35134 H 3393.19 0.899035 -2.81072 0
M  V30 35135 H 3393.27 -0.825088 -2.42128 0
M  V30 35136 H 3392.91 -1.37637 -4.88895 0
M  V30 35137 H 3392.84 0.36609 -5.25326 0
M  V30 35138 H 3395.33 -0.141394 -3.77635 0
M  V30 35139 H 3395.65 -0.913046 -7.67387 0
M  V30 35140 H 3393.99 -0.814225 -6.90214 0
M  V30 35141 H 3397.18 -0.259309 -4.67381 0
M  V30 35142 H 3397.36 -0.610961 -6.45113 0
M  V30 35143 N 3390.76 1.57444 0.0701393 0
M  V30 35144 C 3391.69 2.00532 1.10993 0
M  V30 35145 C 3392.71 0.911533 1.34889 0
M  V30 35146 O 3393.9 1.1894 1.331 0
M  V30 35147 C 3391 2.33052 2.46049 0
M  V30 35148 C 3390.17 3.64298 2.42086 0
M  V30 35149 C 3389.23 3.84469 3.59263 0
M  V30 35150 O 3388.25 4.56036 3.40617 0
M  V30 35151 N 3389.46 3.26949 4.79671 0
M  V30 35152 H 3392.22 2.90345 0.742978 0
M  V30 35153 H 3389.78 1.59819 0.258766 0
M  V30 35154 H 3391.77 2.43718 3.23085 0
M  V30 35155 H 3390.34 1.49121 2.74739 0
M  V30 35156 H 3389.56 3.64371 1.50424 0
M  V30 35157 H 3390.85 4.50473 2.3654 0
M  V30 35158 H 3390.25 2.68863 4.97724 0
M  V30 35159 H 3388.81 3.43061 5.54213 0
M  V30 35160 N 3392.24 -0.341566 1.53854 0
M  V30 35161 C 3393.49 -1.08319 1.71449 0
M  V30 35162 C 3393.82 -1.88243 0.477322 0
M  V30 35163 O 3393.09 -1.87262 -0.525662 0
M  V30 35164 C 3393.38 -2.02275 2.97921 0
M  V30 35165 C 3393.23 -1.25801 4.3185 0
M  V30 35166 C 3394.55 -3.02064 3.20071 0
M  V30 35167 H 3391.67 -0.392397 0.623854 0
M  V30 35168 H 3394.31 -0.361561 1.86528 0
M  V30 35169 H 3392.46 -2.6381 2.85196 0
M  V30 35170 H 3394.13 -0.668657 4.56428 0
M  V30 35171 H 3392.37 -0.560043 4.3017 0
M  V30 35172 H 3393.05 -1.94695 5.16525 0
M  V30 35173 H 3395.52 -2.50645 3.32139 0
M  V30 35174 H 3394.4 -3.65006 4.09954 0
M  V30 35175 H 3394.66 -3.7355 2.36458 0
M  V30 35176 N 3393.72 -1.45621 -0.602683 0
M  V30 35177 C 3394.65 -1.50681 -1.72708 0
M  V30 35178 C 3395.66 -0.397076 -1.57883 0
M  V30 35179 O 3396.85 -0.664396 -1.65674 0
M  V30 35180 C 3393.95 -1.3521 -3.1076 0
M  V30 35181 C 3393.12 -2.59945 -3.51777 0
M  V30 35182 C 3392.18 -2.3896 -4.68812 0
M  V30 35183 O 3391.21 -3.12597 -4.75681 0
M  V30 35184 N 3392.41 -1.43837 -5.62398 0
M  V30 35185 H 3395.18 -2.47622 -1.68829 0
M  V30 35186 H 3392.74 -1.41423 -0.788107 0
M  V30 35187 H 3394.73 -1.18974 -3.86817 0
M  V30 35188 H 3393.3 -0.465257 -3.09118 0
M  V30 35189 H 3392.52 -2.91262 -2.65632 0
M  V30 35190 H 3393.81 -3.42848 -3.75942 0
M  V30 35191 H 3393.21 -0.830768 -5.59567 0
M  V30 35192 H 3391.76 -1.33572 -6.37967 0
M  V30 35193 N 3395.2 0.845612 -1.32993 0
M  V30 35194 C 3396.61 1.41654 -1.21619 0
M  V30 35195 C 3396.96 1.95482 0.167652 0
M  V30 35196 O 3396.08 1.88272 1.06689 0
M  V30 35197 C 3396.68 2.57496 -2.20184 0
M  V30 35198 C 3395.24 3.10562 -2.1267 0
M  V30 35199 C 3394.38 1.83337 -2.08045 0
M  V30 35200 H 3397.33 0.651967 -1.4469 0
M  V30 35201 H 3397.36 3.34928 -1.80564 0
M  V30 35202 H 3396.87 2.18288 -3.20892 0
M  V30 35203 H 3394.97 3.54331 -1.15241 0
M  V30 35204 H 3395.08 3.71192 -3.02908 0
M  V30 35205 H 3393.45 2.03309 -1.53419 0
M  V30 35206 H 3394.23 1.46334 -3.1055 0
M  V30 35207 N 3396.67 1.16351 1.06302 0
M  V30 35208 C 3397.58 0.884327 2.17294 0
M  V30 35209 C 3398.6 -0.143383 1.73408 0
M  V30 35210 O 3399.78 0.0332341 2.01373 0
M  V30 35211 C 3396.84 0.389223 3.44508 0
M  V30 35212 C 3395.9 1.48215 4.02903 0
M  V30 35213 C 3395.13 1.01057 5.24045 0
M  V30 35214 O 3395.36 -0.139721 5.70229 0
M  V30 35215 O 3394.29 1.79886 5.74391 0
M  V30 35216 H 3398.12 1.81247 2.43687 0
M  V30 35217 H 3395.7 0.94348 1.1584 0
M  V30 35218 H 3397.58 0.120092 4.21229 0
M  V30 35219 H 3396.26 -0.510912 3.19643 0
M  V30 35220 H 3395.17 1.80502 3.27673 0
M  V30 35221 H 3396.5 2.35758 4.32064 0
M  V30 35222 N 3398.15 -1.24835 0.961982 0
M  V30 35223 C 3399.4 -1.9237 0.619523 0
M  V30 35224 C 3399.72 -1.75635 -0.847202 0
M  V30 35225 O 3398.99 -1.12442 -1.60417 0
M  V30 35226 H 3397.57 -0.711947 0.226141 0
M  V30 35227 H 3400.23 -1.51848 1.22181 0
M  V30 35228 H 3399.33 -3.00155 0.855181 0
M  V30 35229 N 3399.63 -0.731417 -1.396 0
M  V30 35230 C 3401.04 -0.348226 -1.83424 0
M  V30 35231 C 3401.39 1.11976 -1.61108 0
M  V30 35232 O 3400.52 1.86337 -1.10034 0
M  V30 35233 C 3401.11 -0.625259 -3.3298 0
M  V30 35234 C 3399.67 -0.295602 -3.75237 0
M  V30 35235 C 3398.82 -0.889686 -2.6264 0
M  V30 35236 H 3401.77 -0.929341 -1.28643 0
M  V30 35237 H 3401.79 0.104187 -3.80357 0
M  V30 35238 H 3401.3 -1.69374 -3.4919 0
M  V30 35239 H 3399.4 0.76719 -3.64616 0
M  V30 35240 H 3399.52 -0.775659 -4.72779 0
M  V30 35241 H 3397.88 -0.316573 -2.52725 0
M  V30 35242 H 3398.66 -1.96275 -2.81657 0
M  V30 35243 N 3401.11 1.50152 -0.478778 0
M  V30 35244 C 3402.34 2.06478 0.0709092 0
M  V30 35245 C 3402.75 1.34195 1.33373 0
M  V30 35246 O 3402.09 0.407102 1.79132 0
M  V30 35247 C 3402.15 3.5707 0.417259 0
M  V30 35248 C 3401.82 4.50893 -0.744643 0
M  V30 35249 C 3402.81 4.93724 -1.62887 0
M  V30 35250 C 3400.5 4.9348 -0.937149 0
M  V30 35251 C 3402.49 5.77859 -2.68995 0
M  V30 35252 C 3400.18 5.77396 -2.00144 0
M  V30 35253 C 3401.18 6.19487 -2.8762 0
M  V30 35254 O 3400.86 7.01728 -3.92215 0
M  V30 35255 H 3400.6 0.675962 -0.00721365 0
M  V30 35256 H 3403.15 1.94206 -0.668831 0
M  V30 35257 H 3401.38 3.67272 1.21029 0
M  V30 35258 H 3403.07 3.9573 0.902932 0
M  V30 35259 H 3403.84 4.61485 -1.49187 0
M  V30 35260 H 3399.71 4.60234 -0.265717 0
M  V30 35261 H 3403.26 6.10633 -3.37303 0
M  V30 35262 H 3399.16 6.09048 -2.13848 0
M  V30 35263 H 3399.92 7.19993 -3.89297 0
M  V30 35264 N 3402.59 0.211689 1.56172 0
M  V30 35265 C 3404 -0.143879 1.5895 0
M  V30 35266 C 3404.2 -1.59735 1.22829 0
M  V30 35267 O 3403.26 -2.33585 0.958864 0
M  V30 35268 C 3404.57 0.173491 3.00199 0
M  V30 35269 C 3406.12 0.114932 3.12789 0
M  V30 35270 C 3406.59 0.405839 4.56198 0
M  V30 35271 N 3408.09 0.355054 4.61837 0
M  V30 35272 C 3408.82 0.553772 5.7072 0
M  V30 35273 N 3408.32 0.813734 6.88005 0
M  V30 35274 N 3410.11 0.486885 5.59987 0
M  V30 35275 H 3402.26 1.15996 1.77929 0
M  V30 35276 H 3404.52 0.464221 0.826561 0
M  V30 35277 H 3404.23 1.18191 3.31246 0
M  V30 35278 H 3404.1 -0.516167 3.73652 0
M  V30 35279 H 3406.49 -0.884117 2.81545 0
M  V30 35280 H 3406.57 0.837917 2.41687 0
M  V30 35281 H 3406.22 1.40228 4.88158 0
M  V30 35282 H 3406.15 -0.338225 5.25513 0
M  V30 35283 H 3408.64 0.161419 3.77555 0
M  V30 35284 H 3408.95 0.953729 7.66892 0
M  V30 35285 H 3407.29 0.850817 6.89772 0
M  V30 35286 H 3410.49 0.284091 4.67237 0
M  V30 35287 H 3410.66 0.645164 6.4478 0
M  V30 35288 N 3404.06 -1.57479 -0.0617887 0
M  V30 35289 C 3405.31 -1.88014 -0.76016 0
M  V30 35290 C 3405.64 -0.805289 -1.76717 0
M  V30 35291 O 3404.92 0.183374 -1.93634 0
M  V30 35292 C 3405.2 -3.29211 -1.45919 0
M  V30 35293 C 3405.05 -4.4736 -0.467916 0
M  V30 35294 C 3406.37 -3.68797 -2.4016 0
M  V30 35295 H 3403.49 -0.683818 -0.274884 0
M  V30 35296 H 3406.13 -1.89986 -0.0232099 0
M  V30 35297 H 3404.28 -3.27661 -2.08736 0
M  V30 35298 H 3405.96 -4.61037 0.155816 0
M  V30 35299 H 3404.2 -4.33263 0.215874 0
M  V30 35300 H 3404.87 -5.42961 -0.994847 0
M  V30 35301 H 3407.35 -3.71505 -1.87412 0
M  V30 35302 H 3406.22 -4.68462 -2.86068 0
M  V30 35303 H 3406.48 -2.9927 -3.25408 0
M  V30 35304 N 3405.54 0.333401 -1.54033 0
M  V30 35305 C 3406.51 1.39285 -1.82023 0
M  V30 35306 C 3407.51 1.45165 -0.691649 0
M  V30 35307 O 3408.7 1.45364 -0.95995 0
M  V30 35308 C 3405.83 2.78116 -1.97141 0
M  V30 35309 H 3407.02 1.15725 -2.76673 0
M  V30 35310 H 3404.57 0.568351 -1.456 0
M  V30 35311 H 3405.31 3.06945 -1.04669 0
M  V30 35312 H 3405.09 2.75242 -2.79256 0
M  V30 35313 H 3406.58 3.54778 -2.20277 0
M  V30 35314 N 3407.02 1.45939 0.594952 0
M  V30 35315 C 3408.27 1.50316 1.35091 0
M  V30 35316 C 3408.59 0.151349 1.94412 0
M  V30 35317 O 3407.86 -0.820756 1.77878 0
M  V30 35318 H 3406.44 0.553595 0.50154 0
M  V30 35319 H 3409.1 1.81984 0.697703 0
M  V30 35320 H 3408.2 2.24905 2.16389 0
M  V30 35321 N 3408.5 -0.838547 1.3344 0
M  V30 35322 C 3409.73 -1.62354 1.27769 0
M  V30 35323 C 3410.14 -1.88576 -0.153557 0
M  V30 35324 O 3409.48 -1.46656 -1.10624 0
M  V30 35325 C 3409.54 -2.99769 1.98441 0
M  V30 35326 C 3409.21 -2.96516 3.47746 0
M  V30 35327 C 3410.2 -2.72209 4.42943 0
M  V30 35328 C 3407.89 -3.16642 3.89927 0
M  V30 35329 C 3409.88 -2.68056 5.78295 0
M  V30 35330 C 3407.57 -3.12114 5.25384 0
M  V30 35331 C 3408.57 -2.87852 6.19379 0
M  V30 35332 O 3408.25 -2.83229 7.52354 0
M  V30 35333 H 3407.99 -0.511881 0.441536 0
M  V30 35334 H 3410.54 -1.05259 1.76379 0
M  V30 35335 H 3408.77 -3.58719 1.44422 0
M  V30 35336 H 3410.46 -3.60639 1.86265 0
M  V30 35337 H 3411.23 -2.56411 4.11678 0
M  V30 35338 H 3407.1 -3.34546 3.17175 0
M  V30 35339 H 3410.65 -2.49039 6.51633 0
M  V30 35340 H 3406.55 -3.27461 5.56273 0
M  V30 35341 H 3407.31 -2.99068 7.61906 0
M  V30 35342 N 3409.98 -1.16914 -1.05683 0
M  V30 35343 C 3411.2 -0.979381 -1.82819 0
M  V30 35344 C 3411.63 0.467543 -1.82197 0
M  V30 35345 O 3410.98 1.33443 -1.2273 0
M  V30 35346 C 3411.03 -1.51897 -3.27047 0
M  V30 35347 O 3410.14 -0.729413 -4.05898 0
M  V30 35348 H 3409.48 -0.348086 -0.565449 0
M  V30 35349 H 3412.01 -1.55295 -1.33209 0
M  V30 35350 H 3412.02 -1.53911 -3.77856 0
M  V30 35351 H 3410.69 -2.57225 -3.26815 0
M  V30 35352 H 3409.27 -0.780285 -3.64645 0
M  V30 35353 N 3411.45 1.24323 -0.968589 0
M  V30 35354 C 3412.68 1.96186 -0.647662 0
M  V30 35355 C 3413.09 1.72044 0.787237 0
M  V30 35356 O 3412.44 1.00158 1.53994 0
M  V30 35357 C 3412.5 3.49462 -0.843579 0
M  V30 35358 C 3412.16 3.97304 -2.25829 0
M  V30 35359 C 3413.16 4.06907 -3.23609 0
M  V30 35360 C 3410.84 4.30604 -2.58622 0
M  V30 35361 C 3412.84 4.49146 -4.52268 0
M  V30 35362 C 3410.52 4.72527 -3.87507 0
M  V30 35363 C 3411.52 4.81763 -4.84142 0
M  V30 35364 O 3411.21 5.22749 -6.10728 0
M  V30 35365 H 3410.94 0.631742 -0.240579 0
M  V30 35366 H 3413.5 1.59084 -1.29929 0
M  V30 35367 H 3411.73 3.86465 -0.134784 0
M  V30 35368 H 3413.42 4.02535 -0.521604 0
M  V30 35369 H 3414.18 3.81397 -2.99603 0
M  V30 35370 H 3410.06 4.22634 -1.84123 0
M  V30 35371 H 3413.6 4.5627 -5.27697 0
M  V30 35372 H 3409.5 4.97485 -4.11314 0
M  V30 35373 H 3410.27 5.40896 -6.14308 0
M  V30 35374 N 3412.93 0.73881 1.3921 0
M  V30 35375 C 3414.18 0.287855 2.0004 0
M  V30 35376 C 3414.5 -1.12997 1.58923 0
M  V30 35377 O 3413.77 -1.77014 0.839224 0
M  V30 35378 H 3412.35 0.103438 0.739804 0
M  V30 35379 H 3415.01 0.949617 1.70201 0
M  V30 35380 H 3414.11 0.339262 3.10251 0
M  V30 35381 N 3414.41 -1.49895 0.486734 0
M  V30 35382 C 3415.37 -2.27382 -0.288086 0
M  V30 35383 C 3416.37 -1.32802 -0.906651 0
M  V30 35384 O 3417.56 -1.5609 -0.773397 0
M  V30 35385 C 3414.7 -3.10288 -1.41189 0
M  V30 35386 H 3415.89 -2.97331 0.391671 0
M  V30 35387 H 3413.44 -1.54427 0.241257 0
M  V30 35388 H 3414.18 -2.44871 -2.12623 0
M  V30 35389 H 3413.96 -3.79811 -0.973966 0
M  V30 35390 H 3415.45 -3.6885 -1.95805 0
M  V30 35391 N 3415.89 -0.219968 -1.56057 0
M  V30 35392 C 3417.13 0.414028 -2.00163 0
M  V30 35393 C 3417.49 1.57061 -1.10435 0
M  V30 35394 O 3418.69 2.2705 -1.43881 0
M  V30 35395 C 3416.97 0.839023 -3.47412 0
M  V30 35396 S 3418.52 1.46735 -4.13539 0
M  V30 35397 H 3415.34 0.131463 -0.698741 0
M  V30 35398 H 3417.94 -0.328884 -1.92714 0
M  V30 35399 H 3416.65 -0.0124387 -4.10398 0
M  V30 35400 H 3416.18 1.61479 -3.58731 0
M  V30 35401 H 3418.19 2.75641 -4.12597 0
M  V30 35402 N 3417.37 1.57509 0.0534363 0
M  V30 35403 C 3418.61 1.88415 0.750179 0
M  V30 35404 C 3418.95 0.81465 1.76287 0
M  V30 35405 O 3418.22 -0.173102 1.93728 0
M  V30 35406 C 3418.5 3.2998 1.44171 0
M  V30 35407 C 3418.36 4.47601 0.444185 0
M  V30 35408 C 3419.68 3.70066 2.382 0
M  V30 35409 H 3416.8 0.685267 0.271254 0
M  V30 35410 H 3419.44 1.89995 0.0131342 0
M  V30 35411 H 3417.59 3.28763 2.06995 0
M  V30 35412 H 3419.26 4.60948 -0.180263 0
M  V30 35413 H 3417.5 4.33142 -0.238847 0
M  V30 35414 H 3418.17 5.43481 0.966038 0
M  V30 35415 H 3420.65 3.72493 1.8544 0
M  V30 35416 H 3419.53 4.69972 2.83579 0
M  V30 35417 H 3419.79 3.00991 3.23816 0
M  V30 35418 N 3418.85 -0.325228 1.54208 0
M  V30 35419 C 3419.81 -1.38317 1.82759 0
M  V30 35420 C 3420.81 -1.44796 0.699338 0
M  V30 35421 O 3422 -1.44853 0.967646 0
M  V30 35422 C 3419.13 -2.77066 1.98613 0
M  V30 35423 H 3420.32 -1.14256 2.77282 0
M  V30 35424 H 3417.88 -0.560621 1.459 0
M  V30 35425 H 3418.61 -3.06385 1.06295 0
M  V30 35426 H 3418.4 -2.73758 2.80712 0
M  V30 35427 H 3419.89 -3.53605 2.22156 0
M  V30 35428 N 3420.32 -1.46252 -0.587204 0
M  V30 35429 C 3421.57 -1.51329 -1.34558 0
M  V30 35430 C 3421.9 -0.163181 -1.93814 0
M  V30 35431 O 3421.15 0.840646 -1.76725 0
M  V30 35432 C 3421.45 -2.55634 -2.49772 0
M  V30 35433 C 3421.12 -3.99779 -2.08536 0
M  V30 35434 C 3419.78 -4.39024 -1.97005 0
M  V30 35435 C 3422.13 -4.90347 -1.76661 0
M  V30 35436 C 3419.46 -5.66709 -1.5185 0
M  V30 35437 C 3421.81 -6.18464 -1.32985 0
M  V30 35438 C 3420.48 -6.5662 -1.20028 0
M  V30 35439 H 3419.75 -0.553753 -0.492381 0
M  V30 35440 H 3422.39 -1.79705 -0.661684 0
M  V30 35441 H 3420.7 -2.20902 -3.23588 0
M  V30 35442 H 3422.4 -2.56793 -3.07991 0
M  V30 35443 H 3418.99 -3.68755 -2.18444 0
M  V30 35444 H 3423.17 -4.60749 -1.84457 0
M  V30 35445 H 3418.43 -5.95048 -1.40457 0
M  V30 35446 H 3422.6 -6.88073 -1.07373 0
M  V30 35447 H 3420.23 -7.55454 -0.848135 0
M  V30 35448 N 3421.8 0.831459 -1.33883 0
M  V30 35449 C 3422.71 1.97377 -1.26805 0
M  V30 35450 C 3423.73 1.73095 -0.177263 0
M  V30 35451 O 3424.9 1.97343 -0.402197 0
M  V30 35452 C 3421.97 3.31516 -1.0148 0
M  V30 35453 C 3421.03 3.68863 -2.19632 0
M  V30 35454 C 3420.26 4.96602 -1.95506 0
M  V30 35455 O 3420.49 5.6311 -0.909047 0
M  V30 35456 O 3419.42 5.31627 -2.82235 0
M  V30 35457 H 3423.25 2.06289 -2.22887 0
M  V30 35458 H 3420.83 0.965593 -1.14003 0
M  V30 35459 H 3422.71 4.11872 -0.891027 0
M  V30 35460 H 3421.39 3.2359 -0.0843225 0
M  V30 35461 H 3420.29 2.88986 -2.37566 0
M  V30 35462 H 3421.63 3.81464 -3.1104 0
M  V30 35463 N 3423.28 1.17472 1.05062 0
M  V30 35464 C 3424.21 0.836065 2.12333 0
M  V30 35465 C 3425.19 -0.197705 1.61394 0
M  V30 35466 O 3426.37 -0.0789417 1.88335 0
M  V30 35467 C 3423.5 0.247399 3.37795 0
M  V30 35468 C 3422.55 1.25676 4.07563 0
M  V30 35469 S 3423.38 2.80861 4.55936 0
M  V30 35470 C 3424.54 2.23478 5.84644 0
M  V30 35471 H 3424.77 1.74457 2.40732 0
M  V30 35472 H 3422.3 0.999516 1.17682 0
M  V30 35473 H 3424.26 -0.085752 4.1041 0
M  V30 35474 H 3422.92 -0.63907 3.0753 0
M  V30 35475 H 3422.11 0.793553 4.97714 0
M  V30 35476 H 3421.72 1.53563 3.4102 0
M  V30 35477 H 3424.01 1.61115 6.58064 0
M  V30 35478 H 3424.95 3.11888 6.35713 0
M  V30 35479 H 3425.36 1.6688 5.39269 0
M  V30 35480 N 3424.76 -1.23807 0.975168 0
M  V30 35481 C 3426 -1.93819 0.649112 0
M  V30 35482 C 3426.36 -1.74455 -0.801849 0
M  V30 35483 O 3427.56 -2.38569 -1.23848 0
M  V30 35484 C 3425.83 -3.42459 1.02256 0
M  V30 35485 S 3427.39 -4.31218 0.812182 0
M  V30 35486 H 3424.21 -0.670022 0.23789 0
M  V30 35487 H 3426.81 -1.50009 1.2537 0
M  V30 35488 H 3425.52 -3.54062 2.07529 0
M  V30 35489 H 3425.05 -3.91268 0.409045 0
M  V30 35490 H 3427.06 -4.95252 -0.306629 0
M  V30 35491 N 3426.24 -0.746182 -1.38816 0
M  V30 35492 C 3427.46 -0.308338 -2.05095 0
M  V30 35493 C 3427.89 1.05241 -1.55903 0
M  V30 35494 O 3427.24 1.66916 -0.707715 0
M  V30 35495 C 3427.29 -0.33208 -3.59068 0
M  V30 35496 O 3426.4 0.676476 -4.06814 0
M  V30 35497 H 3425.74 -0.137912 -0.64952 0
M  V30 35498 H 3428.27 -1.01523 -1.77635 0
M  V30 35499 H 3428.28 -0.180365 -4.07601 0
M  V30 35500 H 3426.95 -1.32494 -3.94231 0
M  V30 35501 H 3425.53 0.489981 -3.69667 0
M  V30 35502 N 3427.71 1.49635 -0.494676 0
M  V30 35503 C 3428.65 2.26902 0.323741 0
M  V30 35504 C 3429.66 1.33184 0.936257 0
M  V30 35505 O 3430.85 1.58516 0.820667 0
M  V30 35506 C 3427.95 3.0535 1.4702 0
M  V30 35507 C 3427.12 4.26596 0.966153 0
M  V30 35508 C 3426.18 4.87142 1.98946 0
M  V30 35509 O 3425.21 5.4739 1.56055 0
M  V30 35510 N 3426.41 4.7623 3.31941 0
M  V30 35511 H 3429.17 2.97779 -0.338768 0
M  V30 35512 H 3426.73 1.58566 -0.326845 0
M  V30 35513 H 3428.73 3.42729 2.15219 0
M  V30 35514 H 3427.3 2.37121 2.03697 0
M  V30 35515 H 3426.52 3.94049 0.109267 0
M  V30 35516 H 3427.8 5.05158 0.607692 0
M  V30 35517 H 3427.2 4.2837 3.69481 0
M  V30 35518 H 3425.76 5.17812 3.95872 0
M  V30 35519 N 3429.19 0.228241 1.55939 0
M  V30 35520 C 3430.12 -0.673661 2.23571 0
M  V30 35521 C 3431.1 -1.19587 1.20966 0
M  V30 35522 O 3432.29 -1.23865 1.4957 0
M  V30 35523 C 3429.42 -1.87901 2.9208 0
M  V30 35524 C 3428.37 -1.49036 4.01214 0
M  V30 35525 C 3427.7 -2.77503 4.57052 0
M  V30 35526 C 3429 -0.675349 5.17915 0
M  V30 35527 H 3430.69 -0.109753 2.99199 0
M  V30 35528 H 3428.24 -0.0513479 1.43908 0
M  V30 35529 H 3430.19 -2.51545 3.38087 0
M  V30 35530 H 3428.91 -2.468 2.1391 0
M  V30 35531 H 3427.57 -0.877349 3.55947 0
M  V30 35532 H 3427.22 -3.3456 3.75605 0
M  V30 35533 H 3426.92 -2.52229 5.30711 0
M  V30 35534 H 3428.45 -3.42078 5.05782 0
M  V30 35535 H 3429.86 -1.21565 5.60263 0
M  V30 35536 H 3428.26 -0.519431 5.97848 0
M  V30 35537 H 3429.33 0.31658 4.83865 0
M  V30 35538 N 3430.67 -1.57536 -0.0450825 0
M  V30 35539 C 3431.6 -2.02273 -1.07788 0
M  V30 35540 C 3432.62 -0.932877 -1.33421 0
M  V30 35541 O 3433.8 -1.21042 -1.31191 0
M  V30 35542 C 3430.9 -2.36937 -2.4231 0
M  V30 35543 C 3430.08 -3.68104 -2.36259 0
M  V30 35544 C 3429.14 -3.90136 -3.53101 0
M  V30 35545 O 3428.16 -4.61397 -3.33319 0
M  V30 35546 N 3429.36 -3.34539 -4.74409 0
M  V30 35547 H 3432.13 -2.9149 -0.696692 0
M  V30 35548 H 3429.69 -1.6021 -0.233308 0
M  V30 35549 H 3431.68 -2.48827 -3.19166 0
M  V30 35550 H 3430.25 -1.53473 -2.72332 0
M  V30 35551 H 3429.47 -3.66718 -1.44608 0
M  V30 35552 H 3430.76 -4.54179 -2.29343 0
M  V30 35553 H 3430.16 -2.76748 -4.93383 0
M  V30 35554 H 3428.72 -3.51835 -5.48685 0
M  V30 35555 N 3432.15 0.317045 -1.54378 0
M  V30 35556 C 3433.11 1.37346 -1.8349 0
M  V30 35557 C 3434.11 1.44423 -0.707007 0
M  V30 35558 O 3435.3 1.44337 -0.975314 0
M  V30 35559 C 3432.43 2.76009 -2.00079 0
M  V30 35560 H 3433.63 1.12784 -2.77885 0
M  V30 35561 H 3431.18 0.552876 -1.46195 0
M  V30 35562 H 3431.91 3.05817 -1.07918 0
M  V30 35563 H 3431.7 2.72265 -2.8216 0
M  V30 35564 H 3433.19 3.52422 -2.24028 0
M  V30 35565 N 3433.63 1.46561 0.57944 0
M  V30 35566 C 3434.56 1.53409 1.70289 0
M  V30 35567 C 3435.57 0.422144 1.57232 0
M  V30 35568 O 3436.76 0.690669 1.64597 0
M  V30 35569 C 3433.86 1.40137 3.08569 0
M  V30 35570 C 3433.03 2.65509 3.47597 0
M  V30 35571 C 3432.09 2.46389 4.64951 0
M  V30 35572 O 3431.12 3.20125 4.70647 0
M  V30 35573 N 3432.32 1.52766 5.60038 0
M  V30 35574 H 3435.09 2.50277 1.64868 0
M  V30 35575 H 3432.65 1.42659 0.765508 0
M  V30 35576 H 3434.64 1.25113 3.84875 0
M  V30 35577 H 3433.21 0.514376 3.08339 0
M  V30 35578 H 3432.43 2.95451 2.60964 0
M  V30 35579 H 3433.72 3.48786 3.7044 0
M  V30 35580 H 3433.11 0.919685 5.58174 0
M  V30 35581 H 3431.67 1.43704 6.35761 0
M  V30 35582 N 3435.1 -0.824347 1.34322 0
M  V30 35583 C 3436.04 -1.94269 1.21623 0
M  V30 35584 C 3437.05 -1.62165 0.143656 0
M  V30 35585 O 3438.24 -1.74066 0.395383 0
M  V30 35586 C 3435.34 -3.28166 0.846185 0
M  V30 35587 C 3434.51 -3.88303 2.01344 0
M  V30 35588 C 3433.57 -5.00576 1.62203 0
M  V30 35589 O 3432.6 -5.18948 2.3384 0
M  V30 35590 N 3433.8 -5.78026 0.535363 0
M  V30 35591 H 3436.56 -2.05695 2.17967 0
M  V30 35592 H 3434.12 -1.00085 1.27258 0
M  V30 35593 H 3436.12 -4.0072 0.566157 0
M  V30 35594 H 3434.69 -3.12588 -0.0270215 0
M  V30 35595 H 3433.91 -3.08159 2.45828 0
M  V30 35596 H 3435.19 -4.25214 2.79411 0
M  V30 35597 H 3434.59 -5.65668 -0.0602132 0
M  V30 35598 H 3433.15 -6.51038 0.31506 0
M  V30 35599 N 3436.58 -1.18028 -1.04437 0
M  V30 35600 C 3437.81 -0.998716 -1.8177 0
M  V30 35601 C 3438.23 0.448193 -1.82682 0
M  V30 35602 O 3437.59 1.32134 -1.24138 0
M  V30 35603 C 3437.64 -1.55357 -3.25417 0
M  V30 35604 O 3436.74 -0.772422 -4.05102 0
M  V30 35605 H 3436.08 -0.354064 -0.561725 0
M  V30 35606 H 3438.61 -1.56699 -1.31554 0
M  V30 35607 H 3438.62 -1.5791 -3.76203 0
M  V30 35608 H 3437.3 -2.60677 -3.24068 0
M  V30 35609 H 3435.88 -0.818916 -3.63797 0
M  V30 35610 N 3438.06 1.23288 -0.98172 0
M  V30 35611 C 3439.47 1.73556 -0.688117 0
M  V30 35612 C 3439.82 1.79345 0.795601 0
M  V30 35613 O 3438.95 1.43221 1.62224 0
M  V30 35614 C 3439.54 3.15198 -1.24241 0
M  V30 35615 C 3438.1 3.62917 -0.99842 0
M  V30 35616 C 3437.25 2.41131 -1.36934 0
M  V30 35617 H 3440.2 1.08793 -1.15541 0
M  V30 35618 H 3440.22 3.75489 -0.615476 0
M  V30 35619 H 3439.73 3.10953 -2.32228 0
M  V30 35620 H 3437.83 3.72543 0.0653193 0
M  V30 35621 H 3437.95 4.49647 -1.65393 0
M  V30 35622 H 3436.31 2.4221 -0.787815 0
M  V30 35623 H 3437.09 2.39556 -2.45902 0
M  V30 35624 N 3439.54 0.753533 1.38418 0
M  V30 35625 C 3440.5 0.134062 2.28808 0
M  V30 35626 C 3441.5 -0.647557 1.47185 0
M  V30 35627 O 3442.69 -0.473831 1.67632 0
M  V30 35628 C 3439.82 -0.818522 3.30928 0
M  V30 35629 H 3441.02 0.930636 2.85095 0
M  V30 35630 H 3438.57 0.52054 1.47377 0
M  V30 35631 H 3439.3 -1.64077 2.7973 0
M  V30 35632 H 3439.09 -0.260457 3.91234 0
M  V30 35633 H 3440.58 -1.24795 3.98517 0
M  V30 35634 N 3441.02 -1.49371 0.502605 0
M  V30 35635 C 3442.43 -1.86618 0.0552198 0
M  V30 35636 C 3442.78 -1.41478 -1.35935 0
M  V30 35637 O 3441.9 -0.793374 -2.01332 0
M  V30 35638 C 3442.5 -3.38671 0.0934329 0
M  V30 35639 C 3441.06 -3.75214 -0.298619 0
M  V30 35640 C 3440.2 -2.73369 0.465264 0
M  V30 35641 H 3443.16 -1.41665 0.715306 0
M  V30 35642 H 3443.18 -3.73978 -0.701483 0
M  V30 35643 H 3442.69 -3.71495 1.12309 0
M  V30 35644 H 3440.79 -3.47999 -1.33145 0
M  V30 35645 H 3440.9 -4.79095 0.0219479 0
M  V30 35646 H 3439.27 -2.54558 -0.0851021 0
M  V30 35647 H 3440.05 -3.09037 1.49503 0
M  V30 35648 N 3442.49 -0.236508 -1.55815 0
M  V30 35649 C 3443.72 0.395548 -2.03084 0
M  V30 35650 C 3444.14 1.52284 -1.11601 0
M  V30 35651 O 3443.49 1.82048 -0.128435 0
M  V30 35652 C 3443.55 0.913135 -3.49777 0
M  V30 35653 O 3443.27 -0.169228 -4.37773 0
M  V30 35654 C 3444.77 1.61693 -4.12759 0
M  V30 35655 H 3441.99 0.0952029 -0.664212 0
M  V30 35656 H 3444.53 -0.357335 -2.01354 0
M  V30 35657 H 3442.69 1.61623 -3.52075 0
M  V30 35658 H 3443.1 0.222125 -5.24029 0
M  V30 35659 H 3444.57 1.93092 -5.17126 0
M  V30 35660 H 3445.05 2.5353 -3.58635 0
M  V30 35661 H 3445.66 0.958663 -4.14355 0
M  V30 35662 N 3443.97 1.57557 0.0367273 0
M  V30 35663 C 3444.92 2.02518 1.04741 0
M  V30 35664 C 3445.91 0.913139 1.32479 0
M  V30 35665 O 3447.1 1.17705 1.32192 0
M  V30 35666 C 3444.23 2.50179 2.35086 0
M  V30 35667 C 3443.31 3.68188 2.10471 0
M  V30 35668 N 3443.7 4.81178 1.5589 0
M  V30 35669 C 3442 3.75414 2.40791 0
M  V30 35670 C 3442.7 5.62845 1.46904 0
M  V30 35671 N 3441.68 5.0773 1.94193 0
M  V30 35672 H 3445.48 2.87301 0.619291 0
M  V30 35673 H 3443 1.60569 0.243179 0
M  V30 35674 H 3444.99 2.80645 3.08292 0
M  V30 35675 H 3443.65 1.66798 2.78583 0
M  V30 35676 H 3444.66 5.02771 1.24266 0
M  V30 35677 H 3441.34 3.02818 2.87415 0
M  V30 35678 H 3442.73 6.63604 1.05259 0
M  V30 35679 N 3445.45 -0.308854 1.54544 0
M  V30 35680 C 3446.4 -1.40071 1.85696 0
M  V30 35681 C 3447.39 -1.52862 0.730031 0
M  V30 35682 O 3448.6 -1.55073 0.913912 0
M  V30 35683 H 3444.97 -0.467718 0.58885 0
M  V30 35684 H 3446.95 -1.11029 2.76975 0
M  V30 35685 C 3445.69 -2.7605 2.11404 0
M  V30 35686 H 3445.02 -2.66987 2.97587 0
M  V30 35687 H 3446.46 -3.5148 2.37145 0
M  V30 35688 C 3444.92 -3.24374 0.910127 0
M  V30 35689 O 3445.45 -4.015 0.126701 0
M  V30 35690 N 3443.65 -2.81599 0.717679 0
M  V30 35691 H 3443.2 -2.18996 1.35641 0
M  V30 35692 H 3443.16 -3.14282 -0.0863033 0
M  V30 35693 N 3446.93 -1.46867 -0.571659 0
M  V30 35694 C 3448.15 -1.5658 -1.36005 0
M  V30 35695 C 3448.58 -0.211358 -1.86909 0
M  V30 35696 O 3447.94 0.810392 -1.6218 0
M  V30 35697 C 3447.99 -2.58327 -2.51594 0
M  V30 35698 O 3447.09 -2.12596 -3.53379 0
M  V30 35699 H 3446.43 -0.526506 -0.404584 0
M  V30 35700 H 3448.96 -1.92531 -0.692323 0
M  V30 35701 H 3448.97 -2.78288 -2.98361 0
M  V30 35702 H 3447.65 -3.5668 -2.13898 0
M  V30 35703 H 3446.22 -2.02672 -3.13015 0
M  V30 35704 N 3448.41 0.817212 -1.34757 0
M  V30 35705 C 3449.34 1.94328 -1.29456 0
M  V30 35706 C 3450.32 1.69239 -0.170932 0
M  V30 35707 O 3451.5 1.90754 -0.364206 0
M  V30 35708 C 3448.63 3.30887 -1.05503 0
M  V30 35709 C 3447.59 3.70432 -2.14393 0
M  V30 35710 C 3446.91 5.05036 -1.75621 0
M  V30 35711 C 3448.21 3.81926 -3.56272 0
M  V30 35712 H 3449.91 1.99021 -2.23676 0
M  V30 35713 H 3447.45 0.95614 -1.07675 0
M  V30 35714 H 3449.41 4.09256 -1.00438 0
M  V30 35715 H 3448.13 3.26509 -0.0772633 0
M  V30 35716 H 3446.79 2.94342 -2.18537 0
M  V30 35717 H 3446.44 4.9715 -0.764896 0
M  V30 35718 H 3446.14 5.32465 -2.48504 0
M  V30 35719 H 3447.66 5.85856 -1.72061 0
M  V30 35720 H 3449.08 4.50552 -3.54508 0
M  V30 35721 H 3447.47 4.20815 -4.27826 0
M  V30 35722 H 3448.54 2.83768 -3.93197 0
M  V30 35723 N 3449.89 1.1858 1.0381 0
M  V30 35724 C 3451.13 0.982749 1.77055 0
M  V30 35725 C 3451.46 -0.487388 1.88294 0
M  V30 35726 O 3450.72 -1.3781 1.38949 0
M  V30 35727 C 3451.01 1.58576 3.20294 0
M  V30 35728 C 3450.68 3.08246 3.29083 0
M  V30 35729 C 3449.34 3.49096 3.31188 0
M  V30 35730 C 3451.69 4.04259 3.28974 0
M  V30 35731 C 3449.02 4.84529 3.30831 0
M  V30 35732 C 3451.37 5.39611 3.30156 0
M  V30 35733 C 3450.04 5.79905 3.30555 0
M  V30 35734 H 3449.31 0.359613 0.647888 0
M  V30 35735 H 3451.96 1.47684 1.21909 0
M  V30 35736 H 3450.26 1.01374 3.78458 0
M  V30 35737 H 3451.96 1.40404 3.75616 0
M  V30 35738 H 3448.55 2.7569 3.28166 0
M  V30 35739 H 3452.73 3.73749 3.26536 0
M  V30 35740 H 3447.99 5.15041 3.29458 0
M  V30 35741 H 3452.16 6.13773 3.29022 0
M  V30 35742 H 3449.79 6.84823 3.30032 0
M  V30 35743 N 3451.36 -1.22766 0.988245 0
M  V30 35744 C 3452.29 -2.2682 0.554518 0
M  V30 35745 C 3453.27 -1.64928 -0.416264 0
M  V30 35746 O 3454.46 -1.91743 -0.307916 0
M  V30 35747 C 3451.59 -3.47033 -0.136205 0
M  V30 35748 C 3450.54 -4.2133 0.752649 0
M  V30 35749 C 3449.87 -5.34653 -0.0707296 0
M  V30 35750 C 3451.17 -4.80505 2.04726 0
M  V30 35751 H 3452.86 -2.63353 1.42428 0
M  V30 35752 H 3450.41 -1.26594 0.68629 0
M  V30 35753 H 3452.36 -4.1898 -0.450995 0
M  V30 35754 H 3451.09 -3.09583 -1.04047 0
M  V30 35755 H 3449.75 -3.51211 1.05101 0
M  V30 35756 H 3449.39 -4.93445 -0.975772 0
M  V30 35757 H 3449.09 -5.85286 0.520938 0
M  V30 35758 H 3450.62 -6.09418 -0.379721 0
M  V30 35759 H 3452.03 -5.44418 1.79672 0
M  V30 35760 H 3450.43 -5.41457 2.58736 0
M  V30 35761 H 3451.5 -4.00814 2.72903 0
M  V30 35762 N 3452.84 -0.760864 -1.38017 0
M  V30 35763 C 3454.09 -0.320276 -1.99951 0
M  V30 35764 C 3454.42 1.10011 -1.60399 0
M  V30 35765 O 3453.67 1.76924 -0.836439 0
M  V30 35766 C 3453.97 -0.398841 -3.55168 0
M  V30 35767 C 3453.64 -1.77592 -4.14454 0
M  V30 35768 C 3452.3 -2.15277 -4.3036 0
M  V30 35769 C 3454.65 -2.67891 -4.47084 0
M  V30 35770 C 3451.98 -3.42719 -4.76194 0
M  V30 35771 C 3454.33 -3.94731 -4.94338 0
M  V30 35772 C 3452.99 -4.32475 -5.0845 0
M  V30 35773 H 3452.26 -0.117197 -0.731673 0
M  V30 35774 H 3454.91 -0.972765 -1.64953 0
M  V30 35775 H 3453.22 0.337204 -3.90346 0
M  V30 35776 H 3454.91 -0.0394098 -4.00981 0
M  V30 35777 H 3451.5 -1.47299 -4.02493 0
M  V30 35778 H 3455.69 -2.40039 -4.3439 0
M  V30 35779 H 3450.94 -3.71871 -4.85306 0
M  V30 35780 H 3455.12 -4.64838 -5.18555 0
M  V30 35781 H 3452.74 -5.31287 -5.43726 0
M  V30 35782 N 3454.32 1.49102 -0.510519 0
M  V30 35783 C 3455.6 1.95374 0.0940779 0
M  V30 35784 C 3455.98 1.45229 1.53205 0
M  V30 35785 O 3455.32 0.670199 2.1845 0
M  V30 35786 C 3455.53 3.49 -0.00308641 0
M  V30 35787 C 3456.88 4.24275 0.166043 0
M  V30 35788 O 3457.91 3.56128 0.0716471 0
M  V30 35789 O 3456.77 5.45306 0.361059 0
M  V30 35790 H 3453.86 0.822082 0.0900597 0
M  V30 35791 H 3456.41 1.59707 -0.573735 0
M  V30 35792 H 3455.18 3.7816 -1.00552 0
M  V30 35793 H 3454.8 3.9131 0.704449 0
M  V30 35794 N 3455.8 0.244768 1.55688 0
M  V30 35795 C 3457.05 -0.379817 1.98499 0
M  V30 35796 C 3457.37 -1.58623 1.13419 0
M  V30 35797 O 3456.64 -1.947 0.216491 0
M  V30 35798 H 3455.22 -0.143321 0.733122 0
M  V30 35799 H 3457.88 0.343061 1.91857 0
M  V30 35800 H 3456.97 -0.690409 3.04368 0
M  V30 35801 N 3457.28 -1.57574 -0.0283712 0
M  V30 35802 C 3458.5 -1.93958 -0.734503 0
M  V30 35803 C 3458.93 -0.844817 -1.68061 0
M  V30 35804 O 3458.28 0.1994 -1.802 0
M  V30 35805 C 3458.33 -3.29406 -1.4671 0
M  V30 35806 O 3457.44 -3.21705 -2.5803 0
M  V30 35807 H 3456.78 -0.633949 -0.197496 0
M  V30 35808 H 3459.31 -2.04593 0.0163617 0
M  V30 35809 H 3459.32 -3.64312 -1.83687 0
M  V30 35810 H 3457.99 -4.08649 -0.77322 0
M  V30 35811 H 3456.57 -2.98431 -2.23591 0
M  V30 35812 N 3458.75 0.300654 -1.54706 0
M  V30 35813 C 3460.16 0.873625 -1.64999 0
M  V30 35814 C 3460.52 1.88072 -0.558875 0
M  V30 35815 O 3459.64 2.14248 0.304436 0
M  V30 35816 C 3460.24 1.59133 -2.99102 0
M  V30 35817 C 3458.79 2.1127 -3.11515 0
M  V30 35818 C 3457.94 0.945505 -2.60683 0
M  V30 35819 H 3460.89 0.0776473 -1.5851 0
M  V30 35820 H 3460.91 2.45691 -2.90545 0
M  V30 35821 H 3460.43 0.858106 -3.78495 0
M  V30 35822 H 3458.53 2.87639 -2.36843 0
M  V30 35823 H 3458.64 2.34699 -4.17676 0
M  V30 35824 H 3457 1.33117 -2.17145 0
M  V30 35825 H 3457.79 0.226231 -3.42554 0
M  V30 35826 N 3460.23 1.47168 0.563863 0
M  V30 35827 C 3461.46 1.57055 1.3469 0
M  V30 35828 C 3461.88 0.218341 1.87533 0
M  V30 35829 O 3461.23 -0.787387 1.6464 0
M  V30 35830 C 3461.28 2.59049 2.52143 0
M  V30 35831 O 3461 3.89018 2.01485 0
M  V30 35832 C 3462.51 2.79056 3.44445 0
M  V30 35833 H 3459.73 0.530541 0.410813 0
M  V30 35834 H 3462.27 1.92733 0.683697 0
M  V30 35835 H 3460.42 2.26323 3.14415 0
M  V30 35836 H 3460.84 4.44694 2.78114 0
M  V30 35837 H 3462.31 3.543 4.23291 0
M  V30 35838 H 3462.79 1.86638 3.97571 0
M  V30 35839 H 3463.4 3.12953 2.87994 0
M  V30 35840 N 3461.71 -0.810054 1.35188 0
M  V30 35841 C 3462.94 -1.59607 1.31184 0
M  V30 35842 C 3463.35 -1.88859 -0.113523 0
M  V30 35843 O 3462.69 -1.4897 -1.07488 0
M  V30 35844 C 3462.75 -2.95493 2.04754 0
M  V30 35845 C 3462.42 -2.89073 3.53957 0
M  V30 35846 C 3463.41 -2.62752 4.48617 0
M  V30 35847 C 3461.1 -3.08299 3.96556 0
M  V30 35848 C 3463.09 -2.55729 5.8385 0
M  V30 35849 C 3460.78 -3.009 5.31886 0
M  V30 35850 C 3461.78 -2.7465 6.25345 0
M  V30 35851 O 3461.47 -2.67206 7.58193 0
M  V30 35852 H 3461.2 -0.5024 0.452294 0
M  V30 35853 H 3463.75 -1.01494 1.78572 0
M  V30 35854 H 3461.98 -3.55575 1.51998 0
M  V30 35855 H 3463.67 -3.56607 1.93873 0
M  V30 35856 H 3464.44 -2.47621 4.17024 0
M  V30 35857 H 3460.32 -3.27743 3.24199 0
M  V30 35858 H 3463.86 -2.3516 6.56769 0
M  V30 35859 H 3459.76 -3.15588 5.63094 0
M  V30 35860 H 3460.53 -2.8284 7.68078 0
M  V30 35861 N 3463.19 -1.19129 -1.0318 0
M  V30 35862 C 3464.43 -0.993594 -1.76792 0
M  V30 35863 C 3464.77 0.474776 -1.88307 0
M  V30 35864 O 3464.04 1.35256 -1.39771 0
M  V30 35865 C 3464.33 -1.65973 -3.1957 0
M  V30 35866 C 3464.18 -3.20155 -3.15944 0
M  V30 35867 C 3465.5 -1.38031 -4.17894 0
M  V30 35868 H 3462.62 -0.362369 -0.641762 0
M  V30 35869 H 3465.26 -1.46926 -1.20469 0
M  V30 35870 H 3463.41 -1.2553 -3.67661 0
M  V30 35871 H 3465.08 -3.69792 -2.75774 0
M  V30 35872 H 3463.32 -3.51852 -2.53737 0
M  V30 35873 H 3463.99 -3.61909 -4.16805 0
M  V30 35874 H 3466.47 -1.73089 -3.78391 0
M  V30 35875 H 3465.35 -1.87195 -5.15994 0
M  V30 35876 H 3465.61 -0.304889 -4.41047 0
M  V30 35877 N 3464.67 1.2224 -0.994741 0
M  V30 35878 C 3465.6 2.26523 -0.566539 0
M  V30 35879 C 3466.58 1.65146 0.407512 0
M  V30 35880 O 3467.76 1.91904 0.297743 0
M  V30 35881 C 3464.89 3.471 0.117799 0
M  V30 35882 C 3463.85 4.20925 -0.774982 0
M  V30 35883 C 3463.17 5.34683 0.0423747 0
M  V30 35884 C 3464.47 4.79412 -2.07271 0
M  V30 35885 H 3466.17 2.62594 -1.43822 0
M  V30 35886 H 3463.71 1.26228 -0.692993 0
M  V30 35887 H 3465.67 4.19213 0.428769 0
M  V30 35888 H 3464.39 3.10131 1.02404 0
M  V30 35889 H 3463.05 3.50649 -1.06962 0
M  V30 35890 H 3462.7 4.93955 0.94959 0
M  V30 35891 H 3462.4 5.85002 -0.55197 0
M  V30 35892 H 3463.92 6.09611 0.347397 0
M  V30 35893 H 3465.33 5.43457 -1.82557 0
M  V30 35894 H 3463.73 5.40077 -2.61604 0
M  V30 35895 H 3464.8 3.99361 -2.75024 0
M  V30 35896 N 3466.14 0.768172 1.37611 0
M  V30 35897 C 3467.11 0.158323 2.28653 0
M  V30 35898 C 3468.11 -0.63191 1.47863 0
M  V30 35899 O 3469.3 -0.456025 1.68125 0
M  V30 35900 C 3466.43 -0.783377 3.31777 0
M  V30 35901 H 3467.62 0.960822 2.84092 0
M  V30 35902 H 3465.18 0.536142 1.46817 0
M  V30 35903 H 3465.91 -1.61101 2.81455 0
M  V30 35904 H 3465.7 -0.218947 3.91488 0
M  V30 35905 H 3467.19 -1.20561 3.99818 0
M  V30 35906 N 3467.62 -1.48829 0.518419 0
M  V30 35907 C 3468.85 -2.06594 -0.0161402 0
M  V30 35908 C 3469.26 -1.37684 -1.29769 0
M  V30 35909 O 3468.6 -0.454453 -1.7799 0
M  V30 35910 C 3468.67 -3.58051 -0.322442 0
M  V30 35911 C 3468.33 -4.4876 0.863927 0
M  V30 35912 C 3469.33 -4.89232 1.7592 0
M  V30 35913 C 3467.01 -4.90822 1.06766 0
M  V30 35914 C 3469.01 -5.70523 2.84221 0
M  V30 35915 C 3466.69 -5.71886 2.15382 0
M  V30 35916 C 3467.69 -6.11643 3.03943 0
M  V30 35917 O 3467.38 -6.91083 4.10682 0
M  V30 35918 H 3467.11 -0.675533 0.025133 0
M  V30 35919 H 3469.66 -1.92364 0.720086 0
M  V30 35920 H 3467.89 -3.70352 -1.11249 0
M  V30 35921 H 3469.58 -3.97984 -0.797694 0
M  V30 35922 H 3470.35 -4.57367 1.6137 0
M  V30 35923 H 3466.23 -4.59367 0.387647 0
M  V30 35924 H 3469.77 -6.01475 3.53375 0
M  V30 35925 H 3465.67 -6.03164 2.29921 0
M  V30 35926 H 3466.44 -7.09419 4.08249 0
M  V30 35927 N 3469.1 -0.253021 -1.55556 0
M  V30 35928 C 3470.33 0.373986 -2.03492 0
M  V30 35929 C 3470.74 1.51092 -1.1321 0
M  V30 35930 O 3470.1 1.81901 -0.147737 0
M  V30 35931 C 3470.15 0.875986 -3.50726 0
M  V30 35932 O 3469.87 -0.215651 -4.37569 0
M  V30 35933 C 3471.37 1.57306 -4.14451 0
M  V30 35934 H 3468.59 0.0881527 -0.665184 0
M  V30 35935 H 3471.14 -0.378671 -2.00964 0
M  V30 35936 H 3469.29 1.5788 -3.53769 0
M  V30 35937 H 3469.71 0.166532 -5.24236 0
M  V30 35938 H 3471.18 1.87596 -5.19145 0
M  V30 35939 H 3471.66 2.49712 -3.61304 0
M  V30 35940 H 3472.26 0.914662 -4.15348 0
M  V30 35941 N 3470.58 1.57587 0.0200142 0
M  V30 35942 C 3471.51 2.03962 1.04557 0
M  V30 35943 C 3472.52 0.953986 1.3192 0
M  V30 35944 O 3473.71 1.23114 1.29248 0
M  V30 35945 C 3470.81 2.40762 2.3851 0
M  V30 35946 C 3469.99 3.71816 2.30373 0
M  V30 35947 C 3469.04 3.95704 3.46849 0
M  V30 35948 O 3468.07 4.66642 3.25936 0
M  V30 35949 N 3469.27 3.42044 4.69027 0
M  V30 35950 H 3472.04 2.92561 0.650231 0
M  V30 35951 H 3469.6 1.60561 0.20779 0
M  V30 35952 H 3471.59 2.53873 3.15167 0
M  V30 35953 H 3470.16 1.57786 2.69856 0
M  V30 35954 H 3469.38 3.68972 1.38756 0
M  V30 35955 H 3470.67 4.57771 2.22089 0
M  V30 35956 H 3470.07 2.84562 4.88918 0
M  V30 35957 H 3468.62 3.60519 5.43019 0
M  V30 35958 N 3472.06 -0.292445 1.54863 0
M  V30 35959 C 3473.28 -1.04963 1.78879 0
M  V30 35960 C 3473.71 -1.79856 0.550755 0
M  V30 35961 O 3473.06 -1.74297 -0.499024 0
M  V30 35962 C 3473.11 -1.99917 3.00109 0
M  V30 35963 O 3472.22 -3.08366 2.73833 0
M  V30 35964 H 3471.56 -0.301097 0.591808 0
M  V30 35965 H 3474.09 -0.327265 2.01966 0
M  V30 35966 H 3474.1 -2.42228 3.28313 0
M  V30 35967 H 3472.77 -1.44814 3.89874 0
M  V30 35968 H 3471.35 -2.70509 2.5667 0
M  V30 35969 N 3473.53 -1.47465 -0.55605 0
M  V30 35970 C 3474.76 -1.57538 -1.33661 0
M  V30 35971 C 3475.17 -0.22501 -1.87857 0
M  V30 35972 O 3474.52 0.792062 -1.65747 0
M  V30 35973 C 3474.58 -2.54157 -2.54253 0
M  V30 35974 C 3474.24 -3.99825 -2.21335 0
M  V30 35975 C 3475.24 -4.88275 -1.78559 0
M  V30 35976 C 3472.92 -4.45169 -2.32658 0
M  V30 35977 C 3474.92 -6.2009 -1.47538 0
M  V30 35978 C 3472.6 -5.77011 -2.0125 0
M  V30 35979 C 3473.6 -6.64293 -1.58757 0
M  V30 35980 O 3473.29 -7.93685 -1.27748 0
M  V30 35981 H 3473.02 -0.53462 -0.413712 0
M  V30 35982 H 3475.58 -1.93807 -0.680308 0
M  V30 35983 H 3473.81 -2.12958 -3.22778 0
M  V30 35984 H 3475.5 -2.54345 -3.16328 0
M  V30 35985 H 3476.26 -4.5449 -1.69303 0
M  V30 35986 H 3472.14 -3.77438 -2.64691 0
M  V30 35987 H 3475.68 -6.88173 -1.14298 0
M  V30 35988 H 3471.58 -6.10338 -2.10139 0
M  V30 35989 H 3472.35 -8.06199 -1.41369 0
M  V30 35990 N 3475.01 0.802873 -1.35616 0
M  V30 35991 C 3476.43 1.09898 -1.15735 0
M  V30 35992 C 3476.63 2.01481 0.027674 0
M  V30 35993 O 3475.69 2.42685 0.697153 0
M  V30 35994 C 3477 1.72638 -2.46204 0
M  V30 35995 C 3478.55 1.85042 -2.52445 0
M  V30 35996 C 3479.02 2.51198 -3.82967 0
M  V30 35997 N 3480.51 2.5868 -3.84238 0
M  V30 35998 C 3481.25 3.10646 -4.81961 0
M  V30 35999 N 3480.74 3.63021 -5.90074 0
M  V30 36000 N 3482.54 3.09233 -4.69395 0
M  V30 36001 H 3474.69 0.19414 -2.11511 0
M  V30 36002 H 3476.95 0.148722 -0.936262 0
M  V30 36003 H 3476.66 1.12811 -3.33116 0
M  V30 36004 H 3476.53 2.72297 -2.61025 0
M  V30 36005 H 3478.92 2.44011 -1.65959 0
M  V30 36006 H 3479 0.842274 -2.41535 0
M  V30 36007 H 3478.64 1.92877 -4.69852 0
M  V30 36008 H 3478.57 3.52557 -3.91166 0
M  V30 36009 H 3481.06 2.21577 -3.06124 0
M  V30 36010 H 3481.38 4.00984 -6.6063 0
M  V30 36011 H 3479.72 3.6121 -5.93761 0
M  V30 36012 H 3482.91 2.67595 -3.84071 0
M  V30 36013 H 3483.09 3.49426 -5.45716 0
M  V30 36014 N 3476.49 1.19674 1.02547 0
M  V30 36015 C 3477.45 0.939444 2.09062 0
M  V30 36016 C 3478.45 -0.0814555 1.60594 0
M  V30 36017 O 3479.64 0.153657 1.73521 0
M  V30 36018 C 3476.78 0.412573 3.38394 0
M  V30 36019 H 3477.97 1.88417 2.33322 0
M  V30 36020 H 3475.52 1.01088 1.1921 0
M  V30 36021 H 3476.26 -0.538038 3.19806 0
M  V30 36022 H 3476.04 1.1487 3.74896 0
M  V30 36023 H 3477.53 0.251752 4.1684 0
M  V30 36024 N 3477.97 -1.21711 1.00121 0
M  V30 36025 C 3478.92 -2.23942 0.558428 0
M  V30 36026 C 3479.89 -1.60869 -0.413547 0
M  V30 36027 O 3481.07 -1.88158 -0.316445 0
M  V30 36028 C 3478.21 -3.44916 -0.112558 0
M  V30 36029 C 3477.32 -4.22475 0.902145 0
M  V30 36030 C 3476.46 -5.30809 0.203815 0
M  V30 36031 C 3475.5 -6.00095 1.20632 0
M  V30 36032 N 3474.64 -7.00053 0.53573 0
M  V30 36033 H 3479.48 -2.61179 1.4349 0
M  V30 36034 H 3477.01 -1.28354 0.718594 0
M  V30 36035 H 3478.97 -4.13965 -0.518577 0
M  V30 36036 H 3477.6 -3.08419 -0.952773 0
M  V30 36037 H 3476.65 -3.52643 1.42643 0
M  V30 36038 H 3477.96 -4.70183 1.66521 0
M  V30 36039 H 3477.12 -6.06149 -0.258508 0
M  V30 36040 H 3475.86 -4.84097 -0.591688 0
M  V30 36041 H 3474.86 -5.2353 1.67919 0
M  V30 36042 H 3476.09 -6.48894 2.00284 0
M  V30 36043 H 3474.03 -6.5556 -0.240185 0
M  V30 36044 H 3473.95 -7.45809 1.23711 0
M  V30 36045 H 3475.22 -7.7944 0.0964859 0
M  V30 36046 N 3479.45 -0.775459 -1.37202 0
M  V30 36047 C 3480.38 -0.178301 -2.32818 0
M  V30 36048 C 3481.36 0.678916 -1.55964 0
M  V30 36049 O 3482.54 0.615615 -1.84184 0
M  V30 36050 C 3479.67 0.698708 -3.40199 0
M  V30 36051 C 3478.63 -0.0574982 -4.27961 0
M  V30 36052 C 3477.95 0.939198 -5.26387 0
M  V30 36053 C 3479.25 -1.23865 -5.074 0
M  V30 36054 H 3480.95 -0.977078 -2.83008 0
M  V30 36055 H 3478.49 -0.471298 -1.36069 0
M  V30 36056 H 3480.45 1.1263 -4.06069 0
M  V30 36057 H 3479.17 1.53004 -2.88543 0
M  V30 36058 H 3477.83 -0.465912 -3.63627 0
M  V30 36059 H 3477.48 1.76518 -4.7101 0
M  V30 36060 H 3477.18 0.437741 -5.85967 0
M  V30 36061 H 3478.7 1.36565 -5.95132 0
M  V30 36062 H 3480.12 -0.887523 -5.66388 0
M  V30 36063 H 3478.51 -1.67245 -5.76324 0
M  V30 36064 H 3479.58 -2.04093 -4.39857 0
M  V30 36065 N 3480.93 1.48552 -0.526305 0
M  V30 36066 C 3482.15 2.06899 0.00519133 0
M  V30 36067 C 3482.57 1.38335 1.28487 0
M  V30 36068 O 3481.93 0.469679 1.76353 0
M  V30 36069 C 3481.98 3.60725 0.236646 0
M  V30 36070 O 3481.7 4.26713 -0.992331 0
M  V30 36071 C 3483.2 4.35857 0.808938 0
M  V30 36072 H 3480.42 0.670243 -0.0318544 0
M  V30 36073 H 3482.96 1.90992 -0.730899 0
M  V30 36074 H 3481.12 3.76249 0.922776 0
M  V30 36075 H 3481.53 5.18805 -0.770788 0
M  V30 36076 H 3483.01 5.44274 0.920332 0
M  V30 36077 H 3483.48 4.00036 1.81295 0
M  V30 36078 H 3484.09 4.25001 0.159489 0
M  V30 36079 N 3482.4 0.261267 1.55419 0
M  V30 36080 C 3483.81 -0.239162 1.85162 0
M  V30 36081 C 3484.17 -1.56507 1.18322 0
M  V30 36082 O 3483.29 -2.11309 0.466637 0
M  V30 36083 C 3483.89 -0.440721 3.35921 0
M  V30 36084 C 3482.44 -0.885397 3.65838 0
M  V30 36085 C 3481.59 0.0292469 2.77285 0
M  V30 36086 H 3484.54 0.483444 1.51157 0
M  V30 36087 H 3484.56 -1.2813 3.58278 0
M  V30 36088 H 3484.08 0.524449 3.8454 0
M  V30 36089 H 3482.18 -1.86253 3.22708 0
M  V30 36090 H 3482.29 -0.73231 4.7347 0
M  V30 36091 H 3480.65 -0.484657 2.50046 0
M  V30 36092 H 3481.44 0.99005 3.28714 0
M  V30 36093 N 3483.88 -1.57596 -0.0116567 0
M  V30 36094 C 3485.13 -1.89681 -0.697544 0
M  V30 36095 C 3485.45 -0.861153 -1.74955 0
M  V30 36096 O 3484.72 0.102996 -1.95629 0
M  V30 36097 H 3483.3 -0.700059 -0.260628 0
M  V30 36098 H 3485.96 -1.94882 0.0265125 0
M  V30 36099 H 3485.06 -2.8909 -1.17616 0
M  V30 36100 N 3485.36 0.284228 -1.55016 0
M  V30 36101 C 3486.6 1.02508 -1.76837 0
M  V30 36102 C 3486.96 1.83903 -0.551707 0
M  V30 36103 O 3488.16 2.60873 -0.647965 0
M  V30 36104 C 3486.44 1.89343 -3.03124 0
M  V30 36105 S 3487.99 2.69846 -3.46018 0
M  V30 36106 H 3484.81 0.345442 -0.621442 0
M  V30 36107 H 3487.41 0.296674 -1.93236 0
M  V30 36108 H 3486.12 1.28451 -3.8978 0
M  V30 36109 H 3485.65 2.66523 -2.8936 0
M  V30 36110 H 3487.66 3.91855 -3.04407 0
M  V30 36111 N 3486.84 1.47758 0.548222 0
M  V30 36112 C 3487.75 1.63568 1.68175 0
M  V30 36113 C 3488.76 0.51838 1.66099 0
M  V30 36114 O 3489.94 0.787093 1.85383 0
M  V30 36115 C 3487 1.65459 3.0467 0
M  V30 36116 C 3486.07 2.88682 3.17744 0
M  V30 36117 C 3485.3 2.90474 4.47728 0
M  V30 36118 O 3485.52 2.01211 5.33732 0
M  V30 36119 O 3484.46 3.82441 4.64782 0
M  V30 36120 H 3488.28 2.595 1.57777 0
M  V30 36121 H 3485.87 1.30947 0.719254 0
M  V30 36122 H 3487.75 1.6933 3.85882 0
M  V30 36123 H 3486.42 0.726967 3.15431 0
M  V30 36124 H 3485.33 2.90352 2.35895 0
M  V30 36125 H 3486.66 3.80769 3.11891 0
M  V30 36126 N 3488.32 -0.79567 1.3604 0
M  V30 36127 C 3489.28 -1.88964 1.29713 0
M  V30 36128 C 3490.28 -1.59473 0.20617 0
M  V30 36129 O 3491.47 -1.68001 0.460563 0
M  V30 36130 C 3488.6 -3.25617 1.00928 0
M  V30 36131 H 3489.79 -1.95991 2.26997 0
M  V30 36132 H 3487.35 -0.992769 1.20722 0
M  V30 36133 H 3488.08 -3.24274 0.0407597 0
M  V30 36134 H 3487.87 -3.4841 1.79869 0
M  V30 36135 H 3489.36 -4.05673 0.990897 0
M  V30 36136 N 3489.79 -1.20217 -1.0191 0
M  V30 36137 C 3490.7 -0.964365 -2.13862 0
M  V30 36138 C 3491.72 0.0789251 -1.73821 0
M  V30 36139 O 3492.9 -0.107949 -2.0111 0
M  V30 36140 C 3489.96 -0.516817 -3.42826 0
M  V30 36141 C 3489.02 -1.63066 -3.97125 0
M  V30 36142 C 3488.26 -1.20437 -5.19933 0
M  V30 36143 O 3488.48 -0.0720121 -5.70355 0
M  V30 36144 O 3487.41 -2.01081 -5.67318 0
M  V30 36145 H 3491.24 -1.90166 -2.36792 0
M  V30 36146 H 3488.82 -0.985823 -1.12258 0
M  V30 36147 H 3490.71 -0.276346 -4.20493 0
M  V30 36148 H 3489.38 0.391926 -3.21319 0
M  V30 36149 H 3488.29 -1.92539 -3.20749 0
M  V30 36150 H 3489.62 -2.51632 -4.23016 0
M  V30 36151 N 3491.27 1.21178 -1.00765 0
M  V30 36152 C 3492.24 2.21864 -0.575222 0
M  V30 36153 C 3493.24 1.56948 0.349844 0
M  V30 36154 O 3494.43 1.73638 0.139764 0
M  V30 36155 C 3491.56 3.40518 0.161249 0
M  V30 36156 H 3492.75 2.61636 -1.46583 0
M  V30 36157 H 3490.3 1.34485 -0.796453 0
M  V30 36158 H 3491.04 3.06238 1.06717 0
M  V30 36159 H 3490.82 3.88858 -0.503169 0
M  V30 36160 H 3492.31 4.15153 0.451454 0
M  V30 36161 N 3492.75 0.782725 1.36789 0
M  V30 36162 C 3493.66 0.177511 2.33927 0
M  V30 36163 C 3494.68 -0.666774 1.60718 0
M  V30 36164 O 3495.85 -0.584128 1.92743 0
M  V30 36165 C 3492.92 -0.682881 3.39908 0
M  V30 36166 C 3491.98 0.179129 4.28926 0
M  V30 36167 C 3491.21 -0.640293 5.29845 0
M  V30 36168 O 3491.43 -1.87671 5.38642 0
M  V30 36169 O 3490.37 -0.0437106 6.01884 0
M  V30 36170 H 3494.19 0.980492 2.87437 0
M  V30 36171 H 3491.78 0.544065 1.39141 0
M  V30 36172 H 3493.66 -1.17372 4.04724 0
M  V30 36173 H 3492.34 -1.46386 2.88709 0
M  V30 36174 H 3491.24 0.716576 3.67173 0
M  V30 36175 H 3492.58 0.923462 4.83459 0
M  V30 36176 N 3494.23 -1.48271 0.534176 0
M  V30 36177 C 3495.46 -2.06899 0.00578112 0
M  V30 36178 C 3495.87 -1.39014 -1.27752 0
M  V30 36179 O 3495.23 -0.479024 -1.76101 0
M  V30 36180 C 3495.28 -3.60845 -0.217513 0
M  V30 36181 O 3495 -4.26181 1.01495 0
M  V30 36182 C 3496.5 -4.3628 -0.785812 0
M  V30 36183 H 3493.72 -0.670065 0.0354084 0
M  V30 36184 H 3496.27 -1.90602 0.741017 0
M  V30 36185 H 3494.42 -3.76733 -0.902809 0
M  V30 36186 H 3494.83 -5.18389 0.798291 0
M  V30 36187 H 3496.31 -5.44754 -0.891455 0
M  V30 36188 H 3496.79 -4.00992 -1.79171 0
M  V30 36189 H 3497.39 -4.25079 -0.136948 0
M  V30 36190 N 3495.71 -0.269505 -1.55279 0
M  V30 36191 C 3496.62 0.630611 -2.25966 0
M  V30 36192 C 3497.63 1.17474 -1.28359 0
M  V30 36193 O 3498.81 1.20622 -1.61283 0
M  V30 36194 C 3495.87 1.80076 -2.96266 0
M  V30 36195 C 3494.93 1.29386 -4.09338 0
M  V30 36196 C 3494.17 2.40824 -4.76276 0
M  V30 36197 O 3494.39 3.60059 -4.42396 0
M  V30 36198 O 3493.32 2.09299 -5.64338 0
M  V30 36199 H 3497.15 0.0581535 -3.03644 0
M  V30 36200 H 3494.74 -0.0371228 -1.49354 0
M  V30 36201 H 3496.62 2.48317 -3.40466 0
M  V30 36202 H 3495.29 2.36041 -2.21509 0
M  V30 36203 H 3494.2 0.578089 -3.69606 0
M  V30 36204 H 3495.53 0.780031 -4.8598 0
M  V30 36205 N 3497.18 1.576 0.00329885 0
M  V30 36206 C 3498.15 2.07164 0.980592 0
M  V30 36207 C 3499.15 0.980424 1.27453 0
M  V30 36208 O 3500.34 1.24319 1.22027 0
M  V30 36209 C 3497.47 2.51032 2.30642 0
M  V30 36210 H 3498.66 2.94777 0.55193 0
M  V30 36211 H 3496.22 1.54276 0.250701 0
M  V30 36212 H 3496.95 1.66652 2.78204 0
M  V30 36213 H 3496.74 3.30723 2.10629 0
M  V30 36214 H 3498.23 2.89716 3.00756 0
M  V30 36215 N 3498.66 -0.276003 1.55164 0
M  V30 36216 C 3499.91 -1.00577 1.74835 0
M  V30 36217 C 3500.22 -1.87557 0.555122 0
M  V30 36218 O 3501.43 -2.6399 0.634174 0
M  V30 36219 C 3499.89 -1.83813 3.0942 0
M  V30 36220 C 3499.49 -1.01714 4.36301 0
M  V30 36221 C 3501.24 -2.56238 3.38441 0
M  V30 36222 C 3499.15 -1.8437 5.61927 0
M  V30 36223 H 3498.08 -0.379243 0.651683 0
M  V30 36224 H 3500.73 -0.261579 1.81626 0
M  V30 36225 H 3499.11 -2.62316 2.96659 0
M  V30 36226 H 3500.28 -0.276484 4.5997 0
M  V30 36227 H 3498.6 -0.407572 4.14401 0
M  V30 36228 H 3501.19 -3.18478 4.29507 0
M  V30 36229 H 3501.54 -3.26367 2.58438 0
M  V30 36230 H 3502.07 -1.84766 3.52287 0
M  V30 36231 H 3498.81 -1.18667 6.44669 0
M  V30 36232 H 3498.33 -2.56041 5.42405 0
M  V30 36233 H 3500.01 -2.41809 6.00114 0
M  V30 36234 N 3500.14 -1.48046 -0.540378 0
M  V30 36235 C 3501.38 -1.57124 -1.30735 0
M  V30 36236 C 3501.74 -0.235214 -1.90554 0
M  V30 36237 O 3502.95 -0.200917 -2.68048 0
M  V30 36238 C 3501.22 -2.67044 -2.37534 0
M  V30 36239 S 3502.78 -2.95818 -3.24094 0
M  V30 36240 H 3499.59 -0.554647 -0.444846 0
M  V30 36241 H 3502.2 -1.85515 -0.616797 0
M  V30 36242 H 3500.9 -3.62691 -1.92051 0
M  V30 36243 H 3500.43 -2.40521 -3.11309 0
M  V30 36244 H 3502.45 -2.34319 -4.37389 0
M  V30 36245 N 3501.62 0.788444 -1.3646 0
M  V30 36246 C 3502.87 1.54636 -1.30744 0
M  V30 36247 C 3503.19 1.94171 0.112995 0
M  V30 36248 O 3502.45 1.63035 1.08249 0
M  V30 36249 C 3502.75 2.83463 -2.17677 0
M  V30 36250 C 3502.41 2.63061 -3.6621 0
M  V30 36251 C 3501.08 2.57205 -4.06693 0
M  V30 36252 C 3503.43 2.44335 -4.6038 0
M  V30 36253 C 3500.76 2.30591 -5.39486 0
M  V30 36254 C 3503.11 2.19247 -5.93391 0
M  V30 36255 C 3501.77 2.11825 -6.32998 0
M  V30 36256 H 3501.04 0.565853 -0.478425 0
M  V30 36257 H 3503.69 0.909558 -1.68521 0
M  V30 36258 H 3501.99 3.51616 -1.7284 0
M  V30 36259 H 3503.69 3.41259 -2.10579 0
M  V30 36260 H 3500.28 2.68474 -3.34095 0
M  V30 36261 H 3504.46 2.4786 -4.29976 0
M  V30 36262 H 3499.72 2.23327 -5.69153 0
M  V30 36263 H 3503.89 2.03753 -6.65926 0
M  V30 36264 H 3501.52 1.90965 -7.35824 0
M  V30 36265 N 3503.1 1.20755 1.01271 0
M  V30 36266 C 3504.34 1.02008 1.7493 0
M  V30 36267 C 3504.67 -0.447338 1.89286 0
M  V30 36268 O 3503.93 -1.34832 1.41841 0
M  V30 36269 C 3504.23 1.65334 3.16859 0
M  V30 36270 C 3503.89 3.15157 3.2247 0
M  V30 36271 C 3502.55 3.56042 3.23709 0
M  V30 36272 C 3504.91 4.11146 3.20325 0
M  V30 36273 C 3502.23 4.91437 3.20479 0
M  V30 36274 C 3504.59 5.46492 3.18636 0
M  V30 36275 C 3503.25 5.86786 3.1818 0
M  V30 36276 H 3502.52 0.373275 0.640115 0
M  V30 36277 H 3505.17 1.50236 1.18749 0
M  V30 36278 H 3503.47 1.09378 3.76223 0
M  V30 36279 H 3505.17 1.4834 3.72554 0
M  V30 36280 H 3501.76 2.82589 3.22244 0
M  V30 36281 H 3505.94 3.80591 3.18535 0
M  V30 36282 H 3501.2 5.21914 3.18459 0
M  V30 36283 H 3505.37 6.20614 3.15929 0
M  V30 36284 H 3503 6.9167 3.15431 0
M  V30 36285 N 3504.58 -1.20642 1.01406 0
M  V30 36286 C 3505.82 -1.90226 0.702982 0
M  V30 36287 C 3506.15 -1.78489 -0.765212 0
M  V30 36288 O 3505.43 -1.16744 -1.55567 0
M  V30 36289 C 3505.71 -3.41708 1.13612 0
M  V30 36290 C 3505.57 -3.62392 2.66443 0
M  V30 36291 C 3506.88 -4.34409 0.705438 0
M  V30 36292 H 3504 -0.690793 0.256855 0
M  V30 36293 H 3506.65 -1.42091 1.26136 0
M  V30 36294 H 3504.8 -3.82835 0.661044 0
M  V30 36295 H 3506.47 -3.30534 3.21784 0
M  V30 36296 H 3504.71 -3.05948 3.07535 0
M  V30 36297 H 3505.38 -4.68567 2.91803 0
M  V30 36298 H 3507.86 -4.00916 1.11382 0
M  V30 36299 H 3506.73 -5.39024 1.03656 0
M  V30 36300 H 3506.99 -4.4035 -0.393017 0
M  V30 36301 N 3506.05 -0.789968 -1.36372 0
M  V30 36302 C 3506.99 -0.146682 -2.2873 0
M  V30 36303 C 3508 0.644392 -1.49504 0
M  V30 36304 O 3509.19 0.479485 -1.7194 0
M  V30 36305 C 3506.29 0.815311 -3.28947 0
M  V30 36306 C 3505.46 0.0741747 -4.37337 0
M  V30 36307 C 3504.52 0.952193 -5.17513 0
M  V30 36308 O 3503.55 0.409237 -5.67727 0
M  V30 36309 N 3504.75 2.27638 -5.34005 0
M  V30 36310 H 3507.51 -0.940028 -2.84576 0
M  V30 36311 H 3505.07 -0.643924 -1.48544 0
M  V30 36312 H 3507.07 1.40654 -3.79471 0
M  V30 36313 H 3505.64 1.50953 -2.73737 0
M  V30 36314 H 3504.86 -0.698136 -3.87969 0
M  V30 36315 H 3506.14 -0.437237 -5.06918 0
M  V30 36316 H 3505.54 2.74164 -4.94824 0
M  V30 36317 H 3504.1 2.81724 -5.87771 0
M  V30 36318 N 3507.53 1.47986 -0.542031 0
M  V30 36319 C 3508.46 2.27817 0.25139 0
M  V30 36320 C 3509.48 1.36096 0.893412 0
M  V30 36321 O 3510.67 1.61047 0.769821 0
M  V30 36322 C 3507.77 3.09872 1.37231 0
M  V30 36323 C 3506.94 4.29454 0.829945 0
M  V30 36324 C 3506 4.93224 1.83347 0
M  V30 36325 O 3505.02 5.52077 1.38561 0
M  V30 36326 N 3506.23 4.8655 3.16622 0
M  V30 36327 H 3508.99 2.96551 -0.433333 0
M  V30 36328 H 3506.55 1.57446 -0.377126 0
M  V30 36329 H 3508.54 3.49402 2.04206 0
M  V30 36330 H 3507.11 2.43481 1.9605 0
M  V30 36331 H 3506.33 3.94197 -0.016152 0
M  V30 36332 H 3507.62 5.06836 0.446673 0
M  V30 36333 H 3507.02 4.39908 3.55665 0
M  V30 36334 H 3505.58 5.30144 3.79197 0
M  V30 36335 N 3509.01 0.277736 1.55133 0
M  V30 36336 C 3510.26 -0.338295 1.99654 0
M  V30 36337 C 3510.58 -1.55664 1.16614 0
M  V30 36338 O 3509.84 -1.94408 0.224462 0
M  V30 36339 C 3510.14 -0.761967 3.49183 0
M  V30 36340 C 3509.8 0.352037 4.49524 0
M  V30 36341 C 3508.47 0.657917 4.76681 0
M  V30 36342 C 3510.82 1.10256 5.09405 0
M  V30 36343 C 3508.15 1.71786 5.60987 0
M  V30 36344 C 3510.5 2.15225 5.94862 0
M  V30 36345 C 3509.16 2.46445 6.2034 0
M  V30 36346 H 3508.43 -0.123791 0.730587 0
M  V30 36347 H 3511.08 0.391994 1.87445 0
M  V30 36348 H 3509.38 -1.57197 3.58882 0
M  V30 36349 H 3511.08 -1.2494 3.81039 0
M  V30 36350 H 3507.67 0.103513 4.28475 0
M  V30 36351 H 3511.86 0.879507 4.88445 0
M  V30 36352 H 3507.11 1.96473 5.78972 0
M  V30 36353 H 3511.29 2.73853 6.40295 0
M  V30 36354 H 3508.91 3.28711 6.85458 0
M  V30 36355 N 3510.49 -1.57599 0.00505908 0
M  V30 36356 C 3511.72 -1.9507 -0.689575 0
M  V30 36357 C 3512.13 -0.880212 -1.67026 0
M  V30 36358 O 3511.49 0.140375 -1.81959 0
M  V30 36359 C 3511.54 -3.3257 -1.41703 0
M  V30 36360 O 3511.26 -4.3551 -0.475669 0
M  V30 36361 C 3512.76 -3.8453 -2.20571 0
M  V30 36362 H 3509.98 -0.643022 -0.191739 0
M  V30 36363 H 3512.52 -2.04419 0.057682 0
M  V30 36364 H 3510.68 -3.24514 -2.11588 0
M  V30 36365 H 3511.09 -5.15082 -0.989483 0
M  V30 36366 H 3512.57 -4.83152 -2.6696 0
M  V30 36367 H 3513.04 -3.17503 -3.03461 0
M  V30 36368 H 3513.65 -3.95778 -1.55693 0
M  V30 36369 N 3511.97 0.267771 -1.55309 0
M  V30 36370 C 3513.24 1.02026 -1.66883 0
M  V30 36371 C 3513.62 2.0411 -0.538744 0
M  V30 36372 O 3512.97 2.23811 0.460535 0
M  V30 36373 C 3513.18 1.67238 -3.06321 0
M  V30 36374 C 3514.53 2.18205 -3.64241 0
M  V30 36375 O 3515.55 1.77215 -3.08987 0
M  V30 36376 O 3514.41 2.93404 -4.6106 0
M  V30 36377 H 3511.51 0.473581 -0.677975 0
M  V30 36378 H 3514.05 0.263213 -1.67646 0
M  V30 36379 H 3512.82 0.932918 -3.80016 0
M  V30 36380 H 3512.45 2.49616 -3.09479 0
M  V30 36381 N 3513.44 1.48331 0.532519 0
M  V30 36382 C 3514.38 1.57232 1.65389 0
M  V30 36383 C 3515.35 0.422912 1.57004 0
M  V30 36384 O 3516.54 0.634163 1.77512 0
M  V30 36385 C 3513.67 1.49794 3.03775 0
M  V30 36386 C 3512.71 2.69544 3.30527 0
M  V30 36387 S 3513.54 4.31536 3.17076 0
M  V30 36388 C 3514.7 4.26692 4.57913 0
M  V30 36389 H 3514.93 2.52098 1.57588 0
M  V30 36390 H 3512.47 1.36832 0.715283 0
M  V30 36391 H 3514.42 1.4619 3.83587 0
M  V30 36392 H 3513.09 0.5627 3.09019 0
M  V30 36393 H 3512.28 2.60472 4.31475 0
M  V30 36394 H 3511.88 2.70398 2.58381 0
M  V30 36395 H 3514.17 3.96469 5.4938 0
M  V30 36396 H 3515.12 5.2781 4.7204 0
M  V30 36397 H 3515.52 3.57196 4.37117 0
M  V30 36398 N 3514.92 -0.781196 1.36876 0
M  V30 36399 C 3515.83 -1.92534 1.34044 0
M  V30 36400 C 3516.85 -1.72318 0.241384 0
M  V30 36401 O 3518.02 -1.95714 0.475163 0
M  V30 36402 C 3515.09 -3.27521 1.13714 0
M  V30 36403 C 3514.15 -3.60458 2.33171 0
M  V30 36404 C 3513.38 -4.89003 2.13802 0
M  V30 36405 O 3513.61 -5.59348 1.11741 0
M  V30 36406 O 3512.54 -5.20786 3.01771 0
M  V30 36407 H 3516.37 -1.97875 2.3039 0
M  V30 36408 H 3513.95 -0.922616 1.17508 0
M  V30 36409 H 3515.83 -4.08281 1.04328 0
M  V30 36410 H 3514.51 -3.23054 0.204363 0
M  V30 36411 H 3513.41 -2.7997 2.48128 0
M  V30 36412 H 3514.75 -3.69657 3.24984 0
M  V30 36413 N 3516.4 -1.21291 -1.0063 0
M  V30 36414 C 3517.35 -0.938495 -2.07789 0
M  V30 36415 C 3518.33 0.105745 -1.60552 0
M  V30 36416 O 3519.53 -0.103012 -1.767 0
M  V30 36417 C 3516.65 -0.503622 -3.39586 0
M  V30 36418 C 3515.74 -1.58186 -3.93495 0
M  V30 36419 N 3516.13 -2.80664 -4.20787 0
M  V30 36420 C 3514.43 -1.45043 -4.21757 0
M  V30 36421 C 3515.13 -3.50289 -4.64405 0
M  V30 36422 N 3514.11 -2.77725 -4.673 0
M  V30 36423 H 3517.91 -1.86904 -2.26813 0
M  V30 36424 H 3515.42 -1.10844 -1.1869 0
M  V30 36425 H 3517.42 -0.288397 -4.15901 0
M  V30 36426 H 3516.08 0.420176 -3.2197 0
M  V30 36427 H 3517.09 -3.17219 -4.09381 0
M  V30 36428 H 3513.77 -0.591817 -4.13284 0
M  V30 36429 H 3515.16 -4.5515 -4.94255 0
M  V30 36430 N 3517.88 1.20103 -1.02045 0
M  V30 36431 C 3518.83 2.25062 -0.587371 0
M  V30 36432 C 3519.82 1.65179 0.375815 0
M  V30 36433 O 3521.03 1.78321 0.245316 0
M  V30 36434 H 3517.4 0.732148 -0.17165 0
M  V30 36435 H 3519.37 2.58915 -1.48344 0
M  V30 36436 C 3518.12 3.47657 0.0546282 0
M  V30 36437 H 3517.44 3.94017 -0.677526 0
M  V30 36438 H 3518.88 4.22785 0.320712 0
M  V30 36439 C 3517.34 3.10865 1.29863 0
M  V30 36440 O 3517.87 3.2275 2.39156 0
M  V30 36441 N 3516.08 2.65378 1.18419 0
M  V30 36442 H 3515.63 2.55907 0.29485 0
M  V30 36443 H 3515.58 2.41131 2.0175 0
M  V30 36444 N 3519.36 0.797189 1.35951 0
M  V30 36445 C 3520.77 0.479792 1.52217 0
M  V30 36446 C 3520.97 -1.00061 1.749 0
M  V30 36447 O 3520.03 -1.7859 1.78498 0
M  V30 36448 C 3521.34 1.31699 2.70326 0
M  V30 36449 C 3522.89 1.31147 2.842 0
M  V30 36450 C 3523.36 2.13258 4.05321 0
M  V30 36451 N 3524.86 2.10745 4.12482 0
M  V30 36452 C 3525.59 2.71042 5.05296 0
M  V30 36453 N 3525.09 3.40229 6.03503 0
M  V30 36454 N 3526.88 2.60734 4.9797 0
M  V30 36455 H 3519.03 1.75606 1.19483 0
M  V30 36456 H 3521.29 0.746902 0.583817 0
M  V30 36457 H 3521 2.36717 2.60112 0
M  V30 36458 H 3520.87 0.963671 3.64682 0
M  V30 36459 H 3523.26 0.269183 2.9387 0
M  V30 36460 H 3523.34 1.7046 1.90727 0
M  V30 36461 H 3522.99 3.17522 3.96412 0
M  V30 36462 H 3522.92 1.71311 4.97956 0
M  V30 36463 H 3525.41 1.60396 3.42172 0
M  V30 36464 H 3525.72 3.83549 6.70902 0
M  V30 36465 H 3524.06 3.44333 6.03705 0
M  V30 36466 H 3527.26 2.06277 4.20199 0
M  V30 36467 H 3527.43 3.08017 5.70114 0
M  V30 36468 N 3520.83 -1.47696 0.549872 0
M  V30 36469 C 3522.08 -2.02787 0.0231201 0
M  V30 36470 C 3522.41 -1.42411 -1.32033 0
M  V30 36471 O 3521.69 -0.577011 -1.85744 0
M  V30 36472 C 3521.97 -3.60016 -0.077773 0
M  V30 36473 C 3521.82 -4.30838 1.29225 0
M  V30 36474 C 3523.14 -4.32863 -0.794833 0
M  V30 36475 H 3520.26 -0.736934 0.00987602 0
M  V30 36476 H 3522.9 -1.76206 0.710745 0
M  V30 36477 H 3521.05 -3.82794 -0.663396 0
M  V30 36478 H 3522.73 -4.19421 1.92051 0
M  V30 36479 H 3520.97 -3.91478 1.8689 0
M  V30 36480 H 3521.64 -5.39361 1.17445 0
M  V30 36481 H 3524.12 -4.15034 -0.29767 0
M  V30 36482 H 3522.99 -5.42521 -0.83437 0
M  V30 36483 H 3523.25 -4.01558 -1.84941 0
M  V30 36484 N 3522.31 -0.285959 -1.54984 0
M  V30 36485 C 3523.24 0.59022 -2.25917 0
M  V30 36486 C 3524.22 1.15015 -1.25321 0
M  V30 36487 O 3525.41 1.18228 -1.54064 0
M  V30 36488 C 3522.54 1.76931 -2.98852 0
M  V30 36489 C 3521.49 1.34042 -4.06468 0
M  V30 36490 C 3520.82 2.60348 -4.67036 0
M  V30 36491 C 3522.12 0.482662 -5.20065 0
M  V30 36492 H 3523.81 -0.00136834 -2.994 0
M  V30 36493 H 3521.36 -0.00209812 -1.44 0
M  V30 36494 H 3523.31 2.38824 -3.4719 0
M  V30 36495 H 3522.04 2.3869 -2.22923 0
M  V30 36496 H 3520.69 0.744637 -3.58958 0
M  V30 36497 H 3520.34 3.20389 -3.87763 0
M  V30 36498 H 3520.04 2.32358 -5.39707 0
M  V30 36499 H 3521.57 3.2307 -5.18129 0
M  V30 36500 H 3522.98 1.00687 -5.64389 0
M  V30 36501 H 3521.38 0.297186 -5.99364 0
M  V30 36502 H 3522.45 -0.495945 -4.82357 0
M  V30 36503 N 3523.79 1.57594 -0.0134169 0
M  V30 36504 C 3524.7 2.12704 0.989664 0
M  V30 36505 C 3525.72 1.07548 1.36783 0
M  V30 36506 O 3526.89 1.39522 1.45243 0
M  V30 36507 C 3523.96 2.6304 2.25856 0
M  V30 36508 C 3523.02 3.8285 1.94228 0
M  V30 36509 C 3522.25 4.30776 3.15067 0
M  V30 36510 O 3522.47 3.77958 4.27205 0
M  V30 36511 O 3521.41 5.22792 2.98281 0
M  V30 36512 H 3525.23 2.98657 0.551141 0
M  V30 36513 H 3522.82 1.4797 0.206238 0
M  V30 36514 H 3524.7 2.95555 3.00375 0
M  V30 36515 H 3523.38 1.80177 2.6892 0
M  V30 36516 H 3522.28 3.55287 1.17142 0
M  V30 36517 H 3523.62 4.66827 1.55991 0
M  V30 36518 N 3525.27 -0.259531 1.55448 0
M  V30 36519 C 3526.23 -1.30441 1.88461 0
M  V30 36520 C 3527.23 -1.417 0.760121 0
M  V30 36521 O 3528.42 -1.40618 1.02821 0
M  V30 36522 C 3525.55 -2.68393 2.10185 0
M  V30 36523 H 3526.75 -1.02393 2.81879 0
M  V30 36524 H 3524.3 -0.498236 1.48146 0
M  V30 36525 H 3525.03 -3.01601 1.19194 0
M  V30 36526 H 3524.82 -2.61605 2.9207 0
M  V30 36527 H 3526.31 -3.43865 2.36953 0
M  V30 36528 N 3526.75 -1.48611 -0.524645 0
M  V30 36529 C 3527.68 -1.66429 -1.63779 0
M  V30 36530 C 3528.66 -0.513106 -1.62177 0
M  V30 36531 O 3529.84 -0.746262 -1.79289 0
M  V30 36532 C 3526.97 -1.70883 -3.02351 0
M  V30 36533 C 3525.93 -2.85555 -3.18814 0
M  V30 36534 C 3525.25 -2.75102 -4.58501 0
M  V30 36535 C 3526.55 -4.26789 -3.01078 0
M  V30 36536 H 3528.25 -2.5962 -1.49123 0
M  V30 36537 H 3525.79 -1.24939 -0.715975 0
M  V30 36538 H 3527.75 -1.81936 -3.80102 0
M  V30 36539 H 3526.47 -0.742737 -3.18042 0
M  V30 36540 H 3525.13 -2.74066 -2.43482 0
M  V30 36541 H 3524.78 -1.76451 -4.71035 0
M  V30 36542 H 3524.48 -3.52053 -4.7046 0
M  V30 36543 H 3526 -2.8813 -5.38343 0
M  V30 36544 H 3527.41 -4.39084 -3.68617 0
M  V30 36545 H 3525.81 -5.04779 -3.24527 0
M  V30 36546 H 3526.88 -4.42881 -1.97446 0
M  V30 36547 N 3528.22 0.773926 -1.37289 0
M  V30 36548 C 3529.15 1.90111 -1.35573 0
M  V30 36549 C 3530.14 1.6861 -0.224688 0
M  V30 36550 O 3531.32 1.89499 -0.424709 0
M  V30 36551 C 3528.45 3.27363 -1.15977 0
M  V30 36552 C 3527.4 3.63424 -2.26069 0
M  V30 36553 C 3526.73 4.99193 -1.91599 0
M  V30 36554 C 3528.03 3.70399 -3.68242 0
M  V30 36555 H 3529.72 1.91804 -2.29894 0
M  V30 36556 H 3527.27 0.9214 -1.10663 0
M  V30 36557 H 3529.22 4.05853 -1.13407 0
M  V30 36558 H 3527.95 3.26098 -0.1811 0
M  V30 36559 H 3526.61 2.8724 -2.27791 0
M  V30 36560 H 3526.25 4.94465 -0.922673 0
M  V30 36561 H 3525.95 5.2429 -2.65319 0
M  V30 36562 H 3527.48 5.80086 -1.90612 0
M  V30 36563 H 3528.89 4.39045 -3.68662 0
M  V30 36564 H 3527.29 4.06991 -4.40997 0
M  V30 36565 H 3528.36 2.71115 -4.02026 0
M  V30 36566 N 3529.7 1.21823 0.99985 0
M  V30 36567 C 3531.11 1.03645 1.55289 0
M  V30 36568 C 3531.46 -0.402213 1.92033 0
M  V30 36569 O 3530.59 -1.28619 1.74029 0
M  V30 36570 C 3531.18 1.87519 2.82174 0
M  V30 36571 C 3529.74 1.73658 3.33946 0
M  V30 36572 C 3528.89 1.84413 2.07092 0
M  V30 36573 H 3531.84 1.35769 0.821727 0
M  V30 36574 H 3531.86 1.38848 3.54262 0
M  V30 36575 H 3531.37 2.9222 2.554 0
M  V30 36576 H 3529.48 0.716618 3.65644 0
M  V30 36577 H 3529.59 2.55925 4.05018 0
M  V30 36578 H 3527.95 1.27777 2.2033 0
M  V30 36579 H 3528.74 2.90632 1.82723 0
M  V30 36580 N 3531.18 -1.1956 1.0268 0
M  V30 36581 C 3532.11 -2.24941 0.626398 0
M  V30 36582 C 3533.09 -1.66169 -0.363583 0
M  V30 36583 O 3534.28 -1.92626 -0.246759 0
M  V30 36584 C 3531.41 -3.4729 -0.0257301 0
M  V30 36585 C 3530.36 -4.18723 0.886311 0
M  V30 36586 C 3529.69 -5.34608 0.099402 0
M  V30 36587 C 3530.99 -4.73748 2.19909 0
M  V30 36588 H 3532.68 -2.58688 1.50734 0
M  V30 36589 H 3530.23 -1.24347 0.726217 0
M  V30 36590 H 3532.18 -4.20202 -0.317471 0
M  V30 36591 H 3530.9 -3.12737 -0.941456 0
M  V30 36592 H 3529.56 -3.4769 1.16221 0
M  V30 36593 H 3529.21 -4.96299 -0.818293 0
M  V30 36594 H 3528.91 -5.83333 0.706878 0
M  V30 36595 H 3530.43 -6.10318 -0.185647 0
M  V30 36596 H 3531.85 -5.38426 1.96902 0
M  V30 36597 H 3530.25 -5.32952 2.75831 0
M  V30 36598 H 3531.32 -3.91929 2.85516 0
M  V30 36599 N 3532.66 -0.804387 -1.35526 0
M  V30 36600 C 3533.61 -0.211227 -2.29831 0
M  V30 36601 C 3534.58 0.653476 -1.52705 0
M  V30 36602 O 3535.76 0.59902 -1.81153 0
M  V30 36603 C 3532.9 0.635995 -3.39189 0
M  V30 36604 C 3532.01 -0.2489 -4.31282 0
M  V30 36605 C 3531.15 0.606117 -5.27731 0
M  V30 36606 C 3530.19 -0.279312 -6.11462 0
M  V30 36607 N 3529.32 0.535549 -7.00054 0
M  V30 36608 H 3534.16 -1.02085 -2.79969 0
M  V30 36609 H 3531.7 -0.514955 -1.37792 0
M  V30 36610 H 3533.66 1.14234 -4.01256 0
M  V30 36611 H 3532.29 1.4109 -2.90333 0
M  V30 36612 H 3531.34 -0.873328 -3.70239 0
M  V30 36613 H 3532.65 -0.930503 -4.90044 0
M  V30 36614 H 3531.81 1.17768 -5.9516 0
M  V30 36615 H 3530.55 1.32129 -4.6946 0
M  V30 36616 H 3529.55 -0.863161 -5.42982 0
M  V30 36617 H 3530.78 -0.992318 -6.71811 0
M  V30 36618 H 3528.72 1.23474 -6.44275 0
M  V30 36619 H 3528.64 -0.0880542 -7.55949 0
M  V30 36620 H 3529.91 1.09046 -7.71835 0
M  V30 36621 N 3534.14 1.47403 -0.557697 0
M  V30 36622 C 3535.39 2.02072 -0.0337571 0
M  V30 36623 C 3535.71 1.43435 1.32104 0
M  V30 36624 O 3534.98 0.609724 1.8617 0
M  V30 36625 H 3533.56 0.74694 -0.00948961 0
M  V30 36626 H 3536.22 1.80801 -0.727815 0
M  V30 36627 H 3535.31 3.12053 0.0539782 0
M  V30 36628 N 3535.62 0.294175 1.5483 0
M  V30 36629 C 3536.55 -0.578231 2.26227 0
M  V30 36630 C 3537.53 -1.14349 1.2593 0
M  V30 36631 O 3538.71 -1.1741 1.54689 0
M  V30 36632 C 3535.84 -1.75344 2.99786 0
M  V30 36633 C 3534.8 -1.31885 4.07174 0
M  V30 36634 C 3534.12 -2.57868 4.6841 0
M  V30 36635 C 3535.42 -0.455075 5.20314 0
M  V30 36636 H 3537.12 0.0172462 2.99395 0
M  V30 36637 H 3534.66 0.00973475 1.43997 0
M  V30 36638 H 3536.61 -2.36979 3.48452 0
M  V30 36639 H 3535.34 -2.37505 2.24185 0
M  V30 36640 H 3534 -0.72559 3.59348 0
M  V30 36641 H 3533.65 -3.18328 3.89456 0
M  V30 36642 H 3533.35 -2.29493 5.40931 0
M  V30 36643 H 3534.87 -3.20318 5.19835 0
M  V30 36644 H 3536.28 -0.976926 5.64915 0
M  V30 36645 H 3534.68 -0.265396 5.99513 0
M  V30 36646 H 3535.75 0.521519 4.82087 0
M  V30 36647 N 3537.09 -1.57585 0.0217743 0
M  V30 36648 C 3538 -2.13225 -0.97837 0
M  V30 36649 C 3539.02 -1.08271 -1.36211 0
M  V30 36650 O 3540.2 -1.4029 -1.44501 0
M  V30 36651 C 3537.26 -2.64234 -2.24458 0
M  V30 36652 C 3536.32 -3.83875 -1.92194 0
M  V30 36653 C 3535.55 -4.32441 -3.12778 0
M  V30 36654 O 3535.78 -3.80218 -4.25195 0
M  V30 36655 O 3534.71 -5.24367 -2.95505 0
M  V30 36656 H 3538.54 -2.98945 -0.535295 0
M  V30 36657 H 3536.12 -1.48077 -0.198388 0
M  V30 36658 H 3538 -2.97144 -2.98804 0
M  V30 36659 H 3536.68 -1.81601 -2.6796 0
M  V30 36660 H 3535.59 -3.55903 -1.15256 0
M  V30 36661 H 3536.92 -4.67648 -1.53513 0
M  V30 36662 N 3538.57 0.251283 -1.55584 0
M  V30 36663 C 3539.48 1.33263 -1.93075 0
M  V30 36664 C 3540.5 1.52893 -0.830639 0
M  V30 36665 O 3541.67 1.666 -1.13165 0
M  V30 36666 C 3538.74 2.66801 -2.214 0
M  V30 36667 C 3537.8 2.55731 -3.44819 0
M  V30 36668 C 3537.03 3.829 -3.71784 0
M  V30 36669 O 3537.26 4.84582 -3.00893 0
M  V30 36670 O 3536.19 3.81796 -4.65312 0
M  V30 36671 H 3540.02 1.0446 -2.8517 0
M  V30 36672 H 3537.6 0.451668 -1.42409 0
M  V30 36673 H 3539.48 3.45721 -2.40947 0
M  V30 36674 H 3538.16 2.95346 -1.32485 0
M  V30 36675 H 3537.06 1.75112 -3.30585 0
M  V30 36676 H 3538.4 2.32131 -4.34023 0
M  V30 36677 N 3540.05 1.48887 0.516757 0
M  V30 36678 C 3541.47 1.35301 0.846516 0
M  V30 36679 C 3541.67 0.374069 1.97997 0
M  V30 36680 O 3540.72 -0.199958 2.51707 0
M  V30 36681 C 3542.03 2.7565 1.20157 0
M  V30 36682 C 3543.58 2.84235 1.31069 0
M  V30 36683 C 3544.06 4.25316 1.69912 0
M  V30 36684 N 3545.55 4.28052 1.7699 0
M  V30 36685 C 3546.28 5.34166 2.08457 0
M  V30 36686 N 3545.78 6.50543 2.38256 0
M  V30 36687 N 3547.57 5.2157 2.09575 0
M  V30 36688 H 3539.72 2.11141 -0.230909 0
M  V30 36689 H 3541.99 0.947127 -0.0406845 0
M  V30 36690 H 3541.69 3.48909 0.442217 0
M  V30 36691 H 3541.57 3.10018 2.14869 0
M  V30 36692 H 3543.95 2.11224 2.06079 0
M  V30 36693 H 3544.03 2.5347 0.344461 0
M  V30 36694 H 3543.68 4.98849 0.954579 0
M  V30 36695 H 3543.61 4.53535 2.67608 0
M  V30 36696 H 3546.1 3.44115 1.56185 0
M  V30 36697 H 3546.41 7.27245 2.6141 0
M  V30 36698 H 3544.76 6.53795 2.35747 0
M  V30 36699 H 3547.95 4.29663 1.8576 0
M  V30 36700 H 3548.12 6.04366 2.33765 0
M  V30 36701 N 3541.53 -0.766635 1.37697 0
M  V30 36702 C 3542.77 -1.52762 1.33385 0
M  V30 36703 C 3543.11 -1.94035 -0.0800228 0
M  V30 36704 O 3542.38 -1.64458 -1.03845 0
M  V30 36705 C 3542.66 -2.78918 2.27765 0
M  V30 36706 C 3542.52 -2.43867 3.77954 0
M  V30 36707 C 3543.84 -3.80877 2.20501 0
M  V30 36708 H 3540.96 -0.554187 0.485846 0
M  V30 36709 H 3543.6 -0.87909 1.6844 0
M  V30 36710 H 3541.75 -3.34258 1.98 0
M  V30 36711 H 3543.42 -1.94403 4.18336 0
M  V30 36712 H 3541.66 -1.76496 3.96272 0
M  V30 36713 H 3542.33 -3.34069 4.39433 0
M  V30 36714 H 3544.81 -3.35044 2.46748 0
M  V30 36715 H 3543.69 -4.66862 2.88671 0
M  V30 36716 H 3543.95 -4.25514 1.19958 0
M  V30 36717 N 3543.01 -1.22351 -0.993375 0
M  V30 36718 C 3543.97 -0.994543 -2.06498 0
M  V30 36719 C 3544.97 0.0388483 -1.60753 0
M  V30 36720 O 3546.16 -0.199609 -1.73053 0
M  V30 36721 C 3543.29 -0.502147 -3.37181 0
M  V30 36722 H 3544.48 -1.94537 -2.28244 0
M  V30 36723 H 3542.04 -1.04213 -1.16488 0
M  V30 36724 H 3542.77 0.453058 -3.2112 0
M  V30 36725 H 3542.56 -1.24769 -3.71719 0
M  V30 36726 H 3544.05 -0.362181 -4.16026 0
M  V30 36727 N 3544.48 1.19014 -1.03313 0
M  V30 36728 C 3545.45 2.20594 -0.622153 0
M  V30 36729 C 3546.45 1.57655 0.316474 0
M  V30 36730 O 3547.64 1.73896 0.102902 0
M  V30 36731 C 3544.77 3.40784 0.0889833 0
M  V30 36732 H 3545.96 2.58468 -1.52099 0
M  V30 36733 H 3543.51 1.32766 -0.8248 0
M  V30 36734 H 3544.25 3.08433 1.00198 0
M  V30 36735 H 3544.03 3.87703 -0.585538 0
M  V30 36736 H 3545.52 4.16017 0.363292 0
M  V30 36737 N 3545.96 0.811563 1.35098 0
M  V30 36738 C 3546.92 0.230987 2.28033 0
M  V30 36739 C 3547.92 -0.584548 1.49799 0
M  V30 36740 O 3549.11 -0.402307 1.69491 0
M  V30 36741 C 3546.25 -0.677428 3.34101 0
M  V30 36742 H 3547.44 1.05072 2.80891 0
M  V30 36743 H 3544.99 0.582579 1.45037 0
M  V30 36744 H 3545.73 -1.52065 2.86438 0
M  V30 36745 H 3545.51 -0.0942874 3.91987 0
M  V30 36746 H 3547 -1.0778 4.03452 0
M  V30 36747 N 3547.44 -1.47105 0.565506 0
M  V30 36748 C 3548.69 -2.02751 0.0446271 0
M  V30 36749 C 3549.02 -1.43804 -1.30515 0
M  V30 36750 O 3548.29 -0.596679 -1.85122 0
M  V30 36751 C 3548.58 -3.60078 -0.0395841 0
M  V30 36752 C 3548.43 -4.29443 1.33787 0
M  V30 36753 C 3549.75 -4.33682 -0.748877 0
M  V30 36754 H 3546.87 -0.736788 0.0176916 0
M  V30 36755 H 3549.51 -1.75442 0.729394 0
M  V30 36756 H 3547.66 -3.83476 -0.622759 0
M  V30 36757 H 3549.33 -4.17361 1.96489 0
M  V30 36758 H 3547.57 -3.89473 1.91031 0
M  V30 36759 H 3548.25 -5.38085 1.23159 0
M  V30 36760 H 3550.72 -4.15326 -0.253634 0
M  V30 36761 H 3549.6 -5.43376 -0.776782 0
M  V30 36762 H 3549.86 -4.03497 -1.80672 0
M  V30 36763 N 3548.92 -0.302382 -1.54672 0
M  V30 36764 C 3550.2 0.359677 -1.92265 0
M  V30 36765 C 3550.58 1.71581 -1.22976 0
M  V30 36766 O 3549.92 2.2555 -0.365982 0
M  V30 36767 C 3550.13 0.472958 -3.4578 0
M  V30 36768 C 3551.48 0.743178 -4.18045 0
M  V30 36769 O 3552.51 0.556716 -3.51823 0
M  V30 36770 O 3551.36 1.10145 -5.35285 0
M  V30 36771 H 3548.46 0.201345 -0.802115 0
M  V30 36772 H 3551 -0.350542 -1.6604 0
M  V30 36773 H 3549.78 -0.480333 -3.88341 0
M  V30 36774 H 3549.4 1.23159 -3.78044 0
M  V30 36775 N 3550.4 1.57571 -0.0301311 0
M  V30 36776 C 3551.33 2.13313 0.949732 0
M  V30 36777 C 3552.31 1.04951 1.33863 0
M  V30 36778 O 3553.49 1.32788 1.41707 0
M  V30 36779 C 3550.62 2.66103 2.23173 0
M  V30 36780 C 3549.58 3.79262 1.98355 0
M  V30 36781 C 3548.9 4.18484 3.32829 0
M  V30 36782 C 3550.2 5.05294 1.32193 0
M  V30 36783 H 3551.9 2.95437 0.48551 0
M  V30 36784 H 3549.44 1.42117 0.232091 0
M  V30 36785 H 3551.4 3.03734 2.92103 0
M  V30 36786 H 3550.12 1.81142 2.71763 0
M  V30 36787 H 3548.78 3.42071 1.31843 0
M  V30 36788 H 3548.43 3.30503 3.79179 0
M  V30 36789 H 3548.13 4.94739 3.17028 0
M  V30 36790 H 3549.65 4.58698 4.03024 0
M  V30 36791 H 3551.06 5.40504 1.91123 0
M  V30 36792 H 3549.46 5.86554 1.26787 0
M  V30 36793 H 3550.53 4.84002 0.295025 0
M  V30 36794 N 3551.87 -0.243029 1.55715 0
M  V30 36795 C 3553.12 -0.968459 1.76929 0
M  V30 36796 C 3553.44 -1.86338 0.59478 0
M  V30 36797 O 3554.64 -2.62585 0.690027 0
M  V30 36798 C 3553.1 -1.77208 3.1325 0
M  V30 36799 C 3552.71 -0.924363 4.3836 0
M  V30 36800 C 3554.45 -2.49001 3.438 0
M  V30 36801 C 3552.36 -1.7241 5.65711 0
M  V30 36802 H 3551.29 -0.365334 0.659581 0
M  V30 36803 H 3553.94 -0.222994 1.8214 0
M  V30 36804 H 3552.32 -2.55964 3.02156 0
M  V30 36805 H 3553.49 -0.178855 4.60453 0
M  V30 36806 H 3551.81 -0.31958 4.15172 0
M  V30 36807 H 3554.41 -3.09296 4.36165 0
M  V30 36808 H 3554.75 -3.20812 2.65303 0
M  V30 36809 H 3555.28 -1.77252 3.56127 0
M  V30 36810 H 3552.02 -1.04966 6.47041 0
M  V30 36811 H 3551.54 -2.44478 5.47714 0
M  V30 36812 H 3553.22 -2.29025 6.05109 0
M  V30 36813 N 3553.35 -1.49159 -0.508854 0
M  V30 36814 C 3554.6 -1.57498 -1.26005 0
M  V30 36815 C 3554.91 -0.263315 -1.9382 0
M  V30 36816 O 3556.12 -0.225164 -2.70565 0
M  V30 36817 C 3554.58 -2.77854 -2.28747 0
M  V30 36818 C 3554.18 -4.15747 -1.66907 0
M  V30 36819 C 3555.93 -2.95518 -3.04745 0
M  V30 36820 C 3553.84 -5.27336 -2.67714 0
M  V30 36821 H 3552.77 -0.5864 -0.473974 0
M  V30 36822 H 3555.42 -1.75532 -0.534855 0
M  V30 36823 H 3553.8 -2.53297 -3.04395 0
M  V30 36824 H 3554.97 -4.50409 -0.973052 0
M  V30 36825 H 3553.29 -4.03376 -1.03329 0
M  V30 36826 H 3555.88 -3.76054 -3.80115 0
M  V30 36827 H 3556.23 -2.05777 -3.61886 0
M  V30 36828 H 3556.76 -3.20076 -2.36212 0
M  V30 36829 H 3553.5 -6.19111 -2.15364 0
M  V30 36830 H 3553.02 -4.97137 -3.35581 0
M  V30 36831 H 3554.7 -5.5634 -3.30294 0
M  V30 36832 N 3554.83 0.759322 -1.38102 0
M  V30 36833 C 3555.78 1.87294 -1.34869 0
M  V30 36834 C 3556.75 1.64739 -0.212168 0
M  V30 36835 O 3557.93 1.86485 -0.403497 0
M  V30 36836 C 3555.07 3.24521 -1.17389 0
M  V30 36837 C 3554.19 3.58946 -2.40379 0
M  V30 36838 C 3553.32 4.85447 -2.15673 0
M  V30 36839 C 3552.36 5.1264 -3.34464 0
M  V30 36840 N 3551.5 6.30334 -3.09231 0
M  V30 36841 H 3556.34 1.89392 -2.30076 0
M  V30 36842 H 3553.87 0.925768 -1.14315 0
M  V30 36843 H 3555.83 4.037 -1.05271 0
M  V30 36844 H 3554.46 3.21765 -0.258239 0
M  V30 36845 H 3553.51 2.74655 -2.6319 0
M  V30 36846 H 3554.83 3.74973 -3.28933 0
M  V30 36847 H 3553.98 5.72557 -2.00659 0
M  V30 36848 H 3552.72 4.71548 -1.24475 0
M  V30 36849 H 3551.72 4.24001 -3.50004 0
M  V30 36850 H 3552.95 5.2844 -4.2653 0
M  V30 36851 H 3550.89 6.17769 -2.20675 0
M  V30 36852 H 3550.81 6.46834 -3.91333 0
M  V30 36853 H 3552.08 7.20347 -2.9786 0
M  V30 36854 N 3556.31 1.22876 0.986873 0
M  V30 36855 C 3557.53 1.0843 1.76798 0
M  V30 36856 C 3557.96 -0.360522 1.84613 0
M  V30 36857 O 3557.32 -1.26061 1.30301 0
M  V30 36858 C 3557.36 1.70706 3.17635 0
M  V30 36859 O 3556.47 0.964822 4.00955 0
M  V30 36860 H 3555.81 0.380461 0.544192 0
M  V30 36861 H 3558.34 1.62798 1.23928 0
M  V30 36862 H 3558.35 1.75679 3.6824 0
M  V30 36863 H 3557.02 2.75842 3.11262 0
M  V30 36864 H 3555.6 0.991556 3.59475 0
M  V30 36865 N 3557.79 -1.18464 1.03942 0
M  V30 36866 C 3558.74 -2.19969 0.599788 0
M  V30 36867 C 3559.72 -1.56887 -0.357099 0
M  V30 36868 O 3560.91 -1.76119 -0.176357 0
M  V30 36869 C 3558.04 -3.4328 -0.0370831 0
M  V30 36870 C 3557.13 -4.13486 0.942878 0
M  V30 36871 N 3557.52 -4.59713 2.10944 0
M  V30 36872 C 3555.82 -4.39327 0.768606 0
M  V30 36873 C 3556.52 -5.13746 2.72838 0
M  V30 36874 N 3555.49 -5.05185 2.00722 0
M  V30 36875 H 3559.3 -2.53401 1.4888 0
M  V30 36876 H 3556.81 -1.34655 0.907841 0
M  V30 36877 H 3558.81 -4.15257 -0.36973 0
M  V30 36878 H 3557.47 -3.11345 -0.921646 0
M  V30 36879 H 3558.48 -4.54202 2.48839 0
M  V30 36880 H 3555.15 -4.17448 -0.0659712 0
M  V30 36881 H 3556.54 -5.59726 3.71693 0
M  V30 36882 N 3559.26 -0.818716 -1.34665 0
M  V30 36883 C 3560.2 -0.195166 -2.28368 0
M  V30 36884 C 3561.21 0.612535 -1.50837 0
M  V30 36885 O 3562.4 0.442906 -1.72918 0
M  V30 36886 C 3559.5 0.745353 -3.30602 0
M  V30 36887 C 3558.67 -0.0186077 -4.37396 0
M  V30 36888 C 3557.73 0.842207 -5.19416 0
M  V30 36889 O 3556.76 0.288721 -5.68467 0
M  V30 36890 N 3557.96 2.1626 -5.38713 0
M  V30 36891 H 3560.72 -1.00018 -2.82518 0
M  V30 36892 H 3558.28 -0.675288 -1.47144 0
M  V30 36893 H 3560.28 1.32573 -3.82369 0
M  V30 36894 H 3558.85 1.45113 -2.76877 0
M  V30 36895 H 3558.07 -0.780273 -3.86401 0
M  V30 36896 H 3559.35 -0.544664 -5.05876 0
M  V30 36897 H 3558.75 2.63607 -5.00528 0
M  V30 36898 H 3557.31 2.69193 -5.93614 0
M  V30 36899 N 3560.74 1.46803 -0.573299 0
M  V30 36900 C 3561.99 2.02025 -0.0551877 0
M  V30 36901 C 3562.31 1.44828 1.30575 0
M  V30 36902 O 3561.58 0.629436 1.85513 0
M  V30 36903 H 3560.16 0.746797 -0.0174114 0
M  V30 36904 H 3562.82 1.80018 -0.746951 0
M  V30 36905 H 3561.92 3.12093 0.0208778 0
M  V30 36906 N 3562.22 0.31058 1.54509 0
M  V30 36907 C 3563.15 -0.554204 2.26828 0
M  V30 36908 C 3564.13 -1.13007 1.27135 0
M  V30 36909 O 3565.32 -1.15762 1.55925 0
M  V30 36910 C 3562.45 -1.72154 3.01629 0
M  V30 36911 C 3561.4 -1.27559 4.0855 0
M  V30 36912 C 3560.73 -2.52885 4.71119 0
M  V30 36913 C 3562.03 -0.399863 5.20767 0
M  V30 36914 H 3563.72 0.0490001 2.9936 0
M  V30 36915 H 3561.27 0.025007 1.43978 0
M  V30 36916 H 3563.22 -2.3327 3.50946 0
M  V30 36917 H 3561.94 -2.35114 2.26692 0
M  V30 36918 H 3560.6 -0.687435 3.60097 0
M  V30 36919 H 3560.25 -3.14179 3.92811 0
M  V30 36920 H 3559.95 -2.23743 5.43335 0
M  V30 36921 H 3561.47 -3.14786 5.23204 0
M  V30 36922 H 3562.89 -0.916955 5.65919 0
M  V30 36923 H 3561.29 -0.201795 5.99761 0
M  V30 36924 H 3562.36 0.572621 4.81507 0
M  V30 36925 N 3563.7 -1.57553 0.0384871 0
M  V30 36926 C 3564.98 -1.835 -0.677276 0
M  V30 36927 C 3565.36 -0.924327 -1.89788 0
M  V30 36928 O 3564.7 0.0177783 -2.28493 0
M  V30 36929 C 3564.91 -3.32937 -1.04661 0
M  V30 36930 C 3566.26 -3.99641 -1.43429 0
M  V30 36931 O 3567.29 -3.37488 -1.13932 0
M  V30 36932 O 3566.15 -5.09205 -1.98426 0
M  V30 36933 H 3563.24 -0.756942 -0.333118 0
M  V30 36934 H 3565.79 -1.69568 0.0668838 0
M  V30 36935 H 3564.56 -3.90894 -0.17828 0
M  V30 36936 H 3564.18 -3.5201 -1.84864 0
M  V30 36937 N 3565.18 0.234767 -1.55842 0
M  V30 36938 C 3566.59 0.583859 -1.48537 0
M  V30 36939 C 3566.79 1.87771 -0.731051 0
M  V30 36940 O 3565.85 2.51102 -0.265331 0
M  V30 36941 C 3567.16 0.675337 -2.93018 0
M  V30 36942 C 3568.71 0.766853 -3.03461 0
M  V30 36943 C 3569.19 0.889789 -4.49274 0
M  V30 36944 N 3570.68 0.954351 -4.53262 0
M  V30 36945 C 3571.41 1.06895 -5.63348 0
M  V30 36946 N 3570.91 1.14833 -6.83217 0
M  V30 36947 N 3572.7 1.10306 -5.51171 0
M  V30 36948 H 3564.85 -0.614441 -2.03318 0
M  V30 36949 H 3567.11 -0.213795 -0.923578 0
M  V30 36950 H 3566.82 -0.205555 -3.51099 0
M  V30 36951 H 3566.69 1.54331 -3.44183 0
M  V30 36952 H 3569.08 1.63819 -2.45453 0
M  V30 36953 H 3569.16 -0.126517 -2.55487 0
M  V30 36954 H 3568.81 0.0229596 -5.07895 0
M  V30 36955 H 3568.74 1.79838 -4.9494 0
M  V30 36956 H 3571.23 0.903859 -3.66932 0
M  V30 36957 H 3571.54 1.23518 -7.62865 0
M  V30 36958 H 3569.89 1.11769 -6.85954 0
M  V30 36959 H 3573.08 1.03761 -4.56455 0
M  V30 36960 H 3573.25 1.18892 -6.37 0
M  V30 36961 N 3566.66 1.49427 0.500936 0
M  V30 36962 C 3567.59 1.6222 1.61917 0
M  V30 36963 C 3568.6 0.504895 1.54773 0
M  V30 36964 O 3569.79 0.776947 1.60704 0
M  V30 36965 C 3566.89 1.56296 3.00707 0
M  V30 36966 C 3566.06 2.83561 3.33035 0
M  V30 36967 C 3565.12 2.70688 4.51236 0
M  V30 36968 O 3564.15 3.44623 4.53016 0
M  V30 36969 N 3565.35 1.82238 5.51153 0
M  V30 36970 H 3568.11 2.58664 1.5137 0
M  V30 36971 H 3565.68 1.46516 0.688811 0
M  V30 36972 H 3567.67 1.45339 3.77702 0
M  V30 36973 H 3566.24 0.677097 3.05179 0
M  V30 36974 H 3565.46 3.08869 2.44936 0
M  V30 36975 H 3566.75 3.67932 3.51431 0
M  V30 36976 H 3566.14 1.21427 5.52514 0
M  V30 36977 H 3564.7 1.77203 6.2725 0
M  V30 36978 N 3568.13 -0.751987 1.38502 0
M  V30 36979 C 3569.04 -1.89648 1.38097 0
M  V30 36980 C 3570.06 -1.71767 0.277881 0
M  V30 36981 O 3571.24 -1.94663 0.51657 0
M  V30 36982 C 3568.3 -3.25035 1.20636 0
M  V30 36983 C 3567.36 -3.55431 2.40764 0
M  V30 36984 C 3566.59 -4.84358 2.24126 0
M  V30 36985 O 3566.82 -5.56852 1.23581 0
M  V30 36986 O 3565.75 -5.14267 3.1275 0
M  V30 36987 H 3569.58 -1.92943 2.34535 0
M  V30 36988 H 3567.16 -0.897483 1.19439 0
M  V30 36989 H 3569.04 -4.05977 1.12964 0
M  V30 36990 H 3567.72 -3.22548 0.272841 0
M  V30 36991 H 3566.63 -2.74644 2.54011 0
M  V30 36992 H 3567.96 -3.6268 3.32752 0
M  V30 36993 N 3569.61 -1.23398 -0.980343 0
M  V30 36994 C 3570.54 -1.03964 -2.09078 0
M  V30 36995 C 3571.52 0.0434647 -1.70044 0
M  V30 36996 O 3572.71 -0.121189 -1.93821 0
M  V30 36997 C 3569.84 -0.630121 -3.41536 0
M  V30 36998 C 3568.79 -1.66058 -3.94473 0
M  V30 36999 C 3568.12 -1.1065 -5.23126 0
M  V30 37000 C 3569.42 -3.05361 -4.23736 0
M  V30 37001 H 3571.11 -1.96844 -2.25594 0
M  V30 37002 H 3568.66 -0.947829 -1.08408 0
M  V30 37003 H 3570.61 -0.481218 -4.18643 0
M  V30 37004 H 3569.33 0.334358 -3.24884 0
M  V30 37005 H 3567.99 -1.79747 -3.1951 0
M  V30 37006 H 3567.64 -0.133002 -5.02824 0
M  V30 37007 H 3567.34 -1.79501 -5.59511 0
M  V30 37008 H 3568.87 -0.96945 -6.02855 0
M  V30 37009 H 3570.28 -2.94973 -4.91593 0
M  V30 37010 H 3568.68 -3.71451 -4.71322 0
M  V30 37011 H 3569.75 -3.54349 -3.31006 0
M  V30 37012 N 3571.09 1.17911 -1.04569 0
M  V30 37013 C 3572.31 1.92489 -0.772179 0
M  V30 37014 C 3572.74 1.75943 0.665266 0
M  V30 37015 O 3572.1 1.07294 1.46142 0
M  V30 37016 C 3572.15 3.4178 -1.14972 0
M  V30 37017 O 3571.25 4.11461 -0.278163 0
M  V30 37018 H 3570.59 0.60033 -0.283725 0
M  V30 37019 H 3573.12 1.49494 -1.39688 0
M  V30 37020 H 3573.13 3.92503 -1.1138 0
M  V30 37021 H 3571.81 3.53144 -2.19686 0
M  V30 37022 H 3570.38 3.71018 -0.374138 0
M  V30 37023 N 3572.57 0.825847 1.34229 0
M  V30 37024 C 3573.81 0.415311 1.98195 0
M  V30 37025 C 3574.14 -1.02233 1.65465 0
M  V30 37026 O 3573.4 -1.72732 0.919899 0
M  V30 37027 C 3573.7 0.567842 3.5286 0
M  V30 37028 C 3573.36 1.97164 4.05509 0
M  V30 37029 C 3572.02 2.35565 4.19598 0
M  V30 37030 C 3574.38 2.88917 4.33793 0
M  V30 37031 C 3571.7 3.65048 4.593 0
M  V30 37032 C 3574.06 4.17867 4.74942 0
M  V30 37033 C 3572.72 4.56241 4.87237 0
M  V30 37034 H 3571.99 0.151973 0.725248 0
M  V30 37035 H 3574.64 1.05036 1.60124 0
M  V30 37036 H 3572.94 -0.150581 3.91511 0
M  V30 37037 H 3574.64 0.230678 4.00336 0
M  V30 37038 H 3571.23 1.66335 3.95007 0
M  V30 37039 H 3575.41 2.60491 4.22443 0
M  V30 37040 H 3570.67 3.94603 4.67011 0
M  V30 37041 H 3574.84 4.89049 4.95786 0
M  V30 37042 H 3572.47 5.56624 5.17758 0
M  V30 37043 N 3574.05 -1.46497 0.581077 0
M  V30 37044 C 3575.01 -2.28754 -0.142897 0
M  V30 37045 C 3576.01 -1.383 -0.820359 0
M  V30 37046 O 3577.2 -1.60693 -0.672564 0
M  V30 37047 C 3574.33 -3.18639 -1.2117 0
M  V30 37048 H 3575.52 -2.94239 0.579969 0
M  V30 37049 H 3573.08 -1.5258 0.338978 0
M  V30 37050 H 3573.81 -2.57898 -1.9662 0
M  V30 37051 H 3573.6 -3.85236 -0.730449 0
M  V30 37052 H 3575.09 -3.80555 -1.71952 0
M  V30 37053 N 3575.52 -0.31877 -1.54343 0
M  V30 37054 C 3576.49 0.53664 -2.22829 0
M  V30 37055 C 3577.49 1.04733 -1.22015 0
M  V30 37056 O 3578.68 0.940523 -1.46628 0
M  V30 37057 C 3575.81 1.74488 -2.9286 0
M  V30 37058 H 3577 -0.0619852 -2.99836 0
M  V30 37059 H 3574.55 -0.0697961 -1.56144 0
M  V30 37060 H 3575.29 2.38286 -2.19977 0
M  V30 37061 H 3575.07 1.38615 -3.66781 0
M  V30 37062 H 3576.56 2.35219 -3.45053 0
M  V30 37063 N 3577 1.5753 -0.0468419 0
M  V30 37064 C 3578.42 1.56567 0.30968 0
M  V30 37065 C 3578.62 1.05411 1.71729 0
M  V30 37066 O 3577.67 0.708766 2.42348 0
M  V30 37067 C 3578.99 3.00364 0.142099 0
M  V30 37068 C 3580.53 3.12271 0.21353 0
M  V30 37069 C 3581.01 4.57939 0.0745297 0
M  V30 37070 N 3582.5 4.63015 0.130946 0
M  V30 37071 C 3583.24 5.7338 0.0474401 0
M  V30 37072 N 3582.73 6.92744 -0.0881663 0
M  V30 37073 N 3584.52 5.62006 0.10271 0
M  V30 37074 H 3576.68 1.89106 -0.96709 0
M  V30 37075 H 3578.94 0.870663 -0.375033 0
M  V30 37076 H 3578.64 3.41809 -0.828231 0
M  V30 37077 H 3578.52 3.66184 0.904942 0
M  V30 37078 H 3580.91 2.70728 1.17433 0
M  V30 37079 H 3580.99 2.49138 -0.579994 0
M  V30 37080 H 3580.63 5.00167 -0.882927 0
M  V30 37081 H 3580.56 5.19074 0.887144 0
M  V30 37082 H 3583.05 3.77167 0.23518 0
M  V30 37083 H 3583.36 7.72665 -0.144709 0
M  V30 37084 H 3581.71 6.94891 -0.123192 0
M  V30 37085 H 3584.9 4.67641 0.207177 0
M  V30 37086 H 3585.07 6.47991 0.0341726 0
M  V30 37087 N 3578.48 -0.226499 1.55964 0
M  V30 37088 C 3579.71 -0.972814 1.8317 0
M  V30 37089 C 3580.13 -1.77359 0.626543 0
M  V30 37090 O 3579.49 -1.76257 -0.424649 0
M  V30 37091 C 3579.54 -1.87009 3.08318 0
M  V30 37092 O 3578.64 -2.96474 2.86665 0
M  V30 37093 H 3577.98 -0.275726 0.604046 0
M  V30 37094 H 3580.51 -0.24131 2.03172 0
M  V30 37095 H 3580.52 -2.28085 3.38292 0
M  V30 37096 H 3579.2 -1.28148 3.95665 0
M  V30 37097 H 3577.77 -2.59379 2.67912 0
M  V30 37098 N 3579.96 -1.4969 -0.493005 0
M  V30 37099 C 3581.21 -1.5958 -1.24661 0
M  V30 37100 C 3581.53 -0.286109 -1.92384 0
M  V30 37101 O 3580.79 0.726554 -1.81713 0
M  V30 37102 C 3581.09 -2.71001 -2.33009 0
M  V30 37103 C 3580.75 -4.12232 -1.8269 0
M  V30 37104 C 3579.42 -4.50665 -1.68686 0
M  V30 37105 C 3581.77 -5.0059 -1.45119 0
M  V30 37106 C 3579.1 -5.75218 -1.15502 0
M  V30 37107 C 3581.45 -6.25669 -0.933841 0
M  V30 37108 C 3580.11 -6.62924 -0.780261 0
M  V30 37109 H 3579.38 -0.583945 -0.456168 0
M  V30 37110 H 3582.03 -1.8355 -0.546059 0
M  V30 37111 H 3580.33 -2.41034 -3.08885 0
M  V30 37112 H 3582.03 -2.75861 -2.91036 0
M  V30 37113 H 3578.62 -3.81901 -1.94551 0
M  V30 37114 H 3582.8 -4.71547 -1.54781 0
M  V30 37115 H 3578.06 -6.02776 -1.0233 0
M  V30 37116 H 3582.23 -6.93508 -0.633966 0
M  V30 37117 H 3579.86 -7.59319 -0.365978 0
M  V30 37118 N 3581.44 0.744631 -1.38899 0
M  V30 37119 C 3582.67 1.53166 -1.38649 0
M  V30 37120 C 3583.07 1.89186 0.0232867 0
M  V30 37121 O 3582.42 1.53929 1.00258 0
M  V30 37122 C 3582.48 2.85387 -2.1862 0
M  V30 37123 C 3582.14 2.71856 -3.67346 0
M  V30 37124 C 3583.14 2.41049 -4.60642 0
M  V30 37125 C 3580.83 2.89028 -4.10814 0
M  V30 37126 C 3582.82 2.27582 -5.95387 0
M  V30 37127 C 3580.51 2.7518 -5.45636 0
M  V30 37128 C 3581.5 2.44501 -6.37737 0
M  V30 37129 O 3581.19 2.30728 -7.70078 0
M  V30 37130 H 3580.92 0.480249 -0.475749 0
M  V30 37131 H 3583.48 0.928588 -1.83211 0
M  V30 37132 H 3581.71 3.47918 -1.6879 0
M  V30 37133 H 3583.4 3.46951 -2.10666 0
M  V30 37134 H 3584.16 2.27442 -4.28363 0
M  V30 37135 H 3580.04 3.11902 -3.39467 0
M  V30 37136 H 3583.59 2.03557 -6.67241 0
M  V30 37137 H 3579.48 2.88363 -5.77509 0
M  V30 37138 H 3580.25 2.45872 -7.80698 0
M  V30 37139 N 3582.91 1.23916 0.973785 0
M  V30 37140 C 3584.14 1.10049 1.74851 0
M  V30 37141 C 3584.55 -0.350355 1.85928 0
M  V30 37142 O 3583.9 -1.25385 1.34254 0
M  V30 37143 C 3583.96 1.65929 3.18916 0
M  V30 37144 C 3583.62 3.14754 3.31329 0
M  V30 37145 C 3584.62 4.11973 3.17134 0
M  V30 37146 C 3582.3 3.54593 3.55765 0
M  V30 37147 C 3584.3 5.47015 3.2719 0
M  V30 37148 C 3581.98 4.89778 3.6546 0
M  V30 37149 C 3582.98 5.85798 3.51183 0
M  V30 37150 O 3582.67 7.18526 3.60522 0
M  V30 37151 H 3582.4 0.385455 0.555338 0
M  V30 37152 H 3584.96 1.64376 1.23166 0
M  V30 37153 H 3583.19 1.0603 3.7188 0
M  V30 37154 H 3584.88 1.47441 3.78175 0
M  V30 37155 H 3585.64 3.82536 2.98146 0
M  V30 37156 H 3581.52 2.80364 3.65946 0
M  V30 37157 H 3585.06 6.21943 3.15963 0
M  V30 37158 H 3580.96 5.18888 3.8396 0
M  V30 37159 H 3581.73 7.26365 3.77275 0
M  V30 37160 N 3584.39 -1.17355 1.05193 0
M  V30 37161 C 3585.34 -2.21372 0.652907 0
M  V30 37162 C 3586.31 -1.62479 -0.344945 0
M  V30 37163 O 3587.49 -1.8933 -0.236357 0
M  V30 37164 C 3584.63 -3.45083 0.0338344 0
M  V30 37165 C 3583.75 -4.18269 1.08052 0
M  V30 37166 C 3582.88 -5.29467 0.428766 0
M  V30 37167 C 3581.92 -5.94439 1.45976 0
M  V30 37168 N 3581.06 -6.97151 0.832165 0
M  V30 37169 H 3585.9 -2.54858 1.54439 0
M  V30 37170 H 3583.44 -1.2519 0.772387 0
M  V30 37171 H 3585.39 -4.15791 -0.342534 0
M  V30 37172 H 3584.02 -3.12182 -0.821104 0
M  V30 37173 H 3583.08 -3.46276 1.57472 0
M  V30 37174 H 3584.39 -4.62697 1.86313 0
M  V30 37175 H 3583.54 -6.067 -0.00118679 0
M  V30 37176 H 3582.28 -4.86171 -0.385833 0
M  V30 37177 H 3581.29 -5.15936 1.89973 0
M  V30 37178 H 3582.51 -6.39815 2.27626 0
M  V30 37179 H 3580.46 -6.55989 0.0380766 0
M  V30 37180 H 3580.37 -7.39891 1.55232 0
M  V30 37181 H 3581.64 -7.7833 0.426986 0
M  V30 37182 N 3585.87 -0.832954 -1.3379 0
M  V30 37183 C 3586.8 -0.276887 -2.31853 0
M  V30 37184 C 3587.78 0.612156 -1.58703 0
M  V30 37185 O 3588.97 0.536943 -1.86629 0
M  V30 37186 C 3586.1 0.55379 -3.42856 0
M  V30 37187 C 3585.05 -0.23896 -4.27332 0
M  V30 37188 C 3584.38 0.715094 -5.29897 0
M  V30 37189 C 3585.68 -1.45274 -5.0169 0
M  V30 37190 H 3587.37 -1.09623 -2.78609 0
M  V30 37191 H 3584.92 -0.528586 -1.33948 0
M  V30 37192 H 3586.87 0.953061 -4.10481 0
M  V30 37193 H 3585.59 1.40629 -2.94773 0
M  V30 37194 H 3584.25 -0.619719 -3.61324 0
M  V30 37195 H 3583.9 1.56382 -4.78073 0
M  V30 37196 H 3583.6 0.188818 -5.87297 0
M  V30 37197 H 3585.12 1.11201 -6.00389 0
M  V30 37198 H 3586.54 -1.12695 -5.62115 0
M  V30 37199 H 3584.94 -1.91538 -5.68712 0
M  V30 37200 H 3586.01 -2.22565 -4.30805 0
M  V30 37201 N 3587.35 1.46186 -0.588837 0
M  V30 37202 C 3588.76 1.57614 -0.250989 0
M  V30 37203 C 3588.96 1.58304 1.24667 0
M  V30 37204 O 3588.02 1.50328 2.02873 0
M  V30 37205 C 3589.33 2.86739 -0.905611 0
M  V30 37206 C 3590.88 3.00381 -0.879774 0
M  V30 37207 C 3591.36 4.3225 -1.51405 0
M  V30 37208 N 3592.85 4.38964 -1.47867 0
M  V30 37209 C 3593.58 5.39629 -1.93877 0
M  V30 37210 N 3593.08 6.46934 -2.47888 0
M  V30 37211 N 3594.87 5.30868 -1.84757 0
M  V30 37212 H 3587.02 1.43982 -1.5615 0
M  V30 37213 H 3589.29 0.687199 -0.653041 0
M  V30 37214 H 3588.99 2.92062 -1.9594 0
M  V30 37215 H 3588.87 3.74882 -0.417522 0
M  V30 37216 H 3591.25 2.94636 0.165414 0
M  V30 37217 H 3591.33 2.13698 -1.40594 0
M  V30 37218 H 3590.98 4.38754 -2.55847 0
M  V30 37219 H 3590.91 5.17719 -0.963056 0
M  V30 37220 H 3593.4 3.62021 -1.08393 0
M  V30 37221 H 3593.71 7.19966 -2.80837 0
M  V30 37222 H 3592.06 6.47737 -2.51917 0
M  V30 37223 H 3595.25 4.45942 -1.42315 0
M  V30 37224 H 3595.42 6.09175 -2.20929 0
M  V30 37225 N 3588.83 0.32695 1.54171 0
M  V30 37226 C 3589.79 -0.524815 2.23111 0
M  V30 37227 C 3590.79 -1.04085 1.22569 0
M  V30 37228 O 3591.98 -0.932734 1.47125 0
M  V30 37229 C 3589.11 -1.72932 2.93781 0
M  V30 37230 H 3590.3 0.0778854 2.99799 0
M  V30 37231 H 3587.86 0.0780759 1.56105 0
M  V30 37232 H 3588.59 -2.37116 2.21238 0
M  V30 37233 H 3588.38 -1.36668 3.67511 0
M  V30 37234 H 3589.87 -2.33386 3.46296 0
M  V30 37235 N 3590.3 -1.57503 0.0551955 0
M  V30 37236 C 3591.27 -2.10661 -0.903028 0
M  V30 37237 C 3592.27 -1.02705 -1.23727 0
M  V30 37238 O 3593.46 -1.28762 -1.17328 0
M  V30 37239 C 3590.59 -2.59419 -2.21167 0
M  V30 37240 H 3591.78 -2.96623 -0.442145 0
M  V30 37241 H 3589.34 -1.551 -0.19327 0
M  V30 37242 H 3590.07 -1.76862 -2.71828 0
M  V30 37243 H 3589.86 -3.38313 -1.9821 0
M  V30 37244 H 3591.35 -3.00679 -2.89796 0
M  V30 37245 N 3591.78 0.218225 -1.56082 0
M  V30 37246 C 3592.69 1.29138 -1.95859 0
M  V30 37247 C 3593.71 1.51097 -0.862883 0
M  V30 37248 O 3594.88 1.64163 -1.16673 0
M  V30 37249 C 3591.95 2.62045 -2.2701 0
M  V30 37250 C 3591.01 2.48359 -3.50166 0
M  V30 37251 C 3590.24 3.74928 -3.79822 0
M  V30 37252 O 3590.47 4.78091 -3.11104 0
M  V30 37253 O 3589.4 3.71841 -4.73306 0
M  V30 37254 H 3593.23 0.983872 -2.87322 0
M  V30 37255 H 3590.81 0.421359 -1.43335 0
M  V30 37256 H 3592.69 3.40532 -2.48226 0
M  V30 37257 H 3591.37 2.92469 -1.3872 0
M  V30 37258 H 3590.28 1.68061 -3.34225 0
M  V30 37259 H 3591.61 2.22873 -4.38849 0
M  V30 37260 N 3593.26 1.4995 0.485059 0
M  V30 37261 C 3594.19 1.63928 1.60188 0
M  V30 37262 C 3595.21 0.521283 1.54229 0
M  V30 37263 O 3596.4 0.793948 1.59871 0
M  V30 37264 C 3593.5 1.59477 2.99032 0
M  V30 37265 C 3592.67 2.87077 3.30008 0
M  V30 37266 C 3591.73 2.75459 4.4834 0
M  V30 37267 O 3590.75 3.49408 4.49336 0
M  V30 37268 N 3591.96 1.88073 5.49189 0
M  V30 37269 H 3594.72 2.60255 1.48618 0
M  V30 37270 H 3592.28 1.47239 0.673232 0
M  V30 37271 H 3594.27 1.49336 3.76139 0
M  V30 37272 H 3592.84 0.709427 3.04444 0
M  V30 37273 H 3592.06 3.11449 2.41646 0
M  V30 37274 H 3593.35 3.71638 3.47509 0
M  V30 37275 H 3592.75 1.2728 5.51195 0
M  V30 37276 H 3591.31 1.83845 6.25335 0
M  V30 37277 N 3594.74 -0.737255 1.39292 0
M  V30 37278 C 3595.97 -1.52429 1.3946 0
M  V30 37279 C 3596.38 -1.89195 -0.0132534 0
M  V30 37280 O 3595.72 -1.54458 -0.994403 0
M  V30 37281 C 3595.78 -2.84224 2.2013 0
M  V30 37282 C 3595.45 -2.69904 3.68783 0
M  V30 37283 C 3596.44 -2.38603 4.61914 0
M  V30 37284 C 3594.13 -2.86845 4.12341 0
M  V30 37285 C 3596.12 -2.24421 5.96585 0
M  V30 37286 C 3593.81 -2.72283 5.47088 0
M  V30 37287 C 3594.81 -2.41115 6.39025 0
M  V30 37288 O 3594.5 -2.26641 7.71291 0
M  V30 37289 H 3594.23 -0.477719 0.478289 0
M  V30 37290 H 3596.78 -0.918859 1.83701 0
M  V30 37291 H 3595.01 -3.47018 1.70633 0
M  V30 37292 H 3596.7 -3.45828 2.12503 0
M  V30 37293 H 3597.47 -2.25167 4.29563 0
M  V30 37294 H 3593.35 -3.10097 3.41117 0
M  V30 37295 H 3596.89 -2.00016 6.68311 0
M  V30 37296 H 3592.79 -2.85296 5.79031 0
M  V30 37297 H 3593.55 -2.41728 7.81991 0
M  V30 37298 N 3596.22 -1.24431 -0.967199 0
M  V30 37299 C 3597.45 -1.11136 -1.74518 0
M  V30 37300 C 3597.86 0.336055 -1.85785 0
M  V30 37301 O 3597.22 1.23185 -1.34654 0
M  V30 37302 C 3597.27 -1.74596 -3.16541 0
M  V30 37303 O 3596.99 -3.13678 -3.05839 0
M  V30 37304 C 3598.49 -1.66917 -4.10674 0
M  V30 37305 H 3595.71 -0.388263 -0.54726 0
M  V30 37306 H 3598.25 -1.64547 -1.21427 0
M  V30 37307 H 3596.41 -1.25187 -3.66616 0
M  V30 37308 H 3596.82 -3.44683 -3.9534 0
M  V30 37309 H 3598.3 -2.16001 -5.07984 0
M  V30 37310 H 3598.77 -0.630488 -4.34651 0
M  V30 37311 H 3599.38 -2.15756 -3.6651 0
M  V30 37312 N 3597.7 1.16795 -1.05814 0
M  V30 37313 C 3599.11 1.68829 -0.7971 0
M  V30 37314 C 3599.46 1.84042 0.679934 0
M  V30 37315 O 3598.58 1.53248 1.52787 0
M  V30 37316 C 3599.18 3.06659 -1.44035 0
M  V30 37317 C 3597.74 3.55832 -1.2272 0
M  V30 37318 C 3596.88 2.31935 -1.51992 0
M  V30 37319 H 3599.83 1.01225 -1.22226 0
M  V30 37320 H 3599.86 3.70815 -0.853028 0
M  V30 37321 H 3599.37 2.95554 -2.51534 0
M  V30 37322 H 3597.47 3.72204 -0.171736 0
M  V30 37323 H 3597.58 4.38218 -1.93654 0
M  V30 37324 H 3595.95 2.36709 -0.940257 0
M  V30 37325 H 3596.73 2.23433 -2.60639 0
M  V30 37326 N 3599.17 0.840037 1.33346 0
M  V30 37327 C 3600.12 0.272088 2.29191 0
M  V30 37328 C 3601.09 -0.612759 1.54384 0
M  V30 37329 O 3602.28 -0.55078 1.82677 0
M  V30 37330 C 3599.42 -0.545841 3.40756 0
M  V30 37331 C 3598.53 0.363159 4.30471 0
M  V30 37332 C 3597.66 -0.465985 5.29152 0
M  V30 37333 C 3596.7 0.441332 6.10507 0
M  V30 37334 N 3595.84 -0.349754 7.01228 0
M  V30 37335 H 3600.68 1.09472 2.77164 0
M  V30 37336 H 3598.22 0.551308 1.36378 0
M  V30 37337 H 3600.17 -1.03555 4.04144 0
M  V30 37338 H 3598.8 -1.33343 2.93972 0
M  V30 37339 H 3597.86 0.971183 3.67794 0
M  V30 37340 H 3599.17 1.0601 4.87405 0
M  V30 37341 H 3598.32 -1.01947 5.98073 0
M  V30 37342 H 3597.06 -1.19636 4.72799 0
M  V30 37343 H 3596.07 1.00682 5.40503 0
M  V30 37344 H 3597.29 1.17009 6.68944 0
M  V30 37345 H 3595.24 -1.06349 6.47322 0
M  V30 37346 H 3595.15 0.28845 7.5545 0
M  V30 37347 H 3596.42 -0.885437 7.74455 0
M  V30 37348 N 3600.65 -1.45872 0.596582 0
M  V30 37349 C 3601.61 -2.28893 -0.118626 0
M  V30 37350 C 3602.61 -1.39162 -0.805644 0
M  V30 37351 O 3603.8 -1.61397 -0.655483 0
M  V30 37352 C 3600.94 -3.19906 -1.17784 0
M  V30 37353 H 3602.13 -2.93607 0.611145 0
M  V30 37354 H 3599.68 -1.52212 0.355142 0
M  V30 37355 H 3600.42 -2.59969 -1.93873 0
M  V30 37356 H 3600.2 -3.85989 -0.689549 0
M  V30 37357 H 3601.69 -3.82358 -1.67906 0
M  V30 37358 N 3602.13 -0.335122 -1.53996 0
M  V30 37359 C 3603.08 0.52555 -2.24737 0
M  V30 37360 C 3604.05 1.10237 -1.24246 0
M  V30 37361 O 3605.23 1.14056 -1.52957 0
M  V30 37362 C 3602.37 1.67482 -3.01735 0
M  V30 37363 C 3601.48 1.12612 -4.17064 0
M  V30 37364 C 3600.62 2.24202 -4.81567 0
M  V30 37365 C 3599.66 1.6664 -5.8898 0
M  V30 37366 N 3598.8 2.71938 -6.47298 0
M  V30 37367 H 3603.64 -0.0842531 -2.97881 0
M  V30 37368 H 3601.17 -0.0533512 -1.47003 0
M  V30 37369 H 3603.13 2.35129 -3.4463 0
M  V30 37370 H 3601.76 2.25574 -2.30903 0
M  V30 37371 H 3600.81 0.34085 -3.7887 0
M  V30 37372 H 3602.12 0.665026 -4.94347 0
M  V30 37373 H 3601.28 2.9973 -5.27491 0
M  V30 37374 H 3600.02 2.73652 -4.0369 0
M  V30 37375 H 3599.02 0.896135 -5.42448 0
M  V30 37376 H 3600.25 1.18052 -6.6876 0
M  V30 37377 H 3598.19 3.20658 -5.72289 0
M  V30 37378 H 3598.11 2.30425 -7.20028 0
M  V30 37379 H 3599.38 3.47261 -6.97876 0
M  V30 37380 N 3603.61 1.57472 -0.0635475 0
M  V30 37381 C 3604.84 1.97209 0.615807 0
M  V30 37382 C 3605.25 0.940309 1.64179 0
M  V30 37383 O 3604.59 -0.0823998 1.83515 0
M  V30 37384 C 3604.65 3.33229 1.34903 0
M  V30 37385 C 3604.31 4.54499 0.477455 0
M  V30 37386 C 3605.31 5.19242 -0.261571 0
M  V30 37387 C 3603 5.00667 0.404751 0
M  V30 37388 C 3604.99 6.28497 -1.06161 0
M  V30 37389 C 3602.68 6.09796 -0.398966 0
M  V30 37390 C 3603.68 6.73574 -1.13082 0
M  V30 37391 O 3603.36 7.80603 -1.9213 0
M  V30 37392 H 3603.1 0.653683 0.172262 0
M  V30 37393 H 3605.65 2.04988 -0.129999 0
M  V30 37394 H 3603.88 3.2204 2.14073 0
M  V30 37395 H 3605.57 3.57628 1.91982 0
M  V30 37396 H 3606.33 4.84523 -0.214944 0
M  V30 37397 H 3602.21 4.50808 0.964007 0
M  V30 37398 H 3605.76 6.78209 -1.63335 0
M  V30 37399 H 3601.65 6.43949 -0.447186 0
M  V30 37400 H 3602.42 7.97441 -1.84473 0
M  V30 37401 N 3605.09 -0.209945 1.56195 0
M  V30 37402 C 3606.04 -1.26397 1.89757 0
M  V30 37403 C 3607.02 -1.41725 0.761756 0
M  V30 37404 O 3608.21 -1.44345 1.02437 0
M  V30 37405 C 3605.34 -2.61197 2.2278 0
M  V30 37406 C 3604.43 -2.49723 3.42782 0
M  V30 37407 N 3604.82 -2.07911 4.61093 0
M  V30 37408 C 3603.12 -2.80653 3.46626 0
M  V30 37409 C 3603.82 -2.07969 5.43253 0
M  V30 37410 N 3602.79 -2.48904 4.83268 0
M  V30 37411 H 3606.59 -0.931791 2.78738 0
M  V30 37412 H 3604.11 -0.418457 1.56916 0
M  V30 37413 H 3606.11 -3.37312 2.45003 0
M  V30 37414 H 3604.77 -2.95251 1.35118 0
M  V30 37415 H 3605.78 -1.78856 4.86036 0
M  V30 37416 H 3602.45 -3.19003 2.69339 0
M  V30 37417 H 3603.84 -1.77669 6.47984 0
M  V30 37418 N 3606.56 -1.50205 -0.4771 0
M  V30 37419 C 3607.81 -1.60576 -1.22719 0
M  V30 37420 C 3608.13 -0.30536 -1.92594 0
M  V30 37421 O 3607.4 0.67681 -1.83837 0
M  V30 37422 H 3605.98 -0.591699 -0.455962 0
M  V30 37423 H 3608.64 -1.86953 -0.550883 0
M  V30 37424 H 3607.74 -2.41389 -1.97833 0
M  V30 37425 N 3608.04 0.729857 -1.39681 0
M  V30 37426 C 3608.99 1.86526 -1.38963 0
M  V30 37427 C 3609.98 1.67201 -0.272056 0
M  V30 37428 O 3611.19 1.7448 -0.442359 0
M  V30 37429 H 3607.57 0.614084 -0.434056 0
M  V30 37430 H 3609.54 1.84247 -2.34724 0
M  V30 37431 C 3608.29 3.24258 -1.25506 0
M  V30 37432 H 3607.61 3.39727 -2.10773 0
M  V30 37433 H 3609.05 4.0388 -1.29061 0
M  V30 37434 C 3607.51 3.36881 0.0360534 0
M  V30 37435 O 3608.04 3.88942 1.00433 0
M  V30 37436 N 3606.24 2.90425 0.100823 0
M  V30 37437 H 3605.79 2.48247 -0.687841 0
M  V30 37438 H 3605.75 2.9925 0.964198 0
M  V30 37439 N 3609.52 1.24942 0.960587 0
M  V30 37440 C 3610.77 1.09498 1.70699 0
M  V30 37441 C 3611.1 -0.36418 1.90755 0
M  V30 37442 O 3610.37 -1.26877 1.4742 0
M  V30 37443 C 3610.66 1.84323 3.0935 0
M  V30 37444 C 3610.51 3.38031 2.96741 0
M  V30 37445 C 3611.83 1.6216 4.09136 0
M  V30 37446 H 3608.95 0.399169 0.619543 0
M  V30 37447 H 3611.59 1.53699 1.11698 0
M  V30 37448 H 3609.74 1.46752 3.59717 0
M  V30 37449 H 3611.41 3.85242 2.53745 0
M  V30 37450 H 3609.66 3.66047 2.32791 0
M  V30 37451 H 3610.33 3.85594 3.94995 0
M  V30 37452 H 3612.8 1.94856 3.67655 0
M  V30 37453 H 3611.68 2.1696 5.04202 0
M  V30 37454 H 3611.94 0.561514 4.3852 0
M  V30 37455 N 3611 -1.16233 1.06432 0
M  V30 37456 C 3611.93 -2.196 0.620573 0
M  V30 37457 C 3612.91 -1.58624 -0.357362 0
M  V30 37458 O 3614.09 -1.86614 -0.266005 0
M  V30 37459 C 3611.22 -3.3858 -0.0900466 0
M  V30 37460 C 3610.27 -4.18048 0.844862 0
M  V30 37461 S 3611.1 -4.81626 2.34086 0
M  V30 37462 C 3612.26 -6.03984 1.64177 0
M  V30 37463 H 3612.49 -2.56901 1.4963 0
M  V30 37464 H 3610.02 -1.27046 0.87742 0
M  V30 37465 H 3611.98 -4.07519 -0.493819 0
M  V30 37466 H 3610.64 -2.99642 -0.94199 0
M  V30 37467 H 3609.83 -5.0314 0.294224 0
M  V30 37468 H 3609.44 -3.54611 1.18858 0
M  V30 37469 H 3611.73 -6.70832 0.948161 0
M  V30 37470 H 3612.67 -6.636 2.47065 0
M  V30 37471 H 3613.08 -5.53201 1.12376 0
M  V30 37472 N 3612.48 -0.847097 -1.32899 0
M  V30 37473 C 3613.41 -0.301462 -2.31546 0
M  V30 37474 C 3614.39 0.595289 -1.59343 0
M  V30 37475 O 3615.57 0.517118 -1.87188 0
M  V30 37476 C 3612.7 0.517394 -3.43424 0
M  V30 37477 C 3611.66 -0.28427 -4.27055 0
M  V30 37478 C 3610.98 0.658851 -5.30625 0
M  V30 37479 C 3612.28 -1.50587 -5.00121 0
M  V30 37480 H 3613.98 -1.12572 -2.77431 0
M  V30 37481 H 3611.52 -0.542763 -1.33379 0
M  V30 37482 H 3613.48 0.90947 -4.11469 0
M  V30 37483 H 3612.2 1.37494 -2.96248 0
M  V30 37484 H 3610.86 -0.658008 -3.60646 0
M  V30 37485 H 3610.51 1.51303 -4.79704 0
M  V30 37486 H 3610.21 0.126517 -5.87464 0
M  V30 37487 H 3611.73 1.04827 -6.01534 0
M  V30 37488 H 3613.14 -1.1865 -5.60888 0
M  V30 37489 H 3611.54 -1.97559 -5.66648 0
M  V30 37490 H 3612.61 -2.27122 -4.2842 0
M  V30 37491 N 3613.95 1.45554 -0.604309 0
M  V30 37492 C 3614.88 2.33269 0.103818 0
M  V30 37493 C 3615.87 1.46636 0.862078 0
M  V30 37494 O 3617.05 1.75414 0.833278 0
M  V30 37495 C 3614.18 3.29288 1.10394 0
M  V30 37496 C 3613.13 4.2553 0.459114 0
M  V30 37497 C 3612.46 5.11216 1.56725 0
M  V30 37498 C 3613.76 5.18636 -0.6176 0
M  V30 37499 H 3615.45 2.92727 -0.62859 0
M  V30 37500 H 3613 1.4076 -0.303735 0
M  V30 37501 H 3614.95 3.8952 1.60787 0
M  V30 37502 H 3613.68 2.67982 1.8669 0
M  V30 37503 H 3612.34 3.66592 -0.0239153 0
M  V30 37504 H 3611.98 4.4628 2.32041 0
M  V30 37505 H 3611.68 5.76409 1.14132 0
M  V30 37506 H 3613.21 5.74315 2.07351 0
M  V30 37507 H 3614.62 5.72958 -0.197884 0
M  V30 37508 H 3613.02 5.92289 -0.965094 0
M  V30 37509 H 3614.09 4.61262 -1.49549 0
M  V30 37510 N 3615.43 0.343284 1.53816 0
M  V30 37511 C 3616.85 -0.00865043 1.59598 0
M  V30 37512 C 3617.05 -1.4875 1.35925 0
M  V30 37513 O 3616.1 -2.24618 1.15338 0
M  V30 37514 C 3617.42 0.427287 2.97649 0
M  V30 37515 C 3618.97 0.379608 3.1069 0
M  V30 37516 C 3619.44 0.79101 4.51118 0
M  V30 37517 N 3620.93 0.745186 4.57167 0
M  V30 37518 C 3621.67 1.03547 5.63973 0
M  V30 37519 N 3621.16 1.39389 6.78633 0
M  V30 37520 N 3622.96 0.959725 5.53846 0
M  V30 37521 H 3615.11 1.30658 1.67458 0
M  V30 37522 H 3617.37 0.532602 0.784244 0
M  V30 37523 H 3617.08 1.45839 3.20037 0
M  V30 37524 H 3616.95 -0.197638 3.76682 0
M  V30 37525 H 3619.34 -0.642325 2.88025 0
M  V30 37526 H 3619.42 1.03973 2.33716 0
M  V30 37527 H 3619.06 1.81095 4.74518 0
M  V30 37528 H 3618.99 0.108366 5.26488 0
M  V30 37529 H 3621.48 0.480818 3.74829 0
M  V30 37530 H 3621.8 1.60024 7.5605 0
M  V30 37531 H 3620.14 1.43234 6.8008 0
M  V30 37532 H 3623.33 0.679055 4.63148 0
M  V30 37533 H 3623.5 1.1893 6.36993 0
M  V30 37534 N 3616.91 -1.57436 0.0718977 0
M  V30 37535 C 3617.87 -2.11607 -0.880634 0
M  V30 37536 C 3618.87 -1.04012 -1.2263 0
M  V30 37537 O 3620.06 -1.29999 -1.15956 0
M  V30 37538 C 3617.2 -2.6175 -2.18403 0
M  V30 37539 H 3618.39 -2.97075 -0.41066 0
M  V30 37540 H 3615.94 -1.55297 -0.176808 0
M  V30 37541 H 3616.68 -1.79735 -2.69936 0
M  V30 37542 H 3616.46 -3.40396 -1.9461 0
M  V30 37543 H 3617.95 -3.03736 -2.86591 0
M  V30 37544 N 3618.39 0.201658 -1.56305 0
M  V30 37545 C 3619.34 1.24995 -1.94023 0
M  V30 37546 C 3620.31 1.45568 -0.799951 0
M  V30 37547 O 3621.49 1.5881 -1.05755 0
M  V30 37548 C 3618.63 2.59109 -2.2794 0
M  V30 37549 C 3617.74 2.4617 -3.54999 0
M  V30 37550 C 3616.88 3.72942 -3.78269 0
M  V30 37551 C 3615.92 3.54808 -4.98776 0
M  V30 37552 N 3615.05 4.73577 -5.18333 0
M  V30 37553 H 3619.89 0.921291 -2.83401 0
M  V30 37554 H 3617.43 0.443565 -1.40253 0
M  V30 37555 H 3619.39 3.37235 -2.45619 0
M  V30 37556 H 3618.02 2.90031 -1.4171 0
M  V30 37557 H 3617.07 1.59375 -3.45404 0
M  V30 37558 H 3618.38 2.287 -4.43281 0
M  V30 37559 H 3617.54 4.59509 -3.96152 0
M  V30 37560 H 3616.28 3.93359 -2.88306 0
M  V30 37561 H 3615.28 2.66626 -4.80823 0
M  V30 37562 H 3616.51 3.35843 -5.90242 0
M  V30 37563 H 3614.45 4.94269 -4.31317 0
M  V30 37564 H 3614.37 4.58908 -6.00782 0
M  V30 37565 H 3615.64 5.61513 -5.40669 0
M  V30 37566 N 3619.87 1.50456 0.469128 0
M  V30 37567 C 3621.09 1.65303 1.24429 0
M  V30 37568 C 3621.51 0.337163 1.85765 0
M  V30 37569 O 3620.87 -0.681088 1.69315 0
M  V30 37570 C 3620.92 2.7456 2.35158 0
M  V30 37571 O 3620.64 4.01045 1.76337 0
M  V30 37572 C 3622.14 3.00397 3.26001 0
M  V30 37573 H 3619.36 0.555593 0.376241 0
M  V30 37574 H 3621.9 1.9669 0.559743 0
M  V30 37575 H 3620.06 2.4586 2.99385 0
M  V30 37576 H 3620.47 4.61481 2.4927 0
M  V30 37577 H 3621.95 3.80503 3.99902 0
M  V30 37578 H 3622.42 2.11544 3.84897 0
M  V30 37579 H 3623.03 3.30635 2.67509 0
M  V30 37580 N 3621.34 -0.722439 1.40066 0
M  V30 37581 C 3622.59 -1.47929 1.377 0
M  V30 37582 C 3622.91 -1.94987 -0.0222265 0
M  V30 37583 O 3622.18 -1.69869 -0.975765 0
M  V30 37584 H 3620.76 -0.548806 0.506775 0
M  V30 37585 H 3623.43 -0.856853 1.75054 0
M  V30 37586 H 3622.52 -2.35541 2.0476 0
M  V30 37587 N 3622.82 -1.2545 -0.953947 0
M  V30 37588 C 3624.07 -1.10021 -1.69528 0
M  V30 37589 C 3624.39 0.359352 -1.9166 0
M  V30 37590 O 3623.66 1.25503 -1.50419 0
M  V30 37591 H 3622.24 -0.404147 -0.628231 0
M  V30 37592 H 3624.9 -1.57583 -1.14689 0
M  V30 37593 H 3624 -1.60905 -2.67424 0
M  V30 37594 N 3624.3 1.15667 -1.07047 0
M  V30 37595 C 3625.26 2.18503 -0.692019 0
M  V30 37596 C 3626.26 1.58582 0.266157 0
M  V30 37597 O 3627.45 1.74135 0.047526 0
M  V30 37598 C 3624.59 3.40894 -0.0194796 0
M  V30 37599 H 3625.78 2.53498 -1.60245 0
M  V30 37600 H 3623.33 1.30074 -0.866621 0
M  V30 37601 H 3624.07 3.11465 0.903343 0
M  V30 37602 H 3623.85 3.85644 -0.708587 0
M  V30 37603 H 3625.34 4.16962 0.230756 0
M  V30 37604 N 3625.78 0.854133 1.32447 0
M  V30 37605 C 3627.01 0.47054 2.0117 0
M  V30 37606 C 3627.42 -0.937189 1.64358 0
M  V30 37607 O 3626.76 -1.62294 0.860593 0
M  V30 37608 C 3626.82 0.529304 3.55582 0
M  V30 37609 C 3626.49 1.89583 4.15821 0
M  V30 37610 C 3627.48 2.86121 4.34086 0
M  V30 37611 C 3625.17 2.19284 4.51907 0
M  V30 37612 C 3627.16 4.10512 4.87605 0
M  V30 37613 C 3624.85 3.43928 5.05131 0
M  V30 37614 C 3625.85 4.39358 5.22928 0
M  V30 37615 O 3625.54 5.61795 5.75014 0
M  V30 37616 H 3625.27 0.183416 0.650642 0
M  V30 37617 H 3627.82 1.1526 1.70013 0
M  V30 37618 H 3626.05 -0.209603 3.86132 0
M  V30 37619 H 3627.74 0.161386 4.05579 0
M  V30 37620 H 3628.51 2.6448 4.06541 0
M  V30 37621 H 3624.39 1.4579 4.3734 0
M  V30 37622 H 3627.93 4.85008 5.01411 0
M  V30 37623 H 3623.83 3.65419 5.32108 0
M  V30 37624 H 3624.59 5.63746 5.93408 0
M  V30 37625 N 3627.26 -1.45231 0.61202 0
M  V30 37626 C 3628.51 -2.01807 0.108732 0
M  V30 37627 C 3628.83 -1.48239 -1.26689 0
M  V30 37628 O 3628.1 -0.6784 -1.83779 0
M  V30 37629 H 3626.68 -0.746073 0.0372053 0
M  V30 37630 H 3629.34 -1.77975 0.794417 0
M  V30 37631 H 3628.43 -3.12039 0.0618755 0
M  V30 37632 N 3628.74 -0.351436 -1.53632 0
M  V30 37633 C 3629.65 0.509945 -2.28991 0
M  V30 37634 C 3630.66 1.10505 -1.34405 0
M  V30 37635 O 3631.84 1.11903 -1.6745 0
M  V30 37636 C 3628.9 1.64119 -3.05395 0
M  V30 37637 C 3627.96 1.07506 -4.15621 0
M  V30 37638 C 3627.2 2.1524 -4.88372 0
M  V30 37639 O 3627.42 3.36102 -4.6086 0
M  V30 37640 O 3626.35 1.7909 -5.74639 0
M  V30 37641 H 3630.18 -0.102883 -3.03526 0
M  V30 37642 H 3627.76 -0.11624 -1.48947 0
M  V30 37643 H 3629.65 2.2992 -3.5315 0
M  V30 37644 H 3628.32 2.23968 -2.33709 0
M  V30 37645 H 3627.23 0.381355 -3.72151 0
M  V30 37646 H 3628.56 0.521327 -4.89431 0
M  V30 37647 N 3630.21 1.57396 -0.0802459 0
M  V30 37648 C 3631.49 1.85231 0.628386 0
M  V30 37649 C 3631.87 0.974321 1.8727 0
M  V30 37650 O 3631.22 0.0428089 2.2846 0
M  V30 37651 C 3631.43 3.35595 0.957974 0
M  V30 37652 C 3632.78 4.03304 1.32783 0
M  V30 37653 O 3633.8 3.4039 1.04945 0
M  V30 37654 O 3632.66 5.14287 1.84856 0
M  V30 37655 H 3629.75 0.765508 0.312932 0
M  V30 37656 H 3632.3 1.69331 -0.111818 0
M  V30 37657 H 3631.07 3.91229 0.0745792 0
M  V30 37658 H 3630.69 3.56788 1.75466 0
M  V30 37659 N 3631.69 -0.193366 1.56409 0
M  V30 37660 C 3632.62 -1.24231 1.97709 0
M  V30 37661 C 3633.6 -1.47379 0.849311 0
M  V30 37662 O 3634.79 -1.59087 1.11377 0
M  V30 37663 C 3631.92 -2.58616 2.31809 0
M  V30 37664 C 3630.87 -2.50076 3.47341 0
M  V30 37665 C 3630.2 -3.88749 3.67121 0
M  V30 37666 C 3631.5 -2.02433 4.81475 0
M  V30 37667 H 3633.19 -0.89909 2.85581 0
M  V30 37668 H 3630.74 -0.431054 1.37397 0
M  V30 37669 H 3632.69 -3.3218 2.59296 0
M  V30 37670 H 3631.41 -2.94681 1.40821 0
M  V30 37671 H 3630.07 -1.78967 3.19947 0
M  V30 37672 H 3629.72 -4.22171 2.73461 0
M  V30 37673 H 3629.42 -3.8391 4.44845 0
M  V30 37674 H 3630.95 -4.63933 3.96986 0
M  V30 37675 H 3632.36 -2.65757 5.07983 0
M  V30 37676 H 3630.76 -2.08591 5.62681 0
M  V30 37677 H 3631.83 -0.97762 4.74943 0
M  V30 37678 N 3633.17 -1.50702 -0.461142 0
M  V30 37679 C 3634.42 -1.61868 -1.21009 0
M  V30 37680 C 3634.74 -0.32577 -1.9226 0
M  V30 37681 O 3634.01 0.657273 -1.84545 0
M  V30 37682 H 3632.59 -0.596502 -0.449661 0
M  V30 37683 H 3635.25 -1.87526 -0.531023 0
M  V30 37684 H 3634.35 -2.43474 -1.95261 0
M  V30 37685 N 3634.65 0.715001 -1.40447 0
M  V30 37686 C 3635.61 1.8108 -1.40509 0
M  V30 37687 C 3636.61 1.58 -0.298796 0
M  V30 37688 O 3637.8 1.6503 -0.557729 0
M  V30 37689 C 3634.93 3.19179 -1.19741 0
M  V30 37690 H 3636.13 1.82423 -2.38037 0
M  V30 37691 H 3633.68 0.920696 -1.26305 0
M  V30 37692 H 3634.41 3.23485 -0.229752 0
M  V30 37693 H 3634.2 3.3733 -1.99877 0
M  V30 37694 H 3635.69 3.99206 -1.22573 0
M  V30 37695 N 3636.13 1.25954 0.947281 0
M  V30 37696 C 3637.4 1.01897 1.66962 0
M  V30 37697 C 3637.78 -0.452519 2.06193 0
M  V30 37698 O 3637.13 -1.43152 1.781 0
M  V30 37699 C 3637.34 1.96184 2.8864 0
M  V30 37700 C 3638.69 2.24447 3.60428 0
M  V30 37701 O 3639.71 1.94001 2.98734 0
M  V30 37702 O 3638.57 2.76256 4.71535 0
M  V30 37703 H 3635.67 0.386988 0.730869 0
M  V30 37704 H 3638.21 1.37139 0.999553 0
M  V30 37705 H 3636.98 2.9551 2.56494 0
M  V30 37706 H 3636.61 1.61385 3.63374 0
M  V30 37707 N 3637.6 -1.15097 1.07659 0
M  V30 37708 C 3638.83 -1.89558 0.821665 0
M  V30 37709 C 3639.24 -1.78433 -0.629142 0
M  V30 37710 O 3638.59 -1.13616 -1.44351 0
M  V30 37711 C 3638.65 -3.40448 1.15479 0
M  V30 37712 C 3638.31 -3.75358 2.60682 0
M  V30 37713 C 3639.31 -3.76119 3.5893 0
M  V30 37714 C 3636.99 -4.05571 2.9634 0
M  V30 37715 C 3638.99 -4.06603 4.9087 0
M  V30 37716 C 3636.67 -4.35719 4.28476 0
M  V30 37717 C 3637.67 -4.36217 5.25551 0
M  V30 37718 O 3637.36 -4.6564 6.55313 0
M  V30 37719 H 3637.09 -0.607516 0.29648 0
M  V30 37720 H 3639.65 -1.4674 1.43724 0
M  V30 37721 H 3637.88 -3.83682 0.482184 0
M  V30 37722 H 3639.57 -3.96204 0.881902 0
M  V30 37723 H 3640.33 -3.52873 3.32724 0
M  V30 37724 H 3636.21 -4.0434 2.21427 0
M  V30 37725 H 3639.75 -4.06906 5.66633 0
M  V30 37726 H 3635.65 -4.58433 4.54434 0
M  V30 37727 H 3636.42 -4.83391 6.60512 0
M  V30 37728 N 3639.08 -0.861145 -1.31993 0
M  V30 37729 C 3640.03 -0.299393 -2.30665 0
M  V30 37730 C 3641.02 0.580751 -1.59134 0
M  V30 37731 O 3642.23 0.467833 -1.73814 0
M  V30 37732 H 3638.61 -0.0781223 -0.747931 0
M  V30 37733 H 3640.58 -1.14572 -2.75528 0
M  V30 37734 C 3639.33 0.491822 -3.44204 0
M  V30 37735 H 3638.65 -0.17615 -3.99412 0
M  V30 37736 H 3640.09 0.850361 -4.15385 0
M  V30 37737 C 3638.55 1.67962 -2.92045 0
M  V30 37738 O 3639.08 2.77881 -2.90078 0
M  V30 37739 N 3637.28 1.50882 -2.4836 0
M  V30 37740 H 3636.83 0.614639 -2.5016 0
M  V30 37741 H 3636.79 2.30499 -2.13817 0
M  V30 37742 N 3640.56 1.44905 -0.619713 0
M  V30 37743 C 3641.49 2.33366 0.0790711 0
M  V30 37744 C 3642.47 1.47542 0.846477 0
M  V30 37745 O 3643.66 1.76288 0.814626 0
M  V30 37746 C 3640.79 3.3044 1.06896 0
M  V30 37747 C 3639.74 4.25993 0.413955 0
M  V30 37748 C 3639.07 5.12849 1.51294 0
M  V30 37749 C 3640.37 5.17951 -0.672574 0
M  V30 37750 H 3642.06 2.92044 -0.659602 0
M  V30 37751 H 3639.61 1.4043 -0.318648 0
M  V30 37752 H 3641.56 3.91203 1.56646 0
M  V30 37753 H 3640.28 2.69947 1.83838 0
M  V30 37754 H 3638.94 3.66546 -0.0627959 0
M  V30 37755 H 3638.59 4.48716 2.27295 0
M  V30 37756 H 3638.29 5.77587 1.08012 0
M  V30 37757 H 3639.81 5.76482 2.01248 0
M  V30 37758 H 3641.23 5.72716 -0.258643 0
M  V30 37759 H 3639.63 5.91232 -1.02786 0
M  V30 37760 H 3640.7 4.5965 -1.54433 0
M  V30 37761 N 3642.04 0.359579 1.53443 0
M  V30 37762 C 3643.26 -0.23554 2.06058 0
M  V30 37763 C 3643.69 -1.42158 1.23177 0
M  V30 37764 O 3643.05 -1.79577 0.24937 0
M  V30 37765 C 3643.09 -0.612963 3.55352 0
M  V30 37766 O 3642.2 -1.71098 3.75232 0
M  V30 37767 H 3641.54 -0.035715 0.663039 0
M  V30 37768 H 3644.07 0.518443 1.97923 0
M  V30 37769 H 3644.08 -0.885652 3.98272 0
M  V30 37770 H 3642.75 0.254316 4.15122 0
M  V30 37771 H 3641.33 -1.43431 3.44212 0
M  V30 37772 N 3643.52 -1.57351 0.0885919 0
M  V30 37773 C 3644.45 -2.1068 -0.90258 0
M  V30 37774 C 3645.46 -1.0426 -1.25035 0
M  V30 37775 O 3646.65 -1.31725 -1.2046 0
M  V30 37776 C 3643.75 -2.5662 -2.21358 0
M  V30 37777 C 3642.92 -3.86802 -2.04212 0
M  V30 37778 C 3641.98 -4.18658 -3.18766 0
M  V30 37779 O 3641.01 -4.87986 -2.93016 0
M  V30 37780 N 3642.21 -3.73542 -4.4435 0
M  V30 37781 H 3644.98 -2.96346 -0.447147 0
M  V30 37782 H 3642.54 -1.61611 -0.0966894 0
M  V30 37783 H 3644.53 -2.74981 -2.9693 0
M  V30 37784 H 3643.1 -1.76001 -2.58346 0
M  V30 37785 H 3642.32 -3.77654 -1.13008 0
M  V30 37786 H 3643.61 -4.71982 -1.90026 0
M  V30 37787 H 3643 -3.17566 -4.68154 0
M  V30 37788 H 3641.56 -3.9707 -5.16893 0
M  V30 37789 N 3644.99 0.185069 -1.5651 0
M  V30 37790 C 3646.24 0.905232 -1.81476 0
M  V30 37791 C 3646.57 1.82486 -0.664257 0
M  V30 37792 O 3645.85 1.916 0.334626 0
M  V30 37793 C 3646.13 1.71281 -3.16757 0
M  V30 37794 C 3645.98 0.817224 -4.42314 0
M  V30 37795 C 3647.3 2.68336 -3.48832 0
M  V30 37796 H 3644.42 0.327653 -0.660161 0
M  V30 37797 H 3647.06 0.172096 -1.89219 0
M  V30 37798 H 3645.21 2.33783 -3.10286 0
M  V30 37799 H 3646.89 0.206137 -4.60839 0
M  V30 37800 H 3645.13 0.124487 -4.33621 0
M  V30 37801 H 3645.8 1.41749 -5.3349 0
M  V30 37802 H 3648.28 2.15963 -3.55667 0
M  V30 37803 H 3647.15 3.21917 -4.44591 0
M  V30 37804 H 3647.41 3.4787 -2.72835 0
M  V30 37805 N 3646.47 1.50945 0.453144 0
M  V30 37806 C 3647.71 1.64478 1.21352 0
M  V30 37807 C 3648.08 0.345912 1.88858 0
M  V30 37808 O 3649.28 0.356855 2.66421 0
M  V30 37809 C 3647.55 2.80438 2.2156 0
M  V30 37810 S 3649.11 3.1421 3.06296 0
M  V30 37811 H 3645.93 0.579639 0.411752 0
M  V30 37812 H 3648.53 1.88796 0.507587 0
M  V30 37813 H 3647.23 3.73271 1.70578 0
M  V30 37814 H 3646.76 2.58262 2.96756 0
M  V30 37815 H 3648.78 2.59422 4.22983 0
M  V30 37816 N 3647.95 -0.707543 1.40825 0
M  V30 37817 C 3649.23 -1.4612 1.30032 0
M  V30 37818 C 3649.61 -2.10957 -0.0776502 0
M  V30 37819 O 3648.96 -2.00769 -1.09106 0
M  V30 37820 C 3649.17 -2.49038 2.44502 0
M  V30 37821 C 3650.51 -3.14637 2.85112 0
M  V30 37822 O 3651.54 -2.5936 2.44154 0
M  V30 37823 O 3650.4 -4.14727 3.55899 0
M  V30 37824 H 3647.49 -0.650163 0.511094 0
M  V30 37825 H 3650.04 -0.739035 1.52762 0
M  V30 37826 H 3648.81 -1.99699 3.36506 0
M  V30 37827 H 3648.43 -3.28779 2.23585 0
M  V30 37828 N 3649.43 -1.26454 -0.940588 0
M  V30 37829 C 3650.68 -1.11812 -1.68352 0
M  V30 37830 C 3651 0.339003 -1.92031 0
M  V30 37831 O 3650.27 1.23901 -1.51741 0
M  V30 37832 H 3648.85 -0.410788 -0.623909 0
M  V30 37833 H 3651.51 -1.58791 -1.13011 0
M  V30 37834 H 3650.61 -1.63733 -2.65703 0
M  V30 37835 N 3650.91 1.14525 -1.08268 0
M  V30 37836 C 3651.85 2.19564 -0.71137 0
M  V30 37837 C 3652.82 1.63336 0.301745 0
M  V30 37838 O 3654.01 1.8989 0.186076 0
M  V30 37839 C 3651.15 3.44872 -0.125315 0
M  V30 37840 C 3650.26 4.15257 -1.19104 0
M  V30 37841 C 3649.4 5.28144 -0.568994 0
M  V30 37842 C 3648.44 5.90359 -1.61685 0
M  V30 37843 N 3647.57 6.947 -1.01671 0
M  V30 37844 H 3652.41 2.50674 -1.61142 0
M  V30 37845 H 3649.95 1.23098 -0.805307 0
M  V30 37846 H 3651.91 4.16553 0.232174 0
M  V30 37847 H 3650.54 3.14249 0.738046 0
M  V30 37848 H 3649.59 3.41979 -1.66597 0
M  V30 37849 H 3650.9 4.57595 -1.98516 0
M  V30 37850 H 3650.06 6.0649 -0.159669 0
M  V30 37851 H 3648.79 4.87023 0.256798 0
M  V30 37852 H 3647.8 5.10718 -2.03585 0
M  V30 37853 H 3649.02 6.33555 -2.44509 0
M  V30 37854 H 3646.97 6.55657 -0.211987 0
M  V30 37855 H 3646.89 7.35515 -1.74794 0
M  V30 37856 H 3648.16 7.76924 -0.633197 0
M  V30 37857 N 3652.39 0.868133 1.31534 0
M  V30 37858 C 3653.63 0.478863 1.97065 0
M  V30 37859 C 3653.96 -0.965991 1.6847 0
M  V30 37860 O 3653.24 -1.67995 0.980195 0
M  V30 37861 C 3653.52 0.734375 3.52532 0
M  V30 37862 C 3653.38 2.22863 3.90707 0
M  V30 37863 C 3654.69 0.199636 4.39647 0
M  V30 37864 H 3651.81 0.175457 0.71581 0
M  V30 37865 H 3654.46 1.08904 1.55692 0
M  V30 37866 H 3652.61 0.21503 3.87904 0
M  V30 37867 H 3654.28 2.81509 3.65446 0
M  V30 37868 H 3652.52 2.70191 3.39381 0
M  V30 37869 H 3653.19 2.35806 4.99099 0
M  V30 37870 H 3655.67 0.643926 4.11087 0
M  V30 37871 H 3654.54 0.407879 5.47382 0
M  V30 37872 H 3654.8 -0.898338 4.32877 0
M  V30 37873 N 3653.86 -1.44574 0.627389 0
M  V30 37874 C 3655.09 -2.06956 0.135612 0
M  V30 37875 C 3655.51 -1.46549 -1.1792 0
M  V30 37876 O 3654.87 -0.565539 -1.72254 0
M  V30 37877 C 3654.92 -3.60587 0.0304104 0
M  V30 37878 O 3654.02 -3.99725 -1.01457 0
M  V30 37879 H 3653.36 -0.658783 0.0830695 0
M  V30 37880 H 3655.89 -1.85508 0.86301 0
M  V30 37881 H 3655.9 -4.07681 -0.16139 0
M  V30 37882 H 3654.58 -4.03937 0.990356 0
M  V30 37883 H 3653.16 -3.64269 -0.797637 0
M  V30 37884 N 3655.34 -0.367711 -1.5325 0
M  V30 37885 C 3656.59 0.221643 -2.01585 0
M  V30 37886 C 3656.92 1.48246 -1.25446 0
M  V30 37887 O 3656.2 1.91348 -0.34876 0
M  V30 37888 C 3656.48 0.511444 -3.5645 0
M  V30 37889 C 3656.33 -0.763153 -4.43279 0
M  V30 37890 C 3657.65 1.31113 -4.20116 0
M  V30 37891 H 3654.77 0.0790825 -0.732745 0
M  V30 37892 H 3657.41 -0.493023 -1.83492 0
M  V30 37893 H 3655.56 1.12027 -3.71998 0
M  V30 37894 H 3657.23 -1.4006 -4.39524 0
M  V30 37895 H 3655.48 -1.38306 -4.11162 0
M  V30 37896 H 3656.15 -0.515312 -5.49589 0
M  V30 37897 H 3658.62 0.796097 -4.08413 0
M  V30 37898 H 3657.5 1.48265 -5.28497 0
M  V30 37899 H 3657.76 2.32025 -3.7632 0
M  V30 37900 N 3656.82 1.57302 -0.0969353 0
M  V30 37901 C 3657.77 2.10666 0.872002 0
M  V30 37902 C 3658.75 1.02213 1.24263 0
M  V30 37903 O 3659.95 1.28484 1.21741 0
M  V30 37904 C 3657.07 2.69202 2.13038 0
M  V30 37905 C 3656.16 3.84701 1.7851 0
M  V30 37906 N 3656.55 4.92658 1.1455 0
M  V30 37907 C 3654.85 3.94471 2.08108 0
M  V30 37908 C 3655.55 5.7327 0.986736 0
M  V30 37909 N 3654.53 5.22361 1.50464 0
M  V30 37910 H 3658.33 2.91516 0.373574 0
M  V30 37911 H 3655.84 1.62052 0.106221 0
M  V30 37912 H 3657.84 3.05764 2.83398 0
M  V30 37913 H 3656.5 1.89808 2.63445 0
M  V30 37914 H 3657.51 5.11493 0.812089 0
M  V30 37915 H 3654.19 3.26088 2.60717 0
M  V30 37916 H 3655.58 6.70137 0.486392 0
M  V30 37917 N 3658.3 -0.176766 1.56606 0
M  V30 37918 C 3659.54 -0.895595 1.81953 0
M  V30 37919 C 3659.88 -1.82132 0.673925 0
M  V30 37920 O 3659.15 -1.91775 -0.324461 0
M  V30 37921 C 3659.43 -1.69599 3.17661 0
M  V30 37922 C 3659.29 -0.793756 4.42741 0
M  V30 37923 C 3660.61 -2.66482 3.50251 0
M  V30 37924 H 3657.73 -0.324147 0.66189 0
M  V30 37925 H 3660.37 -0.162058 1.89308 0
M  V30 37926 H 3658.52 -2.32134 3.11522 0
M  V30 37927 H 3660.19 -0.181694 4.60942 0
M  V30 37928 H 3658.43 -0.10149 4.33681 0
M  V30 37929 H 3659.1 -1.38918 5.34234 0
M  V30 37930 H 3661.58 -2.14074 3.56807 0
M  V30 37931 H 3660.46 -3.19554 4.46292 0
M  V30 37932 H 3660.72 -3.46418 2.74676 0
M  V30 37933 N 3659.78 -1.51183 -0.445132 0
M  V30 37934 C 3661.02 -1.627 -1.19212 0
M  V30 37935 C 3661.34 -0.345283 -1.92528 0
M  V30 37936 O 3662.54 -0.339718 -2.69366 0
M  V30 37937 C 3661 -2.87306 -2.16757 0
M  V30 37938 C 3660.61 -4.22452 -1.49124 0
M  V30 37939 C 3662.35 -3.08178 -2.91936 0
M  V30 37940 C 3660.26 -5.38216 -2.45107 0
M  V30 37941 H 3659.19 -0.605975 -0.448676 0
M  V30 37942 H 3661.84 -1.77643 -0.459924 0
M  V30 37943 H 3660.22 -2.6598 -2.93378 0
M  V30 37944 H 3661.4 -4.54131 -0.781142 0
M  V30 37945 H 3659.71 -4.07395 -0.861271 0
M  V30 37946 H 3662.31 -3.91838 -3.63823 0
M  V30 37947 H 3662.65 -2.20941 -3.52833 0
M  V30 37948 H 3663.18 -3.29807 -2.22424 0
M  V30 37949 H 3659.92 -6.27688 -1.88912 0
M  V30 37950 H 3659.44 -5.10923 -3.14193 0
M  V30 37951 H 3661.12 -5.69849 -3.06401 0
M  V30 37952 N 3661.25 0.700065 -1.41198 0
M  V30 37953 C 3662.16 1.84392 -1.45041 0
M  V30 37954 C 3663.18 1.70617 -0.34144 0
M  V30 37955 O 3664.36 1.92611 -0.588462 0
M  V30 37956 C 3661.42 3.20334 -1.32616 0
M  V30 37957 C 3660.48 3.4625 -2.5379 0
M  V30 37958 C 3659.71 4.75706 -2.41949 0
M  V30 37959 O 3659.94 5.51881 -1.44163 0
M  V30 37960 O 3658.87 5.02306 -3.31621 0
M  V30 37961 H 3662.7 1.84106 -2.41534 0
M  V30 37962 H 3660.28 0.852536 -1.22687 0
M  V30 37963 H 3662.16 4.01504 -1.27954 0
M  V30 37964 H 3660.84 3.21313 -0.392365 0
M  V30 37965 H 3659.75 2.65027 -2.64029 0
M  V30 37966 H 3661.08 3.50081 -3.45983 0
M  V30 37967 N 3662.73 1.26951 0.933869 0
M  V30 37968 C 3663.98 1.12704 1.67757 0
M  V30 37969 C 3664.3 -0.328815 1.92208 0
M  V30 37970 O 3663.57 -1.23094 1.52396 0
M  V30 37971 H 3662.15 0.414091 0.621722 0
M  V30 37972 H 3664.81 1.59388 1.12167 0
M  V30 37973 H 3663.91 1.6514 2.64831 0
M  V30 37974 N 3664.21 -1.13949 1.08873 0
M  V30 37975 C 3665.49 -1.81309 0.733912 0
M  V30 37976 C 3665.87 -1.9609 -0.78179 0
M  V30 37977 O 3665.21 -1.52451 -1.70208 0
M  V30 37978 C 3665.42 -3.167 1.46637 0
M  V30 37979 C 3666.77 -3.92129 1.6285 0
M  V30 37980 O 3667.8 -3.26305 1.42841 0
M  V30 37981 O 3666.66 -5.10181 1.95902 0
M  V30 37982 H 3663.75 -0.78407 0.26299 0
M  V30 37983 H 3666.3 -1.20925 1.1906 0
M  V30 37984 H 3665.07 -3.01134 2.49868 0
M  V30 37985 H 3664.69 -3.84781 1.00148 0
M  V30 37986 N 3665.69 -0.875096 -1.31072 0
M  V30 37987 C 3666.64 -0.306144 -2.25935 0
M  V30 37988 C 3667.62 0.559755 -1.50849 0
M  V30 37989 O 3668.81 0.405794 -1.72286 0
M  V30 37990 C 3665.94 0.486936 -3.39829 0
M  V30 37991 C 3665.03 -0.392495 -4.2228 0
M  V30 37992 N 3665.42 -1.48836 -4.83406 0
M  V30 37993 C 3663.72 -0.18584 -4.45613 0
M  V30 37994 C 3664.42 -2.0311 -5.45088 0
M  V30 37995 N 3663.39 -1.3274 -5.27144 0
M  V30 37996 H 3667.2 -1.14364 -2.70736 0
M  V30 37997 H 3664.71 -0.723416 -1.45398 0
M  V30 37998 H 3666.71 0.9111 -4.06823 0
M  V30 37999 H 3665.37 1.32198 -2.9657 0
M  V30 38000 H 3666.38 -1.87126 -4.82912 0
M  V30 38001 H 3663.06 0.612837 -4.12978 0
M  V30 38002 H 3664.45 -2.95082 -6.03636 0
M  V30 38003 N 3667.17 1.44239 -0.635047 0
M  V30 38004 C 3668.58 1.56736 -0.301006 0
M  V30 38005 C 3668.78 1.6219 1.19568 0
M  V30 38006 O 3667.84 1.56707 1.97988 0
M  V30 38007 C 3669.15 2.83713 -0.996377 0
M  V30 38008 C 3670.7 2.9743 -0.974892 0
M  V30 38009 C 3671.17 4.27215 -1.6508 0
M  V30 38010 N 3672.67 4.34038 -1.61758 0
M  V30 38011 C 3673.4 5.33188 -2.10947 0
M  V30 38012 N 3672.9 6.3872 -2.68344 0
M  V30 38013 N 3674.69 5.24722 -2.01553 0
M  V30 38014 H 3666.84 1.38942 -1.60652 0
M  V30 38015 H 3669.1 0.666075 -0.674573 0
M  V30 38016 H 3668.81 2.85681 -2.05133 0
M  V30 38017 H 3668.68 3.73364 -0.536576 0
M  V30 38018 H 3671.07 2.95013 0.0715941 0
M  V30 38019 H 3671.15 2.09117 -1.47322 0
M  V30 38020 H 3670.8 4.30392 -2.69676 0
M  V30 38021 H 3670.73 5.14393 -1.12728 0
M  V30 38022 H 3673.22 3.58389 -1.19856 0
M  V30 38023 H 3673.53 7.10666 -3.036 0
M  V30 38024 H 3671.87 6.39394 -2.72397 0
M  V30 38025 H 3675.07 4.41188 -1.5643 0
M  V30 38026 H 3675.24 6.01838 -2.40198 0
M  V30 38027 N 3668.64 0.375833 1.53053 0
M  V30 38028 C 3669.87 -0.211098 2.0582 0
M  V30 38029 C 3670.29 -1.41618 1.24859 0
M  V30 38030 O 3669.64 -1.80152 0.291817 0
M  V30 38031 C 3669.7 -0.59451 3.56578 0
M  V30 38032 O 3669.42 0.562683 4.34471 0
M  V30 38033 C 3670.92 -1.23874 4.25641 0
M  V30 38034 H 3668.14 -0.035015 0.670086 0
M  V30 38035 H 3670.68 0.537169 1.97319 0
M  V30 38036 H 3668.84 -1.29269 3.65196 0
M  V30 38037 H 3669.25 0.250579 5.23901 0
M  V30 38038 H 3670.72 -1.45749 5.32411 0
M  V30 38039 H 3671.2 -2.20211 3.80005 0
M  V30 38040 H 3671.81 -0.581712 4.21303 0
M  V30 38041 N 3670.12 -1.57248 0.105276 0
M  V30 38042 C 3671.05 -2.17601 -0.846877 0
M  V30 38043 C 3672.03 -1.11218 -1.28704 0
M  V30 38044 O 3673.22 -1.39398 -1.3521 0
M  V30 38045 C 3670.35 -2.76448 -2.10223 0
M  V30 38046 C 3669.3 -3.88293 -1.80034 0
M  V30 38047 C 3668.63 -4.33888 -3.12483 0
M  V30 38048 C 3669.93 -5.11026 -1.07934 0
M  V30 38049 H 3671.62 -2.97417 -0.344 0
M  V30 38050 H 3669.17 -1.43063 -0.16402 0
M  V30 38051 H 3671.12 -3.17324 -2.77278 0
M  V30 38052 H 3669.85 -1.93901 -2.62811 0
M  V30 38053 H 3668.5 -3.47972 -1.15373 0
M  V30 38054 H 3668.15 -3.48218 -3.62979 0
M  V30 38055 H 3667.85 -5.09301 -2.93063 0
M  V30 38056 H 3669.38 -4.77404 -3.8068 0
M  V30 38057 H 3670.79 -5.49007 -1.65118 0
M  V30 38058 H 3669.19 -5.91935 -0.98657 0
M  V30 38059 H 3670.26 -4.84858 -0.0637659 0
M  V30 38060 N 3671.6 0.168458 -1.56697 0
M  V30 38061 C 3672.53 1.21069 -1.99661 0
M  V30 38062 C 3673.51 1.4601 -0.872651 0
M  V30 38063 O 3674.7 1.57295 -1.13894 0
M  V30 38064 C 3671.83 2.54895 -2.35894 0
M  V30 38065 C 3670.78 2.44518 -3.51276 0
M  V30 38066 C 3670.11 3.8286 -3.73259 0
M  V30 38067 C 3671.41 1.94747 -4.84635 0
M  V30 38068 H 3673.1 0.853542 -2.86976 0
M  V30 38069 H 3670.65 0.409141 -1.38065 0
M  V30 38070 H 3672.6 3.28013 -2.64548 0
M  V30 38071 H 3671.32 2.92404 -1.45491 0
M  V30 38072 H 3669.98 1.73854 -3.22754 0
M  V30 38073 H 3669.63 4.17767 -2.80143 0
M  V30 38074 H 3669.33 3.76784 -4.50896 0
M  V30 38075 H 3670.85 4.57559 -4.04317 0
M  V30 38076 H 3672.27 2.57641 -5.12146 0
M  V30 38077 H 3670.67 1.99613 -5.65928 0
M  V30 38078 H 3671.74 0.901937 -4.76438 0
M  V30 38079 N 3673.08 1.51417 0.437109 0
M  V30 38080 C 3673.99 1.75592 1.55578 0
M  V30 38081 C 3675 0.64016 1.61796 0
M  V30 38082 O 3676.18 0.922437 1.79034 0
M  V30 38083 C 3673.25 1.87603 2.91558 0
M  V30 38084 C 3672.31 3.11456 2.95455 0
M  V30 38085 C 3671.54 3.22885 4.24948 0
M  V30 38086 O 3671.76 2.40247 5.17337 0
M  V30 38087 O 3670.7 4.15864 4.35133 0
M  V30 38088 H 3674.52 2.70488 1.38093 0
M  V30 38089 H 3672.11 1.35921 0.620139 0
M  V30 38090 H 3673.99 1.97488 3.72259 0
M  V30 38091 H 3672.66 0.958944 3.0917 0
M  V30 38092 H 3671.57 3.0705 2.13708 0
M  V30 38093 H 3672.9 4.02855 2.82787 0
M  V30 38094 N 3674.56 -0.692567 1.41567 0
M  V30 38095 C 3675.8 -1.44975 1.40807 0
M  V30 38096 C 3676.13 -1.94991 0.0191382 0
M  V30 38097 O 3675.4 -1.71901 -0.939513 0
M  V30 38098 H 3673.98 -0.537933 0.518302 0
M  V30 38099 H 3676.64 -0.819529 1.76833 0
M  V30 38100 H 3675.73 -2.31145 2.0971 0
M  V30 38101 N 3676.03 -1.27445 -0.927123 0
M  V30 38102 C 3677.26 -1.16742 -1.71424 0
M  V30 38103 C 3677.68 0.27203 -1.86123 0
M  V30 38104 O 3677.04 1.197 -1.36167 0
M  V30 38105 C 3677.09 -1.85667 -3.09128 0
M  V30 38106 O 3676.19 -1.15502 -3.95895 0
M  V30 38107 H 3675.54 -0.405992 -0.52542 0
M  V30 38108 H 3678.07 -1.68525 -1.16019 0
M  V30 38109 H 3678.08 -1.93048 -3.59439 0
M  V30 38110 H 3676.75 -2.90379 -2.97747 0
M  V30 38111 H 3675.33 -1.16194 -3.54335 0
M  V30 38112 N 3677.51 1.1337 -1.09476 0
M  V30 38113 C 3678.76 1.84293 -0.829482 0
M  V30 38114 C 3679.08 1.83962 0.646756 0
M  V30 38115 O 3678.35 1.29574 1.46926 0
M  V30 38116 H 3676.93 0.682404 -0.303865 0
M  V30 38117 H 3679.59 1.37328 -1.38301 0
M  V30 38118 H 3678.69 2.88791 -1.18347 0
M  V30 38119 N 3678.99 0.882035 1.30606 0
M  V30 38120 C 3679.92 0.362747 2.30665 0
M  V30 38121 C 3680.9 -0.552833 1.60866 0
M  V30 38122 O 3682.09 -0.467306 1.88494 0
M  V30 38123 C 3679.22 -0.426159 3.44675 0
M  V30 38124 C 3678.17 0.397397 4.26151 0
M  V30 38125 C 3677.5 -0.517933 5.32186 0
M  V30 38126 C 3678.8 1.63794 4.95952 0
M  V30 38127 H 3680.49 1.19888 2.74349 0
M  V30 38128 H 3678.04 0.577935 1.31894 0
M  V30 38129 H 3679.99 -0.800057 4.13735 0
M  V30 38130 H 3678.71 -1.29591 2.99789 0
M  V30 38131 H 3677.37 0.753395 3.58775 0
M  V30 38132 H 3677.02 -1.38531 4.83547 0
M  V30 38133 H 3676.72 0.0292834 5.87593 0
M  V30 38134 H 3678.24 -0.888411 6.04102 0
M  V30 38135 H 3679.66 1.3348 5.57545 0
M  V30 38136 H 3678.06 2.12513 5.61211 0
M  V30 38137 H 3679.13 2.38401 4.22247 0
M  V30 38138 N 3680.47 -1.439 0.642688 0
M  V30 38139 C 3681.38 -2.34533 -0.056205 0
M  V30 38140 C 3682.39 -1.53283 -0.82343 0
M  V30 38141 O 3683.57 -1.85972 -0.77307 0
M  V30 38142 C 3680.64 -3.31423 -1.01781 0
M  V30 38143 C 3679.7 -4.28579 -0.248683 0
M  V30 38144 C 3678.93 -5.20841 -1.16448 0
M  V30 38145 O 3679.15 -5.17288 -2.40352 0
M  V30 38146 O 3678.09 -5.9846 -0.642566 0
M  V30 38147 H 3681.91 -2.95769 0.689528 0
M  V30 38148 H 3679.5 -1.43866 0.402872 0
M  V30 38149 H 3681.38 -3.91032 -1.57073 0
M  V30 38150 H 3680.05 -2.72705 -1.74395 0
M  V30 38151 H 3678.96 -3.72482 0.34756 0
M  V30 38152 H 3680.29 -4.9025 0.437676 0
M  V30 38153 N 3681.95 -0.383945 -1.52852 0
M  V30 38154 C 3683.17 0.202728 -2.06407 0
M  V30 38155 C 3683.6 1.40181 -1.25423 0
M  V30 38156 O 3682.96 1.79157 -0.277907 0
M  V30 38157 C 3683 0.556352 -3.56282 0
M  V30 38158 O 3682.11 1.65106 -3.77907 0
M  V30 38159 H 3681.45 0.0251621 -0.663523 0
M  V30 38160 H 3683.98 -0.549865 -1.97073 0
M  V30 38161 H 3683.99 0.822179 -3.9963 0
M  V30 38162 H 3682.66 -0.320326 -4.14665 0
M  V30 38163 H 3681.24 1.37937 -3.4645 0
M  V30 38164 N 3683.43 1.5719 -0.113614 0
M  V30 38165 C 3684.67 1.94184 0.545472 0
M  V30 38166 C 3684.99 0.998845 1.68174 0
M  V30 38167 O 3686.19 1.26323 2.40322 0
M  V30 38168 C 3684.65 3.45093 1.02172 0
M  V30 38169 C 3684.26 4.47918 -0.0857983 0
M  V30 38170 C 3686 3.91016 1.65248 0
M  V30 38171 C 3683.91 5.89999 0.406842 0
M  V30 38172 H 3682.84 0.724875 0.207537 0
M  V30 38173 H 3685.49 1.82486 -0.1926 0
M  V30 38174 H 3683.87 3.52006 1.81404 0
M  V30 38175 H 3685.05 4.52668 -0.861901 0
M  V30 38176 H 3683.36 4.11715 -0.622889 0
M  V30 38177 H 3685.96 4.9458 2.03211 0
M  V30 38178 H 3686.3 3.30691 2.52882 0
M  V30 38179 H 3686.83 3.8688 0.925659 0
M  V30 38180 H 3683.57 6.54066 -0.433314 0
M  V30 38181 H 3683.09 5.88681 1.14954 0
M  V30 38182 H 3684.77 6.41126 0.869821 0
M  V30 38183 N 3684.9 -0.160146 1.56784 0
M  V30 38184 C 3686.15 -0.873312 1.81814 0
M  V30 38185 C 3686.47 -1.82923 0.692718 0
M  V30 38186 O 3687.67 -2.58558 0.828248 0
M  V30 38187 C 3686.13 -1.60354 3.22203 0
M  V30 38188 C 3685.74 -0.690698 4.42644 0
M  V30 38189 C 3687.48 -2.30427 3.56516 0
M  V30 38190 C 3685.39 -1.4218 5.74055 0
M  V30 38191 H 3684.32 -0.329858 0.678019 0
M  V30 38192 H 3686.97 -0.126132 1.83066 0
M  V30 38193 H 3685.35 -2.39588 3.15299 0
M  V30 38194 H 3686.52 0.0654724 4.60753 0
M  V30 38195 H 3684.84 -0.0990568 4.16282 0
M  V30 38196 H 3687.44 -2.85741 4.51947 0
M  V30 38197 H 3687.78 -3.06298 2.81935 0
M  V30 38198 H 3688.31 -1.58126 3.65022 0
M  V30 38199 H 3685.05 -0.705203 6.51696 0
M  V30 38200 H 3684.57 -2.15101 5.59903 0
M  V30 38201 H 3686.25 -1.96628 6.16398 0
M  V30 38202 N 3686.38 -1.51647 -0.429072 0
M  V30 38203 C 3687.61 -1.6883 -1.20462 0
M  V30 38204 C 3688.03 -0.388546 -1.84043 0
M  V30 38205 O 3687.39 0.652123 -1.69166 0
M  V30 38206 C 3687.44 -2.81132 -2.25826 0
M  V30 38207 O 3686.54 -2.4531 -3.31507 0
M  V30 38208 H 3685.88 -0.562671 -0.352558 0
M  V30 38209 H 3688.41 -1.98253 -0.505663 0
M  V30 38210 H 3688.42 -3.0546 -2.70478 0
M  V30 38211 H 3687.1 -3.75443 -1.78928 0
M  V30 38212 H 3685.67 -2.31584 -2.92273 0
M  V30 38213 N 3687.86 0.685049 -1.41932 0
M  V30 38214 C 3689.11 1.44082 -1.4115 0
M  V30 38215 C 3689.42 1.95581 -0.0276136 0
M  V30 38216 O 3690.63 2.71305 0.102825 0
M  V30 38217 C 3689.08 2.60591 -2.48234 0
M  V30 38218 C 3688.69 2.15835 -3.9258 0
M  V30 38219 C 3690.44 3.38164 -2.56603 0
M  V30 38220 C 3688.34 3.29365 -4.91195 0
M  V30 38221 H 3687.27 0.541243 -0.52495 0
M  V30 38222 H 3689.92 0.742671 -1.67799 0
M  V30 38223 H 3688.31 3.32725 -2.14733 0
M  V30 38224 H 3689.48 1.50922 -4.35384 0
M  V30 38225 H 3687.79 1.51228 -3.87968 0
M  V30 38226 H 3690.39 4.22698 -3.27461 0
M  V30 38227 H 3690.73 3.84064 -1.60625 0
M  V30 38228 H 3691.27 2.73094 -2.89248 0
M  V30 38229 H 3688.01 2.88467 -5.88615 0
M  V30 38230 H 3687.53 3.93094 -4.53031 0
M  V30 38231 H 3689.21 3.94987 -5.1244 0
M  V30 38232 N 3689.34 1.27935 0.920351 0
M  V30 38233 C 3690.59 1.14084 1.66336 0
M  V30 38234 C 3690.9 -0.31129 1.93107 0
M  V30 38235 O 3692.11 -0.570816 2.65432 0
M  V30 38236 C 3690.56 1.99388 2.9962 0
M  V30 38237 C 3690.17 3.49302 2.80521 0
M  V30 38238 C 3691.91 1.94206 3.77471 0
M  V30 38239 C 3689.82 4.2678 4.09405 0
M  V30 38240 H 3688.75 0.423357 0.623927 0
M  V30 38241 H 3691.4 1.52414 1.02187 0
M  V30 38242 H 3689.78 1.53908 3.64867 0
M  V30 38243 H 3690.96 4.02694 2.23995 0
M  V30 38244 H 3689.27 3.55941 2.16091 0
M  V30 38245 H 3691.87 2.49364 4.72992 0
M  V30 38246 H 3692.21 0.917321 4.06068 0
M  V30 38247 H 3692.75 2.3762 3.19032 0
M  V30 38248 H 3689.48 5.29808 3.85984 0
M  V30 38249 H 3689 3.78163 4.65567 0
M  V30 38250 H 3690.68 4.36348 4.77713 0
M  V30 38251 N 3690.82 -1.12788 1.10076 0
M  V30 38252 C 3691.77 -2.16481 0.715546 0
M  V30 38253 C 3692.75 -1.5856 -0.273435 0
M  V30 38254 O 3693.94 -1.76806 -0.0827518 0
M  V30 38255 C 3691.07 -3.42994 0.144934 0
M  V30 38256 C 3690.16 -4.07907 1.16073 0
M  V30 38257 N 3690.55 -4.47885 2.35016 0
M  V30 38258 C 3688.85 -4.34635 1.0004 0
M  V30 38259 C 3689.55 -4.98561 2.99687 0
M  V30 38260 N 3688.52 -4.93835 2.27219 0
M  V30 38261 H 3692.32 -2.45153 1.62103 0
M  V30 38262 H 3689.84 -1.29654 0.977942 0
M  V30 38263 H 3691.84 -4.16633 -0.149091 0
M  V30 38264 H 3690.5 -3.15793 -0.755313 0
M  V30 38265 H 3691.51 -4.40373 2.72565 0
M  V30 38266 H 3688.18 -4.17211 0.155402 0
M  V30 38267 H 3689.57 -5.39237 4.00841 0
M  V30 38268 N 3692.29 -0.888949 -1.30136 0
M  V30 38269 C 3693.52 -0.523733 -2.00678 0
M  V30 38270 C 3693.94 0.88145 -1.66169 0
M  V30 38271 O 3693.3 1.58486 -0.880446 0
M  V30 38272 C 3693.35 -0.710346 -3.53534 0
M  V30 38273 O 3692.45 0.241994 -4.11689 0
M  V30 38274 H 3691.79 -0.205899 -0.63127 0
M  V30 38275 H 3694.32 -1.19758 -1.65889 0
M  V30 38276 H 3694.33 -0.610865 -4.03401 0
M  V30 38277 H 3693.01 -1.73485 -3.77989 0
M  V30 38278 H 3691.59 0.0958737 -3.72777 0
M  V30 38279 N 3693.77 1.43557 -0.65031 0
M  V30 38280 C 3695 2.06714 -0.16852 0
M  V30 38281 C 3695.42 1.48406 1.15573 0
M  V30 38282 O 3694.78 0.592872 1.71332 0
M  V30 38283 C 3694.83 3.60493 -0.0877728 0
M  V30 38284 O 3693.93 4.01289 0.950844 0
M  V30 38285 H 3693.27 0.657378 -0.0935397 0
M  V30 38286 H 3695.8 1.84112 -0.892413 0
M  V30 38287 H 3695.81 4.07886 0.0965108 0
M  V30 38288 H 3694.49 4.0231 -1.05449 0
M  V30 38289 H 3693.06 3.65492 0.739584 0
M  V30 38290 N 3695.25 0.392045 1.52646 0
M  V30 38291 C 3696.18 -0.433188 2.29447 0
M  V30 38292 C 3697.16 -1.06109 1.32947 0
M  V30 38293 O 3698.35 -1.07334 1.61842 0
M  V30 38294 C 3695.48 -1.55924 3.10331 0
M  V30 38295 C 3694.43 -1.05723 4.14737 0
M  V30 38296 C 3693.76 -2.27557 4.83862 0
M  V30 38297 C 3695.06 -0.123254 5.22155 0
M  V30 38298 H 3696.75 0.207615 2.98679 0
M  V30 38299 H 3694.3 0.101292 1.43643 0
M  V30 38300 H 3696.25 -2.14339 3.62818 0
M  V30 38301 H 3694.97 -2.22767 2.38836 0
M  V30 38302 H 3693.63 -0.495589 3.63235 0
M  V30 38303 H 3693.28 -2.92916 4.08913 0
M  V30 38304 H 3692.98 -1.94627 5.54431 0
M  V30 38305 H 3694.5 -2.8661 5.39154 0
M  V30 38306 H 3695.92 -0.615684 5.69984 0
M  V30 38307 H 3694.31 0.116409 5.99987 0
M  V30 38308 H 3695.38 0.827053 4.77795 0
M  V30 38309 N 3696.73 -1.57127 0.121948 0
M  V30 38310 C 3697.69 -2.14301 -0.812867 0
M  V30 38311 C 3698.69 -1.0786 -1.19259 0
M  V30 38312 O 3699.88 -1.33623 -1.11762 0
M  V30 38313 C 3697.01 -2.68566 -2.09965 0
M  V30 38314 H 3698.21 -2.98231 -0.31594 0
M  V30 38315 H 3695.76 -1.55781 -0.127312 0
M  V30 38316 H 3696.49 -1.88232 -2.64082 0
M  V30 38317 H 3696.28 -3.46415 -1.83682 0
M  V30 38318 H 3697.77 -3.127 -2.76783 0
M  V30 38319 N 3698.21 0.151829 -1.56867 0
M  V30 38320 C 3699.12 1.20714 -2.0116 0
M  V30 38321 C 3700.13 1.47301 -0.926192 0
M  V30 38322 O 3701.31 1.59066 -1.23531 0
M  V30 38323 C 3698.37 2.52181 -2.3792 0
M  V30 38324 C 3697.43 2.33284 -3.60385 0
M  V30 38325 C 3696.67 3.58481 -3.95382 0
M  V30 38326 O 3696.89 4.64465 -3.31101 0
M  V30 38327 O 3695.82 3.51432 -4.88651 0
M  V30 38328 H 3699.65 0.861123 -2.91236 0
M  V30 38329 H 3697.24 0.360187 -1.44993 0
M  V30 38330 H 3699.12 3.29697 -2.62445 0
M  V30 38331 H 3697.79 2.86323 -1.51 0
M  V30 38332 H 3696.7 1.53734 -3.41052 0
M  V30 38333 H 3698.03 2.04059 -4.47907 0
M  V30 38334 N 3699.68 1.51872 0.421024 0
M  V30 38335 C 3701.1 1.57642 1.0003 0
M  V30 38336 C 3701.45 0.409698 1.91875 0
M  V30 38337 O 3700.57 -0.471478 2.11201 0
M  V30 38338 C 3701.17 2.85705 1.82094 0
M  V30 38339 C 3699.73 2.93992 2.35044 0
M  V30 38340 C 3698.87 2.52467 1.14698 0
M  V30 38341 H 3701.82 1.57413 0.201687 0
M  V30 38342 H 3701.84 2.70387 2.67715 0
M  V30 38343 H 3701.36 3.70602 1.15222 0
M  V30 38344 H 3699.46 2.13562 3.05323 0
M  V30 38345 H 3699.57 3.97989 2.66724 0
M  V30 38346 H 3697.93 2.0604 1.49732 0
M  V30 38347 H 3698.72 3.39726 0.494111 0
M  V30 38348 N 3701.16 -0.677513 1.42294 0
M  V30 38349 C 3702.58 -0.990312 1.2516 0
M  V30 38350 C 3702.78 -2.00912 0.153839 0
M  V30 38351 O 3701.83 -2.47976 -0.475824 0
M  V30 38352 C 3703.15 -1.49771 2.60748 0
M  V30 38353 C 3704.7 -1.61562 2.6808 0
M  V30 38354 C 3705.17 -2.15698 4.04028 0
M  V30 38355 N 3706.66 -2.23035 4.05968 0
M  V30 38356 C 3707.4 -2.65991 5.07973 0
M  V30 38357 N 3706.89 -3.08421 6.20362 0
M  V30 38358 N 3708.69 -2.65716 4.9533 0
M  V30 38359 H 3700.84 -0.00292089 2.124 0
M  V30 38360 H 3703.1 -0.0638234 0.945849 0
M  V30 38361 H 3702.81 -0.823612 3.4192 0
M  V30 38362 H 3702.68 -2.4769 2.84481 0
M  V30 38363 H 3705.07 -2.28078 1.87255 0
M  V30 38364 H 3705.15 -0.62139 2.48138 0
M  V30 38365 H 3704.79 -1.49792 4.85309 0
M  V30 38366 H 3704.72 -3.15907 4.2132 0
M  V30 38367 H 3707.21 -1.93116 3.2483 0
M  V30 38368 H 3707.53 -3.39877 6.94049 0
M  V30 38369 H 3705.87 -3.06285 6.23871 0
M  V30 38370 H 3709.06 -2.31929 4.06604 0
M  V30 38371 H 3709.23 -2.98874 5.7496 0
M  V30 38372 N 3702.64 -1.28421 -0.913554 0
M  V30 38373 C 3703.89 -1.15758 -1.66517 0
M  V30 38374 C 3704.22 0.293132 -1.91975 0
M  V30 38375 O 3703.49 1.21318 -1.52027 0
M  V30 38376 C 3703.78 -1.95677 -3.02295 0
M  V30 38377 C 3703.63 -3.48812 -2.8399 0
M  V30 38378 C 3704.95 -1.77233 -4.02835 0
M  V30 38379 H 3702.07 -0.421888 -0.604301 0
M  V30 38380 H 3704.71 -1.57739 -1.05917 0
M  V30 38381 H 3702.86 -1.60002 -3.54022 0
M  V30 38382 H 3704.53 -3.94394 -2.39272 0
M  V30 38383 H 3702.78 -3.74435 -2.19045 0
M  V30 38384 H 3703.45 -3.99988 -3.80412 0
M  V30 38385 H 3705.92 -2.08367 -3.6017 0
M  V30 38386 H 3704.8 -2.35524 -4.95802 0
M  V30 38387 H 3705.06 -0.723881 -4.36133 0
M  V30 38388 N 3704.12 1.12202 -1.10672 0
M  V30 38389 C 3705.34 1.88126 -0.873128 0
M  V30 38390 C 3705.77 1.79222 0.571067 0
M  V30 38391 O 3705.13 1.1489 1.40249 0
M  V30 38392 C 3705.17 3.35205 -1.32928 0
M  V30 38393 O 3704.28 4.09408 -0.495879 0
M  V30 38394 H 3703.62 0.584446 -0.315149 0
M  V30 38395 H 3706.15 1.41879 -1.47416 0
M  V30 38396 H 3706.16 3.86047 -1.3203 0
M  V30 38397 H 3704.83 3.41003 -2.38097 0
M  V30 38398 H 3703.41 3.68514 -0.570281 0
M  V30 38399 N 3705.6 0.895838 1.29663 0
M  V30 38400 C 3706.84 0.520556 1.96005 0
M  V30 38401 C 3707.18 -0.930039 1.70481 0
M  V30 38402 O 3706.45 -1.65878 1.01561 0
M  V30 38403 C 3706.73 0.808987 3.50895 0
M  V30 38404 C 3706.59 2.311 3.85892 0
M  V30 38405 C 3707.91 0.292847 4.39125 0
M  V30 38406 H 3705.02 0.190601 0.711927 0
M  V30 38407 H 3707.67 1.12181 1.53347 0
M  V30 38408 H 3705.82 0.297262 3.87361 0
M  V30 38409 H 3707.49 2.89197 3.59392 0
M  V30 38410 H 3705.73 2.77329 3.33573 0
M  V30 38411 H 3706.4 2.4634 4.93985 0
M  V30 38412 H 3708.88 0.730978 4.09629 0
M  V30 38413 H 3707.75 0.523895 5.46394 0
M  V30 38414 H 3708.02 -0.806317 4.34685 0
M  V30 38415 N 3707.07 -1.43211 0.657914 0
M  V30 38416 C 3708.49 -1.56237 0.325903 0
M  V30 38417 C 3708.69 -1.64072 -1.16973 0
M  V30 38418 O 3707.75 -1.59837 -1.9547 0
M  V30 38419 C 3709.06 -2.82092 1.04139 0
M  V30 38420 C 3710.61 -2.95842 1.02209 0
M  V30 38421 C 3711.08 -4.24534 1.71856 0
M  V30 38422 N 3712.57 -4.31409 1.68643 0
M  V30 38423 C 3713.31 -5.29764 2.19403 0
M  V30 38424 N 3712.8 -6.3437 2.78472 0
M  V30 38425 N 3714.6 -5.21449 2.09875 0
M  V30 38426 H 3706.75 -1.36368 1.62842 0
M  V30 38427 H 3709.01 -0.655259 0.685084 0
M  V30 38428 H 3708.72 -2.82381 2.09652 0
M  V30 38429 H 3708.59 -3.72463 0.595907 0
M  V30 38430 H 3710.98 -2.9509 -0.024651 0
M  V30 38431 H 3711.06 -2.06747 1.5063 0
M  V30 38432 H 3710.7 -4.26047 2.76489 0
M  V30 38433 H 3710.63 -5.12534 1.20897 0
M  V30 38434 H 3713.12 -3.56437 1.25542 0
M  V30 38435 H 3713.44 -7.05746 3.14868 0
M  V30 38436 H 3711.78 -6.3498 2.82534 0
M  V30 38437 H 3714.97 -4.38644 1.63429 0
M  V30 38438 H 3715.15 -5.9794 2.49742 0
M  V30 38439 N 3708.55 -0.400135 -1.52436 0
M  V30 38440 C 3709.46 0.436835 -2.30497 0
M  V30 38441 C 3710.48 1.06173 -1.37853 0
M  V30 38442 O 3711.65 1.06519 -1.70926 0
M  V30 38443 C 3708.72 1.5432 -3.10461 0
M  V30 38444 C 3707.78 0.942294 -4.18831 0
M  V30 38445 C 3707.01 1.99593 -4.94973 0
M  V30 38446 O 3707.24 3.2127 -4.71319 0
M  V30 38447 O 3706.17 1.60718 -5.80046 0
M  V30 38448 H 3710 -0.199396 -3.03045 0
M  V30 38449 H 3707.58 -0.163567 -1.48502 0
M  V30 38450 H 3709.46 2.18568 -3.60286 0
M  V30 38451 H 3708.14 2.16419 -2.40716 0
M  V30 38452 H 3707.05 0.262765 -3.73176 0
M  V30 38453 H 3708.38 0.365355 -4.90842 0
M  V30 38454 N 3710.03 1.57061 -0.13028 0
M  V30 38455 C 3711.28 1.9519 0.523935 0
M  V30 38456 C 3711.6 1.01517 1.66491 0
M  V30 38457 O 3710.87 0.0735538 1.95762 0
M  V30 38458 H 3709.45 0.720681 0.196541 0
M  V30 38459 H 3712.11 1.93852 -0.201864 0
M  V30 38460 H 3711.21 2.98505 0.911104 0
M  V30 38461 O 3711.55 -0.00879294 1.61498 0
M  V30 38462 H 3712.24 -0.626653 1.83283 0
M  V30 END ATOM
M  V30 BEGIN BOND
M  V30 END BOND
M  V30 END CTAB
M  END
$$$$
