drugbank_target|P10340 Flavodoxin (DB03247)
 OpenBabel12092120273D

  0  0  0     0  0            999 V3000
M  V30 BEGIN CTAB
M  V30 COUNTS 2568 2594 0 0 0
M  V30 BEGIN ATOM
M  V30 1 H -0.908 1.98254 -0.117106 0
M  V30 2 N 0 1.576 0 0
M  V30 3 C 0.933 2.03868 1.02534 0
M  V30 4 C 1.911 0.928543 1.3348 0
M  V30 5 O 3.095 1.19667 1.45644 0
M  V30 6 C 0.222 2.43627 2.35294 0
M  V30 7 C -0.732 3.65373 2.2001 0
M  V30 8 S 0.101 5.13292 1.52614 0
M  V30 9 C 1.257 5.56322 2.86805 0
M  V30 10 H 1.49 2.90518 0.631377 0
M  V30 11 H -0.977 1.52953 0.210867 0
M  V30 12 H 0.981 2.67203 3.11629 0
M  V30 13 H -0.358 1.57376 2.7183 0
M  V30 14 H -1.165 3.90944 3.18086 0
M  V30 15 H -1.563 3.418 1.51819 0
M  V30 16 H 0.729 5.58782 3.83104 0
M  V30 17 H 1.672 6.56266 2.65933 0
M  V30 18 H 2.08 4.83886 2.90714 0
M  V30 19 N 1.4781 -0.272755 1.55222 0
M  V30 20 C 2.4411 -1.32041 1.87344 0
M  V30 21 C 3.4411 -1.42342 0.74803 0
M  V30 22 O 4.6311 -1.41488 1.0162 0
M  V30 23 C 1.7631 -2.70173 2.07893 0
M  V30 24 H 2.9561 -1.04789 2.80997 0
M  V30 25 H 0.5091 -0.51083 1.47717 0
M  V30 26 H 1.2441 -3.02605 1.16622 0
M  V30 27 H 1.0291 -2.64082 2.89833 0
M  V30 28 H 2.5191 -3.45869 2.34017 0
M  V30 29 N 2.9562 -1.48159 -0.537278 0
M  V30 30 C 3.9032 -1.62138 -1.64256 0
M  V30 31 C 4.8732 -0.463668 -1.59497 0
M  V30 32 O 6.0582 -0.686241 -1.78032 0
M  V30 33 C 3.1982 -1.66028 -3.02537 0
M  V30 34 C 2.3112 -2.92855 -3.17585 0
M  V30 35 C 1.4462 -2.87952 -4.46382 0
M  V30 36 C 0.4852 -4.09516 -4.54932 0
M  V30 37 N -0.3778 -4.02733 -5.75109 0
M  V30 38 H 4.4622 -2.56529 -1.51647 0
M  V30 39 H 1.9992 -1.27224 -0.738414 0
M  V30 40 H 3.9572 -1.66265 -3.82638 0
M  V30 41 H 2.5872 -0.751331 -3.13934 0
M  V30 42 H 1.6392 -3.02395 -2.30784 0
M  V30 43 H 2.9512 -3.82822 -3.19764 0
M  V30 44 H 2.1052 -2.8655 -5.34765 0
M  V30 45 H 0.8442 -1.95702 -4.46712 0
M  V30 46 H -0.1508 -4.11201 -3.64957 0
M  V30 47 H 1.0742 -5.02917 -4.56346 0
M  V30 48 H -0.9798 -3.13299 -5.76351 0
M  V30 49 H -1.0628 -4.86397 -5.78752 0
M  V30 50 H 0.2052 -4.05379 -6.65799 0
M  V30 51 N 4.4343 0.785586 -1.36625 0
M  V30 52 C 5.6833 1.53883 -1.30396 0
M  V30 53 C 5.9963 1.95271 0.113452 0
M  V30 54 O 7.2023 2.69858 0.298142 0
M  V30 55 C 5.6583 2.77808 -2.28802 0
M  V30 56 C 5.2663 2.43574 -3.75999 0
M  V30 57 C 7.0103 3.55783 -2.31558 0
M  V30 58 C 4.9173 3.63919 -4.66173 0
M  V30 59 H 3.8473 0.577678 -0.484566 0
M  V30 60 H 6.4983 0.861705 -1.62009 0
M  V30 61 H 4.8803 3.47339 -1.90188 0
M  V30 62 H 6.0543 1.81916 -4.23371 0
M  V30 63 H 4.3693 1.78803 -3.76056 0
M  V30 64 H 6.9663 4.45205 -2.96137 0
M  V30 65 H 7.3093 3.94644 -1.3252 0
M  V30 66 H 7.8423 2.93235 -2.68809 0
M  V30 67 H 4.5813 3.3015 -5.66287 0
M  V30 68 H 4.1013 4.2473 -4.23515 0
M  V30 69 H 5.7803 4.30901 -4.82632 0
M  V30 70 N 5.9124 1.20967 1.01018 0
M  V30 71 C 7.1604 1.02172 1.74371 0
M  V30 72 C 7.4814 -0.446414 1.89821 0
M  V30 73 O 6.7514 -1.32234 1.44537 0
M  V30 74 H 5.3314 0.375066 0.646014 0
M  V30 75 H 7.9934 1.52187 1.21758 0
M  V30 76 H 7.0894 1.48538 2.74487 0
M  V30 77 N 7.3905 -1.2043 1.01659 0
M  V30 78 C 8.3205 -2.25466 0.607226 0
M  V30 79 C 9.3015 -1.65853 -0.377716 0
M  V30 80 O 10.4865 -1.92409 -0.263149 0
M  V30 81 C 7.6165 -3.47256 -0.0552949 0
M  V30 82 C 6.5705 -4.19462 0.850632 0
M  V30 83 C 5.8965 -5.34673 0.0538859 0
M  V30 84 C 7.1965 -4.75603 2.15868 0
M  V30 85 H 8.8905 -2.59962 1.48526 0
M  V30 86 H 6.4365 -1.2496 0.715605 0
M  V30 87 H 8.3895 -4.19917 -0.353233 0
M  V30 88 H 7.1135 -3.11924 -0.968045 0
M  V30 89 H 5.7725 -3.48667 1.13257 0
M  V30 90 H 5.4205 -4.95585 -0.860514 0
M  V30 91 H 5.1205 -5.83913 0.657192 0
M  V30 92 H 6.6445 -6.10138 -0.237598 0
M  V30 93 H 8.0585 -5.40083 1.92311 0
M  V30 94 H 6.4555 -5.3528 2.71284 0
M  V30 95 H 7.5255 -3.94346 2.82169 0
M  V30 96 N 8.8686 -0.792821 -1.36206 0
M  V30 97 C 10.1156 -0.366786 -1.99151 0
M  V30 98 C 10.4436 1.06243 -1.62919 0
M  V30 99 O 9.6986 1.74927 -0.877442 0
M  V30 100 C 9.9976 -0.481501 -3.54142 0
M  V30 101 C 9.6636 -1.87202 -4.10203 0
M  V30 102 C 8.3256 -2.25248 -4.25226 0
M  V30 103 C 10.6776 -2.78237 -4.40719 0
M  V30 104 C 8.0056 -3.53723 -4.68078 0
M  V30 105 C 10.3576 -4.06144 -4.85005 0
M  V30 106 C 9.0216 -4.44207 -4.98234 0
M  V30 107 H 8.2916 -0.134217 -0.728743 0
M  V30 108 H 10.9386 -1.01094 -1.62641 0
M  V30 109 H 9.2436 0.246146 -3.91026 0
M  V30 110 H 10.9406 -0.132844 -4.0078 0
M  V30 111 H 7.5306 -1.56639 -3.98951 0
M  V30 112 H 11.7146 -2.50097 -4.28679 0
M  V30 113 H 6.9706 -3.8308 -4.76508 0
M  V30 114 H 11.1446 -4.76796 -5.07581 0
M  V30 115 H 8.7716 -5.43814 -5.31197 0
M  V30 116 N 10.3467 1.47872 -0.545128 0
M  V30 117 C 11.5767 2.06589 -0.0210534 0
M  V30 118 C 11.9847 1.39997 1.27269 0
M  V30 119 O 11.3277 0.486421 1.77143 0
M  V30 120 C 11.3897 3.58574 0.257933 0
M  V30 121 C 11.0537 4.47132 -0.944573 0
M  V30 122 C 12.0507 4.85986 -1.84699 0
M  V30 123 C 9.7357 4.88821 -1.15584 0
M  V30 124 C 11.7297 5.65314 -2.94446 0
M  V30 125 C 9.4167 5.67916 -2.25642 0
M  V30 126 C 10.4147 6.06073 -3.14905 0
M  V30 127 O 10.1027 6.83578 -4.23057 0
M  V30 128 H 9.8347 0.674971 -0.0372899 0
M  V30 129 H 12.3887 1.91037 -0.754599 0
M  V30 130 H 10.6187 3.72295 1.04564 0
M  V30 131 H 12.3077 3.99356 0.72592 0
M  V30 132 H 13.0737 4.54388 -1.69577 0
M  V30 133 H 8.9527 4.58595 -0.470279 0
M  V30 134 H 12.4967 5.95016 -3.64145 0
M  V30 135 H 8.3937 5.98927 -2.40742 0
M  V30 136 H 9.1617 7.01954 -4.20954 0
M  V30 137 N 11.8248 0.280983 1.55075 0
M  V30 138 C 13.0728 -0.333455 1.9933 0
M  V30 139 C 13.3938 -1.55937 1.17085 0
M  V30 140 O 12.6638 -1.94143 0.261805 0
M  V30 141 H 11.2438 -0.126197 0.736263 0
M  V30 142 H 13.9058 0.387678 1.91005 0
M  V30 143 H 13.0018 -0.619292 3.05894 0
M  V30 144 N 13.3029 -1.57598 0.00835791 0
M  V30 145 C 14.5309 -1.95214 -0.68549 0
M  V30 146 C 14.9459 -0.883706 -1.66841 0
M  V30 147 O 14.3029 0.136565 -1.81988 0
M  V30 148 C 14.3539 -3.32865 -1.41007 0
M  V30 149 O 14.0749 -4.35609 -0.466552 0
M  V30 150 C 15.5759 -3.84991 -2.19765 0
M  V30 151 H 12.7959 -0.643422 -0.190392 0
M  V30 152 H 15.3399 -2.04406 0.0619607 0
M  V30 153 H 13.4949 -3.24956 -2.10908 0
M  V30 154 H 13.9089 -5.15288 -0.978699 0
M  V30 155 H 15.3829 -4.8371 -2.65948 0
M  V30 156 H 15.8599 -3.18137 -3.02796 0
M  V30 157 H 16.4659 -3.96103 -1.54864 0
M  V30 158 N 14.781 0.264519 -1.55364 0
M  V30 159 C 15.713 1.34965 -1.85248 0
M  V30 160 C 16.726 1.45136 -0.737525 0
M  V30 161 O 17.915 1.46801 -1.01547 0
M  V30 162 C 15.015 2.73008 -2.00797 0
M  V30 163 C 14.188 2.85324 -3.31525 0
M  V30 164 C 13.247 4.04097 -3.37034 0
M  V30 165 O 12.273 3.94455 -4.10358 0
M  V30 166 N 13.475 5.16458 -2.65049 0
M  V30 167 H 16.24 1.09672 -2.78913 0
M  V30 168 H 13.801 0.454635 -1.55386 0
M  V30 169 H 15.793 3.50772 -2.01844 0
M  V30 170 H 14.363 2.91087 -1.1396 0
M  V30 171 H 13.583 1.94377 -3.42945 0
M  V30 172 H 14.871 2.9049 -4.17724 0
M  V30 173 H 14.269 5.27181 -2.05175 0
M  V30 174 H 12.826 5.92422 -2.71809 0
M  V30 175 N 16.2591 1.48442 0.529413 0
M  V30 176 C 17.4871 1.60151 1.30994 0
M  V30 177 C 17.9021 0.261985 1.86973 0
M  V30 178 O 17.2591 -0.748805 1.66431 0
M  V30 179 C 17.3101 2.64854 2.46038 0
M  V30 180 O 17.0311 3.93608 1.92365 0
M  V30 181 C 18.5321 2.87007 3.37849 0
M  V30 182 H 15.7521 0.539971 0.398338 0
M  V30 183 H 18.2961 1.94273 0.638597 0
M  V30 184 H 16.4511 2.33589 3.09055 0
M  V30 185 H 16.8651 4.51055 2.67675 0
M  V30 186 H 18.3391 3.64068 4.14919 0
M  V30 187 H 18.8161 1.95852 3.93114 0
M  V30 188 H 19.4221 3.19579 2.80623 0
M  V30 189 N 17.7372 -0.778329 1.37039 0
M  V30 190 C 18.9852 -1.53361 1.31623 0
M  V30 191 C 19.3062 -1.94739 -0.100831 0
M  V30 192 O 18.5762 -1.65797 -1.04347 0
M  V30 193 H 17.1562 -0.568794 0.484234 0
M  V30 194 H 19.8182 -0.926742 1.71457 0
M  V30 195 H 18.9142 -2.43606 1.95096 0
M  V30 196 N 19.2153 -1.21501 -1.00376 0
M  V30 197 C 20.4613 -1.03452 -1.74429 0
M  V30 198 C 20.7943 0.430764 -1.89362 0
M  V30 199 O 20.0693 1.31962 -1.42886 0
M  V30 200 C 20.3523 -1.73375 -3.15615 0
M  V30 201 C 20.2053 -3.27431 -3.08397 0
M  V30 202 C 21.5243 -1.47732 -4.14564 0
M  V30 203 H 18.6433 -0.377226 -0.633143 0
M  V30 204 H 21.2853 -1.49693 -1.17013 0
M  V30 205 H 19.4353 -1.34064 -3.64636 0
M  V30 206 H 21.1073 -3.76119 -2.67081 0
M  V30 207 H 19.3503 -3.5767 -2.45468 0
M  V30 208 H 20.0213 -3.71524 -4.08258 0
M  V30 209 H 22.4973 -1.8186 -3.74254 0
M  V30 210 H 21.3733 -1.99169 -5.11491 0
M  V30 211 H 21.6343 -0.407589 -4.40217 0
M  V30 212 N 20.6934 1.19889 -1.02296 0
M  V30 213 C 21.9214 1.9339 -0.735399 0
M  V30 214 C 22.3364 1.75148 0.704887 0
M  V30 215 O 21.6934 1.06954 1.47875 0
M  V30 216 C 21.7444 3.45313 -1.06962 0
M  V30 217 O 21.4654 3.62964 -2.45334 0
M  V30 218 C 22.9664 4.35948 -0.804021 0
M  V30 219 H 20.1864 0.61448 -0.269546 0
M  V30 220 H 22.7304 1.522 -1.36585 0
M  V30 221 H 20.8854 3.84359 -0.484455 0
M  V30 222 H 21.2994 4.56886 -2.57595 0
M  V30 223 H 22.7734 5.41174 -1.0879 0
M  V30 224 H 23.2504 4.3842 0.261691 0
M  V30 225 H 23.8564 4.02574 -1.37164 0
M  V30 226 N 22.1715 0.800033 1.35784 0
M  V30 227 C 23.1035 0.163596 2.28615 0
M  V30 228 C 24.1165 -0.633317 1.49976 0
M  V30 229 O 25.3055 -0.466754 1.72289 0
M  V30 230 C 22.4055 -0.790958 3.29541 0
M  V30 231 C 21.5785 -0.0418255 4.3738 0
M  V30 232 C 20.6375 -0.91389 5.18203 0
M  V30 233 O 19.6635 -0.367234 5.68014 0
M  V30 234 N 20.8655 -2.23682 5.35674 0
M  V30 235 H 23.6305 0.96105 2.83873 0
M  V30 236 H 21.1915 0.654894 1.48063 0
M  V30 237 H 23.1835 -1.37844 3.80501 0
M  V30 238 H 21.7535 -1.48925 2.74846 0
M  V30 239 H 20.9735 0.726813 3.87442 0
M  V30 240 H 22.2615 0.474719 5.06581 0
M  V30 241 H 21.6595 -2.70497 4.96838 0
M  V30 242 H 20.2165 -2.77369 5.89839 0
M  V30 243 N 23.6496 -1.47581 0.552962 0
M  V30 244 C 24.8776 -2.06875 0.0320556 0
M  V30 245 C 25.2926 -1.40625 -1.25976 0
M  V30 246 O 24.6496 -0.501349 -1.75479 0
M  V30 247 C 24.7006 -3.61092 -0.17167 0
M  V30 248 O 24.4216 -4.24858 1.06899 0
M  V30 249 C 25.9226 -4.37242 -0.730344 0
M  V30 250 H 23.1426 -0.669561 0.043915 0
M  V30 251 H 25.6866 -1.89646 0.765163 0
M  V30 252 H 23.8416 -3.7785 -0.854894 0
M  V30 253 H 24.2556 -5.17334 0.864059 0
M  V30 254 H 25.7296 -5.45842 -0.822203 0
M  V30 255 H 26.2066 -4.03235 -1.74064 0
M  V30 256 H 26.8126 -4.25219 -0.0829543 0
M  V30 257 N 25.1277 -0.289203 -1.54924 0
M  V30 258 C 26.3767 0.324231 -1.99077 0
M  V30 259 C 26.6897 1.5591 -1.18117 0
M  V30 260 O 27.8957 2.24637 -1.52481 0
M  V30 261 C 26.3517 0.628209 -3.54375 0
M  V30 262 C 25.9597 -0.587647 -4.44129 0
M  V30 263 C 27.7037 1.20349 -4.07083 0
M  V30 264 C 25.6107 -0.257475 -5.90839 0
M  V30 265 H 24.5407 0.124924 -0.743579 0
M  V30 266 H 27.1917 -0.396063 -1.79175 0
M  V30 267 H 25.5737 1.40778 -3.70132 0
M  V30 268 H 26.7477 -1.36418 -4.40144 0
M  V30 269 H 25.0627 -1.08074 -4.0213 0
M  V30 270 H 27.6597 1.46456 -5.14252 0
M  V30 271 H 28.0027 2.14195 -3.56968 0
M  V30 272 H 28.5357 0.485889 -3.94821 0
M  V30 273 H 25.2747 -1.16419 -6.45079 0
M  V30 274 H 24.7947 0.482018 -5.9786 0
M  V30 275 H 26.4737 0.145238 -6.46837 0
M  V30 276 N 26.6058 1.57591 -0.0167156 0
M  V30 277 C 27.5688 2.08393 0.954204 0
M  V30 278 C 28.5688 0.996531 1.26198 0
M  V30 279 O 29.7588 1.25858 1.20438 0
M  V30 280 C 26.8908 2.5394 2.27436 0
M  V30 281 H 28.0838 2.95455 0.514451 0
M  V30 282 H 25.6368 1.54582 0.231089 0
M  V30 283 H 26.3718 1.70171 2.76066 0
M  V30 284 H 26.1568 3.33371 2.06412 0
M  V30 285 H 27.6468 2.93512 2.97053 0
M  V30 286 N 28.0839 -0.256276 1.55502 0
M  V30 287 C 28.9939 -1.33882 1.92647 0
M  V30 288 C 30.0099 -1.53159 0.825727 0
M  V30 289 O 31.1859 -1.66963 1.12629 0
M  V30 290 C 28.2509 -2.6751 2.20543 0
M  V30 291 C 27.3119 -2.56836 3.43997 0
M  V30 292 C 26.5449 -3.84092 3.70553 0
M  V30 293 O 26.7679 -4.85545 2.99336 0
M  V30 294 O 25.7019 -3.83288 4.64084 0
M  V30 295 H 29.5279 -1.05374 2.84833 0
M  V30 296 H 27.1129 -0.456237 1.42263 0
M  V30 297 H 28.9949 -3.46492 2.39835 0
M  V30 298 H 27.6699 -2.9577 1.31536 0
M  V30 299 H 26.5769 -1.76172 3.30021 0
M  V30 300 H 27.9099 -2.33523 4.33275 0
M  V30 301 N 29.562 -1.4872 -0.521534 0
M  V30 302 C 30.787 -1.61101 -1.30618 0
M  V30 303 C 31.212 -0.274611 -1.86085 0
M  V30 304 O 30.57 0.754937 -1.64834 0
M  V30 305 C 30.618 -2.66709 -2.4269 0
M  V30 306 O 29.722 -2.24456 -3.45967 0
M  V30 307 H 29.063 -0.539921 -0.386499 0
M  V30 308 H 31.593 -1.94767 -0.626645 0
M  V30 309 H 31.603 -2.88245 -2.88754 0
M  V30 310 H 30.278 -3.63727 -2.01682 0
M  V30 311 H 28.855 -2.13168 -3.05964 0
M  V30 312 N 31.0401 0.771051 -1.3745 0
M  V30 313 C 32.2891 1.52491 -1.3202 0
M  V30 314 C 32.6021 1.9538 0.0927347 0
M  V30 315 O 33.8081 2.70159 0.269503 0
M  V30 316 C 32.2641 2.75366 -2.31736 0
M  V30 317 C 31.8721 2.39573 -3.78562 0
M  V30 318 C 33.6161 3.53307 -2.35318 0
M  V30 319 C 31.5231 3.58954 -4.70007 0
M  V30 320 H 30.4531 0.572506 -0.490666 0
M  V30 321 H 33.1041 0.844474 -1.62914 0
M  V30 322 H 31.4861 3.45303 -1.93861 0
M  V30 323 H 32.6601 1.77415 -4.25277 0
M  V30 324 H 30.9751 1.74805 -3.77932 0
M  V30 325 H 33.5721 4.42039 -3.00842 0
M  V30 326 H 33.9151 3.93217 -1.36698 0
M  V30 327 H 34.4481 2.90367 -2.71904 0
M  V30 328 H 31.1871 3.24125 -5.69757 0
M  V30 329 H 30.7071 4.20214 -4.27996 0
M  V30 330 H 32.3861 4.25758 -4.87175 0
M  V30 331 N 32.5182 1.22032 0.997298 0
M  V30 332 C 33.4502 0.944263 2.08845 0
M  V30 333 C 34.4632 -0.0754663 1.62625 0
M  V30 334 O 35.6522 0.157994 1.77799 0
M  V30 335 C 32.7522 0.397723 3.36558 0
M  V30 336 C 31.9252 1.47362 4.11829 0
M  V30 337 C 30.9842 0.934951 5.17827 0
M  V30 338 O 30.0102 1.62016 5.45655 0
M  V30 339 N 31.2122 -0.245895 5.79979 0
M  V30 340 H 33.9772 1.88363 2.33109 0
M  V30 341 H 31.5382 1.12661 1.16272 0
M  V30 342 H 33.5302 0.0227771 4.04694 0
M  V30 343 H 32.1002 -0.446646 3.09393 0
M  V30 344 H 31.3202 2.02208 3.38386 0
M  V30 345 H 32.6082 2.19764 4.58891 0
M  V30 346 H 32.0062 -0.819475 5.59733 0
M  V30 347 H 30.5632 -0.562272 6.4937 0
M  V30 348 N 33.9963 -1.19345 1.0293 0
M  V30 349 C 34.9283 -2.22036 0.56857 0
M  V30 350 C 35.9413 -1.58865 -0.355779 0
M  V30 351 O 37.1303 -1.77851 -0.152103 0
M  V30 352 C 34.2303 -3.38363 -0.190752 0
M  V30 353 C 33.4033 -4.31118 0.738643 0
M  V30 354 C 32.4623 -5.26194 0.0246497 0
M  V30 355 O 31.4883 -5.65461 0.651354 0
M  V30 356 N 32.6903 -5.66971 -1.24594 0
M  V30 357 H 35.4553 -2.6219 1.45177 0
M  V30 358 H 33.0163 -1.34015 0.908381 0
M  V30 359 H 35.0083 -3.98981 -0.677961 0
M  V30 360 H 33.5783 -2.96994 -0.975366 0
M  V30 361 H 32.7983 -3.68276 1.40593 0
M  V30 362 H 34.0863 -4.90001 1.37029 0
M  V30 363 H 33.4843 -5.37104 -1.77583 0
M  V30 364 H 32.0413 -6.2984 -1.67764 0
M  V30 365 N 35.4744 -0.807222 -1.35358 0
M  V30 366 C 36.3844 -0.219594 -2.3357 0
M  V30 367 C 37.4004 0.637734 -1.61892 0
M  V30 368 O 38.5764 0.549336 -1.93763 0
M  V30 369 C 35.6414 0.62158 -3.41083 0
M  V30 370 C 34.7024 -0.256315 -4.28534 0
M  V30 371 C 33.9354 0.544807 -5.30912 0
M  V30 372 O 34.1584 1.77944 -5.41934 0
M  V30 373 O 33.0924 -0.0646478 -6.01865 0
M  V30 374 H 36.9184 -1.03208 -2.85625 0
M  V30 375 H 34.5034 -0.569025 -1.38139 0
M  V30 376 H 36.3854 1.10067 -4.06772 0
M  V30 377 H 35.0604 1.41165 -2.91297 0
M  V30 378 H 33.9674 -0.782559 -3.65823 0
M  V30 379 H 35.3004 -1.01034 -4.81719 0
M  V30 380 N 36.9525 1.47285 -0.560781 0
M  V30 381 C 38.1995 2.02464 -0.038062 0
M  V30 382 C 38.5275 1.43474 1.31322 0
M  V30 383 O 37.7825 0.581311 1.86867 0
M  V30 384 C 38.0815 3.57258 0.100784 0
M  V30 385 C 37.7475 4.35184 -1.18007 0
M  V30 386 C 36.4095 4.56194 -1.53103 0
M  V30 387 C 38.7615 4.80098 -2.02867 0
M  V30 388 C 36.0895 5.19367 -2.729 0
M  V30 389 C 38.4415 5.44593 -3.21871 0
M  V30 390 C 37.1055 5.63835 -3.57276 0
M  V30 391 H 36.3755 0.740869 -0.0139279 0
M  V30 392 H 39.0225 1.76916 -0.733012 0
M  V30 393 H 37.3275 3.81819 0.878724 0
M  V30 394 H 39.0245 3.97606 0.520639 0
M  V30 395 H 35.6145 4.19113 -0.8968 0
M  V30 396 H 39.7985 4.63642 -1.7706 0
M  V30 397 H 35.0545 5.32459 -3.00496 0
M  V30 398 H 39.2285 5.78358 -3.87911 0
M  V30 399 H 36.8555 6.12557 -4.50197 0
M  V30 400 N 38.4306 0.297415 1.54768 0
M  V30 401 C 39.6786 -0.312295 1.99673 0
M  V30 402 C 39.9996 -1.54686 1.18732 0
M  V30 403 O 39.2696 -1.93854 0.282382 0
M  V30 404 H 37.8496 -0.118381 0.73756 0
M  V30 405 H 40.5116 0.407915 1.90583 0
M  V30 406 H 39.6076 -0.586813 3.06534 0
M  V30 407 N 39.9087 -1.5758 0.0250728 0
M  V30 408 C 41.1567 -1.91255 -0.653151 0
M  V30 409 C 41.4777 -0.901691 -1.729 0
M  V30 410 O 40.7477 0.0573785 -1.95816 0
M  V30 411 H 39.3277 -0.705942 -0.244243 0
M  V30 412 H 41.9897 -1.94767 0.0719209 0
M  V30 413 H 41.0857 -2.91752 -1.10847 0
M  V30 414 N 41.3868 0.248026 -1.55636 0
M  V30 415 C 42.2968 1.32859 -1.93354 0
M  V30 416 C 43.3128 1.52719 -0.833838 0
M  V30 417 O 44.4888 1.66363 -1.13513 0
M  V30 418 C 41.5538 2.66337 -2.21958 0
M  V30 419 C 40.6148 2.55008 -3.45354 0
M  V30 420 C 39.8478 3.82121 -3.72584 0
M  V30 421 O 40.0708 4.83951 -3.01907 0
M  V30 422 O 39.0048 3.80822 -4.6611 0
M  V30 423 H 42.8308 1.03862 -2.85388 0
M  V30 424 H 40.4158 0.448686 -1.42503 0
M  V30 425 H 42.2978 3.45216 -2.4167 0
M  V30 426 H 40.9728 2.95068 -1.33103 0
M  V30 427 H 39.8798 1.7442 -3.30951 0
M  V30 428 H 41.2128 2.31222 -4.34508 0
M  V30 429 N 42.8649 1.48995 0.513639 0
M  V30 430 C 44.0899 1.61792 1.29762 0
M  V30 431 C 44.5149 0.284475 1.85936 0
M  V30 432 O 43.8729 -0.746185 1.65232 0
M  V30 433 C 43.9209 2.67993 2.41272 0
M  V30 434 O 43.0249 2.26287 3.44772 0
M  V30 435 H 42.3659 0.541963 0.38363 0
M  V30 436 H 44.8959 1.95097 0.616307 0
M  V30 437 H 44.9059 2.89772 2.87221 0
M  V30 438 H 43.5809 3.64791 1.9975 0
M  V30 439 H 42.1579 2.14788 3.04829 0
M  V30 440 N 44.343 -0.763751 1.37857 0
M  V30 441 C 45.592 -1.51789 1.32827 0
M  V30 442 C 45.905 -1.95426 -0.0823719 0
M  V30 443 O 47.111 -2.70298 -0.255172 0
M  V30 444 C 45.567 -2.74133 2.33193 0
M  V30 445 C 45.175 -2.37562 3.79827 0
M  V30 446 C 46.919 -3.52054 2.37188 0
M  V30 447 C 44.826 -3.56456 4.71904 0
M  V30 448 H 43.756 -0.569896 0.493695 0
M  V30 449 H 46.407 -0.835822 1.63359 0
M  V30 450 H 44.789 -3.4427 1.9569 0
M  V30 451 H 45.963 -1.75157 4.26212 0
M  V30 452 H 44.278 -1.72798 3.78853 0
M  V30 453 H 46.875 -4.40437 3.03182 0
M  V30 454 H 47.218 -3.92486 1.38782 0
M  V30 455 H 47.751 -2.88921 2.7344 0
M  V30 456 H 44.49 -3.21099 5.71468 0
M  V30 457 H 44.01 -4.17938 4.30218 0
M  V30 458 H 45.689 -4.23168 4.89426 0
M  V30 459 N 45.8211 -1.22559 -0.990812 0
M  V30 460 C 47.0671 -1.05297 -1.73322 0
M  V30 461 C 47.4001 0.410655 -1.89808 0
M  V30 462 O 46.6751 1.30439 -1.44277 0
M  V30 463 C 46.9581 -1.76713 -3.13759 0
M  V30 464 C 46.8111 -3.30684 -3.04907 0
M  V30 465 C 48.1301 -1.52121 -4.12974 0
M  V30 466 H 45.2491 -0.38392 -0.629106 0
M  V30 467 H 47.8911 -1.50926 -1.15418 0
M  V30 468 H 46.0411 -1.37924 -3.63193 0
M  V30 469 H 47.7131 -3.7893 -2.63077 0
M  V30 470 H 45.9561 -3.60253 -2.41661 0
M  V30 471 H 46.6271 -3.75833 -4.04294 0
M  V30 472 H 49.1031 -1.85819 -3.72304 0
M  V30 473 H 47.9791 -2.04582 -5.0935 0
M  V30 474 H 48.2401 -0.454257 -4.3976 0
M  V30 475 N 47.2992 1.18797 -1.03562 0
M  V30 476 C 48.5762 1.84469 -0.650434 0
M  V30 477 C 48.9562 1.92319 0.870433 0
M  V30 478 O 48.3042 1.44528 1.76986 0
M  V30 479 C 48.5142 3.2306 -1.32036 0
M  V30 480 C 49.8622 3.9915 -1.44792 0
M  V30 481 O 50.8862 3.32481 -1.27806 0
M  V30 482 O 49.7452 5.18587 -1.72423 0
M  V30 483 H 46.8392 0.795251 -0.226946 0
M  V30 484 H 49.3852 1.26231 -1.13419 0
M  V30 485 H 48.1572 3.1222 -2.3587 0
M  V30 486 H 47.7802 3.88949 -0.8249 0
M  V30 487 N 48.7773 0.814389 1.34928 0
M  V30 488 C 49.7073 0.244827 2.32213 0
M  V30 489 C 50.6883 -0.634024 1.57842 0
M  V30 490 O 51.8733 -0.562676 1.8587 0
M  V30 491 C 49.0033 -0.601106 3.42058 0
M  V30 492 C 47.9573 0.179896 4.27622 0
M  V30 493 C 47.2833 -0.788237 5.28858 0
M  V30 494 C 48.5833 1.38329 5.03649 0
M  V30 495 H 50.2773 1.05763 2.80097 0
M  V30 496 H 47.8233 0.510029 1.34665 0
M  V30 497 H 49.7763 -1.00968 4.09125 0
M  V30 498 H 48.5003 -1.44688 2.92802 0
M  V30 499 H 47.1593 0.569739 3.62146 0
M  V30 500 H 46.8073 -1.62973 4.75866 0
M  V30 501 H 46.5073 -0.269942 5.8698 0
M  V30 502 H 48.0313 -1.19485 5.98795 0
M  V30 503 H 49.4453 1.04918 5.63618 0
M  V30 504 H 47.8423 1.83662 5.71304 0
M  V30 505 H 48.9123 2.16592 4.33839 0
M  V30 506 N 50.2554 -1.46986 0.568584 0
M  V30 507 C 51.2034 -2.31858 -0.185649 0
M  V30 508 C 52.1974 -1.43624 -0.898249 0
M  V30 509 O 53.4034 -1.60327 -0.818242 0
M  V30 510 H 49.7784 -0.747866 -0.0787399 0
M  V30 511 H 51.7494 -2.93303 0.549191 0
M  V30 512 C 50.4984 -3.26513 -1.19519 0
M  V30 513 H 49.8214 -3.94377 -0.656285 0
M  V30 514 H 51.2614 -3.88707 -1.6936 0
M  V30 515 C 49.7204 -2.50847 -2.24894 0
M  V30 516 O 50.2504 -2.26119 -3.32014 0
M  V30 517 N 48.4564 -2.11656 -1.99124 0
M  V30 518 H 48.0034 -2.31966 -1.12024 0
M  V30 519 H 47.9614 -1.61347 -2.69842 0
M  V30 520 N 51.7335 -0.305618 -1.54608 0
M  V30 521 C 53.0105 0.355652 -1.92339 0
M  V30 522 C 53.3905 1.71324 -1.23335 0
M  V30 523 O 52.7385 2.25473 -0.370702 0
M  V30 524 C 52.9485 0.46572 -3.45879 0
M  V30 525 C 54.2965 0.734426 -4.182 0
M  V30 526 O 55.3205 0.54935 -3.51938 0
M  V30 527 O 54.1795 1.09024 -5.35515 0
M  V30 528 H 51.2735 0.199666 -0.802535 0
M  V30 529 H 53.8195 -0.354017 -1.65966 0
M  V30 530 H 52.5915 -0.488461 -3.88239 0
M  V30 531 H 52.2145 1.22367 -3.78301 0
M  V30 532 N 53.2116 1.57565 -0.0334293 0
M  V30 533 C 54.4606 1.91155 0.643639 0
M  V30 534 C 54.7736 0.91192 1.73042 0
M  V30 535 O 55.9796 1.13923 2.46442 0
M  V30 536 C 54.4356 3.39443 1.1961 0
M  V30 537 C 54.0436 4.47774 0.142381 0
M  V30 538 C 55.7876 3.82094 1.84944 0
M  V30 539 C 53.6946 5.87162 0.706727 0
M  V30 540 H 52.6246 0.713368 0.244176 0
M  V30 541 H 55.2756 1.8323 -0.0994323 0
M  V30 542 H 53.6576 3.42313 1.99092 0
M  V30 543 H 54.8316 4.56469 -0.630296 0
M  V30 544 H 53.1466 4.14352 -0.412446 0
M  V30 545 H 55.7436 4.83591 2.2813 0
M  V30 546 H 56.0866 3.17386 2.69392 0
M  V30 547 H 56.6196 3.81665 1.12145 0
M  V30 548 H 53.3586 6.55424 -0.0997178 0
M  V30 549 H 52.8786 5.82064 1.44779 0
M  V30 550 H 54.5576 6.35866 1.19514 0
M  V30 551 N 54.6897 -0.239769 1.55765 0
M  V30 552 C 55.6527 -1.28038 1.90103 0
M  V30 553 C 56.6527 -1.40723 0.778055 0
M  V30 554 O 57.8427 -1.39301 1.04599 0
M  V30 555 C 54.9747 -2.65702 2.13577 0
M  V30 556 H 56.1677 -0.988048 2.83157 0
M  V30 557 H 53.7207 -0.479382 1.48767 0
M  V30 558 H 54.4557 -3.00063 1.23015 0
M  V30 559 H 54.2407 -2.57875 2.95369 0
M  V30 560 H 55.7307 -3.40828 2.41301 0
M  V30 561 N 56.1678 -1.49265 -0.50573 0
M  V30 562 C 57.1158 -1.66065 -1.62866 0
M  V30 563 C 58.1098 -0.526636 -1.61006 0
M  V30 564 O 59.3158 -0.706126 -1.65571 0
M  V30 565 H 55.6908 -0.52356 -0.539805 0
M  V30 566 H 57.6618 -2.60329 -1.45848 0
M  V30 567 C 56.4108 -1.74008 -3.01026 0
M  V30 568 H 55.7338 -2.6064 -3.03161 0
M  V30 569 H 57.1738 -1.89798 -3.79147 0
M  V30 570 C 55.6328 -0.483868 -3.33407 0
M  V30 571 O 56.1628 0.392548 -3.99777 0
M  V30 572 N 54.3688 -0.348236 -2.88506 0
M  V30 573 H 53.9158 -1.06242 -2.34671 0
M  V30 574 H 53.8738 0.491204 -3.10539 0
M  V30 575 N 57.6459 0.756429 -1.3826 0
M  V30 576 C 58.6089 1.85176 -1.35065 0
M  V30 577 C 59.6089 1.58818 -0.251703 0
M  V30 578 O 60.7989 1.66615 -0.508433 0
M  V30 579 C 57.9309 3.22596 -1.10201 0
M  V30 580 H 59.1239 1.89417 -2.3251 0
M  V30 581 H 56.6769 0.95783 -1.23512 0
M  V30 582 H 57.4119 3.24025 -0.133504 0
M  V30 583 H 57.1969 3.43122 -1.89762 0
M  V30 584 H 58.6869 4.02673 -1.10654 0
M  V30 585 N 59.124 1.23083 0.984299 0
M  V30 586 C 60.401 0.9689 1.69917 0
M  V30 587 C 60.781 -0.513604 2.04757 0
M  V30 588 O 60.129 -1.48383 1.73767 0
M  V30 589 C 60.339 1.87518 2.94343 0
M  V30 590 C 61.687 2.13636 3.6694 0
M  V30 591 O 62.711 1.85036 3.04368 0
M  V30 592 O 61.57 2.62119 4.79537 0
M  V30 593 H 58.664 0.365095 0.742048 0
M  V30 594 H 61.21 1.34107 1.03987 0
M  V30 595 H 59.982 2.87756 2.65164 0
M  V30 596 H 59.605 1.50514 3.6801 0
M  V30 597 N 60.6021 -1.18246 1.0419 0
M  V30 598 C 61.5651 -2.20128 0.638452 0
M  V30 599 C 62.5651 -1.57885 -0.304805 0
M  V30 600 O 63.7551 -1.73967 -0.0900369 0
M  V30 601 C 60.8871 -3.4084 -0.0637751 0
M  V30 602 H 62.0801 -2.57336 1.54007 0
M  V30 603 H 59.6331 -1.32152 0.834598 0
M  V30 604 H 60.3681 -3.09166 -0.979136 0
M  V30 605 H 60.1531 -3.8726 0.614198 0
M  V30 606 H 61.6431 -4.16274 -0.332512 0
M  V30 607 N 62.0802 -0.821533 -1.34494 0
M  V30 608 C 63.3052 -0.420873 -2.03085 0
M  V30 609 C 63.7302 0.964915 -1.61465 0
M  V30 610 O 63.0882 1.62763 -0.798607 0
M  V30 611 C 63.1362 -0.529414 -3.56693 0
M  V30 612 O 62.2402 0.451302 -4.09923 0
M  V30 613 H 61.5812 -0.173489 -0.640935 0
M  V30 614 H 64.1112 -1.11157 -1.71771 0
M  V30 615 H 64.1212 -0.404671 -4.05988 0
M  V30 616 H 62.7962 -1.54014 -3.86332 0
M  V30 617 H 61.3732 0.285558 -3.71805 0
M  V30 618 N 63.5583 1.46682 -0.576371 0
M  V30 619 C 64.8353 1.95599 0.00703437 0
M  V30 620 C 65.2153 1.51904 1.46589 0
M  V30 621 O 64.5633 0.766755 2.15251 0
M  V30 622 C 64.7733 3.4864 -0.158404 0
M  V30 623 C 66.1213 4.24594 -0.0229439 0
M  V30 624 O 67.1453 3.56094 -0.0869173 0
M  V30 625 O 66.0043 5.46373 0.118015 0
M  V30 626 H 63.0983 0.825275 0.053384 0
M  V30 627 H 65.6443 1.56996 -0.644244 0
M  V30 628 H 64.4163 3.7331 -1.17282 0
M  V30 629 H 64.0393 3.94057 0.5296 0
M  V30 630 N 65.0364 0.313813 1.54444 0
M  V30 631 C 65.9664 -0.549454 2.26943 0
M  V30 632 C 66.9474 -1.12741 1.27372 0
M  V30 633 O 68.1324 -1.15436 1.56167 0
M  V30 634 C 65.2624 -1.71523 3.01989 0
M  V30 635 C 64.2164 -1.26703 4.08816 0
M  V30 636 C 63.5424 -2.51898 4.71647 0
M  V30 637 C 64.8424 -0.388962 5.2085 0
M  V30 638 H 66.5364 0.0552661 2.99349 0
M  V30 639 H 64.0824 0.0280207 1.43973 0
M  V30 640 H 66.0354 -2.32535 3.51433 0
M  V30 641 H 64.7594 -2.34639 2.27183 0
M  V30 642 H 63.4184 -0.679896 3.6024 0
M  V30 643 H 63.0664 -3.13356 3.93468 0
M  V30 644 H 62.7664 -2.22605 5.43802 0
M  V30 645 H 64.2904 -3.1369 5.23861 0
M  V30 646 H 65.7044 -0.905107 5.6611 0
M  V30 647 H 64.1014 -0.18924 5.99802 0
M  V30 648 H 65.1714 0.582699 4.81386 0
M  V30 649 N 66.5145 -1.57545 0.0417849 0
M  V30 650 C 67.4625 -2.12148 -0.953723 0
M  V30 651 C 68.4565 -1.05104 -1.32852 0
M  V30 652 O 69.6625 -1.23524 -1.30927 0
M  V30 653 H 66.0375 -0.677957 -0.325389 0
M  V30 654 H 68.0085 -2.94707 -0.467991 0
M  V30 655 C 66.7575 -2.6739 -2.22257 0
M  V30 656 H 66.0805 -3.49413 -1.94295 0
M  V30 657 H 67.5205 -3.09227 -2.90094 0
M  V30 658 C 65.9795 -1.60723 -2.96091 0
M  V30 659 O 66.5095 -1.01449 -3.88679 0
M  V30 660 N 64.7155 -1.32466 -2.58652 0
M  V30 661 H 64.2625 -1.80856 -1.83437 0
M  V30 662 H 64.2205 -0.61325 -3.08361 0
M  V30 663 N 67.9926 0.231505 -1.5589 0
M  V30 664 C 68.9556 1.27028 -1.90779 0
M  V30 665 C 69.9556 1.40308 -0.785507 0
M  V30 666 O 71.1456 1.38744 -1.05336 0
M  V30 667 C 68.2776 2.64566 -2.14983 0
M  V30 668 H 69.4706 0.973017 -2.83677 0
M  V30 669 H 67.0236 0.471486 -1.49019 0
M  V30 670 H 67.7586 2.99406 -1.24604 0
M  V30 671 H 67.5436 2.56305 -2.96732 0
M  V30 672 H 69.0336 3.39543 -2.43105 0
M  V30 673 N 69.4707 1.49531 0.497807 0
M  V30 674 C 70.7007 1.62657 1.27382 0
M  V30 675 C 71.1087 0.298488 1.86831 0
M  V30 676 O 70.4517 -0.72647 1.68725 0
M  V30 677 C 70.5137 2.6393 2.44093 0
M  V30 678 C 70.1777 4.08195 2.05489 0
M  V30 679 C 71.1747 4.949 1.59279 0
M  V30 680 C 68.8597 4.53948 2.15026 0
M  V30 681 C 70.8537 6.25397 1.23113 0
M  V30 682 C 68.5407 5.84458 1.78473 0
M  V30 683 C 69.5387 6.70006 1.32591 0
M  V30 684 O 69.2267 7.98083 0.965327 0
M  V30 685 H 68.9587 0.550429 0.392434 0
M  V30 686 H 71.5127 1.96325 0.603801 0
M  V30 687 H 69.7427 2.25449 3.14181 0
M  V30 688 H 71.4317 2.66552 3.06113 0
M  V30 689 H 72.1977 4.60779 1.51354 0
M  V30 690 H 68.0767 3.87525 2.4969 0
M  V30 691 H 71.6207 6.92125 0.872299 0
M  V30 692 H 67.5177 6.18107 1.86048 0
M  V30 693 H 68.2857 8.11122 1.09652 0
M  V30 694 N 70.9488 -0.749086 1.3866 0
M  V30 695 C 72.2258 -1.4992 1.25632 0
M  V30 696 C 72.6058 -2.10633 -0.140317 0
M  V30 697 O 71.9538 -1.97437 -1.15025 0
M  V30 698 C 72.1638 -2.56195 2.36992 0
M  V30 699 C 73.5118 -3.22972 2.75634 0
M  V30 700 O 74.5358 -2.66502 2.36337 0
M  V30 701 O 73.3948 -4.25122 3.43415 0
M  V30 702 H 70.4888 -0.665067 0.491544 0
M  V30 703 H 73.0348 -0.784113 1.50498 0
M  V30 704 H 71.8068 -2.09612 3.30422 0
M  V30 705 H 71.4298 -3.35279 2.13714 0
M  V30 706 N 72.4269 -1.23603 -0.977757 0
M  V30 707 C 73.6569 -1.09487 -1.75203 0
M  V30 708 C 74.0649 0.356321 -1.85814 0
M  V30 709 O 73.4079 1.25816 -1.33851 0
M  V30 710 C 73.4699 -1.64905 -3.19447 0
M  V30 711 C 73.1339 -3.13688 -3.32338 0
M  V30 712 C 74.1309 -4.10953 -3.18455 0
M  V30 713 C 71.8159 -3.53449 -3.56902 0
M  V30 714 C 73.8099 -5.45962 -3.28944 0
M  V30 715 C 71.4969 -4.88602 -3.6703 0
M  V30 716 C 72.4949 -5.84668 -3.53062 0
M  V30 717 O 72.1829 -7.17365 -3.62826 0
M  V30 718 H 71.9149 -0.38367 -0.556573 0
M  V30 719 H 74.4689 -1.6398 -1.23693 0
M  V30 720 H 72.6989 -1.04835 -3.72218 0
M  V30 721 H 74.3879 -1.46226 -3.78646 0
M  V30 722 H 75.1539 -3.81577 -2.99372 0
M  V30 723 H 71.0329 -2.79188 -3.66844 0
M  V30 724 H 74.5769 -6.20925 -3.17958 0
M  V30 725 H 70.4739 -5.17653 -3.85623 0
M  V30 726 H 71.2419 -7.2515 -3.79605 0
M  V30 727 N 73.905 1.17692 -1.04816 0
M  V30 728 C 74.835 2.23777 -0.666791 0
M  V30 729 C 75.816 1.66796 0.33361 0
M  V30 730 O 77.001 1.93039 0.212042 0
M  V30 731 C 74.131 3.47281 -0.0367933 0
M  V30 732 C 73.085 4.17059 -0.961546 0
M  V30 733 C 72.411 5.34342 -0.195626 0
M  V30 734 C 73.711 4.69713 -2.28402 0
M  V30 735 H 75.405 2.55933 -1.55367 0
M  V30 736 H 72.951 1.23019 -0.748484 0
M  V30 737 H 74.904 4.20706 0.241775 0
M  V30 738 H 73.628 3.14381 0.885004 0
M  V30 739 H 72.287 3.45541 -1.22462 0
M  V30 740 H 71.935 4.97692 0.728816 0
M  V30 741 H 71.635 5.81966 -0.811775 0
M  V30 742 H 73.159 6.10553 0.0757473 0
M  V30 743 H 74.573 5.34794 -2.06563 0
M  V30 744 H 72.97 5.279 -2.8538 0
M  V30 745 H 74.04 3.86726 -2.92525 0
M  V30 746 N 75.3831 0.828654 1.34056 0
M  V30 747 C 76.6321 0.415828 1.97367 0
M  V30 748 C 76.9451 -1.02796 1.6641 0
M  V30 749 O 78.1511 -1.54497 2.23255 0
M  V30 750 C 76.6071 0.692601 3.53173 0
M  V30 751 C 76.2151 2.15038 3.93017 0
M  V30 752 C 77.9591 0.346222 4.23086 0
M  V30 753 C 75.8661 2.37174 5.41758 0
M  V30 754 H 74.7961 0.151755 0.738571 0
M  V30 755 H 77.4471 1.01581 1.52819 0
M  V30 756 H 75.8291 0.0223764 3.95994 0
M  V30 757 H 77.0031 2.86024 3.61285 0
M  V30 758 H 75.3181 2.45875 3.36057 0
M  V30 759 H 77.9151 0.48937 5.32456 0
M  V30 760 H 78.2581 -0.709842 4.10204 0
M  V30 761 H 78.7911 0.971258 3.85761 0
M  V30 762 H 75.5301 3.41308 5.59633 0
M  V30 763 H 75.0501 1.70738 5.74986 0
M  V30 764 H 76.7291 2.19818 6.08514 0
M  V30 765 N 76.8612 -1.46375 0.584142 0
M  V30 766 C 78.1102 -2.01585 0.0679741 0
M  V30 767 C 78.4232 -1.46109 -1.30045 0
M  V30 768 O 79.6292 -1.93148 -1.90804 0
M  V30 769 C 78.0852 -3.5983 0.0709207 0
M  V30 770 C 77.6932 -4.24303 1.43775 0
M  V30 771 C 79.4372 -4.22693 -0.391228 0
M  V30 772 C 77.3442 -5.74631 1.39834 0
M  V30 773 H 76.2742 -0.753689 0.0216421 0
M  V30 774 H 78.9252 -1.68093 0.736001 0
M  V30 775 H 77.3072 -3.90405 -0.663299 0
M  V30 776 H 78.4812 -4.05335 2.19181 0
M  V30 777 H 76.7962 -3.73539 1.84004 0
M  V30 778 H 79.3932 -5.3289 -0.439524 0
M  V30 779 H 79.7362 -3.91728 -1.40906 0
M  V30 780 H 80.2692 -3.96749 0.288974 0
M  V30 781 H 77.0082 -6.10258 2.39303 0
M  V30 782 H 76.5282 -5.95858 0.686505 0
M  V30 783 H 78.2072 -6.37375 1.11187 0
M  V30 784 N 78.3393 -0.321999 -1.54275 0
M  V30 785 C 79.5873 0.280489 -2.00144 0
M  V30 786 C 79.9083 1.52777 -1.21178 0
M  V30 787 O 79.1783 1.9338 -0.313187 0
M  V30 788 H 77.7583 0.106632 -0.73935 0
M  V30 789 H 80.4203 -0.438184 -1.8991 0
M  V30 790 H 79.5163 0.537972 -3.07428 0
M  V30 791 N 79.8174 1.5752 -0.0501392 0
M  V30 792 C 81.0574 1.94521 0.627783 0
M  V30 793 C 81.4214 0.928265 1.68069 0
M  V30 794 O 82.6224 1.18517 2.41261 0
M  V30 795 C 80.8934 3.36319 1.20932 0
M  V30 796 S 82.4524 3.95272 1.90539 0
M  V30 797 H 79.2704 0.680456 0.206158 0
M  V30 798 H 81.8724 1.95139 -0.118829 0
M  V30 799 H 80.5764 4.08132 0.430865 0
M  V30 800 H 80.1074 3.39193 1.99277 0
M  V30 801 H 82.1224 3.80415 3.18589 0
M  V30 802 N 81.2955 -0.223234 1.56011 0
M  V30 803 C 82.7065 -0.790368 1.69145 0
M  V30 804 C 83.0575 -1.85055 0.651845 0
M  V30 805 O 82.1825 -2.15498 -0.197359 0
M  V30 806 C 82.7775 -1.4404 3.06656 0
M  V30 807 C 81.3365 -1.95494 3.2165 0
M  V30 808 C 80.4835 -0.814506 2.65068 0
M  V30 809 H 83.4345 0.00139011 1.587 0
M  V30 810 H 83.4555 -2.30916 3.0242 0
M  V30 811 H 82.9675 -0.668543 3.82298 0
M  V30 812 H 81.0685 -2.75487 2.50874 0
M  V30 813 H 81.1815 -2.13607 4.28846 0
M  V30 814 H 79.5455 -1.22137 2.23505 0
M  V30 815 H 80.3285 -0.0553515 3.43255 0
M  V30 816 N 82.7736 -1.49793 -0.48987 0
M  V30 817 C 84.0016 -1.63568 -1.26701 0
M  V30 818 C 84.4166 -0.311465 -1.86213 0
M  V30 819 O 83.7736 0.704416 -1.68357 0
M  V30 820 C 83.8246 -2.71284 -2.38929 0
M  V30 821 O 83.5456 -3.9857 -1.81861 0
M  V30 822 C 85.0466 -2.95864 -3.3012 0
M  V30 823 H 82.2666 -0.550342 -0.383881 0
M  V30 824 H 84.8106 -1.95898 -0.586864 0
M  V30 825 H 82.9656 -2.417 -3.02753 0
M  V30 826 H 83.3796 -4.57993 -2.55622 0
M  V30 827 H 84.8536 -3.74941 -4.05121 0
M  V30 828 H 85.3306 -2.06206 -3.87783 0
M  V30 829 H 85.9366 -3.26907 -2.72051 0
M  V30 830 N 84.2517 0.741722 -1.39055 0
M  V30 831 C 85.4977 1.50234 -1.37118 0
M  V30 832 C 85.8527 1.92368 0.0350439 0
M  V30 833 O 85.1457 1.63422 1.00019 0
M  V30 834 C 85.3397 2.7592 -2.27163 0
M  V30 835 C 85.1687 2.46074 -3.76401 0
M  V30 836 C 83.9387 2.38704 -4.45364 0
M  V30 837 C 86.1367 2.12062 -4.68545 0
M  V30 838 N 84.1187 2.01258 -5.79973 0
M  V30 839 C 85.4897 1.85005 -5.91754 0
M  V30 840 C 87.5447 1.98473 -4.56632 0
M  V30 841 C 86.2477 1.4573 -7.04383 0
M  V30 842 C 88.2737 1.60599 -5.69176 0
M  V30 843 C 87.6357 1.34423 -6.91455 0
M  V30 844 H 83.7347 0.548858 -0.557027 0
M  V30 845 H 86.3187 0.862642 -1.74547 0
M  V30 846 H 84.4897 3.3768 -1.91904 0
M  V30 847 H 86.2217 3.42068 -2.16267 0
M  V30 848 H 82.9767 2.55574 -3.98721 0
M  V30 849 H 83.4007 1.85147 -6.51191 0
M  V30 850 H 88.0427 2.17381 -3.62637 0
M  V30 851 H 85.7607 1.25562 -7.98286 0
M  V30 852 H 89.3467 1.507 -5.61944 0
M  V30 853 H 88.2267 1.05555 -7.77064 0
M  V30 854 N 85.7298 1.2412 0.971189 0
M  V30 855 C 86.6778 1.02812 2.08644 0
M  V30 856 C 87.6718 -0.0358403 1.69362 0
M  V30 857 O 88.8778 0.118429 1.7961 0
M  V30 858 H 85.2528 0.315428 0.682649 0
M  V30 859 H 87.2238 1.97397 2.23779 0
M  V30 860 C 85.9728 0.645874 3.41649 0
M  V30 861 H 85.2958 1.45632 3.72332 0
M  V30 862 H 86.7358 0.536366 4.20594 0
M  V30 863 C 85.1948 -0.646713 3.30635 0
M  V30 864 O 85.7248 -1.69338 3.64263 0
M  V30 865 N 83.9308 -0.626115 2.83775 0
M  V30 866 H 83.4778 0.225988 2.56607 0
M  V30 867 H 83.4358 -1.49117 2.76788 0
M  V30 868 N 87.2079 -1.17134 1.05439 0
M  V30 869 C 88.4539 -1.87733 0.767077 0
M  V30 870 C 88.7869 -1.8098 -0.704253 0
M  V30 871 O 88.0619 -1.21951 -1.5152 0
M  V30 872 C 88.3449 -3.37659 1.25133 0
M  V30 873 C 88.1979 -3.53149 2.78578 0
M  V30 874 C 89.5169 -4.31768 0.852324 0
M  V30 875 H 86.6359 -0.681687 0.280129 0
M  V30 876 H 89.2779 -1.37732 1.30881 0
M  V30 877 H 87.4279 -3.80373 0.790469 0
M  V30 878 H 89.0999 -3.19434 3.32806 0
M  V30 879 H 87.3429 -2.95345 3.17732 0
M  V30 880 H 88.0139 -4.58403 3.07523 0
M  V30 881 H 90.4899 -3.96909 1.24911 0
M  V30 882 H 89.3659 -5.35199 1.21873 0
M  V30 883 H 89.6269 -4.41429 -0.243485 0
M  V30 884 N 88.686 -0.835752 -1.33615 0
M  V30 885 C 89.934 -0.429109 -1.97492 0
M  V30 886 C 90.255 1.01433 -1.66543 0
M  V30 887 O 89.525 1.70611 -0.962744 0
M  V30 888 H 88.105 -0.155686 -0.730596 0
M  V30 889 H 90.767 -1.06802 -1.63031 0
M  V30 890 H 89.863 -0.55861 -3.0706 0
M  V30 891 N 90.1641 1.46063 -0.591896 0
M  V30 892 C 91.0741 2.34192 0.13831 0
M  V30 893 C 92.0901 1.50305 0.876608 0
M  V30 894 O 93.2661 1.8315 0.837728 0
M  V30 895 C 90.3311 3.27656 1.13326 0
M  V30 896 C 89.3921 4.27445 0.39863 0
M  V30 897 C 88.6251 5.16443 1.34618 0
M  V30 898 O 88.8481 5.08553 2.58321 0
M  V30 899 O 87.7821 5.95843 0.851768 0
M  V30 900 H 91.6081 2.98002 -0.58552 0
M  V30 901 H 89.1931 1.45188 -0.352239 0
M  V30 902 H 91.0751 3.85291 1.70671 0
M  V30 903 H 89.7501 2.6643 1.83839 0
M  V30 904 H 88.6571 3.73471 -0.216895 0
M  V30 905 H 89.9901 4.91482 -0.265709 0
M  V30 906 N 91.6422 0.330177 1.54103 0
M  V30 907 C 92.5722 -0.525353 2.27513 0
M  V30 908 C 93.5532 -1.11383 1.2856 0
M  V30 909 O 94.7382 -1.13773 1.57383 0
M  V30 910 C 91.8682 -1.6831 3.03791 0
M  V30 911 C 90.8222 -1.2236 4.10137 0
M  V30 912 C 90.1482 -2.46882 4.74293 0
M  V30 913 C 91.4482 -0.333697 5.21233 0
M  V30 914 H 93.1422 0.087013 2.99274 0
M  V30 915 H 90.6882 0.0432893 1.43935 0
M  V30 916 H 92.6412 -2.28795 3.5388 0
M  V30 917 H 91.3652 -2.32216 2.29659 0
M  V30 918 H 90.0242 -0.64165 3.60941 0
M  V30 919 H 89.6722 -3.09165 3.96769 0
M  V30 920 H 89.3722 -2.16825 5.46133 0
M  V30 921 H 90.8962 -3.08117 5.27159 0
M  V30 922 H 92.3102 -0.845013 5.67038 0
M  V30 923 H 90.7072 -0.125612 5.99969 0
M  V30 924 H 91.7772 0.633724 4.80741 0
M  V30 925 N 93.1203 -1.57491 0.0584922 0
M  V30 926 C 94.0523 -2.08916 -0.942694 0
M  V30 927 C 95.0653 -1.0185 -1.27006 0
M  V30 928 O 96.2543 -1.29398 -1.22957 0
M  V30 929 C 93.3543 -2.52341 -2.26224 0
M  V30 930 C 92.5273 -3.82827 -2.1157 0
M  V30 931 C 91.5863 -4.12487 -3.26712 0
M  V30 932 O 90.6123 -4.82295 -3.02292 0
M  V30 933 N 91.8143 -3.64978 -4.5141 0
M  V30 934 H 94.5793 -2.95437 -0.503722 0
M  V30 935 H 92.1403 -1.61397 -0.12757 0
M  V30 936 H 94.1323 -2.69254 -3.02133 0
M  V30 937 H 92.7023 -1.7103 -2.61663 0
M  V30 938 H 91.9223 -3.75425 -1.20208 0
M  V30 939 H 93.2103 -4.68263 -1.99015 0
M  V30 940 H 92.6083 -3.08558 -4.7414 0
M  V30 941 H 91.1653 -3.87115 -5.2439 0
M  V30 942 N 94.5984 0.214957 -1.56127 0
M  V30 943 C 95.8234 0.95924 -1.83884 0
M  V30 944 C 96.2484 1.7689 -0.639644 0
M  V30 945 O 95.6064 1.76566 0.411601 0
M  V30 946 C 95.6544 1.84723 -3.09693 0
M  V30 947 O 94.7584 2.94346 -2.8885 0
M  V30 948 H 94.0994 0.27125 -0.606069 0
M  V30 949 H 96.6294 0.226276 -2.03345 0
M  V30 950 H 96.6394 2.25576 -3.39969 0
M  V30 951 H 95.3144 1.25218 -3.96602 0
M  V30 952 H 93.8914 2.57391 -2.69823 0
M  V30 953 N 96.0765 1.50051 0.48192 0
M  V30 954 C 97.3535 1.51009 1.2432 0
M  V30 955 C 97.7335 0.248587 2.09631 0
M  V30 956 O 97.0815 -0.768409 2.15192 0
M  V30 957 C 97.2915 2.79981 2.08355 0
M  V30 958 C 98.6395 3.3022 2.66908 0
M  V30 959 O 99.6635 2.81228 2.18607 0
M  V30 960 O 98.5225 4.15595 3.54884 0
M  V30 961 H 95.6165 0.605239 0.563573 0
M  V30 962 H 98.1625 1.62332 0.494627 0
M  V30 963 H 96.9345 3.63275 1.45419 0
M  V30 964 H 96.5575 2.7161 2.90368 0
M  V30 965 N 97.5546 -0.734337 1.39446 0
M  V30 966 C 98.8006 -1.49505 1.37913 0
M  V30 967 C 99.1556 -1.92384 -0.0248416 0
M  V30 968 O 98.4486 -1.6395 -0.991506 0
M  V30 969 C 98.6426 -2.74711 2.28623 0
M  V30 970 C 98.4716 -2.44075 3.777 0
M  V30 971 C 97.2416 -2.36338 4.46623 0
M  V30 972 C 99.4396 -2.09574 4.69663 0
M  V30 973 N 97.4216 -1.9818 5.81032 0
M  V30 974 C 98.7926 -1.81865 5.92727 0
M  V30 975 C 100.848 -1.96048 4.57678 0
M  V30 976 C 99.5506 -1.41992 7.05146 0
M  V30 977 C 101.577 -1.57579 5.7002 0
M  V30 978 C 100.939 -1.30754 6.92158 0
M  V30 979 H 97.0376 -0.545896 0.55993 0
M  V30 980 H 99.6216 -0.853373 1.75002 0
M  V30 981 H 97.7926 -3.36657 1.93692 0
M  V30 982 H 99.5246 -3.40916 2.18078 0
M  V30 983 H 96.2796 -2.53456 4.00071 0
M  V30 984 H 96.7036 -1.81691 6.52163 0
M  V30 985 H 101.346 -2.15455 3.63784 0
M  V30 986 H 99.0636 -1.21327 7.9894 0
M  V30 987 H 102.65 -1.47718 5.62735 0
M  V30 988 H 101.53 -1.01432 7.77612 0
M  V30 989 N 99.0327 -1.24633 -0.964593 0
M  V30 990 C 99.9427 -1.05859 -2.09359 0
M  V30 991 C 100.959 0.00148855 -1.74 0
M  V30 992 O 102.135 -0.197346 -2.00431 0
M  V30 993 C 99.1997 -0.668879 -3.40187 0
M  V30 994 C 98.2607 -1.80578 -3.89474 0
M  V30 995 C 97.4937 -1.43457 -5.14058 0
M  V30 996 O 97.7167 -0.325775 -5.69469 0
M  V30 997 O 96.6507 -2.2613 -5.57807 0
M  V30 998 H 100.477 -2.00516 -2.28094 0
M  V30 999 H 98.0617 -1.03481 -1.0776 0
M  V30 1000 H 99.9437 -0.463211 -4.18846 0
M  V30 1001 H 98.6187 0.248536 -3.22744 0
M  V30 1002 H 97.5257 -2.06623 -3.11862 0
M  V30 1003 H 98.8587 -2.70208 -4.11398 0
M  V30 1004 N 100.511 1.16574 -1.06058 0
M  V30 1005 C 101.759 1.86677 -0.77434 0
M  V30 1006 C 102.08 1.81959 0.701147 0
M  V30 1007 O 101.35 1.2515 1.50713 0
M  V30 1008 H 99.9298 0.691134 -0.283449 0
M  V30 1009 H 102.592 1.41378 -1.34158 0
M  V30 1010 H 101.688 2.92181 -1.09711 0
M  V30 1011 N 101.989 0.842826 1.3317 0
M  V30 1012 C 103.238 0.436738 1.96915 0
M  V30 1013 C 103.551 -1.01025 1.67491 0
M  V30 1014 O 104.757 -1.5212 2.24881 0
M  V30 1015 C 103.213 0.730021 3.52418 0
M  V30 1016 C 102.821 2.19195 3.90714 0
M  V30 1017 C 104.565 0.391076 4.22695 0
M  V30 1018 C 102.472 2.42907 5.39212 0
M  V30 1019 H 101.402 0.15958 0.736919 0
M  V30 1020 H 104.053 1.03196 1.51733 0
M  V30 1021 H 102.435 0.0643755 3.95948 0
M  V30 1022 H 103.609 2.8984 3.58231 0
M  V30 1023 H 101.924 2.49425 3.33431 0
M  V30 1024 H 104.521 0.545817 5.31907 0
M  V30 1025 H 104.864 -0.666294 4.10933 0
M  V30 1026 H 105.397 1.01212 3.84709 0
M  V30 1027 H 102.136 3.47224 5.55982 0
M  V30 1028 H 101.656 1.76827 5.73142 0
M  V30 1029 H 103.335 2.2626 6.06148 0
M  V30 1030 N 103.467 -1.45747 0.599634 0
M  V30 1031 C 104.697 -2.06369 0.0977132 0
M  V30 1032 C 105.105 -1.44624 -1.21985 0
M  V30 1033 O 104.448 -0.551831 -1.75216 0
M  V30 1034 C 104.51 -3.59284 -0.124673 0
M  V30 1035 C 104.174 -4.43318 1.10987 0
M  V30 1036 C 105.171 -4.78796 2.02609 0
M  V30 1037 C 102.856 -4.84194 1.33647 0
M  V30 1038 C 104.85 -5.53997 3.15224 0
M  V30 1039 C 102.537 -5.5915 2.46565 0
M  V30 1040 C 103.535 -5.93968 3.37182 0
M  V30 1041 O 103.223 -6.67405 4.48136 0
M  V30 1042 H 102.955 -0.673122 0.0623153 0
M  V30 1043 H 105.509 -1.88104 0.824981 0
M  V30 1044 H 103.739 -3.75919 -0.906745 0
M  V30 1045 H 105.428 -4.01775 -0.577201 0
M  V30 1046 H 106.194 -4.47781 1.86325 0
M  V30 1047 H 102.073 -4.56534 0.64016 0
M  V30 1048 H 105.617 -5.81091 3.85978 0
M  V30 1049 H 101.514 -5.89579 2.62805 0
M  V30 1050 H 102.282 -6.85847 4.46717 0
M  V30 1051 N 104.945 -0.338344 -1.53925 0
M  V30 1052 C 106.222 0.314774 -1.93051 0
M  V30 1053 C 106.602 1.68669 -1.26941 0
M  V30 1054 O 105.95 2.24636 -0.418445 0
M  V30 1055 C 106.16 0.392249 -3.46789 0
M  V30 1056 C 107.508 0.645554 -4.19664 0
M  V30 1057 O 108.532 0.474575 -3.53024 0
M  V30 1058 O 107.391 0.976408 -5.37707 0
M  V30 1059 H 104.485 0.182598 -0.80659 0
M  V30 1060 H 107.031 -0.389141 -1.65178 0
M  V30 1061 H 105.803 -0.570702 -3.87116 0
M  V30 1062 H 105.426 1.14316 -3.80812 0
M  V30 1063 N 106.423 1.57458 -0.0668435 0
M  V30 1064 C 107.7 1.8469 0.644132 0
M  V30 1065 C 108.08 0.958343 1.88093 0
M  V30 1066 O 107.428 0.0233579 2.28488 0
M  V30 1067 C 107.638 3.34767 0.986509 0
M  V30 1068 C 108.986 4.02159 1.36212 0
M  V30 1069 O 110.01 3.39484 1.07839 0
M  V30 1070 O 108.869 5.12694 1.89227 0
M  V30 1071 H 105.963 0.762816 0.319437 0
M  V30 1072 H 108.509 1.6942 -0.0973986 0
M  V30 1073 H 107.281 3.91151 0.107883 0
M  V30 1074 H 106.904 3.55281 1.78497 0
M  V30 1075 N 107.901 -0.206675 1.56239 0
M  V30 1076 C 108.831 -1.25909 1.96645 0
M  V30 1077 C 109.812 -1.48097 0.836734 0
M  V30 1078 O 110.997 -1.6003 1.10019 0
M  V30 1079 C 108.127 -2.6058 2.29599 0
M  V30 1080 C 107.081 -2.53024 3.452 0
M  V30 1081 C 106.407 -3.91861 3.63798 0
M  V30 1082 C 107.707 -2.06524 4.79734 0
M  V30 1083 H 109.401 -0.923369 2.84806 0
M  V30 1084 H 106.947 -0.442735 1.37025 0
M  V30 1085 H 108.9 -3.34375 2.56459 0
M  V30 1086 H 107.624 -2.95869 1.38307 0
M  V30 1087 H 106.283 -1.81684 3.18412 0
M  V30 1088 H 105.931 -4.24483 2.69857 0
M  V30 1089 H 105.631 -3.87683 4.4156 0
M  V30 1090 H 107.155 -4.67296 3.93022 0
M  V30 1091 H 108.569 -2.70072 5.05702 0
M  V30 1092 H 106.966 -2.13374 5.60885 0
M  V30 1093 H 108.036 -1.01802 4.74093 0
M  V30 1094 N 109.379 -1.50304 -0.473955 0
M  V30 1095 C 110.656 -1.51667 -1.23518 0
M  V30 1096 C 111.036 -0.259701 -2.09496 0
M  V30 1097 O 110.384 0.756986 -2.15597 0
M  V30 1098 C 110.594 -2.81082 -2.06868 0
M  V30 1099 C 111.942 -3.31631 -2.65153 0
M  V30 1100 O 112.966 -2.82384 -2.17113 0
M  V30 1101 O 111.825 -4.17471 -3.52675 0
M  V30 1102 H 108.919 -0.60822 -0.560355 0
M  V30 1103 H 111.465 -1.62592 -0.486011 0
M  V30 1104 H 110.237 -3.64041 -1.4349 0
M  V30 1105 H 109.86 -2.73146 -2.88924 0
M  V30 1106 N 110.857 0.726932 -1.39834 0
M  V30 1107 C 112.082 1.52121 -1.40976 0
M  V30 1108 C 112.507 1.88098 -0.00826029 0
M  V30 1109 O 111.865 1.52479 0.980807 0
M  V30 1110 C 111.913 2.78021 -2.29644 0
M  V30 1111 O 111.017 3.74272 -1.73188 0
M  V30 1112 H 110.358 0.45908 -0.479731 0
M  V30 1113 H 112.888 0.896207 -1.83927 0
M  V30 1114 H 112.898 3.26671 -2.44438 0
M  V30 1115 H 111.573 2.51169 -3.31492 0
M  V30 1116 H 110.15 3.33073 -1.6768 0
M  V30 1117 N 112.336 1.25143 0.95797 0
M  V30 1118 C 113.582 1.09855 1.70469 0
M  V30 1119 C 113.915 -0.360187 1.90831 0
M  V30 1120 O 113.19 -1.26568 1.47685 0
M  V30 1121 C 113.473 1.8497 3.08963 0
M  V30 1122 C 113.326 3.38652 2.96032 0
M  V30 1123 C 114.645 1.63016 4.08795 0
M  V30 1124 H 111.764 0.400465 0.618706 0
M  V30 1125 H 114.406 1.53933 1.11376 0
M  V30 1126 H 112.556 1.47505 3.59409 0
M  V30 1127 H 114.228 3.85772 2.52938 0
M  V30 1128 H 112.471 3.66534 2.32025 0
M  V30 1129 H 113.142 3.8642 3.94187 0
M  V30 1130 H 115.618 1.95625 3.67247 0
M  V30 1131 H 114.494 2.18015 5.03747 0
M  V30 1132 H 114.755 0.570692 4.38401 0
M  V30 1133 N 113.814 -1.1601 1.06675 0
M  V30 1134 C 114.762 -2.22586 0.675157 0
M  V30 1135 C 115.756 -1.66525 -0.310766 0
M  V30 1136 O 116.962 -1.79145 -0.175215 0
M  V30 1137 H 113.337 -0.724855 0.200223 0
M  V30 1138 H 115.308 -2.52899 1.58381 0
M  V30 1139 C 114.057 -3.47604 0.0817162 0
M  V30 1140 H 113.38 -3.91058 0.831484 0
M  V30 1141 H 114.82 -4.23718 -0.154708 0
M  V30 1142 C 113.279 -3.15718 -1.17576 0
M  V30 1143 O 113.809 -3.31878 -2.26318 0
M  V30 1144 N 112.015 -2.69816 -1.07923 0
M  V30 1145 H 111.562 -2.56866 -0.194293 0
M  V30 1146 H 111.52 -2.48855 -1.92141 0
M  V30 1147 N 115.292 -0.849877 -1.32721 0
M  V30 1148 C 116.539 -0.450923 -1.97416 0
M  V30 1149 C 116.867 0.992376 -1.67279 0
M  V30 1150 O 116.122 1.71048 -0.950845 0
M  V30 1151 C 116.421 -0.631272 -3.51781 0
M  V30 1152 C 116.087 -2.04432 -4.01894 0
M  V30 1153 C 114.749 -2.4308 -4.1529 0
M  V30 1154 C 117.101 -2.96679 -4.28522 0
M  V30 1155 C 114.429 -3.73257 -4.52654 0
M  V30 1156 C 116.781 -4.26349 -4.67343 0
M  V30 1157 C 115.445 -4.64939 -4.78945 0
M  V30 1158 H 114.715 -0.165004 -0.722395 0
M  V30 1159 H 117.362 -1.07901 -1.58207 0
M  V30 1160 H 115.667 0.0800767 -3.91718 0
M  V30 1161 H 117.364 -0.302709 -3.99856 0
M  V30 1162 H 113.954 -1.73419 -3.91949 0
M  V30 1163 H 118.138 -2.68054 -4.17685 0
M  V30 1164 H 113.394 -4.02946 -4.59831 0
M  V30 1165 H 117.568 -4.97895 -4.86902 0
M  V30 1166 H 115.195 -5.65855 -5.07654 0
M  V30 1167 N 116.77 1.45427 -0.607355 0
M  V30 1168 C 117.702 2.2871 0.149752 0
M  V30 1169 C 118.715 1.39937 0.831958 0
M  V30 1170 O 119.904 1.64313 0.697385 0
M  V30 1171 C 117.004 3.15673 1.23304 0
M  V30 1172 C 116.177 4.32722 0.637996 0
M  V30 1173 C 115.236 5.00895 1.61215 0
M  V30 1174 O 114.262 5.57697 1.13854 0
M  V30 1175 N 115.464 5.00159 2.94655 0
M  V30 1176 H 118.229 2.94328 -0.564882 0
M  V30 1177 H 115.79 1.55612 -0.446823 0
M  V30 1178 H 117.782 3.58144 1.88454 0
M  V30 1179 H 116.352 2.51965 1.8502 0
M  V30 1180 H 115.572 3.93734 -0.191572 0
M  V30 1181 H 116.86 5.08321 0.220665 0
M  V30 1182 H 116.258 4.553 3.35735 0
M  V30 1183 H 114.815 5.46495 3.55228 0
M  V30 1184 N 118.248 0.346503 1.53744 0
M  V30 1185 C 119.496 -0.248612 2.00565 0
M  V30 1186 C 119.817 -1.5083 1.23593 0
M  V30 1187 O 119.087 -1.92858 0.343912 0
M  V30 1188 H 117.667 -0.0948564 0.740953 0
M  V30 1189 H 120.329 0.468341 1.89189 0
M  V30 1190 H 119.425 -0.488994 3.08245 0
M  V30 1191 N 119.726 -1.57421 0.075193 0
M  V30 1192 C 120.673 -2.12915 -0.890843 0
M  V30 1193 C 121.643 -1.04252 -1.29309 0
M  V30 1194 O 122.828 -1.31933 -1.37834 0
M  V30 1195 C 119.968 -2.69795 -2.15186 0
M  V30 1196 C 119.081 -3.92624 -1.80194 0
M  V30 1197 C 118.216 -4.37736 -3.00933 0
M  V30 1198 C 117.255 -5.53205 -2.61974 0
M  V30 1199 N 116.392 -5.9326 -3.75483 0
M  V30 1200 H 121.232 -2.95156 -0.410735 0
M  V30 1201 H 118.769 -1.45854 -0.191086 0
M  V30 1202 H 120.727 -3.00883 -2.89008 0
M  V30 1203 H 119.357 -1.90313 -2.60731 0
M  V30 1204 H 118.409 -3.67977 -0.964218 0
M  V30 1205 H 119.721 -4.76482 -1.47534 0
M  V30 1206 H 118.875 -4.70503 -3.8303 0
M  V30 1207 H 117.614 -3.52739 -3.36789 0
M  V30 1208 H 116.619 -5.20086 -1.783 0
M  V30 1209 H 117.844 -6.39936 -2.27284 0
M  V30 1210 H 115.79 -5.11212 -4.11094 0
M  V30 1211 H 115.707 -6.71865 -3.46602 0
M  V30 1212 H 116.975 -6.30651 -4.58148 0
M  V30 1213 N 121.204 0.198386 -1.56346 0
M  V30 1214 C 122.151 1.24589 -1.94284 0
M  V30 1215 C 123.121 1.454 -0.802997 0
M  V30 1216 O 124.306 1.58588 -1.06087 0
M  V30 1217 C 121.446 2.58631 -2.28482 0
M  V30 1218 C 120.559 2.45426 -3.55514 0
M  V30 1219 C 119.694 3.7215 -3.79049 0
M  V30 1220 C 118.733 3.53763 -4.99518 0
M  V30 1221 N 117.87 4.72491 -5.19323 0
M  V30 1222 H 122.71 0.915356 -2.83593 0
M  V30 1223 H 120.247 0.440629 -1.40346 0
M  V30 1224 H 122.205 3.3672 -2.46324 0
M  V30 1225 H 120.835 2.89734 -1.42317 0
M  V30 1226 H 119.887 1.58652 -3.45737 0
M  V30 1227 H 121.199 2.27772 -4.43758 0
M  V30 1228 H 120.353 4.58679 -3.97113 0
M  V30 1229 H 119.092 3.92754 -2.89129 0
M  V30 1230 H 118.097 2.65619 -4.8138 0
M  V30 1231 H 119.322 3.34607 -5.90944 0
M  V30 1232 H 117.268 4.93365 -4.3235 0
M  V30 1233 H 117.185 4.5765 -6.01741 0
M  V30 1234 H 118.453 5.6038 -5.41843 0
M  V30 1235 N 122.682 1.50554 0.465978 0
M  V30 1236 C 123.928 1.62038 1.21949 0
M  V30 1237 C 124.261 0.322116 1.9151 0
M  V30 1238 O 123.536 -0.676723 1.82348 0
M  V30 1239 C 123.819 2.80421 2.25912 0
M  V30 1240 C 123.672 4.20144 1.60622 0
M  V30 1241 C 124.991 2.94354 3.27176 0
M  V30 1242 H 122.11 0.589752 0.441998 0
M  V30 1243 H 124.752 1.82956 0.51257 0
M  V30 1244 H 122.902 2.62717 2.86203 0
M  V30 1245 H 124.574 4.49449 1.03889 0
M  V30 1246 H 122.817 4.24165 0.909211 0
M  V30 1247 H 123.488 4.98914 2.36196 0
M  V30 1248 H 125.964 3.10578 2.76913 0
M  V30 1249 H 124.84 3.788 3.97242 0
M  V30 1250 H 125.101 2.05186 3.916 0
M  V30 1251 N 124.16 -0.719506 1.40217 0
M  V30 1252 C 125.123 -1.8153 1.39927 0
M  V30 1253 C 126.123 -1.58095 0.293723 0
M  V30 1254 O 127.313 -1.65209 0.552429 0
M  V30 1255 C 124.445 -3.19561 1.18716 0
M  V30 1256 H 125.638 -1.83186 2.37451 0
M  V30 1257 H 123.191 -0.924746 1.26008 0
M  V30 1258 H 123.926 -3.23557 0.219366 0
M  V30 1259 H 123.711 -3.3797 1.98793 0
M  V30 1260 H 125.201 -3.99598 1.21291 0
M  V30 1261 N 125.638 -1.25649 -0.95132 0
M  V30 1262 C 126.868 -1.13179 -1.72841 0
M  V30 1263 C 127.276 0.316827 -1.86528 0
M  V30 1264 O 126.619 1.22948 -1.3649 0
M  V30 1265 C 126.681 -1.71644 -3.15878 0
M  V30 1266 C 126.345 -3.20667 -3.25609 0
M  V30 1267 C 127.342 -4.17616 -3.09666 0
M  V30 1268 C 125.027 -3.6094 -3.49324 0
M  V30 1269 C 127.021 -5.52817 -3.17289 0
M  V30 1270 C 124.708 -4.96278 -3.56584 0
M  V30 1271 C 125.706 -5.92025 -3.40581 0
M  V30 1272 O 125.394 -7.24899 -3.47528 0
M  V30 1273 H 125.126 -0.395389 -0.54831 0
M  V30 1274 H 127.68 -1.66566 -1.20187 0
M  V30 1275 H 125.91 -1.12707 -3.69911 0
M  V30 1276 H 127.599 -1.54225 -3.75459 0
M  V30 1277 H 128.365 -3.87842 -2.91211 0
M  V30 1278 H 124.244 -2.86907 -3.6084 0
M  V30 1279 H 127.788 -6.2753 -3.04716 0
M  V30 1280 H 123.685 -5.25716 -3.74556 0
M  V30 1281 H 124.453 -7.33039 -3.64138 0
M  V30 1282 N 127.117 1.15442 -1.07289 0
M  V30 1283 C 128.364 1.86213 -0.795668 0
M  V30 1284 C 128.692 1.82291 0.678238 0
M  V30 1285 O 127.947 1.24057 1.51355 0
M  V30 1286 C 128.246 3.3489 -1.24834 0
M  V30 1287 C 127.912 3.59007 -2.72809 0
M  V30 1288 C 126.574 3.65298 -3.13227 0
M  V30 1289 C 128.926 3.68762 -3.68326 0
M  V30 1290 C 126.254 3.78854 -4.4798 0
M  V30 1291 C 128.606 3.83842 -5.0284 0
M  V30 1292 C 127.27 3.88378 -5.4288 0
M  V30 1293 H 126.54 0.681403 -0.291155 0
M  V30 1294 H 129.187 1.36435 -1.34379 0
M  V30 1295 H 127.492 3.8687 -0.619595 0
M  V30 1296 H 129.189 3.88052 -1.01076 0
M  V30 1297 H 125.779 3.5475 -2.40521 0
M  V30 1298 H 129.963 3.63202 -3.38227 0
M  V30 1299 H 125.219 3.80623 -4.78472 0
M  V30 1300 H 129.393 3.90332 -5.76727 0
M  V30 1301 H 127.02 3.98635 -6.47298 0
M  V30 1302 N 128.595 0.856903 1.32268 0
M  V30 1303 C 129.843 0.460474 1.96784 0
M  V30 1304 C 130.164 -0.987701 1.68135 0
M  V30 1305 O 129.434 -1.69058 0.989765 0
M  V30 1306 H 128.014 0.167289 0.728027 0
M  V30 1307 H 130.676 1.09383 1.61312 0
M  V30 1308 H 129.772 0.60739 3.06133 0
M  V30 1309 N 130.073 -1.45103 0.615059 0
M  V30 1310 C 131.036 -2.29025 -0.0895485 0
M  V30 1311 C 132.036 -1.40174 -0.787906 0
M  V30 1312 O 133.226 -1.62217 -0.634933 0
M  V30 1313 C 130.358 -3.21376 -1.13711 0
M  V30 1314 H 131.551 -2.92807 0.648382 0
M  V30 1315 H 129.104 -1.51749 0.374444 0
M  V30 1316 H 129.839 -2.6241 -1.90556 0
M  V30 1317 H 129.624 -3.86834 -0.640475 0
M  V30 1318 H 131.114 -3.84459 -1.63036 0
M  V30 1319 N 131.551 -0.354651 -1.53558 0
M  V30 1320 C 132.799 0.237972 -2.00694 0
M  V30 1321 C 133.12 1.50173 -1.24391 0
M  V30 1322 O 132.39 1.92673 -0.354135 0
M  V30 1323 H 130.97 0.0909256 -0.741446 0
M  V30 1324 H 133.632 -0.478368 -1.88938 0
M  V30 1325 H 132.728 0.47264 -3.085 0
M  V30 1326 N 133.029 1.57378 -0.0835403 0
M  V30 1327 C 134.306 1.85363 0.624507 0
M  V30 1328 C 134.686 0.978239 1.87066 0
M  V30 1329 O 134.034 0.0475908 2.2845 0
M  V30 1330 C 134.244 3.35795 0.950947 0
M  V30 1331 C 135.592 4.03581 1.31939 0
M  V30 1332 O 136.616 3.40609 1.04232 0
M  V30 1333 O 135.475 5.14672 1.83779 0
M  V30 1334 H 132.569 0.766162 0.311329 0
M  V30 1335 H 135.115 1.69307 -0.115362 0
M  V30 1336 H 133.887 3.91244 0.0663899 0
M  V30 1337 H 133.51 3.57154 1.74719 0
M  V30 1338 N 134.507 -0.190092 1.56449 0
M  V30 1339 C 135.439 -1.25973 1.91477 0
M  V30 1340 C 136.452 -1.41452 0.805931 0
M  V30 1341 O 137.641 -1.41789 1.08435 0
M  V30 1342 C 134.741 -2.63117 2.13594 0
M  V30 1343 C 133.914 -2.69182 3.4476 0
M  V30 1344 C 132.973 -3.87557 3.5593 0
M  V30 1345 O 131.999 -3.74427 4.28711 0
M  V30 1346 N 133.201 -5.03224 2.89388 0
M  V30 1347 H 135.966 -0.962394 2.83828 0
M  V30 1348 H 133.527 -0.379981 1.57378 0
M  V30 1349 H 135.519 -3.40742 2.1835 0
M  V30 1350 H 134.089 -2.85319 1.27719 0
M  V30 1351 H 133.309 -1.77793 3.51828 0
M  V30 1352 H 134.597 -2.70229 4.31107 0
M  V30 1353 H 133.995 -5.16791 2.30094 0
M  V30 1354 H 132.552 -5.78778 2.99764 0
M  V30 1355 N 135.985 -1.50799 -0.457987 0
M  V30 1356 C 137.231 -1.62683 -1.21088 0
M  V30 1357 C 137.564 -0.332268 -1.91336 0
M  V30 1358 O 136.839 0.667043 -1.82704 0
M  V30 1359 C 137.122 -2.81615 -2.24422 0
M  V30 1360 C 136.975 -4.20989 -1.58392 0
M  V30 1361 C 138.294 -2.96085 -3.2561 0
M  V30 1362 H 135.413 -0.592087 -0.438864 0
M  V30 1363 H 138.055 -1.83225 -0.50286 0
M  V30 1364 H 136.205 -2.64231 -2.84806 0
M  V30 1365 H 137.877 -4.49994 -1.01504 0
M  V30 1366 H 136.12 -4.24641 -0.886704 0
M  V30 1367 H 136.791 -5.0016 -2.33547 0
M  V30 1368 H 139.267 -3.12042 -2.75262 0
M  V30 1369 H 138.143 -3.80902 -3.95228 0
M  V30 1370 H 138.404 -2.0726 -3.90507 0
M  V30 1371 N 137.463 0.71206 -1.40597 0
M  V30 1372 C 138.711 1.46907 -1.38791 0
M  V30 1373 C 139.032 1.94998 0.00780391 0
M  V30 1374 O 138.302 1.70587 0.963174 0
M  V30 1375 H 136.882 0.545043 -0.51082 0
M  V30 1376 H 139.544 0.843882 -1.75683 0
M  V30 1377 H 138.64 2.34021 -2.06496 0
M  V30 1378 N 138.941 1.26152 0.944643 0
M  V30 1379 C 140.171 1.14094 1.72239 0
M  V30 1380 C 140.579 -0.306931 1.86694 0
M  V30 1381 O 139.922 -1.22222 1.3714 0
M  V30 1382 C 139.984 1.73316 3.14963 0
M  V30 1383 C 139.648 3.2239 3.23904 0
M  V30 1384 C 140.645 4.19252 3.07447 0
M  V30 1385 C 138.33 3.62788 3.47405 0
M  V30 1386 C 140.324 5.54491 3.14353 0
M  V30 1387 C 138.011 4.98162 3.53947 0
M  V30 1388 C 139.009 5.93823 3.37436 0
M  V30 1389 O 138.697 7.26732 3.43679 0
M  V30 1390 H 138.429 0.398292 0.546205 0
M  V30 1391 H 140.983 1.67201 1.19301 0
M  V30 1392 H 139.213 1.14667 3.69308 0
M  V30 1393 H 140.902 1.56214 3.74636 0
M  V30 1394 H 141.668 3.8938 2.8915 0
M  V30 1395 H 137.547 2.88816 3.59313 0
M  V30 1396 H 141.091 6.29137 3.01384 0
M  V30 1397 H 136.988 5.27695 3.71763 0
M  V30 1398 H 137.756 7.3496 3.60245 0
M  V30 1399 N 140.419 -1.14872 1.07899 0
M  V30 1400 C 141.644 -1.90202 0.826926 0
M  V30 1401 C 142.069 -1.77774 -0.614664 0
M  V30 1402 O 141.427 -1.11431 -1.43013 0
M  V30 1403 C 141.475 -3.38352 1.24702 0
M  V30 1404 O 140.579 -4.10497 0.39575 0
M  V30 1405 H 139.92 -0.591968 0.300782 0
M  V30 1406 H 142.45 -1.45437 1.43907 0
M  V30 1407 H 142.46 -3.89156 1.22563 0
M  V30 1408 H 141.135 -3.46715 2.29698 0
M  V30 1409 H 139.712 -3.69796 0.480117 0
M  V30 1410 N 141.898 -0.863906 -1.31812 0
M  V30 1411 C 143.175 -0.39275 -1.91616 0
M  V30 1412 C 143.555 1.12461 -1.7865 0
M  V30 1413 O 142.903 1.95045 -1.19037 0
M  V30 1414 C 143.113 -0.867385 -3.38049 0
M  V30 1415 C 144.461 -0.889966 -4.15168 0
M  V30 1416 O 145.485 -0.812635 -3.46806 0
M  V30 1417 O 144.344 -1.00079 -5.37258 0
M  V30 1418 H 141.438 -0.116358 -0.818773 0
M  V30 1419 H 143.984 -0.951418 -1.40521 0
M  V30 1420 H 142.756 -1.91081 -3.41473 0
M  V30 1421 H 142.379 -0.286687 -3.96565 0
M  V30 1422 N 143.376 1.44774 -0.622745 0
M  V30 1423 C 144.324 2.32387 0.0994683 0
M  V30 1424 C 145.318 1.46859 0.844326 0
M  V30 1425 O 146.524 1.63254 0.758174 0
M  V30 1426 H 142.899 0.750273 0.0509291 0
M  V30 1427 H 144.87 2.91062 -0.65767 0
M  V30 1428 C 143.619 3.30723 1.07319 0
M  V30 1429 H 142.942 3.96541 0.509462 0
M  V30 1430 H 144.382 3.94725 1.54817 0
M  V30 1431 C 142.841 2.59021 2.15429 0
M  V30 1432 O 143.371 2.38286 3.23393 0
M  V30 1433 N 141.577 2.189 1.91131 0
M  V30 1434 H 141.124 2.35964 1.03337 0
M  V30 1435 H 141.082 1.71251 2.63668 0
M  V30 1436 N 144.854 0.36279 1.53368 0
M  V30 1437 C 146.101 -0.227776 2.01215 0
M  V30 1438 C 146.429 -1.49003 1.25014 0
M  V30 1439 O 145.684 -1.92876 0.331236 0
M  V30 1440 C 145.983 -0.568417 3.52851 0
M  V30 1441 C 145.649 0.59918 4.46901 0
M  V30 1442 C 144.311 0.919559 4.72332 0
M  V30 1443 C 146.663 1.38156 5.02556 0
M  V30 1444 C 143.991 2.02434 5.5067 0
M  V30 1445 C 146.343 2.47674 5.821 0
M  V30 1446 C 145.007 2.8025 6.05819 0
M  V30 1447 H 144.277 -0.083349 0.736297 0
M  V30 1448 H 146.924 0.494677 1.85001 0
M  V30 1449 H 145.229 -1.37185 3.66998 0
M  V30 1450 H 146.926 -1.03756 3.87344 0
M  V30 1451 H 143.516 0.339437 4.27254 0
M  V30 1452 H 147.7 1.14729 4.82857 0
M  V30 1453 H 142.956 2.28075 5.67267 0
M  V30 1454 H 147.13 3.08716 6.24234 0
M  V30 1455 H 144.757 3.65979 6.66306 0
M  V30 1456 N 146.332 -1.57332 0.0918853 0
M  V30 1457 C 147.264 -2.10869 -0.898168 0
M  V30 1458 C 148.277 -1.04521 -1.24817 0
M  V30 1459 O 149.466 -1.31977 -1.20184 0
M  V30 1460 C 146.566 -2.57083 -2.2082 0
M  V30 1461 C 145.739 -3.87229 -2.03402 0
M  V30 1462 C 144.798 -4.19324 -3.17889 0
M  V30 1463 O 143.824 -4.88598 -2.91994 0
M  V30 1464 N 145.026 -3.74471 -4.43567 0
M  V30 1465 H 147.791 -2.96439 -0.440943 0
M  V30 1466 H 145.352 -1.61631 -0.0933064 0
M  V30 1467 H 147.344 -2.75602 -2.96354 0
M  V30 1468 H 145.914 -1.76541 -2.57977 0
M  V30 1469 H 145.134 -3.7789 -1.12218 0
M  V30 1470 H 146.422 -4.72379 -1.89038 0
M  V30 1471 H 145.82 -3.18546 -4.67488 0
M  V30 1472 H 144.377 -3.98151 -5.16061 0
M  V30 1473 N 147.81 0.181792 -1.56548 0
M  V30 1474 C 149.087 0.926765 -1.72251 0
M  V30 1475 C 149.467 2.00831 -0.650386 0
M  V30 1476 O 148.815 2.26008 0.336521 0
M  V30 1477 C 149.025 1.50106 -3.1507 0
M  V30 1478 C 150.373 1.97805 -3.75711 0
M  V30 1479 O 151.397 1.59922 -3.18282 0
M  V30 1480 O 150.256 2.67555 -4.76525 0
M  V30 1481 H 147.35 0.435506 -0.703039 0
M  V30 1482 H 149.896 0.170443 -1.68842 0
M  V30 1483 H 148.668 0.72212 -3.84579 0
M  V30 1484 H 148.291 2.32186 -3.22763 0
M  V30 1485 N 149.288 1.51039 0.449983 0
M  V30 1486 C 150.251 1.70863 1.5277 0
M  V30 1487 C 151.251 0.578846 1.5002 0
M  V30 1488 O 152.441 0.846213 1.52266 0
M  V30 1489 C 149.573 1.75341 2.9235 0
M  V30 1490 H 150.766 2.67034 1.36502 0
M  V30 1491 H 148.319 1.40838 0.677812 0
M  V30 1492 H 149.054 0.809383 3.14037 0
M  V30 1493 H 148.839 2.57436 2.95752 0
M  V30 1494 H 150.329 1.92559 3.70555 0
M  V30 1495 N 150.766 -0.704594 1.40972 0
M  V30 1496 C 151.699 -1.82861 1.36518 0
M  V30 1497 C 152.677 -1.6091 0.23382 0
M  V30 1498 O 153.861 -1.83778 0.419271 0
M  V30 1499 C 150.988 -3.1939 1.12729 0
M  V30 1500 C 150.034 -3.60148 2.28463 0
M  V30 1501 S 150.867 -3.65994 3.90907 0
M  V30 1502 C 152.023 -5.05264 3.69403 0
M  V30 1503 H 152.256 -1.86361 2.3164 0
M  V30 1504 H 149.789 -0.872439 1.27389 0
M  V30 1505 H 151.747 -3.98211 0.996893 0
M  V30 1506 H 150.408 -3.1351 0.192427 0
M  V30 1507 H 149.601 -4.59309 2.07489 0
M  V30 1508 H 149.203 -2.88612 2.37863 0
M  V30 1509 H 151.495 -5.92504 3.28551 0
M  V30 1510 H 152.438 -5.31278 4.68134 0
M  V30 1511 H 152.846 -4.76377 3.02862 0
M  V30 1512 N 152.244 -1.26651 -0.937939 0
M  V30 1513 C 153.492 -1.12165 -1.68118 0
M  V30 1514 C 153.813 0.334983 -1.92101 0
M  V30 1515 O 153.083 1.23583 -1.52 0
M  V30 1516 H 151.663 -0.412093 -0.623048 0
M  V30 1517 H 154.325 -1.59027 -1.12678 0
M  V30 1518 H 153.421 -1.64289 -2.6536 0
M  V30 1519 N 153.722 1.14298 -1.08507 0
M  V30 1520 C 154.971 1.84708 -0.810305 0
M  V30 1521 C 155.284 1.83903 0.666271 0
M  V30 1522 O 156.49 2.50112 1.05624 0
M  V30 1523 C 154.946 3.31572 -1.39957 0
M  V30 1524 C 154.554 3.40791 -2.90801 0
M  V30 1525 C 156.298 4.07087 -1.20334 0
M  V30 1526 C 154.205 4.81872 -3.4286 0
M  V30 1527 H 153.135 0.691985 -0.299454 0
M  V30 1528 H 155.786 1.28841 -1.30661 0
M  V30 1529 H 154.168 3.87183 -0.830976 0
M  V30 1530 H 155.342 2.95225 -3.53806 0
M  V30 1531 H 153.657 2.78732 -3.0935 0
M  V30 1532 H 156.254 5.11225 -1.56693 0
M  V30 1533 H 156.597 4.16054 -0.143237 0
M  V30 1534 H 157.13 3.57779 -1.73893 0
M  V30 1535 H 153.869 4.78094 -4.48449 0
M  V30 1536 H 153.389 5.27972 -2.84615 0
M  V30 1537 H 155.068 5.50765 -3.39509 0
M  V30 1538 N 155.201 0.870884 1.31352 0
M  V30 1539 C 156.131 0.343096 2.30966 0
M  V30 1540 C 157.112 -0.566507 1.60389 0
M  V30 1541 O 158.297 -0.483336 1.88089 0
M  V30 1542 C 155.427 -0.455487 3.443 0
M  V30 1543 C 154.381 0.361103 4.26474 0
M  V30 1544 C 153.707 -0.563221 5.31725 0
M  V30 1545 C 155.007 1.59566 4.97329 0
M  V30 1546 H 156.701 1.17548 2.75359 0
M  V30 1547 H 154.247 0.566686 1.32381 0
M  V30 1548 H 156.2 -0.83525 4.13039 0
M  V30 1549 H 154.924 -1.32139 2.98675 0
M  V30 1550 H 153.583 0.722825 3.59403 0
M  V30 1551 H 153.231 -1.42643 4.82351 0
M  V30 1552 H 152.931 -0.0207409 5.87596 0
M  V30 1553 H 154.455 -0.939808 6.03324 0
M  V30 1554 H 155.869 1.28728 5.58661 0
M  V30 1555 H 154.266 2.07728 5.63 0
M  V30 1556 H 155.336 2.34798 4.24262 0
M  V30 1557 N 156.679 -1.44442 0.630414 0
M  V30 1558 C 157.589 -2.34476 -0.0761693 0
M  V30 1559 C 158.605 -1.52576 -0.836449 0
M  V30 1560 O 159.781 -1.85307 -0.788874 0
M  V30 1561 C 156.846 -3.30545 -1.04599 0
M  V30 1562 C 155.907 -4.28352 -0.28516 0
M  V30 1563 C 155.14 -5.19831 -1.20878 0
M  V30 1564 O 155.363 -5.15223 -2.44747 0
M  V30 1565 O 154.297 -5.97892 -0.693491 0
M  V30 1566 H 158.123 -2.96345 0.664324 0
M  V30 1567 H 155.708 -1.44203 0.39061 0
M  V30 1568 H 157.59 -3.89681 -1.60396 0
M  V30 1569 H 156.265 -2.7121 -1.76711 0
M  V30 1570 H 155.172 -3.72764 0.315837 0
M  V30 1571 H 156.505 -4.90605 0.395924 0
M  V30 1572 N 158.157 -0.370918 -1.53173 0
M  V30 1573 C 159.067 0.480823 -2.2962 0
M  V30 1574 C 160.083 1.08789 -1.35798 0
M  V30 1575 O 161.259 1.09768 -1.68858 0
M  V30 1576 C 158.324 1.60227 -3.07454 0
M  V30 1577 C 157.385 1.0222 -4.16953 0
M  V30 1578 C 156.618 2.0902 -4.91066 0
M  V30 1579 O 156.841 3.30222 -4.65091 0
M  V30 1580 O 155.775 1.71778 -5.76867 0
M  V30 1581 H 159.601 -0.141421 -3.03371 0
M  V30 1582 H 157.186 -0.135146 -1.48787 0
M  V30 1583 H 159.068 2.25417 -3.56041 0
M  V30 1584 H 157.743 2.20982 -2.36535 0
M  V30 1585 H 156.65 0.334064 -3.72605 0
M  V30 1586 H 157.983 0.459131 -4.90054 0
M  V30 1587 N 159.635 1.57281 -0.100228 0
M  V30 1588 C 160.582 2.14305 0.856858 0
M  V30 1589 C 161.552 1.06296 1.27634 0
M  V30 1590 O 162.737 1.34109 1.35718 0
M  V30 1591 C 159.877 2.73184 2.10866 0
M  V30 1592 C 158.99 3.95442 1.73925 0
M  V30 1593 C 158.125 4.42468 2.93931 0
M  V30 1594 C 157.164 5.57303 2.5314 0
M  V30 1595 N 156.301 5.99158 3.65997 0
M  V30 1596 H 161.141 2.95772 0.363726 0
M  V30 1597 H 158.678 1.46139 0.167858 0
M  V30 1598 H 160.636 3.05442 2.84185 0
M  V30 1599 H 159.266 1.94437 2.57671 0
M  V30 1600 H 158.318 3.69464 0.905554 0
M  V30 1601 H 159.63 4.78769 1.39935 0
M  V30 1602 H 158.784 4.76537 3.75496 0
M  V30 1603 H 157.523 3.58052 3.31134 0
M  V30 1604 H 156.528 5.22857 1.70003 0
M  V30 1605 H 157.753 6.43471 2.17075 0
M  V30 1606 H 155.699 5.17687 4.02909 0
M  V30 1607 H 155.616 6.77295 3.35869 0
M  V30 1608 H 156.884 6.3786 4.48057 0
M  V30 1609 N 161.113 -0.173488 1.56642 0
M  V30 1610 C 162.362 -0.888758 1.81063 0
M  V30 1611 C 162.675 -1.83506 0.67712 0
M  V30 1612 O 163.881 -2.59254 0.806206 0
M  V30 1613 C 162.337 -1.63091 3.20826 0
M  V30 1614 C 161.945 -0.728357 4.4204 0
M  V30 1615 C 163.689 -2.33454 3.54541 0
M  V30 1616 C 161.596 -1.47062 5.72823 0
M  V30 1617 H 160.526 -0.335618 0.675186 0
M  V30 1618 H 163.177 -0.141712 1.82952 0
M  V30 1619 H 161.559 -2.42263 3.13248 0
M  V30 1620 H 162.733 0.0262449 4.60793 0
M  V30 1621 H 161.048 -0.134492 4.16183 0
M  V30 1622 H 163.645 -2.89578 4.49498 0
M  V30 1623 H 163.988 -3.08687 2.79317 0
M  V30 1624 H 164.521 -1.61227 3.63663 0
M  V30 1625 H 161.26 -0.760658 6.51072 0
M  V30 1626 H 160.78 -2.1986 5.58052 0
M  V30 1627 H 162.459 -2.01868 6.14702 0
M  V30 1628 N 162.591 -1.51276 -0.441967 0
M  V30 1629 C 163.816 -1.67799 -1.21895 0
M  V30 1630 C 164.241 -0.372864 -1.84367 0
M  V30 1631 O 163.599 0.666501 -1.68604 0
M  V30 1632 C 163.647 -2.79199 -2.28211 0
M  V30 1633 O 162.751 -2.42479 -3.33583 0
M  V30 1634 H 162.092 -0.559649 -0.357336 0
M  V30 1635 H 164.622 -1.97815 -0.522522 0
M  V30 1636 H 164.632 -3.03146 -2.73069 0
M  V30 1637 H 163.307 -3.73906 -1.82118 0
M  V30 1638 H 161.884 -2.29087 -2.94234 0
M  V30 1639 N 164.069 0.697108 -1.41344 0
M  V30 1640 C 165.294 1.49096 -1.44171 0
M  V30 1641 C 165.719 1.88038 -0.0481568 0
M  V30 1642 O 165.077 1.54525 0.948243 0
M  V30 1643 C 165.125 2.73088 -2.3549 0
M  V30 1644 O 164.229 3.70514 -1.81088 0
M  V30 1645 H 163.57 0.448801 -0.489361 0
M  V30 1646 H 166.1 0.856992 -1.85787 0
M  V30 1647 H 166.11 3.21413 -2.51312 0
M  V30 1648 H 164.785 2.44081 -3.36745 0
M  V30 1649 H 163.362 3.29441 -1.74708 0
M  V30 1650 N 165.547 1.27147 0.931209 0
M  V30 1651 C 166.477 1.12081 2.04842 0
M  V30 1652 C 167.458 0.0232364 1.70084 0
M  V30 1653 O 168.643 0.197085 1.93197 0
M  V30 1654 C 165.773 0.76354 3.38803 0
M  V30 1655 C 164.727 1.81396 3.87659 0
M  V30 1656 C 164.053 1.31075 5.18385 0
M  V30 1657 C 165.353 3.21739 4.11438 0
M  V30 1658 H 167.047 2.05537 2.17703 0
M  V30 1659 H 164.593 0.989603 1.04608 0
M  V30 1660 H 166.546 0.644982 4.16435 0
M  V30 1661 H 165.27 -0.206727 3.25945 0
M  V30 1662 H 163.929 1.92136 3.12217 0
M  V30 1663 H 163.577 0.330037 5.01916 0
M  V30 1664 H 163.277 2.013 5.52044 0
M  V30 1665 H 164.801 1.20506 5.98591 0
M  V30 1666 H 166.215 3.14019 4.79651 0
M  V30 1667 H 164.612 3.89644 4.56397 0
M  V30 1668 H 165.682 3.67054 3.16859 0
M  V30 1669 N 167.025 -1.13721 1.09112 0
M  V30 1670 C 168.273 -1.84559 0.823562 0
M  V30 1671 C 168.594 -1.83754 -0.652658 0
M  V30 1672 O 167.864 -1.29102 -1.47342 0
M  V30 1673 H 166.444 -0.683376 0.301673 0
M  V30 1674 H 169.106 -1.37771 1.37859 0
M  V30 1675 H 168.202 -2.8917 1.17419 0
M  V30 1676 N 168.503 -0.877838 -1.30888 0
M  V30 1677 C 169.728 -0.506629 -2.01117 0
M  V30 1678 C 170.153 0.895564 -1.65412 0
M  V30 1679 O 169.511 1.5923 -0.866922 0
M  V30 1680 C 169.559 -0.680223 -3.54126 0
M  V30 1681 O 168.663 0.277033 -4.11468 0
M  V30 1682 H 168.004 -0.200518 -0.633 0
M  V30 1683 H 170.534 -1.18342 -1.66902 0
M  V30 1684 H 170.544 -0.5765 -4.03907 0
M  V30 1685 H 169.219 -1.70261 -3.79452 0
M  V30 1686 H 167.796 0.127606 -3.72682 0
M  V30 1687 N 169.982 1.44106 -0.638065 0
M  V30 1688 C 170.914 2.28976 0.101205 0
M  V30 1689 C 171.927 1.4167 0.802088 0
M  V30 1690 O 173.116 1.65755 0.662375 0
M  V30 1691 C 170.216 3.18217 1.16581 0
M  V30 1692 C 169.389 4.33978 0.546066 0
M  V30 1693 C 168.448 5.04202 1.50554 0
M  V30 1694 O 167.474 5.59986 1.01999 0
M  V30 1695 N 168.676 5.06296 2.8398 0
M  V30 1696 H 171.441 2.93064 -0.627186 0
M  V30 1697 H 169.002 1.54629 -0.479731 0
M  V30 1698 H 170.994 3.62061 1.80815 0
M  V30 1699 H 169.564 2.55833 1.79634 0
M  V30 1700 H 168.784 3.93239 -0.275046 0
M  V30 1701 H 170.072 5.08675 0.112793 0
M  V30 1702 H 169.47 4.62319 3.26002 0
M  V30 1703 H 168.027 5.53907 3.43556 0
M  V30 1704 N 171.46 0.379036 1.52974 0
M  V30 1705 C 172.688 -0.20679 2.05864 0
M  V30 1706 C 173.103 -1.41356 1.25155 0
M  V30 1707 O 172.46 -1.8009 0.295588 0
M  V30 1708 C 172.511 -0.587045 3.56702 0
M  V30 1709 O 172.232 0.571776 4.34353 0
M  V30 1710 C 173.733 -1.22983 4.25899 0
M  V30 1711 H 170.953 -0.0336123 0.670158 0
M  V30 1712 H 173.497 0.541298 1.97206 0
M  V30 1713 H 171.652 -1.28504 3.65466 0
M  V30 1714 H 172.066 0.261544 5.23847 0
M  V30 1715 H 173.54 -1.44635 5.32715 0
M  V30 1716 H 174.017 -2.19416 3.80465 0
M  V30 1717 H 174.623 -0.572892 4.21424 0
M  V30 1718 N 172.938 -1.57226 0.108567 0
M  V30 1719 C 174.184 -1.95121 -0.552761 0
M  V30 1720 C 174.517 -0.991345 -1.66991 0
M  V30 1721 O 173.792 -0.0267211 -1.94482 0
M  V30 1722 C 174.075 -3.43039 -1.09528 0
M  V30 1723 C 173.928 -4.49797 0.0177332 0
M  V30 1724 C 175.247 -3.92567 -1.98945 0
M  V30 1725 H 172.366 -0.709496 -0.199461 0
M  V30 1726 H 175.008 -1.89126 0.182011 0
M  V30 1727 H 173.158 -3.48279 -1.72146 0
M  V30 1728 H 174.83 -4.56661 0.652584 0
M  V30 1729 H 173.073 -4.284 0.682309 0
M  V30 1730 H 173.744 -5.50528 -0.402919 0
M  V30 1731 H 176.22 -3.89565 -1.46214 0
M  V30 1732 H 175.096 -4.96605 -2.33827 0
M  V30 1733 H 175.357 -3.32648 -2.91201 0
M  V30 1734 N 174.416 0.165178 -1.56732 0
M  V30 1735 C 175.664 0.879068 -1.8198 0
M  V30 1736 C 175.985 1.82514 -0.686561 0
M  V30 1737 O 175.255 1.93694 0.293146 0
M  V30 1738 H 173.835 0.327608 -0.671329 0
M  V30 1739 H 176.497 0.163526 -1.94213 0
M  V30 1740 H 175.593 1.45228 -2.76252 0
M  V30 1741 N 175.894 1.51508 0.433938 0
M  V30 1742 C 177.124 1.67914 1.20369 0
M  V30 1743 C 177.532 0.377461 1.85397 0
M  V30 1744 O 176.875 -0.654255 1.71654 0
M  V30 1745 C 176.937 2.74045 2.32679 0
M  V30 1746 C 176.601 4.16543 1.87991 0
M  V30 1747 C 177.598 5.01211 1.38145 0
M  V30 1748 C 175.283 4.6266 1.95579 0
M  V30 1749 C 177.277 6.30056 0.964774 0
M  V30 1750 C 174.964 5.91501 1.53523 0
M  V30 1751 C 175.962 6.75027 1.04055 0
M  V30 1752 O 175.65 8.01459 0.625964 0
M  V30 1753 H 175.382 0.566578 0.368735 0
M  V30 1754 H 177.936 1.98709 0.51999 0
M  V30 1755 H 176.166 2.38572 3.04336 0
M  V30 1756 H 177.855 2.79295 2.94532 0
M  V30 1757 H 178.621 4.66783 1.31675 0
M  V30 1758 H 174.5 3.97767 2.33029 0
M  V30 1759 H 178.044 6.95202 0.57796 0
M  V30 1760 H 173.941 6.25442 1.59665 0
M  V30 1761 H 174.709 8.15043 0.751509 0
M  V30 1762 N 177.372 -0.689602 1.41712 0
M  V30 1763 C 178.618 -1.45041 1.42599 0
M  V30 1764 C 178.973 -1.92366 0.0363764 0
M  V30 1765 O 178.266 -1.67022 -0.938844 0
M  V30 1766 C 178.46 -2.67298 2.37247 0
M  V30 1767 C 178.289 -2.31935 3.85274 0
M  V30 1768 C 177.059 -2.2201 4.53916 0
M  V30 1769 C 179.257 -1.94526 4.76093 0
M  V30 1770 N 177.239 -1.79594 5.87043 0
M  V30 1771 C 178.61 -1.62915 5.98213 0
M  V30 1772 C 180.665 -1.81388 4.63684 0
M  V30 1773 C 179.368 -1.19486 7.09306 0
M  V30 1774 C 181.394 -1.39364 5.74745 0
M  V30 1775 C 180.756 -1.08668 6.95967 0
M  V30 1776 H 176.855 -0.527806 0.577014 0
M  V30 1777 H 179.439 -0.797266 1.77628 0
M  V30 1778 H 177.61 -3.30325 2.04304 0
M  V30 1779 H 179.342 -3.33806 2.28814 0
M  V30 1780 H 176.097 -2.406 4.07932 0
M  V30 1781 H 176.521 -1.60851 6.57614 0
M  V30 1782 H 181.163 -2.03772 3.70455 0
M  V30 1783 H 178.881 -0.958477 8.02396 0
M  V30 1784 H 182.467 -1.2974 5.6715 0
M  V30 1785 H 181.347 -0.766417 7.80446 0
M  V30 1786 N 178.85 -1.27639 -0.924453 0
M  V30 1787 C 180.261 -1.12834 -1.48746 0
M  V30 1788 C 180.612 0.285505 -1.94112 0
M  V30 1789 O 179.737 1.17874 -1.81479 0
M  V30 1790 C 180.332 -2.04217 -2.70334 0
M  V30 1791 C 178.891 -1.93509 -3.22848 0
M  V30 1792 C 178.038 -1.96583 -1.95577 0
M  V30 1793 H 180.989 -1.40484 -0.738233 0
M  V30 1794 H 181.01 -1.59989 -3.4523 0
M  V30 1795 H 180.522 -3.07111 -2.37285 0
M  V30 1796 H 178.623 -0.936131 -3.60649 0
M  V30 1797 H 178.736 -2.79917 -3.88823 0
M  V30 1798 H 177.1 -1.4085 -2.12211 0
M  V30 1799 H 177.883 -3.01137 -1.64837 0
M  V30 1800 N 180.328 1.1314 -1.09713 0
M  V30 1801 C 181.577 1.83838 -0.829851 0
M  V30 1802 C 181.89 1.84599 0.646728 0
M  V30 1803 O 183.096 2.51218 1.02965 0
M  V30 1804 C 181.552 3.30069 -1.43466 0
M  V30 1805 C 181.16 3.37688 -2.94399 0
M  V30 1806 C 182.904 4.05788 -1.24645 0
M  V30 1807 C 180.811 4.78209 -3.47952 0
M  V30 1808 H 179.741 0.68877 -0.306777 0
M  V30 1809 H 182.392 1.27448 -1.3202 0
M  V30 1810 H 180.774 3.8628 -0.871996 0
M  V30 1811 H 181.948 2.91456 -3.56918 0
M  V30 1812 H 180.263 2.75436 -3.12289 0
M  V30 1813 H 182.86 5.09535 -1.62107 0
M  V30 1814 H 183.203 4.15878 -0.187357 0
M  V30 1815 H 183.736 3.55915 -1.77678 0
M  V30 1816 H 180.475 4.73311 -4.53495 0
M  V30 1817 H 179.995 5.24924 -2.90198 0
M  V30 1818 H 181.674 5.47133 -3.45332 0
M  V30 1819 N 181.806 0.884767 1.30421 0
M  V30 1820 C 182.716 0.355398 2.31892 0
M  V30 1821 C 183.732 -0.542261 1.65335 0
M  V30 1822 O 184.908 -0.435432 1.96637 0
M  V30 1823 C 181.973 -0.421661 3.44126 0
M  V30 1824 C 181.034 0.505727 4.26311 0
M  V30 1825 C 180.267 -0.234343 5.33185 0
M  V30 1826 O 180.49 -1.46045 5.51386 0
M  V30 1827 O 179.424 0.415443 6.00465 0
M  V30 1828 H 183.25 1.19685 2.79122 0
M  V30 1829 H 180.835 0.648596 1.34587 0
M  V30 1830 H 182.717 -0.861641 4.12497 0
M  V30 1831 H 181.392 -1.23942 2.99032 0
M  V30 1832 H 180.299 0.994513 3.60639 0
M  V30 1833 H 181.632 1.28948 4.75009 0
M  V30 1834 N 183.284 -1.43765 0.645699 0
M  V30 1835 C 184.532 -2.01499 0.155731 0
M  V30 1836 C 184.853 -1.51151 -1.232 0
M  V30 1837 O 184.123 -0.721044 -1.82148 0
M  V30 1838 H 182.703 -0.745003 0.0545817 0
M  V30 1839 H 185.365 -1.76075 0.835677 0
M  V30 1840 H 184.461 -3.1181 0.134577 0
M  V30 1841 N 184.763 -0.387143 -1.52771 0
M  V30 1842 C 185.993 0.195585 -2.05672 0
M  V30 1843 C 186.401 1.41241 -1.25887 0
M  V30 1844 O 185.744 1.81265 -0.298081 0
M  V30 1845 C 185.806 0.632327 -3.53895 0
M  V30 1846 C 185.47 -0.470739 -4.54569 0
M  V30 1847 C 186.467 -1.32746 -5.02667 0
M  V30 1848 C 184.152 -0.637151 -4.98243 0
M  V30 1849 C 186.146 -2.33574 -5.93061 0
M  V30 1850 C 183.833 -1.64877 -5.88438 0
M  V30 1851 C 184.831 -2.49649 -6.35739 0
M  V30 1852 O 184.519 -3.49082 -7.24153 0
M  V30 1853 H 184.251 0.033658 -0.675162 0
M  V30 1854 H 186.805 -0.550221 -1.97893 0
M  V30 1855 H 185.035 1.43008 -3.59285 0
M  V30 1856 H 186.724 1.14048 -3.89548 0
M  V30 1857 H 187.49 -1.21019 -4.69659 0
M  V30 1858 H 183.369 0.0129567 -4.60998 0
M  V30 1859 H 186.913 -2.99777 -6.29904 0
M  V30 1860 H 182.81 -1.76643 -6.2086 0
M  V30 1861 H 183.578 -3.45065 -7.42208 0
M  V30 1862 N 186.241 1.57166 -0.116904 0
M  V30 1863 C 187.518 1.86645 0.585049 0
M  V30 1864 C 187.898 1.0177 1.84949 0
M  V30 1865 O 187.246 0.0960379 2.28298 0
M  V30 1866 C 187.456 3.37736 0.879507 0
M  V30 1867 C 188.804 4.06289 1.23348 0
M  V30 1868 O 189.828 3.42743 0.969836 0
M  V30 1869 O 188.687 5.18455 1.7282 0
M  V30 1870 H 185.781 0.772593 0.295007 0
M  V30 1871 H 188.327 1.69025 -0.151249 0
M  V30 1872 H 187.099 3.91296 -0.0166136 0
M  V30 1873 H 186.722 3.6078 1.67103 0
M  V30 1874 N 187.719 -0.156864 1.56817 0
M  V30 1875 C 188.966 -0.871125 1.82805 0
M  V30 1876 C 189.294 -1.81611 0.696262 0
M  V30 1877 O 188.549 -1.93141 -0.315459 0
M  V30 1878 C 188.848 -1.68737 3.1506 0
M  V30 1879 C 188.514 -0.890045 4.42028 0
M  V30 1880 C 187.176 -0.670042 4.76512 0
M  V30 1881 C 189.528 -0.331769 5.20143 0
M  V30 1882 C 186.856 0.119104 5.86579 0
M  V30 1883 C 189.208 0.444365 6.31037 0
M  V30 1884 C 187.872 0.675035 6.64078 0
M  V30 1885 H 187.142 -0.318767 0.668931 0
M  V30 1886 H 189.789 -0.135274 1.91022 0
M  V30 1887 H 188.094 -2.49304 3.0225 0
M  V30 1888 H 189.791 -2.24331 3.3238 0
M  V30 1889 H 186.381 -1.07157 4.14988 0
M  V30 1890 H 190.565 -0.489043 4.93885 0
M  V30 1891 H 185.821 0.307417 6.10627 0
M  V30 1892 H 189.995 0.884139 6.90765 0
M  V30 1893 H 187.622 1.28839 7.49203 0
M  V30 1894 N 189.197 -1.51736 -0.425897 0
M  V30 1895 C 190.145 -1.74464 -1.53834 0
M  V30 1896 C 191.139 -0.611241 -1.57988 0
M  V30 1897 O 192.345 -0.792899 -1.61596 0
M  V30 1898 H 188.72 -0.551437 -0.511293 0
M  V30 1899 H 190.691 -2.67694 -1.31843 0
M  V30 1900 C 189.44 -1.8972 -2.91379 0
M  V30 1901 H 188.763 -2.76344 -2.88919 0
M  V30 1902 H 190.203 -2.09629 -3.68553 0
M  V30 1903 C 188.662 -0.65992 -3.30374 0
M  V30 1904 O 189.192 0.180083 -4.01296 0
M  V30 1905 N 187.398 -0.500677 -2.86254 0
M  V30 1906 H 186.945 -1.18532 -2.28709 0
M  V30 1907 H 186.903 0.325903 -3.12706 0
M  V30 1908 N 190.675 0.682077 -1.42076 0
M  V30 1909 C 191.585 1.82535 -1.47371 0
M  V30 1910 C 192.601 1.7017 -0.363079 0
M  V30 1911 O 193.777 1.91848 -0.612875 0
M  V30 1912 C 190.842 3.18624 -1.36674 0
M  V30 1913 C 189.903 3.42999 -2.58167 0
M  V30 1914 C 189.136 4.72595 -2.4797 0
M  V30 1915 O 189.359 5.50006 -1.5116 0
M  V30 1916 O 188.293 4.98054 -3.37974 0
M  V30 1917 H 192.119 1.81023 -2.43853 0
M  V30 1918 H 189.704 0.836887 -1.2376 0
M  V30 1919 H 191.586 3.99847 -1.33043 0
M  V30 1920 H 190.261 3.20789 -0.433138 0
M  V30 1921 H 189.168 2.61653 -2.67373 0
M  V30 1922 H 190.501 3.45659 -3.50401 0
M  V30 1923 N 192.153 1.28127 0.917671 0
M  V30 1924 C 193.378 1.18007 1.70555 0
M  V30 1925 C 193.803 -0.258257 1.86319 0
M  V30 1926 O 193.161 -1.1869 1.37049 0
M  V30 1927 C 193.209 1.87948 3.07746 0
M  V30 1928 O 192.313 1.18427 3.9503 0
M  V30 1929 H 191.654 0.409867 0.522403 0
M  V30 1930 H 194.184 1.69379 1.1477 0
M  V30 1931 H 194.194 1.95701 3.58001 0
M  V30 1932 H 192.869 2.92573 2.95591 0
M  V30 1933 H 191.446 1.18811 3.53466 0
M  V30 1934 N 193.631 -1.12557 1.10312 0
M  V30 1935 C 194.578 -2.18247 0.750781 0
M  V30 1936 C 195.548 -1.63853 -0.272293 0
M  V30 1937 O 196.733 -1.90195 -0.151862 0
M  V30 1938 C 193.873 -3.44591 0.187379 0
M  V30 1939 C 192.986 -4.13046 1.2656 0
M  V30 1940 C 192.121 -5.27034 0.663978 0
M  V30 1941 C 191.16 -5.87353 1.72287 0
M  V30 1942 N 190.297 -6.92757 1.1416 0
M  V30 1943 H 195.137 -2.47732 1.65628 0
M  V30 1944 H 192.674 -1.21629 0.827337 0
M  V30 1945 H 194.632 -4.16904 -0.157148 0
M  V30 1946 H 193.262 -3.15527 -0.681355 0
M  V30 1947 H 192.314 -3.38924 1.72727 0
M  V30 1948 H 193.626 -4.53947 2.06721 0
M  V30 1949 H 192.78 -6.06104 0.268824 0
M  V30 1950 H 191.519 -4.87407 -0.169082 0
M  V30 1951 H 190.524 -5.06971 2.12746 0
M  V30 1952 H 191.749 -6.29051 2.55875 0
M  V30 1953 H 189.695 -6.5517 0.329984 0
M  V30 1954 H 189.612 -7.3225 1.88007 0
M  V30 1955 H 190.88 -7.75658 0.772956 0
M  V30 1956 N 195.109 -0.891671 -1.2995 0
M  V30 1957 C 196.072 -0.36828 -2.26222 0
M  V30 1958 C 197.072 0.493014 -1.53056 0
M  V30 1959 O 198.262 0.299213 -1.71611 0
M  V30 1960 C 195.394 0.47442 -3.37583 0
M  V30 1961 H 196.587 -1.21844 -2.74033 0
M  V30 1962 H 194.14 -0.669107 -1.41254 0
M  V30 1963 H 194.875 1.34489 -2.95099 0
M  V30 1964 H 194.66 -0.142615 -3.91841 0
M  V30 1965 H 196.15 0.83218 -4.09224 0
M  V30 1966 N 196.587 1.43421 -0.653314 0
M  V30 1967 C 197.833 2.02111 -0.166992 0
M  V30 1968 C 198.166 1.51423 1.21592 0
M  V30 1969 O 197.441 0.707389 1.8118 0
M  V30 1970 C 197.724 3.5966 -0.177948 0
M  V30 1971 C 197.577 4.20579 -1.59478 0
M  V30 1972 C 198.896 4.37413 0.4856 0
M  V30 1973 H 196.015 0.734374 -0.0621557 0
M  V30 1974 H 198.657 1.70717 -0.834016 0
M  V30 1975 H 196.807 3.86537 0.390032 0
M  V30 1976 H 198.479 4.04732 -2.21336 0
M  V30 1977 H 196.722 3.77226 -2.14204 0
M  V30 1978 H 197.393 5.29665 -1.5543 0
M  V30 1979 H 199.869 4.161 0.00234528 0
M  V30 1980 H 198.745 5.47075 0.447207 0
M  V30 1981 H 199.006 4.13672 1.55974 0
M  V30 1982 N 198.065 0.39524 1.52563 0
M  V30 1983 C 199.481 0.0454682 1.59535 0
M  V30 1984 C 199.681 -1.44056 1.4089 0
M  V30 1985 O 198.737 -2.20579 1.22888 0
M  V30 1986 C 200.05 0.527963 2.96029 0
M  V30 1987 C 201.598 0.484733 3.09224 0
M  V30 1988 C 202.073 0.943512 4.48176 0
M  V30 1989 N 203.564 0.899765 4.54377 0
M  V30 1990 C 204.299 1.22609 5.60138 0
M  V30 1991 N 203.795 1.62319 6.73516 0
M  V30 1992 N 205.588 1.14696 5.50274 0
M  V30 1993 H 197.739 1.36261 1.62931 0
M  V30 1994 H 200.002 0.558887 0.765735 0
M  V30 1995 H 199.708 1.56607 3.14908 0
M  V30 1996 H 199.582 -0.0698056 3.77135 0
M  V30 1997 H 201.969 -0.544298 2.90037 0
M  V30 1998 H 202.05 1.11838 2.30056 0
M  V30 1999 H 201.694 1.9708 4.68104 0
M  V30 2000 H 201.624 0.286817 5.25818 0
M  V30 2001 H 204.115 0.607632 3.72983 0
M  V30 2002 H 204.428 1.85567 7.5019 0
M  V30 2003 H 202.773 1.66211 6.74833 0
M  V30 2004 H 205.964 0.835701 4.6058 0
M  V30 2005 H 206.137 1.40459 6.32594 0
M  V30 2006 N 199.544 -1.57102 0.125237 0
M  V30 2007 C 200.492 -2.16905 -0.839927 0
M  V30 2008 C 201.486 -1.11998 -1.27094 0
M  V30 2009 O 202.692 -1.3029 -1.24195 0
M  V30 2010 H 199.067 -0.694252 -0.288995 0
M  V30 2011 H 201.038 -2.96774 -0.311115 0
M  V30 2012 C 199.787 -2.78795 -2.07771 0
M  V30 2013 H 199.11 -3.59221 -1.755 0
M  V30 2014 H 200.55 -3.2417 -2.73295 0
M  V30 2015 C 199.009 -1.76193 -2.87155 0
M  V30 2016 O 199.539 -1.21909 -3.82755 0
M  V30 2017 N 197.745 -1.45991 -2.51267 0
M  V30 2018 H 197.292 -1.90325 -1.73592 0
M  V30 2019 H 197.25 -0.775844 -3.04677 0
M  V30 2020 N 201.022 0.148545 -1.56898 0
M  V30 2021 C 201.97 1.20265 -1.99096 0
M  V30 2022 C 202.964 1.44559 -0.883123 0
M  V30 2023 O 204.17 1.4487 -1.0683 0
M  V30 2024 H 200.545 0.404786 -0.63376 0
M  V30 2025 H 202.516 0.82004 -2.86911 0
M  V30 2026 C 201.265 2.52886 -2.3863 0
M  V30 2027 H 200.588 2.35021 -3.23427 0
M  V30 2028 H 202.028 3.25274 -2.7198 0
M  V30 2029 C 200.487 3.13315 -1.23837 0
M  V30 2030 O 201.017 3.98077 -0.538268 0
M  V30 2031 N 199.223 2.72742 -1.00301 0
M  V30 2032 H 198.77 2.03912 -1.5741 0
M  V30 2033 H 198.728 3.13507 -0.236838 0
M  V30 2034 N 202.5 1.5196 0.417844 0
M  V30 2035 C 203.432 1.70895 1.52733 0
M  V30 2036 C 204.445 0.589405 1.51756 0
M  V30 2037 O 205.634 0.864312 1.56179 0
M  V30 2038 C 202.734 1.72627 2.91639 0
M  V30 2039 C 201.907 3.01479 3.16905 0
M  V30 2040 C 200.966 2.95139 4.35637 0
M  V30 2041 O 199.992 3.69059 4.3334 0
M  V30 2042 N 201.194 2.12328 5.40275 0
M  V30 2043 H 203.959 2.66612 1.36888 0
M  V30 2044 H 201.52 1.50089 0.607037 0
M  V30 2045 H 203.512 1.65928 3.6912 0
M  V30 2046 H 202.082 0.844216 3.00985 0
M  V30 2047 H 201.302 3.21895 2.27546 0
M  V30 2048 H 202.59 3.86736 3.30625 0
M  V30 2049 H 201.988 1.51685 5.44985 0
M  V30 2050 H 200.545 2.11494 6.16534 0
M  V30 2051 N 203.978 -0.674533 1.42435 0
M  V30 2052 C 205.225 -1.43459 1.42919 0
M  V30 2053 C 205.553 -1.94446 0.0457312 0
M  V30 2054 O 204.808 -1.7132 -0.94593 0
M  V30 2055 C 205.107 -2.64767 2.40069 0
M  V30 2056 C 204.773 -2.3232 3.86443 0
M  V30 2057 C 203.435 -2.23182 4.26314 0
M  V30 2058 C 205.787 -2.05977 4.78773 0
M  V30 2059 C 203.115 -1.85827 5.56494 0
M  V30 2060 C 205.467 -1.70125 6.09295 0
M  V30 2061 C 204.131 -1.59498 6.48164 0
M  V30 2062 H 203.401 -0.524952 0.522978 0
M  V30 2063 H 206.048 -0.769097 1.75377 0
M  V30 2064 H 204.353 -3.36349 2.00939 0
M  V30 2065 H 206.05 -3.22949 2.37707 0
M  V30 2066 H 202.64 -2.40334 3.54877 0
M  V30 2067 H 206.824 -2.11969 4.48757 0
M  V30 2068 H 202.08 -1.76168 5.8547 0
M  V30 2069 H 206.254 -1.48767 6.80324 0
M  V30 2070 H 203.881 -1.30322 7.48946 0
M  V30 2071 N 205.456 -1.28612 -0.910864 0
M  V30 2072 C 206.702 -1.16106 -1.66274 0
M  V30 2073 C 207.035 0.289113 -1.92036 0
M  V30 2074 O 206.31 1.21 -1.52281 0
M  V30 2075 C 206.593 -1.96309 -3.01885 0
M  V30 2076 C 206.446 -3.49405 -2.8326 0
M  V30 2077 C 207.765 -1.78076 -4.02463 0
M  V30 2078 H 204.884 -0.423152 -0.603417 0
M  V30 2079 H 207.526 -1.57961 -1.05586 0
M  V30 2080 H 205.676 -1.60742 -3.53687 0
M  V30 2081 H 207.348 -3.94894 -2.38446 0
M  V30 2082 H 205.591 -3.74893 -2.18261 0
M  V30 2083 H 206.262 -4.00784 -3.79574 0
M  V30 2084 H 208.738 -2.0912 -3.59733 0
M  V30 2085 H 207.614 -2.36561 -4.95308 0
M  V30 2086 H 207.875 -0.733008 -4.35981 0
M  V30 2087 N 206.934 1.1197 -1.10907 0
M  V30 2088 C 208.182 1.83225 -0.852819 0
M  V30 2089 C 208.503 1.84769 0.623341 0
M  V30 2090 O 207.773 1.3143 1.45269 0
M  V30 2091 H 206.353 0.67849 -0.312507 0
M  V30 2092 H 209.015 1.3556 -1.40033 0
M  V30 2093 H 208.111 2.87265 -1.22005 0
M  V30 2094 N 208.412 0.89855 1.29475 0
M  V30 2095 C 209.342 0.39201 2.30186 0
M  V30 2096 C 210.323 -0.532359 1.61555 0
M  V30 2097 O 211.508 -0.443331 1.89072 0
M  V30 2098 C 208.638 -0.382353 3.45189 0
M  V30 2099 C 207.592 0.451483 4.25612 0
M  V30 2100 C 206.918 -0.450307 5.328 0
M  V30 2101 C 208.218 1.70079 4.93832 0
M  V30 2102 H 209.912 1.23362 2.72804 0
M  V30 2103 H 207.458 0.594638 1.31149 0
M  V30 2104 H 209.411 -0.747451 4.14718 0
M  V30 2105 H 208.135 -1.25774 3.01411 0
M  V30 2106 H 206.794 0.798897 3.57789 0
M  V30 2107 H 206.442 -1.32379 4.85268 0
M  V30 2108 H 206.142 0.103902 5.87508 0
M  V30 2109 H 207.666 -0.811623 6.05182 0
M  V30 2110 H 209.08 1.40549 5.55805 0
M  V30 2111 H 207.477 2.19623 5.58467 0
M  V30 2112 H 208.547 2.43744 4.19186 0
M  V30 2113 N 209.89 -1.43072 0.660911 0
M  V30 2114 C 210.853 -2.29194 -0.0166406 0
M  V30 2115 C 211.853 -1.42609 -0.742912 0
M  V30 2116 O 213.043 -1.64155 -0.583004 0
M  V30 2117 C 210.175 -3.24831 -1.0343 0
M  V30 2118 H 211.368 -2.90596 0.741208 0
M  V30 2119 H 208.921 -1.5048 0.422532 0
M  V30 2120 H 209.656 -2.68339 -1.82111 0
M  V30 2121 H 209.441 -3.88676 -0.517082 0
M  V30 2122 H 210.931 -3.89451 -1.50723 0
M  V30 2123 N 211.368 -0.403325 -1.52352 0
M  V30 2124 C 212.617 0.175668 -2.00934 0
M  V30 2125 C 212.93 1.46718 -1.29356 0
M  V30 2126 O 214.136 2.12708 -1.68724 0
M  V30 2127 C 212.592 0.363612 -3.58058 0
M  V30 2128 C 212.2 -0.915472 -4.38547 0
M  V30 2129 C 213.944 0.89821 -4.14888 0
M  V30 2130 C 211.851 -0.695035 -5.87302 0
M  V30 2131 H 210.781 0.0694234 -0.750797 0
M  V30 2132 H 213.432 -0.527879 -1.75743 0
M  V30 2133 H 211.814 1.12935 -3.79555 0
M  V30 2134 H 212.988 -1.68691 -4.28812 0
M  V30 2135 H 211.303 -1.37606 -3.93006 0
M  V30 2136 H 213.9 1.07907 -5.23699 0
M  V30 2137 H 214.243 1.87126 -3.71873 0
M  V30 2138 H 214.776 0.191681 -3.97338 0
M  V30 2139 H 211.515 -1.63948 -6.34666 0
M  V30 2140 H 211.035 0.0372116 -5.99788 0
M  V30 2141 H 212.714 -0.33497 -6.46132 0
M  V30 2142 N 212.846 1.57033 -0.133567 0
M  V30 2143 C 214.123 1.87256 0.56522 0
M  V30 2144 C 214.503 1.03726 1.83859 0
M  V30 2145 O 213.851 0.120247 2.28183 0
M  V30 2146 C 214.061 3.3865 0.843636 0
M  V30 2147 C 215.409 4.07574 1.19032 0
M  V30 2148 O 216.433 3.43752 0.933429 0
M  V30 2149 O 215.292 5.20259 1.67312 0
M  V30 2150 H 212.386 0.775678 0.286796 0
M  V30 2151 H 214.932 1.68855 -0.169168 0
M  V30 2152 H 213.704 3.91257 -0.0581149 0
M  V30 2153 H 213.327 3.62532 1.63268 0
M  V30 2154 N 214.325 -0.140222 1.56975 0
M  V30 2155 C 215.235 -1.19223 2.02047 0
M  V30 2156 C 216.251 -1.46612 0.937062 0
M  V30 2157 O 217.427 -1.58148 1.24704 0
M  V30 2158 C 214.492 -2.50414 2.39778 0
M  V30 2159 C 213.553 -2.30612 3.621 0
M  V30 2160 C 212.786 -3.55547 3.98023 0
M  V30 2161 O 213.009 -4.62004 3.34528 0
M  V30 2162 O 211.943 -3.47808 4.91237 0
M  V30 2163 H 215.769 -0.839559 2.91865 0
M  V30 2164 H 213.354 -0.349453 1.45256 0
M  V30 2165 H 215.236 -3.27747 2.64877 0
M  V30 2166 H 213.911 -2.85198 1.53114 0
M  V30 2167 H 212.818 -1.51207 3.4218 0
M  V30 2168 H 214.151 -2.00741 4.49404 0
M  V30 2169 N 215.803 -1.52179 -0.40978 0
M  V30 2170 C 217.08 -1.56769 -1.16974 0
M  V30 2171 C 217.46 -0.348322 -2.08206 0
M  V30 2172 O 216.808 0.664862 -2.18613 0
M  V30 2173 C 217.018 -2.89603 -1.9476 0
M  V30 2174 C 218.366 -3.42579 -2.50849 0
M  V30 2175 O 219.39 -2.91338 -2.04941 0
M  V30 2176 O 218.249 -4.32054 -3.34652 0
M  V30 2177 H 215.343 -0.631439 -0.534054 0
M  V30 2178 H 217.889 -1.64507 -0.416613 0
M  V30 2179 H 216.661 -3.698 -1.27921 0
M  V30 2180 H 216.284 -2.85155 -2.77079 0
M  V30 2181 N 217.281 0.66697 -1.42791 0
M  V30 2182 C 218.229 1.80157 -1.47127 0
M  V30 2183 C 219.223 1.65825 -0.346199 0
M  V30 2184 O 220.429 1.72338 -0.519572 0
M  V30 2185 H 216.804 0.594158 -0.460956 0
M  V30 2186 H 218.775 1.73619 -2.42692 0
M  V30 2187 C 217.524 3.18351 -1.39813 0
M  V30 2188 H 216.847 3.3001 -2.25684 0
M  V30 2189 H 218.287 3.97736 -1.46908 0
M  V30 2190 C 216.746 3.36707 -0.11391 0
M  V30 2191 O 217.276 3.93027 0.830241 0
M  V30 2192 N 215.482 2.90586 -0.0285295 0
M  V30 2193 H 215.029 2.4494 -0.79764 0
M  V30 2194 H 214.987 3.03245 0.830063 0
M  V30 2195 N 218.759 1.29093 0.90403 0
M  V30 2196 C 219.691 1.09658 2.01266 0
M  V30 2197 C 220.704 0.0453729 1.62737 0
M  V30 2198 O 221.893 0.289446 1.76138 0
M  V30 2199 C 218.993 0.646278 3.32681 0
M  V30 2200 C 218.166 1.77505 3.99763 0
M  V30 2201 C 217.225 1.31649 5.09465 0
M  V30 2202 O 216.251 2.02045 5.32134 0
M  V30 2203 N 217.453 0.184997 5.80205 0
M  V30 2204 H 220.218 2.05135 2.18494 0
M  V30 2205 H 217.779 1.20975 1.07594 0
M  V30 2206 H 219.771 0.322906 4.0341 0
M  V30 2207 H 218.341 -0.215916 3.11853 0
M  V30 2208 H 217.561 2.26752 3.22455 0
M  V30 2209 H 218.849 2.53198 4.41325 0
M  V30 2210 H 218.247 -0.402021 5.6427 0
M  V30 2211 H 216.804 -0.0790358 6.51752 0
M  V30 2212 N 220.237 -1.11381 1.11499 0
M  V30 2213 C 221.648 -1.6465 0.880191 0
M  V30 2214 C 221.999 -1.87199 -0.587434 0
M  V30 2215 O 221.124 -1.60667 -1.44966 0
M  V30 2216 C 221.719 -2.99105 1.59128 0
M  V30 2217 C 220.278 -3.49279 1.40289 0
M  V30 2218 C 219.425 -2.24077 1.63354 0
M  V30 2219 H 222.376 -0.950123 1.27116 0
M  V30 2220 H 222.397 -3.66107 1.03664 0
M  V30 2221 H 221.909 -2.82661 2.65941 0
M  V30 2222 H 220.01 -3.70887 0.356888 0
M  V30 2223 H 220.123 -4.2803 2.15238 0
M  V30 2224 H 218.487 -2.31733 1.05698 0
M  V30 2225 H 219.27 -2.10175 2.71443 0
M  V30 2226 N 221.715 -0.905404 -1.28997 0
M  V30 2227 C 222.992 -0.453513 -1.9027 0
M  V30 2228 C 223.372 1.06721 -1.82137 0
M  V30 2229 O 222.72 1.91159 -1.25182 0
M  V30 2230 C 222.93 -0.974494 -3.35119 0
M  V30 2231 C 224.278 -1.0216 -4.12127 0
M  V30 2232 O 225.302 -0.922557 -3.44046 0
M  V30 2233 O 224.161 -1.17121 -5.33802 0
M  V30 2234 H 221.255 -0.142347 -0.814657 0
M  V30 2235 H 223.801 -0.995642 -1.37423 0
M  V30 2236 H 222.573 -2.01848 -3.35221 0
M  V30 2237 H 222.196 -0.412706 -3.95452 0
M  V30 2238 N 223.193 1.4272 -0.668489 0
M  V30 2239 C 224.123 2.335 -0.000100175 0
M  V30 2240 C 225.104 1.50328 0.795964 0
M  V30 2241 O 226.289 1.78949 0.754385 0
M  V30 2242 C 223.419 3.33874 0.956302 0
M  V30 2243 C 222.373 4.27152 0.269278 0
M  V30 2244 C 221.699 5.17684 1.33818 0
M  V30 2245 C 222.999 5.15373 -0.847805 0
M  V30 2246 H 224.693 2.89639 -0.758244 0
M  V30 2247 H 222.239 1.39269 -0.366079 0
M  V30 2248 H 224.192 3.9629 1.43292 0
M  V30 2249 H 222.916 2.76025 1.74579 0
M  V30 2250 H 221.575 3.66123 -0.187042 0
M  V30 2251 H 221.223 4.56165 2.1195 0
M  V30 2252 H 220.923 5.80918 0.883659 0
M  V30 2253 H 222.447 5.82974 1.81586 0
M  V30 2254 H 223.861 5.7151 -0.452681 0
M  V30 2255 H 222.258 5.87407 -1.22773 0
M  V30 2256 H 223.328 4.5415 -1.69929 0
M  V30 2257 N 224.671 0.411399 1.52136 0
M  V30 2258 C 225.899 -0.163076 2.06256 0
M  V30 2259 C 226.314 -1.3867 1.28125 0
M  V30 2260 O 225.671 -1.79423 0.333721 0
M  V30 2261 C 225.722 -0.511252 3.57867 0
M  V30 2262 O 225.443 0.66378 4.33042 0
M  V30 2263 C 226.944 -1.13921 4.28412 0
M  V30 2264 H 224.164 -0.0193897 0.67072 0
M  V30 2265 H 226.708 0.583007 1.96013 0
M  V30 2266 H 224.863 -1.20723 3.6811 0
M  V30 2267 H 225.277 0.372601 5.23175 0
M  V30 2268 H 226.751 -1.33302 5.35663 0
M  V30 2269 H 227.228 -2.11296 3.85033 0
M  V30 2270 H 227.834 -0.483373 4.22544 0
M  V30 2271 N 226.149 -1.5696 0.141893 0
M  V30 2272 C 227.096 -2.16501 -0.799737 0
M  V30 2273 C 228.066 -1.09643 -1.24771 0
M  V30 2274 O 229.251 -1.3766 -1.32115 0
M  V30 2275 C 226.391 -2.78679 -2.03549 0
M  V30 2276 C 225.504 -3.99914 -1.6338 0
M  V30 2277 C 224.639 -4.50106 -2.82096 0
M  V30 2278 C 223.678 -5.63819 -2.38275 0
M  V30 2279 N 222.815 -6.08651 -3.49983 0
M  V30 2280 H 227.655 -2.96632 -0.285179 0
M  V30 2281 H 225.192 -1.46533 -0.129053 0
M  V30 2282 H 227.15 -3.1287 -2.75986 0
M  V30 2283 H 225.78 -2.012 -2.52425 0
M  V30 2284 H 224.832 -3.71735 -0.807279 0
M  V30 2285 H 226.144 -4.82311 -1.27192 0
M  V30 2286 H 225.298 -4.86325 -3.62729 0
M  V30 2287 H 224.037 -3.66706 -3.21525 0
M  V30 2288 H 223.042 -5.2718 -1.56081 0
M  V30 2289 H 224.267 -6.49 -1.99938 0
M  V30 2290 H 222.213 -5.28188 -3.89042 0
M  V30 2291 H 222.13 -6.85961 -3.17794 0
M  V30 2292 H 223.398 -6.49515 -4.30988 0
M  V30 2293 N 227.627 0.131896 -1.57047 0
M  V30 2294 C 228.575 1.18146 -2.0036 0
M  V30 2295 C 229.569 1.43614 -0.898406 0
M  V30 2296 O 230.775 1.43729 -1.08361 0
M  V30 2297 H 227.15 0.398042 -0.638018 0
M  V30 2298 H 229.121 0.789564 -2.87765 0
M  V30 2299 C 227.87 2.50341 -2.41298 0
M  V30 2300 H 227.193 2.31578 -3.25902 0
M  V30 2301 H 228.633 3.22371 -2.75414 0
M  V30 2302 C 227.092 3.11984 -1.27153 0
M  V30 2303 O 227.622 3.97484 -0.580459 0
M  V30 2304 N 225.828 2.71662 -1.03189 0
M  V30 2305 H 225.375 2.02231 -1.59564 0
M  V30 2306 H 225.333 3.13238 -0.270077 0
M  V30 2307 N 229.106 1.52395 0.401703 0
M  V30 2308 C 230.522 1.41363 0.740864 0
M  V30 2309 C 230.722 0.523982 1.94568 0
M  V30 2310 O 229.778 -0.00741204 2.52499 0
M  V30 2311 C 231.091 2.84011 0.987847 0
M  V30 2312 C 232.639 2.93404 1.09011 0
M  V30 2313 C 233.114 4.37036 1.3698 0
M  V30 2314 N 234.605 4.40304 1.43829 0
M  V30 2315 C 235.34 5.48508 1.67112 0
M  V30 2316 N 234.836 6.66819 1.87949 0
M  V30 2317 N 236.629 5.36034 1.69187 0
M  V30 2318 H 228.78 2.08765 -0.391262 0
M  V30 2319 H 231.043 0.941265 -0.112798 0
M  V30 2320 H 230.749 3.51265 0.174835 0
M  V30 2321 H 230.623 3.25502 1.906 0
M  V30 2322 H 233.01 2.26325 1.8937 0
M  V30 2323 H 233.091 2.55359 0.15015 0
M  V30 2324 H 232.735 5.04676 0.571353 0
M  V30 2325 H 232.665 4.72623 2.3224 0
M  V30 2326 H 235.156 3.55024 1.29486 0
M  V30 2327 H 235.469 7.45063 2.05185 0
M  V30 2328 H 233.814 6.6987 1.85199 0
M  V30 2329 H 237.005 4.42579 1.52451 0
M  V30 2330 H 237.178 6.20434 1.86993 0
M  V30 2331 N 230.584 -0.659388 1.43143 0
M  V30 2332 C 231.833 -1.41518 1.43721 0
M  V30 2333 C 232.146 -1.95499 0.0628176 0
M  V30 2334 O 233.352 -2.71446 -0.0539683 0
M  V30 2335 C 231.808 -2.5608 2.52885 0
M  V30 2336 C 231.416 -2.08733 3.96402 0
M  V30 2337 C 233.16 -3.3349 2.62649 0
M  V30 2338 C 231.067 -3.20469 4.97045 0
M  V30 2339 H 229.997 -0.531705 0.534608 0
M  V30 2340 H 232.648 -0.712343 1.69109 0
M  V30 2341 H 231.03 -3.28805 2.20688 0
M  V30 2342 H 232.204 -1.43059 4.3803 0
M  V30 2343 H 230.519 -1.44219 3.90627 0
M  V30 2344 H 233.116 -4.16734 3.35017 0
M  V30 2345 H 233.459 -3.8111 1.67513 0
M  V30 2346 H 233.992 -2.67842 2.94118 0
M  V30 2347 H 230.731 -2.77824 5.93712 0
M  V30 2348 H 230.251 -3.84874 4.60034 0
M  V30 2349 H 231.93 -3.85698 5.19467 0
M  V30 2350 N 232.062 -1.29571 -0.897171 0
M  V30 2351 C 233.009 -1.14916 -2.00158 0
M  V30 2352 C 233.979 -0.0418149 -1.66047 0
M  V30 2353 O 235.164 -0.209793 -1.89643 0
M  V30 2354 C 232.304 -0.834307 -3.34863 0
M  V30 2355 C 231.417 -2.02234 -3.8174 0
M  V30 2356 C 230.552 -1.64664 -5.05034 0
M  V30 2357 C 229.591 -2.80033 -5.44286 0
M  V30 2358 N 228.728 -2.42843 -6.58765 0
M  V30 2359 H 233.568 -2.09403 -2.12025 0
M  V30 2360 H 231.105 -1.042 -1.0383 0
M  V30 2361 H 233.063 -0.632436 -4.12379 0
M  V30 2362 H 231.693 0.0736656 -3.22716 0
M  V30 2363 H 230.745 -2.33583 -3.00238 0
M  V30 2364 H 232.057 -2.88673 -4.06779 0
M  V30 2365 H 231.211 -1.4078 -5.9014 0
M  V30 2366 H 229.95 -0.753766 -4.8184 0
M  V30 2367 H 228.955 -3.04596 -4.57713 0
M  V30 2368 H 230.18 -3.69989 -5.6946 0
M  V30 2369 H 228.126 -1.56046 -6.3717 0
M  V30 2370 H 228.043 -3.22815 -6.83613 0
M  V30 2371 H 229.311 -2.22285 -7.47134 0
M  V30 2372 N 233.54 1.10788 -1.12088 0
M  V30 2373 C 234.768 1.86461 -0.896651 0
M  V30 2374 C 235.183 1.80492 0.553912 0
M  V30 2375 O 234.54 1.19102 1.38278 0
M  V30 2376 C 234.591 3.35006 -1.35843 0
M  V30 2377 O 234.312 3.40866 -2.75213 0
M  V30 2378 C 235.813 4.27565 -1.1706 0
M  V30 2379 H 233.033 0.589425 -0.320654 0
M  V30 2380 H 235.577 1.40076 -1.48993 0
M  V30 2381 H 233.732 3.7887 -0.808458 0
M  V30 2382 H 234.146 4.33411 -2.9539 0
M  V30 2383 H 235.62 5.30007 -1.54263 0
M  V30 2384 H 236.097 4.3906 -0.110814 0
M  V30 2385 H 236.703 3.89501 -1.70789 0
M  V30 2386 N 235.018 0.912232 1.28515 0
M  V30 2387 C 236.264 0.554851 1.95686 0
M  V30 2388 C 236.619 -0.89138 1.70506 0
M  V30 2389 O 235.912 -1.62529 1.01464 0
M  V30 2390 C 236.106 0.798392 3.48368 0
M  V30 2391 C 235.935 2.26674 3.88393 0
M  V30 2392 C 234.705 2.91657 4.12631 0
M  V30 2393 C 236.903 3.24303 3.99164 0
M  V30 2394 N 234.885 4.28805 4.39317 0
M  V30 2395 C 236.256 4.4661 4.30046 0
M  V30 2396 C 238.311 3.19723 3.81683 0
M  V30 2397 C 237.014 5.64915 4.45268 0
M  V30 2398 C 239.04 4.37325 3.98121 0
M  V30 2399 C 238.402 5.58406 4.29375 0
M  V30 2400 H 234.501 0.252876 0.739985 0
M  V30 2401 H 237.085 1.17565 1.55199 0
M  V30 2402 H 235.256 0.20688 3.87849 0
M  V30 2403 H 236.988 0.405193 4.02666 0
M  V30 2404 H 233.743 2.42393 4.06869 0
M  V30 2405 H 234.167 4.99712 4.56746 0
M  V30 2406 H 238.809 2.27191 3.56573 0
M  V30 2407 H 236.527 6.57927 4.6921 0
M  V30 2408 H 240.113 4.35282 3.86033 0
M  V30 2409 H 238.993 6.47889 4.41825 0
M  V30 2410 N 236.496 -1.42363 0.676048 0
M  V30 2411 C 237.742 -2.0182 0.199125 0
M  V30 2412 C 238.075 -1.53339 -1.19168 0
M  V30 2413 O 237.35 -0.736124 -1.80032 0
M  V30 2414 C 237.633 -3.59331 0.235144 0
M  V30 2415 C 237.486 -4.17989 1.66149 0
M  V30 2416 C 238.805 -4.3813 -0.41595 0
M  V30 2417 H 235.924 -0.733293 0.0738311 0
M  V30 2418 H 238.566 -1.69368 0.86107 0
M  V30 2419 H 236.716 -3.87109 -0.328487 0
M  V30 2420 H 238.388 -4.0116 2.27747 0
M  V30 2421 H 236.631 -3.7377 2.20178 0
M  V30 2422 H 237.302 -5.27126 1.63837 0
M  V30 2423 H 239.778 -4.16051 0.0638529 0
M  V30 2424 H 238.654 -5.47717 -0.360115 0
M  V30 2425 H 238.915 -4.16101 -1.49373 0
M  V30 2426 N 237.974 -0.419461 -1.51915 0
M  V30 2427 C 239.199 0.154572 -2.06823 0
M  V30 2428 C 239.624 1.3722 -1.28656 0
M  V30 2429 O 238.982 1.78461 -0.319583 0
M  V30 2430 C 239.03 0.473172 -3.57482 0
M  V30 2431 O 238.134 1.56255 -3.81652 0
M  V30 2432 H 237.475 0.0096924 -0.663929 0
M  V30 2433 H 240.005 -0.595642 -1.95738 0
M  V30 2434 H 240.015 0.728825 -4.01438 0
M  V30 2435 H 238.69 -0.416873 -4.13805 0
M  V30 2436 H 237.267 1.29825 -3.49571 0
M  V30 2437 N 239.452 1.56882 -0.150215 0
M  V30 2438 C 240.384 2.14057 0.819286 0
M  V30 2439 C 241.397 1.09082 1.20851 0
M  V30 2440 O 242.586 1.36347 1.15203 0
M  V30 2441 C 239.686 2.65102 2.11127 0
M  V30 2442 C 238.859 3.94511 1.88891 0
M  V30 2443 C 237.918 4.30834 3.02107 0
M  V30 2444 O 236.944 4.99099 2.73659 0
M  V30 2445 N 238.146 3.90676 4.29363 0
M  V30 2446 H 240.911 2.97871 0.330618 0
M  V30 2447 H 238.472 1.61866 0.0332538 0
M  V30 2448 H 240.464 2.86411 2.85921 0
M  V30 2449 H 239.034 1.85994 2.51247 0
M  V30 2450 H 238.254 3.81795 0.981152 0
M  V30 2451 H 239.542 4.7907 1.71376 0
M  V30 2452 H 238.94 3.35677 4.55343 0
M  V30 2453 H 237.497 4.1703 5.00928 0
M  V30 2454 N 240.93 -0.123565 1.57115 0
M  V30 2455 C 241.86 -1.15309 2.03042 0
M  V30 2456 C 242.841 -1.43454 0.914061 0
M  V30 2457 O 244.026 -1.53973 1.18347 0
M  V30 2458 C 241.156 -2.48043 2.43089 0
M  V30 2459 C 240.11 -2.3437 3.58127 0
M  V30 2460 C 239.436 -3.72026 3.84059 0
M  V30 2461 C 240.736 -1.80804 4.90007 0
M  V30 2462 H 242.43 -0.771102 2.893 0
M  V30 2463 H 239.976 -0.369479 1.39179 0
M  V30 2464 H 241.929 -3.20311 2.73823 0
M  V30 2465 H 240.653 -2.88122 1.53796 0
M  V30 2466 H 239.312 -1.64551 3.27595 0
M  V30 2467 H 238.96 -4.09582 2.91979 0
M  V30 2468 H 238.66 -3.63732 4.6149 0
M  V30 2469 H 240.184 -4.45806 4.1724 0
M  V30 2470 H 241.598 -2.42886 5.19307 0
M  V30 2471 H 239.995 -1.83343 5.71407 0
M  V30 2472 H 241.065 -0.76528 4.78823 0
M  V30 2473 N 242.408 -1.52605 -0.393616 0
M  V30 2474 C 243.355 -1.77055 -1.48054 0
M  V30 2475 C 244.325 -0.61358 -1.54352 0
M  V30 2476 O 245.51 -0.852806 -1.70681 0
M  V30 2477 C 242.65 -1.94108 -2.85335 0
M  V30 2478 C 241.763 -3.21792 -2.88226 0
M  V30 2479 C 240.898 -3.29188 -4.16904 0
M  V30 2480 C 239.937 -4.51013 -4.13828 0
M  V30 2481 N 239.074 -4.55716 -5.34105 0
M  V30 2482 H 243.914 -2.69815 -1.26506 0
M  V30 2483 H 241.451 -1.33683 -0.61379 0
M  V30 2484 H 243.409 -2.01979 -3.65049 0
M  V30 2485 H 242.039 -1.04713 -3.05344 0
M  V30 2486 H 241.091 -3.23015 -2.00911 0
M  V30 2487 H 242.403 -4.11557 -2.8182 0
M  V30 2488 H 241.557 -3.36216 -5.05018 0
M  V30 2489 H 240.296 -2.37389 -4.26026 0
M  V30 2490 H 239.301 -4.44115 -3.24102 0
M  V30 2491 H 240.526 -5.44123 -4.06333 0
M  V30 2492 H 238.472 -3.66807 -5.43865 0
M  V30 2493 H 238.389 -5.39346 -5.29756 0
M  V30 2494 H 239.657 -4.66993 -6.2413 0
M  V30 2495 N 243.887 0.651787 -1.4349 0
M  V30 2496 C 245.112 1.44434 -1.48841 0
M  V30 2497 C 245.537 1.8779 -0.107955 0
M  V30 2498 O 244.895 1.57464 0.898602 0
M  V30 2499 C 244.943 2.65458 -2.44059 0
M  V30 2500 O 244.047 3.64566 -1.92784 0
M  V30 2501 H 243.388 0.433005 -0.503391 0
M  V30 2502 H 245.918 0.797451 -1.88419 0
M  V30 2503 H 245.928 3.13255 -2.6141 0
M  V30 2504 H 244.603 2.33244 -3.4434 0
M  V30 2505 H 243.18 3.23716 -1.851 0
M  V30 2506 N 245.365 1.30045 0.890287 0
M  V30 2507 C 246.275 1.17885 2.02831 0
M  V30 2508 C 247.291 0.0999609 1.73713 0
M  V30 2509 O 248.467 0.313867 1.98939 0
M  V30 2510 C 245.532 0.866079 3.35708 0
M  V30 2511 C 244.593 2.02979 3.78283 0
M  V30 2512 C 243.826 1.73184 5.0482 0
M  V30 2513 O 244.049 0.657237 5.66601 0
M  V30 2514 O 242.983 2.58267 5.43674 0
M  V30 2515 H 246.809 2.13474 2.16015 0
M  V30 2516 H 244.394 1.09587 1.01543 0
M  V30 2517 H 246.276 0.706623 4.15433 0
M  V30 2518 H 244.951 -0.0599443 3.23644 0
M  V30 2519 H 243.858 2.24454 2.99285 0
M  V30 2520 H 245.191 2.93734 3.94944 0
M  V30 2521 N 246.843 -1.10192 1.12674 0
M  V30 2522 C 248.09 -1.82205 0.883606 0
M  V30 2523 C 248.418 -1.8532 -0.590492 0
M  V30 2524 O 247.673 -1.31137 -1.45264 0
M  V30 2525 C 247.972 -3.28552 1.4067 0
M  V30 2526 C 247.638 -3.45582 2.89627 0
M  V30 2527 C 246.3 -3.49937 3.30299 0
M  V30 2528 C 248.652 -3.50768 3.85501 0
M  V30 2529 C 245.98 -3.57049 4.65546 0
M  V30 2530 C 248.332 -3.59414 5.20581 0
M  V30 2531 C 246.996 -3.62034 5.60792 0
M  V30 2532 H 246.266 -0.666735 0.323334 0
M  V30 2533 H 248.913 -1.29868 1.40736 0
M  V30 2534 H 247.218 -3.83473 0.80347 0
M  V30 2535 H 248.915 -3.82788 1.19475 0
M  V30 2536 H 245.505 -3.42871 2.57172 0
M  V30 2537 H 249.689 -3.46651 3.55171 0
M  V30 2538 H 244.945 -3.57361 4.96088 0
M  V30 2539 H 249.119 -3.62371 5.94693 0
M  V30 2540 H 246.746 -3.67298 6.6558 0
M  V30 2541 N 248.321 -0.919034 -1.28029 0
M  V30 2542 C 249.569 -0.553838 -1.94363 0
M  V30 2543 C 249.89 0.906357 -1.72656 0
M  V30 2544 O 249.16 1.64143 -1.0693 0
M  V30 2545 H 247.74 -0.201834 -0.719216 0
M  V30 2546 H 250.402 -1.16954 -1.55909 0
M  V30 2547 H 249.498 -0.752758 -3.02886 0
M  V30 2548 N 249.799 1.42003 -0.683588 0
M  V30 2549 C 250.729 2.33487 -0.024866 0
M  V30 2550 C 251.71 1.51163 0.779975 0
M  V30 2551 O 252.895 1.79739 0.735362 0
M  V30 2552 C 250.025 3.3487 0.920836 0
M  V30 2553 C 248.979 4.27414 0.223958 0
M  V30 2554 C 248.305 5.19074 1.2832 0
M  V30 2555 C 249.605 5.14445 -0.90242 0
M  V30 2556 H 251.299 2.88819 -0.788921 0
M  V30 2557 H 248.845 1.38873 -0.38083 0
M  V30 2558 H 250.798 3.97787 1.39081 0
M  V30 2559 H 249.522 2.77861 1.71642 0
M  V30 2560 H 248.181 3.65904 -0.225864 0
M  V30 2561 H 247.829 4.58387 2.071 0
M  V30 2562 H 247.529 5.81822 0.821995 0
M  V30 2563 H 249.053 5.84867 1.75392 0
M  V30 2564 H 250.467 5.70998 -0.513272 0
M  V30 2565 H 248.864 5.86072 -1.28997 0
M  V30 2566 H 249.934 4.52322 -1.74737 0
M  V30 2567 O 251.316 0.569597 1.51122 0
M  V30 2568 H 252.007 0.0705798 1.93571 0
M  V30 END ATOM
M  V30 BEGIN BOND
M  V30 END BOND
M  V30 END CTAB
M  END
$$$$
