drugbank_target|Q16720 Plasma membrane calcium-transporting ATPase 3 (DB01159)
 OpenBabel12092121233D

  0  0  0     0  0            999 V3000
M  V30 BEGIN CTAB
M  V30 COUNTS 18951 19119 0 0 0
M  V30 BEGIN ATOM
M  V30 1 H -0.908 1.98254 -0.117106 0
M  V30 2 N 0 1.576 0 0
M  V30 3 C 0.933 2.03868 1.02534 0
M  V30 4 C 1.911 0.928543 1.3348 0
M  V30 5 O 3.095 1.19667 1.45644 0
M  V30 6 C 0.222 2.43627 2.35294 0
M  V30 7 C -0.732 3.65373 2.2001 0
M  V30 8 S 0.101 5.13292 1.52614 0
M  V30 9 C 1.257 5.56322 2.86805 0
M  V30 10 H 1.49 2.90518 0.631377 0
M  V30 11 H -0.977 1.52953 0.210867 0
M  V30 12 H 0.981 2.67203 3.11629 0
M  V30 13 H -0.358 1.57376 2.7183 0
M  V30 14 H -1.165 3.90944 3.18086 0
M  V30 15 H -1.563 3.418 1.51819 0
M  V30 16 H 0.729 5.58782 3.83104 0
M  V30 17 H 1.672 6.56266 2.65933 0
M  V30 18 H 2.08 4.83886 2.90714 0
M  V30 19 N 1.4781 -0.272755 1.55222 0
M  V30 20 C 2.7261 -1.00234 1.75492 0
M  V30 21 C 3.0471 -1.8681 0.5592 0
M  V30 22 O 2.3171 -1.91215 -0.425882 0
M  V30 23 H 0.8971 -0.373076 0.647166 0
M  V30 24 H 3.5591 -0.296926 1.92625 0
M  V30 25 H 2.6551 -1.63913 2.65592 0
M  V30 26 N 2.9562 -1.48159 -0.537278 0
M  V30 27 C 4.2332 -1.46291 -1.29839 0
M  V30 28 C 4.6132 -0.170613 -2.10409 0
M  V30 29 O 3.9612 0.847746 -2.12192 0
M  V30 30 C 4.1712 -2.72055 -2.18603 0
M  V30 31 C 5.5192 -3.20087 -2.7898 0
M  V30 32 O 6.5432 -2.72921 -2.28894 0
M  V30 33 O 5.4022 -4.02138 -3.70064 0
M  V30 34 H 2.4962 -0.583906 -0.585647 0
M  V30 35 H 5.0422 -1.60384 -0.554534 0
M  V30 36 H 3.8142 -3.57628 -1.58801 0
M  V30 37 H 3.4372 -2.60646 -3.00249 0
M  V30 38 N 4.4343 0.785586 -1.36625 0
M  V30 39 C 5.3673 1.90509 -1.25625 0
M  V30 40 C 6.3453 1.62 -0.139607 0
M  V30 41 O 7.5293 1.8591 -0.31141 0
M  V30 42 C 4.6563 3.25419 -0.939158 0
M  V30 43 C 3.7023 3.72856 -2.07077 0
M  V30 44 S 4.5353 3.88162 -3.68904 0
M  V30 45 C 5.6913 5.25942 -3.39317 0
M  V30 46 H 5.9243 1.99549 -2.20381 0
M  V30 47 H 3.4573 0.945226 -1.22085 0
M  V30 48 H 5.4153 4.03346 -0.763029 0
M  V30 49 H 4.0763 3.14099 -0.00931402 0
M  V30 50 H 3.2693 4.70624 -1.80357 0
M  V30 51 H 2.8713 3.01989 -2.20632 0
M  V30 52 H 5.1633 6.10651 -2.93447 0
M  V30 53 H 6.1063 5.57668 -4.36363 0
M  V30 54 H 6.5143 4.93224 -2.74573 0
M  V30 55 N 5.9124 1.20967 1.01018 0
M  V30 56 C 6.8754 0.965918 2.07853 0
M  V30 57 C 7.8754 -0.0610545 1.60684 0
M  V30 58 O 9.0654 0.175681 1.73312 0
M  V30 59 C 6.1974 0.455513 3.37843 0
M  V30 60 H 7.3904 1.91365 2.3091 0
M  V30 61 H 4.9434 1.02594 1.17916 0
M  V30 62 H 5.6784 -0.497381 3.20463 0
M  V30 63 H 5.4634 1.19622 3.73407 0
M  V30 64 H 6.9534 0.304667 4.16487 0
M  V30 65 N 7.3905 -1.2043 1.01659 0
M  V30 66 C 8.3385 -2.25249 0.580143 0
M  V30 67 C 9.3325 -1.65057 -0.381115 0
M  V30 68 O 10.5385 -1.78241 -0.251039 0
M  V30 69 H 6.9135 -0.732695 0.169299 0
M  V30 70 H 8.8845 -2.59389 1.47512 0
M  V30 71 C 7.6335 -3.47638 -0.065788 0
M  V30 72 H 6.9565 -3.94233 0.664874 0
M  V30 73 H 8.3965 -4.2268 -0.334282 0
M  V30 74 C 6.8555 -3.10447 -1.3086 0
M  V30 75 O 7.3855 -3.21981 -2.4019 0
M  V30 76 N 5.5915 -2.64996 -1.1927 0
M  V30 77 H 5.1385 -2.55811 -0.303064 0
M  V30 78 H 5.0965 -2.40482 -2.02523 0
M  V30 79 N 8.8686 -0.792821 -1.36206 0
M  V30 80 C 10.0936 -0.377701 -2.03932 0
M  V30 81 C 10.5186 0.998947 -1.59382 0
M  V30 82 O 9.8766 1.64421 -0.763903 0
M  V30 83 C 9.9246 -0.453635 -3.57735 0
M  V30 84 O 9.0286 0.538151 -4.08874 0
M  V30 85 H 8.3696 -0.159855 -0.644471 0
M  V30 86 H 10.8996 -1.07488 -1.7409 0
M  V30 87 H 10.9096 -0.318464 -4.06755 0
M  V30 88 H 9.5846 -1.45784 -3.89512 0
M  V30 89 H 8.1616 0.364359 -3.71116 0
M  V30 90 N 10.3467 1.47872 -0.545128 0
M  V30 91 C 11.5717 2.07391 -0.0190611 0
M  V30 92 C 11.9967 1.39688 1.25971 0
M  V30 93 O 11.3547 0.467816 1.7516 0
M  V30 94 C 11.4027 3.60188 0.172335 0
M  V30 95 O 10.5067 3.9339 1.23766 0
M  V30 96 H 9.8477 0.662411 -0.0459059 0
M  V30 97 H 12.3777 1.90066 -0.757365 0
M  V30 98 H 12.3877 4.06129 0.390305 0
M  V30 99 H 11.0627 4.08865 -0.761725 0
M  V30 100 H 9.6397 3.5921 1.00114 0
M  V30 101 N 11.8248 0.280983 1.55075 0
M  V30 102 C 13.0738 -0.334784 1.98902 0
M  V30 103 C 13.3868 -1.56534 1.17288 0
M  V30 104 O 14.5928 -2.25443 1.51287 0
M  V30 105 C 13.0488 -0.646994 3.54037 0
M  V30 106 C 12.6568 0.564085 4.44435 0
M  V30 107 C 14.4008 -1.22506 4.06439 0
M  V30 108 C 12.3078 0.226137 5.90967 0
M  V30 109 H 11.2378 -0.128866 0.742906 0
M  V30 110 H 13.8888 0.386556 1.79382 0
M  V30 111 H 12.2708 -1.42739 3.6938 0
M  V30 112 H 13.4448 1.34082 4.40861 0
M  V30 113 H 11.7598 1.0594 4.02698 0
M  V30 114 H 14.3568 -1.49182 5.13468 0
M  V30 115 H 14.6998 -2.16085 3.55827 0
M  V30 116 H 15.2328 -0.50682 3.94558 0
M  V30 117 H 11.9718 1.12996 6.45687 0
M  V30 118 H 11.4918 -0.513717 5.97596 0
M  V30 119 H 13.1708 -0.179539 6.46751 0
M  V30 120 N 13.3029 -1.57598 0.00835791 0
M  V30 121 C 14.2129 -2.12385 -0.996487 0
M  V30 122 C 15.2289 -1.07108 -1.37127 0
M  V30 123 O 16.4049 -1.39055 -1.4569 0
M  V30 124 C 13.4699 -2.62314 -2.26699 0
M  V30 125 C 12.5309 -3.82225 -1.95456 0
M  V30 126 C 11.7639 -4.29763 -3.16449 0
M  V30 127 O 11.9869 -3.76584 -4.28416 0
M  V30 128 O 10.9209 -5.21832 -2.99958 0
M  V30 129 H 14.7469 -2.98479 -0.560725 0
M  V30 130 H 12.3319 -1.47903 -0.210987 0
M  V30 131 H 14.2139 -2.94589 -3.01322 0
M  V30 132 H 12.8889 -1.79313 -2.69497 0
M  V30 133 H 11.7959 -3.54909 -1.18282 0
M  V30 134 H 13.1289 -4.66324 -1.57489 0
M  V30 135 N 14.781 0.264519 -1.55364 0
M  V30 136 C 16.028 0.994986 -1.7637 0
M  V30 137 C 16.356 1.85976 -0.5695 0
M  V30 138 O 15.611 1.90509 0.44776 0
M  V30 139 C 15.91 1.9004 -3.02687 0
M  V30 140 C 15.576 1.19243 -4.34847 0
M  V30 141 C 14.238 0.996709 -4.70764 0
M  V30 142 C 16.59 0.689296 -5.16622 0
M  V30 143 C 13.918 0.285261 -5.86006 0
M  V30 144 C 16.27 -0.00860079 -6.32599 0
M  V30 145 C 14.934 -0.215963 -6.67151 0
M  V30 146 H 14.204 0.364091 -0.645383 0
M  V30 147 H 16.851 0.266543 -1.89636 0
M  V30 148 H 15.156 2.69533 -2.84357 0
M  V30 149 H 16.853 2.46695 -3.16137 0
M  V30 150 H 13.443 1.3549 -4.06621 0
M  V30 151 H 17.627 0.828108 -4.89342 0
M  V30 152 H 12.883 0.113961 -6.11294 0
M  V30 153 H 17.057 -0.406186 -6.95214 0
M  V30 154 H 14.684 -0.769217 -7.56298 0
M  V30 155 N 16.2591 1.48442 0.529413 0
M  V30 156 C 17.2091 1.59407 1.63014 0
M  V30 157 C 18.1931 0.451166 1.54445 0
M  V30 158 O 19.3851 0.702635 1.62456 0
M  V30 159 C 16.5141 1.63746 3.01732 0
M  V30 160 C 15.6001 2.83518 3.15402 0
M  V30 161 N 15.9911 4.07929 2.99045 0
M  V30 162 C 14.2891 2.80862 3.46457 0
M  V30 163 C 14.9901 4.8829 3.16146 0
M  V30 164 N 13.9661 4.21117 3.43746 0
M  V30 165 H 17.7681 2.53343 1.48978 0
M  V30 166 H 15.2821 1.44821 0.734885 0
M  V30 167 H 17.2791 1.69695 3.80801 0
M  V30 168 H 15.9391 0.709264 3.16859 0
M  V30 169 H 16.9501 4.38357 2.75796 0
M  V30 170 H 13.6271 1.97301 3.67938 0
M  V30 171 H 15.0171 5.97028 3.08232 0
M  V30 172 N 17.7372 -0.778329 1.37039 0
M  V30 173 C 19.1482 -1.35421 1.28523 0
M  V30 174 C 19.4992 -1.96075 -0.0700901 0
M  V30 175 O 18.6242 -1.93352 -0.971801 0
M  V30 176 C 19.2192 -2.46211 2.32735 0
M  V30 177 C 17.7782 -2.99585 2.27873 0
M  V30 178 C 16.9252 -1.72748 2.16918 0
M  V30 179 H 19.8762 -0.5791 1.47757 0
M  V30 180 H 19.8972 -3.2552 1.9702 0
M  V30 181 H 19.4092 -2.02036 3.31365 0
M  V30 182 H 17.5102 -3.48152 1.32745 0
M  V30 183 H 17.6232 -3.55646 3.21018 0
M  V30 184 H 15.9872 -1.95416 1.63354 0
M  V30 185 H 16.7702 -1.30686 3.17452 0
M  V30 186 N 19.2153 -1.21501 -1.00376 0
M  V30 187 C 20.1623 -0.975387 -2.09177 0
M  V30 188 C 21.1323 0.0990615 -1.65804 0
M  V30 189 O 22.3173 -0.0483147 -1.90739 0
M  V30 190 C 19.4573 -0.547507 -3.40729 0
M  V30 191 C 18.5703 -1.69153 -3.97506 0
M  V30 192 C 17.7053 -1.2127 -5.17172 0
M  V30 193 C 16.7443 -2.32897 -5.66061 0
M  V30 194 N 15.8813 -1.86138 -6.76976 0
M  V30 195 H 20.7213 -1.9068 -2.29009 0
M  V30 196 H 18.2583 -0.950257 -1.12288 0
M  V30 197 H 20.2163 -0.280667 -4.16255 0
M  V30 198 H 18.8463 0.346904 -3.20931 0
M  V30 199 H 17.8983 -2.07298 -3.18954 0
M  V30 200 H 19.2103 -2.5316 -4.29781 0
M  V30 201 H 18.3643 -0.902591 -5.99948 0
M  V30 202 H 17.1033 -0.342692 -4.86495 0
M  V30 203 H 16.1083 -2.64709 -4.81881 0
M  V30 204 H 17.3333 -3.20396 -5.98768 0
M  V30 205 H 15.2793 -1.01484 -6.48103 0
M  V30 206 H 15.1963 -2.63717 -7.08512 0
M  V30 207 H 16.4643 -1.58165 -7.63285 0
M  V30 208 N 20.6934 1.19889 -1.02296 0
M  V30 209 C 22.1044 1.71124 -0.746568 0
M  V30 210 C 22.4554 1.81939 0.734335 0
M  V30 211 O 21.5804 1.48639 1.57275 0
M  V30 212 C 22.1754 3.10804 -1.34857 0
M  V30 213 C 20.7344 3.59323 -1.1209 0
M  V30 214 C 19.8814 2.3635 -1.45031 0
M  V30 215 H 22.8324 1.04813 -1.19163 0
M  V30 216 H 22.8534 3.73186 -0.742437 0
M  V30 217 H 22.3654 3.029 -2.42638 0
M  V30 218 H 20.4664 3.7255 -0.0610337 0
M  V30 219 H 20.5794 4.4378 -1.80544 0
M  V30 220 H 18.9434 2.39399 -0.869487 0
M  V30 221 H 19.7264 2.31081 -2.53883 0
M  V30 222 N 22.1715 0.800033 1.35784 0
M  V30 223 C 23.1035 0.163596 2.28615 0
M  V30 224 C 24.1165 -0.633317 1.49976 0
M  V30 225 O 25.3055 -0.466754 1.72289 0
M  V30 226 C 22.4055 -0.790958 3.29541 0
M  V30 227 C 21.5785 -0.0418255 4.3738 0
M  V30 228 C 20.6375 -0.91389 5.18203 0
M  V30 229 O 19.6635 -0.367234 5.68014 0
M  V30 230 N 20.8655 -2.23682 5.35674 0
M  V30 231 H 23.6305 0.96105 2.83873 0
M  V30 232 H 21.1915 0.654894 1.48063 0
M  V30 233 H 23.1835 -1.37844 3.80501 0
M  V30 234 H 21.7535 -1.48925 2.74846 0
M  V30 235 H 20.9735 0.726813 3.87442 0
M  V30 236 H 22.2615 0.474719 5.06581 0
M  V30 237 H 21.6595 -2.70497 4.96838 0
M  V30 238 H 20.2165 -2.77369 5.89839 0
M  V30 239 N 23.6496 -1.47581 0.552962 0
M  V30 240 C 24.5816 -2.27997 -0.234533 0
M  V30 241 C 25.5946 -1.36753 -0.883321 0
M  V30 242 O 26.7836 -1.61612 -0.757889 0
M  V30 243 C 23.8836 -3.10879 -1.34935 0
M  V30 244 C 23.0566 -4.30056 -0.798158 0
M  V30 245 C 22.1156 -4.94567 -1.79694 0
M  V30 246 O 21.1416 -5.53087 -1.34474 0
M  V30 247 N 22.3436 -4.88878 -3.13015 0
M  V30 248 H 25.1086 -2.96222 0.455255 0
M  V30 249 H 22.6696 -1.57163 0.388761 0
M  V30 250 H 24.6616 -3.50903 -2.01616 0
M  V30 251 H 23.2316 -2.44924 -1.94244 0
M  V30 252 H 22.4516 -3.94174 0.0453079 0
M  V30 253 H 23.7396 -5.07152 -0.409173 0
M  V30 254 H 23.1376 -4.42526 -3.52402 0
M  V30 255 H 21.6946 -5.32934 -3.75266 0
M  V30 256 N 25.1277 -0.289203 -1.54924 0
M  V30 257 C 26.0597 0.625583 -2.20497 0
M  V30 258 C 27.0727 1.10667 -1.19402 0
M  V30 259 O 28.2617 1.02615 -1.46056 0
M  V30 260 C 25.3617 1.86702 -2.82835 0
M  V30 261 C 24.5347 1.5304 -4.09753 0
M  V30 262 C 23.5937 2.62576 -4.56005 0
M  V30 263 O 22.6197 2.28167 -5.21468 0
M  V30 264 N 23.8217 3.92901 -4.27328 0
M  V30 265 H 26.5867 0.0642801 -2.99631 0
M  V30 266 H 24.1477 -0.110896 -1.6152 0
M  V30 267 H 26.1397 2.59304 -3.10715 0
M  V30 268 H 24.7097 2.33702 -2.07611 0
M  V30 269 H 23.9297 0.637564 -3.8901 0
M  V30 270 H 25.2177 1.28072 -4.92418 0
M  V30 271 H 24.6157 4.23671 -3.74859 0
M  V30 272 H 23.1727 4.61837 -4.59946 0
M  V30 273 N 26.6058 1.57591 -0.0167156 0
M  V30 274 C 28.0218 1.55946 0.339557 0
M  V30 275 C 28.2218 1.02109 1.73713 0
M  V30 276 O 27.2778 0.662303 2.43659 0
M  V30 277 C 28.5908 3.00037 0.199499 0
M  V30 278 C 30.1388 3.11805 0.273193 0
M  V30 279 C 30.6138 4.57713 0.162068 0
M  V30 280 N 32.1048 4.6268 0.219444 0
M  V30 281 C 32.8398 5.73185 0.157054 0
M  V30 282 N 32.3358 6.92786 0.0442936 0
M  V30 283 N 34.1288 5.61707 0.21014 0
M  V30 284 H 26.2798 1.90921 -0.930758 0
M  V30 285 H 28.5428 0.877674 -0.358319 0
M  V30 286 H 28.2488 3.4333 -0.76273 0
M  V30 287 H 28.1228 3.64387 0.974786 0
M  V30 288 H 30.5098 2.68433 1.22587 0
M  V30 289 H 30.5908 2.50201 -0.532256 0
M  V30 290 H 30.2348 5.01763 -0.78714 0
M  V30 291 H 30.1648 5.17283 0.986222 0
M  V30 292 H 32.6558 3.76649 0.307246 0
M  V30 293 H 32.9688 7.728 0.00304069 0
M  V30 294 H 31.3138 6.94999 0.00968457 0
M  V30 295 H 34.5048 4.6716 0.296546 0
M  V30 296 H 34.6778 6.47807 0.158054 0
M  V30 297 N 28.0839 -0.256276 1.55502 0
M  V30 298 C 29.3609 -1.00789 1.67633 0
M  V30 299 C 29.7409 -2.03706 0.553826 0
M  V30 300 O 29.0889 -2.24145 -0.443969 0
M  V30 301 C 29.2989 -1.64968 3.07549 0
M  V30 302 C 30.6469 -2.15505 3.65845 0
M  V30 303 O 31.6709 -1.74925 3.1029 0
M  V30 304 O 30.5299 -2.89986 4.63217 0
M  V30 305 H 27.6239 -0.468553 0.681459 0
M  V30 306 H 30.1699 -0.250806 1.67836 0
M  V30 307 H 28.9419 -0.904785 3.80696 0
M  V30 308 H 28.5649 -2.47321 3.11317 0
M  V30 309 N 29.562 -1.4872 -0.521534 0
M  V30 310 C 30.808 -1.574 -1.27879 0
M  V30 311 C 31.141 -0.250817 -1.92573 0
M  V30 312 O 30.416 0.743934 -1.79711 0
M  V30 313 C 30.699 -2.71843 -2.36164 0
M  V30 314 C 30.552 -4.13893 -1.76105 0
M  V30 315 C 31.871 -2.82008 -3.37875 0
M  V30 316 H 28.99 -0.572941 -0.463581 0
M  V30 317 H 31.632 -1.80927 -0.580119 0
M  V30 318 H 29.782 -2.51914 -2.95756 0
M  V30 319 H 31.454 -4.45284 -1.20499 0
M  V30 320 H 29.697 -4.20498 -1.06601 0
M  V30 321 H 30.368 -4.89804 -2.5455 0
M  V30 322 H 32.844 -3.00086 -2.88249 0
M  V30 323 H 31.72 -3.63796 -4.11028 0
M  V30 324 H 31.981 -1.90511 -3.98946 0
M  V30 325 N 31.0401 0.771051 -1.3745 0
M  V30 326 C 32.4511 1.34737 -1.29239 0
M  V30 327 C 32.8021 1.96109 0.0596908 0
M  V30 328 O 31.9271 1.93865 0.961534 0
M  V30 329 C 32.5221 2.44973 -2.34037 0
M  V30 330 C 31.0811 2.98372 -2.29458 0
M  V30 331 C 30.2281 1.71595 -2.17831 0
M  V30 332 H 33.1791 0.571256 -1.48062 0
M  V30 333 H 33.2001 3.24471 -1.98744 0
M  V30 334 H 32.7121 2.00276 -3.32432 0
M  V30 335 H 30.8131 3.47443 -1.34589 0
M  V30 336 H 30.9261 3.53939 -3.229 0
M  V30 337 H 29.2901 1.94547 -1.64388 0
M  V30 338 H 30.0731 1.29001 -3.18141 0
M  V30 339 N 32.5182 1.22032 0.997298 0
M  V30 340 C 33.4502 0.944263 2.08845 0
M  V30 341 C 34.4632 -0.0754663 1.62625 0
M  V30 342 O 35.6522 0.157994 1.77799 0
M  V30 343 C 32.7522 0.397723 3.36558 0
M  V30 344 C 31.9252 1.47362 4.11829 0
M  V30 345 C 30.9842 0.934951 5.17827 0
M  V30 346 O 30.0102 1.62016 5.45655 0
M  V30 347 N 31.2122 -0.245895 5.79979 0
M  V30 348 H 33.9772 1.88363 2.33109 0
M  V30 349 H 31.5382 1.12661 1.16272 0
M  V30 350 H 33.5302 0.0227771 4.04694 0
M  V30 351 H 32.1002 -0.446646 3.09393 0
M  V30 352 H 31.3202 2.02208 3.38386 0
M  V30 353 H 32.6082 2.19764 4.58891 0
M  V30 354 H 32.0062 -0.819475 5.59733 0
M  V30 355 H 30.5632 -0.562272 6.4937 0
M  V30 356 N 33.9963 -1.19345 1.0293 0
M  V30 357 C 34.9593 -2.20793 0.615069 0
M  V30 358 C 35.9593 -1.57553 -0.321533 0
M  V30 359 O 37.1493 -1.73862 -0.108483 0
M  V30 360 C 34.2813 -3.40754 -0.0999222 0
M  V30 361 H 35.4743 -2.58955 1.51269 0
M  V30 362 H 33.0273 -1.3303 0.820534 0
M  V30 363 H 33.7623 -3.0811 -1.01187 0
M  V30 364 H 33.5473 -3.87889 0.57309 0
M  V30 365 H 35.0373 -4.15898 -0.376645 0
M  V30 366 N 35.4744 -0.807222 -1.35358 0
M  V30 367 C 36.7224 -0.387122 -1.98358 0
M  V30 368 C 37.0434 1.04942 -1.64354 0
M  V30 369 O 36.3134 1.72615 -0.926339 0
M  V30 370 H 34.8934 -0.140154 -0.733734 0
M  V30 371 H 37.5554 -1.0332 -1.6526 0
M  V30 372 H 36.6514 -0.493352 -3.08176 0
M  V30 373 N 36.9525 1.47285 -0.560781 0
M  V30 374 C 38.2005 2.02064 -0.0379868 0
M  V30 375 C 38.5215 1.43711 1.31803 0
M  V30 376 O 37.7915 0.61362 1.86042 0
M  V30 377 H 36.3715 0.746918 -0.0110531 0
M  V30 378 H 39.0335 1.80648 -0.731598 0
M  V30 379 H 38.1295 3.12064 0.0474463 0
M  V30 380 N 38.4306 0.297415 1.54768 0
M  V30 381 C 39.6776 -0.312913 2.00068 0
M  V30 382 C 40.0056 -1.54171 1.18582 0
M  V30 383 O 39.2606 -1.94108 0.249133 0
M  V30 384 C 39.5596 -0.717561 3.50123 0
M  V30 385 C 39.2256 0.409095 4.4904 0
M  V30 386 C 37.8876 0.718399 4.75807 0
M  V30 387 C 40.2396 1.16717 5.07963 0
M  V30 388 C 37.5676 1.78896 5.5876 0
M  V30 389 C 39.9196 2.22762 5.92081 0
M  V30 390 C 38.5836 2.54303 6.1716 0
M  V30 391 H 37.8536 -0.114503 0.7321 0
M  V30 392 H 40.5006 0.415767 1.86932 0
M  V30 393 H 38.8056 -1.52627 3.60849 0
M  V30 394 H 40.5026 -1.20091 3.82595 0
M  V30 395 H 37.0926 0.157918 4.28309 0
M  V30 396 H 41.2766 0.941466 4.87289 0
M  V30 397 H 36.5326 2.0381 5.7643 0
M  V30 398 H 40.7066 2.81962 6.36765 0
M  V30 399 H 38.3336 3.3739 6.81229 0
M  V30 400 N 39.9087 -1.5758 0.0250728 0
M  V30 401 C 41.1567 -1.91255 -0.653151 0
M  V30 402 C 41.4777 -0.901691 -1.729 0
M  V30 403 O 40.7477 0.0573785 -1.95816 0
M  V30 404 H 39.3277 -0.705942 -0.244243 0
M  V30 405 H 41.9897 -1.94767 0.0719209 0
M  V30 406 H 41.0857 -2.91752 -1.10847 0
M  V30 407 N 41.3868 0.248026 -1.55636 0
M  V30 408 C 42.6268 0.983592 -1.79178 0
M  V30 409 C 42.9908 1.82567 -0.594414 0
M  V30 410 O 44.1918 2.59292 -0.708583 0
M  V30 411 C 42.4628 1.82228 -3.07454 0
M  V30 412 S 44.0218 2.61709 -3.52213 0
M  V30 413 H 40.8398 0.330866 -0.629324 0
M  V30 414 H 43.4418 0.251562 -1.93875 0
M  V30 415 H 42.1458 1.19333 -3.92668 0
M  V30 416 H 41.6768 2.59708 -2.95492 0
M  V30 417 H 43.6918 3.84655 -3.13457 0
M  V30 418 N 42.8649 1.48995 0.513639 0
M  V30 419 C 44.0929 1.61531 1.29288 0
M  V30 420 C 44.5079 0.281801 1.86685 0
M  V30 421 O 43.8649 -0.731111 1.67215 0
M  V30 422 C 43.9159 2.67449 2.43215 0
M  V30 423 O 43.6369 3.95626 1.88179 0
M  V30 424 C 45.1379 2.90575 3.34785 0
M  V30 425 H 42.3579 0.544165 0.392588 0
M  V30 426 H 44.9019 1.9494 0.617956 0
M  V30 427 H 43.0569 2.36853 3.0656 0
M  V30 428 H 43.4709 4.53868 2.62876 0
M  V30 429 H 44.9449 3.68449 4.11035 0
M  V30 430 H 45.4219 2.00011 3.91015 0
M  V30 431 H 46.0279 3.22538 2.77218 0
M  V30 432 N 44.343 -0.763751 1.37857 0
M  V30 433 C 45.273 -1.89103 1.36975 0
M  V30 434 C 46.254 -1.68439 0.237152 0
M  V30 435 O 47.439 -1.8918 0.438713 0
M  V30 436 C 44.569 -3.26496 1.18395 0
M  V30 437 C 43.523 -3.61741 2.28751 0
M  V30 438 C 42.849 -4.97762 1.95286 0
M  V30 439 C 44.149 -3.67665 3.70972 0
M  V30 440 H 45.843 -1.90099 2.31307 0
M  V30 441 H 43.389 -0.91319 1.11341 0
M  V30 442 H 45.342 -4.05003 1.16406 0
M  V30 443 H 44.066 -3.25955 0.205215 0
M  V30 444 H 42.725 -2.85547 2.29909 0
M  V30 445 H 42.373 -4.93769 0.959221 0
M  V30 446 H 42.073 -5.22313 2.69189 0
M  V30 447 H 43.597 -5.7866 1.94898 0
M  V30 448 H 45.011 -4.36307 3.719 0
M  V30 449 H 43.408 -4.03718 4.43995 0
M  V30 450 H 44.478 -2.68134 4.0402 0
M  V30 451 N 45.8211 -1.22559 -0.990812 0
M  V30 452 C 46.7841 -0.998863 -2.0629 0
M  V30 453 C 47.7841 0.0354834 -1.60761 0
M  V30 454 O 48.9741 -0.203231 -1.7301 0
M  V30 455 C 46.1061 -0.509203 -3.37076 0
M  V30 456 H 47.2991 -1.95014 -2.27837 0
M  V30 457 H 44.8521 -1.04456 -1.16269 0
M  V30 458 H 45.5871 0.446335 -3.21214 0
M  V30 459 H 45.3721 -1.25547 -3.71457 0
M  V30 460 H 46.8621 -0.370888 -4.1595 0
M  V30 461 N 47.2992 1.18797 -1.03562 0
M  V30 462 C 48.2092 2.25913 -0.632505 0
M  V30 463 C 49.2252 1.70668 0.338882 0
M  V30 464 O 50.4012 2.00453 0.195076 0
M  V30 465 C 47.4662 3.467 0.00350942 0
M  V30 466 C 46.5272 4.17098 -1.01624 0
M  V30 467 C 45.7602 5.32119 -0.410478 0
M  V30 468 O 45.9832 5.64976 0.784725 0
M  V30 469 O 44.9172 5.9107 -1.13667 0
M  V30 470 H 48.7432 2.62648 -1.52478 0
M  V30 471 H 46.3282 1.25781 -0.806195 0
M  V30 472 H 48.2102 4.19878 0.35781 0
M  V30 473 H 46.8852 3.11798 0.869686 0
M  V30 474 H 45.7922 3.4601 -1.42224 0
M  V30 475 H 47.1252 4.55987 -1.85301 0
M  V30 476 N 48.7773 0.814389 1.34928 0
M  V30 477 C 49.7073 0.244827 2.32213 0
M  V30 478 C 50.6883 -0.634024 1.57842 0
M  V30 479 O 51.8733 -0.562676 1.8587 0
M  V30 480 C 49.0033 -0.601106 3.42058 0
M  V30 481 C 47.9573 0.179896 4.27622 0
M  V30 482 C 47.2833 -0.788237 5.28858 0
M  V30 483 C 48.5833 1.38329 5.03649 0
M  V30 484 H 50.2773 1.05763 2.80097 0
M  V30 485 H 47.8233 0.510029 1.34665 0
M  V30 486 H 49.7763 -1.00968 4.09125 0
M  V30 487 H 48.5003 -1.44688 2.92802 0
M  V30 488 H 47.1593 0.569739 3.62146 0
M  V30 489 H 46.8073 -1.62973 4.75866 0
M  V30 490 H 46.5073 -0.269942 5.8698 0
M  V30 491 H 48.0313 -1.19485 5.98795 0
M  V30 492 H 49.4453 1.04918 5.63618 0
M  V30 493 H 47.8423 1.83662 5.71304 0
M  V30 494 H 48.9123 2.16592 4.33839 0
M  V30 495 N 50.2554 -1.46986 0.568584 0
M  V30 496 C 51.6714 -1.57946 0.229189 0
M  V30 497 C 51.8714 -1.56567 -1.26843 0
M  V30 498 O 50.9274 -1.47511 -2.04931 0
M  V30 499 C 52.2404 -2.87963 0.865909 0
M  V30 500 C 53.7884 -3.01568 0.838188 0
M  V30 501 C 54.2634 -4.34301 1.45419 0
M  V30 502 N 55.7544 -4.40965 1.41788 0
M  V30 503 C 56.4894 -5.42256 1.86403 0
M  V30 504 N 55.9854 -6.50297 2.38926 0
M  V30 505 N 57.7784 -5.3337 1.77405 0
M  V30 506 H 49.9294 -1.46126 1.54146 0
M  V30 507 H 52.1924 -0.696156 0.643484 0
M  V30 508 H 51.8984 -2.94742 1.91886 0
M  V30 509 H 51.7724 -3.75423 0.365687 0
M  V30 510 H 54.1594 -2.94379 -0.206106 0
M  V30 511 H 54.2404 -2.1562 1.37629 0
M  V30 512 H 53.8844 -4.42247 2.49761 0
M  V30 513 H 53.8144 -5.19 0.891435 0
M  V30 514 H 56.3054 -3.63484 1.03381 0
M  V30 515 H 56.6184 -7.23777 2.70863 0
M  V30 516 H 54.9634 -6.51155 2.42944 0
M  V30 517 H 58.1544 -4.47865 1.3614 0
M  V30 518 H 58.3274 -6.12169 2.12492 0
M  V30 519 N 51.7335 -0.305618 -1.54608 0
M  V30 520 C 52.9615 0.304775 -2.04643 0
M  V30 521 C 53.3765 1.47167 -1.18268 0
M  V30 522 O 52.7335 1.81296 -0.209328 0
M  V30 523 C 52.7845 0.756564 -3.53495 0
M  V30 524 O 52.5055 -0.36389 -4.36586 0
M  V30 525 C 54.0065 1.43163 -4.19546 0
M  V30 526 H 51.2265 0.0655481 -0.667791 0
M  V30 527 H 53.7705 -0.446592 -1.99564 0
M  V30 528 H 51.9255 1.45794 -3.58919 0
M  V30 529 H 52.3395 -0.0113121 -5.24499 0
M  V30 530 H 53.8135 1.69886 -5.25207 0
M  V30 531 H 54.2905 2.37318 -3.69563 0
M  V30 532 H 54.8965 0.773307 -4.18211 0
M  V30 533 N 53.2116 1.57565 -0.0334293 0
M  V30 534 C 54.1416 2.13511 0.945265 0
M  V30 535 C 55.1226 1.05231 1.33643 0
M  V30 536 O 56.3076 1.33084 1.41429 0
M  V30 537 C 53.4376 2.6657 2.22616 0
M  V30 538 C 52.3916 3.79676 1.97561 0
M  V30 539 C 51.7176 4.1918 3.31952 0
M  V30 540 C 53.0176 5.0557 1.31135 0
M  V30 541 H 54.7116 2.95538 0.479325 0
M  V30 542 H 52.2576 1.42166 0.229115 0
M  V30 543 H 54.2106 3.04344 2.91466 0
M  V30 544 H 52.9346 1.8171 2.71384 0
M  V30 545 H 51.5936 3.42347 1.31127 0
M  V30 546 H 51.2416 3.31296 3.78487 0
M  V30 547 H 50.9416 4.95402 3.15992 0
M  V30 548 H 52.4656 4.59541 4.02063 0
M  V30 549 H 53.8796 5.40903 1.89992 0
M  V30 550 H 52.2766 5.86818 1.25559 0
M  V30 551 H 53.3466 4.84062 0.284894 0
M  V30 552 N 54.6897 -0.239769 1.55765 0
M  V30 553 C 55.6227 -1.32356 1.85895 0
M  V30 554 C 56.6007 -1.46053 0.714662 0
M  V30 555 O 57.7847 -1.62154 0.961157 0
M  V30 556 C 54.9117 -2.6962 2.04994 0
M  V30 557 C 53.9577 -2.73036 3.27648 0
M  V30 558 S 54.7907 -2.28929 4.84099 0
M  V30 559 C 55.9467 -3.68103 5.06212 0
M  V30 560 H 56.1797 -1.06601 2.77531 0
M  V30 561 H 53.7127 -0.441112 1.47965 0
M  V30 562 H 55.6707 -3.48653 2.16682 0
M  V30 563 H 54.3317 -2.92609 1.14188 0
M  V30 564 H 53.5247 -3.7386 3.38 0
M  V30 565 H 53.1267 -2.02052 3.14723 0
M  V30 566 H 55.4187 -4.63656 4.93993 0
M  V30 567 H 56.3617 -3.6268 6.08168 0
M  V30 568 H 56.7697 -3.60947 4.34025 0
M  V30 569 N 56.1678 -1.49265 -0.50573 0
M  V30 570 C 57.0778 -1.68312 -1.63427 0
M  V30 571 C 58.0938 -0.565682 -1.64548 0
M  V30 572 O 59.2698 -0.839801 -1.83055 0
M  V30 573 C 56.3348 -1.74107 -2.99813 0
M  V30 574 C 55.3958 -2.97653 -3.09356 0
M  V30 575 C 54.6288 -3.03163 -4.39236 0
M  V30 576 O 54.8518 -2.16396 -5.27758 0
M  V30 577 O 53.7858 -3.9558 -4.53652 0
M  V30 578 H 57.6118 -2.63907 -1.50289 0
M  V30 579 H 55.1968 -1.32951 -0.681502 0
M  V30 580 H 57.0788 -1.803 -3.80881 0
M  V30 581 H 55.7538 -0.816901 -3.13223 0
M  V30 582 H 54.6608 -2.96981 -2.27493 0
M  V30 583 H 55.9938 -3.89535 -3.00871 0
M  V30 584 N 57.6459 0.756429 -1.3826 0
M  V30 585 C 58.5759 1.88374 -1.37976 0
M  V30 586 C 59.5569 1.68311 -0.246082 0
M  V30 587 O 60.7419 1.88944 -0.44874 0
M  V30 588 C 57.8719 3.25864 -1.20125 0
M  V30 589 C 56.8259 3.60523 -2.30666 0
M  V30 590 C 56.1519 4.9672 -1.97923 0
M  V30 591 C 57.4519 3.65692 -3.72916 0
M  V30 592 H 59.1459 1.88869 -2.32312 0
M  V30 593 H 56.6919 0.907272 -1.11824 0
M  V30 594 H 58.6449 4.0438 -1.18552 0
M  V30 595 H 57.3689 3.25841 -0.222498 0
M  V30 596 H 56.0279 2.84324 -2.3142 0
M  V30 597 H 55.6759 4.93253 -0.985393 0
M  V30 598 H 55.3759 5.20878 -2.71955 0
M  V30 599 H 56.8999 5.77618 -1.97964 0
M  V30 600 H 58.3139 4.34328 -3.74208 0
M  V30 601 H 56.7109 4.01358 -4.4613 0
M  V30 602 H 57.7809 2.65987 -4.05436 0
M  V30 603 N 59.124 1.23083 0.984299 0
M  V30 604 C 60.54 0.992637 1.24975 0
M  V30 605 C 60.74 -0.308618 1.99123 0
M  V30 606 O 59.796 -1.02905 2.30579 0
M  V30 607 C 61.109 2.19698 2.05312 0
M  V30 608 C 62.657 2.24147 2.18465 0
M  V30 609 C 63.132 3.44157 3.02192 0
M  V30 610 N 64.623 3.44372 3.09777 0
M  V30 611 C 65.358 4.33886 3.74874 0
M  V30 612 N 64.854 5.3363 4.41827 0
M  V30 613 N 66.647 4.21639 3.71721 0
M  V30 614 H 58.798 2.06731 0.487453 0
M  V30 615 H 61.061 0.906339 0.277944 0
M  V30 616 H 60.767 3.1411 1.58201 0
M  V30 617 H 60.641 2.20465 3.06064 0
M  V30 618 H 63.028 1.30277 2.64786 0
M  V30 619 H 63.109 2.27415 1.17115 0
M  V30 620 H 62.753 4.38332 2.56568 0
M  V30 621 H 62.683 3.3813 4.03702 0
M  V30 622 H 65.174 2.72201 2.62135 0
M  V30 623 H 65.487 5.98196 4.89266 0
M  V30 624 H 63.832 5.37534 4.40548 0
M  V30 625 H 67.023 3.42962 3.18582 0
M  V30 626 H 67.196 4.91604 4.22173 0
M  V30 627 N 60.6021 -1.18246 1.0419 0
M  V30 628 C 61.8501 -1.87886 0.744543 0
M  V30 629 C 62.1711 -1.8082 -0.730006 0
M  V30 630 O 61.4411 -1.22736 -1.52685 0
M  V30 631 H 60.0211 -0.695556 0.272417 0
M  V30 632 H 62.6831 -1.43494 1.31892 0
M  V30 633 H 61.7791 -2.9389 1.05049 0
M  V30 634 N 62.0802 -0.821533 -1.34494 0
M  V30 635 C 63.0432 -0.247847 -2.27856 0
M  V30 636 C 64.0432 0.573453 -1.50227 0
M  V30 637 O 65.2332 0.389759 -1.69784 0
M  V30 638 C 62.3652 0.652698 -3.34593 0
M  V30 639 H 63.5582 -1.07146 -2.80107 0
M  V30 640 H 61.1112 -0.593291 -1.44602 0
M  V30 641 H 61.8462 1.49943 -2.87555 0
M  V30 642 H 61.6312 0.065292 -3.92046 0
M  V30 643 H 63.1212 1.04793 -4.04238 0
M  V30 644 N 63.5583 1.46682 -0.576371 0
M  V30 645 C 64.4683 2.34032 0.163141 0
M  V30 646 C 65.4843 1.49367 0.892501 0
M  V30 647 O 66.6603 1.82252 0.857106 0
M  V30 648 C 63.7253 3.26435 1.16795 0
M  V30 649 C 62.7863 4.26998 0.443944 0
M  V30 650 C 62.0193 5.14986 1.40088 0
M  V30 651 O 62.2423 5.05785 2.637 0
M  V30 652 O 61.1763 5.94906 0.914917 0
M  V30 653 H 65.0023 2.98607 -0.55388 0
M  V30 654 H 62.5873 1.45554 -0.336821 0
M  V30 655 H 64.4693 3.83459 1.74748 0
M  V30 656 H 63.1443 2.64465 1.86655 0
M  V30 657 H 62.0513 3.7368 -0.177271 0
M  V30 658 H 63.3843 4.91736 -0.213566 0
M  V30 659 N 65.0364 0.313813 1.54444 0
M  V30 660 C 65.9994 -0.54379 2.22656 0
M  V30 661 C 66.9994 -1.05124 1.21678 0
M  V30 662 O 68.1894 -0.945225 1.46325 0
M  V30 663 C 65.3214 -1.75427 2.92298 0
M  V30 664 H 66.5144 0.0523599 2.99854 0
M  V30 665 H 64.0674 0.0647834 1.56166 0
M  V30 666 H 64.8024 -2.38991 2.19211 0
M  V30 667 H 64.5874 -1.39791 3.66334 0
M  V30 668 H 66.0774 -2.36325 3.44297 0
M  V30 669 N 66.5145 -1.57545 0.0417849 0
M  V30 670 C 67.4445 -2.14009 -0.933929 0
M  V30 671 C 68.4255 -1.05938 -1.33083 0
M  V30 672 O 69.6105 -1.33833 -1.40721 0
M  V30 673 C 66.7405 -2.67747 -2.21199 0
M  V30 674 C 65.6945 -3.80718 -1.95544 0
M  V30 675 C 65.0205 -4.20935 -3.29724 0
M  V30 676 C 66.3205 -5.06258 -1.28452 0
M  V30 677 H 68.0145 -2.95788 -0.463645 0
M  V30 678 H 65.5605 -1.42285 -0.221573 0
M  V30 679 H 67.5135 -3.05886 -2.89848 0
M  V30 680 H 66.2375 -1.83147 -2.70416 0
M  V30 681 H 64.8965 -3.43037 -1.2931 0
M  V30 682 H 64.5445 -3.33298 -3.76724 0
M  V30 683 H 64.2445 -4.9707 -3.13361 0
M  V30 684 H 65.7685 -4.61666 -3.9962 0
M  V30 685 H 67.1825 -5.41903 -1.8712 0
M  V30 686 H 65.5795 -5.87475 -1.22445 0
M  V30 687 H 66.6495 -4.84207 -0.259219 0
M  V30 688 N 67.9926 0.231505 -1.5589 0
M  V30 689 C 68.9246 1.31006 -1.8807 0
M  V30 690 C 69.9376 1.43539 -0.768145 0
M  V30 691 O 71.1266 1.44614 -1.04638 0
M  V30 692 C 68.2266 2.68688 -2.06543 0
M  V30 693 C 67.3996 2.78228 -3.37502 0
M  V30 694 C 66.4586 3.96857 -3.4553 0
M  V30 695 O 65.4846 3.85662 -4.18633 0
M  V30 696 N 66.6866 5.1072 -2.75944 0
M  V30 697 H 69.4516 1.03731 -2.81176 0
M  V30 698 H 67.0126 0.421573 -1.56315 0
M  V30 699 H 69.0046 3.46412 -2.09239 0
M  V30 700 H 67.5746 2.88605 -1.20109 0
M  V30 701 H 66.7946 1.87059 -3.46991 0
M  V30 702 H 68.0826 2.81564 -4.23791 0
M  V30 703 H 67.4806 5.2271 -2.16311 0
M  V30 704 H 66.0376 5.86523 -2.84314 0
M  V30 705 N 69.4707 1.49531 0.497807 0
M  V30 706 C 70.4177 1.66436 1.59899 0
M  V30 707 C 71.3877 0.505793 1.58212 0
M  V30 708 O 72.5727 0.733202 1.7615 0
M  V30 709 C 69.7127 1.7399 2.98029 0
M  V30 710 C 68.8257 3.01172 3.09708 0
M  V30 711 C 67.9607 2.99686 4.38591 0
M  V30 712 C 66.9997 4.21434 4.43914 0
M  V30 713 N 66.1367 4.1784 5.64229 0
M  V30 714 H 70.9767 2.60459 1.44793 0
M  V30 715 H 68.5137 1.29137 0.704423 0
M  V30 716 H 70.4717 1.76352 3.78095 0
M  V30 717 H 69.1017 0.834301 3.11832 0
M  V30 718 H 68.1537 3.08408 2.22685 0
M  V30 719 H 69.4657 3.91165 3.09502 0
M  V30 720 H 68.6197 3.00628 5.2698 0
M  V30 721 H 67.3587 2.07477 4.41367 0
M  V30 722 H 66.3637 4.20733 3.53926 0
M  V30 723 H 67.5887 5.14839 4.42851 0
M  V30 724 H 65.5347 3.28469 5.67841 0
M  V30 725 H 65.4517 5.01571 5.65652 0
M  V30 726 H 66.7197 4.22889 6.54817 0
M  V30 727 N 70.9488 -0.749086 1.3866 0
M  V30 728 C 72.1978 -1.50371 1.3443 0
M  V30 729 C 72.5108 -1.95503 -0.0616397 0
M  V30 730 O 73.7168 -2.70554 -0.226489 0
M  V30 731 C 72.1728 -2.71644 2.36088 0
M  V30 732 C 71.7808 -2.3352 3.82325 0
M  V30 733 C 73.5248 -3.49518 2.40909 0
M  V30 734 C 71.4318 -3.51431 4.75658 0
M  V30 735 H 70.3618 -0.564628 0.499712 0
M  V30 736 H 73.0128 -0.818449 1.64237 0
M  V30 737 H 71.3948 -3.42175 1.9933 0
M  V30 738 H 72.5688 -1.70627 4.28046 0
M  V30 739 H 70.8838 -1.6877 3.80665 0
M  V30 740 H 73.4808 -4.37197 3.07836 0
M  V30 741 H 73.8238 -3.90992 1.42937 0
M  V30 742 H 74.3568 -2.86005 2.76489 0
M  V30 743 H 71.0958 -3.15019 5.74842 0
M  V30 744 H 70.6158 -4.13352 4.34627 0
M  V30 745 H 72.2948 -4.17953 4.93887 0
M  V30 746 N 72.4269 -1.23603 -0.977757 0
M  V30 747 C 73.3369 -1.03632 -2.1047 0
M  V30 748 C 74.3529 0.0199435 -1.73989 0
M  V30 749 O 75.5289 -0.176076 -2.00629 0
M  V30 750 C 72.5939 -0.63276 -3.40877 0
M  V30 751 C 71.6549 -1.76437 -3.91367 0
M  V30 752 C 70.8879 -1.37997 -5.15551 0
M  V30 753 O 71.1109 -0.265357 -5.69782 0
M  V30 754 O 70.0449 -2.20201 -5.60174 0
M  V30 755 H 73.8709 -1.98086 -2.30208 0
M  V30 756 H 71.4559 -1.02332 -1.08851 0
M  V30 757 H 73.3379 -0.418761 -4.19314 0
M  V30 758 H 72.0129 0.282754 -3.22463 0
M  V30 759 H 70.9199 -2.03304 -3.14036 0
M  V30 760 H 72.2529 -2.6583 -4.14241 0
M  V30 761 N 73.905 1.17692 -1.04816 0
M  V30 762 C 74.815 2.25229 -0.65643 0
M  V30 763 C 75.831 1.71018 0.320761 0
M  V30 764 O 77.007 2.00649 0.173805 0
M  V30 765 C 74.072 3.46684 -0.0332629 0
M  V30 766 C 73.133 4.15997 -1.06042 0
M  V30 767 C 72.366 5.31654 -0.466893 0
M  V30 768 O 72.589 5.65777 0.724758 0
M  V30 769 O 71.523 5.89831 -1.1993 0
M  V30 770 H 75.349 2.61016 -1.55255 0
M  V30 771 H 72.934 1.24919 -0.81949 0
M  V30 772 H 74.816 4.20234 0.313256 0
M  V30 773 H 73.491 3.12703 0.836566 0
M  V30 774 H 72.398 3.44482 -1.45886 0
M  V30 775 H 73.731 4.53996 -1.90127 0
M  V30 776 N 75.3831 0.828654 1.34056 0
M  V30 777 C 76.3461 0.259927 2.27721 0
M  V30 778 C 77.3461 -0.565478 1.50529 0
M  V30 779 O 78.5361 -0.38075 1.69988 0
M  V30 780 C 75.6681 -0.634944 3.34935 0
M  V30 781 H 76.8611 1.0863 2.79534 0
M  V30 782 H 74.4141 0.600951 1.44285 0
M  V30 783 H 75.1491 -1.48416 2.88346 0
M  V30 784 H 74.9341 -0.0444999 3.92075 0
M  V30 785 H 76.4241 -1.02648 4.04788 0
M  V30 786 N 76.8612 -1.46375 0.584142 0
M  V30 787 C 78.0912 -2.06461 0.0758195 0
M  V30 788 C 78.4992 -1.43322 -1.23512 0
M  V30 789 O 77.8422 -0.533216 -1.75791 0
M  V30 790 C 77.9042 -3.59131 -0.162773 0
M  V30 791 C 77.5682 -4.4447 1.06279 0
M  V30 792 C 78.5652 -4.80918 1.97519 0
M  V30 793 C 76.2502 -4.85584 1.28504 0
M  V30 794 C 78.2442 -5.57309 3.09331 0
M  V30 795 C 75.9312 -5.61734 2.4062 0
M  V30 796 C 76.9292 -5.9751 3.30863 0
M  V30 797 O 76.6172 -6.72121 4.41032 0
M  V30 798 H 76.3492 -0.673745 0.0551725 0
M  V30 799 H 78.9032 -1.88969 0.804984 0
M  V30 800 H 77.1332 -3.74936 -0.946565 0
M  V30 801 H 78.8222 -4.0114 -0.619782 0
M  V30 802 H 79.5882 -4.49732 1.81565 0
M  V30 803 H 75.4672 -4.57187 0.591702 0
M  V30 804 H 79.0112 -5.85152 3.79793 0
M  V30 805 H 74.9082 -5.92334 2.56537 0
M  V30 806 H 75.6762 -6.90547 4.39417 0
M  V30 807 N 78.3393 -0.321999 -1.54275 0
M  V30 808 C 79.5873 0.280489 -2.00144 0
M  V30 809 C 79.9083 1.52777 -1.21178 0
M  V30 810 O 79.1783 1.9338 -0.313187 0
M  V30 811 H 77.7583 0.106632 -0.73935 0
M  V30 812 H 80.4203 -0.438184 -1.8991 0
M  V30 813 H 79.5163 0.537972 -3.07428 0
M  V30 814 N 79.8174 1.5752 -0.0501392 0
M  V30 815 C 81.0944 1.83996 0.663685 0
M  V30 816 C 81.4744 0.938339 1.89099 0
M  V30 817 O 80.8224 -0.00087759 2.285 0
M  V30 818 C 81.0324 3.33702 1.02196 0
M  V30 819 C 82.3804 4.00691 1.40469 0
M  V30 820 O 83.4044 3.38321 1.11433 0
M  V30 821 O 82.2634 5.10658 1.94654 0
M  V30 822 H 79.3574 0.759385 0.32751 0
M  V30 823 H 81.9034 1.69514 -0.0794238 0
M  V30 824 H 80.6754 3.91015 0.149364 0
M  V30 825 H 80.2984 3.53368 1.82255 0
M  V30 826 N 81.2955 -0.223234 1.56011 0
M  V30 827 C 82.5415 -0.949279 1.79211 0
M  V30 828 C 82.8745 -1.84054 0.619494 0
M  V30 829 O 82.1495 -1.90726 -0.381317 0
M  V30 830 C 82.4325 -1.78965 3.12479 0
M  V30 831 C 82.2855 -0.924997 4.40186 0
M  V30 832 C 83.6045 -2.76774 3.42175 0
M  V30 833 H 80.7235 -0.343676 0.651963 0
M  V30 834 H 83.3655 -0.218253 1.88742 0
M  V30 835 H 81.5155 -2.41291 3.04485 0
M  V30 836 H 83.1875 -0.318615 4.60198 0
M  V30 837 H 81.4305 -0.230344 4.33188 0
M  V30 838 H 82.1015 -1.54735 5.29869 0
M  V30 839 H 84.5775 -2.24584 3.50287 0
M  V30 840 H 83.4535 -3.32678 4.36597 0
M  V30 841 H 83.7145 -3.54429 2.64258 0
M  V30 842 N 82.7736 -1.49793 -0.48987 0
M  V30 843 C 83.9986 -1.63836 -1.27172 0
M  V30 844 C 84.4236 -0.31402 -1.8546 0
M  V30 845 O 83.7816 0.719803 -1.66399 0
M  V30 846 C 83.8296 -2.71797 -2.36978 0
M  V30 847 O 82.9336 -2.31744 -3.41128 0
M  V30 848 H 82.2746 -0.547997 -0.37496 0
M  V30 849 H 84.8046 -1.96053 -0.585191 0
M  V30 850 H 84.8146 -2.94305 -2.82575 0
M  V30 851 H 83.4896 -3.67923 -1.93921 0
M  V30 852 H 82.0666 -2.1961 -3.01373 0
M  V30 853 N 84.2517 0.741722 -1.39055 0
M  V30 854 C 85.4997 1.49818 -1.35643 0
M  V30 855 C 85.8207 1.94938 0.0491642 0
M  V30 856 O 85.0907 1.68505 0.999141 0
M  V30 857 H 83.6707 0.555755 -0.499144 0
M  V30 858 H 86.3327 0.880957 -1.73854 0
M  V30 859 H 85.4287 2.38348 -2.01486 0
M  V30 860 N 85.7298 1.2412 0.971189 0
M  V30 861 C 86.6598 1.05508 2.08304 0
M  V30 862 C 87.6408 -0.0308864 1.70072 0
M  V30 863 O 88.8258 0.135521 1.93727 0
M  V30 864 C 85.9558 0.655365 3.4106 0
M  V30 865 C 84.9098 1.68971 3.93234 0
M  V30 866 C 84.2358 1.14516 5.22293 0
M  V30 867 C 85.5358 3.08487 4.21465 0
M  V30 868 H 87.2298 1.98507 2.24132 0
M  V30 869 H 84.7758 0.955821 1.07704 0
M  V30 870 H 86.7288 0.51217 4.18276 0
M  V30 871 H 85.4528 -0.31032 3.25122 0
M  V30 872 H 84.1118 1.82106 3.18171 0
M  V30 873 H 83.7598 0.170189 5.02712 0
M  V30 874 H 83.4598 1.83635 5.58168 0
M  V30 875 H 84.9838 1.01401 6.02121 0
M  V30 876 H 86.3978 2.98601 4.89398 0
M  V30 877 H 84.7948 3.74926 4.68562 0
M  V30 878 H 85.8648 3.56787 3.28376 0
M  V30 879 N 87.2079 -1.17134 1.05439 0
M  V30 880 C 88.4479 -1.89137 0.77502 0
M  V30 881 C 88.8119 -1.79345 -0.685526 0
M  V30 882 O 90.0129 -2.46188 -1.0791 0
M  V30 883 C 88.2839 -3.35003 1.2453 0
M  V30 884 S 89.8429 -4.24952 1.09367 0
M  V30 885 H 86.6609 -0.652949 0.281387 0
M  V30 886 H 89.2629 -1.4145 1.34953 0
M  V30 887 H 87.9669 -3.39666 2.30338 0
M  V30 888 H 87.4979 -3.87736 0.665166 0
M  V30 889 H 89.5129 -4.96196 0.0193397 0
M  V30 890 N 88.686 -0.835752 -1.33615 0
M  V30 891 C 90.102 -0.523139 -1.50783 0
M  V30 892 C 90.302 0.950171 -1.77691 0
M  V30 893 O 89.358 1.73411 -1.83534 0
M  V30 894 C 90.671 -1.39378 -2.66448 0
M  V30 895 C 92.219 -1.39223 -2.80332 0
M  V30 896 C 92.694 -2.24765 -3.99055 0
M  V30 897 N 94.185 -2.22458 -4.06284 0
M  V30 898 C 94.92 -2.85386 -4.97336 0
M  V30 899 N 94.416 -3.57354 -5.93523 0
M  V30 900 N 96.209 -2.74872 -4.90308 0
M  V30 901 H 88.36 -1.78952 -1.14411 0
M  V30 902 H 90.623 -0.763297 -0.562212 0
M  V30 903 H 90.329 -2.44061 -2.53234 0
M  V30 904 H 90.203 -1.0676 -3.61776 0
M  V30 905 H 92.59 -0.353136 -2.92979 0
M  V30 906 H 92.671 -1.75846 -1.85773 0
M  V30 907 H 92.315 -3.28732 -3.87167 0
M  V30 908 H 92.245 -1.85485 -4.92852 0
M  V30 909 H 94.736 -1.70119 -3.37443 0
M  V30 910 H 95.049 -4.02584 -6.59656 0
M  V30 911 H 93.394 -3.61461 -5.93608 0
M  V30 912 H 96.585 -2.18213 -4.14126 0
M  V30 913 H 96.758 -3.24199 -5.61069 0
M  V30 914 N 90.1641 1.46063 -0.591896 0
M  V30 915 C 91.5801 1.57561 -0.254288 0
M  V30 916 C 91.7801 1.58565 1.24336 0
M  V30 917 O 90.8361 1.50753 2.02558 0
M  V30 918 C 92.1491 2.86549 -0.911611 0
M  V30 919 C 93.6971 3.00197 -0.886059 0
M  V30 920 C 94.1721 4.31933 -1.5231 0
M  V30 921 N 95.6631 4.38654 -1.48786 0
M  V30 922 C 96.3981 5.39222 -1.95006 0
M  V30 923 N 95.8941 6.46414 -2.49241 0
M  V30 924 N 97.6871 5.3048 -1.85868 0
M  V30 925 H 89.8381 1.43655 -1.56451 0
M  V30 926 H 92.1011 0.68583 -0.654478 0
M  V30 927 H 91.8071 2.91651 -1.96551 0
M  V30 928 H 91.6811 3.74794 -0.425368 0
M  V30 929 H 94.0681 2.9467 0.159246 0
M  V30 930 H 94.1491 2.13403 -1.41041 0
M  V30 931 H 93.7931 4.38217 -2.56765 0
M  V30 932 H 93.7231 5.17516 -0.973891 0
M  V30 933 H 96.2141 3.61793 -1.09151 0
M  V30 934 H 96.5271 7.19376 -2.82344 0
M  V30 935 H 94.8721 6.47208 -2.53272 0
M  V30 936 H 98.0631 4.45643 -1.43248 0
M  V30 937 H 98.2361 6.08711 -2.22204 0
M  V30 938 N 91.6422 0.330177 1.54103 0
M  V30 939 C 92.5722 -0.525353 2.27513 0
M  V30 940 C 93.5532 -1.11383 1.2856 0
M  V30 941 O 94.7382 -1.13773 1.57383 0
M  V30 942 C 91.8682 -1.6831 3.03791 0
M  V30 943 C 90.8222 -1.2236 4.10137 0
M  V30 944 C 90.1482 -2.46882 4.74293 0
M  V30 945 C 91.4482 -0.333697 5.21233 0
M  V30 946 H 93.1422 0.087013 2.99274 0
M  V30 947 H 90.6882 0.0432893 1.43935 0
M  V30 948 H 92.6412 -2.28795 3.5388 0
M  V30 949 H 91.3652 -2.32216 2.29659 0
M  V30 950 H 90.0242 -0.64165 3.60941 0
M  V30 951 H 89.6722 -3.09165 3.96769 0
M  V30 952 H 89.3722 -2.16825 5.46133 0
M  V30 953 H 90.8962 -3.08117 5.27159 0
M  V30 954 H 92.3102 -0.845013 5.67038 0
M  V30 955 H 90.7072 -0.125612 5.99969 0
M  V30 956 H 91.7772 0.633724 4.80741 0
M  V30 957 N 93.1203 -1.57491 0.0584922 0
M  V30 958 C 94.0673 -2.11958 -0.913376 0
M  V30 959 C 95.0373 -1.02875 -1.30407 0
M  V30 960 O 96.2223 -1.30464 -1.39226 0
M  V30 961 C 93.3623 -2.67497 -2.18035 0
M  V30 962 C 92.4753 -3.90691 -1.84349 0
M  V30 963 C 91.6103 -4.3452 -3.05559 0
M  V30 964 C 90.6493 -5.50395 -2.67827 0
M  V30 965 N 89.7863 -5.89244 -3.81754 0
M  V30 966 H 94.6263 -2.94704 -0.442017 0
M  V30 967 H 92.1633 -1.45643 -0.206545 0
M  V30 968 H 94.1213 -2.978 -2.92183 0
M  V30 969 H 92.7513 -1.87537 -2.62735 0
M  V30 970 H 91.8033 -3.66934 -1.00319 0
M  V30 971 H 93.1153 -4.7489 -1.5258 0
M  V30 972 H 92.2693 -4.66414 -3.87998 0
M  V30 973 H 91.0083 -3.49147 -3.40511 0
M  V30 974 H 90.0133 -5.18165 -1.83806 0
M  V30 975 H 91.2383 -6.3749 -2.34059 0
M  V30 976 H 89.1843 -5.06823 -4.16493 0
M  V30 977 H 89.1013 -6.68151 -3.53708 0
M  V30 978 H 90.3693 -6.25756 -4.64811 0
M  V30 979 N 94.5984 0.214957 -1.56127 0
M  V30 980 C 95.8264 0.955092 -1.83536 0
M  V30 981 C 96.2414 1.77677 -0.638472 0
M  V30 982 O 95.5984 1.78219 0.392968 0
M  V30 983 C 95.6494 1.86734 -3.09536 0
M  V30 984 O 95.3704 1.07887 -4.24608 0
M  V30 985 C 96.8714 2.72082 -3.4998 0
M  V30 986 H 94.0914 0.279611 -0.609966 0
M  V30 987 H 96.6354 0.228197 -2.03223 0
M  V30 988 H 94.7904 2.5481 -2.91806 0
M  V30 989 H 95.2044 1.69872 -4.9623 0
M  V30 990 H 96.6784 3.31782 -4.41163 0
M  V30 991 H 97.1554 3.44806 -2.7204 0
M  V30 992 H 97.7614 2.09409 -3.70173 0
M  V30 993 N 96.0765 1.50051 0.48192 0
M  V30 994 C 97.3015 1.64508 1.26301 0
M  V30 995 C 97.7265 0.323851 1.85291 0
M  V30 996 O 97.0845 -0.710969 1.66778 0
M  V30 997 C 97.1325 2.7305 2.35533 0
M  V30 998 O 96.2365 2.3355 3.39895 0
M  V30 999 H 95.5775 0.549978 0.372048 0
M  V30 1000 H 98.1075 1.9636 0.574786 0
M  V30 1001 H 98.1175 2.95799 2.8101 0
M  V30 1002 H 96.7925 3.68946 1.91967 0
M  V30 1003 H 95.3695 2.21205 3.00204 0
M  V30 1004 N 97.5546 -0.734337 1.39446 0
M  V30 1005 C 98.9656 -1.31264 1.32766 0
M  V30 1006 C 99.3166 -1.96198 -0.00767497 0
M  V30 1007 O 98.4416 -1.96346 -0.909796 0
M  V30 1008 C 99.0366 -2.38682 2.4045 0
M  V30 1009 C 97.5956 -2.92184 2.37288 0
M  V30 1010 C 96.7426 -1.6576 2.22304 0
M  V30 1011 H 99.6936 -0.531799 1.49525 0
M  V30 1012 H 99.7146 -3.19087 2.07276 0
M  V30 1013 H 99.2266 -1.91392 3.37625 0
M  V30 1014 H 97.3276 -3.43752 1.43754 0
M  V30 1015 H 97.4406 -3.45253 3.3217 0
M  V30 1016 H 95.8046 -1.9012 1.69489 0
M  V30 1017 H 96.5876 -1.20521 3.21449 0
M  V30 1018 N 99.0327 -1.24633 -0.964593 0
M  V30 1019 C 100.261 -1.11501 -1.74285 0
M  V30 1020 C 100.676 0.332165 -1.85855 0
M  V30 1021 O 100.033 1.22903 -1.34911 0
M  V30 1022 C 100.084 -1.75258 -3.16175 0
M  V30 1023 O 99.8047 -3.14318 -3.05182 0
M  V30 1024 C 101.306 -1.67776 -4.10324 0
M  V30 1025 H 98.5257 -0.389407 -0.546446 0
M  V30 1026 H 101.07 -1.64801 -1.21083 0
M  V30 1027 H 99.2247 -1.25954 -3.66353 0
M  V30 1028 H 99.6387 -3.4551 -3.94618 0
M  V30 1029 H 101.113 -2.17064 -5.0753 0
M  V30 1030 H 101.59 -0.639584 -4.34518 0
M  V30 1031 H 102.196 -2.16522 -3.66058 0
M  V30 1032 N 100.511 1.16574 -1.06058 0
M  V30 1033 C 101.421 2.2452 -0.680282 0
M  V30 1034 C 102.437 1.71348 0.302604 0
M  V30 1035 O 103.613 2.00822 0.152513 0
M  V30 1036 C 100.678 3.46629 -0.0700315 0
M  V30 1037 C 99.7388 4.14849 -1.10448 0
M  V30 1038 C 98.9718 5.31129 -0.523256 0
M  V30 1039 O 99.1948 5.66514 0.664709 0
M  V30 1040 O 98.1288 5.88526 -1.26179 0
M  V30 1041 H 101.955 2.59355 -1.58015 0
M  V30 1042 H 99.5398 1.24043 -0.832694 0
M  V30 1043 H 101.422 4.20543 0.268667 0
M  V30 1044 H 100.097 3.13573 0.803353 0
M  V30 1045 H 99.0038 3.42916 -1.49532 0
M  V30 1046 H 100.337 4.51954 -1.94931 0
M  V30 1047 N 101.989 0.842826 1.3317 0
M  V30 1048 C 103.237 0.439577 1.97262 0
M  V30 1049 C 103.558 -1.00548 1.67078 0
M  V30 1050 O 102.828 -1.70098 0.971779 0
M  V30 1051 H 101.408 0.159558 0.72976 0
M  V30 1052 H 104.07 1.07665 1.62463 0
M  V30 1053 H 103.166 0.574886 3.0676 0
M  V30 1054 N 103.467 -1.45747 0.599634 0
M  V30 1055 C 104.397 -2.33235 -0.111306 0
M  V30 1056 C 105.378 -1.46359 -0.866781 0
M  V30 1057 O 106.563 -1.75146 -0.838904 0
M  V30 1058 C 103.693 -3.28932 -1.11451 0
M  V30 1059 C 102.647 -4.25381 -0.472772 0
M  V30 1060 C 101.973 -5.1071 -1.58365 0
M  V30 1061 C 103.273 -5.18831 0.600948 0
M  V30 1062 H 104.967 -2.92927 0.61919 0
M  V30 1063 H 102.513 -1.40857 0.299215 0
M  V30 1064 H 104.466 -3.89002 -1.62036 0
M  V30 1065 H 103.19 -2.67381 -1.8755 0
M  V30 1066 H 101.849 -3.66598 0.0121472 0
M  V30 1067 H 101.497 -4.45533 -2.33473 0
M  V30 1068 H 101.197 -5.7604 -1.15982 0
M  V30 1069 H 102.721 -5.73647 -2.09194 0
M  V30 1070 H 104.135 -5.73019 0.179491 0
M  V30 1071 H 102.532 -5.92595 0.946076 0
M  V30 1072 H 103.602 -4.6174 1.48068 0
M  V30 1073 N 104.945 -0.338344 -1.53925 0
M  V30 1074 C 105.908 0.508299 -2.23493 0
M  V30 1075 C 106.908 1.03175 -1.23335 0
M  V30 1076 O 108.098 0.921826 -1.47811 0
M  V30 1077 C 105.23 1.70754 -2.95052 0
M  V30 1078 H 106.423 -0.100058 -2.99733 0
M  V30 1079 H 103.976 -0.0896198 -1.56043 0
M  V30 1080 H 104.711 2.35474 -2.22986 0
M  V30 1081 H 104.496 1.33946 -3.68512 0
M  V30 1082 H 105.986 2.30818 -3.48013 0
M  V30 1083 N 106.423 1.57458 -0.0668435 0
M  V30 1084 C 107.7 1.8469 0.644132 0
M  V30 1085 C 108.08 0.958343 1.88093 0
M  V30 1086 O 107.428 0.0233579 2.28488 0
M  V30 1087 C 107.638 3.34767 0.986509 0
M  V30 1088 C 108.986 4.02159 1.36212 0
M  V30 1089 O 110.01 3.39484 1.07839 0
M  V30 1090 O 108.869 5.12694 1.89227 0
M  V30 1091 H 105.963 0.762816 0.319437 0
M  V30 1092 H 108.509 1.6942 -0.0973986 0
M  V30 1093 H 107.281 3.91151 0.107883 0
M  V30 1094 H 106.904 3.55281 1.78497 0
M  V30 1095 N 107.901 -0.206675 1.56239 0
M  V30 1096 C 108.849 -1.27571 1.94495 0
M  V30 1097 C 109.843 -1.47737 0.828862 0
M  V30 1098 O 111.049 -1.48735 1.0138 0
M  V30 1099 H 107.424 -0.428029 0.6183 0
M  V30 1100 H 109.395 -0.925961 2.8367 0
M  V30 1101 C 108.144 -2.61568 2.29079 0
M  V30 1102 H 107.467 -2.46863 3.14482 0
M  V30 1103 H 108.907 -3.35144 2.5972 0
M  V30 1104 C 107.366 -3.17695 1.12123 0
M  V30 1105 O 107.896 -3.99801 0.390153 0
M  V30 1106 N 106.102 -2.76276 0.901097 0
M  V30 1107 H 105.649 -2.09613 1.49733 0
M  V30 1108 H 105.607 -3.1417 0.120319 0
M  V30 1109 N 109.379 -1.50304 -0.473955 0
M  V30 1110 C 110.607 -1.64902 -1.24959 0
M  V30 1111 C 111.022 -0.331198 -1.85872 0
M  V30 1112 O 110.379 0.68652 -1.69095 0
M  V30 1113 C 110.43 -2.73803 -2.36038 0
M  V30 1114 O 110.151 -4.00477 -1.77624 0
M  V30 1115 C 111.652 -2.99349 -3.26964 0
M  V30 1116 H 108.872 -0.554383 -0.378022 0
M  V30 1117 H 111.416 -1.9651 -0.566054 0
M  V30 1118 H 109.571 -2.44898 -3.00173 0
M  V30 1119 H 109.985 -4.60678 -2.5075 0
M  V30 1120 H 111.459 -3.79217 -4.01121 0
M  V30 1121 H 111.936 -2.10307 -3.85574 0
M  V30 1122 H 112.542 -3.29774 -2.68569 0
M  V30 1123 N 110.857 0.726932 -1.39834 0
M  V30 1124 C 111.805 1.86235 -1.39353 0
M  V30 1125 C 112.799 1.67144 -0.275555 0
M  V30 1126 O 114.005 1.74387 -0.44601 0
M  V30 1127 H 110.38 0.613174 -0.43534 0
M  V30 1128 H 112.351 1.83756 -2.35109 0
M  V30 1129 C 111.1 3.23995 -1.26185 0
M  V30 1130 H 110.423 3.39285 -2.11484 0
M  V30 1131 H 111.863 4.03609 -1.29907 0
M  V30 1132 C 110.322 3.36888 0.0290018 0
M  V30 1133 O 110.852 3.89152 0.99619 0
M  V30 1134 N 109.058 2.90446 0.0947437 0
M  V30 1135 H 108.605 2.48102 -0.693035 0
M  V30 1136 H 108.563 2.99451 0.957932 0
M  V30 1137 N 112.336 1.25143 0.95797 0
M  V30 1138 C 113.613 1.00472 1.67823 0
M  V30 1139 C 113.993 -0.470056 2.058 0
M  V30 1140 O 113.341 -1.44663 1.76875 0
M  V30 1141 C 113.551 1.9372 2.90299 0
M  V30 1142 C 114.899 2.21371 3.62326 0
M  V30 1143 O 115.923 1.91451 3.00375 0
M  V30 1144 O 114.782 2.72231 4.7387 0
M  V30 1145 H 111.876 0.380752 0.734137 0
M  V30 1146 H 114.422 1.36283 1.01119 0
M  V30 1147 H 113.194 2.93316 2.59001 0
M  V30 1148 H 112.817 1.58286 3.64735 0
M  V30 1149 N 113.814 -1.1601 1.06675 0
M  V30 1150 C 114.744 -2.22688 0.702307 0
M  V30 1151 C 115.725 -1.67306 -0.307032 0
M  V30 1152 O 116.91 -1.93352 -0.181305 0
M  V30 1153 C 114.04 -3.47178 0.092038 0
M  V30 1154 C 112.994 -4.15477 1.02777 0
M  V30 1155 C 112.32 -5.33963 0.28061 0
M  V30 1156 C 113.62 -4.66019 2.35846 0
M  V30 1157 H 115.314 -2.53429 1.59419 0
M  V30 1158 H 112.86 -1.21813 0.767961 0
M  V30 1159 H 114.813 -4.21037 -0.174814 0
M  V30 1160 H 113.537 -3.15749 -0.834877 0
M  V30 1161 H 112.196 -3.43549 1.27944 0
M  V30 1162 H 111.844 -4.98788 -0.649545 0
M  V30 1163 H 111.544 -5.806 0.904258 0
M  V30 1164 H 113.068 -6.10596 0.021396 0
M  V30 1165 H 114.482 -5.3144 2.15045 0
M  V30 1166 H 112.879 -5.23293 2.93743 0
M  V30 1167 H 113.949 -3.82023 2.98641 0
M  V30 1168 N 115.292 -0.849877 -1.32721 0
M  V30 1169 C 116.202 -0.293791 -2.32753 0
M  V30 1170 C 117.218 0.585906 -1.63839 0
M  V30 1171 O 118.394 0.487413 -1.95413 0
M  V30 1172 C 115.459 0.512752 -3.42887 0
M  V30 1173 C 114.52 -0.39252 -4.27502 0
M  V30 1174 C 113.753 0.375625 -5.32377 0
M  V30 1175 O 113.976 1.60613 -5.4732 0
M  V30 1176 O 112.91 -0.256094 -6.01355 0
M  V30 1177 H 116.736 -1.12242 -2.82197 0
M  V30 1178 H 114.321 -0.612685 -1.36259 0
M  V30 1179 H 116.203 0.970704 -4.10067 0
M  V30 1180 H 114.878 1.31826 -2.95641 0
M  V30 1181 H 113.785 -0.898547 -3.63149 0
M  V30 1182 H 115.118 -1.16309 -4.7826 0
M  V30 1183 N 116.77 1.45427 -0.607355 0
M  V30 1184 C 117.717 2.3053 0.111625 0
M  V30 1185 C 118.687 1.4209 0.860216 0
M  V30 1186 O 119.872 1.71019 0.845998 0
M  V30 1187 C 117.012 3.26992 1.10319 0
M  V30 1188 C 116.125 4.30535 0.355493 0
M  V30 1189 C 115.26 5.14105 1.33676 0
M  V30 1190 C 114.299 6.09376 0.576862 0
M  V30 1191 N 113.436 6.85727 1.5074 0
M  V30 1192 H 118.276 2.91477 -0.620093 0
M  V30 1193 H 115.813 1.43631 -0.317594 0
M  V30 1194 H 117.771 3.81385 1.6912 0
M  V30 1195 H 116.401 2.67799 1.80232 0
M  V30 1196 H 115.453 3.78805 -0.348023 0
M  V30 1197 H 116.765 4.98235 -0.237423 0
M  V30 1198 H 115.919 5.72897 1.99684 0
M  V30 1199 H 114.658 4.46423 1.9636 0
M  V30 1200 H 113.663 5.49715 -0.0968519 0
M  V30 1201 H 114.888 6.79085 -0.0449341 0
M  V30 1202 H 112.834 6.20735 2.12189 0
M  V30 1203 H 112.751 7.49778 0.967913 0
M  V30 1204 H 114.019 7.4906 2.15706 0
M  V30 1205 N 118.248 0.346503 1.53744 0
M  V30 1206 C 119.664 -0.00530975 1.59599 0
M  V30 1207 C 119.864 -1.48465 1.36236 0
M  V30 1208 O 118.92 -2.24376 1.15808 0
M  V30 1209 C 120.233 0.433516 2.97559 0
M  V30 1210 C 121.781 0.386111 3.10609 0
M  V30 1211 C 122.256 0.800451 4.50951 0
M  V30 1212 N 123.747 0.754753 4.5701 0
M  V30 1213 C 124.482 1.04727 5.63755 0
M  V30 1214 N 123.978 1.4081 6.7834 0
M  V30 1215 N 125.771 0.971316 5.53644 0
M  V30 1216 H 117.922 1.31009 1.67184 0
M  V30 1217 H 120.185 0.534242 0.783128 0
M  V30 1218 H 119.891 1.46509 3.19731 0
M  V30 1219 H 119.765 -0.189753 3.76722 0
M  V30 1220 H 122.152 -0.636295 2.88158 0
M  V30 1221 H 122.233 1.04462 2.33498 0
M  V30 1222 H 121.877 1.82088 4.74137 0
M  V30 1223 H 121.807 0.119386 5.26465 0
M  V30 1224 H 124.298 0.488662 3.74727 0
M  V30 1225 H 124.611 1.61607 7.55714 0
M  V30 1226 H 122.956 1.44657 6.79779 0
M  V30 1227 H 126.147 0.688748 4.63005 0
M  V30 1228 H 126.32 1.20263 6.36742 0
M  V30 1229 N 119.726 -1.57421 0.075193 0
M  V30 1230 C 121.142 -1.57099 -0.281444 0
M  V30 1231 C 121.342 -1.08486 -1.69803 0
M  V30 1232 O 120.398 -0.752279 -2.41033 0
M  V30 1233 C 121.711 -3.00571 -0.0880041 0
M  V30 1234 C 123.259 -3.12605 -0.157281 0
M  V30 1235 C 123.734 -4.57999 0.0079207 0
M  V30 1236 N 125.225 -4.63176 -0.0475725 0
M  V30 1237 C 125.96 -5.73373 0.0557876 0
M  V30 1238 N 125.456 -6.92473 0.21286 0
M  V30 1239 N 127.249 -5.621 -0.00152098 0
M  V30 1240 H 119.4 -1.87335 1.00098 0
M  V30 1241 H 121.663 -0.86377 0.390646 0
M  V30 1242 H 121.369 -3.40262 0.889629 0
M  V30 1243 H 121.243 -3.67754 -0.838875 0
M  V30 1244 H 123.63 -2.72798 -1.1254 0
M  V30 1245 H 123.711 -2.48053 0.62475 0
M  V30 1246 H 123.355 -4.98496 0.972824 0
M  V30 1247 H 123.285 -5.20586 -0.793556 0
M  V30 1248 H 125.776 -3.7753 -0.167244 0
M  V30 1249 H 126.089 -7.72279 0.283781 0
M  V30 1250 H 124.434 -6.94556 0.248267 0
M  V30 1251 H 127.625 -4.67938 -0.122958 0
M  V30 1252 H 127.798 -6.47948 0.0824844 0
M  V30 1253 N 121.204 0.198386 -1.56346 0
M  V30 1254 C 122.136 1.26987 -1.90806 0
M  V30 1255 C 123.149 1.41877 -0.798419 0
M  V30 1256 O 124.338 1.42362 -1.07682 0
M  V30 1257 C 121.438 2.64246 -2.12196 0
M  V30 1258 C 120.611 2.71007 -3.43328 0
M  V30 1259 C 119.67 3.89439 -3.5387 0
M  V30 1260 O 118.696 3.76695 -4.26719 0
M  V30 1261 N 119.898 5.04752 -2.86715 0
M  V30 1262 H 122.663 0.977433 -2.83313 0
M  V30 1263 H 120.224 0.388322 -1.57174 0
M  V30 1264 H 122.216 3.41896 -2.1654 0
M  V30 1265 H 120.786 2.85992 -1.26204 0
M  V30 1266 H 120.006 1.79657 -3.50881 0
M  V30 1267 H 121.294 2.72512 -4.29668 0
M  V30 1268 H 120.692 5.18004 -2.2735 0
M  V30 1269 H 119.249 5.8036 -2.96691 0
M  V30 1270 N 122.682 1.50554 0.465978 0
M  V30 1271 C 123.931 1.61038 1.21448 0
M  V30 1272 C 124.244 0.31865 1.92987 0
M  V30 1273 O 125.45 0.302469 2.6981 0
M  V30 1274 C 123.906 2.84283 2.20706 0
M  V30 1275 C 123.514 4.20352 1.54946 0
M  V30 1276 C 125.258 3.04115 2.96166 0
M  V30 1277 C 123.165 5.34778 2.5252 0
M  V30 1278 H 122.095 0.599718 0.457005 0
M  V30 1279 H 124.746 1.7699 0.484424 0
M  V30 1280 H 123.128 2.61901 2.97025 0
M  V30 1281 H 124.302 4.53008 0.843811 0
M  V30 1282 H 122.617 4.06167 0.917475 0
M  V30 1283 H 125.214 3.86774 3.69202 0
M  V30 1284 H 125.557 2.16045 3.55852 0
M  V30 1285 H 126.09 3.26702 2.26959 0
M  V30 1286 H 122.829 6.25018 1.97566 0
M  V30 1287 H 122.349 5.06534 3.21222 0
M  V30 1288 H 124.028 5.65561 3.14245 0
M  V30 1289 N 124.16 -0.719506 1.40217 0
M  V30 1290 C 125.39 -1.50646 1.41384 0
M  V30 1291 C 125.798 -1.89197 0.0107743 0
M  V30 1292 O 125.141 -1.55709 -0.974708 0
M  V30 1293 C 125.203 -2.81405 2.23722 0
M  V30 1294 C 124.867 -2.65199 3.72181 0
M  V30 1295 C 125.864 -2.32717 4.64907 0
M  V30 1296 C 123.549 -2.81586 4.1595 0
M  V30 1297 C 125.543 -2.16827 5.99387 0
M  V30 1298 C 123.23 -2.65313 5.50502 0
M  V30 1299 C 124.228 -2.32981 6.42035 0
M  V30 1300 O 123.916 -2.16827 7.74107 0
M  V30 1301 H 123.648 -0.471606 0.484318 0
M  V30 1302 H 126.202 -0.895456 1.84853 0
M  V30 1303 H 124.432 -3.44823 1.75026 0
M  V30 1304 H 126.121 -3.43102 2.16878 0
M  V30 1305 H 126.887 -2.19694 4.32388 0
M  V30 1306 H 122.766 -3.0574 3.45027 0
M  V30 1307 H 126.31 -1.91513 6.70797 0
M  V30 1308 H 122.207 -2.7792 5.82607 0
M  V30 1309 H 122.975 -2.31778 7.84998 0
M  V30 1310 N 125.638 -1.25649 -0.95132 0
M  V30 1311 C 126.886 -1.10375 -1.69298 0
M  V30 1312 C 127.207 0.355339 -1.91735 0
M  V30 1313 O 126.477 1.25188 -1.50681 0
M  V30 1314 H 125.057 -0.405461 -0.627384 0
M  V30 1315 H 127.719 -1.57823 -1.14358 0
M  V30 1316 H 126.815 -1.61465 -2.67087 0
M  V30 1317 N 127.117 1.15442 -1.07289 0
M  V30 1318 C 128.049 2.19773 -0.650585 0
M  V30 1319 C 129.062 1.60076 0.296572 0
M  V30 1320 O 130.251 1.78293 0.0859905 0
M  V30 1321 C 127.351 3.38838 0.0650398 0
M  V30 1322 C 126.524 4.2808 -0.898141 0
M  V30 1323 C 125.583 5.2574 -0.219926 0
M  V30 1324 O 124.609 5.62654 -0.860773 0
M  V30 1325 N 125.811 5.71205 1.03466 0
M  V30 1326 H 128.576 2.56622 -1.54808 0
M  V30 1327 H 126.137 1.30551 -0.957494 0
M  V30 1328 H 128.129 4.01222 0.529415 0
M  V30 1329 H 126.699 3.00409 0.864466 0
M  V30 1330 H 125.919 3.62804 -1.54165 0
M  V30 1331 H 127.207 4.84577 -1.5512 0
M  V30 1332 H 126.605 5.43325 1.57526 0
M  V30 1333 H 125.162 6.35633 1.44272 0
M  V30 1334 N 128.595 0.856903 1.32268 0
M  V30 1335 C 129.543 0.291987 2.3076 0
M  V30 1336 C 130.537 -0.585857 1.58947 0
M  V30 1337 O 131.743 -0.47341 1.73663 0
M  V30 1338 H 128.118 0.075721 0.748178 0
M  V30 1339 H 130.089 1.13687 2.75895 0
M  V30 1340 C 128.838 -0.502869 3.44044 0
M  V30 1341 H 128.161 0.163328 3.99466 0
M  V30 1342 H 129.601 -0.863691 4.1511 0
M  V30 1343 C 128.06 -1.68898 2.91505 0
M  V30 1344 O 128.59 -2.78811 2.89184 0
M  V30 1345 N 126.796 -1.51679 2.47875 0
M  V30 1346 H 126.343 -0.622666 2.49961 0
M  V30 1347 H 126.301 -2.31184 2.13076 0
M  V30 1348 N 130.073 -1.45103 0.615059 0
M  V30 1349 C 131.32 -2.02183 0.113179 0
M  V30 1350 C 131.648 -1.48249 -1.25906 0
M  V30 1351 O 130.903 -0.650265 -1.84581 0
M  V30 1352 C 131.202 -3.57386 0.0318797 0
M  V30 1353 C 130.868 -4.30505 1.34077 0
M  V30 1354 C 129.53 -4.50197 1.69929 0
M  V30 1355 C 131.882 -4.72238 2.20546 0
M  V30 1356 C 129.21 -5.08881 2.91988 0
M  V30 1357 C 131.562 -5.32272 3.41861 0
M  V30 1358 C 130.226 -5.50187 3.77956 0
M  V30 1359 H 129.496 -0.739842 0.0414151 0
M  V30 1360 H 132.143 -1.74073 0.798168 0
M  V30 1361 H 130.448 -3.84817 -0.736409 0
M  V30 1362 H 132.145 -3.99264 -0.372712 0
M  V30 1363 H 128.735 -4.15496 1.05173 0
M  V30 1364 H 132.919 -4.56751 1.94146 0
M  V30 1365 H 128.175 -5.20939 3.2005 0
M  V30 1366 H 132.349 -5.63563 4.09109 0
M  V30 1367 H 129.976 -5.95427 4.72622 0
M  V30 1368 N 131.551 -0.354651 -1.53558 0
M  V30 1369 C 132.8 0.239504 -2.00273 0
M  V30 1370 C 133.113 1.50759 -1.24623 0
M  V30 1371 O 134.319 2.17968 -1.61871 0
M  V30 1372 C 132.775 0.477341 -3.5672 0
M  V30 1373 C 132.383 -0.775488 -4.41237 0
M  V30 1374 C 134.127 1.02975 -4.11821 0
M  V30 1375 C 132.034 -0.507838 -5.89216 0
M  V30 1376 H 130.964 0.0932743 -0.748208 0
M  V30 1377 H 133.615 -0.471701 -1.77334 0
M  V30 1378 H 131.997 1.24953 -3.7577 0
M  V30 1379 H 133.171 -1.54963 -4.33962 0
M  V30 1380 H 131.486 -1.25033 -3.97185 0
M  V30 1381 H 134.083 1.24513 -5.2 0
M  V30 1382 H 134.426 1.98862 -3.65731 0
M  V30 1383 H 134.959 0.317994 -3.96527 0
M  V30 1384 H 131.698 -1.43674 -6.39561 0
M  V30 1385 H 131.218 0.228011 -5.99366 0
M  V30 1386 H 132.897 -0.129238 -6.46871 0
M  V30 1387 N 133.029 1.57378 -0.0835403 0
M  V30 1388 C 134.44 1.81261 0.447358 0
M  V30 1389 C 134.791 0.998331 1.68902 0
M  V30 1390 O 133.916 0.224282 2.15235 0
M  V30 1391 C 134.511 3.28767 0.818386 0
M  V30 1392 C 133.07 3.53455 1.29409 0
M  V30 1393 C 132.217 2.75831 0.285024 0
M  V30 1394 H 135.168 1.5566 -0.309115 0
M  V30 1395 H 135.189 3.41459 1.67887 0
M  V30 1396 H 134.701 3.88006 -0.0855019 0
M  V30 1397 H 132.802 2.99534 2.21608 0
M  V30 1398 H 132.915 4.62128 1.2639 0
M  V30 1399 H 131.279 2.42947 0.764767 0
M  V30 1400 H 132.062 3.37813 -0.611341 0
M  V30 1401 N 134.507 -0.190092 1.56449 0
M  V30 1402 C 135.918 -0.754312 1.70784 0
M  V30 1403 C 136.269 -1.83631 0.690951 0
M  V30 1404 O 135.394 -2.15868 -0.151604 0
M  V30 1405 C 135.989 -1.37503 3.09642 0
M  V30 1406 C 134.548 -1.88628 3.25725 0
M  V30 1407 C 133.695 -0.758098 2.66736 0
M  V30 1408 H 136.646 0.0350524 1.58661 0
M  V30 1409 H 136.667 -2.2445 3.0725 0
M  V30 1410 H 136.179 -0.587302 3.83631 0
M  V30 1411 H 134.28 -2.70103 2.56661 0
M  V30 1412 H 134.393 -2.04462 4.3328 0
M  V30 1413 H 132.757 -1.17369 2.26046 0
M  V30 1414 H 133.54 0.0174705 3.43296 0
M  V30 1415 N 135.985 -1.50799 -0.457987 0
M  V30 1416 C 136.932 -1.70617 -1.5543 0
M  V30 1417 C 137.902 -0.547562 -1.56815 0
M  V30 1418 O 139.087 -0.779647 -1.74144 0
M  V30 1419 C 136.227 -1.81831 -2.93311 0
M  V30 1420 C 135.34 -3.09278 -3.01615 0
M  V30 1421 C 134.475 -3.11209 -4.30491 0
M  V30 1422 C 133.514 -4.33055 -4.32585 0
M  V30 1423 N 132.651 -4.32652 -5.52952 0
M  V30 1424 H 137.491 -2.64207 -1.37836 0
M  V30 1425 H 135.028 -1.30959 -0.669937 0
M  V30 1426 H 136.986 -1.86314 -3.73287 0
M  V30 1427 H 135.616 -0.916685 -3.0951 0
M  V30 1428 H 134.668 -3.14203 -2.1443 0
M  V30 1429 H 135.98 -3.99233 -2.99022 0
M  V30 1430 H 135.134 -3.14494 -5.18824 0
M  V30 1431 H 133.873 -2.19106 -4.35711 0
M  V30 1432 H 132.878 -4.29969 -3.42647 0
M  V30 1433 H 134.103 -5.264 -4.29046 0
M  V30 1434 H 132.049 -3.43409 -5.58933 0
M  V30 1435 H 131.966 -5.16392 -5.52155 0
M  V30 1436 H 133.234 -4.40101 -6.43375 0
M  V30 1437 N 137.463 0.71206 -1.40597 0
M  V30 1438 C 138.395 1.83704 -1.37061 0
M  V30 1439 C 139.408 1.60453 -0.275426 0
M  V30 1440 O 140.597 1.70262 -0.53602 0
M  V30 1441 C 137.697 3.20172 -1.11099 0
M  V30 1442 C 136.87 3.7059 -2.3234 0
M  V30 1443 C 135.929 4.85681 -2.02485 0
M  V30 1444 O 134.955 4.9815 -2.75382 0
M  V30 1445 N 136.157 5.71735 -1.00497 0
M  V30 1446 H 138.922 1.87235 -2.34016 0
M  V30 1447 H 136.483 0.893739 -1.34996 0
M  V30 1448 H 138.475 3.94768 -0.891064 0
M  V30 1449 H 137.045 3.11767 -0.227989 0
M  V30 1450 H 136.265 2.87085 -2.7014 0
M  V30 1451 H 137.553 4.01011 -3.13157 0
M  V30 1452 H 136.951 5.64275 -0.401298 0
M  V30 1453 H 135.508 6.463 -0.844942 0
M  V30 1454 N 138.941 1.26152 0.944643 0
M  V30 1455 C 140.352 1.10454 1.50522 0
M  V30 1456 C 140.703 -0.31635 1.93633 0
M  V30 1457 O 139.828 -1.20746 1.79581 0
M  V30 1458 C 140.423 1.99891 2.73549 0
M  V30 1459 C 138.982 1.88348 3.25886 0
M  V30 1460 C 138.129 1.93447 1.9868 0
M  V30 1461 H 141.08 1.39292 0.760489 0
M  V30 1462 H 141.101 1.54477 3.47732 0
M  V30 1463 H 140.613 3.03297 2.42141 0
M  V30 1464 H 138.714 0.878636 3.62092 0
M  V30 1465 H 138.827 2.73696 3.93227 0
M  V30 1466 H 137.191 1.37456 2.14425 0
M  V30 1467 H 137.974 2.98476 1.69607 0
M  V30 1468 N 140.419 -1.14872 1.07899 0
M  V30 1469 C 141.366 -2.19791 0.704319 0
M  V30 1470 C 142.336 -1.63238 -0.306987 0
M  V30 1471 O 143.521 -1.8983 -0.192171 0
M  V30 1472 C 140.661 -3.44911 0.114244 0
M  V30 1473 C 139.774 -4.15637 1.1777 0
M  V30 1474 C 138.909 -5.28324 0.552037 0
M  V30 1475 C 137.948 -5.90875 1.59789 0
M  V30 1476 N 137.085 -6.95022 0.994404 0
M  V30 1477 H 141.925 -2.5119 1.60336 0
M  V30 1478 H 139.462 -1.23356 0.801352 0
M  V30 1479 H 141.42 -4.16477 -0.245544 0
M  V30 1480 H 140.05 -3.14011 -0.74813 0
M  V30 1481 H 139.102 -3.42512 1.65499 0
M  V30 1482 H 140.414 -4.5823 1.97046 0
M  V30 1483 H 139.568 -6.06538 0.1402 0
M  V30 1484 H 138.307 -4.86939 -0.272431 0
M  V30 1485 H 137.312 -5.11369 2.01945 0
M  V30 1486 H 138.537 -6.34337 2.42474 0
M  V30 1487 H 136.483 -6.55722 0.190939 0
M  V30 1488 H 136.4 -7.36073 1.72432 0
M  V30 1489 H 137.668 -7.77123 0.608253 0
M  V30 1490 N 141.898 -0.863906 -1.31812 0
M  V30 1491 C 143.126 -0.486111 -2.01108 0
M  V30 1492 C 143.541 0.919755 -1.64882 0
M  V30 1493 O 142.898 1.60162 -0.874893 0
M  V30 1494 C 142.949 -0.626435 -3.56031 0
M  V30 1495 O 142.67 -1.97693 -3.90959 0
M  V30 1496 C 144.171 -0.248857 -4.42601 0
M  V30 1497 H 141.391 -0.190052 -0.643523 0
M  V30 1498 H 143.935 -1.1634 -1.68182 0
M  V30 1499 H 142.09 0.00322717 -3.874 0
M  V30 1500 H 142.504 -1.98034 -4.85678 0
M  V30 1501 H 143.978 -0.398016 -5.50563 0
M  V30 1502 H 144.455 0.811489 -4.31638 0
M  V30 1503 H 145.061 -0.853971 -4.16638 0
M  V30 1504 N 143.376 1.44774 -0.622745 0
M  V30 1505 C 144.623 2.02121 -0.1239 0
M  V30 1506 C 144.951 1.48915 1.25118 0
M  V30 1507 O 144.206 0.660045 1.84233 0
M  V30 1508 C 144.505 3.57364 -0.0508323 0
M  V30 1509 C 144.171 4.29787 -1.36358 0
M  V30 1510 C 142.833 4.4929 -1.72314 0
M  V30 1511 C 145.185 4.71062 -2.23048 0
M  V30 1512 C 142.513 5.07325 -2.94682 0
M  V30 1513 C 144.865 5.30452 -3.44679 0
M  V30 1514 C 143.529 5.48175 -3.80868 0
M  V30 1515 H 142.799 0.739612 -0.0453381 0
M  V30 1516 H 145.446 1.73648 -0.807389 0
M  V30 1517 H 143.751 3.85202 0.715991 0
M  V30 1518 H 145.448 3.99456 0.351533 0
M  V30 1519 H 142.038 4.14932 -1.07375 0
M  V30 1520 H 146.222 4.55715 -1.96565 0
M  V30 1521 H 141.478 5.19235 -3.22809 0
M  V30 1522 H 145.652 5.61385 -4.12092 0
M  V30 1523 H 143.279 5.92912 -4.75773 0
M  V30 1524 N 144.854 0.36279 1.53368 0
M  V30 1525 C 145.784 -0.476976 2.28576 0
M  V30 1526 C 146.765 -1.08631 1.30894 0
M  V30 1527 O 147.95 -1.10409 1.59761 0
M  V30 1528 C 145.08 -1.61828 3.07293 0
M  V30 1529 C 144.034 -1.13633 4.1264 0
M  V30 1530 C 143.36 -2.36766 4.79423 0
M  V30 1531 C 144.66 -0.223061 5.21823 0
M  V30 1532 H 146.354 0.150474 2.99022 0
M  V30 1533 H 143.9 0.0738103 1.43811 0
M  V30 1534 H 145.853 -2.21237 3.58653 0
M  V30 1535 H 144.577 -2.27292 2.34533 0
M  V30 1536 H 143.236 -0.564945 3.62221 0
M  V30 1537 H 142.884 -3.0068 4.03238 0
M  V30 1538 H 142.584 -2.05192 5.50609 0
M  V30 1539 H 144.108 -2.96865 5.33576 0
M  V30 1540 H 145.522 -0.724545 5.68703 0
M  V30 1541 H 143.919 0.001678 6.001 0
M  V30 1542 H 144.989 0.735553 4.79289 0
M  V30 1543 N 146.332 -1.57332 0.0918853 0
M  V30 1544 C 147.264 -2.10869 -0.898168 0
M  V30 1545 C 148.277 -1.04521 -1.24817 0
M  V30 1546 O 149.466 -1.31977 -1.20184 0
M  V30 1547 C 146.566 -2.57083 -2.2082 0
M  V30 1548 C 145.739 -3.87229 -2.03402 0
M  V30 1549 C 144.798 -4.19324 -3.17889 0
M  V30 1550 O 143.824 -4.88598 -2.91994 0
M  V30 1551 N 145.026 -3.74471 -4.43567 0
M  V30 1552 H 147.791 -2.96439 -0.440943 0
M  V30 1553 H 145.352 -1.61631 -0.0933064 0
M  V30 1554 H 147.344 -2.75602 -2.96354 0
M  V30 1555 H 145.914 -1.76541 -2.57977 0
M  V30 1556 H 145.134 -3.7789 -1.12218 0
M  V30 1557 H 146.422 -4.72379 -1.89038 0
M  V30 1558 H 145.82 -3.18546 -4.67488 0
M  V30 1559 H 144.377 -3.98151 -5.16061 0
M  V30 1560 N 147.81 0.181792 -1.56548 0
M  V30 1561 C 148.74 1.22765 -1.98623 0
M  V30 1562 C 149.721 1.46747 -0.860189 0
M  V30 1563 O 150.906 1.58259 -1.12551 0
M  V30 1564 C 148.036 2.56894 -2.33715 0
M  V30 1565 C 146.99 2.475 -3.49182 0
M  V30 1566 C 146.316 3.86023 -3.69986 0
M  V30 1567 C 147.616 1.98866 -4.82959 0
M  V30 1568 H 149.31 0.877942 -2.86239 0
M  V30 1569 H 146.856 0.42088 -1.37712 0
M  V30 1570 H 148.809 3.30253 -2.61746 0
M  V30 1571 H 147.533 2.93632 -1.42997 0
M  V30 1572 H 146.192 1.76596 -3.21262 0
M  V30 1573 H 145.84 4.20136 -2.76576 0
M  V30 1574 H 145.54 3.80609 -4.47672 0
M  V30 1575 H 147.064 4.60984 -4.00407 0
M  V30 1576 H 148.478 2.61992 -5.09934 0
M  V30 1577 H 146.875 2.04424 -5.64208 0
M  V30 1578 H 147.945 0.942465 -4.75653 0
M  V30 1579 N 149.288 1.51039 0.449983 0
M  V30 1580 C 150.534 1.63322 1.20223 0
M  V30 1581 C 150.867 0.34241 1.91158 0
M  V30 1582 O 150.142 -0.657344 1.83055 0
M  V30 1583 C 150.425 2.82801 2.22925 0
M  V30 1584 C 150.278 4.21823 1.56157 0
M  V30 1585 C 151.597 2.97807 3.24035 0
M  V30 1586 H 148.716 0.594407 0.435718 0
M  V30 1587 H 151.358 1.83489 0.493136 0
M  V30 1588 H 149.508 2.65738 2.834 0
M  V30 1589 H 151.18 4.50526 0.991162 0
M  V30 1590 H 149.423 4.25105 0.864172 0
M  V30 1591 H 150.094 5.01391 2.30891 0
M  V30 1592 H 152.57 3.13497 2.73603 0
M  V30 1593 H 151.446 3.82992 3.93202 0
M  V30 1594 H 151.707 2.09328 3.89402 0
M  V30 1595 N 150.766 -0.704594 1.40972 0
M  V30 1596 C 152.012 -1.46546 1.41053 0
M  V30 1597 C 152.367 -1.92393 0.0159714 0
M  V30 1598 O 151.66 -1.66017 -0.956506 0
M  V30 1599 C 151.854 -2.698 2.34399 0
M  V30 1600 C 151.683 -2.36008 3.82793 0
M  V30 1601 C 150.453 -2.26812 4.51536 0
M  V30 1602 C 152.651 -1.99565 4.74003 0
M  V30 1603 N 150.633 -1.8581 5.85105 0
M  V30 1604 C 152.004 -1.69251 5.96451 0
M  V30 1605 C 154.059 -1.86296 4.61734 0
M  V30 1606 C 152.762 -1.27003 7.07999 0
M  V30 1607 C 154.788 -1.45452 5.73234 0
M  V30 1608 C 154.15 -1.16043 6.94776 0
M  V30 1609 H 150.249 -0.533896 0.571383 0
M  V30 1610 H 152.833 -0.816061 1.76773 0
M  V30 1611 H 151.004 -3.32473 2.00789 0
M  V30 1612 H 152.736 -3.36214 2.25261 0
M  V30 1613 H 149.491 -2.44913 4.05357 0
M  V30 1614 H 149.915 -1.67817 6.55871 0
M  V30 1615 H 154.557 -2.0769 3.68273 0
M  V30 1616 H 152.275 -1.04353 8.01334 0
M  V30 1617 H 155.861 -1.35748 5.65742 0
M  V30 1618 H 154.741 -0.84915 7.79589 0
M  V30 1619 N 152.244 -1.26651 -0.937939 0
M  V30 1620 C 153.154 -1.10276 -2.07066 0
M  V30 1621 C 154.17 -0.0354197 -1.73964 0
M  V30 1622 O 155.346 -0.239816 -1.99967 0
M  V30 1623 C 152.411 -0.740887 -3.38691 0
M  V30 1624 C 151.472 -1.88799 -3.85556 0
M  V30 1625 C 150.705 -1.54329 -5.10899 0
M  V30 1626 O 150.928 -0.446494 -5.6865 0
M  V30 1627 O 149.862 -2.37911 -5.52885 0
M  V30 1628 H 153.688 -2.05309 -2.23789 0
M  V30 1629 H 151.273 -1.05743 -1.0554 0
M  V30 1630 H 153.155 -0.55195 -4.1777 0
M  V30 1631 H 151.83 0.180022 -3.23199 0
M  V30 1632 H 150.737 -2.13191 -3.07409 0
M  V30 1633 H 152.07 -2.78874 -4.05574 0
M  V30 1634 N 153.722 1.14298 -1.08507 0
M  V30 1635 C 154.685 2.17607 -0.719711 0
M  V30 1636 C 155.685 1.58907 0.245997 0
M  V30 1637 O 156.875 1.74181 0.0254081 0
M  V30 1638 C 154.007 3.40842 -0.0627695 0
M  V30 1639 H 155.2 2.51443 -1.63452 0
M  V30 1640 H 152.753 1.28963 -0.88307 0
M  V30 1641 H 153.488 3.12587 0.863716 0
M  V30 1642 H 153.273 3.84713 -0.757504 0
M  V30 1643 H 154.763 4.17221 0.177786 0
M  V30 1644 N 155.201 0.870884 1.31352 0
M  V30 1645 C 156.131 0.343096 2.30966 0
M  V30 1646 C 157.112 -0.566507 1.60389 0
M  V30 1647 O 158.297 -0.483336 1.88089 0
M  V30 1648 C 155.427 -0.455487 3.443 0
M  V30 1649 C 154.381 0.361103 4.26474 0
M  V30 1650 C 153.707 -0.563221 5.31725 0
M  V30 1651 C 155.007 1.59566 4.97329 0
M  V30 1652 H 156.701 1.17548 2.75359 0
M  V30 1653 H 154.247 0.566686 1.32381 0
M  V30 1654 H 156.2 -0.83525 4.13039 0
M  V30 1655 H 154.924 -1.32139 2.98675 0
M  V30 1656 H 153.583 0.722825 3.59403 0
M  V30 1657 H 153.231 -1.42643 4.82351 0
M  V30 1658 H 152.931 -0.0207409 5.87596 0
M  V30 1659 H 154.455 -0.939808 6.03324 0
M  V30 1660 H 155.869 1.28728 5.58661 0
M  V30 1661 H 154.266 2.07728 5.63 0
M  V30 1662 H 155.336 2.34798 4.24262 0
M  V30 1663 N 156.679 -1.44442 0.630414 0
M  V30 1664 C 157.611 -2.2892 -0.113347 0
M  V30 1665 C 158.624 -1.41243 -0.80959 0
M  V30 1666 O 159.813 -1.65402 -0.671156 0
M  V30 1667 C 156.913 -3.17594 -1.18266 0
M  V30 1668 C 156.086 -4.33682 -0.569073 0
M  V30 1669 C 155.145 -5.03397 -1.53226 0
M  V30 1670 O 154.171 -5.59438 -1.04967 0
M  V30 1671 N 155.373 -5.04783 -2.86661 0
M  V30 1672 H 158.138 -2.93392 0.611636 0
M  V30 1673 H 155.699 -1.54881 0.471523 0
M  V30 1674 H 157.691 -3.61097 -1.82732 0
M  V30 1675 H 156.261 -2.54876 -1.80988 0
M  V30 1676 H 155.481 -3.9338 0.254187 0
M  V30 1677 H 156.769 -5.08608 -0.139767 0
M  V30 1678 H 156.167 -4.60584 -3.28449 0
M  V30 1679 H 154.724 -5.52077 -3.46489 0
M  V30 1680 N 158.157 -0.370918 -1.53173 0
M  V30 1681 C 159.434 0.273754 -1.93675 0
M  V30 1682 C 159.814 1.65938 -1.3049 0
M  V30 1683 O 159.162 2.23698 -0.465999 0
M  V30 1684 C 159.372 0.318602 -3.47543 0
M  V30 1685 C 160.72 0.556392 -4.20939 0
M  V30 1686 O 161.744 0.399587 -3.53952 0
M  V30 1687 O 160.603 0.862133 -5.39657 0
M  V30 1688 H 157.697 0.165448 -0.810281 0
M  V30 1689 H 160.243 -0.42409 -1.64315 0
M  V30 1690 H 159.015 -0.652687 -3.85818 0
M  V30 1691 H 158.638 1.06212 -3.83151 0
M  V30 1692 N 159.635 1.57281 -0.100228 0
M  V30 1693 C 160.881 1.94826 0.563101 0
M  V30 1694 C 161.214 0.982475 1.67514 0
M  V30 1695 O 160.489 0.0164069 1.94493 0
M  V30 1696 C 160.772 3.42453 1.11346 0
M  V30 1697 C 160.625 4.498 0.00612081 0
M  V30 1698 C 161.944 3.91506 2.01024 0
M  V30 1699 H 159.063 0.708428 0.203221 0
M  V30 1700 H 161.705 1.8922 -0.171979 0
M  V30 1701 H 159.855 3.47361 1.7399 0
M  V30 1702 H 161.527 4.57 -0.628357 0
M  V30 1703 H 159.77 4.28756 -0.659581 0
M  V30 1704 H 160.441 5.50306 0.432109 0
M  V30 1705 H 162.917 3.88784 1.48278 0
M  V30 1706 H 161.793 4.95358 2.36457 0
M  V30 1707 H 162.054 3.31099 2.92961 0
M  V30 1708 N 161.113 -0.173488 1.56642 0
M  V30 1709 C 162.341 -0.906095 1.86004 0
M  V30 1710 C 162.756 -1.75921 0.685355 0
M  V30 1711 O 162.113 -1.79198 -0.345578 0
M  V30 1712 C 162.164 -1.78462 3.14378 0
M  V30 1713 O 161.885 -0.965914 4.27319 0
M  V30 1714 C 163.386 -2.62707 3.57071 0
M  V30 1715 H 160.606 -0.263341 0.617165 0
M  V30 1716 H 163.15 -0.174236 2.03756 0
M  V30 1717 H 161.305 -2.46984 2.98459 0
M  V30 1718 H 161.719 -1.56655 5.00559 0
M  V30 1719 H 163.193 -3.19969 4.49804 0
M  V30 1720 H 163.67 -3.37472 2.81086 0
M  V30 1721 H 164.276 -1.99521 3.75595 0
M  V30 1722 N 162.591 -1.51276 -0.441967 0
M  V30 1723 C 163.521 -1.752 -1.54361 0
M  V30 1724 C 164.502 -0.601682 -1.59103 0
M  V30 1725 O 165.687 -0.843913 -1.74905 0
M  V30 1726 C 162.817 -1.87282 -2.92477 0
M  V30 1727 C 161.771 -3.02687 -3.02596 0
M  V30 1728 C 161.097 -2.99947 -4.42647 0
M  V30 1729 C 162.397 -4.4273 -2.77106 0
M  V30 1730 H 164.091 -2.67442 -1.34592 0
M  V30 1731 H 161.637 -1.28694 -0.646048 0
M  V30 1732 H 163.59 -2.02602 -3.695 0
M  V30 1733 H 162.314 -0.916844 -3.13467 0
M  V30 1734 H 160.973 -2.87065 -2.28012 0
M  V30 1735 H 160.621 -2.02136 -4.60597 0
M  V30 1736 H 160.321 -3.77439 -4.50348 0
M  V30 1737 H 161.845 -3.17354 -5.2165 0
M  V30 1738 H 163.259 -4.58727 -3.43864 0
M  V30 1739 H 161.656 -5.21893 -2.96222 0
M  V30 1740 H 162.726 -4.53087 -1.72744 0
M  V30 1741 N 164.069 0.697108 -1.41344 0
M  V30 1742 C 165.318 1.45279 -1.39918 0
M  V30 1743 C 165.631 1.95597 -0.0109624 0
M  V30 1744 O 166.837 2.71208 0.125919 0
M  V30 1745 C 165.293 2.62695 -2.46007 0
M  V30 1746 C 164.901 2.19169 -3.90729 0
M  V30 1747 C 166.645 3.40336 -2.53715 0
M  V30 1748 C 164.552 3.33535 -4.88373 0
M  V30 1749 H 163.482 0.545692 -0.520323 0
M  V30 1750 H 166.133 0.756929 -1.67161 0
M  V30 1751 H 164.515 3.34541 -2.11892 0
M  V30 1752 H 165.689 1.54623 -4.34083 0
M  V30 1753 H 164.004 1.54525 -3.86666 0
M  V30 1754 H 166.601 4.2547 -3.2385 0
M  V30 1755 H 166.944 3.85418 -1.5735 0
M  V30 1756 H 167.477 2.75546 -2.86913 0
M  V30 1757 H 164.216 2.93468 -5.86137 0
M  V30 1758 H 163.736 3.96936 -4.49668 0
M  V30 1759 H 165.415 3.99335 -5.09059 0
M  V30 1760 N 165.547 1.27147 0.931209 0
M  V30 1761 C 166.796 1.12664 1.67302 0
M  V30 1762 C 167.109 -0.327718 1.92835 0
M  V30 1763 O 168.315 -0.593392 2.64936 0
M  V30 1764 C 166.771 1.9683 3.01307 0
M  V30 1765 C 166.379 3.46901 2.83485 0
M  V30 1766 C 168.123 1.90985 3.79111 0
M  V30 1767 C 166.03 4.23279 4.13024 0
M  V30 1768 H 164.96 0.41803 0.627509 0
M  V30 1769 H 167.611 1.51539 1.03481 0
M  V30 1770 H 165.993 1.50797 3.66164 0
M  V30 1771 H 167.167 4.00773 2.27415 0
M  V30 1772 H 165.482 3.54088 2.19113 0
M  V30 1773 H 168.079 2.45328 4.75098 0
M  V30 1774 H 168.422 0.882718 4.06834 0
M  V30 1775 H 168.955 2.34895 3.21044 0
M  V30 1776 H 165.694 5.26503 3.90481 0
M  V30 1777 H 165.214 3.74186 4.6877 0
M  V30 1778 H 166.893 4.32265 4.81411 0
M  V30 1779 N 167.025 -1.13721 1.09112 0
M  V30 1780 C 167.955 -2.21148 0.749385 0
M  V30 1781 C 168.936 -1.6792 -0.271475 0
M  V30 1782 O 170.121 -1.93693 -0.140251 0
M  V30 1783 C 167.251 -3.46905 0.165659 0
M  V30 1784 C 166.205 -4.13203 1.11567 0
M  V30 1785 C 165.531 -5.33248 0.393809 0
M  V30 1786 C 166.831 -4.60912 2.45678 0
M  V30 1787 H 168.525 -2.4999 1.64758 0
M  V30 1788 H 166.071 -1.20156 0.793626 0
M  V30 1789 H 168.024 -4.21313 -0.085466 0
M  V30 1790 H 166.748 -3.17449 -0.767714 0
M  V30 1791 H 165.407 -3.40758 1.35202 0
M  V30 1792 H 165.055 -5.00054 -0.543599 0
M  V30 1793 H 164.755 -5.78552 1.02721 0
M  V30 1794 H 166.279 -6.10413 0.150908 0
M  V30 1795 H 167.693 -5.26759 2.26269 0
M  V30 1796 H 166.09 -5.16944 3.04776 0
M  V30 1797 H 167.16 -3.75603 3.06677 0
M  V30 1798 N 168.503 -0.877838 -1.30888 0
M  V30 1799 C 169.413 -0.343096 -2.32078 0
M  V30 1800 C 170.429 0.551022 -1.65045 0
M  V30 1801 O 171.605 0.445854 -1.96403 0
M  V30 1802 C 168.67 0.439905 -3.43898 0
M  V30 1803 C 167.731 -0.483111 -4.26573 0
M  V30 1804 C 166.964 0.262616 -5.33053 0
M  V30 1805 O 167.187 1.48967 -5.50604 0
M  V30 1806 O 166.121 -0.383593 -6.00676 0
M  V30 1807 H 169.947 -1.18203 -2.79753 0
M  V30 1808 H 167.532 -0.64145 -1.34929 0
M  V30 1809 H 169.414 0.883504 -4.12034 0
M  V30 1810 H 168.089 1.25526 -2.98371 0
M  V30 1811 H 166.996 -0.975374 -3.61161 0
M  V30 1812 H 168.329 -1.26427 -4.75686 0
M  V30 1813 N 169.982 1.44106 -0.638065 0
M  V30 1814 C 171.228 2.02277 -0.145546 0
M  V30 1815 C 171.561 1.50125 1.23191 0
M  V30 1816 O 170.836 0.688133 1.8192 0
M  V30 1817 C 171.119 3.59829 -0.139791 0
M  V30 1818 C 170.972 4.22247 -1.55008 0
M  V30 1819 C 172.291 4.36873 0.531966 0
M  V30 1820 H 169.41 0.734992 -0.0543632 0
M  V30 1821 H 172.052 1.71592 -0.815863 0
M  V30 1822 H 170.202 3.86102 0.431007 0
M  V30 1823 H 171.874 4.07057 -2.1703 0
M  V30 1824 H 170.117 3.79476 -2.10191 0
M  V30 1825 H 170.788 5.31284 -1.49804 0
M  V30 1826 H 173.264 4.16074 0.0464781 0
M  V30 1827 H 172.14 5.4657 0.505206 0
M  V30 1828 H 172.401 4.11995 1.60352 0
M  V30 1829 N 171.46 0.379036 1.52974 0
M  V30 1830 C 172.423 -0.448865 2.24762 0
M  V30 1831 C 173.423 -0.998689 1.26027 0
M  V30 1832 O 174.613 -0.882313 1.50203 0
M  V30 1833 C 171.745 -1.62872 2.99476 0
M  V30 1834 H 172.938 0.179491 2.99362 0
M  V30 1835 H 170.491 0.13096 1.5575 0
M  V30 1836 H 171.226 -2.29479 2.29151 0
M  V30 1837 H 171.011 -1.24128 3.71934 0
M  V30 1838 H 172.501 -2.2151 3.5401 0
M  V30 1839 N 172.938 -1.57226 0.108567 0
M  V30 1840 C 173.901 -2.13602 -0.831082 0
M  V30 1841 C 174.901 -1.06841 -1.20173 0
M  V30 1842 O 176.091 -1.32666 -1.12895 0
M  V30 1843 C 173.223 -2.66769 -2.12243 0
M  V30 1844 H 174.416 -2.97951 -0.341317 0
M  V30 1845 H 171.969 -1.55667 -0.14057 0
M  V30 1846 H 172.704 -1.85977 -2.65675 0
M  V30 1847 H 172.489 -3.44839 -1.86625 0
M  V30 1848 H 173.979 -3.10332 -2.79435 0
M  V30 1849 N 174.416 0.165178 -1.56732 0
M  V30 1850 C 175.665 0.879143 -1.81532 0
M  V30 1851 C 175.978 1.83144 -0.686842 0
M  V30 1852 O 177.184 2.58823 -0.819944 0
M  V30 1853 C 175.64 1.61388 -3.21686 0
M  V30 1854 C 175.248 0.704904 -4.4242 0
M  V30 1855 C 176.992 2.3157 -3.55774 0
M  V30 1856 C 174.899 1.44022 -5.73595 0
M  V30 1857 H 173.829 0.332033 -0.676957 0
M  V30 1858 H 176.48 0.132008 -1.83025 0
M  V30 1859 H 174.862 2.40599 -3.14529 0
M  V30 1860 H 176.036 -0.0506815 -4.60772 0
M  V30 1861 H 174.351 0.112419 -4.16248 0
M  V30 1862 H 176.948 2.8719 -4.51028 0
M  V30 1863 H 177.291 3.07201 -2.8095 0
M  V30 1864 H 177.824 1.59297 -3.64513 0
M  V30 1865 H 174.563 0.72612 -6.51466 0
M  V30 1866 H 174.083 2.16898 -5.5921 0
M  V30 1867 H 175.762 1.98606 -6.15764 0
M  V30 1868 N 175.894 1.51508 0.433938 0
M  V30 1869 C 177.14 1.64588 1.18484 0
M  V30 1870 C 177.473 0.362666 1.90784 0
M  V30 1871 O 176.748 -0.637892 1.83742 0
M  V30 1872 C 177.031 2.85149 2.19913 0
M  V30 1873 C 176.884 4.23456 1.51674 0
M  V30 1874 C 178.203 3.01227 3.20858 0
M  V30 1875 H 175.322 0.598994 0.429389 0
M  V30 1876 H 177.964 1.84002 0.473647 0
M  V30 1877 H 176.114 2.68729 2.80566 0
M  V30 1878 H 177.786 4.51552 0.943322 0
M  V30 1879 H 176.029 4.25998 0.819035 0
M  V30 1880 H 176.7 5.03812 2.2556 0
M  V30 1881 H 179.176 3.16382 2.70263 0
M  V30 1882 H 178.052 3.87141 3.89118 0
M  V30 1883 H 178.313 2.13447 3.8716 0
M  V30 1884 N 177.372 -0.689602 1.41712 0
M  V30 1885 C 178.597 -1.48329 1.44959 0
M  V30 1886 C 179.022 -1.8801 0.0581283 0
M  V30 1887 O 178.38 -1.55026 -0.940035 0
M  V30 1888 C 178.428 -2.71835 2.36935 0
M  V30 1889 O 177.532 -3.69549 1.8305 0
M  V30 1890 H 176.873 -0.446199 0.491734 0
M  V30 1891 H 179.403 -0.847127 1.86239 0
M  V30 1892 H 179.413 -3.20076 2.53013 0
M  V30 1893 H 178.088 -2.42291 3.38035 0
M  V30 1894 H 176.665 -3.2851 1.76452 0
M  V30 1895 N 178.85 -1.27639 -0.924453 0
M  V30 1896 C 179.78 -1.13166 -2.04244 0
M  V30 1897 C 180.761 -0.032256 -1.70069 0
M  V30 1898 O 181.946 -0.207328 -1.9309 0
M  V30 1899 C 179.076 -0.781496 -3.38393 0
M  V30 1900 C 178.03 -1.83449 -3.86692 0
M  V30 1901 C 177.356 -1.33822 -5.17683 0
M  V30 1902 C 178.656 -3.23917 -4.09726 0
M  V30 1903 H 180.35 -2.06689 -2.1661 0
M  V30 1904 H 177.896 -0.995136 -1.04082 0
M  V30 1905 H 179.849 -0.667057 -4.16087 0
M  V30 1906 H 178.573 0.189439 -3.2605 0
M  V30 1907 H 177.232 -1.93789 -3.11193 0
M  V30 1908 H 176.88 -0.35665 -5.01734 0
M  V30 1909 H 176.58 -2.04224 -5.50968 0
M  V30 1910 H 178.104 -1.23679 -5.97943 0
M  V30 1911 H 179.518 -3.16559 -4.77978 0
M  V30 1912 H 177.915 -3.92059 -4.54324 0
M  V30 1913 H 178.985 -3.68729 -3.14908 0
M  V30 1914 N 180.328 1.1314 -1.09713 0
M  V30 1915 C 181.576 1.84119 -0.833338 0
M  V30 1916 C 181.897 1.84097 0.642904 0
M  V30 1917 O 181.167 1.29881 1.46655 0
M  V30 1918 H 179.747 0.681766 -0.305293 0
M  V30 1919 H 182.409 1.37038 -1.38588 0
M  V30 1920 H 181.505 2.88543 -1.18951 0
M  V30 1921 N 181.806 0.884767 1.30421 0
M  V30 1922 C 182.736 0.367574 2.30589 0
M  V30 1923 C 183.717 -0.549464 1.60981 0
M  V30 1924 O 184.902 -0.46336 1.88591 0
M  V30 1925 C 182.032 -0.418944 3.44764 0
M  V30 1926 C 180.986 0.406316 4.26067 0
M  V30 1927 C 180.312 -0.506793 5.32293 0
M  V30 1928 C 181.612 1.64832 4.95608 0
M  V30 1929 H 183.306 1.20462 2.74097 0
M  V30 1930 H 180.852 0.580695 1.31772 0
M  V30 1931 H 182.805 -0.791395 4.13902 0
M  V30 1932 H 181.529 -1.28964 3.0006 0
M  V30 1933 H 180.188 0.760903 3.58617 0
M  V30 1934 H 179.836 -1.37519 4.83836 0
M  V30 1935 H 179.536 0.0415828 5.87585 0
M  V30 1936 H 181.06 -0.875764 6.04287 0
M  V30 1937 H 182.474 1.34646 5.57264 0
M  V30 1938 H 180.871 2.13688 5.60765 0
M  V30 1939 H 181.941 2.39284 4.21748 0
M  V30 1940 N 183.284 -1.43765 0.645699 0
M  V30 1941 C 184.509 -2.06767 0.161883 0
M  V30 1942 C 184.934 -1.48034 -1.16049 0
M  V30 1943 O 184.292 -0.587369 -1.71522 0
M  V30 1944 C 184.34 -3.60519 0.0762003 0
M  V30 1945 O 183.444 -4.00982 -0.963721 0
M  V30 1946 H 182.785 -0.657675 0.091429 0
M  V30 1947 H 185.315 -1.84397 0.886499 0
M  V30 1948 H 185.325 -4.07853 -0.109604 0
M  V30 1949 H 184 -4.02646 1.04157 0
M  V30 1950 H 182.577 -3.65253 -0.751312 0
M  V30 1951 N 184.763 -0.387143 -1.52771 0
M  V30 1952 C 186.01 0.195735 -2.01552 0
M  V30 1953 C 186.338 1.46995 -1.27369 0
M  V30 1954 O 185.593 1.92325 -0.361879 0
M  V30 1955 C 185.892 0.512209 -3.53711 0
M  V30 1956 C 185.558 -0.670202 -4.45891 0
M  V30 1957 C 184.22 -0.994586 -4.70809 0
M  V30 1958 C 186.572 -1.46134 -5.00294 0
M  V30 1959 C 183.9 -2.11169 -5.4738 0
M  V30 1960 C 186.252 -2.56903 -5.78086 0
M  V30 1961 C 184.916 -2.89852 -6.01284 0
M  V30 1962 H 184.186 0.0716246 -0.73753 0
M  V30 1963 H 186.833 -0.524046 -1.8419 0
M  V30 1964 H 185.138 1.31329 -3.69134 0
M  V30 1965 H 186.835 0.975804 -3.88946 0
M  V30 1966 H 183.425 -0.407366 -4.2666 0
M  V30 1967 H 187.609 -1.22397 -4.80971 0
M  V30 1968 H 182.865 -2.3707 -5.63567 0
M  V30 1969 H 187.039 -3.18608 -6.19243 0
M  V30 1970 H 184.666 -3.76533 -6.60399 0
M  V30 1971 N 186.241 1.57166 -0.116904 0
M  V30 1972 C 187.471 1.99184 0.548586 0
M  V30 1973 C 187.879 0.995436 1.60897 0
M  V30 1974 O 187.222 -0.0201293 1.83689 0
M  V30 1975 C 187.284 3.37611 1.23526 0
M  V30 1976 C 186.948 4.55857 0.323077 0
M  V30 1977 C 187.945 5.18056 -0.437476 0
M  V30 1978 C 185.63 5.01751 0.234761 0
M  V30 1979 C 187.624 6.24536 -1.2741 0
M  V30 1980 C 185.311 6.08093 -0.605496 0
M  V30 1981 C 186.309 6.69352 -1.35856 0
M  V30 1982 O 185.997 7.7364 -2.18487 0
M  V30 1983 H 185.729 0.659148 0.149999 0
M  V30 1984 H 188.283 2.0443 -0.199428 0
M  V30 1985 H 186.513 3.29113 2.0303 0
M  V30 1986 H 188.202 3.63932 1.79745 0
M  V30 1987 H 188.968 4.83516 -0.379105 0
M  V30 1988 H 184.847 4.53817 0.810601 0
M  V30 1989 H 188.391 6.72281 -1.86237 0
M  V30 1990 H 184.288 6.42063 -0.665268 0
M  V30 1991 H 185.056 7.90727 -2.11406 0
M  V30 1992 N 187.719 -0.156864 1.56817 0
M  V30 1993 C 188.682 -1.17781 1.96622 0
M  V30 1994 C 189.682 -1.36401 0.851555 0
M  V30 1995 O 190.872 -1.33561 1.11836 0
M  V30 1996 C 188.004 -2.54008 2.27361 0
M  V30 1997 H 189.197 -0.836564 2.87996 0
M  V30 1998 H 186.75 -0.39985 1.51099 0
M  V30 1999 H 187.485 -2.9312 1.38748 0
M  V30 2000 H 187.27 -2.41856 3.08623 0
M  V30 2001 H 188.76 -3.27558 2.59029 0
M  V30 2002 N 189.197 -1.51736 -0.425897 0
M  V30 2003 C 190.608 -1.5732 -1.00536 0
M  V30 2004 C 190.959 -0.403537 -1.92005 0
M  V30 2005 O 190.084 0.478256 -2.11049 0
M  V30 2006 C 190.679 -2.85119 -1.8301 0
M  V30 2007 C 189.238 -2.93236 -2.35987 0
M  V30 2008 C 188.385 -2.52098 -1.15508 0
M  V30 2009 H 191.336 -1.57348 -0.206739 0
M  V30 2010 H 191.357 -2.69526 -2.68581 0
M  V30 2011 H 190.869 -3.7023 -1.16411 0
M  V30 2012 H 188.97 -2.12581 -3.06007 0
M  V30 2013 H 189.083 -3.9713 -2.68001 0
M  V30 2014 H 187.447 -2.05558 -1.50393 0
M  V30 2015 H 188.23 -3.39565 -0.505014 0
M  V30 2016 N 190.675 0.682077 -1.42076 0
M  V30 2017 C 192.086 1.26246 -1.37546 0
M  V30 2018 C 192.437 1.96092 -0.0651481 0
M  V30 2019 O 191.562 1.99587 0.836297 0
M  V30 2020 C 192.157 2.29594 -2.49143 0
M  V30 2021 C 190.716 2.83175 -2.47969 0
M  V30 2022 C 189.863 1.57395 -2.28303 0
M  V30 2023 H 192.814 0.475937 -1.51395 0
M  V30 2024 H 192.835 3.11175 -2.18976 0
M  V30 2025 H 192.347 1.78729 -3.44496 0
M  V30 2026 H 190.448 3.3818 -1.56413 0
M  V30 2027 H 190.561 3.32687 -3.44755 0
M  V30 2028 H 188.925 1.83699 -1.76428 0
M  V30 2029 H 189.708 1.08507 -3.25701 0
M  V30 2030 N 192.153 1.28127 0.917671 0
M  V30 2031 C 193.401 1.14825 1.66312 0
M  V30 2032 C 193.722 -0.304379 1.9261 0
M  V30 2033 O 192.992 -1.21149 1.53947 0
M  V30 2034 H 191.572 0.421953 0.616413 0
M  V30 2035 H 194.234 1.608 1.10134 0
M  V30 2036 H 193.33 1.68489 2.62712 0
M  V30 2037 N 193.631 -1.12557 1.10312 0
M  V30 2038 C 194.541 -2.21841 0.763142 0
M  V30 2039 C 195.557 -1.72354 -0.238801 0
M  V30 2040 O 196.733 -2.01249 -0.0778746 0
M  V30 2041 C 193.798 -3.46131 0.198632 0
M  V30 2042 C 192.859 -4.10464 1.25769 0
M  V30 2043 C 192.092 -5.28821 0.72002 0
M  V30 2044 O 192.315 -5.6859 -0.453993 0
M  V30 2045 O 191.249 -5.83437 1.47935 0
M  V30 2046 H 195.075 -2.53312 1.67532 0
M  V30 2047 H 192.66 -1.20867 0.878157 0
M  V30 2048 H 194.542 -4.2125 -0.112401 0
M  V30 2049 H 193.217 -3.16338 -0.686419 0
M  V30 2050 H 192.124 -3.3713 1.62156 0
M  V30 2051 H 193.457 -4.44408 2.11571 0
M  V30 2052 N 195.109 -0.891671 -1.2995 0
M  V30 2053 C 196.019 -0.367691 -2.31701 0
M  V30 2054 C 197.035 0.533486 -1.6562 0
M  V30 2055 O 198.211 0.424997 -1.96865 0
M  V30 2056 C 195.276 0.403406 -3.44345 0
M  V30 2057 C 194.337 -0.528328 -4.26037 0
M  V30 2058 C 193.57 0.206063 -5.33302 0
M  V30 2059 O 193.793 1.43119 -5.52153 0
M  V30 2060 O 192.727 -0.447281 -6.00236 0
M  V30 2061 H 196.553 -1.21163 -2.78484 0
M  V30 2062 H 194.138 -0.655725 -1.34241 0
M  V30 2063 H 196.02 0.839753 -4.12948 0
M  V30 2064 H 194.695 1.22354 -2.99685 0
M  V30 2065 H 193.602 -1.01362 -3.60106 0
M  V30 2066 H 194.935 -1.31465 -4.74318 0
M  V30 2067 N 196.587 1.43421 -0.653314 0
M  V30 2068 C 197.812 2.06678 -0.172846 0
M  V30 2069 C 198.237 1.48648 1.15262 0
M  V30 2070 O 197.595 0.596457 1.71208 0
M  V30 2071 C 197.643 3.60474 -0.0953184 0
M  V30 2072 O 196.747 4.01487 0.942442 0
M  V30 2073 H 196.088 0.657181 -0.0949155 0
M  V30 2074 H 198.618 1.83925 -0.896265 0
M  V30 2075 H 198.628 4.07905 0.0879728 0
M  V30 2076 H 197.303 4.02088 -1.06291 0
M  V30 2077 H 195.88 3.65646 0.731932 0
M  V30 2078 N 198.065 0.39524 1.52563 0
M  V30 2079 C 198.975 -0.444232 2.30356 0
M  V30 2080 C 199.991 -1.06615 1.37511 0
M  V30 2081 O 201.167 -1.07067 1.70583 0
M  V30 2082 C 198.232 -1.55315 3.09964 0
M  V30 2083 C 197.293 -0.955734 4.18526 0
M  V30 2084 C 196.526 -2.01181 4.9433 0
M  V30 2085 O 196.749 -3.22781 4.70285 0
M  V30 2086 O 195.683 -1.62579 5.79527 0
M  V30 2087 H 199.509 0.189667 3.03107 0
M  V30 2088 H 197.094 0.1588 1.48554 0
M  V30 2089 H 198.976 -2.19724 3.59582 0
M  V30 2090 H 197.651 -2.17191 2.4002 0
M  V30 2091 H 196.558 -0.274743 3.7309 0
M  V30 2092 H 197.891 -0.381109 4.90722 0
M  V30 2093 N 199.544 -1.57102 0.125237 0
M  V30 2094 C 200.507 -2.14471 -0.80838 0
M  V30 2095 C 201.507 -1.0811 -1.19033 0
M  V30 2096 O 202.697 -1.33856 -1.11482 0
M  V30 2097 C 199.829 -2.69005 -2.09402 0
M  V30 2098 H 201.022 -2.98297 -0.309696 0
M  V30 2099 H 198.575 -1.55807 -0.124051 0
M  V30 2100 H 199.31 -1.88785 -2.63687 0
M  V30 2101 H 199.095 -3.46799 -1.82957 0
M  V30 2102 H 200.585 -3.13278 -2.76128 0
M  V30 2103 N 201.022 0.148545 -1.56898 0
M  V30 2104 C 202.262 0.86765 -1.85071 0
M  V30 2105 C 202.626 1.78417 -0.709317 0
M  V30 2106 O 203.827 2.54261 -0.872049 0
M  V30 2107 C 202.098 1.62306 -3.1842 0
M  V30 2108 S 203.657 2.3878 -3.68143 0
M  V30 2109 H 200.475 0.290174 -0.649092 0
M  V30 2110 H 203.077 0.127755 -1.95082 0
M  V30 2111 H 201.781 0.941192 -3.99462 0
M  V30 2112 H 201.312 2.4039 -3.1141 0
M  V30 2113 H 203.327 3.63942 -3.37285 0
M  V30 2114 N 202.5 1.5196 0.417844 0
M  V30 2115 C 203.748 1.65263 1.16329 0
M  V30 2116 C 204.069 0.380634 1.91249 0
M  V30 2117 O 203.339 -0.604214 1.86349 0
M  V30 2118 H 201.919 0.60912 0.432414 0
M  V30 2119 H 204.581 1.88969 0.477162 0
M  V30 2120 H 203.677 2.4896 1.88217 0
M  V30 2121 N 203.978 -0.674533 1.42435 0
M  V30 2122 C 204.926 -1.80934 1.46169 0
M  V30 2123 C 205.92 -1.66006 0.3374 0
M  V30 2124 O 207.126 -1.72611 0.510425 0
M  V30 2125 H 203.501 -0.596594 0.457798 0
M  V30 2126 H 205.472 -1.74903 2.41767 0
M  V30 2127 C 204.221 -3.19088 1.38123 0
M  V30 2128 H 203.544 -3.31203 2.23931 0
M  V30 2129 H 204.984 -3.9851 1.44797 0
M  V30 2130 C 203.443 -3.36763 0.0960517 0
M  V30 2131 O 203.973 -3.92581 -0.851073 0
M  V30 2132 N 202.179 -2.90597 0.0131186 0
M  V30 2133 H 201.726 -2.45359 0.784639 0
M  V30 2134 H 201.684 -3.028 -0.846133 0
M  V30 2135 N 205.456 -1.28612 -0.910864 0
M  V30 2136 C 206.702 -1.16106 -1.66274 0
M  V30 2137 C 207.035 0.289113 -1.92036 0
M  V30 2138 O 206.31 1.21 -1.52281 0
M  V30 2139 C 206.593 -1.96309 -3.01885 0
M  V30 2140 C 206.446 -3.49405 -2.8326 0
M  V30 2141 C 207.765 -1.78076 -4.02463 0
M  V30 2142 H 204.884 -0.423152 -0.603417 0
M  V30 2143 H 207.526 -1.57961 -1.05586 0
M  V30 2144 H 205.676 -1.60742 -3.53687 0
M  V30 2145 H 207.348 -3.94894 -2.38446 0
M  V30 2146 H 205.591 -3.74893 -2.18261 0
M  V30 2147 H 206.262 -4.00784 -3.79574 0
M  V30 2148 H 208.738 -2.0912 -3.59733 0
M  V30 2149 H 207.614 -2.36561 -4.95308 0
M  V30 2150 H 207.875 -0.733008 -4.35981 0
M  V30 2151 N 206.934 1.1197 -1.10907 0
M  V30 2152 C 208.159 1.87942 -0.877064 0
M  V30 2153 C 208.584 1.79341 0.567314 0
M  V30 2154 O 207.942 1.15184 1.40009 0
M  V30 2155 C 207.99 3.34926 -1.33629 0
M  V30 2156 O 207.094 4.09303 -0.504447 0
M  V30 2157 H 206.435 0.583785 -0.316371 0
M  V30 2158 H 208.965 1.4157 -1.47712 0
M  V30 2159 H 208.975 3.8577 -1.32837 0
M  V30 2160 H 207.65 3.40504 -2.3881 0
M  V30 2161 H 206.227 3.68393 -0.577993 0
M  V30 2162 N 208.412 0.89855 1.29475 0
M  V30 2163 C 209.66 0.522847 1.9522 0
M  V30 2164 C 209.981 -0.93371 1.71192 0
M  V30 2165 O 209.251 -1.65823 1.04305 0
M  V30 2166 H 207.831 0.190366 0.722336 0
M  V30 2167 H 210.493 1.14459 1.5775 0
M  V30 2168 H 209.589 0.704476 3.04045 0
M  V30 2169 N 209.89 -1.43072 0.660911 0
M  V30 2170 C 211.138 -2.01323 0.177094 0
M  V30 2171 C 211.459 -1.5245 -1.2159 0
M  V30 2172 O 210.729 -0.740322 -1.81373 0
M  V30 2173 H 209.309 -0.744382 0.0624804 0
M  V30 2174 H 211.971 -1.75179 0.854305 0
M  V30 2175 H 211.067 -3.11649 0.167641 0
M  V30 2176 N 211.368 -0.403325 -1.52352 0
M  V30 2177 C 212.331 0.413051 -2.25447 0
M  V30 2178 C 213.331 0.978513 -1.276 0
M  V30 2179 O 214.521 0.858305 -1.51587 0
M  V30 2180 C 211.653 1.58087 -3.02029 0
M  V30 2181 H 212.846 -0.227094 -2.99039 0
M  V30 2182 H 210.399 -0.155722 -1.55522 0
M  V30 2183 H 211.134 2.25804 -2.32772 0
M  V30 2184 H 210.919 1.18195 -3.73861 0
M  V30 2185 H 212.409 2.1585 -3.57489 0
M  V30 2186 N 212.846 1.57033 -0.133567 0
M  V30 2187 C 213.756 2.19632 0.824564 0
M  V30 2188 C 214.772 1.17666 1.28182 0
M  V30 2189 O 215.948 1.50193 1.3418 0
M  V30 2190 C 213.013 2.79499 2.05137 0
M  V30 2191 C 212.074 3.96548 1.64464 0
M  V30 2192 C 211.307 4.5355 2.81297 0
M  V30 2193 O 211.53 4.09438 3.97136 0
M  V30 2194 O 210.464 5.44018 2.57542 0
M  V30 2195 H 214.29 3.01991 0.321766 0
M  V30 2196 H 211.875 1.49112 0.0927889 0
M  V30 2197 H 213.757 3.17602 2.7696 0
M  V30 2198 H 212.432 2.00162 2.54395 0
M  V30 2199 H 211.339 3.63186 0.897048 0
M  V30 2200 H 212.672 4.77364 1.19934 0
M  V30 2201 N 214.325 -0.140222 1.56975 0
M  V30 2202 C 215.602 -0.880769 1.74648 0
M  V30 2203 C 215.982 -1.99036 0.703404 0
M  V30 2204 O 215.33 -2.26821 -0.27648 0
M  V30 2205 C 215.54 -1.417 3.18939 0
M  V30 2206 C 216.888 -1.87774 3.80823 0
M  V30 2207 O 217.912 -1.51427 3.2241 0
M  V30 2208 O 216.771 -2.54827 4.83452 0
M  V30 2209 H 213.865 -0.416713 0.714338 0
M  V30 2210 H 216.411 -0.125618 1.69234 0
M  V30 2211 H 215.183 -0.619902 3.86359 0
M  V30 2212 H 214.806 -2.23546 3.28805 0
M  V30 2213 N 215.803 -1.52179 -0.40978 0
M  V30 2214 C 216.713 -1.78364 -1.52392 0
M  V30 2215 C 217.729 -0.669183 -1.60617 0
M  V30 2216 O 218.905 -0.954518 -1.77344 0
M  V30 2217 C 215.97 -1.92822 -2.88133 0
M  V30 2218 C 215.031 -3.16725 -2.898 0
M  V30 2219 C 214.264 -3.30483 -4.19067 0
M  V30 2220 O 214.487 -2.49522 -5.12928 0
M  V30 2221 O 213.421 -4.2363 -4.27576 0
M  V30 2222 H 217.247 -2.72931 -1.33201 0
M  V30 2223 H 214.832 -1.37016 -0.59557 0
M  V30 2224 H 216.714 -2.04157 -3.68643 0
M  V30 2225 H 215.389 -1.01444 -3.07393 0
M  V30 2226 H 214.296 -3.10848 -2.08146 0
M  V30 2227 H 215.629 -4.07881 -2.75489 0
M  V30 2228 N 217.281 0.66697 -1.42791 0
M  V30 2229 C 218.529 1.42417 -1.43394 0
M  V30 2230 C 218.85 1.94925 -0.0542373 0
M  V30 2231 O 218.12 1.73564 0.908415 0
M  V30 2232 H 216.7 0.528515 -0.527902 0
M  V30 2233 H 219.362 0.787562 -1.78279 0
M  V30 2234 H 218.458 2.27333 -2.13837 0
M  V30 2235 N 218.759 1.29093 0.90403 0
M  V30 2236 C 219.669 1.15727 2.0407 0
M  V30 2237 C 220.685 0.0815308 1.73809 0
M  V30 2238 O 221.861 0.292749 1.99261 0
M  V30 2239 C 218.926 0.830424 3.36608 0
M  V30 2240 C 217.987 1.98955 3.80415 0
M  V30 2241 C 217.22 1.6782 5.06628 0
M  V30 2242 O 217.443 0.597105 5.67266 0
M  V30 2243 O 216.377 2.52486 5.46383 0
M  V30 2244 H 220.203 2.11171 2.18267 0
M  V30 2245 H 217.788 1.08504 1.027 0
M  V30 2246 H 219.67 0.662521 4.16159 0
M  V30 2247 H 218.345 -0.0942678 3.23563 0
M  V30 2248 H 217.252 2.21267 3.01648 0
M  V30 2249 H 218.585 2.89529 3.98037 0
M  V30 2250 N 220.237 -1.11381 1.11499 0
M  V30 2251 C 221.2 -2.15622 0.777153 0
M  V30 2252 C 222.2 -1.59504 -0.203779 0
M  V30 2253 O 223.39 -1.74188 0.020782 0
M  V30 2254 C 220.522 -3.40556 0.153116 0
M  V30 2255 H 221.715 -2.47021 1.70061 0
M  V30 2256 H 219.268 -1.26577 0.916952 0
M  V30 2257 H 220.003 -3.14767 -0.780536 0
M  V30 2258 H 219.788 -3.8257 0.859238 0
M  V30 2259 H 221.278 -4.17546 -0.0671044 0
M  V30 2260 N 221.715 -0.905404 -1.28997 0
M  V30 2261 C 222.625 -0.392246 -2.31298 0
M  V30 2262 C 223.641 0.515889 -1.66176 0
M  V30 2263 O 224.817 0.404093 -1.97304 0
M  V30 2264 C 221.882 0.36686 -3.44754 0
M  V30 2265 C 220.943 -0.573485 -4.25452 0
M  V30 2266 C 220.176 0.149488 -5.33491 0
M  V30 2267 O 220.399 1.37255 -5.5364 0
M  V30 2268 O 219.333 -0.510919 -5.99728 0
M  V30 2269 H 223.159 -1.2411 -2.77183 0
M  V30 2270 H 220.744 -0.669926 -1.33538 0
M  V30 2271 H 222.626 0.795907 -4.13816 0
M  V30 2272 H 221.301 1.19169 -3.00966 0
M  V30 2273 H 220.208 -1.05176 -3.59011 0
M  V30 2274 H 221.541 -1.36489 -4.72897 0
M  V30 2275 N 223.193 1.4272 -0.668489 0
M  V30 2276 C 224.156 2.292 0.00448567 0
M  V30 2277 C 225.156 1.43001 0.735339 0
M  V30 2278 O 226.346 1.64461 0.57429 0
M  V30 2279 C 223.478 3.25375 1.01705 0
M  V30 2280 H 224.671 2.90199 -0.756608 0
M  V30 2281 H 222.224 1.50254 -0.430506 0
M  V30 2282 H 222.959 2.69301 1.80686 0
M  V30 2283 H 222.744 3.88944 0.496463 0
M  V30 2284 H 224.234 3.90245 1.48655 0
M  V30 2285 N 224.671 0.411399 1.52136 0
M  V30 2286 C 225.919 -0.163322 2.01439 0
M  V30 2287 C 226.24 -1.45453 1.29879 0
M  V30 2288 O 225.51 -1.91225 0.4254 0
M  V30 2289 H 224.09 -0.0633447 0.744309 0
M  V30 2290 H 226.752 0.548161 1.87033 0
M  V30 2291 H 225.848 -0.357817 3.10042 0
M  V30 2292 N 226.149 -1.5696 0.141893 0
M  V30 2293 C 227.395 -1.97034 -0.504884 0
M  V30 2294 C 227.75 -1.02518 -1.62812 0
M  V30 2295 O 227.043 -0.0592943 -1.91508 0
M  V30 2296 C 227.237 -3.41242 -1.06249 0
M  V30 2297 C 227.066 -4.497 0.00519653 0
M  V30 2298 C 225.836 -5.03338 0.444873 0
M  V30 2299 C 228.034 -5.08122 0.794767 0
M  V30 2300 N 226.016 -5.95395 1.49593 0
M  V30 2301 C 227.387 -5.96339 1.69645 0
M  V30 2302 C 229.442 -4.9071 0.843122 0
M  V30 2303 C 228.145 -6.69009 2.64233 0
M  V30 2304 C 230.171 -5.64077 1.77681 0
M  V30 2305 C 229.533 -6.51999 2.66603 0
M  V30 2306 H 225.632 -0.766745 -0.153707 0
M  V30 2307 H 228.216 -1.93273 0.235313 0
M  V30 2308 H 226.387 -3.45606 -1.77231 0
M  V30 2309 H 228.119 -3.68389 -1.67546 0
M  V30 2310 H 224.874 -4.73576 0.0480959 0
M  V30 2311 H 225.298 -6.46128 2.02107 0
M  V30 2312 H 229.94 -4.22459 0.169732 0
M  V30 2313 H 227.658 -7.36492 3.32575 0
M  V30 2314 H 231.244 -5.52602 1.81996 0
M  V30 2315 H 230.124 -7.07775 3.37675 0
M  V30 2316 N 227.627 0.131896 -1.57047 0
M  V30 2317 C 228.876 0.84044 -1.83356 0
M  V30 2318 C 229.189 1.81646 -0.725535 0
M  V30 2319 O 230.395 2.57025 -0.874659 0
M  V30 2320 C 228.851 1.54528 -3.25037 0
M  V30 2321 C 228.459 0.610902 -4.43815 0
M  V30 2322 C 230.203 2.23972 -3.60606 0
M  V30 2323 C 228.11 1.31823 -5.76521 0
M  V30 2324 H 227.04 0.317599 -0.683847 0
M  V30 2325 H 229.691 0.0931561 -1.83263 0
M  V30 2326 H 228.073 2.33873 -3.19561 0
M  V30 2327 H 229.247 -0.148407 -4.60561 0
M  V30 2328 H 227.562 0.0241016 -4.16393 0
M  V30 2329 H 230.159 2.77558 -4.57018 0
M  V30 2330 H 230.502 3.01173 -2.87403 0
M  V30 2331 H 231.035 1.51529 -3.6781 0
M  V30 2332 H 227.774 0.587771 -6.52859 0
M  V30 2333 H 227.294 2.04987 -5.63685 0
M  V30 2334 H 228.973 1.855 -6.19838 0
M  V30 2335 N 229.106 1.52395 0.401703 0
M  V30 2336 C 230.016 1.7917 1.51444 0
M  V30 2337 C 231.032 0.677691 1.6026 0
M  V30 2338 O 232.208 0.963909 1.76835 0
M  V30 2339 C 229.273 1.94347 2.87107 0
M  V30 2340 C 228.334 3.18257 2.88116 0
M  V30 2341 C 227.567 3.32701 4.17308 0
M  V30 2342 O 227.79 2.52238 5.11598 0
M  V30 2343 O 226.724 4.25891 4.25324 0
M  V30 2344 H 230.55 2.73633 1.31752 0
M  V30 2345 H 228.135 1.3733 0.588296 0
M  V30 2346 H 230.017 2.06109 3.67555 0
M  V30 2347 H 228.692 1.03073 3.06851 0
M  V30 2348 H 227.599 3.11947 2.06494 0
M  V30 2349 H 228.932 4.09336 2.73322 0
M  V30 2350 N 230.584 -0.659388 1.43143 0
M  V30 2351 C 231.832 -1.41654 1.44147 0
M  V30 2352 C 232.153 -1.94893 0.0645739 0
M  V30 2353 O 231.423 -1.74044 -0.899198 0
M  V30 2354 H 230.003 -0.525708 0.530697 0
M  V30 2355 H 232.665 -0.778097 1.78694 0
M  V30 2356 H 231.761 -2.26195 2.1504 0
M  V30 2357 N 232.062 -1.29571 -0.897171 0
M  V30 2358 C 233.025 -1.14913 -1.98312 0
M  V30 2359 C 234.025 -0.0838629 -1.60581 0
M  V30 2360 O 235.215 -0.331006 -1.71026 0
M  V30 2361 C 232.347 -0.757835 -3.3237 0
M  V30 2362 H 233.54 -2.11377 -2.12743 0
M  V30 2363 H 231.093 -1.12793 -1.08201 0
M  V30 2364 H 231.828 0.206837 -3.2364 0
M  V30 2365 H 231.613 -1.52755 -3.61121 0
M  V30 2366 H 233.103 -0.678408 -4.12053 0
M  V30 2367 N 233.54 1.10788 -1.12088 0
M  V30 2368 C 234.503 2.15207 -0.788577 0
M  V30 2369 C 235.503 1.59609 0.195317 0
M  V30 2370 O 236.693 1.74174 -0.0300193 0
M  V30 2371 C 233.825 3.4047 -0.171174 0
M  V30 2372 H 235.018 2.46116 -1.71368 0
M  V30 2373 H 232.571 1.26089 -0.923652 0
M  V30 2374 H 233.306 3.15176 0.763832 0
M  V30 2375 H 233.091 3.82109 -0.879514 0
M  V30 2376 H 234.581 4.17576 0.04496 0
M  V30 2377 N 235.018 0.912232 1.28515 0
M  V30 2378 C 236.267 0.540504 1.94323 0
M  V30 2379 C 236.58 -0.920044 1.72611 0
M  V30 2380 O 237.786 -1.39986 2.32629 0
M  V30 2381 C 236.242 0.915803 3.48053 0
M  V30 2382 C 235.85 2.39598 3.78546 0
M  V30 2383 C 237.594 0.614588 4.20027 0
M  V30 2384 C 235.501 2.71148 5.25578 0
M  V30 2385 H 234.431 0.198418 0.727424 0
M  V30 2386 H 237.082 1.11094 1.46049 0
M  V30 2387 H 235.464 0.274168 3.9505 0
M  V30 2388 H 236.638 3.08422 3.42364 0
M  V30 2389 H 234.953 2.66749 3.1974 0
M  V30 2390 H 237.55 0.827002 5.28266 0
M  V30 2391 H 237.893 -0.447531 4.13887 0
M  V30 2392 H 238.426 1.21462 3.78803 0
M  V30 2393 H 235.165 3.76207 5.36794 0
M  V30 2394 H 234.685 2.0696 5.62963 0
M  V30 2395 H 236.364 2.58072 5.93302 0
M  V30 2396 N 236.496 -1.42363 0.676048 0
M  V30 2397 C 237.426 -2.33497 0.0124832 0
M  V30 2398 C 238.407 -1.50748 -0.787981 0
M  V30 2399 O 239.592 -1.79346 -0.744884 0
M  V30 2400 C 236.722 -3.34377 -0.938582 0
M  V30 2401 C 235.676 -4.27289 -0.246622 0
M  V30 2402 C 235.002 -5.18386 -1.31071 0
M  V30 2403 C 236.302 -5.14916 0.875125 0
M  V30 2404 H 237.996 -2.89233 0.773593 0
M  V30 2405 H 235.542 -1.39073 0.37346 0
M  V30 2406 H 237.495 -3.97044 -1.41188 0
M  V30 2407 H 236.219 -2.76947 -1.73113 0
M  V30 2408 H 234.878 -3.66018 0.206456 0
M  V30 2409 H 234.526 -4.57282 -2.09528 0
M  V30 2410 H 234.226 -5.81378 -0.852839 0
M  V30 2411 H 235.75 -5.83929 -1.78492 0
M  V30 2412 H 237.164 -5.71262 0.482983 0
M  V30 2413 H 235.561 -5.86747 1.25887 0
M  V30 2414 H 236.631 -4.53242 1.72335 0
M  V30 2415 N 237.974 -0.419461 -1.51915 0
M  V30 2416 C 238.904 0.391813 -2.30189 0
M  V30 2417 C 239.885 1.03699 -1.34836 0
M  V30 2418 O 241.07 1.04403 -1.63748 0
M  V30 2419 C 238.2 1.50312 -3.13087 0
M  V30 2420 C 237.154 0.9824 -4.16573 0
M  V30 2421 C 236.48 2.18809 -4.8788 0
M  V30 2422 C 237.78 0.0292356 -5.22292 0
M  V30 2423 H 239.474 -0.26135 -2.98257 0
M  V30 2424 H 237.02 -0.127134 -1.43438 0
M  V30 2425 H 238.973 2.07773 -3.66617 0
M  V30 2426 H 237.697 2.18431 -2.42807 0
M  V30 2427 H 236.356 0.430119 -3.64068 0
M  V30 2428 H 236.004 2.85507 -4.14119 0
M  V30 2429 H 235.704 1.84615 -5.57845 0
M  V30 2430 H 237.228 2.76858 -5.44226 0
M  V30 2431 H 238.642 0.512976 -5.71 0
M  V30 2432 H 237.039 -0.2244 -5.9968 0
M  V30 2433 H 238.109 -0.912931 -4.76228 0
M  V30 2434 N 239.452 1.56882 -0.150215 0
M  V30 2435 C 240.677 2.01027 0.510184 0
M  V30 2436 C 241.102 1.02966 1.57415 0
M  V30 2437 O 240.46 0.00590158 1.81299 0
M  V30 2438 C 240.508 3.43899 1.08472 0
M  V30 2439 O 239.612 3.4885 2.19948 0
M  V30 2440 H 238.953 0.652233 0.124451 0
M  V30 2441 H 241.483 2.03093 -0.247894 0
M  V30 2442 H 241.493 3.82766 1.41259 0
M  V30 2443 H 240.168 4.14776 0.305582 0
M  V30 2444 H 238.745 3.21827 1.88366 0
M  V30 2445 N 240.93 -0.123565 1.57115 0
M  V30 2446 C 242.176 -0.833386 1.84885 0
M  V30 2447 C 242.509 -1.79742 0.735292 0
M  V30 2448 O 241.784 -1.92764 -0.25925 0
M  V30 2449 C 242.067 -1.5873 3.23228 0
M  V30 2450 C 241.92 -0.643183 4.45178 0
M  V30 2451 C 243.239 -2.54453 3.59085 0
M  V30 2452 H 240.358 -0.301518 0.6725 0
M  V30 2453 H 243 -0.097778 1.89748 0
M  V30 2454 H 241.15 -2.21438 3.19214 0
M  V30 2455 H 242.822 -0.0253015 4.61293 0
M  V30 2456 H 241.065 0.0456139 4.33776 0
M  V30 2457 H 241.736 -1.20724 5.38637 0
M  V30 2458 H 244.212 -2.01853 3.63861 0
M  V30 2459 H 243.088 -3.04238 4.5687 0
M  V30 2460 H 243.349 -3.36906 2.86264 0
M  V30 2461 N 242.408 -1.52605 -0.393616 0
M  V30 2462 C 243.657 -1.66649 -1.13627 0
M  V30 2463 C 243.97 -0.410364 -1.91247 0
M  V30 2464 O 245.176 -0.430854 -2.68059 0
M  V30 2465 C 243.632 -2.9449 -2.06891 0
M  V30 2466 C 243.24 -4.27266 -1.34714 0
M  V30 2467 C 244.984 -3.17899 -2.81319 0
M  V30 2468 C 242.891 -5.46217 -2.26717 0
M  V30 2469 H 241.821 -0.62084 -0.427871 0
M  V30 2470 H 244.472 -1.791 -0.399428 0
M  V30 2471 H 242.854 -2.75774 -2.84191 0
M  V30 2472 H 244.028 -4.56518 -0.626714 0
M  V30 2473 H 242.343 -4.10081 -0.722643 0
M  V30 2474 H 244.94 -4.03949 -3.50328 0
M  V30 2475 H 245.283 -2.32777 -3.45139 0
M  V30 2476 H 245.816 -3.37159 -2.11113 0
M  V30 2477 H 242.555 -6.33733 -1.67521 0
M  V30 2478 H 242.075 -5.21283 -2.96689 0
M  V30 2479 H 243.754 -5.7991 -2.86903 0
M  V30 2480 N 243.887 0.651787 -1.4349 0
M  V30 2481 C 245.127 1.42345 -1.46688 0
M  V30 2482 C 245.491 1.91793 -0.0891023 0
M  V30 2483 O 246.692 2.688 0.00423594 0
M  V30 2484 C 244.963 2.57221 -2.48137 0
M  V30 2485 S 246.522 3.45725 -2.70221 0
M  V30 2486 H 243.34 0.485878 -0.51908 0
M  V30 2487 H 245.942 0.756578 -1.80267 0
M  V30 2488 H 244.646 2.1917 -3.46976 0
M  V30 2489 H 244.177 3.28757 -2.16061 0
M  V30 2490 H 246.192 4.53996 -2.00255 0
M  V30 2491 N 245.365 1.30045 0.890287 0
M  V30 2492 C 246.611 1.18737 1.64406 0
M  V30 2493 C 246.944 -0.258525 1.92472 0
M  V30 2494 O 246.219 -1.18562 1.54186 0
M  V30 2495 C 246.502 2.01087 2.98724 0
M  V30 2496 C 246.355 3.53867 2.77665 0
M  V30 2497 C 247.674 1.84457 3.9958 0
M  V30 2498 H 244.793 0.432698 0.596608 0
M  V30 2499 H 247.435 1.5962 1.0306 0
M  V30 2500 H 245.585 1.66349 3.51084 0
M  V30 2501 H 247.257 3.98637 2.32133 0
M  V30 2502 H 245.5 3.78318 2.12269 0
M  V30 2503 H 246.171 4.06772 3.7315 0
M  V30 2504 H 248.647 2.14817 3.56361 0
M  V30 2505 H 247.523 2.44411 4.91482 0
M  V30 2506 H 247.784 0.802276 4.3476 0
M  V30 2507 N 246.843 -1.10192 1.12674 0
M  V30 2508 C 248.089 -1.82475 0.884915 0
M  V30 2509 C 248.422 -1.85093 -0.58773 0
M  V30 2510 O 247.697 -1.3134 -1.43457 0
M  V30 2511 C 247.98 -3.29018 1.46353 0
M  V30 2512 C 247.833 -3.34718 3.00473 0
M  V30 2513 C 249.152 -4.25473 1.12519 0
M  V30 2514 H 246.271 -0.662492 0.322915 0
M  V30 2515 H 248.913 -1.2913 1.39375 0
M  V30 2516 H 247.063 -3.74576 1.03077 0
M  V30 2517 H 248.735 -2.97622 3.52447 0
M  V30 2518 H 246.978 -2.74541 3.35872 0
M  V30 2519 H 247.649 -4.37918 3.36053 0
M  V30 2520 H 250.125 -3.88161 1.499 0
M  V30 2521 H 249.001 -5.26365 1.55663 0
M  V30 2522 H 249.262 -4.42084 0.0377407 0
M  V30 2523 N 248.321 -0.919034 -1.28029 0
M  V30 2524 C 249.251 -0.428581 -2.29533 0
M  V30 2525 C 250.232 0.50659 -1.62381 0
M  V30 2526 O 251.417 0.413195 -1.89753 0
M  V30 2527 C 248.547 0.327388 -3.45753 0
M  V30 2528 C 247.501 -0.519137 -4.2484 0
M  V30 2529 C 246.827 0.365486 -5.33449 0
M  V30 2530 C 248.127 -1.77914 -4.91064 0
M  V30 2531 H 249.821 -1.27687 -2.70807 0
M  V30 2532 H 247.367 -0.615428 -1.30186 0
M  V30 2533 H 249.32 0.681378 -4.15855 0
M  V30 2534 H 248.044 1.20963 -3.03374 0
M  V30 2535 H 246.703 -0.855717 -3.56473 0
M  V30 2536 H 246.351 1.24642 -4.87312 0
M  V30 2537 H 246.051 -0.197356 -5.87268 0
M  V30 2538 H 247.575 0.715241 -6.06396 0
M  V30 2539 H 248.989 -1.49374 -5.53498 0
M  V30 2540 H 247.386 -2.2848 -5.54903 0
M  V30 2541 H 248.456 -2.50382 -4.15255 0
M  V30 2542 N 249.799 1.42003 -0.683588 0
M  V30 2543 C 251.045 2.01712 -0.209825 0
M  V30 2544 C 251.378 1.53968 1.18353 0
M  V30 2545 O 250.653 0.745661 1.79639 0
M  V30 2546 C 250.936 3.59202 -0.254197 0
M  V30 2547 C 250.789 4.17102 -1.68363 0
M  V30 2548 C 252.108 4.38344 0.392709 0
M  V30 2549 H 249.227 0.732891 -0.0777189 0
M  V30 2550 H 251.869 1.68909 -0.87004 0
M  V30 2551 H 250.019 3.87278 0.307954 0
M  V30 2552 H 251.691 3.99946 -2.29871 0
M  V30 2553 H 249.934 3.72597 -2.22157 0
M  V30 2554 H 250.605 5.26249 -1.6663 0
M  V30 2555 H 253.081 4.16011 -0.0859162 0
M  V30 2556 H 251.957 5.47901 0.331063 0
M  V30 2557 H 252.218 4.16887 1.47164 0
M  V30 2558 N 251.277 0.427512 1.51691 0
M  V30 2559 C 252.505 -0.141191 2.06418 0
M  V30 2560 C 252.92 -1.37303 1.29589 0
M  V30 2561 O 252.277 -1.79059 0.352732 0
M  V30 2562 C 252.328 -0.473266 3.58389 0
M  V30 2563 O 252.049 0.709673 4.32314 0
M  V30 2564 C 253.55 -1.09371 4.29596 0
M  V30 2565 H 250.77 -0.0122747 0.670888 0
M  V30 2566 H 253.314 0.603764 1.95384 0
M  V30 2567 H 251.469 -1.16812 3.69369 0
M  V30 2568 H 251.883 0.42807 5.2275 0
M  V30 2569 H 253.357 -1.27613 5.37046 0
M  V30 2570 H 253.834 -2.072 3.87253 0
M  V30 2571 H 254.44 -0.43853 4.23033 0
M  V30 2572 N 252.755 -1.56801 0.158532 0
M  V30 2573 C 253.718 -2.16138 -0.762705 0
M  V30 2574 C 254.718 -1.1061 -1.16713 0
M  V30 2575 O 255.908 -1.36191 -1.08617 0
M  V30 2576 C 253.04 -2.73386 -2.03649 0
M  V30 2577 H 254.233 -2.98886 -0.246354 0
M  V30 2578 H 251.786 -1.56035 -0.0909744 0
M  V30 2579 H 252.521 -1.94335 -2.59623 0
M  V30 2580 H 252.306 -3.50601 -1.75559 0
M  V30 2581 H 253.796 -3.19065 -2.6942 0
M  V30 2582 N 254.233 0.115231 -1.57178 0
M  V30 2583 C 255.48 0.822351 -1.8505 0
M  V30 2584 C 255.808 1.79701 -0.744168 0
M  V30 2585 O 255.063 1.93909 0.26414 0
M  V30 2586 C 255.362 1.60324 -3.19423 0
M  V30 2587 C 255.028 0.772536 -4.44233 0
M  V30 2588 C 253.69 0.543468 -4.78121 0
M  V30 2589 C 256.042 0.193746 -5.2084 0
M  V30 2590 C 253.37 -0.274583 -5.86057 0
M  V30 2591 C 255.722 -0.611517 -6.29637 0
M  V30 2592 C 254.386 -0.850867 -6.62055 0
M  V30 2593 H 253.656 0.30092 -0.677147 0
M  V30 2594 H 256.303 0.0845802 -1.91313 0
M  V30 2595 H 254.608 2.41203 -3.08753 0
M  V30 2596 H 256.305 2.1544 -3.38211 0
M  V30 2597 H 252.895 0.96117 -4.17683 0
M  V30 2598 H 257.079 0.357926 -4.95008 0
M  V30 2599 H 252.335 -0.469206 -6.09597 0
M  V30 2600 H 256.509 -1.06697 -6.88178 0
M  V30 2601 H 254.136 -1.48657 -7.45523 0
M  V30 2602 N 255.711 1.52812 0.385517 0
M  V30 2603 C 256.659 1.78482 1.49155 0
M  V30 2604 C 257.653 0.652914 1.56312 0
M  V30 2605 O 258.859 0.835464 1.59436 0
M  V30 2606 H 255.234 0.5648 0.496493 0
M  V30 2607 H 257.205 2.71095 1.24699 0
M  V30 2608 C 255.954 1.97378 2.86247 0
M  V30 2609 H 255.277 2.83907 2.81491 0
M  V30 2610 H 256.717 2.19327 3.62866 0
M  V30 2611 C 255.176 0.74728 3.28508 0
M  V30 2612 O 255.706 -0.0736232 4.01633 0
M  V30 2613 N 253.912 0.576396 2.84826 0
M  V30 2614 H 253.459 1.24555 2.25486 0
M  V30 2615 H 253.417 -0.24288 3.1346 0
M  V30 2616 N 257.189 -0.644168 1.43834 0
M  V30 2617 C 258.466 -1.40188 1.36406 0
M  V30 2618 C 258.846 -2.11094 0.0163124 0
M  V30 2619 O 258.194 -2.05426 -1.00062 0
M  V30 2620 C 258.404 -2.3791 2.55343 0
M  V30 2621 C 259.752 -3.01637 2.98832 0
M  V30 2622 O 260.776 -2.48237 2.55455 0
M  V30 2623 O 259.635 -3.98477 3.74003 0
M  V30 2624 H 256.729 -0.626773 0.539523 0
M  V30 2625 H 259.275 -0.670317 1.559 0
M  V30 2626 H 258.047 -1.84525 3.4506 0
M  V30 2627 H 257.67 -3.18503 2.37995 0
M  V30 2628 N 258.668 -1.30515 -0.883378 0
M  V30 2629 C 259.914 -1.20617 -1.63778 0
M  V30 2630 C 260.269 0.236469 -1.90941 0
M  V30 2631 O 259.562 1.16596 -1.52039 0
M  V30 2632 C 259.756 -1.96994 -2.98209 0
M  V30 2633 C 259.585 -3.48537 -2.84169 0
M  V30 2634 C 258.355 -4.17893 -2.84067 0
M  V30 2635 C 260.553 -4.43738 -2.60001 0
M  V30 2636 N 258.535 -5.55685 -2.60936 0
M  V30 2637 C 259.906 -5.69105 -2.46007 0
M  V30 2638 C 261.961 -4.33316 -2.45239 0
M  V30 2639 C 260.664 -6.8523 -2.18752 0
M  V30 2640 C 262.69 -5.4921 -2.19369 0
M  V30 2641 C 262.052 -6.73558 -2.06153 0
M  V30 2642 H 258.151 -0.496434 -0.604216 0
M  V30 2643 H 260.735 -1.64544 -1.04083 0
M  V30 2644 H 258.906 -1.55455 -3.55933 0
M  V30 2645 H 260.638 -1.79225 -3.62851 0
M  V30 2646 H 257.393 -3.69739 -2.95956 0
M  V30 2647 H 257.817 -6.28199 -2.52378 0
M  V30 2648 H 262.459 -3.37856 -2.54191 0
M  V30 2649 H 260.177 -7.80729 -2.08537 0
M  V30 2650 H 263.763 -5.43054 -2.08766 0
M  V30 2651 H 262.643 -7.61721 -1.86416 0
M  V30 2652 N 260.146 1.09593 -1.13257 0
M  V30 2653 C 261.371 1.8604 -0.916732 0
M  V30 2654 C 261.796 1.80504 0.529146 0
M  V30 2655 O 261.154 1.18127 1.37534 0
M  V30 2656 C 261.202 3.32017 -1.40703 0
M  V30 2657 O 260.306 4.08141 -0.591153 0
M  V30 2658 H 259.647 0.576943 -0.328683 0
M  V30 2659 H 262.177 1.38405 -1.50682 0
M  V30 2660 H 262.187 3.82865 -1.4099 0
M  V30 2661 H 260.862 3.35361 -2.45979 0
M  V30 2662 H 259.439 3.67084 -0.656005 0
M  V30 2663 N 261.624 0.925811 1.2754 0
M  V30 2664 C 262.571 0.422045 2.26908 0
M  V30 2665 C 263.541 -0.510029 1.58076 0
M  V30 2666 O 264.726 -0.429599 1.85901 0
M  V30 2667 C 261.866 -0.320837 3.43605 0
M  V30 2668 C 260.979 0.64513 4.27156 0
M  V30 2669 C 260.114 -0.117405 5.3107 0
M  V30 2670 C 259.153 0.841391 6.0629 0
M  V30 2671 N 258.29 0.111604 7.02011 0
M  V30 2672 H 263.13 1.27441 2.69375 0
M  V30 2673 H 260.667 0.639697 1.32462 0
M  V30 2674 H 262.625 -0.76785 4.10073 0
M  V30 2675 H 261.255 -1.13745 3.02096 0
M  V30 2676 H 260.307 1.21067 3.6062 0
M  V30 2677 H 261.619 1.37797 4.79389 0
M  V30 2678 H 260.773 -0.624422 6.03478 0
M  V30 2679 H 259.512 -0.883219 4.79636 0
M  V30 2680 H 258.517 1.35967 5.32722 0
M  V30 2681 H 259.742 1.60696 6.59813 0
M  V30 2682 H 257.688 -0.635999 6.5291 0
M  V30 2683 H 257.605 0.784044 7.51923 0
M  V30 2684 H 258.873 -0.374823 7.78598 0
M  V30 2685 N 263.102 -1.41638 0.69111 0
M  V30 2686 C 264.012 -2.34588 0.0233487 0
M  V30 2687 C 265.028 -1.55987 -0.770984 0
M  V30 2688 O 266.204 -1.88486 -0.709569 0
M  V30 2689 C 263.269 -3.34684 -0.904851 0
M  V30 2690 C 262.33 -4.29176 -0.103225 0
M  V30 2691 C 261.563 -5.2449 -0.987216 0
M  V30 2692 O 261.786 -5.2514 -2.22674 0
M  V30 2693 O 260.72 -6.00295 -0.439281 0
M  V30 2694 H 264.546 -2.93261 0.789416 0
M  V30 2695 H 262.131 -1.42417 0.45142 0
M  V30 2696 H 264.013 -3.96133 -1.43724 0
M  V30 2697 H 262.688 -2.78461 -1.65049 0
M  V30 2698 H 261.595 -3.71089 0.473655 0
M  V30 2699 H 262.928 -4.88484 0.60365 0
M  V30 2700 N 264.58 -0.43555 -1.51462 0
M  V30 2701 C 265.527 0.376797 -2.27703 0
M  V30 2702 C 266.497 1.01838 -1.31219 0
M  V30 2703 O 267.682 1.03762 -1.60119 0
M  V30 2704 C 264.822 1.47301 -3.12084 0
M  V30 2705 C 263.935 0.849744 -4.2356 0
M  V30 2706 C 263.07 1.92086 -4.95254 0
M  V30 2707 C 262.109 1.27593 -5.98654 0
M  V30 2708 N 261.246 2.28833 -6.63762 0
M  V30 2709 H 266.086 -0.279734 -2.96684 0
M  V30 2710 H 263.623 -0.149795 -1.46335 0
M  V30 2711 H 265.581 2.11984 -3.59331 0
M  V30 2712 H 264.211 2.0992 -2.45221 0
M  V30 2713 H 263.263 0.0912529 -3.80291 0
M  V30 2714 H 264.575 0.338878 -4.97648 0
M  V30 2715 H 263.729 2.64435 -5.46039 0
M  V30 2716 H 262.468 2.46545 -4.20793 0
M  V30 2717 H 261.473 0.537893 -5.47162 0
M  V30 2718 H 262.698 0.738693 -6.7507 0
M  V30 2719 H 260.644 2.82375 -5.92115 0
M  V30 2720 H 260.561 1.82632 -7.33608 0
M  V30 2721 H 261.829 3.00671 -7.19178 0
M  V30 2722 N 266.058 1.56714 -0.166846 0
M  V30 2723 C 266.99 2.14914 0.796537 0
M  V30 2724 C 268.003 1.10357 1.19688 0
M  V30 2725 O 269.192 1.37561 1.13751 0
M  V30 2726 C 266.292 2.67326 2.08303 0
M  V30 2727 C 265.465 3.96493 1.84696 0
M  V30 2728 C 264.524 4.34014 2.97521 0
M  V30 2729 O 263.55 5.01973 2.6835 0
M  V30 2730 N 264.752 3.95208 4.25196 0
M  V30 2731 H 267.517 2.98205 0.299006 0
M  V30 2732 H 265.078 1.61892 0.0160839 0
M  V30 2733 H 267.07 2.89428 2.82867 0
M  V30 2734 H 265.64 1.88649 2.4926 0
M  V30 2735 H 264.86 3.82814 0.940602 0
M  V30 2736 H 266.148 4.8086 1.66285 0
M  V30 2737 H 265.546 3.40487 4.51758 0
M  V30 2738 H 264.103 4.2232 4.96477 0
M  V30 2739 N 267.536 -0.106894 1.57237 0
M  V30 2740 C 268.783 -0.812526 1.85484 0
M  V30 2741 C 269.111 -1.79304 0.753687 0
M  V30 2742 O 268.366 -1.94047 -0.253853 0
M  V30 2743 C 268.665 -1.58628 3.20268 0
M  V30 2744 C 268.331 -0.748967 4.44636 0
M  V30 2745 C 266.993 -0.518104 4.78403 0
M  V30 2746 C 269.345 -0.166122 5.20935 0
M  V30 2747 C 266.673 0.305659 5.85903 0
M  V30 2748 C 269.025 0.644899 6.29304 0
M  V30 2749 C 267.689 0.885965 6.61594 0
M  V30 2750 H 266.959 -0.297324 0.678734 0
M  V30 2751 H 269.606 -0.0744332 1.91355 0
M  V30 2752 H 267.911 -2.39562 3.10028 0
M  V30 2753 H 269.608 -2.13643 3.39349 0
M  V30 2754 H 266.198 -0.939006 4.18187 0
M  V30 2755 H 270.382 -0.33167 4.95191 0
M  V30 2756 H 265.638 0.501528 6.0934 0
M  V30 2757 H 269.812 1.10345 6.87602 0
M  V30 2758 H 267.439 1.52609 7.44725 0
M  V30 2759 N 269.014 -1.53014 -0.377408 0
M  V30 2760 C 270.43 -1.42523 -0.718281 0
M  V30 2761 C 270.63 -0.55487 -1.9371 0
M  V30 2762 O 269.686 -0.0327593 -2.52479 0
M  V30 2763 C 270.999 -2.85546 -0.942539 0
M  V30 2764 C 272.547 -2.95101 -1.04329 0
M  V30 2765 C 273.022 -4.3916 -1.3001 0
M  V30 2766 N 274.513 -4.42536 -1.36806 0
M  V30 2767 C 275.248 -5.51097 -1.58364 0
M  V30 2768 N 274.744 -6.69724 -1.77317 0
M  V30 2769 N 276.537 -5.38657 -1.60638 0
M  V30 2770 H 268.688 -2.08116 0.424426 0
M  V30 2771 H 270.951 -0.939352 0.127759 0
M  V30 2772 H 270.657 -3.51499 -0.118929 0
M  V30 2773 H 270.531 -3.28493 -1.85397 0
M  V30 2774 H 272.918 -2.29309 -1.85745 0
M  V30 2775 H 272.999 -2.55566 -0.109505 0
M  V30 2776 H 272.643 -5.05521 -0.490991 0
M  V30 2777 H 272.573 -4.76258 -2.24691 0
M  V30 2778 H 275.064 -3.57039 -1.23821 0
M  V30 2779 H 275.377 -7.48233 -1.93306 0
M  V30 2780 H 273.722 -6.72732 -1.74518 0
M  V30 2781 H 276.913 -4.44948 -1.45391 0
M  V30 2782 H 277.086 -6.2333 -1.77098 0
M  V30 2783 N 270.492 0.636531 -1.44174 0
M  V30 2784 C 271.74 1.39343 -1.46383 0
M  V30 2785 C 272.061 1.94766 -0.0955715 0
M  V30 2786 O 271.331 1.75452 0.871395 0
M  V30 2787 H 269.911 0.517199 -0.538994 0
M  V30 2788 H 272.573 0.74957 -1.7991 0
M  V30 2789 H 271.669 2.22746 -2.18611 0
M  V30 2790 N 271.97 1.30982 0.876444 0
M  V30 2791 C 272.9 1.20668 1.99903 0
M  V30 2792 C 273.881 0.095354 1.69833 0
M  V30 2793 O 275.066 0.27885 1.92188 0
M  V30 2794 C 272.196 0.90655 3.3526 0
M  V30 2795 C 271.15 1.97675 3.79617 0
M  V30 2796 C 270.476 1.52943 5.1236 0
M  V30 2797 C 271.776 3.389 3.97422 0
M  V30 2798 H 273.47 2.14586 2.0879 0
M  V30 2799 H 271.016 1.03308 1.00317 0
M  V30 2800 H 272.969 0.821025 4.13324 0
M  V30 2801 H 271.693 -0.0682969 3.26529 0
M  V30 2802 H 270.352 2.05205 3.03787 0
M  V30 2803 H 270 0.54262 5.00065 0
M  V30 2804 H 269.7 2.24532 5.43009 0
M  V30 2805 H 271.224 1.45786 5.92941 0
M  V30 2806 H 272.638 3.34081 4.659 0
M  V30 2807 H 271.035 4.0865 4.3946 0
M  V30 2808 H 272.105 3.80163 3.01006 0
M  V30 2809 N 273.449 -1.08991 1.13837 0
M  V30 2810 C 274.381 -2.15606 0.777612 0
M  V30 2811 C 275.394 -1.61533 -0.202739 0
M  V30 2812 O 276.583 -1.78491 0.0181055 0
M  V30 2813 C 273.683 -3.3864 0.132623 0
M  V30 2814 C 272.856 -4.22115 1.1462 0
M  V30 2815 C 271.915 -5.23564 0.526074 0
M  V30 2816 O 270.941 -5.56678 1.18735 0
M  V30 2817 N 272.143 -5.76266 -0.699866 0
M  V30 2818 H 274.908 -2.47159 1.69506 0
M  V30 2819 H 272.469 -1.24747 1.03198 0
M  V30 2820 H 274.461 -4.03626 -0.29459 0
M  V30 2821 H 273.031 -3.04938 -0.687849 0
M  V30 2822 H 272.251 -3.53199 1.75055 0
M  V30 2823 H 273.539 -4.74709 1.83109 0
M  V30 2824 H 272.937 -5.51585 -1.25581 0
M  V30 2825 H 271.494 -6.42963 -1.06968 0
M  V30 2826 N 274.927 -0.932562 -1.27047 0
M  V30 2827 C 276.152 -0.591474 -1.98787 0
M  V30 2828 C 276.577 0.824601 -1.69062 0
M  V30 2829 O 275.935 1.5541 -0.933677 0
M  V30 2830 C 275.983 -0.829808 -3.50922 0
M  V30 2831 O 275.087 0.102266 -4.12273 0
M  V30 2832 H 274.428 -0.227185 -0.623926 0
M  V30 2833 H 276.958 -1.25314 -1.61733 0
M  V30 2834 H 276.968 -0.747292 -4.01098 0
M  V30 2835 H 275.643 -1.86201 -3.7189 0
M  V30 2836 H 274.22 -0.0305761 -3.72887 0
M  V30 2837 N 276.405 1.4127 -0.698611 0
M  V30 2838 C 277.821 1.55241 -0.370462 0
M  V30 2839 C 278.021 1.67351 1.12231 0
M  V30 2840 O 277.077 1.65363 1.90818 0
M  V30 2841 C 278.39 2.78997 -1.12165 0
M  V30 2842 C 279.938 2.92797 -1.1063 0
M  V30 2843 C 280.413 4.19445 -1.8393 0
M  V30 2844 N 281.904 4.26409 -1.80914 0
M  V30 2845 C 282.639 5.23271 -2.34467 0
M  V30 2846 N 282.135 6.26145 -2.96504 0
M  V30 2847 N 283.928 5.15232 -2.24706 0
M  V30 2848 H 276.079 1.31654 -1.66676 0
M  V30 2849 H 278.342 0.635393 -0.703548 0
M  V30 2850 H 278.048 2.76268 -2.17644 0
M  V30 2851 H 277.922 3.70606 -0.702209 0
M  V30 2852 H 280.309 2.95039 -0.0597713 0
M  V30 2853 H 280.39 2.02353 -1.56483 0
M  V30 2854 H 280.034 4.17964 -2.88563 0
M  V30 2855 H 279.964 5.08866 -1.35509 0
M  V30 2856 H 282.455 3.527 -1.35687 0
M  V30 2857 H 282.768 6.96451 -3.34927 0
M  V30 2858 H 281.113 6.26638 -3.00583 0
M  V30 2859 H 284.304 4.33789 -1.7591 0
M  V30 2860 H 284.477 5.90552 -2.66745 0
M  V30 2861 N 277.883 0.443576 1.51229 0
M  V30 2862 C 279.132 -0.122332 2.01329 0
M  V30 2863 C 279.445 -1.43237 1.33201 0
M  V30 2864 O 280.651 -2.0816 1.74304 0
M  V30 2865 C 279.107 -0.268551 3.58897 0
M  V30 2866 C 278.715 1.03142 4.35965 0
M  V30 2867 C 280.459 -0.787894 4.17124 0
M  V30 2868 C 278.366 0.850504 5.85252 0
M  V30 2869 H 277.296 -0.0494929 0.752374 0
M  V30 2870 H 279.947 0.574289 1.74282 0
M  V30 2871 H 278.329 -1.02832 3.82415 0
M  V30 2872 H 279.503 1.80001 4.24189 0
M  V30 2873 H 277.818 1.47977 3.89219 0
M  V30 2874 H 280.415 -0.939841 5.26375 0
M  V30 2875 H 280.758 -1.77201 3.76703 0
M  V30 2876 H 281.291 -0.0862669 3.97706 0
M  V30 2877 H 278.03 1.80718 6.30096 0
M  V30 2878 H 277.55 0.121825 5.99676 0
M  V30 2879 H 279.229 0.506163 6.45017 0
M  V30 2880 N 279.361 -1.56624 0.175154 0
M  V30 2881 C 280.271 -2.21741 -0.766042 0
M  V30 2882 C 281.287 -1.21023 -1.25018 0
M  V30 2883 O 282.463 -1.53697 -1.3015 0
M  V30 2884 C 279.528 -2.84839 -1.97655 0
M  V30 2885 C 278.589 -4.00769 -1.53892 0
M  V30 2886 C 277.822 -4.60849 -2.69173 0
M  V30 2887 O 278.045 -4.19823 -3.86141 0
M  V30 2888 O 276.979 -5.50655 -2.43028 0
M  V30 2889 H 280.805 -3.02738 -0.241585 0
M  V30 2890 H 278.39 -1.49305 -0.053222 0
M  V30 2891 H 280.272 -3.24834 -2.68442 0
M  V30 2892 H 278.947 -2.06836 -2.48999 0
M  V30 2893 H 277.854 -3.65436 -0.80044 0
M  V30 2894 H 279.187 -4.80376 -1.07236 0
M  V30 2895 N 280.839 0.0985539 -1.57292 0
M  V30 2896 C 281.771 1.14595 -1.98496 0
M  V30 2897 C 282.784 1.36512 -0.887031 0
M  V30 2898 O 283.973 1.35225 -1.16518 0
M  V30 2899 C 281.073 2.50216 -2.28572 0
M  V30 2900 C 280.246 2.48624 -3.59868 0
M  V30 2901 C 279.305 3.66146 -3.7792 0
M  V30 2902 O 278.331 3.48795 -4.49812 0
M  V30 2903 N 279.533 4.85496 -3.18235 0
M  V30 2904 H 282.298 0.795277 -2.88956 0
M  V30 2905 H 279.859 0.287579 -1.59325 0
M  V30 2906 H 281.851 3.27432 -2.37845 0
M  V30 2907 H 280.421 2.77387 -1.44136 0
M  V30 2908 H 279.641 1.56978 -3.61596 0
M  V30 2909 H 280.929 2.44635 -4.46129 0
M  V30 2910 H 280.327 5.02497 -2.59833 0
M  V30 2911 H 278.884 5.60317 -3.32999 0
M  V30 2912 N 282.317 1.53212 0.369288 0
M  V30 2913 C 283.227 1.82342 1.47609 0
M  V30 2914 C 284.243 0.711532 1.58787 0
M  V30 2915 O 285.419 1.0012 1.74751 0
M  V30 2916 C 282.484 2.00393 2.8292 0
M  V30 2917 C 281.545 3.24297 2.81301 0
M  V30 2918 C 280.778 3.41478 4.10157 0
M  V30 2919 O 281.001 2.63033 5.06132 0
M  V30 2920 O 279.935 4.34817 4.16194 0
M  V30 2921 H 283.761 2.76366 1.25918 0
M  V30 2922 H 281.346 1.38547 0.559034 0
M  V30 2923 H 283.228 2.13859 3.63101 0
M  V30 2924 H 281.903 1.09559 3.04596 0
M  V30 2925 H 280.81 3.16257 1.99831 0
M  V30 2926 H 282.143 4.15041 2.64578 0
M  V30 2927 N 283.795 -0.628877 1.44509 0
M  V30 2928 C 284.727 -1.754 1.47538 0
M  V30 2929 C 285.74 -1.58575 0.368506 0
M  V30 2930 O 286.929 -1.66847 0.634376 0
M  V30 2931 C 284.029 -3.1315 1.29577 0
M  V30 2932 C 283.202 -3.56413 2.53551 0
M  V30 2933 C 282.261 -4.7305 2.30457 0
M  V30 2934 O 281.287 -4.81247 3.03957 0
M  V30 2935 N 282.489 -5.64903 1.3366 0
M  V30 2936 H 285.254 -1.73272 2.44534 0
M  V30 2937 H 282.815 -0.813512 1.39977 0
M  V30 2938 H 284.807 -3.88902 1.11971 0
M  V30 2939 H 283.377 -3.09908 0.409371 0
M  V30 2940 H 282.597 -2.70847 2.86419 0
M  V30 2941 H 283.885 -3.82071 3.36005 0
M  V30 2942 H 283.283 -5.60975 0.729604 0
M  V30 2943 H 281.84 -6.40275 1.22032 0
M  V30 2944 N 285.273 -1.31445 -0.869486 0
M  V30 2945 C 286.22 -1.19135 -1.97675 0
M  V30 2946 C 287.19 -0.0770266 -1.65921 0
M  V30 2947 O 288.375 -0.249972 -1.89155 0
M  V30 2948 C 285.515 -0.905149 -3.33018 0
M  V30 2949 C 284.628 -2.10285 -3.77365 0
M  V30 2950 C 283.763 -1.75339 -5.01427 0
M  V30 2951 C 282.802 -2.91515 -5.38224 0
M  V30 2952 N 281.939 -2.56762 -6.53466 0
M  V30 2953 H 286.779 -2.13853 -2.07535 0
M  V30 2954 H 284.316 -1.06379 -1.01597 0
M  V30 2955 H 286.274 -0.719765 -4.10944 0
M  V30 2956 H 284.904 0.00519624 -3.228 0
M  V30 2957 H 283.956 -2.39899 -2.95216 0
M  V30 2958 H 285.268 -2.97237 -4.00564 0
M  V30 2959 H 284.422 -1.53266 -5.87022 0
M  V30 2960 H 283.161 -0.855801 -4.80133 0
M  V30 2961 H 282.166 -3.14237 -4.51149 0
M  V30 2962 H 283.391 -3.81985 -5.61484 0
M  V30 2963 H 281.337 -1.69526 -6.33717 0
M  V30 2964 H 281.254 -3.37243 -6.76612 0
M  V30 2965 H 282.522 -2.38083 -7.42251 0
M  V30 2966 N 286.751 1.08385 -1.14413 0
M  V30 2967 C 287.998 1.80776 -0.912482 0
M  V30 2968 C 288.326 1.86236 0.560934 0
M  V30 2969 O 287.581 1.33431 1.43159 0
M  V30 2970 C 287.88 3.26273 -1.45879 0
M  V30 2971 C 287.546 3.4093 -2.95089 0
M  V30 2972 C 286.208 3.44638 -3.35824 0
M  V30 2973 C 288.56 3.44591 -3.91033 0
M  V30 2974 C 285.888 3.49597 -4.71167 0
M  V30 2975 C 288.24 3.51086 -5.26233 0
M  V30 2976 C 286.904 3.53067 -5.6648 0
M  V30 2977 H 286.174 0.661507 -0.333901 0
M  V30 2978 H 288.821 1.27613 -1.42784 0
M  V30 2979 H 287.126 3.82146 -0.864376 0
M  V30 2980 H 288.823 3.80839 -1.2555 0
M  V30 2981 H 285.413 3.38736 -2.62594 0
M  V30 2982 H 289.597 3.40957 -3.60641 0
M  V30 2983 H 284.853 3.49424 -5.0171 0
M  V30 2984 H 289.027 3.52864 -6.00383 0
M  V30 2985 H 286.654 3.56662 -6.71339 0
M  V30 2986 N 288.23 0.939286 1.26551 0
M  V30 2987 C 289.458 0.602536 1.97932 0
M  V30 2988 C 289.873 -0.82206 1.69964 0
M  V30 2989 O 289.23 -1.54789 0.966784 0
M  V30 2990 C 289.281 0.832946 3.51773 0
M  V30 2991 O 289.002 2.20151 3.78768 0
M  V30 2992 C 290.503 0.506483 4.40397 0
M  V30 2993 H 287.723 0.227248 0.631347 0
M  V30 2994 H 290.267 1.25948 1.61113 0
M  V30 2995 H 288.422 0.222644 3.8676 0
M  V30 2996 H 288.836 2.26013 4.73306 0
M  V30 2997 H 290.31 0.718333 5.47306 0
M  V30 2998 H 290.787 -0.558451 4.35635 0
M  V30 2999 H 291.393 1.09543 4.10951 0
M  V30 3000 N 289.708 -1.40897 0.706093 0
M  V30 3001 C 290.954 -2.01352 0.241889 0
M  V30 3002 C 291.287 -1.55832 -1.15888 0
M  V30 3003 O 290.562 -0.774145 -1.7843 0
M  V30 3004 C 290.845 -3.58752 0.311311 0
M  V30 3005 C 290.698 -4.1437 1.74978 0
M  V30 3006 C 292.017 -4.38914 -0.322922 0
M  V30 3007 H 289.136 -0.731562 0.0893687 0
M  V30 3008 H 291.778 -1.67504 0.896802 0
M  V30 3009 H 289.928 -3.87718 -0.246302 0
M  V30 3010 H 291.6 -3.96239 2.36205 0
M  V30 3011 H 289.843 -3.69016 2.28057 0
M  V30 3012 H 290.514 -5.23532 1.74981 0
M  V30 3013 H 292.99 -4.15822 0.152089 0
M  V30 3014 H 291.866 -5.48358 -0.243855 0
M  V30 3015 H 292.127 -4.19176 -1.40513 0
M  V30 3016 N 291.186 -0.45159 -1.50991 0
M  V30 3017 C 292.435 0.111653 -2.01391 0
M  V30 3018 C 292.748 1.42529 -1.33959 0
M  V30 3019 O 293.954 2.07232 -1.75405 0
M  V30 3020 C 292.41 0.249514 -3.59034 0
M  V30 3021 C 292.018 -1.05453 -4.35412 0
M  V30 3022 C 293.762 0.765762 -4.17536 0
M  V30 3023 C 291.669 -0.881529 -5.84793 0
M  V30 3024 H 290.599 0.0455022 -0.752626 0
M  V30 3025 H 293.25 -0.583524 -1.73975 0
M  V30 3026 H 291.632 1.00803 -3.82955 0
M  V30 3027 H 292.806 -1.82248 -4.23229 0
M  V30 3028 H 291.121 -1.50039 -3.88429 0
M  V30 3029 H 293.718 0.911913 -5.26866 0
M  V30 3030 H 294.061 1.75201 -3.77638 0
M  V30 3031 H 294.594 0.0651744 -3.97747 0
M  V30 3032 H 291.333 -1.84057 -6.29129 0
M  V30 3033 H 290.853 -0.153625 -5.99603 0
M  V30 3034 H 292.532 -0.540363 -6.4474 0
M  V30 3035 N 292.664 1.56529 -0.183458 0
M  V30 3036 C 294.08 1.58664 0.172554 0
M  V30 3037 C 294.28 1.19925 1.61926 0
M  V30 3038 O 293.336 0.916534 2.35278 0
M  V30 3039 C 294.649 3.00463 -0.119262 0
M  V30 3040 C 296.197 3.12945 -0.0584396 0
M  V30 3041 C 296.672 4.56857 -0.323408 0
M  V30 3042 N 298.163 4.62403 -0.271612 0
M  V30 3043 C 298.898 5.71626 -0.450639 0
M  V30 3044 N 298.394 6.89362 -0.689384 0
M  V30 3045 N 300.187 5.60775 -0.385701 0
M  V30 3046 H 292.338 1.79994 -1.12765 0
M  V30 3047 H 294.601 0.834808 -0.449222 0
M  V30 3048 H 294.307 3.33326 -1.12192 0
M  V30 3049 H 294.181 3.72659 0.583544 0
M  V30 3050 H 296.568 2.79902 0.934805 0
M  V30 3051 H 296.649 2.4316 -0.794144 0
M  V30 3052 H 296.293 4.9061 -1.31392 0
M  V30 3053 H 296.223 5.24816 0.43305 0
M  V30 3054 H 298.714 3.77785 -0.0932256 0
M  V30 3055 H 299.027 7.68489 -0.815113 0
M  V30 3056 H 297.372 6.91196 -0.726142 0
M  V30 3057 H 300.563 4.67674 -0.199687 0
M  V30 3058 H 300.736 6.4584 -0.528646 0
M  V30 3059 N 294.142 -0.090211 1.57342 0
M  V30 3060 C 295.09 -1.12792 2.03422 0
M  V30 3061 C 296.084 -1.41182 0.936166 0
M  V30 3062 O 297.29 -1.40805 1.12133 0
M  V30 3063 H 293.665 -0.380986 0.648347 0
M  V30 3064 H 295.636 -0.71299 2.89757 0
M  V30 3065 C 294.385 -2.43855 2.47851 0
M  V30 3066 H 293.708 -2.22855 3.31927 0
M  V30 3067 H 295.148 -3.14955 2.83865 0
M  V30 3068 C 293.607 -3.08503 1.3538 0
M  V30 3069 O 294.137 -3.95805 0.685641 0
M  V30 3070 N 292.343 -2.68831 1.10355 0
M  V30 3071 H 291.89 -1.97929 1.64869 0
M  V30 3072 H 291.848 -3.12412 0.353031 0
M  V30 3073 N 295.62 -1.53406 -0.361157 0
M  V30 3074 C 296.868 -1.69467 -1.10115 0
M  V30 3075 C 297.189 -0.451352 -1.89705 0
M  V30 3076 O 296.459 0.534636 -1.88463 0
M  V30 3077 H 295.039 -0.624749 -0.409508 0
M  V30 3078 H 297.701 -1.90609 -0.406699 0
M  V30 3079 H 296.797 -2.55774 -1.78847 0
M  V30 3080 N 297.098 0.621204 -1.44841 0
M  V30 3081 C 298.03 1.74615 -1.48466 0
M  V30 3082 C 299.043 1.58377 -0.37691 0
M  V30 3083 O 300.232 1.66508 -0.643215 0
M  V30 3084 C 297.332 3.12459 -1.31236 0
M  V30 3085 C 296.505 3.55064 -2.55438 0
M  V30 3086 C 295.564 4.71821 -2.32963 0
M  V30 3087 O 294.59 4.79628 -3.06505 0
M  V30 3088 N 295.792 5.64186 -1.36654 0
M  V30 3089 H 298.557 1.71973 -2.45449 0
M  V30 3090 H 296.118 0.806077 -1.40407 0
M  V30 3091 H 298.11 3.88302 -1.14032 0
M  V30 3092 H 296.68 3.09686 -0.4258 0
M  V30 3093 H 295.9 2.69324 -2.87851 0
M  V30 3094 H 297.188 3.80284 -3.38026 0
M  V30 3095 H 296.586 5.6058 -0.759344 0
M  V30 3096 H 295.143 6.39618 -1.25425 0
M  V30 3097 N 298.576 1.31904 0.862503 0
M  V30 3098 C 299.506 1.22782 1.98612 0
M  V30 3099 C 300.487 0.113362 1.69722 0
M  V30 3100 O 301.672 0.299218 1.91881 0
M  V30 3101 C 298.802 0.942058 3.34279 0
M  V30 3102 C 297.756 2.0169 3.77499 0
M  V30 3103 C 297.082 1.58369 5.10709 0
M  V30 3104 C 298.382 3.43096 3.93805 0
M  V30 3105 H 300.076 2.16788 2.06502 0
M  V30 3106 H 297.622 1.04366 0.992154 0
M  V30 3107 H 299.575 0.864818 4.1243 0
M  V30 3108 H 298.299 -0.0336603 3.26583 0
M  V30 3109 H 296.958 2.08416 3.01593 0
M  V30 3110 H 296.606 0.595628 4.99461 0
M  V30 3111 H 296.306 2.30279 5.40597 0
M  V30 3112 H 297.83 1.52067 5.91361 0
M  V30 3113 H 299.244 3.39003 4.62331 0
M  V30 3114 H 297.641 4.13288 4.35101 0
M  V30 3115 H 298.711 3.83334 2.96957 0
M  V30 3116 N 300.054 -1.07777 1.14986 0
M  V30 3117 C 300.984 -2.16865 0.865557 0
M  V30 3118 C 301.965 -1.69123 -0.182083 0
M  V30 3119 O 303.15 -1.94164 -0.0373815 0
M  V30 3120 C 300.28 -3.45539 0.349313 0
M  V30 3121 C 299.234 -4.06708 1.33313 0
M  V30 3122 C 298.56 -5.30411 0.675918 0
M  V30 3123 C 299.86 -4.47241 2.69764 0
M  V30 3124 H 301.554 -2.40905 1.77778 0
M  V30 3125 H 299.1 -1.15781 0.856203 0
M  V30 3126 H 301.053 -4.21174 0.137983 0
M  V30 3127 H 299.777 -3.21072 -0.598362 0
M  V30 3128 H 298.436 -3.33112 1.53075 0
M  V30 3129 H 298.084 -5.02232 -0.277767 0
M  V30 3130 H 297.784 -5.72293 1.33244 0
M  V30 3131 H 299.308 -6.08755 0.474262 0
M  V30 3132 H 300.722 -5.14025 2.53873 0
M  V30 3133 H 299.119 -5.00062 3.3175 0
M  V30 3134 H 300.189 -3.58818 3.26156 0
M  V30 3135 N 301.532 -0.945985 -1.26051 0
M  V30 3136 C 302.464 -0.416662 -2.25381 0
M  V30 3137 C 303.477 0.462712 -1.56086 0
M  V30 3138 O 304.666 0.272383 -1.7641 0
M  V30 3139 C 301.766 0.419812 -3.3629 0
M  V30 3140 C 300.939 -0.444531 -4.35135 0
M  V30 3141 C 299.998 0.332305 -5.2515 0
M  V30 3142 O 299.024 -0.266324 -5.68577 0
M  V30 3143 N 300.226 1.62763 -5.57215 0
M  V30 3144 H 302.991 -1.27059 -2.71433 0
M  V30 3145 H 300.552 -0.815392 -1.39868 0
M  V30 3146 H 302.544 0.947013 -3.93464 0
M  V30 3147 H 301.114 1.17456 -2.89694 0
M  V30 3148 H 300.334 -1.15291 -3.76964 0
M  V30 3149 H 301.622 -1.03478 -4.98166 0
M  V30 3150 H 301.02 2.13603 -5.23823 0
M  V30 3151 H 299.577 2.10097 -6.17011 0
M  V30 3152 N 303.011 1.40521 -0.713556 0
M  V30 3153 C 304.257 2.01221 -0.252564 0
M  V30 3154 C 304.59 1.56444 1.1506 0
M  V30 3155 O 303.865 0.783597 1.78017 0
M  V30 3156 C 304.148 3.58582 -0.330332 0
M  V30 3157 C 304.001 4.13437 -1.77173 0
M  V30 3158 C 305.32 4.39079 0.299641 0
M  V30 3159 H 302.439 0.731077 -0.0932471 0
M  V30 3160 H 305.081 1.67026 -0.905673 0
M  V30 3161 H 303.231 3.87844 0.225737 0
M  V30 3162 H 304.903 3.9498 -2.38303 0
M  V30 3163 H 303.146 3.67801 -2.3001 0
M  V30 3164 H 303.817 5.22597 -1.77755 0
M  V30 3165 H 306.293 4.15735 -0.174139 0
M  V30 3166 H 305.169 5.4848 0.214771 0
M  V30 3167 H 305.43 4.19915 1.38288 0
M  V30 3168 N 304.489 0.459591 1.5075 0
M  V30 3169 C 305.9 0.00171547 1.867 0
M  V30 3170 C 306.251 -1.39934 1.37525 0
M  V30 3171 O 305.376 -2.03523 0.735349 0
M  V30 3172 C 305.971 -0.00366298 3.388 0
M  V30 3173 C 304.53 -0.406026 3.74204 0
M  V30 3174 C 303.677 0.38673 2.7459 0
M  V30 3175 H 306.628 0.674413 1.43657 0
M  V30 3176 H 306.649 -0.808371 3.71814 0
M  V30 3177 H 306.161 1.01617 3.74561 0
M  V30 3178 H 304.262 -1.43063 3.4404 0
M  V30 3179 H 304.375 -0.115362 4.78961 0
M  V30 3180 H 302.739 -0.158019 2.54209 0
M  V30 3181 H 303.522 1.40585 3.13194 0
M  V30 3182 N 305.967 -1.56429 0.191757 0
M  V30 3183 C 307.213 -1.97777 -0.448554 0
M  V30 3184 C 307.546 -1.07847 -1.61501 0
M  V30 3185 O 306.821 -0.129774 -1.94067 0
M  V30 3186 C 307.104 -3.48362 -0.911906 0
M  V30 3187 C 306.957 -4.4907 0.256136 0
M  V30 3188 C 308.276 -4.02561 -1.77857 0
M  V30 3189 H 305.395 -0.719071 -0.161572 0
M  V30 3190 H 308.037 -1.87896 0.282007 0
M  V30 3191 H 306.187 -3.56914 -1.53442 0
M  V30 3192 H 307.859 -4.5256 0.893733 0
M  V30 3193 H 306.102 -4.24181 0.908436 0
M  V30 3194 H 306.773 -5.51889 -0.11053 0
M  V30 3195 H 309.249 -3.96767 -1.25359 0
M  V30 3196 H 308.125 -5.08301 -2.07174 0
M  V30 3197 H 308.386 -3.47616 -2.73158 0
M  V30 3198 N 307.445 0.0818655 -1.57387 0
M  V30 3199 C 308.408 1.08265 -2.02018 0
M  V30 3200 C 309.408 1.32183 -0.915664 0
M  V30 3201 O 310.598 1.28073 -1.18081 0
M  V30 3202 C 307.73 2.42871 -2.39221 0
M  V30 3203 H 308.923 0.698204 -2.91659 0
M  V30 3204 H 306.476 0.327303 -1.52835 0
M  V30 3205 H 307.211 2.86167 -1.52575 0
M  V30 3206 H 306.996 2.26855 -3.19811 0
M  V30 3207 H 308.486 3.14826 -2.74362 0
M  V30 3208 N 308.923 1.53595 0.353017 0
M  V30 3209 C 309.886 1.80232 1.41594 0
M  V30 3210 C 310.886 0.673081 1.46035 0
M  V30 3211 O 312.076 0.941335 1.46576 0
M  V30 3212 C 309.208 1.93578 2.80607 0
M  V30 3213 H 310.401 2.75174 1.19244 0
M  V30 3214 H 307.954 1.44864 0.586872 0
M  V30 3215 H 308.689 1.00746 3.08254 0
M  V30 3216 H 308.474 2.75724 2.78781 0
M  V30 3217 H 309.964 2.15735 3.57558 0
M  V30 3218 N 310.401 -0.613514 1.45168 0
M  V30 3219 C 311.331 -1.7354 1.56225 0
M  V30 3220 C 312.312 -1.64981 0.41414 0
M  V30 3221 O 313.497 -1.83472 0.636526 0
M  V30 3222 C 310.627 -3.12128 1.52295 0
M  V30 3223 C 309.581 -3.35491 2.65762 0
M  V30 3224 C 308.907 -4.74291 2.46885 0
M  V30 3225 C 310.207 -3.26325 4.0781 0
M  V30 3226 H 311.901 -1.64543 2.50132 0
M  V30 3227 H 309.447 -0.790185 1.20383 0
M  V30 3228 H 311.4 -3.90404 1.58628 0
M  V30 3229 H 310.124 -3.2195 0.549139 0
M  V30 3230 H 308.783 -2.59603 2.58847 0
M  V30 3231 H 308.431 -4.80839 1.47657 0
M  V30 3232 H 308.131 -4.9088 3.22972 0
M  V30 3233 H 309.655 -5.54775 2.55063 0
M  V30 3234 H 311.069 -3.94483 4.16 0
M  V30 3235 H 309.466 -3.54445 4.8424 0
M  V30 3236 H 310.536 -2.23855 4.30136 0
M  V30 3237 N 311.879 -1.3236 -0.855495 0
M  V30 3238 C 313.125 -1.23054 -1.612 0
M  V30 3239 C 313.458 0.207404 -1.93089 0
M  V30 3240 O 312.733 1.14432 -1.57275 0
M  V30 3241 C 313.016 -2.08937 -2.93287 0
M  V30 3242 C 312.869 -3.61105 -2.68185 0
M  V30 3243 C 314.188 -1.94986 -3.94549 0
M  V30 3244 H 311.307 -0.448364 -0.584926 0
M  V30 3245 H 313.949 -1.62297 -0.987917 0
M  V30 3246 H 312.099 -1.75599 -3.46551 0
M  V30 3247 H 313.771 -4.04652 -2.21483 0
M  V30 3248 H 312.014 -3.83813 -2.02164 0
M  V30 3249 H 312.685 -4.16522 -3.62234 0
M  V30 3250 H 315.161 -2.24189 -3.5054 0
M  V30 3251 H 314.037 -2.57356 -4.84829 0
M  V30 3252 H 314.298 -0.917263 -4.3248 0
M  V30 3253 N 313.357 1.07166 -1.15556 0
M  V30 3254 C 314.603 1.80065 -0.932984 0
M  V30 3255 C 314.936 1.86586 0.53845 0
M  V30 3256 O 314.211 1.35098 1.39924 0
M  V30 3257 C 314.494 3.25022 -1.55025 0
M  V30 3258 C 314.347 3.26634 -3.09242 0
M  V30 3259 C 315.666 4.22341 -1.2376 0
M  V30 3260 H 312.785 0.653697 -0.340366 0
M  V30 3261 H 315.427 1.25389 -1.4275 0
M  V30 3262 H 313.577 3.71712 -1.12972 0
M  V30 3263 H 315.249 2.88173 -3.60214 0
M  V30 3264 H 313.492 2.65539 -3.43033 0
M  V30 3265 H 314.163 4.28854 -3.47546 0
M  V30 3266 H 316.639 3.8405 -1.60139 0
M  V30 3267 H 315.515 5.22053 -1.69564 0
M  V30 3268 H 315.776 4.41828 -0.154938 0
M  V30 3269 N 314.835 0.952656 1.25548 0
M  V30 3270 C 316.083 0.605176 1.92826 0
M  V30 3271 C 316.404 -0.860261 1.74999 0
M  V30 3272 O 315.674 -1.6125 1.11244 0
M  V30 3273 H 314.254 0.220832 0.713612 0
M  V30 3274 H 316.916 1.21047 1.52754 0
M  V30 3275 H 316.012 0.832798 3.00784 0
M  V30 3276 N 316.313 -1.40141 0.720998 0
M  V30 3277 C 317.59 -1.94677 0.189757 0
M  V30 3278 C 317.97 -1.65879 -1.30566 0
M  V30 3279 O 317.318 -0.979391 -2.06447 0
M  V30 3280 C 317.528 -3.45279 0.508304 0
M  V30 3281 C 318.876 -4.22209 0.449934 0
M  V30 3282 O 319.9 -3.53413 0.444677 0
M  V30 3283 O 318.759 -5.44788 0.432189 0
M  V30 3284 H 315.853 -0.826459 0.0299026 0
M  V30 3285 H 318.399 -1.49719 0.7989 0
M  V30 3286 H 317.171 -3.59619 1.54239 0
M  V30 3287 H 316.794 -3.97386 -0.130525 0
M  V30 3288 N 317.792 -0.46758 -1.50504 0
M  V30 3289 C 319.041 0.0902868 -2.01498 0
M  V30 3290 C 319.354 1.411 -1.35463 0
M  V30 3291 O 320.56 2.0536 -1.77594 0
M  V30 3292 C 319.016 0.21142 -3.59278 0
M  V30 3293 C 318.624 -1.10065 -4.34269 0
M  V30 3294 C 320.368 0.721433 -4.18325 0
M  V30 3295 C 318.275 -0.943505 -5.83825 0
M  V30 3296 H 317.205 0.037517 -0.753066 0
M  V30 3297 H 319.856 -0.601943 -1.73346 0
M  V30 3298 H 318.238 0.967352 -3.84003 0
M  V30 3299 H 319.412 -1.86726 -4.21272 0
M  V30 3300 H 317.727 -1.5415 -3.86816 0
M  V30 3301 H 320.324 0.85598 -5.27804 0
M  V30 3302 H 320.667 1.71186 -3.79475 0
M  V30 3303 H 321.2 0.0229843 -3.97793 0
M  V30 3304 H 317.939 -1.90719 -6.27141 0
M  V30 3305 H 317.459 -0.217213 -5.99407 0
M  V30 3306 H 319.138 -0.608715 -6.4413 0
M  V30 3307 N 319.27 1.56325 -0.20005 0
M  V30 3308 C 320.233 2.18084 0.705132 0
M  V30 3309 C 321.233 1.13666 1.1374 0
M  V30 3310 O 322.423 1.39023 1.04968 0
M  V30 3311 C 319.555 2.78689 1.96329 0
M  V30 3312 H 320.748 2.99435 0.167023 0
M  V30 3313 H 318.301 1.56221 0.0495725 0
M  V30 3314 H 319.036 2.0115 2.5438 0
M  V30 3315 H 318.821 3.55133 1.66202 0
M  V30 3316 H 320.311 3.26096 2.60866 0
M  V30 3317 N 320.748 -0.0735177 1.57428 0
M  V30 3318 C 321.68 -1.11423 2.00294 0
M  V30 3319 C 322.693 -1.35084 0.908637 0
M  V30 3320 O 323.882 -1.33355 1.18654 0
M  V30 3321 C 320.982 -2.46548 2.32523 0
M  V30 3322 C 320.155 -2.42867 3.63778 0
M  V30 3323 C 319.214 -3.60087 3.83697 0
M  V30 3324 O 318.24 -3.41595 4.55304 0
M  V30 3325 N 319.442 -4.80372 3.25919 0
M  V30 3326 H 322.207 -0.749206 2.90184 0
M  V30 3327 H 319.768 -0.262195 1.59763 0
M  V30 3328 H 321.76 -3.23607 2.43024 0
M  V30 3329 H 320.33 -2.75059 1.48531 0
M  V30 3330 H 319.55 -1.51206 3.64047 0
M  V30 3331 H 320.838 -2.37506 4.49965 0
M  V30 3332 H 320.236 -4.983 2.67795 0
M  V30 3333 H 318.793 -5.54948 3.41871 0
M  V30 3334 N 322.226 -1.5378 -0.344866 0
M  V30 3335 C 323.472 -1.71216 -1.08687 0
M  V30 3336 C 323.805 -0.473281 -1.88345 0
M  V30 3337 O 323.08 0.52968 -1.87149 0
M  V30 3338 C 323.363 -2.97486 -2.02914 0
M  V30 3339 C 323.216 -4.31579 -1.26727 0
M  V30 3340 C 324.535 -3.19422 -3.0275 0
M  V30 3341 H 321.654 -0.62301 -0.393735 0
M  V30 3342 H 324.296 -1.8645 -0.365563 0
M  V30 3343 H 322.446 -2.84629 -2.64421 0
M  V30 3344 H 324.118 -4.56284 -0.67845 0
M  V30 3345 H 322.361 -4.30049 -0.569273 0
M  V30 3346 H 323.032 -5.16106 -1.95803 0
M  V30 3347 H 325.508 -3.316 -2.51357 0
M  V30 3348 H 324.384 -4.09169 -3.65885 0
M  V30 3349 H 324.645 -2.35656 -3.74057 0
M  V30 3350 N 323.704 0.605807 -1.45491 0
M  V30 3351 C 324.651 1.7164 -1.54299 0
M  V30 3352 C 325.621 1.61486 -0.388761 0
M  V30 3353 O 326.806 1.81039 -0.602445 0
M  V30 3354 C 323.946 3.09953 -1.51734 0
M  V30 3355 C 323.059 3.309 -2.77721 0
M  V30 3356 C 322.194 4.59329 -2.66816 0
M  V30 3357 C 321.233 4.7354 -3.87848 0
M  V30 3358 N 320.37 5.9327 -3.75467 0
M  V30 3359 H 325.21 1.63449 -2.49176 0
M  V30 3360 H 322.747 0.796957 -1.23641 0
M  V30 3361 H 324.705 3.89977 -1.48235 0
M  V30 3362 H 323.335 3.17098 -0.604068 0
M  V30 3363 H 322.387 2.44639 -2.913 0
M  V30 3364 H 323.699 3.37274 -3.67488 0
M  V30 3365 H 322.853 5.4755 -2.61292 0
M  V30 3366 H 321.592 4.55355 -1.74651 0
M  V30 3367 H 320.597 3.83741 -3.93729 0
M  V30 3368 H 321.822 4.79309 -4.81082 0
M  V30 3369 H 319.768 5.90338 -2.86072 0
M  V30 3370 H 319.685 6.00811 -4.5887 0
M  V30 3371 H 320.953 6.83984 -3.73879 0
M  V30 3372 N 325.182 1.32811 0.848464 0
M  V30 3373 C 326.412 1.26556 1.63301 0
M  V30 3374 C 326.82 -0.1676 1.88456 0
M  V30 3375 O 326.163 -1.11713 1.45828 0
M  V30 3376 C 326.225 1.96202 3.01239 0
M  V30 3377 C 325.889 3.45528 2.99098 0
M  V30 3378 C 326.886 4.40903 2.75501 0
M  V30 3379 C 324.571 3.87558 3.19537 0
M  V30 3380 C 326.565 5.76282 2.72356 0
M  V30 3381 C 324.252 5.23044 3.16019 0
M  V30 3382 C 325.25 6.17217 2.92458 0
M  V30 3383 O 324.938 7.50223 2.88825 0
M  V30 3384 H 324.67 0.43771 0.515156 0
M  V30 3385 H 327.224 1.7559 1.0657 0
M  V30 3386 H 325.454 1.41746 3.59785 0
M  V30 3387 H 327.143 1.83573 3.62016 0
M  V30 3388 H 327.909 4.09756 2.5947 0
M  V30 3389 H 323.788 3.14674 3.369 0
M  V30 3390 H 327.332 6.4976 2.53886 0
M  V30 3391 H 323.229 5.53818 3.31596 0
M  V30 3392 H 323.997 7.59657 3.04735 0
M  V30 3393 N 326.66 -1.06551 1.16123 0
M  V30 3394 C 327.908 -1.78947 0.939267 0
M  V30 3395 C 328.229 -1.87532 -0.534476 0
M  V30 3396 O 327.499 -1.38211 -1.38833 0
M  V30 3397 H 326.079 -0.662807 0.344523 0
M  V30 3398 H 328.741 -1.28725 1.46342 0
M  V30 3399 H 327.837 -2.81117 1.35572 0
M  V30 3400 N 328.138 -0.959301 -1.25041 0
M  V30 3401 C 329.415 -0.533805 -1.88175 0
M  V30 3402 C 329.795 0.988994 -1.865 0
M  V30 3403 O 329.143 1.85677 -1.33177 0
M  V30 3404 C 329.353 -1.11575 -3.30684 0
M  V30 3405 C 330.701 -1.19548 -4.07423 0
M  V30 3406 O 331.725 -1.06765 -3.39823 0
M  V30 3407 O 330.584 -1.39656 -5.28354 0
M  V30 3408 H 327.678 -0.176772 -0.807887 0
M  V30 3409 H 330.224 -1.05303 -1.33076 0
M  V30 3410 H 328.996 -2.15884 -3.26358 0
M  V30 3411 H 328.619 -0.580059 -3.93346 0
M  V30 3412 N 329.616 1.39756 -0.72842 0
M  V30 3413 C 330.546 2.33289 -0.0991354 0
M  V30 3414 C 331.527 1.53568 0.731489 0
M  V30 3415 O 332.712 1.81987 0.677807 0
M  V30 3416 C 329.842 3.3763 0.813834 0
M  V30 3417 C 328.796 4.2791 0.0878663 0
M  V30 3418 C 328.122 5.22894 1.11741 0
M  V30 3419 C 329.422 5.11314 -1.06563 0
M  V30 3420 H 331.116 2.86163 -0.880408 0
M  V30 3421 H 328.662 1.37591 -0.424819 0
M  V30 3422 H 330.615 4.0201 1.26355 0
M  V30 3423 H 329.339 2.83181 1.62715 0
M  V30 3424 H 327.998 3.65 -0.342159 0
M  V30 3425 H 327.646 4.64744 1.92412 0
M  V30 3426 H 327.346 5.84143 0.636477 0
M  V30 3427 H 328.87 5.90151 1.56697 0
M  V30 3428 H 330.284 5.69076 -0.694671 0
M  V30 3429 H 328.681 5.81671 -1.47577 0
M  V30 3430 H 329.751 4.46534 -1.89038 0
M  V30 3431 N 331.094 0.475555 1.50254 0
M  V30 3432 C 332.024 -0.30611 2.31485 0
M  V30 3433 C 333.005 -0.986228 1.38591 0
M  V30 3434 O 334.19 -0.982541 1.67511 0
M  V30 3435 C 331.32 -1.38588 3.1845 0
M  V30 3436 C 330.274 -0.827115 4.19932 0
M  V30 3437 C 329.6 -2.00551 4.95665 0
M  V30 3438 C 330.9 0.16463 5.2204 0
M  V30 3439 H 332.594 0.371866 2.97082 0
M  V30 3440 H 330.14 0.180282 1.42867 0
M  V30 3441 H 332.093 -1.94023 3.74076 0
M  V30 3442 H 330.817 -2.09269 2.50747 0
M  V30 3443 H 329.476 -0.294702 3.65414 0
M  V30 3444 H 329.124 -2.6994 4.2443 0
M  V30 3445 H 328.824 -1.63784 5.64313 0
M  V30 3446 H 330.348 -2.56468 5.54127 0
M  V30 3447 H 331.762 -0.300699 5.72511 0
M  V30 3448 H 330.159 0.446813 5.98434 0
M  V30 3449 H 331.229 1.08905 4.72512 0
M  V30 3450 N 332.573 -1.56217 0.208337 0
M  V30 3451 C 333.984 -1.84243 -0.301904 0
M  V30 3452 C 334.335 -1.12939 -1.60434 0
M  V30 3453 O 333.46 -0.39461 -2.12772 0
M  V30 3454 C 334.055 -3.34231 -0.554543 0
M  V30 3455 C 332.614 -3.62621 -1.00912 0
M  V30 3456 C 331.761 -2.77224 -0.064933 0
M  V30 3457 H 334.712 -1.52712 0.431833 0
M  V30 3458 H 334.733 -3.5372 -1.40223 0
M  V30 3459 H 334.245 -3.86099 0.393561 0
M  V30 3460 H 332.346 -3.16197 -1.97104 0
M  V30 3461 H 332.459 -4.7071 -0.892674 0
M  V30 3462 H 330.823 -2.48256 -0.56929 0
M  V30 3463 H 331.606 -3.31887 0.877851 0
M  V30 3464 N 334.051 0.0651679 -1.57465 0
M  V30 3465 C 335.014 1.06117 -2.03155 0
M  V30 3466 C 336.014 1.31204 -0.929632 0
M  V30 3467 O 337.204 1.26813 -1.19432 0
M  V30 3468 C 334.336 2.4032 -2.41783 0
M  V30 3469 H 335.529 0.667231 -2.92383 0
M  V30 3470 H 333.082 0.311075 -1.53173 0
M  V30 3471 H 333.817 2.84532 -1.55601 0
M  V30 3472 H 333.602 2.23451 -3.22199 0
M  V30 3473 H 335.092 3.11898 -2.77685 0
M  V30 3474 N 335.529 1.53961 0.336706 0
M  V30 3475 C 336.806 1.62171 1.09361 0
M  V30 3476 C 337.186 0.447263 2.06307 0
M  V30 3477 O 336.534 -0.559802 2.21537 0
M  V30 3478 C 336.744 2.98565 1.80721 0
M  V30 3479 C 338.092 3.54157 2.34218 0
M  V30 3480 O 339.116 3.00784 1.90807 0
M  V30 3481 O 337.975 4.47528 3.13657 0
M  V30 3482 H 335.069 0.6562 0.503319 0
M  V30 3483 H 337.615 1.66307 0.33765 0
M  V30 3484 H 336.387 3.75482 1.10132 0
M  V30 3485 H 336.01 2.9805 2.63158 0
M  V30 3486 N 337.007 -0.598083 1.45811 0
M  V30 3487 C 338.255 -1.35413 1.50026 0
M  V30 3488 C 338.576 -1.94444 0.147177 0
M  V30 3489 O 337.846 -1.77701 -0.824571 0
M  V30 3490 H 336.426 -0.502727 0.552517 0
M  V30 3491 H 339.088 -0.701606 1.81834 0
M  V30 3492 H 338.184 -2.16871 2.2444 0
M  V30 3493 N 338.485 -1.33259 -0.841409 0
M  V30 3494 C 339.731 -1.24757 -1.59886 0
M  V30 3495 C 340.064 0.186913 -1.93298 0
M  V30 3496 O 339.339 1.12757 -1.5848 0
M  V30 3497 C 339.622 -2.12036 -2.91055 0
M  V30 3498 C 339.475 -3.63929 -2.6434 0
M  V30 3499 C 340.794 -1.9916 -3.92458 0
M  V30 3500 H 337.913 -0.454542 -0.580138 0
M  V30 3501 H 340.555 -1.63335 -0.970647 0
M  V30 3502 H 338.705 -1.79265 -3.44669 0
M  V30 3503 H 340.377 -4.06978 -2.17178 0
M  V30 3504 H 338.62 -3.85935 -1.98082 0
M  V30 3505 H 339.291 -4.20341 -3.57796 0
M  V30 3506 H 341.767 -2.27895 -3.48143 0
M  V30 3507 H 340.643 -2.62484 -4.82072 0
M  V30 3508 H 340.904 -0.963082 -4.31482 0
M  V30 3509 N 339.963 1.05934 -1.16686 0
M  V30 3510 C 340.893 2.1546 -0.899949 0
M  V30 3511 C 341.874 1.69391 0.155154 0
M  V30 3512 O 343.059 1.94199 0.00648693 0
M  V30 3513 C 340.189 3.44939 -0.404241 0
M  V30 3514 C 339.143 4.04536 -1.39767 0
M  V30 3515 C 338.469 5.29268 -0.760216 0
M  V30 3516 C 339.769 4.42893 -2.76845 0
M  V30 3517 H 341.463 2.38046 -1.81588 0
M  V30 3518 H 339.009 1.14404 -0.874514 0
M  V30 3519 H 340.962 4.20901 -0.204971 0
M  V30 3520 H 339.686 3.21983 0.547206 0
M  V30 3521 H 338.345 3.30635 -1.58355 0
M  V30 3522 H 337.993 5.02611 0.197831 0
M  V30 3523 H 337.693 5.70101 -1.42332 0
M  V30 3524 H 339.217 6.07924 -0.57105 0
M  V30 3525 H 340.631 5.09921 -2.62019 0
M  V30 3526 H 339.028 4.94721 -3.39663 0
M  V30 3527 H 340.098 3.53584 -3.31823 0
M  V30 3528 N 341.441 0.965919 1.2453 0
M  V30 3529 C 342.69 0.622437 1.91856 0
M  V30 3530 C 343.003 -0.846006 1.76358 0
M  V30 3531 O 344.209 -1.29993 2.38357 0
M  V30 3532 C 342.665 1.0626 3.43856 0
M  V30 3533 C 342.273 2.55437 3.68043 0
M  V30 3534 C 344.017 0.792183 4.17043 0
M  V30 3535 C 341.924 2.93196 5.13605 0
M  V30 3536 H 340.854 0.229092 0.718354 0
M  V30 3537 H 343.505 1.17189 1.41206 0
M  V30 3538 H 341.887 0.441476 3.93531 0
M  V30 3539 H 343.061 3.22665 3.28974 0
M  V30 3540 H 341.376 2.8007 3.08139 0
M  V30 3541 H 343.973 1.05031 5.24283 0
M  V30 3542 H 344.316 -0.271584 4.15413 0
M  V30 3543 H 344.849 1.37419 3.73311 0
M  V30 3544 H 341.588 3.98636 5.20355 0
M  V30 3545 H 341.108 2.30651 5.53679 0
M  V30 3546 H 342.787 2.83004 5.81823 0
M  V30 3547 N 342.919 -1.39368 0.735821 0
M  V30 3548 C 343.851 -2.2913 0.0567723 0
M  V30 3549 C 344.864 -1.46859 -0.702589 0
M  V30 3550 O 346.053 -1.69925 -0.546616 0
M  V30 3551 C 343.153 -3.25492 -0.943823 0
M  V30 3552 C 342.326 -4.36709 -0.24581 0
M  V30 3553 C 341.385 -5.13376 -1.15463 0
M  V30 3554 O 340.411 -5.65683 -0.631803 0
M  V30 3555 N 341.613 -5.24656 -2.48427 0
M  V30 3556 H 344.378 -2.88047 0.827582 0
M  V30 3557 H 341.939 -1.50957 0.585112 0
M  V30 3558 H 343.931 -3.73657 -1.55443 0
M  V30 3559 H 342.501 -2.676 -1.61583 0
M  V30 3560 H 341.721 -3.9041 0.545286 0
M  V30 3561 H 343.009 -5.08244 0.237891 0
M  V30 3562 H 342.407 -4.83679 -2.93379 0
M  V30 3563 H 340.964 -5.76258 -3.04582 0
M  V30 3564 N 344.397 -0.483516 -1.5 0
M  V30 3565 C 345.36 0.292965 -2.2732 0
M  V30 3566 C 346.36 0.909499 -1.32608 0
M  V30 3567 O 347.55 0.776745 -1.55924 0
M  V30 3568 C 344.682 1.41854 -3.09984 0
M  V30 3569 H 345.875 -0.385289 -2.97415 0
M  V30 3570 H 343.428 -0.237942 -1.54478 0
M  V30 3571 H 344.163 2.13148 -2.44414 0
M  V30 3572 H 343.948 0.982114 -3.79601 0
M  V30 3573 H 345.438 1.96597 -3.68429 0
M  V30 3574 N 345.875 1.56104 -0.216619 0
M  V30 3575 C 346.823 2.21434 0.712036 0
M  V30 3576 C 347.817 1.19218 1.20348 0
M  V30 3577 O 349.023 1.3731 1.16387 0
M  V30 3578 H 345.398 0.70992 0.248026 0
M  V30 3579 H 347.369 2.98083 0.137558 0
M  V30 3580 C 346.118 2.90434 1.91163 0
M  V30 3581 H 345.441 3.68842 1.54258 0
M  V30 3582 H 346.881 3.39552 2.5393 0
M  V30 3583 C 345.34 1.92635 2.76394 0
M  V30 3584 O 345.87 1.44017 3.74996 0
M  V30 3585 N 344.076 1.60392 2.42328 0
M  V30 3586 H 343.623 2.00122 1.622 0
M  V30 3587 H 343.581 0.952159 2.99635 0
M  V30 3588 N 347.353 -0.0568162 1.57498 0
M  V30 3589 C 348.63 -0.786954 1.79071 0
M  V30 3590 C 349.01 -1.95028 0.80792 0
M  V30 3591 O 348.358 -2.27968 -0.155858 0
M  V30 3592 C 348.568 -1.24594 3.26002 0
M  V30 3593 C 349.916 -1.67323 3.90241 0
M  V30 3594 O 350.94 -1.34124 3.29984 0
M  V30 3595 O 349.799 -2.28842 4.9628 0
M  V30 3596 H 346.893 -0.378262 0.735423 0
M  V30 3597 H 349.439 -0.035734 1.69662 0
M  V30 3598 H 348.211 -0.41423 3.89101 0
M  V30 3599 H 347.834 -2.05803 3.40192 0
M  V30 3600 N 348.832 -1.54138 -0.328536 0
M  V30 3601 C 349.762 -1.86167 -1.40939 0
M  V30 3602 C 350.743 -0.718044 -1.54202 0
M  V30 3603 O 351.928 -0.971328 -1.68163 0
M  V30 3604 C 349.058 -2.08461 -2.77779 0
M  V30 3605 C 348.012 -3.24299 -2.7931 0
M  V30 3606 C 347.338 -3.31955 -4.19178 0
M  V30 3607 C 348.638 -4.62065 -2.43502 0
M  V30 3608 H 350.332 -2.76689 -1.14383 0
M  V30 3609 H 347.878 -1.33132 -0.548806 0
M  V30 3610 H 349.831 -2.29453 -3.53454 0
M  V30 3611 H 348.555 -1.14684 -3.05802 0
M  V30 3612 H 347.214 -3.03187 -2.0609 0
M  V30 3613 H 346.862 -2.35745 -4.44335 0
M  V30 3614 H 346.562 -4.09805 -4.2111 0
M  V30 3615 H 348.086 -3.55175 -4.96672 0
M  V30 3616 H 349.5 -4.8297 -3.08889 0
M  V30 3617 H 347.897 -5.42429 -2.56693 0
M  V30 3618 H 348.967 -4.64652 -1.38659 0
M  V30 3619 N 350.31 0.590341 -1.46126 0
M  V30 3620 C 351.257 1.69994 -1.56111 0
M  V30 3621 C 352.227 1.61065 -0.405867 0
M  V30 3622 O 353.412 1.8039 -0.621613 0
M  V30 3623 C 350.552 3.08326 -1.55013 0
M  V30 3624 C 349.665 3.27936 -2.81215 0
M  V30 3625 C 348.8 4.56473 -2.71673 0
M  V30 3626 C 347.839 4.694 -3.92849 0
M  V30 3627 N 346.976 5.89254 -3.81738 0
M  V30 3628 H 351.816 1.60797 -2.50895 0
M  V30 3629 H 349.353 0.783799 -1.24479 0
M  V30 3630 H 351.311 3.88383 -1.52362 0
M  V30 3631 H 349.941 3.16439 -0.637667 0
M  V30 3632 H 348.993 2.41536 -2.93879 0
M  V30 3633 H 350.305 3.33357 -3.71045 0
M  V30 3634 H 349.459 5.44748 -2.67085 0
M  V30 3635 H 348.198 4.53477 -1.7947 0
M  V30 3636 H 347.203 3.79544 -3.97777 0
M  V30 3637 H 348.428 4.7418 -4.86138 0
M  V30 3638 H 346.374 5.87271 -2.92317 0
M  V30 3639 H 346.291 5.95911 -4.65217 0
M  V30 3640 H 347.559 6.79981 -3.81112 0
M  V30 3641 N 351.788 1.33704 0.83433 0
M  V30 3642 C 353.037 1.24763 1.58484 0
M  V30 3643 C 353.35 -0.183775 1.94735 0
M  V30 3644 O 354.556 -0.395234 2.68608 0
M  V30 3645 C 353.012 2.18638 2.85876 0
M  V30 3646 C 352.62 3.66974 2.56971 0
M  V30 3647 C 354.364 2.18581 3.63899 0
M  V30 3648 C 352.271 4.5275 3.80488 0
M  V30 3649 H 351.201 0.463425 0.594772 0
M  V30 3650 H 353.852 1.58797 0.919551 0
M  V30 3651 H 352.234 1.77542 3.5397 0
M  V30 3652 H 353.408 4.16538 1.9706 0
M  V30 3653 H 351.723 3.69366 1.92244 0
M  V30 3654 H 354.32 2.79894 4.55591 0
M  V30 3655 H 354.663 1.18207 3.99165 0
M  V30 3656 H 355.196 2.58062 3.02735 0
M  V30 3657 H 351.935 5.54017 3.5035 0
M  V30 3658 H 351.455 4.07927 4.39722 0
M  V30 3659 H 353.134 4.66784 4.4802 0
M  V30 3660 N 353.266 -1.05314 1.17247 0
M  V30 3661 C 354.543 -1.75184 0.87005 0
M  V30 3662 C 354.923 -2.01481 -0.629965 0
M  V30 3663 O 354.271 -1.64988 -1.58086 0
M  V30 3664 C 354.481 -3.04594 1.70363 0
M  V30 3665 C 355.829 -3.78567 1.92281 0
M  V30 3666 O 356.853 -3.14461 1.67311 0
M  V30 3667 O 355.712 -4.93755 2.3424 0
M  V30 3668 H 352.806 -0.761729 0.322021 0
M  V30 3669 H 355.352 -1.11493 1.27935 0
M  V30 3670 H 354.124 -2.81201 2.72106 0
M  V30 3671 H 353.747 -3.76022 1.29202 0
M  V30 3672 N 354.744 -0.972509 -1.24016 0
M  V30 3673 C 355.654 -0.5143 -2.28893 0
M  V30 3674 C 356.67 0.427078 -1.68677 0
M  V30 3675 O 357.846 0.298939 -1.99169 0
M  V30 3676 C 354.911 0.183598 -3.46214 0
M  V30 3677 C 353.972 -0.798202 -4.21814 0
M  V30 3678 C 353.205 -0.133514 -5.33533 0
M  V30 3679 O 353.428 1.07714 -5.60137 0
M  V30 3680 O 352.362 -0.828103 -5.96176 0
M  V30 3681 H 356.188 -1.38629 -2.70214 0
M  V30 3682 H 353.773 -0.739769 -1.29799 0
M  V30 3683 H 355.655 0.575433 -4.17453 0
M  V30 3684 H 354.33 1.03048 -3.0686 0
M  V30 3685 H 353.237 -1.24059 -3.52931 0
M  V30 3686 H 354.57 -1.61364 -4.64997 0
M  V30 3687 N 356.222 1.38976 -0.743202 0
M  V30 3688 C 357.447 2.05161 -0.303936 0
M  V30 3689 C 357.872 1.55677 1.05576 0
M  V30 3690 O 357.23 0.704131 1.67068 0
M  V30 3691 C 357.278 3.59138 -0.324373 0
M  V30 3692 O 356.382 4.06668 0.685204 0
M  V30 3693 H 355.723 0.649815 -0.136518 0
M  V30 3694 H 358.253 1.77852 -1.01142 0
M  V30 3695 H 358.263 4.07639 -0.171618 0
M  V30 3696 H 356.938 3.94515 -1.31647 0
M  V30 3697 H 355.515 3.69561 0.497913 0
M  V30 3698 N 357.7 0.491464 1.49741 0
M  V30 3699 C 358.925 -0.0557177 2.07325 0
M  V30 3700 C 359.35 -1.30925 1.35056 0
M  V30 3701 O 358.708 -1.76733 0.404365 0
M  V30 3702 C 358.756 -0.302074 3.59333 0
M  V30 3703 O 357.86 -1.37868 3.88672 0
M  V30 3704 H 357.201 0.0219956 0.663636 0
M  V30 3705 H 359.731 0.688352 1.92673 0
M  V30 3706 H 359.741 -0.536464 4.04458 0
M  V30 3707 H 358.416 0.61383 4.11345 0
M  V30 3708 H 356.993 -1.12999 3.55367 0
M  V30 3709 N 359.178 -1.55987 0.224894 0
M  V30 3710 C 360.108 -2.23426 -0.678457 0
M  V30 3711 C 361.089 -1.20709 -1.19847 0
M  V30 3712 O 362.274 -1.49304 -1.24186 0
M  V30 3713 C 359.404 -2.91676 -1.88527 0
M  V30 3714 C 358.358 -4.00893 -1.49896 0
M  V30 3715 C 357.684 -4.56455 -2.78483 0
M  V30 3716 C 358.984 -5.17769 -0.686461 0
M  V30 3717 H 360.678 -2.99175 -0.116173 0
M  V30 3718 H 358.224 -1.43897 -0.054436 0
M  V30 3719 H 360.177 -3.37547 -2.5227 0
M  V30 3720 H 358.901 -2.1338 -2.47258 0
M  V30 3721 H 357.56 -3.55758 -0.884985 0
M  V30 3722 H 357.208 -3.74886 -3.35365 0
M  V30 3723 H 356.908 -5.30169 -2.53368 0
M  V30 3724 H 358.432 -5.05047 -3.43162 0
M  V30 3725 H 359.846 -5.60001 -1.22767 0
M  V30 3726 H 358.243 -5.97735 -0.532259 0
M  V30 3727 H 359.313 -4.83932 0.306196 0
M  V30 3728 N 360.656 0.0484629 -1.57525 0
M  V30 3729 C 361.884 0.755421 -1.92616 0
M  V30 3730 C 362.299 1.69919 -0.822984 0
M  V30 3731 O 361.656 1.81378 0.202085 0
M  V30 3732 C 361.707 1.52915 -3.27566 0
M  V30 3733 O 361.428 0.62329 -4.33644 0
M  V30 3734 C 362.929 2.33502 -3.76818 0
M  V30 3735 H 360.149 0.213465 -0.63614 0
M  V30 3736 H 362.693 0.0117698 -2.04497 0
M  V30 3737 H 360.848 2.22486 -3.17142 0
M  V30 3738 H 361.262 1.16383 -5.11425 0
M  V30 3739 H 362.736 2.83214 -4.73808 0
M  V30 3740 H 363.213 3.14068 -3.07014 0
M  V30 3741 H 363.819 1.69043 -3.90262 0
M  V30 3742 N 362.134 1.5431 0.320358 0
M  V30 3743 C 363.382 1.72327 1.05583 0
M  V30 3744 C 363.703 0.50149 1.88441 0
M  V30 3745 O 362.973 -0.48448 1.89815 0
M  V30 3746 H 361.553 0.635387 0.3928 0
M  V30 3747 H 364.215 1.91621 0.356019 0
M  V30 3748 H 363.311 2.60426 1.72003 0
M  V30 3749 N 363.613 -0.582584 1.46437 0
M  V30 3750 C 364.523 -1.71949 1.59595 0
M  V30 3751 C 365.539 -1.67264 0.479443 0
M  V30 3752 O 366.715 -1.87171 0.743579 0
M  V30 3753 C 363.78 -3.08452 1.58298 0
M  V30 3754 C 362.841 -3.244 2.81182 0
M  V30 3755 C 362.074 -4.54391 2.79937 0
M  V30 3756 O 362.297 -5.38287 1.8869 0
M  V30 3757 O 361.231 -4.73588 3.71481 0
M  V30 3758 H 365.057 -1.63795 2.55744 0
M  V30 3759 H 362.642 -0.749643 1.29231 0
M  V30 3760 H 364.524 -3.89732 1.60271 0
M  V30 3761 H 363.199 -3.17043 0.653094 0
M  V30 3762 H 362.106 -2.42613 2.84763 0
M  V30 3763 H 363.439 -3.20699 3.7338 0
M  V30 3764 N 365.091 -1.34144 -0.827227 0
M  V30 3765 C 366.316 -1.29476 -1.62021 0
M  V30 3766 C 366.741 0.129292 -1.87655 0
M  V30 3767 O 366.099 1.08967 -1.449 0
M  V30 3768 C 366.147 -2.08702 -2.94068 0
M  V30 3769 O 365.251 -1.45359 -3.85933 0
M  V30 3770 H 364.592 -0.444881 -0.492927 0
M  V30 3771 H 367.122 -1.76882 -1.02829 0
M  V30 3772 H 367.132 -2.19898 -3.43669 0
M  V30 3773 H 365.807 -3.12241 -2.74734 0
M  V30 3774 H 364.384 -1.42879 -3.44442 0
M  V30 3775 N 366.569 1.04691 -1.17803 0
M  V30 3776 C 367.846 1.7472 -0.879328 0
M  V30 3777 C 368.226 2.01812 0.619271 0
M  V30 3778 O 367.574 1.65824 1.57209 0
M  V30 3779 C 367.784 3.03686 -1.71976 0
M  V30 3780 C 369.132 3.77542 -1.94286 0
M  V30 3781 O 370.156 3.13569 -1.68976 0
M  V30 3782 O 369.015 4.92506 -2.36855 0
M  V30 3783 H 366.109 0.760011 -0.326056 0
M  V30 3784 H 368.655 1.10813 -1.28525 0
M  V30 3785 H 367.427 2.79754 -2.73594 0
M  V30 3786 H 367.05 3.75332 -1.31194 0
M  V30 3787 N 368.047 0.979072 1.23499 0
M  V30 3788 C 368.997 0.489378 2.22686 0
M  V30 3789 C 369.981 -0.434871 1.54912 0
M  V30 3790 O 371.173 -0.263941 1.75021 0
M  V30 3791 C 368.302 -0.208178 3.42668 0
M  V30 3792 C 367.388 0.735563 4.17672 0
M  V30 3793 N 367.779 1.87763 4.69658 0
M  V30 3794 C 366.077 0.548625 4.42613 0
M  V30 3795 C 366.778 2.46886 5.26709 0
M  V30 3796 N 365.754 1.75287 5.14563 0
M  V30 3797 H 369.556 1.36062 2.60508 0
M  V30 3798 H 367.07 0.83958 1.39014 0
M  V30 3799 H 369.067 -0.576295 4.12898 0
M  V30 3800 H 367.727 -1.07572 3.06363 0
M  V30 3801 H 368.738 2.25885 4.66043 0
M  V30 3802 H 365.415 -0.274006 4.166 0
M  V30 3803 H 366.805 3.43326 5.77561 0
M  V30 3804 N 369.525 -1.3858 0.750561 0
M  V30 3805 C 370.771 -2.00481 0.305825 0
M  V30 3806 C 371.104 -1.5944 -1.10872 0
M  V30 3807 O 370.379 -0.83052 -1.75877 0
M  V30 3808 C 370.662 -3.5758 0.425287 0
M  V30 3809 C 370.515 -4.08594 1.88072 0
M  V30 3810 C 371.834 -4.39719 -0.183122 0
M  V30 3811 H 368.953 -0.728348 0.112598 0
M  V30 3812 H 371.595 -1.64566 0.949638 0
M  V30 3813 H 369.745 -3.88306 -0.122828 0
M  V30 3814 H 371.417 -3.88523 2.48691 0
M  V30 3815 H 369.66 -3.61574 2.39681 0
M  V30 3816 H 370.331 -5.177 1.91548 0
M  V30 3817 H 372.807 -4.15128 0.284303 0
M  V30 3818 H 371.683 -5.48856 -0.0692757 0
M  V30 3819 H 371.944 -4.23434 -1.27106 0
M  V30 3820 N 371.003 -0.499398 -1.49478 0
M  V30 3821 C 372.419 -0.155261 -1.58843 0
M  V30 3822 C 372.619 1.34008 -1.50479 0
M  V30 3823 O 371.675 2.11589 -1.37791 0
M  V30 3824 C 372.988 -0.730636 -2.91689 0
M  V30 3825 C 374.536 -0.696599 -3.0515 0
M  V30 3826 C 375.011 -1.25001 -4.40612 0
M  V30 3827 N 376.502 -1.21064 -4.47099 0
M  V30 3828 C 377.237 -1.60905 -5.50361 0
M  V30 3829 N 376.733 -2.08331 -6.60735 0
M  V30 3830 N 378.526 -1.52331 -5.41065 0
M  V30 3831 H 370.677 -1.47162 -1.53158 0
M  V30 3832 H 372.94 -0.610309 -0.725415 0
M  V30 3833 H 372.646 -1.77928 -3.03372 0
M  V30 3834 H 372.52 -0.190161 -3.7672 0
M  V30 3835 H 374.907 0.343204 -2.93097 0
M  V30 3836 H 374.988 -1.2742 -2.21806 0
M  V30 3837 H 374.632 -2.28859 -4.53416 0
M  V30 3838 H 374.562 -0.64836 -5.22593 0
M  V30 3839 H 377.053 -0.863128 -3.67911 0
M  V30 3840 H 377.366 -2.36805 -7.35624 0
M  V30 3841 H 375.711 -2.12304 -6.6178 0
M  V30 3842 H 378.902 -1.151 -4.53729 0
M  V30 3843 H 379.075 -1.83704 -6.21415 0
M  V30 3844 N 372.481 1.55866 -0.233164 0
M  V30 3845 C 373.428 2.20796 0.67215 0
M  V30 3846 C 374.398 1.16731 1.18166 0
M  V30 3847 O 375.583 1.45129 1.23864 0
M  V30 3848 C 372.723 2.90072 1.86955 0
M  V30 3849 C 371.836 4.08759 1.39786 0
M  V30 3850 C 370.971 4.65787 2.55374 0
M  V30 3851 C 370.01 5.76752 2.04998 0
M  V30 3852 N 369.147 6.28021 3.13901 0
M  V30 3853 H 373.987 2.9779 0.111749 0
M  V30 3854 H 371.524 1.47036 0.0434007 0
M  V30 3855 H 373.482 3.28428 2.57276 0
M  V30 3856 H 372.112 2.15575 2.40265 0
M  V30 3857 H 371.164 3.7581 0.589173 0
M  V30 3858 H 372.476 4.88906 0.98856 0
M  V30 3859 H 371.63 5.06646 3.33758 0
M  V30 3860 H 370.369 3.84828 2.99598 0
M  V30 3861 H 369.374 5.35383 1.25079 0
M  V30 3862 H 370.599 6.59553 1.61759 0
M  V30 3863 H 368.545 5.49971 3.57586 0
M  V30 3864 H 368.462 7.03323 2.7726 0
M  V30 3865 H 369.73 6.73538 3.92386 0
M  V30 3866 N 373.959 -0.0401083 1.57549 0
M  V30 3867 C 375.184 -0.748931 1.93406 0
M  V30 3868 C 375.609 -1.68686 0.832274 0
M  V30 3869 O 374.967 -1.80047 -0.212818 0
M  V30 3870 C 375.015 -1.4916 3.28304 0
M  V30 3871 O 374.119 -2.6042 3.19774 0
M  V30 3872 H 373.46 -0.202212 0.63246 0
M  V30 3873 H 375.99 0.00112086 2.046 0
M  V30 3874 H 376 -1.86395 3.62934 0
M  V30 3875 H 374.675 -0.80364 4.08062 0
M  V30 3876 H 373.252 -2.25808 2.96758 0
M  V30 3877 N 375.437 -1.54477 -0.31217 0
M  V30 3878 C 376.4 -1.83923 -1.36766 0
M  V30 3879 C 377.4 -0.711563 -1.44199 0
M  V30 3880 O 378.59 -0.979866 -1.44029 0
M  V30 3881 C 375.722 -2.0095 -2.75376 0
M  V30 3882 H 376.915 -2.78239 -1.11906 0
M  V30 3883 H 374.468 -1.46369 -0.548257 0
M  V30 3884 H 375.203 -1.08883 -3.05475 0
M  V30 3885 H 374.988 -2.83018 -2.71373 0
M  V30 3886 H 376.478 -2.2514 -3.51713 0
M  V30 3887 N 376.915 0.57481 -1.46744 0
M  V30 3888 C 378.192 1.3352 -1.4294 0
M  V30 3889 C 378.572 2.10775 -0.117009 0
M  V30 3890 O 377.92 2.09966 0.901474 0
M  V30 3891 C 378.13 2.25456 -2.66403 0
M  V30 3892 C 379.478 2.87035 -3.12883 0
M  V30 3893 O 380.502 2.35766 -2.67007 0
M  V30 3894 O 379.361 3.80179 -3.92589 0
M  V30 3895 H 376.455 0.600318 -0.568812 0
M  V30 3896 H 379.001 0.595171 -1.58921 0
M  V30 3897 H 377.773 1.67851 -3.53471 0
M  V30 3898 H 377.396 3.06785 -2.52921 0
M  V30 3899 N 378.394 1.34581 0.820102 0
M  V30 3900 C 379.341 1.2639 1.93117 0
M  V30 3901 C 380.311 0.138554 1.65521 0
M  V30 3902 O 381.496 0.320004 1.88097 0
M  V30 3903 C 378.636 1.02812 3.29429 0
M  V30 3904 C 377.749 2.24146 3.693 0
M  V30 3905 C 376.884 1.93829 4.94574 0
M  V30 3906 C 375.923 3.1129 5.27034 0
M  V30 3907 N 375.06 2.80838 6.43486 0
M  V30 3908 H 379.9 2.21408 1.99455 0
M  V30 3909 H 377.437 1.10077 0.975784 0
M  V30 3910 H 379.395 0.871788 4.0799 0
M  V30 3911 H 378.025 0.114612 3.22596 0
M  V30 3912 H 377.077 2.50691 2.86109 0
M  V30 3913 H 378.389 3.11899 3.89257 0
M  V30 3914 H 377.543 1.74948 5.80929 0
M  V30 3915 H 376.282 1.03341 4.76626 0
M  V30 3916 H 375.287 3.30764 4.39175 0
M  V30 3917 H 376.512 4.02561 5.4692 0
M  V30 3918 H 374.458 1.92929 6.26988 0
M  V30 3919 H 374.375 3.62123 6.63629 0
M  V30 3920 H 375.643 2.65467 7.32903 0
M  V30 3921 N 379.872 -1.04064 1.18357 0
M  V30 3922 C 381.149 -1.74252 0.888581 0
M  V30 3923 C 381.529 -2.02138 -0.60856 0
M  V30 3924 O 380.877 -1.66656 -1.56327 0
M  V30 3925 C 381.087 -3.0277 1.73584 0
M  V30 3926 C 382.435 -3.76506 1.96286 0
M  V30 3927 O 383.459 -3.12668 1.70637 0
M  V30 3928 O 382.318 -4.91243 2.39464 0
M  V30 3929 H 379.412 -0.758271 0.330082 0
M  V30 3930 H 381.958 -1.1013 1.2911 0
M  V30 3931 H 380.73 -2.78299 2.75073 0
M  V30 3932 H 380.353 -3.74631 1.33183 0
M  V30 3933 N 381.35 -0.985608 -1.22978 0
M  V30 3934 C 382.761 -0.693593 -1.73338 0
M  V30 3935 C 383.112 0.789935 -1.79595 0
M  V30 3936 O 382.237 1.61771 -1.43733 0
M  V30 3937 C 382.832 -1.25235 -3.14804 0
M  V30 3938 C 381.391 -1.00987 -3.626 0
M  V30 3939 C 380.538 -1.37695 -2.40698 0
M  V30 3940 H 383.489 -1.15884 -1.08428 0
M  V30 3941 H 383.51 -0.627329 -3.75293 0
M  V30 3942 H 383.022 -2.33209 -3.10218 0
M  V30 3943 H 381.123 0.0535565 -3.72562 0
M  V30 3944 H 381.236 -1.66812 -4.49122 0
M  V30 3945 H 379.6 -0.795459 -2.4196 0
M  V30 3946 H 380.383 -2.46657 -2.38779 0
M  V30 3947 N 382.828 1.3818 -0.7579 0
M  V30 3948 C 383.761 2.28055 -0.0814093 0
M  V30 3949 C 384.739 1.45603 0.723779 0
M  V30 3950 O 385.923 1.74961 0.701491 0
M  V30 3951 C 383.05 3.2676 0.891394 0
M  V30 3952 C 382.096 4.26153 0.171909 0
M  V30 3953 S 382.929 5.23434 -1.13035 0
M  V30 3954 C 384.085 6.25694 -0.160727 0
M  V30 3955 H 384.318 2.85082 -0.84353 0
M  V30 3956 H 381.851 1.44246 -0.550671 0
M  V30 3957 H 383.809 3.8414 1.44731 0
M  V30 3958 H 382.47 2.68706 1.62652 0
M  V30 3959 H 381.663 4.95738 0.908843 0
M  V30 3960 H 381.265 3.72691 -0.312606 0
M  V30 3961 H 383.557 6.74161 0.671773 0
M  V30 3962 H 384.5 7.03285 -0.824353 0
M  V30 3963 H 384.908 5.64064 0.221892 0
M  V30 3964 N 384.306 0.507319 1.49211 0
M  V30 3965 C 385.236 -0.256939 2.32082 0
M  V30 3966 C 386.217 -0.956609 1.40652 0
M  V30 3967 O 387.402 -0.946788 1.69557 0
M  V30 3968 C 384.532 -1.31802 3.21318 0
M  V30 3969 C 383.486 -0.737855 4.21592 0
M  V30 3970 C 382.812 -1.89992 4.99807 0
M  V30 3971 C 384.112 0.275325 5.21574 0
M  V30 3972 H 385.806 0.434798 2.96226 0
M  V30 3973 H 383.352 0.210546 1.42452 0
M  V30 3974 H 385.305 -1.86045 3.78107 0
M  V30 3975 H 384.029 -2.03903 2.5513 0
M  V30 3976 H 382.688 -0.217126 3.65956 0
M  V30 3977 H 382.336 -2.60877 4.30061 0
M  V30 3978 H 382.036 -1.51777 5.6766 0
M  V30 3979 H 383.56 -2.44657 5.59442 0
M  V30 3980 H 384.974 -0.179193 5.7302 0
M  V30 3981 H 383.371 0.573649 5.97352 0
M  V30 3982 H 384.441 1.18903 4.70096 0
M  V30 3983 N 385.784 -1.5574 0.241426 0
M  V30 3984 C 386.714 -2.24133 -0.654722 0
M  V30 3985 C 387.695 -1.21974 -1.1856 0
M  V30 3986 O 388.88 -1.50612 -1.22595 0
M  V30 3987 C 386.01 -2.93659 -1.85423 0
M  V30 3988 C 384.964 -4.0246 -1.45636 0
M  V30 3989 C 384.29 -4.59383 -2.73626 0
M  V30 3990 C 385.59 -5.18468 -0.631506 0
M  V30 3991 H 387.284 -2.99281 -0.0844353 0
M  V30 3992 H 384.83 -1.43947 -0.0391707 0
M  V30 3993 H 386.783 -3.40203 -2.48676 0
M  V30 3994 H 385.507 -2.15991 -2.44981 0
M  V30 3995 H 384.166 -3.56676 -0.847202 0
M  V30 3996 H 383.814 -3.78422 -3.3137 0
M  V30 3997 H 383.514 -5.32826 -2.4773 0
M  V30 3998 H 385.038 -5.08658 -3.37786 0
M  V30 3999 H 386.452 -5.61272 -1.1682 0
M  V30 4000 H 384.849 -5.98266 -0.468831 0
M  V30 4001 H 385.919 -4.8358 0.357506 0
M  V30 4002 N 387.262 0.0317525 -1.57568 0
M  V30 4003 C 388.487 0.738664 -1.938 0
M  V30 4004 C 388.912 1.68242 -0.841208 0
M  V30 4005 O 388.27 1.80157 0.203267 0
M  V30 4006 C 388.318 1.47417 -3.29091 0
M  V30 4007 O 387.422 2.5872 -3.2115 0
M  V30 4008 H 386.763 0.198856 -0.633524 0
M  V30 4009 H 389.293 -0.0119713 -2.04596 0
M  V30 4010 H 389.303 1.84468 -3.63917 0
M  V30 4011 H 387.978 0.781988 -4.08482 0
M  V30 4012 H 386.555 2.24231 -2.97951 0
M  V30 4013 N 388.74 1.54641 0.303973 0
M  V30 4014 C 389.988 1.73437 1.0375 0
M  V30 4015 C 390.309 0.521449 1.87899 0
M  V30 4016 O 389.579 -0.46432 1.90318 0
M  V30 4017 H 388.159 0.639518 0.386039 0
M  V30 4018 H 390.821 1.91988 0.335675 0
M  V30 4019 H 389.917 2.62235 1.69231 0
M  V30 4020 N 390.218 -0.567019 1.47046 0
M  V30 4021 C 391.446 -1.35027 1.56765 0
M  V30 4022 C 391.861 -1.8758 0.214316 0
M  V30 4023 O 391.218 -1.64471 -0.790919 0
M  V30 4024 C 391.269 -2.52698 2.58507 0
M  V30 4025 O 390.99 -2.0232 3.88585 0
M  V30 4026 C 392.491 -3.45043 2.78316 0
M  V30 4027 H 389.711 -0.41195 0.529658 0
M  V30 4028 H 392.255 -0.687832 1.92585 0
M  V30 4029 H 390.41 -3.149 2.25648 0
M  V30 4030 H 390.824 -2.79068 4.44096 0
M  V30 4031 H 392.298 -4.2405 3.53391 0
M  V30 4032 H 392.775 -3.97971 1.85784 0
M  V30 4033 H 393.381 -2.88665 3.12334 0
M  V30 4034 N 391.696 -1.35014 -0.812953 0
M  V30 4035 C 392.646 -1.23959 -1.91359 0
M  V30 4036 C 393.63 -0.136306 -1.60322 0
M  V30 4037 O 394.822 -0.366925 -1.73155 0
M  V30 4038 C 391.951 -1.00736 -3.28188 0
M  V30 4039 C 391.037 -2.15426 -3.65311 0
M  V30 4040 N 391.428 -3.40612 -3.73921 0
M  V30 4041 C 389.726 -2.06672 -3.95225 0
M  V30 4042 C 390.427 -4.15994 -4.06601 0
M  V30 4043 N 389.403 -3.44685 -4.20349 0
M  V30 4044 H 393.205 -2.18815 -1.96208 0
M  V30 4045 H 390.719 -1.27395 -1.00718 0
M  V30 4046 H 392.716 -0.909052 -4.06868 0
M  V30 4047 H 391.376 -0.067586 -3.2463 0
M  V30 4048 H 392.387 -3.75043 -3.5716 0
M  V30 4049 H 389.064 -1.20511 -3.99729 0
M  V30 4050 H 390.454 -5.24145 -4.20382 0
M  V30 4051 N 393.175 1.03435 -1.18907 0
M  V30 4052 C 394.421 1.77005 -0.989798 0
M  V30 4053 C 394.754 1.88205 0.478816 0
M  V30 4054 O 394.029 1.39481 1.35556 0
M  V30 4055 C 394.312 3.19925 -1.65287 0
M  V30 4056 C 394.165 3.1663 -3.19477 0
M  V30 4057 C 395.484 4.18189 -1.37134 0
M  V30 4058 H 392.603 0.642538 -0.360991 0
M  V30 4059 H 395.245 1.20784 -1.46667 0
M  V30 4060 H 393.395 3.67929 -1.24741 0
M  V30 4061 H 395.067 2.76567 -3.692 0
M  V30 4062 H 393.31 2.54491 -3.51307 0
M  V30 4063 H 393.981 4.1758 -3.61013 0
M  V30 4064 H 396.457 3.78761 -1.72276 0
M  V30 4065 H 395.333 5.16394 -1.86087 0
M  V30 4066 H 395.594 4.41112 -0.295424 0
M  V30 4067 N 394.653 0.992116 1.22453 0
M  V30 4068 C 395.586 0.486701 2.22949 0
M  V30 4069 C 396.564 -0.45259 1.56174 0
M  V30 4070 O 397.748 -0.378317 1.84665 0
M  V30 4071 C 394.875 -0.294537 3.37417 0
M  V30 4072 C 393.921 0.590628 4.22391 0
M  V30 4073 S 394.754 2.04546 4.94895 0
M  V30 4074 C 395.91 1.27369 6.12803 0
M  V30 4075 H 396.143 1.33828 2.65475 0
M  V30 4076 H 393.676 0.799023 1.32117 0
M  V30 4077 H 395.634 -0.739241 4.03789 0
M  V30 4078 H 394.295 -1.12139 2.934 0
M  V30 4079 H 393.488 -0.0104375 5.03999 0
M  V30 4080 H 393.09 0.972064 3.61147 0
M  V30 4081 H 395.382 0.540943 6.75337 0
M  V30 4082 H 396.325 2.06502 6.7732 0
M  V30 4083 H 396.733 0.787324 5.58983 0
M  V30 4084 N 396.131 -1.37776 0.765217 0
M  V30 4085 C 397.041 -2.34135 0.147666 0
M  V30 4086 C 398.057 -1.59854 -0.687215 0
M  V30 4087 O 399.233 -1.91983 -0.608659 0
M  V30 4088 C 396.298 -3.3901 -0.72617 0
M  V30 4089 C 395.359 -4.2912 0.124417 0
M  V30 4090 C 394.592 -5.28986 -0.707807 0
M  V30 4091 O 394.815 -5.36205 -1.94525 0
M  V30 4092 O 393.749 -6.01779 -0.12046 0
M  V30 4093 H 397.575 -2.88664 0.943758 0
M  V30 4094 H 395.16 -1.39824 0.526277 0
M  V30 4095 H 397.042 -4.03195 -1.22524 0
M  V30 4096 H 395.717 -2.86819 -1.50056 0
M  V30 4097 H 394.624 -3.68057 0.669696 0
M  V30 4098 H 395.957 -4.84598 0.861736 0
M  V30 4099 N 397.609 -0.515225 -1.4894 0
M  V30 4100 C 398.857 0.0241671 -2.02086 0
M  V30 4101 C 399.178 1.3616 -1.3959 0
M  V30 4102 O 398.448 1.87841 -0.556121 0
M  V30 4103 H 397.028 0.0119203 -0.746905 0
M  V30 4104 H 399.69 -0.675702 -1.82812 0
M  V30 4105 H 398.786 0.143385 -3.1177 0
M  V30 4106 N 399.087 1.5561 -0.249682 0
M  V30 4107 C 400.312 2.03865 0.381305 0
M  V30 4108 C 400.737 1.12769 1.50548 0
M  V30 4109 O 400.095 0.121189 1.80895 0
M  V30 4110 C 400.143 3.50101 0.863816 0
M  V30 4111 O 399.247 3.62132 1.97318 0
M  V30 4112 H 398.588 0.658827 0.0827194 0
M  V30 4113 H 401.118 2.01105 -0.376552 0
M  V30 4114 H 401.128 3.90975 1.1663 0
M  V30 4115 H 399.803 4.1588 0.0411816 0
M  V30 4116 H 398.38 3.33155 1.67517 0
M  V30 4117 N 400.565 -0.0233959 1.57583 0
M  V30 4118 C 401.813 -0.711654 1.89156 0
M  V30 4119 C 402.134 -1.75591 0.848096 0
M  V30 4120 O 401.404 -1.95547 -0.117566 0
M  V30 4121 H 399.984 -0.265835 0.698098 0
M  V30 4122 H 402.646 0.0119948 1.94896 0
M  V30 4123 H 401.742 -1.19766 2.88206 0
M  V30 4124 N 402.043 -1.548 -0.295768 0
M  V30 4125 C 403.459 -1.4613 -0.641722 0
M  V30 4126 C 403.659 -0.656771 -1.90496 0
M  V30 4127 O 402.715 -0.166547 -2.5195 0
M  V30 4128 C 404.028 -2.90141 -0.789852 0
M  V30 4129 C 405.576 -3.00216 -0.885396 0
M  V30 4130 C 406.051 -4.45434 -1.06548 0
M  V30 4131 N 407.542 -4.49166 -1.13156 0
M  V30 4132 C 408.277 -5.58717 -1.28929 0
M  V30 4133 N 407.773 -6.78182 -1.41567 0
M  V30 4134 N 409.566 -5.46415 -1.31859 0
M  V30 4135 H 401.717 -2.05574 0.534147 0
M  V30 4136 H 403.98 -0.931259 0.177372 0
M  V30 4137 H 403.686 -3.51635 0.0675598 0
M  V30 4138 H 403.56 -3.37859 -1.67724 0
M  V30 4139 H 405.947 -2.38833 -1.73329 0
M  V30 4140 H 406.028 -2.55787 0.0261185 0
M  V30 4141 H 405.672 -5.07413 -0.222335 0
M  V30 4142 H 405.602 -4.87499 -1.9913 0
M  V30 4143 H 408.093 -3.631 -1.04721 0
M  V30 4144 H 408.406 -7.57428 -1.53372 0
M  V30 4145 H 406.751 -6.81037 -1.38613 0
M  V30 4146 H 409.942 -4.5203 -1.21601 0
M  V30 4147 H 410.115 -6.31841 -1.43808 0
M  V30 4148 N 403.521 0.559213 -1.47345 0
M  V30 4149 C 404.454 1.68201 -1.5422 0
M  V30 4150 C 405.432 1.57742 -0.394497 0
M  V30 4151 O 406.616 1.78628 -0.60201 0
M  V30 4152 C 403.743 3.0643 -1.44285 0
M  V30 4153 C 402.789 3.3534 -2.63532 0
M  V30 4154 S 403.622 3.24816 -4.25741 0
M  V30 4155 C 404.778 4.65542 -4.18355 0
M  V30 4156 H 405.011 1.62114 -2.49211 0
M  V30 4157 H 402.544 0.739871 -1.35519 0
M  V30 4158 H 404.502 3.86164 -1.3924 0
M  V30 4159 H 403.163 3.09984 -0.506816 0
M  V30 4160 H 402.356 4.36107 -2.52639 0
M  V30 4161 H 401.958 2.63221 -2.65689 0
M  V30 4162 H 404.25 5.56449 -3.86485 0
M  V30 4163 H 405.193 4.81493 -5.19202 0
M  V30 4164 H 405.601 4.43495 -3.49246 0
M  V30 4165 N 404.999 1.35443 0.805782 0
M  V30 4166 C 406.245 1.28952 1.56522 0
M  V30 4167 C 406.578 -0.135597 1.93726 0
M  V30 4168 O 405.853 -1.08516 1.61414 0
M  V30 4169 C 406.136 2.19678 2.85331 0
M  V30 4170 C 405.989 3.7081 2.54598 0
M  V30 4171 C 407.308 2.09495 3.8704 0
M  V30 4172 H 404.427 0.469764 0.567883 0
M  V30 4173 H 407.069 1.65851 0.927001 0
M  V30 4174 H 405.219 1.8834 3.39795 0
M  V30 4175 H 406.891 4.12593 2.06312 0
M  V30 4176 H 405.134 3.91051 1.8778 0
M  V30 4177 H 405.805 4.29679 3.46525 0
M  V30 4178 H 408.281 2.37045 3.41978 0
M  V30 4179 H 407.157 2.75173 4.74943 0
M  V30 4180 H 407.418 1.07714 4.28777 0
M  V30 4181 N 406.477 -1.02803 1.19454 0
M  V30 4182 C 407.723 -1.76478 0.999171 0
M  V30 4183 C 408.056 -1.88456 -0.468828 0
M  V30 4184 O 407.331 -1.40198 -1.34814 0
M  V30 4185 C 407.614 -3.19044 1.66981 0
M  V30 4186 C 407.467 -3.14932 3.21151 0
M  V30 4187 C 408.786 -4.17456 1.39349 0
M  V30 4188 H 405.905 -0.640614 0.364393 0
M  V30 4189 H 408.547 -1.20005 1.47305 0
M  V30 4190 H 406.697 -3.67263 1.2669 0
M  V30 4191 H 408.369 -2.74605 3.70661 0
M  V30 4192 H 406.612 -2.52625 3.52652 0
M  V30 4193 H 407.283 -4.1566 3.63223 0
M  V30 4194 H 409.759 -3.77842 1.74283 0
M  V30 4195 H 408.635 -5.154 1.88823 0
M  V30 4196 H 408.896 -4.40949 0.318813 0
M  V30 4197 N 407.956 -0.998596 -1.21925 0
M  V30 4198 C 409.184 -0.696286 -1.94832 0
M  V30 4199 C 409.599 0.740032 -1.73692 0
M  V30 4200 O 408.956 1.5 -1.03953 0
M  V30 4201 C 409.007 -0.999833 -3.47398 0
M  V30 4202 O 408.728 -2.37972 -3.67833 0
M  V30 4203 C 410.229 -0.716025 -4.37479 0
M  V30 4204 H 407.449 -0.257111 -0.619786 0
M  V30 4205 H 409.993 -1.33491 -1.54921 0
M  V30 4206 H 408.148 -0.406918 -3.85257 0
M  V30 4207 H 408.562 -2.48338 -4.61983 0
M  V30 4208 H 410.036 -0.978642 -5.43256 0
M  V30 4209 H 410.513 0.349968 -4.37803 0
M  V30 4210 H 411.119 -1.29025 -4.05256 0
M  V30 4211 N 409.434 1.37368 -0.772513 0
M  V30 4212 C 410.397 2.28601 -0.165541 0
M  V30 4213 C 411.397 1.48062 0.627238 0
M  V30 4214 O 412.587 1.68268 0.450715 0
M  V30 4215 C 409.719 3.32023 0.772897 0
M  V30 4216 H 410.912 2.83787 -0.969787 0
M  V30 4217 H 408.465 1.46647 -0.540775 0
M  V30 4218 H 409.2 2.81962 1.60212 0
M  V30 4219 H 408.985 3.91555 0.206585 0
M  V30 4220 H 410.475 4.00197 1.19298 0
M  V30 4221 N 410.912 0.523116 1.48665 0
M  V30 4222 C 412.158 -0.0134963 2.02796 0
M  V30 4223 C 412.491 -1.34582 1.40004 0
M  V30 4224 O 411.766 -1.86756 0.543381 0
M  V30 4225 C 412.049 -0.14276 3.59817 0
M  V30 4226 C 411.902 1.21425 4.331 0
M  V30 4227 C 413.221 -0.872856 4.31357 0
M  V30 4228 H 410.34 -0.00343074 0.736992 0
M  V30 4229 H 412.982 0.678816 1.7746 0
M  V30 4230 H 411.132 -0.732401 3.81534 0
M  V30 4231 H 412.804 1.84447 4.2282 0
M  V30 4232 H 411.047 1.79791 3.94788 0
M  V30 4233 H 411.718 1.07687 5.41394 0
M  V30 4234 H 414.194 -0.372555 4.14429 0
M  V30 4235 H 413.07 -0.932185 5.40927 0
M  V30 4236 H 413.331 -1.92161 3.98154 0
M  V30 4237 N 412.39 -1.55475 0.257931 0
M  V30 4238 C 413.638 -1.98813 -0.363009 0
M  V30 4239 C 413.959 -1.14757 -1.57657 0
M  V30 4240 O 413.229 -0.232956 -1.9451 0
M  V30 4241 H 411.809 -0.734308 -0.137113 0
M  V30 4242 H 414.471 -1.9156 0.359281 0
M  V30 4243 H 413.567 -3.04941 -0.664634 0
M  V30 4244 N 413.868 0.0150385 -1.57593 0
M  V30 4245 C 415.114 0.704043 -1.90187 0
M  V30 4246 C 415.447 1.74249 -0.857366 0
M  V30 4247 O 414.722 1.94092 0.125843 0
M  V30 4248 C 415.005 1.36087 -3.33395 0
M  V30 4249 C 414.858 0.334981 -4.48551 0
M  V30 4250 C 416.177 2.29112 -3.7576 0
M  V30 4251 H 413.296 0.254475 -0.691673 0
M  V30 4252 H 415.938 -0.0331678 -1.89971 0
M  V30 4253 H 414.088 1.98922 -3.3371 0
M  V30 4254 H 415.76 -0.292534 -4.60372 0
M  V30 4255 H 414.003 -0.344325 -4.32431 0
M  V30 4256 H 414.674 0.833316 -5.45674 0
M  V30 4257 H 417.15 1.76308 -3.76902 0
M  V30 4258 H 416.026 2.72043 -4.76743 0
M  V30 4259 H 416.287 3.16385 -3.08793 0
M  V30 4260 N 415.346 1.54954 0.287554 0
M  V30 4261 C 416.294 1.87606 1.37502 0
M  V30 4262 C 417.288 0.751001 1.51843 0
M  V30 4263 O 418.494 0.935169 1.53801 0
M  V30 4264 H 414.869 0.595231 0.459569 0
M  V30 4265 H 416.84 2.78477 1.07206 0
M  V30 4266 C 415.589 2.15183 2.73115 0
M  V30 4267 H 414.912 3.01234 2.62866 0
M  V30 4268 H 416.352 2.4196 3.48183 0
M  V30 4269 C 414.811 0.954686 3.2309 0
M  V30 4270 O 415.341 0.181949 4.01288 0
M  V30 4271 N 413.547 0.756368 2.80584 0
M  V30 4272 H 413.094 1.38643 2.17108 0
M  V30 4273 H 413.052 -0.0430391 3.14371 0
M  V30 4274 N 416.824 -0.551391 1.4764 0
M  V30 4275 C 418.049 -1.33837 1.58437 0
M  V30 4276 C 418.474 -1.866 0.237063 0
M  V30 4277 O 417.832 -1.6328 -0.787994 0
M  V30 4278 C 417.88 -2.48014 2.61766 0
M  V30 4279 O 416.984 -3.50419 2.1744 0
M  V30 4280 H 416.325 -0.397299 0.532024 0
M  V30 4281 H 418.855 -0.665759 1.93465 0
M  V30 4282 H 418.865 -2.94503 2.82369 0
M  V30 4283 H 417.54 -2.08969 3.5959 0
M  V30 4284 H 416.117 -3.10196 2.06961 0
M  V30 4285 N 418.302 -1.35869 -0.798587 0
M  V30 4286 C 419.234 -1.25305 -1.91915 0
M  V30 4287 C 420.247 -0.174548 -1.61862 0
M  V30 4288 O 421.436 -0.428499 -1.73281 0
M  V30 4289 C 418.536 -0.9086 -3.26493 0
M  V30 4290 C 417.709 -2.08711 -3.84394 0
M  V30 4291 C 416.768 -1.71717 -4.97393 0
M  V30 4292 O 415.794 -2.43692 -5.14396 0
M  V30 4293 N 416.996 -0.645473 -5.769 0
M  V30 4294 H 419.761 -2.21849 -2.01502 0
M  V30 4295 H 417.322 -1.29143 -0.976408 0
M  V30 4296 H 419.314 -0.642455 -3.99568 0
M  V30 4297 H 417.884 -0.0325815 -3.12583 0
M  V30 4298 H 417.104 -2.51659 -3.03416 0
M  V30 4299 H 418.392 -2.87468 -4.19809 0
M  V30 4300 H 417.79 -0.047648 -5.6568 0
M  V30 4301 H 416.347 -0.43913 -6.50319 0
M  V30 4302 N 419.78 1.02168 -1.19998 0
M  V30 4303 C 421.008 1.79296 -1.03249 0
M  V30 4304 C 421.423 1.84103 0.418502 0
M  V30 4305 O 420.78 1.29031 1.29063 0
M  V30 4306 C 420.831 3.24007 -1.60319 0
M  V30 4307 O 420.552 3.19512 -2.99739 0
M  V30 4308 C 422.053 4.17704 -1.48453 0
M  V30 4309 H 419.273 0.564016 -0.363493 0
M  V30 4310 H 421.817 1.28639 -1.58973 0
M  V30 4311 H 419.972 3.7183 -1.08727 0
M  V30 4312 H 420.386 4.10306 -3.26725 0
M  V30 4313 H 421.86 5.17104 -1.93153 0
M  V30 4314 H 422.337 4.37029 -0.436193 0
M  V30 4315 H 422.943 3.7576 -1.99211 0
M  V30 4316 N 421.258 1.00505 1.21394 0
M  V30 4317 C 422.506 0.686415 1.90086 0
M  V30 4318 C 422.827 -0.785264 1.7849 0
M  V30 4319 O 422.097 -1.56387 1.17983 0
M  V30 4320 H 420.677 0.2509 0.703604 0
M  V30 4321 H 423.339 1.27417 1.47482 0
M  V30 4322 H 422.435 0.959621 2.96981 0
M  V30 4323 N 422.737 -1.36956 0.779787 0
M  V30 4324 C 423.986 -1.98738 0.344405 0
M  V30 4325 C 424.299 -1.62596 -1.08728 0
M  V30 4326 O 425.505 -2.1754 -1.62445 0
M  V30 4327 C 423.961 -3.5544 0.564829 0
M  V30 4328 C 423.569 -4.00514 2.0073 0
M  V30 4329 C 425.313 -4.24059 0.193471 0
M  V30 4330 C 423.22 -5.49957 2.17489 0
M  V30 4331 H 422.15 -0.743561 0.12503 0
M  V30 4332 H 424.801 -1.56381 0.960057 0
M  V30 4333 H 423.183 -3.95817 -0.120397 0
M  V30 4334 H 424.357 -3.71362 2.72814 0
M  V30 4335 H 422.672 -3.44703 2.336 0
M  V30 4336 H 425.269 -5.33874 0.297097 0
M  V30 4337 H 425.612 -4.07378 -0.857263 0
M  V30 4338 H 426.145 -3.89012 0.831556 0
M  V30 4339 H 422.884 -5.71574 3.2091 0
M  V30 4340 H 422.404 -5.80767 1.49899 0
M  V30 4341 H 424.083 -6.16043 1.97738 0
M  V30 4342 N 424.215 -0.530993 -1.48385 0
M  V30 4343 C 425.464 0.00474348 -2.01699 0
M  V30 4344 C 425.777 1.35227 -1.41325 0
M  V30 4345 O 426.983 1.97643 -1.86144 0
M  V30 4346 C 425.439 0.0588473 -3.59852 0
M  V30 4347 C 425.047 -1.28385 -4.2921 0
M  V30 4348 C 426.791 0.543358 -4.21008 0
M  V30 4349 C 424.698 -1.19028 -5.79298 0
M  V30 4350 H 423.628 0.00554317 -0.75398 0
M  V30 4351 H 426.279 -0.674924 -1.70637 0
M  V30 4352 H 424.661 0.803612 -3.8776 0
M  V30 4353 H 425.835 -2.04426 -4.12973 0
M  V30 4354 H 424.15 -1.70418 -3.7993 0
M  V30 4355 H 426.747 0.631351 -5.3096 0
M  V30 4356 H 427.09 1.54937 -3.86394 0
M  V30 4357 H 427.623 -0.145754 -3.97533 0
M  V30 4358 H 424.362 -2.17147 -6.18488 0
M  V30 4359 H 423.882 -0.471246 -5.97946 0
M  V30 4360 H 425.561 -0.881365 -6.40969 0
M  V30 4361 N 425.693 1.55336 -0.266172 0
M  V30 4362 C 426.94 1.99397 0.353158 0
M  V30 4363 C 427.268 1.15451 1.56529 0
M  V30 4364 O 426.523 0.209974 1.9457 0
M  V30 4365 C 426.822 3.48606 0.787957 0
M  V30 4366 C 426.488 4.49773 -0.318541 0
M  V30 4367 C 425.15 4.77158 -0.62239 0
M  V30 4368 C 427.502 5.10212 -1.06459 0
M  V30 4369 C 424.83 5.62251 -1.67602 0
M  V30 4370 C 427.182 5.96449 -2.10788 0
M  V30 4371 C 425.846 6.22158 -2.41817 0
M  V30 4372 H 425.116 0.729644 0.12923 0
M  V30 4373 H 427.763 1.87732 -0.37802 0
M  V30 4374 H 426.068 3.57701 1.59866 0
M  V30 4375 H 427.765 3.80098 1.27775 0
M  V30 4376 H 424.355 4.2854 -0.0715925 0
M  V30 4377 H 428.539 4.89086 -0.843098 0
M  V30 4378 H 423.795 5.80419 -1.92155 0
M  V30 4379 H 427.969 6.42317 -2.69076 0
M  V30 4380 H 425.596 6.87888 -3.23596 0
M  V30 4381 N 427.171 -0.0066808 1.57599 0
M  V30 4382 C 428.399 -0.704087 1.94551 0
M  V30 4383 C 428.814 -1.67677 0.867746 0
M  V30 4384 O 428.171 -1.8185 -0.153925 0
M  V30 4385 C 428.222 -1.44177 3.31505 0
M  V30 4386 O 427.943 -0.508097 4.35144 0
M  V30 4387 C 429.444 -2.23429 3.82876 0
M  V30 4388 H 426.664 -0.196523 0.641576 0
M  V30 4389 H 429.208 0.042453 2.04456 0
M  V30 4390 H 427.363 -2.13999 3.22929 0
M  V30 4391 H 427.777 -1.02782 5.14331 0
M  V30 4392 H 429.251 -2.70552 4.8115 0
M  V30 4393 H 429.728 -3.05818 3.15233 0
M  V30 4394 H 430.334 -1.58636 3.94607 0
M  V30 4395 N 428.649 -1.55105 -0.279332 0
M  V30 4396 C 429.579 -1.90557 -1.34945 0
M  V30 4397 C 430.56 -0.766738 -1.51839 0
M  V30 4398 O 431.745 -1.02434 -1.64988 0
M  V30 4399 C 428.875 -2.17193 -2.71006 0
M  V30 4400 C 427.829 -3.33021 -2.68851 0
M  V30 4401 C 427.155 -3.45123 -4.08405 0
M  V30 4402 C 428.455 -4.69578 -2.28678 0
M  V30 4403 H 430.149 -2.80188 -1.05522 0
M  V30 4404 H 427.695 -1.34811 -0.506173 0
M  V30 4405 H 429.648 -2.40581 -3.45975 0
M  V30 4406 H 428.372 -1.24355 -3.01999 0
M  V30 4407 H 427.031 -3.0959 -1.9634 0
M  V30 4408 H 426.679 -2.49762 -4.3661 0
M  V30 4409 H 426.379 -4.22995 -4.07859 0
M  V30 4410 H 427.903 -3.70796 -4.85121 0
M  V30 4411 H 429.317 -4.92553 -2.93368 0
M  V30 4412 H 427.714 -5.5032 -2.39306 0
M  V30 4413 H 428.784 -4.68828 -1.23807 0
M  V30 4414 N 430.127 0.543554 -1.4793 0
M  V30 4415 C 431.057 1.65888 -1.64327 0
M  V30 4416 C 432.038 1.62818 -0.492383 0
M  V30 4417 O 433.223 1.80226 -0.723338 0
M  V30 4418 C 430.353 3.04506 -1.67013 0
M  V30 4419 C 429.307 3.2243 -2.81466 0
M  V30 4420 C 428.633 4.61972 -2.69233 0
M  V30 4421 C 429.933 3.06496 -4.22915 0
M  V30 4422 H 431.627 1.52421 -2.57698 0
M  V30 4423 H 429.173 0.731849 -1.24016 0
M  V30 4424 H 431.126 3.82391 -1.77074 0
M  V30 4425 H 429.85 3.18964 -0.70212 0
M  V30 4426 H 428.509 2.46957 -2.70938 0
M  V30 4427 H 428.157 4.73247 -1.7043 0
M  V30 4428 H 427.857 4.74911 -3.46025 0
M  V30 4429 H 429.381 5.41974 -2.81242 0
M  V30 4430 H 430.795 3.74186 -4.34348 0
M  V30 4431 H 429.192 3.30938 -5.006 0
M  V30 4432 H 430.262 2.03077 -4.40327 0
M  V30 4433 N 431.605 1.3629 0.791371 0
M  V30 4434 C 432.853 1.30154 1.5461 0
M  V30 4435 C 433.174 -0.119409 1.94634 0
M  V30 4436 O 432.444 -1.05924 1.64794 0
M  V30 4437 H 431.024 0.478784 0.573389 0
M  V30 4438 H 433.686 1.70565 0.94306 0
M  V30 4439 H 432.782 1.92762 2.45457 0
M  V30 4440 N 433.083 -1.0153 1.20538 0
M  V30 4441 C 434.046 -2.0826 0.957098 0
M  V30 4442 C 435.046 -1.60657 -0.0678655 0
M  V30 4443 O 436.236 -1.73385 0.168332 0
M  V30 4444 C 433.368 -3.38033 0.441188 0
M  V30 4445 H 434.561 -2.31719 1.90384 0
M  V30 4446 H 432.114 -1.1835 1.02093 0
M  V30 4447 H 432.849 -3.20249 -0.510961 0
M  V30 4448 H 432.634 -3.73911 1.18038 0
M  V30 4449 H 434.124 -4.16613 0.287009 0
M  V30 4450 N 434.561 -1.01147 -1.20859 0
M  V30 4451 C 435.809 -0.696486 -1.89719 0
M  V30 4452 C 436.13 0.775788 -1.78904 0
M  V30 4453 O 435.4 1.55759 -1.18811 0
M  V30 4454 H 433.98 -0.254628 -0.702263 0
M  V30 4455 H 436.642 -1.28197 -1.46804 0
M  V30 4456 H 435.738 -0.975357 -2.96468 0
M  V30 4457 N 436.039 1.36541 -0.78704 0
M  V30 4458 C 437.287 1.98911 -0.357633 0
M  V30 4459 C 437.608 1.62778 1.07371 0
M  V30 4460 O 436.878 0.900612 1.73971 0
M  V30 4461 H 435.458 0.735734 -0.129246 0
M  V30 4462 H 438.12 1.66776 -1.00855 0
M  V30 4463 H 437.216 3.08874 -0.447549 0
M  V30 4464 N 437.518 0.538854 1.48102 0
M  V30 4465 C 438.428 -0.222648 2.33541 0
M  V30 4466 C 439.444 -0.930225 1.47047 0
M  V30 4467 O 440.62 -0.903211 1.80011 0
M  V30 4468 C 437.685 -1.25064 3.23357 0
M  V30 4469 C 436.746 -0.552469 4.2573 0
M  V30 4470 C 435.979 -1.53149 5.11254 0
M  V30 4471 O 436.202 -2.76487 4.9891 0
M  V30 4472 O 435.136 -1.06602 5.92385 0
M  V30 4473 H 438.962 0.477707 2.99919 0
M  V30 4474 H 436.547 0.299669 1.46364 0
M  V30 4475 H 438.429 -1.8445 3.78888 0
M  V30 4476 H 437.104 -1.93325 2.59629 0
M  V30 4477 H 436.011 0.082114 3.7401 0
M  V30 4478 H 437.344 0.0883526 4.92121 0
M  V30 4479 N 438.996 -1.55193 0.274407 0
M  V30 4480 C 439.906 -2.26164 -0.623473 0
M  V30 4481 C 440.922 -1.28729 -1.17068 0
M  V30 4482 O 442.098 -1.61663 -1.20112 0
M  V30 4483 C 439.163 -2.96833 -1.7914 0
M  V30 4484 C 438.224 -4.09745 -1.28093 0
M  V30 4485 C 437.457 -4.77034 -2.3932 0
M  V30 4486 O 437.68 -4.4353 -3.5866 0
M  V30 4487 O 436.614 -5.64996 -2.07516 0
M  V30 4488 H 440.44 -3.03661 -0.0485661 0
M  V30 4489 H 438.025 -1.49341 0.0418382 0
M  V30 4490 H 439.907 -3.41248 -2.4724 0
M  V30 4491 H 438.582 -2.22253 -2.35341 0
M  V30 4492 H 437.489 -3.69787 -0.566416 0
M  V30 4493 H 438.822 -4.86224 -0.764683 0
M  V30 4494 N 440.474 -0.00167713 -1.576 0
M  V30 4495 C 441.384 1.00548 -2.1196 0
M  V30 4496 C 442.4 1.3758 -1.06526 0
M  V30 4497 O 443.576 1.46278 -1.38436 0
M  V30 4498 C 440.641 2.27809 -2.6135 0
M  V30 4499 C 439.702 1.97074 -3.81393 0
M  V30 4500 C 438.935 3.18267 -4.28417 0
M  V30 4501 O 439.158 4.30009 -3.74765 0
M  V30 4502 O 438.092 3.02167 -5.20556 0
M  V30 4503 H 441.918 0.573373 -2.98238 0
M  V30 4504 H 439.503 0.217255 -1.47812 0
M  V30 4505 H 441.385 3.02568 -2.93309 0
M  V30 4506 H 440.06 2.70254 -1.78169 0
M  V30 4507 H 438.967 1.19785 -3.54404 0
M  V30 4508 H 440.3 1.59464 -4.65652 0
M  V30 4509 N 441.952 1.55251 0.271103 0
M  V30 4510 C 442.862 1.9136 1.35714 0
M  V30 4511 C 443.878 0.811075 1.5394 0
M  V30 4512 O 445.054 1.11031 1.6803 0
M  V30 4513 C 442.119 2.1798 2.69603 0
M  V30 4514 C 441.18 3.4153 2.60107 0
M  V30 4515 C 440.413 3.66871 3.8761 0
M  V30 4516 O 440.636 2.94689 4.8838 0
M  V30 4517 O 439.57 4.60405 3.87699 0
M  V30 4518 H 443.396 2.83815 1.08088 0
M  V30 4519 H 440.981 1.41821 0.469792 0
M  V30 4520 H 442.863 2.36518 3.48765 0
M  V30 4521 H 441.538 1.28708 2.97012 0
M  V30 4522 H 440.445 3.28325 1.79314 0
M  V30 4523 H 441.778 4.31027 2.37647 0
M  V30 4524 N 443.43 -0.535701 1.48216 0
M  V30 4525 C 444.377 -1.64083 1.62312 0
M  V30 4526 C 445.347 -1.59448 0.465365 0
M  V30 4527 O 446.532 -1.77959 0.688135 0
M  V30 4528 C 443.672 -3.0236 1.66349 0
M  V30 4529 C 442.785 -3.17273 2.93193 0
M  V30 4530 C 441.92 -4.46075 2.88427 0
M  V30 4531 C 440.959 -4.54496 4.1 0
M  V30 4532 N 440.096 -5.7468 4.03345 0
M  V30 4533 H 444.936 -1.51374 2.5669 0
M  V30 4534 H 442.473 -0.737059 1.27302 0
M  V30 4535 H 444.431 -3.82461 1.66672 0
M  V30 4536 H 443.061 -3.13854 0.754672 0
M  V30 4537 H 442.113 -2.30462 3.02641 0
M  V30 4538 H 443.425 -3.19357 3.83162 0
M  V30 4539 H 442.579 -5.3446 2.87119 0
M  V30 4540 H 441.318 -4.46504 1.96177 0
M  V30 4541 H 440.323 -3.64519 4.11589 0
M  V30 4542 H 441.548 -4.5581 5.03402 0
M  V30 4543 H 439.494 -5.76017 3.13912 0
M  V30 4544 H 439.411 -5.78234 4.87013 0
M  V30 4545 H 440.679 -6.65367 4.06087 0
M  V30 4546 N 444.908 -1.36708 -0.784132 0
M  V30 4547 C 445.855 -1.31466 -1.89698 0
M  V30 4548 C 446.825 -0.18239 -1.65096 0
M  V30 4549 O 448.01 -0.369762 -1.87183 0
M  V30 4550 C 445.15 -1.1151 -3.26588 0
M  V30 4551 C 444.263 -2.33859 -3.63227 0
M  V30 4552 C 443.398 -2.06873 -4.89262 0
M  V30 4553 C 442.437 -3.25154 -5.18595 0
M  V30 4554 N 441.574 -2.978 -6.35814 0
M  V30 4555 H 446.414 -2.26619 -1.93515 0
M  V30 4556 H 443.951 -1.12625 -0.946256 0
M  V30 4557 H 445.909 -0.979653 -4.05535 0
M  V30 4558 H 444.539 -0.200103 -3.22179 0
M  V30 4559 H 443.591 -2.58188 -2.79362 0
M  V30 4560 H 444.903 -3.22109 -3.8085 0
M  V30 4561 H 444.057 -1.90289 -5.76086 0
M  V30 4562 H 442.796 -1.15942 -4.73718 0
M  V30 4563 H 441.801 -3.42292 -4.30251 0
M  V30 4564 H 443.026 -4.1692 -5.36055 0
M  V30 4565 H 440.972 -2.09485 -6.21653 0
M  V30 4566 H 440.889 -3.7959 -6.53794 0
M  V30 4567 H 442.157 -2.84805 -7.25607 0
M  V30 4568 N 446.386 1.0089 -1.21074 0
M  V30 4569 C 447.663 1.71834 -0.934469 0
M  V30 4570 C 448.043 2.0368 0.554753 0
M  V30 4571 O 447.391 1.70742 1.51854 0
M  V30 4572 C 447.601 2.98061 -1.8155 0
M  V30 4573 C 448.949 3.7117 -2.06199 0
M  V30 4574 O 449.973 3.08034 -1.78867 0
M  V30 4575 O 448.832 4.84721 -2.52404 0
M  V30 4576 H 445.926 0.749253 -0.35007 0
M  V30 4577 H 448.472 1.06668 -1.31985 0
M  V30 4578 H 447.244 2.70908 -2.82355 0
M  V30 4579 H 446.867 3.70968 -1.43068 0
M  V30 4580 N 447.864 1.01787 1.20321 0
M  V30 4581 C 448.811 0.589197 2.23153 0
M  V30 4582 C 449.781 -0.391367 1.61423 0
M  V30 4583 O 450.966 -0.290518 1.88575 0
M  V30 4584 C 448.106 -0.0650747 3.45039 0
M  V30 4585 C 447.219 0.960207 4.21194 0
M  V30 4586 C 446.354 0.276854 5.30478 0
M  V30 4587 C 445.393 1.2888 5.98378 0
M  V30 4588 N 444.53 0.632031 6.99249 0
M  V30 4589 H 449.37 1.47071 2.59179 0
M  V30 4590 H 446.907 0.736192 1.27352 0
M  V30 4591 H 448.865 -0.461552 4.14639 0
M  V30 4592 H 447.495 -0.910233 3.09701 0
M  V30 4593 H 446.547 1.47484 3.50646 0
M  V30 4594 H 447.859 1.72977 4.67847 0
M  V30 4595 H 447.013 -0.175056 6.06447 0
M  V30 4596 H 445.752 -0.525004 4.84866 0
M  V30 4597 H 444.757 1.75109 5.21169 0
M  V30 4598 H 445.982 2.09196 6.46076 0
M  V30 4599 H 443.928 -0.149935 6.55829 0
M  V30 4600 H 443.845 1.33964 7.44036 0
M  V30 4601 H 445.113 0.203755 7.79234 0
M  V30 4602 N 449.342 -1.36122 0.79427 0
M  V30 4603 C 450.289 -2.29982 0.194101 0
M  V30 4604 C 451.259 -1.52214 -0.664833 0
M  V30 4605 O 452.444 -1.80702 -0.612498 0
M  V30 4606 C 449.584 -3.38706 -0.661244 0
M  V30 4607 C 448.697 -4.31456 0.216766 0
M  V30 4608 C 447.832 -5.27265 -0.645411 0
M  V30 4609 C 446.871 -6.11653 0.233756 0
M  V30 4610 N 446.008 -6.99636 -0.587682 0
M  V30 4611 H 450.848 -2.80722 0.999965 0
M  V30 4612 H 448.385 -1.38172 0.504677 0
M  V30 4613 H 450.343 -4.00394 -1.17219 0
M  V30 4614 H 448.973 -2.89274 -1.43249 0
M  V30 4615 H 448.025 -3.7088 0.845724 0
M  V30 4616 H 449.337 -4.90724 0.893973 0
M  V30 4617 H 448.491 -5.94266 -1.22198 0
M  V30 4618 H 447.23 -4.68463 -1.35623 0
M  V30 4619 H 446.235 -5.4361 0.82269 0
M  V30 4620 H 447.46 -6.72531 0.942247 0
M  V30 4621 H 445.406 -6.43337 -1.2827 0
M  V30 4622 H 445.323 -7.55993 0.0317402 0
M  V30 4623 H 446.591 -7.71001 -1.14792 0
M  V30 4624 N 450.82 -0.546701 -1.47814 0
M  V30 4625 C 452.068 -0.0187037 -2.02091 0
M  V30 4626 C 452.389 1.33168 -1.42447 0
M  V30 4627 O 451.659 1.86619 -0.595839 0
M  V30 4628 H 450.239 -0.00392531 -0.74699 0
M  V30 4629 H 452.901 -0.714327 -1.81338 0
M  V30 4630 H 451.997 0.0772219 -3.12004 0
M  V30 4631 N 452.299 1.55045 -0.282633 0
M  V30 4632 C 453.246 2.22822 0.601566 0
M  V30 4633 C 454.216 1.20431 1.14392 0
M  V30 4634 O 455.401 1.48996 1.19184 0
M  V30 4635 C 452.541 2.95873 1.77632 0
M  V30 4636 C 451.654 4.12999 1.26711 0
M  V30 4637 C 450.789 4.73676 2.40426 0
M  V30 4638 C 449.828 5.82981 1.86545 0
M  V30 4639 N 448.965 6.3769 2.93762 0
M  V30 4640 H 453.805 2.97995 0.0169528 0
M  V30 4641 H 451.342 1.471 -0.00339964 0
M  V30 4642 H 453.3 3.36447 2.46697 0
M  V30 4643 H 451.93 2.2311 2.33285 0
M  V30 4644 H 450.982 3.77494 0.469314 0
M  V30 4645 H 452.294 4.91803 0.832518 0
M  V30 4646 H 451.448 5.17008 3.17471 0
M  V30 4647 H 450.187 3.94164 2.87203 0
M  V30 4648 H 449.192 5.39092 1.07983 0
M  V30 4649 H 450.417 6.64366 1.40694 0
M  V30 4650 H 448.363 5.61069 3.39908 0
M  V30 4651 H 448.28 7.11788 2.54744 0
M  V30 4652 H 449.548 6.8568 3.7076 0
M  V30 4653 N 453.777 0.010035 1.57597 0
M  V30 4654 C 454.709 -1.00649 2.05918 0
M  V30 4655 C 455.722 -1.30077 0.978964 0
M  V30 4656 O 456.911 -1.26878 1.25556 0
M  V30 4657 C 454.011 -2.33876 2.45265 0
M  V30 4658 C 453.184 -2.23242 3.7614 0
M  V30 4659 C 452.243 -3.39242 4.02245 0
M  V30 4660 O 451.269 -3.1698 4.72771 0
M  V30 4661 N 452.471 -4.6242 3.50924 0
M  V30 4662 H 455.236 -0.594333 2.93748 0
M  V30 4663 H 452.797 -0.17714 1.60928 0
M  V30 4664 H 454.789 -3.1027 2.59836 0
M  V30 4665 H 453.359 -2.66799 1.62902 0
M  V30 4666 H 452.579 -1.31696 3.71551 0
M  V30 4667 H 453.867 -2.13321 4.61922 0
M  V30 4668 H 453.265 -4.83404 2.93832 0
M  V30 4669 H 451.822 -5.36046 3.70807 0
M  V30 4670 N 455.255 -1.55392 -0.262866 0
M  V30 4671 C 456.187 -1.85392 -1.34768 0
M  V30 4672 C 457.2 -0.739069 -1.45057 0
M  V30 4673 O 458.389 -1.01703 -1.46693 0
M  V30 4674 C 455.489 -2.01088 -2.72795 0
M  V30 4675 C 454.662 -3.31828 -2.84972 0
M  V30 4676 C 453.721 -3.37464 -4.03738 0
M  V30 4677 O 452.747 -4.10778 -3.94018 0
M  V30 4678 N 453.949 -2.65599 -5.16176 0
M  V30 4679 H 456.714 -2.79029 -1.09375 0
M  V30 4680 H 454.275 -1.55434 -0.452981 0
M  V30 4681 H 456.267 -2.02217 -3.50557 0
M  V30 4682 H 454.837 -1.1427 -2.90966 0
M  V30 4683 H 454.057 -3.43152 -1.94012 0
M  V30 4684 H 455.345 -4.18032 -2.90045 0
M  V30 4685 H 454.743 -2.05736 -5.26962 0
M  V30 4686 H 453.3 -2.72439 -5.92132 0
M  V30 4687 N 456.733 0.527833 -1.48498 0
M  V30 4688 C 458.01 1.28905 -1.47115 0
M  V30 4689 C 458.39 2.10297 -0.184007 0
M  V30 4690 O 457.738 2.12728 0.834218 0
M  V30 4691 C 457.948 2.16866 -2.73441 0
M  V30 4692 C 459.296 2.76936 -3.21857 0
M  V30 4693 O 460.32 2.27152 -2.74373 0
M  V30 4694 O 459.179 3.67496 -4.04486 0
M  V30 4695 H 456.273 0.581918 -0.587623 0
M  V30 4696 H 458.819 0.544311 -1.60734 0
M  V30 4697 H 457.591 1.56521 -3.58632 0
M  V30 4698 H 457.214 2.98583 -2.62553 0
M  V30 4699 N 458.211 1.37122 0.776871 0
M  V30 4700 C 459.459 1.31787 1.53221 0
M  V30 4701 C 459.78 -0.0987589 1.9475 0
M  V30 4702 O 459.05 -1.0417 1.65908 0
M  V30 4703 H 457.63 0.484839 0.568278 0
M  V30 4704 H 460.292 1.71556 0.924917 0
M  V30 4705 H 459.388 1.95355 2.43398 0
M  V30 4706 N 459.689 -1.00246 1.21608 0
M  V30 4707 C 460.652 -2.07233 0.979133 0
M  V30 4708 C 461.652 -1.6072 -0.0508219 0
M  V30 4709 O 462.842 -1.73196 0.186712 0
M  V30 4710 C 459.974 -3.37546 0.477016 0
M  V30 4711 H 461.167 -2.29687 1.92831 0
M  V30 4712 H 458.72 -1.17261 1.03342 0
M  V30 4713 H 459.455 -3.20773 -0.476966 0
M  V30 4714 H 459.24 -3.72638 1.21997 0
M  V30 4715 H 460.73 -4.16285 0.331181 0
M  V30 4716 N 461.167 -1.02423 -1.1978 0
M  V30 4717 C 462.1 -0.545641 -2.21581 0
M  V30 4718 C 463.078 0.411024 -1.57319 0
M  V30 4719 O 464.262 0.329223 -1.85603 0
M  V30 4720 C 461.389 0.204973 -3.38079 0
M  V30 4721 C 460.435 -0.70241 -4.20676 0
M  V30 4722 S 461.268 -2.17595 -4.89298 0
M  V30 4723 C 462.424 -1.43572 -6.09211 0
M  V30 4724 H 462.657 -1.4082 -2.61834 0
M  V30 4725 H 460.19 -0.833771 -1.29952 0
M  V30 4726 H 462.148 0.631924 -4.05607 0
M  V30 4727 H 460.809 1.0432 -2.9627 0
M  V30 4728 H 460.002 -0.123193 -5.03849 0
M  V30 4729 H 459.604 -1.06747 -3.58442 0
M  V30 4730 H 461.896 -0.719806 -6.73665 0
M  V30 4731 H 462.839 -2.24388 -6.71607 0
M  V30 4732 H 463.247 -0.935252 -5.56699 0
M  V30 4733 N 462.645 1.35699 -0.801477 0
M  V30 4734 C 463.555 2.33661 -0.209691 0
M  V30 4735 C 464.571 1.6162 0.644591 0
M  V30 4736 O 465.747 1.93529 0.557545 0
M  V30 4737 C 462.812 3.40816 0.636033 0
M  V30 4738 C 461.873 4.28639 -0.238147 0
M  V30 4739 C 461.106 5.30676 0.567307 0
M  V30 4740 O 461.329 5.41174 1.8024 0
M  V30 4741 O 460.263 6.01887 -0.0391336 0
M  V30 4742 H 464.089 2.8606 -1.01996 0
M  V30 4743 H 461.674 1.38379 -0.563164 0
M  V30 4744 H 463.556 4.06301 1.11791 0
M  V30 4745 H 462.231 2.90696 1.42399 0
M  V30 4746 H 461.138 3.66152 -0.767044 0
M  V30 4747 H 462.471 4.82143 -0.989915 0
M  V30 4748 N 464.123 0.554532 1.47522 0
M  V30 4749 C 465.348 0.0322661 2.07375 0
M  V30 4750 C 465.773 -1.25079 1.40488 0
M  V30 4751 O 465.131 -1.74859 0.47896 0
M  V30 4752 C 465.179 -0.149397 3.6029 0
M  V30 4753 O 464.283 -1.21259 3.9417 0
M  V30 4754 H 463.624 0.0501228 0.662106 0
M  V30 4755 H 466.154 0.769452 1.8958 0
M  V30 4756 H 466.164 -0.364437 4.06369 0
M  V30 4757 H 464.839 0.787743 4.08372 0
M  V30 4758 H 463.416 -0.97825 3.5984 0
M  V30 4759 N 465.601 -1.54893 0.290851 0
M  V30 4760 C 466.826 -2.04804 -0.32712 0
M  V30 4761 C 467.251 -1.16721 -1.47506 0
M  V30 4762 O 466.609 -0.169107 -1.8051 0
M  V30 4763 C 466.657 -3.52268 -0.770689 0
M  V30 4764 O 465.761 -3.67236 -1.87647 0
M  V30 4765 H 465.102 -0.660789 -0.0652227 0
M  V30 4766 H 467.632 -2.00036 0.429739 0
M  V30 4767 H 467.642 -3.9393 -1.06223 0
M  V30 4768 H 466.317 -4.15843 0.069096 0
M  V30 4769 H 464.894 -3.37479 -1.58626 0
M  V30 4770 N 467.08 -0.0183926 -1.57589 0
M  V30 4771 C 468.012 0.995557 -2.06449 0
M  V30 4772 C 469.025 1.29556 -0.985849 0
M  V30 4773 O 470.214 1.2621 -1.26227 0
M  V30 4774 C 467.314 2.32572 -2.46502 0
M  V30 4775 C 466.487 2.21245 -3.77319 0
M  V30 4776 C 465.546 3.37104 -4.04039 0
M  V30 4777 O 464.572 3.14468 -4.74445 0
M  V30 4778 N 465.774 4.60553 -3.53372 0
M  V30 4779 H 468.539 0.578746 -2.94059 0
M  V30 4780 H 466.1 0.168603 -1.6102 0
M  V30 4781 H 468.092 3.08887 -2.61478 0
M  V30 4782 H 466.662 2.65931 -1.64315 0
M  V30 4783 H 465.882 1.29723 -3.72244 0
M  V30 4784 H 467.17 2.10868 -4.63047 0
M  V30 4785 H 466.568 4.81839 -2.96391 0
M  V30 4786 H 465.125 5.34072 -3.73644 0
M  V30 4787 N 468.558 1.5553 0.254621 0
M  V30 4788 C 469.786 1.81046 1.00149 0
M  V30 4789 C 470.201 0.593047 1.79244 0
M  V30 4790 O 469.558 -0.438196 1.77161 0
M  V30 4791 C 469.609 3.04684 1.94551 0
M  V30 4792 O 469.33 4.21725 1.18658 0
M  V30 4793 C 470.831 3.42943 2.80901 0
M  V30 4794 H 468.051 0.602653 0.295044 0
M  V30 4795 H 470.595 2.02576 0.279842 0
M  V30 4796 H 468.75 2.85226 2.62154 0
M  V30 4797 H 469.164 4.91746 1.82445 0
M  V30 4798 H 470.638 4.32576 3.42902 0
M  V30 4799 H 471.115 2.63176 3.51617 0
M  V30 4800 H 471.721 3.64724 2.18762 0
M  V30 4801 N 470.036 -0.519951 1.48776 0
M  V30 4802 C 470.983 -1.62352 1.64044 0
M  V30 4803 C 471.953 -1.58945 0.482251 0
M  V30 4804 O 473.138 -1.77219 0.706971 0
M  V30 4805 C 470.278 -3.00579 1.69547 0
M  V30 4806 C 469.391 -3.14145 2.96541 0
M  V30 4807 C 468.526 -4.42991 2.93142 0
M  V30 4808 C 467.565 -4.50122 4.14797 0
M  V30 4809 N 466.702 -5.7037 4.09418 0
M  V30 4810 H 471.542 -1.48643 2.58281 0
M  V30 4811 H 469.079 -0.723516 1.28077 0
M  V30 4812 H 471.037 -3.80671 1.70719 0
M  V30 4813 H 469.667 -3.13036 0.787918 0
M  V30 4814 H 468.719 -2.27239 3.05068 0
M  V30 4815 H 470.031 -3.15275 3.86527 0
M  V30 4816 H 469.185 -5.31385 2.92772 0
M  V30 4817 H 467.924 -4.44398 2.00902 0
M  V30 4818 H 466.929 -3.60133 4.15433 0
M  V30 4819 H 468.154 -4.50445 5.08208 0
M  V30 4820 H 466.1 -5.72655 3.20004 0
M  V30 4821 H 466.017 -5.73036 4.93119 0
M  V30 4822 H 467.285 -6.61023 4.13121 0
M  V30 4823 N 471.514 -1.37532 -0.769588 0
M  V30 4824 C 472.477 -1.33292 -1.86456 0
M  V30 4825 C 473.477 -0.236537 -1.59051 0
M  V30 4826 O 474.667 -0.492511 -1.67093 0
M  V30 4827 C 471.799 -1.07118 -3.23633 0
M  V30 4828 H 472.992 -2.30692 -1.91628 0
M  V30 4829 H 470.545 -1.22593 -0.969572 0
M  V30 4830 H 471.28 -0.102578 -3.24138 0
M  V30 4831 H 471.065 -1.86479 -3.44917 0
M  V30 4832 H 472.555 -1.06806 -4.03711 0
M  V30 4833 N 472.992 0.995999 -1.22138 0
M  V30 4834 C 473.939 2.08551 -0.988687 0
M  V30 4835 C 474.909 1.65864 0.0885021 0
M  V30 4836 O 476.094 1.90704 -0.0604589 0
M  V30 4837 C 473.234 3.40374 -0.569191 0
M  V30 4838 C 472.347 3.96421 -1.71681 0
M  V30 4839 C 471.482 5.1639 -1.2456 0
M  V30 4840 C 470.521 5.64567 -2.36497 0
M  V30 4841 N 469.658 6.75777 -1.90445 0
M  V30 4842 H 474.498 2.2779 -1.92135 0
M  V30 4843 H 472.035 1.1168 -0.957388 0
M  V30 4844 H 473.993 4.16068 -0.307166 0
M  V30 4845 H 472.623 3.21145 0.326462 0
M  V30 4846 H 471.675 3.17628 -2.09324 0
M  V30 4847 H 472.987 4.2816 -2.55891 0
M  V30 4848 H 472.141 5.99362 -0.940774 0
M  V30 4849 H 470.88 4.86266 -0.373662 0
M  V30 4850 H 469.885 4.80185 -2.67772 0
M  V30 4851 H 471.11 5.96716 -3.24202 0
M  V30 4852 H 469.056 6.47443 -1.05609 0
M  V30 4853 H 468.973 7.06818 -2.68223 0
M  V30 4854 H 470.241 7.62262 -1.63022 0
M  V30 4855 N 474.47 1.03057 1.19235 0
M  V30 4856 C 475.417 0.612832 2.22515 0
M  V30 4857 C 476.387 -0.374224 1.61829 0
M  V30 4858 O 477.572 -0.270501 1.88873 0
M  V30 4859 C 474.712 -0.028475 3.45088 0
M  V30 4860 C 473.825 1.00483 4.20151 0
M  V30 4861 C 472.96 0.333102 5.30155 0
M  V30 4862 C 471.999 1.3522 5.96977 0
M  V30 4863 N 471.136 0.70616 6.9854 0
M  V30 4864 H 475.976 1.49812 2.57605 0
M  V30 4865 H 473.513 0.749658 1.26564 0
M  V30 4866 H 475.471 -0.417548 4.15105 0
M  V30 4867 H 474.101 -0.877334 3.10649 0
M  V30 4868 H 473.153 1.51194 3.49062 0
M  V30 4869 H 474.465 1.77929 4.65986 0
M  V30 4870 H 473.619 -0.110725 6.06599 0
M  V30 4871 H 472.358 -0.473547 4.85396 0
M  V30 4872 H 471.363 1.80627 5.19282 0
M  V30 4873 H 472.588 2.16037 6.4382 0
M  V30 4874 H 470.534 -0.0803667 6.55951 0
M  V30 4875 H 470.451 1.41848 7.42573 0
M  V30 4876 H 471.719 0.286391 7.78974 0
M  V30 4877 N 475.948 -1.35272 0.808662 0
M  V30 4878 C 476.88 -2.28507 0.178149 0
M  V30 4879 C 477.893 -1.50377 -0.623754 0
M  V30 4880 O 479.082 -1.72583 -0.455774 0
M  V30 4881 C 476.182 -3.30038 -0.769959 0
M  V30 4882 C 475.355 -4.37398 -0.0139749 0
M  V30 4883 C 474.414 -5.18775 -0.880875 0
M  V30 4884 O 473.44 -5.68236 -0.331059 0
M  V30 4885 N 474.642 -5.37087 -2.20267 0
M  V30 4886 H 477.407 -2.83255 0.979106 0
M  V30 4887 H 474.968 -1.47643 0.664308 0
M  V30 4888 H 476.96 -3.81371 -1.35418 0
M  V30 4889 H 475.53 -2.75789 -1.47171 0
M  V30 4890 H 474.75 -3.86971 0.751468 0
M  V30 4891 H 476.038 -5.06268 0.506965 0
M  V30 4892 H 475.436 -4.9855 -2.67328 0
M  V30 4893 H 473.993 -5.91593 -2.73608 0
M  V30 4894 N 477.426 -0.562348 -1.47226 0
M  V30 4895 C 478.703 0.0256985 -1.95583 0
M  V30 4896 C 479.083 1.48032 -1.50498 0
M  V30 4897 O 478.431 2.15973 -0.746181 0
M  V30 4898 C 478.641 -0.125129 -3.48776 0
M  V30 4899 C 479.989 0.0175728 -4.24596 0
M  V30 4900 O 481.013 -0.0529341 -3.56161 0
M  V30 4901 O 479.872 0.170145 -5.46235 0
M  V30 4902 H 476.966 0.0612565 -0.824728 0
M  V30 4903 H 479.512 -0.629233 -1.57603 0
M  V30 4904 H 478.284 -1.13715 -3.74412 0
M  V30 4905 H 477.907 0.567178 -3.93534 0
M  V30 4906 N 478.904 1.54736 -0.299062 0
M  V30 4907 C 480.152 1.99706 0.31017 0
M  V30 4908 C 480.473 1.18896 1.54559 0
M  V30 4909 O 479.743 0.284445 1.93824 0
M  V30 4910 H 478.323 0.737686 0.117596 0
M  V30 4911 H 480.985 1.9054 -0.409943 0
M  V30 4912 H 480.081 3.06596 0.58355 0
M  V30 4913 N 480.382 0.0267497 1.57577 0
M  V30 4914 C 481.345 -0.940916 2.08996 0
M  V30 4915 C 482.345 -1.25561 1.00455 0
M  V30 4916 O 483.535 -1.19634 1.26623 0
M  V30 4917 C 480.667 -2.25814 2.55384 0
M  V30 4918 H 481.86 -0.495628 2.95776 0
M  V30 4919 H 479.413 -0.221241 1.54726 0
M  V30 4920 H 480.148 -2.74976 1.71926 0
M  V30 4921 H 479.933 -2.04285 3.34679 0
M  V30 4922 H 481.423 -2.95178 2.95398 0
M  V30 4923 N 481.861 -1.55662 -0.24637 0
M  V30 4924 C 483.107 -1.77782 -0.975779 0
M  V30 4925 C 483.44 -0.592103 -1.84953 0
M  V30 4926 O 482.715 0.409588 -1.90138 0
M  V30 4927 C 482.998 -3.09788 -1.83584 0
M  V30 4928 C 482.851 -4.38764 -0.990241 0
M  V30 4929 C 484.17 -3.38029 -2.81823 0
M  V30 4930 H 481.289 -0.646789 -0.353317 0
M  V30 4931 H 483.931 -1.88398 -0.246248 0
M  V30 4932 H 482.081 -3.00869 -2.45784 0
M  V30 4933 H 483.753 -4.59675 -0.386897 0
M  V30 4934 H 481.996 -4.32798 -0.294626 0
M  V30 4935 H 482.667 -5.27514 -1.62584 0
M  V30 4936 H 485.143 -3.46915 -2.2976 0
M  V30 4937 H 484.019 -4.3161 -3.39122 0
M  V30 4938 H 484.28 -2.58968 -3.58313 0
M  V30 4939 N 483.339 0.512053 -1.4905 0
M  V30 4940 C 484.302 1.59704 -1.64399 0
M  V30 4941 C 485.302 1.52285 -0.516317 0
M  V30 4942 O 486.492 1.55635 -0.782527 0
M  V30 4943 C 483.624 2.9935 -1.63102 0
M  V30 4944 H 484.817 1.47428 -2.61161 0
M  V30 4945 H 482.37 0.735469 -1.37915 0
M  V30 4946 H 483.105 3.17116 -0.678836 0
M  V30 4947 H 482.89 3.06144 -2.44986 0
M  V30 4948 H 484.38 3.782 -1.77072 0
M  V30 4949 N 484.817 1.37938 0.762283 0
M  V30 4950 C 485.75 1.2884 1.88349 0
M  V30 4951 C 486.728 0.167084 1.61739 0
M  V30 4952 O 487.912 0.34292 1.85355 0
M  V30 4953 C 485.039 0.994257 3.23778 0
M  V30 4954 C 484.085 2.13376 3.69287 0
M  V30 4955 S 484.918 3.75439 3.81845 0
M  V30 4956 C 486.074 3.48195 5.20107 0
M  V30 4957 H 486.307 2.23736 1.95779 0
M  V30 4958 H 483.84 1.23672 0.924368 0
M  V30 4959 H 485.798 0.83138 4.01993 0
M  V30 4960 H 484.459 0.0626251 3.14038 0
M  V30 4961 H 483.652 1.88319 4.67495 0
M  V30 4962 H 483.254 2.25726 2.98201 0
M  V30 4963 H 485.546 3.0377 6.05583 0
M  V30 4964 H 486.489 4.45765 5.50181 0
M  V30 4965 H 486.897 2.82905 4.88493 0
M  V30 4966 N 486.295 -0.989507 1.22664 0
M  V30 4967 C 487.205 -2.11449 1.01619 0
M  V30 4968 C 488.221 -1.73962 -0.036545 0
M  V30 4969 O 489.397 -2.00788 0.156924 0
M  V30 4970 C 486.462 -3.41465 0.600204 0
M  V30 4971 C 485.523 -3.93033 1.72695 0
M  V30 4972 C 484.756 -5.16844 1.33071 0
M  V30 4973 O 484.979 -5.7001 0.210975 0
M  V30 4974 O 483.913 -5.6225 2.14845 0
M  V30 4975 H 487.739 -2.32088 1.9588 0
M  V30 4976 H 485.324 -1.09823 1.01289 0
M  V30 4977 H 487.206 -4.19695 0.37873 0
M  V30 4978 H 485.881 -3.22178 -0.313511 0
M  V30 4979 H 484.788 -3.15961 2.00298 0
M  V30 4980 H 486.121 -4.16758 2.61865 0
M  V30 4981 N 487.773 -1.03688 -1.18687 0
M  V30 4982 C 488.706 -0.569112 -2.2099 0
M  V30 4983 C 489.684 0.394315 -1.57746 0
M  V30 4984 O 490.868 0.309519 -1.85941 0
M  V30 4985 C 487.995 0.169104 -3.38278 0
M  V30 4986 C 487.041 -0.746989 -4.19908 0
M  V30 4987 S 487.874 -2.22773 -4.86963 0
M  V30 4988 C 489.03 -1.50025 -6.07654 0
M  V30 4989 H 489.263 -1.43589 -2.60326 0
M  V30 4990 H 486.796 -0.847507 -1.29061 0
M  V30 4991 H 488.754 0.588868 -4.06254 0
M  V30 4992 H 487.415 1.01172 -2.9736 0
M  V30 4993 H 486.608 -0.176626 -5.0369 0
M  V30 4994 H 486.21 -1.10543 -3.5729 0
M  V30 4995 H 488.502 -0.791217 -6.72864 0
M  V30 4996 H 489.445 -2.31498 -6.69189 0
M  V30 4997 H 489.853 -0.994245 -5.55675 0
M  V30 4998 N 489.251 1.34841 -0.815825 0
M  V30 4999 C 490.183 2.28409 -0.190265 0
M  V30 5000 C 491.196 1.50705 0.615771 0
M  V30 5001 O 492.385 1.72822 0.446616 0
M  V30 5002 C 489.485 3.30441 0.752446 0
M  V30 5003 C 488.658 4.37399 -0.00922152 0
M  V30 5004 C 487.717 5.19234 0.853351 0
M  V30 5005 O 486.743 5.68404 0.300919 0
M  V30 5006 N 487.945 5.38248 2.17416 0
M  V30 5007 H 490.71 2.82732 -0.994114 0
M  V30 5008 H 488.271 1.47289 -0.672129 0
M  V30 5009 H 490.263 3.82084 1.33394 0
M  V30 5010 H 488.833 2.76565 1.45707 0
M  V30 5011 H 488.053 3.86567 -0.771979 0
M  V30 5012 H 489.341 5.05992 -0.533807 0
M  V30 5013 H 488.739 4.99961 2.6468 0
M  V30 5014 H 487.296 5.93035 2.70467 0
M  V30 5015 N 490.729 0.570148 1.46925 0
M  V30 5016 C 492.14 0.1402 1.86173 0
M  V30 5017 C 492.491 -1.29347 1.47526 0
M  V30 5018 O 491.616 -1.97508 0.884292 0
M  V30 5019 C 492.211 0.247661 3.37894 0
M  V30 5020 C 490.77 -0.127332 3.76185 0
M  V30 5021 C 489.917 0.589349 2.70965 0
M  V30 5022 H 492.868 0.779117 1.38259 0
M  V30 5023 H 492.889 -0.530341 3.76786 0
M  V30 5024 H 492.401 1.29121 3.65991 0
M  V30 5025 H 490.502 -1.17149 3.53704 0
M  V30 5026 H 490.615 0.240238 4.78497 0
M  V30 5027 H 488.979 0.0309824 2.54681 0
M  V30 5028 H 489.762 1.6343 3.01903 0
M  V30 5029 N 492.207 -1.54576 0.307264 0
M  V30 5030 C 493.137 -2.26708 -0.55907 0
M  V30 5031 C 494.118 -1.26893 -1.1328 0
M  V30 5032 O 495.303 -1.55677 -1.16097 0
M  V30 5033 C 492.433 -3.01259 -1.72801 0
M  V30 5034 C 491.387 -4.08275 -1.28435 0
M  V30 5035 C 490.713 -4.70575 -2.53895 0
M  V30 5036 C 492.013 -5.2068 -0.411038 0
M  V30 5037 H 493.707 -2.9937 0.042576 0
M  V30 5038 H 491.253 -1.43983 0.0219173 0
M  V30 5039 H 493.206 -3.50444 -2.34023 0
M  V30 5040 H 491.93 -2.26187 -2.356 0
M  V30 5041 H 490.589 -3.59949 -0.695161 0
M  V30 5042 H 490.237 -3.92136 -3.15021 0
M  V30 5043 H 489.937 -5.42854 -2.24908 0
M  V30 5044 H 491.461 -5.22527 -3.15908 0
M  V30 5045 H 492.875 -5.65721 -0.929097 0
M  V30 5046 H 491.272 -5.99716 -0.214664 0
M  V30 5047 H 492.342 -4.81629 0.562287 0
M  V30 5048 N 493.685 -0.035106 -1.57561 0
M  V30 5049 C 494.632 0.94474 -2.10578 0
M  V30 5050 C 495.602 1.3192 -1.00927 0
M  V30 5051 O 496.787 1.41147 -1.28382 0
M  V30 5052 C 493.927 2.21982 -2.64231 0
M  V30 5053 C 493.04 1.90128 -3.87911 0
M  V30 5054 C 492.175 3.11975 -4.29936 0
M  V30 5055 C 491.214 2.75968 -5.46359 0
M  V30 5056 N 490.351 3.90459 -5.83512 0
M  V30 5057 H 495.191 0.485717 -2.94015 0
M  V30 5058 H 492.728 0.228143 -1.4532 0
M  V30 5059 H 494.686 2.96572 -2.9343 0
M  V30 5060 H 493.316 2.6549 -1.83616 0
M  V30 5061 H 492.368 1.05755 -3.65404 0
M  V30 5062 H 493.68 1.59613 -4.72573 0
M  V30 5063 H 492.834 3.9488 -4.60603 0
M  V30 5064 H 491.573 3.45657 -3.44053 0
M  V30 5065 H 490.578 1.91478 -5.1538 0
M  V30 5066 H 491.803 2.43497 -6.33945 0
M  V30 5067 H 489.749 4.23971 -5.00584 0
M  V30 5068 H 489.666 3.63588 -6.62827 0
M  V30 5069 H 490.934 4.7405 -6.18787 0
M  V30 5070 N 495.163 1.55791 0.238111 0
M  V30 5071 C 496.388 1.8244 0.986432 0
M  V30 5072 C 496.813 0.613314 1.7782 0
M  V30 5073 O 496.171 -0.437767 1.75935 0
M  V30 5074 C 496.219 3.06917 1.893 0
M  V30 5075 O 495.323 2.84449 2.98601 0
M  V30 5076 H 494.664 0.601975 0.280218 0
M  V30 5077 H 497.194 2.02987 0.256437 0
M  V30 5078 H 497.204 3.36583 2.30598 0
M  V30 5079 H 495.879 3.947 1.31091 0
M  V30 5080 H 494.456 2.65972 2.61368 0
M  V30 5081 N 496.642 -0.504142 1.49319 0
M  V30 5082 C 497.605 -1.5883 1.65244 0
M  V30 5083 C 498.605 -1.52009 0.524386 0
M  V30 5084 O 499.795 -1.55218 0.79077 0
M  V30 5085 C 496.927 -2.98481 1.64687 0
M  V30 5086 H 498.12 -1.4604 2.61939 0
M  V30 5087 H 495.673 -0.728144 1.38303 0
M  V30 5088 H 496.408 -3.16751 0.695644 0
M  V30 5089 H 496.193 -3.0484 2.46607 0
M  V30 5090 H 497.683 -3.77256 1.79075 0
M  V30 5091 N 498.12 -1.38341 -0.754957 0
M  V30 5092 C 499.03 -1.3769 -1.89944 0
M  V30 5093 C 500.046 -0.274194 -1.71826 0
M  V30 5094 O 501.222 -0.512391 -1.94773 0
M  V30 5095 C 498.287 -1.19938 -3.25293 0
M  V30 5096 C 497.348 -2.40001 -3.55946 0
M  V30 5097 C 496.581 -2.23087 -4.84838 0
M  V30 5098 O 496.804 -1.22386 -5.57116 0
M  V30 5099 O 495.738 -3.11646 -5.14937 0
M  V30 5100 H 499.564 -2.3412 -1.93446 0
M  V30 5101 H 497.149 -1.19246 -0.900044 0
M  V30 5102 H 499.031 -1.12093 -4.06218 0
M  V30 5103 H 497.706 -0.265919 -3.22606 0
M  V30 5104 H 496.613 -2.53421 -2.75188 0
M  V30 5105 H 497.946 -3.31973 -3.63394 0
M  V30 5106 N 499.598 0.982988 -1.23187 0
M  V30 5107 C 500.846 1.72052 -1.06031 0
M  V30 5108 C 501.167 1.90769 0.404019 0
M  V30 5109 O 500.437 1.47446 1.28982 0
M  V30 5110 H 499.017 0.637499 -0.389363 0
M  V30 5111 H 501.679 1.18338 -1.54862 0
M  V30 5112 H 500.775 2.7111 -1.54615 0
M  V30 5113 N 501.076 1.04316 1.18135 0
M  V30 5114 C 502.324 0.746542 1.87806 0
M  V30 5115 C 502.645 -0.728082 1.80898 0
M  V30 5116 O 501.915 -1.52554 1.22899 0
M  V30 5117 H 500.495 0.273157 0.695265 0
M  V30 5118 H 503.157 1.32044 1.43354 0
M  V30 5119 H 502.253 1.05362 2.93778 0
M  V30 5120 N 502.554 -1.34406 0.822964 0
M  V30 5121 C 503.464 -2.33298 0.246838 0
M  V30 5122 C 504.48 -1.62625 -0.618797 0
M  V30 5123 O 505.656 -1.94391 -0.526685 0
M  V30 5124 C 502.721 -3.41785 -0.581731 0
M  V30 5125 C 501.782 -4.28206 0.306309 0
M  V30 5126 C 501.015 -5.31512 -0.48281 0
M  V30 5127 O 501.238 -5.43973 -1.71607 0
M  V30 5128 O 500.172 -6.01749 0.134884 0
M  V30 5129 H 503.998 -2.84401 1.06534 0
M  V30 5130 H 501.583 -1.37466 0.585108 0
M  V30 5131 H 503.465 -4.08028 -1.05313 0
M  V30 5132 H 502.14 -2.92925 -1.37756 0
M  V30 5133 H 501.047 -3.64885 0.825199 0
M  V30 5134 H 502.38 -4.80507 1.06649 0
M  V30 5135 N 504.032 -0.577932 -1.46621 0
M  V30 5136 C 504.965 0.206312 -2.27265 0
M  V30 5137 C 505.943 0.901306 -1.35334 0
M  V30 5138 O 507.127 0.916151 -1.64739 0
M  V30 5139 C 504.254 1.29563 -3.1294 0
M  V30 5140 C 503.3 0.706981 -4.206 0
M  V30 5141 S 504.133 -0.462459 -5.33499 0
M  V30 5142 C 505.289 0.628171 -6.2274 0
M  V30 5143 H 505.522 -0.477961 -2.93433 0
M  V30 5144 H 503.055 -0.364715 -1.50031 0
M  V30 5145 H 505.013 1.91935 -3.62865 0
M  V30 5146 H 503.674 1.95183 -2.46095 0
M  V30 5147 H 502.867 1.52565 -4.80354 0
M  V30 5148 H 502.469 0.159022 -3.73662 0
M  V30 5149 H 504.761 1.51506 -6.60342 0
M  V30 5150 H 505.704 0.0674961 -7.08068 0
M  V30 5151 H 506.112 0.930167 -5.56784 0
M  V30 5152 N 505.51 1.54411 -0.315457 0
M  V30 5153 C 506.42 2.27737 0.56329 0
M  V30 5154 C 507.436 1.31787 1.13614 0
M  V30 5155 O 508.612 1.64791 1.15784 0
M  V30 5156 C 505.677 3.01478 1.71207 0
M  V30 5157 C 504.738 4.12997 1.17185 0
M  V30 5158 C 503.971 4.83212 2.26588 0
M  V30 5159 O 504.194 4.52884 3.46775 0
M  V30 5160 O 503.128 5.70299 1.92463 0
M  V30 5161 H 506.954 3.03683 -0.0319614 0
M  V30 5162 H 504.539 1.49178 -0.0814188 0
M  V30 5163 H 506.421 3.47683 2.38106 0
M  V30 5164 H 505.096 2.28414 2.29366 0
M  V30 5165 H 504.003 3.71159 0.468174 0
M  V30 5166 H 505.336 4.8808 0.635501 0
M  V30 5167 N 506.988 0.0434614 1.5754 0
M  V30 5168 C 507.898 -0.94893 2.14552 0
M  V30 5169 C 508.914 -1.34707 1.10136 0
M  V30 5170 O 510.09 -1.42557 1.42266 0
M  V30 5171 C 507.155 -2.208 2.67298 0
M  V30 5172 C 506.216 -1.86893 3.86484 0
M  V30 5173 C 505.449 -3.06797 4.36705 0
M  V30 5174 O 505.672 -4.19921 3.86034 0
M  V30 5175 O 504.606 -2.8826 5.28384 0
M  V30 5176 H 508.432 -0.494099 2.99654 0
M  V30 5177 H 506.017 -0.177989 1.48336 0
M  V30 5178 H 507.899 -2.94686 3.01228 0
M  V30 5179 H 506.574 -2.65436 1.85272 0
M  V30 5180 H 505.481 -1.10347 3.57455 0
M  V30 5181 H 506.814 -1.47062 4.69716 0
M  V30 5182 N 508.466 -1.55915 -0.229846 0
M  V30 5183 C 509.882 -1.48721 -0.579166 0
M  V30 5184 C 510.082 -0.736976 -1.87539 0
M  V30 5185 O 509.138 -0.273258 -2.51017 0
M  V30 5186 C 510.451 -2.9323 -0.666082 0
M  V30 5187 C 511.999 -3.03701 -0.757267 0
M  V30 5188 C 512.474 -4.49552 -0.8756 0
M  V30 5189 N 513.965 -4.53561 -0.940035 0
M  V30 5190 C 514.7 -5.63683 -1.05116 0
M  V30 5191 N 514.196 -6.83576 -1.12675 0
M  V30 5192 N 515.989 -5.51516 -1.08565 0
M  V30 5193 H 508.14 -2.03123 0.620857 0
M  V30 5194 H 510.403 -0.922898 0.21671 0
M  V30 5195 H 510.109 -3.51032 0.21664 0
M  V30 5196 H 509.983 -3.44668 -1.53243 0
M  V30 5197 H 512.37 -2.45969 -1.63043 0
M  V30 5198 H 512.451 -2.55446 0.134583 0
M  V30 5199 H 512.095 -5.079 -0.00692351 0
M  V30 5200 H 512.025 -4.95506 -1.78274 0
M  V30 5201 H 514.516 -3.67215 -0.892269 0
M  V30 5202 H 514.829 -7.63251 -1.21109 0
M  V30 5203 H 513.174 -6.86303 -1.09603 0
M  V30 5204 H 516.365 -4.5678 -1.02319 0
M  V30 5205 H 516.538 -6.37372 -1.1688 0
M  V30 5206 N 509.944 0.496216 -1.49584 0
M  V30 5207 C 510.854 1.62352 -1.69349 0
M  V30 5208 C 511.87 1.64184 -0.576147 0
M  V30 5209 O 513.046 1.82517 -0.85144 0
M  V30 5210 C 510.111 2.98698 -1.76013 0
M  V30 5211 C 509.172 3.07454 -2.99617 0
M  V30 5212 C 508.405 4.37296 -3.05953 0
M  V30 5213 O 508.628 5.2637 -2.19752 0
M  V30 5214 O 507.562 4.51124 -3.9846 0
M  V30 5215 H 511.388 1.48606 -2.64859 0
M  V30 5216 H 508.973 0.673022 -1.33382 0
M  V30 5217 H 510.855 3.79725 -1.82721 0
M  V30 5218 H 509.53 3.12696 -0.836828 0
M  V30 5219 H 508.437 2.25597 -2.98424 0
M  V30 5220 H 509.77 2.98385 -3.91443 0
M  V30 5221 N 511.423 1.38739 0.74761 0
M  V30 5222 C 512.37 1.36449 1.86146 0
M  V30 5223 C 513.34 0.226098 1.64554 0
M  V30 5224 O 514.525 0.41926 1.86137 0
M  V30 5225 C 511.665 1.2013 3.23516 0
M  V30 5226 C 510.778 2.43407 3.56899 0
M  V30 5227 C 509.913 2.19773 4.83605 0
M  V30 5228 C 508.952 3.3879 5.09792 0
M  V30 5229 N 508.089 3.14553 6.27695 0
M  V30 5230 H 512.929 2.3167 1.87438 0
M  V30 5231 H 510.466 1.15094 0.916063 0
M  V30 5232 H 512.424 1.08683 4.02795 0
M  V30 5233 H 511.054 0.285453 3.21535 0
M  V30 5234 H 510.106 2.65504 2.72418 0
M  V30 5235 H 511.418 3.32094 3.72176 0
M  V30 5236 H 510.572 2.05496 5.70838 0
M  V30 5237 H 509.311 1.28461 4.70478 0
M  V30 5238 H 508.316 3.53579 4.21025 0
M  V30 5239 H 509.541 4.30986 5.24812 0
M  V30 5240 H 507.487 2.25893 6.1588 0
M  V30 5241 H 507.404 3.96791 6.435 0
M  V30 5242 H 508.672 3.03943 7.17801 0
M  V30 5243 N 512.901 -0.976442 1.23707 0
M  V30 5244 C 513.848 -2.06952 1.02174 0
M  V30 5245 C 514.818 -1.65984 -0.0621034 0
M  V30 5246 O 516.003 -1.90584 0.0907906 0
M  V30 5247 C 513.143 -3.39425 0.62327 0
M  V30 5248 C 512.256 -3.9364 1.77966 0
M  V30 5249 C 511.391 -5.14343 1.3276 0
M  V30 5250 C 510.43 -5.60733 2.45449 0
M  V30 5251 N 509.567 -6.72662 2.01172 0
M  V30 5252 H 514.407 -2.24704 1.95734 0
M  V30 5253 H 511.944 -1.10143 0.975034 0
M  V30 5254 H 513.902 -4.15526 0.37332 0
M  V30 5255 H 512.532 -3.21624 -0.275329 0
M  V30 5256 H 511.584 -3.14258 2.14351 0
M  V30 5257 H 512.896 -4.24035 2.62671 0
M  V30 5258 H 512.05 -5.97789 1.03601 0
M  V30 5259 H 510.789 -4.8561 0.450975 0
M  V30 5260 H 509.794 -4.75865 2.75378 0
M  V30 5261 H 511.019 -5.91483 3.33654 0
M  V30 5262 H 508.965 -6.45681 1.15895 0
M  V30 5263 H 508.882 -7.02462 2.79434 0
M  V30 5264 H 510.15 -7.59572 1.75129 0
M  V30 5265 N 514.379 -1.04941 -1.1758 0
M  V30 5266 C 515.326 -0.648155 -2.21512 0
M  V30 5267 C 516.296 0.348431 -1.62404 0
M  V30 5268 O 517.481 0.240419 -1.89279 0
M  V30 5269 C 514.621 -0.0264291 -3.4509 0
M  V30 5270 C 513.734 -1.07154 -4.185 0
M  V30 5271 C 512.869 -0.417403 -5.29558 0
M  V30 5272 C 511.908 -1.447 -5.94751 0
M  V30 5273 N 511.045 -0.817203 -6.97328 0
M  V30 5274 H 515.885 -1.53891 -2.55189 0
M  V30 5275 H 513.422 -0.769699 -1.25356 0
M  V30 5276 H 515.38 0.351456 -4.15717 0
M  V30 5277 H 514.01 0.827802 -3.12005 0
M  V30 5278 H 513.062 -1.56728 -3.46613 0
M  V30 5279 H 514.374 -1.8532 -4.63096 0
M  V30 5280 H 513.528 0.0142061 -6.06698 0
M  V30 5281 H 512.267 0.396265 -4.86087 0
M  V30 5282 H 511.272 -1.88865 -5.16343 0
M  V30 5283 H 512.497 -2.26252 -6.40302 0
M  V30 5284 H 510.443 -0.0239995 -6.55996 0
M  V30 5285 H 510.36 -1.53644 -7.40223 0
M  V30 5286 H 511.628 -0.410283 -7.7842 0
M  V30 5287 N 515.857 1.33968 -0.830081 0
M  V30 5288 C 516.82 2.27694 -0.26235 0
M  V30 5289 C 517.82 1.50589 0.563876 0
M  V30 5290 O 519.01 1.70028 0.378941 0
M  V30 5291 C 516.142 3.35002 0.63138 0
M  V30 5292 H 517.335 2.79419 -1.08928 0
M  V30 5293 H 514.888 1.44221 -0.602486 0
M  V30 5294 H 515.623 2.88504 1.48109 0
M  V30 5295 H 515.408 3.92079 0.0403276 0
M  V30 5296 H 516.898 4.04897 1.02217 0
M  V30 5297 N 517.335 0.585699 1.46312 0
M  V30 5298 C 518.283 -0.158577 2.32059 0
M  V30 5299 C 519.277 -0.881427 1.44662 0
M  V30 5300 O 520.483 -0.799476 1.61271 0
M  V30 5301 H 516.858 -0.0700066 0.748734 0
M  V30 5302 H 518.829 0.583383 2.92642 0
M  V30 5303 C 517.578 -1.15701 3.27885 0
M  V30 5304 H 516.901 -0.610215 3.95116 0
M  V30 5305 H 518.341 -1.64812 3.90657 0
M  V30 5306 C 516.8 -2.21951 2.53455 0
M  V30 5307 O 517.33 -3.29352 2.29978 0
M  V30 5308 N 515.536 -1.9664 2.13965 0
M  V30 5309 H 515.083 -1.09309 2.33258 0
M  V30 5310 H 515.041 -2.6794 1.64485 0
M  V30 5311 N 518.813 -1.54241 0.323641 0
M  V30 5312 C 519.776 -2.22997 -0.529602 0
M  V30 5313 C 520.776 -1.22345 -1.04347 0
M  V30 5314 O 521.966 -1.46924 -0.935889 0
M  V30 5315 C 519.098 -2.93409 -1.73562 0
M  V30 5316 H 520.291 -2.99815 0.0714518 0
M  V30 5317 H 517.844 -1.56121 0.0747258 0
M  V30 5318 H 518.579 -2.20729 -2.37591 0
M  V30 5319 H 518.364 -3.67217 -1.37456 0
M  V30 5320 H 519.854 -3.45794 -2.34128 0
M  V30 5321 N 520.291 -0.0518155 -1.57515 0
M  V30 5322 C 521.702 0.483787 -1.80323 0
M  V30 5323 C 522.053 1.70879 -0.964099 0
M  V30 5324 O 521.178 2.15643 -0.180872 0
M  V30 5325 C 521.773 0.884459 -3.27052 0
M  V30 5326 C 520.332 1.36504 -3.50776 0
M  V30 5327 C 519.479 0.340539 -2.75201 0
M  V30 5328 H 522.43 -0.277691 -1.56252 0
M  V30 5329 H 522.451 1.74733 -3.38007 0
M  V30 5330 H 521.963 -0.00731093 -3.88099 0
M  V30 5331 H 520.064 2.27598 -2.95009 0
M  V30 5332 H 520.177 1.35675 -4.59488 0
M  V30 5333 H 518.541 0.81356 -2.41357 0
M  V30 5334 H 519.324 -0.543156 -3.38976 0
M  V30 5335 N 521.769 1.56035 0.221574 0
M  V30 5336 C 522.716 1.92413 1.27459 0
M  V30 5337 C 523.686 0.781323 1.46576 0
M  V30 5338 O 524.871 1.03721 1.60145 0
M  V30 5339 C 522.011 2.24617 2.61995 0
M  V30 5340 C 521.124 3.51831 2.50677 0
M  V30 5341 C 520.259 3.73482 3.77736 0
M  V30 5342 C 519.298 4.94211 3.6114 0
M  V30 5343 N 518.435 5.12252 4.80148 0
M  V30 5344 H 523.275 2.82203 0.957355 0
M  V30 5345 H 520.812 1.39676 0.461415 0
M  V30 5346 H 522.77 2.41298 3.40339 0
M  V30 5347 H 521.4 1.38 2.91815 0
M  V30 5348 H 520.452 3.43343 1.63767 0
M  V30 5349 H 521.764 4.40328 2.34334 0
M  V30 5350 H 520.918 3.9026 4.64523 0
M  V30 5351 H 519.657 2.83266 3.97003 0
M  V30 5352 H 518.662 4.77384 2.72736 0
M  V30 5353 H 519.887 5.85912 3.43343 0
M  V30 5354 H 517.833 4.24978 4.99729 0
M  V30 5355 H 517.75 5.94881 4.66532 0
M  V30 5356 H 519.018 5.33465 5.68362 0
M  V30 5357 N 523.247 -0.488276 1.49845 0
M  V30 5358 C 524.194 -1.58836 1.67451 0
M  V30 5359 C 525.164 -1.57886 0.515857 0
M  V30 5360 O 526.349 -1.75679 0.744403 0
M  V30 5361 C 523.489 -2.96915 1.75885 0
M  V30 5362 C 522.602 -3.07784 3.03138 0
M  V30 5363 C 521.737 -4.36673 3.02473 0
M  V30 5364 C 520.776 -4.41222 4.24252 0
M  V30 5365 N 519.913 -5.61557 4.21424 0
M  V30 5366 H 524.753 -1.43131 2.61376 0
M  V30 5367 H 522.29 -0.696186 1.29583 0
M  V30 5368 H 524.248 -3.76965 1.78755 0
M  V30 5369 H 522.878 -3.11295 0.85414 0
M  V30 5370 H 521.93 -2.20717 3.09819 0
M  V30 5371 H 523.242 -3.07005 3.93128 0
M  V30 5372 H 522.396 -5.25055 3.03977 0
M  V30 5373 H 521.135 -4.40037 2.10283 0
M  V30 5374 H 520.14 -3.5124 4.22978 0
M  V30 5375 H 521.365 -4.39564 5.17649 0
M  V30 5376 H 519.311 -5.65738 3.32078 0
M  V30 5377 H 519.228 -5.62447 5.05163 0
M  V30 5378 H 520.496 -6.52111 4.2705 0
M  V30 5379 N 524.725 -1.39134 -0.740242 0
M  V30 5380 C 525.635 -1.39697 -1.88473 0
M  V30 5381 C 526.651 -0.292403 -1.71526 0
M  V30 5382 O 527.827 -0.533021 -1.94219 0
M  V30 5383 C 524.892 -1.23382 -3.24003 0
M  V30 5384 C 523.953 -2.43763 -3.53381 0
M  V30 5385 C 523.186 -2.28216 -4.82445 0
M  V30 5386 O 523.409 -1.28288 -5.55786 0
M  V30 5387 O 522.343 -3.1709 -5.11603 0
M  V30 5388 H 526.169 -2.36159 -1.90952 0
M  V30 5389 H 523.754 -1.20194 -0.887346 0
M  V30 5390 H 525.636 -1.16395 -4.05006 0
M  V30 5391 H 524.311 -0.300121 -3.22306 0
M  V30 5392 H 523.218 -2.56325 -2.72485 0
M  V30 5393 H 524.551 -3.35808 -3.59852 0
M  V30 5394 N 526.204 0.969867 -1.24223 0
M  V30 5395 C 527.151 2.06407 -1.0327 0
M  V30 5396 C 528.121 1.66014 0.0533 0
M  V30 5397 O 529.306 1.90533 -0.100896 0
M  V30 5398 C 526.446 3.3909 -0.641262 0
M  V30 5399 C 525.559 3.9269 -1.80051 0
M  V30 5400 C 524.694 5.13631 -1.35486 0
M  V30 5401 C 523.733 5.59423 -2.48419 0
M  V30 5402 N 522.87 6.71586 -2.04737 0
M  V30 5403 H 527.71 2.23663 -1.96923 0
M  V30 5404 H 525.247 1.09624 -0.980862 0
M  V30 5405 H 527.205 4.15323 -0.395351 0
M  V30 5406 H 525.835 3.21765 0.258269 0
M  V30 5407 H 524.887 3.13116 -2.16014 0
M  V30 5408 H 526.199 4.22636 -2.64916 0
M  V30 5409 H 525.353 5.97231 -1.0677 0
M  V30 5410 H 524.092 4.85364 -0.476722 0
M  V30 5411 H 523.097 4.74398 -2.77897 0
M  V30 5412 H 524.322 5.89705 -3.36786 0
M  V30 5413 H 522.268 6.45058 -1.19318 0
M  V30 5414 H 522.185 7.0097 -2.83156 0
M  V30 5415 H 523.453 7.58633 -1.79154 0
M  V30 5416 N 527.682 1.05563 1.17022 0
M  V30 5417 C 528.907 0.788437 1.91829 0
M  V30 5418 C 529.332 -0.650356 1.76499 0
M  V30 5419 O 528.69 -1.45229 1.08527 0
M  V30 5420 C 528.738 1.1786 3.40795 0
M  V30 5421 O 527.842 0.312965 4.11211 0
M  V30 5422 H 527.183 0.288794 0.597908 0
M  V30 5423 H 529.713 1.40948 1.48307 0
M  V30 5424 H 529.723 1.14697 3.91546 0
M  V30 5425 H 528.398 2.22666 3.51273 0
M  V30 5426 H 526.975 0.405515 3.70689 0
M  V30 5427 N 529.16 -1.33526 0.837174 0
M  V30 5428 C 530.406 -1.9813 0.432704 0
M  V30 5429 C 530.739 -1.66168 -1.00508 0
M  V30 5430 O 530.014 -0.94069 -1.70239 0
M  V30 5431 C 530.297 -3.54151 0.651834 0
M  V30 5432 C 530.15 -3.95806 2.13676 0
M  V30 5433 C 531.469 -4.39993 0.0968937 0
M  V30 5434 H 528.588 -0.719713 0.15869 0
M  V30 5435 H 531.23 -1.58193 1.05237 0
M  V30 5436 H 529.38 -3.88301 0.124369 0
M  V30 5437 H 531.052 -3.71921 2.72896 0
M  V30 5438 H 529.295 -3.45599 2.62191 0
M  V30 5439 H 529.966 -5.0447 2.24084 0
M  V30 5440 H 532.442 -4.12479 0.547733 0
M  V30 5441 H 531.318 -5.48186 0.279917 0
M  V30 5442 H 531.579 -4.3066 -0.9992 0
M  V30 5443 N 530.638 -0.59345 -1.46 0
M  V30 5444 C 531.568 0.121192 -2.33185 0
M  V30 5445 C 532.549 0.872977 -1.4599 0
M  V30 5446 O 533.734 0.846321 -1.74789 0
M  V30 5447 C 530.864 1.12844 -3.28456 0
M  V30 5448 C 529.818 0.4908 -4.25177 0
M  V30 5449 C 529.144 1.60529 -5.10034 0
M  V30 5450 C 530.444 -0.578949 -5.19081 0
M  V30 5451 H 532.138 -0.606767 -2.93187 0
M  V30 5452 H 529.684 -0.293242 -1.40983 0
M  V30 5453 H 531.637 1.63684 -3.88311 0
M  V30 5454 H 530.361 1.88681 -2.66584 0
M  V30 5455 H 529.02 0.00339328 -3.666 0
M  V30 5456 H 528.668 2.35359 -4.44539 0
M  V30 5457 H 528.368 1.18422 -5.75543 0
M  V30 5458 H 529.892 2.11623 -5.72755 0
M  V30 5459 H 531.306 -0.155199 -5.7309 0
M  V30 5460 H 529.703 -0.920947 -5.92991 0
M  V30 5461 H 530.773 -1.46109 -4.62364 0
M  V30 5462 N 532.116 1.54067 -0.331816 0
M  V30 5463 C 533.048 2.22139 0.564538 0
M  V30 5464 C 534.061 1.22408 1.07332 0
M  V30 5465 O 535.25 1.4883 0.985481 0
M  V30 5466 C 532.35 2.87876 1.78831 0
M  V30 5467 C 531.523 4.13817 1.41682 0
M  V30 5468 C 530.582 4.63072 2.49901 0
M  V30 5469 O 529.608 5.27562 2.13699 0
M  V30 5470 N 530.81 4.38001 3.80967 0
M  V30 5471 H 533.575 2.99694 -0.0183736 0
M  V30 5472 H 531.136 1.61153 -0.155396 0
M  V30 5473 H 533.128 3.17747 2.50637 0
M  V30 5474 H 531.698 2.13977 2.27887 0
M  V30 5475 H 530.918 3.9062 0.530044 0
M  V30 5476 H 532.206 4.95762 1.14443 0
M  V30 5477 H 531.604 3.864 4.13173 0
M  V30 5478 H 530.161 4.72507 4.48977 0
M  V30 5479 N 533.594 0.0601682 1.57485 0
M  V30 5480 C 534.842 -0.610386 1.92662 0
M  V30 5481 C 535.163 -1.70849 0.939981 0
M  V30 5482 O 534.433 -1.95895 -0.0137455 0
M  V30 5483 H 533.013 -0.228457 0.711208 0
M  V30 5484 H 535.675 0.115288 1.94559 0
M  V30 5485 H 534.771 -1.0432 2.94149 0
M  V30 5486 N 535.072 -1.5615 -0.213296 0
M  V30 5487 C 536.019 -1.93086 -1.26437 0
M  V30 5488 C 536.989 -0.789086 -1.4616 0
M  V30 5489 O 538.174 -1.04569 -1.59593 0
M  V30 5490 C 535.314 -2.26003 -2.608 0
M  V30 5491 C 534.427 -3.53156 -2.48807 0
M  V30 5492 C 533.562 -3.7548 -3.7575 0
M  V30 5493 C 532.601 -4.96119 -3.58514 0
M  V30 5494 N 531.738 -5.14791 -4.77425 0
M  V30 5495 H 536.578 -2.82707 -0.942376 0
M  V30 5496 H 534.115 -1.39919 -0.454001 0
M  V30 5497 H 536.073 -2.431 -3.39055 0
M  V30 5498 H 534.703 -1.39546 -2.91079 0
M  V30 5499 H 533.755 -3.44207 -1.61944 0
M  V30 5500 H 535.067 -4.41565 -2.31996 0
M  V30 5501 H 534.221 -3.92718 -4.62447 0
M  V30 5502 H 532.96 -2.85368 -3.95495 0
M  V30 5503 H 531.965 -4.78823 -2.70201 0
M  V30 5504 H 533.19 -5.87724 -3.40231 0
M  V30 5505 H 531.136 -4.27623 -4.97468 0
M  V30 5506 H 531.053 -5.97347 -4.63371 0
M  V30 5507 H 532.321 -5.36471 -5.65525 0
M  V30 5508 N 536.55 0.480323 -1.50102 0
M  V30 5509 C 537.48 1.58769 -1.71215 0
M  V30 5510 C 538.461 1.60583 -0.560997 0
M  V30 5511 O 539.646 1.76996 -0.799127 0
M  V30 5512 C 536.776 2.97148 -1.79778 0
M  V30 5513 C 535.73 3.10201 -2.94888 0
M  V30 5514 C 535.056 4.50137 -2.88584 0
M  V30 5515 C 536.356 2.88283 -4.35534 0
M  V30 5516 H 538.05 1.41354 -2.6393 0
M  V30 5517 H 535.596 0.678591 -1.27008 0
M  V30 5518 H 537.549 3.74536 -1.93133 0
M  V30 5519 H 536.273 3.15699 -0.836772 0
M  V30 5520 H 534.932 2.35244 -2.81169 0
M  V30 5521 H 534.58 4.65593 -1.90349 0
M  V30 5522 H 534.28 4.59808 -3.65856 0
M  V30 5523 H 535.804 5.29558 -3.03976 0
M  V30 5524 H 537.218 3.55427 -4.49827 0
M  V30 5525 H 535.615 3.09408 -5.14186 0
M  V30 5526 H 536.685 1.84219 -4.48544 0
M  V30 5527 N 538.028 1.39524 0.732853 0
M  V30 5528 C 539.256 1.40143 1.52209 0
M  V30 5529 C 539.671 -0.00348836 1.888 0
M  V30 5530 O 539.028 -0.975357 1.5425 0
M  V30 5531 C 539.079 2.27632 2.8083 0
M  V30 5532 O 538.8 3.62654 2.45792 0
M  V30 5533 C 540.301 2.36658 3.74844 0
M  V30 5534 H 537.521 0.478604 0.470297 0
M  V30 5535 H 540.065 1.83366 0.905388 0
M  V30 5536 H 538.22 1.87818 3.38826 0
M  V30 5537 H 538.634 4.08941 3.28431 0
M  V30 5538 H 540.108 3.02118 4.61984 0
M  V30 5539 H 540.585 1.38638 4.16745 0
M  V30 5540 H 541.191 2.76951 3.22766 0
M  V30 5541 N 539.506 -0.963266 1.24736 0
M  V30 5542 C 540.453 -2.05857 1.04363 0
M  V30 5543 C 541.423 -1.6604 -0.0444951 0
M  V30 5544 O 542.608 -1.90477 0.110999 0
M  V30 5545 C 539.748 -3.38745 0.659235 0
M  V30 5546 C 538.861 -3.9173 1.82131 0
M  V30 5547 C 537.996 -5.12906 1.38208 0
M  V30 5548 C 537.035 -5.58098 2.51382 0
M  V30 5549 N 536.172 -6.7049 2.08295 0
M  V30 5550 H 541.012 -2.22616 1.98107 0
M  V30 5551 H 538.549 -1.09103 0.986661 0
M  V30 5552 H 540.507 -4.15107 0.417371 0
M  V30 5553 H 539.137 -3.21898 -0.241201 0
M  V30 5554 H 538.189 -3.11966 2.17672 0
M  V30 5555 H 539.501 -4.21225 2.67153 0
M  V30 5556 H 538.655 -5.96657 1.09935 0
M  V30 5557 H 537.394 -4.85105 0.502456 0
M  V30 5558 H 536.399 -4.72917 2.80409 0
M  V30 5559 H 537.624 -5.87911 3.39909 0
M  V30 5560 H 535.57 -6.44416 1.22737 0
M  V30 5561 H 535.487 -6.99458 2.86869 0
M  V30 5562 H 536.755 -7.57672 1.83175 0
M  V30 5563 N 540.985 -1.06182 -1.16461 0
M  V30 5564 C 541.915 -0.692861 -2.22984 0
M  V30 5565 C 542.896 0.314122 -1.67174 0
M  V30 5566 O 544.081 0.189499 -1.93273 0
M  V30 5567 C 541.211 -0.07732 -3.47214 0
M  V30 5568 C 540.165 -1.01015 -4.15909 0
M  V30 5569 C 539.491 -0.257973 -5.34077 0
M  V30 5570 C 540.791 -2.33868 -4.67015 0
M  V30 5571 H 542.485 -1.58343 -2.54102 0
M  V30 5572 H 540.031 -0.76279 -1.22137 0
M  V30 5573 H 541.984 0.19266 -4.20959 0
M  V30 5574 H 540.708 0.848254 -3.15392 0
M  V30 5575 H 539.367 -1.26486 -3.44088 0
M  V30 5576 H 539.015 0.670684 -4.98509 0
M  V30 5577 H 538.715 -0.879638 -5.80979 0
M  V30 5578 H 540.239 0.00448788 -6.106 0
M  V30 5579 H 541.653 -2.1279 -5.32347 0
M  V30 5580 H 540.05 -2.91522 -5.24533 0
M  V30 5581 H 541.12 -2.97019 -3.83286 0
M  V30 5582 N 542.463 1.3308 -0.844243 0
M  V30 5583 C 543.426 2.27403 -0.286485 0
M  V30 5584 C 544.426 1.51179 0.547872 0
M  V30 5585 O 545.616 1.70421 0.360886 0
M  V30 5586 C 542.748 3.35653 0.595813 0
M  V30 5587 H 543.941 2.78248 -1.11885 0
M  V30 5588 H 541.494 1.43574 -0.617749 0
M  V30 5589 H 542.229 2.90058 1.4504 0
M  V30 5590 H 542.014 3.921 -0.00125994 0
M  V30 5591 H 543.504 4.05958 0.979168 0
M  V30 5592 N 543.941 0.601185 1.45683 0
M  V30 5593 C 545.187 0.0940202 2.02582 0
M  V30 5594 C 545.52 -1.26972 1.46941 0
M  V30 5595 O 544.795 -1.83613 0.641612 0
M  V30 5596 C 545.078 0.0481715 3.60068 0
M  V30 5597 C 544.931 1.44212 4.26055 0
M  V30 5598 C 546.25 -0.642975 4.35378 0
M  V30 5599 H 543.369 0.0356404 0.736138 0
M  V30 5600 H 546.011 0.771929 1.73612 0
M  V30 5601 H 544.161 -0.529128 3.8488 0
M  V30 5602 H 545.833 2.06601 4.12449 0
M  V30 5603 H 544.076 2.00465 3.84703 0
M  V30 5604 H 544.747 1.36234 5.34925 0
M  V30 5605 H 547.223 -0.152351 4.15821 0
M  V30 5606 H 546.099 -0.644141 5.45107 0
M  V30 5607 H 546.36 -1.70785 4.0778 0
M  V30 5608 N 545.419 -1.53889 0.339982 0
M  V30 5609 C 546.351 -2.22435 -0.55275 0
M  V30 5610 C 547.364 -1.22975 -1.06681 0
M  V30 5611 O 548.553 -1.49351 -0.977575 0
M  V30 5612 C 545.653 -2.8882 -1.77302 0
M  V30 5613 C 544.826 -4.14563 -1.39486 0
M  V30 5614 C 543.885 -4.64391 -2.47442 0
M  V30 5615 O 542.911 -5.28687 -2.10899 0
M  V30 5616 N 544.113 -4.40015 -3.78639 0
M  V30 5617 H 546.878 -2.9968 0.0342669 0
M  V30 5618 H 544.439 -1.61068 0.16394 0
M  V30 5619 H 546.431 -3.19072 -2.48948 0
M  V30 5620 H 545.001 -2.15182 -2.26749 0
M  V30 5621 H 544.221 -3.90896 -0.509321 0
M  V30 5622 H 545.509 -4.96362 -1.11813 0
M  V30 5623 H 544.907 -3.88586 -4.11118 0
M  V30 5624 H 543.464 -4.74881 -4.46465 0
M  V30 5625 N 546.897 -0.0685191 -1.57451 0
M  V30 5626 C 548.146 0.600898 -1.92541 0
M  V30 5627 C 548.459 1.70967 -0.950239 0
M  V30 5628 O 549.665 2.43844 -1.19384 0
M  V30 5629 C 548.121 1.12019 -3.42023 0
M  V30 5630 C 547.729 0.0426028 -4.4798 0
M  V30 5631 C 549.473 1.76386 -3.86119 0
M  V30 5632 C 547.38 0.575759 -5.88591 0
M  V30 5633 H 546.31 0.228225 -0.71863 0
M  V30 5634 H 548.961 -0.140223 -1.82963 0
M  V30 5635 H 547.343 1.91418 -3.46663 0
M  V30 5636 H 548.517 -0.73182 -4.54952 0
M  V30 5637 H 546.832 -0.504642 -4.13331 0
M  V30 5638 H 549.429 2.17302 -4.88553 0
M  V30 5639 H 549.772 2.62255 -3.23308 0
M  V30 5640 H 550.305 1.03615 -3.84069 0
M  V30 5641 H 547.044 -0.245691 -6.55039 0
M  V30 5642 H 546.564 1.31778 -5.85145 0
M  V30 5643 H 548.243 1.0532 -6.3837 0
M  V30 5644 N 548.375 1.56261 0.205012 0
M  V30 5645 C 549.623 1.79684 0.925096 0
M  V30 5646 C 549.944 0.63989 1.84202 0
M  V30 5647 O 549.214 -0.342345 1.92885 0
M  V30 5648 H 547.794 0.662774 0.344587 0
M  V30 5649 H 550.456 1.93734 0.212899 0
M  V30 5650 H 549.552 2.72467 1.52211 0
M  V30 5651 N 549.853 -0.472356 1.50355 0
M  V30 5652 C 550.8 -1.57051 1.69126 0
M  V30 5653 C 551.77 -1.5733 0.532574 0
M  V30 5654 O 552.955 -1.7488 0.762994 0
M  V30 5655 C 550.095 -2.95033 1.79024 0
M  V30 5656 C 549.208 -3.04552 3.06386 0
M  V30 5657 C 548.343 -4.33441 3.07087 0
M  V30 5658 C 547.382 -4.36697 4.28908 0
M  V30 5659 N 546.519 -5.57056 4.27356 0
M  V30 5660 H 551.359 -1.40351 2.62879 0
M  V30 5661 H 548.896 -0.682403 1.30314 0
M  V30 5662 H 550.854 -3.75048 1.82744 0
M  V30 5663 H 549.484 -3.10371 0.887109 0
M  V30 5664 H 548.536 -2.17419 3.12143 0
M  V30 5665 H 549.848 -3.02818 3.96362 0
M  V30 5666 H 549.002 -5.21801 3.09529 0
M  V30 5667 H 547.741 -4.37782 2.14939 0
M  V30 5668 H 546.746 -3.46734 4.2668 0
M  V30 5669 H 547.971 -4.34049 5.22282 0
M  V30 5670 H 545.917 -5.62184 3.3806 0
M  V30 5671 H 545.834 -5.57058 5.111 0
M  V30 5672 H 547.102 -6.47545 4.33942 0
M  V30 5673 N 551.331 -1.39911 -0.725443 0
M  V30 5674 C 552.294 -1.39156 -1.82121 0
M  V30 5675 C 553.294 -0.287018 -1.58218 0
M  V30 5676 O 554.484 -0.545421 -1.65441 0
M  V30 5677 C 551.616 -1.1736 -3.20062 0
M  V30 5678 H 552.809 -2.36672 -1.84191 0
M  V30 5679 H 550.362 -1.25615 -0.930079 0
M  V30 5680 H 551.097 -0.205648 -3.23647 0
M  V30 5681 H 550.882 -1.97358 -3.3881 0
M  V30 5682 H 552.372 -1.19596 -4.00108 0
M  V30 5683 N 552.809 0.956637 -1.25245 0
M  V30 5684 C 554.057 1.69764 -1.09657 0
M  V30 5685 C 554.378 1.91583 0.363464 0
M  V30 5686 O 553.648 1.50149 1.25825 0
M  V30 5687 H 552.228 0.629097 -0.402798 0
M  V30 5688 H 554.89 1.15026 -1.57337 0
M  V30 5689 H 553.986 2.67769 -1.60331 0
M  V30 5690 N 554.287 1.06798 1.15896 0
M  V30 5691 C 555.217 0.704677 2.22613 0
M  V30 5692 C 556.198 -0.305252 1.67339 0
M  V30 5693 O 557.383 -0.179247 1.93371 0
M  V30 5694 C 554.513 0.0957325 3.47168 0
M  V30 5695 C 553.467 1.0322 4.15367 0
M  V30 5696 C 552.793 0.286293 5.33933 0
M  V30 5697 C 554.093 2.36341 4.65768 0
M  V30 5698 H 555.787 1.59688 2.53259 0
M  V30 5699 H 553.333 0.769257 1.21731 0
M  V30 5700 H 555.286 -0.170333 4.21056 0
M  V30 5701 H 554.01 -0.831516 3.15838 0
M  V30 5702 H 552.669 1.28309 3.43413 0
M  V30 5703 H 552.317 -0.644237 4.98857 0
M  V30 5704 H 552.017 0.910436 5.80504 0
M  V30 5705 H 553.541 0.0278938 6.10594 0
M  V30 5706 H 554.955 2.1561 5.31211 0
M  V30 5707 H 553.352 2.94299 5.2298 0
M  V30 5708 H 554.422 2.99047 3.81705 0
M  V30 5709 N 555.766 -1.3263 0.851289 0
M  V30 5710 C 557.012 -1.9766 0.453694 0
M  V30 5711 C 557.345 -1.67225 -0.987396 0
M  V30 5712 O 556.62 -0.958693 -1.69232 0
M  V30 5713 C 556.903 -3.5344 0.68936 0
M  V30 5714 C 556.756 -3.93517 2.17862 0
M  V30 5715 C 558.075 -4.39866 0.143555 0
M  V30 5716 H 555.194 -0.717989 0.166314 0
M  V30 5717 H 557.836 -1.57068 1.06909 0
M  V30 5718 H 555.986 -3.88147 0.165546 0
M  V30 5719 H 557.658 -3.69006 2.76826 0
M  V30 5720 H 555.901 -3.42798 2.65841 0
M  V30 5721 H 556.572 -5.02065 2.29422 0
M  V30 5722 H 559.048 -4.11875 0.591451 0
M  V30 5723 H 557.924 -5.47858 0.338043 0
M  V30 5724 H 558.185 -4.31696 -0.953466 0
M  V30 5725 N 557.244 -0.608902 -1.45362 0
M  V30 5726 C 558.177 0.158059 -2.27652 0
M  V30 5727 C 559.155 0.872397 -1.37215 0
M  V30 5728 O 560.339 0.881002 -1.66645 0
M  V30 5729 C 557.466 1.22896 -3.15617 0
M  V30 5730 C 556.512 0.617607 -4.22005 0
M  V30 5731 S 557.345 -0.575518 -5.32398 0
M  V30 5732 C 558.501 0.495938 -6.23932 0
M  V30 5733 H 558.734 -0.540095 -2.92353 0
M  V30 5734 H 556.267 -0.396456 -1.49223 0
M  V30 5735 H 558.225 1.84195 -3.66855 0
M  V30 5736 H 556.886 1.89919 -2.50179 0
M  V30 5737 H 556.079 1.42341 -4.83482 0
M  V30 5738 H 555.681 0.0797273 -3.73915 0
M  V30 5739 H 557.973 1.37465 -6.63408 0
M  V30 5740 H 558.916 -0.0827108 -7.08052 0
M  V30 5741 H 559.324 0.811856 -5.58631 0
M  V30 5742 N 558.722 1.53707 -0.348139 0
M  V30 5743 C 559.947 2.05877 0.250883 0
M  V30 5744 C 560.372 1.22115 1.43072 0
M  V30 5745 O 559.73 0.235986 1.79758 0
M  V30 5746 C 559.778 3.54886 0.639416 0
M  V30 5747 O 558.882 3.73948 1.73888 0
M  V30 5748 H 558.223 0.662754 0.040653 0
M  V30 5749 H 560.753 1.98303 -0.503685 0
M  V30 5750 H 560.763 3.97601 0.915295 0
M  V30 5751 H 559.438 4.153 -0.223386 0
M  V30 5752 H 558.015 3.43134 1.45991 0
M  V30 5753 N 560.2 0.0768682 1.57412 0
M  V30 5754 C 561.163 -0.873949 2.11884 0
M  V30 5755 C 562.163 -1.22301 1.04398 0
M  V30 5756 O 563.353 -1.15545 1.30365 0
M  V30 5757 C 560.485 -2.17575 2.62438 0
M  V30 5758 H 561.678 -0.401278 2.97203 0
M  V30 5759 H 559.231 -0.171904 1.55352 0
M  V30 5760 H 559.966 -2.69368 1.80587 0
M  V30 5761 H 559.751 -1.93534 3.41009 0
M  V30 5762 H 561.241 -2.85631 3.04639 0
M  V30 5763 N 561.678 -1.56367 -0.196722 0
M  V30 5764 C 562.927 -1.79724 -0.915539 0
M  V30 5765 C 563.24 -0.649804 -1.84491 0
M  V30 5766 O 564.446 -0.767631 -2.60422 0
M  V30 5767 C 562.902 -3.18369 -1.67836 0
M  V30 5768 C 562.51 -4.4091 -0.793897 0
M  V30 5769 C 564.254 -3.51037 -2.38691 0
M  V30 5770 C 562.161 -5.70577 -1.55549 0
M  V30 5771 H 561.091 -0.67013 -0.345604 0
M  V30 5772 H 563.742 -1.82721 -0.168856 0
M  V30 5773 H 562.124 -3.09617 -2.46887 0
M  V30 5774 H 563.298 -4.60781 -0.042163 0
M  V30 5775 H 561.613 -4.15937 -0.19626 0
M  V30 5776 H 564.21 -4.4515 -2.96219 0
M  V30 5777 H 564.553 -2.74704 -3.12799 0
M  V30 5778 H 565.086 -3.61229 -1.66608 0
M  V30 5779 H 561.825 -6.49871 -0.857226 0
M  V30 5780 H 561.345 -5.54726 -2.2812 0
M  V30 5781 H 563.024 -6.11637 -2.10971 0
M  V30 5782 N 563.156 0.464375 -1.50603 0
M  V30 5783 C 564.384 1.23907 -1.65695 0
M  V30 5784 C 564.799 1.85658 -0.343027 0
M  V30 5785 O 564.156 1.69529 0.675739 0
M  V30 5786 C 564.207 2.3429 -2.75301 0
M  V30 5787 O 563.928 1.7507 -4.01599 0
M  V30 5788 C 565.429 3.25051 -3.01424 0
M  V30 5789 H 562.649 0.374485 -0.556778 0
M  V30 5790 H 565.193 0.55353 -1.96866 0
M  V30 5791 H 563.348 2.98607 -2.46804 0
M  V30 5792 H 563.762 2.47812 -4.62266 0
M  V30 5793 H 565.236 3.98699 -3.81763 0
M  V30 5794 H 565.713 3.84227 -2.12758 0
M  V30 5795 H 566.319 2.66463 -3.31477 0
M  V30 5796 N 564.634 1.40294 0.718013 0
M  V30 5797 C 565.88 1.38645 1.48005 0
M  V30 5798 C 566.213 -0.0121202 1.94196 0
M  V30 5799 O 565.488 -0.980309 1.67989 0
M  V30 5800 C 565.771 2.37379 2.70782 0
M  V30 5801 C 565.624 3.8625 2.30501 0
M  V30 5802 C 566.943 2.33685 3.72933 0
M  V30 5803 H 564.062 0.504928 0.536858 0
M  V30 5804 H 566.704 1.71411 0.819649 0
M  V30 5805 H 564.854 2.09568 3.27129 0
M  V30 5806 H 566.526 4.24879 1.79655 0
M  V30 5807 H 564.769 4.02202 1.6253 0
M  V30 5808 H 565.44 4.50847 3.18498 0
M  V30 5809 H 567.916 2.58314 3.2621 0
M  V30 5810 H 566.792 3.0482 4.56482 0
M  V30 5811 H 567.053 1.34765 4.21059 0
M  V30 5812 N 566.112 -0.949982 1.2575 0
M  V30 5813 C 567.361 -1.68956 1.10168 0
M  V30 5814 C 567.674 -1.92327 -0.356309 0
M  V30 5815 O 568.88 -2.64026 -0.632657 0
M  V30 5816 C 567.336 -3.04196 1.92336 0
M  V30 5817 C 566.944 -2.88603 3.42655 0
M  V30 5818 C 568.688 -3.81904 1.85336 0
M  V30 5819 C 566.595 -4.19262 4.17101 0
M  V30 5820 H 565.525 -0.633645 0.408668 0
M  V30 5821 H 568.176 -1.05719 1.49986 0
M  V30 5822 H 566.558 -3.68363 1.45344 0
M  V30 5823 H 567.732 -2.3334 3.97353 0
M  V30 5824 H 566.047 -2.24345 3.50796 0
M  V30 5825 H 568.644 -4.78688 2.38248 0
M  V30 5826 H 568.987 -4.08099 0.822226 0
M  V30 5827 H 569.52 -3.24495 2.30104 0
M  V30 5828 H 566.259 -3.98254 5.20648 0
M  V30 5829 H 565.779 -4.74273 3.67186 0
M  V30 5830 H 567.458 -4.87775 4.25071 0
M  V30 5831 N 567.59 -1.07411 -1.15328 0
M  V30 5832 C 568.839 -0.792643 -1.85473 0
M  V30 5833 C 569.152 0.683789 -1.83259 0
M  V30 5834 O 570.358 1.08005 -2.49093 0
M  V30 5835 C 568.814 -1.36787 -3.32892 0
M  V30 5836 C 568.422 -2.87536 -3.43551 0
M  V30 5837 C 570.166 -1.16444 -4.08217 0
M  V30 5838 C 568.073 -3.38247 -4.85122 0
M  V30 5839 H 567.003 -0.292838 -0.694811 0
M  V30 5840 H 569.654 -1.29426 -1.30082 0
M  V30 5841 H 568.036 -0.793993 -3.87958 0
M  V30 5842 H 569.21 -3.50973 -2.98588 0
M  V30 5843 H 567.525 -3.06676 -2.81672 0
M  V30 5844 H 570.122 -1.51808 -5.12697 0
M  V30 5845 H 570.465 -0.10353 -4.16171 0
M  V30 5846 H 570.998 -1.70472 -3.59422 0
M  V30 5847 H 567.737 -4.43866 -4.82351 0
M  V30 5848 H 567.257 -2.79564 -5.30664 0
M  V30 5849 H 568.936 -3.34238 -5.5398 0
M  V30 5850 N 569.068 1.32177 -0.85831 0
M  V30 5851 C 569.998 2.31282 -0.321041 0
M  V30 5852 C 570.979 1.59841 0.581786 0
M  V30 5853 O 572.164 1.87619 0.501262 0
M  V30 5854 C 569.294 3.4385 0.48832 0
M  V30 5855 C 568.248 4.26799 -0.320391 0
M  V30 5856 C 567.574 5.31164 0.613934 0
M  V30 5857 C 568.874 4.98829 -1.54813 0
M  V30 5858 H 570.568 2.76469 -1.14915 0
M  V30 5859 H 568.114 1.32916 -0.554028 0
M  V30 5860 H 570.067 4.12224 0.874626 0
M  V30 5861 H 568.791 2.97401 1.34983 0
M  V30 5862 H 567.45 3.60077 -0.688497 0
M  V30 5863 H 567.098 4.80967 1.47239 0
M  V30 5864 H 566.798 5.8755 0.0768097 0
M  V30 5865 H 568.322 6.024 0.997336 0
M  V30 5866 H 569.736 5.59864 -1.23392 0
M  V30 5867 H 568.133 5.64957 -2.02346 0
M  V30 5868 H 569.203 4.26483 -2.30739 0
M  V30 5869 N 570.547 0.616602 1.45037 0
M  V30 5870 C 571.793 0.115501 2.02471 0
M  V30 5871 C 572.126 -1.25406 1.4828 0
M  V30 5872 O 571.401 -1.82922 0.661051 0
M  V30 5873 C 571.684 0.0863588 3.59996 0
M  V30 5874 C 571.537 1.48723 4.24501 0
M  V30 5875 C 572.856 -0.596762 4.36035 0
M  V30 5876 H 569.975 0.0434461 0.735718 0
M  V30 5877 H 572.617 0.7903 1.72784 0
M  V30 5878 H 570.767 -0.488277 3.85419 0
M  V30 5879 H 572.439 2.10964 4.10234 0
M  V30 5880 H 570.682 2.04534 3.82555 0
M  V30 5881 H 571.353 1.419 5.3345 0
M  V30 5882 H 573.829 -0.10824 4.15959 0
M  V30 5883 H 572.705 -0.586289 5.4576 0
M  V30 5884 H 572.966 -1.66451 4.09569 0
M  V30 5885 N 572.025 -1.5352 0.356285 0
M  V30 5886 C 572.955 -2.28372 -0.486661 0
M  V30 5887 C 573.936 -1.30432 -1.09185 0
M  V30 5888 O 575.121 -1.59291 -1.11085 0
M  V30 5889 C 572.251 -3.06604 -1.63129 0
M  V30 5890 C 571.205 -4.12154 -1.15381 0
M  V30 5891 C 570.531 -4.78415 -2.38796 0
M  V30 5892 C 571.831 -5.21724 -0.245179 0
M  V30 5893 H 573.525 -2.99083 0.137797 0
M  V30 5894 H 571.071 -1.43841 0.0677134 0
M  V30 5895 H 573.024 -3.57712 -2.22755 0
M  V30 5896 H 571.748 -2.33568 -2.28284 0
M  V30 5897 H 570.407 -3.61978 -0.580294 0
M  V30 5898 H 570.055 -4.01959 -3.02387 0
M  V30 5899 H 569.755 -5.49734 -2.07524 0
M  V30 5900 H 571.279 -5.32313 -2.99125 0
M  V30 5901 H 572.693 -5.68391 -0.748646 0
M  V30 5902 H 571.09 -6.00095 -0.0237608 0
M  V30 5903 H 572.16 -4.79596 0.715229 0
M  V30 5904 N 573.503 -0.0852151 -1.57369 0
M  V30 5905 C 574.733 0.588605 -1.98038 0
M  V30 5906 C 575.141 1.62869 -0.962817 0
M  V30 5907 O 574.484 1.83611 0.057134 0
M  V30 5908 C 574.546 1.30303 -3.35054 0
M  V30 5909 C 574.21 0.414855 -4.55113 0
M  V30 5910 C 575.207 -0.333011 -5.18832 0
M  V30 5911 C 572.892 0.335804 -5.01176 0
M  V30 5912 C 574.886 -1.14801 -6.26976 0
M  V30 5913 C 572.573 -0.482857 -6.09189 0
M  V30 5914 C 573.571 -1.22342 -6.71953 0
M  V30 5915 O 573.259 -2.02855 -7.77885 0
M  V30 5916 H 572.991 0.163249 -0.655992 0
M  V30 5917 H 575.545 -0.1582 -2.0479 0
M  V30 5918 H 573.775 2.0962 -3.24956 0
M  V30 5919 H 575.464 1.87041 -3.60237 0
M  V30 5920 H 576.23 -0.281611 -4.84182 0
M  V30 5921 H 572.109 0.901869 -4.52092 0
M  V30 5922 H 575.653 -1.72654 -6.75897 0
M  V30 5923 H 571.55 -0.535773 -6.43273 0
M  V30 5924 H 572.318 -1.95432 -7.94826 0
M  V30 5925 N 574.981 1.5647 0.188427 0
M  V30 5926 C 576.228 1.81013 0.907779 0
M  V30 5927 C 576.556 0.65953 1.82977 0
M  V30 5928 O 575.811 -0.354308 1.92466 0
M  V30 5929 C 576.11 3.11596 1.7505 0
M  V30 5930 C 575.776 4.40145 0.978922 0
M  V30 5931 C 574.438 4.75066 0.765912 0
M  V30 5932 C 576.79 5.19369 0.436498 0
M  V30 5933 C 574.118 5.867 -0.00089868 0
M  V30 5934 C 576.47 6.31805 -0.317136 0
M  V30 5935 C 575.134 6.65303 -0.541103 0
M  V30 5936 H 574.404 0.662373 0.33218 0
M  V30 5937 H 577.051 1.9071 0.173732 0
M  V30 5938 H 575.356 2.97165 2.55343 0
M  V30 5939 H 577.053 3.27793 2.30983 0
M  V30 5940 H 573.643 4.12745 1.15497 0
M  V30 5941 H 577.827 4.92799 0.588449 0
M  V30 5942 H 573.083 6.11122 -0.184329 0
M  V30 5943 H 577.257 6.92406 -0.744788 0
M  V30 5944 H 574.884 7.51646 -1.13718 0
M  V30 5945 N 576.459 -0.456382 1.50847 0
M  V30 5946 C 577.705 -1.20914 1.62811 0
M  V30 5947 C 578.038 -1.91301 0.334304 0
M  V30 5948 O 577.313 -1.82775 -0.665098 0
M  V30 5949 C 577.596 -2.24122 2.81853 0
M  V30 5950 C 577.449 -1.57944 4.21158 0
M  V30 5951 C 578.768 -3.25295 2.96431 0
M  V30 5952 H 575.887 -0.438233 0.592554 0
M  V30 5953 H 578.529 -0.50091 1.83278 0
M  V30 5954 H 576.679 -2.84524 2.64534 0
M  V30 5955 H 578.351 -1.01025 4.50102 0
M  V30 5956 H 576.594 -0.882185 4.24735 0
M  V30 5957 H 577.265 -2.33014 5.00408 0
M  V30 5958 H 579.741 -2.7493 3.12335 0
M  V30 5959 H 578.617 -3.94822 3.81322 0
M  V30 5960 H 578.878 -3.90286 2.07676 0
M  V30 5961 N 577.937 -1.40673 -0.710563 0
M  V30 5962 C 579.186 -1.38525 -1.46607 0
M  V30 5963 C 579.499 0.0077024 -1.95598 0
M  V30 5964 O 580.705 0.151792 -2.71075 0
M  V30 5965 C 579.161 -2.43489 -2.6503 0
M  V30 5966 C 578.769 -3.88619 -2.22888 0
M  V30 5967 C 580.513 -2.50456 -3.42742 0
M  V30 5968 C 578.42 -4.85168 -3.3818 0
M  V30 5969 H 577.35 -0.515092 -0.550632 0
M  V30 5970 H 580.001 -1.66431 -0.772846 0
M  V30 5971 H 578.383 -2.0869 -3.36548 0
M  V30 5972 H 579.557 -4.32588 -1.58758 0
M  V30 5973 H 577.872 -3.85174 -1.58208 0
M  V30 5974 H 580.469 -3.19776 -4.28541 0
M  V30 5975 H 580.812 -1.53665 -3.86902 0
M  V30 5976 H 581.345 -2.84271 -2.78271 0
M  V30 5977 H 578.084 -5.8331 -2.99047 0
M  V30 5978 H 577.604 -4.4586 -4.01209 0
M  V30 5979 H 579.283 -5.05225 -4.04174 0
M  V30 5980 N 579.415 0.9433 -1.26252 0
M  V30 5981 C 580.325 2.07532 -1.09397 0
M  V30 5982 C 581.341 1.73977 -0.0280449 0
M  V30 5983 O 582.517 2.00067 -0.231337 0
M  V30 5984 C 579.582 3.39002 -0.726523 0
M  V30 5985 C 578.643 3.86353 -1.87163 0
M  V30 5986 C 577.876 5.11549 -1.52162 0
M  V30 5987 O 578.099 5.68834 -0.422385 0
M  V30 5988 O 577.033 5.53889 -2.35565 0
M  V30 5989 H 580.859 2.24658 -2.04359 0
M  V30 5990 H 578.444 1.05988 -1.05295 0
M  V30 5991 H 580.326 4.18 -0.534236 0
M  V30 5992 H 579.001 3.2312 0.193721 0
M  V30 5993 H 577.908 3.0831 -2.11886 0
M  V30 5994 H 579.241 4.06752 -2.77152 0
M  V30 5995 N 580.893 1.08022 1.14757 0
M  V30 5996 C 582.121 0.828847 1.89572 0
M  V30 5997 C 582.536 -0.618621 1.78377 0
M  V30 5998 O 581.893 -1.42482 1.1404 0
M  V30 5999 C 581.944 1.23677 3.39685 0
M  V30 6000 O 581.665 2.62746 3.50566 0
M  V30 6001 C 583.166 1.01569 4.31507 0
M  V30 6002 H 580.386 0.299196 0.600602 0
M  V30 6003 H 582.93 1.43846 1.45357 0
M  V30 6004 H 581.085 0.671347 3.81539 0
M  V30 6005 H 581.499 2.79573 4.43778 0
M  V30 6006 H 582.973 1.35055 5.35223 0
M  V30 6007 H 583.45 -0.0475433 4.39174 0
M  V30 6008 H 584.056 1.56636 3.95405 0
M  V30 6009 N 582.371 -1.3172 0.865308 0
M  V30 6010 C 583.618 -1.96876 0.473931 0
M  V30 6011 C 583.946 -1.68425 -0.972786 0
M  V30 6012 O 583.201 -0.970742 -1.69927 0
M  V30 6013 C 583.5 -3.5102 0.672283 0
M  V30 6014 C 583.166 -3.9948 2.09108 0
M  V30 6015 C 581.828 -4.12425 2.4791 0
M  V30 6016 C 584.18 -4.2503 3.0166 0
M  V30 6017 C 581.508 -4.48267 3.78515 0
M  V30 6018 C 583.86 -4.62335 4.31774 0
M  V30 6019 C 582.524 -4.73486 4.70497 0
M  V30 6020 H 581.794 -0.72042 0.173424 0
M  V30 6021 H 584.441 -1.56937 1.0974 0
M  V30 6022 H 582.746 -3.91785 -0.034356 0
M  V30 6023 H 584.443 -3.99475 0.349353 0
M  V30 6024 H 581.033 -3.89898 1.77981 0
M  V30 6025 H 585.217 -4.14529 2.7291 0
M  V30 6026 H 580.473 -4.55097 4.08285 0
M  V30 6027 H 584.647 -4.81058 5.03543 0
M  V30 6028 H 582.274 -5.01016 5.71741 0
M  V30 6029 N 583.85 -0.624285 -1.44708 0
M  V30 6030 C 585.096 -0.126237 -2.02407 0
M  V30 6031 C 585.428 1.24618 -1.48943 0
M  V30 6032 O 584.704 1.82569 -0.670742 0
M  V30 6033 C 584.986 -0.105449 -3.59946 0
M  V30 6034 C 584.84 -1.50972 -4.23707 0
M  V30 6035 C 586.159 0.573629 -4.36346 0
M  V30 6036 H 583.278 -0.0473472 -0.735478 0
M  V30 6037 H 585.92 -0.799452 -1.72362 0
M  V30 6038 H 584.07 0.46783 -3.85673 0
M  V30 6039 H 585.742 -2.13136 -4.0911 0
M  V30 6040 H 583.985 -2.0656 -3.81465 0
M  V30 6041 H 584.656 -1.44727 -5.32689 0
M  V30 6042 H 587.132 0.0861787 -4.16011 0
M  V30 6043 H 586.008 0.557338 -5.46063 0
M  V30 6044 H 586.269 1.64276 -4.10446 0
M  V30 6045 N 585.328 1.53329 -0.364422 0
M  V30 6046 C 586.574 2.01537 0.225969 0
M  V30 6047 C 586.907 1.25128 1.48515 0
M  V30 6048 O 586.182 0.344653 1.91422 0
M  V30 6049 C 586.465 3.56339 0.519092 0
M  V30 6050 C 586.318 4.43441 -0.753639 0
M  V30 6051 C 587.637 4.19833 1.32015 0
M  V30 6052 H 584.756 0.732573 0.0806548 0
M  V30 6053 H 587.398 1.83597 -0.489084 0
M  V30 6054 H 585.548 3.71756 1.12825 0
M  V30 6055 H 587.22 4.39823 -1.39116 0
M  V30 6056 H 585.463 4.11457 -1.37424 0
M  V30 6057 H 586.134 5.49699 -0.503517 0
M  V30 6058 H 588.61 4.08242 0.804859 0
M  V30 6059 H 587.486 5.28177 1.49399 0
M  V30 6060 H 587.747 3.75821 2.32832 0
M  V30 6061 N 586.806 0.0935595 1.57322 0
M  V30 6062 C 587.716 -0.880192 2.17462 0
M  V30 6063 C 588.732 -1.31135 1.14366 0
M  V30 6064 O 589.908 -1.37958 1.46729 0
M  V30 6065 C 586.973 -2.12184 2.74188 0
M  V30 6066 C 586.034 -1.74503 3.92234 0
M  V30 6067 C 585.267 -2.92748 4.46245 0
M  V30 6068 O 585.49 -4.07427 3.99198 0
M  V30 6069 O 584.424 -2.71303 5.37288 0
M  V30 6070 H 588.25 -0.398516 3.01074 0
M  V30 6071 H 585.835 -0.130707 1.48827 0
M  V30 6072 H 587.717 -2.84953 3.10451 0
M  V30 6073 H 586.392 -2.59407 1.93623 0
M  V30 6074 H 585.299 -0.989186 3.60785 0
M  V30 6075 H 586.632 -1.32044 4.74157 0
M  V30 6076 N 588.284 -1.56567 -0.180126 0
M  V30 6077 C 589.532 -1.81133 -0.896392 0
M  V30 6078 C 589.853 -0.669114 -1.83161 0
M  V30 6079 O 589.123 0.311616 -1.93406 0
M  V30 6080 H 587.703 -0.668172 -0.333999 0
M  V30 6081 H 590.365 -1.94048 -0.182051 0
M  V30 6082 H 589.461 -2.74854 -1.47857 0
M  V30 6083 N 589.762 0.448376 -1.51087 0
M  V30 6084 C 591.178 0.783984 -1.39017 0
M  V30 6085 C 591.378 1.96087 -0.463904 0
M  V30 6086 O 590.434 2.52357 0.0850534 0
M  V30 6087 C 591.747 1.07471 -2.80839 0
M  V30 6088 C 593.295 1.17981 -2.89913 0
M  V30 6089 C 593.77 1.50354 -4.32617 0
M  V30 6090 N 595.261 1.57301 -4.35673 0
M  V30 6091 C 595.996 1.839 -5.4311 0
M  V30 6092 N 595.492 2.08365 -6.60724 0
M  V30 6093 N 597.285 1.8559 -5.30578 0
M  V30 6094 H 589.436 -0.326881 -2.0987 0
M  V30 6095 H 591.699 -0.0838006 -0.944289 0
M  V30 6096 H 591.405 0.282768 -3.50561 0
M  V30 6097 H 591.279 2.00519 -3.19487 0
M  V30 6098 H 593.666 1.9624 -2.20395 0
M  V30 6099 H 593.747 0.228603 -2.54776 0
M  V30 6100 H 593.391 0.726273 -5.0268 0
M  V30 6101 H 593.321 2.46663 -4.65258 0
M  V30 6102 H 595.812 1.40342 -3.50874 0
M  V30 6103 H 596.125 2.27999 -7.38401 0
M  V30 6104 H 594.47 2.0571 -6.63859 0
M  V30 6105 H 597.661 1.65989 -4.37682 0
M  V30 6106 H 597.834 2.05983 -6.1439 0
M  V30 6107 N 591.24 1.41047 0.703093 0
M  V30 6108 C 592.468 1.4334 1.49202 0
M  V30 6109 C 592.883 0.0365596 1.88765 0
M  V30 6110 O 592.24 -0.942419 1.56284 0
M  V30 6111 C 592.291 2.33538 2.75939 0
M  V30 6112 O 592.012 3.67786 2.38045 0
M  V30 6113 C 593.513 2.44555 3.6974 0
M  V30 6114 H 590.733 0.488472 0.460039 0
M  V30 6115 H 593.277 1.85245 0.86629 0
M  V30 6116 H 591.432 1.94962 3.34766 0
M  V30 6117 H 591.846 4.15816 3.19683 0
M  V30 6118 H 593.32 3.11849 4.55471 0
M  V30 6119 H 593.797 1.47447 4.1371 0
M  V30 6120 H 594.403 2.83735 3.16819 0
M  V30 6121 N 592.718 -0.936591 1.26751 0
M  V30 6122 C 593.964 -1.68625 1.13741 0
M  V30 6123 C 594.319 -1.898 -0.315221 0
M  V30 6124 O 593.612 -1.47088 -1.22783 0
M  V30 6125 C 593.806 -3.06099 1.84494 0
M  V30 6126 C 593.635 -2.98338 3.36488 0
M  V30 6127 C 592.405 -3.01104 4.05789 0
M  V30 6128 C 594.603 -2.78128 4.32608 0
M  V30 6129 N 592.585 -2.8369 5.4442 0
M  V30 6130 C 593.956 -2.69329 5.58446 0
M  V30 6131 C 596.011 -2.62946 4.22804 0
M  V30 6132 C 594.714 -2.46899 6.75598 0
M  V30 6133 C 596.74 -2.41892 5.39669 0
M  V30 6134 C 596.102 -2.33829 6.64457 0
M  V30 6135 H 592.201 -0.624227 0.471025 0
M  V30 6136 H 594.785 -1.10798 1.601 0
M  V30 6137 H 592.956 -3.62057 1.40604 0
M  V30 6138 H 594.688 -3.69951 1.64067 0
M  V30 6139 H 591.443 -3.10992 3.57185 0
M  V30 6140 H 591.867 -2.78138 6.17226 0
M  V30 6141 H 596.509 -2.67944 3.27056 0
M  V30 6142 H 594.227 -2.40642 7.71438 0
M  V30 6143 H 597.813 -2.31043 5.33957 0
M  V30 6144 H 596.693 -2.17754 7.53361 0
M  V30 6145 N 594.196 -1.08629 -1.14182 0
M  V30 6146 C 595.126 -0.740003 -2.21464 0
M  V30 6147 C 596.107 0.278591 -1.67803 0
M  V30 6148 O 597.292 0.148461 -1.93632 0
M  V30 6149 C 594.422 -0.150952 -3.46972 0
M  V30 6150 C 593.376 -1.09815 -4.13672 0
M  V30 6151 C 592.702 -0.3712 -5.3341 0
M  V30 6152 C 594.002 -2.43722 -4.61949 0
M  V30 6153 H 595.696 -1.63697 -2.50686 0
M  V30 6154 H 593.242 -0.788526 -1.20492 0
M  V30 6155 H 595.195 0.103325 -4.21273 0
M  V30 6156 H 593.919 0.781164 -3.1712 0
M  V30 6157 H 592.578 -1.33756 -3.41328 0
M  V30 6158 H 592.226 0.564792 -4.99819 0
M  V30 6159 H 591.926 -1.00267 -5.78982 0
M  V30 6160 H 593.45 -0.12503 -6.10472 0
M  V30 6161 H 594.864 -2.24034 -5.27714 0
M  V30 6162 H 593.261 -3.02582 -5.18232 0
M  V30 6163 H 594.331 -3.05082 -3.76899 0
M  V30 6164 N 595.674 1.31259 -0.872281 0
M  V30 6165 C 596.637 2.26744 -0.334656 0
M  V30 6166 C 597.637 1.52307 0.515681 0
M  V30 6167 O 598.827 1.71148 0.324656 0
M  V30 6168 C 595.959 3.36841 0.524482 0
M  V30 6169 H 597.152 2.75812 -1.17762 0
M  V30 6170 H 594.705 1.42232 -0.648064 0
M  V30 6171 H 595.44 2.93069 1.38855 0
M  V30 6172 H 595.225 3.92009 -0.0844299 0
M  V30 6173 H 596.715 4.07944 0.892838 0
M  V30 6174 N 597.152 0.631951 1.44375 0
M  V30 6175 C 598.062 -0.073674 2.34484 0
M  V30 6176 C 599.078 -0.834825 1.52665 0
M  V30 6177 O 600.254 -0.786902 1.85391 0
M  V30 6178 C 597.319 -1.04247 3.30656 0
M  V30 6179 C 596.38 -0.280602 4.28382 0
M  V30 6180 C 595.613 -1.20325 5.19959 0
M  V30 6181 O 595.836 -2.44199 5.15484 0
M  V30 6182 O 594.77 -0.687128 5.97965 0
M  V30 6183 H 598.596 0.667477 2.96274 0
M  V30 6184 H 596.181 0.392144 1.44162 0
M  V30 6185 H 598.063 -1.59981 3.89851 0
M  V30 6186 H 596.738 -1.76422 2.71398 0
M  V30 6187 H 595.645 0.319804 3.72731 0
M  V30 6188 H 596.978 0.401144 4.90563 0
M  V30 6189 N 598.631 -1.53133 0.372548 0
M  V30 6190 C 599.871 -2.03267 -0.214943 0
M  V30 6191 C 600.235 -1.25362 -1.45425 0
M  V30 6192 O 601.436 -1.65536 -2.11781 0
M  V30 6193 C 599.707 -3.53985 -0.492897 0
M  V30 6194 S 601.266 -4.25977 -1.05307 0
M  V30 6195 H 598.084 -0.708289 -0.062029 0
M  V30 6196 H 600.686 -1.88539 0.517025 0
M  V30 6197 H 599.39 -4.08282 0.416442 0
M  V30 6198 H 598.921 -3.72887 -1.25375 0
M  V30 6199 H 600.936 -4.37731 -2.33679 0
M  V30 6200 N 600.109 -0.101901 -1.5727 0
M  V30 6201 C 601.337 0.568392 -1.98939 0
M  V30 6202 C 601.752 1.61301 -0.981194 0
M  V30 6203 O 601.109 1.82478 0.0282869 0
M  V30 6204 C 601.16 1.20997 -3.40649 0
M  V30 6205 O 600.881 0.207129 -4.3761 0
M  V30 6206 C 602.382 1.96523 -3.97358 0
M  V30 6207 H 599.602 0.15186 -0.65359 0
M  V30 6208 H 602.146 -0.183198 -2.03678 0
M  V30 6209 H 600.301 1.91245 -3.36904 0
M  V30 6210 H 600.715 0.671071 -5.20189 0
M  V30 6211 H 602.189 2.36764 -4.98645 0
M  V30 6212 H 602.666 2.83376 -3.35552 0
M  V30 6213 H 603.272 1.31076 -4.04598 0
M  V30 6214 N 601.587 1.56661 0.17182 0
M  V30 6215 C 602.998 1.71652 0.734329 0
M  V30 6216 C 603.349 0.712335 1.82812 0
M  V30 6217 O 602.474 -0.126401 2.16031 0
M  V30 6218 C 603.069 3.11226 1.3388 0
M  V30 6219 C 601.628 3.27904 1.84813 0
M  V30 6220 C 600.775 2.67603 0.726917 0
M  V30 6221 H 603.726 1.5861 -0.0535665 0
M  V30 6222 H 603.747 3.09849 2.20849 0
M  V30 6223 H 603.259 3.8429 0.54249 0
M  V30 6224 H 601.36 2.59796 2.6709 0
M  V30 6225 H 601.473 4.35637 1.99392 0
M  V30 6226 H 599.837 2.274 1.14723 0
M  V30 6227 H 600.62 3.43252 -0.0575334 0
M  V30 6228 N 603.065 -0.440357 1.51323 0
M  V30 6229 C 604.311 -1.19181 1.64085 0
M  V30 6230 C 604.644 -1.90936 0.354575 0
M  V30 6231 O 603.919 -1.8347 -0.645675 0
M  V30 6232 C 604.202 -2.2112 2.84215 0
M  V30 6233 C 604.055 -1.53468 4.22809 0
M  V30 6234 C 605.374 -3.22133 2.99864 0
M  V30 6235 H 602.493 -0.431924 0.597169 0
M  V30 6236 H 605.135 -0.481443 1.83799 0
M  V30 6237 H 603.285 -2.81703 2.67537 0
M  V30 6238 H 604.957 -0.962455 4.51148 0
M  V30 6239 H 603.2 -0.837086 4.25647 0
M  V30 6240 H 603.871 -2.27694 5.02852 0
M  V30 6241 H 606.347 -2.71601 3.15233 0
M  V30 6242 H 605.223 -3.90756 3.85488 0
M  V30 6243 H 605.484 -3.88061 2.11804 0
M  V30 6244 N 604.543 -1.41418 -0.695603 0
M  V30 6245 C 605.773 -1.43921 -1.48224 0
M  V30 6246 C 606.181 -0.0428855 -1.89151 0
M  V30 6247 O 605.524 0.948138 -1.5734 0
M  V30 6248 C 605.586 -2.28466 -2.77567 0
M  V30 6249 C 605.25 -3.76629 -2.58844 0
M  V30 6250 C 606.247 -4.6879 -2.24793 0
M  V30 6251 C 603.932 -4.2067 -2.74485 0
M  V30 6252 C 605.926 -6.02981 -2.06622 0
M  V30 6253 C 603.613 -5.54926 -2.55931 0
M  V30 6254 C 604.611 -6.45897 -2.2205 0
M  V30 6255 O 604.299 -7.77675 -2.03657 0
M  V30 6256 H 604.031 -0.492252 -0.463318 0
M  V30 6257 H 606.585 -1.86347 -0.863952 0
M  V30 6258 H 604.815 -1.80853 -3.41802 0
M  V30 6259 H 606.504 -2.2267 -3.39371 0
M  V30 6260 H 607.27 -4.36055 -2.12323 0
M  V30 6261 H 603.149 -3.50167 -2.9984 0
M  V30 6262 H 606.693 -6.73951 -1.80099 0
M  V30 6263 H 602.59 -5.8724 -2.67991 0
M  V30 6264 H 603.358 -7.88819 -2.1842 0
M  V30 6265 N 606.021 0.929856 -1.27246 0
M  V30 6266 C 607.267 1.6798 -1.13625 0
M  V30 6267 C 607.6 1.91586 0.317589 0
M  V30 6268 O 606.875 1.50467 1.23247 0
M  V30 6269 C 607.158 3.04766 -1.91806 0
M  V30 6270 C 607.011 2.88415 -3.45162 0
M  V30 6271 C 608.33 4.05063 -1.72082 0
M  V30 6272 H 605.449 0.609632 -0.414147 0
M  V30 6273 H 608.091 1.0792 -1.56376 0
M  V30 6274 H 606.241 3.56034 -1.55474 0
M  V30 6275 H 607.913 2.44282 -3.91311 0
M  V30 6276 H 606.156 2.23802 -3.71611 0
M  V30 6277 H 606.827 3.85482 -3.95105 0
M  V30 6278 H 609.303 3.62798 -2.03757 0
M  V30 6279 H 608.179 4.98765 -2.29182 0
M  V30 6280 H 608.44 4.37021 -0.668206 0
M  V30 6281 N 607.499 1.09233 1.13605 0
M  V30 6282 C 608.431 0.687794 2.18637 0
M  V30 6283 C 609.444 -0.26936 1.60556 0
M  V30 6284 O 610.633 -0.0557162 1.78413 0
M  V30 6285 C 607.733 -0.00751901 3.38899 0
M  V30 6286 C 606.906 0.97067 4.26494 0
M  V30 6287 C 605.965 0.309129 5.25291 0
M  V30 6288 O 604.991 0.956149 5.61112 0
M  V30 6289 N 606.193 -0.937555 5.72879 0
M  V30 6290 H 608.958 1.59141 2.53957 0
M  V30 6291 H 606.519 0.979515 1.28907 0
M  V30 6292 H 608.511 -0.461238 4.02063 0
M  V30 6293 H 607.081 -0.813353 3.01833 0
M  V30 6294 H 606.301 1.603 3.60135 0
M  V30 6295 H 607.589 1.63323 4.81875 0
M  V30 6296 H 606.987 -1.48281 5.4592 0
M  V30 6297 H 605.544 -1.33463 6.3799 0
M  V30 6298 N 608.977 -1.30795 0.87923 0
M  V30 6299 C 610.207 -2.00237 0.50881 0
M  V30 6300 C 610.615 -1.66115 -0.905682 0
M  V30 6301 O 609.958 -0.89138 -1.60624 0
M  V30 6302 C 610.02 -3.54508 0.597003 0
M  V30 6303 C 609.684 -4.12131 1.97477 0
M  V30 6304 C 610.681 -4.28552 2.94346 0
M  V30 6305 C 608.366 -4.47644 2.2786 0
M  V30 6306 C 610.36 -4.79689 4.19735 0
M  V30 6307 C 608.047 -4.98481 3.53496 0
M  V30 6308 C 609.045 -5.14456 4.49248 0
M  V30 6309 O 608.733 -5.64199 5.72656 0
M  V30 6310 H 608.465 -0.647026 0.195788 0
M  V30 6311 H 611.019 -1.67785 1.1848 0
M  V30 6312 H 609.249 -3.86461 -0.135945 0
M  V30 6313 H 610.938 -4.05198 0.238684 0
M  V30 6314 H 611.704 -4.01424 2.72183 0
M  V30 6315 H 607.583 -4.34481 1.54102 0
M  V30 6316 H 611.127 -4.92073 4.9448 0
M  V30 6317 H 607.024 -5.25044 3.75498 0
M  V30 6318 H 607.792 -5.82551 5.74957 0
M  V30 6319 N 610.455 -0.639598 -1.44038 0
M  V30 6320 C 611.702 -0.14748 -2.01962 0
M  V30 6321 C 612.03 1.23372 -1.50365 0
M  V30 6322 O 611.285 1.8345 -0.681501 0
M  V30 6323 C 611.584 -0.0925348 -3.5728 0
M  V30 6324 C 611.25 -1.41365 -4.28167 0
M  V30 6325 C 609.912 -1.77545 -4.47248 0
M  V30 6326 C 612.264 -2.2853 -4.68427 0
M  V30 6327 C 609.592 -3.00583 -5.03852 0
M  V30 6328 C 611.944 -3.50846 -5.26393 0
M  V30 6329 C 610.608 -3.8724 -5.43692 0
M  V30 6330 H 609.878 -0.0539666 -0.739032 0
M  V30 6331 H 612.525 -0.827599 -1.72694 0
M  V30 6332 H 610.83 0.670987 -3.86012 0
M  V30 6333 H 612.527 0.304891 -3.99839 0
M  V30 6334 H 609.117 -1.1221 -4.13651 0
M  V30 6335 H 613.301 -2.0187 -4.5339 0
M  V30 6336 H 608.557 -3.28846 -5.15432 0
M  V30 6337 H 612.731 -4.18616 -5.56537 0
M  V30 6338 H 610.358 -4.8266 -5.87319 0
M  V30 6339 N 611.933 1.52934 -0.380664 0
M  V30 6340 C 613.179 2.01765 0.20458 0
M  V30 6341 C 613.512 1.26696 1.47179 0
M  V30 6342 O 612.787 0.364936 1.91046 0
M  V30 6343 C 613.07 3.56869 0.481269 0
M  V30 6344 C 612.923 4.42617 -0.800629 0
M  V30 6345 C 614.242 4.2121 1.27554 0
M  V30 6346 H 611.361 0.733388 0.0728803 0
M  V30 6347 H 614.003 1.83068 -0.50853 0
M  V30 6348 H 612.153 3.72932 1.08875 0
M  V30 6349 H 613.825 4.38323 -1.43773 0
M  V30 6350 H 612.068 4.09977 -1.4178 0
M  V30 6351 H 612.739 5.49134 -0.561791 0
M  V30 6352 H 615.215 4.09072 0.761514 0
M  V30 6353 H 614.091 5.29732 1.43788 0
M  V30 6354 H 614.352 3.78269 2.28833 0
M  V30 6355 N 613.412 0.11024 1.57214 0
M  V30 6356 C 614.359 -0.843195 2.14846 0
M  V30 6357 C 615.329 -1.26954 1.07107 0
M  V30 6358 O 616.514 -1.34861 1.34971 0
M  V30 6359 C 613.654 -2.09123 2.74521 0
M  V30 6360 C 612.767 -1.71404 3.96541 0
M  V30 6361 C 611.902 -2.91107 4.44331 0
M  V30 6362 C 610.941 -2.49586 5.58903 0
M  V30 6363 N 610.078 -3.62175 6.01477 0
M  V30 6364 H 614.918 -0.344886 2.95998 0
M  V30 6365 H 612.455 -0.15855 1.46243 0
M  V30 6366 H 614.413 -2.82234 3.07246 0
M  V30 6367 H 613.043 -2.56427 1.96074 0
M  V30 6368 H 612.095 -0.88201 3.70033 0
M  V30 6369 H 613.407 -1.36884 4.7965 0
M  V30 6370 H 612.561 -3.72454 4.78919 0
M  V30 6371 H 611.3 -3.28848 3.60153 0
M  V30 6372 H 610.305 -1.6667 5.23929 0
M  V30 6373 H 611.53 -2.12973 6.4484 0
M  V30 6374 H 609.476 -3.99605 5.20242 0
M  V30 6375 H 609.393 -3.3155 6.79419 0
M  V30 6376 H 610.661 -4.43987 6.407 0
M  V30 6377 N 614.89 -1.56749 -0.16351 0
M  V30 6378 C 616.137 -1.82434 -0.878866 0
M  V30 6379 C 616.465 -0.688557 -1.81904 0
M  V30 6380 O 615.72 0.323644 -1.93005 0
M  V30 6381 C 616.019 -3.14342 -1.70071 0
M  V30 6382 C 615.685 -4.41647 -0.908775 0
M  V30 6383 C 614.347 -4.76224 -0.690236 0
M  V30 6384 C 616.699 -5.19998 -0.353815 0
M  V30 6385 C 614.027 -5.86624 0.0942374 0
M  V30 6386 C 616.379 -6.3122 0.41761 0
M  V30 6387 C 615.043 -6.64358 0.646879 0
M  V30 6388 H 614.313 -0.667574 -0.3216 0
M  V30 6389 H 616.96 -1.90963 -0.14337 0
M  V30 6390 H 615.265 -3.0119 -2.50583 0
M  V30 6391 H 616.962 -3.31426 -2.25738 0
M  V30 6392 H 613.552 -4.1453 -1.08916 0
M  V30 6393 H 617.736 -4.93673 -0.509975 0
M  V30 6394 H 612.992 -6.10751 0.281529 0
M  V30 6395 H 617.166 -6.91133 0.854849 0
M  V30 6396 H 614.793 -7.49742 1.25662 0
M  V30 6397 N 616.368 0.432326 -1.51554 0
M  V30 6398 C 617.615 1.18134 -1.64471 0
M  V30 6399 C 617.943 1.91076 -0.363349 0
M  V30 6400 O 617.198 1.84492 0.65279 0
M  V30 6401 C 617.497 2.21907 -2.80164 0
M  V30 6402 C 617.163 1.65941 -4.19255 0
M  V30 6403 C 615.825 1.50401 -4.57092 0
M  V30 6404 C 618.177 1.24843 -5.06027 0
M  V30 6405 C 615.505 0.922443 -5.79403 0
M  V30 6406 C 617.857 0.68113 -6.28922 0
M  V30 6407 C 616.521 0.512673 -6.65528 0
M  V30 6408 H 615.791 0.432283 -0.601841 0
M  V30 6409 H 618.438 0.471701 -1.856 0
M  V30 6410 H 616.743 2.98928 -2.53277 0
M  V30 6411 H 618.44 2.79691 -2.87357 0
M  V30 6412 H 615.03 1.79014 -3.89425 0
M  V30 6413 H 619.214 1.35667 -4.77397 0
M  V30 6414 H 614.47 0.779733 -6.06408 0
M  V30 6415 H 618.644 0.35418 -6.95499 0
M  V30 6416 H 616.271 0.0599084 -7.60176 0
M  V30 6417 N 617.846 1.41785 0.688094 0
M  V30 6418 C 619.095 1.4084 1.44385 0
M  V30 6419 C 619.408 0.0234166 1.95586 0
M  V30 6420 O 620.614 -0.108647 2.71283 0
M  V30 6421 C 619.07 2.47675 2.61123 0
M  V30 6422 C 618.678 3.92116 2.16677 0
M  V30 6423 C 620.422 2.55877 3.38714 0
M  V30 6424 C 618.329 4.90487 3.30419 0
M  V30 6425 H 617.259 0.523787 0.542368 0
M  V30 6426 H 619.91 1.6764 0.74627 0
M  V30 6427 H 618.292 2.14018 3.33185 0
M  V30 6428 H 619.466 4.35059 1.51856 0
M  V30 6429 H 617.781 3.87642 1.5206 0
M  V30 6430 H 620.378 3.26553 4.234 0
M  V30 6431 H 620.721 1.59801 3.84408 0
M  V30 6432 H 621.254 2.88662 2.73714 0
M  V30 6433 H 617.993 5.87994 2.89729 0
M  V30 6434 H 617.513 4.52187 3.94065 0
M  V30 6435 H 619.192 5.11591 3.96085 0
M  V30 6436 N 619.324 -0.923095 1.27737 0
M  V30 6437 C 620.573 -1.66581 1.13727 0
M  V30 6438 C 620.886 -1.9304 -0.315433 0
M  V30 6439 O 622.092 -2.65309 -0.57651 0
M  V30 6440 C 620.548 -3.00047 1.98745 0
M  V30 6441 C 620.156 -2.8127 3.48699 0
M  V30 6442 C 621.9 -3.77887 1.93395 0
M  V30 6443 C 619.807 -4.1032 4.25901 0
M  V30 6444 H 618.737 -0.624834 0.422017 0
M  V30 6445 H 621.388 -1.02514 1.52194 0
M  V30 6446 H 619.77 -3.65197 1.53125 0
M  V30 6447 H 620.944 -2.24859 4.02213 0
M  V30 6448 H 619.259 -2.16854 3.55476 0
M  V30 6449 H 621.856 -4.73526 2.48348 0
M  V30 6450 H 622.199 -4.06264 0.908605 0
M  V30 6451 H 622.732 -3.19541 2.36935 0
M  V30 6452 H 619.471 -3.8712 5.28978 0
M  V30 6453 H 618.991 -4.66377 3.77163 0
M  V30 6454 H 620.67 -4.78648 4.35321 0
M  V30 6455 N 620.802 -1.09834 -1.13024 0
M  V30 6456 C 622.05 -0.835297 -1.8403 0
M  V30 6457 C 622.371 0.640944 -1.84165 0
M  V30 6458 O 621.641 1.46517 -1.30037 0
M  V30 6459 H 620.221 -0.306018 -0.681441 0
M  V30 6460 H 622.883 -1.38734 -1.36891 0
M  V30 6461 H 621.979 -1.19258 -2.88416 0
M  V30 6462 N 622.28 1.30327 -0.886154 0
M  V30 6463 C 623.526 1.96388 -0.505941 0
M  V30 6464 C 623.859 1.69784 0.942712 0
M  V30 6465 O 623.134 1.00322 1.6663 0
M  V30 6466 C 623.417 3.51488 -0.782826 0
M  V30 6467 C 623.27 3.87603 -2.28219 0
M  V30 6468 C 624.589 4.39331 -0.260128 0
M  V30 6469 H 621.708 0.713327 -0.185292 0
M  V30 6470 H 624.35 1.54178 -1.11036 0
M  V30 6471 H 622.5 3.87572 -0.268399 0
M  V30 6472 H 624.172 3.61537 -2.86512 0
M  V30 6473 H 622.415 3.3563 -2.74837 0
M  V30 6474 H 623.086 4.95806 -2.42653 0
M  V30 6475 H 625.562 4.10162 -0.700444 0
M  V30 6476 H 624.438 5.46769 -0.483179 0
M  V30 6477 H 624.699 4.34072 0.838674 0
M  V30 6478 N 623.758 0.647228 1.43697 0
M  V30 6479 C 624.986 0.16575 2.06235 0
M  V30 6480 C 625.401 -1.1662 1.48476 0
M  V30 6481 O 624.758 -1.7187 0.613762 0
M  V30 6482 C 624.809 0.0621651 3.61447 0
M  V30 6483 O 624.53 1.34146 4.17057 0
M  V30 6484 C 626.031 -0.446102 4.4105 0
M  V30 6485 H 623.251 0.0871158 0.665321 0
M  V30 6486 H 625.795 0.886183 1.84301 0
M  V30 6487 H 623.95 -0.608794 3.82587 0
M  V30 6488 H 624.364 1.19675 5.10664 0
M  V30 6489 H 625.838 -0.46755 5.50016 0
M  V30 6490 H 626.315 -1.47627 4.13646 0
M  V30 6491 H 626.921 0.192159 4.24866 0
M  V30 6492 N 625.236 -1.5273 0.388769 0
M  V30 6493 C 626.482 -2.01871 -0.193877 0
M  V30 6494 C 626.815 -1.27475 -1.46505 0
M  V30 6495 O 626.09 -0.375063 -1.90849 0
M  V30 6496 C 626.373 -3.5712 -0.462336 0
M  V30 6497 C 626.226 -4.42186 0.824091 0
M  V30 6498 C 627.545 -4.21881 -1.25319 0
M  V30 6499 H 624.664 -0.733764 -0.0689899 0
M  V30 6500 H 627.306 -1.82796 0.518231 0
M  V30 6501 H 625.456 -3.73504 -1.06896 0
M  V30 6502 H 627.128 -4.37554 1.46096 0
M  V30 6503 H 625.371 -4.09219 1.43952 0
M  V30 6504 H 626.042 -5.48828 0.590905 0
M  V30 6505 H 628.518 -4.0947 -0.73981 0
M  V30 6506 H 627.394 -5.30487 -1.40977 0
M  V30 6507 H 627.655 -3.79478 -2.26824 0
M  V30 6508 N 626.714 -0.118576 -1.57153 0
M  V30 6509 C 627.644 0.828436 -2.1831 0
M  V30 6510 C 628.625 1.27758 -1.12303 0
M  V30 6511 O 629.81 1.34026 -1.40537 0
M  V30 6512 C 626.94 2.07876 -2.78217 0
M  V30 6513 C 625.894 1.76742 -3.89803 0
M  V30 6514 C 625.22 3.08801 -4.36516 0
M  V30 6515 C 626.52 1.03606 -5.11921 0
M  V30 6516 H 628.214 0.318824 -2.97698 0
M  V30 6517 H 625.76 0.151911 -1.43196 0
M  V30 6518 H 627.713 2.74584 -3.19659 0
M  V30 6519 H 626.437 2.61161 -1.96118 0
M  V30 6520 H 625.096 1.12424 -3.48936 0
M  V30 6521 H 624.744 3.6002 -3.51276 0
M  V30 6522 H 624.444 2.88743 -5.11763 0
M  V30 6523 H 625.968 3.76627 -4.80608 0
M  V30 6524 H 627.382 1.60467 -5.50385 0
M  V30 6525 H 625.779 0.936454 -5.92748 0
M  V30 6526 H 626.849 0.0227421 -4.84895 0
M  V30 6527 N 628.193 1.56834 0.155195 0
M  V30 6528 C 629.439 1.83169 0.870467 0
M  V30 6529 C 629.772 0.698929 1.81187 0
M  V30 6530 O 629.047 -0.298035 1.92203 0
M  V30 6531 C 629.33 3.19965 1.65211 0
M  V30 6532 C 629.183 4.43792 0.732744 0
M  V30 6533 C 630.502 3.53885 2.61636 0
M  V30 6534 H 627.621 0.666288 0.315006 0
M  V30 6535 H 630.263 1.89513 0.135988 0
M  V30 6536 H 628.413 3.14687 2.27825 0
M  V30 6537 H 630.085 4.61148 0.118236 0
M  V30 6538 H 628.328 4.3378 0.0417906 0
M  V30 6539 H 628.999 5.36095 1.31552 0
M  V30 6540 H 631.475 3.5972 2.09143 0
M  V30 6541 H 630.351 4.50648 3.13381 0
M  V30 6542 H 630.612 2.79418 3.42605 0
M  V30 6543 N 629.671 -0.424282 1.51781 0
M  V30 6544 C 630.917 -1.17434 1.6534 0
M  V30 6545 C 631.25 -1.90549 0.374806 0
M  V30 6546 O 630.525 -1.84145 -0.626179 0
M  V30 6547 C 630.808 -2.18093 2.86544 0
M  V30 6548 C 630.661 -1.48975 4.24413 0
M  V30 6549 C 631.98 -3.18934 3.03264 0
M  V30 6550 H 629.099 -0.425566 0.601716 0
M  V30 6551 H 631.741 -0.461921 1.84299 0
M  V30 6552 H 629.891 -2.78849 2.7051 0
M  V30 6553 H 631.563 -0.914551 4.52143 0
M  V30 6554 H 629.806 -0.791893 4.26511 0
M  V30 6555 H 630.477 -2.22347 5.05238 0
M  V30 6556 H 632.953 -2.68243 3.18096 0
M  V30 6557 H 631.829 -3.86645 3.89611 0
M  V30 6558 H 632.09 -3.85793 2.15908 0
M  V30 6559 N 631.149 -1.42148 -0.680565 0
M  V30 6560 C 632.112 -1.4488 -1.77602 0
M  V30 6561 C 633.112 -0.337209 -1.57224 0
M  V30 6562 O 634.302 -0.597778 -1.63622 0
M  V30 6563 C 631.434 -1.27483 -3.16166 0
M  V30 6564 H 632.627 -2.42412 -1.76568 0
M  V30 6565 H 630.18 -1.28511 -0.889645 0
M  V30 6566 H 630.915 -0.30851 -3.22829 0
M  V30 6567 H 630.7 -2.08037 -3.3236 0
M  V30 6568 H 632.19 -1.32265 -3.96101 0
M  V30 6569 N 632.627 0.916307 -1.28225 0
M  V30 6570 C 633.873 1.66765 -1.154 0
M  V30 6571 C 634.206 1.91912 0.297251 0
M  V30 6572 O 633.481 1.51766 1.21644 0
M  V30 6573 C 633.764 3.02715 -1.95028 0
M  V30 6574 C 633.617 2.84738 -3.48201 0
M  V30 6575 C 634.936 4.03215 -1.76369 0
M  V30 6576 H 632.055 0.605205 -0.42059 0
M  V30 6577 H 634.697 1.06255 -1.57512 0
M  V30 6578 H 632.847 3.54365 -1.59242 0
M  V30 6579 H 634.519 2.40118 -3.9388 0
M  V30 6580 H 632.762 2.19848 -3.73964 0
M  V30 6581 H 633.433 3.8127 -3.99171 0
M  V30 6582 H 635.909 3.60617 -2.07593 0
M  V30 6583 H 634.785 4.96306 -2.34459 0
M  V30 6584 H 635.046 4.36288 -0.71452 0
M  V30 6585 N 634.105 1.10431 1.1244 0
M  V30 6586 C 635.516 0.864439 1.65482 0
M  V30 6587 C 635.867 -0.60527 1.8663 0
M  V30 6588 O 634.992 -1.46492 1.59276 0
M  V30 6589 C 635.587 1.56267 3.0061 0
M  V30 6590 C 634.146 1.3695 3.50602 0
M  V30 6591 C 633.293 1.61209 2.25626 0
M  V30 6592 H 636.244 1.26203 0.962209 0
M  V30 6593 H 636.265 1.00166 3.67079 0
M  V30 6594 H 635.777 2.63231 2.85186 0
M  V30 6595 H 633.878 0.321481 3.71211 0
M  V30 6596 H 633.991 2.11143 4.30064 0
M  V30 6597 H 632.355 1.03482 2.32731 0
M  V30 6598 H 633.138 2.69425 2.12756 0
M  V30 6599 N 635.583 -1.29855 0.893053 0
M  V30 6600 C 636.493 -2.31661 0.370157 0
M  V30 6601 C 637.509 -1.65677 -0.531723 0
M  V30 6602 O 638.685 -1.9691 -0.422902 0
M  V30 6603 C 635.75 -3.44388 -0.399741 0
M  V30 6604 C 634.811 -4.2598 0.532861 0
M  V30 6605 C 634.044 -5.33324 -0.200388 0
M  V30 6606 O 634.267 -5.52305 -1.42531 0
M  V30 6607 O 633.201 -6.00188 0.453668 0
M  V30 6608 H 637.027 -2.78354 1.2146 0
M  V30 6609 H 634.612 -1.34171 0.657153 0
M  V30 6610 H 636.494 -4.13037 -0.835358 0
M  V30 6611 H 635.169 -2.99815 -1.22035 0
M  V30 6612 H 634.076 -3.59998 1.01746 0
M  V30 6613 H 635.409 -4.74178 1.3197 0
M  V30 6614 N 637.061 -0.65484 -1.43351 0
M  V30 6615 C 638.309 -0.168559 -2.01396 0
M  V30 6616 C 638.63 1.22235 -1.51933 0
M  V30 6617 O 637.9 1.81685 -0.732627 0
M  V30 6618 H 636.48 -0.0593244 -0.744641 0
M  V30 6619 H 639.142 -0.846871 -1.75539 0
M  V30 6620 H 638.238 -0.154428 -3.11718 0
M  V30 6621 N 638.539 1.52521 -0.396863 0
M  V30 6622 C 639.469 2.29582 0.425941 0
M  V30 6623 C 640.45 1.33281 1.05689 0
M  V30 6624 O 641.635 1.62181 1.06823 0
M  V30 6625 C 638.765 3.10821 1.54943 0
M  V30 6626 C 637.719 4.15069 1.04413 0
M  V30 6627 C 637.045 4.84578 2.26028 0
M  V30 6628 C 638.345 5.22191 0.106767 0
M  V30 6629 H 640.039 2.98612 -0.217045 0
M  V30 6630 H 637.585 1.43611 -0.105826 0
M  V30 6631 H 639.538 3.63492 2.13193 0
M  V30 6632 H 638.262 2.39538 2.22011 0
M  V30 6633 H 636.921 3.63389 0.484118 0
M  V30 6634 H 636.569 4.09835 2.91623 0
M  V30 6635 H 636.269 5.55043 1.92876 0
M  V30 6636 H 637.793 5.40056 2.84906 0
M  V30 6637 H 639.207 5.70176 0.597685 0
M  V30 6638 H 637.604 5.99947 -0.135352 0
M  V30 6639 H 638.674 4.77531 -0.842134 0
M  V30 6640 N 640.017 0.126909 1.57088 0
M  V30 6641 C 641.428 -0.397201 1.82426 0
M  V30 6642 C 641.779 -1.66084 1.04453 0
M  V30 6643 O 640.904 -2.14534 0.283552 0
M  V30 6644 C 641.499 -0.727411 3.30899 0
M  V30 6645 C 640.058 -1.19612 3.56889 0
M  V30 6646 C 639.205 -0.20885 2.76512 0
M  V30 6647 H 642.156 0.351924 1.54749 0
M  V30 6648 H 642.177 -1.58407 3.45959 0
M  V30 6649 H 641.689 0.19247 3.87622 0
M  V30 6650 H 639.79 -2.13263 3.05532 0
M  V30 6651 H 639.903 -1.13598 4.65438 0
M  V30 6652 H 638.267 -0.697479 2.44964 0
M  V30 6653 H 639.05 0.704267 3.35998 0
M  V30 6654 N 641.495 -1.56914 -0.146875 0
M  V30 6655 C 642.425 -2.01308 -1.1831 0
M  V30 6656 C 643.406 -0.892664 -1.44795 0
M  V30 6657 O 644.591 -1.16048 -1.55713 0
M  V30 6658 C 641.721 -2.3938 -2.51624 0
M  V30 6659 C 640.675 -3.54608 -2.3966 0
M  V30 6660 C 640.001 -3.78493 -3.77686 0
M  V30 6661 C 641.301 -4.87269 -1.88058 0
M  V30 6662 H 642.995 -2.88123 -0.813964 0
M  V30 6663 H 640.541 -1.38615 -0.3901 0
M  V30 6664 H 642.494 -2.69037 -3.24341 0
M  V30 6665 H 641.218 -1.49502 -2.90373 0
M  V30 6666 H 639.877 -3.25116 -1.69396 0
M  V30 6667 H 639.525 -2.85866 -4.13871 0
M  V30 6668 H 639.225 -4.56039 -3.70543 0
M  V30 6669 H 640.749 -4.10576 -4.51951 0
M  V30 6670 H 642.163 -5.15644 -2.50568 0
M  V30 6671 H 640.56 -5.68622 -1.91805 0
M  V30 6672 H 641.63 -4.77634 -0.836277 0
M  V30 6673 N 642.974 0.416227 -1.52004 0
M  V30 6674 C 643.937 1.48926 -1.74223 0
M  V30 6675 C 644.937 1.48693 -0.612119 0
M  V30 6676 O 646.127 1.50343 -0.879921 0
M  V30 6677 C 643.259 2.88372 -1.81809 0
M  V30 6678 H 644.452 1.3052 -2.70008 0
M  V30 6679 H 642.005 0.646271 -1.42313 0
M  V30 6680 H 642.74 3.12157 -0.879135 0
M  V30 6681 H 642.525 2.89944 -2.6396 0
M  V30 6682 H 644.015 3.66173 -2.00766 0
M  V30 6683 N 644.452 1.42507 0.673017 0
M  V30 6684 C 645.698 1.43284 1.43519 0
M  V30 6685 C 646.031 0.049668 1.94136 0
M  V30 6686 O 645.306 -0.926369 1.71022 0
M  V30 6687 C 645.589 2.45874 2.63093 0
M  V30 6688 C 645.442 3.93388 2.18096 0
M  V30 6689 C 646.761 2.45431 3.6531 0
M  V30 6690 H 643.88 0.521752 0.520522 0
M  V30 6691 H 646.522 1.73932 0.764701 0
M  V30 6692 H 644.672 2.19869 3.20296 0
M  V30 6693 H 646.344 4.30379 1.66046 0
M  V30 6694 H 644.587 4.07169 1.49652 0
M  V30 6695 H 645.258 4.60752 3.03993 0
M  V30 6696 H 647.734 2.68561 3.17827 0
M  V30 6697 H 646.61 3.19189 4.46553 0
M  V30 6698 H 646.871 1.48092 4.16559 0
M  V30 6699 N 645.93 -0.909495 1.28709 0
M  V30 6700 C 647.158 -1.69272 1.18973 0
M  V30 6701 C 647.573 -1.87123 -0.251048 0
M  V30 6702 O 646.93 -1.40127 -1.16922 0
M  V30 6703 C 646.981 -3.08257 1.88839 0
M  V30 6704 O 646.702 -2.91228 3.27289 0
M  V30 6705 C 648.203 -4.02642 1.85457 0
M  V30 6706 H 645.423 -0.528999 0.412797 0
M  V30 6707 H 647.967 -1.13803 1.69909 0
M  V30 6708 H 646.122 -3.6053 1.41762 0
M  V30 6709 H 646.536 -3.79223 3.6234 0
M  V30 6710 H 648.01 -4.97613 2.38925 0
M  V30 6711 H 648.487 -4.31327 0.827893 0
M  V30 6712 H 649.093 -3.56298 2.32233 0
M  V30 6713 N 647.408 -1.11026 -1.11852 0
M  V30 6714 C 648.657 -0.851249 -1.82857 0
M  V30 6715 C 648.97 0.62514 -1.85341 0
M  V30 6716 O 650.176 1.00026 -2.52403 0
M  V30 6717 C 648.632 -1.47309 -3.28372 0
M  V30 6718 C 648.24 -2.9832 -3.34229 0
M  V30 6719 C 649.984 -1.29373 -4.04306 0
M  V30 6720 C 647.891 -3.53509 -4.74115 0
M  V30 6721 H 646.821 -0.314794 -0.685143 0
M  V30 6722 H 649.472 -1.33499 -1.25898 0
M  V30 6723 H 647.854 -0.917017 -3.85236 0
M  V30 6724 H 649.028 -3.60295 -2.87271 0
M  V30 6725 H 647.343 -3.15482 -2.71772 0
M  V30 6726 H 649.94 -1.68042 -5.07608 0
M  V30 6727 H 650.283 -0.235879 -4.15631 0
M  V30 6728 H 650.816 -1.8182 -3.53817 0
M  V30 6729 H 647.555 -4.58987 -4.67986 0
M  V30 6730 H 647.075 -2.96305 -5.21501 0
M  V30 6731 H 648.754 -3.51693 -5.43066 0
M  V30 6732 N 648.886 1.2938 -0.899927 0
M  V30 6733 C 650.111 2.00228 -0.540692 0
M  V30 6734 C 650.536 1.66909 0.867359 0
M  V30 6735 O 649.894 0.893824 1.57735 0
M  V30 6736 C 649.942 3.52921 -0.740232 0
M  V30 6737 O 649.046 4.11879 0.207154 0
M  V30 6738 H 648.387 0.629505 -0.211233 0
M  V30 6739 H 650.917 1.6487 -1.21158 0
M  V30 6740 H 650.927 4.0287 -0.644973 0
M  V30 6741 H 649.602 3.76508 -1.76677 0
M  V30 6742 H 648.179 3.72845 0.0643315 0
M  V30 6743 N 650.364 0.662433 1.43002 0
M  V30 6744 C 651.294 -0.00979809 2.33498 0
M  V30 6745 C 652.275 -0.802329 1.49989 0
M  V30 6746 O 653.46 -0.761964 1.78627 0
M  V30 6747 C 650.59 -0.970446 3.33466 0
M  V30 6748 C 649.544 -0.287383 4.27034 0
M  V30 6749 C 648.87 -1.36012 5.17112 0
M  V30 6750 C 650.17 0.82595 5.15728 0
M  V30 6751 H 651.864 0.745959 2.89958 0
M  V30 6752 H 649.41 0.360172 1.39423 0
M  V30 6753 H 651.363 -1.44971 3.95679 0
M  V30 6754 H 650.087 -1.75748 2.75282 0
M  V30 6755 H 648.746 0.17152 3.66199 0
M  V30 6756 H 648.394 -2.13882 4.55262 0
M  V30 6757 H 648.094 -0.908276 5.80538 0
M  V30 6758 H 649.618 -1.84056 5.82199 0
M  V30 6759 H 651.032 0.42845 5.71697 0
M  V30 6760 H 649.429 1.20282 5.87922 0
M  V30 6761 H 650.499 1.68003 4.54866 0
M  V30 6762 N 651.842 -1.52309 0.404946 0
M  V30 6763 C 652.805 -2.25491 -0.410651 0
M  V30 6764 C 653.805 -1.27704 -0.977154 0
M  V30 6765 O 654.995 -1.51679 -0.856691 0
M  V30 6766 C 652.127 -3.02197 -1.57765 0
M  V30 6767 H 653.32 -2.99015 0.230277 0
M  V30 6768 H 650.873 -1.55506 0.157377 0
M  V30 6769 H 651.608 -2.33013 -2.25556 0
M  V30 6770 H 651.393 -3.73987 -1.17797 0
M  V30 6771 H 652.883 -3.57719 -2.15469 0
M  V30 6772 N 653.32 -0.135238 -1.57019 0
M  V30 6773 C 654.55 0.525303 -1.9981 0
M  V30 6774 C 654.958 1.59724 -1.01415 0
M  V30 6775 O 654.301 1.837 -0.00130938 0
M  V30 6776 C 654.363 1.19578 -3.3903 0
M  V30 6777 C 654.027 0.269855 -4.56203 0
M  V30 6778 C 655.024 -0.497905 -5.1751 0
M  V30 6779 C 652.709 0.176188 -5.01991 0
M  V30 6780 C 654.703 -1.3469 -6.23007 0
M  V30 6781 C 652.39 -0.676422 -6.07345 0
M  V30 6782 C 653.388 -1.43658 -6.67721 0
M  V30 6783 O 653.076 -2.27501 -7.71037 0
M  V30 6784 H 652.808 0.142296 -0.660854 0
M  V30 6785 H 655.362 -0.223272 -2.04183 0
M  V30 6786 H 653.592 1.99176 -3.3146 0
M  V30 6787 H 655.281 1.75486 -3.66005 0
M  V30 6788 H 656.047 -0.435507 -4.83041 0
M  V30 6789 H 651.926 0.757583 -4.54733 0
M  V30 6790 H 655.47 -1.9407 -6.70062 0
M  V30 6791 H 651.367 -0.740154 -6.41243 0
M  V30 6792 H 652.135 -2.20619 -7.88206 0
M  V30 6793 N 654.798 1.5699 0.138552 0
M  V30 6794 C 656.023 1.88344 0.86841 0
M  V30 6795 C 656.448 0.725159 1.7356 0
M  V30 6796 O 655.806 -0.324992 1.78363 0
M  V30 6797 C 655.854 3.18334 1.69398 0
M  V30 6798 O 654.958 3.02863 2.79907 0
M  V30 6799 H 654.299 0.618577 0.241367 0
M  V30 6800 H 656.829 2.04207 0.126826 0
M  V30 6801 H 656.839 3.50567 2.08726 0
M  V30 6802 H 655.514 4.02238 1.05725 0
M  V30 6803 H 654.091 2.82056 2.43924 0
M  V30 6804 N 656.276 -0.40816 1.52223 0
M  V30 6805 C 657.522 -1.15673 1.66576 0
M  V30 6806 C 657.855 -1.90141 0.394996 0
M  V30 6807 O 657.13 -1.84798 -0.606613 0
M  V30 6808 C 657.413 -2.15042 2.88841 0
M  V30 6809 C 657.266 -1.44465 4.25969 0
M  V30 6810 C 658.585 -3.15699 3.0663 0
M  V30 6811 H 655.704 -0.41916 0.606196 0
M  V30 6812 H 658.346 -0.442348 1.84779 0
M  V30 6813 H 656.496 -2.75964 2.73452 0
M  V30 6814 H 658.168 -0.866544 4.53088 0
M  V30 6815 H 656.411 -0.746612 4.27327 0
M  V30 6816 H 657.082 -2.16976 5.07568 0
M  V30 6817 H 659.558 -2.64854 3.20923 0
M  V30 6818 H 658.434 -3.82491 3.9369 0
M  V30 6819 H 658.695 -3.83481 2.19987 0
M  V30 6820 N 657.755 -1.42862 -0.66545 0
M  V30 6821 C 658.702 -1.4707 -1.77874 0
M  V30 6822 C 659.672 -0.321654 -1.62956 0
M  V30 6823 O 660.857 -0.52707 -1.83376 0
M  V30 6824 C 657.997 -1.38788 -3.15962 0
M  V30 6825 C 657.11 -2.63801 -3.42101 0
M  V30 6826 C 656.245 -2.47594 -4.69969 0
M  V30 6827 C 655.284 -3.67936 -4.89172 0
M  V30 6828 N 654.421 -3.50614 -6.08288 0
M  V30 6829 H 659.261 -2.42204 -1.73613 0
M  V30 6830 H 656.798 -1.20239 -0.847401 0
M  V30 6831 H 658.756 -1.31982 -3.95773 0
M  V30 6832 H 657.386 -0.472431 -3.19324 0
M  V30 6833 H 656.438 -2.80935 -2.56475 0
M  V30 6834 H 657.75 -3.53228 -3.52181 0
M  V30 6835 H 656.904 -2.38427 -5.57886 0
M  V30 6836 H 655.643 -1.55672 -4.62188 0
M  V30 6837 H 654.648 -3.77525 -3.99694 0
M  V30 6838 H 655.873 -4.60851 -4.98792 0
M  V30 6839 H 653.819 -2.61417 -6.01662 0
M  V30 6840 H 653.736 -4.33634 -6.19272 0
M  V30 6841 H 655.004 -3.45276 -6.98859 0
M  V30 6842 N 659.233 0.902656 -1.29189 0
M  V30 6843 C 660.18 2.00643 -1.14066 0
M  V30 6844 C 661.15 1.66064 -0.0347756 0
M  V30 6845 O 662.335 1.8973 -0.201752 0
M  V30 6846 C 659.475 3.35214 -0.820104 0
M  V30 6847 C 658.588 3.82594 -2.00614 0
M  V30 6848 C 657.723 5.05727 -1.62522 0
M  V30 6849 C 656.762 5.45469 -2.77724 0
M  V30 6850 N 655.899 6.59789 -2.40048 0
M  V30 6851 H 660.739 2.1291 -2.08502 0
M  V30 6852 H 658.276 1.04271 -1.03759 0
M  V30 6853 H 660.234 4.12643 -0.614949 0
M  V30 6854 H 658.864 3.22682 0.0873452 0
M  V30 6855 H 657.916 3.01226 -2.32308 0
M  V30 6856 H 659.228 4.07999 -2.86946 0
M  V30 6857 H 658.382 5.90732 -1.38277 0
M  V30 6858 H 657.121 4.82155 -0.733333 0
M  V30 6859 H 656.126 4.59 -3.02653 0
M  V30 6860 H 657.351 5.71024 -3.67572 0
M  V30 6861 H 655.297 6.37826 -1.53343 0
M  V30 6862 H 655.214 6.84975 -3.19914 0
M  V30 6863 H 656.482 7.4807 -2.19116 0
M  V30 6864 N 660.711 1.11618 1.11262 0
M  V30 6865 C 661.644 0.719995 2.16544 0
M  V30 6866 C 662.622 -0.28471 1.60088 0
M  V30 6867 O 663.806 -0.180693 1.87632 0
M  V30 6868 C 660.933 0.0643302 3.38639 0
M  V30 6869 C 659.979 1.03448 4.13764 0
M  V30 6870 S 660.812 2.55789 4.70459 0
M  V30 6871 C 661.968 1.91529 5.95875 0
M  V30 6872 H 662.201 1.61181 2.49816 0
M  V30 6873 H 659.734 0.934401 1.22916 0
M  V30 6874 H 661.692 -0.307609 4.09346 0
M  V30 6875 H 660.353 -0.804471 3.03623 0
M  V30 6876 H 659.546 0.523188 5.01277 0
M  V30 6877 H 659.148 1.34893 3.48826 0
M  V30 6878 H 661.44 1.25286 6.65815 0
M  V30 6879 H 662.383 2.77047 6.51652 0
M  V30 6880 H 662.791 1.37468 5.47506 0
M  V30 6881 N 662.189 -1.289 0.906776 0
M  V30 6882 C 663.122 -2.25737 0.334362 0
M  V30 6883 C 664.1 -1.52745 -0.557474 0
M  V30 6884 O 665.284 -1.81673 -0.502697 0
M  V30 6885 C 662.411 -3.34642 -0.522716 0
M  V30 6886 C 661.457 -4.25424 0.302777 0
M  V30 6887 S 662.29 -5.07629 1.70508 0
M  V30 6888 C 663.446 -6.20031 0.855118 0
M  V30 6889 H 663.679 -2.73941 1.15514 0
M  V30 6890 H 661.212 -1.37233 0.707573 0
M  V30 6891 H 663.17 -3.97845 -1.01141 0
M  V30 6892 H 661.831 -2.85119 -1.31781 0
M  V30 6893 H 661.024 -5.02767 -0.352257 0
M  V30 6894 H 660.626 -3.66908 0.724873 0
M  V30 6895 H 662.918 -6.77451 0.0816418 0
M  V30 6896 H 663.861 -6.89767 1.60087 0
M  V30 6897 H 664.269 -5.63035 0.406375 0
M  V30 6898 N 663.667 -0.670007 -1.42649 0
M  V30 6899 C 664.614 0.0112928 -2.30797 0
M  V30 6900 C 665.584 0.797627 -1.45695 0
M  V30 6901 O 666.769 0.770845 -1.74535 0
M  V30 6902 C 663.909 0.95998 -3.31479 0
M  V30 6903 C 663.022 0.167975 -4.31673 0
M  V30 6904 C 662.157 1.11198 -5.19431 0
M  V30 6905 C 661.196 0.311381 -6.11307 0
M  V30 6906 N 660.333 1.20784 -6.91633 0
M  V30 6907 H 665.173 -0.746231 -2.88505 0
M  V30 6908 H 662.71 -0.379739 -1.42114 0
M  V30 6909 H 664.668 1.52379 -3.88377 0
M  V30 6910 H 663.298 1.68419 -2.75382 0
M  V30 6911 H 662.35 -0.512385 -3.76933 0
M  V30 6912 H 663.662 -0.453814 -4.96731 0
M  V30 6913 H 662.816 1.74587 -5.81037 0
M  V30 6914 H 661.555 1.76766 -4.54538 0
M  V30 6915 H 660.56 -0.335758 -5.48774 0
M  V30 6916 H 661.785 -0.340135 -6.78248 0
M  V30 6917 H 659.731 1.85001 -6.29373 0
M  V30 6918 H 659.648 0.64102 -7.53277 0
M  V30 6919 H 660.916 1.82936 -7.5773 0
M  V30 6920 N 665.145 1.52092 -0.413018 0
M  V30 6921 C 666.422 1.94356 0.22024 0
M  V30 6922 C 666.802 1.35017 1.62277 0
M  V30 6923 O 666.15 0.527511 2.22328 0
M  V30 6924 C 666.36 3.48289 0.222638 0
M  V30 6925 C 667.708 4.22313 0.440098 0
M  V30 6926 O 668.732 3.54919 0.301826 0
M  V30 6927 O 667.591 5.41829 0.712984 0
M  V30 6928 H 664.685 0.814536 0.14304 0
M  V30 6929 H 667.231 1.63083 -0.469242 0
M  V30 6930 H 666.003 3.83872 -0.758836 0
M  V30 6931 H 665.626 3.85934 0.956057 0
M  V30 6932 N 666.623 0.143563 1.56945 0
M  V30 6933 C 667.571 -0.814556 2.17871 0
M  V30 6934 C 668.565 -1.25778 1.13474 0
M  V30 6935 O 669.771 -1.22666 1.31731 0
M  V30 6936 H 666.146 -0.280873 0.697578 0
M  V30 6937 H 668.117 -0.276459 2.97117 0
M  V30 6938 C 666.866 -2.04503 2.81201 0
M  V30 6939 H 666.189 -1.71296 3.61245 0
M  V30 6940 H 667.629 -2.69493 3.27337 0
M  V30 6941 C 666.088 -2.85079 1.79532 0
M  V30 6942 O 666.618 -3.81306 1.26368 0
M  V30 6943 N 664.824 -2.49546 1.48913 0
M  V30 6944 H 664.371 -1.71359 1.92338 0
M  V30 6945 H 664.329 -3.03751 0.811348 0
M  V30 6946 N 668.101 -1.57061 -0.130224 0
M  V30 6947 C 669.049 -2.00486 -1.17933 0
M  V30 6948 C 670.043 -0.899933 -1.43519 0
M  V30 6949 O 671.249 -1.08514 -1.43613 0
M  V30 6950 H 667.624 -0.638441 -0.397363 0
M  V30 6951 H 669.595 -2.87848 -0.786501 0
M  V30 6952 C 668.344 -2.41565 -2.50084 0
M  V30 6953 H 667.667 -3.26148 -2.31231 0
M  V30 6954 H 669.107 -2.75757 -3.22078 0
M  V30 6955 C 667.566 -1.27485 -3.11848 0
M  V30 6956 O 668.096 -0.584688 -3.97422 0
M  V30 6957 N 666.302 -1.03478 -2.71552 0
M  V30 6958 H 665.849 -1.59779 -2.02061 0
M  V30 6959 H 665.807 -0.27341 -3.13209 0
M  V30 6960 N 669.579 0.400081 -1.52437 0
M  V30 6961 C 670.509 1.4947 -1.7939 0
M  V30 6962 C 671.49 1.57383 -0.645329 0
M  V30 6963 O 672.675 1.72511 -0.891826 0
M  V30 6964 C 669.805 2.87201 -1.95276 0
M  V30 6965 C 668.759 2.94134 -3.10917 0
M  V30 6966 C 668.085 4.34207 -3.1204 0
M  V30 6967 C 669.385 2.64791 -4.50203 0
M  V30 6968 H 671.079 1.27165 -2.71052 0
M  V30 6969 H 668.625 0.610312 -1.30427 0
M  V30 6970 H 670.578 3.63772 -2.12715 0
M  V30 6971 H 669.302 3.10819 -1.00294 0
M  V30 6972 H 667.961 2.20009 -2.93243 0
M  V30 6973 H 667.609 4.54848 -2.14761 0
M  V30 6974 H 667.309 4.39768 -3.89715 0
M  V30 6975 H 668.833 5.127 -3.31619 0
M  V30 6976 H 670.247 3.31083 -4.68035 0
M  V30 6977 H 668.644 2.81717 -5.29864 0
M  V30 6978 H 669.714 1.60184 -4.57678 0
M  V30 6979 N 671.057 1.43213 0.657864 0
M  V30 6980 C 672.303 1.44798 1.41991 0
M  V30 6981 C 672.636 0.070256 1.94073 0
M  V30 6982 O 671.911 -0.908177 1.71995 0
M  V30 6983 C 672.194 2.4865 2.60471 0
M  V30 6984 C 672.047 3.95679 2.13911 0
M  V30 6985 C 673.366 2.49292 3.62686 0
M  V30 6986 H 670.485 0.527244 0.514959 0
M  V30 6987 H 673.127 1.74733 0.74621 0
M  V30 6988 H 671.277 2.23254 3.17946 0
M  V30 6989 H 672.949 4.32116 1.61472 0
M  V30 6990 H 671.192 4.08733 1.45325 0
M  V30 6991 H 671.863 4.6395 2.99089 0
M  V30 6992 H 674.339 2.71917 3.14961 0
M  V30 6993 H 673.215 3.23907 4.43143 0
M  V30 6994 H 673.476 1.52502 4.14964 0
M  V30 6995 N 672.536 -0.895792 1.29666 0
M  V30 6996 C 673.952 -1.17726 1.07763 0
M  V30 6997 C 674.152 -2.00794 -0.168576 0
M  V30 6998 O 673.208 -2.37213 -0.865244 0
M  V30 6999 C 674.521 -1.89441 2.33522 0
M  V30 7000 C 676.069 -2.02251 2.3888 0
M  V30 7001 C 676.544 -2.77378 3.64452 0
M  V30 7002 N 678.035 -2.8493 3.65198 0
M  V30 7003 C 678.77 -3.43606 4.59045 0
M  V30 7004 N 678.266 -4.03417 5.63228 0
M  V30 7005 N 680.059 -3.41317 4.46608 0
M  V30 7006 H 672.21 -0.341652 2.09634 0
M  V30 7007 H 674.473 -0.213865 0.923561 0
M  V30 7008 H 674.179 -1.35842 3.24407 0
M  V30 7009 H 674.053 -2.89893 2.41334 0
M  V30 7010 H 676.44 -2.55025 1.4848 0
M  V30 7011 H 676.521 -1.0092 2.3505 0
M  V30 7012 H 676.165 -2.25279 4.55205 0
M  V30 7013 H 676.095 -3.79062 3.65541 0
M  V30 7014 H 678.586 -2.42453 2.89871 0
M  V30 7015 H 678.899 -4.46224 6.30955 0
M  V30 7016 H 677.244 -4.01868 5.67033 0
M  V30 7017 H 680.435 -2.93812 3.64407 0
M  V30 7018 H 680.608 -3.86751 5.1993 0
M  V30 7019 N 674.014 -1.12206 -1.10668 0
M  V30 7020 C 674.964 -0.75669 -2.15077 0
M  V30 7021 C 675.948 0.243154 -1.59052 0
M  V30 7022 O 677.14 0.0490268 -1.76932 0
M  V30 7023 C 674.269 -0.210303 -3.42655 0
M  V30 7024 C 673.355 -1.23829 -4.05619 0
M  V30 7025 N 673.746 -2.43513 -4.43323 0
M  V30 7026 C 672.044 -1.08309 -4.32649 0
M  V30 7027 C 672.745 -3.09138 -4.92756 0
M  V30 7028 N 671.721 -2.36593 -4.89413 0
M  V30 7029 H 675.523 -1.66747 -2.42018 0
M  V30 7030 H 673.037 -1.00248 -1.27765 0
M  V30 7031 H 675.034 0.0696287 -4.16842 0
M  V30 7032 H 673.694 0.694967 -3.17176 0
M  V30 7033 H 674.705 -2.80912 -4.35097 0
M  V30 7034 H 671.382 -0.234919 -4.16839 0
M  V30 7035 H 672.772 -4.11049 -5.31496 0
M  V30 7036 N 675.492 1.28418 -0.913599 0
M  V30 7037 C 676.422 2.29713 -0.418847 0
M  V30 7038 C 677.403 1.62165 0.513469 0
M  V30 7039 O 678.588 1.89576 0.421235 0
M  V30 7040 C 675.718 3.45612 0.342042 0
M  V30 7041 C 674.672 4.25056 -0.501123 0
M  V30 7042 C 673.998 5.3329 0.388097 0
M  V30 7043 C 675.298 4.91814 -1.75831 0
M  V30 7044 H 676.992 2.71346 -1.26538 0
M  V30 7045 H 674.538 1.30446 -0.609903 0
M  V30 7046 H 676.491 4.15562 0.699 0
M  V30 7047 H 675.215 3.02858 1.22248 0
M  V30 7048 H 673.874 3.56833 -0.840598 0
M  V30 7049 H 673.522 4.8678 1.26707 0
M  V30 7050 H 673.222 5.87347 -0.172459 0
M  V30 7051 H 674.746 6.06088 0.74094 0
M  V30 7052 H 676.16 5.54126 -1.47026 0
M  V30 7053 H 674.557 5.55866 -2.26126 0
M  V30 7054 H 675.627 4.16313 -2.4862 0
M  V30 7055 N 676.97 0.677563 1.42291 0
M  V30 7056 C 678.247 0.129803 1.95169 0
M  V30 7057 C 678.627 -1.35605 1.61786 0
M  V30 7058 O 677.975 -2.09361 0.915444 0
M  V30 7059 C 678.185 0.401889 3.46678 0
M  V30 7060 C 679.533 0.319889 4.23393 0
M  V30 7061 O 680.557 0.33579 3.54614 0
M  V30 7062 O 679.416 0.264459 5.4586 0
M  V30 7063 H 676.51 0.00447433 0.826988 0
M  V30 7064 H 679.056 0.752483 1.52105 0
M  V30 7065 H 677.828 1.43108 3.64192 0
M  V30 7066 H 677.451 -0.252662 3.96796 0
M  V30 7067 N 678.448 -1.51871 0.421078 0
M  V30 7068 C 679.411 -2.25914 -0.386712 0
M  V30 7069 C 680.411 -1.28733 -0.963555 0
M  V30 7070 O 681.601 -1.52579 -0.840556 0
M  V30 7071 C 678.733 -3.03853 -1.54551 0
M  V30 7072 H 679.926 -2.98754 0.261978 0
M  V30 7073 H 677.479 -1.5533 0.173862 0
M  V30 7074 H 678.214 -2.35392 -2.23072 0
M  V30 7075 H 677.999 -3.75215 -1.13824 0
M  V30 7076 H 679.489 -3.59984 -2.11663 0
M  V30 7077 N 679.926 -0.151884 -1.56866 0
M  V30 7078 C 681.166 0.500695 -1.98173 0
M  V30 7079 C 681.53 1.61715 -1.03499 0
M  V30 7080 O 682.731 2.33093 -1.33869 0
M  V30 7081 C 681.002 0.989333 -3.43434 0
M  V30 7082 S 682.561 1.64583 -4.06765 0
M  V30 7083 H 679.379 0.16173 -0.692361 0
M  V30 7084 H 681.981 -0.244754 -1.93962 0
M  V30 7085 H 680.685 0.166072 -4.10064 0
M  V30 7086 H 680.216 1.76929 -3.51368 0
M  V30 7087 H 682.231 2.93326 -4.00218 0
M  V30 7088 N 681.404 1.57128 0.121893 0
M  V30 7089 C 682.314 2.03425 1.16857 0
M  V30 7090 C 683.33 0.954108 1.45509 0
M  V30 7091 O 684.506 1.26541 1.56682 0
M  V30 7092 C 681.571 2.42685 2.47599 0
M  V30 7093 C 680.632 3.64767 2.2637 0
M  V30 7094 C 679.865 4.02145 3.50878 0
M  V30 7095 O 680.088 3.39897 4.58068 0
M  V30 7096 O 679.022 4.95262 3.42051 0
M  V30 7097 H 682.848 2.92825 0.80544 0
M  V30 7098 H 680.433 1.45654 0.332477 0
M  V30 7099 H 682.315 2.68684 3.24634 0
M  V30 7100 H 680.99 1.56432 2.83392 0
M  V30 7101 H 679.897 3.43922 1.47203 0
M  V30 7102 H 681.23 4.51716 1.95482 0
M  V30 7103 N 682.882 -0.391992 1.52647 0
M  V30 7104 C 684.11 -1.1586 1.71418 0
M  V30 7105 C 684.525 -1.8381 0.431216 0
M  V30 7106 O 683.882 -1.7256 -0.594085 0
M  V30 7107 C 683.933 -2.20888 2.86165 0
M  V30 7108 O 683.654 -1.5571 4.09495 0
M  V30 7109 C 685.155 -3.103 3.1659 0
M  V30 7110 H 682.375 -0.347494 0.574011 0
M  V30 7111 H 684.919 -0.458972 1.99283 0
M  V30 7112 H 683.074 -2.86492 2.6077 0
M  V30 7113 H 683.488 -2.25474 4.73563 0
M  V30 7114 H 684.962 -3.8003 4.00351 0
M  V30 7115 H 685.439 -3.73639 2.30848 0
M  V30 7116 H 686.045 -2.50345 3.43813 0
M  V30 7117 N 684.36 -1.4356 -0.65026 0
M  V30 7118 C 685.293 -1.434 -1.77515 0
M  V30 7119 C 686.271 -0.295082 -1.599 0
M  V30 7120 O 687.455 -0.489128 -1.82043 0
M  V30 7121 C 684.582 -1.2484 -3.14853 0
M  V30 7122 C 683.628 -2.42046 -3.51163 0
M  V30 7123 S 684.461 -4.04595 -3.50803 0
M  V30 7124 C 685.617 -3.88424 -4.90793 0
M  V30 7125 H 685.85 -2.38586 -1.77381 0
M  V30 7126 H 683.383 -1.30627 -0.823169 0
M  V30 7127 H 685.341 -1.14819 -3.94115 0
M  V30 7128 H 684.002 -0.311977 -3.12547 0
M  V30 7129 H 683.195 -2.24873 -4.51052 0
M  V30 7130 H 682.797 -2.48708 -2.79321 0
M  V30 7131 H 685.089 -3.50932 -5.79528 0
M  V30 7132 H 686.032 -4.88076 -5.13018 0
M  V30 7133 H 686.44 -3.20829 -4.64467 0
M  V30 7134 N 685.838 0.888903 -1.30139 0
M  V30 7135 C 687.086 1.63713 -1.18501 0
M  V30 7136 C 687.407 1.9324 0.261399 0
M  V30 7137 O 686.677 1.56608 1.17689 0
M  V30 7138 H 685.257 0.606861 -0.435579 0
M  V30 7139 H 687.919 1.06525 -1.63213 0
M  V30 7140 H 687.015 2.58894 -1.743 0
M  V30 7141 N 687.317 1.12792 1.10072 0
M  V30 7142 C 688.265 0.794523 2.18609 0
M  V30 7143 C 689.259 -0.220271 1.67962 0
M  V30 7144 O 690.465 -0.0780938 1.79831 0
M  V30 7145 H 686.84 0.239123 0.712969 0
M  V30 7146 H 688.811 1.71823 2.43966 0
M  V30 7147 C 687.56 0.269548 3.46654 0
M  V30 7148 H 686.883 1.04171 3.8599 0
M  V30 7149 H 688.323 0.0746242 4.23934 0
M  V30 7150 C 686.782 -1.00333 3.21613 0
M  V30 7151 O 687.312 -2.08042 3.4363 0
M  V30 7152 N 685.518 -0.931763 2.75257 0
M  V30 7153 H 685.065 -0.0551197 2.57541 0
M  V30 7154 H 685.023 -1.78405 2.58881 0
M  V30 7155 N 688.795 -1.27931 0.920396 0
M  V30 7156 C 689.758 -2.25345 0.41858 0
M  V30 7157 C 690.758 -1.54116 -0.458798 0
M  V30 7158 O 691.948 -1.72235 -0.260912 0
M  V30 7159 C 689.08 -3.38556 -0.399104 0
M  V30 7160 H 690.273 -2.71251 1.27918 0
M  V30 7161 H 687.826 -1.39728 0.700406 0
M  V30 7162 H 688.561 -2.98021 -1.27882 0
M  V30 7163 H 688.346 -3.91426 0.229863 0
M  V30 7164 H 689.836 -4.10976 -0.740817 0
M  V30 7165 N 690.273 -0.685099 -1.4193 0
M  V30 7166 C 691.501 -0.220372 -2.05723 0
M  V30 7167 C 691.916 1.12642 -1.51516 0
M  V30 7168 O 691.273 1.70182 -0.659114 0
M  V30 7169 C 691.324 -0.157974 -3.61155 0
M  V30 7170 O 691.045 -1.45156 -4.13354 0
M  V30 7171 C 692.546 0.329009 -4.42077 0
M  V30 7172 H 689.766 -0.104725 -0.662777 0
M  V30 7173 H 692.31 -0.934736 -1.81887 0
M  V30 7174 H 690.465 0.507144 -3.84066 0
M  V30 7175 H 690.879 -1.33172 -5.07312 0
M  V30 7176 H 692.353 0.321559 -5.51063 0
M  V30 7177 H 692.83 1.36608 -4.17414 0
M  V30 7178 H 693.436 -0.304737 -4.24207 0
M  V30 7179 N 691.751 1.51645 -0.429126 0
M  V30 7180 C 692.714 2.26116 0.374726 0
M  V30 7181 C 693.714 1.29242 0.956714 0
M  V30 7182 O 694.904 1.53022 0.832452 0
M  V30 7183 C 692.036 3.04669 1.52937 0
M  V30 7184 H 693.229 2.9861 -0.277818 0
M  V30 7185 H 690.782 1.55236 -0.182097 0
M  V30 7186 H 691.517 2.36571 2.21821 0
M  V30 7187 H 691.302 3.75814 1.11833 0
M  V30 7188 H 692.792 3.61102 2.09751 0
M  V30 7189 N 693.229 0.160201 1.56784 0
M  V30 7190 C 694.478 -0.487619 1.95717 0
M  V30 7191 C 694.791 -1.65136 1.0483 0
M  V30 7192 O 695.997 -2.36468 1.33398 0
M  V30 7193 C 694.453 -0.91888 3.47972 0
M  V30 7194 C 694.061 0.218655 4.47466 0
M  V30 7195 C 695.805 -1.53575 3.95746 0
M  V30 7196 C 693.712 -0.231614 5.90946 0
M  V30 7197 H 692.642 -0.185939 0.730714 0
M  V30 7198 H 695.293 0.246657 1.81835 0
M  V30 7199 H 693.675 -1.70881 3.57234 0
M  V30 7200 H 694.849 0.995825 4.49911 0
M  V30 7201 H 693.164 0.744767 4.09685 0
M  V30 7202 H 695.761 -1.88448 5.00391 0
M  V30 7203 H 696.104 -2.42959 3.38048 0
M  V30 7204 H 696.637 -0.810467 3.89456 0
M  V30 7205 H 693.376 0.62718 6.52493 0
M  V30 7206 H 692.896 -0.974379 5.91833 0
M  V30 7207 H 694.575 -0.67922 6.43425 0
M  V30 7208 N 694.707 -1.5719 -0.113559 0
M  V30 7209 C 695.947 -1.86958 -0.82621 0
M  V30 7210 C 696.311 -0.748884 -1.76793 0
M  V30 7211 O 697.512 -0.92847 -2.52256 0
M  V30 7212 C 695.783 -3.21957 -1.55173 0
M  V30 7213 S 697.342 -3.73371 -2.3052 0
M  V30 7214 H 694.16 -0.655394 -0.275643 0
M  V30 7215 H 696.762 -1.95318 -0.0842684 0
M  V30 7216 H 695.466 -4.01459 -0.851977 0
M  V30 7217 H 694.997 -3.16688 -2.33393 0
M  V30 7218 H 697.012 -3.45308 -3.56338 0
M  V30 7219 N 696.185 0.383891 -1.52853 0
M  V30 7220 C 697.41 1.154 -1.7233 0
M  V30 7221 C 697.835 1.82809 -0.44298 0
M  V30 7222 O 697.193 1.71026 0.601645 0
M  V30 7223 C 697.241 2.17386 -2.87708 0
M  V30 7224 O 696.345 3.24082 -2.55038 0
M  V30 7225 H 695.686 0.335709 -0.572883 0
M  V30 7226 H 698.216 0.44662 -1.99666 0
M  V30 7227 H 698.226 2.61296 -3.1335 0
M  V30 7228 H 696.901 1.6771 -3.80587 0
M  V30 7229 H 695.478 2.85273 -2.40153 0
M  V30 7230 N 697.663 1.43903 0.642637 0
M  V30 7231 C 698.94 1.36556 1.40043 0
M  V30 7232 C 699.32 0.0185588 2.11092 0
M  V30 7233 O 698.668 -0.998438 2.05532 0
M  V30 7234 C 698.878 2.55596 2.37638 0
M  V30 7235 C 700.226 2.99153 3.01318 0
M  V30 7236 O 701.25 2.55719 2.47965 0
M  V30 7237 O 700.109 3.74427 3.98078 0
M  V30 7238 H 697.203 0.540189 0.626198 0
M  V30 7239 H 699.749 1.55971 0.668657 0
M  V30 7240 H 698.521 3.45256 1.84158 0
M  V30 7241 H 698.144 2.38334 3.18249 0
M  V30 7242 N 699.141 -0.881989 1.30609 0
M  V30 7243 C 700.088 -1.98803 1.17244 0
M  V30 7244 C 701.058 -1.65987 0.0611905 0
M  V30 7245 O 702.243 -1.89385 0.231911 0
M  V30 7246 C 699.383 -3.33867 0.87333 0
M  V30 7247 C 698.496 -3.79354 2.06675 0
M  V30 7248 C 697.631 -5.03078 1.70547 0
M  V30 7249 C 696.67 -5.40981 2.86366 0
M  V30 7250 N 695.807 -6.55886 2.50514 0
M  V30 7251 H 700.647 -2.09566 2.11863 0
M  V30 7252 H 698.184 -1.02607 1.05405 0
M  V30 7253 H 700.142 -4.11612 0.680519 0
M  V30 7254 H 698.772 -3.2278 -0.0359983 0
M  V30 7255 H 697.824 -2.97492 2.37071 0
M  V30 7256 H 699.136 -4.03382 2.93401 0
M  V30 7257 H 698.29 -5.88457 1.47658 0
M  V30 7258 H 697.029 -4.80927 0.809947 0
M  V30 7259 H 696.034 -4.54127 3.09917 0
M  V30 7260 H 697.259 -5.65104 3.76609 0
M  V30 7261 H 695.205 -6.35306 1.63471 0
M  V30 7262 H 695.122 -6.79799 3.30771 0
M  V30 7263 H 696.39 -7.44489 2.30989 0
M  V30 7264 N 700.619 -1.13374 -1.09472 0
M  V30 7265 C 701.847 -0.918351 -1.85402 0
M  V30 7266 C 702.262 0.53281 -1.81126 0
M  V30 7267 O 701.619 1.36879 -1.20708 0
M  V30 7268 C 701.67 -1.39743 -3.33398 0
M  V30 7269 O 701.391 -2.79172 -3.37631 0
M  V30 7270 C 702.892 -1.22042 -4.2617 0
M  V30 7271 H 700.112 -0.327511 -0.585643 0
M  V30 7272 H 702.656 -1.50617 -1.38328 0
M  V30 7273 H 700.811 -0.852619 -3.77901 0
M  V30 7274 H 701.225 -3.00428 -4.29934 0
M  V30 7275 H 702.699 -1.60438 -5.2817 0
M  V30 7276 H 703.176 -0.162047 -4.38901 0
M  V30 7277 H 703.782 -1.75323 -3.87482 0
M  V30 7278 N 702.098 1.27442 -0.927168 0
M  V30 7279 C 703.346 1.94007 -0.566203 0
M  V30 7280 C 703.667 1.7323 0.895345 0
M  V30 7281 O 702.937 1.07973 1.63459 0
M  V30 7282 H 701.517 0.717917 -0.206409 0
M  V30 7283 H 704.179 1.55161 -1.17945 0
M  V30 7284 H 703.275 3.02401 -0.772028 0
M  V30 7285 N 703.576 0.692616 1.41565 0
M  V30 7286 C 704.804 0.231279 2.05603 0
M  V30 7287 C 705.219 -1.11837 1.52111 0
M  V30 7288 O 704.576 -1.6983 0.66813 0
M  V30 7289 C 704.627 0.177125 3.61066 0
M  V30 7290 O 704.348 1.47346 4.12578 0
M  V30 7291 C 705.849 -0.30556 4.42246 0
M  V30 7292 H 703.069 0.108238 0.662213 0
M  V30 7293 H 705.613 0.944369 1.81389 0
M  V30 7294 H 703.768 -0.486769 3.8433 0
M  V30 7295 H 704.182 1.35861 5.06599 0
M  V30 7296 H 705.656 -0.29233 5.51225 0
M  V30 7297 H 706.133 -1.34393 4.18133 0
M  V30 7298 H 706.739 0.327229 4.24039 0
M  V30 7299 N 705.054 -1.51416 0.437162 0
M  V30 7300 C 705.984 -2.30631 -0.364922 0
M  V30 7301 C 706.965 -1.36037 -1.02118 0
M  V30 7302 O 708.15 -1.64956 -1.02485 0
M  V30 7303 C 705.28 -3.1482 -1.46648 0
M  V30 7304 C 704.234 -4.17691 -0.933717 0
M  V30 7305 C 703.56 -4.904 -2.13101 0
M  V30 7306 C 704.86 -5.2229 0.0317201 0
M  V30 7307 H 706.554 -2.97932 0.29614 0
M  V30 7308 H 704.1 -1.4328 0.143865 0
M  V30 7309 H 706.053 -3.69017 -2.03481 0
M  V30 7310 H 704.777 -2.4534 -2.15583 0
M  V30 7311 H 703.436 -3.64545 -0.387602 0
M  V30 7312 H 703.084 -4.17423 -2.80654 0
M  V30 7313 H 702.784 -5.59962 -1.78092 0
M  V30 7314 H 704.308 -5.4742 -2.70487 0
M  V30 7315 H 705.722 -5.7156 -0.446302 0
M  V30 7316 H 704.119 -5.99378 0.29437 0
M  V30 7317 H 705.189 -4.75131 0.968447 0
M  V30 7318 N 706.532 -0.168513 -1.56696 0
M  V30 7319 C 707.76 0.483503 -2.01171 0
M  V30 7320 C 708.175 1.56994 -1.04872 0
M  V30 7321 O 707.532 1.82434 -0.0491337 0
M  V30 7322 C 707.583 1.0644 -3.45475 0
M  V30 7323 O 707.304 0.0213375 -4.38095 0
M  V30 7324 C 708.805 1.79493 -4.05336 0
M  V30 7325 H 706.025 0.124002 -0.659443 0
M  V30 7326 H 708.569 -0.269419 -2.02717 0
M  V30 7327 H 706.724 1.76784 -3.44712 0
M  V30 7328 H 707.138 0.449837 -5.22567 0
M  V30 7329 H 708.612 2.15401 -5.08238 0
M  V30 7330 H 709.089 2.68889 -3.47269 0
M  V30 7331 H 709.695 1.13798 -4.09793 0
M  V30 7332 N 708.01 1.57248 0.105221 0
M  V30 7333 C 709.238 1.89768 0.82437 0
M  V30 7334 C 709.653 0.761192 1.72775 0
M  V30 7335 O 709.01 -0.267342 1.80531 0
M  V30 7336 C 709.061 3.2184 1.64625 0
M  V30 7337 O 708.782 4.31115 0.779217 0
M  V30 7338 C 710.283 3.68155 2.46935 0
M  V30 7339 H 707.503 0.628031 0.236259 0
M  V30 7340 H 710.047 2.04321 0.085485 0
M  V30 7341 H 708.202 3.08915 2.33775 0
M  V30 7342 H 708.616 5.06897 1.34745 0
M  V30 7343 H 710.09 4.6329 3.00111 0
M  V30 7344 H 710.567 2.95492 3.24932 0
M  V30 7345 H 711.173 3.83914 1.83002 0
M  V30 7346 N 709.488 -0.375779 1.53054 0
M  V30 7347 C 710.436 -1.48015 1.79428 0
M  V30 7348 C 711.43 -1.55893 0.662854 0
M  V30 7349 O 712.636 -1.58901 0.845599 0
M  V30 7350 H 709.011 -0.492887 0.56795 0
M  V30 7351 H 710.982 -1.22971 2.71884 0
M  V30 7352 C 709.731 -2.84984 1.99197 0
M  V30 7353 H 709.054 -2.79677 2.85693 0
M  V30 7354 H 710.494 -3.61462 2.21633 0
M  V30 7355 C 708.953 -3.28025 0.768183 0
M  V30 7356 O 709.483 -4.01671 -0.0480482 0
M  V30 7357 N 707.689 -2.84454 0.594521 0
M  V30 7358 H 707.236 -2.24688 1.25988 0
M  V30 7359 H 707.194 -3.13609 -0.222916 0
M  V30 7360 N 710.966 -1.44241 -0.634997 0
M  V30 7361 C 712.382 -1.28043 -0.952742 0
M  V30 7362 C 712.582 -0.21338 -2.00367 0
M  V30 7363 O 711.638 0.402042 -2.49279 0
M  V30 7364 C 712.951 -2.65076 -1.41968 0
M  V30 7365 C 714.499 -2.72755 -1.53537 0
M  V30 7366 C 714.974 -4.10249 -2.03616 0
M  V30 7367 N 716.465 -4.12406 -2.10892 0
M  V30 7368 C 717.2 -5.15641 -2.50803 0
M  V30 7369 N 716.696 -6.29239 -2.89879 0
M  V30 7370 N 718.489 -5.02995 -2.50903 0
M  V30 7371 H 710.64 -2.12315 0.060098 0
M  V30 7372 H 712.903 -0.947326 -0.0357325 0
M  V30 7373 H 712.609 -3.44213 -0.721804 0
M  V30 7374 H 712.483 -2.91704 -2.39141 0
M  V30 7375 H 714.87 -1.93939 -2.22422 0
M  V30 7376 H 714.951 -2.49872 -0.547496 0
M  V30 7377 H 714.595 -4.8954 -1.35327 0
M  V30 7378 H 714.525 -4.30507 -3.03268 0
M  V30 7379 H 717.016 -3.30417 -1.83393 0
M  V30 7380 H 717.329 -7.03827 -3.19135 0
M  V30 7381 H 715.674 -6.32683 -2.8764 0
M  V30 7382 H 718.865 -4.13306 -2.19763 0
M  V30 7383 H 719.038 -5.83574 -2.81683 0
M  V30 7384 N 712.444 0.87505 -1.31075 0
M  V30 7385 C 713.377 1.98471 -1.12625 0
M  V30 7386 C 714.355 1.6257 -0.0311379 0
M  V30 7387 O 715.539 1.87574 -0.186594 0
M  V30 7388 C 712.666 3.30963 -0.719799 0
M  V30 7389 C 711.712 3.85849 -1.81722 0
M  V30 7390 S 712.545 4.11926 -3.42165 0
M  V30 7391 C 713.701 5.47423 -3.03445 0
M  V30 7392 H 713.934 2.13817 -2.06566 0
M  V30 7393 H 711.467 1.02463 -1.15502 0
M  V30 7394 H 713.425 4.07541 -0.492035 0
M  V30 7395 H 712.086 3.1346 0.200413 0
M  V30 7396 H 711.279 4.81616 -1.48533 0
M  V30 7397 H 710.881 3.16046 -1.99977 0
M  V30 7398 H 713.173 6.28881 -2.52023 0
M  V30 7399 H 714.116 5.85557 -3.98157 0
M  V30 7400 H 714.524 5.10455 -2.41031 0
M  V30 7401 N 713.922 1.13953 1.08869 0
M  V30 7402 C 715.15 0.92817 1.84912 0
M  V30 7403 C 715.565 -0.523197 1.81406 0
M  V30 7404 O 714.922 -1.36237 1.21432 0
M  V30 7405 C 714.973 1.41509 3.32652 0
M  V30 7406 O 714.694 2.80959 3.36145 0
M  V30 7407 C 716.195 1.243 4.25517 0
M  V30 7408 H 713.415 0.330612 0.583898 0
M  V30 7409 H 715.959 1.51349 1.37527 0
M  V30 7410 H 714.114 0.872648 3.77444 0
M  V30 7411 H 714.528 3.02704 4.28335 0
M  V30 7412 H 716.002 1.63237 5.27312 0
M  V30 7413 H 716.479 0.18532 4.38809 0
M  V30 7414 H 717.085 1.77375 3.86546 0
M  V30 7415 N 715.4 -1.26948 0.933913 0
M  V30 7416 C 716.646 -1.94374 0.57848 0
M  V30 7417 C 716.979 -1.73166 -0.879048 0
M  V30 7418 O 716.254 -1.06438 -1.62792 0
M  V30 7419 C 716.537 -3.4834 0.912739 0
M  V30 7420 C 716.39 -3.78866 2.42448 0
M  V30 7421 C 717.709 -4.38062 0.423003 0
M  V30 7422 H 714.828 -0.705959 0.211639 0
M  V30 7423 H 717.47 -1.49951 1.16682 0
M  V30 7424 H 715.62 -3.86309 0.412058 0
M  V30 7425 H 717.292 -3.50654 2.99733 0
M  V30 7426 H 715.535 -3.25198 2.87104 0
M  V30 7427 H 716.206 -4.86458 2.60887 0
M  V30 7428 H 718.682 -4.0728 0.852191 0
M  V30 7429 H 717.558 -5.44599 0.685776 0
M  V30 7430 H 717.819 -4.36886 -0.676994 0
M  V30 7431 N 716.879 -0.700114 -1.41195 0
M  V30 7432 C 718.125 -0.233351 -2.01453 0
M  V30 7433 C 718.458 1.16548 -1.55339 0
M  V30 7434 O 717.733 1.78756 -0.766575 0
M  V30 7435 C 718.016 -0.2961 -3.58881 0
M  V30 7436 C 717.869 -1.7322 -4.15108 0
M  V30 7437 C 719.188 0.341525 -4.38773 0
M  V30 7438 H 716.307 -0.0862667 -0.731934 0
M  V30 7439 H 718.949 -0.889693 -1.67882 0
M  V30 7440 H 717.099 0.262736 -3.87611 0
M  V30 7441 H 718.771 -2.34523 -3.97236 0
M  V30 7442 H 717.014 -2.2649 -3.69979 0
M  V30 7443 H 717.685 -1.7276 -5.24269 0
M  V30 7444 H 720.161 -0.134461 -4.15883 0
M  V30 7445 H 719.037 0.267098 -5.4825 0
M  V30 7446 H 719.298 1.42289 -4.18577 0
M  V30 7447 N 718.357 1.51182 -0.445186 0
M  V30 7448 C 719.289 2.25714 0.398206 0
M  V30 7449 C 720.302 1.30032 0.979562 0
M  V30 7450 O 721.491 1.55731 0.872368 0
M  V30 7451 C 718.591 3.00348 1.56985 0
M  V30 7452 C 717.764 4.23187 1.10596 0
M  V30 7453 C 716.823 4.80334 2.14863 0
M  V30 7454 O 715.849 5.4196 1.73977 0
M  V30 7455 N 717.051 4.65053 3.47427 0
M  V30 7456 H 719.816 2.98732 -0.240629 0
M  V30 7457 H 717.377 1.59556 -0.274507 0
M  V30 7458 H 719.369 3.35464 2.26376 0
M  V30 7459 H 717.939 2.30291 2.11387 0
M  V30 7460 H 717.159 3.93476 0.238832 0
M  V30 7461 H 718.447 5.02886 0.773537 0
M  V30 7462 H 717.845 4.15984 3.83372 0
M  V30 7463 H 716.402 5.04509 4.12691 0
M  V30 7464 N 719.835 0.176821 1.56605 0
M  V30 7465 C 721.06 -0.47599 2.01864 0
M  V30 7466 C 721.485 -1.55645 1.05623 0
M  V30 7467 O 720.843 -1.81263 0.0366729 0
M  V30 7468 C 720.891 -1.02619 3.4569 0
M  V30 7469 O 719.995 -2.13996 3.52533 0
M  V30 7470 H 719.336 -0.113363 0.654251 0
M  V30 7471 H 721.866 0.28233 2.02643 0
M  V30 7472 H 721.876 -1.34742 3.85109 0
M  V30 7473 H 720.551 -0.235138 4.15235 0
M  V30 7474 H 719.128 -1.82876 3.24978 0
M  V30 7475 N 721.313 -1.57302 -0.09688 0
M  V30 7476 C 722.543 -1.89926 -0.813114 0
M  V30 7477 C 722.951 -0.76852 -1.72888 0
M  V30 7478 O 722.294 0.268549 -1.81726 0
M  V30 7479 C 722.356 -3.17787 -1.68082 0
M  V30 7480 C 722.02 -4.4729 -0.937061 0
M  V30 7481 C 723.017 -5.1921 -0.267687 0
M  V30 7482 C 720.702 -4.93957 -0.911671 0
M  V30 7483 C 722.696 -6.36034 0.417129 0
M  V30 7484 C 720.383 -6.10693 -0.223068 0
M  V30 7485 C 721.381 -6.8158 0.440155 0
M  V30 7486 O 721.069 -7.96092 1.11772 0
M  V30 7487 H 720.801 -0.632783 -0.237828 0
M  V30 7488 H 723.355 -2.05248 -0.0790818 0
M  V30 7489 H 721.585 -2.98607 -2.45705 0
M  V30 7490 H 723.274 -3.36257 -2.27346 0
M  V30 7491 H 724.04 -4.84198 -0.278774 0
M  V30 7492 H 719.919 -4.38671 -1.41734 0
M  V30 7493 H 723.463 -6.91301 0.93537 0
M  V30 7494 H 719.36 -6.45159 -0.209821 0
M  V30 7495 H 720.128 -8.12064 1.02443 0
M  V30 7496 N 722.791 0.367657 -1.53252 0
M  V30 7497 C 723.721 1.45632 -1.8252 0
M  V30 7498 C 724.702 1.55979 -0.678568 0
M  V30 7499 O 725.887 1.70581 -0.928217 0
M  V30 7500 C 723.017 2.82994 -2.01325 0
M  V30 7501 C 721.971 2.87473 -3.17086 0
M  V30 7502 C 721.297 4.2749 -3.21179 0
M  V30 7503 C 722.597 2.55182 -4.55719 0
M  V30 7504 H 724.291 1.21387 -2.73689 0
M  V30 7505 H 721.837 0.58251 -1.31692 0
M  V30 7506 H 723.79 3.59179 -2.20383 0
M  V30 7507 H 722.514 3.08622 -1.06864 0
M  V30 7508 H 721.173 2.13739 -2.97844 0
M  V30 7509 H 720.821 4.5019 -2.24361 0
M  V30 7510 H 720.521 4.31403 -3.98955 0
M  V30 7511 H 722.045 5.0555 -3.42419 0
M  V30 7512 H 723.459 3.21081 -4.74953 0
M  V30 7513 H 721.856 2.70414 -5.3572 0
M  V30 7514 H 722.926 1.5044 -4.60973 0
M  V30 7515 N 724.269 1.44576 0.627338 0
M  V30 7516 C 725.517 1.47267 1.38408 0
M  V30 7517 C 725.838 0.107971 1.94701 0
M  V30 7518 O 725.108 -0.860206 1.76004 0
M  V30 7519 H 723.688 0.542276 0.513756 0
M  V30 7520 H 726.35 1.80383 0.738099 0
M  V30 7521 H 725.446 2.20025 2.21349 0
M  V30 7522 N 725.747 -0.868086 1.31537 0
M  V30 7523 C 727.024 -1.60384 1.11965 0
M  V30 7524 C 727.404 -2.08584 -0.324949 0
M  V30 7525 O 726.752 -1.86561 -1.31937 0
M  V30 7526 C 726.962 -2.76038 2.13551 0
M  V30 7527 C 728.31 -3.45954 2.46173 0
M  V30 7528 O 729.334 -2.86247 2.11993 0
M  V30 7529 O 728.193 -4.53666 3.04711 0
M  V30 7530 H 725.287 -0.705705 0.431172 0
M  V30 7531 H 727.833 -0.913385 1.43022 0
M  V30 7532 H 726.605 -2.37849 3.10714 0
M  V30 7533 H 726.228 -3.52769 1.83411 0
M  V30 7534 N 727.225 -1.14528 -1.08264 0
M  V30 7535 C 728.453 -0.937964 -1.84418 0
M  V30 7536 C 728.868 0.51357 -1.81681 0
M  V30 7537 O 728.225 1.35591 -1.22153 0
M  V30 7538 C 728.276 -1.43272 -3.31897 0
M  V30 7539 O 727.997 -2.82738 -3.34651 0
M  V30 7540 C 729.498 -1.26555 -4.24851 0
M  V30 7541 H 726.718 -0.333704 -0.582136 0
M  V30 7542 H 729.262 -1.52076 -1.36723 0
M  V30 7543 H 727.417 -0.892653 -3.76975 0
M  V30 7544 H 727.831 -3.04971 -4.26724 0
M  V30 7545 H 729.305 -1.66031 -5.26439 0
M  V30 7546 H 729.782 -0.208589 -4.38704 0
M  V30 7547 H 730.388 -1.79423 -3.856 0
M  V30 7548 N 728.703 1.26451 -0.940633 0
M  V30 7549 C 729.653 2.24086 -0.420669 0
M  V30 7550 C 730.637 1.53501 0.482301 0
M  V30 7551 O 731.829 1.74127 0.317636 0
M  V30 7552 C 728.958 3.41866 0.313452 0
M  V30 7553 C 728.044 4.19737 -0.606779 0
M  V30 7554 N 728.435 4.7521 -1.73232 0
M  V30 7555 C 726.733 4.44091 -0.41226 0
M  V30 7556 C 727.434 5.34052 -2.30572 0
M  V30 7557 N 726.41 5.1971 -1.59381 0
M  V30 7558 H 730.212 2.64569 -1.27986 0
M  V30 7559 H 727.726 1.4153 -0.796436 0
M  V30 7560 H 729.723 4.1093 0.702991 0
M  V30 7561 H 728.383 3.0291 1.16942 0
M  V30 7562 H 729.394 4.72769 -2.11447 0
M  V30 7563 H 726.071 4.1556 0.401984 0
M  V30 7564 H 727.461 5.87845 -3.25404 0
M  V30 7565 N 730.181 0.707592 1.40822 0
M  V30 7566 C 731.411 0.252706 2.05049 0
M  V30 7567 C 731.819 -1.10758 1.53393 0
M  V30 7568 O 731.162 -1.70567 0.682097 0
M  V30 7569 C 731.224 0.146001 3.59203 0
M  V30 7570 C 730.888 1.44027 4.33711 0
M  V30 7571 C 731.885 2.38058 4.62195 0
M  V30 7572 C 729.57 1.69698 4.72766 0
M  V30 7573 C 731.564 3.56013 5.28709 0
M  V30 7574 C 729.251 2.87936 5.39014 0
M  V30 7575 C 730.249 3.80915 5.66915 0
M  V30 7576 O 729.937 4.9708 6.31796 0
M  V30 7577 H 729.669 0.112784 0.666525 0
M  V30 7578 H 732.223 0.96417 1.81364 0
M  V30 7579 H 730.453 -0.621338 3.81676 0
M  V30 7580 H 732.142 -0.273275 4.04979 0
M  V30 7581 H 732.908 2.19487 4.32493 0
M  V30 7582 H 728.787 0.981835 4.50423 0
M  V30 7583 H 732.331 4.28604 5.50404 0
M  V30 7584 H 728.228 3.06419 5.68135 0
M  V30 7585 H 728.996 4.97053 6.50293 0
M  V30 7586 N 731.66 -1.50943 0.453197 0
M  V30 7587 C 732.607 -2.28128 -0.350197 0
M  V30 7588 C 733.577 -1.32398 -1.00299 0
M  V30 7589 O 734.762 -1.61319 -1.01887 0
M  V30 7590 C 731.902 -3.13782 -1.43649 0
M  V30 7591 C 731.015 -4.24523 -0.800255 0
M  V30 7592 C 730.15 -4.97462 -1.86293 0
M  V30 7593 C 729.189 -6.00102 -1.20598 0
M  V30 7594 N 728.326 -6.66387 -2.21071 0
M  V30 7595 H 733.166 -2.96337 0.31434 0
M  V30 7596 H 730.703 -1.46151 0.166863 0
M  V30 7597 H 732.661 -3.6178 -2.07776 0
M  V30 7598 H 731.291 -2.47655 -2.07044 0
M  V30 7599 H 730.343 -3.80371 -0.0468651 0
M  V30 7600 H 731.655 -4.98009 -0.280777 0
M  V30 7601 H 730.809 -5.49088 -2.58044 0
M  V30 7602 H 729.548 -4.23642 -2.41617 0
M  V30 7603 H 728.553 -5.47753 -0.474 0
M  V30 7604 H 729.778 -6.75887 -0.659859 0
M  V30 7605 H 727.724 -5.9537 -2.75446 0
M  V30 7606 H 727.641 -7.3569 -1.74058 0
M  V30 7607 H 728.909 -7.22638 -2.92257 0
M  V30 7608 N 733.138 -0.185124 -1.56509 0
M  V30 7609 C 734.048 0.751908 -2.22224 0
M  V30 7610 C 735.064 1.24244 -1.21817 0
M  V30 7611 O 736.24 1.29169 -1.54523 0
M  V30 7612 C 733.305 1.95837 -2.86092 0
M  V30 7613 C 732.366 1.51337 -4.01741 0
M  V30 7614 C 731.599 2.66233 -4.62554 0
M  V30 7615 O 731.822 3.8346 -4.22273 0
M  V30 7616 O 730.756 2.39517 -5.52191 0
M  V30 7617 H 734.582 0.222304 -3.02885 0
M  V30 7618 H 732.167 0.0437141 -1.49336 0
M  V30 7619 H 734.049 2.66368 -3.26536 0
M  V30 7620 H 732.724 2.47677 -2.08417 0
M  V30 7621 H 731.631 0.777155 -3.65939 0
M  V30 7622 H 732.964 1.04175 -4.81049 0
M  V30 7623 N 734.616 1.57351 0.0885366 0
M  V30 7624 C 735.865 1.85604 0.789556 0
M  V30 7625 C 736.178 0.775352 1.79576 0
M  V30 7626 O 737.384 0.945206 2.54515 0
M  V30 7627 C 735.84 3.29175 1.45506 0
M  V30 7628 C 735.448 4.45331 0.488278 0
M  V30 7629 C 737.192 3.66646 2.13942 0
M  V30 7630 C 735.099 5.79937 1.15874 0
M  V30 7631 H 734.029 0.692346 0.298619 0
M  V30 7632 H 736.68 1.83451 0.0425821 0
M  V30 7633 H 735.062 3.25889 2.24972 0
M  V30 7634 H 736.236 4.59977 -0.275359 0
M  V30 7635 H 734.551 4.16301 -0.0907363 0
M  V30 7636 H 737.148 4.64498 2.6485 0
M  V30 7637 H 737.491 2.956 2.93132 0
M  V30 7638 H 738.024 3.71848 1.41328 0
M  V30 7639 H 734.763 6.54232 0.407508 0
M  V30 7640 H 734.283 5.69123 1.89364 0
M  V30 7641 H 735.962 6.24718 1.68336 0
M  V30 7642 N 736.094 -0.359525 1.53444 0
M  V30 7643 C 737.505 -0.936009 1.61542 0
M  V30 7644 C 737.856 -1.90069 0.486633 0
M  V30 7645 O 736.981 -2.12929 -0.386047 0
M  V30 7646 C 737.576 -1.70441 2.92806 0
M  V30 7647 C 736.135 -2.23015 3.03218 0
M  V30 7648 C 735.282 -1.04438 2.56881 0
M  V30 7649 H 738.233 -0.138134 1.58098 0
M  V30 7650 H 738.254 -2.56609 2.80948 0
M  V30 7651 H 737.766 -1.00205 3.74941 0
M  V30 7652 H 735.867 -2.96475 2.25684 0
M  V30 7653 H 735.98 -2.50481 4.08407 0
M  V30 7654 H 734.344 -1.41314 2.11902 0
M  V30 7655 H 735.127 -0.356905 3.4144 0
M  V30 7656 N 737.572 -1.44907 -0.619662 0
M  V30 7657 C 738.535 -1.52282 -1.71297 0
M  V30 7658 C 739.535 -0.40359 -1.55653 0
M  V30 7659 O 740.725 -0.666638 -1.6094 0
M  V30 7660 C 737.857 -1.40778 -3.10474 0
M  V30 7661 H 739.05 -2.49683 -1.66128 0
M  V30 7662 H 736.603 -1.32168 -0.834339 0
M  V30 7663 H 737.338 -0.445156 -3.2123 0
M  V30 7664 H 737.123 -2.21947 -3.23237 0
M  V30 7665 H 738.613 -1.48946 -3.90135 0
M  V30 7666 N 739.05 0.861098 -1.31996 0
M  V30 7667 C 740.461 1.43065 -1.19955 0
M  V30 7668 C 740.812 1.95273 0.190489 0
M  V30 7669 O 739.937 1.87012 1.08882 0
M  V30 7670 C 740.532 2.60052 -2.1716 0
M  V30 7671 C 739.091 3.13026 -2.09026 0
M  V30 7672 C 738.238 1.85756 -2.05888 0
M  V30 7673 H 741.189 0.668834 -1.43918 0
M  V30 7674 H 741.21 3.37016 -1.76637 0
M  V30 7675 H 740.722 2.22024 -3.18319 0
M  V30 7676 H 738.823 3.55653 -1.11092 0
M  V30 7677 H 738.936 3.74707 -2.98549 0
M  V30 7678 H 737.3 2.05088 -1.51033 0
M  V30 7679 H 738.083 1.49954 -3.08818 0
M  V30 7680 N 740.528 1.15101 1.07655 0
M  V30 7681 C 741.753 0.948177 1.84457 0
M  V30 7682 C 742.178 -0.498432 1.81376 0
M  V30 7683 O 741.536 -1.35509 1.20445 0
M  V30 7684 C 741.584 1.46318 3.29581 0
M  V30 7685 O 740.688 0.660342 4.07079 0
M  V30 7686 H 740.029 0.338428 0.571281 0
M  V30 7687 H 742.559 1.5301 1.35828 0
M  V30 7688 H 742.569 1.47468 3.80417 0
M  V30 7689 H 741.244 2.51635 3.31138 0
M  V30 7690 H 739.821 0.718216 3.65918 0
M  V30 7691 N 742.006 -1.2595 0.947325 0
M  V30 7692 C 742.969 -2.24407 0.466285 0
M  V30 7693 C 743.969 -1.55054 -0.426005 0
M  V30 7694 O 745.159 -1.7275 -0.224319 0
M  V30 7695 C 742.291 -3.39326 -0.327201 0
M  V30 7696 H 743.484 -2.68477 1.33642 0
M  V30 7697 H 741.037 -1.38211 0.729887 0
M  V30 7698 H 741.772 -3.00667 -1.21532 0
M  V30 7699 H 741.557 -3.9085 0.312839 0
M  V30 7700 H 743.047 -4.12455 -0.653477 0
M  V30 7701 N 743.484 -0.715051 -1.40445 0
M  V30 7702 C 744.414 -0.0768699 -2.33373 0
M  V30 7703 C 745.395 0.746109 -1.52863 0
M  V30 7704 O 746.58 0.695142 -1.81332 0
M  V30 7705 C 743.71 0.846014 -3.36838 0
M  V30 7706 C 742.664 0.128694 -4.27806 0
M  V30 7707 C 741.99 1.16726 -5.21804 0
M  V30 7708 C 743.29 -1.01679 -5.12307 0
M  V30 7709 H 744.984 -0.853061 -2.8699 0
M  V30 7710 H 742.53 -0.41167 -1.3799 0
M  V30 7711 H 744.483 1.30185 -4.00786 0
M  V30 7712 H 743.207 1.6541 -2.81615 0
M  V30 7713 H 741.866 -0.307314 -3.6531 0
M  V30 7714 H 741.514 1.96838 -4.62887 0
M  V30 7715 H 741.214 0.692188 -5.83509 0
M  V30 7716 H 742.738 1.62321 -5.88629 0
M  V30 7717 H 744.152 -0.640337 -5.69713 0
M  V30 7718 H 742.549 -1.4202 -5.83053 0
M  V30 7719 H 743.619 -1.84769 -4.48317 0
M  V30 7720 N 744.962 1.50701 -0.461195 0
M  V30 7721 C 746.19 2.06681 0.0951756 0
M  V30 7722 C 746.605 1.32615 1.34382 0
M  V30 7723 O 745.962 0.392531 1.78229 0
M  V30 7724 C 746.013 3.59354 0.393316 0
M  V30 7725 O 745.734 4.30626 -0.805797 0
M  V30 7726 C 747.235 4.31926 0.997744 0
M  V30 7727 H 744.455 0.670995 -0.00267259 0
M  V30 7728 H 746.999 1.93991 -0.647137 0
M  V30 7729 H 745.154 3.7188 1.08555 0
M  V30 7730 H 745.568 5.21667 -0.544409 0
M  V30 7731 H 747.042 5.39756 1.15619 0
M  V30 7732 H 747.519 3.91772 1.98523 0
M  V30 7733 H 748.125 4.23905 0.344188 0
M  V30 7734 N 746.441 0.193421 1.56409 0
M  V30 7735 C 747.852 -0.319471 1.83946 0
M  V30 7736 C 748.203 -1.61505 1.11403 0
M  V30 7737 O 747.328 -2.13139 0.374289 0
M  V30 7738 C 747.923 -0.586411 3.33686 0
M  V30 7739 C 746.482 -1.04368 3.61641 0
M  V30 7740 C 745.629 -0.0913834 2.77149 0
M  V30 7741 H 748.58 0.417242 1.53117 0
M  V30 7742 H 748.601 -1.43591 3.52366 0
M  V30 7743 H 748.113 0.356701 3.86457 0
M  V30 7744 H 746.214 -2.00113 3.14302 0
M  V30 7745 H 746.327 -0.937549 4.69837 0
M  V30 7746 H 744.691 -0.592954 2.47702 0
M  V30 7747 H 745.474 0.846142 3.32709 0
M  V30 7748 N 747.919 -1.57396 -0.0801906 0
M  V30 7749 C 748.866 -2.03107 -1.09618 0
M  V30 7750 C 749.836 -0.910118 -1.38946 0
M  V30 7751 O 751.021 -1.17719 -1.50156 0
M  V30 7752 C 748.161 -2.47293 -2.40708 0
M  V30 7753 C 747.274 -3.72972 -2.17982 0
M  V30 7754 C 746.409 -4.05975 -3.42576 0
M  V30 7755 C 745.448 -5.24719 -3.15177 0
M  V30 7756 N 744.585 -5.53401 -4.32078 0
M  V30 7757 H 749.425 -2.89677 -0.69939 0
M  V30 7758 H 746.962 -1.43263 -0.333785 0
M  V30 7759 H 748.92 -2.7096 -3.17232 0
M  V30 7760 H 747.55 -1.63713 -2.78205 0
M  V30 7761 H 746.602 -3.56693 -1.32189 0
M  V30 7762 H 747.914 -4.59638 -1.93738 0
M  V30 7763 H 747.068 -4.30498 -4.275 0
M  V30 7764 H 745.807 -3.17859 -3.69887 0
M  V30 7765 H 744.812 -5 -2.28648 0
M  V30 7766 H 746.037 -6.14445 -2.89197 0
M  V30 7767 H 743.983 -4.68245 -4.59437 0
M  V30 7768 H 743.9 -6.34469 -4.11078 0
M  V30 7769 H 745.168 -5.8247 -5.18024 0
M  V30 7770 N 749.397 0.351382 -1.53633 0
M  V30 7771 C 750.646 1.08988 -1.69719 0
M  V30 7772 C 750.959 1.90043 -0.462948 0
M  V30 7773 O 752.165 2.66769 -0.504613 0
M  V30 7774 C 750.621 1.98691 -3.00083 0
M  V30 7775 C 750.229 1.22881 -4.30818 0
M  V30 7776 C 751.973 2.72446 -3.25536 0
M  V30 7777 C 749.88 2.11568 -5.52262 0
M  V30 7778 H 748.81 0.410588 -0.632403 0
M  V30 7779 H 751.461 0.349886 -1.80133 0
M  V30 7780 H 749.843 2.76478 -2.83506 0
M  V30 7781 H 751.017 0.500582 -4.58073 0
M  V30 7782 H 749.332 0.60928 -4.11918 0
M  V30 7783 H 751.929 3.39055 -4.13456 0
M  V30 7784 H 752.272 3.38588 -2.42206 0
M  V30 7785 H 752.805 2.01735 -3.42852 0
M  V30 7786 H 749.544 1.4998 -6.38111 0
M  V30 7787 H 749.064 2.82201 -5.29266 0
M  V30 7788 H 750.743 2.70802 -5.87601 0
M  V30 7789 N 750.875 1.45233 0.611969 0
M  V30 7790 C 751.805 1.5641 1.73373 0
M  V30 7791 C 752.786 0.415896 1.64937 0
M  V30 7792 O 753.971 0.638478 1.83404 0
M  V30 7793 C 751.101 1.52627 3.11965 0
M  V30 7794 C 750.055 2.66119 3.35208 0
M  V30 7795 C 749.381 2.4739 4.74028 0
M  V30 7796 C 750.681 4.08157 3.25891 0
M  V30 7797 H 752.375 2.50307 1.64277 0
M  V30 7798 H 749.921 1.20467 0.788904 0
M  V30 7799 H 751.874 1.59043 3.90235 0
M  V30 7800 H 750.598 0.552564 3.21892 0
M  V30 7801 H 749.257 2.59123 2.59327 0
M  V30 7802 H 748.905 1.48168 4.80682 0
M  V30 7803 H 748.605 3.23494 4.90536 0
M  V30 7804 H 750.129 2.55653 5.54503 0
M  V30 7805 H 751.543 4.1642 3.9404 0
M  V30 7806 H 749.94 4.84617 3.5393 0
M  V30 7807 H 751.01 4.30374 2.23397 0
M  V30 7808 N 752.353 -0.854086 1.3245 0
M  V30 7809 C 753.63 -1.59188 1.1366 0
M  V30 7810 C 754.01 -2.08917 -0.302807 0
M  V30 7811 O 753.358 -1.8795 -1.29951 0
M  V30 7812 C 753.568 -2.73757 2.16467 0
M  V30 7813 C 754.916 -3.43323 2.49829 0
M  V30 7814 O 755.94 -2.83983 2.15017 0
M  V30 7815 O 754.799 -4.50409 3.09506 0
M  V30 7816 H 751.893 -0.701092 0.438633 0
M  V30 7817 H 754.439 -0.898165 1.43983 0
M  V30 7818 H 753.211 -2.3454 3.1322 0
M  V30 7819 H 752.834 -3.50804 1.87142 0
M  V30 7820 N 753.831 -1.1567 -1.07043 0
M  V30 7821 C 754.761 -0.879348 -2.16309 0
M  V30 7822 C 755.742 0.171311 -1.69235 0
M  V30 7823 O 756.927 0.0250175 -1.94184 0
M  V30 7824 C 754.057 -0.371307 -3.45309 0
M  V30 7825 C 753.011 -1.359 -4.05851 0
M  V30 7826 C 752.337 -0.709678 -5.29969 0
M  V30 7827 C 753.637 -2.72606 -4.45514 0
M  V30 7828 H 755.331 -1.79308 -2.39768 0
M  V30 7829 H 752.877 -0.863558 -1.15233 0
M  V30 7830 H 754.83 -0.164798 -4.21078 0
M  V30 7831 H 753.554 0.577906 -3.21446 0
M  V30 7832 H 752.213 -1.55193 -3.32131 0
M  V30 7833 H 751.861 0.245782 -5.02399 0
M  V30 7834 H 751.561 -1.36886 -5.71433 0
M  V30 7835 H 753.085 -0.513015 -6.08441 0
M  V30 7836 H 754.499 -2.57141 -5.12398 0
M  V30 7837 H 752.896 -3.34927 -4.97939 0
M  V30 7838 H 753.966 -3.28434 -3.56734 0
M  V30 7839 N 755.309 1.25446 -0.953992 0
M  V30 7840 C 756.239 2.28264 -0.491717 0
M  V30 7841 C 757.22 1.63717 0.461617 0
M  V30 7842 O 758.405 1.90821 0.36071 0
M  V30 7843 C 755.535 3.46525 0.231915 0
M  V30 7844 C 754.489 4.23247 -0.636098 0
M  V30 7845 C 753.815 5.34254 0.218238 0
M  V30 7846 C 755.115 4.85971 -1.91389 0
M  V30 7847 H 756.809 2.67183 -1.35106 0
M  V30 7848 H 754.355 1.2844 -0.651095 0
M  V30 7849 H 756.308 4.17576 0.566439 0
M  V30 7850 H 755.032 3.06594 1.12551 0
M  V30 7851 H 753.691 3.53978 -0.953696 0
M  V30 7852 H 753.339 4.90564 1.11156 0
M  V30 7853 H 753.039 5.86501 -0.359232 0
M  V30 7854 H 754.563 6.08138 0.547743 0
M  V30 7855 H 755.977 5.49168 -1.64581 0
M  V30 7856 H 754.374 5.48391 -2.43696 0
M  V30 7857 H 755.444 4.08192 -2.61738 0
M  V30 7858 N 756.787 0.722489 1.40064 0
M  V30 7859 C 758.033 0.265371 2.01056 0
M  V30 7860 C 758.366 -1.14062 1.57174 0
M  V30 7861 O 757.641 -1.77514 0.794916 0
M  V30 7862 C 757.924 0.353157 3.58364 0
M  V30 7863 C 757.777 1.79802 4.123 0
M  V30 7864 C 759.096 -0.271677 4.39261 0
M  V30 7865 H 756.215 0.0979002 0.730469 0
M  V30 7866 H 758.857 0.916289 1.66446 0
M  V30 7867 H 757.007 -0.201037 3.87979 0
M  V30 7868 H 758.679 2.40813 3.93455 0
M  V30 7869 H 756.922 2.32348 3.66329 0
M  V30 7870 H 757.593 1.81079 5.21454 0
M  V30 7871 H 760.069 0.200607 4.15616 0
M  V30 7872 H 758.945 -0.179843 5.48605 0
M  V30 7873 H 759.206 -1.35611 4.20787 0
M  V30 7874 N 758.265 -1.50454 0.469181 0
M  V30 7875 C 759.215 -2.25381 -0.344582 0
M  V30 7876 C 760.199 -1.28892 -0.963098 0
M  V30 7877 O 761.391 -1.53805 -0.875964 0
M  V30 7878 C 758.52 -3.12232 -1.4271 0
M  V30 7879 C 757.606 -4.16168 -0.816411 0
M  V30 7880 N 757.997 -5.05762 0.0621424 0
M  V30 7881 C 756.295 -4.32712 -1.08056 0
M  V30 7882 C 756.996 -5.80264 0.408519 0
M  V30 7883 N 755.972 -5.43171 -0.215827 0
M  V30 7884 H 759.774 -2.92016 0.332237 0
M  V30 7885 H 757.288 -1.59911 0.283209 0
M  V30 7886 H 759.285 -3.64514 -2.02324 0
M  V30 7887 H 757.945 -2.47145 -2.10593 0
M  V30 7888 H 758.956 -5.16105 0.430841 0
M  V30 7889 H 755.633 -3.78844 -1.75452 0
M  V30 7890 H 757.023 -6.62408 1.12539 0
M  V30 7891 N 759.743 -0.201713 -1.56304 0
M  V30 7892 C 760.706 0.702811 -2.18159 0
M  V30 7893 C 761.706 1.13619 -1.13787 0
M  V30 7894 O 762.896 1.0482 -1.39134 0
M  V30 7895 C 760.028 1.96032 -2.78898 0
M  V30 7896 H 761.221 0.163836 -2.99452 0
M  V30 7897 H 758.774 0.04791 -1.56227 0
M  V30 7898 H 759.509 2.54165 -2.01421 0
M  V30 7899 H 759.294 1.65824 -3.55309 0
M  V30 7900 H 760.784 2.60519 -3.26373 0
M  V30 7901 N 761.222 1.57436 0.0718424 0
M  V30 7902 C 762.471 1.86431 0.769826 0
M  V30 7903 C 762.784 0.794355 1.78744 0
M  V30 7904 O 763.99 0.972148 2.53499 0
M  V30 7905 C 762.446 3.307 1.42006 0
M  V30 7906 C 762.054 4.45824 0.441017 0
M  V30 7907 C 763.798 3.68894 2.10041 0
M  V30 7908 C 761.705 5.81134 1.09717 0
M  V30 7909 H 760.635 0.695474 0.291259 0
M  V30 7910 H 763.286 1.83485 0.0231224 0
M  V30 7911 H 761.668 3.28257 2.21502 0
M  V30 7912 H 762.842 4.59659 -0.32413 0
M  V30 7913 H 761.157 4.16181 -0.134886 0
M  V30 7914 H 763.754 4.67281 2.59908 0
M  V30 7915 H 764.097 2.98692 2.89981 0
M  V30 7916 H 764.63 3.73326 1.37376 0
M  V30 7917 H 761.369 6.54628 0.338095 0
M  V30 7918 H 760.889 5.711 1.83317 0
M  V30 7919 H 762.568 6.26468 1.617 0
M  V30 7920 N 762.7 -0.34323 1.53817 0
M  V30 7921 C 763.925 -1.1079 1.75329 0
M  V30 7922 C 764.35 -1.81571 0.491293 0
M  V30 7923 O 763.708 -1.72561 -0.556089 0
M  V30 7924 C 763.756 -2.09681 2.9337 0
M  V30 7925 O 762.86 -3.17207 2.63541 0
M  V30 7926 H 762.201 -0.320402 0.581583 0
M  V30 7927 H 764.731 -0.393525 2.0078 0
M  V30 7928 H 764.741 -2.52897 3.20168 0
M  V30 7929 H 763.416 -1.5756 3.84899 0
M  V30 7930 H 761.993 -2.78806 2.47632 0
M  V30 7931 N 764.178 -1.45556 -0.604258 0
M  V30 7932 C 765.427 -1.49019 -1.35928 0
M  V30 7933 C 765.74 -0.137409 -1.95117 0
M  V30 7934 O 766.946 -0.0497032 -2.71455 0
M  V30 7935 C 765.402 -2.62477 -2.46239 0
M  V30 7936 C 765.01 -4.04082 -1.93447 0
M  V30 7937 C 766.754 -2.7519 -3.23219 0
M  V30 7938 C 764.661 -5.08917 -3.0126 0
M  V30 7939 H 763.591 -0.554518 -0.510907 0
M  V30 7940 H 766.242 -1.71705 -0.647262 0
M  V30 7941 H 764.624 -2.3308 -3.2014 0
M  V30 7942 H 765.798 -4.43173 -1.26232 0
M  V30 7943 H 764.113 -3.95849 -1.29201 0
M  V30 7944 H 766.71 -3.50683 -4.0364 0
M  V30 7945 H 767.053 -1.81941 -3.74437 0
M  V30 7946 H 767.586 -3.04129 -2.56418 0
M  V30 7947 H 764.325 -6.03886 -2.54955 0
M  V30 7948 H 763.845 -4.74393 -3.67031 0
M  V30 7949 H 765.524 -5.33814 -3.65584 0
M  V30 7950 N 765.656 0.84705 -1.32902 0
M  V30 7951 C 766.604 1.97765 -1.22441 0
M  V30 7952 C 767.598 1.68919 -0.127546 0
M  V30 7953 O 768.804 1.77633 -0.290973 0
M  V30 7954 H 765.179 0.649072 -0.379748 0
M  V30 7955 H 767.15 2.03713 -2.18044 0
M  V30 7956 C 765.899 3.33834 -0.972125 0
M  V30 7957 H 765.222 3.56564 -1.80837 0
M  V30 7958 H 766.662 4.13467 -0.939209 0
M  V30 7959 C 765.121 3.35328 0.325059 0
M  V30 7960 O 765.651 3.78887 1.33445 0
M  V30 7961 N 763.857 2.88488 0.349718 0
M  V30 7962 H 763.404 2.53234 -0.472236 0
M  V30 7963 H 763.362 2.8987 1.21748 0
M  V30 7964 N 767.134 1.16236 1.06428 0
M  V30 7965 C 768.359 0.967688 1.83441 0
M  V30 7966 C 768.784 -0.479167 1.81894 0
M  V30 7967 O 768.142 -1.34224 1.21875 0
M  V30 7968 C 768.19 1.49806 3.2801 0
M  V30 7969 O 767.294 0.703481 4.06356 0
M  V30 7970 H 766.635 0.344468 0.56766 0
M  V30 7971 H 769.165 1.54442 1.34197 0
M  V30 7972 H 769.175 1.51495 3.78831 0
M  V30 7973 H 767.85 2.55133 3.2845 0
M  V30 7974 H 766.427 0.756986 3.65136 0
M  V30 7975 N 768.612 -1.24939 0.960631 0
M  V30 7976 C 769.575 -2.239 0.49006 0
M  V30 7977 C 770.575 -1.55497 -0.409535 0
M  V30 7978 O 771.765 -1.72978 -0.205984 0
M  V30 7979 C 768.897 -3.39654 -0.291193 0
M  V30 7980 H 770.09 -2.67044 1.36482 0
M  V30 7981 H 767.643 -1.37429 0.744505 0
M  V30 7982 H 768.378 -3.01939 -1.18336 0
M  V30 7983 H 768.163 -3.90496 0.354276 0
M  V30 7984 H 769.653 -4.13125 -0.609693 0
M  V30 7985 N 770.09 -0.729906 -1.39679 0
M  V30 7986 C 771.32 -0.285295 -2.04621 0
M  V30 7987 C 771.728 1.08304 -1.55135 0
M  V30 7988 O 771.071 1.6946 -0.709146 0
M  V30 7989 C 771.133 -0.203129 -3.58926 0
M  V30 7990 C 770.797 -1.50909 -4.31365 0
M  V30 7991 C 771.794 -2.45381 -4.58349 0
M  V30 7992 C 769.479 -1.77198 -4.70007 0
M  V30 7993 C 771.473 -3.64379 -5.22979 0
M  V30 7994 C 769.16 -2.96474 -5.34365 0
M  V30 7995 C 770.158 -3.89886 -5.60783 0
M  V30 7996 O 769.846 -5.07069 -6.23808 0
M  V30 7997 H 769.578 -0.123373 -0.664647 0
M  V30 7998 H 772.132 -0.992901 -1.79807 0
M  V30 7999 H 770.362 0.560538 -3.82616 0
M  V30 8000 H 772.051 0.208811 -4.05363 0
M  V30 8001 H 772.817 -2.2634 -4.28947 0
M  V30 8002 H 768.696 -1.05337 -4.48804 0
M  V30 8003 H 772.24 -4.37307 -5.43515 0
M  V30 8004 H 768.137 -3.15419 -5.63188 0
M  V30 8005 H 768.905 -5.07335 -6.42303 0
M  V30 8006 N 771.568 1.50203 -0.477153 0
M  V30 8007 C 772.796 2.0677 0.0732489 0
M  V30 8008 C 773.211 1.34033 1.32968 0
M  V30 8009 O 772.568 0.411412 1.77802 0
M  V30 8010 C 772.619 3.59751 0.35518 0
M  V30 8011 O 772.34 4.29747 -0.851425 0
M  V30 8012 C 773.841 4.3296 0.951877 0
M  V30 8013 H 771.061 0.670929 -0.00978923 0
M  V30 8014 H 773.605 1.93293 -0.667676 0
M  V30 8015 H 771.76 3.7301 1.04605 0
M  V30 8016 H 772.174 5.2106 -0.599708 0
M  V30 8017 H 773.648 5.40952 1.09888 0
M  V30 8018 H 774.125 3.93856 1.94356 0
M  V30 8019 H 774.731 4.24246 0.299208 0
M  V30 8020 N 773.046 0.209999 1.56195 0
M  V30 8021 C 774.274 -0.429996 2.02382 0
M  V30 8022 C 774.689 -1.54159 1.08998 0
M  V30 8023 O 774.046 -1.82239 0.0974856 0
M  V30 8024 C 774.097 -0.972433 3.48175 0
M  V30 8025 O 773.818 0.0948231 4.37997 0
M  V30 8026 C 775.319 -1.68683 4.09952 0
M  V30 8027 H 772.539 -0.106475 0.662498 0
M  V30 8028 H 775.083 0.323072 2.01932 0
M  V30 8029 H 773.238 -1.67582 3.49278 0
M  V30 8030 H 773.652 -0.31113 5.23576 0
M  V30 8031 H 775.126 -2.01851 5.13771 0
M  V30 8032 H 775.603 -2.59587 3.54276 0
M  V30 8033 H 776.209 -1.02893 4.12666 0
M  V30 8034 N 774.524 -1.57472 -0.0634922 0
M  V30 8035 C 775.471 -2.04258 -1.07457 0
M  V30 8036 C 776.441 -0.924804 -1.37973 0
M  V30 8037 O 777.626 -1.19305 -1.48899 0
M  V30 8038 C 774.766 -2.49832 -2.38071 0
M  V30 8039 C 773.879 -3.75263 -2.14014 0
M  V30 8040 C 773.014 -4.09585 -3.38251 0
M  V30 8041 C 772.053 -5.28032 -3.09594 0
M  V30 8042 N 771.19 -5.57953 -4.26185 0
M  V30 8043 H 776.03 -2.90402 -0.668626 0
M  V30 8044 H 773.567 -1.43609 -0.318572 0
M  V30 8045 H 775.525 -2.7431 -3.14341 0
M  V30 8046 H 774.155 -1.66654 -2.76453 0
M  V30 8047 H 773.207 -3.58075 -1.28399 0
M  V30 8048 H 774.519 -4.61667 -1.88852 0
M  V30 8049 H 773.673 -4.35008 -4.2291 0
M  V30 8050 H 772.412 -3.21765 -3.66495 0
M  V30 8051 H 771.417 -5.02397 -2.23332 0
M  V30 8052 H 772.642 -6.17477 -2.82663 0
M  V30 8053 H 770.588 -4.73092 -4.54445 0
M  V30 8054 H 770.505 -6.38793 -4.04326 0
M  V30 8055 H 771.773 -5.87931 -5.11817 0
M  V30 8056 N 776.003 0.335068 -1.53997 0
M  V30 8057 C 777.252 1.07182 -1.70865 0
M  V30 8058 C 777.565 1.89541 -0.483078 0
M  V30 8059 O 778.771 2.66219 -0.532879 0
M  V30 8060 C 777.227 1.95497 -3.02174 0
M  V30 8061 C 776.835 1.18304 -4.32097 0
M  V30 8062 C 778.579 2.68978 -3.28407 0
M  V30 8063 C 776.486 2.05699 -5.54474 0
M  V30 8064 H 775.416 0.403857 -0.636722 0
M  V30 8065 H 778.067 0.33076 -1.80494 0
M  V30 8066 H 776.449 2.73456 -2.86423 0
M  V30 8067 H 777.623 0.451969 -4.58578 0
M  V30 8068 H 775.938 0.565556 -4.12541 0
M  V30 8069 H 778.535 3.34651 -4.17029 0
M  V30 8070 H 778.878 3.36 -2.45784 0
M  V30 8071 H 779.411 1.98087 -3.44973 0
M  V30 8072 H 776.15 1.43204 -6.39666 0
M  V30 8073 H 775.67 2.76572 -5.32229 0
M  V30 8074 H 777.349 2.64554 -5.90441 0
M  V30 8075 N 777.481 1.45874 0.596531 0
M  V30 8076 C 778.411 1.5824 1.71705 0
M  V30 8077 C 779.392 0.433366 1.64487 0
M  V30 8078 O 780.577 0.657895 1.82717 0
M  V30 8079 C 777.707 1.55927 3.10329 0
M  V30 8080 C 776.661 2.69659 3.32367 0
M  V30 8081 C 775.987 2.52403 4.71377 0
M  V30 8082 C 777.287 4.11591 3.21544 0
M  V30 8083 H 778.981 2.52035 1.61613 0
M  V30 8084 H 776.527 1.21297 0.776082 0
M  V30 8085 H 778.48 1.63173 3.88526 0
M  V30 8086 H 777.204 0.586674 3.21288 0
M  V30 8087 H 775.863 2.61859 2.56564 0
M  V30 8088 H 775.511 1.53258 4.79083 0
M  V30 8089 H 775.211 3.28679 4.87077 0
M  V30 8090 H 776.735 2.6152 5.5176 0
M  V30 8091 H 778.149 4.20576 3.89601 0
M  V30 8092 H 776.546 4.88344 3.4877 0
M  V30 8093 H 777.616 4.32719 2.1882 0
M  V30 8094 N 778.959 -0.83999 1.33349 0
M  V30 8095 C 780.37 -1.41139 1.22216 0
M  V30 8096 C 780.721 -1.95551 -0.159398 0
M  V30 8097 O 779.846 -1.88721 -1.05893 0
M  V30 8098 C 780.441 -2.56564 2.21269 0
M  V30 8099 C 779 -3.09661 2.13979 0
M  V30 8100 C 778.147 -1.82457 2.08818 0
M  V30 8101 H 781.098 -0.645853 1.44964 0
M  V30 8102 H 781.119 -3.34163 1.81976 0
M  V30 8103 H 780.631 -2.16932 3.21811 0
M  V30 8104 H 778.732 -3.53841 1.16736 0
M  V30 8105 H 778.845 -3.6991 3.04472 0
M  V30 8106 H 777.209 -2.0266 1.54276 0
M  V30 8107 H 777.992 -1.45022 3.11165 0
M  V30 8108 N 780.437 -1.16799 -1.0581 0
M  V30 8109 C 781.848 -0.95945 -1.60161 0
M  V30 8110 C 782.199 0.49543 -1.89842 0
M  V30 8111 O 781.324 1.36957 -1.67546 0
M  V30 8112 C 781.919 -1.73527 -2.90987 0
M  V30 8113 C 780.478 -1.57158 -3.42021 0
M  V30 8114 C 779.625 -1.74089 -2.15843 0
M  V30 8115 H 782.576 -1.31598 -0.886992 0
M  V30 8116 H 782.597 -1.21397 -3.60615 0
M  V30 8117 H 782.109 -2.79411 -2.69353 0
M  V30 8118 H 780.21 -0.537361 -3.68705 0
M  V30 8119 H 780.323 -2.35858 -4.17022 0
M  V30 8120 H 778.687 -1.16874 -2.26302 0
M  V30 8121 H 779.47 -2.81371 -1.96686 0
M  V30 8122 N 781.915 1.24427 -0.967243 0
M  V30 8123 C 782.825 2.29109 -0.504592 0
M  V30 8124 C 783.841 1.68495 0.434224 0
M  V30 8125 O 785.017 1.99041 0.307379 0
M  V30 8126 C 782.082 3.46133 0.198273 0
M  V30 8127 C 781.143 4.22149 -0.780313 0
M  V30 8128 C 780.376 5.33585 -0.110896 0
M  V30 8129 O 780.599 5.59676 1.10088 0
M  V30 8130 O 779.533 5.96522 -0.802823 0
M  V30 8131 H 783.359 2.708 -1.37482 0
M  V30 8132 H 780.944 1.30111 -0.73426 0
M  V30 8133 H 782.826 4.17205 0.593124 0
M  V30 8134 H 781.501 3.0642 1.04347 0
M  V30 8135 H 780.408 3.53454 -1.22561 0
M  V30 8136 H 781.741 4.65677 -1.59392 0
M  V30 8137 N 783.393 0.737304 1.3929 0
M  V30 8138 C 784.34 0.0988364 2.30588 0
M  V30 8139 C 785.31 -0.727206 1.49335 0
M  V30 8140 O 786.495 -0.686694 1.78014 0
M  V30 8141 C 783.635 -0.800734 3.35682 0
M  V30 8142 C 782.748 0.0381731 4.31983 0
M  V30 8143 C 781.883 -0.862884 5.24145 0
M  V30 8144 C 780.922 -0.0193639 6.12097 0
M  V30 8145 N 780.059 -0.87648 6.96608 0
M  V30 8146 H 784.899 0.883031 2.84617 0
M  V30 8147 H 782.436 0.447111 1.4014 0
M  V30 8148 H 784.394 -1.33676 3.95205 0
M  V30 8149 H 783.024 -1.55088 2.83103 0
M  V30 8150 H 782.076 0.691641 3.74059 0
M  V30 8151 H 783.388 0.690294 4.94 0
M  V30 8152 H 782.542 -1.46667 5.88705 0
M  V30 8153 H 781.281 -1.54878 4.62454 0
M  V30 8154 H 780.286 0.597202 5.46547 0
M  V30 8155 H 781.511 0.663348 6.75852 0
M  V30 8156 H 779.457 -1.54762 6.37483 0
M  V30 8157 H 779.374 -0.280892 7.55478 0
M  V30 8158 H 780.642 -1.46575 7.65595 0
M  V30 8159 N 784.871 -1.49948 0.485112 0
M  V30 8160 C 785.781 -2.32587 -0.306697 0
M  V30 8161 C 786.797 -1.43598 -0.982632 0
M  V30 8162 O 787.973 -1.76638 -0.967519 0
M  V30 8163 C 785.038 -3.18638 -1.3664 0
M  V30 8164 C 784.099 -4.23462 -0.705589 0
M  V30 8165 C 783.332 -5.05401 -1.7148 0
M  V30 8166 O 783.555 -4.88618 -2.94293 0
M  V30 8167 O 782.489 -5.88157 -1.27889 0
M  V30 8168 H 786.315 -3.01447 0.369272 0
M  V30 8169 H 783.9 -1.47349 0.246709 0
M  V30 8170 H 785.782 -3.71992 -1.9799 0
M  V30 8171 H 784.457 -2.52491 -2.02559 0
M  V30 8172 H 783.364 -3.74063 -0.0527733 0
M  V30 8173 H 784.697 -4.92119 -0.0891187 0
M  V30 8174 N 786.349 -0.21828 -1.56081 0
M  V30 8175 C 787.597 0.413488 -1.97825 0
M  V30 8176 C 787.918 1.60527 -1.10707 0
M  V30 8177 O 787.188 1.9504 -0.183378 0
M  V30 8178 H 785.768 0.155757 -0.730581 0
M  V30 8179 H 788.43 -0.310413 -1.92412 0
M  V30 8180 H 787.526 0.742024 -3.03151 0
M  V30 8181 N 787.827 1.57504 0.0551401 0
M  V30 8182 C 788.79 2.03826 1.04821 0
M  V30 8183 C 789.79 0.937968 1.30609 0
M  V30 8184 O 790.98 1.20237 1.2605 0
M  V30 8185 C 788.112 2.43309 2.38775 0
M  V30 8186 H 789.305 2.92802 0.6486 0
M  V30 8187 H 786.858 1.53368 0.301315 0
M  V30 8188 H 787.593 1.5741 2.83536 0
M  V30 8189 H 787.378 3.23615 2.21395 0
M  V30 8190 H 788.868 2.79666 3.10124 0
M  V30 8191 N 789.305 -0.326896 1.54172 0
M  V30 8192 C 790.235 -1.40741 1.86317 0
M  V30 8193 C 791.216 -1.54125 0.719684 0
M  V30 8194 O 792.401 -1.6806 0.973117 0
M  V30 8195 C 789.531 -2.77557 2.08757 0
M  V30 8196 C 788.485 -2.78965 3.24596 0
M  V30 8197 C 787.811 -4.18824 3.32401 0
M  V30 8198 C 789.111 -2.4301 4.62324 0
M  V30 8199 H 790.805 -1.14088 2.76811 0
M  V30 8200 H 788.351 -0.547389 1.3319 0
M  V30 8201 H 790.304 -3.53209 2.29829 0
M  V30 8202 H 789.028 -3.0568 1.15009 0
M  V30 8203 H 787.687 -2.05767 3.03406 0
M  V30 8204 H 787.335 -4.44083 2.36218 0
M  V30 8205 H 787.035 -4.20673 4.10253 0
M  V30 8206 H 788.559 -4.96294 3.55703 0
M  V30 8207 H 789.973 -3.08375 4.83299 0
M  V30 8208 H 788.37 -2.56116 5.42701 0
M  V30 8209 H 789.44 -1.38165 4.64799 0
M  V30 8210 N 790.784 -1.46188 -0.588786 0
M  V30 8211 C 792.195 -1.45421 -1.17088 0
M  V30 8212 C 792.546 -0.191801 -1.9526 0
M  V30 8213 O 791.671 0.705497 -2.04577 0
M  V30 8214 C 792.266 -2.63467 -2.13004 0
M  V30 8215 C 790.825 -2.6576 -2.6655 0
M  V30 8216 C 789.972 -2.38002 -1.42304 0
M  V30 8217 H 792.923 -1.54156 -0.377052 0
M  V30 8218 H 792.944 -2.38638 -2.96365 0
M  V30 8219 H 792.456 -3.55331 -1.56081 0
M  V30 8220 H 790.557 -1.77952 -3.27359 0
M  V30 8221 H 790.67 -3.65545 -3.09699 0
M  V30 8222 H 789.034 -1.87936 -1.71907 0
M  V30 8223 H 789.817 -3.32035 -0.872209 0
M  V30 8224 N 792.262 0.832906 -1.33792 0
M  V30 8225 C 793.678 1.1245 -1.13257 0
M  V30 8226 C 793.878 2.01369 0.0725832 0
M  V30 8227 O 792.934 2.41071 0.751082 0
M  V30 8228 C 794.247 1.78084 -2.42294 0
M  V30 8229 C 795.795 1.90624 -2.48257 0
M  V30 8230 C 796.27 2.59673 -3.77271 0
M  V30 8231 N 797.761 2.67181 -3.78376 0
M  V30 8232 C 798.496 3.21313 -4.74916 0
M  V30 8233 N 797.992 3.76086 -5.81835 0
M  V30 8234 N 799.785 3.19621 -4.62384 0
M  V30 8235 H 791.936 0.241244 -2.11026 0
M  V30 8236 H 794.199 0.169557 -0.932713 0
M  V30 8237 H 793.905 1.20209 -3.30519 0
M  V30 8238 H 793.779 2.78049 -2.5489 0
M  V30 8239 H 796.166 2.4765 -1.60478 0
M  V30 8240 H 796.247 0.89591 -2.39598 0
M  V30 8241 H 795.891 2.03304 -4.65435 0
M  V30 8242 H 795.821 3.61189 -3.8321 0
M  V30 8243 H 798.312 2.28346 -3.01108 0
M  V30 8244 H 798.625 4.15612 -6.51526 0
M  V30 8245 H 796.97 3.74357 -5.85561 0
M  V30 8246 H 800.161 2.76091 -3.7801 0
M  V30 8247 H 800.334 3.61504 -5.37791 0
M  V30 8248 N 793.74 1.17359 1.05189 0
M  V30 8249 C 794.672 0.848078 2.12933 0
M  V30 8250 C 795.685 -0.149521 1.62112 0
M  V30 8251 O 796.874 0.0767797 1.78335 0
M  V30 8252 C 793.974 0.243889 3.38021 0
M  V30 8253 C 793.147 1.28436 4.18118 0
M  V30 8254 C 792.206 0.697926 5.21551 0
M  V30 8255 O 791.232 1.36973 5.52473 0
M  V30 8256 N 792.434 -0.510024 5.78255 0
M  V30 8257 H 795.199 1.7754 2.41453 0
M  V30 8258 H 792.76 1.07244 1.21286 0
M  V30 8259 H 794.752 -0.161727 4.04377 0
M  V30 8260 H 793.322 -0.58722 3.07035 0
M  V30 8261 H 792.542 1.86573 3.47252 0
M  V30 8262 H 793.83 1.98617 4.68432 0
M  V30 8263 H 793.228 -1.07378 5.55416 0
M  V30 8264 H 791.785 -0.857705 6.46132 0
M  V30 8265 N 795.218 -1.23913 0.973828 0
M  V30 8266 C 796.464 -1.92436 0.640026 0
M  V30 8267 C 796.797 -1.75875 -0.823512 0
M  V30 8268 O 796.072 -1.11563 -1.59323 0
M  V30 8269 C 796.355 -3.4526 1.0231 0
M  V30 8270 C 796.208 -3.70961 2.54378 0
M  V30 8271 C 797.527 -4.36495 0.562155 0
M  V30 8272 H 794.646 -0.698868 0.233992 0
M  V30 8273 H 797.288 -1.46163 1.21393 0
M  V30 8274 H 795.438 -3.84802 0.534751 0
M  V30 8275 H 797.11 -3.40941 3.10737 0
M  V30 8276 H 795.353 -3.15899 2.97305 0
M  V30 8277 H 796.024 -4.77912 2.76232 0
M  V30 8278 H 798.5 -4.04363 0.981333 0
M  V30 8279 H 797.376 -5.42142 0.858689 0
M  V30 8280 H 797.637 -4.38818 -0.537659 0
M  V30 8281 N 796.696 -0.74468 -1.38897 0
M  V30 8282 C 797.944 -0.296298 -1.99916 0
M  V30 8283 C 798.265 1.12325 -1.59399 0
M  V30 8284 O 797.535 1.76658 -0.846689 0
M  V30 8285 H 796.115 -0.106561 -0.73936 0
M  V30 8286 H 798.777 -0.956793 -1.69798 0
M  V30 8287 H 797.873 -0.352356 -3.10105 0
M  V30 8288 N 798.174 1.49689 -0.493057 0
M  V30 8289 C 799.122 2.30613 0.303383 0
M  V30 8290 C 800.116 1.38867 0.970165 0
M  V30 8291 O 801.322 1.55956 0.898761 0
M  V30 8292 H 797.697 0.742891 0.116691 0
M  V30 8293 H 799.668 2.95717 -0.39924 0
M  V30 8294 C 798.417 3.20008 1.35978 0
M  V30 8295 H 797.74 3.90526 0.856103 0
M  V30 8296 H 799.18 3.79586 1.88919 0
M  V30 8297 C 797.639 2.39079 2.37367 0
M  V30 8298 O 798.169 2.08933 3.43089 0
M  V30 8299 N 796.375 2.0125 2.09635 0
M  V30 8300 H 795.922 2.25966 1.23682 0
M  V30 8301 H 795.88 1.47408 2.77702 0
M  V30 8302 N 799.652 0.226554 1.55963 0
M  V30 8303 C 800.599 -0.681504 2.20509 0
M  V30 8304 C 801.569 -1.1866 1.16229 0
M  V30 8305 O 802.754 -1.24478 1.44602 0
M  V30 8306 C 799.894 -1.88183 2.89277 0
M  V30 8307 C 799.007 -1.41517 4.08163 0
M  V30 8308 C 798.142 -2.57346 4.647 0
M  V30 8309 C 797.181 -2.07441 5.75877 0
M  V30 8310 N 796.318 -3.16561 6.26685 0
M  V30 8311 H 801.158 -0.124372 2.9774 0
M  V30 8312 H 798.695 -0.0496333 1.47016 0
M  V30 8313 H 800.653 -2.58666 3.27335 0
M  V30 8314 H 799.283 -2.41177 2.14555 0
M  V30 8315 H 798.335 -0.605099 3.75557 0
M  V30 8316 H 799.647 -1.00928 4.88482 0
M  V30 8317 H 798.801 -3.35903 5.05227 0
M  V30 8318 H 797.54 -3.01227 3.83554 0
M  V30 8319 H 796.545 -1.27347 5.34848 0
M  V30 8320 H 797.77 -1.64554 6.58862 0
M  V30 8321 H 795.716 -3.59914 5.48451 0
M  V30 8322 H 795.633 -2.80239 7.02141 0
M  V30 8323 H 796.901 -3.95238 6.71868 0
M  V30 8324 N 801.13 -1.57531 -0.0467866 0
M  V30 8325 C 802.358 -1.92696 -0.753371 0
M  V30 8326 C 802.773 -0.824792 -1.69831 0
M  V30 8327 O 802.13 0.200155 -1.81399 0
M  V30 8328 C 802.181 -3.27728 -1.52566 0
M  V30 8329 O 801.902 -4.3371 -0.618674 0
M  V30 8330 C 803.403 -3.77066 -2.33101 0
M  V30 8331 H 800.623 -0.636367 -0.212788 0
M  V30 8332 H 803.167 -2.04498 -0.00959361 0
M  V30 8333 H 801.322 -3.17378 -2.22148 0
M  V30 8334 H 801.736 -5.11548 -1.15839 0
M  V30 8335 H 803.21 -4.74109 -2.82709 0
M  V30 8336 H 803.687 -3.07348 -3.13741 0
M  V30 8337 H 804.293 -3.90442 -1.68628 0
M  V30 8338 N 802.608 0.318715 -1.54344 0
M  V30 8339 C 803.518 1.41535 -1.87097 0
M  V30 8340 C 804.534 1.56361 -0.763353 0
M  V30 8341 O 805.71 1.71365 -1.05811 0
M  V30 8342 C 802.775 2.76178 -2.09587 0
M  V30 8343 C 801.836 2.70486 -3.3337 0
M  V30 8344 C 801.069 3.98708 -3.54778 0
M  V30 8345 O 801.292 4.9721 -2.79532 0
M  V30 8346 O 800.226 4.01674 -4.48266 0
M  V30 8347 H 804.052 1.16764 -2.80357 0
M  V30 8348 H 801.637 0.51318 -1.4031 0
M  V30 8349 H 803.519 3.55873 -2.25682 0
M  V30 8350 H 802.194 3.00829 -1.19514 0
M  V30 8351 H 801.101 1.89325 -3.22656 0
M  V30 8352 H 802.434 2.50789 -4.23516 0
M  V30 8353 N 804.086 1.46499 0.581025 0
M  V30 8354 C 805.326 1.53456 1.35021 0
M  V30 8355 C 805.69 0.182542 1.9113 0
M  V30 8356 O 806.891 0.126874 2.685 0
M  V30 8357 C 805.162 2.60387 2.44812 0
M  V30 8358 S 806.721 2.86762 3.32134 0
M  V30 8359 H 803.539 0.54216 0.459982 0
M  V30 8360 H 806.141 1.83742 0.667754 0
M  V30 8361 H 804.845 3.57253 2.01986 0
M  V30 8362 H 804.376 2.31839 3.17828 0
M  V30 8363 H 806.391 2.2216 4.43688 0
M  V30 8364 N 805.565 -0.825799 1.34232 0
M  V30 8365 C 806.528 -1.91808 1.25468 0
M  V30 8366 C 807.528 -1.59893 0.170567 0
M  V30 8367 O 808.718 -1.68986 0.422996 0
M  V30 8368 C 805.85 -3.27786 0.93644 0
M  V30 8369 H 807.043 -2.01003 2.22571 0
M  V30 8370 H 804.596 -1.01944 1.18479 0
M  V30 8371 H 805.331 -3.24285 -0.0315408 0
M  V30 8372 H 805.116 -3.52333 1.72057 0
M  V30 8373 H 806.606 -4.07782 0.900214 0
M  V30 8374 N 807.043 -1.17915 -1.04565 0
M  V30 8375 C 807.973 -0.925033 -2.14395 0
M  V30 8376 C 808.954 0.135375 -1.6956 0
M  V30 8377 O 810.139 -0.0161774 -1.94193 0
M  V30 8378 C 807.269 -0.444469 -3.44444 0
M  V30 8379 C 806.223 -1.44478 -4.02877 0
M  V30 8380 C 805.549 -0.821933 -5.28345 0
M  V30 8381 C 806.849 -2.81995 -4.39632 0
M  V30 8382 H 808.543 -1.84354 -2.35911 0
M  V30 8383 H 806.089 -0.887806 -1.13375 0
M  V30 8384 H 808.042 -0.254078 -4.20633 0
M  V30 8385 H 806.766 0.509592 -3.226 0
M  V30 8386 H 805.425 -1.62203 -3.28764 0
M  V30 8387 H 805.073 0.139161 -5.02807 0
M  V30 8388 H 804.773 -1.48976 -5.68401 0
M  V30 8389 H 806.297 -0.641959 -6.07216 0
M  V30 8390 H 807.711 -2.67952 -5.06828 0
M  V30 8391 H 806.108 -3.45414 -4.90723 0
M  V30 8392 H 807.178 -3.35927 -3.49687 0
M  V30 8393 N 808.521 1.23394 -0.980386 0
M  V30 8394 C 809.451 2.2717 -0.540024 0
M  V30 8395 C 810.432 1.64659 0.426787 0
M  V30 8396 O 811.617 1.91543 0.320153 0
M  V30 8397 C 808.747 3.46939 0.15836 0
M  V30 8398 C 807.701 4.21802 -0.725732 0
M  V30 8399 C 807.027 5.34597 0.104866 0
M  V30 8400 C 808.327 4.81802 -2.01654 0
M  V30 8401 H 810.021 2.64257 -1.40743 0
M  V30 8402 H 807.567 1.2703 -0.678193 0
M  V30 8403 H 809.52 4.18683 0.477737 0
M  V30 8404 H 808.244 3.08912 1.06022 0
M  V30 8405 H 806.903 3.51875 -1.02857 0
M  V30 8406 H 806.551 4.92812 1.00726 0
M  V30 8407 H 806.251 5.85607 -0.483557 0
M  V30 8408 H 807.775 6.09163 0.418624 0
M  V30 8409 H 809.189 5.45554 -1.76193 0
M  V30 8410 H 807.586 5.43098 -2.55273 0
M  V30 8411 H 808.656 4.02549 -2.70338 0
M  V30 8412 N 809.999 0.752036 1.385 0
M  V30 8413 C 811.247 0.306895 1.99756 0
M  V30 8414 C 811.568 -1.11478 1.59992 0
M  V30 8415 O 810.838 -1.76206 0.856045 0
M  V30 8416 H 809.418 0.11048 0.738785 0
M  V30 8417 H 812.08 0.965785 1.69289 0
M  V30 8418 H 811.176 0.368797 3.09913 0
M  V30 8419 N 811.477 -1.49425 0.500989 0
M  V30 8420 C 812.724 -2.02453 -0.0435355 0
M  V30 8421 C 813.052 -1.38067 -1.36995 0
M  V30 8422 O 812.307 -0.505557 -1.89057 0
M  V30 8423 C 812.606 -3.56562 -0.24463 0
M  V30 8424 C 812.272 -4.39585 1.00379 0
M  V30 8425 C 810.934 -4.61992 1.346 0
M  V30 8426 C 813.286 -4.87881 1.83361 0
M  V30 8427 C 810.614 -5.2994 2.51755 0
M  V30 8428 C 812.966 -5.57119 2.99669 0
M  V30 8429 C 811.63 -5.77771 3.3427 0
M  V30 8430 H 810.9 -0.740829 -0.0159308 0
M  V30 8431 H 813.547 -1.79725 0.661143 0
M  V30 8432 H 811.852 -3.77969 -1.03183 0
M  V30 8433 H 813.549 -3.95185 -0.6804 0
M  V30 8434 H 810.139 -4.22385 0.727225 0
M  V30 8435 H 814.323 -4.70398 1.58237 0
M  V30 8436 H 809.579 -5.44133 2.788 0
M  V30 8437 H 813.753 -5.93516 3.64296 0
M  V30 8438 H 811.38 -6.30197 4.25154 0
M  V30 8439 N 812.955 -0.234822 -1.55841 0
M  V30 8440 C 814.201 0.393843 -1.98939 0
M  V30 8441 C 814.534 1.58466 -1.1226 0
M  V30 8442 O 813.809 1.93635 -0.183242 0
M  V30 8443 C 814.092 0.815492 -3.50745 0
M  V30 8444 C 813.945 -0.379878 -4.48193 0
M  V30 8445 C 815.264 1.66687 -4.07312 0
M  V30 8446 H 812.383 0.141681 -0.723253 0
M  V30 8447 H 815.025 -0.333716 -1.87046 0
M  V30 8448 H 813.175 1.43541 -3.6101 0
M  V30 8449 H 814.847 -1.0182 -4.49923 0
M  V30 8450 H 813.09 -1.02507 -4.21515 0
M  V30 8451 H 813.761 -0.0417069 -5.51984 0
M  V30 8452 H 816.237 1.14369 -4.00074 0
M  V30 8453 H 815.113 1.93078 -5.13821 0
M  V30 8454 H 815.374 2.63468 -3.55017 0
M  V30 8455 N 814.433 1.57553 0.0384317 0
M  V30 8456 C 815.363 2.0898 1.04161 0
M  V30 8457 C 816.344 0.99029 1.38301 0
M  V30 8458 O 817.529 1.26499 1.47349 0
M  V30 8459 C 814.659 2.56145 2.34536 0
M  V30 8460 C 813.613 3.70275 2.14663 0
M  V30 8461 C 812.939 4.03612 3.50715 0
M  V30 8462 C 814.239 4.99067 1.54045 0
M  V30 8463 H 815.933 2.93046 0.613548 0
M  V30 8464 H 813.479 1.40973 0.293684 0
M  V30 8465 H 815.432 2.90741 3.05037 0
M  V30 8466 H 814.156 1.6915 2.79385 0
M  V30 8467 H 812.815 3.36013 1.46597 0
M  V30 8468 H 812.463 3.13698 3.93195 0
M  V30 8469 H 812.163 4.80482 3.38247 0
M  V30 8470 H 813.687 4.40735 4.22593 0
M  V30 8471 H 815.101 5.3168 2.14451 0
M  V30 8472 H 813.498 5.80484 1.52178 0
M  V30 8473 H 814.568 4.8226 0.505259 0
M  V30 8474 N 815.911 -0.310526 1.54511 0
M  V30 8475 C 817.188 -1.06593 1.64004 0
M  V30 8476 C 817.568 -2.05519 0.482216 0
M  V30 8477 O 816.916 -2.22455 -0.52212 0
M  V30 8478 C 817.126 -1.75627 3.01589 0
M  V30 8479 C 818.474 -2.28173 3.58081 0
M  V30 8480 O 819.498 -1.85674 3.03979 0
M  V30 8481 O 818.357 -3.06015 4.52788 0
M  V30 8482 H 815.451 -0.492109 0.664649 0
M  V30 8483 H 817.997 -0.309374 1.66856 0
M  V30 8484 H 816.769 -1.03743 3.77297 0
M  V30 8485 H 816.392 -2.58061 3.02473 0
M  V30 8486 N 817.389 -1.46805 -0.573248 0
M  V30 8487 C 818.319 -1.60951 -1.69165 0
M  V30 8488 C 819.3 -0.45948 -1.63777 0
M  V30 8489 O 820.485 -0.68688 -1.81647 0
M  V30 8490 C 817.615 -1.60844 -3.07809 0
M  V30 8491 C 816.569 -2.74913 -3.28035 0
M  V30 8492 C 815.895 -2.59871 -4.67302 0
M  V30 8493 C 817.195 -4.16654 -3.14955 0
M  V30 8494 H 818.889 -2.54574 -1.57582 0
M  V30 8495 H 816.435 -1.22516 -0.756686 0
M  V30 8496 H 818.388 -1.69334 -3.85881 0
M  V30 8497 H 817.112 -0.637714 -3.20314 0
M  V30 8498 H 815.771 -2.65908 -2.52366 0
M  V30 8499 H 815.419 -1.60861 -4.76585 0
M  V30 8500 H 815.119 -3.36386 -4.81786 0
M  V30 8501 H 816.643 -2.70265 -5.4753 0
M  V30 8502 H 818.057 -4.26721 -3.82861 0
M  V30 8503 H 816.454 -4.93831 -3.40956 0
M  V30 8504 H 817.524 -4.36146 -2.11908 0
M  V30 8505 N 818.867 0.818669 -1.34668 0
M  V30 8506 C 819.814 1.92983 -1.26595 0
M  V30 8507 C 820.784 1.65506 -0.140315 0
M  V30 8508 O 821.969 1.88063 -0.322005 0
M  V30 8509 C 819.109 3.2932 -1.03163 0
M  V30 8510 C 818.222 3.69061 -2.24539 0
M  V30 8511 C 817.357 4.94368 -1.94355 0
M  V30 8512 C 816.396 5.26702 -3.11851 0
M  V30 8513 N 815.533 6.43187 -2.81522 0
M  V30 8514 H 820.373 1.99219 -2.2162 0
M  V30 8515 H 817.91 0.974612 -1.1018 0
M  V30 8516 H 819.868 4.07897 -0.87613 0
M  V30 8517 H 818.498 3.22584 -0.118045 0
M  V30 8518 H 817.55 2.85842 -2.50995 0
M  V30 8519 H 818.862 3.88924 -3.12313 0
M  V30 8520 H 818.016 5.80742 -1.75566 0
M  V30 8521 H 816.755 4.76515 -1.03848 0
M  V30 8522 H 815.76 4.38823 -3.31231 0
M  V30 8523 H 816.985 5.46492 -4.03142 0
M  V30 8524 H 814.931 6.26783 -1.93596 0
M  V30 8525 H 814.848 6.63243 -3.62829 0
M  V30 8526 H 816.116 7.32621 -2.66247 0
M  V30 8527 N 820.346 1.18468 1.03938 0
M  V30 8528 C 821.762 0.934635 1.29371 0
M  V30 8529 C 821.962 -0.399067 1.97509 0
M  V30 8530 O 821.018 -1.13309 2.25648 0
M  V30 8531 C 822.331 2.10111 2.15114 0
M  V30 8532 C 823.879 2.13955 2.28456 0
M  V30 8533 C 824.354 3.30024 3.17566 0
M  V30 8534 N 825.845 3.29893 3.25153 0
M  V30 8535 C 826.58 4.16346 3.94263 0
M  V30 8536 N 826.076 5.12934 4.65693 0
M  V30 8537 N 827.869 4.04256 3.90556 0
M  V30 8538 H 820.02 2.04294 0.581185 0
M  V30 8539 H 822.283 0.892727 0.318971 0
M  V30 8540 H 821.989 3.06572 1.72355 0
M  V30 8541 H 821.863 2.06283 3.15796 0
M  V30 8542 H 824.25 1.18072 2.7045 0
M  V30 8543 H 824.331 2.2184 1.2736 0
M  V30 8544 H 823.975 4.26181 2.76283 0
M  V30 8545 H 823.905 3.19376 4.18697 0
M  V30 8546 H 826.396 2.59969 2.74271 0
M  V30 8547 H 826.709 5.75271 5.16026 0
M  V30 8548 H 825.054 5.16893 4.64593 0
M  V30 8549 H 828.245 3.28083 3.33885 0
M  V30 8550 H 828.418 4.71848 4.44144 0
M  V30 8551 N 821.824 -1.22873 0.986916 0
M  V30 8552 C 823.101 -1.86939 0.575589 0
M  V30 8553 C 823.481 -1.88656 -0.947205 0
M  V30 8554 O 822.829 -1.3728 -1.82665 0
M  V30 8555 C 823.039 -3.28117 1.18914 0
M  V30 8556 C 824.387 -4.04659 1.28593 0
M  V30 8557 O 825.411 -3.3736 1.14308 0
M  V30 8558 O 824.27 -5.25112 1.51391 0
M  V30 8559 H 821.364 -0.803748 0.194724 0
M  V30 8560 H 823.91 -1.30698 1.08241 0
M  V30 8561 H 822.682 -3.21468 2.231 0
M  V30 8562 H 822.305 -3.91956 0.667535 0
M  V30 8563 N 823.302 -0.75937 -1.38099 0
M  V30 8564 C 824.549 -0.318113 -1.99986 0
M  V30 8565 C 824.877 1.10184 -1.6028 0
M  V30 8566 O 824.132 1.77015 -0.834524 0
M  V30 8567 C 824.431 -0.394999 -3.55211 0
M  V30 8568 C 824.097 -1.77143 -4.14646 0
M  V30 8569 C 822.759 -2.14811 -4.30592 0
M  V30 8570 C 825.111 -2.67407 -4.47373 0
M  V30 8571 C 822.439 -3.42203 -4.76565 0
M  V30 8572 C 824.791 -3.94196 -4.94765 0
M  V30 8573 C 823.455 -4.31925 -5.08918 0
M  V30 8574 H 822.725 -0.116406 -0.7318 0
M  V30 8575 H 825.372 -0.97098 -1.65058 0
M  V30 8576 H 823.677 0.341426 -3.9031 0
M  V30 8577 H 825.374 -0.0350722 -4.00985 0
M  V30 8578 H 821.964 -1.46864 -4.02652 0
M  V30 8579 H 826.148 -2.39569 -4.3465 0
M  V30 8580 H 821.404 -3.71346 -4.85708 0
M  V30 8581 H 825.578 -4.64276 -5.19057 0
M  V30 8582 H 823.205 -5.30699 -5.443 0
M  V30 8583 N 824.78 1.49157 -0.508906 0
M  V30 8584 C 825.712 2.272 0.302115 0
M  V30 8585 C 826.725 1.3407 0.923529 0
M  V30 8586 O 827.914 1.5929 0.805532 0
M  V30 8587 C 825.014 3.06736 1.44105 0
M  V30 8588 C 824.187 4.27497 0.925477 0
M  V30 8589 C 823.246 4.89014 1.94297 0
M  V30 8590 O 822.272 5.48851 1.50834 0
M  V30 8591 N 823.474 4.7937 3.2739 0
M  V30 8592 H 826.239 2.97443 -0.367115 0
M  V30 8593 H 823.8 1.58248 -0.341933 0
M  V30 8594 H 825.792 3.44763 2.11944 0
M  V30 8595 H 824.362 2.3905 2.0143 0
M  V30 8596 H 823.582 3.94135 0.0717301 0
M  V30 8597 H 824.87 5.05714 0.55955 0
M  V30 8598 H 824.268 4.31869 3.65384 0
M  V30 8599 H 822.825 5.21559 3.90922 0
M  V30 8600 N 826.258 0.243083 1.55714 0
M  V30 8601 C 827.669 -0.260788 1.8487 0
M  V30 8602 C 828.02 -1.57879 1.16485 0
M  V30 8603 O 827.145 -2.1184 0.441908 0
M  V30 8604 C 827.74 -0.479954 3.35383 0
M  V30 8605 C 826.299 -0.928096 3.64778 0
M  V30 8606 C 825.446 -0.00316416 2.773 0
M  V30 8607 H 828.397 0.465743 1.51712 0
M  V30 8608 H 828.418 -1.32308 3.56756 0
M  V30 8609 H 827.93 0.479468 3.85127 0
M  V30 8610 H 826.031 -1.90012 3.20509 0
M  V30 8611 H 826.144 -0.7876 4.72582 0
M  V30 8612 H 824.508 -0.513849 2.49463 0
M  V30 8613 H 825.291 0.951562 3.29849 0
M  V30 8614 N 827.736 -1.57571 -0.0300757 0
M  V30 8615 C 828.982 -1.89506 -0.722159 0
M  V30 8616 C 829.315 -0.840699 -1.7506 0
M  V30 8617 O 828.59 0.144358 -1.93964 0
M  V30 8618 C 828.873 -3.32081 -1.39262 0
M  V30 8619 C 828.726 -4.48211 -0.377768 0
M  V30 8620 C 830.045 -3.73557 -2.32687 0
M  V30 8621 H 827.164 -0.689213 -0.261064 0
M  V30 8622 H 829.806 -1.89994 0.0150388 0
M  V30 8623 H 827.956 -3.31796 -2.02098 0
M  V30 8624 H 829.628 -4.6063 0.248591 0
M  V30 8625 H 827.871 -4.3274 0.303045 0
M  V30 8626 H 828.542 -5.44854 -0.885347 0
M  V30 8627 H 831.018 -3.75202 -1.79896 0
M  V30 8628 H 829.894 -4.74125 -2.7658 0
M  V30 8629 H 830.155 -3.05759 -3.19317 0
M  V30 8630 N 829.214 0.302327 -1.54673 0
M  V30 8631 C 830.63 0.647911 -1.45857 0
M  V30 8632 C 830.83 1.90773 -0.64869 0
M  V30 8633 O 829.886 2.52018 -0.155865 0
M  V30 8634 C 831.199 0.802144 -2.89804 0
M  V30 8635 C 832.747 0.898114 -2.99838 0
M  V30 8636 C 833.222 1.08436 -4.44978 0
M  V30 8637 N 834.713 1.15059 -4.48682 0
M  V30 8638 C 835.448 1.31296 -5.58166 0
M  V30 8639 N 834.944 1.4444 -6.77576 0
M  V30 8640 N 836.737 1.34174 -5.45851 0
M  V30 8641 H 828.888 -0.525428 -2.05798 0
M  V30 8642 H 831.151 -0.173423 -0.932002 0
M  V30 8643 H 830.857 -0.0526531 -3.51661 0
M  V30 8644 H 830.731 1.69155 -3.37145 0
M  V30 8645 H 833.118 1.7434 -2.38096 0
M  V30 8646 H 833.199 -0.0152752 -2.55795 0
M  V30 8647 H 832.843 0.243843 -5.07314 0
M  V30 8648 H 832.773 2.01195 -4.8665 0
M  V30 8649 H 835.264 1.0626 -3.62653 0
M  V30 8650 H 835.577 1.56582 -7.56771 0
M  V30 8651 H 833.922 1.41499 -6.80443 0
M  V30 8652 H 837.113 1.23516 -4.5151 0
M  V30 8653 H 837.286 1.46485 -6.31226 0
M  V30 8654 N 830.692 1.47107 0.565454 0
M  V30 8655 C 831.602 1.61591 1.70075 0
M  V30 8656 C 832.618 0.498931 1.66693 0
M  V30 8657 O 833.794 0.765372 1.8629 0
M  V30 8658 C 830.859 1.61887 3.06583 0
M  V30 8659 C 829.92 2.84949 3.21096 0
M  V30 8660 C 829.153 2.85221 4.51093 0
M  V30 8661 O 829.376 1.94959 5.36048 0
M  V30 8662 O 828.31 3.76982 4.69221 0
M  V30 8663 H 832.136 2.57638 1.60799 0
M  V30 8664 H 829.721 1.30097 0.73451 0
M  V30 8665 H 831.603 1.64809 3.87835 0
M  V30 8666 H 830.278 0.69005 3.16259 0
M  V30 8667 H 829.185 2.87575 2.39273 0
M  V30 8668 H 830.518 3.77098 3.1632 0
M  V30 8669 N 832.17 -0.811516 1.35101 0
M  V30 8670 C 833.102 -1.93102 1.23468 0
M  V30 8671 C 834.115 -1.62021 0.159095 0
M  V30 8672 O 835.304 -1.73682 0.411945 0
M  V30 8673 C 832.404 -3.27345 0.877404 0
M  V30 8674 C 831.577 -3.86368 2.05033 0
M  V30 8675 C 830.636 -4.99009 1.66963 0
M  V30 8676 O 829.662 -5.16698 2.38772 0
M  V30 8677 N 830.864 -5.7749 0.590394 0
M  V30 8678 H 833.629 -2.0361 2.19916 0
M  V30 8679 H 831.19 -0.988687 1.28205 0
M  V30 8680 H 833.182 -4.00163 0.604298 0
M  V30 8681 H 831.752 -3.126 0.00275267 0
M  V30 8682 H 830.972 -3.05804 2.48752 0
M  V30 8683 H 832.26 -4.22533 2.83449 0
M  V30 8684 H 831.658 -5.657 -0.00633259 0
M  V30 8685 H 830.215 -6.50708 0.377055 0
M  V30 8686 N 833.648 -1.19017 -1.03309 0
M  V30 8687 C 834.897 -0.984542 -1.76039 0
M  V30 8688 C 835.21 0.485937 -1.89468 0
M  V30 8689 O 836.416 0.810278 -2.59127 0
M  V30 8690 C 834.872 -1.71261 -3.1654 0
M  V30 8691 C 834.48 -3.22291 -3.11179 0
M  V30 8692 C 836.224 -1.59007 -3.93595 0
M  V30 8693 C 834.131 -3.87704 -4.46587 0
M  V30 8694 H 833.061 -0.364749 -0.659905 0
M  V30 8695 H 835.712 -1.4247 -1.15649 0
M  V30 8696 H 834.094 -1.20025 -3.77373 0
M  V30 8697 H 835.268 -3.80611 -2.59753 0
M  V30 8698 H 833.583 -3.34772 -2.47622 0
M  V30 8699 H 836.18 -2.05232 -4.93745 0
M  V30 8700 H 836.523 -0.543534 -4.12736 0
M  V30 8701 H 837.056 -2.07564 -3.39355 0
M  V30 8702 H 833.795 -4.92437 -4.3265 0
M  V30 8703 H 833.315 -3.34172 -4.98085 0
M  V30 8704 H 834.994 -3.91008 -5.15482 0
M  V30 8705 N 835.127 1.22348 -0.993418 0
M  V30 8706 C 836.538 1.72893 -0.704616 0
M  V30 8707 C 836.889 1.80095 0.778483 0
M  V30 8708 O 836.014 1.4476 1.60853 0
M  V30 8709 C 836.609 3.14 -1.27237 0
M  V30 8710 C 835.168 3.61949 -1.03294 0
M  V30 8711 C 834.315 2.39816 -1.39225 0
M  V30 8712 H 837.266 1.07688 -1.16572 0
M  V30 8713 H 837.287 3.74886 -0.651212 0
M  V30 8714 H 836.799 3.08727 -2.3518 0
M  V30 8715 H 834.9 3.72588 0.0298329 0
M  V30 8716 H 835.013 4.48051 -1.69668 0
M  V30 8717 H 833.377 2.41448 -0.810849 0
M  V30 8718 H 834.16 2.37203 -2.48172 0
M  V30 8719 N 836.605 0.766683 1.37694 0
M  V30 8720 C 837.515 0.150158 2.34119 0
M  V30 8721 C 838.531 -0.685513 1.59927 0
M  V30 8722 O 839.707 -0.606616 1.92047 0
M  V30 8723 C 836.772 -0.722562 3.39087 0
M  V30 8724 C 835.833 0.128983 4.29106 0
M  V30 8725 C 835.066 -0.702178 5.29061 0
M  V30 8726 O 835.289 -1.93954 5.36412 0
M  V30 8727 O 834.223 -0.114056 6.01792 0
M  V30 8728 H 838.049 0.946829 2.88563 0
M  V30 8729 H 835.634 0.527765 1.39768 0
M  V30 8730 H 837.516 -1.22095 4.03325 0
M  V30 8731 H 836.191 -1.49751 2.86978 0
M  V30 8732 H 835.098 0.673612 3.67985 0
M  V30 8733 H 836.431 0.866892 4.84506 0
M  V30 8734 N 838.083 -1.48885 0.516809 0
M  V30 8735 C 839.36 -1.95412 -0.0858293 0
M  V30 8736 C 839.74 -1.45875 -1.5259 0
M  V30 8737 O 839.088 -0.679415 -2.18166 0
M  V30 8738 C 839.298 -3.48995 0.0178194 0
M  V30 8739 C 840.646 -4.24342 -0.14813 0
M  V30 8740 O 841.67 -3.56155 -0.0566125 0
M  V30 8741 O 840.529 -5.45454 -0.338035 0
M  V30 8742 H 837.623 -0.822455 -0.0865884 0
M  V30 8743 H 840.169 -1.59464 0.580472 0
M  V30 8744 H 838.941 -3.77732 1.02147 0
M  V30 8745 H 838.564 -3.91604 -0.687924 0
M  V30 8746 N 839.561 -0.251338 -1.55583 0
M  V30 8747 C 840.508 0.646337 -2.21565 0
M  V30 8748 C 841.478 1.16796 -1.18102 0
M  V30 8749 O 842.663 1.22162 -1.46564 0
M  V30 8750 C 839.803 1.83557 -2.92234 0
M  V30 8751 C 838.916 1.35006 -4.10363 0
M  V30 8752 C 838.051 2.4992 -4.68736 0
M  V30 8753 C 837.09 1.98253 -5.79105 0
M  V30 8754 N 836.227 3.06551 -6.31642 0
M  V30 8755 H 841.067 0.0769881 -2.97901 0
M  V30 8756 H 838.604 0.026238 -1.47077 0
M  V30 8757 H 840.562 2.53425 -3.31408 0
M  V30 8758 H 839.192 2.37733 -2.18364 0
M  V30 8759 H 838.244 0.545274 -3.76472 0
M  V30 8760 H 839.556 0.931435 -4.90026 0
M  V30 8761 H 838.71 3.27823 -5.10507 0
M  V30 8762 H 837.449 2.95086 -3.88298 0
M  V30 8763 H 836.454 1.18822 -5.36807 0
M  V30 8764 H 837.679 1.54051 -6.61396 0
M  V30 8765 H 835.625 3.51143 -5.54107 0
M  V30 8766 H 835.542 2.69033 -7.06511 0
M  V30 8767 H 836.81 3.84499 -6.78071 0
M  V30 8768 N 841.039 1.57585 0.0217189 0
M  V30 8769 C 841.969 2.10073 1.01939 0
M  V30 8770 C 842.95 1.0049 1.37243 0
M  V30 8771 O 844.135 1.28055 1.45999 0
M  V30 8772 C 841.265 2.58618 2.31806 0
M  V30 8773 C 840.219 3.72531 2.10724 0
M  V30 8774 C 839.545 4.07309 3.46415 0
M  V30 8775 C 840.845 5.00672 1.48743 0
M  V30 8776 H 842.539 2.9368 0.582432 0
M  V30 8777 H 840.085 1.41277 0.278715 0
M  V30 8778 H 842.038 2.9396 3.01936 0
M  V30 8779 H 840.762 1.72104 2.77575 0
M  V30 8780 H 839.421 3.37549 1.43025 0
M  V30 8781 H 839.069 3.17851 3.89846 0
M  V30 8782 H 838.769 4.84042 3.33132 0
M  V30 8783 H 840.293 4.45192 4.17895 0
M  V30 8784 H 841.707 5.33925 2.088 0
M  V30 8785 H 840.104 5.82065 1.46013 0
M  V30 8786 H 841.174 4.82769 0.45408 0
M  V30 8787 N 842.517 -0.29412 1.54831 0
M  V30 8788 C 843.747 -1.04572 1.7818 0
M  V30 8789 C 844.155 -1.81187 0.544776 0
M  V30 8790 O 843.498 -1.769 -0.495169 0
M  V30 8791 C 843.56 -2.06748 2.94101 0
M  V30 8792 C 843.224 -1.49265 4.31936 0
M  V30 8793 C 844.221 -0.919136 5.11711 0
M  V30 8794 C 841.906 -1.52621 4.78552 0
M  V30 8795 C 843.9 -0.386824 6.36225 0
M  V30 8796 C 841.587 -0.990031 6.03027 0
M  V30 8797 C 842.585 -0.421315 6.81699 0
M  V30 8798 O 842.273 0.106713 8.03829 0
M  V30 8799 H 842.005 -0.31559 0.597812 0
M  V30 8800 H 844.559 -0.336817 2.0262 0
M  V30 8801 H 842.789 -2.81339 2.65303 0
M  V30 8802 H 844.478 -2.67865 3.04964 0
M  V30 8803 H 845.244 -0.886062 4.76837 0
M  V30 8804 H 841.123 -1.95826 4.17341 0
M  V30 8805 H 844.667 0.0577248 6.97576 0
M  V30 8806 H 840.564 -1.02027 6.37386 0
M  V30 8807 H 841.332 -0.00593526 8.185 0
M  V30 8808 N 843.995 -1.47404 -0.557645 0
M  V30 8809 C 844.942 -1.59859 -1.66475 0
M  V30 8810 C 845.912 -0.441644 -1.60121 0
M  V30 8811 O 847.097 -0.661641 -1.78961 0
M  V30 8812 C 844.237 -1.61843 -3.04797 0
M  V30 8813 C 843.35 -2.8845 -3.2159 0
M  V30 8814 C 842.485 -2.81773 -4.50308 0
M  V30 8815 C 841.524 -4.03208 -4.60532 0
M  V30 8816 N 840.661 -3.94769 -5.80604 0
M  V30 8817 H 845.501 -2.54415 -1.55168 0
M  V30 8818 H 843.038 -1.26194 -0.755876 0
M  V30 8819 H 844.996 -1.60976 -3.84893 0
M  V30 8820 H 843.626 -0.707997 -3.1494 0
M  V30 8821 H 842.678 -2.99186 -2.34929 0
M  V30 8822 H 843.99 -3.78379 -3.25009 0
M  V30 8823 H 843.144 -2.79153 -5.38663 0
M  V30 8824 H 841.883 -1.89527 -4.49367 0
M  V30 8825 H 840.888 -4.06133 -3.70589 0
M  V30 8826 H 842.113 -4.9658 -4.63233 0
M  V30 8827 H 840.059 -3.05326 -5.80613 0
M  V30 8828 H 839.976 -4.78375 -5.854 0
M  V30 8829 H 841.244 -3.96165 -6.71322 0
M  V30 8830 N 845.473 0.80434 -1.35529 0
M  V30 8831 C 846.719 1.56385 -1.29118 0
M  V30 8832 C 847.052 1.9374 0.133536 0
M  V30 8833 O 846.327 1.6153 1.08344 0
M  V30 8834 C 846.61 2.85097 -2.19981 0
M  V30 8835 C 846.463 2.54204 -3.7108 0
M  V30 8836 C 847.782 3.86817 -2.09907 0
M  V30 8837 H 844.901 0.567382 -0.470368 0
M  V30 8838 H 847.543 0.925235 -1.6595 0
M  V30 8839 H 845.693 3.39594 -1.88701 0
M  V30 8840 H 847.365 2.05872 -4.12813 0
M  V30 8841 H 845.608 1.87364 -3.91251 0
M  V30 8842 H 846.279 3.46068 -4.30048 0
M  V30 8843 H 848.755 3.41725 -2.37409 0
M  V30 8844 H 847.631 4.7465 -2.75678 0
M  V30 8845 H 847.892 4.28663 -1.08171 0
M  V30 8846 N 846.951 1.19563 1.02676 0
M  V30 8847 C 848.181 1.0234 1.79472 0
M  V30 8848 C 848.589 -0.430891 1.84228 0
M  V30 8849 O 847.932 -1.31106 1.28674 0
M  V30 8850 C 847.994 1.51901 3.25832 0
M  V30 8851 C 847.658 3.00045 3.44706 0
M  V30 8852 C 848.655 3.9779 3.34752 0
M  V30 8853 C 846.34 3.38784 3.70851 0
M  V30 8854 C 848.334 5.32267 3.50672 0
M  V30 8855 C 846.021 4.73419 3.86416 0
M  V30 8856 C 847.019 5.69969 3.7633 0
M  V30 8857 O 846.707 7.02165 3.91432 0
M  V30 8858 H 846.439 0.360936 0.571578 0
M  V30 8859 H 848.993 1.58863 1.30198 0
M  V30 8860 H 847.223 0.897546 3.7614 0
M  V30 8861 H 848.912 1.30853 3.84229 0
M  V30 8862 H 849.678 3.69207 3.14502 0
M  V30 8863 H 845.557 2.64183 3.77794 0
M  V30 8864 H 849.101 6.07612 3.42715 0
M  V30 8865 H 844.998 5.01697 4.06165 0
M  V30 8866 H 845.766 7.09268 4.08511 0
M  V30 8867 N 848.429 -1.21819 0.999893 0
M  V30 8868 C 849.657 -1.94758 0.698359 0
M  V30 8869 C 850.072 -1.73771 -0.738183 0
M  V30 8870 O 849.429 -1.04113 -1.49889 0
M  V30 8871 C 849.48 -3.47292 1.00353 0
M  V30 8872 O 849.201 -3.67579 2.38363 0
M  V30 8873 C 850.702 -4.37403 0.72068 0
M  V30 8874 H 847.922 -0.619512 0.257771 0
M  V30 8875 H 850.466 -1.54778 1.33656 0
M  V30 8876 H 848.621 -3.85213 0.411018 0
M  V30 8877 H 849.035 -4.61719 2.48829 0
M  V30 8878 H 850.509 -5.43151 0.984422 0
M  V30 8879 H 850.986 -4.3784 -0.345309 0
M  V30 8880 H 851.592 -4.05119 1.29456 0
M  V30 8881 N 849.908 -0.773975 -1.37286 0
M  V30 8882 C 851.155 -0.339306 -1.99637 0
M  V30 8883 C 851.483 1.08478 -1.61439 0
M  V30 8884 O 850.738 1.7612 -0.853252 0
M  V30 8885 C 851.037 -0.432651 -3.54772 0
M  V30 8886 C 850.703 -1.81531 -4.12744 0
M  V30 8887 C 849.365 -2.19366 -4.2829 0
M  V30 8888 C 851.717 -2.72137 -4.44512 0
M  V30 8889 C 849.045 -3.47239 -4.72908 0
M  V30 8890 C 851.397 -3.99421 -4.90556 0
M  V30 8891 C 850.061 -4.37298 -5.04308 0
M  V30 8892 H 849.331 -0.124161 -0.730524 0
M  V30 8893 H 851.978 -0.988432 -1.64019 0
M  V30 8894 H 850.283 0.30001 -3.9065 0
M  V30 8895 H 851.98 -0.0776 -4.00925 0
M  V30 8896 H 848.57 -1.51126 -4.01072 0
M  V30 8897 H 852.754 -2.44165 -4.32084 0
M  V30 8898 H 848.01 -3.76477 -4.81742 0
M  V30 8899 H 852.184 -4.69756 -5.14104 0
M  V30 8900 H 849.811 -5.36442 -5.38641 0
M  V30 8901 N 851.386 1.48609 -0.524698 0
M  V30 8902 C 852.334 2.31205 0.254398 0
M  V30 8903 C 853.328 1.40894 0.940491 0
M  V30 8904 O 854.534 1.57827 0.865478 0
M  V30 8905 H 850.909 0.745199 0.100907 0
M  V30 8906 H 852.88 2.94804 -0.461876 0
M  V30 8907 C 851.629 3.2282 1.2916 0
M  V30 8908 H 850.952 3.92255 0.773074 0
M  V30 8909 H 852.392 3.83508 1.80825 0
M  V30 8910 C 850.851 2.4406 2.32242 0
M  V30 8911 O 851.381 2.16163 3.3858 0
M  V30 8912 N 849.587 2.05651 2.05319 0
M  V30 8913 H 849.134 2.28539 1.18861 0
M  V30 8914 H 849.092 1.53265 2.74513 0
M  V30 8915 N 852.864 0.259585 1.55447 0
M  V30 8916 C 854.089 -0.368317 2.04103 0
M  V30 8917 C 854.514 -1.49827 1.13725 0
M  V30 8918 O 853.872 -1.80814 0.132705 0
M  V30 8919 C 853.92 -0.841506 3.50644 0
M  V30 8920 O 853.024 -1.95008 3.63381 0
M  V30 8921 H 852.365 -0.0785227 0.659341 0
M  V30 8922 H 854.895 0.389349 2.00861 0
M  V30 8923 H 854.905 -1.14138 3.9171 0
M  V30 8924 H 853.58 -0.0147001 4.15897 0
M  V30 8925 H 852.157 -1.65393 3.34215 0
M  V30 8926 N 854.342 -1.57594 -0.0133615 0
M  V30 8927 C 855.588 -1.90262 -0.702019 0
M  V30 8928 C 855.921 -0.859219 -1.74158 0
M  V30 8929 O 855.196 0.123778 -1.94106 0
M  V30 8930 C 855.479 -3.3354 -1.35732 0
M  V30 8931 C 855.332 -4.48586 -0.330208 0
M  V30 8932 C 856.651 -3.76004 -2.28712 0
M  V30 8933 H 853.77 -0.691943 -0.253739 0
M  V30 8934 H 856.412 -1.89967 0.0351894 0
M  V30 8935 H 854.562 -3.33921 -1.98567 0
M  V30 8936 H 856.234 -4.6034 0.297433 0
M  V30 8937 H 854.477 -4.32394 0.348926 0
M  V30 8938 H 855.148 -5.45762 -0.827508 0
M  V30 8939 H 857.624 -3.77089 -1.75906 0
M  V30 8940 H 856.5 -4.77032 -2.71535 0
M  V30 8941 H 856.761 -3.09129 -3.16056 0
M  V30 8942 N 855.82 0.285905 -1.54985 0
M  V30 8943 C 857.236 0.632405 -1.46536 0
M  V30 8944 C 857.436 1.90074 -0.668888 0
M  V30 8945 O 856.492 2.51839 -0.182586 0
M  V30 8946 C 857.805 0.771361 -2.90638 0
M  V30 8947 C 859.353 0.866262 -3.00774 0
M  V30 8948 C 859.828 1.0371 -4.46103 0
M  V30 8949 N 861.319 1.10294 -4.49877 0
M  V30 8950 C 862.054 1.25369 -5.59527 0
M  V30 8951 N 861.55 1.37246 -6.7907 0
M  V30 8952 N 863.343 1.28377 -5.47244 0
M  V30 8953 H 855.494 -0.547226 -2.0523 0
M  V30 8954 H 857.757 -0.183298 -0.930111 0
M  V30 8955 H 857.463 -0.0899485 -3.51585 0
M  V30 8956 H 857.337 1.65569 -3.3892 0
M  V30 8957 H 859.724 1.71805 -2.39931 0
M  V30 8958 H 859.805 -0.0424049 -2.55765 0
M  V30 8959 H 859.449 0.190021 -5.07544 0
M  V30 8960 H 859.379 1.96022 -4.88757 0
M  V30 8961 H 861.87 1.02407 -3.6376 0
M  V30 8962 H 862.183 1.48546 -7.58389 0
M  V30 8963 H 860.528 1.34274 -6.81906 0
M  V30 8964 H 863.719 1.1872 -4.52795 0
M  V30 8965 H 863.892 1.39782 -6.32744 0
M  V30 8966 N 857.298 1.47698 0.54982 0
M  V30 8967 C 858.245 1.60739 1.65625 0
M  V30 8968 C 859.215 0.450129 1.59884 0
M  V30 8969 O 860.4 0.671123 1.78607 0
M  V30 8970 C 857.54 1.63457 3.03934 0
M  V30 8971 C 856.653 2.90152 3.20056 0
M  V30 8972 C 855.788 2.84157 4.48807 0
M  V30 8973 C 854.827 4.05644 4.58387 0
M  V30 8974 N 853.964 3.97843 5.78503 0
M  V30 8975 H 858.804 2.55234 1.53817 0
M  V30 8976 H 856.341 1.26593 0.749173 0
M  V30 8977 H 858.299 1.63015 3.84034 0
M  V30 8978 H 856.929 0.724689 3.1456 0
M  V30 8979 H 855.981 3.00428 2.33339 0
M  V30 8980 H 857.293 3.80097 3.22998 0
M  V30 8981 H 856.447 2.82006 5.37175 0
M  V30 8982 H 855.186 1.91908 4.48356 0
M  V30 8983 H 854.191 4.08092 3.6843 0
M  V30 8984 H 855.416 4.9903 4.60593 0
M  V30 8985 H 853.362 3.08401 5.78986 0
M  V30 8986 H 853.279 4.81473 5.82855 0
M  V30 8987 H 854.547 3.99719 6.69212 0
M  V30 8988 N 858.776 -0.797141 1.35954 0
M  V30 8989 C 860.001 -1.59097 1.33053 0
M  V30 8990 C 860.426 -1.87897 -0.0874592 0
M  V30 8991 O 859.784 -1.47291 -1.05712 0
M  V30 8992 C 859.832 -2.89346 2.152 0
M  V30 8993 O 858.936 -3.826 1.5392 0
M  V30 8994 H 858.277 -0.482895 0.45575 0
M  V30 8995 H 860.807 -0.988633 1.79129 0
M  V30 8996 H 860.817 -3.38686 2.27499 0
M  V30 8997 H 859.492 -2.6771 3.18283 0
M  V30 8998 H 858.069 -3.41174 1.50516 0
M  V30 8999 N 860.254 -1.20106 -1.0204 0
M  V30 9000 C 861.187 -0.889795 -2.10138 0
M  V30 9001 C 862.165 0.156595 -1.61844 0
M  V30 9002 O 863.349 0.0310192 -1.88474 0
M  V30 9003 C 860.476 -0.333227 -3.37057 0
M  V30 9004 C 859.522 -1.36001 -4.04235 0
M  V30 9005 S 860.355 -2.92366 -4.48645 0
M  V30 9006 C 861.511 -2.38274 -5.78771 0
M  V30 9007 H 861.744 -1.80523 -2.36217 0
M  V30 9008 H 859.277 -1.02912 -1.15102 0
M  V30 9009 H 861.235 -0.0186507 -4.10496 0
M  V30 9010 H 859.896 0.560652 -3.09056 0
M  V30 9011 H 859.089 -0.919874 -4.95534 0
M  V30 9012 H 858.691 -1.62186 -3.37004 0
M  V30 9013 H 860.983 -1.77799 -6.53754 0
M  V30 9014 H 861.926 -3.27955 -6.27576 0
M  V30 9015 H 862.334 -1.8054 -5.34851 0
M  V30 9016 N 861.732 1.21287 -1.00634 0
M  V30 9017 C 862.957 1.94925 -0.708441 0
M  V30 9018 C 863.382 1.73659 0.722783 0
M  V30 9019 O 862.74 1.02429 1.49593 0
M  V30 9020 C 862.788 3.45377 -1.03667 0
M  V30 9021 O 861.892 4.12153 -0.142661 0
M  V30 9022 H 861.233 0.609338 -0.263824 0
M  V30 9023 H 863.763 1.54008 -1.34695 0
M  V30 9024 H 863.773 3.95954 -0.984086 0
M  V30 9025 H 862.448 3.6018 -2.0795 0
M  V30 9026 H 861.025 3.72048 -0.251888 0
M  V30 9027 N 863.21 0.781244 1.36873 0
M  V30 9028 C 864.438 0.361566 2.03716 0
M  V30 9029 C 864.853 -1.01937 1.58916 0
M  V30 9030 O 864.21 -1.65237 0.774783 0
M  V30 9031 C 864.261 0.406391 3.59208 0
M  V30 9032 O 863.982 1.73286 4.02372 0
M  V30 9033 C 865.483 -0.0236894 4.43294 0
M  V30 9034 H 862.703 0.150133 0.653988 0
M  V30 9035 H 865.247 1.05781 1.75016 0
M  V30 9036 H 863.402 -0.241364 3.86647 0
M  V30 9037 H 863.816 1.67804 4.96933 0
M  V30 9038 H 865.29 0.0588205 5.51969 0
M  V30 9039 H 865.767 -1.07529 4.25833 0
M  V30 9040 H 866.373 0.59624 4.211 0
M  V30 9041 N 864.689 -1.48329 0.532571 0
M  V30 9042 C 865.935 -2.028 -0.000583219 0
M  V30 9043 C 866.268 -1.40858 -1.33688 0
M  V30 9044 O 865.543 -0.555261 -1.86406 0
M  V30 9045 C 865.826 -3.59901 -0.119846 0
M  V30 9046 C 865.679 -4.32318 1.2418 0
M  V30 9047 C 866.998 -4.31904 -0.845372 0
M  V30 9048 H 864.117 -0.736999 0.00126205 0
M  V30 9049 H 866.759 -1.77024 0.690102 0
M  V30 9050 H 864.909 -3.81993 -0.708092 0
M  V30 9051 H 866.581 -4.21637 1.87136 0
M  V30 9052 H 864.824 -3.93635 1.82301 0
M  V30 9053 H 865.495 -5.40697 1.11132 0
M  V30 9054 H 867.971 -4.14658 -0.346159 0
M  V30 9055 H 866.847 -5.41509 -0.897723 0
M  V30 9056 H 867.108 -3.99369 -1.89622 0
M  V30 9057 N 866.167 -0.267825 -1.55308 0
M  V30 9058 C 867.416 0.351635 -1.98611 0
M  V30 9059 C 867.729 1.57522 -1.15957 0
M  V30 9060 O 868.935 2.26717 -1.49371 0
M  V30 9061 C 867.391 0.676986 -3.53475 0
M  V30 9062 C 866.999 -0.526385 -4.44897 0
M  V30 9063 C 868.743 1.25948 -4.05386 0
M  V30 9064 C 866.65 -0.176026 -5.91138 0
M  V30 9065 H 865.58 0.13516 -0.741787 0
M  V30 9066 H 868.231 -0.371333 -1.79704 0
M  V30 9067 H 866.613 1.45866 -3.68156 0
M  V30 9068 H 867.787 -1.30339 -4.41982 0
M  V30 9069 H 866.102 -1.02522 -4.03582 0
M  V30 9070 H 868.699 1.53529 -5.12184 0
M  V30 9071 H 869.042 2.19094 -3.53982 0
M  V30 9072 H 869.575 0.540253 -3.94114 0
M  V30 9073 H 866.314 -1.07518 -6.46622 0
M  V30 9074 H 865.834 0.564363 -5.97139 0
M  V30 9075 H 867.513 0.234365 -6.46575 0
M  V30 9076 N 867.645 1.57599 0.00500368 0
M  V30 9077 C 869.061 1.55463 0.361015 0
M  V30 9078 C 869.261 0.997051 1.75103 0
M  V30 9079 O 868.317 0.628661 2.44549 0
M  V30 9080 C 869.63 2.99734 0.240828 0
M  V30 9081 C 871.178 3.11399 0.316138 0
M  V30 9082 C 871.653 4.57446 0.22513 0
M  V30 9083 N 873.144 4.62334 0.283186 0
M  V30 9084 C 873.879 5.72914 0.23603 0
M  V30 9085 N 873.375 6.92659 0.139762 0
M  V30 9086 N 875.168 5.61364 0.287529 0
M  V30 9087 H 867.319 1.92185 -0.904359 0
M  V30 9088 H 869.582 0.882529 -0.34619 0
M  V30 9089 H 869.288 3.44348 -0.715343 0
M  V30 9090 H 869.162 3.63009 1.02491 0
M  V30 9091 H 871.549 2.66718 1.26275 0
M  V30 9092 H 871.63 2.50911 -0.497725 0
M  V30 9093 H 871.274 5.02801 -0.717917 0
M  V30 9094 H 871.204 5.15874 1.05742 0
M  V30 9095 H 873.695 3.7619 0.359123 0
M  V30 9096 H 874.008 7.72722 0.10954 0
M  V30 9097 H 872.353 6.9492 0.105462 0
M  V30 9098 H 875.544 4.66707 0.360897 0
M  V30 9099 H 875.717 6.47528 0.247313 0
M  V30 9100 N 869.123 -0.277682 1.55134 0
M  V30 9101 C 870.056 -1.3685 1.82612 0
M  V30 9102 C 871.034 -1.47752 0.678833 0
M  V30 9103 O 872.218 -1.6445 0.921329 0
M  V30 9104 C 869.345 -2.74539 1.98359 0
M  V30 9105 C 868.391 -2.80945 3.20893 0
M  V30 9106 S 869.224 -2.40666 4.78373 0
M  V30 9107 C 870.38 -3.80338 4.97085 0
M  V30 9108 H 870.613 -1.13338 2.74849 0
M  V30 9109 H 868.146 -0.477063 1.46845 0
M  V30 9110 H 870.104 -3.53834 2.08115 0
M  V30 9111 H 868.765 -2.95306 1.07019 0
M  V30 9112 H 867.958 -3.81992 3.28783 0
M  V30 9113 H 867.56 -2.09667 3.09703 0
M  V30 9114 H 869.852 -4.75565 4.8254 0
M  V30 9115 H 870.795 -3.77403 5.99143 0
M  V30 9116 H 871.203 -3.71424 4.25094 0
M  V30 9117 N 870.601 -1.47988 -0.541979 0
M  V30 9118 C 872.012 -1.49073 -1.12402 0
M  V30 9119 C 872.363 -0.253825 -1.94551 0
M  V30 9120 O 871.488 0.640056 -2.06718 0
M  V30 9121 C 872.083 -2.7011 -2.04514 0
M  V30 9122 C 870.642 -2.74105 -2.5796 0
M  V30 9123 C 869.789 -2.42409 -1.3466 0
M  V30 9124 H 872.74 -1.55277 -0.327818 0
M  V30 9125 H 872.761 -2.47946 -2.88623 0
M  V30 9126 H 872.273 -3.60117 -1.44697 0
M  V30 9127 H 870.374 -1.88276 -3.21532 0
M  V30 9128 H 870.487 -3.75213 -2.97913 0
M  V30 9129 H 868.851 -1.9331 -1.65841 0
M  V30 9130 H 869.634 -3.34642 -0.766133 0
M  V30 9131 N 872.079 0.78992 -1.36375 0
M  V30 9132 C 873.356 1.53584 -1.21126 0
M  V30 9133 C 873.736 2.10124 0.202785 0
M  V30 9134 O 873.084 1.93936 1.20835 0
M  V30 9135 C 873.294 2.63117 -2.29282 0
M  V30 9136 C 874.642 3.31013 -2.65924 0
M  V30 9137 O 875.666 2.734 -2.28321 0
M  V30 9138 O 874.525 4.35129 -3.30643 0
M  V30 9139 H 871.619 0.679366 -0.471583 0
M  V30 9140 H 874.165 0.828446 -1.48104 0
M  V30 9141 H 872.937 2.19329 -3.24053 0
M  V30 9142 H 872.56 3.41476 -2.03666 0
M  V30 9143 N 873.557 1.20646 1.01402 0
M  V30 9144 C 874.805 1.01618 1.74695 0
M  V30 9145 C 875.126 -0.452438 1.89679 0
M  V30 9146 O 874.396 -1.32693 1.44116 0
M  V30 9147 H 872.976 0.373013 0.647202 0
M  V30 9148 H 875.638 1.518 1.22241 0
M  V30 9149 H 874.734 1.47666 2.74957 0
M  V30 9150 N 875.035 -1.20752 1.01276 0
M  V30 9151 C 876.283 -1.89645 0.698505 0
M  V30 9152 C 876.604 -1.78986 -0.773883 0
M  V30 9153 O 875.874 -1.18977 -1.55632 0
M  V30 9154 H 874.454 -0.701992 0.255375 0
M  V30 9155 H 877.116 -1.46668 1.28353 0
M  V30 9156 H 876.212 -2.96364 0.978512 0
M  V30 9157 N 876.513 -0.788492 -1.36457 0
M  V30 9158 C 877.76 -0.360461 -1.99266 0
M  V30 9159 C 878.088 1.0676 -1.62581 0
M  V30 9160 O 877.343 1.75205 -0.871884 0
M  V30 9161 C 877.642 -0.470255 -3.54293 0
M  V30 9162 C 877.308 -1.85899 -4.10795 0
M  V30 9163 C 875.97 -2.23896 -4.25939 0
M  V30 9164 C 878.322 -2.76836 -4.41601 0
M  V30 9165 C 875.65 -3.52235 -4.69199 0
M  V30 9166 C 878.002 -4.04602 -4.86292 0
M  V30 9167 C 876.666 -4.42623 -4.99641 0
M  V30 9168 H 875.936 -0.131902 -0.729166 0
M  V30 9169 H 878.583 -1.00577 -1.62962 0
M  V30 9170 H 876.888 0.258559 -3.90946 0
M  V30 9171 H 878.585 -0.120119 -4.0082 0
M  V30 9172 H 875.175 -1.55372 -3.99447 0
M  V30 9173 H 879.359 -2.48735 -4.2947 0
M  V30 9174 H 874.615 -3.81565 -4.77722 0
M  V30 9175 H 878.789 -4.75182 -5.09092 0
M  V30 9176 H 876.416 -5.42125 -5.32921 0
M  V30 9177 N 877.991 1.48044 -0.54043 0
M  V30 9178 C 879.407 1.58354 -0.199006 0
M  V30 9179 C 879.607 1.54118 1.29807 0
M  V30 9180 O 878.663 1.43573 2.07709 0
M  V30 9181 C 879.976 2.89563 -0.810797 0
M  V30 9182 C 881.524 3.03113 -0.780486 0
M  V30 9183 C 881.999 4.36997 -1.37104 0
M  V30 9184 N 883.49 4.43591 -1.33347 0
M  V30 9185 C 884.225 5.45714 -1.76021 0
M  V30 9186 N 883.721 6.54738 -2.26473 0
M  V30 9187 N 885.514 5.36659 -1.67194 0
M  V30 9188 H 877.665 1.49041 -1.51329 0
M  V30 9189 H 879.928 0.708309 -0.630081 0
M  V30 9190 H 879.634 2.9835 -1.86227 0
M  V30 9191 H 879.508 3.76053 -0.293977 0
M  V30 9192 H 881.895 2.93932 0.262246 0
M  V30 9193 H 881.976 2.18207 -1.33489 0
M  V30 9194 H 881.62 4.46932 -2.41276 0
M  V30 9195 H 881.55 5.20607 -0.792229 0
M  V30 9196 H 884.041 3.65391 -0.964259 0
M  V30 9197 H 884.354 7.28814 -2.57002 0
M  V30 9198 H 882.699 6.55673 -2.30473 0
M  V30 9199 H 885.89 4.50382 -1.27569 0
M  V30 9200 H 886.063 6.16113 -2.00771 0
M  V30 9201 N 879.47 0.276058 1.55163 0
M  V30 9202 C 880.4 -0.604633 2.25536 0
M  V30 9203 C 881.381 -1.15813 1.24585 0
M  V30 9204 O 882.566 -1.1921 1.53306 0
M  V30 9205 C 879.696 -1.78836 2.97716 0
M  V30 9206 C 878.65 -1.36635 4.05604 0
M  V30 9207 C 877.976 -2.63325 4.65364 0
M  V30 9208 C 879.276 -0.515858 5.19746 0
M  V30 9209 H 880.97 -0.0177483 2.99395 0
M  V30 9210 H 878.516 -0.00709627 1.43998 0
M  V30 9211 H 880.469 -2.41036 3.45658 0
M  V30 9212 H 879.193 -2.40109 2.21394 0
M  V30 9213 H 877.852 -0.767541 3.58475 0
M  V30 9214 H 877.5 -3.22858 3.85709 0
M  V30 9215 H 877.2 -2.358 5.38212 0
M  V30 9216 H 878.724 -3.26372 5.16056 0
M  V30 9217 H 880.138 -1.04289 5.63735 0
M  V30 9218 H 878.535 -0.335449 5.99162 0
M  V30 9219 H 879.605 0.465137 4.82664 0
M  V30 9220 N 880.948 -1.576 0.00335426 0
M  V30 9221 C 882.195 -1.90713 -0.680791 0
M  V30 9222 C 882.523 -0.877263 -1.73592 0
M  V30 9223 O 881.778 0.117497 -1.95347 0
M  V30 9224 C 882.077 -3.3058 -1.35837 0
M  V30 9225 C 881.743 -4.48786 -0.436111 0
M  V30 9226 C 880.405 -4.80855 -0.182195 0
M  V30 9227 C 882.757 -5.20821 0.198677 0
M  V30 9228 C 880.085 -5.8233 0.714747 0
M  V30 9229 C 882.437 -6.23252 1.08351 0
M  V30 9230 C 881.101 -6.53776 1.34658 0
M  V30 9231 H 880.371 -0.697869 -0.249119 0
M  V30 9232 H 883.018 -1.91407 0.0596011 0
M  V30 9233 H 881.323 -3.26026 -2.17289 0
M  V30 9234 H 883.02 -3.53462 -1.89383 0
M  V30 9235 H 879.61 -4.23731 -0.644186 0
M  V30 9236 H 883.794 -4.96298 0.0155259 0
M  V30 9237 H 879.05 -6.04339 0.926529 0
M  V30 9238 H 883.224 -6.78199 1.58172 0
M  V30 9239 H 880.851 -7.32225 2.04328 0
M  V30 9240 N 882.426 0.269451 -1.5528 0
M  V30 9241 C 883.651 1.02299 -1.80415 0
M  V30 9242 C 884.076 1.7902 -0.577363 0
M  V30 9243 O 883.434 1.75018 0.473125 0
M  V30 9244 C 883.482 1.95445 -3.0304 0
M  V30 9245 O 882.586 3.04271 -2.78375 0
M  V30 9246 H 881.927 0.292289 -0.596207 0
M  V30 9247 H 884.457 0.297282 -2.02429 0
M  V30 9248 H 884.467 2.37333 -3.31869 0
M  V30 9249 H 883.142 1.39017 -3.91978 0
M  V30 9250 H 881.719 2.66673 -2.60653 0
M  V30 9251 N 883.904 1.48273 0.534124 0
M  V30 9252 C 884.851 1.62487 1.6391 0
M  V30 9253 C 885.821 0.467062 1.59398 0
M  V30 9254 O 887.006 0.690029 1.77885 0
M  V30 9255 C 884.146 1.66671 3.02183 0
M  V30 9256 C 883.259 2.9353 3.16961 0
M  V30 9257 C 882.394 2.88902 4.45768 0
M  V30 9258 C 881.433 4.10483 4.54059 0
M  V30 9259 N 880.57 4.03956 5.74251 0
M  V30 9260 H 885.41 2.56851 1.51101 0
M  V30 9261 H 882.947 1.27381 0.735704 0
M  V30 9262 H 884.905 1.67079 3.82283 0
M  V30 9263 H 883.535 0.758011 3.13774 0
M  V30 9264 H 882.587 3.02886 2.3014 0
M  V30 9265 H 883.899 3.83501 3.18949 0
M  V30 9266 H 883.053 2.87688 5.34154 0
M  V30 9267 H 881.792 1.96652 4.46295 0
M  V30 9268 H 880.797 4.11977 3.64081 0
M  V30 9269 H 882.022 5.03887 4.55274 0
M  V30 9270 H 879.968 3.14525 5.75682 0
M  V30 9271 H 879.885 4.87628 5.77715 0
M  V30 9272 H 881.153 4.06795 6.64935 0
M  V30 9273 N 885.382 -0.782676 1.36792 0
M  V30 9274 C 886.63 -1.53778 1.31136 0
M  V30 9275 C 886.951 -1.94706 -0.107014 0
M  V30 9276 O 886.221 -1.65465 -1.04872 0
M  V30 9277 H 884.801 -0.570328 0.482426 0
M  V30 9278 H 887.463 -0.932181 1.71162 0
M  V30 9279 H 886.559 -2.44224 1.94321 0
M  V30 9280 N 886.86 -1.21182 -1.00761 0
M  V30 9281 C 887.823 -0.970339 -2.07646 0
M  V30 9282 C 888.823 0.0576345 -1.60697 0
M  V30 9283 O 890.013 -0.179369 -1.73274 0
M  V30 9284 C 887.145 -0.462703 -3.37745 0
M  V30 9285 H 888.338 -1.91856 -2.30502 0
M  V30 9286 H 885.891 -1.02844 -1.17698 0
M  V30 9287 H 886.626 0.490559 -3.20568 0
M  V30 9288 H 886.411 -1.20416 -3.73152 0
M  V30 9289 H 887.901 -0.313531 -4.16421 0
M  V30 9290 N 888.338 1.20213 -1.01915 0
M  V30 9291 C 889.563 1.94163 -0.729076 0
M  V30 9292 C 889.988 1.74416 0.704323 0
M  V30 9293 O 889.346 1.0401 1.48498 0
M  V30 9294 C 889.394 3.44258 -1.07324 0
M  V30 9295 O 888.498 4.11979 -0.186367 0
M  V30 9296 H 887.839 0.606506 -0.270272 0
M  V30 9297 H 890.369 1.52571 -1.3632 0
M  V30 9298 H 890.379 3.94888 -1.02603 0
M  V30 9299 H 889.054 3.57954 -2.11759 0
M  V30 9300 H 887.631 3.7176 -0.291334 0
M  V30 9301 N 889.816 0.795718 1.36037 0
M  V30 9302 C 890.726 0.199784 2.33748 0
M  V30 9303 C 891.742 -0.651436 1.61345 0
M  V30 9304 O 892.918 -0.565743 1.93291 0
M  V30 9305 C 889.983 -0.650475 3.40543 0
M  V30 9306 C 889.044 0.219974 4.28736 0
M  V30 9307 C 888.277 -0.589798 5.30431 0
M  V30 9308 O 888.5 -1.82532 5.40406 0
M  V30 9309 O 887.434 0.0136187 6.01898 0
M  V30 9310 H 891.26 1.00782 2.8649 0
M  V30 9311 H 888.845 0.557293 1.38617 0
M  V30 9312 H 890.727 -1.13512 4.05824 0
M  V30 9313 H 889.402 -1.4363 2.9009 0
M  V30 9314 H 888.309 0.751516 3.66474 0
M  V30 9315 H 889.642 0.969468 4.82558 0
M  V30 9316 N 891.294 -1.47756 0.548274 0
M  V30 9317 C 892.543 -2.01691 0.0187961 0
M  V30 9318 C 892.856 -1.42894 -1.33569 0
M  V30 9319 O 894.062 -1.88438 -1.95457 0
M  V30 9320 C 892.518 -3.59896 -0.016847 0
M  V30 9321 C 892.126 -4.27683 1.33385 0
M  V30 9322 C 893.87 -4.21614 -0.494188 0
M  V30 9323 C 891.777 -5.7787 1.2578 0
M  V30 9324 H 890.707 -0.753993 0.00325648 0
M  V30 9325 H 893.358 -1.69838 0.694792 0
M  V30 9326 H 891.74 -3.88672 -0.758304 0
M  V30 9327 H 892.914 -4.10559 2.09232 0
M  V30 9328 H 891.229 -3.77915 1.7484 0
M  V30 9329 H 893.826 -5.3166 -0.569342 0
M  V30 9330 H 894.169 -3.88176 -1.50417 0
M  V30 9331 H 894.702 -3.97336 0.192138 0
M  V30 9332 H 891.441 -6.15912 2.2435 0
M  V30 9333 H 890.961 -5.97355 0.540997 0
M  V30 9334 H 892.64 -6.39897 0.956109 0
M  V30 9335 N 892.772 -0.284283 -1.55015 0
M  V30 9336 C 893.702 0.592663 -2.25853 0
M  V30 9337 C 894.683 1.15151 -1.25197 0
M  V30 9338 O 895.868 1.18395 -1.53936 0
M  V30 9339 C 892.998 1.77254 -2.98661 0
M  V30 9340 C 891.952 1.34482 -4.06323 0
M  V30 9341 C 891.278 2.60853 -4.66754 0
M  V30 9342 C 892.578 0.488288 -5.20013 0
M  V30 9343 H 894.272 0.00187041 -2.994 0
M  V30 9344 H 891.818 -0.000540402 -1.44 0
M  V30 9345 H 893.771 2.39199 -3.46932 0
M  V30 9346 H 892.495 2.38931 -2.22664 0
M  V30 9347 H 891.154 0.748519 -3.58877 0
M  V30 9348 H 890.802 3.20808 -3.87416 0
M  V30 9349 H 890.502 2.32942 -5.39455 0
M  V30 9350 H 892.026 3.23631 -5.1778 0
M  V30 9351 H 893.44 1.01298 -5.6428 0
M  V30 9352 H 891.837 0.303669 -5.99331 0
M  V30 9353 H 892.907 -0.490727 -4.8241 0
M  V30 9354 N 894.251 1.57596 -0.0117121 0
M  V30 9355 C 895.181 2.12188 0.9746 0
M  V30 9356 C 896.162 1.03379 1.35081 0
M  V30 9357 O 897.347 1.31123 1.4325 0
M  V30 9358 C 894.477 2.63477 2.26268 0
M  V30 9359 C 893.431 3.76917 2.02774 0
M  V30 9360 C 892.757 4.14566 3.37697 0
M  V30 9361 C 894.057 5.03715 1.38089 0
M  V30 9362 H 895.751 2.9485 0.520007 0
M  V30 9363 H 893.297 1.41836 0.248685 0
M  V30 9364 H 895.25 3.00299 2.95633 0
M  V30 9365 H 893.974 1.77953 2.73862 0
M  V30 9366 H 892.633 3.40507 1.35832 0
M  V30 9367 H 892.281 3.26048 3.83016 0
M  V30 9368 H 891.981 4.91 3.22789 0
M  V30 9369 H 893.505 4.53956 4.08358 0
M  V30 9370 H 894.919 5.38233 1.97428 0
M  V30 9371 H 893.316 5.85032 1.33634 0
M  V30 9372 H 894.386 4.83624 0.351575 0
M  V30 9373 N 895.729 -0.261212 1.5542 0
M  V30 9374 C 896.676 -1.32315 1.89107 0
M  V30 9375 C 897.646 -1.48517 0.743767 0
M  V30 9376 O 898.831 -1.62733 0.996123 0
M  V30 9377 C 895.971 -2.67626 2.17877 0
M  V30 9378 C 895.084 -2.59549 3.45338 0
M  V30 9379 C 894.219 -3.87118 3.63748 0
M  V30 9380 C 893.258 -3.736 4.8486 0
M  V30 9381 N 892.395 -4.93029 4.99867 0
M  V30 9382 H 897.235 -1.02886 2.79675 0
M  V30 9383 H 894.772 -0.496812 1.38456 0
M  V30 9384 H 896.73 -3.4637 2.32559 0
M  V30 9385 H 895.36 -2.95232 1.30529 0
M  V30 9386 H 894.412 -1.72452 3.39064 0
M  V30 9387 H 895.724 -2.45465 4.34222 0
M  V30 9388 H 894.878 -4.74305 3.78312 0
M  V30 9389 H 893.617 -4.04084 2.73071 0
M  V30 9390 H 892.622 -2.84797 4.70288 0
M  V30 9391 H 893.847 -3.58143 5.76984 0
M  V30 9392 H 891.793 -5.10383 4.12123 0
M  V30 9393 H 891.71 -4.81521 5.82815 0
M  V30 9394 H 892.978 -5.81754 5.18828 0
M  V30 9395 N 897.207 -1.48554 -0.526253 0
M  V30 9396 C 898.154 -1.63354 -1.63046 0
M  V30 9397 C 899.124 -0.475509 -1.59148 0
M  V30 9398 O 900.309 -0.699453 -1.77517 0
M  V30 9399 C 897.449 -1.68271 -3.01295 0
M  V30 9400 C 896.562 -2.95207 -3.15399 0
M  V30 9401 C 895.697 -2.91262 -4.4423 0
M  V30 9402 C 894.736 -4.12886 -4.51876 0
M  V30 9403 N 893.873 -4.06996 -5.721 0
M  V30 9404 H 898.713 -2.57649 -1.49737 0
M  V30 9405 H 896.25 -1.27769 -0.728938 0
M  V30 9406 H 898.208 -1.69104 -3.81392 0
M  V30 9407 H 896.838 -0.774641 -3.13367 0
M  V30 9408 H 895.89 -3.04102 -2.2853 0
M  V30 9409 H 897.202 -3.85187 -3.1691 0
M  V30 9410 H 896.356 -2.90516 -5.32621 0
M  V30 9411 H 895.095 -1.99016 -4.45246 0
M  V30 9412 H 894.1 -4.13902 -3.61891 0
M  V30 9413 H 895.325 -5.06294 -4.52596 0
M  V30 9414 H 893.271 -3.17573 -5.74006 0
M  V30 9415 H 893.188 -4.90685 -5.75121 0
M  V30 9416 H 894.456 -4.10315 -6.62768 0
M  V30 9417 N 898.685 0.775411 -1.37205 0
M  V30 9418 C 899.925 1.54689 -1.33606 0
M  V30 9419 C 900.289 1.91834 0.0798549 0
M  V30 9420 O 901.49 2.67722 0.240531 0
M  V30 9421 C 899.761 2.7804 -2.24563 0
M  V30 9422 S 901.32 3.68143 -2.38781 0
M  V30 9423 H 898.138 0.529631 -0.474355 0
M  V30 9424 H 900.74 0.912128 -1.72918 0
M  V30 9425 H 899.444 2.48825 -3.26365 0
M  V30 9426 H 898.975 3.46479 -1.86322 0
M  V30 9427 H 900.99 4.69843 -1.59568 0
M  V30 9428 N 900.163 1.21714 1.00117 0
M  V30 9429 C 901.391 1.06278 1.77518 0
M  V30 9430 C 901.806 -0.387193 1.84787 0
M  V30 9431 O 901.163 -1.26854 1.31203 0
M  V30 9432 C 901.214 1.65795 3.21239 0
M  V30 9433 O 900.935 3.05119 3.14378 0
M  V30 9434 C 902.436 1.55521 4.15124 0
M  V30 9435 H 899.656 0.373013 0.557765 0
M  V30 9436 H 902.2 1.61133 1.25922 0
M  V30 9437 H 900.355 1.15022 3.69931 0
M  V30 9438 H 900.769 3.33643 4.04701 0
M  V30 9439 H 902.243 2.01902 5.13751 0
M  V30 9440 H 902.72 0.510307 4.36225 0
M  V30 9441 H 903.326 2.0556 3.72324 0
M  V30 9442 N 901.641 -1.19671 1.02551 0
M  V30 9443 C 902.589 -2.24812 0.596867 0
M  V30 9444 C 903.583 -1.65336 -0.368839 0
M  V30 9445 O 904.789 -1.78422 -0.237786 0
M  V30 9446 H 901.164 -0.731417 0.174739 0
M  V30 9447 H 903.135 -2.58286 1.49435 0
M  V30 9448 C 901.884 -3.47677 -0.0399514 0
M  V30 9449 H 901.207 -3.93728 0.694153 0
M  V30 9450 H 902.647 -4.22917 -0.302861 0
M  V30 9451 C 901.106 -3.11411 -1.2855 0
M  V30 9452 O 901.636 -3.23757 -2.37791 0
M  V30 9453 N 899.842 -2.65875 -1.17297 0
M  V30 9454 H 899.389 -2.56029 -0.284045 0
M  V30 9455 H 899.347 -2.41981 -2.00731 0
M  V30 9456 N 903.119 -0.802921 -1.35613 0
M  V30 9457 C 904.368 -0.378087 -1.98125 0
M  V30 9458 C 904.681 1.05953 -1.64418 0
M  V30 9459 O 905.887 1.58729 -2.20266 0
M  V30 9460 C 904.343 -0.625077 -3.5443 0
M  V30 9461 C 903.951 -2.07499 -3.97049 0
M  V30 9462 C 905.695 -0.265419 -4.23669 0
M  V30 9463 C 903.602 -2.26793 -5.46186 0
M  V30 9464 H 902.532 -0.137633 -0.741332 0
M  V30 9465 H 905.183 -0.986461 -1.54729 0
M  V30 9466 H 903.565 0.0531975 -3.95964 0
M  V30 9467 H 904.739 -2.79077 -3.66678 0
M  V30 9468 H 903.054 -2.39417 -3.40688 0
M  V30 9469 H 905.651 -0.387669 -5.33293 0
M  V30 9470 H 905.994 0.787994 -4.08774 0
M  V30 9471 H 906.527 -0.897464 -3.87544 0
M  V30 9472 H 903.266 -3.30566 -5.66045 0
M  V30 9473 H 902.786 -1.59735 -5.78139 0
M  V30 9474 H 904.465 -2.08165 -6.12598 0
M  V30 9475 N 904.597 1.47463 -0.556102 0
M  V30 9476 C 905.527 2.32801 0.180497 0
M  V30 9477 C 906.508 1.43721 0.909848 0
M  V30 9478 O 907.693 1.72578 0.89053 0
M  V30 9479 C 904.823 3.25478 1.21167 0
M  V30 9480 C 903.777 4.2379 0.598846 0
M  V30 9481 C 903.103 5.05783 1.73457 0
M  V30 9482 C 904.403 5.20387 -0.446659 0
M  V30 9483 H 906.097 2.94636 -0.531956 0
M  V30 9484 H 903.643 1.41683 -0.257267 0
M  V30 9485 H 905.596 3.8402 1.73513 0
M  V30 9486 H 904.32 2.61695 1.95405 0
M  V30 9487 H 902.979 3.66472 0.0966897 0
M  V30 9488 H 902.627 4.38405 2.46596 0
M  V30 9489 H 902.327 5.72343 1.33031 0
M  V30 9490 H 903.851 5.67183 2.26131 0
M  V30 9491 H 905.265 5.73299 -0.00930019 0
M  V30 9492 H 903.662 5.95143 -0.769735 0
M  V30 9493 H 904.732 4.65932 -1.34295 0
M  V30 9494 N 906.075 0.2925 1.54862 0
M  V30 9495 C 907.023 -0.603186 2.24643 0
M  V30 9496 C 908.017 -1.1439 1.24946 0
M  V30 9497 O 909.223 -1.09552 1.42823 0
M  V30 9498 H 905.598 -0.213105 0.721173 0
M  V30 9499 H 907.569 0.00799278 2.98399 0
M  V30 9500 C 906.318 -1.76769 2.99413 0
M  V30 9501 H 905.641 -1.36084 3.75927 0
M  V30 9502 H 907.081 -2.37066 3.51533 0
M  V30 9503 C 905.54 -2.66669 2.05886 0
M  V30 9504 O 906.07 -3.67525 1.62136 0
M  V30 9505 N 904.276 -2.34216 1.7202 0
M  V30 9506 H 903.823 -1.52246 2.07795 0
M  V30 9507 H 903.781 -2.94635 1.09717 0
M  V30 9508 N 907.553 -1.57587 0.0200696 0
M  V30 9509 C 908.778 -1.96124 -0.674547 0
M  V30 9510 C 909.203 -0.896068 -1.65385 0
M  V30 9511 O 908.561 0.143925 -1.80728 0
M  V30 9512 C 908.609 -3.3376 -1.36517 0
M  V30 9513 O 907.713 -3.29483 -2.48022 0
M  V30 9514 H 907.054 -0.639719 -0.177919 0
M  V30 9515 H 909.584 -2.04447 0.0792317 0
M  V30 9516 H 909.594 -3.69785 -1.72403 0
M  V30 9517 H 908.269 -4.10832 -0.647265 0
M  V30 9518 H 906.846 -3.05162 -2.14314 0
M  V30 9519 N 909.032 0.252966 -1.55557 0
M  V30 9520 C 909.98 1.33289 -1.90622 0
M  V30 9521 C 910.974 1.50133 -0.784638 0
M  V30 9522 O 912.18 1.51679 -0.969196 0
M  V30 9523 H 908.555 0.446196 -0.605321 0
M  V30 9524 H 910.526 1.00977 -2.80796 0
M  V30 9525 C 909.275 2.68254 -2.21213 0
M  V30 9526 H 908.598 2.5609 -3.07014 0
M  V30 9527 H 910.038 3.42707 -2.49656 0
M  V30 9528 C 908.497 3.20884 -1.02642 0
M  V30 9529 O 909.027 4.00783 -0.271292 0
M  V30 9530 N 907.233 2.7883 -0.818682 0
M  V30 9531 H 906.78 2.13966 -1.43444 0
M  V30 9532 H 906.738 3.14388 -0.0269989 0
M  V30 9533 N 910.51 1.48831 0.518367 0
M  V30 9534 C 911.758 1.57128 1.27103 0
M  V30 9535 C 912.079 0.252098 1.93364 0
M  V30 9536 O 911.349 -0.727281 1.819 0
M  V30 9537 H 909.929 0.578891 0.472116 0
M  V30 9538 H 912.591 1.85361 0.602262 0
M  V30 9539 H 911.687 2.35838 2.04418 0
M  V30 9540 N 911.988 -0.768124 1.37614 0
M  V30 9541 C 912.898 -1.91249 1.35871 0
M  V30 9542 C 913.914 -1.7208 0.257786 0
M  V30 9543 O 915.09 -1.95253 0.493782 0
M  V30 9544 C 912.155 -3.26423 1.16829 0
M  V30 9545 C 911.216 -3.5822 2.36594 0
M  V30 9546 C 910.449 -4.86945 2.1845 0
M  V30 9547 O 910.672 -5.58258 1.17064 0
M  V30 9548 O 909.606 -5.17888 3.06718 0
M  V30 9549 H 913.432 -1.95671 2.32264 0
M  V30 9550 H 911.017 -0.911382 1.18382 0
M  V30 9551 H 912.899 -4.07269 1.08212 0
M  V30 9552 H 911.574 -3.22845 0.235123 0
M  V30 9553 H 910.481 -2.77594 2.50783 0
M  V30 9554 H 911.814 -3.66545 3.2849 0
M  V30 9555 N 913.466 -1.22244 -0.994698 0
M  V30 9556 C 914.396 -1.01513 -2.10279 0
M  V30 9557 C 915.377 0.0633365 -1.69982 0
M  V30 9558 O 916.562 -0.0985268 -1.9395 0
M  V30 9559 C 913.692 -0.59016 -3.42249 0
M  V30 9560 C 912.646 -1.61436 -3.96387 0
M  V30 9561 C 911.972 -1.04528 -5.24383 0
M  V30 9562 C 913.272 -3.00388 -4.27276 0
M  V30 9563 H 914.966 -1.94194 -2.2788 0
M  V30 9564 H 912.512 -0.935094 -1.09508 0
M  V30 9565 H 914.465 -0.432254 -4.19177 0
M  V30 9566 H 913.189 0.372308 -3.24471 0
M  V30 9567 H 911.848 -1.76001 -3.21589 0
M  V30 9568 H 911.496 -0.0742225 -5.02945 0
M  V30 9569 H 911.196 -1.72949 -5.61571 0
M  V30 9570 H 912.72 -0.898922 -6.03947 0
M  V30 9571 H 914.134 -2.89207 -4.95007 0
M  V30 9572 H 912.531 -3.65916 -4.75631 0
M  V30 9573 H 913.601 -3.50456 -3.35125 0
M  V30 9574 N 914.944 1.19125 -1.03184 0
M  V30 9575 C 916.36 1.40909 -0.749447 0
M  V30 9576 C 916.56 1.9022 0.664729 0
M  V30 9577 O 915.616 2.08085 1.43028 0
M  V30 9578 C 916.929 2.41761 -1.78807 0
M  V30 9579 C 918.477 2.55503 -1.80796 0
M  V30 9580 C 918.952 3.59612 -2.83626 0
M  V30 9581 N 920.443 3.6711 -2.82461 0
M  V30 9582 C 921.178 4.47366 -3.5868 0
M  V30 9583 N 920.674 5.31302 -4.44623 0
M  V30 9584 N 922.467 4.42044 -3.47208 0
M  V30 9585 H 914.618 0.854399 -1.94458 0
M  V30 9586 H 916.881 0.437753 -0.840878 0
M  V30 9587 H 916.587 2.12559 -2.80199 0
M  V30 9588 H 916.461 3.40981 -1.61283 0
M  V30 9589 H 918.848 2.84027 -0.800803 0
M  V30 9590 H 918.929 1.56427 -2.02396 0
M  V30 9591 H 918.573 3.3183 -3.84515 0
M  V30 9592 H 918.503 4.58345 -2.59283 0
M  V30 9593 H 920.994 3.07166 -2.2013 0
M  V30 9594 H 921.307 5.89667 -4.99512 0
M  V30 9595 H 919.652 5.30753 -4.48694 0
M  V30 9596 H 922.843 3.75513 -2.79477 0
M  V30 9597 H 923.016 5.0435 -4.06859 0
M  V30 9598 N 916.422 0.810101 1.35185 0
M  V30 9599 C 917.67 0.391343 1.98275 0
M  V30 9600 C 917.991 -1.04592 1.64577 0
M  V30 9601 O 917.261 -1.72417 0.93001 0
M  V30 9602 H 915.841 0.141715 0.733434 0
M  V30 9603 H 918.503 1.03672 1.6504 0
M  V30 9604 H 917.599 0.49991 3.0807 0
M  V30 9605 N 917.9 -1.47166 0.563914 0
M  V30 9606 C 919.147 -2.02456 0.042371 0
M  V30 9607 C 919.475 -1.43753 -1.31016 0
M  V30 9608 O 918.73 -0.585287 -1.86743 0
M  V30 9609 C 919.029 -3.57279 -0.0931797 0
M  V30 9610 C 918.695 -4.34932 1.18933 0
M  V30 9611 C 917.357 -4.55867 1.54073 0
M  V30 9612 C 919.709 -4.79665 2.03889 0
M  V30 9613 C 917.037 -5.18785 2.74005 0
M  V30 9614 C 919.389 -5.43907 3.23029 0
M  V30 9615 C 918.053 -5.63074 3.58475 0
M  V30 9616 H 917.323 -0.740838 0.0155047 0
M  V30 9617 H 919.97 -1.76759 0.736776 0
M  V30 9618 H 918.275 -3.82005 -0.870596 0
M  V30 9619 H 919.972 -3.97716 -0.512176 0
M  V30 9620 H 916.562 -4.18921 0.905718 0
M  V30 9621 H 920.746 -4.63264 1.78046 0
M  V30 9622 H 916.002 -5.31818 3.01628 0
M  V30 9623 H 920.176 -5.77531 3.89141 0
M  V30 9624 H 917.803 -6.11598 4.515 0
M  V30 9625 N 919.378 -0.300708 -1.54705 0
M  V30 9626 C 920.794 0.0526874 -1.59513 0
M  V30 9627 C 920.994 1.52444 -1.31769 0
M  V30 9628 O 920.05 2.27716 -1.09096 0
M  V30 9629 C 921.363 -0.344989 -2.98714 0
M  V30 9630 C 922.911 -0.29373 -3.11619 0
M  V30 9631 C 923.386 -0.666225 -4.53129 0
M  V30 9632 N 924.877 -0.618749 -4.59049 0
M  V30 9633 C 925.612 -0.879447 -5.66616 0
M  V30 9634 N 925.108 -1.2061 -6.82221 0
M  V30 9635 N 926.901 -0.806528 -5.56284 0
M  V30 9636 H 919.052 -1.25988 -1.71 0
M  V30 9637 H 921.315 -0.510758 -0.798643 0
M  V30 9638 H 921.021 -1.36953 -3.2394 0
M  V30 9639 H 920.895 0.301507 -3.75993 0
M  V30 9640 H 923.282 0.72156 -2.86142 0
M  V30 9641 H 923.363 -0.974844 -2.36496 0
M  V30 9642 H 923.007 -1.67932 -4.79334 0
M  V30 9643 H 922.937 0.0369575 -5.26587 0
M  V30 9644 H 925.428 -0.377202 -3.76013 0
M  V30 9645 H 925.741 -1.391 -7.60178 0
M  V30 9646 H 924.086 -1.24413 -6.83774 0
M  V30 9647 H 927.277 -0.550993 -4.64846 0
M  V30 9648 H 927.45 -1.01307 -6.40032 0
M  V30 9649 N 920.856 1.57574 -0.0284266 0
M  V30 9650 C 922.267 1.79585 0.510502 0
M  V30 9651 C 922.618 0.938625 1.72291 0
M  V30 9652 O 921.743 0.14884 2.15888 0
M  V30 9653 C 922.338 3.25703 0.932912 0
M  V30 9654 C 920.897 3.48711 1.41696 0
M  V30 9655 C 920.044 2.74665 0.381356 0
M  V30 9656 H 922.995 1.56647 -0.254464 0
M  V30 9657 H 923.016 3.35376 1.79731 0
M  V30 9658 H 922.528 3.88067 0.0503036 0
M  V30 9659 H 920.629 2.91597 2.31952 0
M  V30 9660 H 920.742 4.57423 1.42481 0
M  V30 9661 H 919.106 2.40123 0.8493 0
M  V30 9662 H 919.889 3.39745 -0.492775 0
M  V30 9663 N 922.334 -0.244713 1.55689 0
M  V30 9664 C 923.75 -0.593331 1.48161 0
M  V30 9665 C 923.95 -1.88234 0.719047 0
M  V30 9666 O 923.006 -2.51266 0.249292 0
M  V30 9667 C 924.319 -0.694032 2.92581 0
M  V30 9668 C 925.867 -0.786213 3.02965 0
M  V30 9669 C 926.342 -0.918457 4.48696 0
M  V30 9670 N 927.833 -0.983272 4.52643 0
M  V30 9671 C 928.568 -1.1049 5.62654 0
M  V30 9672 N 928.064 -1.19193 6.8247 0
M  V30 9673 N 929.857 -1.13823 5.50455 0
M  V30 9674 H 922.008 0.601446 2.03707 0
M  V30 9675 H 924.271 0.207894 0.924924 0
M  V30 9676 H 923.977 0.183133 3.51223 0
M  V30 9677 H 923.851 -1.56525 3.4319 0
M  V30 9678 H 926.238 -1.65383 2.44402 0
M  V30 9679 H 926.319 0.110202 2.55563 0
M  V30 9680 H 925.963 -0.0553881 5.0787 0
M  V30 9681 H 925.893 -1.82994 4.93782 0
M  V30 9682 H 928.384 -0.927269 3.66347 0
M  V30 9683 H 928.697 -1.28387 7.62061 0
M  V30 9684 H 927.042 -1.16147 6.85226 0
M  V30 9685 H 930.233 -1.06673 4.55783 0
M  V30 9686 H 930.406 -1.22957 6.36228 0
M  V30 9687 N 923.813 -1.49104 -0.510467 0
M  V30 9688 C 925.09 -1.48609 -1.27179 0
M  V30 9689 C 925.47 -0.208537 -2.10067 0
M  V30 9690 O 924.818 0.809335 -2.13687 0
M  V30 9691 C 925.028 -2.75953 -2.1366 0
M  V30 9692 C 926.376 -3.25067 -2.73161 0
M  V30 9693 O 927.4 -2.77005 -2.23934 0
M  V30 9694 O 926.259 -4.08747 -3.62751 0
M  V30 9695 H 923.353 -0.594374 -0.57502 0
M  V30 9696 H 925.899 -1.61358 -0.525515 0
M  V30 9697 H 924.671 -3.60434 -1.52325 0
M  V30 9698 H 924.294 -2.66019 -2.95499 0
M  V30 9699 N 925.291 0.760815 -1.38019 0
M  V30 9700 C 926.707 1.06289 -1.19058 0
M  V30 9701 C 926.907 2.01471 -0.0342603 0
M  V30 9702 O 925.963 2.44713 0.62224 0
M  V30 9703 C 927.276 1.6499 -2.51394 0
M  V30 9704 C 928.824 1.77196 -2.58013 0
M  V30 9705 C 929.299 2.3931 -3.90506 0
M  V30 9706 N 930.79 2.46749 -3.92007 0
M  V30 9707 C 931.525 2.95687 -4.91281 0
M  V30 9708 N 931.021 3.44715 -6.00952 0
M  V30 9709 N 932.814 2.94661 -4.78677 0
M  V30 9710 H 924.965 0.129045 -2.12008 0
M  V30 9711 H 927.228 0.119878 -0.94039 0
M  V30 9712 H 926.934 1.0252 -3.36426 0
M  V30 9713 H 926.808 2.64146 -2.6927 0
M  V30 9714 H 929.195 2.38796 -1.7338 0
M  V30 9715 H 929.276 0.767645 -2.4401 0
M  V30 9716 H 928.92 1.78346 -4.75558 0
M  V30 9717 H 928.85 3.40369 -4.01817 0
M  V30 9718 H 931.341 2.12064 -3.12789 0
M  V30 9719 H 931.654 3.80492 -6.72641 0
M  V30 9720 H 929.999 3.42791 -6.04582 0
M  V30 9721 H 933.19 2.55665 -3.92113 0
M  V30 9722 H 933.363 3.32489 -5.56197 0
M  V30 9723 N 926.769 1.22769 0.988202 0
M  V30 9724 C 928.046 0.9635 1.70223 0
M  V30 9725 C 928.426 -0.520102 2.04593 0
M  V30 9726 O 927.774 -1.48934 1.73295 0
M  V30 9727 C 927.984 1.86583 2.94937 0
M  V30 9728 C 929.332 2.12469 3.67616 0
M  V30 9729 O 930.356 1.84069 3.04954 0
M  V30 9730 O 929.215 2.60595 4.80367 0
M  V30 9731 H 926.309 0.362737 0.743203 0
M  V30 9732 H 928.855 1.33776 1.04412 0
M  V30 9733 H 927.627 2.86913 2.66077 0
M  V30 9734 H 927.25 1.49344 3.68486 0
M  V30 9735 N 928.247 -1.18576 1.03814 0
M  V30 9736 C 929.524 -1.8433 0.654358 0
M  V30 9737 C 929.904 -1.92504 -0.866338 0
M  V30 9738 O 929.252 -1.44904 -1.76678 0
M  V30 9739 C 929.462 -3.22778 1.32723 0
M  V30 9740 C 930.81 -3.98841 1.45641 0
M  V30 9741 O 931.834 -3.32209 1.28514 0
M  V30 9742 O 930.693 -5.18219 1.73526 0
M  V30 9743 H 927.787 -0.794766 0.228638 0
M  V30 9744 H 930.333 -1.25989 1.13687 0
M  V30 9745 H 929.105 -3.11717 2.36534 0
M  V30 9746 H 928.728 -3.88772 0.833176 0
M  V30 9747 N 929.725 -0.817259 -1.34754 0
M  V30 9748 C 930.658 -0.180483 -2.27485 0
M  V30 9749 C 931.636 0.659792 -1.48612 0
M  V30 9750 O 932.82 0.624761 -1.77845 0
M  V30 9751 C 929.947 0.748487 -3.30326 0
M  V30 9752 C 928.993 -0.0135304 -4.26498 0
M  V30 9753 S 929.826 -1.35685 -5.18025 0
M  V30 9754 C 930.982 -0.432605 -6.24403 0
M  V30 9755 H 931.215 -0.966677 -2.81145 0
M  V30 9756 H 928.748 -0.612864 -1.41716 0
M  V30 9757 H 930.706 1.27893 -3.90069 0
M  V30 9758 H 929.367 1.50816 -2.75524 0
M  V30 9759 H 928.56 0.692454 -4.9922 0
M  V30 9760 H 928.162 -0.474344 -3.7098 0
M  V30 9761 H 930.454 0.378035 -6.76444 0
M  V30 9762 H 931.397 -1.12934 -6.99036 0
M  V30 9763 H 931.805 -0.0235533 -5.64495 0
M  V30 9764 N 931.203 1.46865 -0.571711 0
M  V30 9765 C 932.449 2.0273 -0.0531858 0
M  V30 9766 C 932.782 1.44353 1.29907 0
M  V30 9767 O 932.057 0.604488 1.84868 0
M  V30 9768 C 932.34 3.60092 0.0243831 0
M  V30 9769 C 932.193 4.28874 -1.35599 0
M  V30 9770 C 933.512 4.33994 0.730563 0
M  V30 9771 H 930.631 0.736706 -0.0208018 0
M  V30 9772 H 933.273 1.75132 -0.736794 0
M  V30 9773 H 931.423 3.83736 0.606565 0
M  V30 9774 H 933.095 4.16527 -1.98249 0
M  V30 9775 H 931.338 3.88664 -1.92674 0
M  V30 9776 H 932.009 5.37561 -1.25429 0
M  V30 9777 H 934.485 4.1543 0.236098 0
M  V30 9778 H 933.361 5.43699 0.753836 0
M  V30 9779 H 933.622 4.04257 1.78967 0
M  V30 9780 N 932.681 0.308908 1.54543 0
M  V30 9781 C 934.097 -0.0442273 1.59539 0
M  V30 9782 C 934.297 -1.51743 1.32575 0
M  V30 9783 O 933.353 -2.27134 1.10302 0
M  V30 9784 C 934.666 0.360826 2.98527 0
M  V30 9785 C 936.214 0.310252 3.11459 0
M  V30 9786 C 936.689 0.690246 4.52769 0
M  V30 9787 N 938.18 0.643084 4.58714 0
M  V30 9788 C 938.915 0.909483 5.66141 0
M  V30 9789 N 938.411 1.24226 6.81572 0
M  V30 9790 N 940.204 0.836018 5.55848 0
M  V30 9791 H 932.355 1.26893 1.70329 0
M  V30 9792 H 934.618 0.514986 0.795923 0
M  V30 9793 H 934.324 1.38669 3.23209 0
M  V30 9794 H 934.198 -0.281563 3.76148 0
M  V30 9795 H 936.585 -0.706375 2.86521 0
M  V30 9796 H 936.666 0.987373 2.35976 0
M  V30 9797 H 936.31 1.70472 4.78437 0
M  V30 9798 H 936.24 -0.00903075 5.26599 0
M  V30 9799 H 938.731 0.397138 3.75807 0
M  V30 9800 H 939.044 1.4313 7.5943 0
M  V30 9801 H 937.389 1.28038 6.83104 0
M  V30 9802 H 940.58 0.575637 4.64547 0
M  V30 9803 H 940.753 1.047 6.39486 0
M  V30 9804 N 934.159 -1.57557 0.0367827 0
M  V30 9805 C 935.106 -2.10679 -0.942499 0
M  V30 9806 C 936.076 -1.01068 -1.31812 0
M  V30 9807 O 937.261 -1.28533 -1.41011 0
M  V30 9808 C 934.401 -2.64467 -2.21701 0
M  V30 9809 C 933.514 -3.88114 -1.89715 0
M  V30 9810 C 932.649 -4.30268 -3.11518 0
M  V30 9811 C 931.688 -5.46652 -2.75387 0
M  V30 9812 N 930.825 -5.83927 -3.89838 0
M  V30 9813 H 935.665 -2.94066 -0.482588 0
M  V30 9814 H 933.202 -1.45344 -0.226597 0
M  V30 9815 H 935.16 -2.93745 -2.96259 0
M  V30 9816 H 933.79 -1.83898 -2.65295 0
M  V30 9817 H 932.842 -3.65516 -1.05366 0
M  V30 9818 H 934.154 -4.72743 -1.5911 0
M  V30 9819 H 933.308 -4.61023 -3.94389 0
M  V30 9820 H 932.047 -3.44421 -3.4529 0
M  V30 9821 H 931.052 -5.15583 -1.90929 0
M  V30 9822 H 932.277 -6.34204 -2.42822 0
M  V30 9823 H 930.223 -5.01035 -4.23438 0
M  V30 9824 H 930.14 -6.63214 -3.62883 0
M  V30 9825 H 931.408 -6.19291 -4.73391 0
M  V30 9826 N 935.637 0.236453 -1.55816 0
M  V30 9827 C 936.886 0.960981 -1.77336 0
M  V30 9828 C 937.199 1.86085 -0.602641 0
M  V30 9829 O 938.405 2.62291 -0.701106 0
M  V30 9830 C 936.861 1.75884 -3.13995 0
M  V30 9831 C 936.469 0.905849 -4.38746 0
M  V30 9832 C 938.213 2.47548 -3.44848 0
M  V30 9833 C 936.12 1.7002 -5.66434 0
M  V30 9834 H 935.05 0.362547 -0.661117 0
M  V30 9835 H 937.701 0.215303 -1.82233 0
M  V30 9836 H 936.083 2.54687 -3.03234 0
M  V30 9837 H 937.257 0.159415 -4.60524 0
M  V30 9838 H 935.572 0.30205 -4.15303 0
M  V30 9839 H 938.169 3.07452 -4.37467 0
M  V30 9840 H 938.512 3.19689 -2.66655 0
M  V30 9841 H 939.045 1.75747 -3.56872 0
M  V30 9842 H 935.784 1.02234 -6.47479 0
M  V30 9843 H 935.304 2.42164 -5.48741 0
M  V30 9844 H 936.983 2.26469 -6.0607 0
M  V30 9845 N 937.115 1.49373 0.502552 0
M  V30 9846 C 938.364 1.58028 1.25339 0
M  V30 9847 C 938.677 0.271494 1.93707 0
M  V30 9848 O 939.883 0.236584 2.70467 0
M  V30 9849 C 938.339 2.78817 2.27572 0
M  V30 9850 C 937.947 4.16448 1.65151 0
M  V30 9851 C 939.691 2.96802 3.03494 0
M  V30 9852 C 937.598 5.28461 2.65486 0
M  V30 9853 H 936.528 0.588396 0.471494 0
M  V30 9854 H 939.179 1.75756 0.52744 0
M  V30 9855 H 937.561 2.5458 3.03323 0
M  V30 9856 H 938.735 4.50816 0.954029 0
M  V30 9857 H 937.05 4.03809 1.01625 0
M  V30 9858 H 939.647 3.77656 3.78524 0
M  V30 9859 H 939.99 2.07303 3.61014 0
M  V30 9860 H 940.523 3.21071 2.34858 0
M  V30 9861 H 937.262 6.20015 2.12749 0
M  V30 9862 H 936.782 4.9855 3.33479 0
M  V30 9863 H 938.461 5.5773 3.27943 0
M  V30 9864 N 938.594 -0.753485 1.38421 0
M  V30 9865 C 939.504 -1.89797 1.37892 0
M  V30 9866 C 940.52 -1.71797 0.276023 0
M  V30 9867 O 941.696 -1.94718 0.514464 0
M  V30 9868 C 938.761 -3.25166 1.20284 0
M  V30 9869 C 937.822 -3.55691 2.4038 0
M  V30 9870 C 937.055 -4.84601 2.23602 0
M  V30 9871 O 937.278 -5.56985 1.22979 0
M  V30 9872 O 936.212 -5.14605 3.12194 0
M  V30 9873 H 940.038 -1.93197 2.34326 0
M  V30 9874 H 937.623 -0.898775 1.19342 0
M  V30 9875 H 939.505 -4.06099 1.12525 0
M  V30 9876 H 938.18 -3.22577 0.269352 0
M  V30 9877 H 937.087 -2.74919 2.53714 0
M  V30 9878 H 938.42 -3.6304 3.32359 0
M  V30 9879 N 940.072 -1.23292 -0.981677 0
M  V30 9880 C 941.483 -1.05936 -1.53735 0
M  V30 9881 C 941.834 0.373695 -1.92608 0
M  V30 9882 O 940.959 1.26024 -1.75917 0
M  V30 9883 C 941.554 -1.91682 -2.79363 0
M  V30 9884 C 940.113 -1.78591 -3.31334 0
M  V30 9885 C 939.26 -1.87463 -2.04335 0
M  V30 9886 H 942.211 -1.36973 -0.801505 0
M  V30 9887 H 942.232 -1.44085 -3.52164 0
M  V30 9888 H 941.744 -2.95975 -2.51039 0
M  V30 9889 H 939.845 -0.770755 -3.64541 0
M  V30 9890 H 939.958 -2.61902 -4.01179 0
M  V30 9891 H 938.322 -1.3103 -2.18411 0
M  V30 9892 H 939.105 -2.9331 -1.78394 0
M  V30 9893 N 941.55 1.18024 -1.04442 0
M  V30 9894 C 942.483 2.20623 -0.583171 0
M  V30 9895 C 943.461 1.57994 0.384262 0
M  V30 9896 O 944.645 1.86135 0.297673 0
M  V30 9897 C 941.772 3.38378 0.147561 0
M  V30 9898 C 940.818 4.19423 -0.773711 0
M  V30 9899 S 941.651 4.85534 -2.25869 0
M  V30 9900 C 942.807 6.06686 -1.53891 0
M  V30 9901 H 943.04 2.59406 -1.45244 0
M  V30 9902 H 940.573 1.28518 -0.855708 0
M  V30 9903 H 942.531 4.06621 0.562988 0
M  V30 9904 H 941.192 2.97998 0.992765 0
M  V30 9905 H 940.385 5.03568 -0.208694 0
M  V30 9906 H 939.987 3.56579 -1.12816 0
M  V30 9907 H 942.279 6.72347 -0.834045 0
M  V30 9908 H 943.222 6.67702 -2.35755 0
M  V30 9909 H 943.63 5.55031 -1.02961 0
M  V30 9910 N 943.028 0.824394 1.34319 0
M  V30 9911 C 943.991 0.252696 2.27803 0
M  V30 9912 C 944.991 -0.570254 1.50349 0
M  V30 9913 O 946.181 -0.386145 1.69866 0
M  V30 9914 C 943.313 -0.645575 3.34731 0
M  V30 9915 H 944.506 1.07742 2.79878 0
M  V30 9916 H 942.059 0.596367 1.44475 0
M  V30 9917 H 942.794 -1.4933 2.87873 0
M  V30 9918 H 942.579 -0.0569478 3.92059 0
M  V30 9919 H 944.069 -1.03933 4.0446 0
M  V30 9920 N 944.506 -1.46559 0.579492 0
M  V30 9921 C 945.746 -2.04292 0.0664837 0
M  V30 9922 C 946.11 -1.44161 -1.26814 0
M  V30 9923 O 947.311 -1.93074 -1.87018 0
M  V30 9924 C 945.582 -3.574 -0.00167254 0
M  V30 9925 S 947.141 -4.36408 -0.457572 0
M  V30 9926 H 943.959 -0.710092 0.035913 0
M  V30 9927 H 946.561 -1.79644 0.771263 0
M  V30 9928 H 945.265 -3.98683 0.973666 0
M  V30 9929 H 944.796 -3.8658 -0.729321 0
M  V30 9930 H 946.811 -4.65695 -1.71296 0
M  V30 9931 N 945.984 -0.3171 -1.54377 0
M  V30 9932 C 947.261 0.341348 -1.92598 0
M  V30 9933 C 947.641 1.70402 -1.24605 0
M  V30 9934 O 946.989 2.25191 -0.387448 0
M  V30 9935 C 947.199 0.440003 -3.46215 0
M  V30 9936 C 948.547 0.703327 -4.18734 0
M  V30 9937 O 949.571 0.523181 -3.52337 0
M  V30 9938 O 948.43 1.05042 -5.3631 0
M  V30 9939 H 945.524 0.193696 -0.803997 0
M  V30 9940 H 948.07 -0.366341 -1.65699 0
M  V30 9941 H 946.842 -0.517299 -3.87866 0
M  V30 9942 H 946.465 1.19553 -3.792 0
M  V30 9943 N 947.462 1.57535 -0.0451378 0
M  V30 9944 C 948.71 1.92071 0.628743 0
M  V30 9945 C 949.031 0.923635 1.71738 0
M  V30 9946 O 948.301 -0.0324376 1.95873 0
M  V30 9947 H 946.881 0.708995 0.235233 0
M  V30 9948 H 949.543 1.9466 -0.0967177 0
M  V30 9949 H 948.639 2.9314 1.07123 0
M  V30 9950 N 948.94 -0.228186 1.55939 0
M  V30 9951 C 949.87 -1.28607 1.94891 0
M  V30 9952 C 950.851 -1.49236 0.816245 0
M  V30 9953 O 952.036 -1.61531 1.07803 0
M  V30 9954 C 949.166 -2.63719 2.25986 0
M  V30 9955 C 948.12 -2.57757 3.4168 0
M  V30 9956 C 947.446 -3.96837 3.58364 0
M  V30 9957 C 948.746 -2.13116 4.76843 0
M  V30 9958 H 950.44 -0.962531 2.83506 0
M  V30 9959 H 947.986 -0.461577 1.36402 0
M  V30 9960 H 949.939 -3.37878 2.51826 0
M  V30 9961 H 948.663 -2.97747 1.34217 0
M  V30 9962 H 947.322 -1.86055 3.15878 0
M  V30 9963 H 946.97 -4.28162 2.63982 0
M  V30 9964 H 946.67 -3.93731 4.36176 0
M  V30 9965 H 948.194 -4.72668 3.86545 0
M  V30 9966 H 949.608 -2.77015 5.01932 0
M  V30 9967 H 948.005 -2.21083 5.57891 0
M  V30 9968 H 949.075 -1.08326 4.72645 0
M  V30 9969 N 950.418 -1.49637 -0.494624 0
M  V30 9970 C 951.834 -1.36541 -0.826361 0
M  V30 9971 C 952.034 -0.403386 -1.97421 0
M  V30 9972 O 951.09 0.162614 -2.51976 0
M  V30 9973 C 952.403 -2.77401 -1.16057 0
M  V30 9974 C 953.951 -2.86148 -1.26841 0
M  V30 9975 C 954.426 -4.27789 -1.63587 0
M  V30 9976 N 955.917 -4.3063 -1.70624 0
M  V30 9977 C 956.652 -5.37198 -2.00514 0
M  V30 9978 N 956.148 -6.54004 -2.28584 0
M  V30 9979 N 957.941 -5.2462 -2.01818 0
M  V30 9980 H 950.092 -2.10776 0.26219 0
M  V30 9981 H 952.355 -0.946419 0.0547235 0
M  V30 9982 H 952.061 -3.49526 -0.390434 0
M  V30 9983 H 951.935 -3.1317 -2.10249 0
M  V30 9984 H 954.322 -2.14256 -2.02925 0
M  V30 9985 H 954.403 -2.53953 -0.30684 0
M  V30 9986 H 954.047 -5.00209 -0.880507 0
M  V30 9987 H 953.977 -4.57453 -2.60854 0
M  V30 9988 H 956.468 -3.46393 -1.51065 0
M  V30 9989 H 956.781 -7.31041 -2.50598 0
M  V30 9990 H 955.126 -6.57219 -2.26027 0
M  V30 9991 H 958.317 -4.32371 -1.79369 0
M  V30 9992 H 958.49 -6.07765 -2.24778 0
M  V30 9993 N 951.896 0.746133 -1.38819 0
M  V30 9994 C 953.124 1.53539 -1.38685 0
M  V30 9995 C 953.539 1.88788 0.0215039 0
M  V30 9996 O 952.896 1.53312 0.990031 0
M  V30 9997 C 952.947 2.8299 -2.24942 0
M  V30 9998 O 952.668 2.49242 -3.60292 0
M  V30 9999 C 954.169 3.77085 -2.3307 0
M  V30 10000 H 951.389 0.474842 -0.474095 0
M  V30 10001 H 953.933 0.922844 -1.82493 0
M  V30 10002 H 952.088 3.40603 -1.84576 0
M  V30 10003 H 952.502 3.32319 -4.05789 0
M  V30 10004 H 953.976 4.64845 -2.97696 0
M  V30 10005 H 954.453 4.18049 -1.34655 0
M  V30 10006 H 955.059 3.25394 -2.73859 0
M  V30 10007 N 953.375 1.23811 0.975125 0
M  V30 10008 C 954.624 1.06741 1.71141 0
M  V30 10009 C 954.937 -0.394986 1.9157 0
M  V30 10010 O 956.143 -0.685723 2.62698 0
M  V30 10011 C 954.599 1.86168 3.08009 0
M  V30 10012 C 954.207 3.36771 2.95448 0
M  V30 10013 C 955.951 1.77604 3.85561 0
M  V30 10014 C 953.858 4.0857 4.2758 0
M  V30 10015 H 952.788 0.395819 0.64175 0
M  V30 10016 H 955.439 1.47825 1.0872 0
M  V30 10017 H 953.821 1.37893 3.71216 0
M  V30 10018 H 954.995 3.92571 2.41298 0
M  V30 10019 H 953.31 3.46205 2.31368 0
M  V30 10020 H 955.907 2.28556 4.83391 0
M  V30 10021 H 956.25 0.739837 4.09673 0
M  V30 10022 H 956.783 2.23519 3.29065 0
M  V30 10023 H 953.522 5.12518 4.08663 0
M  V30 10024 H 953.042 3.57556 4.81574 0
M  V30 10025 H 954.721 4.15157 4.9624 0
M  V30 10026 N 954.853 -1.17469 1.05066 0
M  V30 10027 C 956.093 -1.89382 0.769012 0
M  V30 10028 C 956.457 -1.79126 -0.691217 0
M  V30 10029 O 957.658 -2.45845 -1.08692 0
M  V30 10030 C 955.929 -3.35397 1.23465 0
M  V30 10031 S 957.488 -4.25297 1.08018 0
M  V30 10032 H 954.306 -0.653839 0.279312 0
M  V30 10033 H 956.908 -1.41877 1.34503 0
M  V30 10034 H 955.612 -3.40395 2.29258 0
M  V30 10035 H 955.143 -3.87945 0.652853 0
M  V30 10036 H 957.158 -4.962 0.00358573 0
M  V30 10037 N 956.331 -0.831506 -1.3388 0
M  V30 10038 C 957.58 -0.420028 -1.97278 0
M  V30 10039 C 957.893 1.02441 -1.66629 0
M  V30 10040 O 959.099 1.54021 -2.23584 0
M  V30 10041 C 957.555 -0.700116 -3.53025 0
M  V30 10042 C 957.163 -2.15874 -3.92559 0
M  V30 10043 C 958.907 -0.355226 -4.23011 0
M  V30 10044 C 956.814 -2.38327 -5.41252 0
M  V30 10045 H 955.744 -0.153326 -0.738246 0
M  V30 10046 H 958.395 -1.01906 -1.52602 0
M  V30 10047 H 956.777 -0.0308044 -3.95988 0
M  V30 10048 H 957.951 -2.86792 -3.60675 0
M  V30 10049 H 956.266 -2.4659 -3.35533 0
M  V30 10050 H 958.863 -0.500701 -5.32351 0
M  V30 10051 H 959.206 0.70111 -4.10354 0
M  V30 10052 H 959.739 -0.979466 -3.85553 0
M  V30 10053 H 956.478 -3.42498 -5.58906 0
M  V30 10054 H 955.998 -1.71962 -5.74621 0
M  V30 10055 H 957.677 -2.21113 -6.08045 0
M  V30 10056 N 957.809 1.4625 -0.587256 0
M  V30 10057 C 958.772 2.28812 0.133238 0
M  V30 10058 C 959.772 1.38645 0.814513 0
M  V30 10059 O 960.962 1.60975 0.665774 0
M  V30 10060 C 958.094 3.19147 1.19824 0
M  V30 10061 H 959.287 2.93991 -0.592386 0
M  V30 10062 H 956.84 1.52435 -0.345416 0
M  V30 10063 H 957.575 2.58725 1.95529 0
M  V30 10064 H 957.36 3.85541 0.71418 0
M  V30 10065 H 958.85 3.81278 1.70344 0
M  V30 10066 N 959.287 0.325282 1.54207 0
M  V30 10067 C 960.517 -0.278285 2.04717 0
M  V30 10068 C 960.925 -1.46198 1.20095 0
M  V30 10069 O 960.268 -1.82319 0.224813 0
M  V30 10070 C 960.33 -0.774387 3.51061 0
M  V30 10071 C 959.994 0.287225 4.56096 0
M  V30 10072 C 960.991 1.12388 5.07607 0
M  V30 10073 C 958.676 0.435908 5.00405 0
M  V30 10074 C 960.67 2.09492 6.0199 0
M  V30 10075 C 958.357 1.41037 5.94602 0
M  V30 10076 C 959.355 2.23834 6.45281 0
M  V30 10077 O 959.043 3.19625 7.37628 0
M  V30 10078 H 958.775 -0.0608309 0.673257 0
M  V30 10079 H 961.329 0.470049 1.99949 0
M  V30 10080 H 959.559 -1.57366 3.53232 0
M  V30 10081 H 961.248 -1.29649 3.84637 0
M  V30 10082 H 962.014 1.02 4.74153 0
M  V30 10083 H 957.893 -0.198668 4.60572 0
M  V30 10084 H 961.437 2.74157 6.4147 0
M  V30 10085 H 957.334 1.51487 6.27473 0
M  V30 10086 H 958.102 3.14884 7.55507 0
M  V30 10087 N 960.765 -1.57509 0.0534917 0
M  V30 10088 C 962.181 -1.56696 -0.303067 0
M  V30 10089 C 962.381 -1.06135 -1.71282 0
M  V30 10090 O 961.437 -0.71899 -2.42047 0
M  V30 10091 C 962.75 -3.00421 -0.129418 0
M  V30 10092 C 964.298 -3.12358 -0.200346 0
M  V30 10093 C 964.773 -4.57967 -0.0551971 0
M  V30 10094 N 966.264 -4.63066 -0.111398 0
M  V30 10095 C 966.999 -5.73395 -0.0232344 0
M  V30 10096 N 966.495 -6.92701 0.11741 0
M  V30 10097 N 968.288 -5.62045 -0.078984 0
M  V30 10098 H 960.439 -1.88696 0.975064 0
M  V30 10099 H 962.702 -0.869072 0.378706 0
M  V30 10100 H 962.408 -3.41456 0.842653 0
M  V30 10101 H 962.282 -3.66563 -0.889476 0
M  V30 10102 H 964.669 -2.71221 -1.16289 0
M  V30 10103 H 964.75 -2.48891 0.590506 0
M  V30 10104 H 964.394 -4.9979 0.904034 0
M  V30 10105 H 964.324 -5.19443 -0.865223 0
M  V30 10106 H 966.815 -3.77263 -0.219256 0
M  V30 10107 H 967.128 -7.72597 0.177326 0
M  V30 10108 H 965.473 -6.94833 0.152526 0
M  V30 10109 H 968.664 -4.67725 -0.187434 0
M  V30 10110 H 968.837 -6.48 -0.00681731 0
M  V30 10111 N 962.243 0.219913 -1.56058 0
M  V30 10112 C 963.52 0.968493 -1.6994 0
M  V30 10113 C 963.9 2.02358 -0.601219 0
M  V30 10114 O 963.248 2.25121 0.391534 0
M  V30 10115 C 963.458 1.57745 -3.11316 0
M  V30 10116 C 964.806 2.06908 -3.70775 0
M  V30 10117 O 965.83 1.67636 -3.14288 0
M  V30 10118 O 964.689 2.79096 -4.69859 0
M  V30 10119 H 961.783 0.452521 -0.692209 0
M  V30 10120 H 964.329 0.211566 -1.68376 0
M  V30 10121 H 963.101 0.815687 -3.82704 0
M  V30 10122 H 962.724 2.39987 -3.17005 0
M  V30 10123 N 963.721 1.49897 0.486681 0
M  V30 10124 C 964.968 1.60105 1.23986 0
M  V30 10125 C 965.296 0.294228 1.92262 0
M  V30 10126 O 964.551 -0.718876 1.82018 0
M  V30 10127 C 964.85 2.71982 2.31863 0
M  V30 10128 C 964.516 4.13 1.80948 0
M  V30 10129 C 963.178 4.51373 1.66782 0
M  V30 10130 C 965.53 5.01198 1.43004 0
M  V30 10131 C 962.858 5.75701 1.13072 0
M  V30 10132 C 965.21 6.26058 0.90742 0
M  V30 10133 C 963.874 6.63247 0.752269 0
M  V30 10134 H 963.144 0.585866 0.453698 0
M  V30 10135 H 965.791 1.83778 0.538305 0
M  V30 10136 H 964.096 2.42336 3.07865 0
M  V30 10137 H 965.793 2.77087 2.89869 0
M  V30 10138 H 962.383 3.82718 1.92937 0
M  V30 10139 H 966.567 4.72196 1.52789 0
M  V30 10140 H 961.823 6.03202 0.997842 0
M  V30 10141 H 965.997 6.9377 0.604684 0
M  V30 10142 H 963.624 7.59466 0.33392 0
M  V30 10143 N 965.199 -0.738761 1.39212 0
M  V30 10144 C 966.424 -1.5331 1.39681 0
M  V30 10145 C 966.849 -1.88098 -0.00768715 0
M  V30 10146 O 966.207 -1.51642 -0.993699 0
M  V30 10147 C 966.255 -2.79958 2.27279 0
M  V30 10148 O 965.359 -3.75727 1.70008 0
M  V30 10149 H 964.7 -0.463131 0.475821 0
M  V30 10150 H 967.23 -0.911768 1.83161 0
M  V30 10151 H 967.24 -3.28732 2.41659 0
M  V30 10152 H 965.915 -2.5397 3.29351 0
M  V30 10153 H 964.492 -3.34483 1.64851 0
M  V30 10154 N 966.677 -1.24326 -0.968545 0
M  V30 10155 C 967.64 -1.03591 -2.04454 0
M  V30 10156 C 968.64 0.0064809 -1.60799 0
M  V30 10157 O 969.83 -0.234404 -1.72616 0
M  V30 10158 C 966.962 -0.56992 -3.36102 0
M  V30 10159 H 968.155 -1.99092 -2.24282 0
M  V30 10160 H 965.708 -1.06537 -1.14366 0
M  V30 10161 H 966.443 0.388325 -3.21967 0
M  V30 10162 H 966.228 -1.32227 -3.69132 0
M  V30 10163 H 967.718 -0.445854 -4.15213 0
M  V30 10164 N 968.156 1.1691 -1.05688 0
M  V30 10165 C 969.404 1.86922 -0.768409 0
M  V30 10166 C 969.725 1.81735 0.706921 0
M  V30 10167 O 968.995 1.24671 1.51109 0
M  V30 10168 H 967.575 0.69203 -0.281253 0
M  V30 10169 H 970.237 1.41803 -1.33708 0
M  V30 10170 H 969.333 2.92528 -1.08783 0
M  V30 10171 N 969.634 0.838594 1.33437 0
M  V30 10172 C 970.566 0.229006 2.28053 0
M  V30 10173 C 971.579 -0.590103 1.51729 0
M  V30 10174 O 972.768 -0.417218 1.73556 0
M  V30 10175 C 969.868 -0.696251 3.31671 0
M  V30 10176 C 969.041 0.0834606 4.3732 0
M  V30 10177 C 968.1 -0.765097 5.20608 0
M  V30 10178 O 967.126 -0.2044 5.68833 0
M  V30 10179 N 968.328 -2.08249 5.4186 0
M  V30 10180 H 971.093 1.04196 2.81004 0
M  V30 10181 H 968.654 0.697031 1.46127 0
M  V30 10182 H 970.646 -1.26889 3.84293 0
M  V30 10183 H 969.216 -1.40992 2.78998 0
M  V30 10184 H 968.436 0.837481 3.85201 0
M  V30 10185 H 969.724 0.619613 5.05013 0
M  V30 10186 H 969.122 -2.56156 5.04381 0
M  V30 10187 H 967.679 -2.60362 5.97541 0
M  V30 10188 N 971.112 -1.45937 0.595003 0
M  V30 10189 C 972.022 -2.34221 -0.133325 0
M  V30 10190 C 973.038 -1.50491 -0.873407 0
M  V30 10191 O 974.214 -1.83328 -0.833828 0
M  V30 10192 C 971.279 -3.27896 -1.12628 0
M  V30 10193 C 970.34 -4.27529 -0.389532 0
M  V30 10194 C 969.573 -5.16729 -1.33519 0
M  V30 10195 O 969.796 -5.09102 -2.57238 0
M  V30 10196 O 968.73 -5.96023 -0.839084 0
M  V30 10197 H 972.556 -2.97877 0.591861 0
M  V30 10198 H 970.141 -1.45113 0.355329 0
M  V30 10199 H 972.023 -3.85654 -1.69851 0
M  V30 10200 H 970.698 -2.6682 -1.83272 0
M  V30 10201 H 969.605 -3.73424 0.224843 0
M  V30 10202 H 970.938 -4.91425 0.276169 0
M  V30 10203 N 972.59 -0.333456 -1.54032 0
M  V30 10204 C 974.001 0.15256 -1.86076 0
M  V30 10205 C 974.352 1.50819 -1.25492 0
M  V30 10206 O 973.477 2.08903 -0.564665 0
M  V30 10207 C 974.072 0.283599 -3.37611 0
M  V30 10208 C 972.631 0.713841 -3.69569 0
M  V30 10209 C 971.778 -0.158515 -2.76847 0
M  V30 10210 H 974.729 -0.553404 -1.48738 0
M  V30 10211 H 974.75 1.11284 -3.63863 0
M  V30 10212 H 974.262 -0.703193 -3.81676 0
M  V30 10213 H 972.363 1.71002 -3.31042 0
M  V30 10214 H 972.476 0.510731 -4.7637 0
M  V30 10215 H 970.84 0.367531 -2.52034 0
M  V30 10216 H 971.623 -1.14226 -3.2374 0
M  V30 10217 N 974.068 1.57479 -0.061844 0
M  V30 10218 C 975.345 1.84484 0.649993 0
M  V30 10219 C 975.725 0.952366 1.88396 0
M  V30 10220 O 975.073 0.0161035 2.28494 0
M  V30 10221 C 975.283 3.34452 0.997133 0
M  V30 10222 C 976.631 4.01724 1.37488 0
M  V30 10223 O 977.655 3.3914 1.08916 0
M  V30 10224 O 976.514 5.12091 1.90854 0
M  V30 10225 H 973.608 0.761798 0.321858 0
M  V30 10226 H 976.154 1.6945 -0.0920192 0
M  V30 10227 H 974.926 3.91115 0.120301 0
M  V30 10228 H 974.549 3.54713 1.79624 0
M  V30 10229 N 975.546 -0.211634 1.56173 0
M  V30 10230 C 976.792 -0.931479 1.80818 0
M  V30 10231 C 977.147 -1.81571 0.636373 0
M  V30 10232 O 976.44 -1.8801 -0.369182 0
M  V30 10233 C 976.634 -1.79657 3.08963 0
M  V30 10234 C 976.463 -0.997577 4.38496 0
M  V30 10235 C 975.233 -0.688558 5.00587 0
M  V30 10236 C 977.431 -0.358138 5.13052 0
M  V30 10237 N 975.413 0.130797 6.13761 0
M  V30 10238 C 976.784 0.324159 6.19152 0
M  V30 10239 C 978.839 -0.272178 4.97156 0
M  V30 10240 C 977.542 1.08421 7.11082 0
M  V30 10241 C 979.568 0.474428 5.89494 0
M  V30 10242 C 978.93 1.14523 6.95028 0
M  V30 10243 H 975.029 -0.32079 0.713174 0
M  V30 10244 H 977.613 -0.201528 1.93654 0
M  V30 10245 H 975.784 -2.49826 2.97392 0
M  V30 10246 H 977.516 -2.45464 3.2176 0
M  V30 10247 H 974.271 -1.00899 4.62727 0
M  V30 10248 H 974.695 0.5296 6.74925 0
M  V30 10249 H 979.337 -0.776448 4.15609 0
M  V30 10250 H 977.055 1.59996 7.92103 0
M  V30 10251 H 980.641 0.542076 5.79269 0
M  V30 10252 H 979.521 1.71371 7.65246 0
M  V30 10253 N 977.024 -1.50153 -0.478725 0
M  V30 10254 C 978.301 -1.51274 -1.23999 0
M  V30 10255 C 978.681 -0.253048 -2.09578 0
M  V30 10256 O 978.029 0.763827 -2.15355 0
M  V30 10257 C 978.239 -2.80423 -2.07759 0
M  V30 10258 C 979.587 -3.30788 -2.66204 0
M  V30 10259 O 980.611 -2.81693 -2.18008 0
M  V30 10260 O 979.47 -4.1635 -3.53999 0
M  V30 10261 H 976.564 -0.606438 -0.562283 0
M  V30 10262 H 979.11 -1.62436 -0.491171 0
M  V30 10263 H 977.882 -3.63584 -1.44645 0
M  V30 10264 H 977.505 -2.72228 -2.89789 0
M  V30 10265 N 978.502 0.731368 -1.39602 0
M  V30 10266 C 979.45 1.86676 -1.38761 0
M  V30 10267 C 980.444 1.6723 -0.270247 0
M  V30 10268 O 981.65 1.74528 -0.440471 0
M  V30 10269 H 978.025 0.614553 -0.433391 0
M  V30 10270 H 979.996 1.84501 -2.34525 0
M  V30 10271 C 978.745 3.24394 -1.25155 0
M  V30 10272 H 978.068 3.39955 -2.10406 0
M  V30 10273 H 979.508 4.04019 -1.28625 0
M  V30 10274 C 977.967 3.36877 0.0396976 0
M  V30 10275 O 978.497 3.88833 1.00854 0
M  V30 10276 N 976.703 2.90414 0.103965 0
M  V30 10277 H 976.25 2.48321 -0.685155 0
M  V30 10278 H 976.208 2.99146 0.967435 0
M  V30 10279 N 979.98 1.24838 0.961938 0
M  V30 10280 C 980.89 1.06304 2.09133 0
M  V30 10281 C 981.906 0.00221475 1.74 0
M  V30 10282 O 983.082 0.201611 2.00388 0
M  V30 10283 C 980.147 0.676117 3.40043 0
M  V30 10284 C 979.208 1.81407 3.89089 0
M  V30 10285 C 978.441 1.44551 5.13752 0
M  V30 10286 O 978.664 0.337894 5.69398 0
M  V30 10287 O 977.598 2.27316 5.57325 0
M  V30 10288 H 981.424 2.01001 2.27667 0
M  V30 10289 H 979.009 1.0371 1.07539 0
M  V30 10290 H 980.891 0.472124 4.18747 0
M  V30 10291 H 979.566 -0.241667 3.22797 0
M  V30 10292 H 978.473 2.07286 3.11421 0
M  V30 10293 H 979.806 2.71083 4.10822 0
M  V30 10294 N 981.458 -1.16348 1.06306 0
M  V30 10295 C 982.406 -2.22799 0.668087 0
M  V30 10296 C 983.4 -1.66426 -0.316051 0
M  V30 10297 O 984.606 -1.79089 -0.180902 0
M  V30 10298 H 980.981 -0.725487 0.19792 0
M  V30 10299 H 982.952 -2.53401 1.57577 0
M  V30 10300 C 981.701 -3.47628 0.0706797 0
M  V30 10301 H 981.024 -3.9132 0.819064 0
M  V30 10302 H 982.464 -4.23666 -0.16816 0
M  V30 10303 C 980.923 -3.15343 -1.18577 0
M  V30 10304 O 981.453 -3.31158 -2.27371 0
M  V30 10305 N 979.659 -2.69472 -1.08779 0
M  V30 10306 H 979.206 -2.56803 -0.202447 0
M  V30 10307 H 979.164 -2.48244 -1.92931 0
M  V30 10308 N 982.937 -0.845659 -1.3299 0
M  V30 10309 C 983.847 -0.2864 -2.32845 0
M  V30 10310 C 984.863 0.591105 -1.63652 0
M  V30 10311 O 986.039 0.493615 -1.95257 0
M  V30 10312 C 983.104 0.523636 -3.42723 0
M  V30 10313 C 982.165 -0.378945 -4.27624 0
M  V30 10314 C 981.398 0.392526 -5.32255 0
M  V30 10315 O 981.621 1.6235 -5.46808 0
M  V30 10316 O 980.555 -0.237 -6.01433 0
M  V30 10317 H 984.381 -1.11346 -2.82552 0
M  V30 10318 H 981.966 -0.608356 -1.36453 0
M  V30 10319 H 983.848 0.983718 -4.09757 0
M  V30 10320 H 982.523 1.32764 -2.95221 0
M  V30 10321 H 981.43 -0.887012 -3.63432 0
M  V30 10322 H 982.763 -1.1479 -4.78627 0
M  V30 10323 N 984.415 1.45619 -0.602734 0
M  V30 10324 C 985.661 2.02572 -0.0961759 0
M  V30 10325 C 985.994 1.47076 1.26815 0
M  V30 10326 O 985.269 0.643566 1.83544 0
M  V30 10327 C 985.552 3.60062 -0.0520032 0
M  V30 10328 C 985.405 4.25901 -1.44665 0
M  V30 10329 C 986.724 4.35446 0.638342 0
M  V30 10330 H 983.843 0.736099 -0.0364238 0
M  V30 10331 H 986.485 1.7353 -0.773776 0
M  V30 10332 H 984.635 3.84936 0.525032 0
M  V30 10333 H 986.307 4.12228 -2.0704 0
M  V30 10334 H 984.55 3.84489 -2.00874 0
M  V30 10335 H 985.221 5.34779 -1.36803 0
M  V30 10336 H 987.697 4.15837 0.147926 0
M  V30 10337 H 986.573 5.45176 0.63834 0
M  V30 10338 H 986.834 4.07962 1.70351 0
M  V30 10339 N 985.893 0.34162 1.53853 0
M  V30 10340 C 987.139 -0.255862 2.01179 0
M  V30 10341 C 987.472 -1.50356 1.22909 0
M  V30 10342 O 986.747 -1.91913 0.316198 0
M  V30 10343 C 987.03 -0.571934 3.55529 0
M  V30 10344 C 986.883 0.687727 4.44511 0
M  V30 10345 C 988.202 -1.38233 4.17827 0
M  V30 10346 H 985.321 -0.091521 0.731295 0
M  V30 10347 H 987.963 0.461775 1.84303 0
M  V30 10348 H 986.113 -1.18331 3.70041 0
M  V30 10349 H 987.785 1.32572 4.4184 0
M  V30 10350 H 986.028 1.313 4.13452 0
M  V30 10351 H 986.699 0.421858 5.50386 0
M  V30 10352 H 989.175 -0.865374 4.07002 0
M  V30 10353 H 988.051 -1.57223 5.25901 0
M  V30 10354 H 988.312 -2.38386 3.72323 0
M  V30 10355 N 987.371 -1.57444 0.0701946 0
M  V30 10356 C 988.619 -1.93047 -0.598106 0
M  V30 10357 C 988.94 -0.950841 -1.70247 0
M  V30 10358 O 988.21 0.00127177 -1.959 0
M  V30 10359 H 986.79 -0.712648 -0.223924 0
M  V30 10360 H 989.452 -1.94481 0.127674 0
M  V30 10361 H 988.548 -2.94807 -1.02445 0
M  V30 10362 N 988.849 0.203349 -1.56283 0
M  V30 10363 C 990.126 0.950415 -1.70958 0
M  V30 10364 C 990.506 2.01708 -0.622647 0
M  V30 10365 O 989.854 2.25523 0.367635 0
M  V30 10366 C 990.064 1.54434 -3.12971 0
M  V30 10367 C 991.412 2.02964 -3.72949 0
M  V30 10368 O 992.436 1.64293 -3.16048 0
M  V30 10369 O 991.295 2.74097 -4.72793 0
M  V30 10370 H 988.389 0.445154 -0.69697 0
M  V30 10371 H 990.935 0.193695 -1.68591 0
M  V30 10372 H 989.707 0.77505 -3.83547 0
M  V30 10373 H 989.33 2.36611 -3.19532 0
M  V30 10374 N 990.327 1.50405 0.470755 0
M  V30 10375 C 991.257 1.72222 1.57676 0
M  V30 10376 C 992.238 0.57121 1.60222 0
M  V30 10377 O 993.423 0.810381 1.76484 0
M  V30 10378 C 990.553 1.81666 2.95998 0
M  V30 10379 C 989.507 2.96857 3.08318 0
M  V30 10380 C 988.833 2.91445 4.4829 0
M  V30 10381 C 990.133 4.37361 2.85504 0
M  V30 10382 H 991.827 2.64825 1.39671 0
M  V30 10383 H 989.373 1.27438 0.67049 0
M  V30 10384 H 991.326 1.95514 3.73299 0
M  V30 10385 H 990.05 0.856856 3.1516 0
M  V30 10386 H 988.709 2.82661 2.33449 0
M  V30 10387 H 988.357 1.93309 4.64371 0
M  V30 10388 H 988.057 3.68776 4.57469 0
M  V30 10389 H 989.581 3.07341 5.27611 0
M  V30 10390 H 990.995 4.52081 3.52555 0
M  V30 10391 H 989.392 5.16145 3.06127 0
M  V30 10392 H 990.462 4.49708 1.81359 0
M  V30 10393 N 991.805 -0.723954 1.39988 0
M  V30 10394 C 993.033 -1.51313 1.4111 0
M  V30 10395 C 993.448 -1.88798 0.00853333 0
M  V30 10396 O 992.805 -1.54868 -0.965516 0
M  V30 10397 C 992.856 -2.79375 2.29416 0
M  V30 10398 O 992.577 -2.43478 3.64211 0
M  V30 10399 C 994.078 -3.7333 2.3904 0
M  V30 10400 H 991.298 -0.46724 0.481589 0
M  V30 10401 H 993.842 -0.893694 1.83938 0
M  V30 10402 H 991.997 -3.37624 1.89971 0
M  V30 10403 H 992.411 -3.25821 4.11024 0
M  V30 10404 H 993.885 -4.60051 3.05053 0
M  V30 10405 H 994.362 -4.15854 1.41289 0
M  V30 10406 H 994.968 -3.20996 2.79001 0
M  V30 10407 N 993.283 -1.25346 -0.955304 0
M  V30 10408 C 994.523 -1.11259 -1.71467 0
M  V30 10409 C 994.887 0.340759 -1.88952 0
M  V30 10410 O 996.088 0.60344 -2.61939 0
M  V30 10411 C 994.359 -1.84541 -3.06071 0
M  V30 10412 S 995.918 -1.86337 -3.97271 0
M  V30 10413 H 992.736 -0.397683 -0.58938 0
M  V30 10414 H 995.338 -1.58861 -1.13945 0
M  V30 10415 H 994.042 -2.89377 -2.91014 0
M  V30 10416 H 993.573 -1.37323 -3.68654 0
M  V30 10417 H 995.588 -0.939925 -4.87216 0
M  V30 10418 N 994.761 1.15782 -1.06922 0
M  V30 10419 C 996.01 1.85807 -0.784774 0
M  V30 10420 C 996.323 1.82967 0.691551 0
M  V30 10421 O 997.529 2.48632 1.0906 0
M  V30 10422 C 995.985 3.33469 -1.35375 0
M  V30 10423 C 995.593 3.44766 -2.86077 0
M  V30 10424 C 997.337 4.08707 -1.14713 0
M  V30 10425 C 995.244 4.86551 -3.36187 0
M  V30 10426 H 994.174 0.696046 -0.28989 0
M  V30 10427 H 996.825 1.30629 -1.28873 0
M  V30 10428 H 995.207 3.88292 -0.77754 0
M  V30 10429 H 996.381 3.00073 -3.49704 0
M  V30 10430 H 994.696 2.82969 -3.05479 0
M  V30 10431 H 997.293 5.13336 -1.49633 0
M  V30 10432 H 997.636 4.16211 -0.0858868 0
M  V30 10433 H 998.169 3.60142 -1.68946 0
M  V30 10434 H 994.908 4.84229 -4.41818 0
M  V30 10435 H 994.428 5.31844 -2.77312 0
M  V30 10436 H 996.107 5.55392 -3.31887 0
M  V30 10437 N 996.239 0.8527 1.3254 0
M  V30 10438 C 997.202 0.300959 2.27215 0
M  V30 10439 C 998.202 -0.538235 1.51525 0
M  V30 10440 O 999.392 -0.350027 1.70647 0
M  V30 10441 C 996.524 -0.574428 3.36025 0
M  V30 10442 H 997.717 1.13655 2.77529 0
M  V30 10443 H 995.27 0.626878 1.43178 0
M  V30 10444 H 996.005 -1.43191 2.90976 0
M  V30 10445 H 995.79 0.0262265 3.92091 0
M  V30 10446 H 997.28 -0.9533 4.06573 0
M  V30 10447 N 997.718 -1.45297 0.610449 0
M  V30 10448 C 998.964 -2.02518 0.106917 0
M  V30 10449 C 999.297 -1.47747 -1.26034 0
M  V30 10450 O 998.572 -0.65329 -1.832 0
M  V30 10451 C 998.855 -3.6003 0.0710975 0
M  V30 10452 C 998.708 -4.25128 1.46922 0
M  V30 10453 C 1000.03 -4.35778 -0.61524 0
M  V30 10454 H 997.146 -0.735896 0.040327 0
M  V30 10455 H 999.788 -1.73117 0.782968 0
M  V30 10456 H 997.938 -3.85209 -0.504611 0
M  V30 10457 H 999.61 -4.11125 2.09223 0
M  V30 10458 H 997.853 -3.83418 2.02911 0
M  V30 10459 H 998.524 -5.34046 1.39637 0
M  V30 10460 H 1001 -4.1591 -0.125871 0
M  V30 10461 H 999.876 -5.45506 -0.609419 0
M  V30 10462 H 1000.14 -4.08859 -1.68186 0
M  V30 10463 N 999.196 -0.349774 -1.5367 0
M  V30 10464 C 1000.44 0.245189 -2.01312 0
M  V30 10465 C 1000.77 1.49702 -1.23705 0
M  V30 10466 O 1000.05 1.91742 -0.326371 0
M  V30 10467 C 1000.33 0.553071 -3.55827 0
M  V30 10468 C 1000.19 -0.71129 -4.4414 0
M  V30 10469 C 1001.5 1.36015 -4.18555 0
M  V30 10470 H 998.624 0.0876415 -0.73177 0
M  V30 10471 H 1001.27 -0.471543 -1.84056 0
M  V30 10472 H 999.416 1.16367 -3.70663 0
M  V30 10473 H 1001.09 -1.34913 -4.41131 0
M  V30 10474 H 999.331 -1.33491 -4.1275 0
M  V30 10475 H 1000 -0.45104 -5.50154 0
M  V30 10476 H 1002.48 0.843778 -4.07455 0
M  V30 10477 H 1001.35 1.54432 -5.26728 0
M  V30 10478 H 1001.61 2.36408 -3.73582 0
M  V30 10479 N 1000.67 1.57404 -0.0785433 0
M  V30 10480 C 1001.92 1.93361 0.58786 0
M  V30 10481 C 1002.24 0.959856 1.6974 0
M  V30 10482 O 1001.51 0.0091173 1.95898 0
M  V30 10483 H 1000.09 0.713825 0.220141 0
M  V30 10484 H 1002.75 1.94411 -0.137986 0
M  V30 10485 H 1001.85 2.95346 1.00881 0
M  V30 10486 N 1002.15 -0.195058 1.56388 0
M  V30 10487 C 1003.4 -0.913626 1.79821 0
M  V30 10488 C 1003.71 -1.84422 0.651767 0
M  V30 10489 O 1004.92 -2.6034 0.770402 0
M  V30 10490 C 1003.38 -1.67497 3.18548 0
M  V30 10491 C 1002.98 -0.789205 4.40994 0
M  V30 10492 C 1004.73 -2.38318 3.5129 0
M  V30 10493 C 1002.63 -1.54942 5.70742 0
M  V30 10494 H 1001.56 -0.344891 0.670497 0
M  V30 10495 H 1004.22 -0.166912 1.82739 0
M  V30 10496 H 1002.6 -2.46557 3.0988 0
M  V30 10497 H 1003.77 -0.0372595 4.60785 0
M  V30 10498 H 1002.09 -0.191834 4.15958 0
M  V30 10499 H 1004.68 -2.95745 4.45465 0
M  V30 10500 H 1005.03 -3.12507 2.75037 0
M  V30 10501 H 1005.56 -1.66224 3.61406 0
M  V30 10502 H 1002.3 -0.85031 6.49962 0
M  V30 10503 H 1001.82 -2.2753 5.54969 0
M  V30 10504 H 1003.5 -2.1032 6.11861 0
M  V30 10505 N 1003.63 -1.50653 -0.462772 0
M  V30 10506 C 1004.54 -1.72923 -1.58539 0
M  V30 10507 C 1005.56 -0.612577 -1.6286 0
M  V30 10508 O 1006.73 -0.891885 -1.80575 0
M  V30 10509 C 1003.8 -1.82623 -2.94703 0
M  V30 10510 C 1002.86 -3.06392 -3.00704 0
M  V30 10511 C 1002.09 -3.15618 -4.30373 0
M  V30 10512 O 1002.31 -2.31423 -5.21344 0
M  V30 10513 O 1001.25 -4.0841 -4.42136 0
M  V30 10514 H 1005.07 -2.68103 -1.42669 0
M  V30 10515 H 1002.66 -1.34848 -0.643144 0
M  V30 10516 H 1004.54 -1.91134 -3.7556 0
M  V30 10517 H 1003.22 -0.906275 -3.10754 0
M  V30 10518 H 1002.12 -3.03375 -2.18894 0
M  V30 10519 H 1003.46 -3.97992 -2.89591 0
M  V30 10520 N 1005.11 0.71652 -1.4037 0
M  V30 10521 C 1006.39 1.46947 -1.29097 0
M  V30 10522 C 1006.77 2.10903 0.0911182 0
M  V30 10523 O 1006.11 2.00068 1.10385 0
M  V30 10524 C 1006.32 2.50594 -2.42907 0
M  V30 10525 C 1007.67 3.16451 -2.83097 0
M  V30 10526 O 1008.7 2.60913 -2.42493 0
M  V30 10527 O 1007.55 4.16991 -3.53244 0
M  V30 10528 H 1004.65 0.653413 -0.506932 0
M  V30 10529 H 1007.19 0.748774 -1.52287 0
M  V30 10530 H 1005.97 2.01843 -3.35224 0
M  V30 10531 H 1005.59 3.302 -2.21481 0
M  V30 10532 N 1006.59 1.25851 0.948643 0
M  V30 10533 C 1008 1.09975 1.50872 0
M  V30 10534 C 1008.35 -0.322497 1.93531 0
M  V30 10535 O 1007.47 -1.21316 1.79197 0
M  V30 10536 C 1008.07 1.99021 2.74182 0
M  V30 10537 C 1006.63 1.87313 3.26483 0
M  V30 10538 C 1005.77 1.92815 1.99293 0
M  V30 10539 H 1008.73 1.3905 0.764908 0
M  V30 10540 H 1008.75 1.53372 3.4822 0
M  V30 10541 H 1008.26 3.02527 2.43103 0
M  V30 10542 H 1006.36 0.867136 3.62369 0
M  V30 10543 H 1006.47 2.72446 3.94094 0
M  V30 10544 H 1004.84 1.36774 2.1486 0
M  V30 10545 H 1005.62 2.97936 1.70554 0
M  V30 10546 N 1008.06 -1.15214 1.07534 0
M  V30 10547 C 1009.31 -1.86319 0.800814 0
M  V30 10548 C 1009.64 -1.82221 -0.671494 0
M  V30 10549 O 1008.92 -1.24664 -1.49295 0
M  V30 10550 C 1009.2 -3.35347 1.31203 0
M  V30 10551 C 1009.05 -3.48067 2.84902 0
M  V30 10552 C 1010.37 -4.3016 0.930064 0
M  V30 10553 H 1007.49 -0.676523 0.292379 0
M  V30 10554 H 1010.13 -1.35349 1.33344 0
M  V30 10555 H 1008.28 -3.78886 0.858949 0
M  V30 10556 H 1009.96 -3.13379 3.38514 0
M  V30 10557 H 1008.2 -2.89566 3.23008 0
M  V30 10558 H 1008.87 -4.52782 3.15741 0
M  V30 10559 H 1011.35 -3.94591 1.3205 0
M  V30 10560 H 1010.22 -5.32914 1.31507 0
M  V30 10561 H 1010.48 -4.41796 -0.163824 0
M  V30 10562 N 1009.54 -0.859717 -1.32086 0
M  V30 10563 C 1010.96 -0.55025 -1.49815 0
M  V30 10564 C 1011.16 0.917966 -1.79376 0
M  V30 10565 O 1010.21 1.70073 -1.86632 0
M  V30 10566 C 1011.53 -1.44161 -2.6389 0
M  V30 10567 C 1013.08 -1.44257 -2.77775 0
M  V30 10568 C 1013.55 -2.31926 -3.94936 0
M  V30 10569 N 1015.04 -2.2975 -4.02206 0
M  V30 10570 C 1015.78 -2.9431 -4.92107 0
M  V30 10571 N 1015.27 -3.68001 -5.86981 0
M  V30 10572 N 1017.07 -2.83671 -4.8527 0
M  V30 10573 H 1009.22 -1.80987 -1.11164 0
M  V30 10574 H 1011.48 -0.773313 -0.548353 0
M  V30 10575 H 1011.19 -2.48588 -2.4879 0
M  V30 10576 H 1011.06 -1.13268 -3.59792 0
M  V30 10577 H 1013.45 -0.405923 -2.92295 0
M  V30 10578 H 1013.53 -1.79169 -1.82571 0
M  V30 10579 H 1013.17 -3.35661 -3.81174 0
M  V30 10580 H 1013.1 -1.94344 -4.89426 0
M  V30 10581 H 1015.59 -1.76177 -3.3432 0
M  V30 10582 H 1015.91 -4.14417 -6.52287 0
M  V30 10583 H 1014.25 -3.72109 -5.86992 0
M  V30 10584 H 1017.44 -2.25647 -4.10123 0
M  V30 10585 H 1017.61 -3.34267 -5.5513 0
M  V30 10586 N 1011.02 1.44971 -0.618145 0
M  V30 10587 C 1012.43 1.85611 -0.201334 0
M  V30 10588 C 1012.78 1.51698 1.24427 0
M  V30 10589 O 1011.91 0.94875 1.94493 0
M  V30 10590 C 1012.5 3.36897 -0.358619 0
M  V30 10591 C 1011.06 3.764 0.00358196 0
M  V30 10592 C 1010.21 2.68881 -0.678118 0
M  V30 10593 H 1013.16 1.35622 -0.824152 0
M  V30 10594 H 1013.18 3.78326 0.406176 0
M  V30 10595 H 1012.69 3.61548 -1.41084 0
M  V30 10596 H 1010.79 3.57365 1.05457 0
M  V30 10597 H 1010.91 4.77449 -0.397427 0
M  V30 10598 H 1009.27 2.54442 -0.114699 0
M  V30 10599 H 1010.05 2.96367 -1.73268 0
M  V30 10600 N 1012.5 0.357919 1.53482 0
M  V30 10601 C 1013.41 -0.500273 2.29204 0
M  V30 10602 C 1014.42 -1.09936 1.3487 0
M  V30 10603 O 1015.6 -1.11195 1.67921 0
M  V30 10604 C 1012.67 -1.62828 3.06085 0
M  V30 10605 C 1011.73 -1.05751 4.16071 0
M  V30 10606 C 1010.96 -2.13176 4.89277 0
M  V30 10607 O 1011.18 -3.34153 4.62274 0
M  V30 10608 O 1010.12 -1.76663 5.7539 0
M  V30 10609 H 1013.94 0.115696 3.0348 0
M  V30 10610 H 1011.53 0.122527 1.48897 0
M  V30 10611 H 1013.41 -2.28427 3.54117 0
M  V30 10612 H 1012.08 -2.22979 2.34653 0
M  V30 10613 H 1010.99 -0.365642 3.72309 0
M  V30 10614 H 1012.32 -0.500661 4.89647 0
M  V30 10615 N 1013.98 -1.5736 0.0868897 0
M  V30 10616 C 1015.22 -1.94341 -0.579598 0
M  V30 10617 C 1015.56 -0.968238 -1.68341 0
M  V30 10618 O 1014.83 8.29649e-05 -1.945 0
M  V30 10619 C 1015.11 -3.41497 -1.14245 0
M  V30 10620 C 1014.97 -4.49778 -0.044255 0
M  V30 10621 C 1016.29 -3.89788 -2.04336 0
M  V30 10622 H 1013.4 -0.70668 -0.20922 0
M  V30 10623 H 1016.05 -1.89359 0.15593 0
M  V30 10624 H 1014.2 -3.45873 -1.76929 0
M  V30 10625 H 1015.87 -4.57517 0.58959 0
M  V30 10626 H 1014.11 -4.293 0.623207 0
M  V30 10627 H 1014.78 -5.4992 -0.478749 0
M  V30 10628 H 1017.26 -3.87513 -1.51569 0
M  V30 10629 H 1016.13 -4.93335 -2.40648 0
M  V30 10630 H 1016.4 -3.28603 -2.95757 0
M  V30 10631 N 1015.45 0.186762 -1.56489 0
M  V30 10632 C 1016.87 0.750675 -1.70944 0
M  V30 10633 C 1017.22 1.83483 -0.694858 0
M  V30 10634 O 1016.34 2.159 0.147009 0
M  V30 10635 C 1016.94 1.36843 -3.09934 0
M  V30 10636 C 1015.5 1.87934 -3.26125 0
M  V30 10637 C 1014.64 0.75242 -2.66897 0
M  V30 10638 H 1017.59 -0.0384292 -1.58653 0
M  V30 10639 H 1017.61 2.23795 -3.07727 0
M  V30 10640 H 1017.13 0.579135 -3.83755 0
M  V30 10641 H 1015.23 2.69556 -2.57235 0
M  V30 10642 H 1015.34 2.0354 -4.33715 0
M  V30 10643 H 1013.7 1.16888 -2.26295 0
M  V30 10644 H 1014.49 -0.0247769 -3.43291 0
M  V30 10645 N 1016.93 1.50896 0.454776 0
M  V30 10646 C 1017.84 1.73762 1.5762 0
M  V30 10647 C 1018.86 0.621206 1.62533 0
M  V30 10648 O 1020.03 0.901449 1.801 0
M  V30 10649 C 1017.1 1.84183 2.9373 0
M  V30 10650 C 1016.16 3.07982 2.99075 0
M  V30 10651 C 1015.39 3.17896 4.28693 0
M  V30 10652 O 1015.62 2.34184 5.20109 0
M  V30 10653 O 1014.55 4.10749 4.39964 0
M  V30 10654 H 1018.38 2.68856 1.41245 0
M  V30 10655 H 1015.96 1.35187 0.635984 0
M  V30 10656 H 1017.84 1.93123 3.74542 0
M  V30 10657 H 1016.52 0.922742 3.10269 0
M  V30 10658 H 1015.43 3.04531 2.17282 0
M  V30 10659 H 1016.76 3.99523 2.87476 0
M  V30 10660 N 1018.41 -0.709066 1.40748 0
M  V30 10661 C 1019.37 -1.80485 1.41272 0
M  V30 10662 C 1020.37 -1.57872 0.305463 0
M  V30 10663 O 1021.56 -1.64793 0.564691 0
M  V30 10664 C 1018.7 -3.1867 1.21087 0
M  V30 10665 H 1019.89 -1.81417 2.38805 0
M  V30 10666 H 1017.44 -0.915356 1.26692 0
M  V30 10667 H 1018.18 -3.23385 0.243406 0
M  V30 10668 H 1017.96 -3.36484 2.01299 0
M  V30 10669 H 1019.45 -3.98685 1.24257 0
M  V30 10670 N 1019.89 -1.26353 -0.941956 0
M  V30 10671 C 1021.14 -1.11241 -1.68251 0
M  V30 10672 C 1021.45 0.344055 -1.9255 0
M  V30 10673 O 1022.66 0.615832 -2.64423 0
M  V30 10674 C 1021.11 -1.94269 -3.02965 0
M  V30 10675 C 1020.72 -3.44485 -2.86415 0
M  V30 10676 C 1022.47 -1.87764 -3.80716 0
M  V30 10677 C 1020.37 -4.19763 -4.16597 0
M  V30 10678 H 1019.3 -0.412694 -0.63103 0
M  V30 10679 H 1021.95 -1.50656 -1.04762 0
M  V30 10680 H 1020.34 -1.47687 -3.6743 0
M  V30 10681 H 1021.51 -3.9883 -2.30805 0
M  V30 10682 H 1019.82 -3.52218 -2.22107 0
M  V30 10683 H 1022.42 -2.41292 -4.77161 0
M  V30 10684 H 1022.76 -0.848195 -4.07568 0
M  V30 10685 H 1023.3 -2.32165 -3.23024 0
M  V30 10686 H 1020.04 -5.23173 -3.9493 0
M  V30 10687 H 1019.56 -3.70198 -4.71925 0
M  V30 10688 H 1021.24 -4.28168 -4.85058 0
M  V30 10689 N 1021.37 1.14642 -1.08144 0
M  V30 10690 C 1022.78 1.37604 -0.808537 0
M  V30 10691 C 1022.98 1.92868 0.583452 0
M  V30 10692 O 1022.04 2.13964 1.34073 0
M  V30 10693 C 1023.35 2.3396 -1.889 0
M  V30 10694 C 1024.9 2.47605 -1.9147 0
M  V30 10695 C 1025.38 3.47258 -2.98623 0
M  V30 10696 N 1026.87 3.548 -2.97777 0
M  V30 10697 C 1027.6 4.31751 -3.77331 0
M  V30 10698 N 1027.1 5.11966 -4.66757 0
M  V30 10699 N 1028.89 4.2692 -3.65645 0
M  V30 10700 H 1021.04 0.771154 -1.97906 0
M  V30 10701 H 1023.3 0.401694 -0.858688 0
M  V30 10702 H 1023.01 2.00484 -2.88962 0
M  V30 10703 H 1022.88 3.33833 -1.756 0
M  V30 10704 H 1025.27 2.80375 -0.920548 0
M  V30 10705 H 1025.35 1.47702 -2.08848 0
M  V30 10706 H 1025 3.15223 -3.98243 0
M  V30 10707 H 1024.93 4.46935 -2.7849 0
M  V30 10708 H 1027.42 2.97553 -2.3296 0
M  V30 10709 H 1027.73 5.67951 -5.24072 0
M  V30 10710 H 1026.08 5.11245 -4.70801 0
M  V30 10711 H 1029.27 3.63322 -2.95152 0
M  V30 10712 H 1029.44 4.8664 -4.27885 0
M  V30 10713 N 1022.85 0.866709 1.31628 0
M  V30 10714 C 1023.79 0.318169 2.28596 0
M  V30 10715 C 1024.76 -0.581558 1.55586 0
M  V30 10716 O 1025.95 -0.513895 1.83749 0
M  V30 10717 C 1023.09 -0.477137 3.41786 0
M  V30 10718 C 1022.2 0.449739 4.29653 0
M  V30 10719 C 1021.34 -0.359373 5.29983 0
M  V30 10720 C 1020.37 0.564138 6.09495 0
M  V30 10721 N 1019.51 -0.208526 7.0179 0
M  V30 10722 H 1024.35 1.15029 2.74904 0
M  V30 10723 H 1021.89 0.578649 1.35241 0
M  V30 10724 H 1023.85 -0.953985 4.06146 0
M  V30 10725 H 1022.48 -1.27398 2.96597 0
M  V30 10726 H 1021.53 1.04502 3.65764 0
M  V30 10727 H 1022.84 1.158 4.85172 0
M  V30 10728 H 1021.99 -0.89887 6.00004 0
M  V30 10729 H 1020.73 -1.10094 4.75111 0
M  V30 10730 H 1019.74 1.11542 5.38366 0
M  V30 10731 H 1020.96 1.30451 6.66453 0
M  V30 10732 H 1018.91 -0.932969 6.49332 0
M  V30 10733 H 1018.83 0.440463 7.54716 0
M  V30 10734 H 1020.09 -0.72936 7.7608 0
M  V30 10735 N 1024.32 -1.44642 0.625825 0
M  V30 10736 C 1025.56 -2.03977 0.131444 0
M  V30 10737 C 1025.93 -1.48122 -1.22163 0
M  V30 10738 O 1027.13 -1.98926 -1.80781 0
M  V30 10739 C 1025.4 -3.57224 0.112032 0
M  V30 10740 S 1026.96 -4.37643 -0.318501 0
M  V30 10741 H 1023.78 -0.70859 0.0584859 0
M  V30 10742 H 1026.38 -1.77099 0.828024 0
M  V30 10743 H 1025.08 -3.95383 1.10001 0
M  V30 10744 H 1024.61 -3.88705 -0.605965 0
M  V30 10745 H 1026.63 -4.70909 -1.56393 0
M  V30 10746 N 1025.8 -0.366053 -1.5329 0
M  V30 10747 C 1026.73 0.514916 -2.23341 0
M  V30 10748 C 1027.75 1.04579 -1.24768 0
M  V30 10749 O 1028.94 0.952084 -1.50989 0
M  V30 10750 C 1026.04 1.72374 -2.91788 0
M  V30 10751 C 1025.21 1.32429 -4.16871 0
M  V30 10752 C 1024.27 2.39524 -4.68524 0
M  V30 10753 O 1023.29 2.01895 -5.32191 0
M  V30 10754 N 1024.5 3.71116 -4.46378 0
M  V30 10755 H 1027.26 -0.0851272 -2.99579 0
M  V30 10756 H 1024.82 -0.191255 -1.60766 0
M  V30 10757 H 1026.81 2.43496 -3.23252 0
M  V30 10758 H 1025.38 2.23064 -2.19 0
M  V30 10759 H 1024.6 0.442901 -3.91704 0
M  V30 10760 H 1025.89 1.03372 -4.98188 0
M  V30 10761 H 1025.29 4.04463 -3.95508 0
M  V30 10762 H 1023.85 4.38341 -4.82391 0
M  V30 10763 N 1027.28 1.57312 -0.0952337 0
M  V30 10764 C 1028.7 1.57445 0.261416 0
M  V30 10765 C 1028.9 1.10639 1.68408 0
M  V30 10766 O 1027.95 0.782912 2.40056 0
M  V30 10767 C 1029.26 3.00659 0.0497206 0
M  V30 10768 C 1030.81 3.1278 0.117459 0
M  V30 10769 C 1031.29 4.57952 -0.0662441 0
M  V30 10770 N 1032.78 4.63199 -0.0114146 0
M  V30 10771 C 1033.51 5.73255 -0.128799 0
M  V30 10772 N 1033.01 6.92146 -0.301026 0
M  V30 10773 N 1034.8 5.62056 -0.0700599 0
M  V30 10774 H 1026.95 1.86045 -1.02475 0
M  V30 10775 H 1029.22 0.858726 -0.401614 0
M  V30 10776 H 1028.92 3.39102 -0.932888 0
M  V30 10777 H 1028.8 3.68792 0.791975 0
M  V30 10778 H 1031.18 2.74209 1.09057 0
M  V30 10779 H 1031.26 2.47238 -0.656288 0
M  V30 10780 H 1030.91 4.97217 -1.03623 0
M  V30 10781 H 1030.84 5.21555 0.727198 0
M  V30 10782 H 1033.33 3.77712 0.119154 0
M  V30 10783 H 1033.64 7.71855 -0.382104 0
M  V30 10784 H 1031.99 6.94184 -0.336695 0
M  V30 10785 H 1035.18 4.68057 0.0633587 0
M  V30 10786 H 1035.35 6.4779 -0.164991 0
M  V30 10787 N 1028.76 -0.17846 1.56586 0
M  V30 10788 C 1029.72 -1.20479 1.94981 0
M  V30 10789 C 1030.72 -1.37561 0.832677 0
M  V30 10790 O 1031.91 -1.35089 1.09984 0
M  V30 10791 C 1029.04 -2.57117 2.23839 0
M  V30 10792 H 1030.24 -0.876173 2.86816 0
M  V30 10793 H 1027.79 -0.420635 1.50534 0
M  V30 10794 H 1028.52 -2.95005 1.34695 0
M  V30 10795 H 1028.31 -2.46086 3.05261 0
M  V30 10796 H 1029.8 -3.31096 2.5449 0
M  V30 10797 N 1030.24 -1.51135 -0.446768 0
M  V30 10798 C 1031.48 -1.63013 -1.19461 0
M  V30 10799 C 1031.8 -0.344067 -1.91941 0
M  V30 10800 O 1031.07 0.639666 -1.85162 0
M  V30 10801 H 1029.65 -0.600757 -0.443959 0
M  V30 10802 H 1032.32 -1.88024 -0.513137 0
M  V30 10803 H 1031.41 -2.45322 -1.92933 0
M  V30 10804 N 1031.71 0.701592 -1.41122 0
M  V30 10805 C 1032.96 1.45722 -1.39456 0
M  V30 10806 C 1033.28 1.95599 -0.00475228 0
M  V30 10807 O 1034.48 2.71166 0.134529 0
M  V30 10808 C 1032.94 2.63475 -2.45172 0
M  V30 10809 C 1032.55 2.20409 -3.90031 0
M  V30 10810 C 1034.29 3.4114 -2.52633 0
M  V30 10811 C 1032.2 3.35084 -4.87312 0
M  V30 10812 H 1031.13 0.547341 -0.518588 0
M  V30 10813 H 1033.78 0.762233 -1.6692 0
M  V30 10814 H 1032.16 3.35212 -2.10829 0
M  V30 10815 H 1033.33 1.56 -4.3359 0
M  V30 10816 H 1031.65 1.55752 -3.86174 0
M  V30 10817 H 1034.25 4.26496 -3.22498 0
M  V30 10818 H 1034.59 3.85915 -1.56125 0
M  V30 10819 H 1035.12 2.76456 -2.86037 0
M  V30 10820 H 1031.86 2.95327 -5.85203 0
M  V30 10821 H 1031.38 3.98362 -4.48406 0
M  V30 10822 H 1033.06 4.00949 -5.07788 0
M  V30 10823 N 1033.19 1.2685 0.935242 0
M  V30 10824 C 1034.42 1.15538 1.71635 0
M  V30 10825 C 1034.83 -0.288698 1.8658 0
M  V30 10826 O 1034.19 -1.19721 1.37743 0
M  V30 10827 C 1034.24 1.8259 3.11999 0
M  V30 10828 O 1033.96 3.21355 2.97763 0
M  V30 10829 C 1035.46 1.77307 4.06297 0
M  V30 10830 H 1032.68 0.402055 0.537208 0
M  V30 10831 H 1035.23 1.67582 1.17203 0
M  V30 10832 H 1033.38 1.3447 3.63313 0
M  V30 10833 H 1033.8 3.54626 3.86446 0
M  V30 10834 H 1035.27 2.28851 5.02326 0
M  V30 10835 H 1035.75 0.740823 4.32907 0
M  V30 10836 H 1036.35 2.25007 3.60904 0
M  V30 10837 N 1034.67 -1.14067 1.0875 0
M  V30 10838 C 1035.92 -1.85459 0.82053 0
M  V30 10839 C 1036.25 -1.82923 -0.65213 0
M  V30 10840 O 1035.52 -1.26241 -1.47965 0
M  V30 10841 C 1035.81 -3.33937 1.34752 0
M  V30 10842 C 1035.66 -3.45026 2.88578 0
M  V30 10843 C 1036.98 -4.2915 0.975636 0
M  V30 10844 H 1034.1 -0.673384 0.299538 0
M  V30 10845 H 1036.74 -1.33927 1.34772 0
M  V30 10846 H 1034.89 -3.77953 0.899086 0
M  V30 10847 H 1036.56 -3.09771 3.41818 0
M  V30 10848 H 1034.81 -2.86124 3.26061 0
M  V30 10849 H 1035.48 -4.49408 3.20526 0
M  V30 10850 H 1037.95 -3.93168 1.36228 0
M  V30 10851 H 1036.83 -5.31489 1.37152 0
M  V30 10852 H 1037.09 -4.41945 -0.116956 0
M  V30 10853 N 1036.15 -0.873678 -1.31166 0
M  V30 10854 C 1037.56 -0.566109 -1.49223 0
M  V30 10855 C 1037.76 0.898889 -1.80339 0
M  V30 10856 O 1036.82 1.68084 -1.88425 0
M  V30 10857 C 1038.13 -1.46952 -2.62346 0
M  V30 10858 C 1039.68 -1.47195 -2.76229 0
M  V30 10859 C 1040.16 -2.36102 -3.92454 0
M  V30 10860 N 1041.65 -2.34003 -3.99746 0
M  V30 10861 C 1042.38 -2.99513 -4.88958 0
M  V30 10862 N 1041.88 -3.74206 -5.83045 0
M  V30 10863 N 1043.67 -2.88802 -4.82234 0
M  V30 10864 H 1035.82 -1.82156 -1.09239 0
M  V30 10865 H 1038.09 -0.779086 -0.54012 0
M  V30 10866 H 1037.79 -2.51213 -2.4614 0
M  V30 10867 H 1037.67 -1.17077 -3.5857 0
M  V30 10868 H 1040.05 -0.436902 -2.91848 0
M  V30 10869 H 1040.13 -1.81095 -1.80661 0
M  V30 10870 H 1039.78 -3.39685 -3.77593 0
M  V30 10871 H 1039.71 -1.99524 -4.87337 0
M  V30 10872 H 1042.2 -1.79713 -3.32433 0
M  V30 10873 H 1042.51 -4.21312 -6.47855 0
M  V30 10874 H 1040.86 -3.78314 -5.83012 0
M  V30 10875 H 1044.05 -2.29984 -4.07707 0
M  V30 10876 H 1044.22 -3.40136 -5.51554 0
M  V30 10877 N 1037.63 1.44308 -0.633487 0
M  V30 10878 C 1038.56 2.27887 0.119397 0
M  V30 10879 C 1039.54 1.38676 0.848981 0
M  V30 10880 O 1040.72 1.68116 0.85259 0
M  V30 10881 C 1037.85 3.17658 1.17521 0
M  V30 10882 C 1036.89 4.22992 0.54589 0
M  V30 10883 S 1037.73 5.31345 -0.6658 0
M  V30 10884 C 1038.88 6.24684 0.389965 0
M  V30 10885 H 1039.12 2.91394 -0.589638 0
M  V30 10886 H 1036.65 1.48529 -0.421727 0
M  V30 10887 H 1038.61 3.69929 1.77941 0
M  V30 10888 H 1037.27 2.53367 1.85645 0
M  V30 10889 H 1036.46 4.85828 1.34115 0
M  V30 10890 H 1036.06 3.73996 0.0162506 0
M  V30 10891 H 1038.36 6.65645 1.26185 0
M  V30 10892 H 1039.3 7.07809 -0.202878 0
M  V30 10893 H 1039.71 5.59929 0.716922 0
M  V30 10894 N 1039.1 0.374177 1.53094 0
M  V30 10895 C 1040.35 -0.213131 2.01677 0
M  V30 10896 C 1040.68 -1.47715 1.26071 0
M  V30 10897 O 1039.96 -1.91199 0.356834 0
M  V30 10898 C 1040.24 -0.496392 3.56662 0
M  V30 10899 C 1040.09 0.781859 4.42953 0
M  V30 10900 C 1041.41 -1.29339 4.20666 0
M  V30 10901 H 1038.53 -0.0759885 0.733072 0
M  V30 10902 H 1041.17 0.500765 1.83282 0
M  V30 10903 H 1039.32 -1.10455 3.72467 0
M  V30 10904 H 1041 1.41914 4.38928 0
M  V30 10905 H 1039.24 1.40041 4.10574 0
M  V30 10906 H 1039.91 0.538508 5.49367 0
M  V30 10907 H 1042.39 -0.778848 4.08746 0
M  V30 10908 H 1041.26 -1.46033 5.29118 0
M  V30 10909 H 1041.52 -2.30435 3.77296 0
M  V30 10910 N 1040.58 -1.57259 0.103575 0
M  V30 10911 C 1041.81 -1.99 -0.566275 0
M  V30 10912 C 1042.23 -0.982909 -1.61197 0
M  V30 10913 O 1041.58 0.026345 -1.82481 0
M  V30 10914 C 1041.63 -3.40778 -1.20635 0
M  V30 10915 O 1041.35 -4.37632 -0.202472 0
M  V30 10916 C 1042.86 -3.97567 -1.961 0
M  V30 10917 H 1040.08 -0.653751 -0.151164 0
M  V30 10918 H 1042.62 -2.03658 0.185365 0
M  V30 10919 H 1040.77 -3.37107 -1.90886 0
M  V30 10920 H 1041.19 -5.2026 -0.665535 0
M  V30 10921 H 1042.66 -4.98897 -2.36233 0
M  V30 10922 H 1043.14 -3.35853 -2.83018 0
M  V30 10923 H 1043.75 -4.04737 -1.30645 0
M  V30 10924 N 1042.06 0.170153 -1.56679 0
M  V30 10925 C 1043.31 0.884841 -1.817 0
M  V30 10926 C 1043.63 1.82731 -0.680763 0
M  V30 10927 O 1042.9 1.936 0.299294 0
M  V30 10928 H 1041.48 0.329738 -0.670285 0
M  V30 10929 H 1044.14 0.169691 -1.9416 0
M  V30 10930 H 1043.24 1.46104 -2.7579 0
M  V30 10931 N 1043.54 1.5137 0.438746 0
M  V30 10932 C 1044.82 1.54508 1.19944 0
M  V30 10933 C 1045.2 0.308525 2.08833 0
M  V30 10934 O 1044.54 -0.706461 2.17305 0
M  V30 10935 C 1044.75 2.85833 2.00251 0
M  V30 10936 C 1046.1 3.37729 2.5734 0
M  V30 10937 O 1047.13 2.87374 2.10463 0
M  V30 10938 O 1045.98 4.25589 3.42836 0
M  V30 10939 H 1043.08 0.621132 0.546007 0
M  V30 10940 H 1045.62 1.63682 0.447931 0
M  V30 10941 H 1044.4 3.67291 1.34955 0
M  V30 10942 H 1044.02 2.79815 2.8247 0
M  V30 10943 N 1045.02 -0.694098 1.41492 0
M  V30 10944 C 1045.96 -1.82932 1.43662 0
M  V30 10945 C 1046.96 -1.66455 0.31449 0
M  V30 10946 O 1048.16 -1.73298 0.486589 0
M  V30 10947 H 1044.54 -0.602847 0.449533 0
M  V30 10948 H 1046.51 -1.78218 2.39334 0
M  V30 10949 C 1045.26 -3.20962 1.33712 0
M  V30 10950 H 1044.58 -3.34257 2.19345 0
M  V30 10951 H 1046.02 -4.00467 1.39291 0
M  V30 10952 C 1044.48 -3.36863 0.0496332 0
M  V30 10953 O 1045.01 -3.91371 -0.905093 0
M  V30 10954 N 1043.22 -2.90588 -0.0269299 0
M  V30 10955 H 1042.76 -2.46417 0.750752 0
M  V30 10956 H 1042.72 -3.01605 -0.887781 0
M  V30 10957 N 1046.49 -1.27344 -0.928501 0
M  V30 10958 C 1047.74 -1.13019 -1.67061 0
M  V30 10959 C 1048.06 0.323614 -1.92904 0
M  V30 10960 O 1049.26 0.587752 -2.65062 0
M  V30 10961 C 1047.72 -1.97471 -3.00887 0
M  V30 10962 C 1047.33 -3.47504 -2.82746 0
M  V30 10963 C 1049.07 -1.91792 -3.78703 0
M  V30 10964 C 1046.98 -4.24158 -4.12122 0
M  V30 10965 H 1045.91 -0.419364 -0.626618 0
M  V30 10966 H 1048.56 -1.51759 -1.03158 0
M  V30 10967 H 1046.94 -1.51576 -3.65843 0
M  V30 10968 H 1048.11 -4.01256 -2.26562 0
M  V30 10969 H 1046.43 -3.54554 -2.18359 0
M  V30 10970 H 1049.03 -2.46339 -4.74575 0
M  V30 10971 H 1049.37 -0.891375 -4.06645 0
M  V30 10972 H 1049.9 -2.35578 -3.20543 0
M  V30 10973 H 1046.64 -5.27333 -3.89359 0
M  V30 10974 H 1046.16 -3.75183 -4.67972 0
M  V30 10975 H 1047.84 -4.33288 -4.80489 0
M  V30 10976 N 1047.97 1.13488 -1.09353 0
M  V30 10977 C 1048.92 2.20949 -0.726923 0
M  V30 10978 C 1049.91 1.67205 0.271816 0
M  V30 10979 O 1051.12 1.79505 0.133356 0
M  V30 10980 H 1047.5 0.719985 -0.217086 0
M  V30 10981 H 1049.47 2.49134 -1.6424 0
M  V30 10982 C 1048.22 3.47319 -0.162822 0
M  V30 10983 H 1047.54 3.89011 -0.922527 0
M  V30 10984 H 1048.98 4.23963 0.0557734 0
M  V30 10985 C 1047.44 3.18376 1.10175 0
M  V30 10986 O 1047.97 3.3707 2.18511 0
M  V30 10987 N 1046.17 2.72262 1.01597 0
M  V30 10988 H 1045.72 2.5725 0.134289 0
M  V30 10989 H 1045.68 2.53272 1.86281 0
M  V30 10990 N 1049.45 0.880621 1.30701 0
M  V30 10991 C 1050.68 0.511682 2.00473 0
M  V30 10992 C 1051.09 -0.898684 1.6604 0
M  V30 10993 O 1050.45 -1.59035 0.895218 0
M  V30 10994 C 1050.5 0.671723 3.55204 0
M  V30 10995 O 1050.22 2.02656 3.8841 0
M  V30 10996 C 1051.72 0.3052 4.42248 0
M  V30 10997 H 1048.94 0.198231 0.64105 0
M  V30 10998 H 1051.49 1.18472 1.66687 0
M  V30 10999 H 1049.64 0.0461066 3.87373 0
M  V30 11000 H 1050.06 2.04202 4.83117 0
M  V30 11001 H 1051.53 0.468095 5.50012 0
M  V30 11002 H 1052.01 -0.756456 4.32637 0
M  V30 11003 H 1052.61 0.906959 4.15517 0
M  V30 11004 N 1050.93 -1.4397 0.641131 0
M  V30 11005 C 1051.89 -2.29149 -0.0482243 0
M  V30 11006 C 1052.89 -1.41572 -0.762495 0
M  V30 11007 O 1054.08 -1.63335 -0.605571 0
M  V30 11008 C 1051.21 -3.23375 -1.07896 0
M  V30 11009 H 1052.41 -2.9159 0.70109 0
M  V30 11010 H 1049.96 -1.51048 0.401754 0
M  V30 11011 H 1050.7 -2.65804 -1.85792 0
M  V30 11012 H 1050.48 -3.87926 -0.570597 0
M  V30 11013 H 1051.97 -3.87337 -1.56075 0
M  V30 11014 N 1052.41 -0.382291 -1.52893 0
M  V30 11015 C 1053.82 -0.031941 -1.59568 0
M  V30 11016 C 1054.02 1.45245 -1.39664 0
M  V30 11017 O 1053.08 2.21612 -1.21013 0
M  V30 11018 C 1054.39 -0.502846 -2.96466 0
M  V30 11019 C 1055.94 -0.4585 -3.09624 0
M  V30 11020 C 1056.42 -0.905481 -4.4896 0
M  V30 11021 N 1057.91 -0.861211 -4.55124 0
M  V30 11022 C 1058.64 -1.17856 -5.61157 0
M  V30 11023 N 1058.14 -1.56603 -6.74868 0
M  V30 11024 N 1059.93 -1.10027 -5.51226 0
M  V30 11025 H 1052.08 -1.34875 -1.64081 0
M  V30 11026 H 1054.34 -0.552375 -0.770446 0
M  V30 11027 H 1054.05 -1.53931 -3.16225 0
M  V30 11028 H 1053.92 0.101777 -3.77063 0
M  V30 11029 H 1056.31 0.568868 -2.89565 0
M  V30 11030 H 1056.39 -1.09884 -2.30996 0
M  V30 11031 H 1056.04 -1.93105 -4.69759 0
M  V30 11032 H 1055.97 -0.242227 -5.26043 0
M  V30 11033 H 1058.46 -0.575988 -3.73485 0
M  V30 11034 H 1058.77 -1.792 -7.51736 0
M  V30 11035 H 1057.12 -1.60484 -6.76217 0
M  V30 11036 H 1060.31 -0.796623 -4.61272 0
M  V30 11037 H 1060.48 -1.35091 -6.33762 0
M  V30 11038 N 1053.89 1.57202 -0.111913 0
M  V30 11039 C 1054.85 2.13778 0.826534 0
M  V30 11040 C 1055.85 1.07097 1.19945 0
M  V30 11041 O 1057.04 1.32906 1.12613 0
M  V30 11042 C 1054.17 2.6722 2.11675 0
M  V30 11043 H 1055.36 2.98023 0.334975 0
M  V30 11044 H 1052.92 1.55696 0.137256 0
M  V30 11045 H 1053.65 1.86542 2.65278 0
M  V30 11046 H 1053.44 3.45235 1.8589 0
M  V30 11047 H 1054.93 3.10926 2.78774 0
M  V30 11048 N 1055.36 -0.161842 1.56767 0
M  V30 11049 C 1056.61 -0.875278 1.81719 0
M  V30 11050 C 1056.93 -1.82998 0.690739 0
M  V30 11051 O 1058.13 -2.58648 0.82545 0
M  V30 11052 C 1056.59 -1.60703 3.22029 0
M  V30 11053 C 1056.2 -0.695486 4.42569 0
M  V30 11054 C 1057.94 -2.30813 3.56266 0
M  V30 11055 C 1055.85 -1.42801 5.73901 0
M  V30 11056 H 1054.78 -0.330591 0.677662 0
M  V30 11057 H 1057.43 -0.128112 1.83052 0
M  V30 11058 H 1055.81 -2.39929 3.1504 0
M  V30 11059 H 1056.98 0.0604882 4.6076 0
M  V30 11060 H 1055.3 -0.10356 4.16271 0
M  V30 11061 H 1057.9 -2.86229 4.51638 0
M  V30 11062 H 1058.24 -3.06603 2.81604 0
M  V30 11063 H 1058.77 -1.5852 3.64851 0
M  V30 11064 H 1055.51 -0.712253 6.51619 0
M  V30 11065 H 1055.03 -2.15707 5.5967 0
M  V30 11066 H 1056.71 -1.97295 6.16185 0
M  V30 11067 N 1056.84 -1.516 -0.430713 0
M  V30 11068 C 1057.8 -1.72794 -1.50582 0
M  V30 11069 C 1058.8 -0.597903 -1.49271 0
M  V30 11070 O 1059.99 -0.865535 -1.51176 0
M  V30 11071 C 1057.13 -1.79049 -2.90093 0
M  V30 11072 H 1058.32 -2.68751 -1.33091 0
M  V30 11073 H 1055.87 -1.4169 -0.659822 0
M  V30 11074 H 1056.61 -0.849309 -3.12981 0
M  V30 11075 H 1056.39 -2.61181 -2.92449 0
M  V30 11076 H 1057.88 -1.97262 -3.68072 0
M  V30 11077 N 1058.32 0.686584 -1.41858 0
M  V30 11078 C 1059.28 1.78214 -1.44126 0
M  V30 11079 C 1060.28 1.57366 -0.330541 0
M  V30 11080 O 1061.47 1.63874 -0.590837 0
M  V30 11081 C 1058.6 3.16704 -1.26142 0
M  V30 11082 H 1059.8 1.77594 -2.41661 0
M  V30 11083 H 1057.35 0.895085 -1.28132 0
M  V30 11084 H 1058.09 3.22957 -0.294823 0
M  V30 11085 H 1057.87 3.33238 -2.06627 0
M  V30 11086 H 1059.36 3.96658 -1.30584 0
M  V30 11087 N 1059.8 1.27835 0.921735 0
M  V30 11088 C 1060.74 1.11075 2.02314 0
M  V30 11089 C 1061.71 0.0101195 1.66097 0
M  V30 11090 O 1062.9 0.173564 1.90009 0
M  V30 11091 C 1060.04 0.770251 3.36394 0
M  V30 11092 C 1059.15 1.94912 3.8553 0
M  V30 11093 C 1058.29 1.54996 5.08084 0
M  V30 11094 C 1057.33 2.69595 5.49531 0
M  V30 11095 N 1056.46 2.30227 6.6328 0
M  V30 11096 H 1061.3 2.05319 2.15982 0
M  V30 11097 H 1058.84 1.022 1.058 0
M  V30 11098 H 1060.8 0.553624 4.1351 0
M  V30 11099 H 1059.43 -0.135238 3.22517 0
M  V30 11100 H 1058.48 2.27811 3.04641 0
M  V30 11101 H 1059.79 2.80858 4.12214 0
M  V30 11102 H 1058.95 1.29493 5.9272 0
M  V30 11103 H 1057.69 0.661676 4.83191 0
M  V30 11104 H 1056.69 2.95806 4.63442 0
M  V30 11105 H 1057.92 3.59054 5.76417 0
M  V30 11106 H 1055.86 1.43858 6.40032 0
M  V30 11107 H 1055.78 3.09711 6.89649 0
M  V30 11108 H 1057.05 2.07987 7.5124 0
M  V30 11109 N 1061.28 -1.12907 1.09954 0
M  V30 11110 C 1062.52 -1.8595 0.848643 0
M  V30 11111 C 1062.88 -1.81897 -0.614621 0
M  V30 11112 O 1064.08 -2.50233 -0.981667 0
M  V30 11113 C 1062.35 -3.29859 1.3758 0
M  V30 11114 S 1063.91 -4.20333 1.25959 0
M  V30 11115 H 1060.73 -0.641404 0.306793 0
M  V30 11116 H 1063.33 -1.36045 1.40399 0
M  V30 11117 H 1062.03 -3.30365 2.43489 0
M  V30 11118 H 1061.57 -3.84827 0.816806 0
M  V30 11119 H 1063.58 -4.95738 0.214038 0
M  V30 11120 N 1062.75 -0.88754 -1.30232 0
M  V30 11121 C 1064 -0.506277 -1.95656 0
M  V30 11122 C 1064.32 0.948191 -1.70395 0
M  V30 11123 O 1063.59 1.66701 -1.02895 0
M  V30 11124 H 1062.17 -0.184235 -0.723924 0
M  V30 11125 H 1064.83 -1.13118 -1.58715 0
M  V30 11126 H 1063.93 -0.678673 -3.04632 0
M  V30 11127 N 1064.23 1.43628 -0.648757 0
M  V30 11128 C 1065.48 2.01083 -0.157692 0
M  V30 11129 C 1065.79 1.51756 1.23408 0
M  V30 11130 O 1067 2.01455 1.82012 0
M  V30 11131 C 1065.46 3.59157 -0.231118 0
M  V30 11132 C 1065.06 4.17478 -1.6253 0
M  V30 11133 C 1066.81 4.24016 0.202573 0
M  V30 11134 C 1064.72 5.67832 -1.6529 0
M  V30 11135 H 1063.65 0.751977 -0.0551897 0
M  V30 11136 H 1066.3 1.64648 -0.810139 0
M  V30 11137 H 1064.68 3.92972 0.488755 0
M  V30 11138 H 1065.85 3.9517 -2.37017 0
M  V30 11139 H 1064.17 3.64973 -2.00459 0
M  V30 11140 H 1066.76 5.34319 0.20174 0
M  V30 11141 H 1067.11 3.97616 1.23319 0
M  V30 11142 H 1067.64 3.95068 -0.465398 0
M  V30 11143 H 1064.38 5.98994 -2.66246 0
M  V30 11144 H 1063.9 5.92209 -0.951217 0
M  V30 11145 H 1065.58 6.3179 -1.39465 0
M  V30 11146 N 1065.71 0.390394 1.52688 0
M  V30 11147 C 1066.96 -0.192697 2.00777 0
M  V30 11148 C 1067.27 -1.4781 1.28108 0
M  V30 11149 O 1068.48 -2.1413 1.66914 0
M  V30 11150 C 1066.93 -0.393955 3.57737 0
M  V30 11151 C 1066.54 0.878259 4.39307 0
M  V30 11152 C 1068.29 -0.933352 4.14112 0
M  V30 11153 C 1066.19 0.645218 5.8787 0
M  V30 11154 H 1065.12 -0.0757862 0.750182 0
M  V30 11155 H 1067.77 0.512961 1.76184 0
M  V30 11156 H 1066.16 -1.16149 3.78583 0
M  V30 11157 H 1067.33 1.65049 4.30227 0
M  V30 11158 H 1065.65 1.34269 3.94158 0
M  V30 11159 H 1068.24 -1.12343 5.22765 0
M  V30 11160 H 1068.59 -1.90272 3.70273 0
M  V30 11161 H 1069.12 -0.225361 3.97161 0
M  V30 11162 H 1065.86 1.58562 6.36033 0
M  V30 11163 H 1065.38 -0.0880609 5.99735 0
M  V30 11164 H 1067.06 0.280178 6.46393 0
M  V30 11165 N 1067.19 -1.57141 0.120249 0
M  V30 11166 C 1068.12 -2.12454 -0.859987 0
M  V30 11167 C 1069.13 -1.06755 -1.22911 0
M  V30 11168 O 1070.32 -1.34124 -1.17784 0
M  V30 11169 C 1067.42 -2.61024 -2.16147 0
M  V30 11170 C 1066.6 -3.90835 -1.96385 0
M  V30 11171 C 1065.65 -4.2499 -3.10274 0
M  V30 11172 O 1064.68 -4.93786 -2.83133 0
M  V30 11173 N 1065.88 -3.82411 -4.36741 0
M  V30 11174 H 1068.65 -2.97186 -0.387402 0
M  V30 11175 H 1066.21 -1.61773 -0.0641376 0
M  V30 11176 H 1068.2 -2.80903 -2.91334 0
M  V30 11177 H 1066.77 -1.81166 -2.5475 0
M  V30 11178 H 1065.99 -3.79853 -1.05383 0
M  V30 11179 H 1067.28 -4.75712 -1.80487 0
M  V30 11180 H 1066.68 -3.26926 -4.61666 0
M  V30 11181 H 1065.23 -4.07395 -5.08795 0
M  V30 11182 N 1068.67 0.153526 -1.5685 0
M  V30 11183 C 1070.08 0.714247 -1.72498 0
M  V30 11184 C 1070.43 1.81968 -0.733621 0
M  V30 11185 O 1069.55 2.16163 0.10118 0
M  V30 11186 C 1070.15 1.30238 -3.12767 0
M  V30 11187 C 1068.71 1.80974 -3.30038 0
M  V30 11188 C 1067.85 0.695638 -2.68433 0
M  V30 11189 H 1070.81 -0.0720733 -1.58536 0
M  V30 11190 H 1070.83 2.17217 -3.12405 0
M  V30 11191 H 1070.34 0.497605 -3.84897 0
M  V30 11192 H 1068.44 2.64039 -2.62895 0
M  V30 11193 H 1068.55 1.94294 -4.37934 0
M  V30 11194 H 1066.92 1.12061 -2.28723 0
M  V30 11195 H 1067.7 -0.0975885 -3.43161 0
M  V30 11196 N 1070.14 1.51827 0.422667 0
M  V30 11197 C 1071.39 1.64893 1.16853 0
M  V30 11198 C 1071.71 0.37456 1.91369 0
M  V30 11199 O 1070.98 -0.610128 1.86157 0
M  V30 11200 H 1069.56 0.607744 0.434345 0
M  V30 11201 H 1072.23 1.88816 0.483159 0
M  V30 11202 H 1071.32 2.48361 1.89006 0
M  V30 11203 N 1071.62 -0.679052 1.4222 0
M  V30 11204 C 1072.53 -1.82221 1.47759 0
M  V30 11205 C 1073.55 -1.70092 0.3667 0
M  V30 11206 O 1074.72 -1.91718 0.616957 0
M  V30 11207 C 1071.79 -3.18332 1.37351 0
M  V30 11208 C 1070.85 -3.42449 2.58896 0
M  V30 11209 C 1070.08 -4.72067 2.48976 0
M  V30 11210 O 1070.31 -5.49683 1.5233 0
M  V30 11211 O 1069.24 -4.97333 3.39033 0
M  V30 11212 H 1073.07 -1.80504 2.44238 0
M  V30 11213 H 1070.65 -0.834251 1.23938 0
M  V30 11214 H 1072.53 -3.99563 1.33893 0
M  V30 11215 H 1071.21 -3.20696 0.439965 0
M  V30 11216 H 1070.12 -2.61083 2.6793 0
M  V30 11217 H 1071.45 -3.44912 3.51136 0
M  V30 11218 N 1073.1 -1.28322 -0.914942 0
M  V30 11219 C 1074.38 -1.06111 -1.64316 0
M  V30 11220 C 1074.76 0.399934 -2.07277 0
M  V30 11221 O 1074.11 1.38577 -1.81683 0
M  V30 11222 C 1074.32 -2.03461 -2.83557 0
M  V30 11223 C 1075.66 -2.33541 -3.54604 0
M  V30 11224 O 1076.69 -2.01536 -2.93704 0
M  V30 11225 O 1075.55 -2.88158 -4.64357 0
M  V30 11226 H 1072.64 -0.405451 -0.72079 0
M  V30 11227 H 1075.19 -1.39636 -0.964352 0
M  V30 11228 H 1073.96 -3.01938 -2.48896 0
M  V30 11229 H 1073.58 -1.70574 -3.59152 0
M  V30 11230 N 1074.58 1.12322 -1.10551 0
M  V30 11231 C 1075.83 1.83858 -0.848674 0
M  V30 11232 C 1076.15 1.84159 0.62575 0
M  V30 11233 O 1075.41 1.28341 1.4774 0
M  V30 11234 C 1075.71 3.31177 -1.34375 0
M  V30 11235 C 1075.37 3.51046 -2.8298 0
M  V30 11236 C 1074.04 3.56177 -3.23561 0
M  V30 11237 C 1076.39 3.58061 -3.78737 0
M  V30 11238 C 1073.72 3.65868 -4.58647 0
M  V30 11239 C 1076.07 3.69283 -5.13627 0
M  V30 11240 C 1074.73 3.7267 -5.53781 0
M  V30 11241 H 1074 0.672784 -0.310552 0
M  V30 11242 H 1076.65 1.3253 -1.38232 0
M  V30 11243 H 1074.95 3.84937 -0.730144 0
M  V30 11244 H 1076.65 3.84998 -1.12148 0
M  V30 11245 H 1073.24 3.47716 -2.50582 0
M  V30 11246 H 1077.42 3.53366 -3.48491 0
M  V30 11247 H 1072.68 3.66763 -4.89178 0
M  V30 11248 H 1076.85 3.73654 -5.8767 0
M  V30 11249 H 1074.48 3.79932 -6.58449 0
M  V30 11250 N 1076.06 0.894434 1.2976 0
M  V30 11251 C 1076.99 0.3847 2.30309 0
M  V30 11252 C 1077.97 -0.537486 1.61385 0
M  V30 11253 O 1079.15 -0.449332 1.8893 0
M  V30 11254 C 1076.28 -0.393311 3.45066 0
M  V30 11255 C 1075.24 0.437968 4.25753 0
M  V30 11256 C 1074.56 -0.467221 5.32655 0
M  V30 11257 C 1075.86 1.6851 4.9437 0
M  V30 11258 H 1077.56 1.22496 2.73194 0
M  V30 11259 H 1075.1 0.590471 1.31337 0
M  V30 11260 H 1077.06 -0.760614 4.14479 0
M  V30 11261 H 1075.78 -1.2673 3.0101 0
M  V30 11262 H 1074.44 0.787533 3.58041 0
M  V30 11263 H 1074.09 -1.33919 4.84845 0
M  V30 11264 H 1073.79 0.0852482 5.87538 0
M  V30 11265 H 1075.31 -0.830833 6.04921 0
M  V30 11266 H 1076.72 1.38784 5.56248 0
M  V30 11267 H 1075.12 2.17849 5.59162 0
M  V30 11268 H 1076.19 2.42412 4.19958 0
M  V30 11269 N 1077.53 -1.43282 0.656365 0
M  V30 11270 C 1078.77 -2.03652 0.174681 0
M  V30 11271 C 1079.14 -1.5068 -1.18994 0
M  V30 11272 O 1080.34 -2.02716 -1.76521 0
M  V30 11273 C 1078.61 -3.56906 0.18778 0
M  V30 11274 S 1080.17 -4.3822 -0.225599 0
M  V30 11275 H 1076.99 -0.70719 0.0735029 0
M  V30 11276 H 1079.59 -1.75303 0.865403 0
M  V30 11277 H 1078.29 -3.92961 1.18363 0
M  V30 11278 H 1077.82 -3.89903 -0.523378 0
M  V30 11279 H 1079.84 -4.74121 -1.46369 0
M  V30 11280 N 1079.01 -0.398486 -1.52479 0
M  V30 11281 C 1079.94 0.423498 -2.29627 0
M  V30 11282 C 1080.92 1.05547 -1.33394 0
M  V30 11283 O 1082.11 1.0665 -1.62294 0
M  V30 11284 C 1079.24 1.54612 -3.10986 0
M  V30 11285 C 1078.19 1.03971 -4.15179 0
M  V30 11286 C 1077.52 2.25512 -4.84818 0
M  V30 11287 C 1078.82 0.10121 -5.22202 0
M  V30 11288 H 1080.51 -0.220222 -2.98589 0
M  V30 11289 H 1078.06 -0.107355 -1.43599 0
M  V30 11290 H 1080.01 2.12806 -3.63719 0
M  V30 11291 H 1078.74 2.21756 -2.39774 0
M  V30 11292 H 1077.4 0.480251 -3.63441 0
M  V30 11293 H 1077.04 2.91187 -4.10145 0
M  V30 11294 H 1076.74 1.92285 -5.55248 0
M  V30 11295 H 1078.27 2.84331 -5.40359 0
M  V30 11296 H 1079.68 0.591617 -5.70239 0
M  V30 11297 H 1078.08 -0.141737 -5.99933 0
M  V30 11298 H 1079.15 -0.847216 -4.77441 0
M  V30 11299 N 1080.49 1.57075 -0.12858 0
M  V30 11300 C 1081.4 2.19369 0.831533 0
M  V30 11301 C 1082.42 1.17258 1.28555 0
M  V30 11302 O 1083.59 1.49766 1.34656 0
M  V30 11303 C 1080.66 2.78846 2.06024 0
M  V30 11304 C 1079.72 3.96024 1.65722 0
M  V30 11305 C 1078.95 4.52655 2.82735 0
M  V30 11306 O 1079.18 4.08175 3.98434 0
M  V30 11307 O 1078.11 5.43198 2.59268 0
M  V30 11308 H 1081.94 3.01887 0.331352 0
M  V30 11309 H 1079.52 1.49081 0.0975226 0
M  V30 11310 H 1081.4 3.16721 2.77967 0
M  V30 11311 H 1080.08 1.99353 2.5503 0
M  V30 11312 H 1078.98 3.62899 0.908574 0
M  V30 11313 H 1080.32 4.76981 1.21449 0
M  V30 11314 N 1081.97 -0.145205 1.5693 0
M  V30 11315 C 1083.22 -0.855822 1.83085 0
M  V30 11316 C 1083.54 -1.81625 0.709747 0
M  V30 11317 O 1082.81 -1.94052 -0.268456 0
M  V30 11318 H 1081.39 -0.319032 0.675446 0
M  V30 11319 H 1084.05 -0.138781 1.94405 0
M  V30 11320 H 1083.15 -1.41698 2.78079 0
M  V30 11321 N 1083.45 -1.52049 -0.414609 0
M  V30 11322 C 1084.39 -1.74998 -1.5048 0
M  V30 11323 C 1085.36 -0.592251 -1.55182 0
M  V30 11324 O 1086.55 -0.829203 -1.7184 0
M  V30 11325 C 1083.69 -1.90157 -2.87983 0
M  V30 11326 C 1082.8 -3.17789 -2.92633 0
M  V30 11327 C 1081.94 -3.23411 -4.21401 0
M  V30 11328 C 1080.98 -4.45267 -4.20004 0
M  V30 11329 N 1080.11 -4.48312 -5.40334 0
M  V30 11330 H 1084.95 -2.68046 -1.30212 0
M  V30 11331 H 1082.49 -1.32824 -0.632154 0
M  V30 11332 H 1084.45 -1.96929 -3.67797 0
M  V30 11333 H 1083.08 -1.00496 -3.06758 0
M  V30 11334 H 1082.13 -3.20216 -2.05343 0
M  V30 11335 H 1083.44 -4.07634 -2.87465 0
M  V30 11336 H 1082.6 -3.29224 -5.09604 0
M  V30 11337 H 1081.34 -2.31495 -4.29257 0
M  V30 11338 H 1080.34 -4.39606 -3.30192 0
M  V30 11339 H 1081.57 -5.38472 -4.13793 0
M  V30 11340 H 1079.51 -3.59277 -5.48868 0
M  V30 11341 H 1079.43 -5.31994 -5.37139 0
M  V30 11342 H 1080.7 -4.58347 -6.30506 0
M  V30 11343 N 1084.93 0.6715 -1.42579 0
M  V30 11344 C 1085.84 1.81435 -1.48723 0
M  V30 11345 C 1086.85 1.69895 -0.375716 0
M  V30 11346 O 1088.03 1.91388 -0.627115 0
M  V30 11347 C 1085.09 3.17599 -1.39038 0
M  V30 11348 C 1084.15 3.41071 -2.60709 0
M  V30 11349 C 1083.39 4.7074 -2.51476 0
M  V30 11350 O 1083.61 5.48868 -1.55243 0
M  V30 11351 O 1082.54 4.95528 -3.41666 0
M  V30 11352 H 1086.37 1.79206 -2.45191 0
M  V30 11353 H 1083.95 0.827666 -1.24379 0
M  V30 11354 H 1085.84 3.98847 -1.3601 0
M  V30 11355 H 1084.51 3.20458 -0.456966 0
M  V30 11356 H 1083.42 2.59659 -2.69311 0
M  V30 11357 H 1084.75 3.43045 -3.5296 0
M  V30 11358 N 1086.4 1.28806 0.908124 0
M  V30 11359 C 1087.65 1.16287 1.65781 0
M  V30 11360 C 1087.98 -0.287389 1.92365 0
M  V30 11361 O 1087.23 -1.22491 1.52625 0
M  V30 11362 C 1087.53 1.91267 3.01914 0
M  V30 11363 C 1087.2 3.41033 2.9497 0
M  V30 11364 C 1085.86 3.81879 2.92783 0
M  V30 11365 C 1088.21 4.36507 2.848 0
M  V30 11366 C 1085.54 5.16529 2.78235 0
M  V30 11367 C 1087.89 5.71237 2.71792 0
M  V30 11368 C 1086.56 6.11351 2.67967 0
M  V30 11369 H 1085.83 0.425526 0.606637 0
M  V30 11370 H 1088.47 1.59646 1.05762 0
M  V30 11371 H 1086.78 1.40474 3.65752 0
M  V30 11372 H 1088.48 1.78992 3.58835 0
M  V30 11373 H 1085.07 3.08561 2.97469 0
M  V30 11374 H 1089.25 4.05909 2.85573 0
M  V30 11375 H 1084.51 5.4673 2.73672 0
M  V30 11376 H 1088.68 6.44872 2.62892 0
M  V30 11377 H 1086.31 7.15637 2.56451 0
M  V30 11378 N 1087.88 -1.11734 1.11145 0
M  V30 11379 C 1088.83 -2.19765 0.761982 0
M  V30 11380 C 1089.82 -1.67616 -0.24518 0
M  V30 11381 O 1091.03 -1.79695 -0.104781 0
M  V30 11382 H 1087.4 -0.71644 0.228513 0
M  V30 11383 H 1089.38 -2.4649 1.68183 0
M  V30 11384 C 1088.12 -3.47016 0.218057 0
M  V30 11385 H 1087.45 -3.87494 0.984299 0
M  V30 11386 H 1088.89 -4.23998 0.0116825 0
M  V30 11387 C 1087.35 -3.20088 -1.05096 0
M  V30 11388 O 1087.88 -3.40503 -2.1312 0
M  V30 11389 N 1086.08 -2.73844 -0.972523 0
M  V30 11390 H 1085.63 -2.57431 -0.0933459 0
M  V30 11391 H 1085.59 -2.56204 -1.82228 0
M  V30 11392 N 1089.36 -0.901303 -1.29284 0
M  V30 11393 C 1090.78 -0.597634 -1.47988 0
M  V30 11394 C 1090.98 0.860434 -1.82205 0
M  V30 11395 O 1090.03 1.64049 -1.91948 0
M  V30 11396 C 1091.34 -1.52484 -2.5917 0
M  V30 11397 C 1092.89 -1.53021 -2.73045 0
M  V30 11398 C 1093.37 -2.44373 -3.87357 0
M  V30 11399 N 1094.86 -2.42429 -3.94693 0
M  V30 11400 C 1095.59 -3.09817 -4.82495 0
M  V30 11401 N 1095.09 -3.86489 -5.74976 0
M  V30 11402 N 1096.88 -2.98966 -4.76 0
M  V30 11403 H 1089.03 -1.84432 -1.0535 0
M  V30 11404 H 1091.3 -0.790367 -0.523473 0
M  V30 11405 H 1091 -2.56378 -2.40756 0
M  V30 11406 H 1090.88 -1.24657 -3.56006 0
M  V30 11407 H 1093.26 -0.498709 -2.90855 0
M  V30 11408 H 1093.34 -1.84886 -1.76779 0
M  V30 11409 H 1092.99 -3.47618 -3.70302 0
M  V30 11410 H 1092.92 -2.09817 -4.82995 0
M  V30 11411 H 1095.41 -1.86724 -3.28546 0
M  V30 11412 H 1095.72 -4.34959 -6.38773 0
M  V30 11413 H 1094.07 -3.90596 -5.74857 0
M  V30 11414 H 1097.26 -2.38581 -4.02737 0
M  V30 11415 H 1097.43 -3.51758 -5.44215 0
M  V30 11416 N 1090.84 1.42931 -0.663954 0
M  V30 11417 C 1092.25 1.56098 -0.332496 0
M  V30 11418 C 1092.45 1.64564 1.16279 0
M  V30 11419 O 1091.51 1.6066 1.94794 0
M  V30 11420 C 1092.82 2.81649 -1.05329 0
M  V30 11421 C 1094.37 2.95408 -1.03457 0
M  V30 11422 C 1094.85 4.23805 -1.73647 0
M  V30 11423 N 1096.34 4.30693 -1.70462 0
M  V30 11424 C 1097.07 5.28833 -2.21637 0
M  V30 11425 N 1096.57 6.33189 -2.81147 0
M  V30 11426 N 1098.36 5.20558 -2.12075 0
M  V30 11427 H 1090.51 1.3568 -1.63416 0
M  V30 11428 H 1092.77 0.652361 -0.687844 0
M  V30 11429 H 1092.48 2.81494 -2.10842 0
M  V30 11430 H 1092.35 3.72208 -0.611626 0
M  V30 11431 H 1094.74 2.95097 0.0121936 0
M  V30 11432 H 1094.82 2.06109 -1.51502 0
M  V30 11433 H 1094.47 4.24876 -2.78285 0
M  V30 11434 H 1094.4 5.12019 -1.2306 0
M  V30 11435 H 1096.89 3.55904 -1.27046 0
M  V30 11436 H 1097.2 7.04411 -3.17844 0
M  V30 11437 H 1095.55 6.33781 -2.85212 0
M  V30 11438 H 1098.74 4.3795 -1.6528 0
M  V30 11439 H 1098.91 5.96881 -2.52264 0
M  V30 11440 N 1092.32 0.406567 1.52266 0
M  V30 11441 C 1093.56 -0.171391 2.00971 0
M  V30 11442 C 1093.88 -1.46443 1.29668 0
M  V30 11443 O 1095.08 -2.12348 1.69176 0
M  V30 11444 C 1093.54 -0.35599 3.58135 0
M  V30 11445 C 1093.15 0.924803 4.38351 0
M  V30 11446 C 1094.89 -0.889378 4.15079 0
M  V30 11447 C 1092.8 0.707534 5.87152 0
M  V30 11448 H 1091.73 -0.0678253 0.750943 0
M  V30 11449 H 1094.38 0.531619 1.7563 0
M  V30 11450 H 1092.76 -1.12127 3.79794 0
M  V30 11451 H 1093.94 1.69603 4.28452 0
M  V30 11452 H 1092.25 1.38442 3.92712 0
M  V30 11453 H 1094.85 -1.06792 5.23927 0
M  V30 11454 H 1095.19 -1.86334 3.7227 0
M  V30 11455 H 1095.72 -0.183224 3.97378 0
M  V30 11456 H 1092.46 1.65299 6.34316 0
M  V30 11457 H 1091.98 -0.024446 5.99795 0
M  V30 11458 H 1093.66 0.348721 6.4606 0
M  V30 11459 N 1093.79 -1.57004 0.136909 0
M  V30 11460 C 1095.21 -1.58082 -0.21958 0
M  V30 11461 C 1095.41 -1.15065 -1.65415 0
M  V30 11462 O 1094.47 -0.846284 -2.37896 0
M  V30 11463 C 1095.78 -3.00685 0.0300112 0
M  V30 11464 C 1097.33 -3.12981 -0.0344899 0
M  V30 11465 C 1097.8 -4.57615 0.187639 0
M  V30 11466 N 1099.29 -4.63005 0.134219 0
M  V30 11467 C 1100.03 -5.72712 0.280743 0
M  V30 11468 N 1099.52 -6.91104 0.48443 0
M  V30 11469 N 1101.32 -5.61673 0.219055 0
M  V30 11470 H 1093.47 -1.83262 1.07372 0
M  V30 11471 H 1095.73 -0.847776 0.424241 0
M  V30 11472 H 1095.44 -3.36509 1.02247 0
M  V30 11473 H 1095.31 -3.70762 -0.693918 0
M  V30 11474 H 1097.7 -2.77004 -1.01749 0
M  V30 11475 H 1097.78 -2.45411 0.721608 0
M  V30 11476 H 1097.42 -4.94295 1.16769 0
M  V30 11477 H 1097.35 -5.23299 -0.588661 0
M  V30 11478 H 1099.84 -3.77895 -0.0189681 0
M  V30 11479 H 1100.16 -7.7057 0.586613 0
M  V30 11480 H 1098.5 -6.93047 0.520627 0
M  V30 11481 H 1101.69 -4.68061 0.0607606 0
M  V30 11482 H 1101.87 -6.47125 0.336683 0
M  V30 11483 N 1095.27 0.136881 -1.57004 0
M  V30 11484 C 1096.22 1.18782 -1.99984 0
M  V30 11485 C 1097.21 1.43899 -0.893841 0
M  V30 11486 O 1098.42 1.44072 -1.07904 0
M  V30 11487 H 1094.8 0.400065 -0.636751 0
M  V30 11488 H 1096.77 0.798696 -2.87512 0
M  V30 11489 C 1095.52 2.51105 -2.40502 0
M  V30 11490 H 1094.84 2.32611 -3.25165 0
M  V30 11491 H 1096.28 3.23244 -2.74389 0
M  V30 11492 C 1094.74 3.12386 -1.26161 0
M  V30 11493 O 1095.27 3.97666 -0.567836 0
M  V30 11494 N 1093.47 2.71989 -1.02326 0
M  V30 11495 H 1093.02 2.02736 -1.58921 0
M  V30 11496 H 1092.98 3.13322 -0.26013 0
M  V30 11497 N 1096.75 1.52266 0.40654 0
M  V30 11498 C 1097.66 1.78688 1.52012 0
M  V30 11499 C 1098.68 0.6726 1.60475 0
M  V30 11500 O 1099.85 0.95829 1.77141 0
M  V30 11501 C 1096.92 1.93434 2.87722 0
M  V30 11502 C 1095.98 3.17341 2.89125 0
M  V30 11503 C 1095.21 3.31374 4.18362 0
M  V30 11504 O 1095.43 2.50613 5.12396 0
M  V30 11505 O 1094.37 4.24539 4.26674 0
M  V30 11506 H 1098.19 2.73213 1.3262 0
M  V30 11507 H 1095.78 1.37142 0.592653 0
M  V30 11508 H 1097.66 2.04941 3.68208 0
M  V30 11509 H 1096.34 1.02099 3.07177 0
M  V30 11510 H 1095.24 3.1129 2.07483 0
M  V30 11511 H 1096.58 4.08466 2.7462 0
M  V30 11512 N 1098.23 -0.663929 1.42933 0
M  V30 11513 C 1099.18 -1.77717 1.47259 0
M  V30 11514 C 1100.15 -1.62922 0.323387 0
M  V30 11515 O 1101.33 -1.83319 0.529021 0
M  V30 11516 C 1098.47 -3.15814 1.39124 0
M  V30 11517 C 1097.58 -3.4182 2.64165 0
M  V30 11518 C 1096.72 -4.69705 2.48094 0
M  V30 11519 C 1095.76 -4.88781 3.68456 0
M  V30 11520 N 1094.89 -6.07915 3.51261 0
M  V30 11521 H 1099.73 -1.73355 2.42388 0
M  V30 11522 H 1097.27 -0.846121 1.2033 0
M  V30 11523 H 1099.23 -3.95633 1.32403 0
M  V30 11524 H 1097.86 -3.19274 0.475829 0
M  V30 11525 H 1096.91 -2.56176 2.81208 0
M  V30 11526 H 1098.22 -3.51805 3.53602 0
M  V30 11527 H 1097.38 -5.57632 2.39021 0
M  V30 11528 H 1096.12 -4.62022 1.56164 0
M  V30 11529 H 1095.12 -3.99292 3.7795 0
M  V30 11530 H 1096.35 -4.98301 4.61381 0
M  V30 11531 H 1094.29 -6.01384 2.62057 0
M  V30 11532 H 1094.21 -6.1881 4.34293 0
M  V30 11533 H 1095.48 -6.98492 3.4602 0
M  V30 11534 N 1099.71 -1.29285 -0.901281 0
M  V30 11535 C 1100.95 -1.16934 -1.64836 0
M  V30 11536 C 1101.28 0.279826 -1.92982 0
M  V30 11537 O 1100.55 1.19179 -1.55478 0
M  V30 11538 H 1099.13 -0.429768 -0.61099 0
M  V30 11539 H 1101.79 -1.62189 -1.08077 0
M  V30 11540 H 1100.88 -1.71821 -2.60545 0
M  V30 11541 N 1101.18 1.11143 -1.11736 0
M  V30 11542 C 1102.09 2.20851 -0.791331 0
M  V30 11543 C 1103.11 1.72644 0.216833 0
M  V30 11544 O 1104.29 2.01332 0.0522401 0
M  V30 11545 C 1101.35 3.4585 -0.242694 0
M  V30 11546 C 1100.41 4.08829 -1.30986 0
M  V30 11547 C 1099.65 5.27861 -0.787305 0
M  V30 11548 O 1099.87 5.69122 0.381549 0
M  V30 11549 O 1098.8 5.81506 -1.55352 0
M  V30 11550 H 1102.63 2.51158 -1.70744 0
M  V30 11551 H 1100.21 1.19739 -0.893478 0
M  V30 11552 H 1102.1 4.21359 0.0587472 0
M  V30 11553 H 1100.77 3.17187 0.646079 0
M  V30 11554 H 1099.68 3.35037 -1.66436 0
M  V30 11555 H 1101.01 4.41678 -2.17213 0
M  V30 11556 N 1102.66 0.908147 1.28804 0
M  V30 11557 C 1103.91 0.534332 1.94494 0
M  V30 11558 C 1104.22 -0.92552 1.72318 0
M  V30 11559 O 1105.43 -1.40724 2.32183 0
M  V30 11560 C 1103.89 0.904748 3.48342 0
M  V30 11561 C 1103.49 2.38394 3.79305 0
M  V30 11562 C 1105.24 0.601249 4.2022 0
M  V30 11563 C 1103.15 2.69478 5.26437 0
M  V30 11564 H 1102.08 0.196107 0.728051 0
M  V30 11565 H 1104.73 1.1063 1.46401 0
M  V30 11566 H 1103.11 0.261624 3.95135 0
M  V30 11567 H 1104.28 3.07333 3.43341 0
M  V30 11568 H 1102.6 2.65733 3.20586 0
M  V30 11569 H 1105.19 0.810225 5.28526 0
M  V30 11570 H 1105.54 -0.460669 4.13743 0
M  V30 11571 H 1106.07 1.20259 3.79187 0
M  V30 11572 H 1102.81 3.74501 5.37986 0
M  V30 11573 H 1102.33 2.05171 5.63618 0
M  V30 11574 H 1104.01 2.56187 5.94119 0
M  V30 11575 N 1104.14 -1.42577 0.671525 0
M  V30 11576 C 1105.05 -2.34598 -0.00898225 0
M  V30 11577 C 1106.07 -1.54909 -0.792407 0
M  V30 11578 O 1107.24 -1.87491 -0.735477 0
M  V30 11579 C 1104.31 -3.33405 -0.950888 0
M  V30 11580 C 1103.37 -4.28993 -0.16236 0
M  V30 11581 C 1102.6 -5.2308 -1.0594 0
M  V30 11582 O 1102.82 -5.22022 -2.2989 0
M  V30 11583 O 1101.76 -5.99632 -0.521966 0
M  V30 11584 H 1105.58 -2.94321 0.748927 0
M  V30 11585 H 1103.17 -1.43025 0.43175 0
M  V30 11586 H 1105.05 -3.94115 -1.49169 0
M  V30 11587 H 1103.73 -2.7616 -1.68871 0
M  V30 11588 H 1102.63 -3.71707 0.42247 0
M  V30 11589 H 1103.97 -4.8927 0.536274 0
M  V30 11590 N 1105.62 -0.414636 -1.52048 0
M  V30 11591 C 1106.55 0.443601 -2.24866 0
M  V30 11592 C 1107.56 1.00556 -1.28032 0
M  V30 11593 O 1108.75 0.903566 -1.53941 0
M  V30 11594 C 1105.85 1.63004 -2.97124 0
M  V30 11595 C 1105.03 1.191 -4.20873 0
M  V30 11596 C 1104.08 2.24497 -4.75907 0
M  V30 11597 O 1103.11 1.84861 -5.38345 0
M  V30 11598 N 1104.31 3.56727 -4.57959 0
M  V30 11599 H 1107.08 -0.180393 -2.99157 0
M  V30 11600 H 1104.64 -0.242305 -1.60077 0
M  V30 11601 H 1106.63 2.33089 -3.30835 0
M  V30 11602 H 1105.2 2.15984 -2.25986 0
M  V30 11603 H 1104.42 0.318059 -3.92915 0
M  V30 11604 H 1105.71 0.874699 -5.01225 0
M  V30 11605 H 1105.11 3.91675 -4.08175 0
M  V30 11606 H 1103.66 4.22772 -4.96092 0
M  V30 11607 N 1107.1 1.56929 -0.145233 0
M  V30 11608 C 1108.01 2.20238 0.808219 0
M  V30 11609 C 1109.02 1.18615 1.27304 0
M  V30 11610 O 1110.2 1.51186 1.3306 0
M  V30 11611 C 1107.26 2.81016 2.03055 0
M  V30 11612 C 1106.32 3.97759 1.61512 0
M  V30 11613 C 1105.56 4.55628 2.77918 0
M  V30 11614 O 1105.78 4.12378 3.94082 0
M  V30 11615 O 1104.71 5.45917 2.53492 0
M  V30 11616 H 1108.54 3.02221 0.299314 0
M  V30 11617 H 1106.13 1.49176 0.0817051 0
M  V30 11618 H 1108.01 3.19652 2.74592 0
M  V30 11619 H 1106.68 2.02047 2.52901 0
M  V30 11620 H 1105.59 3.63842 0.870033 0
M  V30 11621 H 1106.92 4.78242 1.16383 0
M  V30 11622 N 1108.58 -0.128553 1.57075 0
M  V30 11623 C 1109.99 -0.481794 1.52154 0
M  V30 11624 C 1110.19 -1.82381 0.856694 0
M  V30 11625 O 1109.25 -2.48725 0.434989 0
M  V30 11626 C 1110.56 -0.475091 2.96923 0
M  V30 11627 C 1112.11 -0.559315 3.07962 0
M  V30 11628 C 1112.58 -0.583095 4.54273 0
M  V30 11629 N 1114.07 -0.644803 4.5869 0
M  V30 11630 C 1114.81 -0.684493 5.693 0
M  V30 11631 N 1114.31 -0.682407 6.89431 0
M  V30 11632 N 1116.1 -0.726777 5.57382 0
M  V30 11633 H 1108.25 0.750894 1.98684 0
M  V30 11634 H 1110.51 0.27593 0.906955 0
M  V30 11635 H 1110.22 0.443157 3.48897 0
M  V30 11636 H 1110.09 -1.30637 3.53856 0
M  V30 11637 H 1112.48 -1.46798 2.55997 0
M  V30 11638 H 1112.56 0.299468 2.54041 0
M  V30 11639 H 1112.2 0.32149 5.06881 0
M  V30 11640 H 1112.13 -1.45863 5.05996 0
M  V30 11641 H 1114.63 -0.652967 3.72216 0
M  V30 11642 H 1114.94 -0.715051 7.69485 0
M  V30 11643 H 1113.28 -0.649984 6.91954 0
M  V30 11644 H 1116.47 -0.725704 4.6244 0
M  V30 11645 H 1116.65 -0.754242 6.43596 0
M  V30 11646 N 1110.05 -1.5248 -0.398459 0
M  V30 11647 C 1110.98 -1.79549 -1.49279 0
M  V30 11648 C 1111.96 -0.647004 -1.57315 0
M  V30 11649 O 1113.15 -0.893661 -1.72416 0
M  V30 11650 C 1110.28 -1.95582 -2.86993 0
M  V30 11651 C 1109.23 -3.1123 -2.93803 0
M  V30 11652 C 1108.56 -3.12501 -4.33874 0
M  V30 11653 C 1109.86 -4.50485 -2.64312 0
M  V30 11654 H 1111.55 -2.71187 -1.26877 0
M  V30 11655 H 1109.1 -1.30492 -0.608924 0
M  V30 11656 H 1111.05 -2.13102 -3.63546 0
M  V30 11657 H 1109.78 -1.00625 -3.10712 0
M  V30 11658 H 1108.44 -2.93477 -2.19697 0
M  V30 11659 H 1108.08 -2.15245 -4.54619 0
M  V30 11660 H 1107.78 -3.90183 -4.39353 0
M  V30 11661 H 1109.31 -3.32164 -5.12347 0
M  V30 11662 H 1110.72 -4.68387 -3.30585 0
M  V30 11663 H 1109.12 -5.30163 -2.81153 0
M  V30 11664 H 1110.19 -4.57848 -1.59696 0
M  V30 11665 N 1111.53 0.65634 -1.43283 0
M  V30 11666 C 1112.81 1.41339 -1.35213 0
M  V30 11667 C 1113.19 2.111 0.00158494 0
M  V30 11668 O 1112.54 2.0457 1.018 0
M  V30 11669 C 1112.75 2.40066 -2.53317 0
M  V30 11670 C 1114.09 3.04159 -2.96264 0
M  V30 11671 O 1115.12 2.50393 -2.53341 0
M  V30 11672 O 1113.98 4.01633 -3.70612 0
M  V30 11673 H 1111.07 0.631325 -0.534189 0
M  V30 11674 H 1113.62 0.68351 -1.55326 0
M  V30 11675 H 1112.39 1.87444 -3.43483 0
M  V30 11676 H 1112.01 3.20509 -2.35287 0
M  V30 11677 N 1113.01 1.29761 0.894412 0
M  V30 11678 C 1113.96 1.15341 1.99912 0
M  V30 11679 C 1114.93 0.0453488 1.66038 0
M  V30 11680 O 1116.11 0.213829 1.89598 0
M  V30 11681 C 1113.25 0.841432 3.34685 0
M  V30 11682 C 1112.36 2.03046 3.81309 0
M  V30 11683 C 1111.5 1.65739 5.04682 0
M  V30 11684 C 1110.54 2.81191 5.43689 0
M  V30 11685 N 1109.68 2.44244 6.58247 0
M  V30 11686 H 1114.52 2.09854 2.11578 0
M  V30 11687 H 1112.05 1.04421 1.03608 0
M  V30 11688 H 1114.01 0.641211 4.12243 0
M  V30 11689 H 1112.64 -0.066797 3.22731 0
M  V30 11690 H 1111.69 2.34222 2.9974 0
M  V30 11691 H 1113 2.89538 4.06164 0
M  V30 11692 H 1112.16 1.42036 5.8984 0
M  V30 11693 H 1110.9 0.764019 4.81678 0
M  V30 11694 H 1109.9 3.0557 4.57064 0
M  V30 11695 H 1111.13 3.712 5.68672 0
M  V30 11696 H 1109.07 1.57402 6.36837 0
M  V30 11697 H 1108.99 3.24269 6.82924 0
M  V30 11698 H 1110.26 2.23875 7.46659 0
M  V30 11699 N 1114.49 -1.10549 1.12324 0
M  V30 11700 C 1115.73 -1.82755 0.879117 0
M  V30 11701 C 1116.07 -1.84905 -0.593604 0
M  V30 11702 O 1115.34 -1.30884 -1.43873 0
M  V30 11703 C 1115.62 -3.29481 1.45308 0
M  V30 11704 C 1115.48 -3.3567 2.99408 0
M  V30 11705 C 1116.8 -4.25828 1.11167 0
M  V30 11706 H 1113.92 -0.663513 0.32081 0
M  V30 11707 H 1116.56 -1.29572 1.38965 0
M  V30 11708 H 1114.71 -3.74902 1.01887 0
M  V30 11709 H 1116.38 -2.98739 3.515 0
M  V30 11710 H 1114.62 -2.75606 3.34998 0
M  V30 11711 H 1115.29 -4.38983 3.34661 0
M  V30 11712 H 1117.77 -3.88635 1.48667 0
M  V30 11713 H 1116.65 -5.26857 1.53991 0
M  V30 11714 H 1116.91 -4.42094 0.0237046 0
M  V30 11715 N 1115.97 -0.914965 -1.28321 0
M  V30 11716 C 1117.21 -0.559015 -1.95567 0
M  V30 11717 C 1117.57 0.887749 -1.70695 0
M  V30 11718 O 1116.86 1.62312 -1.0181 0
M  V30 11719 C 1117.05 -0.805805 -3.48198 0
M  V30 11720 C 1116.88 -2.27501 -3.87909 0
M  V30 11721 C 1115.65 -2.92534 -4.12009 0
M  V30 11722 C 1117.85 -3.25152 -3.98473 0
M  V30 11723 N 1115.83 -4.29739 -4.38403 0
M  V30 11724 C 1117.2 -4.47524 -4.29095 0
M  V30 11725 C 1119.26 -3.20534 -3.81001 0
M  V30 11726 C 1117.96 -5.65861 -4.44065 0
M  V30 11727 C 1119.99 -4.38172 -3.97189 0
M  V30 11728 C 1119.35 -5.59318 -4.28185 0
M  V30 11729 H 1115.45 -0.254451 -0.739445 0
M  V30 11730 H 1118.03 -1.17895 -1.54948 0
M  V30 11731 H 1116.2 -0.215134 -3.87804 0
M  V30 11732 H 1117.94 -0.413762 -4.02579 0
M  V30 11733 H 1114.69 -2.43258 -4.06352 0
M  V30 11734 H 1115.11 -5.00683 -4.55681 0
M  V30 11735 H 1119.76 -2.27949 -3.56088 0
M  V30 11736 H 1117.47 -6.58924 -4.67809 0
M  V30 11737 H 1121.06 -4.36102 -3.85105 0
M  V30 11738 H 1119.94 -6.48828 -4.40446 0
M  V30 11739 N 1117.44 1.42219 -0.679077 0
M  V30 11740 C 1118.85 1.8459 -0.279877 0
M  V30 11741 C 1119.21 1.56839 1.17881 0
M  V30 11742 O 1118.33 1.03039 1.90294 0
M  V30 11743 C 1118.93 3.35072 -0.501185 0
M  V30 11744 C 1117.48 3.76076 -0.156065 0
M  V30 11745 C 1116.63 2.65763 -0.791549 0
M  V30 11746 H 1119.58 1.32005 -0.880932 0
M  V30 11747 H 1119.6 3.79708 0.245349 0
M  V30 11748 H 1119.12 3.55239 -1.56291 0
M  V30 11749 H 1117.22 3.61516 0.90205 0
M  V30 11750 H 1117.33 4.75334 -0.599572 0
M  V30 11751 H 1115.69 2.53726 -0.222514 0
M  V30 11752 H 1116.48 2.88751 -1.85682 0
M  V30 11753 N 1118.92 0.422693 1.51826 0
M  V30 11754 C 1119.87 -0.396088 2.27376 0
M  V30 11755 C 1120.84 -1.02946 1.30351 0
M  V30 11756 O 1122.02 -1.05116 1.59233 0
M  V30 11757 C 1119.16 -1.49942 3.10824 0
M  V30 11758 C 1118.28 -0.885623 4.22825 0
M  V30 11759 C 1117.41 -1.96278 4.93608 0
M  V30 11760 C 1116.45 -1.32664 5.97551 0
M  V30 11761 N 1115.59 -2.34452 6.61798 0
M  V30 11762 H 1120.43 0.254571 2.96911 0
M  V30 11763 H 1117.96 0.137383 1.46457 0
M  V30 11764 H 1119.92 -2.15023 3.57521 0
M  V30 11765 H 1118.55 -2.11991 2.43433 0
M  V30 11766 H 1117.6 -0.123491 3.80199 0
M  V30 11767 H 1118.92 -0.381057 4.97342 0
M  V30 11768 H 1118.07 -2.69055 5.43778 0
M  V30 11769 H 1116.81 -2.50103 4.18688 0
M  V30 11770 H 1115.81 -0.584262 5.46687 0
M  V30 11771 H 1117.04 -0.7959 6.7442 0
M  V30 11772 H 1114.99 -2.87385 5.897 0
M  V30 11773 H 1114.9 -1.88845 7.32034 0
M  V30 11774 H 1116.17 -3.06757 7.16603 0
M  V30 11775 N 1120.4 -1.5685 0.153553 0
M  V30 11776 C 1121.33 -2.20101 -0.779601 0
M  V30 11777 C 1122.31 -1.15121 -1.25225 0
M  V30 11778 O 1123.5 -1.43487 -1.30862 0
M  V30 11779 C 1120.63 -2.82778 -2.01628 0
M  V30 11780 C 1119.58 -3.93643 -1.68015 0
M  V30 11781 C 1118.91 -4.43286 -2.99001 0
M  V30 11782 C 1120.21 -5.14102 -0.921774 0
M  V30 11783 H 1121.9 -2.98334 -0.252432 0
M  V30 11784 H 1119.45 -1.43499 -0.119975 0
M  V30 11785 H 1121.4 -3.25696 -2.67395 0
M  V30 11786 H 1120.12 -2.01887 -2.56728 0
M  V30 11787 H 1118.78 -3.51354 -1.04624 0
M  V30 11788 H 1118.43 -3.59208 -3.52106 0
M  V30 11789 H 1118.13 -5.18068 -2.77272 0
M  V30 11790 H 1119.65 -4.88878 -3.65828 0
M  V30 11791 H 1121.07 -5.53823 -1.48167 0
M  V30 11792 H 1119.46 -5.94687 -0.804185 0
M  V30 11793 H 1120.53 -4.84825 0.0852757 0
M  V30 11794 N 1121.88 0.120221 -1.57141 0
M  V30 11795 C 1123.29 0.473718 -1.52408 0
M  V30 11796 C 1123.49 1.81925 -0.866354 0
M  V30 11797 O 1122.55 2.48491 -0.448173 0
M  V30 11798 C 1123.86 0.459338 -2.97171 0
M  V30 11799 C 1125.41 0.542975 -3.08254 0
M  V30 11800 C 1125.89 0.558996 -4.54576 0
M  V30 11801 N 1127.38 0.620469 -4.59026 0
M  V30 11802 C 1128.11 0.654292 -5.69655 0
M  V30 11803 N 1127.61 0.645835 -6.89783 0
M  V30 11804 N 1129.4 0.697208 -5.57759 0
M  V30 11805 H 1121.55 -0.76142 -1.98283 0
M  V30 11806 H 1123.81 -0.280736 -0.905479 0
M  V30 11807 H 1123.52 -0.461654 -3.48657 0
M  V30 11808 H 1123.39 1.28759 -3.54543 0
M  V30 11809 H 1125.78 1.45439 -2.56772 0
M  V30 11810 H 1125.86 -0.312936 -2.53879 0
M  V30 11811 H 1125.51 -0.348367 -5.06704 0
M  V30 11812 H 1125.44 1.43177 -5.06762 0
M  V30 11813 H 1127.93 0.633218 -3.72557 0
M  V30 11814 H 1128.24 0.674233 -7.69853 0
M  V30 11815 H 1126.59 0.613279 -6.92289 0
M  V30 11816 H 1129.78 0.70117 -4.62819 0
M  V30 11817 H 1129.95 0.7201 -6.43986 0
M  V30 11818 N 1123.36 1.52689 0.390367 0
M  V30 11819 C 1124.6 1.67914 1.13722 0
M  V30 11820 C 1124.94 0.417159 1.89667 0
M  V30 11821 O 1124.21 -0.585005 1.85494 0
M  V30 11822 C 1124.49 2.91331 2.11656 0
M  V30 11823 C 1124.35 4.27626 1.39484 0
M  V30 11824 C 1125.67 3.10293 3.12099 0
M  V30 11825 H 1122.78 0.611047 0.412057 0
M  V30 11826 H 1125.43 1.85283 0.420753 0
M  V30 11827 H 1123.58 2.76654 2.72754 0
M  V30 11828 H 1125.25 4.54068 0.813607 0
M  V30 11829 H 1123.49 4.28169 0.69669 0
M  V30 11830 H 1124.16 5.10066 2.11038 0
M  V30 11831 H 1126.64 3.23992 2.6109 0
M  V30 11832 H 1125.51 3.98127 3.7787 0
M  V30 11833 H 1125.78 2.24448 3.80888 0
M  V30 11834 N 1124.83 -0.648732 1.43629 0
M  V30 11835 C 1125.76 -1.77298 1.51947 0
M  V30 11836 C 1126.75 -1.65942 0.373785 0
M  V30 11837 O 1127.93 -1.8497 0.591596 0
M  V30 11838 C 1125.06 -3.15749 1.44638 0
M  V30 11839 C 1124.01 -3.41872 2.57502 0
M  V30 11840 C 1123.34 -4.8017 2.35246 0
M  V30 11841 C 1124.64 -3.36173 3.99731 0
M  V30 11842 H 1126.33 -1.70594 2.46045 0
M  V30 11843 H 1123.88 -0.819306 1.1842 0
M  V30 11844 H 1125.83 -3.94156 1.4906 0
M  V30 11845 H 1124.56 -3.23194 0.470466 0
M  V30 11846 H 1123.22 -2.65838 2.5244 0
M  V30 11847 H 1122.86 -4.84297 1.35887 0
M  V30 11848 H 1122.56 -4.9861 3.10906 0
M  V30 11849 H 1124.09 -5.6083 2.41459 0
M  V30 11850 H 1125.5 -4.0451 4.06257 0
M  V30 11851 H 1123.9 -3.66148 4.75453 0
M  V30 11852 H 1124.97 -2.34277 4.24549 0
M  V30 11853 N 1126.31 -1.30234 -0.887518 0
M  V30 11854 C 1127.28 -1.16384 -1.97452 0
M  V30 11855 C 1128.28 -0.0957942 -1.60514 0
M  V30 11856 O 1129.47 -0.343706 -1.70776 0
M  V30 11857 C 1126.6 -0.782514 -3.31797 0
M  V30 11858 H 1127.79 -2.12952 -2.11167 0
M  V30 11859 H 1125.34 -1.13594 -1.07359 0
M  V30 11860 H 1126.08 0.18278 -3.23785 0
M  V30 11861 H 1125.86 -1.55434 -3.59976 0
M  V30 11862 H 1127.35 -0.709011 -4.11537 0
M  V30 11863 N 1127.79 1.09952 -1.12909 0
M  V30 11864 C 1129.21 1.34051 -0.866172 0
M  V30 11865 C 1129.41 1.95169 0.501125 0
M  V30 11866 O 1128.46 2.19458 1.24878 0
M  V30 11867 C 1129.78 2.25738 -1.98653 0
M  V30 11868 C 1131.32 2.39261 -2.01799 0
M  V30 11869 C 1131.8 3.3428 -3.13083 0
M  V30 11870 N 1133.29 3.41851 -3.12558 0
M  V30 11871 C 1134.02 4.15358 -3.95304 0
M  V30 11872 N 1133.52 4.91709 -4.88051 0
M  V30 11873 N 1135.31 4.11027 -3.83423 0
M  V30 11874 H 1127.46 0.686521 -2.00999 0
M  V30 11875 H 1129.73 0.364913 -0.874953 0
M  V30 11876 H 1129.43 1.88048 -2.97205 0
M  V30 11877 H 1129.31 3.26085 -1.89601 0
M  V30 11878 H 1131.69 2.76218 -1.03864 0
M  V30 11879 H 1131.78 1.38712 -2.14925 0
M  V30 11880 H 1131.42 2.98048 -4.11254 0
M  V30 11881 H 1131.35 4.34721 -2.97195 0
M  V30 11882 H 1133.84 2.87405 -2.45371 0
M  V30 11883 H 1134.15 5.45212 -5.47689 0
M  V30 11884 H 1132.5 4.90816 -4.92061 0
M  V30 11885 H 1135.69 3.50477 -3.10296 0
M  V30 11886 H 1135.86 4.68054 -4.4814 0
M  V30 11887 N 1129.27 0.921757 1.27833 0
M  V30 11888 C 1130.49 0.574599 1.99281 0
M  V30 11889 C 1130.92 -0.838905 1.68357 0
M  V30 11890 O 1130.28 -1.56196 0.920468 0
M  V30 11891 C 1130.32 0.800027 3.51613 0
M  V30 11892 O 1129.43 -0.137215 4.12172 0
M  V30 11893 H 1128.77 0.221887 0.625829 0
M  V30 11894 H 1131.3 1.23939 1.62789 0
M  V30 11895 H 1131.31 0.71326 4.01717 0
M  V30 11896 H 1129.98 1.83042 3.73455 0
M  V30 11897 H 1128.56 -0.00103872 3.729 0
M  V30 11898 N 1130.75 -1.41857 0.686609 0
M  V30 11899 C 1131.97 -2.06219 0.221037 0
M  V30 11900 C 1132.4 -1.51298 -1.11762 0
M  V30 11901 O 1131.75 -0.636253 -1.69769 0
M  V30 11902 C 1131.8 -3.60153 0.179425 0
M  V30 11903 O 1130.91 -4.03577 -0.848481 0
M  V30 11904 H 1130.25 -0.654787 0.110228 0
M  V30 11905 H 1132.78 -1.81783 0.938948 0
M  V30 11906 H 1132.79 -4.07999 0.00725332 0
M  V30 11907 H 1131.46 -3.99498 1.15647 0
M  V30 11908 H 1130.04 -3.67255 -0.646393 0
M  V30 11909 N 1132.22 -0.430739 -1.51599 0
M  V30 11910 C 1133.64 0.0339139 -1.86669 0
M  V30 11911 C 1133.99 1.42533 -1.34829 0
M  V30 11912 O 1133.11 2.04889 -0.696376 0
M  V30 11913 C 1133.71 0.0683174 -3.38731 0
M  V30 11914 C 1132.27 0.477363 -3.73361 0
M  V30 11915 C 1131.41 -0.334258 -2.75278 0
M  V30 11916 H 1134.36 -0.646875 -1.44918 0
M  V30 11917 H 1134.38 0.879179 -3.70204 0
M  V30 11918 H 1133.9 -0.944501 -3.76432 0
M  V30 11919 H 1132 1.49603 -3.41247 0
M  V30 11920 H 1132.11 0.206744 -4.78654 0
M  V30 11921 H 1130.47 0.206503 -2.53861 0
M  V30 11922 H 1131.26 -1.34583 -3.1582 0
M  V30 11923 N 1133.7 1.56767 -0.161869 0
M  V30 11924 C 1134.93 2.00964 0.492027 0
M  V30 11925 C 1135.35 1.04206 1.57437 0
M  V30 11926 O 1134.7 0.0413998 1.82453 0
M  V30 11927 C 1134.75 3.4502 1.07904 0
M  V30 11928 O 1134.47 4.38082 0.0399085 0
M  V30 11929 C 1135.98 4.04572 1.81209 0
M  V30 11930 H 1133.2 0.658911 0.126797 0
M  V30 11931 H 1135.74 2.0283 -0.260824 0
M  V30 11932 H 1133.89 3.43959 1.78243 0
M  V30 11933 H 1134.31 5.22372 0.471985 0
M  V30 11934 H 1135.78 5.07321 2.17554 0
M  V30 11935 H 1136.26 3.46126 2.70359 0
M  V30 11936 H 1136.87 4.09307 1.15534 0
M  V30 11937 N 1135.18 -0.111886 1.57202 0
M  V30 11938 C 1136.46 -0.849125 1.76208 0
M  V30 11939 C 1136.84 -1.97735 0.73919 0
M  V30 11940 O 1136.19 -2.27283 -0.235523 0
M  V30 11941 C 1136.4 -1.35924 3.21443 0
M  V30 11942 C 1137.74 -1.80874 3.84148 0
M  V30 11943 O 1138.77 -1.45587 3.25089 0
M  V30 11944 O 1137.63 -2.46065 4.87969 0
M  V30 11945 H 1134.72 -0.403761 0.721738 0
M  V30 11946 H 1137.27 -0.0950726 1.69433 0
M  V30 11947 H 1136.04 -0.550113 3.87414 0
M  V30 11948 H 1135.66 -2.17579 3.32784 0
M  V30 11949 N 1136.66 -1.52894 -0.382264 0
M  V30 11950 C 1137.61 -1.78151 -1.46734 0
M  V30 11951 C 1138.58 -0.625034 -1.53891 0
M  V30 11952 O 1139.76 -0.865467 -1.70042 0
M  V30 11953 C 1136.9 -1.96223 -2.83885 0
M  V30 11954 C 1136.01 -3.23925 -2.85826 0
M  V30 11955 C 1135.15 -3.32277 -4.14446 0
M  V30 11956 C 1134.19 -4.54076 -4.10465 0
M  V30 11957 N 1133.32 -4.59672 -5.30703 0
M  V30 11958 H 1138.16 -2.70748 -1.24497 0
M  V30 11959 H 1135.7 -1.34135 -0.603838 0
M  V30 11960 H 1137.66 -2.04686 -3.63537 0
M  V30 11961 H 1136.29 -1.0698 -3.04557 0
M  V30 11962 H 1135.34 -3.245 -1.98505 0
M  V30 11963 H 1136.65 -4.1364 -2.78754 0
M  V30 11964 H 1135.81 -3.3996 -5.02506 0
M  V30 11965 H 1134.55 -2.40548 -4.2425 0
M  V30 11966 H 1133.55 -4.46511 -3.20793 0
M  V30 11967 H 1134.78 -5.47128 -4.02278 0
M  V30 11968 H 1132.72 -3.70838 -5.41124 0
M  V30 11969 H 1132.64 -5.43268 -5.25734 0
M  V30 11970 H 1133.91 -4.71618 -6.20642 0
M  V30 11971 N 1138.14 0.641106 -1.43971 0
M  V30 11972 C 1139.09 1.74699 -1.46507 0
M  V30 11973 C 1140.07 1.57437 -0.332037 0
M  V30 11974 O 1141.26 1.67343 -0.576663 0
M  V30 11975 C 1138.39 3.13344 -1.40252 0
M  V30 11976 C 1137.48 3.3611 -2.58632 0
M  V30 11977 N 1137.87 3.29291 -3.83929 0
M  V30 11978 C 1136.17 3.66873 -2.53615 0
M  V30 11979 C 1136.87 3.52472 -4.62751 0
M  V30 11980 N 1135.84 3.74868 -3.93668 0
M  V30 11981 H 1139.65 1.67869 -2.41241 0
M  V30 11982 H 1137.16 0.843217 -1.38793 0
M  V30 11983 H 1139.16 3.92636 -1.40153 0
M  V30 11984 H 1137.82 3.21346 -0.46549 0
M  V30 11985 H 1138.83 3.08431 -4.16041 0
M  V30 11986 H 1135.51 3.81917 -1.68659 0
M  V30 11987 H 1136.9 3.52876 -5.71776 0
M  V30 11988 N 1139.62 1.30703 0.880598 0
M  V30 11989 C 1140.84 1.22714 1.6658 0
M  V30 11990 C 1141.26 -0.209303 1.87636 0
M  V30 11991 O 1140.62 -1.13771 1.42697 0
M  V30 11992 C 1140.67 1.95659 3.03974 0
M  V30 11993 O 1140.39 3.33695 2.83865 0
M  V30 11994 C 1141.89 1.9438 3.98411 0
M  V30 11995 H 1139.11 0.424478 0.519673 0
M  V30 11996 H 1141.65 1.72402 1.0999 0
M  V30 11997 H 1139.81 1.49758 3.57283 0
M  V30 11998 H 1140.22 3.70697 3.71058 0
M  V30 11999 H 1141.7 2.4995 4.92168 0
M  V30 12000 H 1142.17 0.923767 4.29375 0
M  V30 12001 H 1142.78 2.40112 3.51036 0
M  V30 12002 N 1141.09 -1.09351 1.1349 0
M  V30 12003 C 1142.02 -2.18037 0.835588 0
M  V30 12004 C 1143 -1.68856 -0.205373 0
M  V30 12005 O 1144.19 -1.94094 -0.0641357 0
M  V30 12006 C 1141.32 -3.45987 0.301661 0
M  V30 12007 C 1140.27 -4.08507 1.27696 0
M  V30 12008 C 1139.6 -5.31292 0.602758 0
M  V30 12009 C 1140.9 -4.50916 2.63575 0
M  V30 12010 H 1142.59 -2.43332 1.74441 0
M  V30 12011 H 1140.14 -1.1695 0.840166 0
M  V30 12012 H 1142.09 -4.21324 0.079928 0
M  V30 12013 H 1140.82 -3.20217 -0.642552 0
M  V30 12014 H 1139.48 -3.3519 1.4847 0
M  V30 12015 H 1139.12 -5.01802 -0.346953 0
M  V30 12016 H 1138.82 -5.74075 1.25345 0
M  V30 12017 H 1140.35 -6.09351 0.390325 0
M  V30 12018 H 1141.76 -5.17474 2.46765 0
M  V30 12019 H 1140.16 -5.04586 3.24827 0
M  V30 12020 H 1141.23 -3.63279 3.2118 0
M  V30 12021 N 1142.57 -0.928524 -1.27343 0
M  V30 12022 C 1143.82 -0.570235 -1.94618 0
M  V30 12023 C 1144.15 0.886381 -1.72792 0
M  V30 12024 O 1143.43 1.63242 -1.05747 0
M  V30 12025 C 1143.71 -0.897964 -3.48724 0
M  V30 12026 C 1143.56 -2.40839 -3.7989 0
M  V30 12027 C 1144.88 -0.404429 -4.38238 0
M  V30 12028 H 1142 -0.208645 -0.70685 0
M  V30 12029 H 1144.64 -1.16045 -1.50444 0
M  V30 12030 H 1142.79 -0.395679 -3.8648 0
M  V30 12031 H 1144.46 -2.98243 -3.51921 0
M  V30 12032 H 1142.71 -2.85723 -3.26412 0
M  V30 12033 H 1143.38 -2.58823 -4.8756 0
M  V30 12034 H 1145.85 -0.834918 -4.07637 0
M  V30 12035 H 1144.73 -0.662684 -5.44885 0
M  V30 12036 H 1144.99 0.695507 -4.36595 0
M  V30 12037 N 1144.05 1.41491 -0.694123 0
M  V30 12038 C 1145 2.30783 -0.0278824 0
M  V30 12039 C 1145.97 1.47028 0.772783 0
M  V30 12040 O 1147.15 1.75819 0.74111 0
M  V30 12041 C 1144.29 3.33061 0.903579 0
M  V30 12042 C 1143.4 4.31896 0.0946823 0
M  V30 12043 C 1142.54 5.21243 1.02365 0
M  V30 12044 C 1141.58 6.11748 0.207578 0
M  V30 12045 N 1140.72 6.93583 1.09028 0
M  V30 12046 H 1145.56 2.87197 -0.795092 0
M  V30 12047 H 1143.09 1.41449 -0.403806 0
M  V30 12048 H 1145.05 3.90907 1.45765 0
M  V30 12049 H 1143.68 2.782 1.6372 0
M  V30 12050 H 1142.73 3.76009 -0.576289 0
M  V30 12051 H 1144.04 4.95889 -0.538059 0
M  V30 12052 H 1143.2 5.83917 1.647 0
M  V30 12053 H 1141.94 4.57473 1.69025 0
M  V30 12054 H 1140.94 5.48125 -0.428854 0
M  V30 12055 H 1142.17 6.77573 -0.455206 0
M  V30 12056 H 1140.11 6.32422 1.74292 0
M  V30 12057 H 1140.03 7.54257 0.513073 0
M  V30 12058 H 1141.3 7.60726 1.70048 0
M  V30 12059 N 1145.53 0.438773 1.51369 0
M  V30 12060 C 1146.78 -0.126962 2.01701 0
M  V30 12061 C 1147.1 -1.43086 1.32481 0
M  V30 12062 O 1146.37 -1.90427 0.459823 0
M  V30 12063 H 1144.95 -0.0499092 0.745331 0
M  V30 12064 H 1147.61 0.581808 1.86013 0
M  V30 12065 H 1146.7 -0.301836 3.10637 0
M  V30 12066 N 1147.01 -1.56678 0.170181 0
M  V30 12067 C 1148.25 -1.96024 -0.475147 0
M  V30 12068 C 1148.57 -1.0588 -1.64465 0
M  V30 12069 O 1149.77 -1.34901 -2.35614 0
M  V30 12070 C 1148.23 -3.4855 -0.896704 0
M  V30 12071 C 1147.84 -4.47318 0.247142 0
M  V30 12072 C 1149.58 -3.96716 -1.51052 0
M  V30 12073 C 1147.49 -5.91082 -0.193982 0
M  V30 12074 H 1146.42 -0.731883 -0.181282 0
M  V30 12075 H 1149.07 -1.81674 0.25823 0
M  V30 12076 H 1147.45 -3.58314 -1.68603 0
M  V30 12077 H 1148.63 -4.49268 1.02445 0
M  V30 12078 H 1146.94 -4.09203 0.770839 0
M  V30 12079 H 1149.54 -5.01581 -1.85258 0
M  V30 12080 H 1149.88 -3.39588 -2.40802 0
M  V30 12081 H 1150.41 -3.89965 -0.785652 0
M  V30 12082 H 1147.15 -6.5208 0.668714 0
M  V30 12083 H 1146.67 -5.92441 -0.936675 0
M  V30 12084 H 1148.35 -6.43844 -0.638237 0
M  V30 12085 N 1148.48 0.103547 -1.57259 0
M  V30 12086 C 1149.73 0.807231 -1.84842 0
M  V30 12087 C 1150.05 1.80308 -0.758181 0
M  V30 12088 O 1151.25 2.55406 -0.920877 0
M  V30 12089 C 1149.71 1.4864 -3.27771 0
M  V30 12090 C 1149.32 0.53075 -4.44845 0
M  V30 12091 C 1151.06 2.17431 -3.64587 0
M  V30 12092 C 1148.97 1.21403 -5.78805 0
M  V30 12093 H 1147.9 0.305212 -0.689465 0
M  V30 12094 H 1150.55 0.0600855 -1.83402 0
M  V30 12095 H 1148.93 2.28071 -3.23728 0
M  V30 12096 H 1150.1 -0.231455 -4.60218 0
M  V30 12097 H 1148.42 -0.0510078 -4.16369 0
M  V30 12098 H 1151.02 2.6927 -4.6195 0
M  V30 12099 H 1151.36 2.9594 -2.92789 0
M  V30 12100 H 1151.89 1.4487 -3.70483 0
M  V30 12101 H 1148.63 0.469918 -6.53813 0
M  V30 12102 H 1148.15 1.94787 -5.6729 0
M  V30 12103 H 1149.83 1.74289 -6.23083 0
M  V30 12104 N 1149.96 1.53094 0.37415 0
M  V30 12105 C 1151.24 1.59456 1.13283 0
M  V30 12106 C 1151.62 0.396821 2.07337 0
M  V30 12107 O 1150.97 -0.613659 2.20106 0
M  V30 12108 C 1151.18 2.94069 1.87948 0
M  V30 12109 C 1152.52 3.4834 2.42785 0
M  V30 12110 O 1153.55 2.96042 1.98085 0
M  V30 12111 O 1152.41 4.39747 3.24477 0
M  V30 12112 H 1149.5 0.643731 0.519171 0
M  V30 12113 H 1152.05 1.65434 0.378105 0
M  V30 12114 H 1150.82 3.72685 1.19255 0
M  V30 12115 H 1150.44 2.91544 2.70348 0
M  V30 12116 N 1151.44 -0.633461 1.44309 0
M  V30 12117 C 1152.66 -1.42527 1.50668 0
M  V30 12118 C 1153.09 -1.87637 0.131861 0
M  V30 12119 O 1152.45 -1.58595 -0.878477 0
M  V30 12120 C 1152.5 -2.62328 2.47419 0
M  V30 12121 O 1151.6 -3.62081 1.97411 0
M  V30 12122 H 1150.94 -0.426559 0.508864 0
M  V30 12123 H 1153.47 -0.773392 1.8942 0
M  V30 12124 H 1153.48 -3.09901 2.65378 0
M  V30 12125 H 1152.16 -2.2884 3.47283 0
M  V30 12126 H 1150.73 -3.21333 1.89208 0
M  V30 12127 N 1152.92 -1.31168 -0.873655 0
M  V30 12128 C 1154.15 -1.23595 -1.65927 0
M  V30 12129 C 1154.56 0.199349 -1.87745 0
M  V30 12130 O 1153.92 1.13013 -1.43298 0
M  V30 12131 C 1153.97 -1.97268 -3.02932 0
M  V30 12132 O 1153.69 -3.35196 -2.82091 0
M  V30 12133 C 1155.19 -1.9649 -3.97374 0
M  V30 12134 H 1152.41 -0.427228 -0.517414 0
M  V30 12135 H 1154.96 -1.72983 -1.09074 0
M  V30 12136 H 1153.11 -1.51651 -3.56484 0
M  V30 12137 H 1153.52 -3.7266 -3.69087 0
M  V30 12138 H 1155 -2.52557 -4.90835 0
M  V30 12139 H 1155.48 -0.946525 -4.28879 0
M  V30 12140 H 1156.08 -2.4197 -3.49758 0
M  V30 12141 N 1154.4 1.08748 -1.14068 0
M  V30 12142 C 1155.62 1.84814 -0.930138 0
M  V30 12143 C 1156.04 1.81461 0.521267 0
M  V30 12144 O 1155.4 1.21577 1.36108 0
M  V30 12145 C 1155.45 3.32501 -1.41863 0
M  V30 12146 O 1155.17 3.35846 -2.81317 0
M  V30 12147 C 1156.67 4.25384 -1.24753 0
M  V30 12148 H 1153.89 0.583546 -0.331233 0
M  V30 12149 H 1156.43 1.37366 -1.51495 0
M  V30 12150 H 1154.59 3.7735 -0.876664 0
M  V30 12151 H 1155 4.28013 -3.03159 0
M  V30 12152 H 1156.48 5.27138 -1.63798 0
M  V30 12153 H 1156.95 4.38789 -0.18999 0
M  V30 12154 H 1157.56 3.86357 -1.77787 0
M  V30 12155 N 1155.87 0.935264 1.26849 0
M  V30 12156 C 1157.12 0.578545 1.93642 0
M  V30 12157 C 1157.44 -0.884296 1.73796 0
M  V30 12158 O 1156.71 -1.62768 1.09011 0
M  V30 12159 H 1155.29 0.210976 0.716588 0
M  V30 12160 H 1157.96 1.1893 1.54407 0
M  V30 12161 H 1157.05 0.791268 3.01903 0
M  V30 12162 N 1157.35 -1.41121 0.701616 0
M  V30 12163 C 1158.26 -2.34565 0.0407815 0
M  V30 12164 C 1159.28 -1.56555 -0.75937 0
M  V30 12165 O 1160.45 -1.89008 -0.695542 0
M  V30 12166 C 1157.52 -3.35347 -0.879954 0
M  V30 12167 C 1156.58 -4.29241 -0.0713279 0
M  V30 12168 C 1155.81 -5.25209 -0.948211 0
M  V30 12169 O 1156.04 -5.26781 -2.18766 0
M  V30 12170 O 1154.97 -6.00605 -0.394657 0
M  V30 12171 H 1158.8 -2.92666 0.811188 0
M  V30 12172 H 1156.38 -1.42077 0.461991 0
M  V30 12173 H 1158.26 -3.9719 -1.40776 0
M  V30 12174 H 1156.94 -2.7968 -1.62975 0
M  V30 12175 H 1155.85 -3.70727 0.50122 0
M  V30 12176 H 1157.18 -4.88022 0.639935 0
M  V30 12177 N 1158.83 -0.446794 -1.51134 0
M  V30 12178 C 1159.76 0.395804 -2.25757 0
M  V30 12179 C 1160.78 0.978178 -1.30137 0
M  V30 12180 O 1161.96 0.87071 -1.55823 0
M  V30 12181 C 1159.06 1.56665 -3.00515 0
M  V30 12182 C 1158.24 1.10146 -4.23305 0
M  V30 12183 C 1157.3 2.14352 -4.80562 0
M  V30 12184 O 1156.32 1.73401 -5.42145 0
M  V30 12185 N 1157.52 3.46932 -4.65423 0
M  V30 12186 H 1160.29 -0.243808 -2.98707 0
M  V30 12187 H 1157.85 -0.276205 -1.59527 0
M  V30 12188 H 1159.84 2.26019 -3.35704 0
M  V30 12189 H 1158.41 2.11142 -2.30516 0
M  V30 12190 H 1157.63 0.234644 -3.93501 0
M  V30 12191 H 1158.92 0.768185 -5.02968 0
M  V30 12192 H 1158.32 3.82929 -4.16391 0
M  V30 12193 H 1156.88 4.12154 -5.04948 0
M  V30 12194 N 1160.31 1.56586 -0.178487 0
M  V30 12195 C 1161.72 1.58609 0.17759 0
M  V30 12196 C 1161.92 1.19411 1.62306 0
M  V30 12197 O 1160.98 0.90906 2.35568 0
M  V30 12198 C 1162.29 3.005 -0.109722 0
M  V30 12199 C 1163.84 3.12962 -0.0485036 0
M  V30 12200 C 1164.32 4.56957 -0.308901 0
M  V30 12201 N 1165.81 4.62487 -0.25693 0
M  V30 12202 C 1166.54 5.71767 -0.432488 0
M  V30 12203 N 1166.04 6.89577 -0.667494 0
M  V30 12204 N 1167.83 5.60895 -0.367895 0
M  V30 12205 H 1159.98 1.80351 -1.12193 0
M  V30 12206 H 1162.25 0.83623 -0.446569 0
M  V30 12207 H 1161.95 3.3368 -1.11133 0
M  V30 12208 H 1161.83 3.72472 0.595373 0
M  V30 12209 H 1164.21 2.79604 0.943687 0
M  V30 12210 H 1164.29 2.43411 -0.78642 0
M  V30 12211 H 1163.94 4.91025 -1.29833 0
M  V30 12212 H 1163.87 5.24676 0.449711 0
M  V30 12213 H 1166.36 3.77813 -0.0812308 0
M  V30 12214 H 1166.67 7.68744 -0.79071 0
M  V30 12215 H 1165.02 6.91423 -0.704193 0
M  V30 12216 H 1168.21 4.67735 -0.184837 0
M  V30 12217 H 1168.38 6.46005 -0.508138 0
M  V30 12218 N 1161.79 -0.095206 1.57312 0
M  V30 12219 C 1162.72 -1.14173 1.98739 0
M  V30 12220 C 1163.73 -1.36323 0.889934 0
M  V30 12221 O 1164.92 -1.34977 1.16805 0
M  V30 12222 C 1162.02 -2.49729 2.29104 0
M  V30 12223 C 1161.19 -2.47857 3.60396 0
M  V30 12224 C 1160.25 -3.65341 3.78699 0
M  V30 12225 O 1159.28 -3.47837 4.50553 0
M  V30 12226 N 1160.48 -4.84818 3.19268 0
M  V30 12227 H 1163.25 -0.789126 2.89124 0
M  V30 12228 H 1160.81 -0.284187 1.59386 0
M  V30 12229 H 1162.8 -3.26925 2.38541 0
M  V30 12230 H 1161.37 -2.7708 1.44726 0
M  V30 12231 H 1160.59 -1.56208 3.61929 0
M  V30 12232 H 1161.88 -2.43685 4.46649 0
M  V30 12233 H 1161.27 -5.01943 2.60902 0
M  V30 12234 H 1159.83 -5.59607 3.34191 0
M  V30 12235 N 1163.26 -1.53291 -0.366026 0
M  V30 12236 C 1164.51 -1.69702 -1.11036 0
M  V30 12237 C 1164.84 -0.44728 -1.88979 0
M  V30 12238 O 1164.12 0.55542 -1.86401 0
M  V30 12239 C 1164.4 -2.94661 -2.06995 0
M  V30 12240 C 1164.25 -4.29791 -1.32663 0
M  V30 12241 C 1165.57 -3.15219 -3.07123 0
M  V30 12242 H 1162.69 -0.617525 -0.402284 0
M  V30 12243 H 1165.33 -1.85929 -0.391223 0
M  V30 12244 H 1163.48 -2.80958 -2.68318 0
M  V30 12245 H 1165.16 -4.55305 -0.741266 0
M  V30 12246 H 1163.4 -4.29223 -0.628484 0
M  V30 12247 H 1164.07 -5.13359 -2.02896 0
M  V30 12248 H 1166.55 -3.28105 -2.55903 0
M  V30 12249 H 1165.42 -4.04088 -3.71489 0
M  V30 12250 H 1165.68 -2.30479 -3.77269 0
M  V30 12251 N 1164.74 0.6258 -1.44643 0
M  V30 12252 C 1165.99 1.3873 -1.47925 0
M  V30 12253 C 1166.32 1.93868 -0.113469 0
M  V30 12254 O 1165.6 1.73976 0.869639 0
M  V30 12255 C 1165.88 2.54867 -2.54391 0
M  V30 12256 C 1165.73 2.05044 -4.00346 0
M  V30 12257 C 1167.05 3.57043 -2.57309 0
M  V30 12258 H 1164.17 0.503087 -0.538584 0
M  V30 12259 H 1166.81 0.707102 -1.76352 0
M  V30 12260 H 1164.96 3.12894 -2.30281 0
M  V30 12261 H 1166.63 1.51807 -4.35606 0
M  V30 12262 H 1164.88 1.36185 -4.11869 0
M  V30 12263 H 1165.55 2.88681 -4.70497 0
M  V30 12264 H 1168.02 3.08826 -2.78865 0
M  V30 12265 H 1166.9 4.35818 -3.33698 0
M  V30 12266 H 1167.16 4.11464 -1.61708 0
M  V30 12267 N 1166.22 1.31629 0.866686 0
M  V30 12268 C 1167.18 1.1951 1.95576 0
M  V30 12269 C 1168.18 0.121319 1.60342 0
M  V30 12270 O 1169.37 0.370832 1.70207 0
M  V30 12271 C 1166.51 0.835201 3.30511 0
M  V30 12272 H 1167.7 2.16285 2.07752 0
M  V30 12273 H 1165.25 1.15288 1.05539 0
M  V30 12274 H 1165.99 -0.131245 3.24034 0
M  V30 12275 H 1165.77 1.61142 3.57457 0
M  V30 12276 H 1167.26 0.774393 4.10357 0
M  V30 12277 N 1167.7 -1.08142 1.14644 0
M  V30 12278 C 1168.95 -1.80849 0.917685 0
M  V30 12279 C 1169.28 -1.86123 -0.554249 0
M  V30 12280 O 1168.55 -1.33907 -1.41065 0
M  V30 12281 C 1168.84 -3.26325 1.52264 0
M  V30 12282 C 1168.69 -3.29244 3.06461 0
M  V30 12283 C 1170.01 -4.23375 1.20175 0
M  V30 12284 H 1167.13 -0.656559 0.334812 0
M  V30 12285 H 1169.77 -1.26595 1.41682 0
M  V30 12286 H 1167.92 -3.72656 1.09817 0
M  V30 12287 H 1169.59 -2.91216 3.57758 0
M  V30 12288 H 1167.83 -2.68438 3.40769 0
M  V30 12289 H 1168.51 -4.31785 3.43897 0
M  V30 12290 H 1170.98 -3.85394 1.56877 0
M  V30 12291 H 1169.86 -5.23472 1.65132 0
M  V30 12292 H 1170.12 -4.41944 0.117474 0
M  V30 12293 N 1169.18 -0.941978 -1.26351 0
M  V30 12294 C 1170.41 -0.606748 -1.97803 0
M  V30 12295 C 1170.82 0.818441 -1.70138 0
M  V30 12296 O 1170.18 1.54583 -0.970076 0
M  V30 12297 C 1170.23 -0.840431 -3.51595 0
M  V30 12298 O 1169.95 -2.20957 -3.78299 0
M  V30 12299 C 1171.45 -0.515855 -4.40288 0
M  V30 12300 H 1168.67 -0.228591 -0.630862 0
M  V30 12301 H 1171.21 -1.2629 -1.60845 0
M  V30 12302 H 1169.37 -0.230875 -3.86711 0
M  V30 12303 H 1169.78 -2.2702 -4.72824 0
M  V30 12304 H 1171.26 -0.72998 -5.47152 0
M  V30 12305 H 1171.73 0.549178 -4.35753 0
M  V30 12306 H 1172.34 -1.10417 -4.10717 0
M  V30 12307 N 1170.66 1.40747 -0.709091 0
M  V30 12308 C 1171.9 2.00606 -0.245324 0
M  V30 12309 C 1172.22 1.56489 1.16346 0
M  V30 12310 O 1171.49 0.801456 1.78755 0
M  V30 12311 H 1170.07 0.741833 -0.0877098 0
M  V30 12312 H 1172.74 1.72178 -0.913271 0
M  V30 12313 H 1171.83 3.10901 -0.273322 0
M  V30 12314 N 1172.13 0.454803 1.50895 0
M  V30 12315 C 1173.41 -0.166559 1.9489 0
M  V30 12316 C 1173.79 -1.58492 1.3944 0
M  V30 12317 O 1173.14 -2.20788 0.588622 0
M  V30 12318 C 1173.35 -0.126506 3.48771 0
M  V30 12319 C 1174.7 -0.32347 4.23366 0
M  V30 12320 O 1175.72 -0.203835 3.55616 0
M  V30 12321 O 1174.58 -0.563292 5.43589 0
M  V30 12322 H 1171.67 -0.120523 0.818171 0
M  V30 12323 H 1174.22 0.514037 1.61727 0
M  V30 12324 H 1172.99 0.864407 3.81633 0
M  V30 12325 H 1172.61 -0.849264 3.88424 0
M  V30 12326 N 1173.61 -1.56489 0.186789 0
M  V30 12327 C 1174.86 -1.96952 -0.453261 0
M  V30 12328 C 1175.18 -1.07451 -1.62725 0
M  V30 12329 O 1174.45 -0.144046 -1.9537 0
M  V30 12330 H 1173.03 -0.727295 -0.170445 0
M  V30 12331 H 1175.69 -1.92999 0.271584 0
M  V30 12332 H 1174.79 -3.01594 -0.802951 0
M  V30 12333 N 1175.09 0.086862 -1.5736 0
M  V30 12334 C 1176.32 0.802167 -1.90717 0
M  V30 12335 C 1176.73 1.71875 -0.781304 0
M  V30 12336 O 1176.09 1.80831 0.246255 0
M  V30 12337 C 1176.14 1.60858 -3.23739 0
M  V30 12338 O 1175.86 0.728851 -4.31995 0
M  V30 12339 C 1177.36 2.42621 -3.71012 0
M  V30 12340 H 1174.58 0.228914 -0.630745 0
M  V30 12341 H 1177.13 0.061634 -2.04407 0
M  V30 12342 H 1175.28 2.30153 -3.11622 0
M  V30 12343 H 1175.7 1.2882 -5.08435 0
M  V30 12344 H 1177.17 2.94683 -4.66761 0
M  V30 12345 H 1177.65 3.21462 -2.99264 0
M  V30 12346 H 1178.25 1.78509 -3.86024 0
M  V30 12347 N 1176.57 1.53483 0.357892 0
M  V30 12348 C 1177.52 1.81143 1.45911 0
M  V30 12349 C 1178.51 0.681002 1.55109 0
M  V30 12350 O 1179.72 0.864086 1.57904 0
M  V30 12351 H 1176.09 0.573663 0.486225 0
M  V30 12352 H 1178.06 2.733 1.19789 0
M  V30 12353 C 1176.81 2.02509 2.8264 0
M  V30 12354 H 1176.13 2.88938 2.76324 0
M  V30 12355 H 1177.57 2.25837 3.58851 0
M  V30 12356 C 1176.03 0.806412 3.27106 0
M  V30 12357 O 1176.56 -0.00116809 4.017 0
M  V30 12358 N 1174.77 0.627677 2.8374 0
M  V30 12359 H 1174.32 1.28601 2.23203 0
M  V30 12360 H 1174.27 -0.186301 3.13848 0
M  V30 12361 N 1178.05 -0.61812 1.44973 0
M  V30 12362 C 1179.32 -1.37705 1.38913 0
M  V30 12363 C 1179.7 -2.1103 0.054385 0
M  V30 12364 O 1179.05 -2.07197 -0.963409 0
M  V30 12365 C 1179.26 -2.33265 2.59593 0
M  V30 12366 C 1180.61 -2.96197 3.04224 0
M  V30 12367 O 1181.63 -2.43589 2.59891 0
M  V30 12368 O 1180.49 -3.91666 3.8113 0
M  V30 12369 H 1177.59 -0.61694 0.55074 0
M  V30 12370 H 1180.13 -0.642088 1.57084 0
M  V30 12371 H 1178.9 -1.78271 3.48332 0
M  V30 12372 H 1178.53 -3.14158 2.43702 0
M  V30 12373 N 1179.52 -1.32087 -0.859693 0
M  V30 12374 C 1180.77 -1.22119 -1.61033 0
M  V30 12375 C 1181.09 0.218289 -1.93774 0
M  V30 12376 O 1180.36 1.14172 -1.5919 0
M  V30 12377 H 1178.94 -0.448989 -0.597008 0
M  V30 12378 H 1181.6 -1.65545 -1.02863 0
M  V30 12379 H 1180.7 -1.80023 -2.54947 0
M  V30 12380 N 1181 1.07532 -1.15215 0
M  V30 12381 C 1182.41 1.61567 -0.935568 0
M  V30 12382 C 1182.76 1.89085 0.523557 0
M  V30 12383 O 1181.89 1.65495 1.39429 0
M  V30 12384 C 1182.48 2.93531 -1.69189 0
M  V30 12385 C 1181.04 3.44316 -1.52063 0
M  V30 12386 C 1180.19 2.18404 -1.70866 0
M  V30 12387 H 1183.14 0.906431 -1.30267 0
M  V30 12388 H 1183.16 3.62377 -1.16031 0
M  V30 12389 H 1182.67 2.73471 -2.75381 0
M  V30 12390 H 1180.77 3.69462 -0.482567 0
M  V30 12391 H 1180.89 4.20478 -2.29642 0
M  V30 12392 H 1179.25 2.28012 -1.13502 0
M  V30 12393 H 1180.03 2.00841 -2.7842 0
M  V30 12394 N 1182.48 0.948665 1.2585 0
M  V30 12395 C 1183.44 0.468673 2.24357 0
M  V30 12396 C 1184.44 -0.424355 1.551 0
M  V30 12397 O 1185.63 -0.222481 1.72773 0
M  V30 12398 C 1182.77 -0.32359 3.39361 0
M  V30 12399 H 1183.96 1.33928 2.68334 0
M  V30 12400 H 1181.51 0.731357 1.38133 0
M  V30 12401 H 1182.25 -1.21212 3.00796 0
M  V30 12402 H 1182.03 0.316998 3.90816 0
M  V30 12403 H 1183.52 -0.649087 4.12525 0
M  V30 12404 N 1183.96 -1.40369 0.716545 0
M  V30 12405 C 1184.89 -2.33365 0.0793533 0
M  V30 12406 C 1185.87 -1.52943 -0.744482 0
M  V30 12407 O 1187.05 -1.81406 -0.693212 0
M  V30 12408 C 1184.18 -3.36928 -0.842429 0
M  V30 12409 C 1183.14 -4.2782 -0.124142 0
M  V30 12410 C 1182.46 -5.21928 -1.1617 0
M  V30 12411 C 1183.76 -5.12199 1.02224 0
M  V30 12412 H 1185.46 -2.86899 0.856115 0
M  V30 12413 H 1183 -1.37946 0.413138 0
M  V30 12414 H 1184.96 -4.00925 -1.29759 0
M  V30 12415 H 1183.68 -2.81791 -1.6511 0
M  V30 12416 H 1182.34 -3.65277 0.311201 0
M  V30 12417 H 1181.99 -4.63096 -1.96345 0
M  V30 12418 H 1181.69 -5.83582 -0.685978 0
M  V30 12419 H 1183.21 -5.88802 -1.61694 0
M  V30 12420 H 1184.63 -5.69644 0.646399 0
M  V30 12421 H 1183.02 -5.82901 1.4264 0
M  V30 12422 H 1184.09 -4.4812 1.85246 0
M  V30 12423 N 1185.44 -0.462799 -1.50652 0
M  V30 12424 C 1186.38 0.335664 -2.28346 0
M  V30 12425 C 1187.35 0.994541 -1.33034 0
M  V30 12426 O 1188.54 1.00857 -1.61964 0
M  V30 12427 C 1185.68 1.41648 -3.1469 0
M  V30 12428 C 1184.79 0.773207 -4.25024 0
M  V30 12429 C 1183.93 1.83121 -4.98638 0
M  V30 12430 C 1182.97 1.16774 -6.00858 0
M  V30 12431 N 1182.1 2.16823 -6.67782 0
M  V30 12432 H 1186.94 -0.333202 -2.96131 0
M  V30 12433 H 1184.48 -0.176166 -1.46041 0
M  V30 12434 H 1186.44 2.05468 -3.63096 0
M  V30 12435 H 1185.07 2.05462 -2.48968 0
M  V30 12436 H 1184.12 0.0226444 -3.80393 0
M  V30 12437 H 1185.43 0.249061 -4.98178 0
M  V30 12438 H 1184.59 2.54543 -5.5072 0
M  V30 12439 H 1183.32 2.38915 -4.25172 0
M  V30 12440 H 1182.33 0.439112 -5.48044 0
M  V30 12441 H 1183.55 0.616809 -6.76293 0
M  V30 12442 H 1181.5 2.71649 -5.97112 0
M  V30 12443 H 1181.42 1.69371 -7.36783 0
M  V30 12444 H 1182.69 2.8765 -7.24484 0
M  V30 12445 N 1186.91 1.56388 -0.195085 0
M  V30 12446 C 1187.86 2.19091 0.725793 0
M  V30 12447 C 1188.83 1.13814 1.20977 0
M  V30 12448 O 1190.02 1.42065 1.27366 0
M  V30 12449 C 1187.16 2.85427 1.93973 0
M  V30 12450 C 1186.27 4.05229 1.49712 0
M  V30 12451 C 1185.4 4.59421 2.66656 0
M  V30 12452 C 1184.44 5.71581 2.19001 0
M  V30 12453 N 1183.58 6.2018 3.29123 0
M  V30 12454 H 1188.42 2.97429 0.184334 0
M  V30 12455 H 1185.96 1.46886 0.0792434 0
M  V30 12456 H 1187.92 3.22057 2.65208 0
M  V30 12457 H 1186.55 2.09652 2.4545 0
M  V30 12458 H 1185.6 3.74261 0.680641 0
M  V30 12459 H 1186.91 4.8635 1.10749 0
M  V30 12460 H 1186.06 4.98357 3.46014 0
M  V30 12461 H 1184.8 3.77407 3.08893 0
M  V30 12462 H 1183.81 5.32174 1.38097 0
M  V30 12463 H 1185.03 6.55413 1.77795 0
M  V30 12464 H 1182.98 5.41088 3.70891 0
M  V30 12465 H 1182.9 6.96353 2.94328 0
M  V30 12466 H 1184.16 6.63769 4.08694 0
M  V30 12467 N 1188.39 -0.0785156 1.57404 0
M  V30 12468 C 1189.36 -1.07835 2.02248 0
M  V30 12469 C 1190.36 -1.31987 0.918475 0
M  V30 12470 O 1191.55 -1.27821 1.18353 0
M  V30 12471 C 1188.68 -2.42361 2.39737 0
M  V30 12472 H 1189.87 -0.691995 2.91807 0
M  V30 12473 H 1187.42 -0.32405 1.52904 0
M  V30 12474 H 1188.16 -2.85841 1.53183 0
M  V30 12475 H 1187.94 -2.26174 3.20293 0
M  V30 12476 H 1189.43 -3.14241 2.75031 0
M  V30 12477 N 1189.87 -1.5367 -0.349747 0
M  V30 12478 C 1191.15 -1.61238 -1.10732 0
M  V30 12479 C 1191.53 -0.429756 -2.06679 0
M  V30 12480 O 1190.88 0.578564 -2.21054 0
M  V30 12481 C 1191.09 -2.97022 -1.83245 0
M  V30 12482 C 1192.43 -3.52158 -2.37212 0
M  V30 12483 O 1193.46 -2.99156 -1.9335 0
M  V30 12484 O 1192.32 -4.44853 -3.1744 0
M  V30 12485 H 1189.41 -0.65191 -0.508864 0
M  V30 12486 H 1191.96 -1.66015 -0.351738 0
M  V30 12487 H 1190.73 -3.74535 -1.13311 0
M  V30 12488 H 1190.35 -2.95808 -2.65675 0
M  V30 12489 N 1191.35 0.610423 -1.45298 0
M  V30 12490 C 1192.59 1.37154 -1.49388 0
M  V30 12491 C 1192.93 1.93737 -0.134025 0
M  V30 12492 O 1192.2 1.74888 0.851138 0
M  V30 12493 C 1192.49 2.52155 -2.5708 0
M  V30 12494 C 1192.34 2.00786 -4.02498 0
M  V30 12495 C 1193.66 3.54294 -2.61082 0
M  V30 12496 H 1190.78 0.497346 -0.54389 0
M  V30 12497 H 1193.42 0.688358 -1.77092 0
M  V30 12498 H 1191.57 3.10434 -2.33587 0
M  V30 12499 H 1193.24 1.47178 -4.37191 0
M  V30 12500 H 1191.48 1.31809 -4.1329 0
M  V30 12501 H 1192.15 2.83674 -4.73533 0
M  V30 12502 H 1194.63 3.05851 -2.82125 0
M  V30 12503 H 1193.51 4.32254 -3.38301 0
M  V30 12504 H 1193.77 4.09726 -1.66063 0
M  V30 12505 N 1192.83 1.32541 0.852676 0
M  V30 12506 C 1194.07 1.22971 1.60383 0
M  V30 12507 C 1194.4 -0.208009 1.93887 0
M  V30 12508 O 1193.67 -1.13326 1.59794 0
M  V30 12509 H 1192.25 0.452149 0.594618 0
M  V30 12510 H 1194.91 1.66089 1.01983 0
M  V30 12511 H 1194 1.81373 2.53989 0
M  V30 12512 N 1194.3 -1.0692 1.15784 0
M  V30 12513 C 1195.55 -1.796 0.935429 0
M  V30 12514 C 1195.88 -1.86935 -0.537173 0
M  V30 12515 O 1195.13 -1.35244 -1.41448 0
M  V30 12516 C 1195.43 -3.24389 1.50022 0
M  V30 12517 C 1195.1 -3.37145 2.99406 0
M  V30 12518 C 1193.76 -3.40334 3.40186 0
M  V30 12519 C 1196.11 -3.39584 3.95389 0
M  V30 12520 C 1193.44 -3.43569 4.75581 0
M  V30 12521 C 1195.79 -3.44356 5.30661 0
M  V30 12522 C 1194.46 -3.45824 5.70931 0
M  V30 12523 H 1193.73 -0.657201 0.342298 0
M  V30 12524 H 1196.37 -1.25784 1.44397 0
M  V30 12525 H 1194.68 -3.81015 0.91297 0
M  V30 12526 H 1196.38 -3.79209 1.30389 0
M  V30 12527 H 1192.97 -3.35365 2.66887 0
M  V30 12528 H 1197.15 -3.36337 3.64954 0
M  V30 12529 H 1192.41 -3.43006 5.06119 0
M  V30 12530 H 1196.58 -3.4519 6.04828 0
M  V30 12531 H 1194.21 -3.48084 6.75826 0
M  V30 12532 N 1195.78 -0.955326 -1.25345 0
M  V30 12533 C 1196.75 -0.480564 -2.24105 0
M  V30 12534 C 1197.75 0.416123 -1.55322 0
M  V30 12535 O 1198.94 0.213315 -1.72889 0
M  V30 12536 C 1196.07 0.305589 -3.39528 0
M  V30 12537 H 1197.26 -1.35349 -2.6762 0
M  V30 12538 H 1194.81 -0.738673 -1.37744 0
M  V30 12539 H 1195.55 1.19615 -3.01434 0
M  V30 12540 H 1195.33 -0.337719 -3.90643 0
M  V30 12541 H 1196.82 0.627201 -4.12863 0
M  V30 12542 N 1197.26 1.39987 -0.723979 0
M  V30 12543 C 1198.19 2.28185 -0.0257726 0
M  V30 12544 C 1199.17 1.43795 0.75907 0
M  V30 12545 O 1200.36 1.73198 0.743948 0
M  V30 12546 C 1197.48 3.24489 0.970811 0
M  V30 12547 C 1196.53 4.25607 0.275778 0
M  V30 12548 S 1197.36 5.26035 -1.00237 0
M  V30 12549 C 1198.52 6.25899 -0.00809987 0
M  V30 12550 H 1198.75 2.87054 -0.773761 0
M  V30 12551 H 1196.28 1.45546 -0.515332 0
M  V30 12552 H 1198.24 3.80496 1.54055 0
M  V30 12553 H 1196.9 2.6466 1.69156 0
M  V30 12554 H 1196.1 4.93374 1.02946 0
M  V30 12555 H 1195.7 3.73343 -0.22163 0
M  V30 12556 H 1197.99 6.72323 0.835971 0
M  V30 12557 H 1198.93 7.05086 -0.652607 0
M  V30 12558 H 1199.34 5.63355 0.359377 0
M  V30 12559 N 1198.74 0.470782 1.50404 0
M  V30 12560 C 1199.99 -0.0841494 2.01925 0
M  V30 12561 C 1200.31 -1.40244 1.35487 0
M  V30 12562 O 1199.58 -1.89409 0.500111 0
M  V30 12563 H 1198.16 -0.0340884 0.746222 0
M  V30 12564 H 1200.82 0.621133 1.84738 0
M  V30 12565 H 1199.92 -0.235877 3.11207 0
M  V30 12566 N 1200.22 -1.56282 0.203376 0
M  V30 12567 C 1201.47 -1.96987 -0.433461 0
M  V30 12568 C 1201.78 -1.09344 -1.62183 0
M  V30 12569 O 1202.99 -1.39868 -2.327 0
M  V30 12570 C 1201.44 -3.50374 -0.82257 0
M  V30 12571 C 1201.05 -4.46693 0.341969 0
M  V30 12572 C 1202.79 -3.99831 -1.42603 0
M  V30 12573 C 1200.7 -5.9136 -0.0685608 0
M  V30 12574 H 1199.63 -0.735564 -0.165717 0
M  V30 12575 H 1202.28 -1.81085 0.296708 0
M  V30 12576 H 1200.66 -3.6181 -1.60964 0
M  V30 12577 H 1201.84 -4.46994 1.11952 0
M  V30 12578 H 1200.15 -4.07476 0.857463 0
M  V30 12579 H 1202.75 -5.05398 -1.74577 0
M  V30 12580 H 1203.09 -3.4462 -2.33544 0
M  V30 12581 H 1203.63 -3.91543 -0.702758 0
M  V30 12582 H 1200.36 -6.50515 0.80688 0
M  V30 12583 H 1199.88 -5.94295 -0.810798 0
M  V30 12584 H 1201.56 -6.45053 -0.501525 0
M  V30 12585 N 1201.7 0.070167 -1.57444 0
M  V30 12586 C 1202.66 1.06761 -2.02817 0
M  V30 12587 C 1203.66 1.31498 -0.925462 0
M  V30 12588 O 1204.85 1.27192 -1.19029 0
M  V30 12589 C 1201.98 2.41086 -2.41019 0
M  V30 12590 H 1203.17 0.67651 -2.9217 0
M  V30 12591 H 1200.73 0.315936 -1.53074 0
M  V30 12592 H 1201.46 2.85025 -1.54697 0
M  V30 12593 H 1201.25 2.24472 -3.21488 0
M  V30 12594 H 1202.74 3.12778 -2.76694 0
M  V30 12595 N 1203.17 1.53854 0.341593 0
M  V30 12596 C 1204.42 1.70856 1.07948 0
M  V30 12597 C 1204.74 0.475474 1.89114 0
M  V30 12598 O 1204.01 -0.510592 1.89129 0
M  V30 12599 H 1202.59 0.629914 0.401519 0
M  V30 12600 H 1205.25 1.91112 0.382393 0
M  V30 12601 H 1204.35 2.5803 1.75575 0
M  V30 12602 N 1204.65 -0.602709 1.4562 0
M  V30 12603 C 1205.88 -1.3881 1.53426 0
M  V30 12604 C 1206.29 -1.88046 0.16851 0
M  V30 12605 O 1205.65 -1.62493 -0.830791 0
M  V30 12606 C 1205.7 -2.58927 2.52268 0
M  V30 12607 O 1205.42 -2.11735 3.83536 0
M  V30 12608 C 1206.92 -3.51728 2.69819 0
M  V30 12609 H 1204.14 -0.424744 0.519455 0
M  V30 12610 H 1206.69 -0.73459 1.90851 0
M  V30 12611 H 1204.84 -3.20309 2.17902 0
M  V30 12612 H 1205.26 -2.89814 4.37159 0
M  V30 12613 H 1206.73 -4.32542 3.42945 0
M  V30 12614 H 1207.21 -4.02383 1.76024 0
M  V30 12615 H 1207.81 -2.96196 3.05202 0
M  V30 12616 N 1206.13 -1.32992 -0.845635 0
M  V30 12617 C 1207.41 -1.14671 -1.58461 0
M  V30 12618 C 1207.79 0.289498 -2.09106 0
M  V30 12619 O 1207.13 1.28751 -1.88773 0
M  V30 12620 C 1207.34 -2.18206 -2.72373 0
M  V30 12621 C 1208.69 -2.5201 -3.41726 0
M  V30 12622 O 1209.72 -2.16821 -2.82608 0
M  V30 12623 O 1208.58 -3.12368 -4.48429 0
M  V30 12624 H 1205.67 -0.443088 -0.698285 0
M  V30 12625 H 1208.22 -1.44552 -0.888978 0
M  V30 12626 H 1206.99 -3.14707 -2.32541 0
M  V30 12627 H 1206.61 -1.89372 -3.49605 0
M  V30 12628 N 1207.61 1.06304 -1.1635 0
M  V30 12629 C 1208.85 1.79366 -0.94634 0
M  V30 12630 C 1209.19 1.86981 0.524569 0
M  V30 12631 O 1208.46 1.36134 1.38917 0
M  V30 12632 C 1208.74 3.23861 -1.57436 0
M  V30 12633 C 1208.6 3.24327 -3.1166 0
M  V30 12634 C 1209.92 4.21409 -1.26895 0
M  V30 12635 H 1207.04 0.65115 -0.345215 0
M  V30 12636 H 1209.68 1.24325 -1.43678 0
M  V30 12637 H 1207.83 3.70862 -1.15731 0
M  V30 12638 H 1209.5 2.85488 -3.62346 0
M  V30 12639 H 1207.74 2.62983 -3.44997 0
M  V30 12640 H 1208.41 4.2626 -3.50723 0
M  V30 12641 H 1210.89 3.8285 -1.62989 0
M  V30 12642 H 1209.77 5.20778 -1.73439 0
M  V30 12643 H 1210.03 4.41701 -0.187768 0
M  V30 12644 N 1209.09 0.96196 1.24836 0
M  V30 12645 C 1210.05 0.492443 2.23847 0
M  V30 12646 C 1211.05 -0.40788 1.55541 0
M  V30 12647 O 1212.24 -0.204143 1.73 0
M  V30 12648 C 1209.37 -0.287578 3.39685 0
M  V30 12649 H 1210.56 1.36767 2.66899 0
M  V30 12650 H 1208.12 0.745967 1.3735 0
M  V30 12651 H 1208.85 -1.18015 3.02064 0
M  V30 12652 H 1208.64 0.358431 3.90458 0
M  V30 12653 H 1210.13 -0.605297 4.1319 0
M  V30 12654 N 1210.56 -1.39601 0.731392 0
M  V30 12655 C 1211.51 -2.30628 0.0890606 0
M  V30 12656 C 1212.48 -1.49025 -0.73353 0
M  V30 12657 O 1213.67 -1.77722 -0.694234 0
M  V30 12658 C 1210.81 -3.35339 -0.814956 0
M  V30 12659 C 1209.92 -4.31995 0.0198606 0
M  V30 12660 C 1209.05 -5.23774 -0.885095 0
M  V30 12661 C 1208.09 -6.12083 -0.045311 0
M  V30 12662 N 1207.23 -6.9623 -0.906002 0
M  V30 12663 H 1212.07 -2.84988 0.870958 0
M  V30 12664 H 1209.61 -1.40329 0.441166 0
M  V30 12665 H 1211.56 -3.94634 -1.3535 0
M  V30 12666 H 1210.19 -2.82443 -1.56287 0
M  V30 12667 H 1209.25 -3.74349 0.675778 0
M  V30 12668 H 1210.56 -4.94289 0.669346 0
M  V30 12669 H 1209.71 -5.88078 -1.49161 0
M  V30 12670 H 1208.45 -4.61794 -1.56837 0
M  V30 12671 H 1207.46 -5.46795 0.574028 0
M  V30 12672 H 1208.68 -6.76128 0.634692 0
M  V30 12673 H 1206.63 -6.36821 -1.57463 0
M  V30 12674 H 1206.54 -7.55352 -0.312914 0
M  V30 12675 H 1207.81 -7.64967 -1.49819 0
M  V30 12676 N 1212.04 -0.478751 -1.50152 0
M  V30 12677 C 1212.95 0.316554 -2.32455 0
M  V30 12678 C 1213.97 0.98871 -1.4318 0
M  V30 12679 O 1215.14 0.974998 -1.76226 0
M  V30 12680 C 1212.21 1.3799 -3.18056 0
M  V30 12681 C 1211.27 0.723534 -4.23159 0
M  V30 12682 C 1210.5 1.73621 -5.0467 0
M  V30 12683 O 1210.73 2.96362 -4.87366 0
M  V30 12684 O 1209.66 1.30381 -5.87609 0
M  V30 12685 H 1213.49 -0.356491 -3.016 0
M  V30 12686 H 1211.07 -0.24046 -1.47452 0
M  V30 12687 H 1212.95 1.99565 -3.71149 0
M  V30 12688 H 1211.63 2.03627 -2.5163 0
M  V30 12689 H 1210.54 0.0686296 -3.74037 0
M  V30 12690 H 1211.87 0.109979 -4.92077 0
M  V30 12691 N 1213.52 1.56172 -0.211661 0
M  V30 12692 C 1214.48 2.18602 0.688906 0
M  V30 12693 C 1215.48 1.14508 1.12892 0
M  V30 12694 O 1216.67 1.39799 1.03932 0
M  V30 12695 C 1213.81 2.80141 1.94253 0
M  V30 12696 H 1215 2.9955 0.144765 0
M  V30 12697 H 1212.55 1.56254 0.0379615 0
M  V30 12698 H 1213.29 2.03035 2.52878 0
M  V30 12699 H 1213.07 3.56358 1.63558 0
M  V30 12700 H 1214.56 3.28026 2.58436 0
M  V30 12701 N 1215 -0.0618163 1.57479 0
M  V30 12702 C 1216.22 -0.775513 1.92355 0
M  V30 12703 C 1216.65 -1.69816 0.808949 0
M  V30 12704 O 1216.01 -1.79736 -0.23761 0
M  V30 12705 C 1216.05 -1.5367 3.26218 0
M  V30 12706 O 1215.16 -2.64802 3.16155 0
M  V30 12707 H 1214.5 -0.210909 0.629614 0
M  V30 12708 H 1217.03 -0.0270752 2.04582 0
M  V30 12709 H 1217.04 -1.91379 3.6033 0
M  V30 12710 H 1215.71 -0.859798 4.06916 0
M  V30 12711 H 1214.29 -2.29876 2.93618 0
M  V30 12712 N 1216.48 -1.54033 -0.333429 0
M  V30 12713 C 1217.75 -1.62404 -1.09015 0
M  V30 12714 C 1218.13 -0.451653 -2.06212 0
M  V30 12715 O 1217.48 0.555086 -2.21655 0
M  V30 12716 C 1217.69 -2.98949 -1.80085 0
M  V30 12717 C 1219.04 -3.54655 -2.33464 0
M  V30 12718 O 1220.06 -3.0119 -1.90166 0
M  V30 12719 O 1218.92 -4.48195 -3.12703 0
M  V30 12720 H 1216.02 -0.65727 -0.501921 0
M  V30 12721 H 1218.56 -1.66378 -0.33411 0
M  V30 12722 H 1217.33 -3.75716 -1.09332 0
M  V30 12723 H 1216.96 -2.98609 -2.62523 0
M  V30 12724 N 1217.95 0.594978 -1.45938 0
M  V30 12725 C 1219.2 1.34976 -1.49881 0
M  V30 12726 C 1219.52 1.95025 -0.14983 0
M  V30 12727 O 1220.72 2.71417 -0.0669868 0
M  V30 12728 C 1219.18 2.44563 -2.6404 0
M  V30 12729 C 1218.79 1.9087 -4.05306 0
M  V30 12730 C 1220.53 3.21461 -2.77242 0
M  V30 12731 C 1218.44 2.98013 -5.10825 0
M  V30 12732 H 1217.37 0.507366 -0.55776 0
M  V30 12733 H 1220.02 0.636316 -1.72114 0
M  V30 12734 H 1218.4 3.1865 -2.35114 0
M  V30 12735 H 1219.57 1.23408 -4.43968 0
M  V30 12736 H 1217.89 1.26678 -3.96663 0
M  V30 12737 H 1220.49 4.01399 -3.53246 0
M  V30 12738 H 1220.83 3.73271 -1.84321 0
M  V30 12739 H 1221.36 2.54477 -3.05756 0
M  V30 12740 H 1218.1 2.51104 -6.05497 0
M  V30 12741 H 1217.62 3.64003 -4.7672 0
M  V30 12742 H 1219.3 3.62178 -5.36131 0
M  V30 12743 N 1219.43 1.33438 0.838571 0
M  V30 12744 C 1220.68 1.24259 1.58879 0
M  V30 12745 C 1220.99 -0.189957 1.94675 0
M  V30 12746 O 1222.2 -0.40376 2.68481 0
M  V30 12747 C 1220.66 2.1773 2.86569 0
M  V30 12748 C 1220.26 3.66156 2.58135 0
M  V30 12749 C 1222.01 2.17424 3.64591 0
M  V30 12750 C 1219.92 4.5154 3.81923 0
M  V30 12751 H 1218.85 0.461534 0.59624 0
M  V30 12752 H 1221.5 1.58504 0.924588 0
M  V30 12753 H 1219.88 1.76418 3.54532 0
M  V30 12754 H 1221.05 4.1591 1.98382 0
M  V30 12755 H 1219.37 3.68754 1.93416 0
M  V30 12756 H 1221.96 2.78446 4.56478 0
M  V30 12757 H 1222.31 1.16939 3.99539 0
M  V30 12758 H 1222.84 2.571 3.03553 0
M  V30 12759 H 1219.58 5.52902 3.52107 0
M  V30 12760 H 1219.1 4.06529 4.41015 0
M  V30 12761 H 1220.78 4.65359 4.495 0
M  V30 12762 N 1220.91 -1.05686 1.16912 0
M  V30 12763 C 1221.84 -2.15268 0.904532 0
M  V30 12764 C 1222.82 -1.69424 -0.151548 0
M  V30 12765 O 1224.01 -1.942 -0.00235371 0
M  V30 12766 C 1221.14 -3.44853 0.411581 0
M  V30 12767 C 1220.09 -4.04237 1.40628 0
M  V30 12768 C 1219.42 -5.29105 0.771479 0
M  V30 12769 C 1220.72 -4.42303 2.77787 0
M  V30 12770 H 1222.41 -2.37659 1.82094 0
M  V30 12771 H 1219.96 -1.14217 0.876947 0
M  V30 12772 H 1221.91 -4.20857 0.213929 0
M  V30 12773 H 1220.63 -3.22099 -0.540352 0
M  V30 12774 H 1219.29 -3.30297 1.59058 0
M  V30 12775 H 1218.94 -5.02652 -0.187133 0
M  V30 12776 H 1218.64 -5.69797 1.43545 0
M  V30 12777 H 1220.16 -6.07801 0.583988 0
M  V30 12778 H 1221.58 -5.09362 2.63103 0
M  V30 12779 H 1219.98 -4.93997 3.40716 0
M  V30 12780 H 1221.05 -3.52877 3.32575 0
M  V30 12781 N 1222.39 -0.968567 -1.24324 0
M  V30 12782 C 1223.62 -0.648568 -1.96472 0
M  V30 12783 C 1224.03 0.782168 -1.71836 0
M  V30 12784 O 1223.39 1.5249 -1.00265 0
M  V30 12785 C 1223.44 -0.91482 -3.49733 0
M  V30 12786 O 1223.16 -2.28931 -3.73527 0
M  V30 12787 C 1224.66 -0.609131 -4.39095 0
M  V30 12788 H 1221.88 -0.241921 -0.625872 0
M  V30 12789 H 1224.43 -1.29673 -1.5813 0
M  V30 12790 H 1222.58 -0.31285 -3.86135 0
M  V30 12791 H 1222.99 -2.36998 -4.67902 0
M  V30 12792 H 1224.47 -0.845875 -5.4548 0
M  V30 12793 H 1224.95 0.456625 -4.3682 0
M  V30 12794 H 1225.55 -1.19105 -4.08282 0
M  V30 12795 N 1223.87 1.39211 -0.738786 0
M  V30 12796 C 1225.14 1.9442 -0.214533 0
M  V30 12797 C 1225.52 1.67528 1.28443 0
M  V30 12798 O 1224.87 1.0056 2.05183 0
M  V30 12799 C 1225.08 3.44603 -0.552232 0
M  V30 12800 C 1226.43 4.21602 -0.503663 0
M  V30 12801 O 1227.45 3.52819 -0.489647 0
M  V30 12802 O 1226.31 5.44194 -0.50153 0
M  V30 12803 H 1223.41 0.826011 -0.0404247 0
M  V30 12804 H 1225.95 1.48689 -0.817902 0
M  V30 12805 H 1224.72 3.57626 -1.58806 0
M  V30 12806 H 1224.35 3.9752 0.0799096 0
M  V30 12807 N 1225.34 0.486708 1.49896 0
M  V30 12808 C 1226.62 -0.125183 1.95199 0
M  V30 12809 C 1227 -1.55498 1.42771 0
M  V30 12810 O 1226.35 -2.1949 0.635322 0
M  V30 12811 C 1226.56 -0.0524982 3.48961 0
M  V30 12812 C 1227.91 -0.233595 4.23957 0
M  V30 12813 O 1228.93 -0.128357 3.55969 0
M  V30 12814 O 1227.79 -0.447862 5.44662 0
M  V30 12815 H 1224.88 -0.103141 0.820543 0
M  V30 12816 H 1227.43 0.548226 1.60601 0
M  V30 12817 H 1226.2 0.945163 3.79714 0
M  V30 12818 H 1225.83 -0.766683 3.90138 0
M  V30 12819 N 1226.82 -1.56058 0.219941 0
M  V30 12820 C 1227.77 -2.21585 -0.707321 0
M  V30 12821 C 1228.77 -1.19473 -1.20094 0
M  V30 12822 O 1229.97 -1.37557 -1.16095 0
M  V30 12823 H 1226.35 -0.710447 -0.246515 0
M  V30 12824 H 1228.32 -2.98111 -0.131214 0
M  V30 12825 C 1227.07 -2.90841 -1.90544 0
M  V30 12826 H 1226.39 -3.6917 -1.53472 0
M  V30 12827 H 1227.83 -3.40092 -2.53206 0
M  V30 12828 C 1226.29 -1.93223 -2.75983 0
M  V30 12829 O 1226.82 -1.44815 -3.74689 0
M  V30 12830 N 1225.02 -1.60907 -2.41986 0
M  V30 12831 H 1224.57 -2.00467 -1.61774 0
M  V30 12832 H 1224.53 -0.958534 -2.99432 0
M  V30 12833 N 1228.3 0.053464 -1.57509 0
M  V30 12834 C 1229.55 0.749102 -1.88135 0
M  V30 12835 C 1229.88 1.76642 -0.814111 0
M  V30 12836 O 1229.13 1.94796 0.187845 0
M  V30 12837 C 1229.43 1.47666 -3.25468 0
M  V30 12838 C 1229.1 0.597619 -4.46922 0
M  V30 12839 C 1227.76 0.355429 -4.79886 0
M  V30 12840 C 1230.11 -0.0107869 -5.21199 0
M  V30 12841 C 1227.44 -0.504347 -5.84528 0
M  V30 12842 C 1229.79 -0.858123 -6.26753 0
M  V30 12843 C 1228.45 -1.11001 -6.58206 0
M  V30 12844 H 1227.72 0.274116 -0.688434 0
M  V30 12845 H 1230.37 0.00944162 -1.91498 0
M  V30 12846 H 1228.68 2.28901 -3.1798 0
M  V30 12847 H 1230.37 2.02002 -3.46404 0
M  V30 12848 H 1226.96 0.796526 -4.21134 0
M  V30 12849 H 1231.15 0.163404 -4.96031 0
M  V30 12850 H 1226.4 -0.708057 -6.07286 0
M  V30 12851 H 1230.58 -1.3362 -6.83461 0
M  V30 12852 H 1228.2 -1.77798 -7.39116 0
M  V30 12853 N 1229.78 1.54207 0.325255 0
M  V30 12854 C 1231.01 1.76293 1.08298 0
M  V30 12855 C 1231.42 0.510722 1.81761 0
M  V30 12856 O 1230.78 -0.5185 1.7498 0
M  V30 12857 C 1230.83 2.95498 2.08238 0
M  V30 12858 O 1230.55 4.15877 1.37759 0
M  V30 12859 C 1232.05 3.29781 2.96242 0
M  V30 12860 H 1229.27 0.588576 0.322209 0
M  V30 12861 H 1231.82 2.0109 0.371896 0
M  V30 12862 H 1229.97 2.72979 2.74884 0
M  V30 12863 H 1230.39 4.82918 2.04672 0
M  V30 12864 H 1231.86 4.16495 3.62265 0
M  V30 12865 H 1232.34 2.46874 3.63249 0
M  V30 12866 H 1232.94 3.54372 2.3516 0
M  V30 12867 N 1231.26 -0.58723 1.46251 0
M  V30 12868 C 1232.48 -1.37661 1.55126 0
M  V30 12869 C 1232.91 -1.87123 0.191489 0
M  V30 12870 O 1232.27 -1.6131 -0.827576 0
M  V30 12871 C 1232.31 -2.54324 2.5564 0
M  V30 12872 O 1231.42 -3.55617 2.0883 0
M  V30 12873 H 1230.76 -0.410154 0.522178 0
M  V30 12874 H 1233.29 -0.712738 1.91784 0
M  V30 12875 H 1233.3 -3.01301 2.75103 0
M  V30 12876 H 1231.97 -2.17675 3.54387 0
M  V30 12877 H 1230.55 -3.15151 1.99335 0
M  V30 12878 N 1232.74 -1.33881 -0.831482 0
M  V30 12879 C 1233.98 -1.251 -1.58218 0
M  V30 12880 C 1234.3 0.17963 -1.94773 0
M  V30 12881 O 1235.5 0.389516 -2.68691 0
M  V30 12882 C 1233.96 -2.19246 -2.8541 0
M  V30 12883 C 1233.57 -3.6752 -2.5619 0
M  V30 12884 C 1235.31 -2.19355 -3.63433 0
M  V30 12885 C 1233.22 -4.53559 -3.79523 0
M  V30 12886 H 1232.15 -0.46469 -0.593784 0
M  V30 12887 H 1234.8 -1.58992 -0.916169 0
M  V30 12888 H 1233.18 -1.78295 -3.53591 0
M  V30 12889 H 1234.36 -4.16956 -1.96173 0
M  V30 12890 H 1232.67 -3.69774 -1.91458 0
M  V30 12891 H 1235.27 -2.80863 -4.54995 0
M  V30 12892 H 1235.61 -1.19056 -3.98913 0
M  V30 12893 H 1236.14 -2.58706 -3.02185 0
M  V30 12894 H 1232.88 -5.54762 -3.4917 0
M  V30 12895 H 1232.4 -4.08862 -4.38853 0
M  V30 12896 H 1234.08 -4.67736 -4.47025 0
M  V30 12897 N 1234.21 1.05064 -1.1747 0
M  V30 12898 C 1235.46 1.78352 -0.965311 0
M  V30 12899 C 1235.79 1.87527 0.504707 0
M  V30 12900 O 1235.07 1.376 1.37465 0
M  V30 12901 C 1235.35 3.22173 -1.60862 0
M  V30 12902 C 1235.2 3.21003 -3.15083 0
M  V30 12903 C 1236.52 4.2004 -1.31358 0
M  V30 12904 H 1233.64 0.647452 -0.352101 0
M  V30 12905 H 1236.28 1.22794 -1.44988 0
M  V30 12906 H 1234.43 3.69613 -1.19658 0
M  V30 12907 H 1236.11 2.81629 -3.65353 0
M  V30 12908 H 1234.35 2.59309 -3.47766 0
M  V30 12909 H 1235.02 4.22516 -3.55224 0
M  V30 12910 H 1237.5 3.81099 -1.6704 0
M  V30 12911 H 1236.37 5.1891 -1.78953 0
M  V30 12912 H 1236.63 4.41477 -0.234606 0
M  V30 12913 N 1235.69 0.975146 1.23809 0
M  V30 12914 C 1236.64 0.510761 2.25077 0
M  V30 12915 C 1237.61 -0.447605 1.59955 0
M  V30 12916 O 1238.79 -0.356318 1.87443 0
M  V30 12917 C 1235.93 -0.185755 3.446 0
M  V30 12918 C 1235.05 0.812254 4.24295 0
M  V30 12919 C 1234.18 0.0910835 5.31122 0
M  V30 12920 C 1233.22 1.07866 6.02521 0
M  V30 12921 N 1232.36 0.386995 7.01033 0
M  V30 12922 H 1237.2 1.37913 2.64166 0
M  V30 12923 H 1234.73 0.691184 1.2985 0
M  V30 12924 H 1236.69 -0.606341 4.1277 0
M  V30 12925 H 1235.32 -1.01803 3.06327 0
M  V30 12926 H 1234.37 1.35125 3.55592 0
M  V30 12927 H 1235.69 1.56502 4.73612 0
M  V30 12928 H 1234.84 -0.387129 6.05464 0
M  V30 12929 H 1233.58 -0.694324 4.82732 0
M  V30 12930 H 1232.58 1.56767 5.26976 0
M  V30 12931 H 1233.81 1.86464 6.52999 0
M  V30 12932 H 1231.76 -0.3793 6.54903 0
M  V30 12933 H 1231.67 1.0785 7.48268 0
M  V30 12934 H 1232.94 -0.0690036 7.79469 0
M  V30 12935 N 1237.17 -1.38817 0.746158 0
M  V30 12936 C 1238.13 -2.28876 0.121886 0
M  V30 12937 C 1239.13 -1.46838 -0.655379 0
M  V30 12938 O 1240.32 -1.67377 -0.482744 0
M  V30 12939 C 1237.45 -3.30487 -0.836118 0
M  V30 12940 H 1238.65 -2.85586 0.915453 0
M  V30 12941 H 1236.2 -1.47652 0.512691 0
M  V30 12942 H 1236.94 -2.78853 -1.65563 0
M  V30 12943 H 1236.72 -3.9109 -0.281271 0
M  V30 12944 H 1238.21 -3.97848 -1.26914 0
M  V30 12945 N 1238.65 -0.49465 -1.49636 0
M  V30 12946 C 1239.89 0.0521945 -2.02733 0
M  V30 12947 C 1240.23 1.3723 -1.37411 0
M  V30 12948 O 1239.5 1.87758 -0.507642 0
M  V30 12949 C 1239.78 0.2114 -3.59479 0
M  V30 12950 C 1239.64 -1.13138 -4.35339 0
M  V30 12951 C 1240.96 0.955015 -4.29613 0
M  V30 12952 H 1238.08 0.0174946 -0.736792 0
M  V30 12953 H 1240.72 -0.644827 -1.78723 0
M  V30 12954 H 1238.87 0.805078 -3.80067 0
M  V30 12955 H 1240.54 -1.76345 -4.26263 0
M  V30 12956 H 1238.78 -1.72224 -3.98147 0
M  V30 12957 H 1239.45 -0.97336 -5.4335 0
M  V30 12958 H 1241.93 0.451575 -4.13642 0
M  V30 12959 H 1240.81 1.03524 -5.39049 0
M  V30 12960 H 1241.07 1.99724 -3.94414 0
M  V30 12961 N 1240.13 1.55939 -0.228214 0
M  V30 12962 C 1241.06 2.16566 0.719321 0
M  V30 12963 C 1242.04 1.11204 1.18627 0
M  V30 12964 O 1243.22 1.39495 1.2678 0
M  V30 12965 C 1240.35 2.75132 1.97536 0
M  V30 12966 C 1239.39 3.93381 1.64783 0
M  V30 12967 S 1240.23 5.29982 0.76678 0
M  V30 12968 C 1241.38 5.91989 2.03223 0
M  V30 12969 H 1241.62 2.96599 0.204035 0
M  V30 12970 H 1239.15 1.54395 -0.0128406 0
M  V30 12971 H 1241.11 3.09512 2.69652 0
M  V30 12972 H 1239.77 1.95079 2.46176 0
M  V30 12973 H 1238.96 4.32884 2.58122 0
M  V30 12974 H 1238.56 3.60181 1.00724 0
M  V30 12975 H 1240.85 6.08368 2.98152 0
M  V30 12976 H 1241.8 6.87858 1.68099 0
M  V30 12977 H 1242.21 5.20883 2.1758 0
M  V30 12978 N 1241.6 -0.0451101 1.57535 0
M  V30 12979 C 1242.85 -0.734819 1.89663 0
M  V30 12980 C 1243.21 -1.73814 0.82502 0
M  V30 12981 O 1242.5 -1.90861 -0.168067 0
M  V30 12982 C 1242.69 -1.45938 3.26247 0
M  V30 12983 C 1242.52 -0.52775 4.46593 0
M  V30 12984 C 1241.29 -0.154735 5.05063 0
M  V30 12985 C 1243.49 0.187025 5.1396 0
M  V30 12986 N 1241.47 0.77983 6.08927 0
M  V30 12987 C 1242.84 0.977812 6.12241 0
M  V30 12988 C 1244.9 0.255673 4.97243 0
M  V30 12989 C 1243.6 1.83091 6.95608 0
M  V30 12990 C 1245.63 1.09584 5.81159 0
M  V30 12991 C 1244.99 1.8746 6.78998 0
M  V30 12992 H 1241.09 -0.243486 0.743128 0
M  V30 12993 H 1243.67 0.00462003 1.94699 0
M  V30 12994 H 1241.84 -2.16938 3.22169 0
M  V30 12995 H 1243.57 -2.10021 3.45938 0
M  V30 12996 H 1240.33 -0.513447 4.70809 0
M  V30 12997 H 1240.75 1.24114 6.65526 0
M  V30 12998 H 1245.4 -0.332093 4.21494 0
M  V30 12999 H 1243.11 2.42954 7.70713 0
M  V30 13000 H 1246.7 1.15228 5.70275 0
M  V30 13001 H 1245.58 2.51422 7.42803 0
M  V30 13002 N 1243.08 -1.54377 -0.317073 0
M  V30 13003 C 1244.33 -1.72551 -1.05216 0
M  V30 13004 C 1244.65 -0.5055 -1.88334 0
M  V30 13005 O 1243.92 0.480439 -1.89917 0
M  V30 13006 H 1242.5 -0.636222 -0.391447 0
M  V30 13007 H 1245.16 -1.91696 -0.35194 0
M  V30 13008 H 1244.26 -2.60791 -1.71448 0
M  V30 13009 N 1244.56 0.579466 -1.4656 0
M  V30 13010 C 1245.98 0.903163 -1.31587 0
M  V30 13011 C 1246.18 1.99406 -0.28972 0
M  V30 13012 O 1245.23 2.50632 0.30658 0
M  V30 13013 C 1246.55 1.31745 -2.70303 0
M  V30 13014 C 1248.09 1.43012 -2.78418 0
M  V30 13015 C 1248.57 1.87805 -4.17724 0
M  V30 13016 N 1250.06 1.94993 -4.20157 0
M  V30 13017 C 1250.79 2.30934 -5.2484 0
M  V30 13018 N 1250.29 2.65645 -6.39847 0
M  V30 13019 N 1252.08 2.31517 -5.12207 0
M  V30 13020 H 1244.23 -0.141111 -2.11931 0
M  V30 13021 H 1246.5 -0.000460304 -0.948 0
M  V30 13022 H 1246.2 0.589864 -3.46718 0
M  V30 13023 H 1246.08 2.2783 -3.00622 0
M  V30 13024 H 1248.46 2.14856 -2.02289 0
M  V30 13025 H 1248.55 0.451701 -2.5178 0
M  V30 13026 H 1248.19 1.16539 -4.94349 0
M  V30 13027 H 1248.12 2.86611 -4.41771 0
M  V30 13028 H 1250.61 1.70645 -3.37178 0
M  V30 13029 H 1250.92 2.92032 -7.15498 0
M  V30 13030 H 1249.27 2.63276 -6.43204 0
M  V30 13031 H 1252.46 2.03824 -4.21394 0
M  V30 13032 H 1252.63 2.59199 -5.93902 0
M  V30 13033 N 1246.04 1.3432 0.824371 0
M  V30 13034 C 1246.99 1.2578 1.95658 0
M  V30 13035 C 1247.98 0.156199 1.68678 0
M  V30 13036 O 1249.19 0.321081 1.77113 0
M  V30 13037 H 1245.56 0.390711 0.642533 0
M  V30 13038 H 1247.53 2.21471 1.99983 0
M  V30 13039 C 1246.28 1.02865 3.32136 0
M  V30 13040 H 1245.6 1.86863 3.53443 0
M  V30 13041 H 1247.04 1.00925 4.11813 0
M  V30 13042 C 1245.5 -0.268097 3.35832 0
M  V30 13043 O 1246.03 -1.26995 3.81097 0
M  V30 13044 N 1244.24 -0.300702 2.8904 0
M  V30 13045 H 1243.79 0.51515 2.52396 0
M  V30 13046 H 1243.74 -1.16811 2.91895 0
M  V30 13047 N 1247.52 -1.0444 1.18026 0
M  V30 13048 C 1248.76 -1.77838 0.974756 0
M  V30 13049 C 1249.1 -1.87792 -0.494755 0
M  V30 13050 O 1248.37 -1.38327 -1.36733 0
M  V30 13051 C 1248.65 -3.21315 1.62569 0
M  V30 13052 C 1248.51 -3.19327 3.16781 0
M  V30 13053 C 1249.83 -4.19337 1.33583 0
M  V30 13054 H 1246.94 -0.645575 0.35553 0
M  V30 13055 H 1249.59 -1.22023 1.45638 0
M  V30 13056 H 1247.74 -3.68974 1.21617 0
M  V30 13057 H 1249.41 -2.79687 3.66842 0
M  V30 13058 H 1247.65 -2.57461 3.49137 0
M  V30 13059 H 1248.32 -4.20626 3.5746 0
M  V30 13060 H 1250.8 -3.80208 1.69059 0
M  V30 13061 H 1249.67 -5.17953 1.81702 0
M  V30 13062 H 1249.94 -4.41346 0.258016 0
M  V30 13063 N 1248.99 -0.981699 -1.2329 0
M  V30 13064 C 1250.22 -0.668399 -1.95489 0
M  V30 13065 C 1250.63 0.768976 -1.72868 0
M  V30 13066 O 1249.98 1.52925 -1.01783 0
M  V30 13067 C 1250.04 -0.880535 -3.4855 0
M  V30 13068 C 1249.7 -2.30023 -3.9489 0
M  V30 13069 C 1250.7 -3.27899 -4.03458 0
M  V30 13070 C 1248.38 -2.63167 -4.27842 0
M  V30 13071 C 1250.38 -4.56999 -4.44332 0
M  V30 13072 C 1248.06 -3.92489 -4.68397 0
M  V30 13073 C 1249.06 -4.89216 -4.76609 0
M  V30 13074 O 1248.75 -6.16229 -5.16253 0
M  V30 13075 H 1248.48 -0.247255 -0.629159 0
M  V30 13076 H 1251.04 -1.31606 -1.57699 0
M  V30 13077 H 1249.27 -0.175698 -3.86301 0
M  V30 13078 H 1250.96 -0.564198 -4.0196 0
M  V30 13079 H 1251.72 -3.03624 -3.78203 0
M  V30 13080 H 1247.6 -1.88588 -4.20661 0
M  V30 13081 H 1251.14 -5.32498 -4.50656 0
M  V30 13082 H 1247.04 -4.16558 -4.93102 0
M  V30 13083 H 1247.81 -6.20001 -5.34361 0
M  V30 13084 N 1250.47 1.3842 -0.753509 0
M  V30 13085 C 1251.75 1.94181 -0.235142 0
M  V30 13086 C 1252.13 1.68881 1.26659 0
M  V30 13087 O 1251.48 1.02731 2.04104 0
M  V30 13088 C 1251.69 3.43998 -0.588751 0
M  V30 13089 C 1253.04 4.21044 -0.548352 0
M  V30 13090 O 1254.06 3.52279 -0.52704 0
M  V30 13091 O 1252.92 5.43631 -0.559221 0
M  V30 13092 H 1250.01 0.825536 -0.0491834 0
M  V30 13093 H 1252.56 1.47813 -0.833626 0
M  V30 13094 H 1251.33 3.55921 -1.6259 0
M  V30 13095 H 1250.95 3.97582 0.0377429 0
M  V30 13096 N 1251.95 0.502579 1.49372 0
M  V30 13097 C 1253.18 -0.0403087 2.07361 0
M  V30 13098 C 1253.6 -1.29918 1.36026 0
M  V30 13099 O 1252.96 -1.76428 0.417488 0
M  V30 13100 C 1253.01 -0.275362 3.59547 0
M  V30 13101 O 1252.11 -1.34975 3.89686 0
M  V30 13102 H 1251.45 0.0269268 0.663454 0
M  V30 13103 H 1253.98 0.702652 1.92156 0
M  V30 13104 H 1253.99 -0.506392 4.04845 0
M  V30 13105 H 1252.67 0.644382 4.10878 0
M  V30 13106 H 1251.24 -1.10355 3.56197 0
M  V30 13107 N 1253.43 -1.55816 0.23648 0
M  V30 13108 C 1254.68 -1.97862 -0.391579 0
M  V30 13109 C 1254.99 -1.1276 -1.59827 0
M  V30 13110 O 1256.2 -1.44772 -2.29681 0
M  V30 13111 C 1254.65 -3.5204 -0.748065 0
M  V30 13112 C 1254.26 -4.45867 0.436643 0
M  V30 13113 C 1256 -4.02766 -1.3409 0
M  V30 13114 C 1253.91 -5.91373 0.0568909 0
M  V30 13115 H 1252.84 -0.738913 -0.150078 0
M  V30 13116 H 1255.49 -1.80415 0.335052 0
M  V30 13117 H 1253.87 -3.65143 -1.53254 0
M  V30 13118 H 1255.05 -4.44519 1.21408 0
M  V30 13119 H 1253.36 -4.05565 0.943702 0
M  V30 13120 H 1255.96 -5.08987 -1.63817 0
M  V30 13121 H 1256.3 -3.49496 -2.26182 0
M  V30 13122 H 1256.84 -3.92946 -0.619548 0
M  V30 13123 H 1253.58 -6.48657 0.944682 0
M  V30 13124 H 1253.1 -5.95881 -0.684557 0
M  V30 13125 H 1254.77 -6.45972 -0.364586 0
M  V30 13126 N 1254.91 0.036755 -1.57557 0
M  V30 13127 C 1256.13 0.744813 -1.93565 0
M  V30 13128 C 1256.56 1.68508 -0.835863 0
M  V30 13129 O 1255.91 1.80091 0.208986 0
M  V30 13130 C 1255.96 1.48461 -3.28621 0
M  V30 13131 O 1255.07 2.59739 -3.20327 0
M  V30 13132 H 1254.41 0.200866 -0.632889 0
M  V30 13133 H 1256.94 -0.00547543 -2.04599 0
M  V30 13134 H 1256.95 1.85622 -3.63329 0
M  V30 13135 H 1255.62 0.794953 -4.08232 0
M  V30 13136 H 1254.2 2.25176 -2.97237 0
M  V30 13137 N 1256.39 1.54543 0.308881 0
M  V30 13138 C 1257.33 1.84949 1.38067 0
M  V30 13139 C 1258.3 0.697746 1.50734 0
M  V30 13140 O 1259.49 0.94561 1.65719 0
M  V30 13141 C 1256.63 2.09544 2.74199 0
M  V30 13142 C 1255.74 3.37193 2.70046 0
M  V30 13143 C 1254.88 3.51672 3.98121 0
M  V30 13144 C 1253.91 4.73143 3.88333 0
M  V30 13145 N 1253.05 4.84469 5.08167 0
M  V30 13146 H 1257.89 2.76379 1.11438 0
M  V30 13147 H 1255.43 1.36863 0.539153 0
M  V30 13148 H 1257.39 2.21798 3.53358 0
M  V30 13149 H 1256.02 1.21389 2.99106 0
M  V30 13150 H 1255.07 3.33601 1.82796 0
M  V30 13151 H 1256.38 4.26468 2.58701 0
M  V30 13152 H 1255.53 3.63548 4.85714 0
M  V30 13153 H 1254.27 2.60516 4.1229 0
M  V30 13154 H 1253.28 4.61308 2.99124 0
M  V30 13155 H 1254.5 5.65698 3.75716 0
M  V30 13156 H 1252.45 3.96234 5.22814 0
M  V30 13157 H 1252.37 5.67733 4.99215 0
M  V30 13158 H 1253.63 5.00693 5.97434 0
M  V30 13159 N 1257.86 -0.571685 1.46866 0
M  V30 13160 C 1259.11 -1.32948 1.52745 0
M  V30 13161 C 1259.44 -1.93631 0.183694 0
M  V30 13162 O 1258.69 -1.77605 -0.821886 0
M  V30 13163 C 1258.99 -2.47051 2.58264 0
M  V30 13164 C 1258.66 -2.04291 4.01965 0
M  V30 13165 C 1257.32 -1.92345 4.41086 0
M  V30 13166 C 1259.67 -1.71458 4.9219 0
M  V30 13167 C 1257 -1.4584 5.68285 0
M  V30 13168 C 1259.35 -1.26429 6.19837 0
M  V30 13169 C 1258.02 -1.13068 6.57854 0
M  V30 13170 H 1257.29 -0.48649 0.558935 0
M  V30 13171 H 1259.93 -0.642618 1.80396 0
M  V30 13172 H 1258.24 -3.21231 2.24316 0
M  V30 13173 H 1259.94 -3.05254 2.6004 0
M  V30 13174 H 1256.53 -2.14527 3.71047 0
M  V30 13175 H 1260.71 -1.79567 4.62676 0
M  V30 13176 H 1255.97 -1.34148 5.96502 0
M  V30 13177 H 1260.14 -1.00081 6.89171 0
M  V30 13178 H 1257.77 -0.768094 7.5631 0
M  V30 13179 N 1259.34 -1.34755 -0.817236 0
M  V30 13180 C 1260.27 -1.29452 -1.94331 0
M  V30 13181 C 1261.25 -0.170902 -1.69239 0
M  V30 13182 O 1262.44 -0.364173 -1.90755 0
M  V30 13183 C 1259.57 -1.05497 -3.30889 0
M  V30 13184 C 1258.52 -2.14386 -3.70436 0
M  V30 13185 C 1257.85 -1.75612 -5.05039 0
M  V30 13186 C 1259.15 -3.56265 -3.81933 0
M  V30 13187 H 1260.84 -2.23672 -1.99025 0
M  V30 13188 H 1258.39 -1.07674 -0.956159 0
M  V30 13189 H 1260.34 -1.0043 -4.09257 0
M  V30 13190 H 1259.06 -0.0772059 -3.26509 0
M  V30 13191 H 1257.72 -2.18532 -2.94345 0
M  V30 13192 H 1257.37 -0.764809 -4.97152 0
M  V30 13193 H 1257.07 -2.48495 -5.3247 0
M  V30 13194 H 1258.6 -1.72051 -5.85859 0
M  V30 13195 H 1260.01 -3.545 -4.50558 0
M  V30 13196 H 1258.41 -4.27818 -4.20822 0
M  V30 13197 H 1259.48 -3.93192 -2.83775 0
M  V30 13198 N 1260.82 1.03812 -1.18578 0
M  V30 13199 C 1261.75 2.11928 -0.872871 0
M  V30 13200 C 1262.76 1.62275 0.130592 0
M  V30 13201 O 1263.95 1.78233 -0.0975869 0
M  V30 13202 C 1261.05 3.37714 -0.283321 0
M  V30 13203 C 1260.23 4.16591 -1.33307 0
M  V30 13204 C 1259.29 5.20701 -0.758746 0
M  V30 13205 O 1258.31 5.50837 -1.43412 0
M  V30 13206 N 1259.51 5.78811 0.442505 0
M  V30 13207 H 1262.28 2.39364 -1.80346 0
M  V30 13208 H 1259.84 1.20027 -1.08652 0
M  V30 13209 H 1261.83 4.04538 0.114524 0
M  V30 13210 H 1260.4 3.07699 0.551347 0
M  V30 13211 H 1259.62 3.45051 -1.90613 0
M  V30 13212 H 1260.91 4.66082 -2.04071 0
M  V30 13213 H 1260.31 5.56631 1.00889 0
M  V30 13214 H 1258.86 6.47089 0.78224 0
M  V30 13215 N 1262.3 0.988223 1.22768 0
M  V30 13216 C 1263.54 0.661461 1.91392 0
M  V30 13217 C 1263.87 -0.805942 1.77016 0
M  V30 13218 O 1263.13 -1.5978 1.12999 0
M  V30 13219 C 1263.43 1.00744 3.42907 0
M  V30 13220 C 1263.09 2.46634 3.77469 0
M  V30 13221 C 1261.75 2.86503 3.86613 0
M  V30 13222 C 1264.11 3.41217 3.9398 0
M  V30 13223 C 1261.43 4.19954 4.09702 0
M  V30 13224 C 1263.79 4.74321 4.18572 0
M  V30 13225 C 1262.45 5.13938 4.25939 0
M  V30 13226 H 1261.72 0.242046 0.700353 0
M  V30 13227 H 1264.37 1.24354 1.45631 0
M  V30 13228 H 1262.67 0.34338 3.90292 0
M  V30 13229 H 1264.37 0.732714 3.94249 0
M  V30 13230 H 1260.96 2.14729 3.70931 0
M  V30 13231 H 1265.14 3.11589 3.86298 0
M  V30 13232 H 1260.4 4.50243 4.13631 0
M  V30 13233 H 1264.57 5.47561 4.30291 0
M  V30 13234 H 1262.2 6.17364 4.43583 0
M  V30 13235 N 1263.78 -1.38018 0.760839 0
M  V30 13236 C 1264.71 -2.2899 0.0980916 0
M  V30 13237 C 1265.72 -1.48102 -0.675985 0
M  V30 13238 O 1266.91 -1.70883 -0.515878 0
M  V30 13239 C 1264.01 -3.27142 -0.884959 0
M  V30 13240 C 1263.18 -4.37081 -0.167 0
M  V30 13241 C 1262.24 -5.15375 -1.06184 0
M  V30 13242 O 1261.27 -5.6673 -0.529667 0
M  V30 13243 N 1262.47 -5.29052 -2.38924 0
M  V30 13244 H 1265.23 -2.86508 0.879403 0
M  V30 13245 H 1262.8 -1.49877 0.612245 0
M  V30 13246 H 1264.79 -3.764 -1.48678 0
M  V30 13247 H 1263.36 -2.70471 -1.5673 0
M  V30 13248 H 1262.58 -3.89363 0.615617 0
M  V30 13249 H 1263.87 -5.07732 0.329525 0
M  V30 13250 H 1263.26 -4.88892 -2.84607 0
M  V30 13251 H 1261.82 -5.81658 -2.94139 0
M  V30 13252 N 1265.25 -0.510493 -1.49103 0
M  V30 13253 C 1266.18 0.251999 -2.32136 0
M  V30 13254 C 1267.16 0.953613 -1.40855 0
M  V30 13255 O 1268.35 0.943178 -1.69758 0
M  V30 13256 C 1265.48 1.31118 -3.21598 0
M  V30 13257 C 1264.43 0.72888 -4.21748 0
M  V30 13258 C 1263.76 1.88928 -5.0021 0
M  V30 13259 C 1265.06 -0.286425 -5.21514 0
M  V30 13260 H 1266.75 -0.441102 -2.96133 0
M  V30 13261 H 1264.3 -0.213577 -1.42407 0
M  V30 13262 H 1266.25 1.8524 -3.78503 0
M  V30 13263 H 1264.98 2.0336 -2.55563 0
M  V30 13264 H 1263.64 0.209336 -3.66002 0
M  V30 13265 H 1263.28 2.59961 -4.30615 0
M  V30 13266 H 1262.98 1.50568 -5.67981 0
M  V30 13267 H 1264.51 2.43465 -5.59962 0
M  V30 13268 H 1265.92 0.166997 -5.73057 0
M  V30 13269 H 1264.32 -0.586361 -5.97228 0
M  V30 13270 H 1265.39 -1.19904 -4.69842 0
M  V30 13271 N 1266.73 1.55688 -0.24474 0
M  V30 13272 C 1267.96 2.0329 0.384808 0
M  V30 13273 C 1268.37 1.12405 1.51692 0
M  V30 13274 O 1267.73 0.138056 1.81977 0
M  V30 13275 C 1267.78 3.50255 0.894635 0
M  V30 13276 O 1267.5 4.37677 -0.192365 0
M  V30 13277 C 1269 4.13608 1.59509 0
M  V30 13278 H 1266.22 0.664706 0.0916908 0
M  V30 13279 H 1268.77 2.01162 -0.367973 0
M  V30 13280 H 1266.92 3.52924 1.5976 0
M  V30 13281 H 1267.34 5.2414 0.194424 0
M  V30 13282 H 1268.81 5.1814 1.90356 0
M  V30 13283 H 1269.29 3.5997 2.51631 0
M  V30 13284 H 1269.89 4.14856 0.936749 0
M  V30 13285 N 1268.21 -0.0283989 1.57574 0
M  V30 13286 C 1269.46 -0.720142 1.89583 0
M  V30 13287 C 1269.79 -1.7497 0.842562 0
M  V30 13288 O 1269.06 -1.93979 -0.142294 0
M  V30 13289 C 1269.35 -1.38909 3.32229 0
M  V30 13290 C 1269.2 -0.372998 4.48251 0
M  V30 13291 C 1270.52 -2.32289 3.73804 0
M  V30 13292 H 1267.64 -0.26033 0.689491 0
M  V30 13293 H 1270.28 0.0170607 1.89992 0
M  V30 13294 H 1268.43 -2.01744 3.32011 0
M  V30 13295 H 1270.1 0.253492 4.60603 0
M  V30 13296 H 1268.34 0.30765 4.32708 0
M  V30 13297 H 1269.02 -0.879549 5.44948 0
M  V30 13298 H 1271.49 -1.79497 3.75393 0
M  V30 13299 H 1270.37 -2.76075 4.74419 0
M  V30 13300 H 1270.63 -3.18992 3.06099 0
M  V30 13301 N 1269.69 -1.54705 -0.300681 0
M  V30 13302 C 1270.64 -1.86433 -1.39087 0
M  V30 13303 C 1271.63 -0.738101 -1.52474 0
M  V30 13304 O 1272.84 -0.922096 -1.54588 0
M  V30 13305 H 1269.21 -0.591314 -0.464599 0
M  V30 13306 H 1271.18 -2.77558 -1.09563 0
M  V30 13307 C 1269.93 -2.1286 -2.74929 0
M  V30 13308 H 1269.25 -2.98994 -2.6541 0
M  V30 13309 H 1270.69 -2.39 -3.50222 0
M  V30 13310 C 1269.15 -0.92726 -3.23888 0
M  V30 13311 O 1269.68 -0.147921 -4.01428 0
M  V30 13312 N 1267.89 -0.732553 -2.81215 0
M  V30 13313 H 1267.44 -1.36797 -2.18276 0
M  V30 13314 H 1267.39 0.0696902 -3.14323 0
M  V30 13315 N 1271.17 0.563888 -1.47167 0
M  V30 13316 C 1272.41 1.32331 -1.53676 0
M  V30 13317 C 1272.75 1.93213 -0.195593 0
M  V30 13318 O 1272.02 1.77508 0.795068 0
M  V30 13319 C 1272.3 2.43848 -2.64972 0
M  V30 13320 C 1272.16 1.8788 -4.08682 0
M  V30 13321 C 1273.48 3.45809 -2.72221 0
M  V30 13322 H 1270.59 0.479791 -0.559437 0
M  V30 13323 H 1273.24 0.631669 -1.79192 0
M  V30 13324 H 1271.39 3.02846 -2.43345 0
M  V30 13325 H 1273.06 1.33195 -4.41652 0
M  V30 13326 H 1271.3 1.18593 -4.17275 0
M  V30 13327 H 1271.97 2.68465 -4.82318 0
M  V30 13328 H 1274.45 2.9672 -2.91713 0
M  V30 13329 H 1273.32 4.21272 -3.51882 0
M  V30 13330 H 1273.59 4.04236 -1.79014 0
M  V30 13331 N 1272.64 1.35187 0.810078 0
M  V30 13332 C 1273.89 1.28454 1.56931 0
M  V30 13333 C 1274.22 -0.141747 1.93682 0
M  V30 13334 O 1273.5 -1.09028 1.61069 0
M  V30 13335 C 1273.78 2.18771 2.86027 0
M  V30 13336 C 1273.63 3.69999 2.55774 0
M  V30 13337 C 1274.95 2.08265 3.87703 0
M  V30 13338 H 1272.07 0.467959 0.569371 0
M  V30 13339 H 1274.71 1.65556 0.932262 0
M  V30 13340 H 1272.86 1.8726 3.40391 0
M  V30 13341 H 1274.54 4.11936 2.07621 0
M  V30 13342 H 1272.78 3.90453 1.89021 0
M  V30 13343 H 1273.45 4.28577 3.47888 0
M  V30 13344 H 1275.93 2.35958 3.42729 0
M  V30 13345 H 1274.8 2.73663 4.75815 0
M  V30 13346 H 1275.06 1.06352 4.29117 0
M  V30 13347 N 1274.12 -1.03182 1.19127 0
M  V30 13348 C 1275.09 -2.09559 0.928307 0
M  V30 13349 C 1276.09 -1.60548 -0.0899992 0
M  V30 13350 O 1277.28 -1.736 0.144422 0
M  V30 13351 C 1274.41 -3.38609 0.394561 0
M  V30 13352 H 1275.6 -2.34321 1.87173 0
M  V30 13353 H 1273.15 -1.19746 1.00452 0
M  V30 13354 H 1273.89 -3.19515 -0.555046 0
M  V30 13355 H 1273.67 -3.75502 1.12873 0
M  V30 13356 H 1275.16 -4.16969 0.229569 0
M  V30 13357 N 1275.6 -0.99472 -1.22242 0
M  V30 13358 C 1276.85 -0.672596 -1.91322 0
M  V30 13359 C 1277.18 0.793542 -1.77247 0
M  V30 13360 O 1276.45 1.57407 -1.14251 0
M  V30 13361 C 1276.74 -1.08155 -3.43474 0
M  V30 13362 C 1276.59 -2.60638 -3.6659 0
M  V30 13363 C 1277.91 -0.636161 -4.35478 0
M  V30 13364 H 1275.03 -0.24582 -0.694796 0
M  V30 13365 H 1277.67 -1.23857 -1.44082 0
M  V30 13366 H 1275.82 -0.599987 -3.83839 0
M  V30 13367 H 1277.49 -3.16479 -3.35617 0
M  V30 13368 H 1275.74 -3.02624 -3.10808 0
M  V30 13369 H 1276.41 -2.84304 -4.73155 0
M  V30 13370 H 1278.88 -1.04982 -4.02639 0
M  V30 13371 H 1277.76 -0.950584 -5.40606 0
M  V30 13372 H 1278.02 0.4631 -4.39668 0
M  V30 13373 N 1277.08 1.37613 -0.768148 0
M  V30 13374 C 1278.33 1.99023 -0.327543 0
M  V30 13375 C 1278.64 1.61669 1.10103 0
M  V30 13376 O 1279.85 2.16155 1.64284 0
M  V30 13377 C 1278.3 3.55906 -0.534674 0
M  V30 13378 C 1277.91 4.02201 -1.97327 0
M  V30 13379 C 1279.65 4.24208 -0.157512 0
M  V30 13380 C 1277.56 5.51781 -2.12819 0
M  V30 13381 H 1276.49 0.744595 -0.118722 0
M  V30 13382 H 1279.14 1.5719 -0.946764 0
M  V30 13383 H 1277.52 3.95701 0.153951 0
M  V30 13384 H 1278.7 3.73661 -2.69655 0
M  V30 13385 H 1277.01 3.46671 -2.30669 0
M  V30 13386 H 1279.61 5.34107 -0.251824 0
M  V30 13387 H 1279.95 4.06636 0.89177 0
M  V30 13388 H 1280.49 3.89703 -0.798546 0
M  V30 13389 H 1277.23 5.74274 -3.16053 0
M  V30 13390 H 1276.75 5.82017 -1.4497 0
M  V30 13391 H 1278.42 6.17697 -1.92508 0
M  V30 13392 N 1278.56 0.518393 1.4883 0
M  V30 13393 C 1279.8 -0.0199348 2.0279 0
M  V30 13394 C 1280.14 -1.35026 1.39576 0
M  V30 13395 O 1279.41 -1.86927 0.537449 0
M  V30 13396 C 1279.69 -0.154184 3.5977 0
M  V30 13397 C 1279.55 1.2005 4.33484 0
M  V30 13398 C 1280.87 -0.886547 4.31078 0
M  V30 13399 H 1277.98 -0.00577061 0.736977 0
M  V30 13400 H 1280.63 0.673178 1.77675 0
M  V30 13401 H 1278.78 -0.74451 3.81299 0
M  V30 13402 H 1280.45 1.83104 4.23404 0
M  V30 13403 H 1278.69 1.78537 3.95357 0
M  V30 13404 H 1279.36 1.05968 5.41733 0
M  V30 13405 H 1281.84 -0.385711 4.14308 0
M  V30 13406 H 1280.71 -0.949355 5.40628 0
M  V30 13407 H 1280.98 -1.93424 3.97542 0
M  V30 13408 N 1280.03 -1.55556 0.252993 0
M  V30 13409 C 1281 -2.20351 -0.630705 0
M  V30 13410 C 1282 -1.17461 -1.09816 0
M  V30 13411 O 1283.19 -1.42505 -1.00189 0
M  V30 13412 C 1280.32 -2.85192 -1.86757 0
M  V30 13413 H 1281.51 -2.99829 -0.0652939 0
M  V30 13414 H 1279.07 -1.563 0.00347982 0
M  V30 13415 H 1279.8 -2.09669 -2.47406 0
M  V30 13416 H 1279.59 -3.60569 -1.54053 0
M  V30 13417 H 1281.08 -3.34762 -2.49648 0
M  V30 13418 N 1281.51 0.0200419 -1.57587 0
M  V30 13419 C 1282.76 0.709027 -1.89681 0
M  V30 13420 C 1283.09 1.74876 -0.851396 0
M  V30 13421 O 1282.34 1.95151 0.146483 0
M  V30 13422 C 1282.64 1.40729 -3.28527 0
M  V30 13423 C 1282.31 0.502686 -4.48089 0
M  V30 13424 C 1280.97 0.253558 -4.80532 0
M  V30 13425 C 1283.32 -0.121338 -5.21059 0
M  V30 13426 C 1280.65 -0.628221 -5.83327 0
M  V30 13427 C 1283 -0.990873 -6.24792 0
M  V30 13428 C 1281.67 -1.24937 -6.55703 0
M  V30 13429 H 1280.94 0.259451 -0.694094 0
M  V30 13430 H 1283.58 -0.03118 -1.91475 0
M  V30 13431 H 1281.89 2.22105 -3.22764 0
M  V30 13432 H 1283.58 1.94609 -3.50611 0
M  V30 13433 H 1280.17 0.707018 -4.22728 0
M  V30 13434 H 1284.36 0.0581516 -4.96266 0
M  V30 13435 H 1279.61 -0.836712 -6.05648 0
M  V30 13436 H 1283.79 -1.48087 -6.80473 0
M  V30 13437 H 1281.42 -1.93436 -7.35178 0
M  V30 13438 N 1282.99 1.54862 0.292472 0
M  V30 13439 C 1284.22 1.7855 1.04534 0
M  V30 13440 C 1284.63 0.549161 1.80637 0
M  V30 13441 O 1283.99 -0.481268 1.7604 0
M  V30 13442 C 1284.04 2.99849 2.01923 0
M  V30 13443 O 1283.76 4.18706 1.28907 0
M  V30 13444 C 1285.26 3.35991 2.8918 0
M  V30 13445 H 1282.48 0.595279 0.309652 0
M  V30 13446 H 1285.03 2.01834 0.329159 0
M  V30 13447 H 1283.18 2.78749 2.69032 0
M  V30 13448 H 1283.6 4.87151 1.94383 0
M  V30 13449 H 1285.07 4.24085 3.53349 0
M  V30 13450 H 1285.55 2.54524 3.57931 0
M  V30 13451 H 1286.15 3.59281 2.27591 0
M  V30 13452 N 1284.47 -0.556076 1.47464 0
M  V30 13453 C 1285.72 -1.31061 1.53842 0
M  V30 13454 C 1286.04 -1.93943 0.202806 0
M  V30 13455 O 1285.31 -1.7999 -0.773338 0
M  V30 13456 H 1283.89 -0.486696 0.566689 0
M  V30 13457 H 1286.55 -0.64924 1.83769 0
M  V30 13458 H 1285.65 -2.10354 2.30559 0
M  V30 13459 N 1285.95 -1.35615 -0.802897 0
M  V30 13460 C 1286.91 -1.28705 -1.89651 0
M  V30 13461 C 1287.91 -0.197681 -1.5958 0
M  V30 13462 O 1289.1 -0.451618 -1.68244 0
M  V30 13463 C 1286.23 -0.991941 -3.26149 0
M  V30 13464 H 1287.43 -2.25951 -1.97196 0
M  V30 13465 H 1284.98 -1.20192 -0.999179 0
M  V30 13466 H 1285.71 -0.0235051 -3.24291 0
M  V30 13467 H 1285.5 -1.78013 -3.49362 0
M  V30 13468 H 1286.99 -0.969298 -4.06195 0
M  V30 13469 N 1287.43 1.02549 -1.19673 0
M  V30 13470 C 1288.67 1.77554 -1.01261 0
M  V30 13471 C 1289.03 1.86692 0.448357 0
M  V30 13472 O 1290.23 2.58055 0.752386 0
M  V30 13473 C 1288.5 3.16132 -1.66719 0
M  V30 13474 S 1290.06 4.07285 -1.63291 0
M  V30 13475 H 1286.88 0.611178 -0.363294 0
M  V30 13476 H 1289.48 1.22852 -1.52078 0
M  V30 13477 H 1288.18 3.07101 -2.72244 0
M  V30 13478 H 1287.72 3.7591 -1.15996 0
M  V30 13479 H 1289.73 4.91798 -0.659499 0
M  V30 13480 N 1288.9 1.00119 1.21713 0
M  V30 13481 C 1290.15 0.67713 1.89994 0
M  V30 13482 C 1290.47 -0.795149 1.78709 0
M  V30 13483 O 1291.67 -1.23113 2.41982 0
M  V30 13484 C 1290.13 1.16065 3.40671 0
M  V30 13485 C 1289.74 2.65874 3.60576 0
M  V30 13486 C 1291.48 0.911302 4.14603 0
M  V30 13487 C 1289.39 3.07785 5.04997 0
M  V30 13488 H 1288.32 0.249572 0.711498 0
M  V30 13489 H 1290.97 1.21185 1.37792 0
M  V30 13490 H 1289.35 0.554005 3.92106 0
M  V30 13491 H 1290.52 3.31954 3.19598 0
M  V30 13492 H 1288.84 2.88781 2.99991 0
M  V30 13493 H 1291.44 1.20004 5.2106 0
M  V30 13494 H 1291.78 -0.152495 4.16021 0
M  V30 13495 H 1292.31 1.48055 3.69222 0
M  V30 13496 H 1289.05 4.13376 5.08724 0
M  V30 13497 H 1288.57 2.46414 5.46846 0
M  V30 13498 H 1290.25 2.99552 5.73479 0
M  V30 13499 N 1290.38 -1.37203 0.775435 0
M  V30 13500 C 1291.61 -2.03868 0.352927 0
M  V30 13501 C 1292.02 -1.58482 -1.0261 0
M  V30 13502 O 1291.38 -0.767772 -1.65564 0
M  V30 13503 C 1291.43 -3.59378 0.39116 0
M  V30 13504 O 1291.15 -4.03103 1.71579 0
M  V30 13505 C 1292.65 -4.4328 -0.0424808 0
M  V30 13506 H 1289.87 -0.654619 0.14736 0
M  V30 13507 H 1292.42 -1.75463 1.05039 0
M  V30 13508 H 1290.57 -3.86542 -0.257752 0
M  V30 13509 H 1290.99 -4.9764 1.65695 0
M  V30 13510 H 1292.46 -5.51989 0.0354215 0
M  V30 13511 H 1292.94 -4.25374 -1.09333 0
M  V30 13512 H 1293.54 -4.21349 0.578384 0
M  V30 13513 N 1291.86 -0.526279 -1.48553 0
M  V30 13514 C 1292.79 0.275579 -2.27537 0
M  V30 13515 C 1293.8 0.90782 -1.35139 0
M  V30 13516 O 1294.99 0.786887 -1.6022 0
M  V30 13517 C 1292.09 1.40515 -3.08397 0
M  V30 13518 C 1291.27 0.875523 -4.28548 0
M  V30 13519 C 1290.33 1.88577 -4.91249 0
M  V30 13520 O 1289.35 1.44419 -5.50574 0
M  V30 13521 N 1290.55 3.21774 -4.83158 0
M  V30 13522 H 1293.32 -0.401803 -2.96994 0
M  V30 13523 H 1290.88 -0.360378 -1.57838 0
M  V30 13524 H 1292.87 2.07907 -3.47213 0
M  V30 13525 H 1291.44 1.98626 -2.41384 0
M  V30 13526 H 1290.66 0.025728 -3.94192 0
M  V30 13527 H 1291.95 0.500493 -5.06332 0
M  V30 13528 H 1291.35 3.60319 -4.36104 0
M  V30 13529 H 1289.9 3.84808 -5.26085 0
M  V30 13530 N 1293.34 1.5542 -0.261239 0
M  V30 13531 C 1294.61 1.91243 0.41056 0
M  V30 13532 C 1294.99 1.1838 1.74784 0
M  V30 13533 O 1294.34 0.306013 2.26442 0
M  V30 13534 C 1294.55 3.44404 0.56453 0
M  V30 13535 C 1295.9 4.15927 0.853827 0
M  V30 13536 O 1296.92 3.50222 0.649861 0
M  V30 13537 O 1295.78 5.32175 1.24308 0
M  V30 13538 H 1292.88 0.796491 0.222555 0
M  V30 13539 H 1295.42 1.66912 -0.306367 0
M  V30 13540 H 1294.2 3.89478 -0.377134 0
M  V30 13541 H 1293.82 3.74644 1.33145 0
M  V30 13542 N 1294.82 -0.0116844 1.57596 0
M  V30 13543 C 1296.04 -0.713924 1.94725 0
M  V30 13544 C 1296.47 -1.67157 0.862565 0
M  V30 13545 O 1295.82 -1.80401 -0.180308 0
M  V30 13546 C 1295.87 -1.43214 3.30941 0
M  V30 13547 O 1294.98 -2.5461 3.24419 0
M  V30 13548 H 1294.32 -0.190772 0.636005 0
M  V30 13549 H 1296.85 0.0380247 2.04565 0
M  V30 13550 H 1296.86 -1.79819 3.66237 0
M  V30 13551 H 1295.53 -0.729906 4.09445 0
M  V30 13552 H 1294.11 -2.20419 3.00782 0
M  V30 13553 N 1296.29 -1.55015 -0.284256 0
M  V30 13554 C 1297.7 -1.65915 -0.856104 0
M  V30 13555 C 1298.06 -0.578758 -1.8747 0
M  V30 13556 O 1297.18 0.281733 -2.14558 0
M  V30 13557 C 1297.78 -3.0077 -1.55957 0
M  V30 13558 C 1296.33 -3.13735 -2.0796 0
M  V30 13559 C 1295.48 -2.61669 -0.917849 0
M  V30 13560 H 1298.43 -1.58583 -0.0608587 0
M  V30 13561 H 1298.45 -2.9313 -2.42601 0
M  V30 13562 H 1297.97 -3.79382 -0.81798 0
M  V30 13563 H 1296.07 -2.39875 -2.85115 0
M  V30 13564 H 1296.18 -4.20138 -2.30263 0
M  V30 13565 H 1294.54 -2.18542 -1.3081 0
M  V30 13566 H 1295.33 -3.42774 -0.189946 0
M  V30 13567 N 1297.77 0.548248 -1.47757 0
M  V30 13568 C 1298.7 1.66409 -1.63799 0
M  V30 13569 C 1299.68 1.62973 -0.487211 0
M  V30 13570 O 1300.87 1.80455 -0.717612 0
M  V30 13571 C 1298 3.05035 -1.66046 0
M  V30 13572 C 1296.95 3.23322 -2.80441 0
M  V30 13573 C 1296.28 4.62824 -2.67765 0
M  V30 13574 C 1297.58 3.07837 -4.2194 0
M  V30 13575 H 1299.27 1.53239 -2.57212 0
M  V30 13576 H 1296.82 0.735783 -1.23783 0
M  V30 13577 H 1298.77 3.82951 -1.75859 0
M  V30 13578 H 1297.49 3.19185 -0.69199 0
M  V30 13579 H 1296.15 2.47816 -2.70153 0
M  V30 13580 H 1295.8 4.73786 -1.68927 0
M  V30 13581 H 1295.5 4.76007 -3.44515 0
M  V30 13582 H 1297.03 5.42864 -2.7952 0
M  V30 13583 H 1298.44 3.75563 -4.33157 0
M  V30 13584 H 1296.84 3.32525 -4.99547 0
M  V30 13585 H 1297.91 2.04474 -4.3968 0
M  V30 13586 N 1299.25 1.36039 0.795694 0
M  V30 13587 C 1300.2 1.29853 1.90806 0
M  V30 13588 C 1301.17 0.168387 1.65244 0
M  V30 13589 O 1302.35 0.353879 1.8749 0
M  V30 13590 C 1299.49 1.08737 3.27521 0
M  V30 13591 C 1298.6 2.30771 3.65197 0
M  V30 13592 C 1297.74 2.02718 4.90998 0
M  V30 13593 C 1296.78 3.20746 5.21333 0
M  V30 13594 N 1295.92 2.92399 6.38316 0
M  V30 13595 H 1300.76 2.2497 1.95429 0
M  V30 13596 H 1298.29 1.11819 0.955771 0
M  V30 13597 H 1300.25 0.945236 4.06351 0
M  V30 13598 H 1298.88 0.172781 3.22337 0
M  V30 13599 H 1297.93 2.5581 2.81541 0
M  V30 13600 H 1299.24 3.18869 3.83568 0
M  V30 13601 H 1298.4 1.85398 5.77679 0
M  V30 13602 H 1297.14 1.11921 4.74684 0
M  V30 13603 H 1296.14 3.38632 4.33138 0
M  V30 13604 H 1297.37 4.1236 5.3957 0
M  V30 13605 H 1295.31 2.04207 6.23406 0
M  V30 13606 H 1295.23 3.74034 6.56989 0
M  V30 13607 H 1296.5 2.78643 7.27996 0
M  V30 13608 N 1300.73 -1.01913 1.20215 0
M  V30 13609 C 1301.69 -2.08563 0.950481 0
M  V30 13610 C 1302.69 -1.60634 -0.0729659 0
M  V30 13611 O 1303.88 -1.73437 0.162826 0
M  V30 13612 C 1301.01 -3.38171 0.430453 0
M  V30 13613 H 1302.21 -2.32323 1.89647 0
M  V30 13614 H 1299.76 -1.18674 1.01716 0
M  V30 13615 H 1300.49 -3.20086 -0.521126 0
M  V30 13616 H 1300.28 -3.74284 1.1685 0
M  V30 13617 H 1301.77 -4.16702 0.273781 0
M  V30 13618 N 1302.21 -1.00763 -1.2118 0
M  V30 13619 C 1303.45 -0.692851 -1.90598 0
M  V30 13620 C 1303.79 0.774698 -1.78079 0
M  V30 13621 O 1303.06 1.56186 -1.15914 0
M  V30 13622 C 1303.34 -1.11792 -3.42308 0
M  V30 13623 C 1303.2 -2.64511 -3.63805 0
M  V30 13624 C 1304.52 -0.682314 -4.34779 0
M  V30 13625 H 1301.63 -0.253175 -0.69215 0
M  V30 13626 H 1304.28 -1.25378 -1.4276 0
M  V30 13627 H 1302.43 -0.640665 -3.83181 0
M  V30 13628 H 1304.1 -3.20021 -3.32242 0
M  V30 13629 H 1302.34 -3.05903 -3.0758 0
M  V30 13630 H 1303.01 -2.89306 -4.70113 0
M  V30 13631 H 1305.49 -1.09247 -4.01503 0
M  V30 13632 H 1304.36 -1.00787 -5.39568 0
M  V30 13633 H 1304.63 0.416441 -4.40134 0
M  V30 13634 N 1303.68 1.3679 -0.7827 0
M  V30 13635 C 1304.62 2.28805 -0.13451 0
M  V30 13636 C 1305.63 1.49159 0.652338 0
M  V30 13637 O 1306.82 1.71682 0.488626 0
M  V30 13638 C 1303.92 3.28508 0.832802 0
M  V30 13639 C 1303.09 4.37291 0.0974435 0
M  V30 13640 C 1302.15 5.16999 0.979715 0
M  V30 13641 O 1301.18 5.67501 0.439439 0
M  V30 13642 N 1302.38 5.32786 2.30477 0
M  V30 13643 H 1305.14 2.85072 -0.924873 0
M  V30 13644 H 1302.7 1.48884 -0.636012 0
M  V30 13645 H 1304.7 3.78718 1.42671 0
M  V30 13646 H 1303.27 2.7293 1.52408 0
M  V30 13647 H 1302.49 3.88335 -0.677483 0
M  V30 13648 H 1303.77 5.07143 -0.410259 0
M  V30 13649 H 1303.17 4.93358 2.76793 0
M  V30 13650 H 1301.73 5.86264 2.84848 0
M  V30 13651 N 1305.16 0.53415 1.48272 0
M  V30 13652 C 1306.1 -0.273689 2.26553 0
M  V30 13653 C 1307.07 -0.941085 1.32598 0
M  V30 13654 O 1308.26 -0.964653 1.61947 0
M  V30 13655 C 1305.38 -1.38796 3.08955 0
M  V30 13656 C 1304.43 -0.831533 4.18315 0
M  V30 13657 S 1305.26 0.303875 5.34637 0
M  V30 13658 C 1306.42 -0.812767 6.206 0
M  V30 13659 H 1306.65 0.390639 2.94722 0
M  V30 13660 H 1304.19 0.320014 1.51047 0
M  V30 13661 H 1306.14 -2.02622 3.57008 0
M  V30 13662 H 1304.8 -2.02402 2.40192 0
M  V30 13663 H 1304 -1.66758 4.75613 0
M  V30 13664 H 1303.6 -0.269881 3.73025 0
M  V30 13665 H 1305.89 -1.71043 6.55554 0
M  V30 13666 H 1306.83 -0.27767 7.07555 0
M  V30 13667 H 1307.24 -1.09505 5.53777 0
M  V30 13668 N 1306.64 -1.55279 0.269478 0
M  V30 13669 C 1307.57 -2.25278 -0.614188 0
M  V30 13670 C 1308.55 -1.24092 -1.1634 0
M  V30 13671 O 1309.74 -1.52799 -1.19858 0
M  V30 13672 C 1306.87 -2.96956 -1.80096 0
M  V30 13673 C 1305.82 -4.05021 -1.38353 0
M  V30 13674 C 1305.15 -4.64244 -2.65295 0
M  V30 13675 C 1306.45 -5.19523 -0.537886 0
M  V30 13676 H 1308.14 -2.99385 -0.0304397 0
M  V30 13677 H 1305.69 -1.43994 -0.0132004 0
M  V30 13678 H 1307.64 -3.44633 -2.42499 0
M  V30 13679 H 1306.36 -2.20374 -2.41045 0
M  V30 13680 H 1305.02 -3.58146 -0.78273 0
M  V30 13681 H 1304.67 -3.84337 -3.2449 0
M  V30 13682 H 1304.37 -5.37208 -2.38079 0
M  V30 13683 H 1305.89 -5.14668 -3.28557 0
M  V30 13684 H 1307.31 -5.63287 -1.06677 0
M  V30 13685 H 1305.71 -5.99014 -0.360845 0
M  V30 13686 H 1306.78 -4.82857 0.444672 0
M  V30 13687 N 1308.12 0.00332656 -1.576 0
M  V30 13688 C 1309.36 0.684275 -1.91544 0
M  V30 13689 C 1309.72 1.71565 -0.870814 0
M  V30 13690 O 1309.01 1.9124 0.117405 0
M  V30 13691 C 1309.21 1.37237 -3.30001 0
M  V30 13692 C 1309.04 0.409158 -4.47835 0
M  V30 13693 C 1307.81 0.0207716 -5.05296 0
M  V30 13694 C 1310 -0.323226 -5.13283 0
M  V30 13695 N 1307.99 -0.941002 -6.06645 0
M  V30 13696 C 1309.36 -1.13979 -6.09433 0
M  V30 13697 C 1311.41 -0.387419 -4.9639 0
M  V30 13698 C 1310.11 -2.0147 -6.90509 0
M  V30 13699 C 1312.14 -1.24954 -5.78049 0
M  V30 13700 C 1311.5 -2.05396 -6.73789 0
M  V30 13701 H 1307.6 0.223698 -0.749322 0
M  V30 13702 H 1310.19 -0.0562395 -1.94619 0
M  V30 13703 H 1308.36 2.0832 -3.27807 0
M  V30 13704 H 1310.09 2.00775 -3.51385 0
M  V30 13705 H 1306.84 0.38844 -4.72004 0
M  V30 13706 H 1307.27 -1.41716 -6.62001 0
M  V30 13707 H 1311.91 0.220225 -4.22226 0
M  V30 13708 H 1309.63 -2.63303 -7.64001 0
M  V30 13709 H 1313.21 -1.30308 -5.6702 0
M  V30 13710 H 1312.09 -2.71028 -7.35876 0
M  V30 13711 N 1309.6 1.55164 0.276031 0
M  V30 13712 C 1310.84 1.75887 1.00953 0
M  V30 13713 C 1311.18 0.5567 1.8605 0
M  V30 13714 O 1310.45 -0.445799 1.89322 0
M  V30 13715 C 1310.73 3.06228 1.89463 0
M  V30 13716 C 1310.59 4.36795 1.07379 0
M  V30 13717 C 1311.91 3.32589 2.88223 0
M  V30 13718 H 1309.02 0.639929 0.365596 0
M  V30 13719 H 1311.67 1.87893 0.282156 0
M  V30 13720 H 1309.82 2.96124 2.51481 0
M  V30 13721 H 1311.49 4.58853 0.474549 0
M  V30 13722 H 1309.73 4.32157 0.377165 0
M  V30 13723 H 1310.4 5.24315 1.72621 0
M  V30 13724 H 1312.88 3.42467 2.36338 0
M  V30 13725 H 1311.75 4.2506 3.47297 0
M  V30 13726 H 1312.02 2.52083 3.6319 0
M  V30 13727 N 1311.07 -0.540404 1.48045 0
M  V30 13728 C 1312.02 -1.66695 1.62221 0
M  V30 13729 C 1313.02 -1.6219 0.488943 0
M  V30 13730 O 1314.22 -1.67173 0.66732 0
M  V30 13731 H 1310.6 -0.551868 0.510828 0
M  V30 13732 H 1312.57 -1.51879 2.56856 0
M  V30 13733 C 1311.32 -3.05002 1.6694 0
M  V30 13734 H 1310.64 -3.09157 2.53499 0
M  V30 13735 H 1312.08 -3.8347 1.80904 0
M  V30 13736 C 1310.54 -3.34445 0.40598 0
M  V30 13737 O 1311.07 -3.98753 -0.485676 0
M  V30 13738 N 1309.28 -2.8924 0.280857 0
M  V30 13739 H 1308.82 -2.37085 1.00741 0
M  V30 13740 H 1308.78 -3.09309 -0.563493 0
M  V30 13741 N 1312.55 -1.36459 -0.788468 0
M  V30 13742 C 1313.48 -1.33545 -1.91541 0
M  V30 13743 C 1314.46 -0.206762 -1.68839 0
M  V30 13744 O 1315.65 -0.404553 -1.89939 0
M  V30 13745 C 1312.78 -1.12492 -3.28577 0
M  V30 13746 C 1311.73 -2.22196 -3.65805 0
M  V30 13747 C 1311.06 -1.86285 -5.01201 0
M  V30 13748 C 1312.36 -3.64286 -3.7429 0
M  V30 13749 H 1314.05 -2.27844 -1.94236 0
M  V30 13750 H 1311.6 -1.09677 -0.933105 0
M  V30 13751 H 1313.55 -1.09089 -4.07035 0
M  V30 13752 H 1312.28 -0.146446 -3.26272 0
M  V30 13753 H 1310.93 -2.24727 -2.89644 0
M  V30 13754 H 1310.58 -0.87009 -4.95417 0
M  V30 13755 H 1310.28 -2.59734 -5.27079 0
M  V30 13756 H 1311.81 -1.84439 -5.82078 0
M  V30 13757 H 1313.22 -3.63977 -4.42937 0
M  V30 13758 H 1311.62 -4.36648 -4.11653 0
M  V30 13759 H 1312.69 -3.99123 -2.75371 0
M  V30 13760 N 1314.03 1.01274 -1.20754 0
M  V30 13761 C 1315.28 1.74342 -1.01428 0
M  V30 13762 C 1315.59 1.90265 0.453708 0
M  V30 13763 O 1316.8 2.60465 0.76618 0
M  V30 13764 C 1315.25 3.13588 -1.76609 0
M  V30 13765 C 1314.86 3.05664 -3.27526 0
M  V30 13766 C 1316.61 3.9084 -1.65664 0
M  V30 13767 C 1314.51 4.39942 -3.95228 0
M  V30 13768 H 1313.44 0.653619 -0.375897 0
M  V30 13769 H 1316.09 1.13214 -1.44412 0
M  V30 13770 H 1314.48 3.75281 -1.26413 0
M  V30 13771 H 1315.65 2.53256 -3.84965 0
M  V30 13772 H 1313.97 2.41904 -3.38927 0
M  V30 13773 H 1316.56 4.9019 -2.13583 0
M  V30 13774 H 1316.91 4.11754 -0.61351 0
M  V30 13775 H 1317.44 3.35783 -2.13294 0
M  V30 13776 H 1314.18 4.24229 -4.9971 0
M  V30 13777 H 1313.7 4.92342 -3.42578 0
M  V30 13778 H 1315.38 5.08771 -3.99701 0
M  V30 13779 N 1315.51 1.01404 1.20644 0
M  V30 13780 C 1316.44 0.526835 2.22035 0
M  V30 13781 C 1317.42 -0.424347 1.56965 0
M  V30 13782 O 1318.6 -0.344947 1.85317 0
M  V30 13783 C 1315.73 -0.233628 3.37893 0
M  V30 13784 C 1314.78 0.666719 4.21257 0
M  V30 13785 S 1315.61 2.13439 4.91125 0
M  V30 13786 C 1316.77 1.38402 6.10406 0
M  V30 13787 H 1317 1.38595 2.63018 0
M  V30 13788 H 1314.53 0.822723 1.30655 0
M  V30 13789 H 1316.49 -0.666289 4.05057 0
M  V30 13790 H 1315.15 -1.06828 2.95375 0
M  V30 13791 H 1314.34 0.0804713 5.03936 0
M  V30 13792 H 1313.95 1.03705 3.59335 0
M  V30 13793 H 1316.24 0.662667 6.74251 0
M  V30 13794 H 1317.18 2.18686 6.73485 0
M  V30 13795 H 1317.59 0.888021 5.57471 0
M  V30 13796 N 1316.99 -1.36373 0.789944 0
M  V30 13797 C 1318.26 -1.9349 0.286543 0
M  V30 13798 C 1318.64 -1.7218 -1.22136 0
M  V30 13799 O 1317.99 -1.08106 -2.01309 0
M  V30 13800 C 1318.2 -3.42316 0.679749 0
M  V30 13801 C 1319.55 -4.19442 0.659791 0
M  V30 13802 O 1320.57 -3.50758 0.620256 0
M  V30 13803 O 1319.43 -5.41957 0.703159 0
M  V30 13804 H 1316.53 -0.823942 0.0710537 0
M  V30 13805 H 1319.07 -1.45551 0.872523 0
M  V30 13806 H 1317.85 -3.51485 1.7197 0
M  V30 13807 H 1317.47 -3.97542 0.0676823 0
M  V30 13808 N 1318.47 -0.542005 -1.47987 0
M  V30 13809 C 1319.69 -0.016717 -2.06893 0
M  V30 13810 C 1320.11 1.27015 -1.39687 0
M  V30 13811 O 1319.47 1.75845 -0.488326 0
M  V30 13812 C 1319.52 0.198437 -3.60955 0
M  V30 13813 O 1319.24 -1.03746 -4.25639 0
M  V30 13814 C 1320.74 0.762741 -4.36689 0
M  V30 13815 H 1317.96 -0.0389497 -0.669869 0
M  V30 13816 H 1320.5 -0.751082 -1.90208 0
M  V30 13817 H 1318.66 0.882884 -3.77205 0
M  V30 13818 H 1319.07 -0.82568 -5.1796 0
M  V30 13819 H 1320.55 0.862649 -5.45218 0
M  V30 13820 H 1321.02 1.77049 -4.01933 0
M  V30 13821 H 1321.63 0.114478 -4.25146 0
M  V30 13822 N 1319.94 1.55134 -0.277709 0
M  V30 13823 C 1321.19 1.99654 0.33833 0
M  V30 13824 C 1321.52 1.16612 1.55666 0
M  V30 13825 O 1320.77 0.224428 1.94409 0
M  V30 13826 C 1321.07 3.49182 0.762028 0
M  V30 13827 C 1320.74 4.49524 -0.351958 0
M  V30 13828 C 1319.4 4.76682 -0.657833 0
M  V30 13829 C 1321.75 5.09406 -1.10247 0
M  V30 13830 C 1319.08 5.6099 -1.71776 0
M  V30 13831 C 1321.43 5.94866 -2.15214 0
M  V30 13832 C 1320.1 6.20344 -2.46434 0
M  V30 13833 H 1319.37 0.730584 0.123804 0
M  V30 13834 H 1322.01 1.87446 -0.391961 0
M  V30 13835 H 1320.32 3.58879 1.57204 0
M  V30 13836 H 1322.02 3.81037 1.24947 0
M  V30 13837 H 1318.61 4.28475 -0.103438 0
M  V30 13838 H 1322.79 4.88446 -0.879422 0
M  V30 13839 H 1318.05 5.78975 -1.96463 0
M  V30 13840 H 1322.22 6.403 -2.73842 0
M  V30 13841 H 1319.85 6.85464 -3.28699 0
M  V30 13842 N 1321.42 0.00503138 1.57599 0
M  V30 13843 C 1322.38 -0.969628 2.0768 0
M  V30 13844 C 1323.38 -1.26933 0.987148 0
M  V30 13845 O 1324.57 -1.21368 1.24962 0
M  V30 13846 C 1321.71 -2.29312 2.52247 0
M  V30 13847 H 1322.9 -0.536342 2.95065 0
M  V30 13848 H 1320.45 -0.242543 1.54407 0
M  V30 13849 H 1321.19 -2.7732 1.6812 0
M  V30 13850 H 1320.97 -2.08878 3.31832 0
M  V30 13851 H 1322.46 -2.99221 2.91302 0
M  V30 13852 N 1322.9 -1.55308 -0.267798 0
M  V30 13853 C 1324.12 -1.80524 -1.02107 0
M  V30 13854 C 1324.55 -0.579268 -1.78958 0
M  V30 13855 O 1323.91 0.471262 -1.75068 0
M  V30 13856 C 1323.96 -3.03248 -1.95123 0
M  V30 13857 O 1323.06 -2.78699 -3.03975 0
M  V30 13858 H 1322.4 -0.596518 -0.291655 0
M  V30 13859 H 1324.93 -2.0246 -0.295128 0
M  V30 13860 H 1324.94 -3.32121 -2.3698 0
M  V30 13861 H 1323.62 -3.92126 -1.386 0
M  V30 13862 H 1322.19 -2.60936 -2.66396 0
M  V30 13863 N 1324.38 0.532545 -1.4833 0
M  V30 13864 C 1325.31 1.64662 -1.65555 0
M  V30 13865 C 1326.29 1.62447 -0.50447 0
M  V30 13866 O 1327.47 1.79684 -0.736712 0
M  V30 13867 C 1324.6 3.03256 -1.69272 0
M  V30 13868 C 1323.56 3.20329 -2.83854 0
M  V30 13869 C 1322.88 4.59958 -2.72659 0
M  V30 13870 C 1324.18 3.03345 -4.25181 0
M  V30 13871 H 1325.88 1.50502 -2.58823 0
M  V30 13872 H 1323.42 0.722612 -1.24556 0
M  V30 13873 H 1325.38 3.81064 -1.79911 0
M  V30 13874 H 1324.1 3.18433 -0.725805 0
M  V30 13875 H 1322.76 2.44937 -2.72766 0
M  V30 13876 H 1322.41 4.71967 -1.73942 0
M  V30 13877 H 1322.11 4.72327 -3.49544 0
M  V30 13878 H 1323.63 5.39869 -2.85262 0
M  V30 13879 H 1325.05 3.70948 -4.37116 0
M  V30 13880 H 1323.44 3.27208 -5.03045 0
M  V30 13881 H 1324.51 1.998 -4.41824 0
M  V30 13882 N 1325.86 1.36875 0.78122 0
M  V30 13883 C 1326.82 1.31706 1.8758 0
M  V30 13884 C 1327.82 0.223044 1.59246 0
M  V30 13885 O 1329.01 0.478327 1.67504 0
M  V30 13886 C 1326.14 1.0437 3.2453 0
M  V30 13887 H 1327.33 2.29059 1.93576 0
M  V30 13888 H 1324.89 1.21766 0.979931 0
M  V30 13889 H 1325.62 0.0750941 3.24213 0
M  V30 13890 H 1325.41 1.83548 3.46486 0
M  V30 13891 H 1326.9 1.0338 4.04602 0
M  V30 13892 N 1327.33 -1.00632 1.21289 0
M  V30 13893 C 1328.26 -2.11238 0.995021 0
M  V30 13894 C 1329.24 -1.69914 -0.0795537 0
M  V30 13895 O 1330.43 -1.94035 0.0800152 0
M  V30 13896 C 1327.56 -3.42797 0.557475 0
M  V30 13897 C 1326.51 -3.97909 1.57646 0
M  V30 13898 C 1325.84 -5.25357 0.995197 0
M  V30 13899 C 1327.14 -4.30123 2.96297 0
M  V30 13900 H 1328.83 -2.29722 1.9201 0
M  V30 13901 H 1326.38 -1.10395 0.924602 0
M  V30 13902 H 1328.33 -4.19571 0.392236 0
M  V30 13903 H 1327.06 -3.24101 -0.403253 0
M  V30 13904 H 1325.72 -3.23254 1.72924 0
M  V30 13905 H 1325.36 -5.02993 0.026227 0
M  V30 13906 H 1325.06 -5.63196 1.67583 0
M  V30 13907 H 1326.59 -6.04777 0.841251 0
M  V30 13908 H 1328 -4.97744 2.8447 0
M  V30 13909 H 1326.4 -4.79101 3.61361 0
M  V30 13910 H 1327.47 -3.38454 3.47242 0
M  V30 13911 N 1328.81 -1.02043 -1.20104 0
M  V30 13912 C 1329.77 -0.598682 -2.21243 0
M  V30 13913 C 1330.77 0.333205 -1.5731 0
M  V30 13914 O 1331.96 0.12137 -1.73777 0
M  V30 13915 C 1329.1 0.125183 -3.4067 0
M  V30 13916 H 1330.29 -1.49345 -2.60069 0
M  V30 13917 H 1327.84 -0.810649 -1.33634 0
M  V30 13918 H 1328.58 1.03469 -3.07351 0
M  V30 13919 H 1328.36 -0.544316 -3.88304 0
M  V30 13920 H 1329.85 0.407469 -4.15607 0
M  V30 13921 N 1330.29 1.35952 -0.797165 0
M  V30 13922 C 1331.52 2.0328 -0.385316 0
M  V30 13923 C 1331.93 1.60095 1.00076 0
M  V30 13924 O 1331.29 0.794014 1.64322 0
M  V30 13925 C 1331.34 3.5871 -0.448284 0
M  V30 13926 O 1331.06 4.00323 -1.7797 0
M  V30 13927 C 1332.56 4.43291 -0.0280465 0
M  V30 13928 H 1329.78 0.652192 -0.157756 0
M  V30 13929 H 1332.33 1.73769 -1.07817 0
M  V30 13930 H 1330.48 3.86903 0.196224 0
M  V30 13931 H 1330.9 4.94941 -1.73592 0
M  V30 13932 H 1332.37 5.51862 -0.123234 0
M  V30 13933 H 1332.85 4.27059 1.02552 0
M  V30 13934 H 1333.45 4.20375 -0.645343 0
M  V30 13935 N 1331.77 0.549846 1.47697 0
M  V30 13936 C 1332.68 -0.205286 2.337 0
M  V30 13937 C 1333.69 -0.919271 1.47734 0
M  V30 13938 O 1334.87 -0.889808 1.80678 0
M  V30 13939 C 1331.94 -1.22658 3.24278 0
M  V30 13940 C 1331 -0.520815 4.26129 0
M  V30 13941 C 1330.23 -1.49345 5.12378 0
M  V30 13942 O 1330.45 -2.72772 5.00951 0
M  V30 13943 O 1329.39 -1.02197 5.93161 0
M  V30 13944 H 1333.21 0.499982 2.99556 0
M  V30 13945 H 1330.8 0.310538 1.46137 0
M  V30 13946 H 1332.68 -1.8163 3.80248 0
M  V30 13947 H 1331.35 -1.9139 2.61059 0
M  V30 13948 H 1330.26 0.109906 3.73939 0
M  V30 13949 H 1331.59 0.124922 4.92041 0
M  V30 13950 N 1333.25 -1.54984 0.285932 0
M  V30 13951 C 1334.66 -1.85519 -0.209707 0
M  V30 13952 C 1335.01 -1.20794 -1.54606 0
M  V30 13953 O 1334.13 -0.500159 -2.10541 0
M  V30 13954 C 1334.73 -3.36579 -0.387283 0
M  V30 13955 C 1333.29 -3.67199 -0.827148 0
M  V30 13956 C 1332.43 -2.77203 0.073308 0
M  V30 13957 H 1335.39 -1.5037 0.507404 0
M  V30 13958 H 1335.41 -3.60269 -1.2242 0
M  V30 13959 H 1334.92 -3.83658 0.585493 0
M  V30 13960 H 1333.02 -3.25627 -1.81101 0
M  V30 13961 H 1333.13 -4.74574 -0.656976 0
M  V30 13962 H 1331.5 -2.50785 -0.444859 0
M  V30 13963 H 1332.28 -3.27099 1.04216 0
M  V30 13964 N 1334.72 -0.0133892 -1.57594 0
M  V30 13965 C 1336.14 0.527615 -1.7909 0
M  V30 13966 C 1336.49 1.73179 -0.922142 0
M  V30 13967 O 1335.61 2.1602 -0.128233 0
M  V30 13968 C 1336.21 0.963949 -3.24798 0
M  V30 13969 C 1334.77 1.45017 -3.47343 0
M  V30 13970 C 1333.91 0.407548 -2.74289 0
M  V30 13971 H 1336.86 -0.239505 -1.56882 0
M  V30 13972 H 1336.88 1.82924 -3.33645 0
M  V30 13973 H 1336.4 0.0873315 -3.88002 0
M  V30 13974 H 1334.5 2.34724 -2.89371 0
M  V30 13975 H 1334.61 1.4684 -4.56043 0
M  V30 13976 H 1332.97 0.872174 -2.39301 0
M  V30 13977 H 1333.76 -0.460333 -3.402 0
M  V30 13978 N 1336.2 1.55448 0.259558 0
M  V30 13979 C 1337.43 1.80727 1.00723 0
M  V30 13980 C 1337.85 0.587354 1.79431 0
M  V30 13981 O 1337.2 -0.443819 1.77021 0
M  V30 13982 C 1337.25 3.04064 1.95517 0
M  V30 13983 O 1336.97 4.21346 1.19996 0
M  V30 13984 C 1338.48 3.42049 2.81988 0
M  V30 13985 H 1335.7 0.601713 0.296956 0
M  V30 13986 H 1338.24 2.02486 0.286273 0
M  V30 13987 H 1336.39 2.84392 2.63058 0
M  V30 13988 H 1336.81 4.91164 1.84006 0
M  V30 13989 H 1338.28 4.31485 3.44274 0
M  V30 13990 H 1338.76 2.62059 3.52451 0
M  V30 13991 H 1339.37 3.64027 2.19918 0
M  V30 13992 N 1337.68 -0.524672 1.4861 0
M  V30 13993 C 1338.59 -1.65554 1.6622 0
M  V30 13994 C 1339.61 -1.65254 0.54471 0
M  V30 13995 O 1340.78 -1.84109 0.816454 0
M  V30 13996 C 1337.85 -3.02003 1.7028 0
M  V30 13997 C 1336.91 -3.13116 2.93695 0
M  V30 13998 C 1336.14 -4.43055 2.97553 0
M  V30 13999 O 1336.36 -5.30468 2.09667 0
M  V30 14000 O 1335.3 -4.58646 3.89779 0
M  V30 14001 H 1339.12 -1.53633 2.61974 0
M  V30 14002 H 1336.71 -0.698354 1.32073 0
M  V30 14003 H 1338.59 -3.83143 1.75441 0
M  V30 14004 H 1337.27 -3.14236 0.777002 0
M  V30 14005 H 1336.17 -2.31251 2.94064 0
M  V30 14006 H 1337.51 -3.058 3.85677 0
M  V30 14007 N 1339.16 -1.37287 -0.77395 0
M  V30 14008 C 1340.38 -1.35734 -1.56815 0
M  V30 14009 C 1340.81 0.0555546 -1.88018 0
M  V30 14010 O 1340.17 1.03197 -1.49064 0
M  V30 14011 C 1340.21 -2.2008 -2.85652 0
M  V30 14012 O 1339.32 -1.60391 -3.79932 0
M  V30 14013 H 1338.66 -0.463881 -0.47509 0
M  V30 14014 H 1341.19 -1.80781 -0.958087 0
M  V30 14015 H 1341.2 -2.33215 -3.34776 0
M  V30 14016 H 1339.87 -3.22781 -2.6227 0
M  V30 14017 H 1338.45 -1.56285 -3.3857 0
M  V30 14018 N 1340.64 0.999871 -1.21821 0
M  V30 14019 C 1341.57 2.10708 -1.00621 0
M  V30 14020 C 1342.55 1.69954 0.0705417 0
M  V30 14021 O 1343.73 1.9399 -0.0903042 0
M  V30 14022 C 1340.86 3.42496 -0.575646 0
M  V30 14023 C 1339.82 3.97068 -1.59754 0
M  V30 14024 C 1339.14 5.24822 -1.02304 0
M  V30 14025 C 1340.44 4.28545 -2.98574 0
M  V30 14026 H 1342.14 2.28701 -1.93226 0
M  V30 14027 H 1339.68 1.09903 -0.930443 0
M  V30 14028 H 1341.64 4.19357 -0.414481 0
M  V30 14029 H 1340.36 3.2431 0.386059 0
M  V30 14030 H 1339.02 3.22332 -1.74636 0
M  V30 14031 H 1338.67 5.02972 -0.0529016 0
M  V30 14032 H 1338.37 5.62299 -1.70567 0
M  V30 14033 H 1339.89 6.04322 -0.873312 0
M  V30 14034 H 1341.3 4.96229 -2.87106 0
M  V30 14035 H 1339.7 4.77178 -3.63897 0
M  V30 14036 H 1340.77 3.36607 -3.49032 0
M  V30 14037 N 1342.11 1.02678 1.19562 0
M  V30 14038 C 1343.04 0.626359 2.24942 0
M  V30 14039 C 1344.03 -0.363612 1.66168 0
M  V30 14040 O 1345.21 -0.246793 1.92625 0
M  V30 14041 C 1342.34 -0.0257912 3.4729 0
M  V30 14042 C 1341.29 0.886237 4.18724 0
M  V30 14043 C 1340.62 0.0993081 5.34608 0
M  V30 14044 C 1341.92 2.19901 4.73752 0
M  V30 14045 H 1343.61 1.50729 2.58691 0
M  V30 14046 H 1341.16 0.726195 1.24348 0
M  V30 14047 H 1343.11 -0.317545 4.20202 0
M  V30 14048 H 1341.84 -0.941511 3.12735 0
M  V30 14049 H 1340.5 1.16215 3.47692 0
M  V30 14050 H 1340.14 -0.81838 4.96298 0
M  V30 14051 H 1339.84 0.706776 5.83334 0
M  V30 14052 H 1341.37 -0.185754 6.10317 0
M  V30 14053 H 1342.78 1.96892 5.3843 0
M  V30 14054 H 1341.18 2.75821 5.32956 0
M  V30 14055 H 1342.25 2.85509 3.91934 0
M  V30 14056 N 1343.59 -1.35528 0.804364 0
M  V30 14057 C 1344.52 -2.32388 0.227604 0
M  V30 14058 C 1345.5 -1.57368 -0.645709 0
M  V30 14059 O 1346.69 -1.85448 -0.576441 0
M  V30 14060 C 1343.82 -3.41603 -0.62645 0
M  V30 14061 C 1342.77 -4.27743 0.148187 0
M  V30 14062 C 1342.1 -5.28259 -0.827425 0
M  V30 14063 C 1343.4 -5.04661 1.34591 0
M  V30 14064 H 1345.09 -2.80874 1.03684 0
M  V30 14065 H 1342.64 -1.3504 0.500031 0
M  V30 14066 H 1344.59 -4.08365 -1.03999 0
M  V30 14067 H 1343.32 -2.91721 -1.46855 0
M  V30 14068 H 1341.97 -3.62558 0.542874 0
M  V30 14069 H 1341.62 -4.74645 -1.66496 0
M  V30 14070 H 1341.32 -5.86763 -0.313453 0
M  V30 14071 H 1342.85 -5.97893 -1.23921 0
M  V30 14072 H 1344.26 -5.6438 1.00736 0
M  V30 14073 H 1342.66 -5.7265 1.79422 0
M  V30 14074 H 1343.73 -4.35432 2.1337 0
M  V30 14075 N 1345.07 -0.557671 -1.47404 0
M  V30 14076 C 1346.49 -0.217473 -1.58111 0
M  V30 14077 C 1346.69 1.28 -1.55622 0
M  V30 14078 O 1345.74 2.06019 -1.45988 0
M  V30 14079 C 1347.06 -0.844535 -2.88597 0
M  V30 14080 C 1348.6 -0.815807 -3.02181 0
M  V30 14081 C 1349.08 -1.42195 -4.35367 0
M  V30 14082 N 1350.57 -1.38515 -4.42004 0
M  V30 14083 C 1351.31 -1.82378 -5.43623 0
M  V30 14084 N 1350.8 -2.34098 -6.52051 0
M  V30 14085 N 1352.59 -1.73446 -5.34671 0
M  V30 14086 H 1344.75 -1.53058 -1.47265 0
M  V30 14087 H 1347.01 -0.638305 -0.700907 0
M  V30 14088 H 1346.71 -1.89696 -2.96156 0
M  V30 14089 H 1346.59 -0.337844 -3.75684 0
M  V30 14090 H 1348.98 0.227925 -2.94218 0
M  V30 14091 H 1349.06 -1.36026 -2.16635 0
M  V30 14092 H 1348.7 -2.46475 -4.44086 0
M  V30 14093 H 1348.63 -0.852932 -5.19647 0
M  V30 14094 H 1351.12 -1.00684 -3.64241 0
M  V30 14095 H 1351.43 -2.6549 -7.25765 0
M  V30 14096 H 1349.78 -2.38109 -6.52939 0
M  V30 14097 H 1352.97 -1.32816 -4.48862 0
M  V30 14098 H 1353.14 -2.07947 -6.13728 0
M  V30 14099 N 1346.55 1.54831 -0.294147 0
M  V30 14100 C 1347.5 2.23263 0.58499 0
M  V30 14101 C 1348.47 1.21278 1.13494 0
M  V30 14102 O 1349.65 1.49878 1.18073 0
M  V30 14103 C 1346.79 2.97185 1.75429 0
M  V30 14104 C 1345.9 4.1393 1.23638 0
M  V30 14105 C 1345.04 4.7545 2.36899 0
M  V30 14106 C 1344.08 5.84352 1.82207 0
M  V30 14107 N 1343.22 6.39855 2.89015 0
M  V30 14108 H 1348.06 2.98 -0.00519329 0
M  V30 14109 H 1345.59 1.47093 -0.0143313 0
M  V30 14110 H 1347.55 3.38271 2.4419 0
M  V30 14111 H 1346.18 2.24837 2.3162 0
M  V30 14112 H 1345.23 3.77832 0.441247 0
M  V30 14113 H 1346.54 4.92409 0.795946 0
M  V30 14114 H 1345.7 5.19353 3.1362 0
M  V30 14115 H 1344.44 3.96288 2.84266 0
M  V30 14116 H 1343.44 5.39879 1.03974 0
M  V30 14117 H 1344.67 6.65393 1.35753 0
M  V30 14118 H 1342.61 5.6358 3.35729 0
M  V30 14119 H 1342.53 7.13661 2.49447 0
M  V30 14120 H 1343.8 6.88417 3.65654 0
M  V30 14121 N 1348.03 0.0217466 1.57585 0
M  V30 14122 C 1349.44 -0.51811 1.79367 0
M  V30 14123 C 1349.79 -1.72688 0.931313 0
M  V30 14124 O 1348.91 -2.15949 0.139687 0
M  V30 14125 C 1349.51 -0.946711 3.25304 0
M  V30 14126 C 1348.07 -1.43173 3.48107 0
M  V30 14127 C 1347.22 -0.392996 2.74501 0
M  V30 14128 H 1350.17 0.247822 1.56753 0
M  V30 14129 H 1350.19 -1.81152 3.34611 0
M  V30 14130 H 1349.7 -0.0667536 3.88043 0
M  V30 14131 H 1347.8 -2.33186 2.90612 0
M  V30 14132 H 1347.91 -1.44419 4.56815 0
M  V30 14133 H 1346.28 -0.859471 2.39761 0
M  V30 14134 H 1347.06 0.478368 3.39951 0
M  V30 14135 N 1349.51 -1.55583 -0.251311 0
M  V30 14136 C 1350.74 -1.80996 -0.99619 0
M  V30 14137 C 1351.14 -0.594534 -1.79616 0
M  V30 14138 O 1350.49 0.446197 -1.78199 0
M  V30 14139 C 1350.55 -2.99691 -1.98559 0
M  V30 14140 C 1350.21 -4.35888 -1.37297 0
M  V30 14141 C 1351.21 -5.14051 -0.777672 0
M  V30 14142 C 1348.89 -4.82579 -1.39366 0
M  V30 14143 C 1350.89 -6.3705 -0.211225 0
M  V30 14144 C 1348.58 -6.05528 -0.823357 0
M  V30 14145 C 1349.57 -6.82602 -0.233163 0
M  V30 14146 O 1349.26 -8.03229 0.328345 0
M  V30 14147 H 1348.99 -0.606287 -0.298985 0
M  V30 14148 H 1351.55 -2.03471 -0.280813 0
M  V30 14149 H 1349.78 -2.7296 -2.73915 0
M  V30 14150 H 1351.47 -3.12235 -2.59354 0
M  V30 14151 H 1352.23 -4.791 -0.754228 0
M  V30 14152 H 1348.11 -4.22582 -1.84243 0
M  V30 14153 H 1351.66 -6.97152 0.250073 0
M  V30 14154 H 1347.55 -6.39957 -0.844114 0
M  V30 14155 H 1348.32 -8.18205 0.219785 0
M  V30 14156 N 1350.98 0.516783 -1.48886 0
M  V30 14157 C 1352.23 1.26936 -1.57263 0
M  V30 14158 C 1352.55 1.93337 -0.254156 0
M  V30 14159 O 1351.82 1.81977 0.725345 0
M  V30 14160 H 1350.4 0.4715 -0.579393 0
M  V30 14161 H 1353.06 0.600289 -1.85425 0
M  V30 14162 H 1352.16 2.04167 -2.36055 0
M  V30 14163 N 1352.46 1.37696 0.766659 0
M  V30 14164 C 1353.88 1.18607 1.06792 0
M  V30 14165 C 1354.08 0.0257195 2.01484 0
M  V30 14166 O 1353.13 -0.632608 2.44447 0
M  V30 14167 C 1354.45 2.50692 1.66054 0
M  V30 14168 C 1355.99 2.57259 1.78288 0
M  V30 14169 C 1356.47 3.89488 2.40963 0
M  V30 14170 N 1357.96 3.90957 2.48408 0
M  V30 14171 C 1358.7 4.90023 2.97767 0
M  V30 14172 N 1358.19 5.99485 3.4726 0
M  V30 14173 N 1359.98 4.77423 2.96688 0
M  V30 14174 H 1352.14 2.11951 0.138031 0
M  V30 14175 H 1354.4 0.939873 0.123863 0
M  V30 14176 H 1354.1 3.35989 1.03945 0
M  V30 14177 H 1353.98 2.68148 2.65286 0
M  V30 14178 H 1356.37 1.72366 2.39528 0
M  V30 14179 H 1356.45 2.43682 0.777981 0
M  V30 14180 H 1356.09 4.74797 1.8036 0
M  V30 14181 H 1356.02 4.0037 3.42069 0
M  V30 14182 H 1358.51 3.11888 2.13388 0
M  V30 14183 H 1358.82 6.71022 3.8334 0
M  V30 14184 H 1357.17 6.03123 3.45351 0
M  V30 14185 H 1360.36 3.91026 2.57325 0
M  V30 14186 H 1360.53 5.54783 3.34844 0
M  V30 14187 N 1353.94 -0.993397 1.22349 0
M  V30 14188 C 1355.22 -1.7063 0.956275 0
M  V30 14189 C 1355.6 -2.0437 -0.52877 0
M  V30 14190 O 1354.94 -1.72662 -1.49667 0
M  V30 14191 C 1355.15 -2.95725 1.85331 0
M  V30 14192 C 1356.5 -3.68514 2.10909 0
M  V30 14193 O 1357.53 -3.05732 1.82775 0
M  V30 14194 O 1356.39 -4.81468 2.58556 0
M  V30 14195 H 1353.48 -0.744734 0.359583 0
M  V30 14196 H 1356.03 -1.04979 1.33333 0
M  V30 14197 H 1354.8 -2.6729 2.85782 0
M  V30 14198 H 1354.42 -3.69116 1.47781 0
M  V30 14199 N 1355.42 -1.03311 -1.19015 0
M  V30 14200 C 1356.36 -0.617567 -2.22384 0
M  V30 14201 C 1357.33 0.370779 -1.61909 0
M  V30 14202 O 1358.52 0.266481 -1.8893 0
M  V30 14203 C 1355.66 0.0211303 -3.45094 0
M  V30 14204 C 1354.77 -1.01377 -4.19937 0
M  V30 14205 C 1353.91 -0.344385 -5.30082 0
M  V30 14206 C 1352.95 -1.3649 -5.96688 0
M  V30 14207 N 1352.08 -0.721026 -6.98388 0
M  V30 14208 H 1356.92 -1.5036 -2.57286 0
M  V30 14209 H 1354.46 -0.75235 -1.26405 0
M  V30 14210 H 1356.42 0.408713 -4.15193 0
M  V30 14211 H 1355.05 0.870721 -3.10835 0
M  V30 14212 H 1354.1 -1.51937 -3.4874 0
M  V30 14213 H 1355.41 -1.78921 -4.65606 0
M  V30 14214 H 1354.57 0.097814 -6.06621 0
M  V30 14215 H 1353.31 0.463216 -4.85495 0
M  V30 14216 H 1352.31 -1.81732 -5.18897 0
M  V30 14217 H 1353.54 -2.17407 -6.43359 0
M  V30 14218 H 1351.48 0.0664057 -6.55966 0
M  V30 14219 H 1351.4 -1.43428 -7.4227 0
M  V30 14220 H 1352.67 -0.30297 -7.78911 0
M  V30 14221 N 1356.9 1.35099 -0.81154 0
M  V30 14222 C 1358.31 1.81082 -0.454543 0
M  V30 14223 C 1358.66 1.67361 1.02395 0
M  V30 14224 O 1357.78 1.20707 1.79607 0
M  V30 14225 C 1358.38 3.2877 -0.818274 0
M  V30 14226 C 1356.94 3.72877 -0.513808 0
M  V30 14227 C 1356.08 2.57008 -1.04125 0
M  V30 14228 H 1359.03 1.23007 -1.00274 0
M  V30 14229 H 1359.06 3.80318 -0.117683 0
M  V30 14230 H 1358.57 3.38725 -1.89439 0
M  V30 14231 H 1356.67 3.68468 0.553368 0
M  V30 14232 H 1356.78 4.67455 -1.0499 0
M  V30 14233 H 1355.15 2.5045 -0.463337 0
M  V30 14234 H 1355.93 2.69738 -2.12358 0
M  V30 14235 N 1358.37 0.56548 1.47106 0
M  V30 14236 C 1359.3 -0.16567 2.32912 0
M  V30 14237 C 1360.28 -0.900678 1.44298 0
M  V30 14238 O 1361.47 -0.879523 1.73142 0
M  V30 14239 C 1358.6 -1.19092 3.26243 0
M  V30 14240 C 1357.55 -0.571849 4.24163 0
M  V30 14241 C 1356.88 -1.70233 5.06878 0
M  V30 14242 C 1358.18 0.479785 5.20092 0
M  V30 14243 H 1359.87 0.550705 2.94292 0
M  V30 14244 H 1357.42 0.266284 1.41517 0
M  V30 14245 H 1359.37 -1.71064 3.85117 0
M  V30 14246 H 1358.1 -1.93734 2.62934 0
M  V30 14247 H 1356.76 -0.073353 3.66527 0
M  V30 14248 H 1356.4 -2.438 4.39967 0
M  V30 14249 H 1356.1 -1.29384 5.73178 0
M  V30 14250 H 1357.63 -2.22515 5.68612 0
M  V30 14251 H 1359.04 0.0458042 5.73282 0
M  V30 14252 H 1357.44 0.807615 5.94641 0
M  V30 14253 H 1358.51 1.37259 4.65068 0
M  V30 14254 N 1359.85 -1.54672 0.302354 0
M  V30 14255 C 1361.1 -1.99345 -0.307307 0
M  V30 14256 C 1361.41 -1.19437 -1.549 0
M  V30 14257 O 1362.62 -1.54384 -2.23334 0
M  V30 14258 C 1361.08 -3.54896 -0.59808 0
M  V30 14259 C 1360.68 -4.43614 0.625357 0
M  V30 14260 C 1362.43 -4.08091 -1.16886 0
M  V30 14261 C 1360.34 -5.90599 0.307661 0
M  V30 14262 H 1359.27 -0.744614 -0.118603 0
M  V30 14263 H 1361.92 -1.78832 0.411271 0
M  V30 14264 H 1360.3 -3.71314 -1.37629 0
M  V30 14265 H 1361.47 -4.38969 1.40152 0
M  V30 14266 H 1359.79 -4.01198 1.11487 0
M  V30 14267 H 1362.38 -5.15477 -1.42082 0
M  V30 14268 H 1362.73 -3.58775 -2.11155 0
M  V30 14269 H 1363.26 -3.9522 -0.452329 0
M  V30 14270 H 1360 -6.44067 1.21895 0
M  V30 14271 H 1359.52 -5.98248 -0.431208 0
M  V30 14272 H 1361.2 -6.46937 -0.0902796 0
M  V30 14273 N 1361.33 -0.0301034 -1.57571 0
M  V30 14274 C 1362.56 0.662045 -1.9655 0
M  V30 14275 C 1362.98 1.64811 -0.906581 0
M  V30 14276 O 1362.34 1.80816 0.132415 0
M  V30 14277 C 1362.39 1.34389 -3.34622 0
M  V30 14278 O 1361.49 2.45919 -3.31056 0
M  V30 14279 H 1360.83 0.173842 -0.640839 0
M  V30 14280 H 1363.36 -0.092248 -2.04392 0
M  V30 14281 H 1363.37 1.70045 -3.70875 0
M  V30 14282 H 1362.05 0.621092 -4.11236 0
M  V30 14283 H 1360.62 2.12367 -3.06521 0
M  V30 14284 N 1362.81 1.55714 0.243056 0
M  V30 14285 C 1364.22 1.48224 0.591754 0
M  V30 14286 C 1364.42 0.72105 1.88157 0
M  V30 14287 O 1363.48 0.251966 2.5124 0
M  V30 14288 C 1364.79 2.92655 0.690918 0
M  V30 14289 C 1366.34 3.03048 0.782988 0
M  V30 14290 C 1366.82 4.48794 0.913682 0
M  V30 14291 N 1368.31 4.52748 0.978454 0
M  V30 14292 C 1369.04 5.62771 1.09891 0
M  V30 14293 N 1368.54 6.82596 1.18467 0
M  V30 14294 N 1370.33 5.50576 1.13237 0
M  V30 14295 H 1362.48 2.03642 -0.603614 0
M  V30 14296 H 1364.75 0.924702 -0.208878 0
M  V30 14297 H 1364.45 3.51203 -0.186871 0
M  V30 14298 H 1364.33 3.43357 1.5616 0
M  V30 14299 H 1366.71 2.44578 1.65123 0
M  V30 14300 H 1366.79 2.55551 -0.112921 0
M  V30 14301 H 1366.44 5.07875 0.0499835 0
M  V30 14302 H 1366.37 4.93976 1.82469 0
M  V30 14303 H 1368.86 3.66445 0.92337 0
M  V30 14304 H 1369.17 7.62197 1.27576 0
M  V30 14305 H 1367.52 6.85349 1.15418 0
M  V30 14306 H 1370.71 4.55897 1.06188 0
M  V30 14307 H 1370.88 6.36358 1.2228 0
M  V30 14308 N 1364.29 -0.50888 1.49158 0
M  V30 14309 C 1365.51 -1.28771 1.61943 0
M  V30 14310 C 1365.93 -1.86594 0.287759 0
M  V30 14311 O 1365.29 -1.67448 -0.725769 0
M  V30 14312 C 1365.34 -2.4236 2.68224 0
M  V30 14313 O 1365.06 -1.86915 3.96225 0
M  V30 14314 C 1366.56 -3.33856 2.91642 0
M  V30 14315 H 1363.78 -0.390849 0.545416 0
M  V30 14316 H 1366.32 -0.611729 1.95136 0
M  V30 14317 H 1364.48 -3.05803 2.37831 0
M  V30 14318 H 1364.89 -2.61426 4.54705 0
M  V30 14319 H 1366.37 -4.09856 3.69759 0
M  V30 14320 H 1366.84 -3.90374 2.01258 0
M  V30 14321 H 1367.45 -2.76187 3.23421 0
M  V30 14322 N 1365.76 -1.381 -0.759346 0
M  V30 14323 C 1366.7 -1.29241 -1.88075 0
M  V30 14324 C 1367.68 -0.170526 -1.61703 0
M  V30 14325 O 1368.86 -0.346865 -1.85281 0
M  V30 14326 C 1365.99 -1.00115 -3.23566 0
M  V30 14327 C 1365.03 -2.14161 -3.68832 0
M  V30 14328 S 1365.87 -3.76251 -3.81045 0
M  V30 14329 C 1367.02 -3.49301 -5.19365 0
M  V30 14330 H 1367.25 -2.24152 -1.95303 0
M  V30 14331 H 1364.79 -1.23869 -0.921734 0
M  V30 14332 H 1366.75 -0.839934 -4.01815 0
M  V30 14333 H 1365.41 -0.0693088 -3.14024 0
M  V30 14334 H 1364.6 -1.89313 -4.67094 0
M  V30 14335 H 1364.2 -2.2636 -2.9772 0
M  V30 14336 H 1366.49 -3.05058 -6.04935 0
M  V30 14337 H 1367.44 -4.46935 -5.49231 0
M  V30 14338 H 1367.84 -2.83944 -4.87889 0
M  V30 14339 N 1367.24 0.986894 -1.22875 0
M  V30 14340 C 1368.18 2.07604 -0.947406 0
M  V30 14341 C 1369.15 1.62214 0.111904 0
M  V30 14342 O 1370.34 1.88488 -0.0209682 0
M  V30 14343 C 1367.46 3.3601 -0.42605 0
M  V30 14344 C 1366.51 4.00331 -1.47097 0
M  V30 14345 S 1367.34 4.40412 -3.04627 0
M  V30 14346 C 1368.5 5.7198 -2.54145 0
M  V30 14347 H 1368.73 2.31149 -1.86969 0
M  V30 14348 H 1366.27 1.1222 -1.06047 0
M  V30 14349 H 1368.22 4.10288 -0.131846 0
M  V30 14350 H 1366.88 3.10484 0.475211 0
M  V30 14351 H 1366.08 4.92809 -1.05618 0
M  V30 14352 H 1365.68 3.32403 -1.71418 0
M  V30 14353 H 1367.97 6.48602 -1.9576 0
M  V30 14354 H 1368.91 6.18293 -3.45137 0
M  V30 14355 H 1369.32 5.29669 -1.95221 0
M  V30 14356 N 1368.72 1.0394 1.18466 0
M  V30 14357 C 1369.67 0.629352 2.22054 0
M  V30 14358 C 1370.64 -0.362187 1.62103 0
M  V30 14359 O 1371.82 -0.256457 1.89069 0
M  V30 14360 C 1368.96 -0.00282888 3.451 0
M  V30 14361 C 1368.08 1.03602 4.19393 0
M  V30 14362 C 1367.21 0.372492 5.29892 0
M  V30 14363 C 1366.25 1.39652 5.95956 0
M  V30 14364 N 1365.39 0.758053 6.97996 0
M  V30 14365 H 1370.23 1.51722 2.56485 0
M  V30 14366 H 1367.76 0.759043 1.26004 0
M  V30 14367 H 1369.72 -0.386688 4.15404 0
M  V30 14368 H 1368.35 -0.854224 3.11292 0
M  V30 14369 H 1367.4 1.53784 3.47929 0
M  V30 14370 H 1368.72 1.81387 4.64651 0
M  V30 14371 H 1367.87 -0.065642 6.06664 0
M  V30 14372 H 1366.61 -0.437462 4.85734 0
M  V30 14373 H 1365.61 1.84481 5.17926 0
M  V30 14374 H 1366.84 2.20816 6.42197 0
M  V30 14375 H 1364.78 -0.0316173 6.55992 0
M  V30 14376 H 1364.7 1.47363 7.41499 0
M  V30 14377 H 1365.97 0.344273 7.78739 0
M  V30 14378 N 1370.2 -1.34667 0.818693 0
M  V30 14379 C 1371.15 -2.31501 0.225816 0
M  V30 14380 C 1372.14 -1.57205 -0.631112 0
M  V30 14381 O 1373.35 -1.72237 -0.522924 0
M  V30 14382 H 1369.72 -0.750039 0.0542747 0
M  V30 14383 H 1371.69 -2.79036 1.05743 0
M  V30 14384 C 1370.44 -3.42464 -0.60114 0
M  V30 14385 H 1369.76 -3.9977 0.0489207 0
M  V30 14386 H 1371.2 -4.12468 -0.982154 0
M  V30 14387 C 1369.66 -2.86551 -1.77173 0
M  V30 14388 O 1370.19 -2.81085 -2.86974 0
M  V30 14389 N 1368.4 -2.43432 -1.58712 0
M  V30 14390 H 1367.95 -2.48077 -0.693958 0
M  V30 14391 H 1367.9 -2.06371 -2.37188 0
M  V30 14392 N 1371.68 -0.573274 -1.46804 0
M  V30 14393 C 1372.93 -0.0530267 -2.0163 0
M  V30 14394 C 1373.24 1.31124 -1.45141 0
M  V30 14395 O 1374.44 1.92231 -1.91728 0
M  V30 14396 C 1372.9 -0.0442411 -3.59873 0
M  V30 14397 C 1372.51 -1.40625 -4.25357 0
M  V30 14398 C 1374.25 0.422556 -4.22392 0
M  V30 14399 C 1372.16 -1.3557 -5.75652 0
M  V30 14400 H 1371.09 -0.0160537 -0.753829 0
M  V30 14401 H 1373.74 -0.723518 -1.68634 0
M  V30 14402 H 1372.12 0.692225 -3.89903 0
M  V30 14403 H 1373.3 -2.1617 -4.06949 0
M  V30 14404 H 1371.61 -1.81229 -3.74893 0
M  V30 14405 H 1374.21 0.479021 -5.3255 0
M  V30 14406 H 1374.55 1.43806 -3.90673 0
M  V30 14407 H 1375.08 -0.259551 -3.96952 0
M  V30 14408 H 1371.82 -2.34772 -6.12015 0
M  V30 14409 H 1371.34 -0.642309 -5.96351 0
M  V30 14410 H 1373.02 -1.06458 -6.38182 0
M  V30 14411 N 1373.15 1.5451 -0.310553 0
M  V30 14412 C 1374.08 2.26827 0.554243 0
M  V30 14413 C 1375.07 1.27133 1.13009 0
M  V30 14414 O 1376.25 1.55923 1.15765 0
M  V30 14415 C 1373.38 3.01626 1.7216 0
M  V30 14416 C 1372.33 4.08547 1.27566 0
M  V30 14417 C 1371.66 4.71115 2.52893 0
M  V30 14418 C 1372.96 5.20766 0.399955 0
M  V30 14419 H 1374.65 2.9936 -0.0489475 0
M  V30 14420 H 1372.2 1.43978 -0.0249817 0
M  V30 14421 H 1374.15 3.50942 2.33276 0
M  V30 14422 H 1372.88 2.26688 2.35118 0
M  V30 14423 H 1371.54 3.60096 0.687499 0
M  V30 14424 H 1371.18 3.92805 3.14186 0
M  V30 14425 H 1370.88 5.43331 2.23752 0
M  V30 14426 H 1372.41 5.23198 3.14796 0
M  V30 14427 H 1373.82 5.65918 0.917054 0
M  V30 14428 H 1372.22 5.9976 0.2019 0
M  V30 14429 H 1373.29 4.81508 -0.572537 0
M  V30 14430 N 1374.63 0.0384594 1.57553 0
M  V30 14431 C 1375.88 -0.636879 1.91803 0
M  V30 14432 C 1376.2 -1.72128 0.916347 0
M  V30 14433 O 1375.47 -1.95858 -0.0407405 0
M  V30 14434 H 1374.05 -0.238237 0.707992 0
M  V30 14435 H 1376.71 0.0884651 1.94699 0
M  V30 14436 H 1375.81 -1.08364 2.92683 0
M  V30 14437 N 1376.11 -1.55841 -0.234795 0
M  V30 14438 C 1377.06 -1.8772 -1.29403 0
M  V30 14439 C 1378.05 -0.739087 -1.42921 0
M  V30 14440 O 1379.24 -1.00125 -1.45959 0
M  V30 14441 C 1376.37 -2.18592 -2.64712 0
M  V30 14442 C 1375.45 -3.38761 -2.55151 0
M  V30 14443 N 1375.84 -4.57723 -2.15229 0
M  V30 14444 C 1374.14 -3.42112 -2.86138 0
M  V30 14445 C 1374.84 -5.39872 -2.16595 0
M  V30 14446 N 1373.82 -4.79242 -2.5657 0
M  V30 14447 H 1377.62 -2.77219 -0.976067 0
M  V30 14448 H 1375.13 -1.5623 -0.443396 0
M  V30 14449 H 1377.13 -2.39599 -3.41171 0
M  V30 14450 H 1375.79 -1.30398 -2.97366 0
M  V30 14451 H 1376.8 -4.83126 -1.86575 0
M  V30 14452 H 1373.48 -2.64224 -3.23252 0
M  V30 14453 H 1374.87 -6.45072 -1.87967 0
M  V30 14454 N 1377.59 0.500963 -1.49426 0
M  V30 14455 C 1378.55 1.58478 -1.65582 0
M  V30 14456 C 1379.55 1.51897 -0.52762 0
M  V30 14457 O 1380.74 1.55049 -0.794071 0
M  V30 14458 C 1377.87 2.9813 -1.65322 0
M  V30 14459 H 1379.07 1.45483 -2.6225 0
M  V30 14460 H 1376.62 0.725199 -1.38458 0
M  V30 14461 H 1377.36 3.16602 -0.702384 0
M  V30 14462 H 1377.14 3.04315 -2.47255 0
M  V30 14463 H 1378.63 3.76874 -1.79878 0
M  V30 14464 N 1379.07 1.38501 0.752011 0
M  V30 14465 C 1380.31 1.34995 1.51341 0
M  V30 14466 C 1380.65 -0.0594724 1.94109 0
M  V30 14467 O 1379.92 -1.02098 1.65548 0
M  V30 14468 C 1380.2 2.30705 2.76491 0
M  V30 14469 C 1380.06 3.80515 2.39851 0
M  V30 14470 C 1381.38 2.24521 3.78521 0
M  V30 14471 H 1378.5 0.491687 0.549011 0
M  V30 14472 H 1381.14 1.69361 0.861205 0
M  V30 14473 H 1379.29 2.01529 3.32142 0
M  V30 14474 H 1380.96 4.20371 1.89962 0
M  V30 14475 H 1379.2 3.98119 1.7229 0
M  V30 14476 H 1379.87 4.42946 3.29397 0
M  V30 14477 H 1382.35 2.50282 3.32413 0
M  V30 14478 H 1381.23 2.93598 4.63779 0
M  V30 14479 H 1381.49 1.24457 4.2422 0
M  V30 14480 N 1380.55 -0.980364 1.23396 0
M  V30 14481 C 1381.78 -1.75434 1.09117 0
M  V30 14482 C 1382.18 -1.85739 -0.360243 0
M  V30 14483 O 1381.53 -1.33585 -1.26098 0
M  V30 14484 C 1381.59 -3.19795 1.6423 0
M  V30 14485 C 1381.25 -3.32999 3.12986 0
M  V30 14486 C 1382.25 -3.19321 4.1028 0
M  V30 14487 C 1379.93 -3.57647 3.52695 0
M  V30 14488 C 1381.93 -3.30096 5.45266 0
M  V30 14489 C 1379.62 -3.68061 4.87826 0
M  V30 14490 C 1380.61 -3.54295 5.83921 0
M  V30 14491 O 1380.3 -3.6434 7.16597 0
M  V30 14492 H 1380.03 -0.557382 0.382494 0
M  V30 14493 H 1382.59 -1.24038 1.63718 0
M  V30 14494 H 1380.82 -3.72439 1.04049 0
M  V30 14495 H 1382.51 -3.78954 1.45427 0
M  V30 14496 H 1383.27 -3.00177 3.80945 0
M  V30 14497 H 1379.15 -3.67433 2.78413 0
M  V30 14498 H 1382.7 -3.19268 6.20253 0
M  V30 14499 H 1378.59 -3.86715 5.16838 0
M  V30 14500 H 1379.36 -3.81135 7.24347 0
M  V30 14501 N 1382.02 -1.04567 -1.17913 0
M  V30 14502 C 1382.96 -0.599154 -2.2123 0
M  V30 14503 C 1383.97 0.333824 -1.59341 0
M  V30 14504 O 1385.16 0.127548 -1.78044 0
M  V30 14505 C 1382.26 0.144045 -3.38594 0
M  V30 14506 C 1381.43 -0.798061 -4.30058 0
M  V30 14507 C 1380.49 -0.0972548 -5.2611 0
M  V30 14508 O 1379.52 -0.729318 -5.64508 0
M  V30 14509 N 1380.72 1.16759 -5.68637 0
M  V30 14510 H 1383.48 -1.48781 -2.60162 0
M  V30 14511 H 1381.04 -0.926787 -1.32749 0
M  V30 14512 H 1383.04 0.622843 -3.99878 0
M  V30 14513 H 1381.61 0.934292 -2.98311 0
M  V30 14514 H 1380.83 -1.45662 -3.66301 0
M  V30 14515 H 1382.11 -1.43777 -4.88063 0
M  V30 14516 H 1381.51 1.70155 -5.39503 0
M  V30 14517 H 1380.07 1.59057 -6.32095 0
M  V30 14518 N 1383.5 1.34231 -0.825823 0
M  V30 14519 C 1384.43 2.31997 -0.264546 0
M  V30 14520 C 1385.41 1.58375 0.620592 0
M  V30 14521 O 1386.6 1.86341 0.546865 0
M  V30 14522 C 1383.73 3.42557 0.572025 0
M  V30 14523 C 1382.68 4.27454 -0.216219 0
M  V30 14524 C 1382.01 5.29509 0.743279 0
M  V30 14525 C 1383.31 5.02456 -1.42603 0
M  V30 14526 H 1385 2.79189 -1.08139 0
M  V30 14527 H 1382.55 1.34227 -0.521451 0
M  V30 14528 H 1384.5 4.09968 0.974889 0
M  V30 14529 H 1383.22 2.94021 1.42195 0
M  V30 14530 H 1381.88 3.61649 -0.600485 0
M  V30 14531 H 1381.53 4.77234 1.58924 0
M  V30 14532 H 1381.23 5.87188 0.220064 0
M  V30 14533 H 1382.76 5.99789 1.14394 0
M  V30 14534 H 1384.17 5.62706 -1.09702 0
M  V30 14535 H 1382.57 5.69723 -1.88509 0
M  V30 14536 H 1383.64 4.31983 -2.2027 0
M  V30 14537 N 1384.98 0.581051 1.46498 0
M  V30 14538 C 1385.94 -0.142937 2.28754 0
M  V30 14539 C 1386.94 -0.820383 1.38298 0
M  V30 14540 O 1388.13 -0.672592 1.60692 0
M  V30 14541 C 1385.26 -1.21176 3.18637 0
M  V30 14542 H 1386.46 0.579918 2.9424 0
M  V30 14543 H 1384.01 0.338951 1.52581 0
M  V30 14544 H 1384.75 -1.96624 2.57894 0
M  V30 14545 H 1384.53 -0.730517 3.85235 0
M  V30 14546 H 1386.02 -1.71958 3.80552 0
M  V30 14547 N 1386.46 -1.54343 0.318742 0
M  V30 14548 C 1387.71 -1.9966 -0.286146 0
M  V30 14549 C 1388.02 -1.21073 -1.53625 0
M  V30 14550 O 1389.23 -1.56744 -2.21684 0
M  V30 14551 C 1387.68 -3.5551 -0.560405 0
M  V30 14552 C 1387.29 -4.42926 0.672373 0
M  V30 14553 C 1389.03 -4.09307 -1.12551 0
M  V30 14554 C 1386.94 -5.9024 0.370285 0
M  V30 14555 H 1385.87 -0.74583 -0.110698 0
M  V30 14556 H 1388.52 -1.78386 0.430215 0
M  V30 14557 H 1386.9 -3.72753 -1.33683 0
M  V30 14558 H 1388.08 -4.37458 1.448 0
M  V30 14559 H 1386.39 -3.99993 1.15736 0
M  V30 14560 H 1388.99 -5.16955 -1.36607 0
M  V30 14561 H 1389.33 -3.60994 -2.07338 0
M  V30 14562 H 1389.87 -3.95677 -0.410385 0
M  V30 14563 H 1386.6 -6.42738 1.28719 0
M  V30 14564 H 1386.12 -5.98672 -0.367731 0
M  V30 14565 H 1387.8 -6.46996 -0.0216582 0
M  V30 14566 N 1387.94 -0.0468143 -1.5753 0
M  V30 14567 C 1389.18 0.627375 -1.91695 0
M  V30 14568 C 1389.5 1.72261 -0.926588 0
M  V30 14569 O 1390.7 2.45466 -1.16012 0
M  V30 14570 C 1389.16 1.16722 -3.40447 0
M  V30 14571 C 1388.77 0.104335 -4.47878 0
M  V30 14572 C 1390.51 1.81691 -3.83652 0
M  V30 14573 C 1388.42 0.656818 -5.87741 0
M  V30 14574 H 1387.35 0.238107 -0.715417 0
M  V30 14575 H 1390 -0.114995 -1.83139 0
M  V30 14576 H 1388.38 1.96177 -3.43992 0
M  V30 14577 H 1389.56 -0.669053 -4.55917 0
M  V30 14578 H 1387.87 -0.447633 -4.13987 0
M  V30 14579 H 1390.47 2.24014 -4.85512 0
M  V30 14580 H 1390.81 2.66686 -3.19663 0
M  V30 14581 H 1391.34 1.08898 -3.82604 0
M  V30 14582 H 1388.08 -0.155397 -6.55316 0
M  V30 14583 H 1387.6 1.39829 -5.83273 0
M  V30 14584 H 1389.28 1.14107 -6.36858 0
M  V30 14585 N 1389.41 1.55964 0.226527 0
M  V30 14586 C 1390.66 1.78745 0.95165 0
M  V30 14587 C 1390.99 0.614714 1.84531 0
M  V30 14588 O 1390.24 -0.401137 1.91545 0
M  V30 14589 C 1390.54 3.07235 1.82597 0
M  V30 14590 C 1390.21 4.37627 1.08596 0
M  V30 14591 C 1388.87 4.73057 0.881531 0
M  V30 14592 C 1391.22 5.1815 0.563019 0
M  V30 14593 C 1388.55 5.86528 0.142172 0
M  V30 14594 C 1390.9 6.3239 -0.162972 0
M  V30 14595 C 1389.57 6.66425 -0.378704 0
M  V30 14596 H 1388.84 0.654075 0.348233 0
M  V30 14597 H 1391.48 1.9023 0.220187 0
M  V30 14598 H 1389.79 2.9085 2.62514 0
M  V30 14599 H 1391.49 3.22063 2.38907 0
M  V30 14600 H 1388.08 4.09806 1.25527 0
M  V30 14601 H 1392.26 4.91218 0.708446 0
M  V30 14602 H 1387.52 6.1139 -0.0352481 0
M  V30 14603 H 1391.69 6.94016 -0.575719 0
M  V30 14604 H 1389.32 7.54196 -0.953549 0
M  V30 14605 N 1390.89 -0.493031 1.4969 0
M  V30 14606 C 1392.12 -1.27046 1.633 0
M  V30 14607 C 1392.54 -1.86278 0.307534 0
M  V30 14608 O 1391.89 -1.68208 -0.707968 0
M  V30 14609 C 1391.94 -2.39501 2.70779 0
M  V30 14610 O 1391.66 -1.82702 3.98185 0
M  V30 14611 C 1393.17 -3.30744 2.95166 0
M  V30 14612 H 1390.39 -0.385042 0.54953 0
M  V30 14613 H 1392.93 -0.590998 1.95774 0
M  V30 14614 H 1391.08 -3.03263 2.41061 0
M  V30 14615 H 1391.5 -2.56588 4.57452 0
M  V30 14616 H 1392.97 -4.05912 3.74085 0
M  V30 14617 H 1393.45 -3.88217 2.05387 0
M  V30 14618 H 1394.06 -2.72741 3.26332 0
M  V30 14619 N 1392.37 -1.38898 -0.744656 0
M  V30 14620 C 1393.3 -1.39571 -1.87195 0
M  V30 14621 C 1394.28 -0.260372 -1.68095 0
M  V30 14622 O 1395.47 -0.464776 -1.88556 0
M  V30 14623 C 1392.6 -1.22889 -3.24832 0
M  V30 14624 C 1391.55 -2.33721 -3.58551 0
M  V30 14625 C 1390.88 -2.02136 -4.9502 0
M  V30 14626 C 1392.18 -3.7601 -3.62511 0
M  V30 14627 H 1393.87 -2.33908 -1.86889 0
M  V30 14628 H 1391.42 -1.12591 -0.897739 0
M  V30 14629 H 1393.37 -1.21983 -4.03359 0
M  V30 14630 H 1392.09 -0.250172 -3.2564 0
M  V30 14631 H 1390.75 -2.33828 -2.82348 0
M  V30 14632 H 1390.4 -1.02726 -4.92399 0
M  V30 14633 H 1390.1 -2.76371 -5.18549 0
M  V30 14634 H 1391.62 -2.02864 -5.75915 0
M  V30 14635 H 1393.04 -3.77885 -4.31133 0
M  V30 14636 H 1391.44 -4.49524 -3.97553 0
M  V30 14637 H 1392.51 -4.07682 -2.62533 0
M  V30 14638 N 1393.85 0.973806 -1.23914 0
M  V30 14639 C 1394.78 2.08526 -1.05068 0
M  V30 14640 C 1395.76 1.70065 0.0344761 0
M  V30 14641 O 1396.94 1.93755 -0.131432 0
M  V30 14642 C 1394.07 3.41198 -0.648165 0
M  V30 14643 C 1393.03 3.9359 -1.6814 0
M  V30 14644 C 1392.35 5.22534 -1.13414 0
M  V30 14645 C 1393.65 4.22116 -3.07597 0
M  V30 14646 H 1395.35 2.24551 -1.98034 0
M  V30 14647 H 1392.89 1.07905 -0.953546 0
M  V30 14648 H 1394.85 4.18383 -0.50334 0
M  V30 14649 H 1393.57 3.25056 0.317182 0
M  V30 14650 H 1392.23 3.18555 -1.81434 0
M  V30 14651 H 1391.88 5.02747 -0.159578 0
M  V30 14652 H 1391.58 5.58555 -1.82456 0
M  V30 14653 H 1393.1 6.02334 -1.0013 0
M  V30 14654 H 1394.52 4.90027 -2.97567 0
M  V30 14655 H 1392.91 4.69352 -3.73937 0
M  V30 14656 H 1393.98 3.29128 -3.56094 0
M  V30 14657 N 1395.33 1.05191 1.17357 0
M  V30 14658 C 1396.57 0.761984 1.87617 0
M  V30 14659 C 1396.9 -0.710976 1.8104 0
M  V30 14660 O 1396.16 -1.53566 1.21309 0
M  V30 14661 C 1396.46 1.18779 3.37085 0
M  V30 14662 C 1396.12 2.66296 3.63864 0
M  V30 14663 C 1394.78 3.06594 3.70882 0
M  V30 14664 C 1397.14 3.61622 3.75339 0
M  V30 14665 C 1394.46 4.41081 3.86865 0
M  V30 14666 C 1396.82 4.95842 3.9284 0
M  V30 14667 C 1395.48 5.35793 3.98097 0
M  V30 14668 H 1394.75 0.27883 0.686538 0
M  V30 14669 H 1397.4 1.31899 1.38834 0
M  V30 14670 H 1395.7 0.549782 3.87923 0
M  V30 14671 H 1397.4 0.940667 3.89811 0
M  V30 14672 H 1393.99 2.34089 3.59027 0
M  V30 14673 H 1398.17 3.31628 3.69238 0
M  V30 14674 H 1393.43 4.71536 3.89183 0
M  V30 14675 H 1397.6 5.696 4.00661 0
M  V30 14676 H 1395.23 6.40009 4.10234 0
M  V30 14677 N 1396.8 -1.33791 0.83293 0
M  V30 14678 C 1398.05 -1.98266 0.426412 0
M  V30 14679 C 1398.38 -1.65848 -1.01035 0
M  V30 14680 O 1397.66 -0.93528 -1.70537 0
M  V30 14681 C 1397.94 -3.54356 0.640586 0
M  V30 14682 C 1397.79 -3.96482 2.12419 0
M  V30 14683 C 1399.11 -4.40022 0.0829237 0
M  V30 14684 H 1396.23 -0.720213 0.156404 0
M  V30 14685 H 1398.87 -1.58527 1.04735 0
M  V30 14686 H 1397.02 -3.88338 0.11204 0
M  V30 14687 H 1398.7 -3.72786 2.71714 0
M  V30 14688 H 1396.94 -3.46429 2.61092 0
M  V30 14689 H 1397.61 -5.05179 2.22482 0
M  V30 14690 H 1400.09 -4.12651 0.534634 0
M  V30 14691 H 1398.96 -5.48272 0.262511 0
M  V30 14692 H 1399.22 -4.30341 -1.01287 0
M  V30 14693 N 1398.28 -0.588812 -1.46187 0
M  V30 14694 C 1399.53 -0.0765765 -2.01955 0
M  V30 14695 C 1399.85 1.29034 -1.46203 0
M  V30 14696 O 1399.12 1.84836 -0.649044 0
M  V30 14697 H 1397.7 -0.025318 -0.746571 0
M  V30 14698 H 1400.36 -0.765971 -1.79217 0
M  V30 14699 H 1399.46 -0.0121702 -3.12098 0
M  V30 14700 N 1399.76 1.54172 -0.326923 0
M  V30 14701 C 1400.67 2.28149 0.546351 0
M  V30 14702 C 1401.69 1.32628 1.12631 0
M  V30 14703 O 1402.86 1.65647 1.14556 0
M  V30 14704 C 1399.93 3.02742 1.68962 0
M  V30 14705 C 1398.99 4.13856 1.14112 0
M  V30 14706 C 1398.22 4.84882 2.2299 0
M  V30 14707 O 1398.44 4.55448 3.43399 0
M  V30 14708 O 1397.38 5.71714 1.8822 0
M  V30 14709 H 1401.2 3.03651 -0.0545288 0
M  V30 14710 H 1398.79 1.49113 -0.0925027 0
M  V30 14711 H 1400.67 3.49443 2.35515 0
M  V30 14712 H 1399.35 2.30113 2.27662 0
M  V30 14713 H 1398.25 3.71497 0.440579 0
M  V30 14714 H 1399.59 4.88539 0.599211 0
M  V30 14715 N 1401.24 0.0551678 1.57503 0
M  V30 14716 C 1402.17 -0.915714 2.14795 0
M  V30 14717 C 1403.15 -1.32179 1.07065 0
M  V30 14718 O 1404.33 -1.39579 1.35023 0
M  V30 14719 C 1401.46 -2.18916 2.69616 0
M  V30 14720 C 1400.42 -1.92303 3.82366 0
M  V30 14721 C 1399.74 -3.26136 4.23721 0
M  V30 14722 C 1401.04 -1.24146 5.07331 0
M  V30 14723 H 1402.74 -0.438499 2.96171 0
M  V30 14724 H 1400.28 -0.209477 1.42468 0
M  V30 14725 H 1402.24 -2.87239 3.08337 0
M  V30 14726 H 1400.96 -2.6885 1.85437 0
M  V30 14727 H 1399.62 -1.26391 3.44123 0
M  V30 14728 H 1399.27 -3.73879 3.36487 0
M  V30 14729 H 1398.97 -3.09126 4.99715 0
M  V30 14730 H 1400.49 -3.95684 4.65045 0
M  V30 14731 H 1401.91 -1.8251 5.43473 0
M  V30 14732 H 1400.3 -1.17449 5.88494 0
M  V30 14733 H 1401.37 -0.218073 4.84409 0
M  V30 14734 N 1402.72 -1.56081 -0.218252 0
M  V30 14735 C 1403.96 -1.79247 -0.942157 0
M  V30 14736 C 1404.29 -0.624492 -1.84202 0
M  V30 14737 O 1403.55 0.390973 -1.91755 0
M  V30 14738 C 1403.85 -3.08199 -1.80965 0
M  V30 14739 C 1403.51 -4.38197 -1.06274 0
M  V30 14740 C 1402.17 -4.73517 -0.856432 0
M  V30 14741 C 1404.53 -5.18441 -0.535532 0
M  V30 14742 C 1401.85 -5.86595 -0.111065 0
M  V30 14743 C 1404.21 -6.32295 0.196507 0
M  V30 14744 C 1402.87 -6.66215 0.414041 0
M  V30 14745 H 1402.14 -0.655913 -0.34476 0
M  V30 14746 H 1404.79 -1.90344 -0.210095 0
M  V30 14747 H 1403.09 -2.92238 -2.60967 0
M  V30 14748 H 1404.79 -3.23325 -2.37196 0
M  V30 14749 H 1401.38 -4.10466 -1.23352 0
M  V30 14750 H 1405.56 -4.91586 -0.682386 0
M  V30 14751 H 1400.82 -6.11363 0.0676711 0
M  V30 14752 H 1404.99 -6.93701 0.612516 0
M  V30 14753 H 1402.62 -7.5368 0.993532 0
M  V30 14754 N 1404.2 0.485086 -1.49949 0
M  V30 14755 C 1405.44 1.23816 -1.60237 0
M  V30 14756 C 1405.77 1.9223 -0.296274 0
M  V30 14757 O 1405.03 1.82095 0.716939 0
M  V30 14758 C 1405.32 2.31573 -2.72229 0
M  V30 14759 C 1404.99 1.80508 -4.13192 0
M  V30 14760 C 1403.65 1.66301 -4.5155 0
M  V30 14761 C 1406 1.42471 -5.0135 0
M  V30 14762 C 1403.33 1.1246 -5.75821 0
M  V30 14763 C 1405.68 0.900757 -6.26154 0
M  V30 14764 C 1404.35 0.74521 -6.63327 0
M  V30 14765 H 1403.62 0.453075 -0.586348 0
M  V30 14766 H 1406.27 0.536349 -1.83836 0
M  V30 14767 H 1404.57 3.07606 -2.42663 0
M  V30 14768 H 1406.27 2.89574 -2.77395 0
M  V30 14769 H 1402.86 1.92529 -3.82924 0
M  V30 14770 H 1407.04 1.52287 -4.72358 0
M  V30 14771 H 1402.3 0.991422 -6.03308 0
M  V30 14772 H 1406.47 0.5973 -6.93834 0
M  V30 14773 H 1404.1 0.325838 -7.59501 0
M  V30 14774 N 1405.67 1.39291 0.737279 0
M  V30 14775 C 1406.95 1.26901 1.48847 0
M  V30 14776 C 1407.33 -0.122417 2.10745 0
M  V30 14777 O 1406.68 -1.13343 1.98408 0
M  V30 14778 C 1406.89 2.3916 2.54172 0
M  V30 14779 C 1408.24 2.78368 3.20619 0
M  V30 14780 O 1409.26 2.38593 2.64484 0
M  V30 14781 O 1408.12 3.47014 4.22189 0
M  V30 14782 H 1405.21 0.497176 0.660867 0
M  V30 14783 H 1407.76 1.51159 0.771299 0
M  V30 14784 H 1406.53 3.3219 2.06797 0
M  V30 14785 H 1406.15 2.16555 3.33451 0
M  V30 14786 N 1407.15 -0.967221 1.24429 0
M  V30 14787 C 1408.4 -1.70458 1.07829 0
M  V30 14788 C 1408.71 -1.91818 -0.38278 0
M  V30 14789 O 1409.92 -2.63129 -0.668982 0
M  V30 14790 C 1408.38 -3.06817 1.88125 0
M  V30 14791 C 1407.98 -2.93298 3.38645 0
M  V30 14792 C 1409.73 -3.84422 1.80056 0
M  V30 14793 C 1407.63 -4.2497 4.11284 0
M  V30 14794 H 1406.56 -0.639217 0.399897 0
M  V30 14795 H 1409.22 -1.07776 1.48515 0
M  V30 14796 H 1407.6 -3.70331 1.40254 0
M  V30 14797 H 1408.77 -2.38793 3.94099 0
M  V30 14798 H 1407.09 -2.29159 3.47671 0
M  V30 14799 H 1409.68 -4.81925 2.31629 0
M  V30 14800 H 1410.03 -4.09194 0.765908 0
M  V30 14801 H 1410.56 -3.27636 2.2561 0
M  V30 14802 H 1407.3 -4.05391 5.1511 0
M  V30 14803 H 1406.82 -4.79288 3.60615 0
M  V30 14804 H 1408.5 -4.93586 4.18308 0
M  V30 14805 N 1408.63 -1.05812 -1.16797 0
M  V30 14806 C 1409.91 -0.685551 -1.83193 0
M  V30 14807 C 1410.29 0.833539 -1.93947 0
M  V30 14808 O 1409.63 1.74193 -1.47882 0
M  V30 14809 C 1409.84 -1.38183 -3.20479 0
M  V30 14810 C 1411.19 -1.52389 -3.96311 0
M  V30 14811 O 1412.22 -1.34134 -3.2998 0
M  V30 14812 O 1411.08 -1.82297 -5.15199 0
M  V30 14813 H 1408.17 -0.242095 -0.790771 0
M  V30 14814 H 1410.72 -1.15809 -1.24041 0
M  V30 14815 H 1409.49 -2.41791 -3.07657 0
M  V30 14816 H 1409.11 -0.899043 -3.87302 0
M  V30 14817 N 1410.11 1.33347 -0.840014 0
M  V30 14818 C 1411.33 2.02485 -0.448856 0
M  V30 14819 C 1411.76 1.62781 0.942543 0
M  V30 14820 O 1411.12 0.82099 1.61646 0
M  V30 14821 C 1411.16 3.55928 -0.578582 0
M  V30 14822 O 1410.27 4.10507 0.394695 0
M  V30 14823 H 1409.61 0.63848 -0.182317 0
M  V30 14824 H 1412.14 1.70221 -1.13516 0
M  V30 14825 H 1412.15 4.05391 -0.460653 0
M  V30 14826 H 1410.82 3.8417 -1.5933 0
M  V30 14827 H 1409.4 3.72164 0.234227 0
M  V30 14828 N 1411.59 0.596556 1.45873 0
M  V30 14829 C 1412.83 0.0872856 2.01911 0
M  V30 14830 C 1413.15 -1.28257 1.46885 0
M  V30 14831 O 1412.42 -1.84489 0.658837 0
M  V30 14832 H 1411 0.0292769 0.746426 0
M  V30 14833 H 1413.67 0.775464 1.78809 0
M  V30 14834 H 1412.76 0.0287213 3.12087 0
M  V30 14835 N 1413.06 -1.53996 0.335095 0
M  V30 14836 C 1414.48 -1.59591 -0.0171422 0
M  V30 14837 C 1414.68 -1.35132 -1.49471 0
M  V30 14838 O 1413.74 -1.14141 -2.25229 0
M  V30 14839 C 1415.05 -2.97872 0.411443 0
M  V30 14840 C 1416.6 -3.10887 0.363072 0
M  V30 14841 C 1417.07 -4.51532 0.766995 0
M  V30 14842 N 1418.56 -4.57557 0.72085 0
M  V30 14843 C 1419.3 -5.64516 1.00544 0
M  V30 14844 N 1418.79 -6.79365 1.35777 0
M  V30 14845 N 1420.59 -5.54349 0.930243 0
M  V30 14846 H 1412.74 -1.68151 1.29766 0
M  V30 14847 H 1415 -0.787067 0.528422 0
M  V30 14848 H 1414.71 -3.20809 1.44134 0
M  V30 14849 H 1414.58 -3.76571 -0.217678 0
M  V30 14850 H 1416.97 -2.87679 -0.657642 0
M  V30 14851 H 1417.05 -2.34266 1.02728 0
M  V30 14852 H 1416.69 -4.75474 1.78568 0
M  V30 14853 H 1416.62 -5.26539 0.0803511 0
M  V30 14854 H 1419.11 -3.75079 0.460867 0
M  V30 14855 H 1419.43 -7.56891 1.55999 0
M  V30 14856 H 1417.77 -6.80833 1.39614 0
M  V30 14857 H 1420.96 -4.63503 0.654402 0
M  V30 14858 H 1421.14 -6.37616 1.15539 0
M  V30 14859 N 1414.54 -0.0635198 -1.57472 0
M  V30 14860 C 1415.49 0.924358 -2.13444 0
M  V30 14861 C 1416.48 1.31389 -1.06927 0
M  V30 14862 O 1417.69 1.2921 -1.25319 0
M  V30 14863 H 1414.06 0.316003 -0.682383 0
M  V30 14864 H 1416.04 0.427281 -2.95325 0
M  V30 14865 C 1414.78 2.18546 -2.70431 0
M  V30 14866 H 1414.11 1.89455 -3.52061 0
M  V30 14867 H 1415.55 2.85799 -3.13201 0
M  V30 14868 C 1414.01 2.93845 -1.64794 0
M  V30 14869 O 1414.54 3.87242 -1.06802 0
M  V30 14870 N 1412.74 2.568 -1.36023 0
M  V30 14871 H 1412.29 1.80924 -1.83369 0
M  V30 14872 H 1412.25 3.07486 -0.655741 0
M  V30 14873 N 1416.02 1.56195 0.209972 0
M  V30 14874 C 1416.98 1.92514 1.24383 0
M  V30 14875 C 1417.98 0.804793 1.39211 0
M  V30 14876 O 1419.17 1.0724 1.37278 0
M  V30 14877 C 1416.3 2.18613 2.61574 0
M  V30 14878 H 1417.5 2.84992 0.933781 0
M  V30 14879 H 1415.05 1.49656 0.450878 0
M  V30 14880 H 1415.79 1.28724 2.97659 0
M  V30 14881 H 1415.57 3.00241 2.52186 0
M  V30 14882 H 1417.06 2.47767 3.36156 0
M  V30 14883 N 1417.5 -0.477127 1.50204 0
M  V30 14884 C 1418.91 -1.05815 1.53819 0
M  V30 14885 C 1419.26 -1.93264 0.338169 0
M  V30 14886 O 1418.38 -2.09305 -0.549576 0
M  V30 14887 C 1418.98 -1.92577 2.78746 0
M  V30 14888 C 1417.54 -2.45799 2.85061 0
M  V30 14889 C 1416.69 -1.23994 2.48034 0
M  V30 14890 H 1419.64 -0.259998 1.56556 0
M  V30 14891 H 1419.66 -2.7757 2.6026 0
M  V30 14892 H 1419.17 -1.28904 3.66068 0
M  V30 14893 H 1417.27 -3.13042 2.02077 0
M  V30 14894 H 1417.38 -2.81318 3.8781 0
M  V30 14895 H 1415.75 -1.5728 2.00338 0
M  V30 14896 H 1416.53 -0.619917 3.37657 0
M  V30 14897 N 1418.98 -1.3968 -0.729882 0
M  V30 14898 C 1419.91 -1.41549 -1.85704 0
M  V30 14899 C 1420.89 -0.278186 -1.6781 0
M  V30 14900 O 1422.07 -0.484749 -1.88053 0
M  V30 14901 C 1419.2 -1.26327 -3.2351 0
M  V30 14902 C 1418.16 -2.37511 -3.56051 0
M  V30 14903 C 1417.48 -2.07375 -4.92849 0
M  V30 14904 C 1418.78 -3.79833 -3.58502 0
M  V30 14905 H 1420.48 -2.35877 -1.84398 0
M  V30 14906 H 1418.02 -1.13536 -0.885747 0
M  V30 14907 H 1419.98 -1.26254 -4.02042 0
M  V30 14908 H 1418.7 -0.284697 -3.25357 0
M  V30 14909 H 1417.36 -2.36809 -2.79852 0
M  V30 14910 H 1417.01 -1.07943 -4.91281 0
M  V30 14911 H 1416.71 -2.81855 -5.15588 0
M  V30 14912 H 1418.23 -2.08961 -5.73731 0
M  V30 14913 H 1419.64 -3.82436 -4.27101 0
M  V30 14914 H 1418.04 -4.53715 -3.92763 0
M  V30 14915 H 1419.11 -4.10443 -2.58195 0
M  V30 14916 N 1420.45 0.960609 -1.2494 0
M  V30 14917 C 1421.4 2.04164 -1.01493 0
M  V30 14918 C 1422.39 1.60834 0.0461124 0
M  V30 14919 O 1423.58 1.76196 -0.168491 0
M  V30 14920 C 1420.71 3.37484 -0.629251 0
M  V30 14921 C 1419.8 3.87356 -1.72674 0
M  V30 14922 N 1420.19 4.10085 -2.9608 0
M  V30 14923 C 1418.48 4.16086 -1.60589 0
M  V30 14924 C 1419.19 4.51091 -3.67276 0
M  V30 14925 N 1418.16 4.56676 -2.9487 0
M  V30 14926 H 1421.96 2.19723 -1.95189 0
M  V30 14927 H 1419.48 1.14496 -1.15171 0
M  V30 14928 H 1421.47 4.14545 -0.442484 0
M  V30 14929 H 1420.13 3.23307 0.300446 0
M  V30 14930 H 1421.15 3.97331 -3.32187 0
M  V30 14931 H 1417.82 4.10804 -0.744725 0
M  V30 14932 H 1419.21 4.77031 -4.73172 0
M  V30 14933 N 1421.93 1.0643 1.16234 0
M  V30 14934 C 1423.16 0.802671 1.91238 0
M  V30 14935 C 1423.58 -0.637222 1.76978 0
M  V30 14936 O 1422.94 -1.44419 1.09603 0
M  V30 14937 C 1422.99 1.20389 3.3991 0
M  V30 14938 O 1422.09 0.343516 4.10967 0
M  V30 14939 H 1421.43 0.29323 0.595745 0
M  V30 14940 H 1423.96 1.42046 1.47255 0
M  V30 14941 H 1423.97 1.17604 3.90683 0
M  V30 14942 H 1422.65 2.2527 3.49608 0
M  V30 14943 H 1421.23 0.433051 3.70377 0
M  V30 14944 N 1423.41 -1.329 0.847073 0
M  V30 14945 C 1424.82 -1.79813 0.502394 0
M  V30 14946 C 1425.17 -1.70017 -0.979218 0
M  V30 14947 O 1424.3 -1.25427 -1.76344 0
M  V30 14948 C 1424.89 -3.26485 0.905154 0
M  V30 14949 C 1423.45 -3.71383 0.612489 0
M  V30 14950 C 1422.6 -2.54157 1.10903 0
M  V30 14951 H 1425.55 -1.20306 1.035 0
M  V30 14952 H 1425.57 -3.79872 0.218476 0
M  V30 14953 H 1425.08 -3.33583 1.98353 0
M  V30 14954 H 1423.18 -3.69806 -0.45548 0
M  V30 14955 H 1423.3 -4.64507 1.17347 0
M  V30 14956 H 1421.66 -2.49134 0.529576 0
M  V30 14957 H 1422.44 -2.64013 2.19435 0
M  V30 14958 N 1424.89 -0.604284 -1.45555 0
M  V30 14959 C 1426.3 -0.183613 -1.85795 0
M  V30 14960 C 1426.65 1.25869 -1.50504 0
M  V30 14961 O 1425.78 1.9539 -0.930148 0
M  V30 14962 C 1426.37 -0.326455 -3.37224 0
M  V30 14963 C 1424.93 0.0394987 -3.76379 0
M  V30 14964 C 1424.08 -0.65243 -2.69516 0
M  V30 14965 H 1427.03 -0.811173 -1.36403 0
M  V30 14966 H 1427.05 0.442258 -3.77921 0
M  V30 14967 H 1426.56 -1.37627 -3.62878 0
M  V30 14968 H 1424.66 1.08862 -3.56342 0
M  V30 14969 H 1424.77 -0.35185 -4.77806 0
M  V30 14970 H 1423.14 -0.0904148 -2.54539 0
M  V30 14971 H 1423.92 -1.70432 -2.98007 0
M  V30 14972 N 1426.37 1.53816 -0.343257 0
M  V30 14973 C 1427.59 2.05796 0.257418 0
M  V30 14974 C 1428.02 1.2166 1.43459 0
M  V30 14975 O 1427.37 0.230278 1.79832 0
M  V30 14976 C 1427.42 3.54681 0.65068 0
M  V30 14977 O 1426.53 3.73394 1.75074 0
M  V30 14978 H 1425.87 0.662622 0.042757 0
M  V30 14979 H 1428.4 1.98462 -0.497386 0
M  V30 14980 H 1428.41 3.97308 0.927914 0
M  V30 14981 H 1427.08 4.15368 -0.210199 0
M  V30 14982 H 1425.66 3.42669 1.4708 0
M  V30 14983 N 1427.84 0.0718701 1.57436 0
M  V30 14984 C 1428.75 -0.910077 2.16229 0
M  V30 14985 C 1429.77 -1.32699 1.12548 0
M  V30 14986 O 1430.95 -1.39967 1.44814 0
M  V30 14987 C 1428.01 -2.15942 2.71238 0
M  V30 14988 C 1427.07 -1.79891 3.89792 0
M  V30 14989 C 1426.31 -2.9887 4.42168 0
M  V30 14990 O 1426.53 -4.1289 3.93545 0
M  V30 14991 O 1425.46 -2.78682 5.33498 0
M  V30 14992 H 1429.29 -0.439969 3.00496 0
M  V30 14993 H 1426.87 -0.151204 1.48633 0
M  V30 14994 H 1428.76 -2.89204 3.06494 0
M  V30 14995 H 1427.43 -2.62051 1.90029 0
M  V30 14996 H 1426.34 -1.03881 3.59388 0
M  V30 14997 H 1427.67 -1.38566 4.72293 0
M  V30 14998 N 1429.32 -1.56304 -0.201686 0
M  V30 14999 C 1430.27 -1.90422 -1.25393 0
M  V30 15000 C 1431.26 -0.769236 -1.41321 0
M  V30 15001 O 1432.45 -1.03199 -1.43802 0
M  V30 15002 C 1429.58 -2.24157 -2.60016 0
M  V30 15003 C 1428.66 -3.44097 -2.47908 0
M  V30 15004 N 1429.05 -4.62185 -2.05471 0
M  V30 15005 C 1427.35 -3.48105 -2.78817 0
M  V30 15006 C 1428.05 -5.44345 -2.05095 0
M  V30 15007 N 1427.03 -4.84576 -2.46346 0
M  V30 15008 H 1430.83 -2.79227 -0.917045 0
M  V30 15009 H 1428.35 -1.57135 -0.410157 0
M  V30 15010 H 1430.34 -2.46782 -3.36012 0
M  V30 15011 H 1429 -1.36676 -2.94533 0
M  V30 15012 H 1430.01 -4.86974 -1.76285 0
M  V30 15013 H 1426.69 -2.71022 -3.17574 0
M  V30 15014 H 1428.08 -6.48914 -1.74242 0
M  V30 15015 N 1430.8 0.469154 -1.50455 0
M  V30 15016 C 1432.03 1.24252 -1.65061 0
M  V30 15017 C 1432.44 1.86226 -0.334121 0
M  V30 15018 O 1431.78 1.70082 0.694109 0
M  V30 15019 C 1431.84 2.39007 -2.68544 0
M  V30 15020 C 1431.51 1.97655 -4.12046 0
M  V30 15021 C 1432.5 1.49796 -4.97852 0
M  V30 15022 C 1430.19 2.06316 -4.57973 0
M  V30 15023 C 1432.18 1.11145 -6.27635 0
M  V30 15024 C 1429.87 1.67276 -5.8776 0
M  V30 15025 C 1430.87 1.19769 -6.72417 0
M  V30 15026 O 1430.56 0.812708 -7.99781 0
M  V30 15027 H 1430.29 0.381848 -0.557824 0
M  V30 15028 H 1432.84 0.566191 -1.97442 0
M  V30 15029 H 1431.07 3.09817 -2.31409 0
M  V30 15030 H 1432.76 3.00965 -2.7235 0
M  V30 15031 H 1433.53 1.42525 -4.63586 0
M  V30 15032 H 1429.41 2.42242 -3.92224 0
M  V30 15033 H 1432.95 0.739936 -6.93665 0
M  V30 15034 H 1428.85 1.74208 -6.21548 0
M  V30 15035 H 1429.62 0.941386 -8.13068 0
M  V30 15036 N 1432.28 1.40065 0.722464 0
M  V30 15037 C 1433.51 1.41271 1.51163 0
M  V30 15038 C 1433.92 0.0105425 1.88797 0
M  V30 15039 O 1433.28 -0.963867 1.5497 0
M  V30 15040 C 1433.33 2.29713 2.79131 0
M  V30 15041 O 1433.05 3.6447 2.43091 0
M  V30 15042 C 1434.55 2.39437 3.73075 0
M  V30 15043 H 1431.77 0.482086 0.466727 0
M  V30 15044 H 1434.32 1.84033 0.891736 0
M  V30 15045 H 1432.47 1.9033 3.37421 0
M  V30 15046 H 1432.88 4.11371 3.25383 0
M  V30 15047 H 1434.36 3.05543 4.59726 0
M  V30 15048 H 1434.84 1.41731 4.15703 0
M  V30 15049 H 1435.44 2.79342 3.20699 0
M  V30 15050 N 1433.76 -0.95397 1.25448 0
M  V30 15051 C 1435.01 -1.69305 1.09631 0
M  V30 15052 C 1435.32 -1.92213 -0.362413 0
M  V30 15053 O 1436.53 -2.63824 -0.641036 0
M  V30 15054 C 1434.98 -3.04805 1.91369 0
M  V30 15055 C 1434.59 -2.8969 3.41737 0
M  V30 15056 C 1436.33 -3.82491 1.84123 0
M  V30 15057 C 1434.24 -4.20584 4.15768 0
M  V30 15058 H 1433.17 -0.63494 0.406654 0
M  V30 15059 H 1435.82 -1.06195 1.49649 0
M  V30 15060 H 1434.2 -3.68822 1.44174 0
M  V30 15061 H 1435.38 -2.346 3.9661 0
M  V30 15062 H 1433.69 -2.25458 3.50082 0
M  V30 15063 H 1436.29 -4.79442 2.36727 0
M  V30 15064 H 1436.63 -4.08358 0.809265 0
M  V30 15065 H 1437.17 -3.25224 2.29072 0
M  V30 15066 H 1433.9 -3.99905 5.19381 0
M  V30 15067 H 1433.42 -4.75436 3.65678 0
M  V30 15068 H 1435.1 -4.89122 4.2352 0
M  V30 15069 N 1435.24 -1.07045 -1.15668 0
M  V30 15070 C 1436.48 -0.786751 -1.85723 0
M  V30 15071 C 1436.8 0.689604 -1.83041 0
M  V30 15072 O 1438 1.08796 -2.48748 0
M  V30 15073 C 1436.46 -1.35729 -3.33325 0
M  V30 15074 C 1436.07 -2.86444 -3.44462 0
M  V30 15075 C 1437.81 -1.15148 -4.08584 0
M  V30 15076 C 1435.72 -3.36705 -4.86193 0
M  V30 15077 H 1434.65 -0.29063 -0.695737 0
M  V30 15078 H 1437.3 -1.29012 -1.30492 0
M  V30 15079 H 1435.68 -0.781671 -3.88209 0
M  V30 15080 H 1436.86 -3.50023 -2.997 0
M  V30 15081 H 1435.17 -3.0578 -2.82644 0
M  V30 15082 H 1437.77 -1.50179 -5.13177 0
M  V30 15083 H 1438.11 -0.0903159 -4.16202 0
M  V30 15084 H 1438.64 -1.6933 -3.59962 0
M  V30 15085 H 1435.38 -4.42333 -4.83758 0
M  V30 15086 H 1434.9 -2.77877 -5.31549 0
M  V30 15087 H 1436.58 -3.32478 -5.55038 0
M  V30 15088 N 1436.71 1.32449 -0.85411 0
M  V30 15089 C 1437.96 1.97271 -0.457223 0
M  V30 15090 C 1438.29 1.67595 0.987031 0
M  V30 15091 O 1437.54 0.956301 1.70744 0
M  V30 15092 C 1437.84 3.51577 -0.642499 0
M  V30 15093 C 1437.51 4.01239 -2.05714 0
M  V30 15094 C 1436.17 4.14512 -2.44405 0
M  V30 15095 C 1438.52 4.27573 -2.98046 0
M  V30 15096 C 1435.85 4.5146 -3.74701 0
M  V30 15097 C 1438.2 4.65979 -4.27839 0
M  V30 15098 C 1436.87 4.77458 -4.66465 0
M  V30 15099 H 1436.14 0.721865 -0.16731 0
M  V30 15100 H 1438.78 1.57862 -1.08406 0
M  V30 15101 H 1437.09 3.91742 0.0675706 0
M  V30 15102 H 1438.79 3.99757 -0.315473 0
M  V30 15103 H 1435.38 3.91393 -1.74669 0
M  V30 15104 H 1439.56 4.16827 -2.69386 0
M  V30 15105 H 1434.82 4.58542 -4.04412 0
M  V30 15106 H 1438.99 4.8531 -4.99447 0
M  V30 15107 H 1436.62 5.05845 -5.67472 0
M  V30 15108 N 1438.19 0.611994 1.45232 0
M  V30 15109 C 1439.14 -0.116695 2.32307 0
M  V30 15110 C 1440.13 -0.85519 1.46229 0
M  V30 15111 O 1441.34 -0.770257 1.62687 0
M  V30 15112 H 1437.71 -0.0564902 0.749875 0
M  V30 15113 H 1439.69 0.636073 2.91542 0
M  V30 15114 C 1438.43 -1.09768 3.29919 0
M  V30 15115 H 1437.76 -0.538848 3.96152 0
M  V30 15116 H 1439.2 -1.57739 3.93566 0
M  V30 15117 C 1437.66 -2.17344 2.57417 0
M  V30 15118 O 1438.19 -3.2515 2.35882 0
M  V30 15119 N 1436.39 -1.92749 2.17477 0
M  V30 15120 H 1435.94 -1.05084 2.35192 0
M  V30 15121 H 1435.9 -2.6493 1.69291 0
M  V30 15122 N 1439.67 -1.53632 0.351409 0
M  V30 15123 C 1440.9 -2.05458 -0.243852 0
M  V30 15124 C 1441.31 -1.22588 -1.43589 0
M  V30 15125 O 1440.67 -0.263088 -1.80594 0
M  V30 15126 C 1440.72 -3.55586 -0.651226 0
M  V30 15127 O 1440.44 -4.35313 0.493415 0
M  V30 15128 C 1441.94 -4.23614 -1.30637 0
M  V30 15129 H 1439.16 -0.669443 -0.0456828 0
M  V30 15130 H 1441.71 -1.98149 0.505675 0
M  V30 15131 H 1439.86 -3.63091 -1.35068 0
M  V30 15132 H 1440.28 -5.24234 0.167107 0
M  V30 15133 H 1441.75 -5.30022 -1.5421 0
M  V30 15134 H 1442.23 -3.76449 -2.26236 0
M  V30 15135 H 1442.83 -4.20323 -0.648738 0
M  V30 15136 N 1441.15 -0.0802183 -1.57396 0
M  V30 15137 C 1442.39 0.586962 -1.93807 0
M  V30 15138 C 1442.72 1.69107 -0.960887 0
M  V30 15139 O 1441.98 1.95688 0.0220779 0
M  V30 15140 C 1442.28 1.19551 -3.36812 0
M  V30 15141 C 1441.94 0.216701 -4.50379 0
M  V30 15142 C 1440.6 -0.0525552 -4.81171 0
M  V30 15143 C 1442.96 -0.452467 -5.19232 0
M  V30 15144 C 1440.28 -0.997923 -5.78151 0
M  V30 15145 C 1442.64 -1.38621 -6.17225 0
M  V30 15146 C 1441.3 -1.66385 -6.4643 0
M  V30 15147 H 1440.57 0.214785 -0.709189 0
M  V30 15148 H 1443.22 -0.152888 -1.90889 0
M  V30 15149 H 1441.52 2.01129 -3.36236 0
M  V30 15150 H 1443.22 1.71918 -3.62278 0
M  V30 15151 H 1439.81 0.436747 -4.26369 0
M  V30 15152 H 1443.99 -0.257573 -4.95631 0
M  V30 15153 H 1439.25 -1.22019 -5.991 0
M  V30 15154 H 1443.42 -1.91063 -6.69677 0
M  V30 15155 H 1441.05 -2.39799 -7.21388 0
M  V30 15156 N 1442.63 1.56409 0.193394 0
M  V30 15157 C 1443.87 1.80991 0.914875 0
M  V30 15158 C 1444.2 0.654538 1.82837 0
M  V30 15159 O 1443.48 -0.344816 1.91419 0
M  V30 15160 C 1443.76 3.15841 1.72964 0
M  V30 15161 C 1443.62 4.41873 0.840748 0
M  V30 15162 C 1444.93 3.474 2.70188 0
M  V30 15163 H 1442.05 0.658408 0.331161 0
M  V30 15164 H 1444.7 1.89125 0.182161 0
M  V30 15165 H 1442.85 3.09038 2.35431 0
M  V30 15166 H 1444.52 4.60723 0.230654 0
M  V30 15167 H 1442.76 4.33549 0.147558 0
M  V30 15168 H 1443.43 5.32728 1.44586 0
M  V30 15169 H 1445.91 3.54513 2.17852 0
M  V30 15170 H 1444.78 4.42872 3.24278 0
M  V30 15171 H 1445.04 2.7098 3.49317 0
M  V30 15172 N 1444.1 -0.461169 1.50702 0
M  V30 15173 C 1445.04 -1.57702 1.64941 0
M  V30 15174 C 1446.01 -1.54808 0.497312 0
M  V30 15175 O 1447.2 -1.74286 0.718104 0
M  V30 15176 C 1444.33 -2.96285 1.64112 0
M  V30 15177 C 1443.37 -3.17296 2.85001 0
M  V30 15178 S 1444.2 -2.96134 4.46167 0
M  V30 15179 C 1445.36 -4.37042 4.48046 0
M  V30 15180 H 1445.59 -1.45386 2.59327 0
M  V30 15181 H 1443.13 -0.649209 1.40088 0
M  V30 15182 H 1445.08 -3.76178 1.64318 0
M  V30 15183 H 1443.75 -3.05983 0.709442 0
M  V30 15184 H 1442.94 -4.18561 2.80754 0
M  V30 15185 H 1442.54 -2.45191 2.82413 0
M  V30 15186 H 1444.83 -5.29846 4.2222 0
M  V30 15187 H 1445.78 -4.4633 5.49723 0
M  V30 15188 H 1446.18 -4.19584 3.77637 0
M  V30 15189 N 1445.58 -1.40446 -0.715026 0
M  V30 15190 C 1446.51 -1.35159 -1.83868 0
M  V30 15191 C 1447.49 -0.221884 -1.61079 0
M  V30 15192 O 1448.68 -0.405635 -1.84084 0
M  V30 15193 C 1445.8 -1.10358 -3.20217 0
M  V30 15194 C 1444.85 -2.25787 -3.61832 0
M  V30 15195 S 1445.68 -3.88183 -3.68882 0
M  V30 15196 C 1446.84 -3.65647 -5.07989 0
M  V30 15197 H 1447.07 -2.30252 -1.88073 0
M  V30 15198 H 1444.6 -1.26738 -0.881859 0
M  V30 15199 H 1446.56 -0.967343 -3.9894 0
M  V30 15200 H 1445.22 -0.169178 -3.13644 0
M  V30 15201 H 1444.42 -2.04078 -4.60834 0
M  V30 15202 H 1444.02 -2.35717 -2.90368 0
M  V30 15203 H 1446.31 -3.24149 -5.94923 0
M  V30 15204 H 1447.25 -4.64182 -5.34734 0
M  V30 15205 H 1447.66 -2.99322 -4.78609 0
M  V30 15206 N 1447.06 0.947303 -1.25952 0
M  V30 15207 C 1447.99 2.0487 -1.02767 0
M  V30 15208 C 1449 1.62797 0.00985984 0
M  V30 15209 O 1450.19 1.77018 -0.229527 0
M  V30 15210 C 1447.29 3.34682 -0.533048 0
M  V30 15211 C 1446.47 4.05555 -1.63841 0
M  V30 15212 C 1445.53 5.13638 -1.1429 0
M  V30 15213 O 1444.55 5.38682 -1.83876 0
M  V30 15214 N 1445.75 5.80499 0.0119377 0
M  V30 15215 H 1448.52 2.25327 -1.97605 0
M  V30 15216 H 1446.08 1.11636 -1.17256 0
M  V30 15217 H 1448.07 4.04273 -0.185868 0
M  V30 15218 H 1446.64 3.10941 0.321585 0
M  V30 15219 H 1445.86 3.29962 -2.15683 0
M  V30 15220 H 1447.15 4.49661 -2.38081 0
M  V30 15221 H 1446.55 5.62581 0.593212 0
M  V30 15222 H 1445.1 6.51109 0.30009 0
M  V30 15223 N 1448.54 1.07657 1.15099 0
M  V30 15224 C 1449.47 0.721201 2.22083 0
M  V30 15225 C 1450.45 -0.292808 1.67561 0
M  V30 15226 O 1451.63 -0.164872 1.93499 0
M  V30 15227 C 1448.76 0.12153 3.47087 0
M  V30 15228 C 1447.72 1.06303 4.14588 0
M  V30 15229 C 1447.04 0.325964 5.33706 0
M  V30 15230 C 1448.34 2.39796 4.63999 0
M  V30 15231 H 1450.04 1.61566 2.52065 0
M  V30 15232 H 1447.58 0.778282 1.21156 0
M  V30 15233 H 1449.54 -0.139037 4.21171 0
M  V30 15234 H 1448.26 -0.808022 3.16447 0
M  V30 15235 H 1446.92 1.30858 3.4245 0
M  V30 15236 H 1446.57 -0.607147 4.99322 0
M  V30 15237 H 1446.27 0.953552 5.79811 0
M  V30 15238 H 1447.79 0.0732695 6.10556 0
M  V30 15239 H 1449.21 2.19552 5.29594 0
M  V30 15240 H 1447.6 2.98178 5.20778 0
M  V30 15241 H 1448.67 3.01876 3.79472 0
M  V30 15242 N 1450.02 -1.31994 0.861122 0
M  V30 15243 C 1451.26 -1.97025 0.467678 0
M  V30 15244 C 1451.59 -1.68116 -0.978129 0
M  V30 15245 O 1450.85 -0.965342 -1.70234 0
M  V30 15246 C 1451.15 -3.51232 0.661135 0
M  V30 15247 C 1450.81 -4.00142 2.07839 0
M  V30 15248 C 1449.47 -4.1321 2.466 0
M  V30 15249 C 1451.83 -4.25986 3.00309 0
M  V30 15250 C 1449.15 -4.49467 3.7709 0
M  V30 15251 C 1451.51 -4.63704 4.30304 0
M  V30 15252 C 1450.17 -4.74978 4.68991 0
M  V30 15253 H 1449.44 -0.720967 0.171136 0
M  V30 15254 H 1452.09 -1.57285 1.09242 0
M  V30 15255 H 1450.39 -3.91772 -0.0467947 0
M  V30 15256 H 1452.09 -3.99584 0.336669 0
M  V30 15257 H 1448.68 -3.90461 1.76743 0
M  V30 15258 H 1452.86 -4.15393 2.71592 0
M  V30 15259 H 1448.12 -4.56391 4.06838 0
M  V30 15260 H 1452.29 -4.82654 5.02014 0
M  V30 15261 H 1449.92 -5.02828 5.70147 0
M  V30 15262 N 1451.49 -0.619688 -1.44906 0
M  V30 15263 C 1452.44 0.104373 -2.32366 0
M  V30 15264 C 1453.44 0.847423 -1.4668 0
M  V30 15265 O 1454.64 0.761618 -1.63093 0
M  V30 15266 H 1451.02 0.0525126 -0.750164 0
M  V30 15267 H 1452.99 -0.651525 -2.912 0
M  V30 15268 C 1451.74 1.08017 -3.30496 0
M  V30 15269 H 1451.06 0.517831 -3.96432 0
M  V30 15270 H 1452.5 1.5565 -3.94397 0
M  V30 15271 C 1450.96 2.15975 -2.58566 0
M  V30 15272 O 1451.49 3.23895 -2.37603 0
M  V30 15273 N 1449.7 1.91593 -2.18496 0
M  V30 15274 H 1449.24 1.03835 -2.35746 0
M  V30 15275 H 1449.2 2.64028 -1.70694 0
M  V30 15276 N 1452.97 1.53444 -0.359552 0
M  V30 15277 C 1453.88 2.29257 0.497834 0
M  V30 15278 C 1454.9 1.34987 1.09793 0
M  V30 15279 O 1456.07 1.68039 1.11017 0
M  V30 15280 C 1453.14 3.06258 1.62502 0
M  V30 15281 C 1452.2 4.16183 1.05308 0
M  V30 15282 C 1451.43 4.89503 2.12655 0
M  V30 15283 O 1451.66 4.6263 3.33661 0
M  V30 15284 O 1450.59 5.75578 1.76051 0
M  V30 15285 H 1454.42 3.03467 -0.118925 0
M  V30 15286 H 1452 1.48884 -0.124111 0
M  V30 15287 H 1453.88 3.5436 2.2805 0
M  V30 15288 H 1452.56 2.3489 2.22729 0
M  V30 15289 H 1451.47 3.72348 0.361679 0
M  V30 15290 H 1452.8 4.897 0.49545 0
M  V30 15291 N 1454.45 0.0885642 1.57351 0
M  V30 15292 C 1455.7 -0.57633 1.93291 0
M  V30 15293 C 1456.01 -1.69743 0.971934 0
M  V30 15294 O 1457.22 -2.42304 1.22479 0
M  V30 15295 C 1455.67 -1.07655 3.43422 0
M  V30 15296 C 1455.28 0.0144488 4.47998 0
M  V30 15297 C 1457.03 -1.71455 3.88334 0
M  V30 15298 C 1454.93 -0.500758 5.89276 0
M  V30 15299 H 1453.86 -0.219055 0.721478 0
M  V30 15300 H 1456.51 0.163511 1.8277 0
M  V30 15301 H 1454.9 -1.86988 3.49072 0
M  V30 15302 H 1456.07 0.789696 4.53983 0
M  V30 15303 H 1454.39 0.557237 4.12655 0
M  V30 15304 H 1456.98 -2.11063 4.91281 0
M  V30 15305 H 1457.33 -2.58116 3.26621 0
M  V30 15306 H 1457.86 -0.987159 3.85357 0
M  V30 15307 H 1454.6 0.329088 6.54673 0
M  V30 15308 H 1454.12 -1.24315 5.86776 0
M  V30 15309 H 1455.8 -0.971821 6.3966 0
M  V30 15310 N 1455.93 -1.56509 -0.185096 0
M  V30 15311 C 1456.88 -1.96237 -1.24875 0
M  V30 15312 C 1457.87 -0.849169 -1.46579 0
M  V30 15313 O 1459.08 -1.03422 -1.47322 0
M  V30 15314 H 1455.45 -0.624147 -0.419457 0
M  V30 15315 H 1457.42 -2.8492 -0.88673 0
M  V30 15316 C 1456.17 -2.32667 -2.58382 0
M  V30 15317 H 1455.49 -3.17858 -2.425 0
M  V30 15318 H 1456.93 -2.6432 -3.31528 0
M  V30 15319 C 1455.39 -1.16496 -3.16118 0
M  V30 15320 O 1455.92 -0.445283 -3.99224 0
M  V30 15321 N 1454.13 -0.939133 -2.75007 0
M  V30 15322 H 1453.68 -1.52611 -2.07527 0
M  V30 15323 H 1453.63 -0.163659 -3.13974 0
M  V30 15324 N 1457.41 0.45317 -1.50944 0
M  V30 15325 C 1458.37 1.5313 -1.7054 0
M  V30 15326 C 1459.37 1.50142 -0.575678 0
M  V30 15327 O 1460.56 1.52444 -0.842997 0
M  V30 15328 C 1457.69 2.92719 -1.74723 0
M  V30 15329 H 1458.88 1.37066 -2.66745 0
M  V30 15330 H 1456.44 0.680783 -1.40695 0
M  V30 15331 H 1457.17 3.14208 -0.802753 0
M  V30 15332 H 1456.96 2.96295 -2.56811 0
M  V30 15333 H 1458.45 3.7096 -1.91777 0
M  V30 15334 N 1458.88 1.40823 0.707568 0
M  V30 15335 C 1460.3 1.23029 1.01666 0
M  V30 15336 C 1460.5 0.111152 2.01193 0
M  V30 15337 O 1459.56 -0.52836 2.4691 0
M  V30 15338 C 1460.87 2.57509 1.55272 0
M  V30 15339 C 1462.42 2.6459 1.67216 0
M  V30 15340 C 1462.89 3.99357 2.24227 0
M  V30 15341 N 1464.38 4.01141 2.31603 0
M  V30 15342 C 1465.12 5.02211 2.76715 0
M  V30 15343 N 1464.61 6.13674 3.21521 0
M  V30 15344 N 1466.41 4.89577 2.76172 0
M  V30 15345 H 1458.56 2.12346 0.0480107 0
M  V30 15346 H 1460.82 0.944281 0.0838885 0
M  V30 15347 H 1460.53 3.40095 0.896012 0
M  V30 15348 H 1460.4 2.79158 2.53674 0
M  V30 15349 H 1462.79 1.8237 2.32002 0
M  V30 15350 H 1462.87 2.46763 0.673927 0
M  V30 15351 H 1462.51 4.8202 1.6006 0
M  V30 15352 H 1462.44 4.14518 3.2478 0
M  V30 15353 H 1464.93 3.20657 1.99968 0
M  V30 15354 H 1465.25 6.86677 3.54534 0
M  V30 15355 H 1463.59 6.17228 3.1946 0
M  V30 15356 H 1466.78 4.01588 2.40509 0
M  V30 15357 H 1466.96 5.68485 3.11012 0
M  V30 15358 N 1460.36 -0.94061 1.26453 0
M  V30 15359 C 1461.31 -2.03941 1.08059 0
M  V30 15360 C 1462.28 -1.66094 -0.0145388 0
M  V30 15361 O 1463.46 -1.90246 0.145338 0
M  V30 15362 C 1460.6 -3.37501 0.720228 0
M  V30 15363 C 1459.72 -3.88381 1.89167 0
M  V30 15364 C 1458.85 -5.10329 1.47437 0
M  V30 15365 C 1457.89 -5.53473 2.61408 0
M  V30 15366 N 1457.03 -6.66624 2.20355 0
M  V30 15367 H 1461.87 -2.19006 2.0209 0
M  V30 15368 H 1459.41 -1.07305 1.00618 0
M  V30 15369 H 1461.36 -4.14287 0.492177 0
M  V30 15370 H 1459.99 -3.2228 -0.183101 0
M  V30 15371 H 1459.05 -3.0799 2.23264 0
M  V30 15372 H 1460.36 -4.16338 2.74708 0
M  V30 15373 H 1459.51 -5.94577 1.20679 0
M  V30 15374 H 1458.25 -4.8412 0.589873 0
M  V30 15375 H 1457.26 -4.67782 2.88894 0
M  V30 15376 H 1458.48 -5.81684 3.50458 0
M  V30 15377 H 1456.43 -6.42097 1.34341 0
M  V30 15378 H 1456.34 -6.9417 2.99439 0
M  V30 15379 H 1457.61 -7.54245 1.96811 0
M  V30 15380 N 1461.84 -1.08266 -1.14527 0
M  V30 15381 C 1463.09 -0.806405 -1.84878 0
M  V30 15382 C 1463.4 0.670151 -1.83762 0
M  V30 15383 O 1464.61 1.06151 -2.49888 0
M  V30 15384 C 1463.06 -1.39257 -3.31867 0
M  V30 15385 C 1462.67 -2.90081 -3.41404 0
M  V30 15386 C 1464.42 -1.19475 -4.0734 0
M  V30 15387 C 1462.32 -3.41842 -4.82595 0
M  V30 15388 H 1461.25 -0.297993 -0.692615 0
M  V30 15389 H 1463.9 -1.30389 -1.29116 0
M  V30 15390 H 1462.29 -0.822802 -3.87358 0
M  V30 15391 H 1463.46 -3.53182 -2.95971 0
M  V30 15392 H 1461.78 -3.08761 -2.79385 0
M  V30 15393 H 1464.37 -1.55614 -5.11555 0
M  V30 15394 H 1464.72 -0.134455 -4.16083 0
M  V30 15395 H 1465.25 -1.73138 -3.58145 0
M  V30 15396 H 1461.99 -4.47439 -4.79039 0
M  V30 15397 H 1461.51 -2.835 -5.28572 0
M  V30 15398 H 1463.19 -3.38346 -5.51481 0
M  V30 15399 N 1463.32 1.31536 -0.86811 0
M  V30 15400 C 1464.27 2.26095 -0.294118 0
M  V30 15401 C 1465.25 1.50549 0.567774 0
M  V30 15402 O 1466.45 1.72067 0.414955 0
M  V30 15403 C 1463.57 3.39565 0.505011 0
M  V30 15404 C 1462.66 4.22483 -0.37002 0
M  V30 15405 N 1463.05 4.84191 -1.46262 0
M  V30 15406 C 1461.35 4.45705 -0.162128 0
M  V30 15407 C 1462.05 5.46161 -2.00206 0
M  V30 15408 N 1461.03 5.27843 -1.29933 0
M  V30 15409 H 1464.83 2.71341 -1.12921 0
M  V30 15410 H 1462.34 1.4578 -0.715669 0
M  V30 15411 H 1464.34 4.06332 0.932733 0
M  V30 15412 H 1463 2.95862 1.33774 0
M  V30 15413 H 1464.01 4.83901 -1.84554 0
M  V30 15414 H 1460.69 4.12646 0.634802 0
M  V30 15415 H 1462.08 6.05197 -2.91866 0
M  V30 15416 N 1464.8 0.627364 1.44575 0
M  V30 15417 C 1466.05 0.130094 2.01681 0
M  V30 15418 C 1466.37 -1.25112 1.49572 0
M  V30 15419 O 1465.64 -1.8305 0.697822 0
M  V30 15420 H 1464.22 0.0451032 0.745637 0
M  V30 15421 H 1466.88 0.813218 1.77124 0
M  V30 15422 H 1465.97 0.0949131 3.11956 0
M  V30 15423 N 1466.28 -1.53251 0.367684 0
M  V30 15424 C 1467.19 -2.29518 -0.485669 0
M  V30 15425 C 1468.2 -1.35568 -1.09075 0
M  V30 15426 O 1469.38 -1.68626 -1.10124 0
M  V30 15427 C 1466.44 -3.07115 -1.60876 0
M  V30 15428 C 1465.5 -4.16736 -1.031 0
M  V30 15429 C 1464.74 -4.90624 -2.10056 0
M  V30 15430 O 1464.96 -4.64393 -3.31203 0
M  V30 15431 O 1463.89 -5.76503 -1.72996 0
M  V30 15432 H 1467.72 -3.034 0.135017 0
M  V30 15433 H 1465.3 -1.48816 0.132005 0
M  V30 15434 H 1467.19 -3.55564 -2.26168 0
M  V30 15435 H 1465.86 -2.36068 -2.21481 0
M  V30 15436 H 1464.77 -3.72534 -0.341928 0
M  V30 15437 H 1466.1 -4.89956 -0.469473 0
M  V30 15438 N 1467.75 -0.0969077 -1.57302 0
M  V30 15439 C 1469.17 0.25974 -1.57472 0
M  V30 15440 C 1469.37 1.6829 -1.10818 0
M  V30 15441 O 1468.43 2.39972 -0.785466 0
M  V30 15442 C 1469.74 0.0465211 -3.00664 0
M  V30 15443 C 1471.29 0.114131 -3.12792 0
M  V30 15444 C 1471.76 -0.0711175 -4.57945 0
M  V30 15445 N 1473.25 -0.0163438 -4.63197 0
M  V30 15446 C 1473.99 -0.1349 -5.73241 0
M  V30 15447 N 1473.48 -0.308391 -6.92113 0
M  V30 15448 N 1475.28 -0.0760411 -5.62049 0
M  V30 15449 H 1467.43 -1.02673 -1.85935 0
M  V30 15450 H 1469.69 -0.402528 -0.858298 0
M  V30 15451 H 1469.4 -0.936496 -3.39002 0
M  V30 15452 H 1469.27 0.78805 -3.68876 0
M  V30 15453 H 1471.66 1.08765 -2.74325 0
M  V30 15454 H 1471.74 -0.658918 -2.47168 0
M  V30 15455 H 1471.38 -1.04152 -4.97106 0
M  V30 15456 H 1471.31 0.721647 -5.21632 0
M  V30 15457 H 1473.8 0.115134 -3.77725 0
M  V30 15458 H 1474.12 -0.390318 -7.71814 0
M  V30 15459 H 1472.46 -0.344082 -6.94148 0
M  V30 15460 H 1475.65 0.0583778 -4.68064 0
M  V30 15461 H 1475.83 -0.171884 -6.47772 0
M  V30 15462 N 1469.23 1.56605 0.176793 0
M  V30 15463 C 1470.18 1.96896 1.23833 0
M  V30 15464 C 1471.17 0.85693 1.46127 0
M  V30 15465 O 1472.38 1.04202 1.46772 0
M  V30 15466 H 1468.75 0.626363 0.416141 0
M  V30 15467 H 1470.73 2.85387 0.871607 0
M  V30 15468 C 1469.47 2.34034 2.57145 0
M  V30 15469 H 1468.8 3.1914 2.40811 0
M  V30 15470 H 1470.24 2.66074 3.30122 0
M  V30 15471 C 1468.7 1.18171 3.15495 0
M  V30 15472 O 1469.23 0.466448 3.98983 0
M  V30 15473 N 1467.43 0.953705 2.74505 0
M  V30 15474 H 1466.98 1.5371 2.06715 0
M  V30 15475 H 1466.94 0.180307 3.13883 0
M  V30 15476 N 1470.71 -0.445159 1.51182 0
M  V30 15477 C 1471.96 -1.19701 1.63705 0
M  V30 15478 C 1472.29 -1.91047 0.348511 0
M  V30 15479 O 1471.56 -1.83264 -0.651497 0
M  V30 15480 C 1471.85 -2.22021 2.83511 0
M  V30 15481 C 1471.7 -1.54809 4.2232 0
M  V30 15482 C 1473.02 -3.23083 2.9884 0
M  V30 15483 H 1470.14 -0.433818 0.595795 0
M  V30 15484 H 1472.78 -0.487276 1.83645 0
M  V30 15485 H 1470.93 -2.82551 2.66641 0
M  V30 15486 H 1472.6 -0.976774 4.5084 0
M  V30 15487 H 1470.84 -0.850596 4.25379 0
M  V30 15488 H 1471.52 -2.29289 5.02126 0
M  V30 15489 H 1473.99 -2.72601 3.14369 0
M  V30 15490 H 1472.87 -3.91978 3.84246 0
M  V30 15491 H 1473.13 -3.88732 2.1057 0
M  V30 15492 N 1472.19 -1.41197 -0.700089 0
M  V30 15493 C 1473.43 -1.40311 -1.46011 0
M  V30 15494 C 1473.76 -0.0106853 -1.94497 0
M  V30 15495 O 1473.02 0.976648 -1.69588 0
M  V30 15496 C 1473.32 -2.35259 -2.6905 0
M  V30 15497 C 1472.98 -3.82194 -2.39245 0
M  V30 15498 C 1471.64 -4.22223 -2.30827 0
M  V30 15499 C 1474 -4.74983 -2.1457 0
M  V30 15500 C 1471.32 -5.53055 -1.95824 0
M  V30 15501 C 1473.68 -6.0613 -1.81077 0
M  V30 15502 C 1472.34 -6.45185 -1.71151 0
M  V30 15503 H 1471.61 -0.513434 -0.534291 0
M  V30 15504 H 1474.26 -1.73963 -0.800574 0
M  V30 15505 H 1472.56 -1.94845 -3.39915 0
M  V30 15506 H 1474.26 -2.31849 -3.2718 0
M  V30 15507 H 1470.85 -3.50488 -2.4669 0
M  V30 15508 H 1475.03 -4.44864 -2.20021 0
M  V30 15509 H 1470.29 -5.822 -1.86689 0
M  V30 15510 H 1474.46 -6.77533 -1.61002 0
M  V30 15511 H 1472.09 -7.46476 -1.43796 0
M  V30 15512 N 1473.67 0.933891 -1.2695 0
M  V30 15513 C 1474.94 1.65874 -1.0366 0
M  V30 15514 C 1475.32 2.0666 0.43066 0
M  V30 15515 O 1474.67 1.79606 1.41259 0
M  V30 15516 C 1474.88 2.86546 -1.99229 0
M  V30 15517 C 1476.23 3.58031 -2.28251 0
M  V30 15518 O 1477.25 2.96663 -1.97154 0
M  V30 15519 O 1476.11 4.68583 -2.81233 0
M  V30 15520 H 1473.21 0.72673 -0.394706 0
M  V30 15521 H 1475.75 0.984975 -1.38189 0
M  V30 15522 H 1474.52 2.53351 -2.9821 0
M  V30 15523 H 1474.15 3.61645 -1.65224 0
M  V30 15524 N 1475.14 1.08871 1.13951 0
M  V30 15525 C 1476.39 0.819665 1.84732 0
M  V30 15526 C 1476.71 -0.656535 1.83615 0
M  V30 15527 O 1475.98 -1.47614 1.28791 0
M  V30 15528 H 1474.56 0.30023 0.684011 0
M  V30 15529 H 1477.22 1.37568 1.38062 0
M  V30 15530 H 1476.32 1.16809 2.89417 0
M  V30 15531 N 1476.62 -1.31073 0.875073 0
M  V30 15532 C 1477.87 -1.95791 0.484661 0
M  V30 15533 C 1478.18 -1.69907 -0.969074 0
M  V30 15534 O 1479.39 -2.28527 -1.46587 0
M  V30 15535 C 1477.85 -3.50532 0.815804 0
M  V30 15536 C 1477.45 -3.85249 2.28664 0
M  V30 15537 C 1479.2 -4.21615 0.494111 0
M  V30 15538 C 1477.1 -5.33124 2.55993 0
M  V30 15539 H 1476.03 -0.732806 0.177516 0
M  V30 15540 H 1478.69 -1.49169 1.06868 0
M  V30 15541 H 1477.07 -3.95673 0.16098 0
M  V30 15542 H 1478.24 -3.51051 2.98496 0
M  V30 15543 H 1476.56 -3.27244 2.57488 0
M  V30 15544 H 1479.15 -5.30417 0.675456 0
M  V30 15545 H 1479.5 -4.12437 -0.565815 0
M  V30 15546 H 1480.03 -3.82125 1.1057 0
M  V30 15547 H 1476.77 -5.47343 3.60688 0
M  V30 15548 H 1476.29 -5.68657 1.90761 0
M  V30 15549 H 1477.97 -6.00446 2.40984 0
M  V30 15550 N 1478.1 -0.635022 -1.4424 0
M  V30 15551 C 1479.35 -0.141067 -2.02008 0
M  V30 15552 C 1479.68 1.23849 -1.49973 0
M  V30 15553 O 1478.93 1.83666 -0.675673 0
M  V30 15554 C 1479.23 -0.081191 -3.57308 0
M  V30 15555 C 1478.9 -1.40004 -4.28614 0
M  V30 15556 C 1477.56 -1.76125 -4.4781 0
M  V30 15557 C 1479.91 -2.27041 -4.6915 0
M  V30 15558 C 1477.24 -2.98982 -5.04804 0
M  V30 15559 C 1479.59 -3.49173 -5.27504 0
M  V30 15560 C 1478.25 -3.85512 -5.44919 0
M  V30 15561 H 1477.52 -0.05162 -0.7392 0
M  V30 15562 H 1480.17 -0.822112 -1.72955 0
M  V30 15563 H 1478.48 0.68324 -3.85797 0
M  V30 15564 H 1480.17 0.317584 -3.9974 0
M  V30 15565 H 1476.76 -1.10897 -4.14005 0
M  V30 15566 H 1480.95 -2.0043 -4.54028 0
M  V30 15567 H 1476.2 -3.27208 -5.16473 0
M  V30 15568 H 1480.38 -4.16847 -5.57864 0
M  V30 15569 H 1478 -4.80793 -5.88848 0
M  V30 15570 N 1479.58 1.53054 -0.375806 0
M  V30 15571 C 1480.8 2.06296 0.213708 0
M  V30 15572 C 1481.23 1.24675 1.40846 0
M  V30 15573 O 1480.59 0.268371 1.79303 0
M  V30 15574 C 1480.63 3.55981 0.575301 0
M  V30 15575 O 1479.74 3.77023 1.67115 0
M  V30 15576 H 1479.08 0.66338 0.0286922 0
M  V30 15577 H 1481.61 1.97362 -0.539371 0
M  V30 15578 H 1481.62 3.99187 0.843431 0
M  V30 15579 H 1480.29 4.14829 -0.298258 0
M  V30 15580 H 1478.87 3.45712 1.39778 0
M  V30 15581 N 1481.06 0.105248 1.57248 0
M  V30 15582 C 1482 -0.867443 2.1582 0
M  V30 15583 C 1483 -1.28508 1.10373 0
M  V30 15584 O 1484.2 -1.25842 1.287 0
M  V30 15585 H 1480.58 -0.2978 0.690521 0
M  V30 15586 H 1482.55 -0.348831 2.96354 0
M  V30 15587 C 1481.3 -2.11299 2.7613 0
M  V30 15588 H 1480.62 -1.80054 3.5696 0
M  V30 15589 H 1482.06 -2.77395 3.20668 0
M  V30 15590 C 1480.52 -2.89372 1.72527 0
M  V30 15591 O 1481.05 -3.84274 1.17032 0
M  V30 15592 N 1479.26 -2.53103 1.42784 0
M  V30 15593 H 1478.8 -1.75998 1.88102 0
M  V30 15594 H 1478.76 -3.05639 0.737035 0
M  V30 15595 N 1482.53 -1.56697 -0.168486 0
M  V30 15596 C 1483.95 -1.71808 -0.730674 0
M  V30 15597 C 1484.3 -0.716224 -1.8266 0
M  V30 15598 O 1483.42 0.121803 -2.16057 0
M  V30 15599 C 1484.02 -3.1151 -1.33217 0
M  V30 15600 C 1482.58 -3.28297 -1.84115 0
M  V30 15601 C 1481.72 -2.67757 -0.72122 0
M  V30 15602 H 1484.67 -1.58598 0.0569421 0
M  V30 15603 H 1484.69 -3.10318 -2.20189 0
M  V30 15604 H 1484.21 -3.84404 -0.53431 0
M  V30 15605 H 1482.31 -2.60364 -2.66536 0
M  V30 15606 H 1482.42 -4.3606 -1.98464 0
M  V30 15607 H 1480.78 -2.27644 -1.14239 0
M  V30 15608 H 1481.57 -3.43239 0.0648388 0
M  V30 15609 N 1484.01 0.437135 -1.51416 0
M  V30 15610 C 1485.26 1.1835 -1.63328 0
M  V30 15611 C 1485.57 1.92343 -0.355455 0
M  V30 15612 O 1486.78 2.69183 -0.353951 0
M  V30 15613 C 1485.24 2.15235 -2.88447 0
M  V30 15614 C 1484.84 1.46889 -4.23235 0
M  V30 15615 C 1486.59 2.90303 -3.09716 0
M  V30 15616 C 1484.5 2.42259 -5.39504 0
M  V30 15617 H 1483.43 0.445467 -0.608338 0
M  V30 15618 H 1486.08 0.450528 -1.77883 0
M  V30 15619 H 1484.46 2.91968 -2.67527 0
M  V30 15620 H 1485.63 0.757128 -4.54537 0
M  V30 15621 H 1483.95 0.839725 -4.07845 0
M  V30 15622 H 1486.54 3.61747 -3.93756 0
M  V30 15623 H 1486.89 3.5166 -2.22802 0
M  V30 15624 H 1487.42 2.20677 -3.30978 0
M  V30 15625 H 1484.16 1.85591 -6.28678 0
M  V30 15626 H 1483.68 3.11488 -5.12577 0
M  V30 15627 H 1485.36 3.03384 -5.7146 0
M  V30 15628 N 1485.49 1.41566 0.692592 0
M  V30 15629 C 1486.74 1.41083 1.45265 0
M  V30 15630 C 1487.07 0.0209998 1.94489 0
M  V30 15631 O 1486.32 -0.96764 1.70104 0
M  V30 15632 C 1486.62 2.36683 2.67799 0
M  V30 15633 C 1486.29 3.83458 2.37215 0
M  V30 15634 C 1484.95 4.23441 2.28585 0
M  V30 15635 C 1487.3 4.76114 2.12048 0
M  V30 15636 C 1484.63 5.54086 1.92888 0
M  V30 15637 C 1486.98 6.07082 1.7786 0
M  V30 15638 C 1485.64 6.46083 1.67727 0
M  V30 15639 H 1484.91 0.51626 0.531561 0
M  V30 15640 H 1487.56 1.74385 0.791337 0
M  V30 15641 H 1485.87 1.96645 3.38877 0
M  V30 15642 H 1487.56 2.33581 3.25946 0
M  V30 15643 H 1484.15 3.51792 2.44828 0
M  V30 15644 H 1488.34 4.46025 2.17659 0
M  V30 15645 H 1483.59 5.83182 1.83599 0
M  V30 15646 H 1487.77 6.78378 1.57407 0
M  V30 15647 H 1485.39 7.47228 1.39836 0
M  V30 15648 N 1486.97 -0.927146 1.27443 0
M  V30 15649 C 1488.21 -1.68946 1.15051 0
M  V30 15650 C 1488.57 -1.89664 -0.298585 0
M  V30 15651 O 1489.77 -2.63218 -0.544943 0
M  V30 15652 C 1488.04 -3.01884 1.91313 0
M  V30 15653 S 1489.6 -3.93021 1.9514 0
M  V30 15654 H 1486.42 -0.580376 0.410713 0
M  V30 15655 H 1489.02 -1.10378 1.61359 0
M  V30 15656 H 1487.73 -2.84496 2.95787 0
M  V30 15657 H 1487.26 -3.65504 1.45501 0
M  V30 15658 H 1489.27 -4.85002 1.04822 0
M  V30 15659 N 1488.45 -1.09474 -1.13372 0
M  V30 15660 C 1489.67 -0.852921 -1.88502 0
M  V30 15661 C 1490.09 0.595855 -1.79151 0
M  V30 15662 O 1489.45 1.41019 -1.15845 0
M  V30 15663 C 1489.5 -1.27993 -3.38083 0
M  V30 15664 O 1489.22 -2.67189 -3.47191 0
M  V30 15665 C 1490.72 -1.07056 -4.30179 0
M  V30 15666 H 1487.94 -0.30682 -0.596743 0
M  V30 15667 H 1490.48 -1.45685 -1.43513 0
M  V30 15668 H 1488.64 -0.719879 -3.80653 0
M  V30 15669 H 1489.05 -2.85202 -4.40182 0
M  V30 15670 H 1490.53 -1.4186 -5.3346 0
M  V30 15671 H 1491 -0.00838732 -4.39199 0
M  V30 15672 H 1491.61 -1.61659 -3.93378 0
M  V30 15673 N 1489.92 1.30607 -0.882012 0
M  V30 15674 C 1491.17 1.95531 -0.495038 0
M  V30 15675 C 1491.49 1.70418 0.96005 0
M  V30 15676 O 1492.69 2.29301 1.45373 0
M  V30 15677 C 1491.15 3.50094 -0.834382 0
M  V30 15678 C 1490.76 3.84031 -2.30704 0
M  V30 15679 C 1492.5 4.21347 -0.516463 0
M  V30 15680 C 1490.41 5.31759 -2.58817 0
M  V30 15681 H 1489.34 0.731854 -0.181399 0
M  V30 15682 H 1491.99 1.486 -1.07658 0
M  V30 15683 H 1490.37 3.95582 -0.181961 0
M  V30 15684 H 1491.54 3.49463 -3.00353 0
M  V30 15685 H 1489.86 3.25874 -2.5922 0
M  V30 15686 H 1492.46 5.30051 -0.703576 0
M  V30 15687 H 1492.8 4.12731 0.543935 0
M  V30 15688 H 1493.33 3.81533 -1.12595 0
M  V30 15689 H 1490.07 5.45422 -3.63586 0
M  V30 15690 H 1489.59 5.67637 -1.93774 0
M  V30 15691 H 1491.27 5.9916 -2.44165 0
M  V30 15692 N 1491.4 0.642663 1.43901 0
M  V30 15693 C 1492.65 0.152003 2.0223 0
M  V30 15694 C 1492.98 -1.22711 1.50518 0
M  V30 15695 O 1492.26 -1.817 0.693937 0
M  V30 15696 C 1492.54 0.151278 3.59782 0
M  V30 15697 C 1492.39 1.56356 4.2175 0
M  V30 15698 C 1493.71 -0.518016 4.37041 0
M  V30 15699 H 1490.83 0.0567094 0.734815 0
M  V30 15700 H 1493.47 0.821337 1.7133 0
M  V30 15701 H 1491.62 -0.418679 3.86237 0
M  V30 15702 H 1493.29 2.18329 4.06362 0
M  V30 15703 H 1491.54 2.11401 3.78803 0
M  V30 15704 H 1492.21 1.51499 5.30803 0
M  V30 15705 H 1494.68 -0.0331947 4.16087 0
M  V30 15706 H 1493.56 -0.487754 5.46729 0
M  V30 15707 H 1493.82 -1.59036 4.12504 0
M  V30 15708 N 1492.88 -1.52852 0.383918 0
M  V30 15709 C 1493.81 -2.29213 -0.44539 0
M  V30 15710 C 1494.79 -1.3238 -1.06815 0
M  V30 15711 O 1495.98 -1.61269 -1.08194 0
M  V30 15712 C 1493.11 -3.09497 -1.57573 0
M  V30 15713 C 1492.06 -4.14168 -1.07928 0
M  V30 15714 C 1491.39 -4.82644 -2.30128 0
M  V30 15715 C 1492.69 -5.22082 -0.151035 0
M  V30 15716 H 1494.38 -2.98786 0.19172 0
M  V30 15717 H 1491.93 -1.43695 0.0936471 0
M  V30 15718 H 1493.88 -3.61672 -2.16267 0
M  V30 15719 H 1492.6 -2.37647 -2.24034 0
M  V30 15720 H 1491.26 -3.62966 -0.514909 0
M  V30 15721 H 1490.91 -4.07348 -2.95087 0
M  V30 15722 H 1490.61 -5.53388 -1.97574 0
M  V30 15723 H 1492.14 -5.37621 -2.89475 0
M  V30 15724 H 1493.55 -5.69649 -0.646003 0
M  V30 15725 H 1491.95 -6.00041 0.0844833 0
M  V30 15726 H 1493.02 -4.78228 0.801618 0
M  V30 15727 N 1494.36 -0.113586 -1.5719 0
M  V30 15728 C 1495.61 0.544642 -1.94623 0
M  V30 15729 C 1495.93 1.6756 -0.997428 0
M  V30 15730 O 1495.2 1.95829 -0.0527521 0
M  V30 15731 H 1493.78 0.204186 -0.718552 0
M  V30 15732 H 1496.44 -0.181258 -1.94055 0
M  V30 15733 H 1495.54 0.942765 -2.9752 0
M  V30 15734 N 1495.84 1.56784 0.160173 0
M  V30 15735 C 1497.07 1.86767 0.89026 0
M  V30 15736 C 1497.48 0.700276 1.75333 0
M  V30 15737 O 1496.84 -0.330342 1.79485 0
M  V30 15738 C 1496.89 3.15883 1.75784 0
M  V30 15739 O 1496.61 4.28124 0.929575 0
M  V30 15740 C 1498.11 3.5929 2.59664 0
M  V30 15741 H 1495.33 0.61938 0.258088 0
M  V30 15742 H 1497.87 2.03897 0.156919 0
M  V30 15743 H 1496.03 3.00546 2.4444 0
M  V30 15744 H 1496.44 5.01872 1.52397 0
M  V30 15745 H 1497.92 4.52506 3.16136 0
M  V30 15746 H 1498.39 2.83943 3.35072 0
M  V30 15747 H 1499 3.77277 1.96323 0
M  V30 15748 N 1497.32 -0.429099 1.51646 0
M  V30 15749 C 1498.56 -1.17784 1.64722 0
M  V30 15750 C 1498.89 -1.90998 0.367415 0
M  V30 15751 O 1498.15 -1.8463 -0.648862 0
M  V30 15752 C 1498.44 -2.2131 2.80636 0
M  V30 15753 C 1498.11 -1.65048 4.19607 0
M  V30 15754 C 1496.77 -1.49428 4.57411 0
M  V30 15755 C 1499.12 -1.23765 5.06292 0
M  V30 15756 C 1496.45 -0.910109 5.79598 0
M  V30 15757 C 1498.8 -0.667743 6.29066 0
M  V30 15758 C 1497.47 -0.498507 6.65636 0
M  V30 15759 H 1496.74 -0.431001 0.60276 0
M  V30 15760 H 1499.39 -0.46775 1.857 0
M  V30 15761 H 1497.69 -2.98388 2.53913 0
M  V30 15762 H 1499.39 -2.79079 2.87951 0
M  V30 15763 H 1495.98 -1.78185 3.89805 0
M  V30 15764 H 1500.16 -1.3465 4.77685 0
M  V30 15765 H 1495.42 -0.766825 6.06572 0
M  V30 15766 H 1499.59 -0.339377 6.95573 0
M  V30 15767 H 1497.22 -0.0437292 7.60187 0
M  V30 15768 N 1498.79 -1.41931 -0.685074 0
M  V30 15769 C 1500.04 -1.41571 -1.44229 0
M  V30 15770 C 1500.36 -0.0294445 -1.94978 0
M  V30 15771 O 1499.63 0.930414 -1.72395 0
M  V30 15772 H 1498.21 -0.521138 -0.535186 0
M  V30 15773 H 1500.87 -1.77263 -0.81017 0
M  V30 15774 H 1499.97 -2.10929 -2.30034 0
M  V30 15775 N 1500.27 0.920374 -1.27933 0
M  V30 15776 C 1501.52 1.66338 -1.14081 0
M  V30 15777 C 1501.83 1.93107 0.311324 0
M  V30 15778 O 1503.04 2.65431 0.570862 0
M  V30 15779 C 1501.5 2.99624 -1.99383 0
M  V30 15780 C 1501.1 2.80527 -3.49297 0
M  V30 15781 C 1502.85 3.77474 -1.94199 0
M  V30 15782 C 1500.75 4.09413 -4.26773 0
M  V30 15783 H 1499.68 0.623935 -0.423346 0
M  V30 15784 H 1502.34 1.0219 -1.52412 0
M  V30 15785 H 1500.72 3.6487 -1.53902 0
M  V30 15786 H 1501.89 2.24002 -4.02691 0
M  V30 15787 H 1500.21 2.16097 -3.55937 0
M  V30 15788 H 1502.8 4.72997 -2.49356 0
M  V30 15789 H 1503.15 4.06069 -0.917249 0
M  V30 15790 H 1503.68 3.19036 -2.37614 0
M  V30 15791 H 1500.42 3.85994 -5.29801 0
M  V30 15792 H 1499.94 4.65574 -3.78155 0
M  V30 15793 H 1501.62 4.77721 -4.36339 0
M  V30 15794 N 1501.75 1.10074 1.1279 0
M  V30 15795 C 1502.68 0.704023 2.1812 0
M  V30 15796 C 1503.69 -0.25742 1.60752 0
M  V30 15797 O 1504.88 -0.0424559 1.7845 0
M  V30 15798 C 1501.98 0.0176666 3.38895 0
M  V30 15799 C 1501.16 1.00234 4.2576 0
M  V30 15800 C 1500.22 0.348158 5.25047 0
M  V30 15801 O 1499.24 0.997821 5.60386 0
M  V30 15802 N 1500.44 -0.894955 5.7356 0
M  V30 15803 H 1503.21 1.61024 2.52767 0
M  V30 15804 H 1500.77 0.989068 1.28176 0
M  V30 15805 H 1502.76 -0.431346 4.02395 0
M  V30 15806 H 1501.33 -0.7909 3.02429 0
M  V30 15807 H 1500.55 1.62972 3.58934 0
M  V30 15808 H 1501.84 1.669 4.80647 0
M  V30 15809 H 1501.24 -1.4422 5.47007 0
M  V30 15810 H 1499.79 -1.28718 6.38964 0
M  V30 15811 N 1503.23 -1.30138 0.888926 0
M  V30 15812 C 1504.48 -1.95265 0.5054 0
M  V30 15813 C 1504.79 -1.70925 -0.950998 0
M  V30 15814 O 1506 -2.30069 -1.44155 0
M  V30 15815 C 1504.45 -3.49647 0.852937 0
M  V30 15816 C 1504.06 -3.82802 2.32737 0
M  V30 15817 C 1505.8 -4.21067 0.538801 0
M  V30 15818 C 1503.71 -5.30379 2.61633 0
M  V30 15819 H 1502.64 -0.730882 0.185278 0
M  V30 15820 H 1505.29 -1.48027 1.08444 0
M  V30 15821 H 1503.67 -3.9548 0.202937 0
M  V30 15822 H 1504.85 -3.47866 3.02202 0
M  V30 15823 H 1503.16 -3.24495 2.60944 0
M  V30 15824 H 1505.76 -5.2967 0.731676 0
M  V30 15825 H 1506.1 -4.13014 -0.522039 0
M  V30 15826 H 1506.64 -3.8093 1.14617 0
M  V30 15827 H 1503.37 -5.43486 3.66473 0
M  V30 15828 H 1502.89 -5.66601 1.96782 0
M  V30 15829 H 1504.57 -5.97856 2.47339 0
M  V30 15830 N 1504.71 -0.650285 -1.43559 0
M  V30 15831 C 1505.95 -0.162725 -2.02146 0
M  V30 15832 C 1506.28 1.21911 -1.51166 0
M  V30 15833 O 1505.56 1.81329 -0.703563 0
M  V30 15834 C 1505.84 -0.170356 -3.59697 0
M  V30 15835 C 1505.7 -1.5859 -4.20915 0
M  V30 15836 C 1507.01 0.494831 -4.37309 0
M  V30 15837 H 1504.13 -0.0606055 -0.734504 0
M  V30 15838 H 1506.78 -0.830411 -1.70892 0
M  V30 15839 H 1504.93 0.39819 -3.86454 0
M  V30 15840 H 1506.6 -2.20481 -4.05199 0
M  V30 15841 H 1504.84 -2.13407 -3.77677 0
M  V30 15842 H 1505.51 -1.54312 -5.29992 0
M  V30 15843 H 1507.99 0.0111281 -4.16099 0
M  V30 15844 H 1506.86 0.458753 -5.4698 0
M  V30 15845 H 1507.12 1.56846 -4.13342 0
M  V30 15846 N 1506.18 1.52647 -0.392018 0
M  V30 15847 C 1507.43 2.00798 0.19056 0
M  V30 15848 C 1507.75 1.28265 1.47673 0
M  V30 15849 O 1508.95 1.67142 2.13953 0
M  V30 15850 C 1507.41 3.57779 0.390148 0
M  V30 15851 C 1507.02 4.39213 -0.882933 0
M  V30 15852 C 1508.76 4.14211 0.928945 0
M  V30 15853 C 1506.67 5.87801 -0.651474 0
M  V30 15854 H 1505.6 0.750262 0.0749879 0
M  V30 15855 H 1508.25 1.7613 -0.514835 0
M  V30 15856 H 1506.63 3.78707 1.15746 0
M  V30 15857 H 1507.8 4.30051 -1.65507 0
M  V30 15858 H 1506.12 3.94015 -1.34688 0
M  V30 15859 H 1508.72 5.22884 1.11787 0
M  V30 15860 H 1509.06 3.70475 1.89878 0
M  V30 15861 H 1509.59 3.97185 0.221135 0
M  V30 15862 H 1506.33 6.35864 -1.59239 0
M  V30 15863 H 1505.85 5.99744 0.0816786 0
M  V30 15864 H 1507.53 6.46363 -0.287057 0
M  V30 15865 N 1507.66 0.121921 1.57128 0
M  V30 15866 C 1508.91 -0.536164 1.95584 0
M  V30 15867 C 1509.24 -1.66143 1.0055 0
M  V30 15868 O 1508.52 -1.94452 0.0432427 0
M  V30 15869 C 1508.8 -1.0661 3.43957 0
M  V30 15870 C 1508.65 0.0559458 4.49765 0
M  V30 15871 C 1509.97 -1.95603 3.94243 0
M  V30 15872 H 1507.09 -0.193427 0.711165 0
M  V30 15873 H 1509.73 0.198072 1.88965 0
M  V30 15874 H 1507.88 -1.69181 3.49729 0
M  V30 15875 H 1509.55 0.691357 4.5609 0
M  V30 15876 H 1507.8 0.71868 4.27805 0
M  V30 15877 H 1508.47 -0.356133 5.5085 0
M  V30 15878 H 1510.94 -1.42899 3.90793 0
M  V30 15879 H 1509.82 -2.29599 4.98573 0
M  V30 15880 H 1510.08 -2.88364 3.3511 0
M  V30 15881 N 1509.14 -1.56867 -0.151857 0
M  V30 15882 C 1510.07 -1.94494 -1.21263 0
M  V30 15883 C 1511.09 -0.84021 -1.39443 0
M  V30 15884 O 1512.27 -1.11863 -1.391 0
M  V30 15885 C 1509.37 -2.19952 -2.57826 0
M  V30 15886 C 1508.55 -3.51227 -2.60689 0
M  V30 15887 C 1507.61 -3.65282 -3.78756 0
M  V30 15888 O 1506.63 -4.3772 -3.63854 0
M  V30 15889 N 1507.83 -3.01582 -4.96012 0
M  V30 15890 H 1510.6 -2.86092 -0.892845 0
M  V30 15891 H 1508.16 -1.58258 -0.341463 0
M  V30 15892 H 1510.15 -2.266 -3.35312 0
M  V30 15893 H 1508.72 -1.34643 -2.82117 0
M  V30 15894 H 1507.94 -3.56062 -1.69155 0
M  V30 15895 H 1509.23 -4.37574 -2.59628 0
M  V30 15896 H 1508.63 -2.42637 -5.11022 0
M  V30 15897 H 1507.19 -3.13799 -5.71291 0
M  V30 15898 N 1510.62 0.421051 -1.51871 0
M  V30 15899 C 1511.87 1.16908 -1.65344 0
M  V30 15900 C 1512.19 1.90801 -0.377538 0
M  V30 15901 O 1511.45 1.84972 0.639061 0
M  V30 15902 C 1511.75 2.19819 -2.81806 0
M  V30 15903 C 1511.41 1.62821 -4.20476 0
M  V30 15904 C 1510.08 1.47 -4.58197 0
M  V30 15905 C 1512.43 1.21079 -5.06941 0
M  V30 15906 C 1509.76 0.879359 -5.80073 0
M  V30 15907 C 1512.11 0.634373 -6.29411 0
M  V30 15908 C 1510.77 0.4632 -6.65891 0
M  V30 15909 H 1510.04 0.427798 -0.605037 0
M  V30 15910 H 1512.69 0.457896 -1.85945 0
M  V30 15911 H 1510.99 2.97037 -2.55492 0
M  V30 15912 H 1512.69 2.77548 -2.89427 0
M  V30 15913 H 1509.28 1.76115 -3.90745 0
M  V30 15914 H 1513.46 1.32115 -4.78392 0
M  V30 15915 H 1508.72 0.734646 -6.0697 0
M  V30 15916 H 1512.89 0.302484 -6.95743 0
M  V30 15917 H 1510.52 0.00341397 -7.602 0
M  V30 15918 N 1512.1 1.42293 0.677538 0
M  V30 15919 C 1513.34 1.42334 1.43476 0
M  V30 15920 C 1513.67 0.0397842 1.94959 0
M  V30 15921 O 1512.94 -0.921258 1.72886 0
M  V30 15922 H 1511.52 0.523969 0.532415 0
M  V30 15923 H 1514.18 1.7769 0.800758 0
M  V30 15924 H 1513.27 2.12146 2.28912 0
M  V30 15925 N 1513.57 -0.913576 1.28419 0
M  V30 15926 C 1514.82 -1.65944 1.15355 0
M  V30 15927 C 1515.14 -1.92706 -0.298228 0
M  V30 15928 O 1514.41 -1.54333 -1.20657 0
M  V30 15929 H 1512.99 -0.615063 0.423919 0
M  V30 15930 H 1515.66 -1.0962 1.6115 0
M  V30 15931 H 1514.75 -2.62173 1.69327 0
M  V30 15932 N 1515.05 -1.1067 -1.12204 0
M  V30 15933 C 1516 -0.757745 -2.18007 0
M  V30 15934 C 1516.97 0.26706 -1.63939 0
M  V30 15935 O 1518.15 0.145789 -1.90242 0
M  V30 15936 C 1515.29 -0.198379 -3.44529 0
M  V30 15937 C 1514.41 -1.27878 -4.12639 0
M  V30 15938 C 1513.54 -0.6808 -5.26819 0
M  V30 15939 C 1512.58 -1.74161 -5.868 0
M  V30 15940 N 1511.72 -1.16372 -6.92389 0
M  V30 15941 H 1516.56 -1.66418 -2.47202 0
M  V30 15942 H 1514.1 -0.831216 -1.21364 0
M  V30 15943 H 1516.05 0.143838 -4.16952 0
M  V30 15944 H 1514.68 0.671279 -3.15743 0
M  V30 15945 H 1513.74 -1.73808 -3.38371 0
M  V30 15946 H 1515.05 -2.08169 -4.53285 0
M  V30 15947 H 1514.2 -0.288172 -6.06015 0
M  V30 15948 H 1512.94 0.153521 -4.87458 0
M  V30 15949 H 1511.95 -2.14364 -5.06289 0
M  V30 15950 H 1513.17 -2.57882 -6.28231 0
M  V30 15951 H 1511.12 -0.350899 -6.55061 0
M  V30 15952 H 1511.03 -1.90344 -7.31646 0
M  V30 15953 H 1512.3 -0.797715 -7.75407 0
M  V30 15954 N 1516.53 1.29665 -0.895815 0
M  V30 15955 C 1517.94 1.77825 -0.568784 0
M  V30 15956 C 1518.29 1.73534 0.915443 0
M  V30 15957 O 1517.42 1.31885 1.71567 0
M  V30 15958 C 1518.01 3.22901 -1.0257 0
M  V30 15959 C 1516.57 3.68854 -0.749903 0
M  V30 15960 C 1515.72 2.49866 -1.20259 0
M  V30 15961 H 1518.67 1.16381 -1.07894 0
M  V30 15962 H 1518.69 3.788 -0.359312 0
M  V30 15963 H 1518.2 3.25991 -2.10597 0
M  V30 15964 H 1516.3 3.71241 0.317916 0
M  V30 15965 H 1516.42 4.59831 -1.34506 0
M  V30 15966 H 1514.78 2.46997 -0.621676 0
M  V30 15967 H 1515.56 2.55687 -2.29083 0
M  V30 15968 N 1518.01 0.657889 1.43212 0
M  V30 15969 C 1519.26 0.173187 2.01758 0
M  V30 15970 C 1519.58 -1.21447 1.51924 0
M  V30 15971 O 1518.84 -1.82568 0.704807 0
M  V30 15972 C 1519.14 0.138025 3.57133 0
M  V30 15973 C 1518.8 1.46806 4.26332 0
M  V30 15974 C 1517.47 1.83227 4.44951 0
M  V30 15975 C 1519.82 2.34476 4.65478 0
M  V30 15976 C 1517.15 3.06975 4.99983 0
M  V30 15977 C 1519.5 3.57521 5.21883 0
M  V30 15978 C 1518.16 3.94132 5.38717 0
M  V30 15979 H 1517.43 0.0633735 0.738285 0
M  V30 15980 H 1520.08 0.849524 1.71626 0
M  V30 15981 H 1518.38 -0.621776 3.86835 0
M  V30 15982 H 1520.08 -0.253948 4.00195 0
M  V30 15983 H 1516.67 1.17469 4.12188 0
M  V30 15984 H 1520.85 2.07628 4.50782 0
M  V30 15985 H 1516.11 3.35383 5.11202 0
M  V30 15986 H 1520.28 4.25669 5.51161 0
M  V30 15987 H 1517.91 4.901 5.81125 0
M  V30 15988 N 1519.49 -1.52437 0.400108 0
M  V30 15989 C 1520.71 -2.0661 -0.180861 0
M  V30 15990 C 1521.14 -1.269 -1.38845 0
M  V30 15991 O 1520.49 -0.296862 -1.78853 0
M  V30 15992 C 1520.54 -3.56851 -0.518595 0
M  V30 15993 O 1519.65 -3.79634 -1.61095 0
M  V30 15994 H 1518.99 -0.663752 -0.0181348 0
M  V30 15995 H 1521.52 -1.96479 0.570702 0
M  V30 15996 H 1521.53 -4.00478 -0.779817 0
M  V30 15997 H 1520.2 -4.14302 0.364216 0
M  V30 15998 H 1518.78 -3.47892 -1.3426 0
M  V30 15999 N 1520.96 -0.130252 -1.57061 0
M  V30 16000 C 1522.2 0.527958 -1.97464 0
M  V30 16001 C 1522.57 1.63126 -1.01261 0
M  V30 16002 O 1523.77 2.34916 -1.30644 0
M  V30 16003 C 1522.04 1.03657 -3.42038 0
M  V30 16004 S 1523.6 1.70173 -4.04459 0
M  V30 16005 H 1520.42 0.171256 -0.690067 0
M  V30 16006 H 1523.02 -0.218 -1.94281 0
M  V30 16007 H 1521.72 0.222568 -4.09796 0
M  V30 16008 H 1521.25 1.81754 -3.48897 0
M  V30 16009 H 1523.27 2.98813 -3.96138 0
M  V30 16010 N 1522.44 1.56945 0.143535 0
M  V30 16011 C 1523.67 1.88067 0.874385 0
M  V30 16012 C 1524.09 0.719645 1.73789 0
M  V30 16013 O 1523.45 -0.330654 1.78259 0
M  V30 16014 C 1523.5 3.17795 1.70408 0
M  V30 16015 O 1522.6 3.01973 2.80867 0
M  V30 16016 H 1521.94 0.617808 0.24333 0
M  V30 16017 H 1524.47 2.04165 0.133309 0
M  V30 16018 H 1524.48 3.49903 2.09838 0
M  V30 16019 H 1523.16 4.019 1.07001 0
M  V30 16020 H 1521.74 2.8128 2.44818 0
M  V30 16021 N 1523.92 -0.412991 1.52093 0
M  V30 16022 C 1525.33 -0.991955 1.58168 0
M  V30 16023 C 1525.68 -1.91655 0.419834 0
M  V30 16024 O 1524.81 -2.11448 -0.460308 0
M  V30 16025 C 1525.4 -1.80581 2.86663 0
M  V30 16026 C 1523.96 -2.33487 2.9523 0
M  V30 16027 C 1523.11 -1.13362 2.5307 0
M  V30 16028 H 1526.06 -0.193364 1.57518 0
M  V30 16029 H 1526.08 -2.66282 2.71798 0
M  V30 16030 H 1525.59 -1.13262 3.71205 0
M  V30 16031 H 1523.69 -3.0419 2.15173 0
M  V30 16032 H 1523.81 -2.64617 3.99393 0
M  V30 16033 H 1522.17 -1.48641 2.06828 0
M  V30 16034 H 1522.95 -0.476148 3.39982 0
M  V30 16035 N 1525.4 -1.4265 -0.669982 0
M  V30 16036 C 1526.33 -1.49298 -1.79534 0
M  V30 16037 C 1527.31 -0.34911 -1.66479 0
M  V30 16038 O 1528.5 -0.564072 -1.85828 0
M  V30 16039 C 1525.63 -1.39935 -3.17861 0
M  V30 16040 C 1524.58 -2.52398 -3.45657 0
M  V30 16041 C 1523.91 -2.28092 -4.8361 0
M  V30 16042 C 1525.21 -3.94697 -3.4207 0
M  V30 16043 H 1526.9 -2.43486 -1.74227 0
M  V30 16044 H 1524.45 -1.17191 -0.836796 0
M  V30 16045 H 1526.4 -1.43193 -3.96325 0
M  V30 16046 H 1525.12 -0.422436 -3.23857 0
M  V30 16047 H 1523.78 -2.48465 -2.69556 0
M  V30 16048 H 1523.43 -1.28683 -4.86261 0
M  V30 16049 H 1523.13 -3.03469 -5.0317 0
M  V30 16050 H 1524.65 -2.33107 -5.64352 0
M  V30 16051 H 1526.07 -4.00207 -4.10496 0
M  V30 16052 H 1524.46 -4.69965 -3.73166 0
M  V30 16053 H 1525.53 -4.21025 -2.40554 0
M  V30 16054 N 1526.88 0.906753 -1.28902 0
M  V30 16055 C 1528.1 1.69547 -1.19452 0
M  V30 16056 C 1528.53 1.86531 0.242418 0
M  V30 16057 O 1527.89 1.38052 1.17521 0
M  V30 16058 C 1527.93 3.06139 -1.90556 0
M  V30 16059 O 1527.04 3.9401 -1.21779 0
M  V30 16060 H 1526.38 0.518902 -0.41429 0
M  V30 16061 H 1528.91 1.13327 -1.70347 0
M  V30 16062 H 1528.92 3.56326 -1.98736 0
M  V30 16063 H 1527.59 2.93094 -2.95074 0
M  V30 16064 H 1526.17 3.52444 -1.2181 0
M  V30 16065 N 1528.36 1.11264 1.11616 0
M  V30 16066 C 1529.58 0.882802 1.87121 0
M  V30 16067 C 1530 -0.567279 1.80076 0
M  V30 16068 O 1529.36 -1.39158 1.18074 0
M  V30 16069 C 1529.41 1.33355 3.36004 0
M  V30 16070 O 1529.13 2.72678 3.42897 0
M  V30 16071 C 1530.63 1.13886 4.28421 0
M  V30 16072 H 1527.85 0.316275 0.591786 0
M  V30 16073 H 1530.39 1.4795 1.41177 0
M  V30 16074 H 1528.55 0.780347 3.79459 0
M  V30 16075 H 1528.96 2.92168 4.35589 0
M  V30 16076 H 1530.44 1.50329 5.31136 0
M  V30 16077 H 1530.91 0.078259 4.3913 0
M  V30 16078 H 1531.52 1.67896 3.90757 0
M  V30 16079 N 1529.83 -1.29188 0.902679 0
M  V30 16080 C 1530.74 -2.3138 0.387363 0
M  V30 16081 C 1531.76 -1.66067 -0.519396 0
M  V30 16082 O 1532.94 -1.97219 -0.408257 0
M  V30 16083 C 1530 -3.44675 -0.374137 0
M  V30 16084 C 1529.06 -4.25572 0.564503 0
M  V30 16085 C 1528.29 -5.33458 -0.160748 0
M  V30 16086 O 1528.52 -5.53349 -1.38423 0
M  V30 16087 O 1527.45 -5.99834 0.498259 0
M  V30 16088 H 1531.28 -2.77444 1.23525 0
M  V30 16089 H 1528.86 -1.33679 0.667106 0
M  V30 16090 H 1530.74 -4.13647 -0.80464 0
M  V30 16091 H 1529.42 -3.00714 -1.19804 0
M  V30 16092 H 1528.33 -3.59232 1.04418 0
M  V30 16093 H 1529.66 -4.73184 1.3549 0
M  V30 16094 N 1531.31 -0.665475 -1.42861 0
M  V30 16095 C 1532.24 0.0574495 -2.29128 0
M  V30 16096 C 1533.26 0.774881 -1.43176 0
M  V30 16097 O 1534.45 0.630593 -1.6699 0
M  V30 16098 C 1531.55 1.10481 -3.20386 0
M  V30 16099 C 1530.72 0.463071 -4.34942 0
M  V30 16100 C 1529.78 1.40896 -5.06986 0
M  V30 16101 O 1528.8 0.912839 -5.61833 0
M  V30 16102 N 1530.01 2.74257 -5.11628 0
M  V30 16103 H 1532.77 -0.683051 -2.91812 0
M  V30 16104 H 1530.33 -0.509179 -1.53685 0
M  V30 16105 H 1532.32 1.73866 -3.65449 0
M  V30 16106 H 1530.89 1.74715 -2.59217 0
M  V30 16107 H 1530.11 -0.350109 -3.92642 0
M  V30 16108 H 1531.4 0.0156092 -5.08798 0
M  V30 16109 H 1530.8 3.17112 -4.68462 0
M  V30 16110 H 1529.36 3.32913 -5.60368 0
M  V30 16111 N 1532.79 1.52222 -0.408187 0
M  V30 16112 C 1534.04 2.02765 0.160542 0
M  V30 16113 C 1534.39 1.28847 1.42885 0
M  V30 16114 O 1533.68 0.385878 1.87674 0
M  V30 16115 C 1533.88 3.54384 0.463353 0
M  V30 16116 C 1533.71 4.42988 -0.774055 0
M  V30 16117 C 1532.48 4.88318 -1.29897 0
M  V30 16118 C 1534.67 4.87049 -1.65189 0
M  V30 16119 N 1532.66 5.61048 -2.49196 0
M  V30 16120 C 1534.03 5.5855 -2.69114 0
M  V30 16121 C 1536.08 4.69066 -1.66976 0
M  V30 16122 C 1534.79 6.13976 -3.74735 0
M  V30 16123 C 1536.81 5.25389 -2.71515 0
M  V30 16124 C 1536.17 5.96811 -3.74161 0
M  V30 16125 H 1532.27 0.781735 0.0203387 0
M  V30 16126 H 1534.86 1.86403 -0.562322 0
M  V30 16127 H 1533.03 3.70821 1.15526 0
M  V30 16128 H 1534.76 3.91612 1.02088 0
M  V30 16129 H 1531.51 4.65779 -0.857148 0
M  V30 16130 H 1531.94 6.02055 -3.09611 0
M  V30 16131 H 1536.58 4.13335 -0.889589 0
M  V30 16132 H 1534.3 6.68779 -4.53608 0
M  V30 16133 H 1537.88 5.13344 -2.73804 0
M  V30 16134 H 1536.76 6.39613 -4.53724 0
M  V30 16135 N 1534.27 0.138579 1.5699 0
M  V30 16136 C 1535.2 -0.800568 2.19347 0
M  V30 16137 C 1536.18 -1.26318 1.13921 0
M  V30 16138 O 1537.36 -1.32226 1.42232 0
M  V30 16139 C 1534.49 -2.04317 2.80842 0
M  V30 16140 C 1533.45 -1.71764 3.92022 0
M  V30 16141 C 1532.77 -3.03217 4.40413 0
M  V30 16142 C 1534.07 -0.970789 5.13199 0
M  V30 16143 H 1535.77 -0.280888 2.98079 0
M  V30 16144 H 1533.31 -0.133663 1.43378 0
M  V30 16145 H 1535.27 -2.70491 3.2313 0
M  V30 16146 H 1533.99 -2.58643 1.99428 0
M  V30 16147 H 1532.65 -1.07972 3.50339 0
M  V30 16148 H 1532.3 -3.55517 3.55832 0
M  V30 16149 H 1532 -2.82203 5.15398 0
M  V30 16150 H 1533.52 -3.70477 4.85365 0
M  V30 16151 H 1534.94 -1.53445 5.52384 0
M  V30 16152 H 1533.33 -0.860895 5.93893 0
M  V30 16153 H 1534.4 0.0390088 4.84884 0
M  V30 16154 N 1535.75 -1.57019 -0.13521 0
M  V30 16155 C 1536.99 -1.85146 -0.842178 0
M  V30 16156 C 1537.35 -0.724176 -1.78251 0
M  V30 16157 O 1536.64 0.277042 -1.89586 0
M  V30 16158 C 1536.83 -3.17358 -1.64373 0
M  V30 16159 C 1536.66 -4.42839 -0.782516 0
M  V30 16160 C 1535.43 -5.03349 -0.443581 0
M  V30 16161 C 1537.63 -5.14188 -0.107475 0
M  V30 16162 N 1535.61 -6.12392 0.429998 0
M  V30 16163 C 1536.98 -6.16834 0.62576 0
M  V30 16164 C 1539.04 -4.97891 -0.0293703 0
M  V30 16165 C 1537.74 -7.04947 1.42974 0
M  V30 16166 C 1539.77 -5.86478 0.761385 0
M  V30 16167 C 1539.13 -6.88615 1.48286 0
M  V30 16168 H 1535.23 -0.727972 -0.285624 0
M  V30 16169 H 1537.81 -1.94407 -0.106834 0
M  V30 16170 H 1535.98 -3.09223 -2.35023 0
M  V30 16171 H 1537.72 -3.33349 -2.29478 0
M  V30 16172 H 1534.47 -4.67098 -0.782098 0
M  V30 16173 H 1534.89 -6.71539 0.85816 0
M  V30 16174 H 1539.54 -4.18902 -0.572813 0
M  V30 16175 H 1537.25 -7.83356 1.9844 0
M  V30 16176 H 1540.84 -5.75936 0.823965 0
M  V30 16177 H 1539.72 -7.55977 2.08491 0
M  V30 16178 N 1537.22 0.404919 -1.52309 0
M  V30 16179 C 1538.46 1.1606 -1.68254 0
M  V30 16180 C 1538.83 1.87663 -0.405788 0
M  V30 16181 O 1540.03 2.65151 -0.441388 0
M  V30 16182 C 1538.3 2.12531 -2.87342 0
M  V30 16183 S 1539.86 2.9615 -3.23791 0
M  V30 16184 H 1536.68 0.393113 -0.592438 0
M  V30 16185 H 1539.28 0.4473 -1.90314 0
M  V30 16186 H 1537.98 1.58623 -3.78506 0
M  V30 16187 H 1537.51 2.88395 -2.67567 0
M  V30 16188 H 1539.53 4.14521 -2.7274 0
M  V30 16189 N 1538.7 1.43003 0.662408 0
M  V30 16190 C 1539.63 1.50248 1.78739 0
M  V30 16191 C 1540.61 0.357934 1.66291 0
M  V30 16192 O 1541.8 0.573919 1.85526 0
M  V30 16193 C 1538.93 1.41618 3.17114 0
M  V30 16194 C 1537.88 2.54228 3.44314 0
M  V30 16195 C 1537.21 2.30653 4.82393 0
M  V30 16196 C 1538.51 3.96505 3.39972 0
M  V30 16197 H 1540.2 2.44406 1.72934 0
M  V30 16198 H 1537.75 1.17633 0.830569 0
M  V30 16199 H 1539.7 1.45293 3.9556 0
M  V30 16200 H 1538.43 0.439605 3.23628 0
M  V30 16201 H 1537.08 2.49891 2.68235 0
M  V30 16202 H 1536.73 1.3126 4.85572 0
M  V30 16203 H 1536.43 3.06134 5.01554 0
M  V30 16204 H 1537.96 2.36096 5.63108 0
M  V30 16205 H 1539.37 4.02378 4.08368 0
M  V30 16206 H 1537.77 4.71937 3.70668 0
M  V30 16207 H 1538.84 4.22295 2.38318 0
M  V30 16208 N 1540.18 -0.899904 1.29381 0
M  V30 16209 C 1541.43 -1.65038 1.17341 0
M  V30 16210 C 1541.76 -1.92544 -0.275135 0
M  V30 16211 O 1541.01 -1.53402 -1.21517 0
M  V30 16212 C 1541.31 -3.0069 1.93185 0
M  V30 16213 C 1540.98 -2.92792 3.42905 0
M  V30 16214 C 1539.64 -2.90345 3.83736 0
M  V30 16215 C 1541.99 -2.82015 4.38312 0
M  V30 16216 C 1539.32 -2.7494 5.1829 0
M  V30 16217 C 1541.67 -2.68149 5.72956 0
M  V30 16218 C 1540.33 -2.64068 6.13045 0
M  V30 16219 H 1539.6 -0.603915 0.42938 0
M  V30 16220 H 1542.25 -1.04743 1.60316 0
M  V30 16221 H 1540.56 -3.6485 1.428 0
M  V30 16222 H 1542.25 -3.57688 1.81274 0
M  V30 16223 H 1538.84 -2.95498 3.10449 0
M  V30 16224 H 1543.03 -2.82982 4.07719 0
M  V30 16225 H 1538.28 -2.70186 5.48461 0
M  V30 16226 H 1542.46 -2.58781 6.46533 0
M  V30 16227 H 1540.08 -2.51889 7.17256 0
M  V30 16228 N 1541.66 -1.11854 -1.11024 0
M  V30 16229 C 1542.9 -0.871362 -1.83126 0
M  V30 16230 C 1543.24 0.601437 -1.84652 0
M  V30 16231 O 1542.51 1.44427 -1.30273 0
M  V30 16232 C 1542.8 -1.4391 -3.30094 0
M  V30 16233 C 1542.65 -2.97983 -3.36937 0
M  V30 16234 C 1543.97 -1.09361 -4.26296 0
M  V30 16235 H 1541.09 -0.317994 -0.664867 0
M  V30 16236 H 1543.73 -1.38414 -1.3016 0
M  V30 16237 H 1541.88 -1.00297 -3.7533 0
M  V30 16238 H 1543.55 -3.50231 -3.00227 0
M  V30 16239 H 1541.79 -3.33827 -2.77023 0
M  V30 16240 H 1542.46 -3.32797 -4.40398 0
M  V30 16241 H 1544.94 -1.47018 -3.89262 0
M  V30 16242 H 1543.82 -1.51756 -5.27505 0
M  V30 16243 H 1544.08 -0.0049637 -4.421 0
M  V30 16244 N 1543.14 1.28707 -0.909517 0
M  V30 16245 C 1544.38 1.94768 -0.539413 0
M  V30 16246 C 1544.71 1.7198 0.919133 0
M  V30 16247 O 1543.98 1.0571 1.64931 0
M  V30 16248 H 1542.56 0.720693 -0.196496 0
M  V30 16249 H 1545.22 1.56772 -1.15795 0
M  V30 16250 H 1544.31 3.03436 -0.730281 0
M  V30 16251 N 1544.61 0.673042 1.42506 0
M  V30 16252 C 1545.86 0.194864 2.01862 0
M  V30 16253 C 1546.19 -1.19491 1.53087 0
M  V30 16254 O 1545.47 -1.80187 0.732322 0
M  V30 16255 C 1545.75 0.227559 3.5938 0
M  V30 16256 C 1545.6 1.65266 4.18338 0
M  V30 16257 C 1546.92 -0.425197 4.38041 0
M  V30 16258 H 1544.04 0.0722831 0.733447 0
M  V30 16259 H 1546.68 0.857493 1.6955 0
M  V30 16260 H 1544.83 -0.336658 3.87039 0
M  V30 16261 H 1546.51 2.26899 4.0164 0
M  V30 16262 H 1544.75 2.19388 3.74234 0
M  V30 16263 H 1545.42 1.62724 5.2747 0
M  V30 16264 H 1547.9 0.0550709 4.16064 0
M  V30 16265 H 1546.77 -0.371675 5.4764 0
M  V30 16266 H 1547.03 -1.50251 4.15785 0
M  V30 16267 N 1546.09 -1.52004 0.416254 0
M  V30 16268 C 1547.34 -2.0149 -0.15689 0
M  V30 16269 C 1547.66 -1.30343 -1.45037 0
M  V30 16270 O 1546.93 -0.431503 -1.91089 0
M  V30 16271 H 1545.51 -0.744508 -0.0609682 0
M  V30 16272 H 1548.17 -1.86857 0.55413 0
M  V30 16273 H 1547.27 -3.10155 -0.347917 0
M  V30 16274 N 1547.57 -0.146903 -1.56914 0
M  V30 16275 C 1548.48 0.805875 -2.20324 0
M  V30 16276 C 1549.5 1.27178 -1.18751 0
M  V30 16277 O 1550.67 1.32899 -1.51327 0
M  V30 16278 C 1547.74 2.02755 -2.81232 0
M  V30 16279 C 1546.8 1.61089 -3.97931 0
M  V30 16280 C 1546.03 2.77433 -4.55924 0
M  V30 16281 O 1546.25 3.93643 -4.12797 0
M  V30 16282 O 1545.19 2.52911 -5.46187 0
M  V30 16283 H 1549.01 0.296098 -3.02253 0
M  V30 16284 H 1546.6 0.0801175 -1.49185 0
M  V30 16285 H 1548.48 2.74252 -3.19944 0
M  V30 16286 H 1547.16 2.52686 -2.02316 0
M  V30 16287 H 1546.06 0.86616 -3.63935 0
M  V30 16288 H 1547.4 1.15874 -4.78366 0
M  V30 16289 N 1549.05 1.57088 0.126881 0
M  V30 16290 C 1549.98 2.02799 1.15737 0
M  V30 16291 C 1550.96 0.911031 1.43646 0
M  V30 16292 O 1552.14 1.18021 1.54223 0
M  V30 16293 C 1549.27 2.42565 2.48555 0
M  V30 16294 C 1548.23 3.57631 2.35125 0
M  V30 16295 C 1547.55 3.83272 3.72836 0
M  V30 16296 C 1548.85 4.89625 1.81838 0
M  V30 16297 H 1550.55 2.89136 0.777207 0
M  V30 16298 H 1548.09 1.39101 0.372416 0
M  V30 16299 H 1550.05 2.73146 3.20888 0
M  V30 16300 H 1548.77 1.53188 2.88446 0
M  V30 16301 H 1547.43 3.27247 1.65242 0
M  V30 16302 H 1547.08 2.91114 4.10197 0
M  V30 16303 H 1546.78 4.60721 3.64705 0
M  V30 16304 H 1548.3 4.16298 4.46686 0
M  V30 16305 H 1549.72 5.18793 2.43981 0
M  V30 16306 H 1548.11 5.71018 1.84548 0
M  V30 16307 H 1549.18 4.7866 0.775385 0
M  V30 16308 N 1550.53 -0.396836 1.52522 0
M  V30 16309 C 1551.77 -1.14432 1.67431 0
M  V30 16310 C 1552.11 -1.89842 0.409115 0
M  V30 16311 O 1551.38 -1.85244 -0.592863 0
M  V30 16312 C 1551.66 -2.12889 2.90431 0
M  V30 16313 C 1551.52 -1.41295 4.27031 0
M  V30 16314 C 1552.84 -3.13412 3.08967 0
M  V30 16315 H 1549.95 -0.414643 0.609295 0
M  V30 16316 H 1552.6 -0.428604 1.85103 0
M  V30 16317 H 1550.75 -2.73924 2.75495 0
M  V30 16318 H 1552.42 -0.832848 4.53719 0
M  V30 16319 H 1550.66 -0.714834 4.2787 0
M  V30 16320 H 1551.33 -2.13198 5.09167 0
M  V30 16321 H 1553.81 -2.62462 3.22883 0
M  V30 16322 H 1552.68 -3.79555 3.96522 0
M  V30 16323 H 1552.95 -3.81836 2.22831 0
M  V30 16324 N 1552.01 -1.43353 -0.654814 0
M  V30 16325 C 1553.25 -1.46096 -1.41518 0
M  V30 16326 C 1553.61 -0.0833089 -1.9222 0
M  V30 16327 O 1552.9 0.897806 -1.69263 0
M  V30 16328 C 1553.09 -2.437 -2.61429 0
M  V30 16329 C 1552.92 -3.90819 -2.22464 0
M  V30 16330 C 1551.69 -4.59199 -2.10867 0
M  V30 16331 C 1553.89 -4.80698 -1.8285 0
M  V30 16332 N 1551.87 -5.91251 -1.65215 0
M  V30 16333 C 1553.24 -6.0201 -1.48269 0
M  V30 16334 C 1555.3 -4.67972 -1.70019 0
M  V30 16335 C 1554 -7.12011 -1.02142 0
M  V30 16336 C 1556.03 -5.77975 -1.25297 0
M  V30 16337 C 1555.39 -6.98412 -0.916516 0
M  V30 16338 H 1551.49 -0.589722 -0.513568 0
M  V30 16339 H 1554.07 -1.79521 -0.753681 0
M  V30 16340 H 1552.24 -2.12304 -3.25241 0
M  V30 16341 H 1553.98 -2.36892 -3.28123 0
M  V30 16342 H 1550.73 -4.13682 -2.30573 0
M  V30 16343 H 1551.15 -6.61343 -1.44756 0
M  V30 16344 H 1555.8 -3.75317 -1.94671 0
M  V30 16345 H 1553.51 -8.04496 -0.762381 0
M  V30 16346 H 1557.1 -5.70147 -1.15861 0
M  V30 16347 H 1555.98 -7.82084 -0.575735 0
M  V30 16348 N 1553.48 0.89303 -1.29857 0
M  V30 16349 C 1554.73 1.64088 -1.17981 0
M  V30 16350 C 1555.05 1.93156 0.267533 0
M  V30 16351 O 1554.32 1.56233 1.18186 0
M  V30 16352 H 1552.9 0.608241 -0.43365 0
M  V30 16353 H 1555.56 1.07042 -1.62874 0
M  V30 16354 H 1554.66 2.59446 -1.73477 0
M  V30 16355 N 1554.96 1.12442 1.10429 0
M  V30 16356 C 1555.89 0.750131 2.16577 0
M  V30 16357 C 1556.91 -0.223265 1.61262 0
M  V30 16358 O 1558.1 -0.00459454 1.78499 0
M  V30 16359 C 1555.2 0.0895474 3.38782 0
M  V30 16360 C 1554.37 1.09242 4.23539 0
M  V30 16361 C 1553.43 0.45945 5.2419 0
M  V30 16362 O 1552.45 1.11646 5.58143 0
M  V30 16363 N 1553.66 -0.773093 5.75329 0
M  V30 16364 H 1556.42 1.66349 2.49295 0
M  V30 16365 H 1553.98 1.01603 1.26049 0
M  V30 16366 H 1555.97 -0.345895 4.03219 0
M  V30 16367 H 1554.54 -0.726572 3.04039 0
M  V30 16368 H 1553.76 1.70549 3.55396 0
M  V30 16369 H 1555.05 1.77057 4.76999 0
M  V30 16370 H 1554.45 -1.32585 5.49943 0
M  V30 16371 H 1553.01 -1.15135 6.41551 0
M  V30 16372 N 1556.44 -1.28223 0.91633 0
M  V30 16373 C 1557.69 -1.95153 0.551639 0
M  V30 16374 C 1558.02 -1.71938 -0.902829 0
M  V30 16375 O 1557.29 -1.04184 -1.64243 0
M  V30 16376 C 1557.58 -3.49565 0.864647 0
M  V30 16377 C 1557.43 -3.82171 2.37203 0
M  V30 16378 C 1558.75 -4.38604 0.362593 0
M  V30 16379 H 1555.87 -0.708808 0.20189 0
M  V30 16380 H 1558.51 -1.51545 1.14604 0
M  V30 16381 H 1556.66 -3.8684 0.358782 0
M  V30 16382 H 1558.33 -3.54751 2.94872 0
M  V30 16383 H 1556.57 -3.29124 2.82595 0
M  V30 16384 H 1557.25 -4.90007 2.54159 0
M  V30 16385 H 1559.72 -4.08416 0.795983 0
M  V30 16386 H 1558.6 -5.45493 0.61066 0
M  V30 16387 H 1558.86 -4.35911 -0.737137 0
M  V30 16388 N 1557.92 -0.68059 -1.42147 0
M  V30 16389 C 1559.17 -0.202445 -2.00681 0
M  V30 16390 C 1559.48 1.19997 -1.54467 0
M  V30 16391 O 1560.69 1.77479 -2.05459 0
M  V30 16392 C 1559.14 -0.311064 -3.58553 0
M  V30 16393 C 1558.75 -1.7179 -4.13754 0
M  V30 16394 C 1560.49 0.108072 -4.24362 0
M  V30 16395 C 1558.4 -1.77897 -5.64009 0
M  V30 16396 H 1557.33 -0.0719266 -0.750561 0
M  V30 16397 H 1559.98 -0.846614 -1.62803 0
M  V30 16398 H 1558.36 0.401098 -3.93963 0
M  V30 16399 H 1559.54 -2.45761 -3.89793 0
M  V30 16400 H 1557.85 -2.08539 -3.60417 0
M  V30 16401 H 1560.45 0.0826684 -5.34636 0
M  V30 16402 H 1560.79 1.14431 -4.00264 0
M  V30 16403 H 1561.33 -0.553285 -3.93933 0
M  V30 16404 H 1558.06 -2.79523 -5.92914 0
M  V30 16405 H 1557.58 -1.0829 -5.89944 0
M  V30 16406 H 1559.26 -1.53504 -6.28527 0
M  V30 16407 N 1559.4 1.51781 -0.424309 0
M  V30 16408 C 1560.36 2.25996 0.381903 0
M  V30 16409 C 1561.36 1.28938 0.960813 0
M  V30 16410 O 1562.55 1.52757 0.837306 0
M  V30 16411 C 1559.68 3.04181 1.53904 0
M  V30 16412 H 1560.87 2.98697 -0.268336 0
M  V30 16413 H 1558.43 1.55293 -0.177167 0
M  V30 16414 H 1559.16 2.35866 2.22571 0
M  V30 16415 H 1558.95 3.75457 1.13025 0
M  V30 16416 H 1560.44 3.60434 2.10896 0
M  V30 16417 N 1560.87 0.155222 1.56834 0
M  V30 16418 C 1562.1 -0.500542 2.00754 0
M  V30 16419 C 1562.52 -1.57878 1.03538 0
M  V30 16420 O 1561.87 -1.82469 0.0336651 0
M  V30 16421 C 1561.92 -1.09366 3.4456 0
M  V30 16422 O 1561.65 -0.0584788 4.38061 0
M  V30 16423 C 1563.15 -1.82923 4.038 0
M  V30 16424 H 1560.37 -0.129589 0.658368 0
M  V30 16425 H 1562.91 0.252223 2.02939 0
M  V30 16426 H 1561.07 -1.797 3.43201 0
M  V30 16427 H 1561.48 -0.494125 5.22167 0
M  V30 16428 H 1562.95 -2.19703 5.06394 0
M  V30 16429 H 1563.43 -2.71823 3.44976 0
M  V30 16430 H 1564.04 -1.17268 4.08813 0
M  V30 16431 N 1562.35 -1.57153 -0.118549 0
M  V30 16432 C 1563.6 -1.84064 -0.824832 0
M  V30 16433 C 1563.91 -0.740941 -1.81023 0
M  V30 16434 O 1565.12 -0.896464 -2.56273 0
M  V30 16435 C 1563.58 -3.26338 -1.51761 0
M  V30 16436 C 1563.18 -4.44318 -0.573174 0
M  V30 16437 C 1564.93 -3.62496 -2.209 0
M  V30 16438 C 1562.83 -5.7762 -1.2692 0
M  V30 16439 H 1561.76 -0.686521 -0.311777 0
M  V30 16440 H 1564.42 -1.83336 -0.0775833 0
M  V30 16441 H 1562.8 -3.21537 -2.3115 0
M  V30 16442 H 1563.97 -4.60418 0.187529 0
M  V30 16443 H 1562.29 -4.16398 0.0112747 0
M  V30 16444 H 1564.88 -4.5936 -2.73666 0
M  V30 16445 H 1565.23 -2.89952 -2.9872 0
M  V30 16446 H 1565.76 -3.69084 -1.48399 0
M  V30 16447 H 1562.5 -6.53335 -0.532285 0
M  V30 16448 H 1562.02 -5.65406 -2.00191 0
M  V30 16449 H 1563.7 -6.21391 -1.80227 0
M  V30 16450 N 1563.83 0.388742 -1.5273 0
M  V30 16451 C 1565.24 0.966667 -1.59726 0
M  V30 16452 C 1565.59 1.90963 -0.450272 0
M  V30 16453 O 1564.72 2.12153 0.426611 0
M  V30 16454 C 1565.31 1.75998 -2.895 0
M  V30 16455 C 1563.87 2.28761 -2.98907 0
M  V30 16456 C 1563.02 1.09322 -2.54841 0
M  V30 16457 H 1565.97 0.16828 -1.57805 0
M  V30 16458 H 1565.99 2.61924 -2.76 0
M  V30 16459 H 1565.5 1.07342 -3.7296 0
M  V30 16460 H 1563.6 3.00728 -2.19985 0
M  V30 16461 H 1563.72 2.58229 -4.03552 0
M  V30 16462 H 1562.08 1.45332 -2.09167 0
M  V30 16463 H 1562.86 0.421999 -3.40696 0
M  V30 16464 N 1565.31 1.43698 0.647203 0
M  V30 16465 C 1566.54 1.49085 1.43462 0
M  V30 16466 C 1566.95 0.110605 1.88476 0
M  V30 16467 O 1566.31 -0.880365 1.59862 0
M  V30 16468 C 1566.36 2.44186 2.66562 0
M  V30 16469 O 1566.08 3.76844 2.23429 0
M  V30 16470 C 1567.58 2.58876 3.59858 0
M  V30 16471 H 1564.8 0.506148 0.440517 0
M  V30 16472 H 1567.34 1.88502 0.792931 0
M  V30 16473 H 1565.5 2.07949 3.26858 0
M  V30 16474 H 1565.91 4.2804 3.0312 0
M  V30 16475 H 1567.39 3.29482 4.42883 0
M  V30 16476 H 1567.86 1.63567 4.07606 0
M  V30 16477 H 1568.47 2.95949 3.05441 0
M  V30 16478 N 1566.79 -0.886131 1.30328 0
M  V30 16479 C 1568.01 -1.67625 1.22134 0
M  V30 16480 C 1568.44 -1.86893 -0.212712 0
M  V30 16481 O 1567.79 -1.39905 -1.1531 0
M  V30 16482 C 1567.84 -3.03068 1.95402 0
M  V30 16483 O 1566.95 -3.92022 1.28032 0
M  V30 16484 H 1566.29 -0.512246 0.422493 0
M  V30 16485 H 1568.82 -1.10602 1.72129 0
M  V30 16486 H 1568.83 -3.53119 2.04379 0
M  V30 16487 H 1567.5 -2.88363 2.99699 0
M  V30 16488 H 1566.08 -3.50461 1.27402 0
M  V30 16489 N 1568.26 -1.13026 -1.09832 0
M  V30 16490 C 1569.2 -0.761606 -2.16176 0
M  V30 16491 C 1570.21 0.214709 -1.61378 0
M  V30 16492 O 1571.4 -0.00487178 -1.78499 0
M  V30 16493 C 1568.5 -0.107513 -3.38729 0
M  V30 16494 C 1567.67 -1.11487 -4.22953 0
M  V30 16495 C 1566.73 -0.487243 -5.23939 0
M  V30 16496 O 1565.76 -1.14605 -5.57543 0
M  V30 16497 N 1566.96 0.742571 -5.75731 0
M  V30 16498 H 1569.72 -1.67669 -2.48409 0
M  V30 16499 H 1567.28 -1.0227 -1.25509 0
M  V30 16500 H 1569.28 0.324507 -4.03397 0
M  V30 16501 H 1567.85 0.710438 -3.0442 0
M  V30 16502 H 1567.07 -1.72432 -3.54487 0
M  V30 16503 H 1568.35 -1.79584 -4.76053 0
M  V30 16504 H 1567.75 1.29667 -5.50639 0
M  V30 16505 H 1566.31 1.11731 -6.42152 0
M  V30 16506 N 1569.74 1.27735 -0.923117 0
M  V30 16507 C 1570.67 2.29395 -0.435907 0
M  V30 16508 C 1571.65 1.62542 0.501403 0
M  V30 16509 O 1572.84 1.89884 0.407135 0
M  V30 16510 C 1569.97 3.45856 0.316348 0
M  V30 16511 C 1568.92 4.24672 -0.532697 0
M  V30 16512 C 1568.25 5.33563 0.348454 0
M  V30 16513 C 1569.55 4.90494 -1.79481 0
M  V30 16514 H 1571.24 2.70398 -1.28551 0
M  V30 16515 H 1568.79 1.29989 -0.619581 0
M  V30 16516 H 1570.74 4.1607 0.668098 0
M  V30 16517 H 1569.47 3.03758 1.19994 0
M  V30 16518 H 1568.12 3.56198 -0.867093 0
M  V30 16519 H 1567.77 4.87708 1.23086 0
M  V30 16520 H 1567.47 5.87202 -0.216104 0
M  V30 16521 H 1569 6.06622 0.695878 0
M  V30 16522 H 1570.41 5.53019 -1.5114 0
M  V30 16523 H 1568.81 5.5417 -2.30251 0
M  V30 16524 H 1569.88 4.14454 -2.51707 0
M  V30 16525 N 1571.22 0.688118 1.41784 0
M  V30 16526 C 1572.17 0.018099 2.30793 0
M  V30 16527 C 1573.14 -0.779009 1.46699 0
M  V30 16528 O 1574.32 -0.748556 1.75503 0
M  V30 16529 C 1571.46 -0.91769 3.32675 0
M  V30 16530 C 1570.58 -0.11299 4.31852 0
M  V30 16531 C 1569.71 -1.04574 5.20805 0
M  V30 16532 C 1568.75 -0.233509 6.11654 0
M  V30 16533 N 1567.89 -1.11967 6.93115 0
M  V30 16534 H 1572.73 0.782911 2.87532 0
M  V30 16535 H 1570.26 0.397806 1.41619 0
M  V30 16536 H 1572.22 -1.47421 3.90286 0
M  V30 16537 H 1570.85 -1.64898 2.77504 0
M  V30 16538 H 1569.9 0.560344 3.7625 0
M  V30 16539 H 1571.22 0.517033 4.96113 0
M  V30 16540 H 1570.37 -1.67174 5.83213 0
M  V30 16541 H 1569.11 -1.70963 4.56753 0
M  V30 16542 H 1568.11 0.405614 5.48302 0
M  V30 16543 H 1569.34 0.426479 6.7776 0
M  V30 16544 H 1567.28 -1.76972 6.31678 0
M  V30 16545 H 1567.2 -0.545042 7.54033 0
M  V30 16546 H 1568.47 -1.73272 7.59998 0
M  V30 16547 N 1572.7 -1.51554 0.432352 0
M  V30 16548 C 1573.94 -2.03954 -0.135014 0
M  V30 16549 C 1574.3 -1.30972 -1.40393 0
M  V30 16550 O 1575.5 -1.73719 -2.05122 0
M  V30 16551 C 1573.77 -3.55646 -0.35361 0
M  V30 16552 S 1575.33 -4.29781 -0.885096 0
M  V30 16553 H 1572.15 -0.710178 -0.0341871 0
M  V30 16554 H 1574.75 -1.86365 0.590612 0
M  V30 16555 H 1573.46 -4.06333 0.576335 0
M  V30 16556 H 1572.99 -3.7752 -1.10646 0
M  V30 16557 H 1575 -4.46564 -2.16322 0
M  V30 16558 N 1574.18 -0.163538 -1.56749 0
M  V30 16559 C 1575.11 0.765571 -2.20593 0
M  V30 16560 C 1576.09 1.24489 -1.15916 0
M  V30 16561 O 1577.27 1.29946 -1.44318 0
M  V30 16562 C 1574.4 1.99823 -2.84057 0
M  V30 16563 C 1573.36 1.65506 -3.94705 0
M  V30 16564 C 1572.68 2.96172 -4.45181 0
M  V30 16565 C 1573.98 0.88902 -5.14678 0
M  V30 16566 H 1575.68 0.233431 -2.98489 0
M  V30 16567 H 1573.22 0.110836 -1.43573 0
M  V30 16568 H 1575.18 2.65316 -3.27392 0
M  V30 16569 H 1573.9 2.55437 -2.03517 0
M  V30 16570 H 1572.56 1.02384 -3.52013 0
M  V30 16571 H 1572.21 3.49811 -3.61443 0
M  V30 16572 H 1571.91 2.73968 -5.19823 0
M  V30 16573 H 1573.43 3.62708 -4.91198 0
M  V30 16574 H 1574.84 1.44637 -5.54755 0
M  V30 16575 H 1573.24 0.766302 -5.95187 0
M  V30 16576 H 1574.31 -0.116145 -4.84761 0
M  V30 16577 N 1575.65 1.57214 0.110213 0
M  V30 16578 C 1576.6 2.00978 1.13474 0
M  V30 16579 C 1577.57 0.883436 1.40658 0
M  V30 16580 O 1578.76 1.14832 1.52376 0
M  V30 16581 C 1575.9 2.42654 2.45383 0
M  V30 16582 C 1575.01 3.68744 2.2506 0
M  V30 16583 C 1574.14 3.99363 3.50261 0
M  V30 16584 C 1573.18 5.18608 3.25133 0
M  V30 16585 N 1572.32 5.45055 4.42561 0
M  V30 16586 H 1577.16 2.88289 0.754543 0
M  V30 16587 H 1574.7 1.426 0.361064 0
M  V30 16588 H 1576.66 2.64857 3.22345 0
M  V30 16589 H 1575.29 1.58374 2.81278 0
M  V30 16590 H 1574.34 3.54106 1.38972 0
M  V30 16591 H 1575.65 4.55857 2.02475 0
M  V30 16592 H 1574.8 4.22261 4.35638 0
M  V30 16593 H 1573.54 3.10743 3.75886 0
M  V30 16594 H 1572.55 4.95546 2.38148 0
M  V30 16595 H 1573.77 6.08814 3.0087 0
M  V30 16596 H 1571.72 4.59392 4.6829 0
M  V30 16597 H 1571.64 6.26508 4.23111 0
M  V30 16598 H 1572.9 5.72478 5.29046 0
M  V30 16599 N 1577.13 -0.380637 1.52934 0
M  V30 16600 C 1578.04 -1.48957 1.81243 0
M  V30 16601 C 1579.06 -1.5931 0.69974 0
M  V30 16602 O 1580.23 -1.75488 0.988218 0
M  V30 16603 C 1577.3 -2.84397 1.9829 0
M  V30 16604 C 1576.36 -2.83697 3.22202 0
M  V30 16605 C 1575.59 -4.12677 3.38427 0
M  V30 16606 O 1575.82 -5.08068 2.59274 0
M  V30 16607 O 1574.75 -4.19407 4.31719 0
M  V30 16608 H 1578.58 -1.27964 2.75425 0
M  V30 16609 H 1576.16 -0.56929 1.38128 0
M  V30 16610 H 1578.04 -3.64676 2.11161 0
M  V30 16611 H 1576.72 -3.054 1.07298 0
M  V30 16612 H 1575.63 -2.0217 3.14767 0
M  V30 16613 H 1576.96 -2.67648 4.13068 0
M  V30 16614 N 1578.61 -1.44039 -0.639573 0
M  V30 16615 C 1579.57 -1.49907 -1.7338 0
M  V30 16616 C 1580.57 -0.382101 -1.56194 0
M  V30 16617 O 1581.76 -0.644396 -1.61843 0
M  V30 16618 C 1578.9 -1.36486 -3.12385 0
M  V30 16619 H 1580.09 -2.4737 -1.69553 0
M  V30 16620 H 1577.64 -1.31006 -0.852474 0
M  V30 16621 H 1578.38 -0.400845 -3.21813 0
M  V30 16622 H 1578.16 -2.17471 -3.26265 0
M  V30 16623 H 1579.65 -1.43555 -3.9215 0
M  V30 16624 N 1580.09 0.879207 -1.30796 0
M  V30 16625 C 1581.34 1.62828 -1.19715 0
M  V30 16626 C 1581.66 1.93429 0.247031 0
M  V30 16627 O 1580.93 1.57478 1.16522 0
M  V30 16628 H 1579.51 0.603607 -0.440077 0
M  V30 16629 H 1582.17 1.05309 -1.64 0
M  V30 16630 H 1581.27 2.57591 -1.76219 0
M  V30 16631 N 1581.57 1.13606 1.09231 0
M  V30 16632 C 1582.52 0.784018 2.14096 0
M  V30 16633 C 1583.5 -0.22288 1.59349 0
M  V30 16634 O 1584.69 -0.0264914 1.7698 0
M  V30 16635 C 1581.82 0.253922 3.4236 0
M  V30 16636 C 1580.91 1.28985 4.0401 0
M  V30 16637 N 1581.3 2.49138 4.40186 0
M  V30 16638 C 1579.6 1.1381 4.31235 0
M  V30 16639 C 1580.3 3.15388 4.8878 0
M  V30 16640 N 1579.27 2.42806 4.8636 0
M  V30 16641 H 1583.08 1.69816 2.39874 0
M  V30 16642 H 1580.59 1.01867 1.26478 0
M  V30 16643 H 1582.59 -0.0165402 4.16897 0
M  V30 16644 H 1581.25 -0.65452 3.18035 0
M  V30 16645 H 1582.26 2.8643 4.31484 0
M  V30 16646 H 1578.94 0.287982 4.16506 0
M  V30 16647 H 1580.33 4.17784 5.26219 0
M  V30 16648 N 1583.05 -1.27244 0.929878 0
M  V30 16649 C 1584.29 -1.93886 0.570331 0
M  V30 16650 C 1584.61 -1.7342 -0.891656 0
M  V30 16651 O 1583.88 -1.0832 -1.63228 0
M  V30 16652 H 1582.46 -0.717476 0.207937 0
M  V30 16653 H 1585.13 -1.5491 1.18275 0
M  V30 16654 H 1584.22 -3.02236 0.778463 0
M  V30 16655 N 1584.52 -0.695628 -1.41417 0
M  V30 16656 C 1585.93 -0.3014 -1.84251 0
M  V30 16657 C 1586.29 1.16042 -1.58204 0
M  V30 16658 O 1585.41 1.89079 -1.05253 0
M  V30 16659 C 1586.01 -0.540256 -3.34465 0
M  V30 16660 C 1584.56 -0.199944 -3.75869 0
M  V30 16661 C 1583.71 -0.822511 -2.64821 0
M  V30 16662 H 1586.66 -0.896278 -1.30968 0
M  V30 16663 H 1586.68 0.201019 -3.79969 0
M  V30 16664 H 1586.2 -1.60427 -3.53391 0
M  V30 16665 H 1584.3 0.859798 -3.62544 0
M  V30 16666 H 1584.41 -0.655005 -4.74601 0
M  V30 16667 H 1582.77 -0.252109 -2.53449 0
M  V30 16668 H 1583.56 -1.89039 -2.86564 0
M  V30 16669 N 1586 1.51322 -0.440383 0
M  V30 16670 C 1587.25 2.01714 0.124815 0
M  V30 16671 C 1587.57 1.32634 1.42945 0
M  V30 16672 O 1586.84 0.461849 1.90378 0
M  V30 16673 H 1585.42 0.745384 0.049116 0
M  V30 16674 H 1588.08 1.85951 -0.583787 0
M  V30 16675 H 1587.18 3.10669 0.29853 0
M  V30 16676 N 1587.48 0.171848 1.5666 0
M  V30 16677 C 1588.43 -0.758237 2.17989 0
M  V30 16678 C 1589.4 -1.22654 1.12006 0
M  V30 16679 O 1590.58 -1.29461 1.40159 0
M  V30 16680 C 1587.72 -1.98189 2.82516 0
M  V30 16681 C 1586.83 -1.55711 4.02962 0
M  V30 16682 C 1585.97 -2.73447 4.55412 0
M  V30 16683 C 1585.01 -2.27462 5.68267 0
M  V30 16684 N 1584.15 -3.38293 6.15225 0
M  V30 16685 H 1588.99 -0.228467 2.97123 0
M  V30 16686 H 1586.52 -0.10104 1.46753 0
M  V30 16687 H 1588.48 -2.6996 3.18084 0
M  V30 16688 H 1587.11 -2.48536 2.05985 0
M  V30 16689 H 1586.16 -0.736126 3.7321 0
M  V30 16690 H 1587.47 -1.17957 4.84652 0
M  V30 16691 H 1586.63 -3.53374 4.93165 0
M  V30 16692 H 1585.37 -3.14462 3.7278 0
M  V30 16693 H 1584.37 -1.45982 5.30065 0
M  V30 16694 H 1585.6 -1.87505 6.52701 0
M  V30 16695 H 1583.54 -3.78882 5.35522 0
M  V30 16696 H 1583.46 -3.04633 6.91907 0
M  V30 16697 H 1584.73 -4.18503 6.57629 0
M  V30 16698 N 1588.96 -1.5727 -0.101874 0
M  V30 16699 C 1590.23 -1.76745 -0.837888 0
M  V30 16700 C 1590.61 -0.751766 -1.9726 0
M  V30 16701 O 1589.96 0.221046 -2.27428 0
M  V30 16702 C 1590.17 -3.22302 -1.33875 0
M  V30 16703 C 1591.52 -3.85292 -1.78425 0
M  V30 16704 O 1592.54 -3.2601 -1.43514 0
M  V30 16705 O 1591.4 -4.89526 -2.42953 0
M  V30 16706 H 1588.5 -0.724294 -0.399157 0
M  V30 16707 H 1591.04 -1.69491 -0.0842821 0
M  V30 16708 H 1589.82 -3.87756 -0.525434 0
M  V30 16709 H 1589.44 -3.34162 -2.15456 0
M  V30 16710 N 1590.44 0.372521 -1.53134 0
M  V30 16711 C 1591.35 1.47994 -1.8203 0
M  V30 16712 C 1592.36 1.58937 -0.708179 0
M  V30 16713 O 1593.54 1.74962 -0.997511 0
M  V30 16714 C 1590.6 2.83342 -1.99796 0
M  V30 16715 C 1589.66 2.81984 -3.23702 0
M  V30 16716 C 1588.9 4.10877 -3.40611 0
M  V30 16717 O 1589.12 5.06686 -2.61964 0
M  V30 16718 O 1588.05 4.17111 -4.33938 0
M  V30 16719 H 1591.88 1.26501 -2.761 0
M  V30 16720 H 1589.46 0.561957 -1.38428 0
M  V30 16721 H 1591.35 3.63551 -2.13092 0
M  V30 16722 H 1590.02 3.04826 -1.08916 0
M  V30 16723 H 1588.93 2.00498 -3.15834 0
M  V30 16724 H 1590.26 2.65453 -4.14482 0
M  V30 16725 N 1591.91 1.44376 0.631925 0
M  V30 16726 C 1592.85 1.45649 1.75675 0
M  V30 16727 C 1593.82 0.31542 1.59511 0
M  V30 16728 O 1595.01 0.512271 1.81406 0
M  V30 16729 C 1592.14 1.2884 3.13238 0
M  V30 16730 C 1591.18 2.46499 3.48053 0
M  V30 16731 S 1592.01 4.0903 3.45622 0
M  V30 16732 C 1593.17 3.94643 4.85807 0
M  V30 16733 H 1593.4 2.40825 1.74328 0
M  V30 16734 H 1590.94 1.31664 0.806467 0
M  V30 16735 H 1592.89 1.19829 3.92621 0
M  V30 16736 H 1591.56 0.351754 3.12124 0
M  V30 16737 H 1590.75 2.30599 4.48152 0
M  V30 16738 H 1590.35 2.52245 2.76131 0
M  V30 16739 H 1592.64 3.58283 5.75012 0
M  V30 16740 H 1593.59 4.94569 5.06761 0
M  V30 16741 H 1593.99 3.26717 4.60343 0
M  V30 16742 N 1593.39 -0.872258 1.31261 0
M  V30 16743 C 1594.62 -1.65795 1.23772 0
M  V30 16744 C 1595.03 -1.87766 -0.197351 0
M  V30 16745 O 1594.39 -1.43418 -1.1286 0
M  V30 16746 C 1594.44 -3.02722 1.9759 0
M  V30 16747 O 1594.16 -2.81734 3.35496 0
M  V30 16748 C 1595.66 -3.97165 1.96913 0
M  V30 16749 H 1592.88 -0.516959 0.427778 0
M  V30 16750 H 1595.43 -1.0889 1.73099 0
M  V30 16751 H 1593.58 -3.56322 1.5203 0
M  V30 16752 H 1594 -3.6869 3.73052 0
M  V30 16753 H 1595.47 -4.90566 2.53079 0
M  V30 16754 H 1595.95 -4.28778 0.951089 0
M  V30 16755 H 1596.55 -3.495 2.42342 0
M  V30 16756 N 1594.87 -1.14184 -1.08627 0
M  V30 16757 C 1596.15 -0.81955 -1.77603 0
M  V30 16758 C 1596.53 0.687377 -1.99595 0
M  V30 16759 O 1595.87 1.62744 -1.60396 0
M  V30 16760 C 1596.08 -1.61574 -3.09346 0
M  V30 16761 C 1597.43 -1.81367 -3.83916 0
M  V30 16762 O 1598.46 -1.58241 -3.19121 0
M  V30 16763 O 1597.32 -2.20011 -5.00257 0
M  V30 16764 H 1594.41 -0.300086 -0.770635 0
M  V30 16765 H 1596.96 -1.24691 -1.15109 0
M  V30 16766 H 1595.73 -2.63946 -2.88874 0
M  V30 16767 H 1595.35 -1.18386 -3.79566 0
M  V30 16768 N 1596.35 1.26749 -0.936613 0
M  V30 16769 C 1597.26 2.30272 -0.448573 0
M  V30 16770 C 1598.27 1.67386 0.475184 0
M  V30 16771 O 1599.45 1.98232 0.355825 0
M  V30 16772 C 1596.52 3.45546 0.28262 0
M  V30 16773 C 1595.58 4.23926 -0.677138 0
M  V30 16774 C 1594.81 5.33697 0.019255 0
M  V30 16775 O 1595.03 5.56825 1.23703 0
M  V30 16776 O 1593.97 5.98302 -0.657119 0
M  V30 16777 H 1597.79 2.74072 -1.30838 0
M  V30 16778 H 1595.38 1.31863 -0.702314 0
M  V30 16779 H 1597.26 4.15635 0.694686 0
M  V30 16780 H 1595.93 3.03784 1.11789 0
M  V30 16781 H 1594.84 3.56337 -1.13906 0
M  V30 16782 H 1596.17 4.69425 -1.47988 0
M  V30 16783 N 1597.83 0.703118 1.41046 0
M  V30 16784 C 1598.74 0.0432777 2.3456 0
M  V30 16785 C 1599.75 -0.757704 1.56636 0
M  V30 16786 O 1600.93 -0.693531 1.89082 0
M  V30 16787 C 1597.99 -0.876385 3.35441 0
M  V30 16788 C 1597.05 -0.06676 4.29248 0
M  V30 16789 C 1596.29 -0.942622 5.2531 0
M  V30 16790 O 1596.51 -2.18205 5.27013 0
M  V30 16791 O 1595.44 -0.388266 6.00646 0
M  V30 16792 H 1599.27 0.814302 2.9258 0
M  V30 16793 H 1596.86 0.463503 1.42028 0
M  V30 16794 H 1598.74 -1.40353 3.9734 0
M  V30 16795 H 1597.41 -1.62677 2.79853 0
M  V30 16796 H 1596.32 0.505165 3.70674 0
M  V30 16797 H 1597.65 0.645128 4.87954 0
M  V30 16798 N 1599.3 -1.51086 0.448402 0
M  V30 16799 C 1600.23 -2.30896 -0.347773 0
M  V30 16800 C 1601.22 -1.36792 -1.01104 0
M  V30 16801 O 1602.4 -1.65713 -1.01257 0
M  V30 16802 C 1599.53 -3.15901 -1.44304 0
M  V30 16803 C 1598.48 -4.18373 -0.90265 0
M  V30 16804 C 1597.81 -4.9197 -2.0945 0
M  V30 16805 C 1599.11 -5.22252 0.0705335 0
M  V30 16806 H 1600.8 -2.97704 0.318273 0
M  V30 16807 H 1598.35 -1.43169 0.154509 0
M  V30 16808 H 1600.3 -3.70519 -2.00733 0
M  V30 16809 H 1599.03 -2.46935 -2.13753 0
M  V30 16810 H 1597.69 -3.64823 -0.3605 0
M  V30 16811 H 1597.33 -4.19497 -2.77545 0
M  V30 16812 H 1597.03 -5.6127 -1.73926 0
M  V30 16813 H 1598.56 -5.49415 -2.66412 0
M  V30 16814 H 1599.97 -5.71876 -0.403814 0
M  V30 16815 H 1598.37 -5.99142 0.338905 0
M  V30 16816 H 1599.44 -4.74398 1.00373 0
M  V30 16817 N 1600.78 -0.180154 -1.56567 0
M  V30 16818 C 1601.75 0.732809 -2.17169 0
M  V30 16819 C 1602.75 1.15176 -1.1221 0
M  V30 16820 O 1603.94 1.06728 -1.37677 0
M  V30 16821 C 1601.07 1.99857 -2.7617 0
M  V30 16822 H 1602.26 0.205088 -2.99198 0
M  V30 16823 H 1599.81 0.0694351 -1.56146 0
M  V30 16824 H 1600.55 2.56917 -1.97899 0
M  V30 16825 H 1600.33 1.70705 -3.5299 0
M  V30 16826 H 1601.82 2.64992 -3.22752 0
M  V30 16827 N 1602.26 1.57322 0.0935319 0
M  V30 16828 C 1603.17 2.05499 1.13169 0
M  V30 16829 C 1604.19 0.980199 1.43764 0
M  V30 16830 O 1605.36 1.29347 1.54374 0
M  V30 16831 C 1602.43 2.47111 2.43181 0
M  V30 16832 C 1601.49 3.68791 2.19754 0
M  V30 16833 C 1600.72 4.08408 3.43567 0
M  V30 16834 O 1600.94 3.48104 4.51863 0
M  V30 16835 O 1599.88 5.01351 3.33062 0
M  V30 16836 H 1603.7 2.9423 0.752491 0
M  V30 16837 H 1601.29 1.4623 0.306151 0
M  V30 16838 H 1603.17 2.74495 3.19735 0
M  V30 16839 H 1601.85 1.61518 2.80524 0
M  V30 16840 H 1600.75 3.46521 1.40976 0
M  V30 16841 H 1602.09 4.55169 1.87303 0
M  V30 16842 N 1603.74 -0.364395 1.53329 0
M  V30 16843 C 1604.99 -1.10473 1.69234 0
M  V30 16844 C 1605.31 -1.89799 0.447347 0
M  V30 16845 O 1604.58 -1.8835 -0.538612 0
M  V30 16846 H 1603.16 -0.410826 0.623884 0
M  V30 16847 H 1605.82 -0.410721 1.90523 0
M  V30 16848 H 1604.92 -1.79387 2.55396 0
M  V30 16849 N 1605.22 -1.44709 -0.62426 0
M  V30 16850 C 1606.13 -1.54608 -1.76447 0
M  V30 16851 C 1607.14 -0.43137 -1.68568 0
M  V30 16852 O 1608.32 -0.6897 -1.89222 0
M  V30 16853 C 1605.38 -1.49404 -3.12857 0
M  V30 16854 C 1604.44 -2.71782 -3.32315 0
M  V30 16855 C 1603.68 -2.66817 -4.62217 0
M  V30 16856 O 1603.9 -1.73205 -5.43467 0
M  V30 16857 O 1602.83 -3.57773 -4.84027 0
M  V30 16858 H 1606.66 -2.50951 -1.71048 0
M  V30 16859 H 1604.25 -1.27033 -0.786326 0
M  V30 16860 H 1606.13 -1.4905 -3.9416 0
M  V30 16861 H 1604.8 -0.562078 -3.18783 0
M  V30 16862 H 1603.71 -2.77702 -2.50664 0
M  V30 16863 H 1605.04 -3.64048 -3.31255 0
M  V30 16864 N 1606.69 0.865285 -1.31722 0
M  V30 16865 C 1607.6 2.00542 -1.21738 0
M  V30 16866 C 1608.62 1.7349 -0.133124 0
M  V30 16867 O 1609.8 1.98303 -0.351809 0
M  V30 16868 C 1606.86 3.33993 -0.930045 0
M  V30 16869 C 1605.92 3.74337 -2.10167 0
M  V30 16870 C 1605.16 5.0142 -1.82795 0
M  V30 16871 O 1605.38 5.65242 -0.765345 0
M  V30 16872 O 1604.31 5.38642 -2.68604 0
M  V30 16873 H 1608.14 2.11898 -2.17561 0
M  V30 16874 H 1605.72 0.994313 -1.11507 0
M  V30 16875 H 1607.61 4.14008 -0.785846 0
M  V30 16876 H 1606.28 3.237 -0.00188642 0
M  V30 16877 H 1605.19 2.94943 -2.3013 0
M  V30 16878 H 1606.52 3.89261 -3.01225 0
M  V30 16879 N 1608.17 1.14759 1.0802 0
M  V30 16880 C 1609.08 0.851934 2.18585 0
M  V30 16881 C 1610.1 -0.16914 1.73176 0
M  V30 16882 O 1611.27 0.00330114 2.014 0
M  V30 16883 C 1608.34 0.337977 3.45049 0
M  V30 16884 C 1607.4 1.4221 4.05061 0
M  V30 16885 C 1606.63 0.932574 5.25489 0
M  V30 16886 O 1606.86 -0.224457 5.69958 0
M  V30 16887 O 1605.79 1.7133 5.77001 0
M  V30 16888 H 1609.62 1.77605 2.46354 0
M  V30 16889 H 1607.2 0.926159 1.17229 0
M  V30 16890 H 1609.08 0.0574734 4.21361 0
M  V30 16891 H 1607.76 -0.558363 3.18848 0
M  V30 16892 H 1606.67 1.75612 3.3032 0
M  V30 16893 H 1608 2.29311 4.3552 0
M  V30 16894 N 1609.65 -1.26251 0.943322 0
M  V30 16895 C 1610.9 -1.92946 0.587764 0
M  V30 16896 C 1611.21 -1.74805 -0.877647 0
M  V30 16897 O 1612.42 -2.35976 -1.34267 0
M  V30 16898 C 1610.87 -3.45715 1.00047 0
M  V30 16899 C 1610.48 -3.72586 2.48764 0
M  V30 16900 C 1612.23 -4.18403 0.716905 0
M  V30 16901 C 1610.13 -5.18805 2.83893 0
M  V30 16902 H 1609.06 -0.722366 0.21611 0
M  V30 16903 H 1611.71 -1.43295 1.14625 0
M  V30 16904 H 1610.1 -3.94263 0.370491 0
M  V30 16905 H 1611.27 -3.34735 3.16684 0
M  V30 16906 H 1609.59 -3.13136 2.74472 0
M  V30 16907 H 1612.18 -5.2609 0.955669 0
M  V30 16908 H 1612.53 -4.14856 -0.346396 0
M  V30 16909 H 1613.06 -3.75726 1.3067 0
M  V30 16910 H 1609.8 -5.27454 3.89195 0
M  V30 16911 H 1609.32 -5.57745 2.20636 0
M  V30 16912 H 1611 -5.86828 2.72474 0
M  V30 16913 N 1611.13 -0.710588 -1.40671 0
M  V30 16914 C 1612.41 -0.175319 -1.94813 0
M  V30 16915 C 1612.79 1.31792 -1.64906 0
M  V30 16916 O 1612.13 2.07167 -0.964058 0
M  V30 16917 C 1612.34 -0.482691 -3.45646 0
M  V30 16918 C 1613.69 -0.418619 -4.22531 0
M  V30 16919 O 1614.72 -0.418463 -3.53733 0
M  V30 16920 O 1613.58 -0.391787 -5.45094 0
M  V30 16921 H 1610.67 -0.0237744 -0.826658 0
M  V30 16922 H 1613.22 -0.787778 -1.50307 0
M  V30 16923 H 1611.99 -1.51569 -3.60753 0
M  V30 16924 H 1611.61 0.159984 -3.97278 0
M  V30 16925 N 1612.61 1.50847 -0.456408 0
M  V30 16926 C 1613.56 2.25081 0.363678 0
M  V30 16927 C 1614.54 1.28071 0.973991 0
M  V30 16928 O 1615.73 1.53056 0.888972 0
M  V30 16929 C 1612.86 3.11011 1.45352 0
M  V30 16930 C 1611.95 4.15461 0.851665 0
M  V30 16931 N 1612.34 5.05796 -0.0192612 0
M  V30 16932 C 1610.64 4.31781 1.11721 0
M  V30 16933 C 1611.34 5.80589 -0.359309 0
M  V30 16934 N 1610.31 5.42969 0.26187 0
M  V30 16935 H 1614.12 2.92287 -0.307467 0
M  V30 16936 H 1611.63 1.60146 -0.269642 0
M  V30 16937 H 1613.63 3.62786 2.05407 0
M  V30 16938 H 1612.29 2.45351 2.12681 0
M  V30 16939 H 1613.3 5.16452 -0.38707 0
M  V30 16940 H 1609.98 3.77343 1.78657 0
M  V30 16941 H 1611.37 6.63339 -1.06919 0
M  V30 16942 N 1614.09 0.188454 1.56469 0
M  V30 16943 C 1615.05 -0.721282 2.17555 0
M  V30 16944 C 1616.05 -1.14579 1.1282 0
M  V30 16945 O 1617.24 -1.05996 1.38241 0
M  V30 16946 C 1614.37 -1.9839 2.77226 0
M  V30 16947 H 1615.56 -0.189218 2.99302 0
M  V30 16948 H 1613.12 -0.0611533 1.5618 0
M  V30 16949 H 1613.85 -2.55864 1.99259 0
M  V30 16950 H 1613.64 -1.68831 3.53891 0
M  V30 16951 H 1615.13 -2.63277 3.24153 0
M  V30 16952 N 1615.56 -1.5737 -0.0851874 0
M  V30 16953 C 1616.47 -2.06097 -1.12078 0
M  V30 16954 C 1617.49 -0.987809 -1.43242 0
M  V30 16955 O 1618.67 -1.30163 -1.53686 0
M  V30 16956 C 1615.73 -2.48397 -2.41867 0
M  V30 16957 C 1614.79 -3.69951 -2.17795 0
M  V30 16958 C 1614.02 -4.10225 -3.41396 0
M  V30 16959 O 1614.25 -3.50495 -4.5001 0
M  V30 16960 O 1613.18 -5.03111 -3.30399 0
M  V30 16961 H 1617.01 -2.94625 -0.736877 0
M  V30 16962 H 1614.59 -1.4639 -0.298392 0
M  V30 16963 H 1616.47 -2.76187 -3.18274 0
M  V30 16964 H 1615.15 -1.63003 -2.79664 0
M  V30 16965 H 1614.06 -3.47263 -1.39136 0
M  V30 16966 H 1615.39 -4.56156 -1.84886 0
M  V30 16967 N 1617.04 0.356258 -1.53521 0
M  V30 16968 C 1618.46 0.698546 -1.43501 0
M  V30 16969 C 1618.66 1.92926 -0.581547 0
M  V30 16970 O 1617.71 2.5241 -0.0675947 0
M  V30 16971 C 1619.03 0.903047 -2.8682 0
M  V30 16972 C 1620.57 1.00247 -2.96512 0
M  V30 16973 C 1621.05 1.23938 -4.40912 0
M  V30 16974 N 1622.54 1.30687 -4.44382 0
M  V30 16975 C 1623.28 1.50745 -5.5323 0
M  V30 16976 N 1622.77 1.68058 -6.72107 0
M  V30 16977 N 1624.56 1.5319 -5.40823 0
M  V30 16978 H 1616.72 -0.453102 -2.07511 0
M  V30 16979 H 1618.98 -0.140708 -0.937499 0
M  V30 16980 H 1618.68 0.070416 -3.5163 0
M  V30 16981 H 1618.56 1.80847 -3.3102 0
M  V30 16982 H 1620.95 1.82564 -2.3185 0
M  V30 16983 H 1621.03 0.0742303 -2.55692 0
M  V30 16984 H 1620.67 0.421189 -5.06151 0
M  V30 16985 H 1620.6 2.18098 -4.79313 0
M  V30 16986 H 1623.09 1.18883 -3.58713 0
M  V30 16987 H 1623.4 1.82963 -7.50829 0
M  V30 16988 H 1621.75 1.65219 -6.75076 0
M  V30 16989 H 1624.94 1.39237 -4.46912 0
M  V30 16990 H 1625.11 1.6848 -6.25714 0
M  V30 16991 N 1618.52 1.45038 0.616577 0
M  V30 16992 C 1619.43 1.55542 1.75624 0
M  V30 16993 C 1620.45 0.440304 1.68337 0
M  V30 16994 O 1621.62 0.699725 1.88854 0
M  V30 16995 C 1618.69 1.51062 3.1206 0
M  V30 16996 C 1617.75 2.7354 3.30869 0
M  V30 16997 C 1616.98 2.69264 4.60796 0
M  V30 16998 O 1617.2 1.76085 5.42541 0
M  V30 16999 O 1616.14 3.60335 4.82123 0
M  V30 17000 H 1619.96 2.51854 1.69715 0
M  V30 17001 H 1617.55 1.27448 0.779578 0
M  V30 17002 H 1619.43 1.51138 3.93364 0
M  V30 17003 H 1618.11 0.578976 3.1848 0
M  V30 17004 H 1617.01 2.79027 2.49188 0
M  V30 17005 H 1618.35 3.65799 3.2932 0
M  V30 17006 N 1620 -0.858287 1.32179 0
M  V30 17007 C 1620.93 -1.98219 1.23415 0
M  V30 17008 C 1621.91 -1.69685 0.118779 0
M  V30 17009 O 1623.09 -1.91785 0.305342 0
M  V30 17010 C 1620.22 -3.33977 0.952725 0
M  V30 17011 C 1619.18 -3.76853 2.02894 0
M  V30 17012 C 1618.5 -5.10201 1.59999 0
M  V30 17013 C 1619.8 -3.92707 3.44352 0
M  V30 17014 H 1621.5 -2.05809 2.17446 0
M  V30 17015 H 1619.04 -0.988817 1.04682 0
M  V30 17016 H 1621 -4.12152 0.87798 0
M  V30 17017 H 1619.72 -3.26592 -0.023234 0
M  V30 17018 H 1618.38 -3.00926 2.09378 0
M  V30 17019 H 1618.03 -4.99268 0.61157 0
M  V30 17020 H 1617.73 -5.39859 2.32004 0
M  V30 17021 H 1619.25 -5.90873 1.53954 0
M  V30 17022 H 1620.67 -4.61246 3.40477 0
M  V30 17023 H 1619.06 -4.33779 4.14675 0
M  V30 17024 H 1620.13 -2.95731 3.8428 0
M  V30 17025 N 1621.48 -1.1533 -1.07409 0
M  V30 17026 C 1622.89 -0.895817 -1.32088 0
M  V30 17027 C 1623.09 0.457526 -1.96237 0
M  V30 17028 O 1622.15 1.19958 -2.22185 0
M  V30 17029 C 1623.46 -2.03632 -2.21256 0
M  V30 17030 C 1625.01 -2.07079 -2.34707 0
M  V30 17031 C 1625.48 -3.20451 -3.27223 0
M  V30 17032 N 1626.97 -3.20095 -3.34804 0
M  V30 17033 C 1627.71 -4.04458 -4.0645 0
M  V30 17034 N 1627.21 -4.98883 -4.80715 0
M  V30 17035 N 1629 -3.92483 -4.02385 0
M  V30 17036 H 1621.15 -2.02478 -0.641578 0
M  V30 17037 H 1623.41 -0.882864 -0.345332 0
M  V30 17038 H 1623.12 -3.0132 -1.81381 0
M  V30 17039 H 1622.99 -1.96817 -3.21781 0
M  V30 17040 H 1625.38 -1.09991 -2.73836 0
M  V30 17041 H 1625.46 -2.17962 -1.3389 0
M  V30 17042 H 1625.1 -4.17791 -2.88813 0
M  V30 17043 H 1625.03 -3.06805 -4.27993 0
M  V30 17044 H 1627.53 -2.51712 -2.81868 0
M  V30 17045 H 1627.84 -5.59698 -5.32877 0
M  V30 17046 H 1626.18 -5.02872 -4.79734 0
M  V30 17047 H 1629.37 -3.18026 -3.43478 0
M  V30 17048 H 1629.55 -4.58454 -4.57956 0
M  V30 17049 N 1622.95 1.25748 -0.950004 0
M  V30 17050 C 1624.37 1.45599 -0.653697 0
M  V30 17051 C 1624.57 1.85357 0.790245 0
M  V30 17052 O 1623.63 1.98071 1.56601 0
M  V30 17053 C 1624.94 2.5316 -1.62267 0
M  V30 17054 C 1626.49 2.67004 -1.63334 0
M  V30 17055 C 1626.96 3.77745 -2.58984 0
M  V30 17056 N 1628.45 3.8515 -2.57321 0
M  V30 17057 C 1629.19 4.70315 -3.28011 0
M  V30 17058 N 1628.68 5.59802 -4.08159 0
M  V30 17059 N 1630.48 4.64239 -3.16921 0
M  V30 17060 H 1622.63 0.982321 -1.88319 0
M  V30 17061 H 1624.89 0.492917 -0.809776 0
M  V30 17062 H 1624.6 2.30792 -2.65382 0
M  V30 17063 H 1624.47 3.50988 -1.38158 0
M  V30 17064 H 1626.86 2.88739 -0.609388 0
M  V30 17065 H 1626.94 1.69591 -1.915 0
M  V30 17066 H 1626.58 3.56761 -3.61502 0
M  V30 17067 H 1626.51 4.74633 -2.28103 0
M  V30 17068 H 1629 3.21178 -1.99131 0
M  V30 17069 H 1629.32 6.21701 -4.59029 0
M  V30 17070 H 1627.66 5.59525 -4.12258 0
M  V30 17071 H 1630.85 3.93335 -2.53782 0
M  V30 17072 H 1631.03 5.30389 -3.72279 0
M  V30 17073 N 1624.43 0.718038 1.40292 0
M  V30 17074 C 1625.68 0.258092 2.00445 0
M  V30 17075 C 1626 -1.15347 1.57226 0
M  V30 17076 O 1625.27 -1.78241 0.812822 0
M  V30 17077 H 1623.85 0.0924316 0.741259 0
M  V30 17078 H 1626.51 0.924216 1.71593 0
M  V30 17079 H 1625.61 0.293113 3.10721 0
M  V30 17080 N 1625.91 -1.50602 0.464402 0
M  V30 17081 C 1626.84 -2.26203 -0.36943 0
M  V30 17082 C 1627.86 -1.31269 -0.962924 0
M  V30 17083 O 1629.04 -1.56829 -0.852465 0
M  V30 17084 C 1626.14 -3.02323 -1.53147 0
M  V30 17085 C 1625.32 -4.24561 -1.05198 0
M  V30 17086 C 1624.38 -4.83031 -2.08729 0
M  V30 17087 O 1623.4 -5.44131 -1.67062 0
M  V30 17088 N 1624.6 -4.6944 -3.41477 0
M  V30 17089 H 1627.37 -2.98402 0.278652 0
M  V30 17090 H 1624.93 -1.59193 0.294803 0
M  V30 17091 H 1626.92 -3.38319 -2.22086 0
M  V30 17092 H 1625.49 -2.32965 -2.08438 0
M  V30 17093 H 1624.71 -3.93748 -0.188705 0
M  V30 17094 H 1626 -5.0383 -0.709434 0
M  V30 17095 H 1625.4 -4.20832 -3.78044 0
M  V30 17096 H 1623.96 -5.09724 -4.06233 0
M  V30 17097 N 1627.39 -0.19675 -1.56367 0
M  V30 17098 C 1628.64 0.441807 -1.96802 0
M  V30 17099 C 1628.95 1.62645 -1.08656 0
M  V30 17100 O 1630.16 2.33291 -1.3888 0
M  V30 17101 C 1628.61 0.837415 -3.50022 0
M  V30 17102 C 1628.22 -0.323031 -4.46834 0
M  V30 17103 C 1629.96 1.44296 -3.99223 0
M  V30 17104 C 1627.87 0.0936285 -5.91326 0
M  V30 17105 H 1626.8 0.168834 -0.734854 0
M  V30 17106 H 1629.45 -0.289029 -1.81209 0
M  V30 17107 H 1627.83 1.62497 -3.61124 0
M  V30 17108 H 1629.01 -1.10056 -4.47464 0
M  V30 17109 H 1627.32 -0.840182 -4.07836 0
M  V30 17110 H 1629.92 1.76718 -5.04653 0
M  V30 17111 H 1630.26 2.35003 -3.43627 0
M  V30 17112 H 1630.8 0.71935 -3.91242 0
M  V30 17113 H 1627.54 -0.779297 -6.50851 0
M  V30 17114 H 1627.06 0.835984 -5.93946 0
M  V30 17115 H 1628.73 0.528864 -6.44835 0
M  V30 17116 N 1628.87 1.57413 0.0768405 0
M  V30 17117 C 1629.8 2.06378 1.09226 0
M  V30 17118 C 1630.78 0.956269 1.40675 0
M  V30 17119 O 1631.96 1.22868 1.5039 0
M  V30 17120 C 1629.09 2.50349 2.40712 0
M  V30 17121 C 1628.05 3.64931 2.23628 0
M  V30 17122 C 1627.37 3.9494 3.60453 0
M  V30 17123 C 1628.67 4.95162 1.66169 0
M  V30 17124 H 1630.37 2.91463 0.684827 0
M  V30 17125 H 1627.91 1.40215 0.327974 0
M  V30 17126 H 1629.87 2.83216 3.12036 0
M  V30 17127 H 1628.59 1.62287 2.83426 0
M  V30 17128 H 1627.25 3.32339 1.54747 0
M  V30 17129 H 1626.9 3.04016 4.00728 0
M  V30 17130 H 1626.6 4.72091 3.49863 0
M  V30 17131 H 1628.12 4.30299 4.33215 0
M  V30 17132 H 1629.53 5.26292 2.27353 0
M  V30 17133 H 1627.93 5.76601 1.66289 0
M  V30 17134 H 1629 4.80885 0.62271 0
M  V30 17135 N 1630.34 -0.348112 1.53707 0
M  V30 17136 C 1631.59 -1.08684 1.71929 0
M  V30 17137 C 1631.95 -1.86463 0.474284 0
M  V30 17138 O 1631.24 -1.84036 -0.533038 0
M  V30 17139 C 1631.43 -2.06123 2.91973 0
M  V30 17140 C 1631.26 -1.37921 4.28028 0
M  V30 17141 C 1630.03 -1.12598 4.92595 0
M  V30 17142 C 1632.23 -0.807794 5.07917 0
M  V30 17143 N 1630.21 -0.409288 6.12534 0
M  V30 17144 C 1631.58 -0.221415 6.19605 0
M  V30 17145 C 1633.64 -0.708191 4.92838 0
M  V30 17146 C 1632.34 0.454872 7.1786 0
M  V30 17147 C 1634.37 -0.0456537 5.91382 0
M  V30 17148 C 1633.73 0.529774 7.02405 0
M  V30 17149 H 1629.83 -0.382246 0.682211 0
M  V30 17150 H 1632.41 -0.370996 1.91133 0
M  V30 17151 H 1630.58 -2.75003 2.74277 0
M  V30 17152 H 1632.31 -2.72801 2.98935 0
M  V30 17153 H 1629.07 -1.41188 4.52065 0
M  V30 17154 H 1629.49 -0.0658012 6.76968 0
M  V30 17155 H 1634.14 -1.13882 4.07174 0
M  V30 17156 H 1631.85 0.897401 8.03102 0
M  V30 17157 H 1635.44 0.0307208 5.81792 0
M  V30 17158 H 1634.32 1.03432 7.77349 0
M  V30 17159 N 1631.82 -1.45363 -0.608876 0
M  V30 17160 C 1633.07 -1.49313 -1.36792 0
M  V30 17161 C 1633.4 -0.134357 -1.94035 0
M  V30 17162 O 1632.65 0.866819 -1.75456 0
M  V30 17163 C 1632.95 -2.51893 -2.53544 0
M  V30 17164 C 1632.62 -3.96636 -2.14455 0
M  V30 17165 C 1631.28 -4.36048 -2.03508 0
M  V30 17166 C 1633.63 -4.87668 -1.83929 0
M  V30 17167 C 1630.96 -5.64389 -1.60256 0
M  V30 17168 C 1633.31 -6.16419 -1.42163 0
M  V30 17169 C 1631.98 -6.54763 -1.29774 0
M  V30 17170 H 1631.25 -0.546373 -0.500557 0
M  V30 17171 H 1633.89 -1.78702 -0.68832 0
M  V30 17172 H 1632.2 -2.16068 -3.26836 0
M  V30 17173 H 1633.89 -2.52187 -3.11773 0
M  V30 17174 H 1630.48 -3.65467 -2.23901 0
M  V30 17175 H 1634.67 -4.57956 -1.91284 0
M  V30 17176 H 1629.92 -5.92894 -1.49285 0
M  V30 17177 H 1634.1 -6.86401 -1.17588 0
M  V30 17178 H 1631.73 -7.5411 -0.960322 0
M  V30 17179 N 1633.3 0.851265 -1.32632 0
M  V30 17180 C 1634.72 1.14 -1.11696 0
M  V30 17181 C 1634.92 2.0125 0.100327 0
M  V30 17182 O 1633.97 2.40013 0.784233 0
M  V30 17183 C 1635.29 1.81406 -2.39817 0
M  V30 17184 C 1636.83 1.94027 -2.45607 0
M  V30 17185 C 1637.31 2.64848 -3.73657 0
M  V30 17186 N 1638.8 2.7237 -3.74658 0
M  V30 17187 C 1639.53 3.27827 -4.70443 0
M  V30 17188 N 1639.03 3.84068 -5.76596 0
M  V30 17189 N 1640.82 3.25962 -4.57936 0
M  V30 17190 H 1632.97 0.270302 -2.10673 0
M  V30 17191 H 1635.24 0.182395 -0.930288 0
M  V30 17192 H 1634.94 1.24753 -3.28831 0
M  V30 17193 H 1634.82 2.81535 -2.51034 0
M  V30 17194 H 1637.2 2.49838 -1.5705 0
M  V30 17195 H 1637.29 0.928844 -2.3834 0
M  V30 17196 H 1636.93 2.09699 -4.62589 0
M  V30 17197 H 1636.86 3.66436 -3.78196 0
M  V30 17198 H 1639.35 2.32474 -2.97933 0
M  V30 17199 H 1639.66 4.24551 -6.45737 0
M  V30 17200 H 1638.01 3.82391 -5.80347 0
M  V30 17201 H 1641.2 2.81274 -3.74169 0
M  V30 17202 H 1641.37 3.68881 -5.32758 0
M  V30 17203 N 1634.78 1.15898 1.06796 0
M  V30 17204 C 1636.03 0.935488 1.79145 0
M  V30 17205 C 1636.35 -0.538433 1.87419 0
M  V30 17206 O 1635.62 -1.39124 1.37917 0
M  V30 17207 H 1634.2 0.343123 0.663533 0
M  V30 17208 H 1636.86 1.4607 1.29034 0
M  V30 17209 H 1635.96 1.34978 2.81402 0
M  V30 17210 N 1636.26 -1.25243 0.956659 0
M  V30 17211 C 1637.19 -2.28159 0.496574 0
M  V30 17212 C 1638.17 -1.63814 -0.458132 0
M  V30 17213 O 1639.35 -1.90897 -0.356648 0
M  V30 17214 C 1636.48 -3.46573 -0.22454 0
M  V30 17215 C 1635.44 -4.2311 0.645104 0
M  V30 17216 C 1634.76 -5.343 -0.206867 0
M  V30 17217 C 1636.06 -4.85562 1.92422 0
M  V30 17218 H 1637.76 -2.66895 1.35675 0
M  V30 17219 H 1635.3 -1.28301 0.653827 0
M  V30 17220 H 1637.26 -4.17695 -0.55755 0
M  V30 17221 H 1635.98 -3.06833 -1.11898 0
M  V30 17222 H 1634.64 -3.53774 0.961228 0
M  V30 17223 H 1634.29 -4.908 -1.10112 0
M  V30 17224 H 1633.99 -5.86423 0.371714 0
M  V30 17225 H 1635.51 -6.08253 -0.534798 0
M  V30 17226 H 1636.92 -5.48817 1.65749 0
M  V30 17227 H 1635.32 -5.47871 2.44862 0
M  V30 17228 H 1636.39 -4.07634 2.62607 0
M  V30 17229 N 1637.73 -0.725468 -1.3991 0
M  V30 17230 C 1638.68 -0.0682776 -2.325 0
M  V30 17231 C 1639.68 0.736285 -1.52562 0
M  V30 17232 O 1640.88 0.638542 -1.68293 0
M  V30 17233 H 1637.26 -0.00327742 -0.751993 0
M  V30 17234 H 1639.23 -0.865735 -2.85565 0
M  V30 17235 C 1637.98 0.832036 -3.37598 0
M  V30 17236 H 1637.3 0.222341 -3.99181 0
M  V30 17237 H 1638.74 1.25965 -4.04856 0
M  V30 17238 C 1637.2 1.96201 -2.73874 0
M  V30 17239 O 1637.73 3.05378 -2.60974 0
M  V30 17240 N 1635.94 1.74857 -2.32106 0
M  V30 17241 H 1635.48 0.860621 -2.42798 0
M  V30 17242 H 1635.44 2.50639 -1.89808 0
M  V30 17243 N 1639.21 1.50354 -0.472382 0
M  V30 17244 C 1640.63 1.59097 -0.126613 0
M  V30 17245 C 1640.83 1.4804 1.36698 0
M  V30 17246 O 1639.88 1.33956 2.14038 0
M  V30 17247 C 1641.2 2.92958 -0.677957 0
M  V30 17248 C 1642.75 3.06356 -0.6415 0
M  V30 17249 C 1643.22 4.42793 -1.17041 0
M  V30 17250 N 1644.71 4.49208 -1.12988 0
M  V30 17251 C 1645.45 5.53171 -1.50961 0
M  V30 17252 N 1644.94 6.64381 -1.96391 0
M  V30 17253 N 1646.74 5.43722 -1.42556 0
M  V30 17254 H 1638.89 1.55785 -1.44378 0
M  V30 17255 H 1641.15 0.736295 -0.597138 0
M  V30 17256 H 1640.86 3.06529 -1.72433 0
M  V30 17257 H 1640.73 3.77002 -0.122247 0
M  V30 17258 H 1643.12 2.92431 0.395964 0
M  V30 17259 H 1643.2 2.24066 -1.23403 0
M  V30 17260 H 1642.84 4.57466 -2.20651 0
M  V30 17261 H 1642.77 5.23677 -0.554086 0
M  V30 17262 H 1645.26 3.69407 -0.796692 0
M  V30 17263 H 1645.58 7.39772 -2.23511 0
M  V30 17264 H 1643.92 6.65498 -2.00344 0
M  V30 17265 H 1647.11 4.55729 -1.06905 0
M  V30 17266 H 1647.28 6.24625 -1.72476 0
M  V30 17267 N 1640.69 0.205039 1.56261 0
M  V30 17268 C 1641.94 -0.431364 1.97033 0
M  V30 17269 C 1642.25 -1.62066 1.09517 0
M  V30 17270 O 1643.46 -2.32551 1.40116 0
M  V30 17271 C 1641.92 -0.818841 3.50461 0
M  V30 17272 C 1641.52 0.346723 4.46656 0
M  V30 17273 C 1643.27 -1.42177 3.99982 0
M  V30 17274 C 1641.17 -0.0622677 5.91367 0
M  V30 17275 H 1640.1 -0.164934 0.73574 0
M  V30 17276 H 1642.76 0.298635 1.81054 0
M  V30 17277 H 1641.14 -1.60579 3.61981 0
M  V30 17278 H 1642.31 1.12427 4.46874 0
M  V30 17279 H 1640.63 0.861799 4.07384 0
M  V30 17280 H 1643.22 -1.74039 5.05583 0
M  V30 17281 H 1643.57 -2.33177 3.44868 0
M  V30 17282 H 1644.1 -0.698591 3.91618 0
M  V30 17283 H 1640.84 0.813802 6.50429 0
M  V30 17284 H 1640.36 -0.804474 5.94381 0
M  V30 17285 H 1642.04 -0.49466 6.45106 0
M  V30 17286 N 1642.17 -1.57451 -0.0684915 0
M  V30 17287 C 1643.1 -2.00648 -1.10783 0
M  V30 17288 C 1644.11 -0.912944 -1.34793 0
M  V30 17289 O 1645.3 -1.19079 -1.32975 0
M  V30 17290 C 1642.4 -2.33309 -2.45805 0
M  V30 17291 C 1641.58 -3.64551 -2.41704 0
M  V30 17292 C 1640.64 -3.84845 -3.5886 0
M  V30 17293 O 1639.66 -4.56392 -3.40139 0
M  V30 17294 N 1640.86 -3.27451 -4.79329 0
M  V30 17295 H 1643.63 -2.90422 -0.739938 0
M  V30 17296 H 1641.19 -1.59846 -0.257093 0
M  V30 17297 H 1643.18 -2.44056 -3.22829 0
M  V30 17298 H 1641.75 -1.49408 -2.74583 0
M  V30 17299 H 1640.97 -3.64528 -1.50043 0
M  V30 17300 H 1642.26 -4.50721 -2.36068 0
M  V30 17301 H 1641.66 -2.69384 -4.97442 0
M  V30 17302 H 1640.21 -3.43641 -5.53854 0
M  V30 17303 N 1643.65 0.339955 -1.5389 0
M  V30 17304 C 1644.88 1.09975 -1.75251 0
M  V30 17305 C 1645.29 1.8224 -0.493355 0
M  V30 17306 O 1644.65 1.74477 0.535173 0
M  V30 17307 C 1644.7 2.11048 -2.93498 0
M  V30 17308 O 1644.42 1.41721 -4.14544 0
M  V30 17309 C 1645.92 2.99375 -3.26939 0
M  V30 17310 H 1643.14 0.327811 -0.585475 0
M  V30 17311 H 1645.68 0.391068 -2.00726 0
M  V30 17312 H 1643.84 2.77476 -2.70344 0
M  V30 17313 H 1644.25 2.09271 -4.80943 0
M  V30 17314 H 1645.73 3.66223 -4.13019 0
M  V30 17315 H 1646.2 3.65588 -2.43397 0
M  V30 17316 H 1646.81 2.38531 -3.52112 0
M  V30 17317 N 1645.13 1.45684 0.601159 0
M  V30 17318 C 1646.06 1.50861 1.7255 0
M  V30 17319 C 1647.07 0.398728 1.57842 0
M  V30 17320 O 1648.26 0.66613 1.65605 0
M  V30 17321 C 1645.36 1.35535 3.10618 0
M  V30 17322 C 1644.53 2.60313 3.51505 0
M  V30 17323 C 1643.59 2.39451 4.68561 0
M  V30 17324 O 1642.62 3.13094 4.75353 0
M  V30 17325 N 1643.82 1.44426 5.62247 0
M  V30 17326 H 1646.58 2.47799 1.6857 0
M  V30 17327 H 1644.15 1.41505 0.786626 0
M  V30 17328 H 1646.14 1.19379 3.86692 0
M  V30 17329 H 1644.71 0.468492 3.09069 0
M  V30 17330 H 1643.93 2.9154 2.65327 0
M  V30 17331 H 1645.22 3.43242 3.75583 0
M  V30 17332 H 1644.61 0.836624 5.59479 0
M  V30 17333 H 1643.17 1.34239 6.37827 0
M  V30 17334 N 1646.6 -0.84422 1.33082 0
M  V30 17335 C 1647.85 -1.59404 1.23585 0
M  V30 17336 C 1648.17 -1.94593 -0.198208 0
M  V30 17337 O 1649.37 -2.68307 -0.415138 0
M  V30 17338 C 1647.83 -2.87489 2.16513 0
M  V30 17339 C 1647.44 -2.59685 3.65059 0
M  V30 17340 C 1649.18 -3.6551 2.15877 0
M  V30 17341 C 1647.09 -3.83834 4.49917 0
M  V30 17342 H 1646.02 -0.598191 0.459003 0
M  V30 17343 H 1648.67 -0.931299 1.58111 0
M  V30 17344 H 1647.05 -3.55276 1.74913 0
M  V30 17345 H 1648.22 -2.00143 4.15065 0
M  V30 17346 H 1646.54 -1.94977 3.6793 0
M  V30 17347 H 1649.14 -4.57654 2.76509 0
M  V30 17348 H 1649.48 -4.00031 1.15244 0
M  V30 17349 H 1650.01 -3.0464 2.55811 0
M  V30 17350 H 1646.75 -3.54448 5.51404 0
M  V30 17351 H 1646.27 -4.42734 4.04656 0
M  V30 17352 H 1647.95 -4.51468 4.63449 0
M  V30 17353 N 1648.08 -1.16463 -1.0618 0
M  V30 17354 C 1649.5 -0.909776 -1.31131 0
M  V30 17355 C 1649.7 0.436686 -1.96711 0
M  V30 17356 O 1648.75 1.17595 -2.23445 0
M  V30 17357 C 1650.07 -2.05967 -2.19084 0
M  V30 17358 C 1651.61 -2.09557 -2.32497 0
M  V30 17359 C 1652.09 -3.23904 -3.23806 0
M  V30 17360 N 1653.58 -3.23628 -3.3139 0
M  V30 17361 C 1654.32 -4.08746 -4.02137 0
M  V30 17362 N 1653.81 -5.03954 -4.75397 0
M  V30 17363 N 1655.6 -3.96729 -3.98199 0
M  V30 17364 H 1647.76 -2.03148 -0.620066 0
M  V30 17365 H 1650.02 -0.886477 -0.335949 0
M  V30 17366 H 1649.72 -3.03227 -1.78174 0
M  V30 17367 H 1649.6 -2.00219 -3.19675 0
M  V30 17368 H 1651.99 -1.12889 -2.72654 0
M  V30 17369 H 1652.07 -2.19369 -1.3157 0
M  V30 17370 H 1651.71 -4.20831 -2.84366 0
M  V30 17371 H 1651.64 -3.11327 -4.24715 0
M  V30 17372 H 1654.13 -2.54687 -2.79182 0
M  V30 17373 H 1654.44 -5.65319 -5.2691 0
M  V30 17374 H 1652.79 -5.07932 -4.74373 0
M  V30 17375 H 1655.98 -3.21652 -3.40085 0
M  V30 17376 H 1656.15 -4.63286 -4.53067 0
M  V30 17377 N 1649.56 1.24734 -0.963288 0
M  V30 17378 C 1650.81 1.92971 -0.623688 0
M  V30 17379 C 1651.14 1.7517 0.838393 0
M  V30 17380 O 1650.41 1.10208 1.60264 0
M  V30 17381 C 1650.7 3.46115 -0.99379 0
M  V30 17382 C 1650.55 3.73104 -2.51224 0
M  V30 17383 C 1651.87 4.36956 -0.525128 0
M  V30 17384 H 1648.99 0.700827 -0.228058 0
M  V30 17385 H 1651.63 1.47187 -1.2015 0
M  V30 17386 H 1649.78 3.85242 -0.502108 0
M  V30 17387 H 1651.45 3.43563 -3.07835 0
M  V30 17388 H 1649.69 3.18409 -2.94616 0
M  V30 17389 H 1650.37 4.80237 -2.7217 0
M  V30 17390 H 1652.84 4.0518 -0.947015 0
M  V30 17391 H 1651.72 5.4285 -0.812695 0
M  V30 17392 H 1651.98 4.38347 0.574843 0
M  V30 17393 N 1651.04 0.732878 1.39523 0
M  V30 17394 C 1652.28 0.280305 2.00854 0
M  V30 17395 C 1652.62 -1.12891 1.58017 0
M  V30 17396 O 1651.89 -1.76919 0.808086 0
M  V30 17397 C 1652.17 0.37978 3.58092 0
M  V30 17398 C 1652.03 1.82861 4.10953 0
M  V30 17399 C 1653.35 -0.239026 4.3945 0
M  V30 17400 H 1650.47 0.103326 0.729721 0
M  V30 17401 H 1653.11 0.928634 1.6576 0
M  V30 17402 H 1651.26 -0.172198 3.88118 0
M  V30 17403 H 1652.93 2.4373 3.91655 0
M  V30 17404 H 1651.17 2.35064 3.64592 0
M  V30 17405 H 1651.84 1.84949 5.20094 0
M  V30 17406 H 1654.32 0.231488 4.15456 0
M  V30 17407 H 1653.2 -0.139068 5.48724 0
M  V30 17408 H 1653.46 -1.32481 4.21783 0
M  V30 17409 N 1652.52 -1.50101 0.480349 0
M  V30 17410 C 1653.46 -2.28722 -0.308993 0
M  V30 17411 C 1654.43 -1.34186 -0.978948 0
M  V30 17412 O 1655.62 -1.6313 -0.989602 0
M  V30 17413 C 1652.76 -3.16322 -1.37966 0
M  V30 17414 C 1651.87 -4.25898 -0.723552 0
M  V30 17415 C 1651.01 -5.00741 -1.7729 0
M  V30 17416 C 1650.04 -6.0218 -1.09754 0
M  V30 17417 N 1649.18 -6.70266 -2.09015 0
M  V30 17418 H 1654.02 -2.95722 0.367739 0
M  V30 17419 H 1651.56 -1.45826 0.193197 0
M  V30 17420 H 1653.52 -3.65469 -2.01217 0
M  V30 17421 H 1652.15 -2.51349 -2.02543 0
M  V30 17422 H 1651.2 -3.80394 0.0217507 0
M  V30 17423 H 1652.51 -4.98435 -0.190905 0
M  V30 17424 H 1651.66 -5.53653 -2.48098 0
M  V30 17425 H 1650.4 -4.27931 -2.33937 0
M  V30 17426 H 1649.41 -5.48519 -0.375123 0
M  V30 17427 H 1650.63 -6.76967 -0.537841 0
M  V30 17428 H 1648.58 -6.00242 -2.64662 0
M  V30 17429 H 1648.5 -7.3871 -1.6076 0
M  V30 17430 H 1649.76 -7.27792 -2.79175 0
M  V30 17431 N 1653.99 -0.213323 -1.5615 0
M  V30 17432 C 1654.96 0.686579 -2.18675 0
M  V30 17433 C 1655.96 1.1277 -1.14628 0
M  V30 17434 O 1657.15 1.03783 -1.39909 0
M  V30 17435 C 1654.28 1.93954 -2.80347 0
M  V30 17436 H 1655.47 0.141578 -2.99566 0
M  V30 17437 H 1653.02 0.0362987 -1.56258 0
M  V30 17438 H 1653.76 2.52661 -2.03304 0
M  V30 17439 H 1653.54 1.63179 -3.56532 0
M  V30 17440 H 1655.03 2.58087 -3.283 0
M  V30 17441 N 1655.47 1.57485 0.0601405 0
M  V30 17442 C 1656.72 1.87816 0.75707 0
M  V30 17443 C 1657.05 0.806616 1.76986 0
M  V30 17444 O 1656.3 -0.196101 1.94715 0
M  V30 17445 C 1656.6 3.24839 1.49045 0
M  V30 17446 C 1656.27 4.46665 0.616559 0
M  V30 17447 C 1654.93 4.79731 0.375769 0
M  V30 17448 C 1657.28 5.21199 0.0113073 0
M  V30 17449 C 1654.61 5.84737 -0.479564 0
M  V30 17450 C 1656.96 6.27111 -0.831546 0
M  V30 17451 C 1655.63 6.58671 -1.0821 0
M  V30 17452 H 1654.9 0.687266 0.277032 0
M  V30 17453 H 1657.54 1.91492 0.0175593 0
M  V30 17454 H 1655.85 3.17007 2.30247 0
M  V30 17455 H 1657.54 3.45545 2.03469 0
M  V30 17456 H 1654.13 4.20792 0.814371 0
M  V30 17457 H 1658.32 4.95957 0.18443 0
M  V30 17458 H 1653.57 6.07581 -0.682308 0
M  V30 17459 H 1657.75 6.84021 -1.30721 0
M  V30 17460 H 1655.38 7.39863 -1.74663 0
M  V30 17461 N 1656.95 -0.331789 1.54068 0
M  V30 17462 C 1658.37 -0.675628 1.44594 0
M  V30 17463 C 1658.57 -1.91976 0.612166 0
M  V30 17464 O 1657.62 -2.5227 0.107742 0
M  V30 17465 C 1658.94 -0.857303 2.8822 0
M  V30 17466 C 1660.48 -0.955171 2.9807 0
M  V30 17467 C 1660.96 -1.16908 4.42828 0
M  V30 17468 N 1662.45 -1.23601 4.46405 0
M  V30 17469 C 1663.18 -1.41924 5.55558 0
M  V30 17470 N 1662.68 -1.57345 6.74696 0
M  V30 17471 N 1664.47 -1.44566 5.43191 0
M  V30 17472 H 1656.62 0.486058 2.06764 0
M  V30 17473 H 1658.89 0.155605 0.935142 0
M  V30 17474 H 1658.59 -0.0144659 3.51697 0
M  V30 17475 H 1658.47 -1.75558 3.33855 0
M  V30 17476 H 1660.85 -1.78852 2.34725 0
M  V30 17477 H 1660.94 -0.0335425 2.55778 0
M  V30 17478 H 1660.58 -0.340612 5.06757 0
M  V30 17479 H 1660.51 -2.10445 4.82722 0
M  V30 17480 H 1663 -1.13161 3.60559 0
M  V30 17481 H 1663.31 -1.70995 7.53645 0
M  V30 17482 H 1661.66 -1.54458 6.77619 0
M  V30 17483 H 1664.85 -1.3211 4.49071 0
M  V30 17484 H 1665.02 -1.58505 6.28315 0
M  V30 17485 N 1658.43 -1.46001 -0.593424 0
M  V30 17486 C 1659.65 -1.54541 -1.38318 0
M  V30 17487 C 1660.08 -0.183555 -1.87202 0
M  V30 17488 O 1659.44 0.834407 -1.60958 0
M  V30 17489 C 1659.48 -2.54559 -2.55405 0
M  V30 17490 O 1658.59 -2.07321 -3.56499 0
M  V30 17491 H 1657.93 -0.520434 -0.412364 0
M  V30 17492 H 1660.46 -1.9148 -0.720862 0
M  V30 17493 H 1660.47 -2.73823 -3.02465 0
M  V30 17494 H 1659.14 -3.53461 -2.19176 0
M  V30 17495 H 1657.72 -1.97997 -3.15993 0
M  V30 17496 N 1659.91 0.83715 -1.33527 0
M  V30 17497 C 1661.13 1.62976 -1.28271 0
M  V30 17498 C 1661.56 1.87554 0.143201 0
M  V30 17499 O 1660.91 1.44088 1.10038 0
M  V30 17500 C 1660.96 2.95607 -2.06516 0
M  V30 17501 O 1660.07 3.87 -1.42494 0
M  V30 17502 H 1659.41 0.496212 -0.441214 0
M  V30 17503 H 1661.94 1.04137 -1.76115 0
M  V30 17504 H 1661.95 3.4529 -2.17344 0
M  V30 17505 H 1660.62 2.77041 -3.10195 0
M  V30 17506 H 1659.2 3.45492 -1.40321 0
M  V30 17507 N 1661.38 1.17024 1.05561 0
M  V30 17508 C 1662.31 0.906823 2.15172 0
M  V30 17509 C 1663.3 -0.149745 1.6944 0
M  V30 17510 O 1664.48 -0.000287092 1.942 0
M  V30 17511 C 1661.61 0.415251 3.44809 0
M  V30 17512 C 1660.56 1.41058 4.04088 0
M  V30 17513 C 1659.89 0.777109 5.29023 0
M  V30 17514 C 1661.19 2.78258 4.42007 0
M  V30 17515 H 1662.88 1.82347 2.37466 0
M  V30 17516 H 1660.43 0.878162 1.14124 0
M  V30 17517 H 1662.38 0.218407 4.20834 0
M  V30 17518 H 1661.11 -0.536924 3.22156 0
M  V30 17519 H 1659.77 1.5941 3.30127 0
M  V30 17520 H 1659.41 -0.181784 5.02671 0
M  V30 17521 H 1659.11 1.44151 5.69644 0
M  V30 17522 H 1660.64 0.590455 6.07738 0
M  V30 17523 H 1662.05 2.63645 5.09082 0
M  V30 17524 H 1660.45 3.41241 4.93634 0
M  V30 17525 H 1661.52 3.3295 3.52523 0
M  V30 17526 N 1662.86 -1.24221 0.969889 0
M  V30 17527 C 1664.09 -1.96118 0.649715 0
M  V30 17528 C 1664.5 -1.72127 -0.785436 0
M  V30 17529 O 1663.84 -1.00319 -1.53889 0
M  V30 17530 C 1663.91 -3.49374 0.847236 0
M  V30 17531 C 1663.57 -3.97067 2.26244 0
M  V30 17532 C 1664.57 -4.06568 3.24034 0
M  V30 17533 C 1662.25 -4.30333 2.59072 0
M  V30 17534 C 1664.25 -4.48672 4.52738 0
M  V30 17535 C 1661.93 -4.72121 3.88001 0
M  V30 17536 C 1662.93 -4.81256 4.84646 0
M  V30 17537 O 1662.62 -5.22109 6.11275 0
M  V30 17538 H 1662.35 -0.63149 0.24124 0
M  V30 17539 H 1664.9 -1.58948 1.30095 0
M  V30 17540 H 1663.13 -3.86451 0.138828 0
M  V30 17541 H 1664.82 -4.0248 0.525817 0
M  V30 17542 H 1665.59 -3.81083 3.00002 0
M  V30 17543 H 1661.47 -4.22441 1.84565 0
M  V30 17544 H 1665.01 -4.55717 5.28174 0
M  V30 17545 H 1660.91 -4.97054 4.11834 0
M  V30 17546 H 1661.68 -5.40252 6.14874 0
M  V30 17547 N 1664.34 -0.740267 -1.39132 0
M  V30 17548 C 1665.25 -0.105452 -2.34363 0
M  V30 17549 C 1666.27 0.715908 -1.5859 0
M  V30 17550 O 1667.44 0.643155 -1.90855 0
M  V30 17551 C 1664.51 0.787141 -3.37646 0
M  V30 17552 C 1663.57 -0.047071 -4.29274 0
M  V30 17553 C 1662.8 0.803014 -5.27624 0
M  V30 17554 O 1663.02 2.04155 -5.32613 0
M  V30 17555 O 1661.96 0.228879 -6.01465 0
M  V30 17556 H 1665.78 -0.891588 -2.90318 0
M  V30 17557 H 1663.37 -0.500996 -1.40749 0
M  V30 17558 H 1665.25 1.29769 -4.00921 0
M  V30 17559 H 1663.93 1.552 -2.84068 0
M  V30 17560 H 1662.83 -0.603265 -3.69204 0
M  V30 17561 H 1664.17 -0.774273 -4.86072 0
M  V30 17562 N 1665.82 1.49844 -0.488302 0
M  V30 17563 C 1667.07 2.02009 0.0605782 0
M  V30 17564 C 1667.39 1.37114 1.38653 0
M  V30 17565 O 1666.66 0.522182 1.88812 0
M  V30 17566 H 1665.24 0.746569 0.0253773 0
M  V30 17567 H 1667.9 1.84 -0.64265 0
M  V30 17568 H 1667 3.11461 0.199542 0
M  V30 17569 N 1667.3 0.221601 1.56034 0
M  V30 17570 C 1668.23 -0.683171 2.23282 0
M  V30 17571 C 1669.21 -1.20101 1.20456 0
M  V30 17572 O 1670.39 -1.245 1.49041 0
M  V30 17573 C 1667.52 -1.89143 2.91277 0
M  V30 17574 C 1666.48 -1.50742 4.00576 0
M  V30 17575 C 1665.8 -2.79446 4.55867 0
M  V30 17576 C 1667.1 -0.697388 5.17623 0
M  V30 17577 H 1668.8 -0.122488 2.99149 0
M  V30 17578 H 1666.34 -0.0574732 1.43885 0
M  V30 17579 H 1668.3 -2.52982 3.37013 0
M  V30 17580 H 1667.02 -2.47708 2.12858 0
M  V30 17581 H 1665.68 -0.892492 3.5557 0
M  V30 17582 H 1665.33 -3.36155 3.74177 0
M  V30 17583 H 1665.03 -2.54486 5.29633 0
M  V30 17584 H 1666.55 -3.44228 5.04321 0
M  V30 17585 H 1667.96 -1.23948 5.59741 0
M  V30 17586 H 1666.36 -0.544875 5.97621 0
M  V30 17587 H 1667.43 0.295981 4.83996 0
M  V30 17588 N 1668.77 -1.57515 -0.0517878 0
M  V30 17589 C 1669.68 -2.08427 -1.07681 0
M  V30 17590 C 1670.7 -1.01797 -1.41115 0
M  V30 17591 O 1671.88 -1.33394 -1.50891 0
M  V30 17592 C 1668.94 -2.53472 -2.36544 0
M  V30 17593 C 1668 -3.74488 -2.09899 0
M  V30 17594 C 1667.24 -4.17374 -3.32618 0
M  V30 17595 O 1667.46 -3.59962 -4.42475 0
M  V30 17596 O 1666.39 -5.10006 -3.19653 0
M  V30 17597 H 1670.22 -2.96122 -0.674217 0
M  V30 17598 H 1667.8 -1.4699 -0.267274 0
M  V30 17599 H 1669.69 -2.82876 -3.12345 0
M  V30 17600 H 1668.36 -1.68899 -2.76143 0
M  V30 17601 H 1667.27 -3.50137 -1.31739 0
M  V30 17602 H 1668.6 -4.59975 -1.75169 0
M  V30 17603 N 1670.25 0.323614 -1.54242 0
M  V30 17604 C 1671.2 1.39826 -1.83623 0
M  V30 17605 C 1672.17 1.51393 -0.683331 0
M  V30 17606 O 1673.36 1.66614 -0.929754 0
M  V30 17607 C 1670.5 2.76187 -2.06918 0
M  V30 17608 C 1669.61 2.73251 -3.34601 0
M  V30 17609 C 1668.74 4.01458 -3.47857 0
M  V30 17610 C 1667.78 3.9283 -4.69415 0
M  V30 17611 N 1666.92 5.12767 -4.79598 0
M  V30 17612 H 1671.76 1.1407 -2.75303 0
M  V30 17613 H 1669.3 0.552188 -1.36343 0
M  V30 17614 H 1671.25 3.55458 -2.18416 0
M  V30 17615 H 1669.88 3.00251 -1.18529 0
M  V30 17616 H 1668.94 1.85971 -3.31842 0
M  V30 17617 H 1670.25 2.62759 -4.2398 0
M  V30 17618 H 1669.4 4.89161 -3.58897 0
M  V30 17619 H 1668.14 4.14757 -2.5657 0
M  V30 17620 H 1667.15 3.03512 -4.58433 0
M  V30 17621 H 1668.37 3.81097 -5.62087 0
M  V30 17622 H 1666.32 5.26572 -3.91227 0
M  V30 17623 H 1666.23 5.0461 -5.62943 0
M  V30 17624 H 1667.5 6.02184 -4.94969 0
M  V30 17625 N 1671.73 1.46313 0.585673 0
M  V30 17626 C 1673.14 1.4567 1.16778 0
M  V30 17627 C 1673.49 0.195957 1.95219 0
M  V30 17628 O 1672.62 -0.701142 2.04727 0
M  V30 17629 C 1673.21 2.6392 2.12443 0
M  V30 17630 C 1671.77 2.66327 2.65983 0
M  V30 17631 C 1670.92 2.38304 1.41797 0
M  V30 17632 H 1673.87 1.54236 0.37377 0
M  V30 17633 H 1673.89 2.39268 2.95856 0
M  V30 17634 H 1673.4 3.55663 1.55324 0
M  V30 17635 H 1671.5 1.78648 3.2698 0
M  V30 17636 H 1671.62 3.66203 3.08921 0
M  V30 17637 H 1669.98 1.88302 1.71507 0
M  V30 17638 H 1670.76 3.3222 0.86514 0
M  V30 17639 N 1673.21 -0.830057 1.33969 0
M  V30 17640 C 1674.12 -1.97244 1.27012 0
M  V30 17641 C 1675.14 -1.73076 0.179075 0
M  V30 17642 O 1676.31 -1.97301 0.404262 0
M  V30 17643 C 1673.38 -3.31409 1.01827 0
M  V30 17644 C 1672.44 -3.68633 2.20018 0
M  V30 17645 C 1671.67 -4.96397 1.96025 0
M  V30 17646 O 1671.89 -5.63014 0.91494 0
M  V30 17647 O 1670.83 -5.31331 2.82791 0
M  V30 17648 H 1674.65 -2.06056 2.23103 0
M  V30 17649 H 1672.24 -0.964399 1.14104 0
M  V30 17650 H 1674.12 -4.11779 0.895337 0
M  V30 17651 H 1672.8 -3.23581 0.0877091 0
M  V30 17652 H 1671.7 -2.88738 2.37869 0
M  V30 17653 H 1673.04 -3.81138 3.11439 0
M  V30 17654 N 1674.69 -1.17582 -1.04939 0
M  V30 17655 C 1675.91 -0.99097 -1.82194 0
M  V30 17656 C 1676.34 0.455965 -1.8249 0
M  V30 17657 O 1675.7 1.32661 -1.23575 0
M  V30 17658 C 1675.74 -1.53971 -3.26076 0
M  V30 17659 O 1674.85 -0.755172 -4.05427 0
M  V30 17660 H 1674.19 -0.351669 -0.563227 0
M  V30 17661 H 1676.72 -1.56138 -1.3222 0
M  V30 17662 H 1676.73 -1.56307 -3.76872 0
M  V30 17663 H 1675.4 -2.59295 -3.25175 0
M  V30 17664 H 1673.98 -0.803423 -3.64142 0
M  V30 17665 N 1676.17 1.23705 -0.976463 0
M  V30 17666 C 1677.11 2.25023 -0.513156 0
M  V30 17667 C 1678.08 1.60003 0.445903 0
M  V30 17668 O 1679.27 1.87481 0.354323 0
M  V30 17669 C 1676.41 3.44619 0.182088 0
M  V30 17670 C 1675.52 4.24209 -0.816769 0
M  V30 17671 C 1674.66 5.31112 -0.0967355 0
M  V30 17672 C 1673.69 6.02406 -1.08507 0
M  V30 17673 N 1672.83 7.00991 -0.394455 0
M  V30 17674 H 1677.67 2.64019 -1.38194 0
M  V30 17675 H 1675.21 1.29777 -0.692566 0
M  V30 17676 H 1677.17 4.12835 0.601948 0
M  V30 17677 H 1675.8 3.06435 1.01477 0
M  V30 17678 H 1674.85 3.55448 -1.35503 0
M  V30 17679 H 1676.16 4.73445 -1.57006 0
M  V30 17680 H 1675.31 6.05504 0.380686 0
M  V30 17681 H 1674.05 4.82806 0.689187 0
M  V30 17682 H 1673.06 5.26809 -1.57328 0
M  V30 17683 H 1674.28 6.528 -1.87159 0
M  V30 17684 H 1672.23 6.54943 0.372331 0
M  V30 17685 H 1672.15 7.48152 -1.08647 0
M  V30 17686 H 1673.41 7.79476 0.0607087 0
M  V30 17687 N 1677.64 0.747635 1.38738 0
M  V30 17688 C 1678.87 0.311781 2.04537 0
M  V30 17689 C 1679.29 -1.05782 1.56383 0
M  V30 17690 O 1678.64 -1.67077 0.734259 0
M  V30 17691 C 1678.69 0.318675 3.60093 0
M  V30 17692 O 1678.42 1.63423 4.06478 0
M  V30 17693 C 1679.92 -0.131782 4.43104 0
M  V30 17694 H 1677.14 0.134141 0.657455 0
M  V30 17695 H 1679.68 1.01482 1.77543 0
M  V30 17696 H 1677.84 -0.335578 3.85944 0
M  V30 17697 H 1678.25 1.55636 5.00877 0
M  V30 17698 H 1679.72 -0.0757978 5.51948 0
M  V30 17699 H 1680.2 -1.17881 4.23085 0
M  V30 17700 H 1680.81 0.493375 4.22429 0
M  V30 17701 N 1679.12 -1.49583 0.496242 0
M  V30 17702 C 1680.35 -2.07342 -0.0490986 0
M  V30 17703 C 1680.77 -1.35474 -1.30493 0
M  V30 17704 O 1680.13 -0.410005 -1.76603 0
M  V30 17705 C 1680.18 -3.59427 -0.290601 0
M  V30 17706 O 1679.28 -3.89111 -1.36626 0
M  V30 17707 H 1678.62 -0.663562 0.0241141 0
M  V30 17708 H 1681.15 -1.92452 0.6945 0
M  V30 17709 H 1681.16 -4.04627 -0.523549 0
M  V30 17710 H 1679.84 -4.11147 0.626959 0
M  V30 17711 H 1678.41 -3.55726 -1.11864 0
M  V30 17712 N 1680.6 -0.229873 -1.55915 0
M  V30 17713 C 1681.85 0.399963 -1.97695 0
M  V30 17714 C 1682.16 1.60303 -1.12081 0
M  V30 17715 O 1683.37 2.30292 -1.43797 0
M  V30 17716 C 1681.82 0.762982 -3.51719 0
M  V30 17717 C 1681.43 -0.417738 -4.46048 0
M  V30 17718 C 1683.18 1.35796 -4.02194 0
M  V30 17719 C 1681.08 -0.0318216 -5.91391 0
M  V30 17720 H 1680.01 0.153209 -0.73827 0
M  V30 17721 H 1682.66 -0.327401 -1.80556 0
M  V30 17722 H 1681.05 1.548 -3.6449 0
M  V30 17723 H 1682.22 -1.19523 -4.45029 0
M  V30 17724 H 1680.53 -0.926501 -4.05962 0
M  V30 17725 H 1683.13 1.65974 -5.08288 0
M  V30 17726 H 1683.47 2.27661 -3.48534 0
M  V30 17727 H 1684.01 0.6362 -3.9268 0
M  V30 17728 H 1680.75 -0.917176 -6.49052 0
M  V30 17729 H 1680.27 0.709811 -5.95585 0
M  V30 17730 H 1681.95 0.391966 -6.45812 0
M  V30 17731 N 1682.08 1.5754 0.0434337 0
M  V30 17732 C 1683.03 2.0207 1.05602 0
M  V30 17733 C 1684.01 0.907491 1.32866 0
M  V30 17734 O 1685.2 1.17141 1.32692 0
M  V30 17735 C 1682.33 2.49176 2.36149 0
M  V30 17736 C 1681.42 3.67289 2.12037 0
M  V30 17737 N 1681.81 4.8051 1.57937 0
M  V30 17738 C 1680.11 3.74386 2.42387 0
M  V30 17739 C 1680.81 5.62214 1.49298 0
M  V30 17740 N 1679.78 5.06899 1.96353 0
M  V30 17741 H 1683.59 2.87035 0.631515 0
M  V30 17742 H 1681.1 1.60464 0.250012 0
M  V30 17743 H 1683.1 2.79331 3.09483 0
M  V30 17744 H 1681.76 1.65611 2.79291 0
M  V30 17745 H 1682.77 5.02237 1.26405 0
M  V30 17746 H 1679.45 3.01592 2.88701 0
M  V30 17747 H 1680.84 6.6315 1.08082 0
M  V30 17748 N 1683.56 -0.31543 1.54411 0
M  V30 17749 C 1684.5 -1.4086 1.85098 0
M  V30 17750 C 1685.5 -1.53172 0.723518 0
M  V30 17751 O 1686.7 -1.55461 0.907303 0
M  V30 17752 H 1683.08 -0.47022 0.586853 0
M  V30 17753 H 1685.05 -1.12207 2.765 0
M  V30 17754 C 1683.8 -2.76948 2.10227 0
M  V30 17755 H 1683.12 -2.68251 2.96448 0
M  V30 17756 H 1684.56 -3.52486 2.35647 0
M  V30 17757 C 1683.02 -3.24758 0.896312 0
M  V30 17758 O 1683.55 -4.0155 0.109609 0
M  V30 17759 N 1681.76 -2.81901 0.705685 0
M  V30 17760 H 1681.3 -2.19571 1.34708 0
M  V30 17761 H 1681.26 -3.14242 -0.0996804 0
M  V30 17762 N 1685.03 -1.46622 -0.577906 0
M  V30 17763 C 1686.28 -1.52181 -1.33594 0
M  V30 17764 C 1686.61 -0.175484 -1.93707 0
M  V30 17765 O 1685.86 0.829407 -1.77255 0
M  V30 17766 C 1686.16 -2.57215 -2.48144 0
M  V30 17767 C 1685.83 -4.01095 -2.05993 0
M  V30 17768 C 1684.49 -4.40267 -1.94213 0
M  V30 17769 C 1686.84 -4.91459 -1.73543 0
M  V30 17770 C 1684.17 -5.67661 -1.48248 0
M  V30 17771 C 1686.52 -6.19296 -1.29055 0
M  V30 17772 C 1685.19 -6.57369 -1.15856 0
M  V30 17773 H 1684.46 -0.556868 -0.488855 0
M  V30 17774 H 1687.1 -1.80122 -0.65026 0
M  V30 17775 H 1685.41 -2.22952 -3.22179 0
M  V30 17776 H 1687.11 -2.58744 -3.06354 0
M  V30 17777 H 1683.7 -3.70134 -2.16098 0
M  V30 17778 H 1687.88 -4.61911 -1.81527 0
M  V30 17779 H 1683.14 -5.95928 -1.36676 0
M  V30 17780 H 1687.31 -6.88741 -1.03001 0
M  V30 17781 H 1684.94 -7.55977 -0.800148 0
M  V30 17782 N 1686.51 0.822941 -1.34408 0
M  V30 17783 C 1687.45 1.93899 -1.20326 0
M  V30 17784 C 1688.42 1.62323 -0.0949083 0
M  V30 17785 O 1689.61 1.86698 -0.260056 0
M  V30 17786 C 1686.73 3.27884 -0.849118 0
M  V30 17787 C 1685.78 3.78421 -1.96723 0
M  V30 17788 S 1686.61 3.98182 -3.58066 0
M  V30 17789 C 1687.77 5.35094 -3.24693 0
M  V30 17790 H 1688 2.05547 -2.14797 0
M  V30 17791 H 1685.54 0.978513 -1.19434 0
M  V30 17792 H 1687.49 4.05296 -0.651579 0
M  V30 17793 H 1686.15 3.14005 0.0772533 0
M  V30 17794 H 1685.35 4.75416 -1.67318 0
M  V30 17795 H 1684.95 3.07955 -2.12225 0
M  V30 17796 H 1687.24 6.18507 -2.76507 0
M  V30 17797 H 1688.18 5.69482 -4.20828 0
M  V30 17798 H 1688.59 5.00604 -2.60876 0
M  V30 17799 N 1687.99 1.18137 1.04314 0
M  V30 17800 C 1688.95 0.908268 2.10436 0
M  V30 17801 C 1689.95 -0.105315 1.60455 0
M  V30 17802 O 1691.14 0.12785 1.7373 0
M  V30 17803 C 1688.28 0.362233 3.3897 0
M  V30 17804 H 1689.47 1.84928 2.36096 0
M  V30 17805 H 1687.02 0.993048 1.20699 0
M  V30 17806 H 1687.76 -0.58551 3.18971 0
M  V30 17807 H 1687.54 1.09285 3.76562 0
M  V30 17808 H 1689.03 0.18977 4.17169 0
M  V30 17809 N 1689.47 -1.23186 0.98301 0
M  V30 17810 C 1690.7 -1.95702 0.671453 0
M  V30 17811 C 1691.11 -1.72737 -0.76206 0
M  V30 17812 O 1690.47 -1.02037 -1.5131 0
M  V30 17813 C 1690.52 -3.48642 0.955573 0
M  V30 17814 O 1690.24 -3.70829 2.33275 0
M  V30 17815 C 1691.74 -4.38354 0.660333 0
M  V30 17816 H 1688.96 -0.623006 0.249209 0
M  V30 17817 H 1691.51 -1.56606 1.3151 0
M  V30 17818 H 1689.66 -3.85743 0.357892 0
M  V30 17819 H 1690.07 -4.65104 2.42443 0
M  V30 17820 H 1691.55 -5.44456 0.909477 0
M  V30 17821 H 1692.03 -4.37323 -0.405615 0
M  V30 17822 H 1692.63 -4.06864 1.23861 0
M  V30 17823 N 1690.95 -0.754982 -1.38339 0
M  V30 17824 C 1692.36 -0.379276 -1.82807 0
M  V30 17825 C 1692.71 1.09228 -1.62984 0
M  V30 17826 O 1691.83 1.84445 -1.13177 0
M  V30 17827 C 1692.43 -0.681628 -3.31872 0
M  V30 17828 C 1690.99 -0.359183 -3.74682 0
M  V30 17829 C 1690.13 -0.93409 -2.61094 0
M  V30 17830 H 1693.09 -0.951019 -1.27048 0
M  V30 17831 H 1693.11 0.0396803 -3.80479 0
M  V30 17832 H 1692.62 -1.75271 -3.46268 0
M  V30 17833 H 1690.72 0.705257 -3.65865 0
M  V30 17834 H 1690.83 -0.85571 -4.71396 0
M  V30 17835 H 1689.2 -0.359379 -2.52152 0
M  V30 17836 H 1689.98 -2.01023 -2.78289 0
M  V30 17837 N 1692.42 1.49318 -0.504168 0
M  V30 17838 C 1693.33 2.32958 0.277053 0
M  V30 17839 C 1694.35 1.44838 0.964266 0
M  V30 17840 O 1695.53 1.77856 0.944947 0
M  V30 17841 C 1692.59 3.20352 1.32572 0
M  V30 17842 C 1691.65 4.24326 0.651606 0
M  V30 17843 C 1690.89 5.07544 1.65031 0
M  V30 17844 O 1691.11 4.92326 2.88047 0
M  V30 17845 O 1690.04 5.89737 1.20388 0
M  V30 17846 H 1693.87 3.00952 -0.40763 0
M  V30 17847 H 1691.45 1.47023 -0.265453 0
M  V30 17848 H 1693.34 3.74483 1.93237 0
M  V30 17849 H 1692.01 2.5505 1.99327 0
M  V30 17850 H 1690.92 3.741 0.00513384 0
M  V30 17851 H 1692.25 4.92193 0.0264424 0
M  V30 17852 N 1693.9 0.238138 1.5579 0
M  V30 17853 C 1695.15 -0.389031 1.98728 0
M  V30 17854 C 1695.48 -1.58584 1.12612 0
M  V30 17855 O 1694.73 -1.94917 0.174879 0
M  V30 17856 C 1695.03 -0.850646 3.47129 0
M  V30 17857 C 1694.7 0.237442 4.50274 0
M  V30 17858 C 1693.36 0.536307 4.78202 0
M  V30 17859 C 1695.71 0.972476 5.12047 0
M  V30 17860 C 1693.04 1.57443 5.6518 0
M  V30 17861 C 1695.39 2.00006 6.0015 0
M  V30 17862 C 1694.06 2.30566 6.26415 0
M  V30 17863 H 1693.33 -0.142357 0.727197 0
M  V30 17864 H 1695.97 0.34413 1.88383 0
M  V30 17865 H 1694.28 -1.66286 3.54762 0
M  V30 17866 H 1695.97 -1.34604 3.77734 0
M  V30 17867 H 1692.56 -0.00564033 4.286 0
M  V30 17868 H 1696.75 0.75483 4.90526 0
M  V30 17869 H 1692 1.81664 5.83788 0
M  V30 17870 H 1696.18 2.57458 6.47061 0
M  V30 17871 H 1693.81 3.11148 6.93607 0
M  V30 17872 N 1695.38 -1.57561 -0.0350783 0
M  V30 17873 C 1696.31 -2.09201 -1.03716 0
M  V30 17874 C 1697.29 -0.993231 -1.3809 0
M  V30 17875 O 1698.48 -1.26812 -1.47079 0
M  V30 17876 C 1695.61 -2.56643 -2.3399 0
M  V30 17877 C 1694.56 -3.70731 -2.13874 0
M  V30 17878 C 1693.89 -4.04358 -3.49855 0
M  V30 17879 C 1695.19 -4.99393 -1.52982 0
M  V30 17880 H 1696.88 -2.93176 -0.60731 0
M  V30 17881 H 1694.43 -1.41036 -0.290683 0
M  V30 17882 H 1696.38 -2.9139 -3.04417 0
M  V30 17883 H 1695.1 -1.69744 -2.79024 0
M  V30 17884 H 1693.76 -3.36325 -1.45881 0
M  V30 17885 H 1693.41 -3.14534 -3.92527 0
M  V30 17886 H 1693.11 -4.81201 -3.37223 0
M  V30 17887 H 1694.63 -4.41633 -4.21654 0
M  V30 17888 H 1696.05 -5.32135 -2.13319 0
M  V30 17889 H 1694.45 -5.80807 -1.50943 0
M  V30 17890 H 1695.52 -4.82367 -0.494993 0
M  V30 17891 N 1696.86 0.307236 -1.54576 0
M  V30 17892 C 1698.11 1.04082 -1.72771 0
M  V30 17893 C 1698.42 1.88639 -0.517188 0
M  V30 17894 O 1699.63 2.65215 -0.580811 0
M  V30 17895 C 1698.08 1.90015 -3.05651 0
M  V30 17896 C 1697.69 1.10491 -4.34161 0
M  V30 17897 C 1699.43 2.6301 -3.33205 0
M  V30 17898 C 1697.34 1.95664 -5.58094 0
M  V30 17899 H 1696.27 0.392307 -0.643903 0
M  V30 17900 H 1698.92 0.29815 -1.81062 0
M  V30 17901 H 1697.3 2.68245 -2.91309 0
M  V30 17902 H 1698.48 0.369181 -4.59319 0
M  V30 17903 H 1696.79 0.491053 -4.13494 0
M  V30 17904 H 1699.39 3.27074 -4.22997 0
M  V30 17905 H 1699.73 3.31512 -2.51804 0
M  V30 17906 H 1700.27 1.91833 -3.4849 0
M  V30 17907 H 1697.01 1.31643 -6.42145 0
M  V30 17908 H 1696.53 2.66927 -5.37131 0
M  V30 17909 H 1698.2 2.53861 -5.95116 0
M  V30 17910 N 1698.34 1.46926 0.570122 0
M  V30 17911 C 1699.28 1.5883 1.69929 0
M  V30 17912 C 1700.28 0.456167 1.63143 0
M  V30 17913 O 1701.48 0.633503 1.68484 0
M  V30 17914 H 1697.86 0.499606 0.562048 0
M  V30 17915 H 1699.83 2.53744 1.57023 0
M  V30 17916 C 1698.58 1.60761 3.08304 0
M  V30 17917 H 1697.9 2.47219 3.14202 0
M  V30 17918 H 1699.34 1.73142 3.87037 0
M  V30 17919 C 1697.8 0.338515 3.35195 0
M  V30 17920 O 1698.33 -0.565917 3.97694 0
M  V30 17921 N 1696.54 0.222525 2.89747 0
M  V30 17922 H 1696.08 0.959435 2.39066 0
M  V30 17923 H 1696.04 -0.625697 3.08111 0
M  V30 17924 N 1699.82 -0.815801 1.34842 0
M  V30 17925 C 1701.09 -1.55867 1.18173 0
M  V30 17926 C 1701.47 -2.09698 -0.242848 0
M  V30 17927 O 1700.82 -1.91594 -1.24514 0
M  V30 17928 C 1701.03 -2.67445 2.24219 0
M  V30 17929 C 1702.38 -3.36027 2.59559 0
M  V30 17930 O 1703.4 -2.77708 2.23062 0
M  V30 17931 O 1702.26 -4.4136 3.22279 0
M  V30 17932 H 1699.36 -0.688242 0.458533 0
M  V30 17933 H 1701.9 -0.856558 1.46496 0
M  V30 17934 H 1700.67 -2.25473 3.19809 0
M  V30 17935 H 1700.3 -3.453 1.97113 0
M  V30 17936 N 1701.29 -1.18689 -1.03686 0
M  V30 17937 C 1702.52 -1.00814 -1.80333 0
M  V30 17938 C 1702.93 0.446495 -1.83856 0
M  V30 17939 O 1702.27 1.32192 -1.27558 0
M  V30 17940 C 1702.34 -1.49133 -3.27108 0
M  V30 17941 C 1702 -2.97112 -3.47237 0
M  V30 17942 C 1703 -3.94938 -3.38113 0
M  V30 17943 C 1700.68 -3.35628 -3.7371 0
M  V30 17944 C 1702.68 -5.29274 -3.55172 0
M  V30 17945 C 1700.36 -4.70126 -3.90416 0
M  V30 17946 C 1701.36 -5.66758 -3.81148 0
M  V30 17947 O 1701.05 -6.98821 -3.97371 0
M  V30 17948 H 1700.78 -0.356077 -0.574617 0
M  V30 17949 H 1703.34 -1.57754 -1.31541 0
M  V30 17950 H 1701.57 -0.865624 -3.76887 0
M  V30 17951 H 1703.25 -1.27591 -3.85325 0
M  V30 17952 H 1704.02 -3.66527 -3.17621 0
M  V30 17953 H 1699.9 -2.6097 -3.8002 0
M  V30 17954 H 1703.44 -6.04684 -3.47854 0
M  V30 17955 H 1699.34 -4.98236 -4.10404 0
M  V30 17956 H 1700.11 -7.05779 -4.14509 0
M  V30 17957 N 1702.77 1.22662 -0.989529 0
M  V30 17958 C 1704 1.95343 -0.681822 0
M  V30 17959 C 1704.41 1.73139 0.752889 0
M  V30 17960 O 1703.77 1.02838 1.50766 0
M  V30 17961 C 1703.82 3.4813 -0.974049 0
M  V30 17962 O 1703.54 3.69587 -2.35238 0
M  V30 17963 C 1705.04 4.37998 -0.683571 0
M  V30 17964 H 1702.26 0.621675 -0.252509 0
M  V30 17965 H 1704.81 1.55906 -1.32339 0
M  V30 17966 H 1702.96 3.85548 -0.378344 0
M  V30 17967 H 1703.38 4.63812 -2.44906 0
M  V30 17968 H 1704.85 5.43966 -0.938338 0
M  V30 17969 H 1705.33 4.37532 0.382417 0
M  V30 17970 H 1705.93 4.06202 -1.26017 0
M  V30 17971 N 1704.25 0.762308 1.37937 0
M  V30 17972 C 1705.2 0.115944 2.27705 0
M  V30 17973 C 1706.18 -0.684063 1.45634 0
M  V30 17974 O 1707.38 -0.548586 1.68284 0
M  V30 17975 C 1704.5 -0.76969 3.3456 0
M  V30 17976 C 1703.59 0.0376368 4.24083 0
M  V30 17977 N 1703.98 1.07849 4.94168 0
M  V30 17978 C 1702.28 -0.187824 4.45604 0
M  V30 17979 C 1702.98 1.56769 5.60177 0
M  V30 17980 N 1701.96 0.881477 5.36406 0
M  V30 17981 H 1705.76 0.912994 2.79359 0
M  V30 17982 H 1703.27 0.599168 1.50943 0
M  V30 17983 H 1705.27 -1.24844 3.97768 0
M  V30 17984 H 1703.93 -1.56559 2.84463 0
M  V30 17985 H 1704.94 1.46046 4.96881 0
M  V30 17986 H 1701.62 -0.95638 4.06398 0
M  V30 17987 H 1703.01 2.43517 6.26218 0
M  V30 17988 N 1705.73 -1.49049 0.51208 0
M  V30 17989 C 1706.68 -2.30981 -0.273991 0
M  V30 17990 C 1707.67 -1.40092 -0.952402 0
M  V30 17991 O 1708.88 -1.57088 -0.878828 0
M  V30 17992 H 1705.25 -0.744317 -0.107221 0
M  V30 17993 H 1707.22 -2.95185 0.436866 0
M  V30 17994 C 1705.97 -3.21714 -1.31892 0
M  V30 17995 H 1705.29 -3.91585 -0.806302 0
M  V30 17996 H 1706.73 -3.81961 -1.8407 0
M  V30 17997 C 1705.19 -2.42082 -2.34303 0
M  V30 17998 O 1705.72 -2.13285 -3.40401 0
M  V30 17999 N 1703.93 -2.03903 -2.07055 0
M  V30 18000 H 1703.48 -2.27523 -1.20794 0
M  V30 18001 H 1703.43 -1.50932 -2.75802 0
M  V30 18002 N 1707.21 -0.246397 -1.55662 0
M  V30 18003 C 1708.45 0.378973 -1.98108 0
M  V30 18004 C 1708.77 1.59106 -1.13775 0
M  V30 18005 O 1709.97 2.28754 -1.46232 0
M  V30 18006 C 1708.43 0.725634 -3.52509 0
M  V30 18007 C 1708.04 -0.465024 -4.4558 0
M  V30 18008 C 1709.78 1.31522 -4.03611 0
M  V30 18009 C 1707.69 -0.0945447 -5.91324 0
M  V30 18010 H 1706.62 0.14537 -0.739854 0
M  V30 18011 H 1709.27 -0.346533 -1.80198 0
M  V30 18012 H 1707.65 1.50925 -3.66111 0
M  V30 18013 H 1708.83 -1.24236 -4.43736 0
M  V30 18014 H 1707.14 -0.969507 -4.04956 0
M  V30 18015 H 1709.74 1.60573 -5.1002 0
M  V30 18016 H 1710.08 2.23952 -3.50929 0
M  V30 18017 H 1710.61 0.594515 -3.93332 0
M  V30 18018 H 1707.35 -0.985965 -6.48042 0
M  V30 18019 H 1706.87 0.646601 -5.96305 0
M  V30 18020 H 1708.55 0.323447 -6.46191 0
M  V30 18021 N 1708.68 1.57577 0.026722 0
M  V30 18022 C 1710.09 1.77689 0.573022 0
M  V30 18023 C 1710.45 0.877771 1.7547 0
M  V30 18024 O 1709.57 0.0732156 2.16276 0
M  V30 18025 C 1710.17 3.22239 1.0463 0
M  V30 18026 C 1708.72 3.4354 1.5381 0
M  V30 18027 C 1707.87 2.73163 0.47722 0
M  V30 18028 H 1710.82 1.57441 -0.199502 0
M  V30 18029 H 1710.84 3.28882 1.91355 0
M  V30 18030 H 1710.36 3.87654 0.186047 0
M  V30 18031 H 1708.46 2.83304 2.42012 0
M  V30 18032 H 1708.57 4.52158 1.58398 0
M  V30 18033 H 1706.93 2.37004 0.932793 0
M  V30 18034 H 1707.72 3.41261 -0.373605 0
M  V30 18035 N 1710.16 -0.299034 1.54737 0
M  V30 18036 C 1711.09 -1.37358 1.88826 0
M  V30 18037 C 1712.07 -1.52802 0.747367 0
M  V30 18038 O 1713.26 -1.66277 1.00327 0
M  V30 18039 C 1710.39 -2.73746 2.13729 0
M  V30 18040 C 1709.34 -2.73065 3.29575 0
M  V30 18041 C 1708.67 -4.12761 3.39901 0
M  V30 18042 C 1709.97 -2.34631 4.66632 0
M  V30 18043 H 1711.66 -1.09077 2.78824 0
M  V30 18044 H 1709.21 -0.523276 1.34156 0
M  V30 18045 H 1711.16 -3.49006 2.36162 0
M  V30 18046 H 1709.88 -3.03556 1.20504 0
M  V30 18047 H 1708.54 -2.00261 3.07068 0
M  V30 18048 H 1708.19 -4.39751 2.44189 0
M  V30 18049 H 1707.89 -4.13205 4.17774 0
M  V30 18050 H 1709.42 -4.89797 3.64597 0
M  V30 18051 H 1710.83 -2.99608 4.88782 0
M  V30 18052 H 1709.23 -2.46285 5.47233 0
M  V30 18053 H 1710.3 -1.29759 4.67216 0
M  V30 18054 N 1711.64 -1.47227 -0.562322 0
M  V30 18055 C 1712.89 -1.52851 -1.31604 0
M  V30 18056 C 1713.2 -0.193236 -1.94643 0
M  V30 18057 O 1714.41 -0.127429 -2.71201 0
M  V30 18058 C 1712.86 -2.69422 -2.3862 0
M  V30 18059 C 1712.47 -4.09457 -1.81794 0
M  V30 18060 C 1714.22 -2.84334 -3.15205 0
M  V30 18061 C 1712.12 -5.17337 -2.8656 0
M  V30 18062 H 1711.05 -0.568923 -0.494816 0
M  V30 18063 H 1713.7 -1.73489 -0.597819 0
M  V30 18064 H 1712.09 -2.42153 -3.13333 0
M  V30 18065 H 1713.26 -4.46606 -1.13487 0
M  V30 18066 H 1711.57 -3.99387 -1.17811 0
M  V30 18067 H 1714.17 -3.621 -3.93431 0
M  V30 18068 H 1714.51 -1.9259 -3.69073 0
M  V30 18069 H 1715.05 -3.11348 -2.47603 0
M  V30 18070 H 1711.79 -6.1094 -2.37554 0
M  V30 18071 H 1711.31 -4.8471 -3.53293 0
M  V30 18072 H 1712.99 -5.44065 -3.50146 0
M  V30 18073 N 1713.12 0.808639 -1.35273 0
M  V30 18074 C 1714.39 1.55238 -1.18998 0
M  V30 18075 C 1714.77 2.09824 0.231723 0
M  V30 18076 O 1714.12 1.92252 1.23497 0
M  V30 18077 C 1714.33 2.66252 -2.25634 0
M  V30 18078 C 1715.68 3.34646 -2.61338 0
M  V30 18079 O 1716.7 2.76521 -2.24532 0
M  V30 18080 O 1715.56 4.39644 -3.24615 0
M  V30 18081 H 1712.66 0.6858 -0.462176 0
M  V30 18082 H 1715.2 0.848777 -1.46949 0
M  V30 18083 H 1713.98 2.23774 -3.21 0
M  V30 18084 H 1713.6 3.4425 -1.98941 0
M  V30 18085 N 1714.6 1.19237 1.03055 0
M  V30 18086 C 1715.87 0.903353 1.7349 0
M  V30 18087 C 1716.25 -0.591365 2.02648 0
M  V30 18088 O 1715.6 -1.54906 1.67978 0
M  V30 18089 C 1715.81 1.7615 3.01284 0
M  V30 18090 C 1717.16 1.99477 3.74825 0
M  V30 18091 O 1718.18 1.73287 3.11207 0
M  V30 18092 O 1717.04 2.43628 4.89191 0
M  V30 18093 H 1714.14 0.336512 0.755439 0
M  V30 18094 H 1716.68 1.30041 1.09029 0
M  V30 18095 H 1715.45 2.77428 2.75952 0
M  V30 18096 H 1715.08 1.36361 3.73486 0
M  V30 18097 N 1716.07 -1.22136 0.99602 0
M  V30 18098 C 1717.3 -1.94978 0.692172 0
M  V30 18099 C 1717.72 -1.73536 -0.743696 0
M  V30 18100 O 1717.07 -1.03637 -1.50219 0
M  V30 18101 C 1717.13 -3.47609 0.992498 0
M  V30 18102 O 1716.85 -3.68334 2.37195 0
M  V30 18103 C 1718.35 -4.37629 0.70679 0
M  V30 18104 H 1715.57 -0.620327 0.255802 0
M  V30 18105 H 1718.11 -1.55202 1.33164 0
M  V30 18106 H 1716.27 -3.85342 0.398785 0
M  V30 18107 H 1716.68 -4.62506 2.47362 0
M  V30 18108 H 1718.15 -5.43461 0.967173 0
M  V30 18109 H 1718.63 -4.37729 -0.359208 0
M  V30 18110 H 1719.24 -4.05528 1.2817 0
M  V30 18111 N 1717.55 -0.769612 -1.37531 0
M  V30 18112 C 1718.83 -0.257788 -1.93894 0
M  V30 18113 C 1719.21 1.24679 -1.70348 0
M  V30 18114 O 1718.56 2.02892 -1.05106 0
M  V30 18115 C 1718.77 -0.628857 -3.43288 0
M  V30 18116 C 1720.12 -0.597452 -4.20376 0
M  V30 18117 O 1721.14 -0.568117 -3.5164 0
M  V30 18118 O 1720 -0.622627 -5.42942 0
M  V30 18119 H 1717.09 -0.0588144 -0.824906 0
M  V30 18120 H 1719.64 -0.85082 -1.4683 0
M  V30 18121 H 1718.41 -1.66733 -3.54 0
M  V30 18122 H 1718.03 -0.00865929 -3.97599 0
M  V30 18123 N 1719.03 1.48775 -0.519977 0
M  V30 18124 C 1720.28 2.02792 0.0177768 0
M  V30 18125 C 1720.61 1.3972 1.34878 0
M  V30 18126 O 1719.88 0.539438 1.8687 0
M  V30 18127 C 1720.17 3.59786 0.150355 0
M  V30 18128 C 1720.02 4.33356 -1.20511 0
M  V30 18129 C 1721.34 4.31172 0.881959 0
M  V30 18130 H 1718.46 0.736983 0.00498634 0
M  V30 18131 H 1721.1 1.77603 -0.675069 0
M  V30 18132 H 1719.25 3.81378 0.740452 0
M  V30 18133 H 1720.92 4.23209 -1.83554 0
M  V30 18134 H 1719.17 3.95167 -1.78957 0
M  V30 18135 H 1719.84 5.4162 -1.06544 0
M  V30 18136 H 1722.31 4.14349 0.381302 0
M  V30 18137 H 1721.19 5.40729 0.943601 0
M  V30 18138 H 1721.45 3.97747 1.93001 0
M  V30 18139 N 1720.51 0.254649 1.55529 0
M  V30 18140 C 1721.79 -0.418663 1.91067 0
M  V30 18141 C 1722.17 -1.75284 1.17638 0
M  V30 18142 O 1721.51 -2.26569 0.296411 0
M  V30 18143 C 1721.72 -0.579125 3.44162 0
M  V30 18144 C 1723.07 -0.871451 4.15561 0
M  V30 18145 O 1724.1 -0.664702 3.49943 0
M  V30 18146 O 1722.95 -1.26563 5.31643 0
M  V30 18147 H 1720.05 -0.22593 0.795541 0
M  V30 18148 H 1722.59 0.299288 1.6704 0
M  V30 18149 H 1721.37 0.36062 3.89635 0
M  V30 18150 H 1720.99 -1.34732 3.74076 0
M  V30 18151 N 1721.99 -1.57589 -0.0183649 0
M  V30 18152 C 1722.9 -2.10665 -1.03235 0
M  V30 18153 C 1723.91 -1.04767 -1.38924 0
M  V30 18154 O 1725.09 -1.36565 -1.48027 0
M  V30 18155 C 1722.15 -2.58432 -2.31114 0
M  V30 18156 C 1721.21 -3.78856 -2.01908 0
M  V30 18157 C 1720.45 -4.24335 -3.2369 0
M  V30 18158 O 1720.67 -3.69266 -4.3474 0
M  V30 18159 O 1719.6 -5.16671 -3.08763 0
M  V30 18160 H 1723.43 -2.97485 -0.611254 0
M  V30 18161 H 1721.02 -1.47524 -0.236035 0
M  V30 18162 H 1722.9 -2.89438 -3.06274 0
M  V30 18163 H 1721.57 -1.74718 -2.72498 0
M  V30 18164 H 1720.48 -3.52852 -1.24282 0
M  V30 18165 H 1721.81 -4.63587 -1.65373 0
M  V30 18166 N 1723.46 0.290824 -1.54893 0
M  V30 18167 C 1724.41 1.37898 -1.87315 0
M  V30 18168 C 1725.41 1.52001 -0.747794 0
M  V30 18169 O 1726.61 1.53998 -0.93192 0
M  V30 18170 H 1722.99 0.460824 -0.59426 0
M  V30 18171 H 1724.96 1.07794 -2.7825 0
M  V30 18172 C 1723.71 2.73568 -2.14606 0
M  V30 18173 H 1723.03 2.63501 -3.00678 0
M  V30 18174 H 1724.47 3.48693 -2.41225 0
M  V30 18175 C 1722.93 3.23291 -0.947865 0
M  V30 18176 O 1723.46 4.01325 -0.173479 0
M  V30 18177 N 1721.67 2.80743 -0.750444 0
M  V30 18178 H 1721.21 2.174 -1.38184 0
M  V30 18179 H 1721.17 3.14361 0.0496746 0
M  V30 18180 N 1724.94 1.47523 0.554506 0
M  V30 18181 C 1725.85 1.62851 1.68869 0
M  V30 18182 C 1726.87 0.511305 1.66318 0
M  V30 18183 O 1728.04 0.779195 1.85716 0
M  V30 18184 C 1725.11 1.64161 3.05372 0
M  V30 18185 C 1724.17 2.87327 3.1897 0
M  V30 18186 C 1723.4 2.88566 4.48961 0
M  V30 18187 O 1723.63 1.98937 5.34584 0
M  V30 18188 O 1722.56 3.80459 4.66406 0
M  V30 18189 H 1726.39 2.58826 1.5888 0
M  V30 18190 H 1723.97 1.3064 0.724822 0
M  V30 18191 H 1725.85 1.67686 3.866 0
M  V30 18192 H 1724.53 0.713534 3.15738 0
M  V30 18193 H 1723.44 2.89345 2.37129 0
M  V30 18194 H 1724.77 3.79438 3.13509 0
M  V30 18195 N 1726.42 -0.801453 1.357 0
M  V30 18196 C 1727.33 -1.94505 1.31167 0
M  V30 18197 C 1728.35 -1.72657 0.215747 0
M  V30 18198 O 1729.52 -1.96399 0.446022 0
M  V30 18199 C 1726.59 -3.29175 1.08834 0
M  V30 18200 C 1725.65 -3.63883 2.27788 0
M  V30 18201 C 1724.88 -4.92127 2.06511 0
M  V30 18202 O 1725.1 -5.60947 1.03416 0
M  V30 18203 O 1724.04 -5.25213 2.93998 0
M  V30 18204 H 1727.86 -2.01277 2.27423 0
M  V30 18205 H 1725.45 -0.939979 1.16124 0
M  V30 18206 H 1727.33 -4.09787 0.98248 0
M  V30 18207 H 1726.01 -3.23322 0.156326 0
M  V30 18208 H 1724.91 -2.83627 2.4394 0
M  V30 18209 H 1726.25 -3.74446 3.19454 0
M  V30 18210 N 1727.9 -1.19782 -1.02421 0
M  V30 18211 C 1729.31 -0.951034 -1.2817 0
M  V30 18212 C 1729.51 0.373883 -1.98001 0
M  V30 18213 O 1728.57 1.10427 -2.27073 0
M  V30 18214 C 1729.88 -2.12833 -2.12421 0
M  V30 18215 C 1731.43 -2.16847 -2.25713 0
M  V30 18216 C 1731.91 -3.34041 -3.13337 0
M  V30 18217 N 1733.4 -3.34007 -3.20926 0
M  V30 18218 C 1734.13 -4.21333 -3.88929 0
M  V30 18219 N 1733.63 -5.18823 -4.59123 0
M  V30 18220 N 1735.42 -4.09197 -3.85376 0
M  V30 18221 H 1727.57 -2.05017 -0.555122 0
M  V30 18222 H 1729.84 -0.896717 -0.307576 0
M  V30 18223 H 1729.54 -3.08742 -1.68437 0
M  V30 18224 H 1729.42 -2.10288 -3.13143 0
M  V30 18225 H 1731.8 -1.21506 -2.68924 0
M  V30 18226 H 1731.88 -2.23444 -1.24525 0
M  V30 18227 H 1731.53 -4.29665 -2.70833 0
M  V30 18228 H 1731.46 -3.24682 -4.14595 0
M  V30 18229 H 1733.95 -2.63441 -2.70938 0
M  V30 18230 H 1734.26 -5.81796 -5.08658 0
M  V30 18231 H 1732.61 -5.22767 -4.57973 0
M  V30 18232 H 1735.8 -3.32308 -3.2968 0
M  V30 18233 H 1735.97 -4.77465 -4.38099 0
M  V30 18234 N 1729.38 1.21606 -1.00248 0
M  V30 18235 C 1730.31 2.26159 -0.580911 0
M  V30 18236 C 1731.29 1.65402 0.397017 0
M  V30 18237 O 1732.47 1.92089 0.285552 0
M  V30 18238 C 1729.6 3.47168 0.0957564 0
M  V30 18239 C 1728.56 4.20425 -0.801695 0
M  V30 18240 C 1727.88 5.34699 0.00842241 0
M  V30 18241 C 1729.18 4.78086 -2.10311 0
M  V30 18242 H 1730.88 2.61675 -1.45487 0
M  V30 18243 H 1728.42 1.25786 -0.700995 0
M  V30 18244 H 1730.38 4.19477 0.402141 0
M  V30 18245 H 1729.1 3.10775 1.00433 0
M  V30 18246 H 1727.76 3.49963 -1.09187 0
M  V30 18247 H 1727.41 4.94548 0.918206 0
M  V30 18248 H 1727.11 5.84639 -0.589105 0
M  V30 18249 H 1728.63 6.09819 0.30868 0
M  V30 18250 H 1730.05 5.42287 -1.86004 0
M  V30 18251 H 1728.44 5.38405 -2.65028 0
M  V30 18252 H 1729.51 3.97607 -2.77555 0
M  V30 18253 N 1730.86 0.776895 1.37121 0
M  V30 18254 C 1732.27 0.457116 1.52914 0
M  V30 18255 C 1732.47 -1.0265 1.73394 0
M  V30 18256 O 1731.53 -1.81224 1.75824 0
M  V30 18257 C 1732.84 1.27667 2.72253 0
M  V30 18258 C 1734.39 1.26909 2.86117 0
M  V30 18259 C 1734.86 2.0721 4.08446 0
M  V30 18260 N 1736.35 2.04591 4.15568 0
M  V30 18261 C 1737.09 2.63502 5.09268 0
M  V30 18262 N 1736.59 3.31222 6.08493 0
M  V30 18263 N 1738.38 2.53304 5.0179 0
M  V30 18264 H 1730.53 1.73811 1.2208 0
M  V30 18265 H 1732.79 0.738142 0.594853 0
M  V30 18266 H 1732.5 2.32825 2.63601 0
M  V30 18267 H 1732.37 0.909363 3.66074 0
M  V30 18268 H 1734.76 0.225476 2.94237 0
M  V30 18269 H 1734.84 1.67607 1.9324 0
M  V30 18270 H 1734.48 3.11595 4.01087 0
M  V30 18271 H 1734.41 1.63891 5.00447 0
M  V30 18272 H 1736.91 1.55293 3.44518 0
M  V30 18273 H 1737.22 3.73535 6.76529 0
M  V30 18274 H 1735.56 3.35322 6.08756 0
M  V30 18275 H 1738.75 2.00009 4.23218 0
M  V30 18276 H 1738.93 2.99509 5.74629 0
M  V30 18277 N 1732.33 -1.48497 0.527859 0
M  V30 18278 C 1733.3 -2.2809 -0.225312 0
M  V30 18279 C 1734.3 -1.35251 -0.869707 0
M  V30 18280 O 1735.49 -1.58163 -0.730086 0
M  V30 18281 C 1732.62 -3.14061 -1.32584 0
M  V30 18282 H 1733.81 -2.96139 0.473465 0
M  V30 18283 H 1731.36 -1.53703 0.283724 0
M  V30 18284 H 1732.1 -2.50638 -2.05794 0
M  V30 18285 H 1731.88 -3.82351 -0.868922 0
M  V30 18286 H 1733.37 -3.74106 -1.85566 0
M  V30 18287 N 1733.81 -0.262893 -1.55392 0
M  V30 18288 C 1735.22 0.237224 -1.85187 0
M  V30 18289 C 1735.57 1.56383 -1.18486 0
M  V30 18290 O 1734.7 2.1126 -0.468849 0
M  V30 18291 C 1735.29 0.437206 -3.35967 0
M  V30 18292 C 1733.85 0.881568 -3.65931 0
M  V30 18293 C 1733 -0.0321489 -2.77281 0
M  V30 18294 H 1735.95 -0.485025 -1.51107 0
M  V30 18295 H 1735.97 1.27755 -3.58412 0
M  V30 18296 H 1735.48 -0.528474 -3.84485 0
M  V30 18297 H 1733.58 1.85915 -3.22903 0
M  V30 18298 H 1733.7 0.727355 -4.73547 0
M  V30 18299 H 1732.06 0.48204 -2.50097 0
M  V30 18300 H 1732.84 -0.99349 -3.2861 0
M  V30 18301 N 1735.29 1.57597 0.0100073 0
M  V30 18302 C 1736.7 1.78287 0.554143 0
M  V30 18303 C 1737.05 0.896332 1.74529 0
M  V30 18304 O 1736.18 0.0961505 2.16186 0
M  V30 18305 C 1736.77 3.23331 1.01206 0
M  V30 18306 C 1735.33 3.45152 1.50157 0
M  V30 18307 C 1734.48 2.73654 0.448221 0
M  V30 18308 H 1737.43 1.57221 -0.216189 0
M  V30 18309 H 1737.45 3.30893 1.87856 0
M  V30 18310 H 1736.96 3.87829 0.144921 0
M  V30 18311 H 1735.06 2.85854 2.38994 0
M  V30 18312 H 1735.18 4.53813 1.53594 0
M  V30 18313 H 1733.54 2.3798 0.907603 0
M  V30 18314 H 1734.32 3.40846 -0.40978 0
M  V30 18315 N 1736.77 -0.282606 1.55045 0
M  V30 18316 C 1738.18 -0.854338 1.66006 0
M  V30 18317 C 1738.53 -1.87408 0.580753 0
M  V30 18318 O 1737.65 -2.14588 -0.279449 0
M  V30 18319 C 1738.25 -1.55637 3.00936 0
M  V30 18320 C 1736.81 -2.07626 3.13956 0
M  V30 18321 C 1735.96 -0.915064 2.61767 0
M  V30 18322 H 1738.91 -0.0591711 1.5859 0
M  V30 18323 H 1738.93 -2.42289 2.93388 0
M  V30 18324 H 1738.44 -0.813942 3.79469 0
M  V30 18325 H 1736.54 -2.84859 2.40179 0
M  V30 18326 H 1736.65 -2.29816 4.20382 0
M  V30 18327 H 1735.02 -1.30577 2.18682 0
M  V30 18328 H 1735.8 -0.186298 3.42794 0
M  V30 18329 N 1738.25 -1.47815 -0.546675 0
M  V30 18330 C 1739.66 -1.48715 -1.12875 0
M  V30 18331 C 1740.01 -0.247647 -1.94631 0
M  V30 18332 O 1739.13 0.646615 -2.06514 0
M  V30 18333 C 1739.73 -2.69459 -2.05371 0
M  V30 18334 C 1738.29 -2.73285 -2.58829 0
M  V30 18335 C 1737.43 -2.4198 -1.35429 0
M  V30 18336 H 1740.38 -1.55172 -0.332746 0
M  V30 18337 H 1740.41 -2.47028 -2.89408 0
M  V30 18338 H 1739.92 -3.59656 -1.4584 0
M  V30 18339 H 1738.02 -1.87254 -3.22128 0
M  V30 18340 H 1738.13 -3.74265 -2.99103 0
M  V30 18341 H 1736.5 -1.92783 -1.66454 0
M  V30 18342 H 1737.28 -3.34397 -0.776753 0
M  V30 18343 N 1739.72 0.794246 -1.36123 0
M  V30 18344 C 1740.95 1.58813 -1.33391 0
M  V30 18345 C 1741.37 1.87915 0.0834599 0
M  V30 18346 O 1740.73 1.47516 1.05398 0
M  V30 18347 C 1740.78 2.88887 -2.15816 0
M  V30 18348 O 1739.88 3.82271 -1.54734 0
M  V30 18349 H 1739.22 0.481924 -0.456777 0
M  V30 18350 H 1741.75 0.984818 -1.79339 0
M  V30 18351 H 1741.76 3.38201 -2.2822 0
M  V30 18352 H 1740.44 2.67032 -3.18852 0
M  V30 18353 H 1739.02 3.40852 -1.51242 0
M  V30 18354 N 1741.2 1.20323 1.01785 0
M  V30 18355 C 1742.61 1.01326 1.56812 0
M  V30 18356 C 1742.96 -0.430709 1.91414 0
M  V30 18357 O 1742.09 -1.31191 1.72098 0
M  V30 18358 C 1742.68 1.83304 2.8493 0
M  V30 18359 C 1741.24 1.68676 3.3649 0
M  V30 18360 C 1740.39 1.81315 2.0981 0
M  V30 18361 H 1743.34 1.34533 0.841815 0
M  V30 18362 H 1743.36 1.33567 3.56286 0
M  V30 18363 H 1742.87 2.88392 2.59714 0
M  V30 18364 H 1740.97 0.662195 3.66668 0
M  V30 18365 H 1741.09 2.49877 4.08777 0
M  V30 18366 H 1739.45 1.24488 2.22204 0
M  V30 18367 H 1740.23 2.87885 1.87022 0
M  V30 18368 N 1742.68 -1.21073 1.00892 0
M  V30 18369 C 1743.63 -2.25613 0.565829 0
M  V30 18370 C 1744.62 -1.64812 -0.391588 0
M  V30 18371 O 1745.83 -1.78078 -0.262352 0
M  V30 18372 H 1742.2 -0.733755 0.164643 0
M  V30 18373 H 1744.17 -2.60321 1.45862 0
M  V30 18374 C 1742.92 -3.47589 -0.087861 0
M  V30 18375 H 1742.25 -3.94647 0.639828 0
M  V30 18376 H 1743.69 -4.22459 -0.361115 0
M  V30 18377 C 1742.14 -3.09609 -1.32829 0
M  V30 18378 O 1742.67 -3.20449 -2.4223 0
M  V30 18379 N 1740.88 -2.64234 -1.2095 0
M  V30 18380 H 1740.43 -2.55613 -0.319301 0
M  V30 18381 H 1740.39 -2.39191 -2.04046 0
M  V30 18382 N 1744.16 -0.784156 -1.36707 0
M  V30 18383 C 1745.09 -0.136944 -2.28791 0
M  V30 18384 C 1746.1 0.65075 -1.49228 0
M  V30 18385 O 1747.29 0.486799 -1.71734 0
M  V30 18386 C 1744.39 0.829306 -3.28597 0
M  V30 18387 C 1743.57 0.09279 -4.37302 0
M  V30 18388 C 1742.62 0.974213 -5.17103 0
M  V30 18389 O 1741.65 0.433399 -5.67548 0
M  V30 18390 N 1742.85 2.29909 -5.33031 0
M  V30 18391 H 1745.62 -0.927906 -2.84974 0
M  V30 18392 H 1743.18 -0.637596 -1.48816 0
M  V30 18393 H 1745.17 1.42268 -3.78869 0
M  V30 18394 H 1743.74 1.52117 -2.73092 0
M  V30 18395 H 1742.96 -0.681615 -3.88262 0
M  V30 18396 H 1744.25 -0.415655 -5.07099 0
M  V30 18397 H 1743.65 2.76268 -4.93652 0
M  V30 18398 H 1742.2 2.84224 -5.86566 0
M  V30 18399 N 1745.64 1.48215 -0.535727 0
M  V30 18400 C 1746.58 2.31387 0.237209 0
M  V30 18401 C 1747.58 1.41589 0.929995 0
M  V30 18402 O 1748.78 1.58466 0.853725 0
M  V30 18403 H 1745.16 0.745928 0.0953663 0
M  V30 18404 H 1747.13 2.94452 -0.483772 0
M  V30 18405 C 1745.88 3.23771 1.26757 0
M  V30 18406 H 1745.2 3.92818 0.743902 0
M  V30 18407 H 1746.64 3.84841 1.7797 0
M  V30 18408 C 1745.1 2.45779 2.30422 0
M  V30 18409 O 1745.63 2.18673 3.36964 0
M  V30 18410 N 1743.84 2.07171 2.03785 0
M  V30 18411 H 1743.38 2.29416 1.17159 0
M  V30 18412 H 1743.34 1.55301 2.73366 0
M  V30 18413 N 1747.11 0.27113 1.5525 0
M  V30 18414 C 1748.06 -0.634087 2.2379 0
M  V30 18415 C 1749.06 -1.16101 1.23357 0
M  V30 18416 O 1750.26 -1.1151 1.413 0
M  V30 18417 H 1746.64 -0.223023 0.718168 0
M  V30 18418 H 1748.61 -0.0331304 2.98382 0
M  V30 18419 C 1747.36 -1.80879 2.96948 0
M  V30 18420 H 1746.68 -1.41252 3.74016 0
M  V30 18421 H 1748.12 -2.41888 3.48233 0
M  V30 18422 C 1746.58 -2.69481 2.02192 0
M  V30 18423 O 1747.11 -3.69725 1.57056 0
M  V30 18424 N 1745.32 -2.36565 1.68776 0
M  V30 18425 H 1744.86 -1.55096 2.05677 0
M  V30 18426 H 1744.82 -2.96119 1.05646 0
M  V30 18427 N 1748.59 -1.576 -0.00164943 0
M  V30 18428 C 1749.54 -2.09439 -1.01183 0
M  V30 18429 C 1750.53 -1.01402 -1.35698 0
M  V30 18430 O 1751.74 -1.19869 -1.34281 0
M  V30 18431 H 1748.12 -0.668732 -0.34395 0
M  V30 18432 H 1750.09 -2.93306 -0.549033 0
M  V30 18433 C 1748.84 -2.61163 -2.29542 0
M  V30 18434 H 1748.16 -3.43926 -2.0385 0
M  V30 18435 H 1749.6 -3.01115 -2.98506 0
M  V30 18436 C 1748.06 -1.52502 -3.00408 0
M  V30 18437 O 1748.59 -0.906982 -3.91327 0
M  V30 18438 N 1746.79 -1.25288 -2.62205 0
M  V30 18439 H 1746.34 -1.75731 -1.88351 0
M  V30 18440 H 1746.3 -0.528035 -3.09934 0
M  V30 18441 N 1750.07 0.274379 -1.55193 0
M  V30 18442 C 1751.03 1.32237 -1.87206 0
M  V30 18443 C 1752.03 1.4242 -0.74654 0
M  V30 18444 O 1753.22 1.41595 -1.01472 0
M  V30 18445 C 1750.36 2.7039 -2.0761 0
M  V30 18446 H 1751.55 1.05083 -2.80887 0
M  V30 18447 H 1749.1 0.512375 -1.47663 0
M  V30 18448 H 1749.84 3.02727 -1.16306 0
M  V30 18449 H 1749.62 2.64385 -2.89556 0
M  V30 18450 H 1751.11 3.46114 -2.33655 0
M  V30 18451 N 1751.55 1.48103 0.538828 0
M  V30 18452 C 1752.8 1.54925 1.29156 0
M  V30 18453 C 1753.11 0.224177 1.94311 0
M  V30 18454 O 1754.32 0.170559 2.70964 0
M  V30 18455 C 1752.77 2.73184 2.34304 0
M  V30 18456 C 1752.38 4.12297 1.75257 0
M  V30 18457 C 1754.12 2.89313 3.10642 0
M  V30 18458 C 1752.03 5.2183 2.78294 0
M  V30 18459 H 1750.96 0.576723 0.485702 0
M  V30 18460 H 1753.61 1.74418 0.570142 0
M  V30 18461 H 1751.99 2.47107 3.09441 0
M  V30 18462 H 1753.17 4.48355 1.06368 0
M  V30 18463 H 1751.48 4.0121 1.11442 0
M  V30 18464 H 1754.08 3.68313 3.87621 0
M  V30 18465 H 1754.42 1.98438 3.65962 0
M  V30 18466 H 1754.96 3.15248 2.42618 0
M  V30 18467 H 1751.7 6.14642 2.27805 0
M  V30 18468 H 1751.22 4.90269 3.45537 0
M  V30 18469 H 1752.89 5.49567 3.41446 0
M  V30 18470 N 1753.03 -0.787016 1.36542 0
M  V30 18471 C 1754.3 -1.53325 1.21452 0
M  V30 18472 C 1754.68 -2.10166 -0.198313 0
M  V30 18473 O 1754.03 -1.94192 -1.20422 0
M  V30 18474 C 1754.24 -2.62629 2.29841 0
M  V30 18475 C 1755.59 -3.30446 2.66628 0
M  V30 18476 O 1756.61 -2.72914 2.28903 0
M  V30 18477 O 1755.47 -4.34424 3.31569 0
M  V30 18478 H 1752.57 -0.678361 0.473028 0
M  V30 18479 H 1755.11 -0.825292 1.4828 0
M  V30 18480 H 1753.88 -2.18639 3.24519 0
M  V30 18481 H 1753.51 -3.41042 2.04393 0
M  V30 18482 N 1754.5 -1.20861 -1.01145 0
M  V30 18483 C 1755.73 -1.04843 -1.78949 0
M  V30 18484 C 1756.15 0.397676 -1.83848 0
M  V30 18485 O 1755.51 1.28663 -1.27733 0
M  V30 18486 C 1755.56 -1.64267 -3.21012 0
M  V30 18487 O 1754.66 -0.883773 -4.02819 0
M  V30 18488 H 1754.01 -0.36941 -0.551754 0
M  V30 18489 H 1756.54 -1.60266 -1.27185 0
M  V30 18490 H 1756.55 -1.68218 -3.71708 0
M  V30 18491 H 1755.22 -2.69509 -3.16761 0
M  V30 18492 H 1753.8 -0.918866 -3.61402 0
M  V30 18493 N 1755.98 1.20536 -1.01532 0
M  V30 18494 C 1757.23 1.89496 -0.70254 0
M  V30 18495 C 1757.55 1.7915 0.770072 0
M  V30 18496 O 1756.82 1.19308 1.55379 0
M  V30 18497 H 1755.4 0.701447 -0.256868 0
M  V30 18498 H 1758.06 1.46394 -1.28665 0
M  V30 18499 H 1757.16 2.96155 -0.984817 0
M  V30 18500 N 1757.46 0.791395 1.36289 0
M  V30 18501 C 1758.71 0.361277 1.98438 0
M  V30 18502 C 1759.02 -1.07343 1.63514 0
M  V30 18503 O 1760.23 -1.60591 2.18913 0
M  V30 18504 C 1758.68 0.595005 3.54947 0
M  V30 18505 C 1758.29 2.04125 3.98794 0
M  V30 18506 C 1760.04 0.22949 4.23879 0
M  V30 18507 C 1757.94 2.22154 5.48089 0
M  V30 18508 H 1756.87 0.131343 0.742472 0
M  V30 18509 H 1759.52 0.973308 1.5556 0
M  V30 18510 H 1757.91 -0.0867658 3.95905 0
M  V30 18511 H 1759.08 2.75959 3.6903 0
M  V30 18512 H 1757.4 2.3652 3.42706 0
M  V30 18513 H 1759.99 0.342442 5.33602 0
M  V30 18514 H 1760.34 -0.822622 4.08091 0
M  V30 18515 H 1760.87 0.864575 3.88291 0
M  V30 18516 H 1757.61 3.25755 5.68827 0
M  V30 18517 H 1757.13 1.54827 5.79473 0
M  V30 18518 H 1758.81 2.02964 6.14341 0
M  V30 18519 N 1758.94 -1.47929 0.54358 0
M  V30 18520 C 1760.17 -2.06591 0.0188913 0
M  V30 18521 C 1760.58 -1.39864 -1.27415 0
M  V30 18522 O 1759.92 -0.484566 -1.77194 0
M  V30 18523 C 1759.98 -3.58546 -0.261686 0
M  V30 18524 C 1759.65 -4.4723 0.939893 0
M  V30 18525 C 1760.64 -4.86179 1.8419 0
M  V30 18526 C 1758.33 -4.88941 1.15073 0
M  V30 18527 C 1760.32 -5.65622 2.93854 0
M  V30 18528 C 1758.01 -5.68152 2.25048 0
M  V30 18529 C 1759.01 -6.06402 3.1427 0
M  V30 18530 O 1758.7 -6.8402 4.22341 0
M  V30 18531 H 1758.43 -0.675009 0.0365835 0
M  V30 18532 H 1760.98 -1.91115 0.752599 0
M  V30 18533 H 1759.21 -3.72185 -1.04954 0
M  V30 18534 H 1760.9 -3.9928 -0.730099 0
M  V30 18535 H 1761.67 -4.54565 1.69101 0
M  V30 18536 H 1757.55 -4.58644 0.465479 0
M  V30 18537 H 1761.09 -5.95397 3.63522 0
M  V30 18538 H 1756.99 -5.99179 2.40115 0
M  V30 18539 H 1757.75 -7.02395 4.20219 0
M  V30 18540 N 1760.42 -0.27936 -1.55104 0
M  V30 18541 C 1761.35 0.599831 -2.25664 0
M  V30 18542 C 1762.33 1.15548 -1.24831 0
M  V30 18543 O 1763.51 1.18883 -1.53559 0
M  V30 18544 C 1760.64 1.78202 -2.98096 0
M  V30 18545 C 1759.6 1.35771 -4.05894 0
M  V30 18546 C 1758.92 2.62334 -4.65924 0
M  V30 18547 C 1760.22 0.504795 -5.19855 0
M  V30 18548 H 1761.92 0.0113761 -2.99398 0
M  V30 18549 H 1759.46 0.00403149 -1.43999 0
M  V30 18550 H 1761.42 2.403 -3.4617 0
M  V30 18551 H 1760.14 2.39637 -2.21905 0
M  V30 18552 H 1758.8 0.75991 -3.58638 0
M  V30 18553 H 1758.45 3.22036 -3.86396 0
M  V30 18554 H 1758.15 2.34654 -5.38713 0
M  V30 18555 H 1759.67 3.25273 -5.16749 0
M  V30 18556 H 1761.09 1.03089 -5.63955 0
M  V30 18557 H 1759.48 0.322696 -5.99232 0
M  V30 18558 H 1760.55 -0.475409 -4.82564 0
M  V30 18559 N 1761.9 1.57599 -0.0067085 0
M  V30 18560 C 1763.12 1.95142 0.687533 0
M  V30 18561 C 1763.54 0.88196 1.66934 0
M  V30 18562 O 1762.9 -0.13847 1.81974 0
M  V30 18563 C 1762.95 3.32718 1.41355 0
M  V30 18564 O 1762.67 4.3556 0.471111 0
M  V30 18565 C 1764.17 3.84761 2.20168 0
M  V30 18566 H 1761.39 0.643222 0.191066 0
M  V30 18567 H 1763.93 2.04412 -0.0598214 0
M  V30 18568 H 1762.09 3.24735 2.11248 0
M  V30 18569 H 1762.5 5.15185 0.984091 0
M  V30 18570 H 1763.98 4.83432 2.66454 0
M  V30 18571 H 1764.45 3.1782 3.03129 0
M  V30 18572 H 1765.06 3.9594 1.55278 0
M  V30 18573 N 1763.37 -0.266145 1.55336 0
M  V30 18574 C 1764.6 -1.01489 1.80299 0
M  V30 18575 C 1765.02 -1.79679 0.579742 0
M  V30 18576 O 1764.37 -1.76831 -0.451319 0
M  V30 18577 C 1764.42 -1.96805 3.03233 0
M  V30 18578 O 1764.15 -1.21782 4.20834 0
M  V30 18579 C 1765.65 -2.83436 3.40851 0
M  V30 18580 H 1762.87 -0.299504 0.600449 0
M  V30 18581 H 1765.41 -0.294854 2.02363 0
M  V30 18582 H 1763.57 -2.64262 2.83275 0
M  V30 18583 H 1763.98 -1.86086 4.9038 0
M  V30 18584 H 1765.45 -3.461 4.30022 0
M  V30 18585 H 1765.93 -3.53559 2.60562 0
M  V30 18586 H 1766.54 -2.2146 3.63092 0
M  V30 18587 N 1764.85 -1.48386 -0.530967 0
M  V30 18588 C 1765.8 -1.59236 -1.6318 0
M  V30 18589 C 1766.79 -0.449549 -1.54492 0
M  V30 18590 O 1767.98 -0.700935 -1.6253 0
M  V30 18591 C 1765.11 -1.6343 -3.01903 0
M  V30 18592 C 1764.19 -2.83188 -3.15699 0
M  V30 18593 N 1764.58 -4.07616 -2.99471 0
M  V30 18594 C 1762.88 -2.80499 -3.46751 0
M  V30 18595 C 1763.58 -4.87959 -3.16657 0
M  V30 18596 N 1762.56 -4.20757 -3.44186 0
M  V30 18597 H 1766.36 -2.53187 -1.49243 0
M  V30 18598 H 1763.87 -1.44744 -0.7364 0
M  V30 18599 H 1765.87 -1.69297 -3.80978 0
M  V30 18600 H 1764.53 -0.705948 -3.16933 0
M  V30 18601 H 1765.54 -4.38068 -2.76255 0
M  V30 18602 H 1762.22 -1.96916 -3.68145 0
M  V30 18603 H 1763.61 -5.96705 -3.08857 0
M  V30 18604 N 1766.33 0.779763 -1.36958 0
M  V30 18605 C 1767.58 1.54031 -1.31918 0
M  V30 18606 C 1767.91 1.9395 0.0985685 0
M  V30 18607 O 1767.18 1.63458 1.05413 0
M  V30 18608 C 1767.47 2.81083 -2.25088 0
M  V30 18609 C 1767.32 2.47469 -3.75605 0
M  V30 18610 C 1768.64 3.82968 -2.1685 0
M  V30 18611 H 1765.76 0.558806 -0.480526 0
M  V30 18612 H 1768.4 0.895152 -1.67592 0
M  V30 18613 H 1766.55 3.36135 -1.94796 0
M  V30 18614 H 1768.22 1.98393 -4.16459 0
M  V30 18615 H 1766.46 1.80276 -3.94567 0
M  V30 18616 H 1767.14 3.38255 -4.3622 0
M  V30 18617 H 1769.61 3.37388 -2.43534 0
M  V30 18618 H 1768.49 4.69601 -2.84194 0
M  V30 18619 H 1768.75 4.26642 -1.15885 0
M  V30 18620 N 1767.81 1.21396 1.00503 0
M  V30 18621 C 1769.04 1.05714 1.77855 0
M  V30 18622 C 1769.45 -0.393058 1.84663 0
M  V30 18623 O 1768.81 -1.2727 1.308 0
M  V30 18624 C 1768.86 1.64774 3.21763 0
M  V30 18625 O 1768.58 3.0412 3.15346 0
M  V30 18626 C 1770.08 1.54202 4.15616 0
M  V30 18627 H 1767.3 0.371241 0.558947 0
M  V30 18628 H 1769.84 1.60733 1.26433 0
M  V30 18629 H 1768 1.13847 3.70294 0
M  V30 18630 H 1768.41 3.32356 4.05758 0
M  V30 18631 H 1769.89 2.00269 5.14389 0
M  V30 18632 H 1770.36 0.496455 4.36385 0
M  V30 18633 H 1770.97 2.04377 3.72975 0
M  V30 18634 N 1769.29 -1.19996 1.0217 0
M  V30 18635 C 1770.23 -2.22963 0.596318 0
M  V30 18636 C 1771.2 -1.61548 -0.386212 0
M  V30 18637 O 1772.39 -1.88667 -0.284497 0
M  V30 18638 C 1769.53 -3.45058 -0.054059 0
M  V30 18639 C 1768.64 -4.20885 0.973648 0
M  V30 18640 C 1767.78 -5.30387 0.293788 0
M  V30 18641 C 1766.81 -5.97964 1.3079 0
M  V30 18642 N 1765.95 -6.99044 0.654351 0
M  V30 18643 H 1770.79 -2.58709 1.47898 0
M  V30 18644 H 1768.33 -1.27117 0.740254 0
M  V30 18645 H 1770.29 -4.14784 -0.448313 0
M  V30 18646 H 1768.92 -3.0999 -0.900342 0
M  V30 18647 H 1767.97 -3.50174 1.48602 0
M  V30 18648 H 1769.28 -4.67292 1.7447 0
M  V30 18649 H 1768.43 -6.065 -0.155695 0
M  V30 18650 H 1767.17 -4.85031 -0.509521 0
M  V30 18651 H 1766.18 -5.20607 1.76772 0
M  V30 18652 H 1767.4 -6.45404 2.11258 0
M  V30 18653 H 1765.35 -6.55873 -0.128996 0
M  V30 18654 H 1765.27 -7.43605 1.36339 0
M  V30 18655 H 1766.53 -7.79165 0.228631 0
M  V30 18656 N 1770.76 -0.798611 -1.35867 0
M  V30 18657 C 1771.99 -0.386378 -2.03769 0
M  V30 18658 C 1772.41 0.992154 -1.59806 0
M  V30 18659 O 1771.77 1.64094 -0.770895 0
M  V30 18660 C 1771.82 -0.468859 -3.57539 0
M  V30 18661 O 1770.92 0.520742 -4.09099 0
M  V30 18662 H 1770.26 -0.162597 -0.643784 0
M  V30 18663 H 1772.79 -1.08228 -1.73631 0
M  V30 18664 H 1772.8 -0.335775 -4.06616 0
M  V30 18665 H 1771.48 -1.47441 -3.88888 0
M  V30 18666 H 1770.06 0.348559 -3.71267 0
M  V30 18667 N 1772.24 1.47639 -0.551417 0
M  V30 18668 C 1773.2 2.28419 0.188996 0
M  V30 18669 C 1774.2 1.36617 0.84808 0
M  V30 18670 O 1775.39 1.59304 0.704831 0
M  V30 18671 C 1772.53 3.16131 1.27571 0
M  V30 18672 H 1773.72 2.95348 -0.520518 0
M  V30 18673 H 1771.27 1.53232 -0.308141 0
M  V30 18674 H 1772.01 2.5388 2.0178 0
M  V30 18675 H 1771.79 3.83685 0.807984 0
M  V30 18676 H 1773.28 3.77011 1.79591 0
M  V30 18677 N 1773.72 0.287581 1.54954 0
M  V30 18678 C 1774.95 -0.328601 2.04274 0
M  V30 18679 C 1775.36 -1.48535 1.16545 0
M  V30 18680 O 1774.72 -1.81527 0.188187 0
M  V30 18681 C 1774.77 -0.797705 3.52589 0
M  V30 18682 O 1774.49 0.31299 4.36981 0
M  V30 18683 C 1775.99 -1.48042 4.1785 0
M  V30 18684 H 1773.21 -0.0733253 0.666982 0
M  V30 18685 H 1775.76 0.423307 2.00071 0
M  V30 18686 H 1773.91 -1.49967 3.57196 0
M  V30 18687 H 1774.33 -0.0498078 5.24476 0
M  V30 18688 H 1775.8 -1.75995 5.23192 0
M  V30 18689 H 1776.28 -2.41608 3.66772 0
M  V30 18690 H 1776.88 -0.821988 4.17281 0
M  V30 18691 N 1775.2 -1.57593 0.0150662 0
M  V30 18692 C 1776.42 -1.95909 -0.68077 0
M  V30 18693 C 1776.85 -0.890813 -1.65669 0
M  V30 18694 O 1776.21 0.149663 -1.80681 0
M  V30 18695 C 1776.25 -3.33324 -1.37576 0
M  V30 18696 O 1775.36 -3.28694 -2.49066 0
M  V30 18697 H 1774.7 -0.639151 -0.179949 0
M  V30 18698 H 1777.23 -2.04471 0.0727403 0
M  V30 18699 H 1777.24 -3.69236 -1.73577 0
M  V30 18700 H 1775.91 -4.10625 -0.660305 0
M  V30 18701 H 1774.49 -3.0448 -2.15282 0
M  V30 18702 N 1776.68 0.257904 -1.55475 0
M  V30 18703 C 1777.9 1.00955 -1.81171 0
M  V30 18704 C 1778.33 1.78586 -0.590651 0
M  V30 18705 O 1777.68 1.75365 0.460105 0
M  V30 18706 C 1777.73 1.93188 -3.04485 0
M  V30 18707 O 1776.84 3.02194 -2.80628 0
M  V30 18708 H 1776.18 0.28785 -0.598363 0
M  V30 18709 H 1778.71 0.28223 -2.02644 0
M  V30 18710 H 1778.72 2.3486 -3.33624 0
M  V30 18711 H 1777.39 1.361 -3.93001 0
M  V30 18712 H 1775.97 2.64729 -2.62627 0
M  V30 18713 N 1778.15 1.48666 0.52309 0
M  V30 18714 C 1779.4 1.57267 1.28043 0
M  V30 18715 C 1779.73 0.248801 1.926 0
M  V30 18716 O 1779.01 -0.745814 1.79633 0
M  V30 18717 C 1779.29 2.71595 2.36449 0
M  V30 18718 C 1779.14 4.13708 1.76538 0
M  V30 18719 C 1780.46 2.81654 3.3817 0
M  V30 18720 H 1777.58 0.572455 0.464181 0
M  V30 18721 H 1780.22 1.80866 0.582013 0
M  V30 18722 H 1778.37 2.51604 2.9602 0
M  V30 18723 H 1780.05 4.45158 1.20964 0
M  V30 18724 H 1778.29 4.20386 1.07041 0
M  V30 18725 H 1778.96 4.89538 2.55062 0
M  V30 18726 H 1781.44 2.99784 2.88563 0
M  V30 18727 H 1780.31 3.63366 4.11408 0
M  V30 18728 H 1780.57 1.90093 3.99145 0
M  V30 18729 N 1779.63 -0.772489 1.37369 0
M  V30 18730 C 1780.88 -1.53102 1.32537 0
M  V30 18731 C 1781.21 -1.9429 -0.0903608 0
M  V30 18732 O 1780.46 -1.64286 -1.06342 0
M  V30 18733 C 1780.76 -2.80907 2.20966 0
M  V30 18734 C 1780.43 -2.58775 3.69251 0
M  V30 18735 C 1779.09 -2.52448 4.09663 0
M  V30 18736 C 1781.44 -2.38954 4.63196 0
M  V30 18737 C 1778.77 -2.24288 5.42136 0
M  V30 18738 C 1781.12 -2.12318 5.95906 0
M  V30 18739 C 1779.79 -2.04434 6.35423 0
M  V30 18740 H 1779.06 -0.56024 0.484987 0
M  V30 18741 H 1781.7 -0.889859 1.69569 0
M  V30 18742 H 1780.01 -3.49578 1.76925 0
M  V30 18743 H 1781.7 -3.38782 2.14541 0
M  V30 18744 H 1778.29 -2.64563 3.37201 0
M  V30 18745 H 1782.48 -2.42833 4.32835 0
M  V30 18746 H 1777.73 -2.16679 5.71717 0
M  V30 18747 H 1781.91 -1.95979 6.68255 0
M  V30 18748 H 1779.54 -1.82378 7.37999 0
M  V30 18749 N 1781.11 -1.21927 -0.998575 0
M  V30 18750 C 1782.34 -1.06735 -1.77827 0
M  V30 18751 C 1782.76 0.378154 -1.8426 0
M  V30 18752 O 1782.12 1.27301 -1.2909 0
M  V30 18753 C 1782.17 -1.67662 -3.19252 0
M  V30 18754 O 1781.27 -0.926448 -4.01859 0
M  V30 18755 H 1780.61 -0.375241 -0.547805 0
M  V30 18756 H 1783.14 -1.61605 -1.25478 0
M  V30 18757 H 1783.15 -1.72151 -3.69903 0
M  V30 18758 H 1781.83 -2.72854 -3.13885 0
M  V30 18759 H 1780.4 -0.957145 -3.60407 0
M  V30 18760 N 1782.59 1.19452 -1.02805 0
M  V30 18761 C 1783.81 1.93616 -0.743485 0
M  V30 18762 C 1784.24 1.74934 0.691342 0
M  V30 18763 O 1783.6 1.05111 1.47721 0
M  V30 18764 C 1783.64 3.43451 -1.0988 0
M  V30 18765 O 1782.75 4.11829 -0.216978 0
M  V30 18766 H 1782.09 0.60448 -0.274771 0
M  V30 18767 H 1784.62 1.51554 -1.37451 0
M  V30 18768 H 1784.63 3.94115 -1.05535 0
M  V30 18769 H 1783.3 3.5637 -2.14413 0
M  V30 18770 H 1781.88 3.71533 -0.318954 0
M  V30 18771 N 1784.07 0.805805 1.35442 0
M  V30 18772 C 1785.29 0.397179 2.03561 0
M  V30 18773 C 1785.72 -0.983665 1.6033 0
M  V30 18774 O 1785.07 -1.63683 0.779586 0
M  V30 18775 C 1785.12 0.487813 3.57285 0
M  V30 18776 O 1784.23 -0.499039 4.09369 0
M  V30 18777 H 1783.57 0.166009 0.642913 0
M  V30 18778 H 1786.1 1.09147 1.73055 0
M  V30 18779 H 1786.11 0.357334 4.06432 0
M  V30 18780 H 1784.78 1.49501 3.88101 0
M  V30 18781 H 1783.36 -0.328864 3.71447 0
M  V30 18782 N 1785.54 -1.47344 0.559239 0
M  V30 18783 C 1786.96 -1.86272 0.126394 0
M  V30 18784 C 1787.31 -1.46563 -1.30437 0
M  V30 18785 O 1786.43 -0.869624 -1.98158 0
M  V30 18786 C 1787.03 -3.38068 0.222602 0
M  V30 18787 C 1785.59 -3.7608 -0.155219 0
M  V30 18788 C 1784.73 -2.71394 0.569244 0
M  V30 18789 H 1787.68 -1.38833 0.768845 0
M  V30 18790 H 1787.7 -3.76382 -0.558262 0
M  V30 18791 H 1787.22 -3.66938 1.26404 0
M  V30 18792 H 1785.32 -3.52826 -1.19768 0
M  V30 18793 H 1785.43 -4.78662 0.204756 0
M  V30 18794 H 1783.79 -2.54697 0.0120996 0
M  V30 18795 H 1784.58 -3.03107 1.61187 0
M  V30 18796 N 1787.02 -0.295795 -1.54799 0
M  V30 18797 C 1788.27 0.314384 -1.9964 0
M  V30 18798 C 1788.59 1.5481 -1.1857 0
M  V30 18799 O 1787.86 1.93884 -0.280353 0
M  V30 18800 H 1786.44 0.119153 -0.737436 0
M  V30 18801 H 1789.1 -0.40592 -1.90626 0
M  V30 18802 H 1788.2 0.59002 -3.06472 0
M  V30 18803 N 1788.5 1.57583 -0.0234236 0
M  V30 18804 C 1789.73 1.96267 0.670371 0
M  V30 18805 C 1790.15 0.899586 1.65194 0
M  V30 18806 O 1789.51 -0.140079 1.80758 0
M  V30 18807 C 1789.56 3.34049 1.35806 0
M  V30 18808 O 1788.66 3.3001 2.4732 0
M  V30 18809 H 1788 0.640097 0.176557 0
M  V30 18810 H 1790.53 2.04429 -0.0835829 0
M  V30 18811 H 1790.54 3.70151 1.71616 0
M  V30 18812 H 1789.22 4.10969 0.63852 0
M  V30 18813 H 1787.79 3.05618 2.13664 0
M  V30 18814 N 1789.98 -0.249655 1.5561 0
M  V30 18815 C 1791.39 -0.818934 1.67781 0
M  V30 18816 C 1791.74 -1.86134 0.620374 0
M  V30 18817 O 1790.87 -2.15133 -0.233869 0
M  V30 18818 C 1791.46 -1.49219 3.0417 0
M  V30 18819 C 1790.02 -2.0092 3.18289 0
M  V30 18820 C 1789.17 -0.859333 2.63649 0
M  V30 18821 H 1792.12 -0.0255186 1.58679 0
M  V30 18822 H 1792.14 -2.36011 2.98461 0
M  V30 18823 H 1791.65 -0.733268 3.8111 0
M  V30 18824 H 1789.75 -2.79701 2.46167 0
M  V30 18825 H 1789.87 -2.20848 4.25163 0
M  V30 18826 H 1788.23 -1.2591 2.21402 0
M  V30 18827 H 1789.01 -0.113545 3.43112 0
M  V30 18828 N 1791.46 -1.48941 -0.515198 0
M  V30 18829 C 1792.39 -1.67466 -1.62719 0
M  V30 18830 C 1793.37 -0.523393 -1.61847 0
M  V30 18831 O 1794.55 -0.757631 -1.78812 0
M  V30 18832 C 1791.68 -1.72799 -3.0126 0
M  V30 18833 C 1790.64 -2.87574 -3.16994 0
M  V30 18834 C 1789.96 -2.78008 -4.56745 0
M  V30 18835 C 1791.26 -4.28693 -2.98362 0
M  V30 18836 H 1792.96 -2.60562 -1.47471 0
M  V30 18837 H 1790.5 -1.25391 -0.708027 0
M  V30 18838 H 1792.46 -1.84346 -3.78939 0
M  V30 18839 H 1791.18 -0.762918 -3.17564 0
M  V30 18840 H 1789.84 -2.75606 -2.41737 0
M  V30 18841 H 1789.49 -1.79438 -4.69905 0
M  V30 18842 H 1789.19 -3.55033 -4.68215 0
M  V30 18843 H 1790.71 -2.91543 -5.36503 0
M  V30 18844 H 1792.13 -4.41416 -3.65821 0
M  V30 18845 H 1790.52 -5.0683 -3.21315 0
M  V30 18846 H 1791.59 -4.44125 -1.9463 0
M  V30 18847 N 1792.94 0.765193 -1.37777 0
M  V30 18848 C 1793.89 1.86902 -1.30582 0
M  V30 18849 C 1794.87 1.59746 -0.192343 0
M  V30 18850 O 1796.06 1.71764 -0.427313 0
M  V30 18851 C 1793.19 3.2446 -1.12162 0
M  V30 18852 C 1792.28 3.57546 -2.28082 0
M  V30 18853 N 1792.67 3.61769 -3.53493 0
M  V30 18854 C 1790.97 3.87748 -2.2038 0
M  V30 18855 C 1791.67 3.9179 -4.29972 0
M  V30 18856 N 1790.64 4.08025 -3.59188 0
M  V30 18857 H 1794.44 1.88428 -2.25549 0
M  V30 18858 H 1791.96 0.96197 -1.30843 0
M  V30 18859 H 1793.96 4.03437 -1.05092 0
M  V30 18860 H 1792.62 3.24194 -0.181181 0
M  V30 18861 H 1793.63 3.43813 -3.87315 0
M  V30 18862 H 1790.3 3.95266 -1.3443 0
M  V30 18863 H 1791.69 4.01777 -5.3854 0
M  V30 18864 N 1794.41 1.22455 0.992094 0
M  V30 18865 C 1795.64 1.07677 1.77258 0
M  V30 18866 C 1796.06 -0.368377 1.84458 0
M  V30 18867 O 1795.42 -1.26614 1.29763 0
M  V30 18868 C 1795.47 1.69353 3.18358 0
M  V30 18869 O 1794.57 0.947746 4.01362 0
M  V30 18870 H 1793.91 0.378141 0.545807 0
M  V30 18871 H 1796.44 1.62269 1.2462 0
M  V30 18872 H 1796.45 1.7411 3.68985 0
M  V30 18873 H 1795.13 2.74515 3.12433 0
M  V30 18874 H 1793.71 0.976245 3.59894 0
M  V30 18875 N 1795.89 -1.18905 1.03437 0
M  V30 18876 C 1797.14 -1.89007 0.735135 0
M  V30 18877 C 1797.47 -1.7976 -0.734838 0
M  V30 18878 O 1796.75 -1.19365 -1.53565 0
M  V30 18879 C 1797.03 -3.39732 1.1939 0
M  V30 18880 C 1796.88 -3.57822 2.7255 0
M  V30 18881 C 1798.2 -4.33151 0.778993 0
M  V30 18882 H 1795.32 -0.686338 0.26853 0
M  V30 18883 H 1797.96 -1.39932 1.28527 0
M  V30 18884 H 1796.11 -3.81659 0.725861 0
M  V30 18885 H 1797.78 -3.25031 3.27342 0
M  V30 18886 H 1796.03 -3.0069 3.12679 0
M  V30 18887 H 1796.7 -4.63552 2.99706 0
M  V30 18888 H 1799.17 -3.98969 1.18164 0
M  V30 18889 H 1798.05 -5.37189 1.12781 0
M  V30 18890 H 1798.31 -4.40953 -0.318296 0
M  V30 18891 N 1797.37 -0.812977 -1.35013 0
M  V30 18892 C 1798.28 -0.229534 -2.33474 0
M  V30 18893 C 1799.3 0.630837 -1.62162 0
M  V30 18894 O 1800.47 0.541083 -1.93995 0
M  V30 18895 C 1797.54 0.607055 -3.41344 0
M  V30 18896 C 1796.6 -0.274554 -4.28421 0
M  V30 18897 C 1795.83 0.522202 -5.31139 0
M  V30 18898 O 1796.05 1.75636 -5.42686 0
M  V30 18899 O 1794.99 -0.0902666 -6.01832 0
M  V30 18900 H 1798.81 -1.04423 -2.85183 0
M  V30 18901 H 1796.4 -0.5749 -1.37896 0
M  V30 18902 H 1798.28 1.08335 -4.07236 0
M  V30 18903 H 1796.96 1.39924 -2.91895 0
M  V30 18904 H 1795.86 -0.798124 -3.65487 0
M  V30 18905 H 1797.2 -1.03084 -4.81284 0
M  V30 18906 N 1798.85 1.47045 -0.567045 0
M  V30 18907 C 1800.08 2.06835 -0.0518309 0
M  V30 18908 C 1800.49 1.41823 1.24626 0
M  V30 18909 O 1799.85 0.518102 1.74991 0
M  V30 18910 C 1799.9 3.6124 0.137142 0
M  V30 18911 O 1799.62 4.23817 -1.10955 0
M  V30 18912 C 1801.12 4.37921 0.688511 0
M  V30 18913 H 1798.34 0.669111 -0.0503138 0
M  V30 18914 H 1800.88 1.88906 -0.783258 0
M  V30 18915 H 1799.04 3.7865 0.818733 0
M  V30 18916 H 1799.45 5.16484 -0.913475 0
M  V30 18917 H 1800.93 5.46603 0.769984 0
M  V30 18918 H 1801.4 4.0488 1.70201 0
M  V30 18919 H 1802.01 4.25279 0.0423004 0
M  V30 18920 N 1800.33 0.304 1.5464 0
M  V30 18921 C 1801.55 -0.309709 2.05075 0
M  V30 18922 C 1801.98 -1.46509 1.1797 0
M  V30 18923 O 1801.33 -1.80359 0.184437 0
M  V30 18924 C 1801.38 -0.740734 3.5291 0
M  V30 18925 O 1800.49 -1.8452 3.68817 0
M  V30 18926 H 1799.83 -0.0596065 0.661319 0
M  V30 18927 H 1802.36 0.446718 1.99664 0
M  V30 18928 H 1802.37 -1.02873 3.94818 0
M  V30 18929 H 1801.04 0.104422 4.15769 0
M  V30 18930 H 1799.62 -1.55753 3.38815 0
M  V30 18931 N 1801.8 -1.57568 0.0317802 0
M  V30 18932 C 1802.73 -2.13412 -0.947499 0
M  V30 18933 C 1803.71 -1.05091 -1.33753 0
M  V30 18934 O 1804.9 -1.32936 -1.41568 0
M  V30 18935 C 1802.03 -2.66337 -2.22895 0
M  V30 18936 C 1800.98 -3.79469 -1.97958 0
M  V30 18937 C 1800.31 -4.18833 -3.3239 0
M  V30 18938 C 1801.61 -5.05432 -1.31664 0
M  V30 18939 H 1803.3 -2.95488 -0.482417 0
M  V30 18940 H 1800.85 -1.42142 -0.230603 0
M  V30 18941 H 1802.8 -3.04039 -2.91784 0
M  V30 18942 H 1801.53 -1.81426 -2.71574 0
M  V30 18943 H 1800.19 -3.42209 -1.31485 0
M  V30 18944 H 1799.83 -3.30899 -3.78833 0
M  V30 18945 H 1799.53 -4.95071 -3.16511 0
M  V30 18946 H 1801.06 -4.5912 -4.02544 0
M  V30 18947 H 1802.47 -5.40704 -1.90558 0
M  V30 18948 H 1800.87 -5.86686 -1.26173 0
M  V30 18949 H 1801.94 -4.84032 -0.28996 0
M  V30 18950 O 1803.32 0.109795 -1.61126 0
M  V30 18951 H 1804.01 0.740073 -1.79004 0
M  V30 END ATOM
M  V30 BEGIN BOND
M  V30 END BOND
M  V30 END CTAB
M  END
$$$$
