drugbank_target|Q8IKM5 60S ribosomal protein L27 (DB11638)
 OpenBabel12092121103D

  0  0  0     0  0            999 V3000
M  V30 BEGIN CTAB
M  V30 COUNTS 2479 2497 0 0 0
M  V30 BEGIN ATOM
M  V30 1 H -0.908 1.98254 -0.117106 0
M  V30 2 N 0 1.576 0 0
M  V30 3 C 0.933 2.03868 1.02534 0
M  V30 4 C 1.911 0.928543 1.3348 0
M  V30 5 O 3.095 1.19667 1.45644 0
M  V30 6 C 0.222 2.43627 2.35294 0
M  V30 7 C -0.732 3.65373 2.2001 0
M  V30 8 S 0.101 5.13292 1.52614 0
M  V30 9 C 1.257 5.56322 2.86805 0
M  V30 10 H 1.49 2.90518 0.631377 0
M  V30 11 H -0.977 1.52953 0.210867 0
M  V30 12 H 0.981 2.67203 3.11629 0
M  V30 13 H -0.358 1.57376 2.7183 0
M  V30 14 H -1.165 3.90944 3.18086 0
M  V30 15 H -1.563 3.418 1.51819 0
M  V30 16 H 0.729 5.58782 3.83104 0
M  V30 17 H 1.672 6.56266 2.65933 0
M  V30 18 H 2.08 4.83886 2.90714 0
M  V30 19 N 1.4781 -0.272755 1.55222 0
M  V30 20 C 2.7261 -1.00234 1.75492 0
M  V30 21 C 3.0471 -1.8681 0.5592 0
M  V30 22 O 2.3171 -1.91215 -0.425882 0
M  V30 23 H 0.8971 -0.373076 0.647166 0
M  V30 24 H 3.5591 -0.296926 1.92625 0
M  V30 25 H 2.6551 -1.63913 2.65592 0
M  V30 26 N 2.9562 -1.48159 -0.537278 0
M  V30 27 C 3.9032 -1.62138 -1.64256 0
M  V30 28 C 4.8732 -0.463668 -1.59497 0
M  V30 29 O 6.0582 -0.686241 -1.78032 0
M  V30 30 C 3.1982 -1.66028 -3.02537 0
M  V30 31 C 2.3112 -2.92855 -3.17585 0
M  V30 32 C 1.4462 -2.87952 -4.46382 0
M  V30 33 C 0.4852 -4.09516 -4.54932 0
M  V30 34 N -0.3778 -4.02733 -5.75109 0
M  V30 35 H 4.4622 -2.56529 -1.51647 0
M  V30 36 H 1.9992 -1.27224 -0.738414 0
M  V30 37 H 3.9572 -1.66265 -3.82638 0
M  V30 38 H 2.5872 -0.751331 -3.13934 0
M  V30 39 H 1.6392 -3.02395 -2.30784 0
M  V30 40 H 2.9512 -3.82822 -3.19764 0
M  V30 41 H 2.1052 -2.8655 -5.34765 0
M  V30 42 H 0.8442 -1.95702 -4.46712 0
M  V30 43 H -0.1508 -4.11201 -3.64957 0
M  V30 44 H 1.0742 -5.02917 -4.56346 0
M  V30 45 H -0.9798 -3.13299 -5.76351 0
M  V30 46 H -1.0628 -4.86397 -5.78752 0
M  V30 47 H 0.2052 -4.05379 -6.65799 0
M  V30 48 N 4.4343 0.785586 -1.36625 0
M  V30 49 C 5.3643 1.91259 -1.33949 0
M  V30 50 C 6.3453 1.68795 -0.210325 0
M  V30 51 O 7.5303 1.89854 -0.408561 0
M  V30 52 C 4.6603 3.28339 -1.13186 0
M  V30 53 C 3.6143 3.65335 -2.22967 0
M  V30 54 C 2.9403 5.00806 -1.87342 0
M  V30 55 C 4.2403 3.7352 -3.65075 0
M  V30 56 H 5.9343 1.93755 -2.28253 0
M  V30 57 H 3.4803 0.930788 -1.09874 0
M  V30 58 H 5.4333 4.06804 -1.09948 0
M  V30 59 H 4.1573 3.2624 -0.153332 0
M  V30 60 H 2.8163 2.89169 -2.25337 0
M  V30 61 H 2.4643 4.95233 -0.880545 0
M  V30 62 H 2.1643 5.26529 -2.60846 0
M  V30 63 H 3.6883 5.81687 -1.85667 0
M  V30 64 H 5.1023 4.42168 -3.64911 0
M  V30 65 H 3.4993 4.10731 -4.37516 0
M  V30 66 H 4.5693 2.74527 -3.99703 0
M  V30 67 N 5.9124 1.20967 1.01018 0
M  V30 68 C 6.8424 0.988272 2.11555 0
M  V30 69 C 7.8234 -0.0849778 1.69888 0
M  V30 70 O 9.0084 0.0738202 1.9406 0
M  V30 71 C 6.1384 0.546528 3.42973 0
M  V30 72 C 5.0924 1.56375 3.9841 0
M  V30 73 C 4.4184 0.97842 5.25672 0
M  V30 74 C 5.7184 2.94922 4.31066 0
M  V30 75 H 7.4124 1.91276 2.30334 0
M  V30 76 H 4.9584 0.921073 1.1069 0
M  V30 77 H 6.9114 0.378839 4.19694 0
M  V30 78 H 5.6354 -0.413598 3.23971 0
M  V30 79 H 4.2944 1.71891 3.23804 0
M  V30 80 H 3.9424 0.0101688 5.02999 0
M  V30 81 H 3.6424 1.65784 5.63728 0
M  V30 82 H 5.1664 0.821939 6.05043 0
M  V30 83 H 6.5804 2.8288 4.9865 0
M  V30 84 H 4.9774 3.5983 4.80253 0
M  V30 85 H 6.0474 3.4616 3.39561 0
M  V30 86 N 7.3905 -1.2043 1.01659 0
M  V30 87 C 8.3375 -2.23215 0.586822 0
M  V30 88 C 9.3075 -1.61382 -0.393085 0
M  V30 89 O 10.4925 -1.88544 -0.292525 0
M  V30 90 C 7.6325 -3.45032 -0.0687464 0
M  V30 91 C 6.7455 -4.21296 0.955724 0
M  V30 92 C 5.8805 -5.30507 0.271208 0
M  V30 93 C 4.9195 -5.98515 1.28244 0
M  V30 94 N 4.0565 -6.99316 0.62459 0
M  V30 95 H 8.8965 -2.59336 1.46796 0
M  V30 96 H 6.4335 -1.27431 0.734836 0
M  V30 97 H 8.3915 -4.1459 -0.465965 0
M  V30 98 H 7.0215 -3.09604 -0.913529 0
M  V30 99 H 6.0735 -3.50803 1.4711 0
M  V30 100 H 7.3855 -4.6803 1.72479 0
M  V30 101 H 6.5395 -6.06428 -0.18151 0
M  V30 102 H 5.2785 -4.8481 -0.530163 0
M  V30 103 H 4.2835 -5.21355 1.74554 0
M  V30 104 H 5.5085 -6.46298 2.08509 0
M  V30 105 H 3.4545 -6.55812 -0.156914 0
M  V30 106 H 3.3715 -7.44178 1.33172 0
M  V30 107 H 4.6395 -7.79255 0.195462 0
M  V30 108 N 8.8686 -0.792821 -1.36206 0
M  V30 109 C 10.2796 -0.429513 -1.81692 0
M  V30 110 C 10.6306 1.04695 -1.65932 0
M  V30 111 O 9.7556 1.81256 -1.18218 0
M  V30 112 C 10.3506 -0.772831 -3.29868 0
M  V30 113 C 8.9096 -0.462307 -3.7355 0
M  V30 114 C 8.0566 -1.00569 -2.5842 0
M  V30 115 H 11.0076 -0.985672 -1.24379 0
M  V30 116 H 11.0286 -0.0651928 -3.80444 0
M  V30 117 H 10.5406 -1.84747 -3.41307 0
M  V30 118 H 8.6416 0.604158 -3.67669 0
M  V30 119 H 8.7546 -0.985299 -4.68859 0
M  V30 120 H 7.1186 -0.428734 -2.51066 0
M  V30 121 H 7.9016 -2.08616 -2.72643 0
M  V30 122 N 10.3467 1.47872 -0.545128 0
M  V30 123 C 11.5947 2.02093 -0.016553 0
M  V30 124 C 11.9157 1.42305 1.3332 0
M  V30 125 O 11.1857 0.593853 1.86682 0
M  V30 126 H 9.7657 0.746993 -0.00313038 0
M  V30 127 H 12.4277 1.81414 -0.712397 0
M  V30 128 H 11.5237 3.11996 0.0805422 0
M  V30 129 N 11.8248 0.280983 1.55075 0
M  V30 130 C 12.7718 -0.603937 2.22758 0
M  V30 131 C 13.7418 -1.1452 1.20309 0
M  V30 132 O 14.9268 -1.19343 1.48869 0
M  V30 133 C 12.0668 -1.77947 2.95684 0
M  V30 134 C 11.1798 -1.2715 4.12864 0
M  V30 135 C 10.3148 -2.4093 4.7342 0
M  V30 136 C 9.3538 -1.87165 5.82783 0
M  V30 137 N 8.4908 -2.94441 6.37377 0
M  V30 138 H 13.3308 -0.020124 2.97993 0
M  V30 139 H 10.8678 0.00183425 1.471 0
M  V30 140 H 12.8258 -2.47055 3.36184 0
M  V30 141 H 11.4558 -2.33522 2.22861 0
M  V30 142 H 10.5078 -0.473331 3.77444 0
M  V30 143 H 11.8198 -0.837751 4.91715 0
M  V30 144 H 10.9738 -3.18021 5.1667 0
M  V30 145 H 9.7128 -2.87623 3.93859 0
M  V30 146 H 8.7178 -1.08556 5.38976 0
M  V30 147 H 9.9428 -1.41401 6.64216 0
M  V30 148 H 7.8888 -3.40505 5.60707 0
M  V30 149 H 7.8058 -2.55501 7.11516 0
M  V30 150 H 9.0738 -3.71489 6.85285 0
M  V30 151 N 13.3029 -1.57598 0.00835791 0
M  V30 152 C 14.5489 -1.91211 -0.675732 0
M  V30 153 C 14.8819 -0.883139 -1.72958 0
M  V30 154 O 14.1569 0.097016 -1.94258 0
M  V30 155 C 14.4399 -3.35379 -1.31123 0
M  V30 156 C 14.2929 -4.48999 -0.268356 0
M  V30 157 C 15.6119 -3.7912 -2.23508 0
M  V30 158 H 12.7309 -0.695374 -0.244179 0
M  V30 159 H 15.3729 -1.89901 0.0613655 0
M  V30 160 H 13.5229 -3.36626 -1.93946 0
M  V30 161 H 15.1949 -4.59887 0.360844 0
M  V30 162 H 13.4379 -4.31873 0.408482 0
M  V30 163 H 14.1089 -5.46851 -0.752218 0
M  V30 164 H 16.5849 -3.79477 -1.70693 0
M  V30 165 H 15.4609 -4.80729 -2.64936 0
M  V30 166 H 15.7219 -3.13455 -3.11766 0
M  V30 167 N 14.781 0.264519 -1.55364 0
M  V30 168 C 16.03 0.992812 -1.75574 0
M  V30 169 C 16.343 1.87142 -0.568979 0
M  V30 170 O 17.549 2.63513 -0.653682 0
M  V30 171 C 16.005 1.81519 -3.10771 0
M  V30 172 C 15.613 0.984839 -4.37041 0
M  V30 173 C 17.357 2.53727 -3.40327 0
M  V30 174 C 15.264 1.80209 -5.63275 0
M  V30 175 H 14.194 0.374412 -0.65447 0
M  V30 176 H 16.845 0.248138 -1.81815 0
M  V30 177 H 15.227 2.60115 -2.98591 0
M  V30 178 H 16.401 0.242455 -4.60162 0
M  V30 179 H 14.716 0.37691 -4.14691 0
M  V30 180 H 17.313 3.15292 -4.3185 0
M  V30 181 H 17.656 3.24447 -2.60845 0
M  V30 182 H 18.189 1.82156 -3.53644 0
M  V30 183 H 14.928 1.13896 -6.45529 0
M  V30 184 H 14.448 2.52022 -5.44284 0
M  V30 185 H 16.127 2.37364 -6.01887 0
M  V30 186 N 16.2591 1.48442 0.529413 0
M  V30 187 C 17.5081 1.55742 1.28169 0
M  V30 188 C 17.8211 0.236511 1.94165 0
M  V30 189 O 19.0271 0.187761 2.7085 0
M  V30 190 C 17.4831 2.74667 2.32564 0
M  V30 191 C 17.0911 4.13402 1.72636 0
M  V30 192 C 18.8351 2.9128 3.08798 0
M  V30 193 C 16.7421 5.23587 2.74975 0
M  V30 194 H 15.6721 0.579796 0.48203 0
M  V30 195 H 18.3231 1.74776 0.559056 0
M  V30 196 H 16.7051 2.49067 3.07866 0
M  V30 197 H 17.8791 4.49022 1.03519 0
M  V30 198 H 16.1941 4.0191 1.08892 0
M  V30 199 H 18.7911 3.70767 3.85274 0
M  V30 200 H 19.1341 2.00757 3.64695 0
M  V30 201 H 19.6671 3.16782 2.40611 0
M  V30 202 H 16.4061 6.16076 2.23897 0
M  V30 203 H 15.9261 4.92454 3.42417 0
M  V30 204 H 17.6051 5.51724 3.37949 0
M  V30 205 N 17.7372 -0.778329 1.37039 0
M  V30 206 C 18.9862 -1.53189 1.3121 0
M  V30 207 C 19.2992 -1.95328 -0.103095 0
M  V30 208 O 20.5052 -2.70012 -0.283826 0
M  V30 209 C 18.9612 -2.76591 2.30272 0
M  V30 210 C 18.5692 -2.41577 3.77286 0
M  V30 211 C 20.3132 -3.5455 2.33441 0
M  V30 212 C 18.2202 -3.61441 4.68096 0
M  V30 213 H 17.1502 -0.5751 0.487622 0
M  V30 214 H 19.8012 -0.853101 1.62464 0
M  V30 215 H 18.1832 -3.46326 1.92027 0
M  V30 216 H 19.3572 -1.79668 4.2433 0
M  V30 217 H 17.6722 -1.76806 3.76999 0
M  V30 218 H 20.2692 -4.43628 2.98493 0
M  V30 219 H 20.6122 -3.93936 1.34611 0
M  V30 220 H 21.1452 -2.91805 2.7036 0
M  V30 221 H 17.8842 -3.27142 5.6803 0
M  V30 222 H 17.4042 -4.22478 4.25761 0
M  V30 223 H 19.0832 -4.28335 4.8491 0
M  V30 224 N 19.2153 -1.21501 -1.00376 0
M  V30 225 C 20.1453 -0.999478 -2.11028 0
M  V30 226 C 21.1263 0.0759671 -1.6993 0
M  V30 227 O 22.3113 -0.0841106 -1.94018 0
M  V30 228 C 19.4413 -0.564709 -3.42678 0
M  V30 229 C 18.3953 -1.58486 -3.97576 0
M  V30 230 C 17.7213 -1.00628 -5.25146 0
M  V30 231 C 19.0213 -2.97204 -4.29496 0
M  V30 232 H 20.7153 -1.92495 -2.29317 0
M  V30 233 H 18.2613 -0.92693 -1.102 0
M  V30 234 H 20.2143 -0.401091 -4.19487 0
M  V30 235 H 18.9383 0.396411 -3.24185 0
M  V30 236 H 17.5973 -1.73606 -3.22888 0
M  V30 237 H 17.2453 -0.0368439 -5.02987 0
M  V30 238 H 16.9453 -1.68771 -5.62841 0
M  V30 239 H 18.4693 -0.854015 -6.04598 0
M  V30 240 H 19.8833 -2.8552 -4.97143 0
M  V30 241 H 18.2803 -3.62372 -4.78338 0
M  V30 242 H 19.3503 -3.47956 -3.3772 0
M  V30 243 N 20.6934 1.19889 -1.02296 0
M  V30 244 C 21.6414 2.24938 -0.592081 0
M  V30 245 C 22.6354 1.65257 0.372357 0
M  V30 246 O 23.8414 1.78371 0.241583 0
M  V30 247 H 20.2164 0.731787 -0.173182 0
M  V30 248 H 22.1874 2.58603 -1.48885 0
M  V30 249 C 20.9364 3.47668 0.047351 0
M  V30 250 H 20.2594 3.93875 -0.685772 0
M  V30 251 H 21.6994 4.22852 0.311862 0
M  V30 252 C 20.1584 3.11136 1.29212 0
M  V30 253 O 20.6884 3.2325 2.38479 0
M  V30 254 N 18.8944 2.65625 1.17863 0
M  V30 255 H 18.4414 2.55968 0.289493 0
M  V30 256 H 18.3994 2.41553 2.01245 0
M  V30 257 N 22.1715 0.800033 1.35784 0
M  V30 258 C 23.4195 0.376597 1.9856 0
M  V30 259 C 23.7405 -1.05812 1.63795 0
M  V30 260 O 23.0105 -1.73103 0.917171 0
M  V30 261 H 21.5905 0.136261 0.734467 0
M  V30 262 H 24.2525 1.02442 1.65806 0
M  V30 263 H 23.3485 0.477002 3.08433 0
M  V30 264 N 23.6496 -1.47581 0.552962 0
M  V30 265 C 25.0656 -1.5818 0.212424 0
M  V30 266 C 25.2656 -1.55213 -1.28496 0
M  V30 267 O 24.3216 -1.45329 -2.06484 0
M  V30 268 C 25.6346 -2.88865 0.835318 0
M  V30 269 C 27.1826 -3.0244 0.806156 0
M  V30 270 C 27.6576 -4.35819 1.40804 0
M  V30 271 N 29.1486 -4.42444 1.37103 0
M  V30 272 C 29.8836 -5.44202 1.80641 0
M  V30 273 N 29.3796 -6.52795 2.32015 0
M  V30 274 N 31.1726 -5.35222 1.71738 0
M  V30 275 H 23.3236 -1.47753 1.52587 0
M  V30 276 H 25.5866 -0.702941 0.636064 0
M  V30 277 H 25.2926 -2.9676 1.88749 0
M  V30 278 H 25.1666 -3.7579 0.325848 0
M  V30 279 H 27.5536 -2.94144 -0.237317 0
M  V30 280 H 27.6346 -2.17068 1.35334 0
M  V30 281 H 27.2786 -4.44871 2.45056 0
M  V30 282 H 27.2086 -5.19916 0.836338 0
M  V30 283 H 29.6996 -3.6456 0.995202 0
M  V30 284 H 30.0126 -7.26609 2.63171 0
M  V30 285 H 28.3576 -6.53696 2.36023 0
M  V30 286 H 31.5486 -4.49284 1.31382 0
M  V30 287 H 31.7216 -6.14389 2.05987 0
M  V30 288 N 25.1277 -0.289203 -1.54924 0
M  V30 289 C 26.5437 0.0645403 -1.59469 0
M  V30 290 C 26.7437 1.53419 -1.30632 0
M  V30 291 O 25.7997 2.2852 -1.074 0
M  V30 292 C 27.1127 -0.32278 -2.98963 0
M  V30 293 C 28.6607 -0.270564 -3.11828 0
M  V30 294 C 29.1357 -0.632532 -4.53611 0
M  V30 295 N 30.6267 -0.584617 -4.59496 0
M  V30 296 C 31.3617 -0.837314 -5.67254 0
M  V30 297 N 30.8577 -1.15536 -6.83098 0
M  V30 298 N 32.6507 -0.765166 -5.56868 0
M  V30 299 H 24.8017 -1.24714 -1.71931 0
M  V30 300 H 27.0647 -0.504809 -0.802416 0
M  V30 301 H 26.7707 -1.34541 -3.24948 0
M  V30 302 H 26.6447 0.32944 -3.75759 0
M  V30 303 H 29.0317 0.742805 -2.85598 0
M  V30 304 H 29.1127 -0.957242 -2.37214 0
M  V30 305 H 28.7567 -1.64365 -4.80569 0
M  V30 306 H 28.6867 0.07609 -5.26545 0
M  V30 307 H 31.1777 -0.349248 -3.76283 0
M  V30 308 H 31.4907 -1.33447 -7.61191 0
M  V30 309 H 29.8357 -1.19328 -6.84679 0
M  V30 310 H 33.0267 -0.516432 -4.65243 0
M  V30 311 H 33.1997 -0.965477 -6.40767 0
M  V30 312 N 26.6058 1.57591 -0.0167156 0
M  V30 313 C 27.5688 2.08393 0.954204 0
M  V30 314 C 28.5688 0.996531 1.26198 0
M  V30 315 O 29.7588 1.25858 1.20438 0
M  V30 316 C 26.8908 2.5394 2.27436 0
M  V30 317 H 28.0838 2.95455 0.514451 0
M  V30 318 H 25.6368 1.54582 0.231089 0
M  V30 319 H 26.3718 1.70171 2.76066 0
M  V30 320 H 26.1568 3.33371 2.06412 0
M  V30 321 H 27.6468 2.93512 2.97053 0
M  V30 322 N 28.0839 -0.256276 1.55502 0
M  V30 323 C 29.3319 -0.983672 1.76545 0
M  V30 324 C 29.6529 -1.86206 0.578982 0
M  V30 325 O 28.9229 -1.91656 -0.405577 0
M  V30 326 H 27.5029 -0.366191 0.651086 0
M  V30 327 H 30.1649 -0.276479 1.92929 0
M  V30 328 H 29.2609 -1.61087 2.67315 0
M  V30 329 N 29.562 -1.4872 -0.521534 0
M  V30 330 C 30.509 -1.63871 -1.62527 0
M  V30 331 C 31.479 -0.480559 -1.58996 0
M  V30 332 O 32.664 -0.705085 -1.77294 0
M  V30 333 C 29.804 -1.69227 -3.00759 0
M  V30 334 C 28.917 -2.96207 -3.14461 0
M  V30 335 C 28.052 -2.92671 -4.43303 0
M  V30 336 C 27.091 -4.14318 -4.50563 0
M  V30 337 N 26.228 -4.0881 -5.70805 0
M  V30 338 H 31.068 -2.58123 -1.48918 0
M  V30 339 H 28.605 -1.28 -0.724878 0
M  V30 340 H 30.563 -1.70314 -3.80853 0
M  V30 341 H 29.193 -0.784586 -3.1312 0
M  V30 342 H 28.245 -3.04826 -2.27564 0
M  V30 343 H 29.557 -3.86192 -3.15686 0
M  V30 344 H 28.711 -2.92206 -5.31696 0
M  V30 345 H 27.45 -2.00429 -4.44612 0
M  V30 346 H 26.455 -4.15049 -3.60575 0
M  V30 347 H 27.68 -5.07729 -4.50986 0
M  V30 348 H 25.626 -3.19394 -5.72995 0
M  V30 349 H 25.543 -4.92509 -5.7356 0
M  V30 350 H 26.811 -4.12418 -6.61462 0
M  V30 351 N 31.0401 0.771051 -1.3745 0
M  V30 352 C 31.9871 1.88435 -1.3327 0
M  V30 353 C 32.9571 1.64914 -0.198136 0
M  V30 354 O 34.1421 1.86821 -0.387606 0
M  V30 355 C 31.2821 3.25509 -1.14622 0
M  V30 356 C 30.3951 3.60979 -2.37314 0
M  V30 357 C 29.5301 4.87265 -2.11533 0
M  V30 358 C 28.5691 5.15469 -3.30088 0
M  V30 359 N 27.7061 6.32944 -3.03853 0
M  V30 360 H 32.5461 1.91344 -2.28455 0
M  V30 361 H 30.0831 0.935466 -1.13523 0
M  V30 362 H 32.0411 4.04582 -1.01831 0
M  V30 363 H 30.6711 3.21974 -0.230837 0
M  V30 364 H 29.7231 2.76885 -2.60842 0
M  V30 365 H 31.0351 3.77759 -3.25729 0
M  V30 366 H 30.1891 5.74244 -1.95777 0
M  V30 367 H 28.9281 4.7259 -1.20457 0
M  V30 368 H 27.9331 4.26966 -3.46382 0
M  V30 369 H 29.1581 5.32052 -4.22016 0
M  V30 370 H 27.1041 6.19625 -2.15407 0
M  V30 371 H 27.0211 6.50143 -3.85812 0
M  V30 372 H 28.2891 7.22857 -2.91716 0
M  V30 373 N 32.5182 1.22032 0.997298 0
M  V30 374 C 33.4812 0.987909 2.06816 0
M  V30 375 C 34.4812 -0.0440084 1.6074 0
M  V30 376 O 35.6712 0.194053 1.73116 0
M  V30 377 C 32.8032 0.49132 3.37341 0
M  V30 378 H 33.9962 1.93803 2.28868 0
M  V30 379 H 31.5492 1.03838 1.16822 0
M  V30 380 H 32.2842 -0.463364 3.20973 0
M  V30 381 H 32.0692 1.23575 3.72118 0
M  V30 382 H 33.5592 0.348824 4.16141 0
M  V30 383 N 33.9963 -1.19345 1.0293 0
M  V30 384 C 35.2423 -1.89318 0.727083 0
M  V30 385 C 35.5753 -1.79446 -0.742483 0
M  V30 386 O 34.8503 -1.1871 -1.54072 0
M  V30 387 C 35.1333 -3.40238 1.17942 0
M  V30 388 C 34.9863 -3.58979 2.71024 0
M  V30 389 C 36.3053 -4.33479 0.760548 0
M  V30 390 H 33.4243 -0.687475 0.265606 0
M  V30 391 H 36.0663 -1.40477 1.2793 0
M  V30 392 H 34.2163 -3.81964 0.709608 0
M  V30 393 H 35.8883 -3.26421 3.25955 0
M  V30 394 H 34.1313 -3.02018 3.11396 0
M  V30 395 H 34.8023 -4.64823 2.9773 0
M  V30 396 H 37.2783 -3.99469 1.16464 0
M  V30 397 H 36.1543 -5.37664 1.10493 0
M  V30 398 H 36.4153 -4.40813 -0.337063 0
M  V30 399 N 35.4744 -0.807222 -1.35358 0
M  V30 400 C 36.7234 -0.384376 -1.98004 0
M  V30 401 C 37.0364 1.0543 -1.64754 0
M  V30 402 O 38.2424 1.58029 -2.20769 0
M  V30 403 C 36.6984 -0.636326 -3.5423 0
M  V30 404 C 36.3064 -2.08759 -3.96388 0
M  V30 405 C 38.0504 -0.278869 -4.23583 0
M  V30 406 C 35.9574 -2.28525 -5.45463 0
M  V30 407 H 34.8874 -0.139986 -0.740891 0
M  V30 408 H 37.5384 -0.991369 -1.54415 0
M  V30 409 H 35.9204 0.0406256 -3.95979 0
M  V30 410 H 37.0944 -2.8024 -3.6579 0
M  V30 411 H 35.4094 -2.40497 -3.39926 0
M  V30 412 H 38.0064 -0.404599 -5.33167 0
M  V30 413 H 38.3494 0.775012 -4.09022 0
M  V30 414 H 38.8824 -0.909764 -3.87257 0
M  V30 415 H 35.6214 -3.32361 -5.64992 0
M  V30 416 H 35.1414 -1.61569 -5.77629 0
M  V30 417 H 36.8204 -2.10109 -6.11934 0
M  V30 418 N 36.9525 1.47285 -0.560781 0
M  V30 419 C 38.1985 2.02764 -0.0381184 0
M  V30 420 C 38.5315 1.43384 1.30976 0
M  V30 421 O 37.8065 0.590733 1.85312 0
M  V30 422 C 38.0895 3.60064 0.0511427 0
M  V30 423 C 37.9425 4.2987 -1.32408 0
M  V30 424 C 39.2615 4.33439 0.762795 0
M  V30 425 H 36.3805 0.736841 -0.0153264 0
M  V30 426 H 39.0225 1.75675 -0.723759 0
M  V30 427 H 37.1725 3.83274 0.635065 0
M  V30 428 H 38.8445 4.17989 -1.95148 0
M  V30 429 H 37.0875 3.90085 -1.8978 0
M  V30 430 H 37.7585 5.38478 -1.21431 0
M  V30 431 H 40.2345 4.15243 0.266965 0
M  V30 432 H 39.1105 5.43124 0.794221 0
M  V30 433 H 39.3715 4.02915 1.81966 0
M  V30 434 N 38.4306 0.297415 1.54768 0
M  V30 435 C 39.3786 -0.596051 2.24833 0
M  V30 436 C 40.3726 -1.13992 1.25308 0
M  V30 437 O 41.5786 -1.09098 1.4317 0
M  V30 438 H 37.9536 -0.210814 0.721846 0
M  V30 439 H 39.9246 0.0174667 2.98395 0
M  V30 440 C 38.6736 -1.75818 2.99972 0
M  V30 441 H 37.9966 -1.3489 3.76357 0
M  V30 442 H 39.4366 -2.35949 3.52284 0
M  V30 443 C 37.8956 -2.66014 2.06732 0
M  V30 444 O 38.4256 -3.67009 1.63302 0
M  V30 445 N 36.6316 -2.33669 1.72763 0
M  V30 446 H 36.1786 -1.51586 2.08277 0
M  V30 447 H 36.1366 -2.94285 1.10652 0
M  V30 448 N 39.9087 -1.5758 0.0250728 0
M  V30 449 C 41.1367 -1.9593 -0.664747 0
M  V30 450 C 41.5517 -0.901352 -1.65895 0
M  V30 451 O 40.9087 0.117255 -1.82123 0
M  V30 452 C 40.9597 -3.34342 -1.37468 0
M  V30 453 O 40.6807 -4.36079 -0.420324 0
M  V30 454 C 42.1817 -3.873 -2.1567 0
M  V30 455 H 39.4017 -0.645405 -0.183557 0
M  V30 456 H 41.9457 -2.04329 0.0836372 0
M  V30 457 H 40.1007 -3.27175 -2.0745 0
M  V30 458 H 40.5147 -5.16297 -0.923991 0
M  V30 459 H 41.9887 -4.86504 -2.60803 0
M  V30 460 H 42.4657 -3.21331 -2.99405 0
M  V30 461 H 43.0717 -3.97723 -1.50654 0
M  V30 462 N 41.3868 0.248026 -1.55636 0
M  V30 463 C 42.6168 0.992367 -1.81206 0
M  V30 464 C 43.0248 1.7949 -0.598324 0
M  V30 465 O 42.3678 1.78292 0.442434 0
M  V30 466 C 42.4298 1.97926 -3.00109 0
M  V30 467 C 42.0938 1.36377 -4.36177 0
M  V30 468 C 43.0908 0.76682 -5.14214 0
M  V30 469 C 40.7758 1.38347 -4.82872 0
M  V30 470 C 42.7698 0.197778 -6.37093 0
M  V30 471 C 40.4568 0.810574 -6.057 0
M  V30 472 C 41.4548 0.218754 -6.8265 0
M  V30 473 O 41.1428 -0.345298 -8.03158 0
M  V30 474 H 40.8748 0.297704 -0.606917 0
M  V30 475 H 43.4288 0.276517 -2.0353 0
M  V30 476 H 41.6588 2.73339 -2.73538 0
M  V30 477 H 43.3478 2.58694 -3.12781 0
M  V30 478 H 44.1138 0.744114 -4.79258 0
M  V30 479 H 39.9928 1.8335 -4.2297 0
M  V30 480 H 43.5368 -0.264788 -6.97097 0
M  V30 481 H 39.4338 0.830604 -6.40134 0
M  V30 482 H 40.2018 -0.237055 -8.18157 0
M  V30 483 N 42.8649 1.48995 0.513639 0
M  V30 484 C 43.7749 1.67443 1.64317 0
M  V30 485 C 44.7909 0.556947 1.64846 0
M  V30 486 O 45.9669 0.830082 1.83498 0
M  V30 487 C 43.0319 1.72515 3.00732 0
M  V30 488 C 42.0929 2.96009 3.1093 0
M  V30 489 C 41.3259 3.00829 4.40837 0
M  V30 490 O 41.5489 2.13594 5.28898 0
M  V30 491 O 40.4829 3.93168 4.55744 0
M  V30 492 H 44.3089 2.63106 1.51687 0
M  V30 493 H 41.8939 1.32588 0.688543 0
M  V30 494 H 43.7759 1.78277 3.81831 0
M  V30 495 H 42.4509 0.800278 3.13651 0
M  V30 496 H 41.3579 2.9577 2.29065 0
M  V30 497 H 42.6909 3.87934 3.02933 0
M  V30 498 N 44.343 -0.763751 1.37857 0
M  V30 499 C 45.591 -1.51957 1.33243 0
M  V30 500 C 45.912 -1.94835 -0.0801709 0
M  V30 501 O 45.182 -1.66894 -1.02582 0
M  V30 502 H 43.762 -0.563626 0.49024 0
M  V30 503 H 46.424 -0.908504 1.7243 0
M  V30 504 H 45.52 -2.41523 1.97669 0
M  V30 505 N 45.8211 -1.22559 -0.990812 0
M  V30 506 C 46.7531 -0.955325 -2.08342 0
M  V30 507 C 47.7661 0.0668408 -1.62663 0
M  V30 508 O 48.9551 -0.167421 -1.77713 0
M  V30 509 C 46.0551 -0.415566 -3.36342 0
M  V30 510 C 45.2281 -1.49544 -4.11042 0
M  V30 511 C 44.2871 -0.962399 -5.17324 0
M  V30 512 O 43.3131 -1.64907 -5.44788 0
M  V30 513 N 44.5151 0.215134 -5.80101 0
M  V30 514 H 47.2801 -1.89596 -2.32106 0
M  V30 515 H 44.8411 -1.13276 -1.15673 0
M  V30 516 H 46.8331 -0.0442386 -4.04676 0
M  V30 517 H 45.4031 0.430232 -3.09625 0
M  V30 518 H 44.6231 -2.04 -3.37309 0
M  V30 519 H 45.9111 -2.22195 -4.57719 0
M  V30 520 H 45.3091 0.789779 -5.6016 0
M  V30 521 H 43.8661 0.527826 -6.49659 0
M  V30 522 N 47.2992 1.18797 -1.03562 0
M  V30 523 C 48.5272 1.92599 -0.755869 0
M  V30 524 C 48.9422 1.75886 0.686271 0
M  V30 525 O 48.2992 1.08517 1.46732 0
M  V30 526 C 48.3502 3.44159 -1.10619 0
M  V30 527 O 48.0712 3.60341 -2.4917 0
M  V30 528 C 49.5722 4.3507 -0.850214 0
M  V30 529 H 46.7922 0.611587 -0.276048 0
M  V30 530 H 49.3362 1.50742 -1.38192 0
M  V30 531 H 47.4912 3.83823 -0.525194 0
M  V30 532 H 47.9052 4.54128 -2.62427 0
M  V30 533 H 49.3792 5.39989 -1.14523 0
M  V30 534 H 49.8562 4.38673 0.215176 0
M  V30 535 H 50.4622 4.01097 -1.41426 0
M  V30 536 N 48.7773 0.814389 1.34928 0
M  V30 537 C 50.1933 0.499084 1.51596 0
M  V30 538 C 50.3933 -0.978319 1.76157 0
M  V30 539 O 49.4493 -1.76309 1.80752 0
M  V30 540 C 50.7623 1.35121 2.68631 0
M  V30 541 C 52.3103 1.34746 2.82511 0
M  V30 542 C 52.7853 2.18388 4.0258 0
M  V30 543 N 54.2763 2.15966 4.09772 0
M  V30 544 C 55.0113 2.77437 5.01813 0
M  V30 545 N 54.5073 3.47866 5.99134 0
M  V30 546 N 56.3003 2.67037 4.94619 0
M  V30 547 H 48.4513 1.7711 1.17243 0
M  V30 548 H 50.7143 0.754256 0.574284 0
M  V30 549 H 50.4203 2.40001 2.57085 0
M  V30 550 H 50.2943 1.00991 3.63429 0
M  V30 551 H 52.6813 0.30648 2.93504 0
M  V30 552 H 52.7623 1.72869 1.88547 0
M  V30 553 H 52.4063 3.2253 3.92347 0
M  V30 554 H 52.3363 1.77621 4.9574 0
M  V30 555 H 54.8273 1.64729 3.40107 0
M  V30 556 H 55.1403 3.92038 6.65977 0
M  V30 557 H 53.4853 3.51972 5.99284 0
M  V30 558 H 56.6763 2.11597 4.17546 0
M  V30 559 H 56.8493 3.15232 5.66156 0
M  V30 560 N 50.2554 -1.46986 0.568584 0
M  V30 561 C 51.1654 -2.33942 -0.17555 0
M  V30 562 C 52.1814 -1.48891 -0.90041 0
M  V30 563 O 53.3574 -1.81794 -0.86676 0
M  V30 564 C 50.4224 -3.25811 -1.18524 0
M  V30 565 C 49.4834 -4.26757 -0.466582 0
M  V30 566 C 48.7164 -5.14236 -1.42817 0
M  V30 567 O 48.9394 -5.04379 -2.66379 0
M  V30 568 O 47.8734 -5.94412 -0.946453 0
M  V30 569 H 51.6994 -2.98896 0.538036 0
M  V30 570 H 49.2844 -1.4573 0.329097 0
M  V30 571 H 51.1664 -3.82527 -1.76779 0
M  V30 572 H 49.8414 -2.63471 -1.88055 0
M  V30 573 H 48.7484 -3.73769 0.157451 0
M  V30 574 H 50.0814 -4.91843 0.187485 0
M  V30 575 N 51.7335 -0.305618 -1.54608 0
M  V30 576 C 53.1495 0.0476228 -1.59529 0
M  V30 577 C 53.3495 1.52025 -1.32252 0
M  V30 578 O 52.4055 2.27368 -1.09818 0
M  V30 579 C 53.7185 -0.354471 -2.98603 0
M  V30 580 C 55.2665 -0.303622 -3.11524 0
M  V30 581 C 55.7415 -0.680608 -4.52915 0
M  V30 582 N 57.2325 -0.63332 -4.5885 0
M  V30 583 C 57.9675 -0.897432 -5.66334 0
M  V30 584 N 57.4635 -1.22775 -6.81834 0
M  V30 585 N 59.2565 -0.824186 -5.56025 0
M  V30 586 H 51.4075 -1.2653 -1.70599 0
M  V30 587 H 53.6705 -0.513291 -0.797017 0
M  V30 588 H 53.3765 -1.3798 -3.23503 0
M  V30 589 H 53.2505 0.289568 -3.76087 0
M  V30 590 H 55.6375 0.712472 -2.8637 0
M  V30 591 H 55.7185 -0.982348 -2.36185 0
M  V30 592 H 55.3625 -1.69453 -4.78799 0
M  V30 593 H 55.2925 0.0202385 -5.26596 0
M  V30 594 H 57.7835 -0.389138 -3.75891 0
M  V30 595 H 58.0965 -1.41513 -7.59733 0
M  V30 596 H 56.4415 -1.26583 -6.83375 0
M  V30 597 H 59.6325 -0.565748 -4.64669 0
M  V30 598 H 59.8055 -1.03338 -6.39707 0
M  V30 599 N 53.2116 1.57565 -0.0334293 0
M  V30 600 C 54.6226 1.79746 0.504798 0
M  V30 601 C 54.9736 0.944091 1.71992 0
M  V30 602 O 54.0986 0.155694 2.15839 0
M  V30 603 C 54.6936 3.25997 0.922567 0
M  V30 604 C 53.2526 3.49159 1.40588 0
M  V30 605 C 52.3996 2.74785 0.372633 0
M  V30 606 H 55.3506 1.56565 -0.259436 0
M  V30 607 H 55.3716 3.35945 1.78666 0
M  V30 608 H 54.8836 3.88081 0.0379825 0
M  V30 609 H 52.9846 2.92332 2.31025 0
M  V30 610 H 53.0976 4.57873 1.41028 0
M  V30 611 H 51.4616 2.40391 0.841672 0
M  V30 612 H 52.2446 3.39587 -0.503559 0
M  V30 613 N 54.6897 -0.239769 1.55765 0
M  V30 614 C 55.9197 -0.982743 1.8173 0
M  V30 615 C 56.3277 -1.7917 0.607835 0
M  V30 616 O 55.6707 -1.78525 -0.432973 0
M  V30 617 C 55.7327 -1.96332 3.01155 0
M  V30 618 C 55.3967 -1.34062 4.36894 0
M  V30 619 C 56.3937 -0.739539 5.14613 0
M  V30 620 C 54.0787 -1.35784 4.83599 0
M  V30 621 C 56.0727 -0.163989 6.37189 0
M  V30 622 C 53.7597 -0.778441 6.06122 0
M  V30 623 C 54.7577 -0.182548 6.82756 0
M  V30 624 O 54.4457 0.387887 8.02964 0
M  V30 625 H 54.1777 -0.294481 0.608487 0
M  V30 626 H 56.7317 -0.26572 2.03674 0
M  V30 627 H 54.9617 -2.71884 2.74984 0
M  V30 628 H 56.6507 -2.57032 3.14149 0
M  V30 629 H 57.4167 -0.718687 4.79646 0
M  V30 630 H 53.2957 -1.81105 4.23936 0
M  V30 631 H 56.8397 0.301753 6.96947 0
M  V30 632 H 52.7367 -0.796645 6.40565 0
M  V30 633 H 53.5047 0.28044 8.18019 0
M  V30 634 N 56.1678 -1.49265 -0.50573 0
M  V30 635 C 57.3928 -1.62478 -1.28902 0
M  V30 636 C 57.8178 -0.294332 -1.85783 0
M  V30 637 O 57.1758 0.737412 -1.65626 0
M  V30 638 C 57.2238 -2.69268 -2.39848 0
M  V30 639 O 56.3278 -2.28113 -3.43567 0
M  V30 640 H 55.6688 -0.54399 -0.380751 0
M  V30 641 H 58.1988 -1.95421 -0.605952 0
M  V30 642 H 58.2088 -2.91291 -2.85681 0
M  V30 643 H 56.8838 -3.65846 -1.97812 0
M  V30 644 H 55.4608 -2.16401 -3.03685 0
M  V30 645 N 57.6459 0.756429 -1.3826 0
M  V30 646 C 58.8759 1.54341 -1.3734 0
M  V30 647 C 59.2839 1.89159 0.0393917 0
M  V30 648 O 58.6269 1.5307 1.01565 0
M  V30 649 C 58.6889 2.87238 -2.16182 0
M  V30 650 C 58.3529 2.74973 -3.65019 0
M  V30 651 C 59.3499 2.44962 -4.58574 0
M  V30 652 C 57.0349 2.92515 -4.08338 0
M  V30 653 C 59.0289 2.32642 -5.93428 0
M  V30 654 C 56.7159 2.79815 -5.43274 0
M  V30 655 C 57.7139 2.49921 -6.35632 0
M  V30 656 O 57.4019 2.37275 -7.68086 0
M  V30 657 H 57.1339 0.484281 -0.471643 0
M  V30 658 H 59.6879 0.944152 -1.82414 0
M  V30 659 H 57.9179 3.49342 -1.65822 0
M  V30 660 H 59.6069 3.48731 -2.07705 0
M  V30 661 H 60.3729 2.31081 -4.26412 0
M  V30 662 H 56.2519 3.14781 -3.368 0
M  V30 663 H 59.7959 2.0923 -6.65484 0
M  V30 664 H 55.6929 2.93269 -5.75034 0
M  V30 665 H 56.4609 2.52509 -7.78577 0
M  V30 666 N 59.124 1.23083 0.984299 0
M  V30 667 C 60.364 1.07226 1.74017 0
M  V30 668 C 60.728 -0.384766 1.88105 0
M  V30 669 O 61.929 -0.664411 2.60459 0
M  V30 670 C 60.2 1.77348 3.10294 0
M  V30 671 S 61.759 1.77014 4.01512 0
M  V30 672 H 58.577 0.383819 0.598502 0
M  V30 673 H 61.179 1.56158 1.17622 0
M  V30 674 H 59.883 2.82506 2.97689 0
M  V30 675 H 59.414 1.28682 3.71759 0
M  V30 676 H 61.429 0.825956 4.89277 0
M  V30 677 N 60.6021 -1.18246 1.0419 0
M  V30 678 C 61.5321 -2.24127 0.654914 0
M  V30 679 C 62.5131 -1.66617 -0.342451 0
M  V30 680 O 63.6981 -1.92924 -0.222277 0
M  V30 681 C 60.8281 -3.47295 0.0183757 0
M  V30 682 C 59.7821 -4.17563 0.939414 0
M  V30 683 C 59.1081 -5.34438 0.167286 0
M  V30 684 C 60.4081 -4.70917 2.25908 0
M  V30 685 H 62.1021 -2.56753 1.54007 0
M  V30 686 H 59.6481 -1.23414 0.74195 0
M  V30 687 H 61.6011 -4.20572 -0.264082 0
M  V30 688 H 60.3251 -3.13907 -0.901664 0
M  V30 689 H 58.9841 -3.46186 1.20628 0
M  V30 690 H 58.6321 -4.97298 -0.7552 0
M  V30 691 H 58.3321 -5.82388 0.780901 0
M  V30 692 H 59.8561 -6.10504 -0.108125 0
M  V30 693 H 61.2701 -5.35882 2.03724 0
M  V30 694 H 59.6671 -5.29406 2.82577 0
M  V30 695 H 60.7371 -3.88272 2.9047 0
M  V30 696 N 62.0802 -0.821533 -1.34494 0
M  V30 697 C 63.3262 -0.409552 -1.98622 0
M  V30 698 C 63.6592 1.0244 -1.64984 0
M  V30 699 O 62.9342 1.71325 -0.920758 0
M  V30 700 C 63.2172 -0.610458 -3.54888 0
M  V30 701 C 63.0702 -2.09043 -3.98273 0
M  V30 702 C 64.3892 -0.0455379 -4.40076 0
M  V30 703 H 61.5082 -0.15028 -0.721516 0
M  V30 704 H 64.1502 -1.03384 -1.59411 0
M  V30 705 H 62.3002 -0.079044 -3.8842 0
M  V30 706 H 63.9722 -2.68537 -3.75081 0
M  V30 707 H 62.2152 -2.58139 -3.48635 0
M  V30 708 H 62.8862 -2.18182 -5.07051 0
M  V30 709 H 65.3622 -0.499557 -4.1309 0
M  V30 710 H 64.2382 -0.215922 -5.48475 0
M  V30 711 H 64.4992 1.04939 -4.29465 0
M  V30 712 N 63.5583 1.46682 -0.576371 0
M  V30 713 C 64.5213 2.28707 0.150239 0
M  V30 714 C 65.5213 1.38035 0.824794 0
M  V30 715 O 66.7113 1.60476 0.677719 0
M  V30 716 C 63.8433 3.18248 1.22192 0
M  V30 717 H 65.0363 2.94423 -0.570521 0
M  V30 718 H 62.5893 1.52688 -0.334078 0
M  V30 719 H 63.3243 2.57265 1.97447 0
M  V30 720 H 63.1093 3.85 0.742812 0
M  V30 721 H 64.5993 3.80001 1.73172 0
M  V30 722 N 65.0364 0.313813 1.54444 0
M  V30 723 C 66.2844 -0.291099 1.99993 0
M  V30 724 C 66.6054 -1.53418 1.20366 0
M  V30 725 O 65.8754 -1.93544 0.302927 0
M  V30 726 H 64.4554 -0.110552 0.738774 0
M  V30 727 H 67.1174 0.428106 1.9014 0
M  V30 728 H 66.2134 -0.554268 3.07139 0
M  V30 729 N 66.5145 -1.57545 0.0417849 0
M  V30 730 C 67.7635 -1.91494 -0.633492 0
M  V30 731 C 68.0765 -0.921084 -1.72556 0
M  V30 732 O 69.2825 -1.15228 -2.45835 0
M  V30 733 C 67.7385 -3.40072 -1.17808 0
M  V30 734 C 67.3465 -4.47843 -0.118633 0
M  V30 735 C 69.0905 -3.8307 -1.82915 0
M  V30 736 C 66.9975 -5.87529 -0.675578 0
M  V30 737 H 65.9275 -0.714653 -0.24039 0
M  V30 738 H 68.5785 -1.83175 0.109148 0
M  V30 739 H 66.9605 -3.43364 -1.97274 0
M  V30 740 H 68.1345 -4.56128 0.654494 0
M  V30 741 H 66.4495 -4.14128 0.434414 0
M  V30 742 H 69.0465 -4.84794 -2.25563 0
M  V30 743 H 69.3895 -3.1881 -2.67705 0
M  V30 744 H 69.9225 -3.82255 -1.10119 0
M  V30 745 H 66.6615 -6.55362 0.134475 0
M  V30 746 H 66.1815 -5.82824 -1.4169 0
M  V30 747 H 67.8605 -6.36491 -1.1614 0
M  V30 748 N 67.9926 0.231505 -1.5589 0
M  V30 749 C 68.9026 1.308 -1.94752 0
M  V30 750 C 69.9186 1.51826 -0.849989 0
M  V30 751 O 71.0946 1.6515 -1.15271 0
M  V30 752 C 68.1596 2.63968 -2.24771 0
M  V30 753 C 67.2206 2.51331 -3.48039 0
M  V30 754 C 66.4536 3.78148 -3.76616 0
M  V30 755 O 66.6766 4.80722 -3.07022 0
M  V30 756 O 65.6106 3.75857 -4.70123 0
M  V30 757 H 69.4366 1.0083 -2.86474 0
M  V30 758 H 67.0216 0.433547 -1.42971 0
M  V30 759 H 68.9036 3.42633 -2.45318 0
M  V30 760 H 67.5786 2.9364 -1.36225 0
M  V30 761 H 66.4856 1.709 -3.32782 0
M  V30 762 H 67.8186 2.26601 -4.36936 0
M  V30 763 N 69.4707 1.49531 0.497807 0
M  V30 764 C 70.4177 1.66436 1.59899 0
M  V30 765 C 71.3877 0.505793 1.58212 0
M  V30 766 O 72.5727 0.733202 1.7615 0
M  V30 767 C 69.7127 1.7399 2.98029 0
M  V30 768 C 68.8257 3.01172 3.09708 0
M  V30 769 C 67.9607 2.99686 4.38591 0
M  V30 770 C 66.9997 4.21434 4.43914 0
M  V30 771 N 66.1367 4.1784 5.64229 0
M  V30 772 H 70.9767 2.60459 1.44793 0
M  V30 773 H 68.5137 1.29137 0.704423 0
M  V30 774 H 70.4717 1.76352 3.78095 0
M  V30 775 H 69.1017 0.834301 3.11832 0
M  V30 776 H 68.1537 3.08408 2.22685 0
M  V30 777 H 69.4657 3.91165 3.09502 0
M  V30 778 H 68.6197 3.00628 5.2698 0
M  V30 779 H 67.3587 2.07477 4.41367 0
M  V30 780 H 66.3637 4.20733 3.53926 0
M  V30 781 H 67.5887 5.14839 4.42851 0
M  V30 782 H 65.5347 3.28469 5.67841 0
M  V30 783 H 65.4517 5.01571 5.65652 0
M  V30 784 H 66.7197 4.22889 6.54817 0
M  V30 785 N 70.9488 -0.749086 1.3866 0
M  V30 786 C 71.8988 -1.85368 1.32751 0
M  V30 787 C 72.8828 -1.59511 0.210945 0
M  V30 788 O 74.0748 -1.71255 0.447299 0
M  V30 789 C 71.2038 -3.23131 1.15935 0
M  V30 790 C 70.2898 -3.54864 2.32233 0
M  V30 791 N 70.6808 -3.57625 3.57684 0
M  V30 792 C 68.9788 -3.85154 2.24883 0
M  V30 793 C 69.6798 -3.86753 4.34508 0
M  V30 794 N 68.6558 -4.03812 3.63918 0
M  V30 795 H 72.4578 -1.85787 2.27729 0
M  V30 796 H 69.9718 -0.946658 1.31955 0
M  V30 797 H 71.9688 -4.02185 1.09786 0
M  V30 798 H 70.6288 -3.23961 0.218947 0
M  V30 799 H 71.6398 -3.39276 3.91295 0
M  V30 800 H 68.3168 -3.93672 1.39027 0
M  V30 801 H 69.7068 -3.95474 5.43185 0
M  V30 802 N 72.4269 -1.23603 -0.977757 0
M  V30 803 C 73.8379 -1.06424 -1.53398 0
M  V30 804 C 74.1889 0.367578 -1.92726 0
M  V30 805 O 73.3139 1.25465 -1.76316 0
M  V30 806 C 73.9089 -1.92568 -2.78753 0
M  V30 807 C 72.4679 -1.79642 -3.30765 0
M  V30 808 C 71.6149 -1.88111 -2.03739 0
M  V30 809 H 74.5659 -1.37227 -0.797152 0
M  V30 810 H 74.5869 -1.45203 -3.51705 0
M  V30 811 H 74.0989 -2.96771 -2.50098 0
M  V30 812 H 72.1999 -0.782325 -3.64294 0
M  V30 813 H 72.3129 -2.63174 -4.00345 0
M  V30 814 H 70.6769 -1.31723 -2.17994 0
M  V30 815 H 71.4599 -2.93875 -1.77461 0
M  V30 816 N 73.905 1.17692 -1.04816 0
M  V30 817 C 74.835 2.23777 -0.666791 0
M  V30 818 C 75.816 1.66796 0.33361 0
M  V30 819 O 77.001 1.93039 0.212042 0
M  V30 820 C 74.131 3.47281 -0.0367933 0
M  V30 821 C 73.085 4.17059 -0.961546 0
M  V30 822 C 72.411 5.34342 -0.195626 0
M  V30 823 C 73.711 4.69713 -2.28402 0
M  V30 824 H 75.405 2.55933 -1.55367 0
M  V30 825 H 72.951 1.23019 -0.748484 0
M  V30 826 H 74.904 4.20706 0.241775 0
M  V30 827 H 73.628 3.14381 0.885004 0
M  V30 828 H 72.287 3.45541 -1.22462 0
M  V30 829 H 71.935 4.97692 0.728816 0
M  V30 830 H 71.635 5.81966 -0.811775 0
M  V30 831 H 73.159 6.10553 0.0757473 0
M  V30 832 H 74.573 5.34794 -2.06563 0
M  V30 833 H 72.97 5.279 -2.8538 0
M  V30 834 H 74.04 3.86726 -2.92525 0
M  V30 835 N 75.3831 0.828654 1.34056 0
M  V30 836 C 76.3301 0.252567 2.29414 0
M  V30 837 C 77.3001 -0.62588 1.53857 0
M  V30 838 O 78.4851 -0.566312 1.82202 0
M  V30 839 C 75.6251 -0.574831 3.40279 0
M  V30 840 C 74.7381 0.326499 4.30764 0
M  V30 841 C 73.8731 -0.511016 5.28736 0
M  V30 842 C 72.9121 0.389342 6.1086 0
M  V30 843 N 72.0491 -0.409439 7.00905 0
M  V30 844 H 76.8891 1.07108 2.78086 0
M  V30 845 H 74.4261 0.539677 1.36843 0
M  V30 846 H 76.3841 -1.06992 4.03248 0
M  V30 847 H 75.0141 -1.35841 2.92826 0
M  V30 848 H 74.0661 0.939837 3.68607 0
M  V30 849 H 75.3781 1.01857 4.88289 0
M  V30 850 H 74.5321 -1.07035 5.97184 0
M  V30 851 H 73.2711 -1.23657 4.71763 0
M  V30 852 H 72.2761 0.960769 5.4134 0
M  V30 853 H 73.5011 1.1131 6.69916 0
M  V30 854 H 71.4471 -1.11856 6.46393 0
M  V30 855 H 71.3641 0.224126 7.55668 0
M  V30 856 H 72.6321 -0.951336 7.73673 0
M  V30 857 N 76.8612 -1.46375 0.584142 0
M  V30 858 C 78.1072 -2.02678 0.0703716 0
M  V30 859 C 78.4402 -1.4545 -1.28678 0
M  V30 860 O 77.7152 -0.62014 -1.84349 0
M  V30 861 C 77.9982 -3.60099 0.00614674 0
M  V30 862 C 77.8512 -4.27709 1.3923 0
M  V30 863 C 79.1702 -4.34598 -0.693742 0
M  V30 864 H 76.2892 -0.736504 0.027047 0
M  V30 865 H 78.9312 -1.74501 0.751615 0
M  V30 866 H 77.0812 -3.84236 -0.574009 0
M  V30 867 H 78.7532 -4.14832 2.01773 0
M  V30 868 H 76.9962 -3.87016 1.95962 0
M  V30 869 H 77.6672 -5.36478 1.29982 0
M  V30 870 H 80.1432 -4.15615 -0.200869 0
M  V30 871 H 79.0192 -5.44318 -0.707714 0
M  V30 872 H 79.2802 -4.05759 -1.75533 0
M  V30 873 N 78.3393 -0.321999 -1.54275 0
M  V30 874 C 79.2873 0.560206 -2.25753 0
M  V30 875 C 80.2813 1.11984 -1.27106 0
M  V30 876 O 81.4873 1.06806 -1.44888 0
M  V30 877 H 77.8623 0.199304 -0.725108 0
M  V30 878 H 79.8333 -0.0649365 -2.98329 0
M  V30 879 C 78.5823 1.71023 -3.02731 0
M  V30 880 H 77.9053 1.28885 -3.78456 0
M  V30 881 H 79.3453 2.30314 -3.55993 0
M  V30 882 C 77.8043 2.62692 -2.10938 0
M  V30 883 O 78.3343 3.64364 -1.6912 0
M  V30 884 N 76.5403 2.30891 -1.76459 0
M  V30 885 H 76.0873 1.48253 -2.10663 0
M  V30 886 H 76.0453 2.92487 -1.1532 0
M  V30 887 N 79.8174 1.5752 -0.0501392 0
M  V30 888 C 80.7644 2.1147 0.924603 0
M  V30 889 C 81.7344 1.02182 1.30951 0
M  V30 890 O 82.9194 1.29723 1.39916 0
M  V30 891 C 80.0594 2.66337 2.19451 0
M  V30 892 C 79.1724 3.89708 1.86418 0
M  V30 893 C 78.3074 4.32893 3.07859 0
M  V30 894 C 77.3464 5.48967 2.70742 0
M  V30 895 N 76.4834 5.87211 3.84874 0
M  V30 896 H 81.3234 2.94465 0.457639 0
M  V30 897 H 78.8604 1.45531 0.214266 0
M  V30 898 H 80.8184 2.96247 2.93758 0
M  V30 899 H 79.4484 1.86141 2.63726 0
M  V30 900 H 78.5004 3.66396 1.02264 0
M  V30 901 H 79.8124 4.74074 1.55096 0
M  V30 902 H 78.9664 4.6435 3.90466 0
M  V30 903 H 77.7054 3.47336 3.42358 0
M  V30 904 H 76.7104 5.17183 1.86551 0
M  V30 905 H 77.9354 6.3624 2.37436 0
M  V30 906 H 75.8814 5.04607 4.19175 0
M  V30 907 H 75.7984 6.66266 3.57247 0
M  V30 908 H 77.0664 6.23282 4.68123 0
M  V30 909 N 81.2955 -0.223234 1.56011 0
M  V30 910 C 82.5205 -0.968978 1.83373 0
M  V30 911 C 82.9455 -1.77227 0.630254 0
M  V30 912 O 82.3035 -1.76345 -0.420959 0
M  V30 913 C 82.3515 -1.86363 3.08709 0
M  V30 914 O 81.4555 -2.95873 2.87285 0
M  V30 915 H 80.7965 -0.274461 0.604622 0
M  V30 916 H 83.3265 -0.237056 2.03222 0
M  V30 917 H 83.3365 -2.27376 3.38768 0
M  V30 918 H 82.0115 -1.27319 3.95933 0
M  V30 919 H 80.5885 -2.58818 2.68454 0
M  V30 920 N 82.7736 -1.49793 -0.48987 0
M  V30 921 C 83.7066 -1.61898 -1.60823 0
M  V30 922 C 84.6846 -0.467651 -1.5573 0
M  V30 923 O 85.8686 -0.684682 -1.75626 0
M  V30 924 C 82.9956 -1.58422 -2.99366 0
M  V30 925 C 82.0416 -2.78889 -3.22682 0
M  V30 926 S 82.8746 -4.40429 -3.04602 0
M  V30 927 C 84.0306 -4.39617 -4.4552 0
M  V30 928 H 84.2636 -2.56502 -1.50312 0
M  V30 929 H 81.7966 -1.38822 -0.675849 0
M  V30 930 H 83.7546 -1.57103 -3.79248 0
M  V30 931 H 82.4156 -0.650866 -3.07283 0
M  V30 932 H 81.6086 -2.72708 -4.23847 0
M  V30 933 H 81.2106 -2.77678 -2.50541 0
M  V30 934 H 83.5026 -4.12022 -5.37814 0
M  V30 935 H 84.4456 -5.41097 -4.56749 0
M  V30 936 H 84.8536 -3.69554 -4.2672 0
M  V30 937 N 84.2517 0.741722 -1.39055 0
M  V30 938 C 85.4797 1.53098 -1.39171 0
M  V30 939 C 85.8947 1.88794 0.0155099 0
M  V30 940 O 85.2517 1.53626 0.985159 0
M  V30 941 C 85.3027 2.82274 -2.2584 0
M  V30 942 O 85.0237 2.48097 -3.61081 0
M  V30 943 C 86.5247 3.76343 -2.34266 0
M  V30 944 H 83.7447 0.473335 -0.4756 0
M  V30 945 H 86.2887 0.917045 -1.82785 0
M  V30 946 H 84.4437 3.40015 -1.85656 0
M  V30 947 H 84.8577 3.31029 -4.06842 0
M  V30 948 H 86.3317 4.63898 -2.9917 0
M  V30 949 H 86.8087 4.17619 -1.35982 0
M  V30 950 H 87.4147 3.24523 -2.74891 0
M  V30 951 N 85.7298 1.2412 0.971189 0
M  V30 952 C 86.6768 1.0305 2.06517 0
M  V30 953 C 87.6468 -0.0550666 1.66009 0
M  V30 954 O 88.8318 0.0988688 1.90544 0
M  V30 955 C 85.9718 0.637653 3.39158 0
M  V30 956 C 85.0848 1.79633 3.92882 0
M  V30 957 C 84.2198 1.34939 5.13775 0
M  V30 958 C 83.2588 2.47823 5.59687 0
M  V30 959 N 82.3958 2.04022 6.71803 0
M  V30 960 H 87.2358 1.96685 2.23873 0
M  V30 961 H 84.7728 0.979694 1.09729 0
M  V30 962 H 86.7308 0.390931 4.15364 0
M  V30 963 H 85.3608 -0.261693 3.21737 0
M  V30 964 H 84.4128 2.15681 3.13346 0
M  V30 965 H 85.7248 2.64466 4.22918 0
M  V30 966 H 84.8788 1.06134 5.97345 0
M  V30 967 H 83.6178 0.471557 4.85415 0
M  V30 968 H 82.6228 2.77392 4.74693 0
M  V30 969 H 83.8478 3.36158 5.90063 0
M  V30 970 H 81.7938 1.18632 6.45184 0
M  V30 971 H 81.7108 2.82409 7.01271 0
M  V30 972 H 82.9788 1.78347 7.58823 0
M  V30 973 N 87.2079 -1.17134 1.05439 0
M  V30 974 C 88.1549 -2.21235 0.657539 0
M  V30 975 C 89.1249 -1.62551 -0.341543 0
M  V30 976 O 90.3099 -1.89379 -0.232393 0
M  V30 977 C 87.4499 -3.45076 0.0410575 0
M  V30 978 C 86.5629 -4.18042 1.08927 0
M  V30 979 C 85.6979 -5.29376 0.439848 0
M  V30 980 C 84.7369 -5.94132 1.4722 0
M  V30 981 N 83.8739 -6.96975 0.846756 0
M  V30 982 H 88.7139 -2.54534 1.54972 0
M  V30 983 H 86.2509 -1.25028 0.775006 0
M  V30 984 H 88.2089 -4.15862 -0.33383 0
M  V30 985 H 86.8389 -3.12353 -0.814568 0
M  V30 986 H 85.8909 -3.45945 1.58196 0
M  V30 987 H 87.2029 -4.62306 1.87282 0
M  V30 988 H 86.3569 -6.06699 0.0115125 0
M  V30 989 H 85.0959 -4.86251 -0.375656 0
M  V30 990 H 84.1009 -5.15538 1.91052 0
M  V30 991 H 85.3259 -6.39337 2.28965 0
M  V30 992 H 83.2719 -6.5598 0.0518075 0
M  V30 993 H 83.1889 -7.39565 1.5678 0
M  V30 994 H 84.4569 -7.78239 0.443277 0
M  V30 995 N 88.686 -0.835752 -1.33615 0
M  V30 996 C 89.633 -0.26473 -2.29277 0
M  V30 997 C 90.603 0.617712 -1.54187 0
M  V30 998 O 91.788 0.556641 -1.825 0
M  V30 999 C 88.928 0.556777 -3.40579 0
M  V30 1000 C 88.041 -0.349339 -4.30585 0
M  V30 1001 C 87.176 0.482969 -5.29 0
M  V30 1002 C 86.215 -0.421732 -6.10645 0
M  V30 1003 N 85.352 0.372262 -7.01112 0
M  V30 1004 H 90.192 -1.08582 -2.77514 0
M  V30 1005 H 87.729 -0.546927 -1.36554 0
M  V30 1006 H 89.687 1.04852 -4.03809 0
M  V30 1007 H 88.317 1.34286 -2.93542 0
M  V30 1008 H 87.369 -0.959372 -3.68104 0
M  V30 1009 H 88.681 -1.04445 -4.87742 0
M  V30 1010 H 87.835 1.03866 -5.97743 0
M  V30 1011 H 86.574 1.21153 -4.72412 0
M  V30 1012 H 85.579 -0.989464 -5.40823 0
M  V30 1013 H 86.804 -1.14861 -6.69316 0
M  V30 1014 H 84.75 1.08426 -6.46977 0
M  V30 1015 H 84.667 -0.264198 -7.55538 0
M  V30 1016 H 85.935 0.910293 -7.74167 0
M  V30 1017 N 90.1641 1.46063 -0.591896 0
M  V30 1018 C 91.4131 2.01547 -0.0786637 0
M  V30 1019 C 91.7261 1.46796 1.29268 0
M  V30 1020 O 92.9321 1.94157 1.89777 0
M  V30 1021 C 91.3881 3.59787 -0.0900024 0
M  V30 1022 C 90.9961 4.23534 -1.46023 0
M  V30 1023 C 92.7401 4.22895 0.368806 0
M  V30 1024 C 90.6471 5.73881 -1.4288 0
M  V30 1025 H 89.5771 0.753564 -0.0256388 0
M  V30 1026 H 92.2281 1.677 -0.744905 0
M  V30 1027 H 90.6101 3.90752 0.642586 0
M  V30 1028 H 91.7841 4.04167 -2.21328 0
M  V30 1029 H 90.0991 3.72558 -1.85982 0
M  V30 1030 H 92.6961 5.33116 0.411258 0
M  V30 1031 H 93.0391 3.9247 1.38827 0
M  V30 1032 H 93.5721 3.9659 -0.31001 0
M  V30 1033 H 90.3111 6.0898 -2.42536 0
M  V30 1034 H 89.8311 5.95486 -0.718095 0
M  V30 1035 H 91.5101 6.36776 -1.14565 0
M  V30 1036 N 91.6422 0.330177 1.54103 0
M  V30 1037 C 92.8882 -0.270806 2.00984 0
M  V30 1038 C 93.2212 -1.51265 1.21789 0
M  V30 1039 O 92.4962 -1.92142 0.301927 0
M  V30 1040 C 92.7792 -0.598339 3.55094 0
M  V30 1041 C 92.6322 0.654674 4.4501 0
M  V30 1042 C 93.9512 -1.41334 4.16789 0
M  V30 1043 H 91.0702 -0.0969531 0.730595 0
M  V30 1044 H 93.7122 0.448066 1.84641 0
M  V30 1045 H 91.8622 -1.21078 3.69151 0
M  V30 1046 H 93.5342 1.29285 4.42813 0
M  V30 1047 H 91.7772 1.28224 4.14416 0
M  V30 1048 H 92.4482 0.380944 5.50684 0
M  V30 1049 H 94.9242 -0.895597 4.06347 0
M  V30 1050 H 93.8002 -1.61127 5.24718 0
M  V30 1051 H 94.0612 -2.41146 3.70541 0
M  V30 1052 N 93.1203 -1.57491 0.0584922 0
M  V30 1053 C 94.0673 -2.11958 -0.913376 0
M  V30 1054 C 95.0373 -1.02875 -1.30407 0
M  V30 1055 O 96.2223 -1.30464 -1.39226 0
M  V30 1056 C 93.3623 -2.67497 -2.18035 0
M  V30 1057 C 92.4753 -3.90691 -1.84349 0
M  V30 1058 C 91.6103 -4.3452 -3.05559 0
M  V30 1059 C 90.6493 -5.50395 -2.67827 0
M  V30 1060 N 89.7863 -5.89244 -3.81754 0
M  V30 1061 H 94.6263 -2.94704 -0.442017 0
M  V30 1062 H 92.1633 -1.45643 -0.206545 0
M  V30 1063 H 94.1213 -2.978 -2.92183 0
M  V30 1064 H 92.7513 -1.87537 -2.62735 0
M  V30 1065 H 91.8033 -3.66934 -1.00319 0
M  V30 1066 H 93.1153 -4.7489 -1.5258 0
M  V30 1067 H 92.2693 -4.66414 -3.87998 0
M  V30 1068 H 91.0083 -3.49147 -3.40511 0
M  V30 1069 H 90.0133 -5.18165 -1.83806 0
M  V30 1070 H 91.2383 -6.3749 -2.34059 0
M  V30 1071 H 89.1843 -5.06823 -4.16493 0
M  V30 1072 H 89.1013 -6.68151 -3.53708 0
M  V30 1073 H 90.3693 -6.25756 -4.64811 0
M  V30 1074 N 94.5984 0.214957 -1.56127 0
M  V30 1075 C 96.0144 0.564948 -1.49267 0
M  V30 1076 C 96.2144 1.86827 -0.754838 0
M  V30 1077 O 95.2704 2.50745 -0.297198 0
M  V30 1078 C 96.5834 0.638071 -2.93852 0
M  V30 1079 C 98.1314 0.728253 -3.0441 0
M  V30 1080 C 98.6064 0.832663 -4.50367 0
M  V30 1081 N 100.097 0.896712 -4.54437 0
M  V30 1082 C 100.832 0.997324 -5.6466 0
M  V30 1083 N 100.328 1.06147 -6.8462 0
M  V30 1084 N 102.121 1.03297 -5.52527 0
M  V30 1085 H 94.2724 -0.640211 -2.02522 0
M  V30 1086 H 96.5354 -0.225507 -0.920788 0
M  V30 1087 H 96.2414 -0.250126 -3.50809 0
M  V30 1088 H 96.1154 1.49947 -3.46115 0
M  V30 1089 H 98.5024 1.60689 -2.47514 0
M  V30 1090 H 98.5834 -0.158952 -2.55306 0
M  V30 1091 H 98.2274 -0.0415417 -5.07883 0
M  V30 1092 H 98.1574 1.73538 -4.97184 0
M  V30 1093 H 100.648 0.857188 -3.6805 0
M  V30 1094 H 100.961 1.1382 -7.64372 0
M  V30 1095 H 99.3064 1.03049 -6.87318 0
M  V30 1096 H 102.497 0.979558 -4.57736 0
M  V30 1097 H 102.67 1.10793 -6.38458 0
M  V30 1098 N 96.0765 1.50051 0.48192 0
M  V30 1099 C 97.3015 1.64508 1.26301 0
M  V30 1100 C 97.7265 0.323851 1.85291 0
M  V30 1101 O 97.0845 -0.710969 1.66778 0
M  V30 1102 C 97.1325 2.7305 2.35533 0
M  V30 1103 O 96.2365 2.3355 3.39895 0
M  V30 1104 H 95.5775 0.549978 0.372048 0
M  V30 1105 H 98.1075 1.9636 0.574786 0
M  V30 1106 H 98.1175 2.95799 2.8101 0
M  V30 1107 H 96.7925 3.68946 1.91967 0
M  V30 1108 H 95.3695 2.21205 3.00204 0
M  V30 1109 N 97.5546 -0.734337 1.39446 0
M  V30 1110 C 98.5016 -1.84835 1.38219 0
M  V30 1111 C 99.4716 -1.64331 0.24179 0
M  V30 1112 O 100.657 -1.85728 0.437002 0
M  V30 1113 C 97.7966 -3.22355 1.23212 0
M  V30 1114 C 96.9096 -3.5456 2.46801 0
M  V30 1115 C 96.0446 -4.81485 2.24377 0
M  V30 1116 C 95.0836 -5.06536 3.43639 0
M  V30 1117 N 94.2206 -6.24665 3.20528 0
M  V30 1118 H 99.0606 -1.85219 2.33448 0
M  V30 1119 H 96.5976 -0.905039 1.15963 0
M  V30 1120 H 98.5556 -4.0174 1.12522 0
M  V30 1121 H 97.1856 -3.21248 0.316121 0
M  V30 1122 H 96.2376 -2.69872 2.68092 0
M  V30 1123 H 97.5496 -3.6899 3.3563 0
M  V30 1124 H 96.7036 -5.68852 2.10933 0
M  V30 1125 H 95.4426 -4.6923 1.32944 0
M  V30 1126 H 94.4476 -4.17632 3.5758 0
M  V30 1127 H 95.6726 -5.20676 4.35974 0
M  V30 1128 H 93.6186 -6.13696 2.3176 0
M  V30 1129 H 93.5356 -6.39685 4.02913 0
M  V30 1130 H 94.8036 -7.14868 3.10779 0
M  V30 1131 N 99.0327 -1.24633 -0.964593 0
M  V30 1132 C 100.279 -1.08949 -1.71049 0
M  V30 1133 C 100.612 0.370302 -1.90637 0
M  V30 1134 O 99.8867 1.27349 -1.47011 0
M  V30 1135 C 100.17 -1.83329 -3.0994 0
M  V30 1136 C 100.023 -3.37077 -2.97824 0
M  V30 1137 C 101.342 -1.60846 -4.09654 0
M  V30 1138 H 98.4607 -0.397178 -0.620821 0
M  V30 1139 H 101.103 -1.5334 -1.12191 0
M  V30 1140 H 99.2527 -1.45597 -3.60186 0
M  V30 1141 H 100.925 -3.84425 -2.5498 0
M  V30 1142 H 99.1677 -3.65298 -2.33965 0
M  V30 1143 H 99.8387 -3.84324 -3.96231 0
M  V30 1144 H 102.315 -1.93674 -3.68279 0
M  V30 1145 H 101.191 -2.1534 -5.04896 0
M  V30 1146 H 101.452 -0.547434 -4.38698 0
M  V30 1147 N 100.511 1.16574 -1.06058 0
M  V30 1148 C 101.458 2.20883 -0.669263 0
M  V30 1149 C 102.428 1.62729 0.332918 0
M  V30 1150 O 103.613 1.895 0.222346 0
M  V30 1151 C 100.753 3.45049 -0.0593572 0
M  V30 1152 C 99.8658 4.17458 -1.11143 0
M  V30 1153 C 99.0008 5.29135 -0.467916 0
M  V30 1154 C 98.0398 5.93343 -1.50369 0
M  V30 1155 N 97.1768 6.96516 -0.883706 0
M  V30 1156 H 102.017 2.53709 -1.5632 0
M  V30 1157 H 99.5538 1.24616 -0.781625 0
M  V30 1158 H 101.512 4.16033 0.311771 0
M  V30 1159 H 100.142 3.12781 0.797992 0
M  V30 1160 H 99.1938 3.45101 -1.60029 0
M  V30 1161 H 100.506 4.61307 -1.89731 0
M  V30 1162 H 99.6598 6.06684 -0.0436871 0
M  V30 1163 H 98.3988 4.86443 0.349864 0
M  V30 1164 H 97.4038 5.14517 -1.93784 0
M  V30 1165 H 98.6288 6.38114 -2.32352 0
M  V30 1166 H 96.5748 6.55943 -0.086595 0
M  V30 1167 H 96.4918 7.38723 -1.607 0
M  V30 1168 H 97.7598 7.77993 -0.484543 0
M  V30 1169 N 101.989 0.842826 1.3317 0
M  V30 1170 C 102.952 0.284065 2.27433 0
M  V30 1171 C 103.952 -0.54948 1.5112 0
M  V30 1172 O 105.142 -0.362699 1.70382 0
M  V30 1173 C 102.274 -0.599384 3.35589 0
M  V30 1174 H 103.467 1.11589 2.78366 0
M  V30 1175 H 101.02 0.616221 1.4364 0
M  V30 1176 H 101.755 -1.45349 2.89904 0
M  V30 1177 H 101.54 -0.00291266 3.921 0
M  V30 1178 H 103.03 -0.983488 4.05854 0
M  V30 1179 N 103.467 -1.45747 0.599634 0
M  V30 1180 C 104.714 -2.02292 0.0917284 0
M  V30 1181 C 105.042 -1.46906 -1.27472 0
M  V30 1182 O 104.297 -0.630652 -1.8526 0
M  V30 1183 C 104.596 -3.57399 -0.00602758 0
M  V30 1184 C 104.262 -4.31902 1.29503 0
M  V30 1185 C 102.924 -4.51974 1.65144 0
M  V30 1186 C 105.276 -4.74551 2.15525 0
M  V30 1187 C 102.604 -5.11949 2.86574 0
M  V30 1188 C 104.956 -5.35868 3.36196 0
M  V30 1189 C 103.62 -5.54165 3.72099 0
M  V30 1190 H 102.89 -0.740239 0.0335658 0
M  V30 1191 H 105.537 -1.7491 0.779661 0
M  V30 1192 H 103.842 -3.84014 -0.777183 0
M  V30 1193 H 105.539 -3.98846 -0.415038 0
M  V30 1194 H 102.129 -4.16588 1.00761 0
M  V30 1195 H 106.313 -4.58784 1.8929 0
M  V30 1196 H 101.569 -5.24305 3.14507 0
M  V30 1197 H 105.743 -5.6787 4.03109 0
M  V30 1198 H 103.37 -6.00406 4.6628 0
M  V30 1199 N 104.945 -0.338344 -1.53925 0
M  V30 1200 C 106.194 0.260732 -2.00008 0
M  V30 1201 C 106.507 1.52073 -1.23017 0
M  V30 1202 O 107.713 2.19672 -1.5955 0
M  V30 1203 C 106.169 0.51515 -3.56194 0
M  V30 1204 C 105.777 -0.728645 -4.42035 0
M  V30 1205 C 107.521 1.07337 -4.10706 0
M  V30 1206 C 105.428 -0.445315 -5.89721 0
M  V30 1207 H 104.358 0.101205 -0.747177 0
M  V30 1208 H 107.009 -0.452866 -1.77824 0
M  V30 1209 H 105.391 1.28932 -3.74423 0
M  V30 1210 H 106.565 -1.50352 -4.35581 0
M  V30 1211 H 104.88 -1.20813 -3.98489 0
M  V30 1212 H 107.477 1.30022 -5.18651 0
M  V30 1213 H 107.82 2.0273 -3.63602 0
M  V30 1214 H 108.353 0.360034 -3.96167 0
M  V30 1215 H 105.092 -1.36883 -6.41049 0
M  V30 1216 H 104.612 0.291569 -5.99091 0
M  V30 1217 H 106.291 -0.0606218 -6.46972 0
M  V30 1218 N 106.423 1.57458 -0.0668435 0
M  V30 1219 C 107.37 2.12439 0.902122 0
M  V30 1220 C 108.34 1.03565 1.2986 0
M  V30 1221 O 109.525 1.312 1.38532 0
M  V30 1222 C 106.665 2.6865 2.16614 0
M  V30 1223 C 105.778 3.91663 1.82274 0
M  V30 1224 C 104.913 4.36134 3.0325 0
M  V30 1225 C 103.952 5.51808 2.64904 0
M  V30 1226 N 103.089 5.9126 3.78624 0
M  V30 1227 H 107.929 2.94934 0.426382 0
M  V30 1228 H 105.466 1.4575 0.198819 0
M  V30 1229 H 107.424 2.99346 2.90599 0
M  V30 1230 H 106.054 1.88928 2.61737 0
M  V30 1231 H 105.106 3.6746 0.983719 0
M  V30 1232 H 106.418 4.75693 1.50059 0
M  V30 1233 H 105.572 4.68465 3.85519 0
M  V30 1234 H 104.311 3.50948 3.38655 0
M  V30 1235 H 103.316 5.19133 1.81055 0
M  V30 1236 H 104.541 6.38722 2.30675 0
M  V30 1237 H 102.487 5.09024 4.138 0
M  V30 1238 H 102.404 6.70018 3.5016 0
M  V30 1239 H 103.672 6.28212 4.61486 0
M  V30 1240 N 107.901 -0.206675 1.56239 0
M  V30 1241 C 109.141 -0.93574 1.81723 0
M  V30 1242 C 109.505 -1.80927 0.642609 0
M  V30 1243 O 110.706 -2.57323 0.777081 0
M  V30 1244 C 108.977 -1.74012 3.12177 0
M  V30 1245 S 110.536 -2.52279 3.59028 0
M  V30 1246 H 107.354 -0.314065 0.637875 0
M  V30 1247 H 109.956 -0.200071 1.94474 0
M  V30 1248 H 108.66 -1.0888 3.95693 0
M  V30 1249 H 108.191 -2.51782 3.02274 0
M  V30 1250 H 110.206 -3.76209 3.23545 0
M  V30 1251 N 109.379 -1.50304 -0.473955 0
M  V30 1252 C 110.628 -1.60392 -1.22301 0
M  V30 1253 C 110.941 -0.308411 -1.93153 0
M  V30 1254 O 112.147 -0.288156 -2.69966 0
M  V30 1255 C 110.603 -2.83109 -2.2221 0
M  V30 1256 C 110.211 -4.19524 -1.57173 0
M  V30 1257 C 111.955 -3.0254 -2.97775 0
M  V30 1258 C 109.862 -5.33431 -2.55353 0
M  V30 1259 H 108.792 -0.597286 -0.460179 0
M  V30 1260 H 111.443 -1.76731 -0.493803 0
M  V30 1261 H 109.825 -2.60322 -2.9841 0
M  V30 1262 H 110.999 -4.52554 -0.867824 0
M  V30 1263 H 109.314 -4.05674 -0.939002 0
M  V30 1264 H 111.911 -3.84811 -3.71248 0
M  V30 1265 H 112.254 -2.14154 -3.56992 0
M  V30 1266 H 112.787 -3.25494 -2.28688 0
M  V30 1267 H 109.526 -6.23962 -2.00878 0
M  V30 1268 H 109.046 -5.04823 -3.23904 0
M  V30 1269 H 110.725 -5.63887 -3.17239 0
M  V30 1270 N 110.857 0.726932 -1.39834 0
M  V30 1271 C 111.805 1.86235 -1.39353 0
M  V30 1272 C 112.799 1.67144 -0.275555 0
M  V30 1273 O 114.005 1.74387 -0.44601 0
M  V30 1274 H 110.38 0.613174 -0.43534 0
M  V30 1275 H 112.351 1.83756 -2.35109 0
M  V30 1276 C 111.1 3.23995 -1.26185 0
M  V30 1277 H 110.423 3.39285 -2.11484 0
M  V30 1278 H 111.863 4.03609 -1.29907 0
M  V30 1279 C 110.322 3.36888 0.0290018 0
M  V30 1280 O 110.852 3.89152 0.99619 0
M  V30 1281 N 109.058 2.90446 0.0947437 0
M  V30 1282 H 108.605 2.48102 -0.693035 0
M  V30 1283 H 108.563 2.99451 0.957932 0
M  V30 1284 N 112.336 1.25143 0.95797 0
M  V30 1285 C 113.582 1.09855 1.70469 0
M  V30 1286 C 113.915 -0.360187 1.90831 0
M  V30 1287 O 113.19 -1.26568 1.47685 0
M  V30 1288 C 113.473 1.8497 3.08963 0
M  V30 1289 C 113.326 3.38652 2.96032 0
M  V30 1290 C 114.645 1.63016 4.08795 0
M  V30 1291 H 111.764 0.400465 0.618706 0
M  V30 1292 H 114.406 1.53933 1.11376 0
M  V30 1293 H 112.556 1.47505 3.59409 0
M  V30 1294 H 114.228 3.85772 2.52938 0
M  V30 1295 H 112.471 3.66534 2.32025 0
M  V30 1296 H 113.142 3.8642 3.94187 0
M  V30 1297 H 115.618 1.95625 3.67247 0
M  V30 1298 H 114.494 2.18015 5.03747 0
M  V30 1299 H 114.755 0.570692 4.38401 0
M  V30 1300 N 113.814 -1.1601 1.06675 0
M  V30 1301 C 114.762 -2.22586 0.675157 0
M  V30 1302 C 115.756 -1.66525 -0.310766 0
M  V30 1303 O 116.962 -1.79145 -0.175215 0
M  V30 1304 H 113.337 -0.724855 0.200223 0
M  V30 1305 H 115.308 -2.52899 1.58381 0
M  V30 1306 C 114.057 -3.47604 0.0817162 0
M  V30 1307 H 113.38 -3.91058 0.831484 0
M  V30 1308 H 114.82 -4.23718 -0.154708 0
M  V30 1309 C 113.279 -3.15718 -1.17576 0
M  V30 1310 O 113.809 -3.31878 -2.26318 0
M  V30 1311 N 112.015 -2.69816 -1.07923 0
M  V30 1312 H 111.562 -2.56866 -0.194293 0
M  V30 1313 H 111.52 -2.48855 -1.92141 0
M  V30 1314 N 115.292 -0.849877 -1.32721 0
M  V30 1315 C 116.242 -0.262892 -2.26479 0
M  V30 1316 C 117.226 0.588493 -1.49752 0
M  V30 1317 O 118.418 0.438659 -1.71478 0
M  V30 1318 C 115.547 0.551818 -3.38836 0
M  V30 1319 C 114.633 -0.311689 -4.22953 0
M  V30 1320 N 115.024 -1.39567 -4.86163 0
M  V30 1321 C 113.322 -0.100611 -4.45887 0
M  V30 1322 C 114.023 -1.92651 -5.48872 0
M  V30 1323 N 112.999 -1.22637 -5.29586 0
M  V30 1324 H 116.801 -1.09166 -2.72873 0
M  V30 1325 H 114.315 -0.695486 -1.46754 0
M  V30 1326 H 116.312 0.988713 -4.05006 0
M  V30 1327 H 114.972 1.37844 -2.93988 0
M  V30 1328 H 115.983 -1.77859 -4.86402 0
M  V30 1329 H 112.66 0.691681 -4.11731 0
M  V30 1330 H 114.05 -2.83487 -6.09167 0
M  V30 1331 N 116.77 1.45427 -0.607355 0
M  V30 1332 C 118.019 2.01452 -0.100036 0
M  V30 1333 C 118.332 1.48159 1.27704 0
M  V30 1334 O 119.538 1.96159 1.87707 0
M  V30 1335 C 117.994 3.59672 -0.128158 0
M  V30 1336 C 117.602 4.21962 -1.50507 0
M  V30 1337 C 119.346 4.23262 0.323932 0
M  V30 1338 C 117.253 5.72333 -1.48959 0
M  V30 1339 H 116.183 0.75325 -0.0336299 0
M  V30 1340 H 118.834 1.66901 -0.76265 0
M  V30 1341 H 117.216 3.91411 0.601105 0
M  V30 1342 H 118.39 4.01796 -2.25602 0
M  V30 1343 H 116.705 3.70565 -1.89923 0
M  V30 1344 H 119.302 5.33522 0.354691 0
M  V30 1345 H 119.645 3.93921 1.34656 0
M  V30 1346 H 120.178 3.96239 -0.352056 0
M  V30 1347 H 116.917 6.06373 -2.48981 0
M  V30 1348 H 116.437 5.94691 -0.781214 0
M  V30 1349 H 118.116 6.35525 -1.21313 0
M  V30 1350 N 118.248 0.346503 1.53744 0
M  V30 1351 C 119.178 -0.501193 2.28058 0
M  V30 1352 C 120.159 -1.10014 1.29734 0
M  V30 1353 O 121.344 -1.12097 1.58581 0
M  V30 1354 C 118.474 -1.65078 3.05559 0
M  V30 1355 C 117.428 -1.18003 4.11411 0
M  V30 1356 C 116.754 -2.41837 4.76884 0
M  V30 1357 C 118.054 -0.278394 5.21558 0
M  V30 1358 H 119.748 0.11875 2.99164 0
M  V30 1359 H 117.294 0.0585531 1.43881 0
M  V30 1360 H 119.247 -2.25028 3.56287 0
M  V30 1361 H 117.971 -2.29767 2.32109 0
M  V30 1362 H 116.63 -0.603331 3.61601 0
M  V30 1363 H 116.278 -3.0494 4.00026 0
M  V30 1364 H 115.978 -2.1102 5.48402 0
M  V30 1365 H 117.502 -3.02508 5.30397 0
M  V30 1366 H 118.916 -0.784823 5.67903 0
M  V30 1367 H 117.313 -0.0619707 6.00068 0
M  V30 1368 H 118.383 0.684677 4.80042 0
M  V30 1369 N 119.726 -1.57421 0.075193 0
M  V30 1370 C 121.137 -1.81021 -0.456964 0
M  V30 1371 C 121.488 -0.98936 -1.69429 0
M  V30 1372 O 120.613 -0.212865 -2.15351 0
M  V30 1373 C 121.208 -3.28329 -0.83581 0
M  V30 1374 C 119.767 -3.52764 -1.31281 0
M  V30 1375 C 118.914 -2.75676 -0.299648 0
M  V30 1376 H 121.865 -1.55822 0.300856 0
M  V30 1377 H 121.886 -3.40564 -1.69696 0
M  V30 1378 H 121.398 -3.88046 0.0649238 0
M  V30 1379 H 119.499 -2.98355 -2.23193 0
M  V30 1380 H 119.612 -4.61451 -1.28839 0
M  V30 1381 H 117.976 -2.42538 -0.777641 0
M  V30 1382 H 118.759 -3.38132 0.593417 0
M  V30 1383 N 121.204 0.198386 -1.56346 0
M  V30 1384 C 122.432 0.935572 -1.84539 0
M  V30 1385 C 122.847 1.76989 -0.657281 0
M  V30 1386 O 122.204 1.78626 0.374043 0
M  V30 1387 C 122.255 1.8344 -3.11499 0
M  V30 1388 O 121.976 1.03377 -4.25728 0
M  V30 1389 C 123.477 2.68355 -3.52846 0
M  V30 1390 H 120.697 0.273126 -0.612897 0
M  V30 1391 H 123.241 0.20663 -2.03453 0
M  V30 1392 H 121.396 2.51701 -2.94492 0
M  V30 1393 H 121.81 1.64599 -4.98003 0
M  V30 1394 H 123.284 3.27085 -4.44657 0
M  V30 1395 H 123.761 3.41901 -2.75681 0
M  V30 1396 H 124.367 2.05471 -3.72373 0
M  V30 1397 N 122.682 1.50554 0.465978 0
M  V30 1398 C 124.098 1.38093 0.800154 0
M  V30 1399 C 124.298 0.440988 1.96615 0
M  V30 1400 O 123.354 -0.114499 2.5224 0
M  V30 1401 C 124.667 2.79565 1.10742 0
M  V30 1402 C 126.215 2.88516 1.21357 0
M  V30 1403 C 126.69 4.30833 1.55393 0
M  V30 1404 N 128.181 4.33807 1.62375 0
M  V30 1405 C 128.916 5.40927 1.90225 0
M  V30 1406 N 128.412 6.58247 2.16062 0
M  V30 1407 N 130.205 5.28376 1.9177 0
M  V30 1408 H 122.356 2.10237 -0.302366 0
M  V30 1409 H 124.619 0.945203 -0.0727746 0
M  V30 1410 H 124.325 3.50208 0.323661 0
M  V30 1411 H 124.199 3.17125 2.04234 0
M  V30 1412 H 126.586 2.1809 1.98799 0
M  V30 1413 H 126.667 2.54492 0.258321 0
M  V30 1414 H 126.311 5.01799 0.784889 0
M  V30 1415 H 126.241 4.62347 2.52076 0
M  V30 1416 H 128.732 3.49212 1.44427 0
M  V30 1417 H 129.045 7.3569 2.36601 0
M  V30 1418 H 127.39 6.61413 2.13444 0
M  V30 1419 H 130.581 4.35715 1.71085 0
M  V30 1420 H 130.754 6.11944 2.13139 0
M  V30 1421 N 124.16 -0.719506 1.40217 0
M  V30 1422 C 125.39 -1.50646 1.41384 0
M  V30 1423 C 125.798 -1.89197 0.0107743 0
M  V30 1424 O 125.141 -1.55709 -0.974708 0
M  V30 1425 C 125.203 -2.81405 2.23722 0
M  V30 1426 C 124.867 -2.65199 3.72181 0
M  V30 1427 C 125.864 -2.32717 4.64907 0
M  V30 1428 C 123.549 -2.81586 4.1595 0
M  V30 1429 C 125.543 -2.16827 5.99387 0
M  V30 1430 C 123.23 -2.65313 5.50502 0
M  V30 1431 C 124.228 -2.32981 6.42035 0
M  V30 1432 O 123.916 -2.16827 7.74107 0
M  V30 1433 H 123.648 -0.471606 0.484318 0
M  V30 1434 H 126.202 -0.895456 1.84853 0
M  V30 1435 H 124.432 -3.44823 1.75026 0
M  V30 1436 H 126.121 -3.43102 2.16878 0
M  V30 1437 H 126.887 -2.19694 4.32388 0
M  V30 1438 H 122.766 -3.0574 3.45027 0
M  V30 1439 H 126.31 -1.91513 6.70797 0
M  V30 1440 H 122.207 -2.7792 5.82607 0
M  V30 1441 H 122.975 -2.31778 7.84998 0
M  V30 1442 N 125.638 -1.25649 -0.95132 0
M  V30 1443 C 126.57 -1.02112 -2.05197 0
M  V30 1444 C 127.583 0.0150571 -1.62793 0
M  V30 1445 O 128.772 -0.223874 -1.77091 0
M  V30 1446 C 125.872 -0.522361 -3.3485 0
M  V30 1447 C 125.045 -1.62546 -4.06076 0
M  V30 1448 C 124.104 -1.12649 -5.14001 0
M  V30 1449 O 123.13 -1.82156 -5.39266 0
M  V30 1450 N 124.332 0.03047 -5.80492 0
M  V30 1451 H 127.097 -1.96885 -2.25957 0
M  V30 1452 H 124.658 -1.16899 -1.1201 0
M  V30 1453 H 126.65 -0.172961 -4.0433 0
M  V30 1454 H 125.22 0.33151 -3.10837 0
M  V30 1455 H 124.44 -2.14628 -3.30649 0
M  V30 1456 H 125.728 -2.36644 -4.50419 0
M  V30 1457 H 125.126 0.611169 -5.62389 0
M  V30 1458 H 123.683 0.320875 -6.5101 0
M  V30 1459 N 127.117 1.15442 -1.07289 0
M  V30 1460 C 128.363 1.86489 -0.796846 0
M  V30 1461 C 128.696 1.82078 0.675371 0
M  V30 1462 O 127.971 1.24346 1.4956 0
M  V30 1463 C 128.254 3.35626 -1.30489 0
M  V30 1464 C 128.107 3.48673 -2.84161 0
M  V30 1465 C 129.426 4.30357 -0.920907 0
M  V30 1466 H 126.545 0.677144 -0.290939 0
M  V30 1467 H 129.187 1.35633 -1.33056 0
M  V30 1468 H 127.337 3.79068 -0.850883 0
M  V30 1469 H 129.009 3.14099 -3.37846 0
M  V30 1470 H 127.252 2.90253 -3.22391 0
M  V30 1471 H 127.923 4.53453 -3.14777 0
M  V30 1472 H 130.399 3.94871 -1.3121 0
M  V30 1473 H 129.275 5.33193 -1.30372 0
M  V30 1474 H 129.536 4.4176 0.173226 0
M  V30 1475 N 128.595 0.856903 1.32268 0
M  V30 1476 C 129.558 0.308171 2.27119 0
M  V30 1477 C 130.558 -0.533421 1.51695 0
M  V30 1478 O 131.748 -0.344607 1.70757 0
M  V30 1479 C 128.88 -0.563757 3.36206 0
M  V30 1480 H 130.073 1.14535 2.77167 0
M  V30 1481 H 127.626 0.631421 1.42978 0
M  V30 1482 H 128.361 -1.42266 2.91429 0
M  V30 1483 H 128.146 0.0386749 3.92081 0
M  V30 1484 H 129.636 -0.940386 4.06874 0
M  V30 1485 N 130.073 -1.45103 0.615059 0
M  V30 1486 C 131.021 -2.32331 -0.111791 0
M  V30 1487 C 132.015 -1.46409 -0.852102 0
M  V30 1488 O 133.221 -1.62849 -0.766821 0
M  V30 1489 H 129.596 -0.749993 -0.0549072 0
M  V30 1490 H 131.567 -2.91407 0.642225 0
M  V30 1491 C 130.316 -3.3015 -1.09071 0
M  V30 1492 H 129.639 -3.96265 -0.530485 0
M  V30 1493 H 131.079 -3.93898 -1.56908 0
M  V30 1494 C 129.538 -2.57875 -2.168 0
M  V30 1495 O 130.068 -2.36567 -3.24652 0
M  V30 1496 N 128.274 -2.17884 -1.92289 0
M  V30 1497 H 127.821 -2.35413 -1.04587 0
M  V30 1498 H 127.779 -1.6985 -2.64572 0
M  V30 1499 N 131.551 -0.354651 -1.53558 0
M  V30 1500 C 132.828 0.294281 -1.93374 0
M  V30 1501 C 133.208 1.67313 -1.28723 0
M  V30 1502 O 132.556 2.24179 -0.442247 0
M  V30 1503 C 132.766 0.355445 -3.47185 0
M  V30 1504 C 134.114 0.601007 -4.20325 0
M  V30 1505 O 135.138 0.437106 -3.53508 0
M  V30 1506 O 133.997 0.919322 -5.38712 0
M  V30 1507 H 131.091 0.174033 -0.808481 0
M  V30 1508 H 133.637 -0.406638 -1.64756 0
M  V30 1509 H 132.409 -0.611729 -3.86489 0
M  V30 1510 H 132.032 1.1027 -3.82003 0
M  V30 1511 N 133.029 1.57378 -0.0835403 0
M  V30 1512 C 134.276 1.9393 0.58287 0
M  V30 1513 C 134.604 0.964455 1.68904 0
M  V30 1514 O 133.859 -0.0179474 1.95692 0
M  V30 1515 C 134.158 3.37063 1.1884 0
M  V30 1516 C 133.824 4.50424 0.207194 0
M  V30 1517 C 132.486 4.81159 -0.0627115 0
M  V30 1518 C 134.838 5.19136 -0.463426 0
M  V30 1519 C 132.166 5.77939 -1.01012 0
M  V30 1520 C 134.518 6.16931 -1.39924 0
M  V30 1521 C 133.182 6.46078 -1.67749 0
M  V30 1522 H 132.452 0.70964 0.213287 0
M  V30 1523 H 135.099 1.90856 -0.156916 0
M  V30 1524 H 133.404 3.3666 2.00418 0
M  V30 1525 H 135.101 3.6264 1.71153 0
M  V30 1526 H 131.691 4.2646 0.427747 0
M  V30 1527 H 135.875 4.95576 -0.268034 0
M  V30 1528 H 131.131 5.98842 -1.23283 0
M  V30 1529 H 135.305 6.69273 -1.92476 0
M  V30 1530 H 132.932 7.2088 -2.41321 0
M  V30 1531 N 134.507 -0.190092 1.56449 0
M  V30 1532 C 135.784 -0.935886 1.71757 0
M  V30 1533 C 136.164 -2.01173 0.639726 0
M  V30 1534 O 135.512 -2.25827 -0.348502 0
M  V30 1535 C 135.722 -1.51775 3.1427 0
M  V30 1536 C 137.07 -1.99794 3.74656 0
M  V30 1537 O 138.094 -1.61607 3.1743 0
M  V30 1538 O 136.953 -2.70079 4.751 0
M  V30 1539 H 134.047 -0.439229 0.700719 0
M  V30 1540 H 136.593 -0.179395 1.68749 0
M  V30 1541 H 135.365 -0.742505 3.84191 0
M  V30 1542 H 134.988 -2.33894 3.21527 0
M  V30 1543 N 135.985 -1.50799 -0.457987 0
M  V30 1544 C 137.234 -1.6168 -1.20593 0
M  V30 1545 C 137.547 -0.32888 -1.92815 0
M  V30 1546 O 138.753 -0.316773 -2.69646 0
M  V30 1547 C 137.209 -2.8545 -2.19195 0
M  V30 1548 C 136.817 -4.21168 -1.52715 0
M  V30 1549 C 138.561 -3.05681 -2.94549 0
M  V30 1550 C 136.468 -5.3611 -2.4968 0
M  V30 1551 H 135.398 -0.602134 -0.453818 0
M  V30 1552 H 138.049 -1.77245 -0.475031 0
M  V30 1553 H 136.431 -2.63472 -2.95632 0
M  V30 1554 H 137.605 -4.53449 -0.819775 0
M  V30 1555 H 135.92 -4.06648 -0.895922 0
M  V30 1556 H 138.517 -3.88727 -3.67145 0
M  V30 1557 H 138.86 -2.17929 -3.54701 0
M  V30 1558 H 139.393 -3.27901 -2.25223 0
M  V30 1559 H 136.132 -6.26057 -1.94249 0
M  V30 1560 H 135.652 -5.0823 -3.18532 0
M  V30 1561 H 137.331 -5.6722 -3.11241 0
M  V30 1562 N 137.463 0.71206 -1.40597 0
M  V30 1563 C 138.41 1.82613 -1.41142 0
M  V30 1564 C 139.38 1.63925 -0.267903 0
M  V30 1565 O 140.565 1.85009 -0.466495 0
M  V30 1566 C 137.705 3.20354 -1.28324 0
M  V30 1567 C 136.818 3.50589 -2.52411 0
M  V30 1568 C 135.953 4.77855 -2.32009 0
M  V30 1569 C 134.992 5.01005 -3.51654 0
M  V30 1570 N 134.129 6.19487 -3.30425 0
M  V30 1571 H 138.969 1.81482 -2.36365 0
M  V30 1572 H 136.506 0.886475 -1.17388 0
M  V30 1573 H 138.464 3.99899 -1.18899 0
M  V30 1574 H 137.094 3.20705 -0.367189 0
M  V30 1575 H 136.146 2.65573 -2.72351 0
M  V30 1576 H 137.458 3.63604 -3.41458 0
M  V30 1577 H 136.612 5.65424 -2.19956 0
M  V30 1578 H 135.351 4.67056 -1.40392 0
M  V30 1579 H 134.356 4.1189 -3.64179 0
M  V30 1580 H 135.581 5.13674 -4.44202 0
M  V30 1581 H 133.527 6.09932 -2.41494 0
M  V30 1582 H 133.444 6.33194 -4.13039 0
M  V30 1583 H 134.712 7.09834 -3.22113 0
M  V30 1584 N 138.941 1.26152 0.944643 0
M  V30 1585 C 140.166 1.14363 1.7302 0
M  V30 1586 C 140.591 -0.29772 1.85729 0
M  V30 1587 O 139.949 -1.2157 1.34501 0
M  V30 1588 C 139.997 1.81378 3.11664 0
M  V30 1589 O 139.101 1.10022 3.97453 0
M  V30 1590 H 138.442 0.398694 0.53098 0
M  V30 1591 H 140.972 1.66906 1.18337 0
M  V30 1592 H 140.982 1.88064 3.62072 0
M  V30 1593 H 139.657 2.86237 3.0173 0
M  V30 1594 H 138.234 1.11287 3.55907 0
M  V30 1595 N 140.419 -1.14872 1.07899 0
M  V30 1596 C 141.349 -2.2193 0.725887 0
M  V30 1597 C 142.33 -1.67622 -0.28927 0
M  V30 1598 O 143.515 -1.93533 -0.160787 0
M  V30 1599 C 140.645 -3.47061 0.128856 0
M  V30 1600 C 139.599 -4.14363 1.07178 0
M  V30 1601 C 138.925 -5.33636 0.337229 0
M  V30 1602 C 140.225 -4.63492 2.40775 0
M  V30 1603 H 141.919 -2.51724 1.62097 0
M  V30 1604 H 139.465 -1.20991 0.780838 0
M  V30 1605 H 141.418 -4.21199 -0.130147 0
M  V30 1606 H 140.142 -3.16617 -0.80134 0
M  V30 1607 H 138.801 -3.42173 1.3158 0
M  V30 1608 H 138.449 -4.99449 -0.596606 0
M  V30 1609 H 138.149 -5.79609 0.965788 0
M  V30 1610 H 139.673 -6.10539 0.0861567 0
M  V30 1611 H 141.087 -5.2913 2.20669 0
M  V30 1612 H 139.484 -5.20148 2.99276 0
M  V30 1613 H 140.554 -3.78834 3.02676 0
M  V30 1614 N 141.898 -0.863906 -1.31812 0
M  V30 1615 C 142.861 -0.320212 -2.26952 0
M  V30 1616 C 143.861 0.525369 -1.51975 0
M  V30 1617 O 145.051 0.335547 -1.70938 0
M  V30 1618 C 142.183 0.545919 -3.365 0
M  V30 1619 H 143.376 -1.16004 -2.76556 0
M  V30 1620 H 140.929 -0.638995 -1.42641 0
M  V30 1621 H 141.664 1.40718 -2.92179 0
M  V30 1622 H 141.449 -0.0594674 -3.92055 0
M  V30 1623 H 142.939 0.918796 -4.07367 0
M  V30 1624 N 143.376 1.44774 -0.622745 0
M  V30 1625 C 144.601 2.06999 -0.128968 0
M  V30 1626 C 145.026 1.4617 1.1839 0
M  V30 1627 O 144.384 0.560007 1.72434 0
M  V30 1628 C 144.432 3.60595 -0.0188351 0
M  V30 1629 O 143.536 3.99398 1.02739 0
M  V30 1630 H 142.877 0.659047 -0.0809544 0
M  V30 1631 H 145.407 1.85784 -0.85705 0
M  V30 1632 H 145.417 4.07627 0.174476 0
M  V30 1633 H 144.092 4.04252 -0.977384 0
M  V30 1634 H 142.669 3.64011 0.809326 0
M  V30 1635 N 144.854 0.36279 1.53368 0
M  V30 1636 C 146.131 -0.284021 1.93527 0
M  V30 1637 C 146.511 -1.66628 1.29608 0
M  V30 1638 O 145.859 -2.23942 0.45413 0
M  V30 1639 C 146.069 -0.337028 3.47369 0
M  V30 1640 C 147.417 -0.578708 4.20638 0
M  V30 1641 O 148.441 -0.418352 3.53735 0
M  V30 1642 O 147.3 -0.89074 5.39192 0
M  V30 1643 H 144.394 -0.169743 0.809393 0
M  V30 1644 H 146.94 0.41537 1.64538 0
M  V30 1645 H 145.712 0.632217 3.86159 0
M  V30 1646 H 145.335 -1.08243 3.82582 0
M  V30 1647 N 146.332 -1.57332 0.0918853 0
M  V30 1648 C 147.609 -1.85691 -0.614668 0
M  V30 1649 C 147.989 -0.988146 -1.86545 0
M  V30 1650 O 147.337 -0.0597055 -2.28422 0
M  V30 1651 C 147.547 -3.36294 -0.933126 0
M  V30 1652 C 148.895 -4.04275 -1.29796 0
M  V30 1653 O 149.919 -3.41157 -1.02424 0
M  V30 1654 O 148.778 -5.1564 -1.81047 0
M  V30 1655 H 145.872 -0.767802 -0.307261 0
M  V30 1656 H 148.418 -1.69244 0.12434 0
M  V30 1657 H 147.19 -3.91273 -0.0456404 0
M  V30 1658 H 146.813 -3.58076 -1.72822 0
M  V30 1659 N 147.81 0.181792 -1.56548 0
M  V30 1660 C 149.056 0.901431 -1.81665 0
M  V30 1661 C 149.389 1.82347 -0.668075 0
M  V30 1662 O 148.664 1.91669 0.330615 0
M  V30 1663 C 148.947 1.70618 -3.17115 0
M  V30 1664 C 148.8 0.807964 -4.42484 0
M  V30 1665 C 150.119 2.67605 -3.49393 0
M  V30 1666 H 147.238 0.32627 -0.660846 0
M  V30 1667 H 149.88 0.168134 -1.89255 0
M  V30 1668 H 148.03 2.33133 -3.10775 0
M  V30 1669 H 149.702 0.19649 -4.60881 0
M  V30 1670 H 147.945 0.115411 -4.33646 0
M  V30 1671 H 148.616 1.40632 -5.33785 0
M  V30 1672 H 151.092 2.15218 -3.56118 0
M  V30 1673 H 149.968 3.20985 -4.45264 0
M  V30 1674 H 150.229 3.47298 -2.73563 0
M  V30 1675 N 149.288 1.51039 0.449983 0
M  V30 1676 C 150.218 1.74379 1.55288 0
M  V30 1677 C 151.199 0.593236 1.5942 0
M  V30 1678 O 152.384 0.834625 1.7535 0
M  V30 1679 C 149.514 1.85728 2.93466 0
M  V30 1680 C 148.468 3.01078 3.04197 0
M  V30 1681 C 147.794 2.97595 4.44231 0
M  V30 1682 C 149.094 4.41254 2.7945 0
M  V30 1683 H 150.788 2.66725 1.36008 0
M  V30 1684 H 148.334 1.2835 0.652864 0
M  V30 1685 H 150.287 2.0064 3.70569 0
M  V30 1686 H 149.011 0.900207 3.13949 0
M  V30 1687 H 147.67 2.85851 2.29531 0
M  V30 1688 H 147.318 1.99691 4.61663 0
M  V30 1689 H 147.018 3.75046 4.52343 0
M  V30 1690 H 148.542 3.14583 5.23326 0
M  V30 1691 H 149.956 4.56897 3.46292 0
M  V30 1692 H 148.353 5.20315 2.98985 0
M  V30 1693 H 149.423 4.52164 1.75144 0
M  V30 1694 N 150.766 -0.704594 1.40972 0
M  V30 1695 C 151.713 -1.81862 1.42109 0
M  V30 1696 C 152.683 -1.63781 0.276593 0
M  V30 1697 O 153.868 -1.84759 0.4763 0
M  V30 1698 C 151.008 -3.19669 1.30022 0
M  V30 1699 C 150.121 -3.49246 2.54267 0
M  V30 1700 C 149.256 -4.76618 2.3454 0
M  V30 1701 C 148.295 -4.99133 3.54306 0
M  V30 1702 N 147.432 -6.17726 3.33706 0
M  V30 1703 H 152.272 -1.80226 2.37324 0
M  V30 1704 H 149.809 -0.880238 1.17857 0
M  V30 1705 H 151.767 -3.99263 1.21018 0
M  V30 1706 H 150.397 -3.20506 0.384192 0
M  V30 1707 H 149.449 -2.64125 2.73756 0
M  V30 1708 H 150.761 -3.61788 3.43381 0
M  V30 1709 H 149.915 -5.64249 2.22952 0
M  V30 1710 H 148.654 -4.66305 1.42867 0
M  V30 1711 H 147.659 -4.09953 3.66359 0
M  V30 1712 H 148.884 -5.11311 4.4692 0
M  V30 1713 H 146.83 -6.08642 2.44725 0
M  V30 1714 H 146.747 -6.30995 4.16391 0
M  V30 1715 H 148.015 -7.08115 3.25873 0
M  V30 1716 N 152.244 -1.26651 -0.937939 0
M  V30 1717 C 153.469 -1.15279 -1.72411 0
M  V30 1718 C 153.894 0.287866 -1.85884 0
M  V30 1719 O 153.252 1.20855 -1.35143 0
M  V30 1720 C 153.3 -1.83028 -3.10698 0
M  V30 1721 O 152.404 -1.12128 -3.96864 0
M  V30 1722 H 151.745 -0.401504 -0.528858 0
M  V30 1723 H 154.275 -1.67531 -1.1745 0
M  V30 1724 H 154.285 -1.89981 -3.6107 0
M  V30 1725 H 152.96 -2.87833 -3.00208 0
M  V30 1726 H 151.537 -1.13173 -3.55312 0
M  V30 1727 N 153.722 1.14298 -1.08507 0
M  V30 1728 C 154.669 2.19414 -0.715965 0
M  V30 1729 C 155.639 1.63399 0.298326 0
M  V30 1730 O 156.824 1.89929 0.182101 0
M  V30 1731 C 153.964 3.44845 -0.132534 0
M  V30 1732 C 153.077 4.15007 -1.19973 0
M  V30 1733 C 152.212 5.28024 -0.580048 0
M  V30 1734 C 151.251 5.9002 -1.62921 0
M  V30 1735 N 150.388 6.94485 -1.03125 0
M  V30 1736 H 155.228 2.50336 -1.61666 0
M  V30 1737 H 152.765 1.2293 -0.807882 0
M  V30 1738 H 154.723 4.16601 0.223454 0
M  V30 1739 H 153.353 3.14403 0.731467 0
M  V30 1740 H 152.405 3.41629 -1.67313 0
M  V30 1741 H 153.717 4.57178 -1.99473 0
M  V30 1742 H 152.871 6.06455 -0.172364 0
M  V30 1743 H 151.61 4.87076 0.246603 0
M  V30 1744 H 150.615 5.10291 -2.04654 0
M  V30 1745 H 151.84 6.33042 -2.45835 0
M  V30 1746 H 149.786 6.55612 -0.225711 0
M  V30 1747 H 149.703 7.35148 -1.76334 0
M  V30 1748 H 150.971 7.7679 -0.649458 0
M  V30 1749 N 155.201 0.870884 1.31352 0
M  V30 1750 C 156.149 0.316445 2.30437 0
M  V30 1751 C 157.143 -0.568965 1.59559 0
M  V30 1752 O 158.349 -0.454964 1.74155 0
M  V30 1753 H 154.724 0.0836521 0.747333 0
M  V30 1754 H 156.695 1.16606 2.74673 0
M  V30 1755 C 155.444 -0.46635 3.44558 0
M  V30 1756 H 154.767 0.205687 3.99271 0
M  V30 1757 H 156.207 -0.819614 4.16003 0
M  V30 1758 C 154.666 -1.65797 2.9328 0
M  V30 1759 O 155.196 -2.75728 2.92125 0
M  V30 1760 N 153.402 -1.49041 2.4947 0
M  V30 1761 H 152.949 -0.59612 2.50608 0
M  V30 1762 H 152.907 -2.28911 2.15516 0
M  V30 1763 N 156.679 -1.44442 0.630414 0
M  V30 1764 C 157.626 -2.30678 -0.0749355 0
M  V30 1765 C 158.596 -1.4344 -0.837502 0
M  V30 1766 O 159.781 -1.72343 -0.818684 0
M  V30 1767 C 156.921 -3.28706 -1.05103 0
M  V30 1768 C 156.034 -4.31046 -0.286954 0
M  V30 1769 C 155.169 -5.16167 -1.2548 0
M  V30 1770 C 154.208 -6.10216 -0.479843 0
M  V30 1771 N 153.345 -6.88039 -1.39811 0
M  V30 1772 H 158.185 -2.90454 0.666386 0
M  V30 1773 H 155.722 -1.43107 0.340404 0
M  V30 1774 H 157.68 -3.84027 -1.63031 0
M  V30 1775 H 156.31 -2.70632 -1.75949 0
M  V30 1776 H 155.362 -3.78203 0.408243 0
M  V30 1777 H 156.674 -4.97794 0.316657 0
M  V30 1778 H 155.828 -5.76002 -1.90544 0
M  V30 1779 H 154.567 -4.49491 -1.89233 0
M  V30 1780 H 153.572 -5.49491 0.184295 0
M  V30 1781 H 154.797 -6.78928 0.152965 0
M  V30 1782 H 152.743 -6.24032 -2.02287 0
M  V30 1783 H 152.66 -7.51223 -0.848508 0
M  V30 1784 H 153.928 -7.52397 -2.03762 0
M  V30 1785 N 158.157 -0.370918 -1.53173 0
M  V30 1786 C 159.104 0.473035 -2.259 0
M  V30 1787 C 160.074 1.07311 -1.26781 0
M  V30 1788 O 161.259 1.1046 -1.55574 0
M  V30 1789 C 158.399 1.60405 -3.05556 0
M  V30 1790 C 157.512 1.02863 -4.19575 0
M  V30 1791 C 156.647 2.12918 -4.86661 0
M  V30 1792 C 155.686 1.52869 -5.92704 0
M  V30 1793 N 154.823 2.56779 -6.53459 0
M  V30 1794 H 159.663 -0.153649 -2.97604 0
M  V30 1795 H 157.2 -0.0875946 -1.46839 0
M  V30 1796 H 159.158 2.27034 -3.50016 0
M  V30 1797 H 157.788 2.20131 -2.36097 0
M  V30 1798 H 156.84 0.252465 -3.79561 0
M  V30 1799 H 158.152 0.549642 -4.95762 0
M  V30 1800 H 157.306 2.87356 -5.34333 0
M  V30 1801 H 156.045 2.6417 -4.09958 0
M  V30 1802 H 155.05 0.769479 -5.44389 0
M  V30 1803 H 156.275 1.02435 -6.7133 0
M  V30 1804 H 154.221 3.07235 -5.79606 0
M  V30 1805 H 154.138 2.13583 -7.25202 0
M  V30 1806 H 155.406 3.30903 -7.05779 0
M  V30 1807 N 159.635 1.57281 -0.100228 0
M  V30 1808 C 160.582 2.14305 0.856858 0
M  V30 1809 C 161.552 1.06296 1.27634 0
M  V30 1810 O 162.737 1.34109 1.35718 0
M  V30 1811 C 159.877 2.73184 2.10866 0
M  V30 1812 C 158.99 3.95442 1.73925 0
M  V30 1813 C 158.125 4.42468 2.93931 0
M  V30 1814 C 157.164 5.57303 2.5314 0
M  V30 1815 N 156.301 5.99158 3.65997 0
M  V30 1816 H 161.141 2.95772 0.363726 0
M  V30 1817 H 158.678 1.46139 0.167858 0
M  V30 1818 H 160.636 3.05442 2.84185 0
M  V30 1819 H 159.266 1.94437 2.57671 0
M  V30 1820 H 158.318 3.69464 0.905554 0
M  V30 1821 H 159.63 4.78769 1.39935 0
M  V30 1822 H 158.784 4.76537 3.75496 0
M  V30 1823 H 157.523 3.58052 3.31134 0
M  V30 1824 H 156.528 5.22857 1.70003 0
M  V30 1825 H 157.753 6.43471 2.17075 0
M  V30 1826 H 155.699 5.17687 4.02909 0
M  V30 1827 H 155.616 6.77295 3.35869 0
M  V30 1828 H 156.884 6.3786 4.48057 0
M  V30 1829 N 161.113 -0.173488 1.56642 0
M  V30 1830 C 162.023 -1.23482 1.99473 0
M  V30 1831 C 163.039 -1.48567 0.905752 0
M  V30 1832 O 164.215 -1.60758 1.21321 0
M  V30 1833 C 161.28 -2.55444 2.34413 0
M  V30 1834 C 160.341 -2.38241 3.57127 0
M  V30 1835 C 159.574 -3.63909 3.90392 0
M  V30 1836 O 159.797 -4.68996 3.24653 0
M  V30 1837 O 158.731 -3.58149 4.83749 0
M  V30 1838 H 162.557 -0.901279 2.90018 0
M  V30 1839 H 160.142 -0.380185 1.44482 0
M  V30 1840 H 162.024 -3.33292 2.57865 0
M  V30 1841 H 160.699 -2.88382 1.4703 0
M  V30 1842 H 159.606 -1.58431 3.38896 0
M  V30 1843 H 160.939 -2.10228 4.45045 0
M  V30 1844 N 162.591 -1.51276 -0.441967 0
M  V30 1845 C 163.837 -1.63958 -1.19355 0
M  V30 1846 C 164.17 -0.352543 -1.90973 0
M  V30 1847 O 163.445 0.647627 -1.83401 0
M  V30 1848 C 163.728 -2.83979 -2.21422 0
M  V30 1849 C 163.581 -4.22646 -1.53918 0
M  V30 1850 C 164.9 -2.99521 -3.22451 0
M  V30 1851 H 162.019 -0.596709 -0.432559 0
M  V30 1852 H 164.661 -1.83748 -0.483398 0
M  V30 1853 H 162.811 -2.67237 -2.81987 0
M  V30 1854 H 164.483 -4.51045 -0.967256 0
M  V30 1855 H 162.726 -4.25558 -0.841615 0
M  V30 1856 H 163.397 -5.02609 -2.28229 0
M  V30 1857 H 165.873 -3.14944 -2.71937 0
M  V30 1858 H 164.749 -3.85072 -3.91166 0
M  V30 1859 H 165.01 -2.11391 -3.88287 0
M  V30 1860 N 164.069 0.697108 -1.41344 0
M  V30 1861 C 165.016 1.81106 -1.43071 0
M  V30 1862 C 165.986 1.63632 -0.285275 0
M  V30 1863 O 167.171 1.84504 -0.486091 0
M  V30 1864 C 164.311 3.18975 -1.31715 0
M  V30 1865 C 163.424 3.47892 -2.56115 0
M  V30 1866 C 162.559 4.75367 -2.37064 0
M  V30 1867 C 161.598 4.97247 -3.56948 0
M  V30 1868 N 160.735 6.15947 -3.36977 0
M  V30 1869 H 165.575 1.78965 -2.38276 0
M  V30 1870 H 163.112 0.873975 -1.18322 0
M  V30 1871 H 165.07 3.98615 -1.23133 0
M  V30 1872 H 163.7 3.20297 -0.401183 0
M  V30 1873 H 162.752 2.62669 -2.75153 0
M  V30 1874 H 164.064 3.59962 -3.45295 0
M  V30 1875 H 163.218 5.63059 -2.25941 0
M  V30 1876 H 161.957 4.65541 -1.45338 0
M  V30 1877 H 160.962 4.08004 -3.68527 0
M  V30 1878 H 162.187 5.08934 -4.49626 0
M  V30 1879 H 160.133 6.07336 -2.47949 0
M  V30 1880 H 160.05 6.28777 -4.19732 0
M  V30 1881 H 161.318 7.06377 -3.29623 0
M  V30 1882 N 165.547 1.27147 0.931209 0
M  V30 1883 C 166.494 1.09568 2.03134 0
M  V30 1884 C 167.464 -0.00222433 1.661 0
M  V30 1885 O 168.649 0.159439 1.90133 0
M  V30 1886 C 165.789 0.745231 3.36957 0
M  V30 1887 C 164.902 1.92041 3.86968 0
M  V30 1888 C 164.037 1.51216 5.09222 0
M  V30 1889 C 163.076 2.65504 5.5152 0
M  V30 1890 N 162.213 2.25291 6.64972 0
M  V30 1891 H 167.053 2.03708 2.17502 0
M  V30 1892 H 164.59 1.01411 1.06556 0
M  V30 1893 H 166.548 0.522878 4.1391 0
M  V30 1894 H 165.178 -0.159202 3.22407 0
M  V30 1895 H 164.23 2.25541 3.06326 0
M  V30 1896 H 165.542 2.77787 4.1429 0
M  V30 1897 H 164.696 1.25084 5.93666 0
M  V30 1898 H 163.435 0.625749 4.83669 0
M  V30 1899 H 162.44 2.92354 4.65628 0
M  V30 1900 H 163.665 3.54761 5.7907 0
M  V30 1901 H 161.611 1.39098 6.41083 0
M  V30 1902 H 161.528 3.04577 6.91931 0
M  V30 1903 H 162.796 2.02398 7.52765 0
M  V30 1904 N 167.025 -1.13721 1.09112 0
M  V30 1905 C 167.955 -2.21148 0.749385 0
M  V30 1906 C 168.936 -1.6792 -0.271475 0
M  V30 1907 O 170.121 -1.93693 -0.140251 0
M  V30 1908 C 167.251 -3.46905 0.165659 0
M  V30 1909 C 166.205 -4.13203 1.11567 0
M  V30 1910 C 165.531 -5.33248 0.393809 0
M  V30 1911 C 166.831 -4.60912 2.45678 0
M  V30 1912 H 168.525 -2.4999 1.64758 0
M  V30 1913 H 166.071 -1.20156 0.793626 0
M  V30 1914 H 168.024 -4.21313 -0.085466 0
M  V30 1915 H 166.748 -3.17449 -0.767714 0
M  V30 1916 H 165.407 -3.40758 1.35202 0
M  V30 1917 H 165.055 -5.00054 -0.543599 0
M  V30 1918 H 164.755 -5.78552 1.02721 0
M  V30 1919 H 166.279 -6.10413 0.150908 0
M  V30 1920 H 167.693 -5.26759 2.26269 0
M  V30 1921 H 166.09 -5.16944 3.04776 0
M  V30 1922 H 167.16 -3.75603 3.06677 0
M  V30 1923 N 168.503 -0.877838 -1.30888 0
M  V30 1924 C 169.751 -0.491723 -1.96027 0
M  V30 1925 C 170.072 0.960827 -1.69685 0
M  V30 1926 O 169.342 1.67462 -1.01654 0
M  V30 1927 H 167.922 -0.17885 -0.725273 0
M  V30 1928 H 170.584 -1.11935 -1.59551 0
M  V30 1929 H 169.68 -0.656016 -3.05128 0
M  V30 1930 N 169.982 1.44106 -0.638065 0
M  V30 1931 C 170.929 2.30715 0.062701 0
M  V30 1932 C 171.899 1.43882 0.829883 0
M  V30 1933 O 173.084 1.72775 0.809532 0
M  V30 1934 C 170.224 3.29258 1.03358 0
M  V30 1935 C 169.337 4.31192 0.26409 0
M  V30 1936 C 168.472 5.16825 1.22741 0
M  V30 1937 C 167.511 6.10462 0.447475 0
M  V30 1938 N 166.648 6.8877 1.36161 0
M  V30 1939 H 171.488 2.90096 -0.681781 0
M  V30 1940 H 169.025 1.42925 -0.347988 0
M  V30 1941 H 170.983 3.84886 1.60992 0
M  V30 1942 H 169.613 2.71562 1.74511 0
M  V30 1943 H 168.665 3.77981 -0.428295 0
M  V30 1944 H 169.977 4.97619 -0.343052 0
M  V30 1945 H 169.131 5.77004 1.87487 0
M  V30 1946 H 167.87 4.50488 1.86847 0
M  V30 1947 H 166.875 5.49386 -0.213433 0
M  V30 1948 H 168.1 6.78837 -0.188968 0
M  V30 1949 H 166.046 6.25096 1.98975 0
M  V30 1950 H 165.963 7.51663 0.808656 0
M  V30 1951 H 167.231 7.53467 1.99769 0
M  V30 1952 N 171.46 0.379036 1.52974 0
M  V30 1953 C 172.709 -0.207612 2.00629 0
M  V30 1954 C 173.022 -1.48758 1.27006 0
M  V30 1955 O 174.228 -2.15365 1.65318 0
M  V30 1956 C 172.684 -0.42053 3.57435 0
M  V30 1957 C 172.292 0.845587 4.39948 0
M  V30 1958 C 174.036 -0.964102 4.13407 0
M  V30 1959 C 171.943 0.601513 5.88333 0
M  V30 1960 H 170.873 -0.0813591 0.749598 0
M  V30 1961 H 173.524 0.499853 1.76561 0
M  V30 1962 H 171.906 -1.18959 3.7771 0
M  V30 1963 H 173.08 1.61848 4.31442 0
M  V30 1964 H 171.395 1.31336 3.95145 0
M  V30 1965 H 173.992 -1.16225 5.21916 0
M  V30 1966 H 174.335 -1.93019 3.68849 0
M  V30 1967 H 174.868 -0.25487 3.96983 0
M  V30 1968 H 171.607 1.53831 6.37194 0
M  V30 1969 H 171.127 -0.132628 5.99653 0
M  V30 1970 H 172.806 0.232134 6.46583 0
M  V30 1971 N 172.938 -1.57226 0.108567 0
M  V30 1972 C 174.185 -1.94833 -0.551943 0
M  V30 1973 C 174.513 -0.991204 -1.67348 0
M  V30 1974 O 173.768 -0.0131878 -1.95696 0
M  V30 1975 C 174.067 -3.38911 -1.13463 0
M  V30 1976 C 173.733 -4.50696 -0.135509 0
M  V30 1977 C 172.395 -4.80998 0.139252 0
M  V30 1978 C 174.747 -5.18333 0.545957 0
M  V30 1979 C 172.075 -5.76259 1.10194 0
M  V30 1980 C 174.427 -6.14627 1.49721 0
M  V30 1981 C 173.091 -6.43327 1.78006 0
M  V30 1982 H 172.361 -0.712944 -0.20197 0
M  V30 1983 H 175.008 -1.90582 0.18726 0
M  V30 1984 H 173.313 -3.39805 -1.95037 0
M  V30 1985 H 175.01 -3.65317 -1.65362 0
M  V30 1986 H 171.6 -4.27087 -0.359846 0
M  V30 1987 H 175.784 -4.95087 0.346842 0
M  V30 1988 H 171.04 -5.96804 1.32795 0
M  V30 1989 H 175.214 -6.66126 2.03099 0
M  V30 1990 H 172.841 -7.1695 2.52759 0
M  V30 1991 N 174.416 0.165178 -1.56732 0
M  V30 1992 C 175.832 0.517174 -1.50988 0
M  V30 1993 C 176.032 1.84331 -0.813894 0
M  V30 1994 O 175.088 2.49672 -0.37682 0
M  V30 1995 C 176.401 0.544261 -2.95733 0
M  V30 1996 C 177.949 0.631039 -3.06573 0
M  V30 1997 C 178.424 0.68896 -4.52788 0
M  V30 1998 N 179.915 0.751683 -4.5706 0
M  V30 1999 C 180.65 0.817177 -5.67547 0
M  V30 2000 N 180.146 0.843129 -6.8765 0
M  V30 2001 N 181.939 0.856668 -5.55534 0
M  V30 2002 H 174.09 -0.704318 -2.00382 0
M  V30 2003 H 176.353 -0.254687 -0.913148 0
M  V30 2004 H 176.059 -0.361607 -3.49836 0
M  V30 2005 H 175.933 1.3886 -3.5071 0
M  V30 2006 H 178.32 1.52733 -2.52501 0
M  V30 2007 H 178.401 -0.240095 -2.54671 0
M  V30 2008 H 178.045 -0.2031 -5.07494 0
M  V30 2009 H 177.975 1.57633 -5.02454 0
M  V30 2010 H 180.466 0.739661 -3.70591 0
M  V30 2011 H 180.779 0.894448 -7.67606 0
M  V30 2012 H 179.124 0.811304 -6.90248 0
M  V30 2013 H 182.315 0.833437 -4.60621 0
M  V30 2014 H 182.488 0.904247 -6.4166 0
M  V30 2015 N 175.894 1.51508 0.433938 0
M  V30 2016 C 177.171 1.54888 1.19453 0
M  V30 2017 C 177.551 0.315154 2.08734 0
M  V30 2018 O 176.899 -0.699558 2.17528 0
M  V30 2019 C 177.109 2.86467 1.99342 0
M  V30 2020 C 178.457 3.38545 2.56267 0
M  V30 2021 O 179.481 2.88041 2.0955 0
M  V30 2022 O 178.34 4.26675 3.41483 0
M  V30 2023 H 175.434 0.622863 0.544032 0
M  V30 2024 H 177.98 1.63823 0.442732 0
M  V30 2025 H 176.752 3.67718 1.33788 0
M  V30 2026 H 176.375 2.8071 2.8158 0
M  V30 2027 N 177.372 -0.689602 1.41712 0
M  V30 2028 C 178.319 -1.80345 1.44029 0
M  V30 2029 C 179.289 -1.63478 0.293948 0
M  V30 2030 O 180.474 -1.84244 0.495869 0
M  V30 2031 C 177.614 -3.18272 1.33405 0
M  V30 2032 C 176.727 -3.46529 2.57956 0
M  V30 2033 C 175.862 -4.74103 2.39582 0
M  V30 2034 C 174.901 -4.95347 3.5958 0
M  V30 2035 N 174.038 -6.14151 3.40239 0
M  V30 2036 H 178.878 -1.77698 2.39222 0
M  V30 2037 H 176.415 -0.867688 1.18784 0
M  V30 2038 H 178.373 -3.97956 1.25246 0
M  V30 2039 H 177.003 -3.2008 0.418164 0
M  V30 2040 H 176.055 -2.61207 2.76542 0
M  V30 2041 H 177.367 -3.58126 3.47199 0
M  V30 2042 H 176.521 -5.61853 2.28924 0
M  V30 2043 H 175.26 -4.64763 1.47805 0
M  V30 2044 H 174.265 -4.06044 3.70686 0
M  V30 2045 H 175.49 -5.06542 4.52318 0
M  V30 2046 H 173.436 -6.06013 2.51167 0
M  V30 2047 H 173.353 -6.26543 4.23061 0
M  V30 2048 H 174.621 -7.04619 3.33365 0
M  V30 2049 N 178.85 -1.27639 -0.924453 0
M  V30 2050 C 180.097 -1.14167 -1.67249 0
M  V30 2051 C 180.425 0.311863 -1.91984 0
M  V30 2052 O 179.68 1.24425 -1.51053 0
M  V30 2053 C 179.979 -1.87407 -3.04325 0
M  V30 2054 C 179.645 -3.37249 -2.99289 0
M  V30 2055 C 178.307 -3.7812 -2.97622 0
M  V30 2056 C 180.659 -4.32845 -2.90336 0
M  V30 2057 C 177.987 -5.12944 -2.8479 0
M  V30 2058 C 180.339 -5.6773 -2.79045 0
M  V30 2059 C 179.003 -6.07889 -2.7573 0
M  V30 2060 H 178.273 -0.417766 -0.612007 0
M  V30 2061 H 180.92 -1.58286 -1.07786 0
M  V30 2062 H 179.225 -1.35805 -3.67511 0
M  V30 2063 H 180.922 -1.74408 -3.61086 0
M  V30 2064 H 177.512 -3.04748 -3.01374 0
M  V30 2065 H 181.696 -4.02239 -2.90719 0
M  V30 2066 H 176.952 -5.432 -2.80612 0
M  V30 2067 H 181.126 -6.41472 -2.71083 0
M  V30 2068 H 178.753 -7.12314 -2.65544 0
M  V30 2069 N 180.328 1.1314 -1.09713 0
M  V30 2070 C 181.258 2.20748 -0.761102 0
M  V30 2071 C 182.239 1.68061 0.262566 0
M  V30 2072 O 183.424 1.93765 0.129977 0
M  V30 2073 C 180.554 3.46812 -0.184054 0
M  V30 2074 C 179.508 4.12606 -1.13757 0
M  V30 2075 C 178.834 5.33031 -0.422083 0
M  V30 2076 C 180.134 4.59603 -2.48118 0
M  V30 2077 H 181.828 2.49113 -1.66082 0
M  V30 2078 H 179.374 1.19734 -0.799987 0
M  V30 2079 H 181.327 4.21353 0.0631215 0
M  V30 2080 H 180.051 3.17851 0.750868 0
M  V30 2081 H 178.71 3.40036 -1.37007 0
M  V30 2082 H 178.358 5.00335 0.517072 0
M  V30 2083 H 178.058 5.77999 -1.05788 0
M  V30 2084 H 179.582 6.10325 -0.183277 0
M  V30 2085 H 180.996 5.25552 -2.29059 0
M  V30 2086 H 179.393 5.15321 -3.07514 0
M  V30 2087 H 180.463 3.73971 -3.08665 0
M  V30 2088 N 181.806 0.884767 1.30421 0
M  V30 2089 C 182.716 0.355398 2.31892 0
M  V30 2090 C 183.732 -0.542261 1.65335 0
M  V30 2091 O 184.908 -0.435432 1.96637 0
M  V30 2092 C 181.973 -0.421661 3.44126 0
M  V30 2093 C 181.034 0.505727 4.26311 0
M  V30 2094 C 180.267 -0.234343 5.33185 0
M  V30 2095 O 180.49 -1.46045 5.51386 0
M  V30 2096 O 179.424 0.415443 6.00465 0
M  V30 2097 H 183.25 1.19685 2.79122 0
M  V30 2098 H 180.835 0.648596 1.34587 0
M  V30 2099 H 182.717 -0.861641 4.12497 0
M  V30 2100 H 181.392 -1.23942 2.99032 0
M  V30 2101 H 180.299 0.994513 3.60639 0
M  V30 2102 H 181.632 1.28948 4.75009 0
M  V30 2103 N 183.284 -1.43765 0.645699 0
M  V30 2104 C 184.695 -1.85193 0.236719 0
M  V30 2105 C 185.046 -1.54045 -1.21509 0
M  V30 2106 O 184.171 -0.985694 -1.92647 0
M  V30 2107 C 184.766 -3.36151 0.422845 0
M  V30 2108 C 183.325 -3.76338 0.0682492 0
M  V30 2109 C 182.472 -2.67538 0.729306 0
M  V30 2110 H 185.423 -1.34025 0.849883 0
M  V30 2111 H 185.444 -3.79032 -0.333904 0
M  V30 2112 H 184.956 -3.5879 1.47958 0
M  V30 2113 H 183.057 -3.59312 -0.986179 0
M  V30 2114 H 183.17 -4.76603 0.488469 0
M  V30 2115 H 181.534 -2.54176 0.163235 0
M  V30 2116 H 182.317 -2.93006 1.78892 0
M  V30 2117 N 184.763 -0.387143 -1.52771 0
M  V30 2118 C 186.009 0.196025 -2.0185 0
M  V30 2119 C 186.342 1.46641 -1.27319 0
M  V30 2120 O 185.617 1.90889 -0.373032 0
M  V30 2121 C 185.9 0.466136 -3.5707 0
M  V30 2122 C 185.753 -0.819385 -4.42274 0
M  V30 2123 C 187.072 1.25768 -4.21747 0
M  V30 2124 H 184.191 0.0697708 -0.73369 0
M  V30 2125 H 186.833 -0.516286 -1.82851 0
M  V30 2126 H 184.983 1.07293 -3.7339 0
M  V30 2127 H 186.655 -1.4563 -4.37709 0
M  V30 2128 H 184.898 -1.43517 -4.09372 0
M  V30 2129 H 185.569 -0.585065 -5.48891 0
M  V30 2130 H 188.045 0.744167 -4.09391 0
M  V30 2131 H 186.921 1.41541 -5.30337 0
M  V30 2132 H 187.182 2.27228 -3.79236 0
M  V30 2133 N 186.241 1.57166 -0.116904 0
M  V30 2134 C 187.189 2.16457 0.851418 0
M  V30 2135 C 188.183 1.11323 1.27686 0
M  V30 2136 O 189.389 1.2963 1.24884 0
M  V30 2137 H 185.764 0.69271 0.292672 0
M  V30 2138 H 187.735 2.96605 0.32685 0
M  V30 2139 C 186.484 2.77689 2.09246 0
M  V30 2140 H 185.807 3.58285 1.77402 0
M  V30 2141 H 187.247 3.22716 2.7501 0
M  V30 2142 C 185.706 1.74667 2.88085 0
M  V30 2143 O 186.236 1.19877 3.83396 0
M  V30 2144 N 184.442 1.44656 2.52038 0
M  V30 2145 H 183.989 1.89402 1.74599 0
M  V30 2146 H 183.947 0.759675 3.05084 0
M  V30 2147 N 187.719 -0.156864 1.56817 0
M  V30 2148 C 188.666 -1.19394 1.97519 0
M  V30 2149 C 189.636 -1.4322 0.841265 0
M  V30 2150 O 190.821 -1.55719 1.10255 0
M  V30 2151 C 187.961 -2.52483 2.35258 0
M  V30 2152 C 187.074 -2.35914 3.61896 0
M  V30 2153 C 186.209 -3.61969 3.88782 0
M  V30 2154 C 185.248 -3.40395 5.08722 0
M  V30 2155 N 184.385 -4.58556 5.31668 0
M  V30 2156 H 189.225 -0.839845 2.85921 0
M  V30 2157 H 186.762 -0.403264 1.41464 0
M  V30 2158 H 188.72 -3.30071 2.55165 0
M  V30 2159 H 187.35 -2.85859 1.49949 0
M  V30 2160 H 186.402 -1.49429 3.49821 0
M  V30 2161 H 187.714 -2.15926 4.49641 0
M  V30 2162 H 186.868 -4.47989 4.09135 0
M  V30 2163 H 185.607 -3.84951 2.9944 0
M  V30 2164 H 184.612 -2.52763 4.88253 0
M  V30 2165 H 185.837 -3.18822 5.99608 0
M  V30 2166 H 183.783 -4.81729 4.45279 0
M  V30 2167 H 183.7 -4.41535 6.13664 0
M  V30 2168 H 184.968 -5.45817 5.5651 0
M  V30 2169 N 189.197 -1.51736 -0.425897 0
M  V30 2170 C 190.144 -1.73875 -1.51776 0
M  V30 2171 C 191.114 -0.580702 -1.55618 0
M  V30 2172 O 192.299 -0.81641 -1.72451 0
M  V30 2173 C 189.439 -1.88012 -2.89388 0
M  V30 2174 C 188.552 -3.15606 -2.94986 0
M  V30 2175 C 187.687 -3.20271 -4.23793 0
M  V30 2176 C 186.726 -4.42134 -4.23302 0
M  V30 2177 N 185.863 -4.44284 -5.43651 0
M  V30 2178 H 190.703 -2.67071 -1.32201 0
M  V30 2179 H 188.24 -1.32351 -0.642008 0
M  V30 2180 H 190.198 -1.9419 -3.69251 0
M  V30 2181 H 188.828 -0.98213 -3.07496 0
M  V30 2182 H 187.88 -3.18681 -2.07717 0
M  V30 2183 H 189.192 -4.05486 -2.90486 0
M  V30 2184 H 188.346 -3.25428 -5.12036 0
M  V30 2185 H 187.085 -2.28299 -4.30965 0
M  V30 2186 H 186.09 -4.3714 -3.3345 0
M  V30 2187 H 187.315 -5.35382 -4.17783 0
M  V30 2188 H 185.261 -3.55188 -5.51523 0
M  V30 2189 H 185.178 -5.27988 -5.41078 0
M  V30 2190 H 186.446 -4.53649 -6.33895 0
M  V30 2191 N 190.675 0.682077 -1.42076 0
M  V30 2192 C 191.903 1.47057 -1.4554 0
M  V30 2193 C 192.318 1.8869 -0.0645779 0
M  V30 2194 O 191.675 1.57666 0.919115 0
M  V30 2195 C 191.726 2.72442 -2.37609 0
M  V30 2196 O 191.447 2.32559 -3.71279 0
M  V30 2197 C 192.948 3.66069 -2.50017 0
M  V30 2198 H 190.168 0.452737 -0.495248 0
M  V30 2199 H 192.712 0.838695 -1.8651 0
M  V30 2200 H 190.867 3.31835 -1.9991 0
M  V30 2201 H 191.281 3.13475 -4.20516 0
M  V30 2202 H 192.755 4.50792 -3.18576 0
M  V30 2203 H 193.232 4.11476 -1.53572 0
M  V30 2204 H 193.838 3.12572 -2.88407 0
M  V30 2205 N 192.153 1.28127 0.917671 0
M  V30 2206 C 193.401 1.14825 1.66312 0
M  V30 2207 C 193.722 -0.304379 1.9261 0
M  V30 2208 O 192.992 -1.21149 1.53947 0
M  V30 2209 H 191.572 0.421953 0.616413 0
M  V30 2210 H 194.234 1.608 1.10134 0
M  V30 2211 H 193.33 1.68489 2.62712 0
M  V30 2212 N 193.631 -1.12557 1.10312 0
M  V30 2213 C 194.541 -2.21841 0.763142 0
M  V30 2214 C 195.557 -1.72354 -0.238801 0
M  V30 2215 O 196.733 -2.01249 -0.0778746 0
M  V30 2216 C 193.798 -3.46131 0.198632 0
M  V30 2217 C 192.859 -4.10464 1.25769 0
M  V30 2218 C 192.092 -5.28821 0.72002 0
M  V30 2219 O 192.315 -5.6859 -0.453993 0
M  V30 2220 O 191.249 -5.83437 1.47935 0
M  V30 2221 H 195.075 -2.53312 1.67532 0
M  V30 2222 H 192.66 -1.20867 0.878157 0
M  V30 2223 H 194.542 -4.2125 -0.112401 0
M  V30 2224 H 193.217 -3.16338 -0.686419 0
M  V30 2225 H 192.124 -3.3713 1.62156 0
M  V30 2226 H 193.457 -4.44408 2.11571 0
M  V30 2227 N 195.109 -0.891671 -1.2995 0
M  V30 2228 C 196.355 -0.514261 -1.96171 0
M  V30 2229 C 196.688 0.935506 -1.70182 0
M  V30 2230 O 195.963 1.66204 -1.01028 0
M  V30 2231 C 196.246 -0.797719 -3.51153 0
M  V30 2232 C 196.099 -2.2986 -3.86632 0
M  V30 2233 C 197.418 -0.278749 -4.39216 0
M  V30 2234 H 194.537 -0.188314 -0.712535 0
M  V30 2235 H 197.179 -1.11689 -1.53706 0
M  V30 2236 H 195.329 -0.284826 -3.87455 0
M  V30 2237 H 197.001 -2.88042 -3.60319 0
M  V30 2238 H 195.244 -2.76257 -3.34462 0
M  V30 2239 H 195.915 -2.44753 -4.94773 0
M  V30 2240 H 198.391 -0.717825 -4.09862 0
M  V30 2241 H 197.267 -0.506353 -5.46559 0
M  V30 2242 H 197.528 0.820266 -4.34424 0
M  V30 2243 N 196.587 1.43421 -0.653314 0
M  V30 2244 C 197.812 2.06678 -0.172846 0
M  V30 2245 C 198.237 1.48648 1.15262 0
M  V30 2246 O 197.595 0.596457 1.71208 0
M  V30 2247 C 197.643 3.60474 -0.0953184 0
M  V30 2248 O 196.747 4.01487 0.942442 0
M  V30 2249 H 196.088 0.657181 -0.0949155 0
M  V30 2250 H 198.618 1.83925 -0.896265 0
M  V30 2251 H 198.628 4.07905 0.0879728 0
M  V30 2252 H 197.303 4.02088 -1.06291 0
M  V30 2253 H 195.88 3.65646 0.731932 0
M  V30 2254 N 198.065 0.39524 1.52563 0
M  V30 2255 C 199.012 -0.437036 2.26624 0
M  V30 2256 C 199.982 -1.05281 1.28472 0
M  V30 2257 O 201.167 -1.07971 1.57311 0
M  V30 2258 C 198.307 -1.55524 3.08069 0
M  V30 2259 C 197.42 -0.961745 4.21158 0
M  V30 2260 C 196.555 -2.05149 4.89987 0
M  V30 2261 C 195.594 -1.4342 5.95061 0
M  V30 2262 N 194.731 -2.46351 6.57462 0
M  V30 2263 H 199.571 0.200976 2.97322 0
M  V30 2264 H 197.108 0.110944 1.46681 0
M  V30 2265 H 199.066 -2.21437 3.53584 0
M  V30 2266 H 197.696 -2.16348 2.3957 0
M  V30 2267 H 196.748 -0.192048 3.79915 0
M  V30 2268 H 198.06 -0.470701 4.96574 0
M  V30 2269 H 197.214 -2.78819 5.38837 0
M  V30 2270 H 195.953 -2.57615 4.14109 0
M  V30 2271 H 194.958 -0.682774 5.45544 0
M  V30 2272 H 196.183 -0.917416 6.72875 0
M  V30 2273 H 194.129 -2.97975 5.8442 0
M  V30 2274 H 194.046 -2.02019 7.28508 0
M  V30 2275 H 195.314 -3.19633 7.10954 0
M  V30 2276 N 199.544 -1.57102 0.125237 0
M  V30 2277 C 200.821 -1.86953 -0.575142 0
M  V30 2278 C 201.201 -1.02749 -1.84407 0
M  V30 2279 O 200.549 -0.108144 -2.28244 0
M  V30 2280 C 200.759 -3.38198 -0.861583 0
M  V30 2281 C 202.107 -4.06937 -1.21192 0
M  V30 2282 O 203.131 -3.43252 -0.951645 0
M  V30 2283 O 201.99 -5.19364 -1.70068 0
M  V30 2284 H 199.084 -0.774147 -0.290906 0
M  V30 2285 H 201.63 -1.68942 0.160211 0
M  V30 2286 H 200.402 -3.91282 0.0373647 0
M  V30 2287 H 200.025 -3.61661 -1.65188 0
M  V30 2288 N 201.022 0.148545 -1.56898 0
M  V30 2289 C 202.271 0.85984 -1.82454 0
M  V30 2290 C 202.584 1.82406 -0.706229 0
M  V30 2291 O 203.79 2.57938 -0.847349 0
M  V30 2292 C 202.246 1.57967 -3.2338 0
M  V30 2293 C 201.854 0.65794 -4.43142 0
M  V30 2294 C 203.598 2.27784 -3.58211 0
M  V30 2295 C 201.505 1.3793 -5.75091 0
M  V30 2296 H 200.435 0.324834 -0.68044 0
M  V30 2297 H 203.086 0.112588 -1.83154 0
M  V30 2298 H 201.468 2.37249 -3.17063 0
M  V30 2299 H 202.642 -0.0995497 -4.60692 0
M  V30 2300 H 200.957 0.0682643 -4.16344 0
M  V30 2301 H 203.554 2.8239 -4.54048 0
M  V30 2302 H 203.897 3.04204 -2.84193 0
M  V30 2303 H 204.43 1.55421 -3.66182 0
M  V30 2304 H 201.169 0.656982 -6.52199 0
M  V30 2305 H 200.689 2.10954 -5.61479 0
M  V30 2306 H 202.368 1.92063 -6.17835 0
M  V30 2307 N 202.5 1.5196 0.417844 0
M  V30 2308 C 203.725 1.69717 1.1921 0
M  V30 2309 C 204.15 0.402148 1.83751 0
M  V30 2310 O 203.508 -0.639593 1.69643 0
M  V30 2311 C 203.556 2.82794 2.2374 0
M  V30 2312 O 202.66 2.47756 3.29683 0
M  V30 2313 H 202.001 0.565263 0.348387 0
M  V30 2314 H 204.531 1.98621 0.490985 0
M  V30 2315 H 204.541 3.07452 2.68212 0
M  V30 2316 H 203.216 3.76756 1.76146 0
M  V30 2317 H 201.793 2.33739 2.90552 0
M  V30 2318 N 203.978 -0.674533 1.42435 0
M  V30 2319 C 205.225 -1.43459 1.42919 0
M  V30 2320 C 205.553 -1.94446 0.0457312 0
M  V30 2321 O 204.808 -1.7132 -0.94593 0
M  V30 2322 C 205.107 -2.64767 2.40069 0
M  V30 2323 C 204.773 -2.3232 3.86443 0
M  V30 2324 C 203.435 -2.23182 4.26314 0
M  V30 2325 C 205.787 -2.05977 4.78773 0
M  V30 2326 C 203.115 -1.85827 5.56494 0
M  V30 2327 C 205.467 -1.70125 6.09295 0
M  V30 2328 C 204.131 -1.59498 6.48164 0
M  V30 2329 H 203.401 -0.524952 0.522978 0
M  V30 2330 H 206.048 -0.769097 1.75377 0
M  V30 2331 H 204.353 -3.36349 2.00939 0
M  V30 2332 H 206.05 -3.22949 2.37707 0
M  V30 2333 H 202.64 -2.40334 3.54877 0
M  V30 2334 H 206.824 -2.11969 4.48757 0
M  V30 2335 H 202.08 -1.76168 5.8547 0
M  V30 2336 H 206.254 -1.48767 6.80324 0
M  V30 2337 H 203.881 -1.30322 7.48946 0
M  V30 2338 N 205.456 -1.28612 -0.910864 0
M  V30 2339 C 206.386 -1.15326 -2.03032 0
M  V30 2340 C 207.367 -0.0502924 -1.70026 0
M  V30 2341 O 208.552 -0.227797 -1.92859 0
M  V30 2342 C 205.682 -0.817343 -3.37545 0
M  V30 2343 C 204.636 -1.8754 -3.84724 0
M  V30 2344 C 203.962 -1.39305 -5.16235 0
M  V30 2345 C 205.262 -3.28244 -4.06267 0
M  V30 2346 H 206.956 -2.08975 -2.14406 0
M  V30 2347 H 204.502 -1.00612 -1.03021 0
M  V30 2348 H 206.455 -0.711151 -4.15356 0
M  V30 2349 H 205.179 0.154846 -3.26233 0
M  V30 2350 H 203.838 -1.97079 -3.09121 0
M  V30 2351 H 203.486 -0.409846 -5.01328 0
M  V30 2352 H 203.186 -2.10057 -5.48771 0
M  V30 2353 H 204.71 -1.30014 -5.96598 0
M  V30 2354 H 206.124 -3.21611 -4.74594 0
M  V30 2355 H 204.521 -3.96855 -4.5014 0
M  V30 2356 H 205.591 -3.72048 -3.10979 0
M  V30 2357 N 206.934 1.1197 -1.10907 0
M  V30 2358 C 207.884 2.15946 -0.731538 0
M  V30 2359 C 208.868 1.58758 0.261699 0
M  V30 2360 O 210.06 1.76863 0.0696722 0
M  V30 2361 C 207.189 3.42877 -0.170299 0
M  V30 2362 C 206.275 4.07037 -1.19087 0
M  V30 2363 N 206.666 4.46135 -2.38322 0
M  V30 2364 C 204.964 4.33884 -1.03252 0
M  V30 2365 C 205.665 4.96331 -3.03366 0
M  V30 2366 N 204.641 4.9214 -2.30865 0
M  V30 2367 H 208.443 2.43947 -1.63912 0
M  V30 2368 H 205.957 1.28927 -0.987505 0
M  V30 2369 H 207.954 4.16732 0.118271 0
M  V30 2370 H 206.614 3.16343 0.731935 0
M  V30 2371 H 207.625 4.38345 -2.75815 0
M  V30 2372 H 204.302 4.17084 -0.186256 0
M  V30 2373 H 205.692 5.36257 -4.04818 0
M  V30 2374 N 208.412 0.89855 1.29475 0
M  V30 2375 C 209.359 0.373819 2.27753 0
M  V30 2376 C 210.329 -0.543444 1.56958 0
M  V30 2377 O 211.514 -0.468934 1.84948 0
M  V30 2378 C 208.654 -0.393648 3.42848 0
M  V30 2379 C 207.767 0.554379 4.28428 0
M  V30 2380 C 206.902 -0.230026 5.30702 0
M  V30 2381 C 205.941 0.712599 6.07938 0
M  V30 2382 N 205.078 -0.0373283 7.0209 0
M  V30 2383 H 209.918 1.21699 2.72017 0
M  V30 2384 H 207.455 0.611456 1.33789 0
M  V30 2385 H 209.413 -0.85466 4.08352 0
M  V30 2386 H 208.043 -1.20128 2.99615 0
M  V30 2387 H 207.095 1.13391 3.63107 0
M  V30 2388 H 208.407 1.27597 4.82204 0
M  V30 2389 H 207.561 -0.752288 6.02018 0
M  V30 2390 H 206.3 -0.984758 4.77654 0
M  V30 2391 H 205.305 1.24637 5.35486 0
M  V30 2392 H 206.53 1.46664 6.63074 0
M  V30 2393 H 204.476 -0.774348 6.51414 0
M  V30 2394 H 204.393 0.624374 7.53417 0
M  V30 2395 H 205.661 -0.539891 7.77628 0
M  V30 2396 N 209.89 -1.43072 0.660911 0
M  V30 2397 C 210.837 -2.30785 -0.0259884 0
M  V30 2398 C 211.807 -1.45184 -0.806888 0
M  V30 2399 O 212.992 -1.74041 -0.781943 0
M  V30 2400 C 210.132 -3.30861 -0.981067 0
M  V30 2401 C 209.245 -4.31558 -0.195458 0
M  V30 2402 C 208.38 -5.18712 -1.14503 0
M  V30 2403 C 207.419 -6.11097 -0.350299 0
M  V30 2404 N 206.556 -6.90849 -1.25186 0
M  V30 2405 H 211.396 -2.88975 0.727846 0
M  V30 2406 H 208.933 -1.42353 0.370682 0
M  V30 2407 H 210.891 -3.87399 -1.54849 0
M  V30 2408 H 209.521 -2.74304 -1.70169 0
M  V30 2409 H 208.573 -3.77252 0.488374 0
M  V30 2410 H 209.885 -4.9701 0.422176 0
M  V30 2411 H 209.039 -5.79914 -1.78284 0
M  V30 2412 H 207.778 -4.53404 -1.79656 0
M  V30 2413 H 206.783 -5.48976 0.300808 0
M  V30 2414 H 208.008 -6.7845 0.296941 0
M  V30 2415 H 205.954 -6.28182 -1.89005 0
M  V30 2416 H 205.871 -7.52854 -0.688971 0
M  V30 2417 H 207.139 -7.5655 -1.87757 0
M  V30 2418 N 211.368 -0.403325 -1.52352 0
M  V30 2419 C 212.298 0.416205 -2.29761 0
M  V30 2420 C 213.279 1.05123 -1.33728 0
M  V30 2421 O 214.464 1.06134 -1.62632 0
M  V30 2422 C 211.594 1.53624 -3.11475 0
M  V30 2423 C 210.548 1.02653 -4.15507 0
M  V30 2424 C 209.874 2.23971 -4.85532 0
M  V30 2425 C 211.174 0.08463 -5.22231 0
M  V30 2426 H 212.868 -0.229701 -2.98518 0
M  V30 2427 H 210.414 -0.111913 -1.43564 0
M  V30 2428 H 212.367 2.1165 -3.64393 0
M  V30 2429 H 211.091 2.20994 -2.40477 0
M  V30 2430 H 209.75 0.46871 -3.63591 0
M  V30 2431 H 209.398 2.89883 -4.11068 0
M  V30 2432 H 209.098 1.90521 -5.55856 0
M  V30 2433 H 210.622 2.82614 -5.41259 0
M  V30 2434 H 212.036 0.573509 -5.70424 0
M  V30 2435 H 210.433 -0.160783 -5.99885 0
M  V30 2436 H 211.503 -0.86237 -4.7717 0
M  V30 2437 N 212.846 1.57033 -0.133567 0
M  V30 2438 C 214.076 1.99754 0.527429 0
M  V30 2439 C 214.484 1.01245 1.59832 0
M  V30 2440 O 213.827 -0.000645496 1.837 0
M  V30 2441 C 213.889 3.38903 1.19939 0
M  V30 2442 C 213.553 4.56174 0.274709 0
M  V30 2443 C 214.55 5.17563 -0.492398 0
M  V30 2444 C 212.235 5.01972 0.18153 0
M  V30 2445 C 214.229 6.2315 -1.34027 0
M  V30 2446 C 211.916 6.07416 -0.669958 0
M  V30 2447 C 212.914 6.67874 -1.42947 0
M  V30 2448 O 212.602 7.71279 -2.2668 0
M  V30 2449 H 212.334 0.660702 0.142999 0
M  V30 2450 H 214.888 2.04207 -0.221099 0
M  V30 2451 H 213.118 3.31248 1.99528 0
M  V30 2452 H 214.807 3.65818 1.75875 0
M  V30 2453 H 215.573 4.83087 -0.430367 0
M  V30 2454 H 211.452 4.54652 0.762422 0
M  V30 2455 H 214.996 6.70268 -1.93357 0
M  V30 2456 H 210.893 6.41321 -0.73333 0
M  V30 2457 H 211.661 7.88441 -2.1978 0
M  V30 2458 N 214.325 -0.140222 1.56975 0
M  V30 2459 C 215.572 -0.851687 1.83719 0
M  V30 2460 C 215.9 -1.80862 0.715485 0
M  V30 2461 O 215.155 -1.93464 -0.294956 0
M  V30 2462 C 215.454 -1.65386 3.16832 0
M  V30 2463 C 215.12 -0.843112 4.42947 0
M  V30 2464 C 213.782 -0.619464 4.77196 0
M  V30 2465 C 216.134 -0.276582 5.20466 0
M  V30 2466 C 213.462 0.181312 5.8642 0
M  V30 2467 C 215.814 0.51127 6.30531 0
M  V30 2468 C 214.478 0.745432 6.63325 0
M  V30 2469 H 213.748 -0.311654 0.672274 0
M  V30 2470 H 216.395 -0.115006 1.91154 0
M  V30 2471 H 214.7 -2.46084 3.04877 0
M  V30 2472 H 216.397 -2.20793 3.34741 0
M  V30 2473 H 212.987 -1.0275 4.16101 0
M  V30 2474 H 217.171 -0.436632 4.94376 0
M  V30 2475 H 212.427 0.372165 6.10266 0
M  V30 2476 H 216.601 0.957354 6.89788 0
M  V30 2477 H 214.228 1.36778 7.47794 0
M  V30 2478 O 215.842 -1.58968 -0.284834 0
M  V30 2479 H 216.533 -1.69867 -0.930848 0
M  V30 END ATOM
M  V30 BEGIN BOND
M  V30 END BOND
M  V30 END CTAB
M  END
$$$$
