drugbank_target|Q59643 Delta-aminolevulinic acid dehydratase (DB01942; DB02828)
 OpenBabel12092119513D

  0  0  0     0  0            999 V3000
M  V30 BEGIN CTAB
M  V30 COUNTS 5184 5233 0 0 0
M  V30 BEGIN ATOM
M  V30 1 H -0.908 1.98254 -0.117106 0
M  V30 2 N 0 1.576 0 0
M  V30 3 C 0.933 2.03868 1.02534 0
M  V30 4 C 1.911 0.928543 1.3348 0
M  V30 5 O 3.095 1.19667 1.45644 0
M  V30 6 C 0.222 2.43627 2.35294 0
M  V30 7 C -0.732 3.65373 2.2001 0
M  V30 8 S 0.101 5.13292 1.52614 0
M  V30 9 C 1.257 5.56322 2.86805 0
M  V30 10 H 1.49 2.90518 0.631377 0
M  V30 11 H -0.977 1.52953 0.210867 0
M  V30 12 H 0.981 2.67203 3.11629 0
M  V30 13 H -0.358 1.57376 2.7183 0
M  V30 14 H -1.165 3.90944 3.18086 0
M  V30 15 H -1.563 3.418 1.51819 0
M  V30 16 H 0.729 5.58782 3.83104 0
M  V30 17 H 1.672 6.56266 2.65933 0
M  V30 18 H 2.08 4.83886 2.90714 0
M  V30 19 N 1.4781 -0.272755 1.55222 0
M  V30 20 C 2.7031 -1.02683 1.80197 0
M  V30 21 C 3.1281 -1.79142 0.573551 0
M  V30 22 O 2.4861 -1.74917 -0.476849 0
M  V30 23 C 2.5341 -1.9609 3.02624 0
M  V30 24 O 1.6381 -3.04863 2.77727 0
M  V30 25 H 0.9791 -0.293557 0.595584 0
M  V30 26 H 3.5091 -0.30159 2.02365 0
M  V30 27 H 3.5191 -2.38039 3.31363 0
M  V30 28 H 2.1941 -1.39851 3.91682 0
M  V30 29 H 0.7711 -2.67228 2.60084 0
M  V30 30 N 2.9562 -1.48159 -0.537278 0
M  V30 31 C 4.2032 -1.55804 -1.29349 0
M  V30 32 C 4.5312 -0.228802 -1.9315 0
M  V30 33 O 3.7862 0.780242 -1.79473 0
M  V30 34 C 4.0852 -2.63956 -2.40961 0
M  V30 35 C 3.7512 -4.0662 -1.94861 0
M  V30 36 C 2.4132 -4.45452 -1.82006 0
M  V30 37 C 4.7652 -4.96055 -1.59933 0
M  V30 38 C 2.0932 -5.71531 -1.32547 0
M  V30 39 C 4.4452 -6.22617 -1.11939 0
M  V30 40 C 3.1092 -6.60312 -0.976951 0
M  V30 41 H 2.3792 -0.570129 -0.473322 0
M  V30 42 H 5.0262 -1.81845 -0.600372 0
M  V30 43 H 3.3312 -2.31747 -3.15912 0
M  V30 44 H 5.0282 -2.67089 -2.99107 0
M  V30 45 H 1.6182 -3.75949 -2.05815 0
M  V30 46 H 5.8022 -4.66738 -1.68728 0
M  V30 47 H 1.0582 -5.99468 -1.202 0
M  V30 48 H 5.2322 -6.91318 -0.839811 0
M  V30 49 H 2.8592 -7.57895 -0.591501 0
M  V30 50 N 4.4343 0.785586 -1.36625 0
M  V30 51 C 5.6623 1.57448 -1.3423 0
M  V30 52 C 6.0773 1.88649 0.0755653 0
M  V30 53 O 5.4343 1.50414 1.03354 0
M  V30 54 C 5.4853 2.89316 -2.16745 0
M  V30 55 O 5.2063 2.59459 -3.53005 0
M  V30 56 C 6.7073 3.83606 -2.22174 0
M  V30 57 H 3.9273 0.488226 -0.4603 0
M  V30 58 H 6.4713 0.974733 -1.79775 0
M  V30 59 H 4.6263 3.4575 -1.74745 0
M  V30 60 H 5.0403 3.43804 -3.96105 0
M  V30 61 H 6.5143 4.73181 -2.8426 0
M  V30 62 H 6.9913 4.21734 -1.22627 0
M  V30 63 H 7.5973 3.33104 -2.64427 0
M  V30 64 N 5.9124 1.20967 1.01018 0
M  V30 65 C 7.3234 1.02319 1.56165 0
M  V30 66 C 7.6744 -0.418546 1.91684 0
M  V30 67 O 6.7994 -1.30096 1.72928 0
M  V30 68 C 7.3944 1.85109 2.8376 0
M  V30 69 C 5.9534 1.70809 3.35412 0
M  V30 70 C 5.1004 1.82643 2.08655 0
M  V30 71 H 8.0514 1.35065 0.833255 0
M  V30 72 H 8.0724 1.35827 3.55431 0
M  V30 73 H 7.5844 2.90035 2.57878 0
M  V30 74 H 5.6854 0.685464 3.66241 0
M  V30 75 H 5.7984 2.52467 4.07182 0
M  V30 76 H 4.1624 1.25896 2.21409 0
M  V30 77 H 4.9454 2.89066 1.85191 0
M  V30 78 N 7.3905 -1.2043 1.01659 0
M  V30 79 C 8.3535 -2.21433 0.591616 0
M  V30 80 C 9.3535 -1.57203 -0.338226 0
M  V30 81 O 10.5435 -1.73737 -0.126918 0
M  V30 82 C 7.6755 -3.40628 -0.136058 0
M  V30 83 H 8.8685 -2.60545 1.48514 0
M  V30 84 H 6.4215 -1.33893 0.806379 0
M  V30 85 H 7.1565 -3.07019 -1.04449 0
M  V30 86 H 6.9415 -3.88475 0.531917 0
M  V30 87 H 8.4315 -4.15475 -0.420735 0
M  V30 88 N 8.8686 -0.792821 -1.36206 0
M  V30 89 C 9.8166 -0.181555 -2.3189 0
M  V30 90 C 10.8106 0.661025 -1.55971 0
M  V30 91 O 12.0166 0.555728 -1.71206 0
M  V30 92 H 8.3916 -0.0399382 -0.750939 0
M  V30 93 H 10.3626 -1.00394 -2.81005 0
M  V30 94 C 9.1116 0.666444 -3.41253 0
M  V30 95 H 8.4346 0.0274489 -3.99791 0
M  V30 96 H 9.8746 1.06076 -4.10517 0
M  V30 97 C 8.3336 1.82614 -2.83114 0
M  V30 98 O 8.8636 2.9229 -2.75553 0
M  V30 99 N 7.0696 1.63333 -2.40356 0
M  V30 100 H 6.6166 0.741217 -2.46706 0
M  V30 101 H 6.5746 2.41087 -2.01803 0
M  V30 102 N 10.3467 1.47872 -0.545128 0
M  V30 103 C 11.7627 1.5829 -0.204032 0
M  V30 104 C 11.9627 1.54529 1.29317 0
M  V30 105 O 11.0187 1.44232 2.07252 0
M  V30 106 C 12.3317 2.89304 -0.819987 0
M  V30 107 C 13.8797 3.02864 -0.790105 0
M  V30 108 C 14.3547 4.3656 -1.38491 0
M  V30 109 N 15.8457 4.43165 -1.34755 0
M  V30 110 C 16.5807 5.45153 -1.77753 0
M  V30 111 N 16.0767 6.54016 -2.2855 0
M  V30 112 N 17.8697 5.36125 -1.68897 0
M  V30 113 H 10.0207 1.4856 -1.51802 0
M  V30 114 H 12.2837 0.706305 -0.632327 0
M  V30 115 H 11.9897 2.97757 -1.87173 0
M  V30 116 H 11.8637 3.75957 -0.305915 0
M  V30 117 H 14.2507 2.94014 0.252913 0
M  V30 118 H 14.3317 2.17782 -1.34181 0
M  V30 119 H 13.9757 4.46164 -2.42693 0
M  V30 120 H 13.9057 5.20353 -0.808754 0
M  V30 121 H 16.3967 3.65083 -0.975855 0
M  V30 122 H 16.7097 7.27994 -2.59314 0
M  V30 123 H 15.0547 6.54938 -2.32553 0
M  V30 124 H 18.2457 4.49975 -1.28998 0
M  V30 125 H 18.4187 6.15472 -2.02726 0
M  V30 126 N 11.8248 0.280983 1.55075 0
M  V30 127 C 12.7878 -0.590896 2.21452 0
M  V30 128 C 13.7878 -1.07682 1.19421 0
M  V30 129 O 14.9778 -0.97605 1.44288 0
M  V30 130 C 12.1098 -1.81587 2.88511 0
M  V30 131 H 13.3028 -0.0112554 2.99898 0
M  V30 132 H 10.8558 0.0316438 1.56268 0
M  V30 133 H 11.5908 -2.43587 2.14093 0
M  V30 134 H 11.3758 -1.4753 3.63287 0
M  V30 135 H 12.8658 -2.43575 3.39206 0
M  V30 136 N 13.3029 -1.57598 0.00835791 0
M  V30 137 C 14.5329 -1.94931 -0.684496 0
M  V30 138 C 14.9409 -0.882233 -1.67372 0
M  V30 139 O 14.2839 0.146621 -1.83114 0
M  V30 140 C 14.3459 -3.283 -1.4649 0
M  V30 141 C 14.0099 -4.52548 -0.63634 0
M  V30 142 C 15.0069 -5.19839 0.0795586 0
M  V30 143 C 12.6919 -4.98942 -0.579849 0
M  V30 144 C 14.6859 -6.3183 0.840843 0
M  V30 145 C 12.3729 -6.10819 0.185155 0
M  V30 146 C 13.3709 -6.77121 0.894227 0
M  V30 147 O 13.0589 -7.86853 1.64673 0
M  V30 148 H 12.7909 -0.647249 -0.19505 0
M  V30 149 H 15.3449 -2.05318 0.0581272 0
M  V30 150 H 13.5749 -3.14345 -2.2522 0
M  V30 151 H 15.2639 -3.50685 -2.04389 0
M  V30 152 H 16.0299 -4.84979 0.0451202 0
M  V30 153 H 11.9089 -4.47155 -1.1213 0
M  V30 154 H 15.4529 -6.83513 1.39483 0
M  V30 155 H 11.3499 -6.4512 0.221384 0
M  V30 156 H 12.1179 -8.03412 1.56432 0
M  V30 157 N 14.781 0.264519 -1.55364 0
M  V30 158 C 16.192 0.834936 -1.6699 0
M  V30 159 C 16.543 1.86718 -0.602552 0
M  V30 160 O 15.668 2.14899 0.254425 0
M  V30 161 C 16.263 1.5212 -3.02729 0
M  V30 162 C 14.822 2.03954 -3.16354 0
M  V30 163 C 13.969 0.884498 -2.62815 0
M  V30 164 H 16.92 0.0406869 -1.58648 0
M  V30 165 H 16.941 2.38853 -2.96191 0
M  V30 166 H 16.453 0.769668 -3.80392 0
M  V30 167 H 14.554 2.82041 -2.43482 0
M  V30 168 H 14.667 2.24902 -4.23032 0
M  V30 169 H 13.031 1.2802 -2.20188 0
M  V30 170 H 13.814 0.14634 -3.42988 0
M  V30 171 N 16.2591 1.48442 0.529413 0
M  V30 172 C 17.4891 1.59919 1.30804 0
M  V30 173 C 17.8971 0.258792 1.87422 0
M  V30 174 O 17.2401 -0.762096 1.67146 0
M  V30 175 C 17.3021 2.58693 2.49636 0
M  V30 176 C 16.9661 4.03745 2.14101 0
M  V30 177 C 17.9631 4.9141 1.6974 0
M  V30 178 C 15.6481 4.49285 2.24607 0
M  V30 179 C 17.6421 6.22645 1.36351 0
M  V30 180 C 15.3291 5.8054 1.9083 0
M  V30 181 C 16.3271 6.67043 1.46773 0
M  V30 182 O 16.0151 7.95856 1.1344 0
M  V30 183 H 15.7471 0.541981 0.404021 0
M  V30 184 H 18.3011 1.95 0.645309 0
M  V30 185 H 16.5311 2.18734 3.18892 0
M  V30 186 H 18.2201 2.59999 3.11698 0
M  V30 187 H 18.9861 4.57465 1.61094 0
M  V30 188 H 14.8651 3.82142 2.57854 0
M  V30 189 H 18.4091 6.90119 1.01891 0
M  V30 190 H 14.3061 6.14022 1.99117 0
M  V30 191 H 15.0741 8.08613 1.26832 0
M  V30 192 N 17.7372 -0.778329 1.37039 0
M  V30 193 C 18.9652 -1.56734 1.35063 0
M  V30 194 C 19.3802 -1.88686 -0.0655597 0
M  V30 195 O 18.7372 -1.5096 -1.02554 0
M  V30 196 C 18.7882 -2.88163 2.18276 0
M  V30 197 O 18.5092 -2.57583 3.54376 0
M  V30 198 C 20.0102 -3.82422 2.24206 0
M  V30 199 H 17.2302 -0.485778 0.462883 0
M  V30 200 H 19.7742 -0.965185 1.8029 0
M  V30 201 H 17.9292 -3.44818 1.76576 0
M  V30 202 H 18.3432 -3.41699 3.97922 0
M  V30 203 H 19.8172 -4.71667 2.86765 0
M  V30 204 H 20.2942 -4.21078 1.24861 0
M  V30 205 H 20.9002 -3.31697 2.6619 0
M  V30 206 N 19.2153 -1.21501 -1.00376 0
M  V30 207 C 20.6313 -0.972629 -1.26539 0
M  V30 208 C 20.8313 0.340257 -1.98606 0
M  V30 209 O 19.8873 1.06561 -2.28913 0
M  V30 210 C 21.2003 -2.16404 -2.08781 0
M  V30 211 C 22.7483 -2.20643 -2.22004 0
M  V30 212 C 23.2233 -3.39306 -3.07629 0
M  V30 213 N 24.7143 -3.39401 -3.15217 0
M  V30 214 C 25.4493 -4.27867 -3.81729 0
M  V30 215 N 24.9453 -5.26533 -4.5026 0
M  V30 216 N 26.7383 -4.15672 -3.78382 0
M  V30 217 H 18.8893 -2.05929 -0.520281 0
M  V30 218 H 21.1523 -0.901803 -0.292328 0
M  V30 219 H 20.8583 -3.11554 -1.63178 0
M  V30 220 H 20.7323 -2.15567 -3.09533 0
M  V30 221 H 23.1193 -1.26048 -2.66825 0
M  V30 222 H 23.2003 -2.25523 -1.20718 0
M  V30 223 H 22.8443 -4.34195 -2.63509 0
M  V30 224 H 22.7743 -3.31665 -4.09031 0
M  V30 225 H 25.2653 -2.67997 -2.66432 0
M  V30 226 H 25.5783 -5.90337 -4.98721 0
M  V30 227 H 23.9233 -5.30457 -4.49044 0
M  V30 228 H 27.1143 -3.3785 -3.23998 0
M  V30 229 H 27.2873 -4.84825 -4.2994 0
M  V30 230 N 20.6934 1.19889 -1.02296 0
M  V30 231 C 21.6234 2.25141 -0.619174 0
M  V30 232 C 22.6044 1.66051 0.368915 0
M  V30 233 O 23.7894 1.92546 0.252941 0
M  V30 234 C 20.9194 3.4728 0.0368783 0
M  V30 235 C 19.8734 4.19005 -0.872865 0
M  V30 236 C 19.1994 5.34637 -0.0822402 0
M  V30 237 C 20.4994 4.74452 -2.18387 0
M  V30 238 H 22.1934 2.59171 -1.49903 0
M  V30 239 H 19.7394 1.24579 -0.722222 0
M  V30 240 H 21.6924 4.20098 0.330958 0
M  V30 241 H 20.4164 3.12433 0.95149 0
M  V30 242 H 19.0754 3.48061 -1.15105 0
M  V30 243 H 18.7234 4.96034 0.83422 0
M  V30 244 H 18.4234 5.83557 -0.688149 0
M  V30 245 H 19.9474 6.10255 0.205238 0
M  V30 246 H 21.3614 5.39055 -1.95172 0
M  V30 247 H 19.7584 5.33834 -2.74119 0
M  V30 248 H 20.8284 3.92844 -2.84257 0
M  V30 249 N 22.1715 0.800033 1.35784 0
M  V30 250 C 23.5875 0.482977 1.52117 0
M  V30 251 C 23.7875 -0.996948 1.75109 0
M  V30 252 O 22.8435 -1.78216 1.78872 0
M  V30 253 C 24.1565 1.32264 2.70049 0
M  V30 254 C 25.7045 1.31742 2.83924 0
M  V30 255 C 26.1795 2.14106 4.04874 0
M  V30 256 N 27.6705 2.11607 4.12039 0
M  V30 257 C 28.4055 2.72099 5.04727 0
M  V30 258 N 27.9015 3.41492 6.02789 0
M  V30 259 N 29.6945 2.61776 4.97423 0
M  V30 260 H 21.8455 1.75856 1.19115 0
M  V30 261 H 24.1085 0.748122 0.582252 0
M  V30 262 H 23.8145 2.37261 2.59616 0
M  V30 263 H 23.6885 0.971303 3.6448 0
M  V30 264 H 26.0755 0.275333 2.93813 0
M  V30 265 H 26.1565 1.70859 1.9037 0
M  V30 266 H 25.8005 3.18351 3.95746 0
M  V30 267 H 25.7305 1.72353 4.97596 0
M  V30 268 H 28.2215 1.61112 3.41835 0
M  V30 269 H 28.5345 3.84953 6.70098 0
M  V30 270 H 26.8795 3.45596 6.02983 0
M  V30 271 H 30.0705 2.07157 4.19766 0
M  V30 272 H 30.2435 3.0921 5.69468 0
M  V30 273 N 23.6496 -1.47581 0.552962 0
M  V30 274 C 25.0656 -1.5818 0.212424 0
M  V30 275 C 25.2656 -1.55213 -1.28496 0
M  V30 276 O 24.3216 -1.45329 -2.06484 0
M  V30 277 C 25.6346 -2.88865 0.835318 0
M  V30 278 C 27.1826 -3.0244 0.806156 0
M  V30 279 C 27.6576 -4.35819 1.40804 0
M  V30 280 N 29.1486 -4.42444 1.37103 0
M  V30 281 C 29.8836 -5.44202 1.80641 0
M  V30 282 N 29.3796 -6.52795 2.32015 0
M  V30 283 N 31.1726 -5.35222 1.71738 0
M  V30 284 H 23.3236 -1.47753 1.52587 0
M  V30 285 H 25.5866 -0.702941 0.636064 0
M  V30 286 H 25.2926 -2.9676 1.88749 0
M  V30 287 H 25.1666 -3.7579 0.325848 0
M  V30 288 H 27.5536 -2.94144 -0.237317 0
M  V30 289 H 27.6346 -2.17068 1.35334 0
M  V30 290 H 27.2786 -4.44871 2.45056 0
M  V30 291 H 27.2086 -5.19916 0.836338 0
M  V30 292 H 29.6996 -3.6456 0.995202 0
M  V30 293 H 30.0126 -7.26609 2.63171 0
M  V30 294 H 28.3576 -6.53696 2.36023 0
M  V30 295 H 31.5486 -4.49284 1.31382 0
M  V30 296 H 31.7216 -6.14389 2.05987 0
M  V30 297 N 25.1277 -0.289203 -1.54924 0
M  V30 298 C 26.0757 0.607966 -2.24514 0
M  V30 299 C 27.0697 1.14655 -1.24702 0
M  V30 300 O 28.2757 1.09856 -1.4259 0
M  V30 301 H 24.6507 0.21464 -0.720718 0
M  V30 302 H 26.6217 -0.00164182 -2.984 0
M  V30 303 C 25.3707 1.77406 -2.99036 0
M  V30 304 H 24.6937 1.36884 -3.75637 0
M  V30 305 H 26.1337 2.37814 -3.51028 0
M  V30 306 C 24.5927 2.67107 -2.05318 0
M  V30 307 O 25.1227 3.6787 -1.61353 0
M  V30 308 N 23.3287 2.34582 -1.71521 0
M  V30 309 H 22.8757 1.52688 -2.07471 0
M  V30 310 H 22.8337 2.94867 -1.0909 0
M  V30 311 N 26.6058 1.57591 -0.0167156 0
M  V30 312 C 28.0218 1.55946 0.339557 0
M  V30 313 C 28.2218 1.02109 1.73713 0
M  V30 314 O 27.2778 0.662303 2.43659 0
M  V30 315 C 28.5908 3.00037 0.199499 0
M  V30 316 C 30.1388 3.11805 0.273193 0
M  V30 317 C 30.6138 4.57713 0.162068 0
M  V30 318 N 32.1048 4.6268 0.219444 0
M  V30 319 C 32.8398 5.73185 0.157054 0
M  V30 320 N 32.3358 6.92786 0.0442936 0
M  V30 321 N 34.1288 5.61707 0.21014 0
M  V30 322 H 26.2798 1.90921 -0.930758 0
M  V30 323 H 28.5428 0.877674 -0.358319 0
M  V30 324 H 28.2488 3.4333 -0.76273 0
M  V30 325 H 28.1228 3.64387 0.974786 0
M  V30 326 H 30.5098 2.68433 1.22587 0
M  V30 327 H 30.5908 2.50201 -0.532256 0
M  V30 328 H 30.2348 5.01763 -0.78714 0
M  V30 329 H 30.1648 5.17283 0.986222 0
M  V30 330 H 32.6558 3.76649 0.307246 0
M  V30 331 H 32.9688 7.728 0.00304069 0
M  V30 332 H 31.3138 6.94999 0.00968457 0
M  V30 333 H 34.5048 4.6716 0.296546 0
M  V30 334 H 34.6778 6.47807 0.158054 0
M  V30 335 N 28.0839 -0.256276 1.55502 0
M  V30 336 C 29.4999 -0.604325 1.47716 0
M  V30 337 C 29.6999 -1.88763 0.705039 0
M  V30 338 O 28.7559 -2.51445 0.230613 0
M  V30 339 C 30.0689 -0.715756 2.92057 0
M  V30 340 C 31.6169 -0.808706 3.02372 0
M  V30 341 C 32.0919 -0.951777 4.48001 0
M  V30 342 N 33.5829 -1.01688 4.519 0
M  V30 343 C 34.3179 -1.14668 5.61817 0
M  V30 344 N 33.8139 -1.24261 6.81565 0
M  V30 345 N 35.6069 -1.1791 5.49594 0
M  V30 346 H 27.7579 0.586291 2.04148 0
M  V30 347 H 30.0209 0.201015 0.926443 0
M  V30 348 H 29.7269 0.157027 3.51349 0
M  V30 349 H 29.6009 -1.59071 3.42018 0
M  V30 350 H 31.9879 -1.67195 2.43166 0
M  V30 351 H 32.0689 0.0912063 2.55637 0
M  V30 352 H 31.7129 -0.0931291 5.07815 0
M  V30 353 H 31.6429 -1.86659 4.92408 0
M  V30 354 H 34.1339 -0.954468 3.65648 0
M  V30 355 H 34.4469 -1.34046 7.61086 0
M  V30 356 H 32.7919 -1.21236 6.84344 0
M  V30 357 H 35.9829 -1.10057 4.54978 0
M  V30 358 H 36.1559 -1.27681 6.35296 0
M  V30 359 N 29.562 -1.4872 -0.521534 0
M  V30 360 C 30.839 -1.4766 -1.2828 0
M  V30 361 C 31.219 -0.19292 -2.10217 0
M  V30 362 O 30.567 0.825193 -2.13079 0
M  V30 363 C 30.777 -2.74358 -2.15705 0
M  V30 364 C 32.125 -3.23028 -2.75569 0
M  V30 365 O 33.149 -2.75333 -2.25987 0
M  V30 366 O 32.008 -4.0604 -3.65778 0
M  V30 367 H 29.102 -0.590085 -0.579421 0
M  V30 368 H 31.648 -1.60963 -0.537492 0
M  V30 369 H 30.42 -3.59292 -1.54999 0
M  V30 370 H 30.043 -2.63816 -2.97467 0
M  V30 371 N 31.0401 0.771051 -1.3745 0
M  V30 372 C 32.3171 1.519 -1.23231 0
M  V30 373 C 32.6971 2.10383 0.173809 0
M  V30 374 O 32.0451 1.95583 1.18151 0
M  V30 375 C 32.2551 2.59933 -2.32886 0
M  V30 376 C 33.6031 3.27316 -2.70461 0
M  V30 377 O 34.6271 2.70228 -2.32068 0
M  V30 378 O 33.4861 4.30531 -3.36608 0
M  V30 379 H 30.5801 0.672803 -0.480901 0
M  V30 380 H 33.1261 0.807957 -1.49232 0
M  V30 381 H 31.8981 2.14842 -3.27045 0
M  V30 382 H 31.5211 3.38637 -2.08353 0
M  V30 383 N 32.5182 1.22032 0.997298 0
M  V30 384 C 33.7652 1.04222 1.73621 0
M  V30 385 C 34.0932 -0.423264 1.89839 0
M  V30 386 O 33.3482 -1.3302 1.43542 0
M  V30 387 C 33.6472 1.69345 3.14733 0
M  V30 388 C 33.3132 3.19226 3.18442 0
M  V30 389 C 31.9752 3.60124 3.19161 0
M  V30 390 C 34.3272 4.15181 3.15078 0
M  V30 391 C 31.6552 4.95467 3.14212 0
M  V30 392 C 34.0072 5.50495 3.1167 0
M  V30 393 C 32.6712 5.90779 3.10703 0
M  V30 394 H 31.9412 0.381374 0.635323 0
M  V30 395 H 34.5882 1.51732 1.16831 0
M  V30 396 H 32.8932 1.14147 3.74803 0
M  V30 397 H 34.5902 1.53059 3.7064 0
M  V30 398 H 31.1802 2.86659 3.18629 0
M  V30 399 H 35.3642 3.84605 3.13676 0
M  V30 400 H 30.6202 5.25916 3.11805 0
M  V30 401 H 34.7942 6.24576 3.08022 0
M  V30 402 H 32.4212 6.9562 3.06622 0
M  V30 403 N 33.9963 -1.19345 1.0293 0
M  V30 404 C 35.2213 -1.93538 0.745511 0
M  V30 405 C 35.6463 -1.75007 -0.689511 0
M  V30 406 O 35.0043 -1.05265 -1.47611 0
M  V30 407 C 35.0523 -3.43336 1.10239 0
M  V30 408 O 34.1563 -4.11806 0.221289 0
M  V30 409 H 33.4973 -0.604193 0.275404 0
M  V30 410 H 36.0273 -1.5141 1.37609 0
M  V30 411 H 36.0373 -3.94004 1.05947 0
M  V30 412 H 34.7123 -3.56146 2.14786 0
M  V30 413 H 33.2893 -3.715 0.322842 0
M  V30 414 N 35.4744 -0.807222 -1.35358 0
M  V30 415 C 36.8904 -0.491038 -1.51858 0
M  V30 416 C 37.0904 0.987648 -1.75635 0
M  V30 417 O 36.1464 1.77265 -1.79815 0
M  V30 418 C 37.4594 -1.33695 -2.69344 0
M  V30 419 C 39.0074 -1.33246 -2.83222 0
M  V30 420 C 39.4824 -2.1625 -4.03733 0
M  V30 421 N 40.9734 -2.1379 -4.10911 0
M  V30 422 C 41.7084 -2.74772 -5.03277 0
M  V30 423 N 41.2044 -3.44684 -6.0097 0
M  V30 424 N 42.9974 -2.6441 -4.96028 0
M  V30 425 H 35.1484 -1.76485 -1.18181 0
M  V30 426 H 37.4114 -0.751199 -0.578276 0
M  V30 427 H 37.1174 -2.38634 -2.58354 0
M  V30 428 H 36.9914 -0.990618 -3.6396 0
M  V30 429 H 39.3784 -0.290911 -2.93663 0
M  V30 430 H 39.4594 -1.71866 -1.89461 0
M  V30 431 H 39.1034 -3.20445 -3.94052 0
M  V30 432 H 39.0334 -1.74989 -4.96675 0
M  V30 433 H 41.5244 -1.62923 -3.40976 0
M  V30 434 H 41.8374 -3.88501 -6.68047 0
M  V30 435 H 40.1824 -3.48788 -6.01142 0
M  V30 436 H 43.3734 -2.0938 -4.18662 0
M  V30 437 H 43.5464 -3.12225 -5.6782 0
M  V30 438 N 36.9525 1.47285 -0.560781 0
M  V30 439 C 38.3685 1.58065 -0.22081 0
M  V30 440 C 38.5685 1.55892 1.27671 0
M  V30 441 O 37.6245 1.46422 2.0571 0
M  V30 442 C 38.9375 2.88418 -0.850625 0
M  V30 443 C 40.4855 3.02009 -0.822184 0
M  V30 444 C 40.9605 4.35066 -1.43113 0
M  V30 445 N 42.4515 4.41711 -1.39448 0
M  V30 446 C 43.1865 5.43237 -1.83525 0
M  V30 447 N 42.6825 6.51555 -2.35474 0
M  V30 448 N 44.4755 5.34304 -1.74574 0
M  V30 449 H 36.6265 1.46941 -1.53369 0
M  V30 450 H 38.8895 0.699558 -0.639783 0
M  V30 451 H 38.5955 2.95755 -1.9032 0
M  V30 452 H 38.4695 3.75612 -0.345773 0
M  V30 453 H 40.8565 2.94266 0.221714 0
M  V30 454 H 40.9375 2.16347 -1.36483 0
M  V30 455 H 40.5815 4.43565 -2.47412 0
M  V30 456 H 40.5115 5.19465 -0.863899 0
M  V30 457 H 43.0025 3.64027 -1.01452 0
M  V30 458 H 43.3155 7.25203 -2.67021 0
M  V30 459 H 41.6605 6.52435 -2.39487 0
M  V30 460 H 44.8515 4.48581 -1.33763 0
M  V30 461 H 45.0245 6.13288 -2.09242 0
M  V30 462 N 38.4306 0.297415 1.54768 0
M  V30 463 C 39.3606 -0.573494 2.26348 0
M  V30 464 C 40.3416 -1.14085 1.26169 0
M  V30 465 O 41.5266 -1.17086 1.54934 0
M  V30 466 C 38.6566 -1.74716 3.00153 0
M  V30 467 C 37.6106 -1.31032 4.07449 0
M  V30 468 C 36.9366 -2.56887 4.68949 0
M  V30 469 C 38.2366 -0.444183 5.20408 0
M  V30 470 H 39.9306 0.0235131 2.99391 0
M  V30 471 H 37.4766 0.0127488 1.43994 0
M  V30 472 H 39.4296 -2.3625 3.48947 0
M  V30 473 H 38.1536 -2.37035 2.24682 0
M  V30 474 H 36.8126 -0.718066 3.59499 0
M  V30 475 H 36.4606 -3.17512 3.90122 0
M  V30 476 H 36.1606 -2.2836 5.41411 0
M  V30 477 H 37.6846 -3.19229 5.20505 0
M  V30 478 H 39.0986 -0.9651 5.65118 0
M  V30 479 H 37.4956 -0.252846 5.99567 0
M  V30 480 H 38.5656 0.531609 4.81977 0
M  V30 481 N 39.9087 -1.5758 0.0250728 0
M  V30 482 C 41.1547 -1.91917 -0.655413 0
M  V30 483 C 41.4877 -0.901433 -1.72011 0
M  V30 484 O 40.7627 0.0764069 -1.9435 0
M  V30 485 C 41.0457 -3.36751 -1.27558 0
M  V30 486 C 40.8987 -4.49258 -0.220719 0
M  V30 487 C 42.2177 -3.81469 -2.19475 0
M  V30 488 H 39.3367 -0.697925 -0.23679 0
M  V30 489 H 41.9787 -1.89825 0.0815036 0
M  V30 490 H 40.1287 -3.38664 -1.90365 0
M  V30 491 H 41.8007 -4.59478 0.409601 0
M  V30 492 H 40.0437 -4.31415 0.454264 0
M  V30 493 H 40.7147 -5.47618 -0.694175 0
M  V30 494 H 43.1907 -3.81266 -1.66659 0
M  V30 495 H 42.0667 -4.83512 -2.59822 0
M  V30 496 H 42.3277 -3.16744 -3.08424 0
M  V30 497 N 41.3868 0.248026 -1.55636 0
M  V30 498 C 42.8028 0.596483 -1.48035 0
M  V30 499 C 43.0028 1.88386 -0.715039 0
M  V30 500 O 42.0588 2.51319 -0.243944 0
M  V30 501 C 43.3718 0.700258 -2.92433 0
M  V30 502 C 44.9198 0.792659 -3.02797 0
M  V30 503 C 45.3948 0.928005 -4.485 0
M  V30 504 N 46.8858 0.992903 -4.52433 0
M  V30 505 C 47.6208 1.11687 -5.62418 0
M  V30 506 N 47.1168 1.20645 -6.82214 0
M  V30 507 N 48.9098 1.14994 -5.50212 0
M  V30 508 H 41.0608 -0.597109 -2.03834 0
M  V30 509 H 43.3238 -0.205925 -0.925364 0
M  V30 510 H 43.0298 -0.175658 -3.51261 0
M  V30 511 H 42.9038 1.57255 -3.42857 0
M  V30 512 H 45.2908 1.65903 -2.4405 0
M  V30 513 H 45.3718 -0.104762 -2.55585 0
M  V30 514 H 45.0158 0.0661971 -5.07857 0
M  V30 515 H 44.9458 1.84045 -4.93391 0
M  V30 516 H 47.4368 0.935064 -3.66149 0
M  V30 517 H 47.7498 1.30008 -7.61786 0
M  V30 518 H 46.0948 1.17605 -6.84977 0
M  V30 519 H 49.2858 1.07643 -4.55555 0
M  V30 520 H 49.4588 1.24311 -6.35965 0
M  V30 521 N 42.8649 1.48995 0.513639 0
M  V30 522 C 43.7749 1.67443 1.64317 0
M  V30 523 C 44.7909 0.556947 1.64846 0
M  V30 524 O 45.9669 0.830082 1.83498 0
M  V30 525 C 43.0319 1.72515 3.00732 0
M  V30 526 C 42.0929 2.96009 3.1093 0
M  V30 527 C 41.3259 3.00829 4.40837 0
M  V30 528 O 41.5489 2.13594 5.28898 0
M  V30 529 O 40.4829 3.93168 4.55744 0
M  V30 530 H 44.3089 2.63106 1.51687 0
M  V30 531 H 41.8939 1.32588 0.688543 0
M  V30 532 H 43.7759 1.78277 3.81831 0
M  V30 533 H 42.4509 0.800278 3.13651 0
M  V30 534 H 41.3579 2.9577 2.29065 0
M  V30 535 H 42.6909 3.87934 3.02933 0
M  V30 536 N 44.343 -0.763751 1.37857 0
M  V30 537 C 45.291 -1.89864 1.34367 0
M  V30 538 C 46.285 -1.67816 0.231143 0
M  V30 539 O 47.491 -1.75508 0.399617 0
M  V30 540 H 43.866 -0.624501 0.41893 0
M  V30 541 H 45.837 -1.89925 2.30155 0
M  V30 542 C 44.586 -3.27227 1.1755 0
M  V30 543 H 43.909 -3.44773 2.02414 0
M  V30 544 H 45.349 -4.06911 1.1916 0
M  V30 545 C 43.808 -3.36692 -0.118311 0
M  V30 546 O 44.338 -3.86374 -1.09902 0
M  V30 547 N 42.544 -2.90092 -0.171717 0
M  V30 548 H 42.091 -2.49853 0.627012 0
M  V30 549 H 42.049 -2.96806 -1.03699 0
M  V30 550 N 45.8211 -1.22559 -0.990812 0
M  V30 551 C 47.0671 -1.05297 -1.73322 0
M  V30 552 C 47.4001 0.410655 -1.89808 0
M  V30 553 O 46.6751 1.30439 -1.44277 0
M  V30 554 C 46.9581 -1.76713 -3.13759 0
M  V30 555 C 46.8111 -3.30684 -3.04907 0
M  V30 556 C 48.1301 -1.52121 -4.12974 0
M  V30 557 H 45.2491 -0.38392 -0.629106 0
M  V30 558 H 47.8911 -1.50926 -1.15418 0
M  V30 559 H 46.0411 -1.37924 -3.63193 0
M  V30 560 H 47.7131 -3.7893 -2.63077 0
M  V30 561 H 45.9561 -3.60253 -2.41661 0
M  V30 562 H 46.6271 -3.75833 -4.04294 0
M  V30 563 H 49.1031 -1.85819 -3.72304 0
M  V30 564 H 47.9791 -2.04582 -5.0935 0
M  V30 565 H 48.2401 -0.454257 -4.3976 0
M  V30 566 N 47.2992 1.18797 -1.03562 0
M  V30 567 C 48.2292 2.24472 -0.643019 0
M  V30 568 C 49.2102 1.66433 0.351283 0
M  V30 569 O 50.3952 1.92803 0.232505 0
M  V30 570 C 47.5252 3.473 4.24935e-05 0
M  V30 571 C 46.4792 4.18055 -0.917257 0
M  V30 572 C 45.8052 5.34519 -0.138941 0
M  V30 573 C 47.1052 4.72109 -2.23407 0
M  V30 574 H 48.7992 2.57566 -1.52643 0
M  V30 575 H 46.3452 1.23806 -0.735394 0
M  V30 576 H 48.2982 4.20426 0.286383 0
M  V30 577 H 47.0222 3.13424 0.918299 0
M  V30 578 H 45.6812 3.46821 -1.1879 0
M  V30 579 H 45.3292 4.96891 0.781562 0
M  V30 580 H 45.0292 5.82794 -0.750005 0
M  V30 581 H 46.5532 6.10438 0.1405 0
M  V30 582 H 47.9672 5.36955 -2.00879 0
M  V30 583 H 46.3642 5.30897 -2.79765 0
M  V30 584 H 47.4342 3.89807 -2.88407 0
M  V30 585 N 48.7773 0.814389 1.34928 0
M  V30 586 C 50.0053 0.411136 2.02774 0
M  V30 587 C 50.4203 -0.980316 1.61354 0
M  V30 588 O 49.7773 -1.63299 0.814847 0
M  V30 589 C 49.8283 0.493865 3.58111 0
M  V30 590 O 49.5493 1.83047 3.98027 0
M  V30 591 C 51.0503 0.0844174 4.4322 0
M  V30 592 H 48.2703 0.166037 0.650133 0
M  V30 593 H 50.8143 1.10018 1.72384 0
M  V30 594 H 48.9693 -0.147006 3.87121 0
M  V30 595 H 49.3833 1.79872 4.92693 0
M  V30 596 H 50.8573 0.193404 5.51661 0
M  V30 597 H 51.3343 -0.97113 4.28329 0
M  V30 598 H 51.9403 0.69875 4.19521 0
M  V30 599 N 50.2554 -1.46986 0.568584 0
M  V30 600 C 51.5014 -2.02741 0.0488709 0
M  V30 601 C 51.8344 -1.44077 -1.30214 0
M  V30 602 O 51.1094 -0.600552 -1.84996 0
M  V30 603 C 51.3924 -3.60086 -0.032047 0
M  V30 604 C 51.2454 -4.29162 1.34686 0
M  V30 605 C 52.5644 -4.33838 -0.739798 0
M  V30 606 H 49.6834 -0.736749 0.0192338 0
M  V30 607 H 52.3254 -1.75289 0.733065 0
M  V30 608 H 50.4754 -3.83606 -0.61473 0
M  V30 609 H 52.1474 -4.16948 1.97362 0
M  V30 610 H 50.3904 -3.89073 1.91846 0
M  V30 611 H 51.0614 -5.37826 1.24285 0
M  V30 612 H 53.5374 -4.15378 -0.244939 0
M  V30 613 H 52.4134 -5.43537 -0.765406 0
M  V30 614 H 52.6744 -4.03875 -1.79827 0
M  V30 615 N 51.7335 -0.305618 -1.54608 0
M  V30 616 C 53.0105 0.355652 -1.92339 0
M  V30 617 C 53.3905 1.71324 -1.23335 0
M  V30 618 O 52.7385 2.25473 -0.370702 0
M  V30 619 C 52.9485 0.46572 -3.45879 0
M  V30 620 C 54.2965 0.734426 -4.182 0
M  V30 621 O 55.3205 0.54935 -3.51938 0
M  V30 622 O 54.1795 1.09024 -5.35515 0
M  V30 623 H 51.2735 0.199666 -0.802535 0
M  V30 624 H 53.8195 -0.354017 -1.65966 0
M  V30 625 H 52.5915 -0.488461 -3.88239 0
M  V30 626 H 52.2145 1.22367 -3.78301 0
M  V30 627 N 53.2116 1.57565 -0.0334293 0
M  V30 628 C 54.4886 1.83282 0.683163 0
M  V30 629 C 54.8686 0.91823 1.90084 0
M  V30 630 O 54.2166 -0.025113 2.28486 0
M  V30 631 C 54.4266 3.32599 1.0573 0
M  V30 632 C 55.7746 3.99179 1.44711 0
M  V30 633 O 56.7986 3.3712 1.15015 0
M  V30 634 O 55.6576 5.08565 2.0006 0
M  V30 635 H 52.7516 0.755869 0.335546 0
M  V30 636 H 55.2976 1.69589 -0.0614402 0
M  V30 637 H 54.0696 3.90834 0.190828 0
M  V30 638 H 53.6926 3.51415 1.85993 0
M  V30 639 N 54.6897 -0.239769 1.55765 0
M  V30 640 C 55.6197 -1.30052 1.9393 0
M  V30 641 C 56.6007 -1.49839 0.805132 0
M  V30 642 O 57.7857 -1.62328 1.06599 0
M  V30 643 C 54.9157 -2.65391 2.2402 0
M  V30 644 C 53.8697 -2.60289 3.39755 0
M  V30 645 C 53.1957 -3.99489 3.55405 0
M  V30 646 C 54.4957 -2.16654 4.75246 0
M  V30 647 H 56.1897 -0.983573 2.82783 0
M  V30 648 H 53.7357 -0.471701 1.36055 0
M  V30 649 H 55.6887 -3.3974 2.49308 0
M  V30 650 H 54.4127 -2.98736 1.32 0
M  V30 651 H 53.0717 -1.88398 3.14487 0
M  V30 652 H 52.7197 -4.30112 2.60793 0
M  V30 653 H 52.4197 -3.96962 4.33238 0
M  V30 654 H 53.9437 -4.75528 3.83022 0
M  V30 655 H 55.3577 -2.80737 4.99859 0
M  V30 656 H 53.7547 -2.25223 5.56232 0
M  V30 657 H 54.8247 -1.11835 4.71827 0
M  V30 658 N 56.1678 -1.49265 -0.50573 0
M  V30 659 C 57.4168 -1.57761 -1.25675 0
M  V30 660 C 57.7298 -0.267371 -1.93764 0
M  V30 661 O 58.9358 -0.230827 -2.70517 0
M  V30 662 C 57.3918 -2.78332 -2.28165 0
M  V30 663 C 56.9998 -4.16096 -1.66037 0
M  V30 664 C 58.7438 -2.96155 -3.04125 0
M  V30 665 C 56.6508 -5.27895 -2.6661 0
M  V30 666 H 55.5808 -0.587391 -0.472745 0
M  V30 667 H 58.2318 -1.75644 -0.53118 0
M  V30 668 H 56.6138 -2.53934 -3.03865 0
M  V30 669 H 57.7878 -4.50612 -0.963622 0
M  V30 670 H 56.1028 -4.03591 -1.02484 0
M  V30 671 H 58.6998 -3.76849 -3.79327 0
M  V30 672 H 59.0428 -2.06534 -3.61455 0
M  V30 673 H 59.5758 -3.2057 -2.35541 0
M  V30 674 H 56.3148 -6.1956 -2.14068 0
M  V30 675 H 55.8348 -4.97839 -3.34539 0
M  V30 676 H 57.5138 -5.57031 -3.29129 0
M  V30 677 N 57.6459 0.756429 -1.3826 0
M  V30 678 C 58.5759 1.88374 -1.37976 0
M  V30 679 C 59.5569 1.68311 -0.246082 0
M  V30 680 O 60.7419 1.88944 -0.44874 0
M  V30 681 C 57.8719 3.25864 -1.20125 0
M  V30 682 C 56.8259 3.60523 -2.30666 0
M  V30 683 C 56.1519 4.9672 -1.97923 0
M  V30 684 C 57.4519 3.65692 -3.72916 0
M  V30 685 H 59.1459 1.88869 -2.32312 0
M  V30 686 H 56.6919 0.907272 -1.11824 0
M  V30 687 H 58.6449 4.0438 -1.18552 0
M  V30 688 H 57.3689 3.25841 -0.222498 0
M  V30 689 H 56.0279 2.84324 -2.3142 0
M  V30 690 H 55.6759 4.93253 -0.985393 0
M  V30 691 H 55.3759 5.20878 -2.71955 0
M  V30 692 H 56.8999 5.77618 -1.97964 0
M  V30 693 H 58.3139 4.34328 -3.74208 0
M  V30 694 H 56.7109 4.01358 -4.4613 0
M  V30 695 H 57.7809 2.65987 -4.05436 0
M  V30 696 N 59.124 1.23083 0.984299 0
M  V30 697 C 60.535 1.05609 1.5396 0
M  V30 698 C 60.886 -0.377793 1.92528 0
M  V30 699 O 60.011 -1.26398 1.75649 0
M  V30 700 C 60.606 1.91087 2.7977 0
M  V30 701 C 59.165 1.77885 3.31713 0
M  V30 702 C 58.312 1.87028 2.04733 0
M  V30 703 H 61.263 1.36802 0.804419 0
M  V30 704 H 61.284 1.43336 3.5247 0
M  V30 705 H 60.796 2.9544 2.51668 0
M  V30 706 H 58.897 0.762995 3.64704 0
M  V30 707 H 59.01 2.61047 4.01735 0
M  V30 708 H 57.374 1.30565 2.18689 0
M  V30 709 H 58.157 2.92929 1.79017 0
M  V30 710 N 60.6021 -1.18246 1.0419 0
M  V30 711 C 61.8481 -1.88536 0.747122 0
M  V30 712 C 62.1811 -1.80223 -0.723409 0
M  V30 713 O 61.4561 -1.20337 -1.52804 0
M  V30 714 C 61.7391 -3.38968 1.21544 0
M  V30 715 C 61.5921 -3.56084 2.74816 0
M  V30 716 C 62.9111 -4.32648 0.806482 0
M  V30 717 H 60.0301 -0.684619 0.272883 0
M  V30 718 H 62.6721 -1.39113 1.29413 0
M  V30 719 H 60.8221 -3.8119 0.750081 0
M  V30 720 H 62.4941 -3.22946 3.29399 0
M  V30 721 H 60.7371 -2.98699 3.14582 0
M  V30 722 H 61.4081 -4.61639 3.02644 0
M  V30 723 H 63.8841 -3.98211 1.20695 0
M  V30 724 H 62.7601 -5.36462 1.1619 0
M  V30 725 H 63.0211 -4.41146 -0.29029 0
M  V30 726 N 62.0802 -0.821533 -1.34494 0
M  V30 727 C 63.3272 -0.408946 -1.98328 0
M  V30 728 C 63.6552 1.02764 -1.65136 0
M  V30 729 O 62.9102 1.73026 -0.914349 0
M  V30 730 C 63.2092 -0.556512 -3.53041 0
M  V30 731 C 62.8752 -1.95861 -4.0614 0
M  V30 732 C 61.5372 -2.34217 -4.20352 0
M  V30 733 C 63.8892 -2.87523 -4.34718 0
M  V30 734 C 61.2172 -3.63572 -4.6047 0
M  V30 735 C 63.5692 -4.1634 -4.76281 0
M  V30 736 C 62.2332 -4.54675 -4.88699 0
M  V30 737 H 61.5032 -0.149644 -0.725732 0
M  V30 738 H 64.1502 -1.04521 -1.6046 0
M  V30 739 H 62.4552 0.163148 -3.9146 0
M  V30 740 H 64.1522 -0.217826 -4.00408 0
M  V30 741 H 60.7422 -1.65066 -3.95539 0
M  V30 742 H 64.9262 -2.59133 -4.23277 0
M  V30 743 H 60.1822 -3.93101 -4.68275 0
M  V30 744 H 64.3562 -4.87455 -4.97354 0
M  V30 745 H 61.9832 -5.54959 -5.19542 0
M  V30 746 N 63.5583 1.46682 -0.576371 0
M  V30 747 C 64.8043 2.02712 -0.0596221 0
M  V30 748 C 65.1373 1.44765 1.29448 0
M  V30 749 O 64.4123 0.610355 1.84675 0
M  V30 750 C 64.6953 3.60098 0.0129503 0
M  V30 751 C 64.5483 4.28441 -1.3696 0
M  V30 752 C 65.8673 4.34224 0.71678 0
M  V30 753 H 62.9863 0.736637 -0.0231407 0
M  V30 754 H 65.6283 1.74898 -0.742351 0
M  V30 755 H 63.7783 3.83926 0.594378 0
M  V30 756 H 65.4503 4.15896 -1.9957 0
M  V30 757 H 63.6933 3.8805 -1.93907 0
M  V30 758 H 64.3643 5.3716 -1.27135 0
M  V30 759 H 66.8403 4.15503 0.222908 0
M  V30 760 H 65.7163 5.43936 0.73657 0
M  V30 761 H 65.9773 4.04823 1.77682 0
M  V30 762 N 65.0364 0.313813 1.54444 0
M  V30 763 C 65.9664 -0.549454 2.26943 0
M  V30 764 C 66.9474 -1.12741 1.27372 0
M  V30 765 O 68.1324 -1.15436 1.56167 0
M  V30 766 C 65.2624 -1.71523 3.01989 0
M  V30 767 C 64.2164 -1.26703 4.08816 0
M  V30 768 C 63.5424 -2.51898 4.71647 0
M  V30 769 C 64.8424 -0.388962 5.2085 0
M  V30 770 H 66.5364 0.0552661 2.99349 0
M  V30 771 H 64.0824 0.0280207 1.43973 0
M  V30 772 H 66.0354 -2.32535 3.51433 0
M  V30 773 H 64.7594 -2.34639 2.27183 0
M  V30 774 H 63.4184 -0.679896 3.6024 0
M  V30 775 H 63.0664 -3.13356 3.93468 0
M  V30 776 H 62.7664 -2.22605 5.43802 0
M  V30 777 H 64.2904 -3.1369 5.23861 0
M  V30 778 H 65.7044 -0.905107 5.6611 0
M  V30 779 H 64.1014 -0.18924 5.99802 0
M  V30 780 H 65.1714 0.582699 4.81386 0
M  V30 781 N 66.5145 -1.57545 0.0417849 0
M  V30 782 C 67.7915 -1.83642 -0.673433 0
M  V30 783 C 68.1715 -0.928298 -1.89594 0
M  V30 784 O 67.5195 0.0129955 -2.28496 0
M  V30 785 C 67.7295 -3.33155 -1.03964 0
M  V30 786 C 69.0775 -3.99941 -1.42592 0
M  V30 787 O 70.1015 -3.37725 -1.13226 0
M  V30 788 O 68.9605 -5.09619 -1.9736 0
M  V30 789 H 66.0545 -0.757638 -0.331533 0
M  V30 790 H 68.6005 -1.69554 0.070433 0
M  V30 791 H 67.3725 -3.9093 -0.170098 0
M  V30 792 H 66.9955 -3.52396 -1.84126 0
M  V30 793 N 67.9926 0.231505 -1.5589 0
M  V30 794 C 69.2406 0.955461 -1.78088 0
M  V30 795 C 69.5616 1.85262 -0.608533 0
M  V30 796 O 68.8316 1.92277 0.375035 0
M  V30 797 H 67.4116 0.355787 -0.656829 0
M  V30 798 H 70.0736 0.245751 -1.93344 0
M  V30 799 H 69.1696 1.56814 -2.69844 0
M  V30 800 N 69.4707 1.49531 0.497807 0
M  V30 801 C 70.7167 1.59415 1.25358 0
M  V30 802 C 71.0497 0.281422 1.9215 0
M  V30 803 O 70.3247 -0.715249 1.80871 0
M  V30 804 C 70.6077 2.75566 2.3181 0
M  V30 805 C 70.4607 4.16642 1.69498 0
M  V30 806 C 71.7797 2.87347 3.33346 0
M  V30 807 H 68.8987 0.580244 0.454408 0
M  V30 808 H 71.5407 1.81827 0.551262 0
M  V30 809 H 69.6907 2.56587 2.91711 0
M  V30 810 H 71.3627 4.47145 1.13399 0
M  V30 811 H 69.6057 4.22141 0.998978 0
M  V30 812 H 70.2767 4.93792 2.46725 0
M  V30 813 H 72.7527 3.04634 2.83438 0
M  V30 814 H 71.6287 3.70289 4.05188 0
M  V30 815 H 71.8897 1.96834 3.95865 0
M  V30 816 N 70.9488 -0.749086 1.3866 0
M  V30 817 C 71.8968 -1.88428 1.36373 0
M  V30 818 C 72.8908 -1.67561 0.248929 0
M  V30 819 O 74.0968 -1.75074 0.41821 0
M  V30 820 H 70.4718 -0.620023 0.42553 0
M  V30 821 H 72.4428 -1.87473 2.32156 0
M  V30 822 C 71.1918 -3.25961 1.21014 0
M  V30 823 H 70.5148 -3.42607 2.06059 0
M  V30 824 H 71.9548 -4.05625 1.23469 0
M  V30 825 C 70.4138 -3.36799 -0.0825941 0
M  V30 826 O 70.9438 -3.87517 -1.05797 0
M  V30 827 N 69.1498 -2.90258 -0.140939 0
M  V30 828 H 68.6968 -2.49174 0.653477 0
M  V30 829 H 68.6548 -2.97889 -1.00545 0
M  V30 830 N 72.4269 -1.23603 -0.977757 0
M  V30 831 C 73.3589 -0.977369 -2.07317 0
M  V30 832 C 74.3719 0.0495845 -1.62724 0
M  V30 833 O 75.5609 -0.186261 -1.77526 0
M  V30 834 C 72.6609 -0.451216 -3.35883 0
M  V30 835 C 71.8339 -1.53896 -4.09432 0
M  V30 836 C 70.8929 -1.01721 -5.16274 0
M  V30 837 O 69.9189 -1.70676 -5.43009 0
M  V30 838 N 71.1209 0.153594 -5.80297 0
M  V30 839 H 73.8859 -1.92047 -2.30082 0
M  V30 840 H 71.4469 -1.14497 -1.14465 0
M  V30 841 H 73.4389 -0.0871574 -4.04606 0
M  V30 842 H 72.0089 0.397368 -3.10064 0
M  V30 843 H 71.2289 -2.07566 -3.35127 0
M  V30 844 H 72.5169 -2.27037 -4.55337 0
M  V30 845 H 71.9149 0.730323 -5.60966 0
M  V30 846 H 70.4719 0.458892 -6.50183 0
M  V30 847 N 73.905 1.17692 -1.04816 0
M  V30 848 C 75.321 1.39863 -0.768794 0
M  V30 849 C 75.521 1.91118 0.638451 0
M  V30 850 O 74.577 2.10036 1.40146 0
M  V30 851 C 75.89 2.39274 -1.82122 0
M  V30 852 C 77.438 2.52987 -1.843 0
M  V30 853 C 77.913 3.55669 -2.88555 0
M  V30 854 N 79.404 3.63183 -2.87493 0
M  V30 855 C 80.139 4.42381 -3.64811 0
M  V30 856 N 79.635 5.25125 -4.51903 0
M  V30 857 N 81.428 4.37217 -3.53267 0
M  V30 858 H 73.579 0.82752 -1.95617 0
M  V30 859 H 75.842 0.426123 -0.846831 0
M  V30 860 H 75.548 2.08678 -2.83102 0
M  V30 861 H 75.422 3.38725 -1.65967 0
M  V30 862 H 77.809 2.82896 -0.839869 0
M  V30 863 H 77.89 1.53623 -2.04532 0
M  V30 864 H 77.534 3.26499 -3.89051 0
M  V30 865 H 77.464 4.54728 -2.65575 0
M  V30 866 H 79.955 3.04103 -2.24343 0
M  V30 867 H 80.268 5.82728 -5.07591 0
M  V30 868 H 78.613 5.24519 -4.55966 0
M  V30 869 H 81.804 3.71626 -2.84625 0
M  V30 870 H 81.977 4.98696 -4.13771 0
M  V30 871 N 75.3831 0.828654 1.34056 0
M  V30 872 C 76.2931 0.256725 2.33191 0
M  V30 873 C 77.3091 -0.611898 1.62886 0
M  V30 874 O 78.4851 -0.51844 1.94613 0
M  V30 875 C 75.5501 -0.567238 3.42028 0
M  V30 876 C 74.6111 0.324458 4.28072 0
M  V30 877 C 73.8441 -0.460274 5.31712 0
M  V30 878 O 74.0671 -1.693 5.44696 0
M  V30 879 O 73.0011 0.160391 6.01686 0
M  V30 880 H 76.8271 1.07739 2.83947 0
M  V30 881 H 74.4121 0.59093 1.37217 0
M  V30 882 H 76.2941 -1.03582 4.08471 0
M  V30 883 H 74.9691 -1.36513 2.93506 0
M  V30 884 H 73.8761 0.840659 3.64532 0
M  V30 885 H 75.2091 1.08685 4.8005 0
M  V30 886 N 76.8612 -1.46375 0.584142 0
M  V30 887 C 78.0862 -2.07268 0.0740405 0
M  V30 888 C 78.5112 -1.42979 -1.22223 0
M  V30 889 O 77.8692 -0.514092 -1.73859 0
M  V30 890 C 77.9172 -3.60518 -0.0767769 0
M  V30 891 O 77.0212 -3.96533 -1.13292 0
M  V30 892 H 76.3622 -0.660961 0.0634524 0
M  V30 893 H 78.8922 -1.87991 0.807492 0
M  V30 894 H 78.9022 -4.07021 -0.282489 0
M  V30 895 H 77.5772 -4.06702 0.86986 0
M  V30 896 H 76.1542 -3.61738 -0.905553 0
M  V30 897 N 78.3393 -0.321999 -1.54275 0
M  V30 898 C 79.5883 0.281931 -1.9972 0
M  V30 899 C 79.9013 1.53369 -1.21397 0
M  V30 900 O 81.1073 2.21352 -1.57211 0
M  V30 901 C 79.5633 0.5529 -3.55628 0
M  V30 902 C 79.1713 -0.681721 -4.42783 0
M  V30 903 C 80.9153 1.11687 -4.09544 0
M  V30 904 C 78.8223 -0.382742 -5.9016 0
M  V30 905 H 77.7523 0.109124 -0.746062 0
M  V30 906 H 80.4033 -0.43398 -1.78294 0
M  V30 907 H 78.7853 1.32896 -3.73035 0
M  V30 908 H 79.9593 -1.45723 -4.37151 0
M  V30 909 H 78.2743 -1.1658 -3.99748 0
M  V30 910 H 80.8713 1.35515 -5.17242 0
M  V30 911 H 81.2143 2.06575 -3.61431 0
M  V30 912 H 81.7473 0.402032 -3.95763 0
M  V30 913 H 78.4863 -1.30076 -6.42464 0
M  V30 914 H 78.0063 0.355094 -5.98748 0
M  V30 915 H 79.6853 0.00800157 -6.47 0
M  V30 916 N 79.8174 1.5752 -0.0501392 0
M  V30 917 C 81.2284 1.80271 0.485705 0
M  V30 918 C 81.5794 0.96228 1.70981 0
M  V30 919 O 80.7044 0.178578 2.15662 0
M  V30 920 C 81.2994 3.26957 0.887938 0
M  V30 921 C 79.8584 3.5063 1.36877 0
M  V30 922 C 79.0054 2.75165 0.343468 0
M  V30 923 H 81.9564 1.56281 -0.276028 0
M  V30 924 H 81.9774 3.37821 1.75093 0
M  V30 925 H 81.4894 3.881 -0.0031809 0
M  V30 926 H 79.5904 2.94766 2.27911 0
M  V30 927 H 79.7034 4.59343 1.36164 0
M  V30 928 H 78.0674 2.4127 0.816128 0
M  V30 929 H 78.8504 3.39034 -0.539548 0
M  V30 930 N 81.2955 -0.223234 1.56011 0
M  V30 931 C 82.5205 -0.968978 1.83373 0
M  V30 932 C 82.9455 -1.77227 0.630254 0
M  V30 933 O 82.3035 -1.76345 -0.420959 0
M  V30 934 C 82.3515 -1.86363 3.08709 0
M  V30 935 O 81.4555 -2.95873 2.87285 0
M  V30 936 H 80.7965 -0.274461 0.604622 0
M  V30 937 H 83.3265 -0.237056 2.03222 0
M  V30 938 H 83.3365 -2.27376 3.38768 0
M  V30 939 H 82.0115 -1.27319 3.95933 0
M  V30 940 H 80.5885 -2.58818 2.68454 0
M  V30 941 N 82.7736 -1.49793 -0.48987 0
M  V30 942 C 83.7066 -1.61898 -1.60823 0
M  V30 943 C 84.6846 -0.467651 -1.5573 0
M  V30 944 O 85.8686 -0.684682 -1.75626 0
M  V30 945 C 82.9956 -1.58422 -2.99366 0
M  V30 946 C 82.0416 -2.78889 -3.22682 0
M  V30 947 S 82.8746 -4.40429 -3.04602 0
M  V30 948 C 84.0306 -4.39617 -4.4552 0
M  V30 949 H 84.2636 -2.56502 -1.50312 0
M  V30 950 H 81.7966 -1.38822 -0.675849 0
M  V30 951 H 83.7546 -1.57103 -3.79248 0
M  V30 952 H 82.4156 -0.650866 -3.07283 0
M  V30 953 H 81.6086 -2.72708 -4.23847 0
M  V30 954 H 81.2106 -2.77678 -2.50541 0
M  V30 955 H 83.5026 -4.12022 -5.37814 0
M  V30 956 H 84.4456 -5.41097 -4.56749 0
M  V30 957 H 84.8536 -3.69554 -4.2672 0
M  V30 958 N 84.2517 0.741722 -1.39055 0
M  V30 959 C 85.6627 1.31966 -1.32068 0
M  V30 960 C 86.0137 1.96192 0.0180797 0
M  V30 961 O 85.1387 1.95861 0.920196 0
M  V30 962 C 85.7337 2.39954 -2.39181 0
M  V30 963 C 84.2927 2.93438 -2.35735 0
M  V30 964 C 83.4397 1.66936 -2.21422 0
M  V30 965 H 86.3907 0.539721 -1.4924 0
M  V30 966 H 86.4117 3.20182 -2.05581 0
M  V30 967 H 85.9237 1.9318 -3.36605 0
M  V30 968 H 84.0247 3.4451 -1.41929 0
M  V30 969 H 84.1377 3.4701 -3.30335 0
M  V30 970 H 82.5017 1.91016 -1.68478 0
M  V30 971 H 83.2847 1.22224 -3.20806 0
M  V30 972 N 85.7298 1.2412 0.971189 0
M  V30 973 C 86.9778 1.07668 1.71032 0
M  V30 974 C 87.2988 -0.385797 1.91146 0
M  V30 975 O 86.5688 -1.27569 1.4867 0
M  V30 976 H 85.1488 0.395429 0.633755 0
M  V30 977 H 87.8108 1.55984 1.16855 0
M  V30 978 H 86.9068 1.57195 2.69622 0
M  V30 979 N 87.2079 -1.17134 1.05439 0
M  V30 980 C 88.4539 -1.87733 0.767077 0
M  V30 981 C 88.7869 -1.8098 -0.704253 0
M  V30 982 O 88.0619 -1.21951 -1.5152 0
M  V30 983 C 88.3449 -3.37659 1.25133 0
M  V30 984 C 88.1979 -3.53149 2.78578 0
M  V30 985 C 89.5169 -4.31768 0.852324 0
M  V30 986 H 86.6359 -0.681687 0.280129 0
M  V30 987 H 89.2779 -1.37732 1.30881 0
M  V30 988 H 87.4279 -3.80373 0.790469 0
M  V30 989 H 89.0999 -3.19434 3.32806 0
M  V30 990 H 87.3429 -2.95345 3.17732 0
M  V30 991 H 88.0139 -4.58403 3.07523 0
M  V30 992 H 90.4899 -3.96909 1.24911 0
M  V30 993 H 89.3659 -5.35199 1.21873 0
M  V30 994 H 89.6269 -4.41429 -0.243485 0
M  V30 995 N 88.686 -0.835752 -1.33615 0
M  V30 996 C 89.596 -0.269088 -2.33052 0
M  V30 997 C 90.612 0.603251 -1.63208 0
M  V30 998 O 91.788 0.508112 -1.94885 0
M  V30 999 C 88.853 0.549091 -3.42324 0
M  V30 1000 C 87.914 -0.347156 -4.27894 0
M  V30 1001 C 87.147 0.43207 -5.31948 0
M  V30 1002 O 87.37 1.66409 -5.45586 0
M  V30 1003 O 86.304 -0.192298 -6.01593 0
M  V30 1004 H 90.13 -1.09243 -2.83372 0
M  V30 1005 H 87.715 -0.598198 -1.36901 0
M  V30 1006 H 89.597 1.01414 -4.09015 0
M  V30 1007 H 88.272 1.34955 -2.94226 0
M  V30 1008 H 87.179 -0.859979 -3.64081 0
M  V30 1009 H 88.512 -1.1123 -4.79467 0
M  V30 1010 N 90.1641 1.46063 -0.591896 0
M  V30 1011 C 91.5801 1.57561 -0.254288 0
M  V30 1012 C 91.7801 1.58565 1.24336 0
M  V30 1013 O 90.8361 1.50753 2.02558 0
M  V30 1014 C 92.1491 2.86549 -0.911611 0
M  V30 1015 C 93.6971 3.00197 -0.886059 0
M  V30 1016 C 94.1721 4.31933 -1.5231 0
M  V30 1017 N 95.6631 4.38654 -1.48786 0
M  V30 1018 C 96.3981 5.39222 -1.95006 0
M  V30 1019 N 95.8941 6.46414 -2.49241 0
M  V30 1020 N 97.6871 5.3048 -1.85868 0
M  V30 1021 H 89.8381 1.43655 -1.56451 0
M  V30 1022 H 92.1011 0.68583 -0.654478 0
M  V30 1023 H 91.8071 2.91651 -1.96551 0
M  V30 1024 H 91.6811 3.74794 -0.425368 0
M  V30 1025 H 94.0681 2.9467 0.159246 0
M  V30 1026 H 94.1491 2.13403 -1.41041 0
M  V30 1027 H 93.7931 4.38217 -2.56765 0
M  V30 1028 H 93.7231 5.17516 -0.973891 0
M  V30 1029 H 96.2141 3.61793 -1.09151 0
M  V30 1030 H 96.5271 7.19376 -2.82344 0
M  V30 1031 H 94.8721 6.47208 -2.53272 0
M  V30 1032 H 98.0631 4.45643 -1.43248 0
M  V30 1033 H 98.2361 6.08711 -2.22204 0
M  V30 1034 N 91.6422 0.330177 1.54103 0
M  V30 1035 C 92.5722 -0.525353 2.27513 0
M  V30 1036 C 93.5532 -1.11383 1.2856 0
M  V30 1037 O 94.7382 -1.13773 1.57383 0
M  V30 1038 C 91.8682 -1.6831 3.03791 0
M  V30 1039 C 90.8222 -1.2236 4.10137 0
M  V30 1040 C 90.1482 -2.46882 4.74293 0
M  V30 1041 C 91.4482 -0.333697 5.21233 0
M  V30 1042 H 93.1422 0.087013 2.99274 0
M  V30 1043 H 90.6882 0.0432893 1.43935 0
M  V30 1044 H 92.6412 -2.28795 3.5388 0
M  V30 1045 H 91.3652 -2.32216 2.29659 0
M  V30 1046 H 90.0242 -0.64165 3.60941 0
M  V30 1047 H 89.6722 -3.09165 3.96769 0
M  V30 1048 H 89.3722 -2.16825 5.46133 0
M  V30 1049 H 90.8962 -3.08117 5.27159 0
M  V30 1050 H 92.3102 -0.845013 5.67038 0
M  V30 1051 H 90.7072 -0.125612 5.99969 0
M  V30 1052 H 91.7772 0.633724 4.80741 0
M  V30 1053 N 93.1203 -1.57491 0.0584922 0
M  V30 1054 C 94.3453 -1.97711 -0.62652 0
M  V30 1055 C 94.7703 -0.936132 -1.63151 0
M  V30 1056 O 94.1283 0.099811 -1.81025 0
M  V30 1057 C 94.1763 -3.36989 -1.28338 0
M  V30 1058 O 93.2803 -3.35433 -2.39913 0
M  V30 1059 H 92.6213 -0.643868 -0.162266 0
M  V30 1060 H 95.1513 -2.04193 0.129064 0
M  V30 1061 H 95.1613 -3.73879 -1.63335 0
M  V30 1062 H 93.8363 -4.12289 -0.546889 0
M  V30 1063 H 92.4133 -3.10298 -2.06809 0
M  V30 1064 N 94.5984 0.214957 -1.56127 0
M  V30 1065 C 95.8474 0.936451 -1.78643 0
M  V30 1066 C 96.1604 1.85237 -0.628229 0
M  V30 1067 O 97.3664 2.613 -0.737186 0
M  V30 1068 C 95.8224 1.7154 -3.16389 0
M  V30 1069 C 95.4304 0.845299 -4.39953 0
M  V30 1070 C 97.1744 2.42772 -3.48227 0
M  V30 1071 C 95.0814 1.62198 -5.68723 0
M  V30 1072 H 94.0114 0.353401 -0.666051 0
M  V30 1073 H 96.6624 0.190169 -1.82512 0
M  V30 1074 H 95.0444 2.50484 -3.06715 0
M  V30 1075 H 96.2184 0.0959353 -4.607 0
M  V30 1076 H 94.5334 0.244789 -4.1568 0
M  V30 1077 H 97.1304 3.01394 -4.41663 0
M  V30 1078 H 97.4734 3.15984 -2.71035 0
M  V30 1079 H 98.0064 1.70813 -3.5926 0
M  V30 1080 H 94.7454 0.933011 -6.48826 0
M  V30 1081 H 94.2654 2.34579 -5.52026 0
M  V30 1082 H 95.9444 2.18095 -6.09133 0
M  V30 1083 N 96.0765 1.50051 0.48192 0
M  V30 1084 C 97.3535 1.51009 1.2432 0
M  V30 1085 C 97.7335 0.248587 2.09631 0
M  V30 1086 O 97.0815 -0.768409 2.15192 0
M  V30 1087 C 97.2915 2.79981 2.08355 0
M  V30 1088 C 98.6395 3.3022 2.66908 0
M  V30 1089 O 99.6635 2.81228 2.18607 0
M  V30 1090 O 98.5225 4.15595 3.54884 0
M  V30 1091 H 95.6165 0.605239 0.563573 0
M  V30 1092 H 98.1625 1.62332 0.494627 0
M  V30 1093 H 96.9345 3.63275 1.45419 0
M  V30 1094 H 96.5575 2.7161 2.90368 0
M  V30 1095 N 97.5546 -0.734337 1.39446 0
M  V30 1096 C 98.4866 -1.85861 1.34121 0
M  V30 1097 C 99.4996 -1.60871 0.249864 0
M  V30 1098 O 100.689 -1.71093 0.508865 0
M  V30 1099 C 97.7886 -3.21899 1.05991 0
M  V30 1100 C 96.9616 -3.74239 2.26415 0
M  V30 1101 C 96.0206 -4.88841 1.94733 0
M  V30 1102 O 95.0466 -5.02468 2.67422 0
M  V30 1103 N 96.2486 -5.73261 0.913884 0
M  V30 1104 H 99.0136 -1.90934 2.31007 0
M  V30 1105 H 96.5746 -0.915102 1.33557 0
M  V30 1106 H 98.5666 -3.96136 0.828147 0
M  V30 1107 H 97.1366 -3.12091 0.178361 0
M  V30 1108 H 96.3566 -2.91347 2.65539 0
M  V30 1109 H 97.6446 -4.05942 3.06738 0
M  V30 1110 H 97.0426 -5.64842 0.311476 0
M  V30 1111 H 95.5996 -6.47563 0.742015 0
M  V30 1112 N 99.0327 -1.24633 -0.964593 0
M  V30 1113 C 99.9627 -1.06611 -2.07741 0
M  V30 1114 C 100.944 0.0218666 -1.70086 0
M  V30 1115 O 102.129 -0.145793 -1.93652 0
M  V30 1116 C 99.2587 -0.673444 -3.40708 0
M  V30 1117 C 98.2127 -1.71054 -3.92332 0
M  V30 1118 C 97.5387 -1.17285 -5.21678 0
M  V30 1119 C 98.8387 -3.10718 -4.19824 0
M  V30 1120 H 100.533 -1.99693 -2.23076 0
M  V30 1121 H 98.0787 -0.96152 -1.07195 0
M  V30 1122 H 100.032 -0.534345 -4.17998 0
M  V30 1123 H 98.7557 0.293073 -3.25282 0
M  V30 1124 H 97.4147 -1.83791 -3.17201 0
M  V30 1125 H 97.0627 -0.196847 -5.02615 0
M  V30 1126 H 96.7627 -1.86592 -5.57187 0
M  V30 1127 H 98.2867 -1.04593 -6.01575 0
M  V30 1128 H 99.7007 -3.01192 -4.87808 0
M  V30 1129 H 98.0977 -3.77406 -4.66567 0
M  V30 1130 H 99.1677 -3.58524 -3.26479 0
M  V30 1131 N 100.511 1.16574 -1.06058 0
M  V30 1132 C 101.441 2.23057 -0.690488 0
M  V30 1133 C 102.422 1.67141 0.315901 0
M  V30 1134 O 103.607 1.93253 0.191556 0
M  V30 1135 C 100.737 3.47222 -0.073625 0
M  V30 1136 C 99.6908 4.16016 -1.00573 0
M  V30 1137 C 99.0168 5.34104 -0.252289 0
M  V30 1138 C 100.317 4.67264 -2.33371 0
M  V30 1139 H 102.011 2.54271 -1.58072 0
M  V30 1140 H 99.5568 1.22218 -0.76149 0
M  V30 1141 H 101.51 4.20939 0.19714 0
M  V30 1142 H 100.234 3.15302 0.85161 0
M  V30 1143 H 98.8928 3.44223 -1.2612 0
M  V30 1144 H 98.5408 4.98437 0.675988 0
M  V30 1145 H 98.2408 5.81072 -0.873455 0
M  V30 1146 H 99.7648 6.10599 0.0109857 0
M  V30 1147 H 101.179 5.32573 -2.12223 0
M  V30 1148 H 99.5758 5.24843 -2.90963 0
M  V30 1149 H 100.646 3.83602 -2.96611 0
M  V30 1150 N 101.989 0.842826 1.3317 0
M  V30 1151 C 103.238 0.436738 1.96915 0
M  V30 1152 C 103.551 -1.01025 1.67491 0
M  V30 1153 O 104.757 -1.5212 2.24881 0
M  V30 1154 C 103.213 0.730021 3.52418 0
M  V30 1155 C 102.821 2.19195 3.90714 0
M  V30 1156 C 104.565 0.391076 4.22695 0
M  V30 1157 C 102.472 2.42907 5.39212 0
M  V30 1158 H 101.402 0.15958 0.736919 0
M  V30 1159 H 104.053 1.03196 1.51733 0
M  V30 1160 H 102.435 0.0643755 3.95948 0
M  V30 1161 H 103.609 2.8984 3.58231 0
M  V30 1162 H 101.924 2.49425 3.33431 0
M  V30 1163 H 104.521 0.545817 5.31907 0
M  V30 1164 H 104.864 -0.666294 4.10933 0
M  V30 1165 H 105.397 1.01212 3.84709 0
M  V30 1166 H 102.136 3.47224 5.55982 0
M  V30 1167 H 101.656 1.76827 5.73142 0
M  V30 1168 H 103.335 2.2626 6.06148 0
M  V30 1169 N 103.467 -1.45747 0.599634 0
M  V30 1170 C 104.377 -2.34262 -0.125888 0
M  V30 1171 C 105.393 -1.50768 -0.868625 0
M  V30 1172 O 106.569 -1.83592 -0.828003 0
M  V30 1173 C 103.634 -3.28252 -1.11587 0
M  V30 1174 C 102.695 -4.27651 -0.375956 0
M  V30 1175 C 101.928 -5.1715 -1.31877 0
M  V30 1176 O 102.151 -5.09916 -2.55621 0
M  V30 1177 O 101.085 -5.96286 -0.820157 0
M  V30 1178 H 104.911 -2.97688 0.601315 0
M  V30 1179 H 102.496 -1.44999 0.359934 0
M  V30 1180 H 104.378 -3.86191 -1.68626 0
M  V30 1181 H 103.053 -2.67401 -1.82424 0
M  V30 1182 H 101.96 -3.7335 0.236698 0
M  V30 1183 H 103.293 -4.91334 0.29177 0
M  V30 1184 N 104.945 -0.338344 -1.53925 0
M  V30 1185 C 105.908 0.508299 -2.23493 0
M  V30 1186 C 106.908 1.03175 -1.23335 0
M  V30 1187 O 108.098 0.921826 -1.47811 0
M  V30 1188 C 105.23 1.70754 -2.95052 0
M  V30 1189 H 106.423 -0.100058 -2.99733 0
M  V30 1190 H 103.976 -0.0896198 -1.56043 0
M  V30 1191 H 104.711 2.35474 -2.22986 0
M  V30 1192 H 104.496 1.33946 -3.68512 0
M  V30 1193 H 105.986 2.30818 -3.48013 0
M  V30 1194 N 106.423 1.57458 -0.0668435 0
M  V30 1195 C 107.333 2.15937 0.916975 0
M  V30 1196 C 108.349 1.12123 1.33058 0
M  V30 1197 O 109.525 1.44366 1.40429 0
M  V30 1198 C 106.59 2.70547 2.16807 0
M  V30 1199 C 105.651 3.89215 1.81135 0
M  V30 1200 C 104.884 4.41211 3.0028 0
M  V30 1201 O 105.107 3.92225 4.14144 0
M  V30 1202 O 104.041 5.32605 2.80384 0
M  V30 1203 H 107.867 3.00354 0.449561 0
M  V30 1204 H 105.452 1.48584 0.155949 0
M  V30 1205 H 107.334 3.0557 2.90181 0
M  V30 1206 H 106.009 1.89192 2.62656 0
M  V30 1207 H 104.916 3.59054 1.05028 0
M  V30 1208 H 106.249 4.71848 1.40073 0
M  V30 1209 N 107.901 -0.206675 1.56239 0
M  V30 1210 C 108.811 -1.27686 1.96808 0
M  V30 1211 C 109.827 -1.50455 0.874035 0
M  V30 1212 O 111.003 -1.63295 1.17884 0
M  V30 1213 C 108.068 -2.60358 2.28942 0
M  V30 1214 C 107.129 -2.45762 3.51994 0
M  V30 1215 C 106.362 -3.72108 3.82585 0
M  V30 1216 O 106.585 -4.75776 3.14631 0
M  V30 1217 O 105.519 -3.6833 4.76043 0
M  V30 1218 H 109.345 -0.962593 2.88041 0
M  V30 1219 H 106.93 -0.410746 1.43643 0
M  V30 1220 H 108.812 -3.38687 2.50737 0
M  V30 1221 H 107.487 -2.91435 1.4088 0
M  V30 1222 H 106.394 -1.65584 3.35459 0
M  V30 1223 H 107.727 -2.19621 4.40486 0
M  V30 1224 N 109.379 -1.50304 -0.473955 0
M  V30 1225 C 110.625 -1.62358 -1.22521 0
M  V30 1226 C 110.98 -0.318555 -1.89745 0
M  V30 1227 O 110.273 0.683315 -1.79001 0
M  V30 1228 C 110.467 -2.73938 -2.29549 0
M  V30 1229 C 110.296 -4.15165 -1.72825 0
M  V30 1230 C 109.066 -4.81604 -1.52924 0
M  V30 1231 C 111.264 -4.99503 -1.22481 0
M  V30 1232 N 109.246 -6.07056 -0.91413 0
M  V30 1233 C 110.617 -6.15655 -0.732743 0
M  V30 1234 C 112.672 -4.85299 -1.11308 0
M  V30 1235 C 111.375 -7.19164 -0.139976 0
M  V30 1236 C 113.401 -5.88982 -0.534258 0
M  V30 1237 C 112.763 -7.0438 -0.0525562 0
M  V30 1238 H 108.862 -0.648286 -0.437321 0
M  V30 1239 H 111.446 -1.87413 -0.527692 0
M  V30 1240 H 109.617 -2.50611 -2.9673 0
M  V30 1241 H 111.349 -2.75366 -2.96573 0
M  V30 1242 H 108.104 -4.3885 -1.78067 0
M  V30 1243 H 108.528 -6.74108 -0.625071 0
M  V30 1244 H 113.17 -3.96369 -1.47144 0
M  V30 1245 H 110.888 -8.07771 0.230591 0
M  V30 1246 H 114.474 -5.80055 -0.450219 0
M  V30 1247 H 113.354 -7.83238 0.388324 0
M  V30 1248 N 110.857 0.726932 -1.39834 0
M  V30 1249 C 112.103 1.48884 -1.377 0
M  V30 1250 C 112.436 1.94185 0.0244852 0
M  V30 1251 O 111.711 1.67361 0.990986 0
M  V30 1252 C 111.994 2.72288 -2.3565 0
M  V30 1253 C 111.847 2.32956 -3.84775 0
M  V30 1254 C 113.166 3.74414 -2.31306 0
M  V30 1255 H 110.285 0.540062 -0.5015 0
M  V30 1256 H 112.927 0.830547 -1.70886 0
M  V30 1257 H 111.077 3.28457 -2.07481 0
M  V30 1258 H 112.749 1.82356 -4.23726 0
M  V30 1259 H 110.992 1.65088 -4.01159 0
M  V30 1260 H 111.663 3.21362 -4.4881 0
M  V30 1261 H 114.139 3.27849 -2.56231 0
M  V30 1262 H 113.015 4.58414 -3.01907 0
M  V30 1263 H 113.276 4.21909 -1.32081 0
M  V30 1264 N 112.336 1.25143 0.95797 0
M  V30 1265 C 113.299 1.05321 2.03569 0
M  V30 1266 C 114.299 0.007152 1.60798 0
M  V30 1267 O 115.489 0.24903 1.72411 0
M  V30 1268 C 112.621 0.598394 3.35607 0
M  V30 1269 H 113.814 2.00986 2.22586 0
M  V30 1270 H 111.367 1.07502 1.13459 0
M  V30 1271 H 112.102 -0.361014 3.22284 0
M  V30 1272 H 111.887 1.35351 3.67998 0
M  V30 1273 H 113.377 0.48104 4.1482 0
M  V30 1274 N 113.814 -1.1601 1.06675 0
M  V30 1275 C 114.744 -2.22688 0.702307 0
M  V30 1276 C 115.725 -1.67306 -0.307032 0
M  V30 1277 O 116.91 -1.93352 -0.181305 0
M  V30 1278 C 114.04 -3.47178 0.092038 0
M  V30 1279 C 112.994 -4.15477 1.02777 0
M  V30 1280 C 112.32 -5.33963 0.28061 0
M  V30 1281 C 113.62 -4.66019 2.35846 0
M  V30 1282 H 115.314 -2.53429 1.59419 0
M  V30 1283 H 112.86 -1.21813 0.767961 0
M  V30 1284 H 114.813 -4.21037 -0.174814 0
M  V30 1285 H 113.537 -3.15749 -0.834877 0
M  V30 1286 H 112.196 -3.43549 1.27944 0
M  V30 1287 H 111.844 -4.98788 -0.649545 0
M  V30 1288 H 111.544 -5.806 0.904258 0
M  V30 1289 H 113.068 -6.10596 0.021396 0
M  V30 1290 H 114.482 -5.3144 2.15045 0
M  V30 1291 H 112.879 -5.23293 2.93743 0
M  V30 1292 H 113.949 -3.82023 2.98641 0
M  V30 1293 N 115.292 -0.849877 -1.32721 0
M  V30 1294 C 116.54 -0.450032 -1.97026 0
M  V30 1295 C 116.861 0.996604 -1.67609 0
M  V30 1296 O 116.131 1.6958 -0.980786 0
M  V30 1297 H 114.711 -0.163426 -0.728904 0
M  V30 1298 H 117.373 -1.08526 -1.6189 0
M  V30 1299 H 116.469 -0.591146 -3.0645 0
M  V30 1300 N 116.77 1.45427 -0.607355 0
M  V30 1301 C 118.019 2.01452 -0.100036 0
M  V30 1302 C 118.332 1.48159 1.27704 0
M  V30 1303 O 119.538 1.96159 1.87707 0
M  V30 1304 C 117.994 3.59672 -0.128158 0
M  V30 1305 C 117.602 4.21962 -1.50507 0
M  V30 1306 C 119.346 4.23262 0.323932 0
M  V30 1307 C 117.253 5.72333 -1.48959 0
M  V30 1308 H 116.183 0.75325 -0.0336299 0
M  V30 1309 H 118.834 1.66901 -0.76265 0
M  V30 1310 H 117.216 3.91411 0.601105 0
M  V30 1311 H 118.39 4.01796 -2.25602 0
M  V30 1312 H 116.705 3.70565 -1.89923 0
M  V30 1313 H 119.302 5.33522 0.354691 0
M  V30 1314 H 119.645 3.93921 1.34656 0
M  V30 1315 H 120.178 3.96239 -0.352056 0
M  V30 1316 H 116.917 6.06373 -2.48981 0
M  V30 1317 H 116.437 5.94691 -0.781214 0
M  V30 1318 H 118.116 6.35525 -1.21313 0
M  V30 1319 N 118.248 0.346503 1.53744 0
M  V30 1320 C 119.659 -0.136779 1.86198 0
M  V30 1321 C 120.01 -1.49749 1.26766 0
M  V30 1322 O 119.135 -2.08417 0.582355 0
M  V30 1323 C 119.73 -0.254966 3.37839 0
M  V30 1324 C 118.289 -0.682482 3.70161 0
M  V30 1325 C 117.436 0.181981 2.76702 0
M  V30 1326 H 120.387 0.565994 1.48264 0
M  V30 1327 H 120.408 -1.08195 3.64793 0
M  V30 1328 H 119.92 0.735526 3.81066 0
M  V30 1329 H 118.021 -1.68189 3.3248 0
M  V30 1330 H 118.134 -0.470326 4.76786 0
M  V30 1331 H 116.498 -0.34615 2.52337 0
M  V30 1332 H 117.281 1.16966 3.2276 0
M  V30 1333 N 119.726 -1.57421 0.075193 0
M  V30 1334 C 120.689 -2.11791 -0.876203 0
M  V30 1335 C 121.689 -1.04268 -1.22412 0
M  V30 1336 O 122.879 -1.30242 -1.15684 0
M  V30 1337 C 120.011 -2.62207 -2.17854 0
M  V30 1338 H 121.204 -2.9716 -0.40444 0
M  V30 1339 H 118.757 -1.55333 -0.173557 0
M  V30 1340 H 119.492 -1.803 -2.6956 0
M  V30 1341 H 119.277 -3.40802 -1.93897 0
M  V30 1342 H 120.767 -3.04335 -2.85955 0
M  V30 1343 N 121.204 0.198386 -1.56346 0
M  V30 1344 C 122.134 1.24865 -1.9731 0
M  V30 1345 C 123.115 1.47651 -0.844576 0
M  V30 1346 O 124.3 1.59444 -1.10866 0
M  V30 1347 C 121.43 2.59358 -2.30977 0
M  V30 1348 C 120.384 2.5119 -3.46537 0
M  V30 1349 C 119.71 3.89926 -3.65871 0
M  V30 1350 C 121.01 2.03977 -4.80823 0
M  V30 1351 H 122.704 0.908252 -2.85291 0
M  V30 1352 H 120.25 0.435462 -1.37258 0
M  V30 1353 H 122.203 3.33011 -2.58228 0
M  V30 1354 H 120.927 2.95132 -1.39874 0
M  V30 1355 H 119.586 1.79993 -3.19371 0
M  V30 1356 H 119.234 4.23046 -2.72105 0
M  V30 1357 H 118.934 3.85336 -4.4361 0
M  V30 1358 H 120.458 4.65205 -3.95495 0
M  V30 1359 H 121.872 2.67386 -5.07127 0
M  V30 1360 H 120.269 2.10397 -5.62008 0
M  V30 1361 H 121.339 0.992861 -4.74626 0
M  V30 1362 N 122.682 1.50554 0.465978 0
M  V30 1363 C 123.645 1.69233 1.54574 0
M  V30 1364 C 124.645 0.562901 1.50626 0
M  V30 1365 O 125.835 0.830016 1.53155 0
M  V30 1366 C 122.967 1.7223 2.94193 0
M  V30 1367 H 124.16 2.65571 1.39327 0
M  V30 1368 H 121.713 1.40111 0.692711 0
M  V30 1369 H 122.448 0.77603 3.14878 0
M  V30 1370 H 122.233 2.54285 2.98466 0
M  V30 1371 H 123.723 1.88618 3.72576 0
M  V30 1372 N 124.16 -0.719506 1.40217 0
M  V30 1373 C 125.09 -1.8465 1.42922 0
M  V30 1374 C 126.071 -1.67599 0.29062 0
M  V30 1375 O 127.256 -1.87688 0.498677 0
M  V30 1376 C 124.386 -3.22565 1.28722 0
M  V30 1377 C 123.34 -3.54281 2.40144 0
M  V30 1378 C 122.666 -4.91298 2.11023 0
M  V30 1379 C 123.966 -3.55676 3.82481 0
M  V30 1380 H 125.66 -1.82644 2.37237 0
M  V30 1381 H 123.206 -0.877305 1.1419 0
M  V30 1382 H 125.159 -4.01095 1.29232 0
M  V30 1383 H 123.883 -3.25137 0.308811 0
M  V30 1384 H 122.542 -2.78088 2.38877 0
M  V30 1385 H 122.19 -4.90468 1.11582 0
M  V30 1386 H 121.89 -5.13485 2.8567 0
M  V30 1387 H 123.414 -5.72166 2.13209 0
M  V30 1388 H 124.828 -4.24254 3.85592 0
M  V30 1389 H 123.225 -3.89388 4.56614 0
M  V30 1390 H 124.295 -2.55144 4.12346 0
M  V30 1391 N 125.638 -1.25649 -0.95132 0
M  V30 1392 C 126.885 -1.10594 -1.69633 0
M  V30 1393 C 127.213 0.352515 -1.91279 0
M  V30 1394 O 126.468 1.27601 -1.4838 0
M  V30 1395 C 126.767 -1.80909 -3.08231 0
M  V30 1396 C 126.433 -3.30825 -3.06375 0
M  V30 1397 C 125.095 -3.71722 -3.05576 0
M  V30 1398 C 127.447 -4.26589 -2.99452 0
M  V30 1399 C 124.775 -5.06788 -2.95606 0
M  V30 1400 C 127.127 -5.61683 -2.91024 0
M  V30 1401 C 125.791 -6.01904 -2.88562 0
M  V30 1402 H 125.061 -0.404691 -0.620731 0
M  V30 1403 H 127.708 -1.55964 -1.11119 0
M  V30 1404 H 126.013 -1.27979 -3.70309 0
M  V30 1405 H 127.71 -1.6671 -3.64704 0
M  V30 1406 H 124.3 -2.98287 -3.07771 0
M  V30 1407 H 128.484 -3.95982 -2.99185 0
M  V30 1408 H 123.74 -5.37126 -2.92071 0
M  V30 1409 H 127.914 -6.35578 -2.84629 0
M  V30 1410 H 125.541 -7.06521 -2.80593 0
M  V30 1411 N 127.117 1.15442 -1.07289 0
M  V30 1412 C 128.528 1.67803 -0.818475 0
M  V30 1413 C 128.879 1.8489 0.656507 0
M  V30 1414 O 128.004 1.55176 1.50829 0
M  V30 1415 C 128.599 3.04805 -1.47917 0
M  V30 1416 C 127.158 3.54245 -1.27229 0
M  V30 1417 C 126.305 2.29986 -1.54925 0
M  V30 1418 H 129.256 0.996646 -1.23502 0
M  V30 1419 H 129.277 3.69702 -0.90005 0
M  V30 1420 H 128.789 2.92336 -2.55267 0
M  V30 1421 H 126.89 3.71956 -0.21899 0
M  V30 1422 H 127.003 4.35723 -1.99203 0
M  V30 1423 H 125.367 2.35496 -0.970242 0
M  V30 1424 H 126.15 2.20105 -2.63455 0
M  V30 1425 N 128.595 0.856903 1.32268 0
M  V30 1426 C 129.841 0.462069 1.97466 0
M  V30 1427 C 130.174 -0.980298 1.67642 0
M  V30 1428 O 129.449 -1.68824 0.965858 0
M  V30 1429 C 129.732 0.704336 3.53145 0
M  V30 1430 C 129.585 2.19529 3.9259 0
M  V30 1431 C 130.904 0.1622 4.39801 0
M  V30 1432 H 128.023 0.169357 0.717278 0
M  V30 1433 H 130.665 1.07574 1.56614 0
M  V30 1434 H 128.815 0.181999 3.88073 0
M  V30 1435 H 130.487 2.78387 3.67829 0
M  V30 1436 H 128.73 2.67292 3.41668 0
M  V30 1437 H 129.401 2.31549 5.01088 0
M  V30 1438 H 131.877 0.608905 4.11621 0
M  V30 1439 H 130.753 0.361265 5.4771 0
M  V30 1440 H 131.014 -0.935158 4.32096 0
M  V30 1441 N 130.073 -1.45103 0.615059 0
M  V30 1442 C 131.301 -2.06553 0.11977 0
M  V30 1443 C 131.716 -1.45842 -1.19898 0
M  V30 1444 O 131.073 -0.575325 -1.73194 0
M  V30 1445 C 131.124 -3.61495 -0.018364 0
M  V30 1446 O 130.845 -4.19942 1.24822 0
M  V30 1447 C 132.346 -4.39947 -0.544237 0
M  V30 1448 H 129.566 -0.667096 0.0722739 0
M  V30 1449 H 132.11 -1.8623 0.84491 0
M  V30 1450 H 130.265 -3.81135 -0.693865 0
M  V30 1451 H 130.679 -5.13204 1.0827 0
M  V30 1452 H 132.153 -5.48838 -0.589953 0
M  V30 1453 H 132.63 -4.10255 -1.56805 0
M  V30 1454 H 133.236 -4.25188 0.0974703 0
M  V30 1455 N 131.551 -0.354651 -1.53558 0
M  V30 1456 C 132.962 0.126902 -1.86268 0
M  V30 1457 C 133.313 1.49075 -1.27558 0
M  V30 1458 O 132.438 2.08105 -0.5934 0
M  V30 1459 C 133.033 0.237046 -3.3797 0
M  V30 1460 C 131.592 0.662842 -3.70518 0
M  V30 1461 C 130.739 -0.196652 -2.76602 0
M  V30 1462 H 133.69 -0.573849 -1.47962 0
M  V30 1463 H 133.711 1.06259 -3.65362 0
M  V30 1464 H 133.223 -0.755725 -3.80671 0
M  V30 1465 H 131.324 1.66424 -3.33367 0
M  V30 1466 H 131.437 0.445034 -4.77029 0
M  V30 1467 H 129.801 0.332763 -2.52517 0
M  V30 1468 H 130.584 -1.18676 -3.22135 0
M  V30 1469 N 133.029 1.57378 -0.0835403 0
M  V30 1470 C 134.275 1.94217 0.583733 0
M  V30 1471 C 134.608 0.964653 1.68547 0
M  V30 1472 O 133.883 -0.00422258 1.945 0
M  V30 1473 C 134.166 3.41253 1.14972 0
M  V30 1474 C 134.019 4.49768 0.0538277 0
M  V30 1475 C 135.338 3.89352 2.05166 0
M  V30 1476 H 132.457 0.706233 0.210724 0
M  V30 1477 H 135.099 1.89392 -0.1519 0
M  V30 1478 H 133.249 3.45496 1.77665 0
M  V30 1479 H 134.921 4.57641 -0.579851 0
M  V30 1480 H 133.164 4.29432 -0.614068 0
M  V30 1481 H 133.835 5.49817 0.490452 0
M  V30 1482 H 136.311 3.87189 1.52393 0
M  V30 1483 H 135.187 4.92822 2.41698 0
M  V30 1484 H 135.448 3.27973 2.96456 0
M  V30 1485 N 134.507 -0.190092 1.56449 0
M  V30 1486 C 135.417 -1.25591 1.98152 0
M  V30 1487 C 136.433 -1.49519 0.889944 0
M  V30 1488 O 137.609 -1.62036 1.19609 0
M  V30 1489 C 134.674 -2.57916 2.3169 0
M  V30 1490 C 133.735 -2.42015 3.5458 0
M  V30 1491 C 132.968 -3.6803 3.8651 0
M  V30 1492 O 133.191 -4.72413 3.1966 0
M  V30 1493 O 132.125 -3.6326 4.79923 0
M  V30 1494 H 135.951 -0.931988 2.89046 0
M  V30 1495 H 133.536 -0.395488 1.4407 0
M  V30 1496 H 135.418 -3.36008 2.54316 0
M  V30 1497 H 134.093 -2.89925 1.43963 0
M  V30 1498 H 133 -1.62017 3.37196 0
M  V30 1499 H 134.333 -2.14937 4.4279 0
M  V30 1500 N 135.985 -1.50799 -0.457987 0
M  V30 1501 C 136.932 -1.70617 -1.5543 0
M  V30 1502 C 137.902 -0.547562 -1.56815 0
M  V30 1503 O 139.087 -0.779647 -1.74144 0
M  V30 1504 C 136.227 -1.81831 -2.93311 0
M  V30 1505 C 135.34 -3.09278 -3.01615 0
M  V30 1506 C 134.475 -3.11209 -4.30491 0
M  V30 1507 C 133.514 -4.33055 -4.32585 0
M  V30 1508 N 132.651 -4.32652 -5.52952 0
M  V30 1509 H 137.491 -2.64207 -1.37836 0
M  V30 1510 H 135.028 -1.30959 -0.669937 0
M  V30 1511 H 136.986 -1.86314 -3.73287 0
M  V30 1512 H 135.616 -0.916685 -3.0951 0
M  V30 1513 H 134.668 -3.14203 -2.1443 0
M  V30 1514 H 135.98 -3.99233 -2.99022 0
M  V30 1515 H 135.134 -3.14494 -5.18824 0
M  V30 1516 H 133.873 -2.19106 -4.35711 0
M  V30 1517 H 132.878 -4.29969 -3.42647 0
M  V30 1518 H 134.103 -5.264 -4.29046 0
M  V30 1519 H 132.049 -3.43409 -5.58933 0
M  V30 1520 H 131.966 -5.16392 -5.52155 0
M  V30 1521 H 133.234 -4.40101 -6.43375 0
M  V30 1522 N 137.463 0.71206 -1.40597 0
M  V30 1523 C 138.41 1.82613 -1.41142 0
M  V30 1524 C 139.38 1.63925 -0.267903 0
M  V30 1525 O 140.565 1.85009 -0.466495 0
M  V30 1526 C 137.705 3.20354 -1.28324 0
M  V30 1527 C 136.818 3.50589 -2.52411 0
M  V30 1528 C 135.953 4.77855 -2.32009 0
M  V30 1529 C 134.992 5.01005 -3.51654 0
M  V30 1530 N 134.129 6.19487 -3.30425 0
M  V30 1531 H 138.969 1.81482 -2.36365 0
M  V30 1532 H 136.506 0.886475 -1.17388 0
M  V30 1533 H 138.464 3.99899 -1.18899 0
M  V30 1534 H 137.094 3.20705 -0.367189 0
M  V30 1535 H 136.146 2.65573 -2.72351 0
M  V30 1536 H 137.458 3.63604 -3.41458 0
M  V30 1537 H 136.612 5.65424 -2.19956 0
M  V30 1538 H 135.351 4.67056 -1.40392 0
M  V30 1539 H 134.356 4.1189 -3.64179 0
M  V30 1540 H 135.581 5.13674 -4.44202 0
M  V30 1541 H 133.527 6.09932 -2.41494 0
M  V30 1542 H 133.444 6.33194 -4.13039 0
M  V30 1543 H 134.712 7.09834 -3.22113 0
M  V30 1544 N 138.941 1.26152 0.944643 0
M  V30 1545 C 140.166 1.14363 1.7302 0
M  V30 1546 C 140.591 -0.29772 1.85729 0
M  V30 1547 O 139.949 -1.2157 1.34501 0
M  V30 1548 C 139.997 1.81378 3.11664 0
M  V30 1549 O 139.101 1.10022 3.97453 0
M  V30 1550 H 138.442 0.398694 0.53098 0
M  V30 1551 H 140.972 1.66906 1.18337 0
M  V30 1552 H 140.982 1.88064 3.62072 0
M  V30 1553 H 139.657 2.86237 3.0173 0
M  V30 1554 H 138.234 1.11287 3.55907 0
M  V30 1555 N 140.419 -1.14872 1.07899 0
M  V30 1556 C 141.349 -2.2193 0.725887 0
M  V30 1557 C 142.33 -1.67622 -0.28927 0
M  V30 1558 O 143.515 -1.93533 -0.160787 0
M  V30 1559 C 140.645 -3.47061 0.128856 0
M  V30 1560 C 139.599 -4.14363 1.07178 0
M  V30 1561 C 138.925 -5.33636 0.337229 0
M  V30 1562 C 140.225 -4.63492 2.40775 0
M  V30 1563 H 141.919 -2.51724 1.62097 0
M  V30 1564 H 139.465 -1.20991 0.780838 0
M  V30 1565 H 141.418 -4.21199 -0.130147 0
M  V30 1566 H 140.142 -3.16617 -0.80134 0
M  V30 1567 H 138.801 -3.42173 1.3158 0
M  V30 1568 H 138.449 -4.99449 -0.596606 0
M  V30 1569 H 138.149 -5.79609 0.965788 0
M  V30 1570 H 139.673 -6.10539 0.0861567 0
M  V30 1571 H 141.087 -5.2913 2.20669 0
M  V30 1572 H 139.484 -5.20148 2.99276 0
M  V30 1573 H 140.554 -3.78834 3.02676 0
M  V30 1574 N 141.898 -0.863906 -1.31812 0
M  V30 1575 C 143.175 -0.39275 -1.91616 0
M  V30 1576 C 143.555 1.12461 -1.7865 0
M  V30 1577 O 142.903 1.95045 -1.19037 0
M  V30 1578 C 143.113 -0.867385 -3.38049 0
M  V30 1579 C 144.461 -0.889966 -4.15168 0
M  V30 1580 O 145.485 -0.812635 -3.46806 0
M  V30 1581 O 144.344 -1.00079 -5.37258 0
M  V30 1582 H 141.438 -0.116358 -0.818773 0
M  V30 1583 H 143.984 -0.951418 -1.40521 0
M  V30 1584 H 142.756 -1.91081 -3.41473 0
M  V30 1585 H 142.379 -0.286687 -3.96565 0
M  V30 1586 N 143.376 1.44774 -0.622745 0
M  V30 1587 C 144.339 2.29069 0.0774015 0
M  V30 1588 C 145.339 1.4059 0.780461 0
M  V30 1589 O 146.529 1.62551 0.626322 0
M  V30 1590 C 143.661 3.21974 1.12006 0
M  V30 1591 H 144.854 2.92459 -0.663901 0
M  V30 1592 H 142.407 1.51548 -0.382486 0
M  V30 1593 H 143.142 2.63417 1.89162 0
M  V30 1594 H 142.927 3.87168 0.619951 0
M  V30 1595 H 144.417 3.85318 1.60995 0
M  V30 1596 N 144.854 0.36279 1.53368 0
M  V30 1597 C 145.817 -0.472679 2.24273 0
M  V30 1598 C 146.817 -1.012 1.24961 0
M  V30 1599 O 148.007 -0.898194 1.49259 0
M  V30 1600 C 145.139 -1.66039 2.97731 0
M  V30 1601 H 146.332 0.14773 2.99536 0
M  V30 1602 H 143.885 0.114434 1.55881 0
M  V30 1603 H 144.62 -2.31896 2.26704 0
M  V30 1604 H 144.405 -1.28066 3.70596 0
M  V30 1605 H 145.895 -2.25252 3.51641 0
M  V30 1606 N 146.332 -1.57332 0.0918853 0
M  V30 1607 C 147.242 -2.17368 -0.882505 0
M  V30 1608 C 148.258 -1.14226 -1.31257 0
M  V30 1609 O 149.434 -1.46582 -1.38115 0
M  V30 1610 C 146.499 -2.73962 -2.12476 0
M  V30 1611 C 145.56 -3.92048 -1.7492 0
M  V30 1612 C 144.793 -4.45933 -2.93223 0
M  V30 1613 O 145.016 -3.98764 -4.07852 0
M  V30 1614 O 143.95 -5.36999 -2.71875 0
M  V30 1615 H 147.776 -3.01031 -0.40172 0
M  V30 1616 H 145.361 -1.48813 -0.132291 0
M  V30 1617 H 147.243 -3.10147 -2.85283 0
M  V30 1618 H 145.918 -1.93347 -2.59613 0
M  V30 1619 H 144.825 -3.6068 -0.993025 0
M  V30 1620 H 146.158 -4.74017 -1.32548 0
M  V30 1621 N 147.81 0.181792 -1.56548 0
M  V30 1622 C 148.773 1.20894 -1.94724 0
M  V30 1623 C 149.773 1.37738 -0.829747 0
M  V30 1624 O 150.963 1.35323 -1.09697 0
M  V30 1625 C 148.095 2.57593 -2.23291 0
M  V30 1626 H 149.288 0.882275 -2.86629 0
M  V30 1627 H 146.841 0.423838 -1.50444 0
M  V30 1628 H 147.576 2.95291 -1.34067 0
M  V30 1629 H 147.361 2.46735 -3.04736 0
M  V30 1630 H 148.851 3.31637 -2.53785 0
M  V30 1631 N 149.288 1.51039 0.449983 0
M  V30 1632 C 150.518 1.66627 1.22143 0
M  V30 1633 C 150.926 0.357776 1.85786 0
M  V30 1634 O 150.269 -0.672424 1.70951 0
M  V30 1635 C 150.331 2.71562 2.35573 0
M  V30 1636 C 149.995 4.14526 1.92399 0
M  V30 1637 C 150.992 4.99717 1.43453 0
M  V30 1638 C 148.677 4.60559 2.00475 0
M  V30 1639 C 150.671 6.28998 1.03155 0
M  V30 1640 C 148.358 5.8984 1.59788 0
M  V30 1641 C 149.356 6.73886 1.11208 0
M  V30 1642 O 149.044 8.0075 0.710935 0
M  V30 1643 H 148.776 0.562635 0.374724 0
M  V30 1644 H 151.33 1.98146 0.541036 0
M  V30 1645 H 149.56 2.3533 3.06849 0
M  V30 1646 H 151.249 2.76156 2.97478 0
M  V30 1647 H 152.015 4.65361 1.36618 0
M  V30 1648 H 147.894 3.95273 2.37235 0
M  V30 1649 H 151.438 6.9455 0.651663 0
M  V30 1650 H 147.335 6.23713 1.66289 0
M  V30 1651 H 148.103 8.142 0.837913 0
M  V30 1652 N 150.766 -0.704594 1.40972 0
M  V30 1653 C 151.714 -1.83994 1.42299 0
M  V30 1654 C 152.708 -1.66684 0.302111 0
M  V30 1655 O 153.914 -1.73655 0.473697 0
M  V30 1656 H 150.289 -0.606171 0.44504 0
M  V30 1657 H 152.26 -1.79992 2.38003 0
M  V30 1658 C 151.009 -3.21946 1.31323 0
M  V30 1659 H 150.332 -3.35878 2.16855 0
M  V30 1660 H 151.772 -4.01491 1.36311 0
M  V30 1661 C 150.231 -3.36891 0.0245977 0
M  V30 1662 O 150.761 -3.90687 -0.934153 0
M  V30 1663 N 148.967 -2.90559 -0.0485243 0
M  V30 1664 H 148.514 -2.46968 0.732419 0
M  V30 1665 H 148.472 -3.00937 -0.910171 0
M  V30 1666 N 152.244 -1.26651 -0.937939 0
M  V30 1667 C 153.655 -1.1125 -1.49934 0
M  V30 1668 C 154.006 0.306077 -1.93798 0
M  V30 1669 O 153.131 1.19792 -1.80219 0
M  V30 1670 C 153.726 -2.01339 -2.72485 0
M  V30 1671 C 152.285 -1.90074 -3.24883 0
M  V30 1672 C 151.432 -1.94498 -1.97651 0
M  V30 1673 H 154.383 -1.39693 -0.753091 0
M  V30 1674 H 154.404 -1.56319 -3.46907 0
M  V30 1675 H 153.916 -3.04577 -2.40529 0
M  V30 1676 H 152.017 -0.897827 -3.61621 0
M  V30 1677 H 152.13 -2.75778 -3.9177 0
M  V30 1678 H 150.494 -1.38591 -2.13693 0
M  V30 1679 H 151.277 -2.99372 -1.68022 0
M  V30 1680 N 153.722 1.14298 -1.08507 0
M  V30 1681 C 154.632 2.23027 -0.727753 0
M  V30 1682 C 155.648 1.71952 0.26619 0
M  V30 1683 O 156.824 2.011 0.109882 0
M  V30 1684 C 153.889 3.46403 -0.143541 0
M  V30 1685 C 152.95 4.12413 -1.19223 0
M  V30 1686 C 152.183 5.29899 -0.635798 0
M  V30 1687 O 152.406 5.67796 0.544393 0
M  V30 1688 O 151.34 5.85717 -1.38634 0
M  V30 1689 H 155.166 2.55945 -1.63481 0
M  V30 1690 H 152.751 1.22248 -0.858817 0
M  V30 1691 H 154.633 4.21018 0.179404 0
M  V30 1692 H 153.308 3.15206 0.736659 0
M  V30 1693 H 152.215 3.39667 -1.56772 0
M  V30 1694 H 153.548 4.47718 -2.04474 0
M  V30 1695 N 155.201 0.870884 1.31352 0
M  V30 1696 C 156.449 0.48132 1.96285 0
M  V30 1697 C 156.77 -0.969813 1.69173 0
M  V30 1698 O 156.04 -1.67998 1.00764 0
M  V30 1699 H 154.62 0.175002 0.726212 0
M  V30 1700 H 157.282 1.11087 1.60143 0
M  V30 1701 H 156.378 0.639825 3.05471 0
M  V30 1702 N 156.679 -1.44442 0.630414 0
M  V30 1703 C 157.928 -2.01267 0.132073 0
M  V30 1704 C 158.241 -1.50172 -1.25331 0
M  V30 1705 O 159.447 -1.9912 -1.84562 0
M  V30 1706 C 157.903 -3.59422 0.185362 0
M  V30 1707 C 157.511 -4.19514 1.57201 0
M  V30 1708 C 159.255 -4.23724 -0.256553 0
M  V30 1709 C 157.162 -5.69891 1.58045 0
M  V30 1710 H 156.092 -0.752619 0.0456092 0
M  V30 1711 H 158.743 -1.65666 0.789106 0
M  V30 1712 H 157.125 -3.92318 -0.538759 0
M  V30 1713 H 158.299 -3.98156 2.31966 0
M  V30 1714 H 156.614 -3.67496 1.95795 0
M  V30 1715 H 159.211 -5.34019 -0.269767 0
M  V30 1716 H 159.554 -3.96013 -1.28372 0
M  V30 1717 H 160.087 -3.95629 0.41505 0
M  V30 1718 H 156.826 -6.02336 2.58597 0
M  V30 1719 H 156.346 -5.93373 0.875725 0
M  V30 1720 H 158.025 -6.33515 1.31408 0
M  V30 1721 N 158.157 -0.370918 -1.53173 0
M  V30 1722 C 159.12 0.460778 -2.24521 0
M  V30 1723 C 160.12 1.00536 -1.25496 0
M  V30 1724 O 161.31 0.890266 -1.49733 0
M  V30 1725 C 158.442 1.64457 -2.98608 0
M  V30 1726 H 159.635 -0.163613 -2.99453 0
M  V30 1727 H 157.188 -0.122699 -1.55818 0
M  V30 1728 H 157.923 2.30691 -2.2793 0
M  V30 1729 H 157.708 1.26099 -3.7127 0
M  V30 1730 H 159.198 2.23384 -3.5283 0
M  V30 1731 N 159.635 1.57281 -0.100228 0
M  V30 1732 C 160.567 2.11342 0.886972 0
M  V30 1733 C 161.58 1.05182 1.24261 0
M  V30 1734 O 162.769 1.32613 1.19483 0
M  V30 1735 C 159.869 2.5825 2.19454 0
M  V30 1736 C 159.042 3.88302 2.01346 0
M  V30 1737 C 158.101 4.21004 3.15661 0
M  V30 1738 O 157.127 4.9014 2.89398 0
M  V30 1739 N 158.329 3.76818 4.41575 0
M  V30 1740 H 161.094 2.96668 0.425216 0
M  V30 1741 H 158.655 1.61678 0.0847334 0
M  V30 1742 H 160.647 2.7717 2.94888 0
M  V30 1743 H 159.217 1.77907 2.57037 0
M  V30 1744 H 158.437 3.7848 1.10212 0
M  V30 1745 H 159.725 4.73375 1.8653 0
M  V30 1746 H 159.123 3.2102 4.65792 0
M  V30 1747 H 157.68 4.00882 5.13942 0
M  V30 1748 N 161.113 -0.173488 1.56642 0
M  V30 1749 C 162.529 -0.525174 1.50712 0
M  V30 1750 C 162.729 -1.8476 0.804107 0
M  V30 1751 O 161.785 -2.49869 0.363574 0
M  V30 1752 C 163.098 -0.559937 2.95441 0
M  V30 1753 C 164.646 -0.647288 3.06234 0
M  V30 1754 C 165.121 -0.712963 4.52417 0
M  V30 1755 N 166.612 -0.775911 4.56655 0
M  V30 1756 C 167.347 -0.847264 5.67106 0
M  V30 1757 N 166.843 -0.879585 6.87194 0
M  V30 1758 N 168.636 -0.886117 5.55071 0
M  V30 1759 H 160.787 0.693681 2.00753 0
M  V30 1760 H 163.05 0.249841 0.914485 0
M  V30 1761 H 162.756 0.343049 3.50023 0
M  V30 1762 H 162.63 -1.40718 3.49969 0
M  V30 1763 H 165.017 -1.5407 2.51687 0
M  V30 1764 H 165.098 0.226586 2.54794 0
M  V30 1765 H 164.742 0.176183 5.07594 0
M  V30 1766 H 164.672 -1.60295 5.0161 0
M  V30 1767 H 167.163 -0.759304 3.70193 0
M  V30 1768 H 167.476 -0.935144 7.67121 0
M  V30 1769 H 165.821 -0.847898 6.89808 0
M  V30 1770 H 169.012 -0.857853 4.60172 0
M  V30 1771 H 169.185 -0.938263 6.41171 0
M  V30 1772 N 162.591 -1.51276 -0.441967 0
M  V30 1773 C 163.554 -1.7167 -1.51862 0
M  V30 1774 C 164.554 -0.586793 -1.49711 0
M  V30 1775 O 165.744 -0.854276 -1.51815 0
M  V30 1776 C 162.876 -1.76889 -2.91416 0
M  V30 1777 H 164.069 -2.67754 -1.35084 0
M  V30 1778 H 161.622 -1.41196 -0.670333 0
M  V30 1779 H 162.357 -0.826026 -3.13604 0
M  V30 1780 H 162.142 -2.59001 -2.94382 0
M  V30 1781 H 163.632 -1.94522 -3.69528 0
M  V30 1782 N 164.069 0.697108 -1.41344 0
M  V30 1783 C 165.297 1.48593 -1.43972 0
M  V30 1784 C 165.712 1.88747 -0.0445612 0
M  V30 1785 O 165.069 1.56682 0.935785 0
M  V30 1786 C 165.12 2.74946 -2.34706 0
M  V30 1787 O 164.841 2.36484 -3.68791 0
M  V30 1788 C 166.342 3.687 -2.46121 0
M  V30 1789 H 163.562 0.457964 -0.490418 0
M  V30 1790 H 166.106 0.858429 -1.8561 0
M  V30 1791 H 164.261 3.33937 -1.9638 0
M  V30 1792 H 164.675 3.17918 -4.17167 0
M  V30 1793 H 166.149 4.54145 -3.13777 0
M  V30 1794 H 166.626 4.13081 -1.49199 0
M  V30 1795 H 167.232 3.15613 -2.85076 0
M  V30 1796 N 165.547 1.27147 0.931209 0
M  V30 1797 C 166.963 1.04475 1.20653 0
M  V30 1798 C 167.163 -0.223885 2.00252 0
M  V30 1799 O 166.219 -0.930332 2.34736 0
M  V30 1800 C 167.532 2.28209 1.95809 0
M  V30 1801 C 169.08 2.33211 2.08762 0
M  V30 1802 C 169.555 3.56665 2.87323 0
M  V30 1803 N 171.046 3.57201 2.94892 0
M  V30 1804 C 171.781 4.49395 3.56134 0
M  V30 1805 N 171.277 5.51889 4.18796 0
M  V30 1806 N 173.07 4.37026 3.53504 0
M  V30 1807 H 165.221 2.08612 0.399333 0
M  V30 1808 H 167.484 0.917312 0.239253 0
M  V30 1809 H 167.19 3.20538 1.44736 0
M  V30 1810 H 167.064 2.33247 2.96438 0
M  V30 1811 H 169.451 1.41391 2.59023 0
M  V30 1812 H 169.532 2.32178 1.07364 0
M  V30 1813 H 169.176 4.4882 2.37746 0
M  V30 1814 H 169.106 3.54948 3.88998 0
M  V30 1815 H 171.597 2.83074 2.50354 0
M  V30 1816 H 171.91 6.18409 4.63454 0
M  V30 1817 H 170.255 5.55735 4.17353 0
M  V30 1818 H 173.446 3.56166 3.03749 0
M  V30 1819 H 173.619 5.09067 4.00942 0
M  V30 1820 N 167.025 -1.13721 1.09112 0
M  V30 1821 C 167.988 -2.17222 0.731241 0
M  V30 1822 C 168.988 -1.59035 -0.237566 0
M  V30 1823 O 170.178 -1.74192 -0.0161704 0
M  V30 1824 C 167.31 -3.40804 0.0808443 0
M  V30 1825 H 168.503 -2.50573 1.64783 0
M  V30 1826 H 166.056 -1.28493 0.889897 0
M  V30 1827 H 166.791 -3.1304 -0.847127 0
M  V30 1828 H 166.576 -3.84306 0.777896 0
M  V30 1829 H 168.066 -4.1731 -0.155657 0
M  V30 1830 N 168.503 -0.877838 -1.30888 0
M  V30 1831 C 169.433 -0.35534 -2.3078 0
M  V30 1832 C 170.414 0.557994 -1.60687 0
M  V30 1833 O 171.599 0.473355 -1.88343 0
M  V30 1834 C 168.729 0.437221 -3.44537 0
M  V30 1835 C 167.683 -0.383715 -4.26276 0
M  V30 1836 C 167.009 0.535014 -5.32017 0
M  V30 1837 C 168.309 -1.62201 -4.96476 0
M  V30 1838 H 170.003 -1.19007 -2.74732 0
M  V30 1839 H 167.549 -0.573698 -1.32078 0
M  V30 1840 H 169.502 0.813334 -4.13477 0
M  V30 1841 H 168.226 1.30553 -2.99372 0
M  V30 1842 H 166.885 -0.741874 -3.59015 0
M  V30 1843 H 166.533 1.40083 -4.831 0
M  V30 1844 H 166.233 -0.0104211 -5.87599 0
M  V30 1845 H 167.757 0.907799 -6.03814 0
M  V30 1846 H 169.171 -1.31689 -5.5797 0
M  V30 1847 H 167.568 -2.10711 -5.61891 0
M  V30 1848 H 168.638 -2.37044 -4.23011 0
M  V30 1849 N 169.982 1.44106 -0.638065 0
M  V30 1850 C 171.398 1.56672 -0.304286 0
M  V30 1851 C 171.598 1.6244 1.19228 0
M  V30 1852 O 170.654 1.57121 1.9766 0
M  V30 1853 C 171.967 2.83503 -1.00231 0
M  V30 1854 C 173.515 2.97226 -0.981116 0
M  V30 1855 C 173.99 4.26868 -1.65974 0
M  V30 1856 N 175.481 4.33698 -1.62666 0
M  V30 1857 C 176.216 5.32745 -2.12063 0
M  V30 1858 N 175.712 6.38157 -2.6968 0
M  V30 1859 N 177.505 5.24299 -2.02651 0
M  V30 1860 H 169.656 1.38605 -1.60942 0
M  V30 1861 H 171.919 0.664661 -0.675965 0
M  V30 1862 H 171.625 2.85251 -2.0573 0
M  V30 1863 H 171.499 3.73251 -0.54439 0
M  V30 1864 H 173.886 2.95027 0.0654188 0
M  V30 1865 H 173.967 2.08808 -1.47759 0
M  V30 1866 H 173.611 4.29826 -2.70576 0
M  V30 1867 H 173.541 5.14156 -1.13804 0
M  V30 1868 H 176.032 3.58138 -1.20606 0
M  V30 1869 H 176.345 7.10029 -3.05087 0
M  V30 1870 H 174.69 6.38823 -2.73734 0
M  V30 1871 H 177.881 4.4086 -1.57353 0
M  V30 1872 H 178.054 6.01334 -2.41457 0
M  V30 1873 N 171.46 0.379036 1.52974 0
M  V30 1874 C 172.37 -0.468639 2.29872 0
M  V30 1875 C 173.386 -1.08067 1.36373 0
M  V30 1876 O 174.562 -1.08871 1.69438 0
M  V30 1877 C 171.627 -1.58594 3.083 0
M  V30 1878 C 170.688 -1.00007 4.17489 0
M  V30 1879 C 169.921 -2.06413 4.92168 0
M  V30 1880 O 170.144 -3.27751 4.66835 0
M  V30 1881 O 169.078 -1.68717 5.7777 0
M  V30 1882 H 172.904 0.157508 3.03291 0
M  V30 1883 H 170.489 0.143035 1.48714 0
M  V30 1884 H 172.371 -2.23525 3.57232 0
M  V30 1885 H 171.046 -2.19724 2.37703 0
M  V30 1886 H 169.953 -0.314299 3.72777 0
M  V30 1887 H 171.286 -0.433135 4.90291 0
M  V30 1888 N 172.938 -1.57226 0.108567 0
M  V30 1889 C 174.354 -1.5766 -0.248058 0
M  V30 1890 C 174.554 -1.12063 -1.67464 0
M  V30 1891 O 173.61 -0.803236 -2.39383 0
M  V30 1892 C 174.923 -3.0069 -0.0242287 0
M  V30 1893 C 176.471 -3.12868 -0.0909372 0
M  V30 1894 C 176.946 -4.57879 0.105067 0
M  V30 1895 N 178.437 -4.63172 0.0506846 0
M  V30 1896 C 179.172 -5.73126 0.177396 0
M  V30 1897 N 178.668 -6.91866 0.359696 0
M  V30 1898 N 180.461 -5.61977 0.117709 0
M  V30 1899 H 172.612 -1.85169 1.04049 0
M  V30 1900 H 174.875 -0.85529 0.40888 0
M  V30 1901 H 174.581 -3.38299 0.961604 0
M  V30 1902 H 174.455 -3.6945 -0.76068 0
M  V30 1903 H 176.842 -2.75124 -1.06729 0
M  V30 1904 H 176.923 -2.46672 0.677225 0
M  V30 1905 H 176.567 -4.96321 1.07834 0
M  V30 1906 H 176.497 -5.22153 -0.682954 0
M  V30 1907 H 178.988 -3.778 -0.0871266 0
M  V30 1908 H 179.301 -7.71503 0.447529 0
M  V30 1909 H 177.646 -6.93874 0.395536 0
M  V30 1910 H 180.837 -4.68094 -0.0236741 0
M  V30 1911 H 181.01 -6.47627 0.219905 0
M  V30 1912 N 174.416 0.165178 -1.56732 0
M  V30 1913 C 175.663 0.880807 -1.8234 0
M  V30 1914 C 175.991 1.81977 -0.686621 0
M  V30 1915 O 175.246 1.92971 0.325697 0
M  V30 1916 C 175.545 1.70405 -3.1416 0
M  V30 1917 C 175.211 0.913475 -4.4155 0
M  V30 1918 C 173.873 0.695303 -4.7615 0
M  V30 1919 C 176.225 0.359349 -5.1996 0
M  V30 1920 C 173.553 -0.0879947 -5.86634 0
M  V30 1921 C 175.905 -0.410893 -6.31264 0
M  V30 1922 C 174.569 -0.639808 -6.64427 0
M  V30 1923 H 173.839 0.32231 -0.667231 0
M  V30 1924 H 176.486 0.145402 -1.90947 0
M  V30 1925 H 174.791 2.50903 -3.00923 0
M  V30 1926 H 176.488 2.26091 -3.31186 0
M  V30 1927 H 173.078 1.09357 -4.14414 0
M  V30 1928 H 177.262 0.515228 -4.93618 0
M  V30 1929 H 172.518 -0.27503 -6.10781 0
M  V30 1930 H 176.692 -0.847494 -6.91224 0
M  V30 1931 H 174.319 -1.24864 -7.49875 0
M  V30 1932 N 175.894 1.51508 0.433938 0
M  V30 1933 C 177.305 1.56784 1.01369 0
M  V30 1934 C 177.656 0.393349 1.92217 0
M  V30 1935 O 176.781 -0.489441 2.10792 0
M  V30 1936 C 177.376 2.84144 1.8452 0
M  V30 1937 C 175.935 2.9198 2.37539 0
M  V30 1938 C 175.082 2.51482 1.16843 0
M  V30 1939 H 178.033 1.57236 0.215081 0
M  V30 1940 H 178.054 2.68098 2.70007 0
M  V30 1941 H 177.566 3.69607 1.18373 0
M  V30 1942 H 175.667 2.10955 3.0713 0
M  V30 1943 H 175.78 3.95704 2.70103 0
M  V30 1944 H 174.144 2.04758 1.51481 0
M  V30 1945 H 174.927 3.39293 0.523015 0
M  V30 1946 N 177.372 -0.689602 1.41712 0
M  V30 1947 C 178.282 -1.83314 1.46401 0
M  V30 1948 C 179.298 -1.7036 0.35405 0
M  V30 1949 O 180.474 -1.92171 0.602692 0
M  V30 1950 C 177.539 -3.19344 1.34982 0
M  V30 1951 C 176.6 -3.44363 2.56344 0
M  V30 1952 C 175.833 -4.73904 2.45461 0
M  V30 1953 O 176.056 -5.508 1.48241 0
M  V30 1954 O 174.99 -4.99839 3.35328 0
M  V30 1955 H 178.816 -1.82314 2.42889 0
M  V30 1956 H 176.401 -0.843438 1.23315 0
M  V30 1957 H 178.283 -4.00547 1.3092 0
M  V30 1958 H 176.958 -3.21014 0.41612 0
M  V30 1959 H 175.865 -2.63067 2.65982 0
M  V30 1960 H 177.198 -3.47512 3.48563 0
M  V30 1961 N 178.85 -1.27639 -0.924453 0
M  V30 1962 C 179.78 -1.13166 -2.04244 0
M  V30 1963 C 180.761 -0.032256 -1.70069 0
M  V30 1964 O 181.946 -0.207328 -1.9309 0
M  V30 1965 C 179.076 -0.781496 -3.38393 0
M  V30 1966 C 178.03 -1.83449 -3.86692 0
M  V30 1967 C 177.356 -1.33822 -5.17683 0
M  V30 1968 C 178.656 -3.23917 -4.09726 0
M  V30 1969 H 180.35 -2.06689 -2.1661 0
M  V30 1970 H 177.896 -0.995136 -1.04082 0
M  V30 1971 H 179.849 -0.667057 -4.16087 0
M  V30 1972 H 178.573 0.189439 -3.2605 0
M  V30 1973 H 177.232 -1.93789 -3.11193 0
M  V30 1974 H 176.88 -0.35665 -5.01734 0
M  V30 1975 H 176.58 -2.04224 -5.50968 0
M  V30 1976 H 178.104 -1.23679 -5.97943 0
M  V30 1977 H 179.518 -3.16559 -4.77978 0
M  V30 1978 H 177.915 -3.92059 -4.54324 0
M  V30 1979 H 178.985 -3.68729 -3.14908 0
M  V30 1980 N 180.328 1.1314 -1.09713 0
M  V30 1981 C 181.576 1.84119 -0.833338 0
M  V30 1982 C 181.897 1.84097 0.642904 0
M  V30 1983 O 181.167 1.29881 1.46655 0
M  V30 1984 H 179.747 0.681766 -0.305293 0
M  V30 1985 H 182.409 1.37038 -1.38588 0
M  V30 1986 H 181.505 2.88543 -1.18951 0
M  V30 1987 N 181.806 0.884767 1.30421 0
M  V30 1988 C 183.055 0.499164 1.95426 0
M  V30 1989 C 183.368 -0.95645 1.70621 0
M  V30 1990 O 184.574 -1.44889 2.29607 0
M  V30 1991 C 183.03 0.84177 3.49917 0
M  V30 1992 C 182.638 2.31514 3.83543 0
M  V30 1993 C 184.382 0.525355 4.21237 0
M  V30 1994 C 182.289 2.59939 5.31212 0
M  V30 1995 H 181.219 0.182944 0.73147 0
M  V30 1996 H 183.87 1.07971 1.48373 0
M  V30 1997 H 182.252 0.190311 3.95542 0
M  V30 1998 H 183.426 3.0109 3.48829 0
M  V30 1999 H 181.741 2.59907 3.25326 0
M  V30 2000 H 184.338 0.714762 5.29901 0
M  V30 2001 H 184.681 -0.535222 4.12845 0
M  V30 2002 H 185.214 1.134 3.81294 0
M  V30 2003 H 181.953 3.64736 5.44654 0
M  V30 2004 H 181.473 1.94972 5.67227 0
M  V30 2005 H 183.152 2.45429 5.98643 0
M  V30 2006 N 183.284 -1.43765 0.645699 0
M  V30 2007 C 184.533 -2.01116 0.153412 0
M  V30 2008 C 184.846 -1.51493 -1.23731 0
M  V30 2009 O 186.052 -2.01067 -1.8244 0
M  V30 2010 C 184.508 -3.59206 0.223473 0
M  V30 2011 C 184.116 -4.17823 1.61642 0
M  V30 2012 C 185.86 -4.23972 -0.211597 0
M  V30 2013 C 183.767 -5.68183 1.64081 0
M  V30 2014 H 182.697 -0.752093 0.0535891 0
M  V30 2015 H 185.348 -1.6482 0.806633 0
M  V30 2016 H 183.73 -3.92867 -0.497118 0
M  V30 2017 H 184.904 -3.95674 2.36176 0
M  V30 2018 H 183.219 -3.65399 1.99681 0
M  V30 2019 H 185.816 -5.34275 -0.213112 0
M  V30 2020 H 186.159 -3.97352 -1.24165 0
M  V30 2021 H 186.692 -3.95166 0.456988 0
M  V30 2022 H 183.431 -5.99559 2.64971 0
M  V30 2023 H 182.951 -5.9241 0.938611 0
M  V30 2024 H 184.63 -6.32085 1.3812 0
M  V30 2025 N 184.763 -0.387143 -1.52771 0
M  V30 2026 C 185.991 0.195869 -2.05971 0
M  V30 2027 C 186.406 1.40691 -1.25903 0
M  V30 2028 O 185.763 1.79931 -0.305134 0
M  V30 2029 C 185.814 0.56812 -3.57008 0
M  V30 2030 O 185.535 -0.594803 -4.34043 0
M  V30 2031 C 187.036 1.20723 -4.26545 0
M  V30 2032 H 184.256 0.0300578 -0.670326 0
M  V30 2033 H 186.8 -0.551749 -1.96916 0
M  V30 2034 H 184.955 1.26564 -3.66143 0
M  V30 2035 H 185.369 -0.289322 -5.23701 0
M  V30 2036 H 186.843 1.41807 -5.33474 0
M  V30 2037 H 187.32 2.17395 -3.81623 0
M  V30 2038 H 187.926 0.550535 -4.21722 0
M  V30 2039 N 186.241 1.57166 -0.116904 0
M  V30 2040 C 187.518 1.86645 0.585049 0
M  V30 2041 C 187.898 1.0177 1.84949 0
M  V30 2042 O 187.246 0.0960379 2.28298 0
M  V30 2043 C 187.456 3.37736 0.879507 0
M  V30 2044 C 188.804 4.06289 1.23348 0
M  V30 2045 O 189.828 3.42743 0.969836 0
M  V30 2046 O 188.687 5.18455 1.7282 0
M  V30 2047 H 185.781 0.772593 0.295007 0
M  V30 2048 H 188.327 1.69025 -0.151249 0
M  V30 2049 H 187.099 3.91296 -0.0166136 0
M  V30 2050 H 186.722 3.6078 1.67103 0
M  V30 2051 N 187.719 -0.156864 1.56817 0
M  V30 2052 C 188.965 -0.872416 1.83076 0
M  V30 2053 C 189.298 -1.81261 0.697001 0
M  V30 2054 O 188.573 -1.92171 -0.30008 0
M  V30 2055 C 188.856 -1.65551 3.19789 0
M  V30 2056 C 188.709 -0.737467 4.43713 0
M  V30 2057 C 190.028 -2.62012 3.53606 0
M  V30 2058 H 187.147 -0.315715 0.665953 0
M  V30 2059 H 189.789 -0.138004 1.89498 0
M  V30 2060 H 187.939 -2.28159 3.14445 0
M  V30 2061 H 189.611 -0.123143 4.61136 0
M  V30 2062 H 187.854 -0.0464067 4.33775 0
M  V30 2063 H 188.525 -1.32122 5.35955 0
M  V30 2064 H 191.001 -2.09525 3.59497 0
M  V30 2065 H 189.877 -3.13861 4.50314 0
M  V30 2066 H 190.138 -3.42902 2.79053 0
M  V30 2067 N 189.197 -1.51736 -0.425897 0
M  V30 2068 C 190.16 -1.73271 -1.50032 0
M  V30 2069 C 191.16 -0.602639 -1.4908 0
M  V30 2070 O 192.35 -0.87033 -1.509 0
M  V30 2071 C 189.482 -1.79969 -2.89523 0
M  V30 2072 H 190.675 -2.69172 -1.32237 0
M  V30 2073 H 188.228 -1.41899 -0.65532 0
M  V30 2074 H 188.963 -0.859241 -3.1271 0
M  V30 2075 H 188.748 -2.62109 -2.91619 0
M  V30 2076 H 190.238 -1.9843 -3.67444 0
M  V30 2077 N 190.675 0.682077 -1.42076 0
M  V30 2078 C 191.605 1.80796 -1.47767 0
M  V30 2079 C 192.586 1.6677 -0.334954 0
M  V30 2080 O 193.771 1.863 -0.548264 0
M  V30 2081 C 190.901 3.19038 -1.37229 0
M  V30 2082 C 189.855 3.47789 -2.49453 0
M  V30 2083 C 189.181 4.8553 -2.23975 0
M  V30 2084 C 190.481 3.45411 -3.91776 0
M  V30 2085 H 192.175 1.7629 -2.41997 0
M  V30 2086 H 189.721 0.846721 -1.16476 0
M  V30 2087 H 191.674 3.97528 -1.39821 0
M  V30 2088 H 190.398 3.24204 -0.394907 0
M  V30 2089 H 189.057 2.71657 -2.46166 0
M  V30 2090 H 188.705 4.87337 -1.24547 0
M  V30 2091 H 188.405 5.0573 -2.99184 0
M  V30 2092 H 189.929 5.66312 -2.28304 0
M  V30 2093 H 191.343 4.13882 -3.96705 0
M  V30 2094 H 189.74 3.77145 -4.66778 0
M  V30 2095 H 190.81 2.44122 -4.18966 0
M  V30 2096 N 192.153 1.28127 0.917671 0
M  V30 2097 C 193.43 1.05761 1.64542 0
M  V30 2098 C 193.81 -0.404344 2.07191 0
M  V30 2099 O 193.158 -1.38963 1.81388 0
M  V30 2100 C 193.368 2.02857 2.83989 0
M  V30 2101 C 194.716 2.32786 3.551 0
M  V30 2102 O 195.74 2.0091 2.94132 0
M  V30 2103 O 194.599 2.87169 4.64969 0
M  V30 2104 H 191.693 0.403916 0.721652 0
M  V30 2105 H 194.239 1.39431 0.967322 0
M  V30 2106 H 193.011 3.01407 2.49538 0
M  V30 2107 H 192.634 1.69809 3.59514 0
M  V30 2108 N 193.631 -1.12557 1.10312 0
M  V30 2109 C 195.042 -1.65574 0.862678 0
M  V30 2110 C 195.393 -1.86566 -0.607256 0
M  V30 2111 O 194.518 -1.59121 -1.46662 0
M  V30 2112 C 195.113 -3.00776 1.55947 0
M  V30 2113 C 193.672 -3.50748 1.36576 0
M  V30 2114 C 192.819 -2.25797 1.60968 0
M  V30 2115 H 195.77 -0.963552 1.26101 0
M  V30 2116 H 195.791 -3.67185 0.997753 0
M  V30 2117 H 195.303 -2.85465 2.62928 0
M  V30 2118 H 193.404 -3.71245 0.317531 0
M  V30 2119 H 193.517 -4.30289 2.10686 0
M  V30 2120 H 191.881 -2.32841 1.03234 0
M  V30 2121 H 192.664 -2.13043 2.69198 0
M  V30 2122 N 195.109 -0.891671 -1.2995 0
M  V30 2123 C 196.356 -0.513501 -1.95881 0
M  V30 2124 C 196.684 0.938655 -1.70351 0
M  V30 2125 O 195.939 1.67936 -1.00478 0
M  V30 2126 C 196.238 -0.742868 -3.49594 0
M  V30 2127 C 195.904 -2.17114 -3.95186 0
M  V30 2128 C 194.566 -2.56169 -4.07346 0
M  V30 2129 C 196.918 -3.10162 -4.18866 0
M  V30 2130 C 194.246 -3.87469 -4.4055 0
M  V30 2131 C 196.598 -4.41001 -4.53542 0
M  V30 2132 C 195.262 -4.79941 -4.63911 0
M  V30 2133 H 194.532 -0.187903 -0.71678 0
M  V30 2134 H 197.179 -1.1288 -1.54694 0
M  V30 2135 H 195.484 -0.044586 -3.91775 0
M  V30 2136 H 197.181 -0.429767 -3.9869 0
M  V30 2137 H 193.771 -1.85801 -3.86233 0
M  V30 2138 H 197.955 -2.81206 -4.08946 0
M  V30 2139 H 193.211 -4.17371 -4.46779 0
M  V30 2140 H 197.385 -5.13133 -4.70815 0
M  V30 2141 H 195.012 -5.81719 -4.89395 0
M  V30 2142 N 196.587 1.43421 -0.653314 0
M  V30 2143 C 197.815 2.06163 -0.174491 0
M  V30 2144 C 198.23 1.48969 1.1599 0
M  V30 2145 O 197.587 0.621042 1.71608 0
M  V30 2146 C 197.638 3.61417 -0.0774865 0
M  V30 2147 O 197.359 4.16485 -1.35912 0
M  V30 2148 C 198.86 4.41235 0.427402 0
M  V30 2149 H 196.08 0.664946 -0.0899353 0
M  V30 2150 H 198.624 1.83924 -0.893988 0
M  V30 2151 H 196.779 3.82841 0.59257 0
M  V30 2152 H 197.193 5.10153 -1.21839 0
M  V30 2153 H 198.667 5.5021 0.44423 0
M  V30 2154 H 199.144 4.14268 1.45873 0
M  V30 2155 H 199.75 4.2478 -0.210167 0
M  V30 2156 N 198.065 0.39524 1.52563 0
M  V30 2157 C 199.293 -0.184943 2.06072 0
M  V30 2158 C 199.708 -1.40021 1.26647 0
M  V30 2159 O 199.065 -1.79767 0.314672 0
M  V30 2160 C 199.116 -0.549179 3.57304 0
M  V30 2161 O 198.837 0.617813 4.33722 0
M  V30 2162 C 200.338 -1.18459 4.2718 0
M  V30 2163 H 197.558 -0.0265025 0.670476 0
M  V30 2164 H 200.102 0.562184 1.96621 0
M  V30 2165 H 198.257 -1.2462 3.66809 0
M  V30 2166 H 198.671 0.317091 5.23541 0
M  V30 2167 H 200.145 -1.38976 5.34219 0
M  V30 2168 H 200.622 -2.15368 3.82771 0
M  V30 2169 H 201.228 -0.528163 4.22008 0
M  V30 2170 N 199.544 -1.57102 0.125237 0
M  V30 2171 C 200.494 -2.12202 -0.833936 0
M  V30 2172 C 201.478 -1.04433 -1.22403 0
M  V30 2173 O 202.67 -1.30655 -1.19408 0
M  V30 2174 C 199.799 -2.72994 -2.08157 0
M  V30 2175 C 198.885 -3.87852 -1.71556 0
M  V30 2176 N 199.276 -4.9464 -1.05662 0
M  V30 2177 C 197.574 -3.98153 -2.00973 0
M  V30 2178 C 198.275 -5.74953 -0.883376 0
M  V30 2179 N 197.251 -5.24985 -1.41036 0
M  V30 2180 H 201.053 -2.92141 -0.321035 0
M  V30 2181 H 198.567 -1.62217 -0.0770315 0
M  V30 2182 H 200.564 -3.10816 -2.77847 0
M  V30 2183 H 199.224 -1.9452 -2.59985 0
M  V30 2184 H 200.235 -5.12872 -0.719878 0
M  V30 2185 H 196.912 -3.30728 -2.54804 0
M  V30 2186 H 198.302 -6.70904 -0.365675 0
M  V30 2187 N 201.022 0.148545 -1.56898 0
M  V30 2188 C 202.27 0.859717 -1.82902 0
M  V30 2189 C 202.591 1.81775 -0.70588 0
M  V30 2190 O 201.861 1.93994 0.272586 0
M  V30 2191 H 200.441 0.320469 -0.674766 0
M  V30 2192 H 203.103 0.142918 -1.94375 0
M  V30 2193 H 202.199 1.4229 -2.77777 0
M  V30 2194 N 202.5 1.5196 0.417844 0
M  V30 2195 C 203.432 1.70895 1.52733 0
M  V30 2196 C 204.445 0.589405 1.51756 0
M  V30 2197 O 205.634 0.864312 1.56179 0
M  V30 2198 C 202.734 1.72627 2.91639 0
M  V30 2199 C 201.907 3.01479 3.16905 0
M  V30 2200 C 200.966 2.95139 4.35637 0
M  V30 2201 O 199.992 3.69059 4.3334 0
M  V30 2202 N 201.194 2.12328 5.40275 0
M  V30 2203 H 203.959 2.66612 1.36888 0
M  V30 2204 H 201.52 1.50089 0.607037 0
M  V30 2205 H 203.512 1.65928 3.6912 0
M  V30 2206 H 202.082 0.844216 3.00985 0
M  V30 2207 H 201.302 3.21895 2.27546 0
M  V30 2208 H 202.59 3.86736 3.30625 0
M  V30 2209 H 201.988 1.51685 5.44985 0
M  V30 2210 H 200.545 2.11494 6.16534 0
M  V30 2211 N 203.978 -0.674533 1.42435 0
M  V30 2212 C 205.255 -1.4305 1.33402 0
M  V30 2213 C 205.635 -2.11081 -0.0284674 0
M  V30 2214 O 204.983 -2.03257 -1.04397 0
M  V30 2215 C 205.193 -2.43272 2.50239 0
M  V30 2216 C 206.541 -3.07907 2.92367 0
M  V30 2217 O 207.565 -2.53599 2.50132 0
M  V30 2218 O 206.424 -4.0632 3.65467 0
M  V30 2219 H 203.518 -0.638076 0.526106 0
M  V30 2220 H 206.064 -0.703235 1.54443 0
M  V30 2221 H 204.836 -1.91803 3.41068 0
M  V30 2222 H 204.459 -3.23479 2.31186 0
M  V30 2223 N 205.456 -1.28612 -0.910864 0
M  V30 2224 C 206.704 -1.15705 -1.65701 0
M  V30 2225 C 207.025 0.29416 -1.92769 0
M  V30 2226 O 206.295 1.20331 -1.54588 0
M  V30 2227 H 204.875 -0.425216 -0.614167 0
M  V30 2228 H 207.537 -1.61381 -1.0928 0
M  V30 2229 H 206.633 -1.6988 -2.61815 0
M  V30 2230 N 206.934 1.1197 -1.10907 0
M  V30 2231 C 208.183 1.82947 -0.849302 0
M  V30 2232 C 208.496 1.85275 0.627112 0
M  V30 2233 O 209.702 2.52296 1.00295 0
M  V30 2234 C 208.158 3.28529 -1.46959 0
M  V30 2235 C 207.766 3.34546 -2.97965 0
M  V30 2236 C 209.51 4.04443 -1.28942 0
M  V30 2237 C 207.417 4.74491 -3.53004 0
M  V30 2238 H 206.347 0.685477 -0.314065 0
M  V30 2239 H 208.998 1.2604 -1.33365 0
M  V30 2240 H 207.38 3.85333 -0.912917 0
M  V30 2241 H 208.554 2.87654 -3.59989 0
M  V30 2242 H 206.869 2.72108 -3.15192 0
M  V30 2243 H 209.466 5.07787 -1.67502 0
M  V30 2244 H 209.809 4.15656 -0.231456 0
M  V30 2245 H 210.342 3.5401 -1.81443 0
M  V30 2246 H 207.081 4.68474 -4.58489 0
M  V30 2247 H 206.601 5.21816 -2.9575 0
M  V30 2248 H 208.28 5.4344 -3.51115 0
M  V30 2249 N 208.412 0.89855 1.29475 0
M  V30 2250 C 209.342 0.39201 2.30186 0
M  V30 2251 C 210.323 -0.532359 1.61555 0
M  V30 2252 O 211.508 -0.443331 1.89072 0
M  V30 2253 C 208.638 -0.382353 3.45189 0
M  V30 2254 C 207.592 0.451483 4.25612 0
M  V30 2255 C 206.918 -0.450307 5.328 0
M  V30 2256 C 208.218 1.70079 4.93832 0
M  V30 2257 H 209.912 1.23362 2.72804 0
M  V30 2258 H 207.458 0.594638 1.31149 0
M  V30 2259 H 209.411 -0.747451 4.14718 0
M  V30 2260 H 208.135 -1.25774 3.01411 0
M  V30 2261 H 206.794 0.798897 3.57789 0
M  V30 2262 H 206.442 -1.32379 4.85268 0
M  V30 2263 H 206.142 0.103902 5.87508 0
M  V30 2264 H 207.666 -0.811623 6.05182 0
M  V30 2265 H 209.08 1.40549 5.55805 0
M  V30 2266 H 207.477 2.19623 5.58467 0
M  V30 2267 H 208.547 2.43744 4.19186 0
M  V30 2268 N 209.89 -1.43072 0.660911 0
M  V30 2269 C 211.167 -1.95307 0.107017 0
M  V30 2270 C 211.547 -1.60192 -1.37484 0
M  V30 2271 O 210.895 -0.890949 -2.10415 0
M  V30 2272 C 211.105 -3.47124 0.361402 0
M  V30 2273 C 212.453 -4.23738 0.270455 0
M  V30 2274 O 213.477 -3.54981 0.294382 0
M  V30 2275 O 212.336 -5.46131 0.200737 0
M  V30 2276 H 209.43 -0.826984 -0.00517729 0
M  V30 2277 H 211.976 -1.52972 0.734681 0
M  V30 2278 H 210.748 -3.65837 1.38848 0
M  V30 2279 H 210.371 -3.96475 -0.298953 0
M  V30 2280 N 211.368 -0.403325 -1.52352 0
M  V30 2281 C 212.645 0.232611 -1.94212 0
M  V30 2282 C 213.025 1.63133 -1.33981 0
M  V30 2283 O 212.373 2.22659 -0.513344 0
M  V30 2284 C 212.583 0.244811 -3.4814 0
M  V30 2285 C 213.931 0.46698 -4.22024 0
M  V30 2286 O 214.955 0.324419 -3.5472 0
M  V30 2287 O 213.814 0.74747 -5.41364 0
M  V30 2288 H 210.908 0.148223 -0.813609 0
M  V30 2289 H 213.454 -0.458848 -1.63379 0
M  V30 2290 H 212.226 -0.734378 -3.84347 0
M  V30 2291 H 211.849 0.980611 -3.85318 0
M  V30 2292 N 212.846 1.57033 -0.133567 0
M  V30 2293 C 214.123 1.87256 0.56522 0
M  V30 2294 C 214.503 1.03726 1.83859 0
M  V30 2295 O 213.851 0.120247 2.28183 0
M  V30 2296 C 214.061 3.3865 0.843636 0
M  V30 2297 C 215.409 4.07574 1.19032 0
M  V30 2298 O 216.433 3.43752 0.933429 0
M  V30 2299 O 215.292 5.20259 1.67312 0
M  V30 2300 H 212.386 0.775678 0.286796 0
M  V30 2301 H 214.932 1.68855 -0.169168 0
M  V30 2302 H 213.704 3.91257 -0.0581149 0
M  V30 2303 H 213.327 3.62532 1.63268 0
M  V30 2304 N 214.325 -0.140222 1.56975 0
M  V30 2305 C 215.573 -0.850005 1.83356 0
M  V30 2306 C 215.894 -1.81399 0.71551 0
M  V30 2307 O 215.164 -1.94136 -0.262294 0
M  V30 2308 H 213.744 -0.316886 0.676456 0
M  V30 2309 H 216.406 -0.132608 1.94448 0
M  V30 2310 H 215.502 -1.40814 2.78528 0
M  V30 2311 N 215.803 -1.52179 -0.40978 0
M  V30 2312 C 217.033 -1.69807 -1.17682 0
M  V30 2313 C 217.441 -0.406908 -1.84773 0
M  V30 2314 O 216.784 0.626863 -1.72673 0
M  V30 2315 C 216.846 -2.77712 -2.2829 0
M  V30 2316 C 216.51 -4.19481 -1.81341 0
M  V30 2317 C 217.507 -5.03345 -1.30154 0
M  V30 2318 C 215.192 -4.65713 -1.88194 0
M  V30 2319 C 217.186 -6.31511 -0.864416 0
M  V30 2320 C 214.873 -5.93869 -1.44093 0
M  V30 2321 C 215.871 -6.76597 -0.933023 0
M  V30 2322 O 215.559 -8.02354 -0.49838 0
M  V30 2323 H 215.291 -0.572372 -0.359675 0
M  V30 2324 H 217.845 -1.99511 -0.488311 0
M  V30 2325 H 216.075 -2.43383 -3.00502 0
M  V30 2326 H 217.764 -2.83946 -2.90051 0
M  V30 2327 H 218.53 -4.68819 -1.24232 0
M  V30 2328 H 214.409 -4.01424 -2.26671 0
M  V30 2329 H 217.953 -6.96033 -0.467286 0
M  V30 2330 H 213.85 -6.27903 -1.49694 0
M  V30 2331 H 214.618 -8.16135 -0.621747 0
M  V30 2332 N 217.281 0.66697 -1.42791 0
M  V30 2333 C 218.527 1.4291 -1.43891 0
M  V30 2334 C 218.86 1.94114 -0.0578972 0
M  V30 2335 O 218.135 1.71414 0.91911 0
M  V30 2336 C 218.418 2.62049 -2.46987 0
M  V30 2337 C 218.271 2.16426 -3.94309 0
M  V30 2338 C 219.59 3.64266 -2.46978 0
M  V30 2339 H 216.709 0.518306 -0.523954 0
M  V30 2340 H 219.351 0.757321 -1.74255 0
M  V30 2341 H 217.501 3.19361 -2.21225 0
M  V30 2342 H 219.173 1.64221 -4.31079 0
M  V30 2343 H 217.416 1.47925 -4.078 0
M  V30 2344 H 218.087 3.02038 -4.62036 0
M  V30 2345 H 220.563 3.16686 -2.69906 0
M  V30 2346 H 219.439 4.45196 -3.21079 0
M  V30 2347 H 219.7 4.15927 -1.49857 0
M  V30 2348 N 218.759 1.29093 0.90403 0
M  V30 2349 C 219.689 1.16401 2.02418 0
M  V30 2350 C 220.67 0.0593085 1.69997 0
M  V30 2351 O 221.855 0.238021 1.92736 0
M  V30 2352 C 218.985 0.835233 3.37107 0
M  V30 2353 C 217.939 1.89578 3.83724 0
M  V30 2354 C 217.265 1.42041 5.15489 0
M  V30 2355 C 218.565 3.30394 4.04521 0
M  V30 2356 H 220.259 2.10109 2.13295 0
M  V30 2357 H 217.805 1.01157 1.02486 0
M  V30 2358 H 219.758 0.733169 4.14973 0
M  V30 2359 H 218.482 -0.137543 3.2631 0
M  V30 2360 H 217.141 1.98715 3.08071 0
M  V30 2361 H 216.789 0.436426 5.01103 0
M  V30 2362 H 216.489 2.12964 5.4765 0
M  V30 2363 H 218.013 1.33176 5.959 0
M  V30 2364 H 219.427 3.24123 4.72882 0
M  V30 2365 H 217.824 3.99237 4.48029 0
M  V30 2366 H 218.894 3.73692 3.09002 0
M  V30 2367 N 220.237 -1.11381 1.11499 0
M  V30 2368 C 221.185 -2.19522 0.768956 0
M  V30 2369 C 222.179 -1.67693 -0.239857 0
M  V30 2370 O 223.385 -1.79727 -0.0990755 0
M  V30 2371 H 219.76 -0.715711 0.230786 0
M  V30 2372 H 221.731 -2.45954 1.68964 0
M  V30 2373 C 220.48 -3.46945 0.229073 0
M  V30 2374 H 219.803 -3.8718 0.996596 0
M  V30 2375 H 221.243 -4.23993 0.0251441 0
M  V30 2376 C 219.702 -3.2042 -1.04079 0
M  V30 2377 O 220.232 -3.41178 -2.12038 0
M  V30 2378 N 218.438 -2.74151 -0.963823 0
M  V30 2379 H 217.985 -2.57459 -0.0851722 0
M  V30 2380 H 217.943 -2.56781 -1.81414 0
M  V30 2381 N 221.715 -0.905404 -1.28997 0
M  V30 2382 C 222.992 -0.453513 -1.9027 0
M  V30 2383 C 223.372 1.06721 -1.82137 0
M  V30 2384 O 222.72 1.91159 -1.25182 0
M  V30 2385 C 222.93 -0.974494 -3.35119 0
M  V30 2386 C 224.278 -1.0216 -4.12127 0
M  V30 2387 O 225.302 -0.922557 -3.44046 0
M  V30 2388 O 224.161 -1.17121 -5.33802 0
M  V30 2389 H 221.255 -0.142347 -0.814657 0
M  V30 2390 H 223.801 -0.995642 -1.37423 0
M  V30 2391 H 222.573 -2.01848 -3.35221 0
M  V30 2392 H 222.196 -0.412706 -3.95452 0
M  V30 2393 N 223.193 1.4272 -0.668489 0
M  V30 2394 C 224.439 2.01923 -0.188419 0
M  V30 2395 C 224.772 1.52704 1.19979 0
M  V30 2396 O 224.047 0.726566 1.8042 0
M  V30 2397 C 224.33 3.59451 -0.216085 0
M  V30 2398 C 224.183 4.18864 -1.6393 0
M  V30 2399 C 225.502 4.37903 0.439179 0
M  V30 2400 H 222.621 0.733674 -0.0699412 0
M  V30 2401 H 225.263 1.69822 -0.852076 0
M  V30 2402 H 223.413 3.86929 0.349012 0
M  V30 2403 H 225.085 4.02362 -2.25616 0
M  V30 2404 H 223.328 3.74933 -2.18193 0
M  V30 2405 H 223.999 5.27987 -1.61039 0
M  V30 2406 H 226.475 4.16079 -0.0417878 0
M  V30 2407 H 225.351 5.47519 0.389157 0
M  V30 2408 H 225.612 4.15303 1.51577 0
M  V30 2409 N 224.671 0.411399 1.52136 0
M  V30 2410 C 225.896 -0.165538 2.06738 0
M  V30 2411 C 226.321 -1.379 1.27926 0
M  V30 2412 O 225.679 -1.78628 0.310114 0
M  V30 2413 C 225.727 -0.492124 3.57226 0
M  V30 2414 O 224.831 -1.58276 3.80818 0
M  V30 2415 H 224.172 -0.0132132 0.663869 0
M  V30 2416 H 226.702 0.585253 1.96051 0
M  V30 2417 H 226.712 -0.750104 4.01045 0
M  V30 2418 H 225.387 0.394922 4.14021 0
M  V30 2419 H 223.964 -1.31677 3.48877 0
M  V30 2420 N 226.149 -1.5696 0.141893 0
M  V30 2421 C 227.398 -1.95135 -0.510427 0
M  V30 2422 C 227.711 -1.02896 -1.66348 0
M  V30 2423 O 228.917 -1.30629 -2.38009 0
M  V30 2424 C 227.373 -3.46876 -0.959427 0
M  V30 2425 C 226.981 -4.47691 0.166419 0
M  V30 2426 C 228.725 -3.93927 -1.58183 0
M  V30 2427 C 226.632 -5.90636 -0.300565 0
M  V30 2428 H 225.562 -0.728494 -0.194454 0
M  V30 2429 H 228.213 -1.8211 0.22542 0
M  V30 2430 H 226.595 -3.55215 -1.75038 0
M  V30 2431 H 227.769 -4.51043 0.94325 0
M  V30 2432 H 226.084 -4.10527 0.696905 0
M  V30 2433 H 228.681 -4.98158 -1.94275 0
M  V30 2434 H 229.024 -3.3519 -2.46888 0
M  V30 2435 H 229.557 -3.88484 -0.855863 0
M  V30 2436 H 226.296 -6.5318 0.550989 0
M  V30 2437 H 225.816 -5.90655 -1.04338 0
M  V30 2438 H 227.495 -6.42588 -0.754265 0
M  V30 2439 N 227.627 0.131896 -1.57047 0
M  V30 2440 C 228.904 0.871495 -1.75112 0
M  V30 2441 C 229.284 1.9866 -0.713949 0
M  V30 2442 O 228.632 2.26965 0.264447 0
M  V30 2443 C 228.842 1.40007 -3.19686 0
M  V30 2444 C 230.19 1.85752 -3.81813 0
M  V30 2445 O 231.214 1.49715 -3.23209 0
M  V30 2446 O 230.073 2.5226 -4.84796 0
M  V30 2447 H 227.167 0.412919 -0.716538 0
M  V30 2448 H 229.713 0.116641 -1.69299 0
M  V30 2449 H 228.485 0.599404 -3.86682 0
M  V30 2450 H 228.108 2.218 -3.29986 0
M  V30 2451 N 229.106 1.52395 0.401703 0
M  V30 2452 C 230.352 1.67065 1.14966 0
M  V30 2453 C 230.685 0.403052 1.89971 0
M  V30 2454 O 229.96 -0.598774 1.85054 0
M  V30 2455 C 230.243 2.8975 2.13815 0
M  V30 2456 C 230.096 4.26578 1.42658 0
M  V30 2457 C 231.415 3.07965 3.14397 0
M  V30 2458 H 228.534 0.607968 0.416587 0
M  V30 2459 H 231.176 1.84965 0.434511 0
M  V30 2460 H 229.326 2.74619 2.74803 0
M  V30 2461 H 230.998 4.53451 0.847329 0
M  V30 2462 H 229.241 4.27639 0.72849 0
M  V30 2463 H 229.912 5.08483 2.14823 0
M  V30 2464 H 232.388 3.22043 2.63491 0
M  V30 2465 H 231.264 3.95308 3.80819 0
M  V30 2466 H 231.525 2.21611 3.82545 0
M  V30 2467 N 230.584 -0.659388 1.43143 0
M  V30 2468 C 231.514 -1.78422 1.50625 0
M  V30 2469 C 232.495 -1.66216 0.361443 0
M  V30 2470 O 233.68 -1.85404 0.577834 0
M  V30 2471 C 230.81 -3.16815 1.42287 0
M  V30 2472 C 229.764 -3.43777 2.54954 0
M  V30 2473 C 229.09 -4.81905 2.31671 0
M  V30 2474 C 230.39 -3.39134 3.97222 0
M  V30 2475 H 232.084 -1.72417 2.44771 0
M  V30 2476 H 229.63 -0.828084 1.17808 0
M  V30 2477 H 231.583 -3.95253 1.46127 0
M  V30 2478 H 230.307 -3.23534 0.446435 0
M  V30 2479 H 228.966 -2.67707 2.50457 0
M  V30 2480 H 228.614 -4.85294 1.32284 0
M  V30 2481 H 228.314 -5.00906 3.07192 0
M  V30 2482 H 229.838 -5.62609 2.37284 0
M  V30 2483 H 231.252 -4.07518 4.03239 0
M  V30 2484 H 229.649 -3.69671 4.72719 0
M  V30 2485 H 230.719 -2.37426 4.22797 0
M  V30 2486 N 232.062 -1.29571 -0.897171 0
M  V30 2487 C 233.308 -1.17863 -1.65034 0
M  V30 2488 C 233.641 0.268729 -1.92332 0
M  V30 2489 O 232.916 1.19378 -1.53555 0
M  V30 2490 C 233.199 -1.995 -2.99786 0
M  V30 2491 C 233.052 -3.5239 -2.79538 0
M  V30 2492 C 234.371 -1.82335 -4.00552 0
M  V30 2493 H 231.49 -0.429528 -0.598895 0
M  V30 2494 H 234.132 -1.59072 -1.03905 0
M  V30 2495 H 232.282 -1.64485 -3.51962 0
M  V30 2496 H 233.954 -3.97401 -2.34244 0
M  V30 2497 H 232.197 -3.77187 -2.14273 0
M  V30 2498 H 232.868 -4.04787 -3.75302 0
M  V30 2499 H 235.344 -2.12924 -3.57495 0
M  V30 2500 H 234.22 -2.41801 -4.92771 0
M  V30 2501 H 234.481 -0.779209 -4.35179 0
M  V30 2502 N 233.54 1.10788 -1.12088 0
M  V30 2503 C 234.956 1.34691 -0.856186 0
M  V30 2504 C 235.156 1.94791 0.515615 0
M  V30 2505 O 234.212 2.18524 1.26505 0
M  V30 2506 C 235.525 2.27208 -1.9697 0
M  V30 2507 C 237.073 2.40755 -2.00016 0
M  V30 2508 C 237.548 3.36598 -3.1059 0
M  V30 2509 N 239.039 3.44164 -3.10008 0
M  V30 2510 C 239.774 4.18284 -3.92206 0
M  V30 2511 N 239.27 4.95322 -4.84384 0
M  V30 2512 N 241.063 4.13865 -3.80357 0
M  V30 2513 H 233.214 0.70144 -2.00483 0
M  V30 2514 H 235.477 0.371405 -0.872217 0
M  V30 2515 H 235.183 1.90251 -2.958 0
M  V30 2516 H 235.057 3.27485 -1.87172 0
M  V30 2517 H 237.444 2.76982 -1.01808 0
M  V30 2518 H 237.525 1.40305 -2.13888 0
M  V30 2519 H 237.169 3.01096 -4.09028 0
M  V30 2520 H 237.099 4.36918 -2.93956 0
M  V30 2521 H 239.59 2.8922 -2.43228 0
M  V30 2522 H 239.903 5.49267 -5.43623 0
M  V30 2523 H 238.248 4.94459 -4.884 0
M  V30 2524 H 241.439 3.52773 -3.07683 0
M  V30 2525 H 241.612 4.71372 -4.44649 0
M  V30 2526 N 235.018 0.912232 1.28515 0
M  V30 2527 C 235.95 0.35676 2.26406 0
M  V30 2528 C 236.963 -0.503933 1.54804 0
M  V30 2529 O 238.152 -0.319059 1.75625 0
M  V30 2530 C 235.252 -0.508825 3.35058 0
M  V30 2531 C 234.425 0.329007 4.36161 0
M  V30 2532 C 233.484 -0.471422 5.24084 0
M  V30 2533 O 232.51 0.115482 5.69083 0
M  V30 2534 N 233.712 -1.77479 5.52704 0
M  V30 2535 H 236.477 1.19818 2.74707 0
M  V30 2536 H 234.038 0.778022 1.4198 0
M  V30 2537 H 236.03 -1.051 3.90815 0
M  V30 2538 H 234.6 -1.25095 2.86478 0
M  V30 2539 H 233.82 1.05256 3.79888 0
M  V30 2540 H 235.108 0.90234 5.00735 0
M  V30 2541 H 234.506 -2.27417 5.17975 0
M  V30 2542 H 233.063 -2.26382 6.11224 0
M  V30 2543 N 236.496 -1.42363 0.676048 0
M  V30 2544 C 237.459 -2.29199 0.00766941 0
M  V30 2545 C 238.459 -1.43389 -0.727745 0
M  V30 2546 O 239.649 -1.64764 -0.56556 0
M  V30 2547 C 236.781 -3.2591 -0.999785 0
M  V30 2548 H 237.974 -2.89794 0.771988 0
M  V30 2549 H 235.527 -1.50024 0.438468 0
M  V30 2550 H 236.262 -2.70256 -1.79255 0
M  V30 2551 H 236.047 -3.89202 -0.475829 0
M  V30 2552 H 237.537 -3.91028 -1.46583 0
M  V30 2553 N 237.974 -0.419461 -1.51915 0
M  V30 2554 C 238.904 0.391813 -2.30189 0
M  V30 2555 C 239.885 1.03699 -1.34836 0
M  V30 2556 O 241.07 1.04403 -1.63748 0
M  V30 2557 C 238.2 1.50312 -3.13087 0
M  V30 2558 C 237.154 0.9824 -4.16573 0
M  V30 2559 C 236.48 2.18809 -4.8788 0
M  V30 2560 C 237.78 0.0292356 -5.22292 0
M  V30 2561 H 239.474 -0.26135 -2.98257 0
M  V30 2562 H 237.02 -0.127134 -1.43438 0
M  V30 2563 H 238.973 2.07773 -3.66617 0
M  V30 2564 H 237.697 2.18431 -2.42807 0
M  V30 2565 H 236.356 0.430119 -3.64068 0
M  V30 2566 H 236.004 2.85507 -4.14119 0
M  V30 2567 H 235.704 1.84615 -5.57845 0
M  V30 2568 H 237.228 2.76858 -5.44226 0
M  V30 2569 H 238.642 0.512976 -5.71 0
M  V30 2570 H 237.039 -0.2244 -5.9968 0
M  V30 2571 H 238.109 -0.912931 -4.76228 0
M  V30 2572 N 239.452 1.56882 -0.150215 0
M  V30 2573 C 240.677 2.01027 0.510184 0
M  V30 2574 C 241.102 1.02966 1.57415 0
M  V30 2575 O 240.46 0.00590158 1.81299 0
M  V30 2576 C 240.508 3.43899 1.08472 0
M  V30 2577 O 239.612 3.4885 2.19948 0
M  V30 2578 H 238.953 0.652233 0.124451 0
M  V30 2579 H 241.483 2.03093 -0.247894 0
M  V30 2580 H 241.493 3.82766 1.41259 0
M  V30 2581 H 240.168 4.14776 0.305582 0
M  V30 2582 H 238.745 3.21827 1.88366 0
M  V30 2583 N 240.93 -0.123565 1.57115 0
M  V30 2584 C 241.88 -1.1575 1.96433 0
M  V30 2585 C 242.864 -1.37313 0.838686 0
M  V30 2586 O 244.056 -1.38482 1.10235 0
M  V30 2587 C 241.185 -2.48526 2.36833 0
M  V30 2588 C 240.271 -2.30457 3.5602 0
M  V30 2589 N 240.662 -1.8219 4.71848 0
M  V30 2590 C 238.96 -2.61129 3.61563 0
M  V30 2591 C 239.661 -1.77721 5.53886 0
M  V30 2592 N 238.637 -2.21899 4.96248 0
M  V30 2593 H 242.439 -0.776797 2.83449 0
M  V30 2594 H 239.953 -0.331364 1.58983 0
M  V30 2595 H 241.95 -3.233 2.63216 0
M  V30 2596 H 240.61 -2.87358 1.5118 0
M  V30 2597 H 241.621 -1.51805 4.95152 0
M  V30 2598 H 238.298 -3.03678 2.86507 0
M  V30 2599 H 239.688 -1.41697 6.56789 0
M  V30 2600 N 242.408 -1.52605 -0.393616 0
M  V30 2601 C 243.371 -1.76415 -1.46323 0
M  V30 2602 C 244.371 -0.634126 -1.47768 0
M  V30 2603 O 245.561 -0.902142 -1.4902 0
M  V30 2604 C 242.693 -1.8607 -2.85641 0
M  V30 2605 H 243.886 -2.71916 -1.26498 0
M  V30 2606 H 241.439 -1.43257 -0.625073 0
M  V30 2607 H 242.174 -0.925378 -3.10817 0
M  V30 2608 H 241.959 -2.68235 -2.85993 0
M  V30 2609 H 243.449 -2.06179 -3.63153 0
M  V30 2610 N 243.887 0.651787 -1.4349 0
M  V30 2611 C 244.797 1.79368 -1.5121 0
M  V30 2612 C 245.813 1.69361 -0.399093 0
M  V30 2613 O 246.989 1.90505 -0.653431 0
M  V30 2614 C 244.054 3.15653 -1.43401 0
M  V30 2615 C 243.115 3.37446 -2.65384 0
M  V30 2616 C 242.348 4.67229 -2.57939 0
M  V30 2617 O 242.571 5.46676 -1.62792 0
M  V30 2618 O 241.505 4.90773 -3.48462 0
M  V30 2619 H 245.331 1.7581 -2.47638 0
M  V30 2620 H 242.916 0.810447 -1.25507 0
M  V30 2621 H 244.798 3.96935 -1.41494 0
M  V30 2622 H 243.473 3.19798 -0.501085 0
M  V30 2623 H 242.38 2.55923 -2.72863 0
M  V30 2624 H 243.713 3.38148 -3.57654 0
M  V30 2625 N 245.365 1.30045 0.890287 0
M  V30 2626 C 246.328 1.15963 1.977 0
M  V30 2627 C 247.328 0.0923777 1.60534 0
M  V30 2628 O 248.518 0.340071 1.70848 0
M  V30 2629 C 245.65 0.775451 3.31963 0
M  V30 2630 H 246.843 2.12502 2.11619 0
M  V30 2631 H 244.396 1.13366 1.07601 0
M  V30 2632 H 245.131 -0.189671 3.23745 0
M  V30 2633 H 244.916 1.54668 3.60306 0
M  V30 2634 H 246.406 0.700251 4.11687 0
M  V30 2635 N 246.843 -1.10192 1.12674 0
M  V30 2636 C 248.091 -1.81845 0.881861 0
M  V30 2637 C 248.412 -1.85737 -0.593867 0
M  V30 2638 O 247.682 -1.33724 -1.4316 0
M  V30 2639 H 246.262 -0.673432 0.323261 0
M  V30 2640 H 248.924 -1.33316 1.42172 0
M  V30 2641 H 248.02 -2.85288 1.2656 0
M  V30 2642 N 248.321 -0.919034 -1.28029 0
M  V30 2643 C 249.284 -0.416182 -2.2539 0
M  V30 2644 C 250.284 0.460438 -1.54067 0
M  V30 2645 O 251.474 0.262744 -1.72207 0
M  V30 2646 C 248.606 0.402707 -3.38513 0
M  V30 2647 H 249.799 -1.27629 -2.71387 0
M  V30 2648 H 247.352 -0.698919 -1.39803 0
M  V30 2649 H 248.087 1.282 -2.97885 0
M  V30 2650 H 247.872 -0.225698 -3.9145 0
M  V30 2651 H 249.362 0.745191 -4.10897 0
M  V30 2652 N 249.799 1.42003 -0.683588 0
M  V30 2653 C 250.731 2.29183 0.0283068 0
M  V30 2654 C 251.744 1.4415 0.756611 0
M  V30 2655 O 252.933 1.67779 0.609306 0
M  V30 2656 C 250.033 3.21765 1.06398 0
M  V30 2657 C 249.206 4.35496 0.407723 0
M  V30 2658 C 248.265 5.08737 1.34437 0
M  V30 2659 O 247.291 5.62948 0.841318 0
M  V30 2660 N 248.493 5.15075 2.67728 0
M  V30 2661 H 251.258 2.9092 -0.720105 0
M  V30 2662 H 248.819 1.53025 -0.528682 0
M  V30 2663 H 250.811 3.6763 1.69204 0
M  V30 2664 H 249.381 2.61418 1.71404 0
M  V30 2665 H 248.601 3.92165 -0.400012 0
M  V30 2666 H 249.889 5.08776 -0.0490956 0
M  V30 2667 H 249.287 4.72457 3.11129 0
M  V30 2668 H 247.844 5.64556 3.2576 0
M  V30 2669 N 251.277 0.427512 1.51691 0
M  V30 2670 C 252.523 -0.142439 2.02299 0
M  V30 2671 C 252.856 -1.43214 1.31162 0
M  V30 2672 O 252.131 -1.89833 0.423511 0
M  V30 2673 C 252.414 -0.371301 3.58181 0
M  V30 2674 C 252.267 0.936358 4.39946 0
M  V30 2675 C 253.586 -1.14542 4.24933 0
M  V30 2676 H 250.705 -0.0502937 0.735282 0
M  V30 2677 H 253.347 0.564584 1.81418 0
M  V30 2678 H 251.497 -0.973559 3.76104 0
M  V30 2679 H 253.169 1.57184 4.33694 0
M  V30 2680 H 251.412 1.5432 4.05423 0
M  V30 2681 H 252.083 0.730388 5.47147 0
M  V30 2682 H 254.559 -0.635362 4.11221 0
M  V30 2683 H 253.435 -1.27431 5.33903 0
M  V30 2684 H 253.696 -2.17093 3.85127 0
M  V30 2685 N 252.755 -1.56801 0.158532 0
M  V30 2686 C 254.001 -1.96781 -0.490405 0
M  V30 2687 C 254.334 -1.04397 -1.63753 0
M  V30 2688 O 253.609 -0.0885805 -1.94298 0
M  V30 2689 C 253.892 -3.4635 -0.985594 0
M  V30 2690 C 253.745 -4.49512 0.160824 0
M  V30 2691 C 255.064 -3.98697 -1.86355 0
M  V30 2692 H 252.183 -0.715482 -0.176788 0
M  V30 2693 H 254.825 -1.88451 0.242088 0
M  V30 2694 H 252.975 -3.53579 -1.60978 0
M  V30 2695 H 254.647 -4.54353 0.797537 0
M  V30 2696 H 252.89 -4.26013 0.818256 0
M  V30 2697 H 253.561 -5.51531 -0.227569 0
M  V30 2698 H 256.037 -3.94019 -1.33746 0
M  V30 2699 H 254.913 -5.03792 -2.17909 0
M  V30 2700 H 255.174 -3.41744 -2.8047 0
M  V30 2701 N 254.233 0.115231 -1.57178 0
M  V30 2702 C 255.196 1.12526 -1.99676 0
M  V30 2703 C 256.196 1.34095 -0.88742 0
M  V30 2704 O 257.386 1.30548 -1.15337 0
M  V30 2705 C 254.518 2.4789 -2.34015 0
M  V30 2706 H 255.711 0.759912 -2.90113 0
M  V30 2707 H 253.264 0.359648 -1.52106 0
M  V30 2708 H 253.999 2.89339 -1.4647 0
M  V30 2709 H 253.784 2.33588 -3.14927 0
M  V30 2710 H 255.274 3.20575 -2.67622 0
M  V30 2711 N 255.711 1.52812 0.385517 0
M  V30 2712 C 257.122 1.5993 0.963293 0
M  V30 2713 C 257.473 0.454302 1.90868 0
M  V30 2714 O 256.598 -0.422132 2.12243 0
M  V30 2715 C 257.193 2.89871 1.75387 0
M  V30 2716 C 255.752 2.99389 2.28129 0
M  V30 2717 C 254.899 2.55071 1.08783 0
M  V30 2718 H 257.85 1.5784 0.164948 0
M  V30 2719 H 257.871 2.76553 2.61341 0
M  V30 2720 H 257.383 3.73186 1.06554 0
M  V30 2721 H 255.484 2.20619 3.00263 0
M  V30 2722 H 255.597 4.04096 2.57377 0
M  V30 2723 H 253.961 2.09473 1.4489 0
M  V30 2724 H 254.744 3.40785 0.414807 0
M  V30 2725 N 257.189 -0.644168 1.43834 0
M  V30 2726 C 258.414 -1.43642 1.49605 0
M  V30 2727 C 258.839 -1.8773 0.117913 0
M  V30 2728 O 258.197 -1.57938 -0.890239 0
M  V30 2729 C 258.245 -2.6416 2.45463 0
M  V30 2730 O 257.349 -3.63538 1.94714 0
M  V30 2731 H 256.69 -0.430329 0.50568 0
M  V30 2732 H 259.22 -0.787448 1.8884 0
M  V30 2733 H 259.23 -3.11864 2.63068 0
M  V30 2734 H 257.905 -2.31414 3.45572 0
M  V30 2735 H 256.482 -3.2273 1.86814 0
M  V30 2736 N 258.668 -1.30515 -0.883378 0
M  V30 2737 C 259.945 -1.10086 -1.6168 0
M  V30 2738 C 260.325 0.349269 -2.08191 0
M  V30 2739 O 259.673 1.34105 -1.85008 0
M  V30 2740 C 259.883 -2.10315 -2.78511 0
M  V30 2741 C 261.231 -2.42119 -3.48803 0
M  V30 2742 O 262.255 -2.08638 -2.88702 0
M  V30 2743 O 261.114 -2.99396 -4.57192 0
M  V30 2744 H 258.208 -0.422907 -0.710689 0
M  V30 2745 H 260.754 -1.41947 -0.930015 0
M  V30 2746 H 259.526 -3.07917 -2.41459 0
M  V30 2747 H 259.149 -1.79282 -3.54886 0
M  V30 2748 N 260.146 1.09593 -1.13257 0
M  V30 2749 C 261.079 2.15451 -0.752061 0
M  V30 2750 C 262.057 1.60493 0.260913 0
M  V30 2751 O 263.241 1.8788 0.152819 0
M  V30 2752 C 260.368 3.38506 -0.114594 0
M  V30 2753 C 259.414 4.12183 -1.09579 0
M  V30 2754 S 260.247 4.6661 -2.62745 0
M  V30 2755 C 261.403 5.92966 -2.00354 0
M  V30 2756 H 261.636 2.47395 -1.64872 0
M  V30 2757 H 259.169 1.21515 -0.952545 0
M  V30 2758 H 261.127 4.09757 0.246808 0
M  V30 2759 H 259.788 3.04784 0.759309 0
M  V30 2760 H 258.981 5.00445 -0.597545 0
M  V30 2761 H 258.583 3.46785 -1.40057 0
M  V30 2762 H 260.875 6.63882 -1.35156 0
M  V30 2763 H 261.818 6.47467 -2.86691 0
M  V30 2764 H 262.226 5.45405 -1.4558 0
M  V30 2765 N 261.624 0.925811 1.2754 0
M  V30 2766 C 262.557 0.367836 2.25216 0
M  V30 2767 C 263.535 -0.534738 1.53556 0
M  V30 2768 O 264.719 -0.475672 1.824 0
M  V30 2769 C 261.846 -0.47298 3.35381 0
M  V30 2770 C 260.892 0.365898 4.24928 0
M  V30 2771 S 261.725 1.78025 5.05042 0
M  V30 2772 C 262.881 0.947068 6.18693 0
M  V30 2773 H 263.114 1.19568 2.72196 0
M  V30 2774 H 260.647 0.727867 1.36167 0
M  V30 2775 H 262.605 -0.952242 3.99303 0
M  V30 2776 H 261.266 -1.27533 2.87044 0
M  V30 2777 H 260.459 -0.277582 5.03235 0
M  V30 2778 H 260.061 0.779261 3.65792 0
M  V30 2779 H 262.353 0.182201 6.77255 0
M  V30 2780 H 263.296 1.70309 6.87314 0
M  V30 2781 H 263.704 0.489913 5.6237 0
M  V30 2782 N 263.102 -1.41638 0.69111 0
M  V30 2783 C 264.379 -1.95036 0.148421 0
M  V30 2784 C 264.759 -1.63072 -1.34055 0
M  V30 2785 O 264.107 -0.93538 -2.08478 0
M  V30 2786 C 264.317 -3.46279 0.434951 0
M  V30 2787 C 265.665 -4.23069 0.360275 0
M  V30 2788 O 266.689 -3.54277 0.369613 0
M  V30 2789 O 265.548 -5.45583 0.316534 0
M  V30 2790 H 262.642 -0.826908 0.0123654 0
M  V30 2791 H 265.188 -1.5138 0.766963 0
M  V30 2792 H 263.96 -3.6281 1.46576 0
M  V30 2793 H 263.583 -3.97019 -0.214787 0
M  V30 2794 N 264.58 -0.43555 -1.51462 0
M  V30 2795 C 265.828 0.131254 -2.01673 0
M  V30 2796 C 266.149 1.43368 -1.32177 0
M  V30 2797 O 265.419 1.90524 -0.455769 0
M  V30 2798 H 263.999 0.0514954 -0.745223 0
M  V30 2799 H 266.661 -0.577847 -1.86137 0
M  V30 2800 H 265.757 0.308446 -3.10572 0
M  V30 2801 N 266.058 1.56714 -0.166846 0
M  V30 2802 C 267.474 1.58473 0.189372 0
M  V30 2803 C 267.674 1.18201 1.63189 0
M  V30 2804 O 266.73 0.891528 2.36237 0
M  V30 2805 C 268.043 3.00573 -0.0873872 0
M  V30 2806 C 269.591 3.1299 -0.0252443 0
M  V30 2807 C 270.066 4.57174 -0.274934 0
M  V30 2808 N 271.557 4.62665 -0.222553 0
M  V30 2809 C 272.292 5.72072 -0.389985 0
M  V30 2810 N 271.788 6.90054 -0.616229 0
M  V30 2811 N 273.581 5.61153 -0.326202 0
M  V30 2812 H 265.732 1.8118 -1.10849 0
M  V30 2813 H 267.995 0.839525 -0.440342 0
M  V30 2814 H 267.701 3.34497 -1.0865 0
M  V30 2815 H 267.575 3.72019 0.623037 0
M  V30 2816 H 269.962 2.78895 0.96444 0
M  V30 2817 H 270.043 2.43989 -0.768309 0
M  V30 2818 H 269.687 4.91976 -1.26181 0
M  V30 2819 H 269.617 5.24328 0.48869 0
M  V30 2820 H 272.108 3.77863 -0.0531512 0
M  V30 2821 H 272.421 7.69311 -0.733559 0
M  V30 2822 H 270.766 6.91927 -0.652791 0
M  V30 2823 H 273.957 4.67859 -0.150072 0
M  V30 2824 H 274.13 6.46364 -0.460116 0
M  V30 2825 N 267.536 -0.106894 1.57237 0
M  V30 2826 C 268.785 -0.811163 1.8467 0
M  V30 2827 C 269.098 -1.80469 0.754342 0
M  V30 2828 O 270.304 -2.55601 0.915439 0
M  V30 2829 C 268.76 -1.49337 3.27454 0
M  V30 2830 C 268.368 -0.540217 4.44731 0
M  V30 2831 C 270.112 -2.18206 3.64124 0
M  V30 2832 C 268.019 -1.22634 5.78545 0
M  V30 2833 H 266.949 -0.306679 0.688813 0
M  V30 2834 H 269.6 -0.0639887 1.83388 0
M  V30 2835 H 267.982 -2.2876 3.23241 0
M  V30 2836 H 269.156 0.221659 4.60267 0
M  V30 2837 H 267.471 0.042146 4.16379 0
M  V30 2838 H 270.068 -2.70253 4.61376 0
M  V30 2839 H 270.411 -2.96562 2.92158 0
M  V30 2840 H 270.944 -1.45658 3.70174 0
M  V30 2841 H 267.683 -0.483832 6.53712 0
M  V30 2842 H 267.203 -1.95993 5.66874 0
M  V30 2843 H 268.882 -1.75615 6.2271 0
M  V30 2844 N 269.014 -1.53014 -0.377408 0
M  V30 2845 C 270.262 -1.6829 -1.11906 0
M  V30 2846 C 270.583 -0.431206 -1.90173 0
M  V30 2847 O 269.853 0.554595 -1.87886 0
M  V30 2848 H 268.433 -0.620371 -0.416112 0
M  V30 2849 H 271.095 -1.90167 -0.426893 0
M  V30 2850 H 270.191 -2.53862 -1.8155 0
M  V30 2851 N 270.492 0.636531 -1.44174 0
M  V30 2852 C 271.455 1.73063 -1.50273 0
M  V30 2853 C 272.455 1.56113 -0.385397 0
M  V30 2854 O 273.645 1.61707 -0.64781 0
M  V30 2855 C 270.777 3.12096 -1.37145 0
M  V30 2856 H 271.97 1.69031 -2.47727 0
M  V30 2857 H 269.523 0.849706 -1.31186 0
M  V30 2858 H 270.258 3.21728 -0.407636 0
M  V30 2859 H 270.043 3.25805 -2.18159 0
M  V30 2860 H 271.533 3.91846 -1.44382 0
M  V30 2861 N 271.97 1.30982 0.876444 0
M  V30 2862 C 273.219 1.19658 1.62373 0
M  V30 2863 C 273.532 -0.245636 1.94052 0
M  V30 2864 O 274.738 -0.48049 2.67214 0
M  V30 2865 C 273.194 2.09433 2.92687 0
M  V30 2866 C 272.802 3.58613 2.68516 0
M  V30 2867 C 274.546 2.06893 3.70669 0
M  V30 2868 C 272.453 4.40416 3.94699 0
M  V30 2869 H 271.383 0.444268 0.609214 0
M  V30 2870 H 274.034 1.55791 0.969605 0
M  V30 2871 H 272.416 1.66191 3.59439 0
M  V30 2872 H 273.59 4.10058 2.10212 0
M  V30 2873 H 271.905 3.63063 2.03898 0
M  V30 2874 H 274.502 2.65258 4.64265 0
M  V30 2875 H 274.845 1.05448 4.02724 0
M  V30 2876 H 275.378 2.48301 3.10792 0
M  V30 2877 H 272.117 5.42591 3.67798 0
M  V30 2878 H 271.637 3.93731 4.52477 0
M  V30 2879 H 273.316 4.52294 4.62644 0
M  V30 2880 N 273.449 -1.08991 1.13837 0
M  V30 2881 C 274.865 -1.33312 0.877506 0
M  V30 2882 C 275.065 -1.95587 -0.48456 0
M  V30 2883 O 274.121 -2.20509 -1.23013 0
M  V30 2884 C 275.434 -2.24045 2.0056 0
M  V30 2885 C 276.982 -2.37542 2.03821 0
M  V30 2886 C 277.457 -3.31614 3.15905 0
M  V30 2887 N 278.948 -3.39189 3.15445 0
M  V30 2888 C 279.683 -4.11992 3.98811 0
M  V30 2889 N 279.179 -4.87553 4.92203 0
M  V30 2890 N 280.972 -4.07762 3.86894 0
M  V30 2891 H 273.123 -0.669456 2.01574 0
M  V30 2892 H 275.386 -0.357482 0.878015 0
M  V30 2893 H 275.092 -1.85521 2.98789 0
M  V30 2894 H 274.966 -3.24466 1.92359 0
M  V30 2895 H 277.353 -2.75327 1.06202 0
M  V30 2896 H 277.434 -1.36884 2.16093 0
M  V30 2897 H 277.078 -2.94551 4.13766 0
M  V30 2898 H 277.008 -4.32186 3.0087 0
M  V30 2899 H 279.499 -2.85314 2.47799 0
M  V30 2900 H 279.812 -5.40549 5.52292 0
M  V30 2901 H 278.157 -4.86627 4.96205 0
M  V30 2902 H 281.348 -3.47833 3.13257 0
M  V30 2903 H 281.521 -4.64238 4.52092 0
M  V30 2904 N 274.927 -0.932562 -1.27047 0
M  V30 2905 C 275.837 -0.441219 -2.30414 0
M  V30 2906 C 276.853 0.480525 -1.67233 0
M  V30 2907 O 278.029 0.362151 -1.98117 0
M  V30 2908 C 275.094 0.293651 -3.45454 0
M  V30 2909 C 274.155 -0.663601 -4.2414 0
M  V30 2910 C 273.388 0.0362932 -5.33688 0
M  V30 2911 O 273.611 1.2548 -5.56427 0
M  V30 2912 O 272.545 -0.638015 -5.98509 0
M  V30 2913 H 276.371 -1.29962 -2.74488 0
M  V30 2914 H 273.956 -0.6981 -1.32087 0
M  V30 2915 H 275.838 0.707951 -4.15411 0
M  V30 2916 H 274.513 1.12758 -3.03426 0
M  V30 2917 H 273.42 -1.12768 -3.56699 0
M  V30 2918 H 274.753 -1.46489 -4.69896 0
M  V30 2919 N 276.405 1.4127 -0.698611 0
M  V30 2920 C 277.368 2.29158 -0.044132 0
M  V30 2921 C 278.368 1.44529 0.704841 0
M  V30 2922 O 279.558 1.65643 0.539276 0
M  V30 2923 C 276.69 3.27459 0.947809 0
M  V30 2924 H 277.883 2.88529 -0.817994 0
M  V30 2925 H 275.436 1.49307 -0.46228 0
M  V30 2926 H 276.171 2.73073 1.74933 0
M  V30 2927 H 275.956 3.8991 0.41385 0
M  V30 2928 H 277.446 3.93311 1.40344 0
M  V30 2929 N 277.883 0.443576 1.51229 0
M  V30 2930 C 278.813 -0.355142 2.30783 0
M  V30 2931 C 279.794 -1.0154 1.36468 0
M  V30 2932 O 280.979 -1.01785 1.65389 0
M  V30 2933 C 278.109 -1.45312 3.15439 0
M  V30 2934 C 277.063 -0.916002 4.18083 0
M  V30 2935 C 276.389 -2.1102 4.91299 0
M  V30 2936 C 277.689 0.0538602 5.22272 0
M  V30 2937 H 279.383 0.308767 2.97804 0
M  V30 2938 H 276.929 0.149937 1.43217 0
M  V30 2939 H 278.882 -2.01914 3.69876 0
M  V30 2940 H 277.606 -2.14541 2.46252 0
M  V30 2941 H 276.265 -0.372145 3.64706 0
M  V30 2942 H 275.913 -2.78882 4.18609 0
M  V30 2943 H 275.613 -1.75717 5.60712 0
M  V30 2944 H 277.137 -2.68164 5.48562 0
M  V30 2945 H 278.551 -0.422069 5.71744 0
M  V30 2946 H 276.948 0.319776 5.99247 0
M  V30 2947 H 278.018 0.98858 4.74716 0
M  V30 2948 N 279.361 -1.56624 0.175154 0
M  V30 2949 C 280.271 -2.21741 -0.766042 0
M  V30 2950 C 281.287 -1.21023 -1.25018 0
M  V30 2951 O 282.463 -1.53697 -1.3015 0
M  V30 2952 C 279.528 -2.84839 -1.97655 0
M  V30 2953 C 278.589 -4.00769 -1.53892 0
M  V30 2954 C 277.822 -4.60849 -2.69173 0
M  V30 2955 O 278.045 -4.19823 -3.86141 0
M  V30 2956 O 276.979 -5.50655 -2.43028 0
M  V30 2957 H 280.805 -3.02738 -0.241585 0
M  V30 2958 H 278.39 -1.49305 -0.053222 0
M  V30 2959 H 280.272 -3.24834 -2.68442 0
M  V30 2960 H 278.947 -2.06836 -2.48999 0
M  V30 2961 H 277.854 -3.65436 -0.80044 0
M  V30 2962 H 279.187 -4.80376 -1.07236 0
M  V30 2963 N 280.839 0.0985539 -1.57292 0
M  V30 2964 C 282.064 0.820196 -1.90493 0
M  V30 2965 C 282.489 1.71658 -0.769094 0
M  V30 2966 O 281.847 1.79133 0.279495 0
M  V30 2967 C 281.895 1.61242 -3.22542 0
M  V30 2968 O 280.999 2.72108 -3.09888 0
M  V30 2969 H 280.34 0.225547 -0.62452 0
M  V30 2970 H 282.87 0.0748159 -2.04463 0
M  V30 2971 H 282.88 1.99737 -3.55766 0
M  V30 2972 H 281.555 0.954535 -4.04798 0
M  V30 2973 H 280.132 2.36667 -2.88172 0
M  V30 2974 N 282.317 1.53212 0.369288 0
M  V30 2975 C 283.28 1.7872 1.43498 0
M  V30 2976 C 284.28 0.657554 1.46741 0
M  V30 2977 O 285.47 0.925736 1.47566 0
M  V30 2978 C 282.602 1.90591 2.82645 0
M  V30 2979 H 283.795 2.73894 1.22156 0
M  V30 2980 H 281.348 1.44233 0.602203 0
M  V30 2981 H 282.083 0.974709 3.09306 0
M  V30 2982 H 281.868 2.72751 2.8169 0
M  V30 2983 H 283.358 2.11931 3.59826 0
M  V30 2984 N 283.795 -0.628877 1.44509 0
M  V30 2985 C 285.043 -1.38565 1.4712 0
M  V30 2986 C 285.364 -1.94712 0.105899 0
M  V30 2987 O 284.634 -1.75912 -0.862079 0
M  V30 2988 H 283.214 -0.514333 0.541729 0
M  V30 2989 H 285.876 -0.740018 1.80305 0
M  V30 2990 H 284.972 -2.21583 2.19789 0
M  V30 2991 N 285.273 -1.31445 -0.869486 0
M  V30 2992 C 286.223 -1.15731 -1.96444 0
M  V30 2993 C 287.207 -0.0681855 -1.60755 0
M  V30 2994 O 288.399 -0.293154 -1.74555 0
M  V30 2995 C 285.528 -0.867255 -3.32165 0
M  V30 2996 C 284.614 -1.99738 -3.74119 0
M  V30 2997 N 285.005 -3.24447 -3.88031 0
M  V30 2998 C 283.303 -1.89723 -4.03635 0
M  V30 2999 C 284.004 -3.98374 -4.23879 0
M  V30 3000 N 282.98 -3.26547 -4.3459 0
M  V30 3001 H 286.782 -2.10296 -2.05312 0
M  V30 3002 H 284.296 -1.23009 -1.06031 0
M  V30 3003 H 286.293 -0.735668 -4.10358 0
M  V30 3004 H 284.953 0.0701614 -3.24624 0
M  V30 3005 H 285.964 -3.59557 -3.72746 0
M  V30 3006 H 282.641 -1.03449 -4.04481 0
M  V30 3007 H 284.031 -5.05844 -4.42235 0
M  V30 3008 N 286.751 1.08385 -1.14413 0
M  V30 3009 C 287.979 1.84517 -0.936001 0
M  V30 3010 C 288.394 1.81626 0.515503 0
M  V30 3011 O 287.751 1.22008 1.35721 0
M  V30 3012 C 287.802 3.32049 -1.42918 0
M  V30 3013 O 287.523 3.34951 -2.82381 0
M  V30 3014 C 289.024 4.24986 -1.26103 0
M  V30 3015 H 286.244 0.582491 -0.333084 0
M  V30 3016 H 288.788 1.36885 -1.5193 0
M  V30 3017 H 286.943 3.7707 -0.888641 0
M  V30 3018 H 287.357 4.27048 -3.04517 0
M  V30 3019 H 288.831 5.26615 -1.6547 0
M  V30 3020 H 289.308 4.38726 -0.20392 0
M  V30 3021 H 289.914 3.85791 -1.79012 0
M  V30 3022 N 288.23 0.939286 1.26551 0
M  V30 3023 C 289.178 0.43815 2.28436 0
M  V30 3024 C 290.172 -0.483587 1.62351 0
M  V30 3025 O 291.378 -0.362009 1.76322 0
M  V30 3026 H 287.753 0.123149 0.741848 0
M  V30 3027 H 289.724 1.31002 2.68106 0
M  V30 3028 C 288.473 -0.283052 3.46546 0
M  V30 3029 H 287.796 0.417043 3.97619 0
M  V30 3030 H 289.236 -0.597948 4.19763 0
M  V30 3031 C 287.695 -1.50018 3.01656 0
M  V30 3032 O 288.225 -2.59855 3.0633 0
M  V30 3033 N 286.431 -1.35608 2.57019 0
M  V30 3034 H 285.978 -0.46244 2.53415 0
M  V30 3035 H 285.936 -2.17165 2.27347 0
M  V30 3036 N 289.708 -1.40897 0.706093 0
M  V30 3037 C 290.954 -2.01352 0.241889 0
M  V30 3038 C 291.287 -1.55832 -1.15888 0
M  V30 3039 O 290.562 -0.774145 -1.7843 0
M  V30 3040 C 290.845 -3.58752 0.311311 0
M  V30 3041 C 290.698 -4.1437 1.74978 0
M  V30 3042 C 292.017 -4.38914 -0.322922 0
M  V30 3043 H 289.136 -0.731562 0.0893687 0
M  V30 3044 H 291.778 -1.67504 0.896802 0
M  V30 3045 H 289.928 -3.87718 -0.246302 0
M  V30 3046 H 291.6 -3.96239 2.36205 0
M  V30 3047 H 289.843 -3.69016 2.28057 0
M  V30 3048 H 290.514 -5.23532 1.74981 0
M  V30 3049 H 292.99 -4.15822 0.152089 0
M  V30 3050 H 291.866 -5.48358 -0.243855 0
M  V30 3051 H 292.127 -4.19176 -1.40513 0
M  V30 3052 N 291.186 -0.45159 -1.50991 0
M  V30 3053 C 292.602 -0.104647 -1.59257 0
M  V30 3054 C 292.802 1.38728 -1.4614 0
M  V30 3055 O 291.858 2.15866 -1.30989 0
M  V30 3056 C 293.171 -0.637468 -2.93865 0
M  V30 3057 C 294.719 -0.599166 -3.07212 0
M  V30 3058 C 295.194 -1.1092 -4.44366 0
M  V30 3059 N 296.685 -1.06778 -4.50725 0
M  V30 3060 C 297.42 -1.43314 -5.55201 0
M  V30 3061 N 296.916 -1.87204 -6.67028 0
M  V30 3062 N 298.709 -1.3504 -5.45638 0
M  V30 3063 H 290.86 -1.42214 -1.57762 0
M  V30 3064 H 293.123 -0.586921 -0.744465 0
M  V30 3065 H 292.829 -1.68187 -3.08879 0
M  V30 3066 H 292.703 -0.0702139 -3.77135 0
M  V30 3067 H 295.09 0.436277 -2.91857 0
M  V30 3068 H 295.171 -1.20299 -2.25747 0
M  V30 3069 H 294.815 -2.14318 -4.60467 0
M  V30 3070 H 294.745 -0.481773 -5.24392 0
M  V30 3071 H 297.236 -0.745643 -3.70471 0
M  V30 3072 H 297.549 -2.13282 -7.42786 0
M  V30 3073 H 295.894 -1.91142 -6.68199 0
M  V30 3074 H 299.085 -1.00607 -4.57161 0
M  V30 3075 H 299.258 -1.63841 -6.26945 0
M  V30 3076 N 292.664 1.56529 -0.183458 0
M  V30 3077 C 293.913 1.96419 0.458511 0
M  V30 3078 C 294.226 1.0727 1.63562 0
M  V30 3079 O 295.432 1.36893 2.34462 0
M  V30 3080 C 293.888 3.49298 0.867122 0
M  V30 3081 C 293.496 4.47092 -0.285057 0
M  V30 3082 C 295.24 3.97983 1.47683 0
M  V30 3083 C 293.147 5.91225 0.143862 0
M  V30 3084 H 292.077 0.733394 0.175071 0
M  V30 3085 H 294.728 1.81448 -0.273624 0
M  V30 3086 H 293.11 3.59731 1.65559 0
M  V30 3087 H 294.284 4.48383 -1.0625 0
M  V30 3088 H 292.599 4.08535 -0.805503 0
M  V30 3089 H 295.196 5.03134 1.80999 0
M  V30 3090 H 295.539 3.41618 2.37914 0
M  V30 3091 H 296.072 3.90617 0.752562 0
M  V30 3092 H 292.811 6.5149 -0.723974 0
M  V30 3093 H 292.331 5.93214 0.886413 0
M  V30 3094 H 294.01 6.44362 0.583628 0
M  V30 3095 N 294.142 -0.090211 1.57342 0
M  V30 3096 C 295.075 -1.14035 1.97664 0
M  V30 3097 C 296.053 -1.38576 0.850616 0
M  V30 3098 O 297.237 -1.52255 1.11134 0
M  V30 3099 C 294.364 -2.48854 2.2976 0
M  V30 3100 C 293.41 -2.40564 3.52181 0
M  V30 3101 S 294.243 -1.81745 5.03715 0
M  V30 3102 C 295.399 -3.18178 5.38993 0
M  V30 3103 H 295.632 -0.796636 2.86428 0
M  V30 3104 H 293.165 -0.298072 1.51496 0
M  V30 3105 H 295.123 -3.26413 2.48927 0
M  V30 3106 H 293.784 -2.80393 1.41558 0
M  V30 3107 H 292.977 -3.39942 3.72096 0
M  V30 3108 H 292.579 -1.71135 3.32549 0
M  V30 3109 H 294.871 -4.14461 5.35937 0
M  V30 3110 H 295.814 -3.03062 6.39968 0
M  V30 3111 H 296.222 -3.17935 4.66452 0
M  V30 3112 N 295.62 -1.53406 -0.361157 0
M  V30 3113 C 296.583 -1.79479 -1.42548 0
M  V30 3114 C 297.583 -0.665327 -1.4639 0
M  V30 3115 O 298.773 -0.933549 -1.47073 0
M  V30 3116 C 295.905 -1.92087 -2.8163 0
M  V30 3117 H 297.098 -2.74538 -1.20701 0
M  V30 3118 H 294.651 -1.4455 -0.594546 0
M  V30 3119 H 295.386 -0.991099 -3.08784 0
M  V30 3120 H 295.171 -2.74241 -2.80239 0
M  V30 3121 H 296.661 -2.13836 -3.58697 0
M  V30 3122 N 297.098 0.621204 -1.44841 0
M  V30 3123 C 298.328 1.40548 -1.51426 0
M  V30 3124 C 298.736 1.88673 -0.141083 0
M  V30 3125 O 298.079 1.62053 0.865128 0
M  V30 3126 C 298.141 2.65325 -2.42576 0
M  V30 3127 C 297.805 2.3893 -3.89566 0
M  V30 3128 C 298.802 2.00138 -4.79834 0
M  V30 3129 C 296.487 2.52263 -4.3436 0
M  V30 3130 C 298.481 1.75021 -6.129 0
M  V30 3131 C 296.168 2.2676 -5.67471 0
M  V30 3132 C 297.166 1.88199 -6.56559 0
M  V30 3133 O 296.854 1.62986 -7.87204 0
M  V30 3134 H 296.586 0.437122 -0.515655 0
M  V30 3135 H 299.14 0.765987 -1.90583 0
M  V30 3136 H 297.37 3.31947 -1.98364 0
M  V30 3137 H 299.059 3.27347 -2.39998 0
M  V30 3138 H 299.825 1.89386 -4.46495 0
M  V30 3139 H 295.704 2.81246 -3.65269 0
M  V30 3140 H 299.248 1.44848 -6.82396 0
M  V30 3141 H 295.145 2.37125 -6.00368 0
M  V30 3142 H 295.913 1.7715 -7.991 0
M  V30 3143 N 298.576 1.31904 0.862503 0
M  V30 3144 C 299.801 1.25135 1.65397 0
M  V30 3145 C 300.226 -0.179 1.87246 0
M  V30 3146 O 299.584 -1.1277 1.4196 0
M  V30 3147 C 299.632 2.00832 2.99498 0
M  V30 3148 O 298.736 1.35075 3.89652 0
M  V30 3149 H 298.077 0.431655 0.504549 0
M  V30 3150 H 300.607 1.74094 1.07483 0
M  V30 3151 H 300.617 2.10709 3.49379 0
M  V30 3152 H 299.292 3.04847 2.82916 0
M  V30 3153 H 297.869 1.33696 3.48109 0
M  V30 3154 N 300.054 -1.07777 1.14986 0
M  V30 3155 C 301.017 -2.13041 0.845358 0
M  V30 3156 C 302.017 -1.60071 -0.152931 0
M  V30 3157 O 303.207 -1.74033 0.0761879 0
M  V30 3158 C 300.339 -3.39896 0.261383 0
M  V30 3159 H 301.532 -2.41485 1.77834 0
M  V30 3160 H 299.085 -1.23595 0.956757 0
M  V30 3161 H 299.82 -3.17091 -0.68 0
M  V30 3162 H 299.605 -3.79642 0.980514 0
M  V30 3163 H 301.095 -4.17548 0.0657687 0
M  V30 3164 N 301.532 -0.945985 -1.26051 0
M  V30 3165 C 302.479 -0.45809 -2.26208 0
M  V30 3166 C 303.449 0.484816 -1.58867 0
M  V30 3167 O 304.634 0.399969 -1.86561 0
M  V30 3168 C 301.774 0.266131 -3.44072 0
M  V30 3169 C 300.887 -0.713005 -4.26075 0
M  V30 3170 C 300.022 0.0329013 -5.3119 0
M  V30 3171 C 299.061 -0.93774 -6.04874 0
M  V30 3172 N 298.198 -0.223274 -7.01745 0
M  V30 3173 H 303.038 -1.3171 -2.67313 0
M  V30 3174 H 300.575 -0.66069 -1.31428 0
M  V30 3175 H 302.533 0.702514 -4.11243 0
M  V30 3176 H 301.163 1.08925 -3.03867 0
M  V30 3177 H 300.215 -1.26789 -3.58648 0
M  V30 3178 H 301.527 -1.45406 -4.77136 0
M  V30 3179 H 300.681 0.528335 -6.04395 0
M  V30 3180 H 299.42 0.806801 -4.8098 0
M  V30 3181 H 298.425 -1.44425 -5.30492 0
M  V30 3182 H 299.65 -1.71172 -6.57173 0
M  V30 3183 H 297.596 0.532046 -6.53839 0
M  V30 3184 H 297.513 -0.90357 -7.50581 0
M  V30 3185 H 298.781 0.250907 -7.79096 0
M  V30 3186 N 303.011 1.40521 -0.713556 0
M  V30 3187 C 304.241 2.0494 -0.261395 0
M  V30 3188 C 304.649 1.53861 1.10107 0
M  V30 3189 O 303.992 0.689321 1.70276 0
M  V30 3190 C 304.054 3.59138 -0.161227 0
M  V30 3191 C 303.718 4.33096 -1.45865 0
M  V30 3192 C 304.715 4.61182 -2.40016 0
M  V30 3193 C 302.4 4.72043 -1.71701 0
M  V30 3194 C 304.394 5.27196 -3.58251 0
M  V30 3195 C 302.081 5.37789 -2.90218 0
M  V30 3196 C 303.079 5.65295 -3.83315 0
M  V30 3197 O 302.767 6.29683 -4.99754 0
M  V30 3198 H 302.499 0.666041 -0.115608 0
M  V30 3199 H 305.053 1.80954 -0.971849 0
M  V30 3200 H 303.283 3.81936 0.605153 0
M  V30 3201 H 304.972 4.05091 0.256105 0
M  V30 3202 H 305.738 4.31559 -2.21318 0
M  V30 3203 H 301.617 4.50003 -1.00092 0
M  V30 3204 H 305.161 5.48582 -4.30934 0
M  V30 3205 H 301.058 5.66831 -3.08825 0
M  V30 3206 H 301.826 6.4818 -4.99805 0
M  V30 3207 N 304.489 0.459591 1.5075 0
M  V30 3208 C 305.452 -0.329093 2.26825 0
M  V30 3209 C 306.452 -0.930481 1.31144 0
M  V30 3210 O 307.642 -0.801453 1.54669 0
M  V30 3211 C 304.774 -1.46768 3.07688 0
M  V30 3212 H 305.967 0.337924 2.9799 0
M  V30 3213 H 303.52 0.213336 1.54837 0
M  V30 3214 H 304.255 -2.17009 2.40993 0
M  V30 3215 H 304.04 -1.04238 3.77991 0
M  V30 3216 H 305.53 -2.02433 3.65254 0
M  V30 3217 N 305.967 -1.56429 0.191757 0
M  V30 3218 C 307.192 -2.02309 -0.456706 0
M  V30 3219 C 307.617 -1.07103 -1.5463 0
M  V30 3220 O 306.975 -0.0539677 -1.8122 0
M  V30 3221 C 307.023 -3.46654 -0.993159 0
M  V30 3222 O 306.127 -3.54559 -2.10622 0
M  V30 3223 H 305.468 -0.655303 -0.107114 0
M  V30 3224 H 307.998 -2.02364 0.301653 0
M  V30 3225 H 308.008 -3.86377 -1.31061 0
M  V30 3226 H 306.683 -4.1544 -0.195504 0
M  V30 3227 H 305.26 -3.26708 -1.79767 0
M  V30 3228 N 307.445 0.0818655 -1.57387 0
M  V30 3229 C 308.408 1.08265 -2.02018 0
M  V30 3230 C 309.408 1.32183 -0.915664 0
M  V30 3231 O 310.598 1.28073 -1.18081 0
M  V30 3232 C 307.73 2.42871 -2.39221 0
M  V30 3233 H 308.923 0.698204 -2.91659 0
M  V30 3234 H 306.476 0.327303 -1.52835 0
M  V30 3235 H 307.211 2.86167 -1.52575 0
M  V30 3236 H 306.996 2.26855 -3.19811 0
M  V30 3237 H 308.486 3.14826 -2.74362 0
M  V30 3238 N 308.923 1.53595 0.353017 0
M  V30 3239 C 310.153 1.74058 1.11299 0
M  V30 3240 C 310.561 0.475205 1.83135 0
M  V30 3241 O 309.904 -0.562344 1.74881 0
M  V30 3242 C 309.966 2.85994 2.17825 0
M  V30 3243 C 309.63 4.25923 1.65647 0
M  V30 3244 C 310.627 5.07829 1.11383 0
M  V30 3245 C 308.312 4.72377 1.7078 0
M  V30 3246 C 310.306 6.34285 0.629439 0
M  V30 3247 C 307.993 5.98808 1.21953 0
M  V30 3248 C 308.991 6.79594 0.681265 0
M  V30 3249 O 308.679 8.03651 0.200248 0
M  V30 3250 H 308.411 0.585327 0.338183 0
M  V30 3251 H 310.965 2.01186 0.413927 0
M  V30 3252 H 309.195 2.54368 2.91262 0
M  V30 3253 H 310.884 2.94515 2.79313 0
M  V30 3254 H 311.65 4.73107 1.06746 0
M  V30 3255 H 307.529 4.0956 2.11617 0
M  V30 3256 H 311.073 6.97288 0.208636 0
M  V30 3257 H 306.97 6.33026 1.26287 0
M  V30 3258 H 307.738 8.1788 0.318416 0
M  V30 3259 N 310.401 -0.613514 1.45168 0
M  V30 3260 C 311.631 -1.39743 1.52169 0
M  V30 3261 C 312.039 -1.88596 0.151086 0
M  V30 3262 O 311.382 -1.6251 -0.856521 0
M  V30 3263 C 311.444 -2.64035 2.43979 0
M  V30 3264 C 311.108 -2.36861 3.90827 0
M  V30 3265 C 312.105 -1.97591 4.80889 0
M  V30 3266 C 309.79 -2.49956 4.35692 0
M  V30 3267 C 311.784 -1.71768 6.1382 0
M  V30 3268 C 309.471 -2.23747 5.68665 0
M  V30 3269 C 310.469 -1.84714 6.57548 0
M  V30 3270 O 310.157 -1.58809 7.88058 0
M  V30 3271 H 309.889 -0.434382 0.517966 0
M  V30 3272 H 312.443 -0.75587 1.90986 0
M  V30 3273 H 310.673 -3.3089 2.00122 0
M  V30 3274 H 312.362 -3.26069 2.41731 0
M  V30 3275 H 313.128 -1.87015 4.47493 0
M  V30 3276 H 309.007 -2.79305 3.66756 0
M  V30 3277 H 312.551 -1.41227 6.83155 0
M  V30 3278 H 308.448 -2.33938 6.01617 0
M  V30 3279 H 309.216 -1.7291 8.00028 0
M  V30 3280 N 311.879 -1.3236 -0.855495 0
M  V30 3281 C 313.127 -1.22629 -1.60644 0
M  V30 3282 C 313.448 0.212136 -1.93843 0
M  V30 3283 O 312.718 1.13666 -1.59552 0
M  V30 3284 H 311.298 -0.450882 -0.595579 0
M  V30 3285 H 313.96 -1.65871 -1.02337 0
M  V30 3286 H 313.056 -1.80832 -2.54374 0
M  V30 3287 N 313.357 1.07166 -1.15556 0
M  V30 3288 C 314.768 1.6127 -0.940693 0
M  V30 3289 C 315.119 1.89251 0.517551 0
M  V30 3290 O 314.244 1.65937 1.38903 0
M  V30 3291 C 314.839 2.92993 -1.7012 0
M  V30 3292 C 313.398 3.43832 -1.53156 0
M  V30 3293 C 312.545 2.1786 -1.71558 0
M  V30 3294 H 315.496 0.90229 -1.30554 0
M  V30 3295 H 315.517 3.62007 -1.17181 0
M  V30 3296 H 315.029 2.72596 -2.76248 0
M  V30 3297 H 313.13 3.69307 -0.494294 0
M  V30 3298 H 313.243 4.19747 -2.30975 0
M  V30 3299 H 311.607 2.2765 -1.14225 0
M  V30 3300 H 312.39 1.99956 -2.79056 0
M  V30 3301 N 314.835 0.952656 1.25548 0
M  V30 3302 C 316.082 0.606373 1.93208 0
M  V30 3303 C 316.41 -0.85631 1.74636 0
M  V30 3304 O 315.665 -1.62951 1.08376 0
M  V30 3305 C 315.964 0.908818 3.45652 0
M  V30 3306 C 315.63 2.35722 3.84378 0
M  V30 3307 C 314.292 2.75312 3.9466 0
M  V30 3308 C 316.644 3.29793 4.03591 0
M  V30 3309 C 313.972 4.08047 4.21562 0
M  V30 3310 C 316.324 4.62138 4.31985 0
M  V30 3311 C 314.988 5.01528 4.40484 0
M  V30 3312 H 314.258 0.221888 0.706998 0
M  V30 3313 H 316.905 1.20132 1.49133 0
M  V30 3314 H 315.21 0.231456 3.91116 0
M  V30 3315 H 316.907 0.619498 3.96186 0
M  V30 3316 H 313.497 2.04017 3.76928 0
M  V30 3317 H 317.681 3.00397 3.95064 0
M  V30 3318 H 312.937 4.38212 4.26357 0
M  V30 3319 H 317.111 5.35012 4.45797 0
M  V30 3320 H 314.738 6.04406 4.61083 0
M  V30 3321 N 316.313 -1.40141 0.720998 0
M  V30 3322 C 317.729 -1.54632 0.395113 0
M  V30 3323 C 317.929 -1.69115 -1.09555 0
M  V30 3324 O 316.985 -1.68377 -1.88163 0
M  V30 3325 C 318.298 -2.77177 1.1659 0
M  V30 3326 C 319.846 -2.91 1.15274 0
M  V30 3327 C 320.321 -4.16465 1.90579 0
M  V30 3328 N 321.812 -4.23476 1.87675 0
M  V30 3329 C 322.547 -5.19475 2.42762 0
M  V30 3330 N 322.043 -6.21348 3.06428 0
M  V30 3331 N 323.836 -5.11592 2.32874 0
M  V30 3332 H 315.987 -1.28986 1.68749 0
M  V30 3333 H 318.25 -0.62412 0.713567 0
M  V30 3334 H 317.956 -2.72771 2.22011 0
M  V30 3335 H 317.83 -3.69442 0.76108 0
M  V30 3336 H 320.217 -2.94907 0.106702 0
M  V30 3337 H 320.298 -1.99838 1.59682 0
M  V30 3338 H 319.942 -4.1332 2.95176 0
M  V30 3339 H 319.872 -5.06646 1.43587 0
M  V30 3340 H 322.363 -3.50497 1.41281 0
M  V30 3341 H 322.676 -6.91034 3.45965 0
M  V30 3342 H 321.021 -6.21777 3.10514 0
M  V30 3343 H 324.212 -4.30936 1.82789 0
M  V30 3344 H 324.385 -5.86233 2.76106 0
M  V30 3345 N 317.792 -0.46758 -1.50504 0
M  V30 3346 C 319.069 0.15003 -1.95024 0
M  V30 3347 C 319.449 1.57304 -1.40779 0
M  V30 3348 O 318.797 2.20281 -0.607319 0
M  V30 3349 C 319.007 0.0969324 -3.48865 0
M  V30 3350 C 320.355 0.287565 -4.23625 0
M  V30 3351 O 321.379 0.173678 -3.55776 0
M  V30 3352 O 320.238 0.517186 -5.44047 0
M  V30 3353 H 317.332 0.113582 -0.819163 0
M  V30 3354 H 319.878 -0.52773 -1.61286 0
M  V30 3355 H 318.65 -0.896732 -3.80886 0
M  V30 3356 H 318.273 0.816303 -3.8913 0
M  V30 3357 N 319.27 1.56325 -0.20005 0
M  V30 3358 C 320.233 2.18084 0.705132 0
M  V30 3359 C 321.233 1.13666 1.1374 0
M  V30 3360 O 322.423 1.39023 1.04968 0
M  V30 3361 C 319.555 2.78689 1.96329 0
M  V30 3362 H 320.748 2.99435 0.167023 0
M  V30 3363 H 318.301 1.56221 0.0495725 0
M  V30 3364 H 319.036 2.0115 2.5438 0
M  V30 3365 H 318.821 3.55133 1.66202 0
M  V30 3366 H 320.311 3.26096 2.60866 0
M  V30 3367 N 320.748 -0.0735177 1.57428 0
M  V30 3368 C 321.994 -0.774145 1.87443 0
M  V30 3369 C 322.327 -1.77311 0.792103 0
M  V30 3370 O 321.602 -1.93492 -0.197793 0
M  V30 3371 C 321.885 -1.48367 3.28115 0
M  V30 3372 C 321.738 -0.501227 4.46999 0
M  V30 3373 C 323.057 -2.429 3.66998 0
M  V30 3374 H 320.176 -0.279971 0.681752 0
M  V30 3375 H 322.818 -0.0373616 1.89963 0
M  V30 3376 H 320.968 -2.11171 3.26097 0
M  V30 3377 H 322.64 0.121468 4.6114 0
M  V30 3378 H 320.883 0.183593 4.33411 0
M  V30 3379 H 321.554 -1.03526 5.42205 0
M  V30 3380 H 324.03 -1.90175 3.70098 0
M  V30 3381 H 322.906 -2.89549 4.66318 0
M  V30 3382 H 323.167 -3.27628 2.96837 0
M  V30 3383 N 322.226 -1.5378 -0.344866 0
M  V30 3384 C 323.474 -1.70625 -1.08311 0
M  V30 3385 C 323.795 -0.471447 -1.89215 0
M  V30 3386 O 323.065 0.514616 -1.8902 0
M  V30 3387 H 321.645 -0.629058 -0.402859 0
M  V30 3388 H 324.307 -1.9103 -0.386459 0
M  V30 3389 H 323.403 -2.57656 -1.76124 0
M  V30 3390 N 323.704 0.605807 -1.45491 0
M  V30 3391 C 324.929 1.39625 -1.53361 0
M  V30 3392 C 325.354 1.87351 -0.167645 0
M  V30 3393 O 324.712 1.60243 0.848051 0
M  V30 3394 C 324.76 2.57559 -2.5238 0
M  V30 3395 O 323.864 3.58248 -2.04285 0
M  V30 3396 H 323.205 0.416771 -0.516912 0
M  V30 3397 H 325.735 0.737103 -1.90861 0
M  V30 3398 H 325.745 3.0478 -2.71244 0
M  V30 3399 H 324.42 2.22171 -3.51586 0
M  V30 3400 H 322.997 3.17664 -1.95305 0
M  V30 3401 N 325.182 1.32811 0.848464 0
M  V30 3402 C 326.145 1.22194 1.9391 0
M  V30 3403 C 327.145 0.143404 1.60159 0
M  V30 3404 O 328.335 0.394253 1.6968 0
M  V30 3405 C 325.467 0.88067 3.29328 0
M  V30 3406 H 326.66 2.19127 2.04752 0
M  V30 3407 H 324.213 1.16731 1.0394 0
M  V30 3408 H 324.948 -0.0865776 3.24184 0
M  V30 3409 H 324.733 1.66052 3.55203 0
M  V30 3410 H 326.223 0.830871 4.09251 0
M  V30 3411 N 326.66 -1.06551 1.16123 0
M  V30 3412 C 327.885 -1.83544 0.965735 0
M  V30 3413 C 328.31 -1.81843 -0.481102 0
M  V30 3414 O 327.668 -1.21732 -1.34354 0
M  V30 3415 C 327.716 -3.28169 1.49457 0
M  V30 3416 O 326.82 -4.0643 0.699157 0
M  V30 3417 H 326.161 -0.568026 0.343864 0
M  V30 3418 H 328.691 -1.34362 1.54299 0
M  V30 3419 H 328.701 -3.78992 1.51092 0
M  V30 3420 H 327.376 -3.28722 2.54784 0
M  V30 3421 H 325.953 -3.65216 0.7531 0
M  V30 3422 N 328.138 -0.959301 -1.25041 0
M  V30 3423 C 329.086 -0.474437 -2.2771 0
M  V30 3424 C 330.08 0.457697 -1.631 0
M  V30 3425 O 331.286 0.333912 -1.76876 0
M  V30 3426 H 327.661 -0.134936 -0.739795 0
M  V30 3427 H 329.632 -1.35251 -2.65988 0
M  V30 3428 C 328.381 0.227884 -3.46952 0
M  V30 3429 H 327.704 -0.480248 -3.96905 0
M  V30 3430 H 329.144 0.531091 -4.20661 0
M  V30 3431 C 327.603 1.452 -3.04004 0
M  V30 3432 O 328.133 2.54949 -3.10426 0
M  V30 3433 N 326.339 1.31502 -2.59144 0
M  V30 3434 H 325.886 0.422065 -2.54119 0
M  V30 3435 H 325.844 2.13521 -2.30773 0
M  V30 3436 N 329.616 1.39756 -0.72842 0
M  V30 3437 C 330.546 2.33289 -0.0991354 0
M  V30 3438 C 331.527 1.53568 0.731489 0
M  V30 3439 O 332.712 1.81987 0.677807 0
M  V30 3440 C 329.842 3.3763 0.813834 0
M  V30 3441 C 328.796 4.2791 0.0878663 0
M  V30 3442 C 328.122 5.22894 1.11741 0
M  V30 3443 C 329.422 5.11314 -1.06563 0
M  V30 3444 H 331.116 2.86163 -0.880408 0
M  V30 3445 H 328.662 1.37591 -0.424819 0
M  V30 3446 H 330.615 4.0201 1.26355 0
M  V30 3447 H 329.339 2.83181 1.62715 0
M  V30 3448 H 327.998 3.65 -0.342159 0
M  V30 3449 H 327.646 4.64744 1.92412 0
M  V30 3450 H 327.346 5.84143 0.636477 0
M  V30 3451 H 328.87 5.90151 1.56697 0
M  V30 3452 H 330.284 5.69076 -0.694671 0
M  V30 3453 H 328.681 5.81671 -1.47577 0
M  V30 3454 H 329.751 4.46534 -1.89038 0
M  V30 3455 N 331.094 0.475555 1.50254 0
M  V30 3456 C 332.342 -0.077738 2.0195 0
M  V30 3457 C 332.663 -1.39813 1.35931 0
M  V30 3458 O 331.933 -1.89249 0.506123 0
M  V30 3459 H 330.513 -0.031719 0.746326 0
M  V30 3460 H 333.175 0.626995 1.84539 0
M  V30 3461 H 332.271 -0.225995 3.11281 0
M  V30 3462 N 332.573 -1.56217 0.208337 0
M  V30 3463 C 333.52 -2.19699 -0.707192 0
M  V30 3464 C 334.49 -1.14836 -1.20008 0
M  V30 3465 O 335.675 -1.4314 -1.26157 0
M  V30 3466 C 332.815 -2.87061 -1.91546 0
M  V30 3467 C 331.928 -4.06483 -1.46271 0
M  V30 3468 C 331.063 -4.61665 -2.62752 0
M  V30 3469 C 330.102 -5.73417 -2.14147 0
M  V30 3470 N 329.239 -6.22948 -3.23853 0
M  V30 3471 H 334.079 -2.97575 -0.159111 0
M  V30 3472 H 331.616 -1.46948 -0.0667874 0
M  V30 3473 H 333.574 -3.24294 -2.62468 0
M  V30 3474 H 332.204 -2.11725 -2.43664 0
M  V30 3475 H 331.256 -3.74825 -0.648886 0
M  V30 3476 H 332.568 -4.87271 -1.06622 0
M  V30 3477 H 331.722 -5.01272 -3.41776 0
M  V30 3478 H 330.461 -3.80013 -3.05682 0
M  V30 3479 H 329.466 -5.33326 -1.33581 0
M  V30 3480 H 330.691 -6.56897 -1.72232 0
M  V30 3481 H 328.637 -5.44213 -3.6629 0
M  V30 3482 H 328.554 -6.98823 -2.88414 0
M  V30 3483 H 329.822 -6.6721 -4.03052 0
M  V30 3484 N 334.051 0.0651679 -1.57465 0
M  V30 3485 C 335.299 0.761555 -1.87202 0
M  V30 3486 C 335.62 1.77778 -0.801243 0
M  V30 3487 O 334.89 1.95166 0.16937 0
M  V30 3488 H 333.47 0.284251 -0.690804 0
M  V30 3489 H 336.132 0.0396827 -1.9486 0
M  V30 3490 H 335.228 1.27365 -2.84929 0
M  V30 3491 N 335.529 1.53961 0.336706 0
M  V30 3492 C 336.477 1.83136 1.43401 0
M  V30 3493 C 337.471 0.702313 1.54156 0
M  V30 3494 O 338.677 0.885765 1.56698 0
M  V30 3495 H 335.052 0.580309 0.478273 0
M  V30 3496 H 337.023 2.74925 1.16012 0
M  V30 3497 C 335.772 2.06385 2.79822 0
M  V30 3498 H 335.095 2.92718 2.72316 0
M  V30 3499 H 336.535 2.30761 3.55704 0
M  V30 3500 C 334.994 0.851414 3.25964 0
M  V30 3501 O 335.524 0.0541904 4.01663 0
M  V30 3502 N 333.73 0.66672 2.82848 0
M  V30 3503 H 333.277 1.31665 2.21409 0
M  V30 3504 H 333.235 -0.143032 3.14074 0
M  V30 3505 N 337.007 -0.598083 1.45811 0
M  V30 3506 C 337.954 -1.7082 1.55207 0
M  V30 3507 C 338.924 -1.61278 0.39732 0
M  V30 3508 O 340.109 -1.80717 0.612038 0
M  V30 3509 C 337.249 -3.09144 1.53376 0
M  V30 3510 C 336.362 -3.29423 2.79472 0
M  V30 3511 C 335.497 -4.57907 2.69248 0
M  V30 3512 C 334.536 -4.71476 3.90354 0
M  V30 3513 N 333.673 -5.9127 3.78608 0
M  V30 3514 H 338.513 -1.62125 2.50039 0
M  V30 3515 H 336.05 -0.790389 1.24062 0
M  V30 3516 H 338.008 -3.89186 1.50301 0
M  V30 3517 H 336.638 -3.16773 0.620876 0
M  V30 3518 H 335.69 -2.43091 2.92594 0
M  V30 3519 H 337.002 -3.3532 3.69272 0
M  V30 3520 H 336.156 -5.46157 2.64192 0
M  V30 3521 H 334.895 -4.54423 1.77063 0
M  V30 3522 H 333.9 -3.81648 3.95759 0
M  V30 3523 H 335.125 -4.76751 4.83617 0
M  V30 3524 H 333.071 -5.88813 2.89199 0
M  V30 3525 H 332.988 -5.98369 4.6205 0
M  V30 3526 H 334.256 -6.81992 3.77501 0
M  V30 3527 N 338.485 -1.33259 -0.841409 0
M  V30 3528 C 339.448 -1.23221 -1.9326 0
M  V30 3529 C 340.448 -0.151895 -1.60081 0
M  V30 3530 O 341.638 -0.403246 -1.69468 0
M  V30 3531 C 338.77 -0.898123 -3.28856 0
M  V30 3532 H 339.963 -2.2021 -2.03587 0
M  V30 3533 H 337.516 -1.17281 -1.03319 0
M  V30 3534 H 338.251 0.0693841 -3.24226 0
M  V30 3535 H 338.036 -1.67934 -3.54317 0
M  V30 3536 H 339.526 -0.852563 -4.08805 0
M  V30 3537 N 339.963 1.05934 -1.16686 0
M  V30 3538 C 341.191 1.8249 -0.974929 0
M  V30 3539 C 341.606 1.82679 0.476861 0
M  V30 3540 O 340.963 1.2486 1.33103 0
M  V30 3541 C 341.014 3.28943 -1.49929 0
M  V30 3542 O 340.735 3.28886 -2.89423 0
M  V30 3543 C 342.236 4.22215 -1.35089 0
M  V30 3544 H 339.456 0.575295 -0.345365 0
M  V30 3545 H 342 1.33631 -1.548 0
M  V30 3546 H 340.155 3.751 -0.968423 0
M  V30 3547 H 340.569 4.20493 -3.13506 0
M  V30 3548 H 342.043 5.22987 -1.76603 0
M  V30 3549 H 342.52 4.38195 -0.296935 0
M  V30 3550 H 343.126 3.81907 -1.87155 0
M  V30 3551 N 341.441 0.965919 1.2453 0
M  V30 3552 C 342.671 0.643451 1.96324 0
M  V30 3553 C 343.079 -0.790927 1.71875 0
M  V30 3554 O 342.422 -1.54208 0.998273 0
M  V30 3555 C 342.484 0.836078 3.49643 0
M  V30 3556 C 342.148 2.24975 3.97788 0
M  V30 3557 C 343.145 3.22735 4.07601 0
M  V30 3558 C 340.83 2.57697 4.31158 0
M  V30 3559 C 342.824 4.51303 4.50116 0
M  V30 3560 C 340.511 3.86492 4.73357 0
M  V30 3561 C 341.509 4.83107 4.828 0
M  V30 3562 O 341.197 6.09605 5.24058 0
M  V30 3563 H 340.929 0.239223 0.632257 0
M  V30 3564 H 343.483 1.29587 1.59362 0
M  V30 3565 H 341.713 0.12649 3.86493 0
M  V30 3566 H 343.402 0.512965 4.02646 0
M  V30 3567 H 344.168 2.98783 3.82039 0
M  V30 3568 H 340.047 1.83216 4.23028 0
M  V30 3569 H 343.591 5.26716 4.57401 0
M  V30 3570 H 339.488 4.10245 4.98366 0
M  V30 3571 H 340.256 6.13146 5.42213 0
M  V30 3572 N 342.919 -1.39368 0.735821 0
M  V30 3573 C 343.851 -2.2913 0.0567723 0
M  V30 3574 C 344.864 -1.46859 -0.702589 0
M  V30 3575 O 346.053 -1.69925 -0.546616 0
M  V30 3576 C 343.153 -3.25492 -0.943823 0
M  V30 3577 C 342.326 -4.36709 -0.24581 0
M  V30 3578 C 341.385 -5.13376 -1.15463 0
M  V30 3579 O 340.411 -5.65683 -0.631803 0
M  V30 3580 N 341.613 -5.24656 -2.48427 0
M  V30 3581 H 344.378 -2.88047 0.827582 0
M  V30 3582 H 341.939 -1.50957 0.585112 0
M  V30 3583 H 343.931 -3.73657 -1.55443 0
M  V30 3584 H 342.501 -2.676 -1.61583 0
M  V30 3585 H 341.721 -3.9041 0.545286 0
M  V30 3586 H 343.009 -5.08244 0.237891 0
M  V30 3587 H 342.407 -4.83679 -2.93379 0
M  V30 3588 H 340.964 -5.76258 -3.04582 0
M  V30 3589 N 344.397 -0.483516 -1.5 0
M  V30 3590 C 345.33 0.350427 -2.25493 0
M  V30 3591 C 346.308 0.985549 -1.29328 0
M  V30 3592 O 347.492 1.01906 -1.58579 0
M  V30 3593 C 344.619 1.49202 -3.04066 0
M  V30 3594 C 343.665 0.973036 -4.15252 0
M  V30 3595 S 344.498 -0.122237 -5.3536 0
M  V30 3596 C 345.654 1.02294 -6.17484 0
M  V30 3597 H 345.887 -0.290381 -2.95878 0
M  V30 3598 H 343.42 -0.268562 -1.52046 0
M  V30 3599 H 345.378 2.14623 -3.49925 0
M  V30 3600 H 344.039 2.10438 -2.33183 0
M  V30 3601 H 343.232 1.82804 -4.69679 0
M  V30 3602 H 342.834 0.396335 -3.71894 0
M  V30 3603 H 345.126 1.93195 -6.49371 0
M  V30 3604 H 346.069 0.517664 -7.06205 0
M  V30 3605 H 346.477 1.28238 -5.49741 0
M  V30 3606 N 345.875 1.56104 -0.216619 0
M  V30 3607 C 347.152 1.89988 0.465165 0
M  V30 3608 C 347.532 1.13326 1.78102 0
M  V30 3609 O 346.88 0.241033 2.27225 0
M  V30 3610 C 347.09 3.42646 0.662939 0
M  V30 3611 C 348.438 4.13311 0.972602 0
M  V30 3612 O 349.462 3.48217 0.749901 0
M  V30 3613 O 348.321 5.28396 1.39499 0
M  V30 3614 H 345.415 0.78979 0.245276 0
M  V30 3615 H 347.961 1.67721 -0.258436 0
M  V30 3616 H 346.733 3.90399 -0.26543 0
M  V30 3617 H 346.356 3.70677 1.43821 0
M  V30 3618 N 347.353 -0.0568162 1.57498 0
M  V30 3619 C 348.764 -0.606858 1.76562 0
M  V30 3620 C 349.115 -1.77114 0.844094 0
M  V30 3621 O 348.24 -2.16376 0.0318911 0
M  V30 3622 C 348.835 -1.10766 3.20182 0
M  V30 3623 C 347.394 -1.60344 3.40539 0
M  V30 3624 C 346.541 -0.529311 2.72201 0
M  V30 3625 H 349.492 0.169393 1.57793 0
M  V30 3626 H 349.513 -1.97602 3.25167 0
M  V30 3627 H 349.025 -0.26006 3.87228 0
M  V30 3628 H 347.126 -2.47379 2.78629 0
M  V30 3629 H 347.239 -1.67006 4.4905 0
M  V30 3630 H 345.603 -0.977893 2.35179 0
M  V30 3631 H 346.386 0.308352 3.41912 0
M  V30 3632 N 348.832 -1.54138 -0.328536 0
M  V30 3633 C 349.795 -1.82462 -1.38709 0
M  V30 3634 C 350.795 -0.696229 -1.44946 0
M  V30 3635 O 351.985 -0.964535 -1.4506 0
M  V30 3636 C 349.117 -1.98018 -2.77492 0
M  V30 3637 H 350.31 -2.77037 -1.14851 0
M  V30 3638 H 347.863 -1.45779 -0.563751 0
M  V30 3639 H 348.598 -1.05637 -3.06613 0
M  V30 3640 H 348.383 -2.80124 -2.74359 0
M  V30 3641 H 349.873 -2.21396 -3.54081 0
M  V30 3642 N 350.31 0.590341 -1.46126 0
M  V30 3643 C 351.258 1.72105 -1.5647 0
M  V30 3644 C 352.252 1.63756 -0.433612 0
M  V30 3645 O 353.458 1.69342 -0.610194 0
M  V30 3646 H 349.833 0.568889 -0.491802 0
M  V30 3647 H 351.804 1.6051 -2.51553 0
M  V30 3648 C 350.553 3.10493 -1.56491 0
M  V30 3649 H 349.876 3.17583 -2.4286 0
M  V30 3650 H 351.316 3.8939 -1.67785 0
M  V30 3651 C 349.775 3.3563 -0.292231 0
M  V30 3652 O 350.305 3.96875 0.620739 0
M  V30 3653 N 348.511 2.90026 -0.182523 0
M  V30 3654 H 348.058 2.40367 -0.926356 0
M  V30 3655 H 348.016 3.07218 0.668152 0
M  V30 3656 N 351.788 1.33704 0.83433 0
M  V30 3657 C 353.013 1.28615 1.62705 0
M  V30 3658 C 353.438 -0.139242 1.87584 0
M  V30 3659 O 352.796 -1.09734 1.4432 0
M  V30 3660 C 352.844 2.07139 2.95171 0
M  V30 3661 O 351.948 1.4331 3.86699 0
M  V30 3662 H 351.289 0.44226 0.49528 0
M  V30 3663 H 353.819 1.76335 1.03766 0
M  V30 3664 H 353.829 2.18073 3.44831 0
M  V30 3665 H 352.504 3.10779 2.76386 0
M  V30 3666 H 351.081 1.4105 3.45195 0
M  V30 3667 N 353.266 -1.05314 1.17247 0
M  V30 3668 C 354.543 -1.75184 0.87005 0
M  V30 3669 C 354.923 -2.01481 -0.629965 0
M  V30 3670 O 354.271 -1.64988 -1.58086 0
M  V30 3671 C 354.481 -3.04594 1.70363 0
M  V30 3672 C 355.829 -3.78567 1.92281 0
M  V30 3673 O 356.853 -3.14461 1.67311 0
M  V30 3674 O 355.712 -4.93755 2.3424 0
M  V30 3675 H 352.806 -0.761729 0.322021 0
M  V30 3676 H 355.352 -1.11493 1.27935 0
M  V30 3677 H 354.124 -2.81201 2.72106 0
M  V30 3678 H 353.747 -3.76022 1.29202 0
M  V30 3679 N 354.744 -0.972509 -1.24016 0
M  V30 3680 C 355.654 -0.5143 -2.28893 0
M  V30 3681 C 356.67 0.427078 -1.68677 0
M  V30 3682 O 357.846 0.298939 -1.99169 0
M  V30 3683 C 354.911 0.183598 -3.46214 0
M  V30 3684 C 353.972 -0.798202 -4.21814 0
M  V30 3685 C 353.205 -0.133514 -5.33533 0
M  V30 3686 O 353.428 1.07714 -5.60137 0
M  V30 3687 O 352.362 -0.828103 -5.96176 0
M  V30 3688 H 356.188 -1.38629 -2.70214 0
M  V30 3689 H 353.773 -0.739769 -1.29799 0
M  V30 3690 H 355.655 0.575433 -4.17453 0
M  V30 3691 H 354.33 1.03048 -3.0686 0
M  V30 3692 H 353.237 -1.24059 -3.52931 0
M  V30 3693 H 354.57 -1.61364 -4.64997 0
M  V30 3694 N 356.222 1.38976 -0.743202 0
M  V30 3695 C 357.185 2.28901 -0.117014 0
M  V30 3696 C 358.185 1.46698 0.658503 0
M  V30 3697 O 359.375 1.67274 0.486305 0
M  V30 3698 C 356.507 3.30309 0.84315 0
M  V30 3699 H 357.7 2.8578 -0.909373 0
M  V30 3700 H 355.253 1.47761 -0.509547 0
M  V30 3701 H 355.988 2.785 1.66157 0
M  V30 3702 H 355.773 3.91029 0.289594 0
M  V30 3703 H 357.263 3.97577 1.2776 0
M  V30 3704 N 357.7 0.491464 1.49741 0
M  V30 3705 C 358.63 -0.28154 2.31796 0
M  V30 3706 C 359.611 -0.971473 1.3963 0
M  V30 3707 O 360.796 -0.964719 1.68543 0
M  V30 3708 C 357.926 -1.35203 3.19902 0
M  V30 3709 C 356.88 -0.782529 4.20786 0
M  V30 3710 C 356.206 -1.95283 4.97764 0
M  V30 3711 C 357.506 0.21999 5.21837 0
M  V30 3712 H 359.2 0.403355 2.96671 0
M  V30 3713 H 356.746 0.195425 1.42668 0
M  V30 3714 H 358.699 -1.90045 3.76113 0
M  V30 3715 H 357.423 -2.06598 2.52953 0
M  V30 3716 H 356.082 -0.255928 3.65706 0
M  V30 3717 H 355.73 -2.65423 4.2727 0
M  V30 3718 H 355.43 -1.57789 5.66018 0
M  V30 3719 H 356.954 -2.50577 5.56816 0
M  V30 3720 H 358.368 -0.23996 5.72798 0
M  V30 3721 H 356.765 0.51026 5.97927 0
M  V30 3722 H 357.835 1.13911 4.7133 0
M  V30 3723 N 359.178 -1.55987 0.224894 0
M  V30 3724 C 360.128 -2.17076 -0.697296 0
M  V30 3725 C 361.112 -1.12006 -1.15514 0
M  V30 3726 O 362.304 -1.37985 -1.10857 0
M  V30 3727 C 359.433 -2.85679 -1.90374 0
M  V30 3728 C 358.519 -3.97977 -1.46543 0
M  V30 3729 N 358.91 -5.00359 -0.739909 0
M  V30 3730 C 357.208 -4.10128 -1.75245 0
M  V30 3731 C 357.909 -5.79407 -0.515939 0
M  V30 3732 N 356.885 -5.32892 -1.07364 0
M  V30 3733 H 360.687 -2.93592 -0.134594 0
M  V30 3734 H 358.201 -1.62379 0.0262885 0
M  V30 3735 H 360.198 -3.27857 -2.57518 0
M  V30 3736 H 358.858 -2.1066 -2.47088 0
M  V30 3737 H 359.869 -5.16412 -0.392253 0
M  V30 3738 H 356.546 -3.46263 -2.33255 0
M  V30 3739 H 357.936 -6.71872 0.0617349 0
M  V30 3740 N 360.656 0.0484629 -1.57525 0
M  V30 3741 C 361.566 1.07241 -2.08654 0
M  V30 3742 C 362.582 1.409 -1.02095 0
M  V30 3743 O 363.758 1.50609 -1.33712 0
M  V30 3744 C 360.823 2.36008 -2.5397 0
M  V30 3745 C 359.884 2.09108 -3.7493 0
M  V30 3746 C 359.117 3.31736 -4.18075 0
M  V30 3747 O 359.34 4.41714 -3.60895 0
M  V30 3748 O 358.274 3.18576 -5.10679 0
M  V30 3749 H 362.1 0.667965 -2.96263 0
M  V30 3750 H 359.685 0.26417 -1.47046 0
M  V30 3751 H 361.567 3.11747 -2.83535 0
M  V30 3752 H 360.242 2.75786 -1.69481 0
M  V30 3753 H 359.149 1.31 -3.50414 0
M  V30 3754 H 360.482 1.74198 -4.60343 0
M  V30 3755 N 362.134 1.5431 0.320358 0
M  V30 3756 C 363.38 1.72924 1.05949 0
M  V30 3757 C 363.713 0.503185 1.87568 0
M  V30 3758 O 362.988 -0.499839 1.87968 0
M  V30 3759 C 363.271 3.00676 1.98156 0
M  V30 3760 C 363.124 4.3354 1.19845 0
M  V30 3761 C 364.443 3.24198 2.9763 0
M  V30 3762 H 361.562 0.629195 0.383774 0
M  V30 3763 H 364.204 1.87008 0.335854 0
M  V30 3764 H 362.354 2.888 2.59859 0
M  V30 3765 H 364.026 4.57305 0.605773 0
M  V30 3766 H 362.269 4.309 0.500784 0
M  V30 3767 H 362.94 5.19156 1.87567 0
M  V30 3768 H 365.416 3.35557 2.4605 0
M  V30 3769 H 364.292 4.14938 3.59329 0
M  V30 3770 H 364.553 2.41577 3.7026 0
M  V30 3771 N 363.613 -0.582584 1.46437 0
M  V30 3772 C 364.576 -1.67366 1.56592 0
M  V30 3773 C 365.576 -1.54575 0.443072 0
M  V30 3774 O 366.766 -1.59191 0.707381 0
M  V30 3775 C 363.898 -3.06791 1.48634 0
M  V30 3776 H 365.091 -1.5972 2.5383 0
M  V30 3777 H 362.644 -0.800432 1.34249 0
M  V30 3778 H 363.379 -3.19993 0.526763 0
M  V30 3779 H 363.164 -3.17484 2.30101 0
M  V30 3780 H 364.654 -3.86218 1.58826 0
M  V30 3781 N 365.091 -1.34144 -0.827227 0
M  V30 3782 C 366.054 -1.25264 -1.91942 0
M  V30 3783 C 367.054 -0.168866 -1.59911 0
M  V30 3784 O 368.244 -0.421198 -1.69031 0
M  V30 3785 C 365.376 -0.932952 -3.27885 0
M  V30 3786 H 366.569 -2.22357 -2.0124 0
M  V30 3787 H 364.122 -1.1837 -1.0207 0
M  V30 3788 H 364.857 0.0349917 -3.24281 0
M  V30 3789 H 364.642 -1.71682 -3.52516 0
M  V30 3790 H 366.132 -0.895874 -4.07877 0
M  V30 3791 N 366.569 1.04691 -1.17803 0
M  V30 3792 C 367.846 1.7472 -0.879328 0
M  V30 3793 C 368.226 2.01812 0.619271 0
M  V30 3794 O 367.574 1.65824 1.57209 0
M  V30 3795 C 367.784 3.03686 -1.71976 0
M  V30 3796 C 369.132 3.77542 -1.94286 0
M  V30 3797 O 370.156 3.13569 -1.68976 0
M  V30 3798 O 369.015 4.92506 -2.36855 0
M  V30 3799 H 366.109 0.760011 -0.326056 0
M  V30 3800 H 368.655 1.10813 -1.28525 0
M  V30 3801 H 367.427 2.79754 -2.73594 0
M  V30 3802 H 367.05 3.75332 -1.31194 0
M  V30 3803 N 368.047 0.979072 1.23499 0
M  V30 3804 C 368.977 0.537606 2.27227 0
M  V30 3805 C 369.958 -0.428539 1.64613 0
M  V30 3806 O 371.143 -0.322191 1.91509 0
M  V30 3807 C 368.273 -0.162052 3.46922 0
M  V30 3808 C 367.227 0.721242 4.21879 0
M  V30 3809 C 366.553 -0.110555 5.34586 0
M  V30 3810 C 367.853 2.01141 4.82016 0
M  V30 3811 H 369.547 1.40462 2.64406 0
M  V30 3812 H 367.093 0.67684 1.27102 0
M  V30 3813 H 369.046 -0.482192 4.18632 0
M  V30 3814 H 367.77 -1.06351 3.08799 0
M  V30 3815 H 366.429 1.02482 3.51984 0
M  V30 3816 H 366.077 -1.0125 4.92704 0
M  V30 3817 H 365.777 0.477325 5.85658 0
M  V30 3818 H 367.301 -0.425107 6.09118 0
M  V30 3819 H 368.715 1.75612 5.45741 0
M  V30 3820 H 367.112 2.54695 5.43369 0
M  V30 3821 H 368.182 2.69909 4.02836 0
M  V30 3822 N 369.525 -1.3858 0.750561 0
M  V30 3823 C 370.488 -2.28836 0.129152 0
M  V30 3824 C 371.488 -1.47045 -0.650714 0
M  V30 3825 O 372.678 -1.6753 -0.477428 0
M  V30 3826 C 369.81 -3.30751 -0.825622 0
M  V30 3827 H 371.003 -2.85294 0.924516 0
M  V30 3828 H 368.556 -1.47489 0.517376 0
M  V30 3829 H 369.291 -2.79378 -1.64677 0
M  V30 3830 H 369.076 -3.91177 -0.268852 0
M  V30 3831 H 370.566 -3.98249 -1.2565 0
M  V30 3832 N 371.003 -0.499398 -1.49478 0
M  V30 3833 C 371.913 0.284489 -2.32869 0
M  V30 3834 C 372.929 0.968885 -1.44529 0
M  V30 3835 O 374.105 0.95062 -1.77553 0
M  V30 3836 C 371.17 1.33594 -3.19928 0
M  V30 3837 C 370.231 0.665149 -4.24116 0
M  V30 3838 C 369.464 1.6665 -5.07014 0
M  V30 3839 O 369.687 2.89618 -4.91404 0
M  V30 3840 O 368.621 1.22271 -5.8935 0
M  V30 3841 H 372.447 -0.39802 -3.01081 0
M  V30 3842 H 370.032 -0.260758 -1.47107 0
M  V30 3843 H 371.914 1.94431 -3.73864 0
M  V30 3844 H 370.589 2.0014 -2.54412 0
M  V30 3845 H 369.496 0.0170769 -3.74096 0
M  V30 3846 H 370.829 0.0421555 -4.92182 0
M  V30 3847 N 372.481 1.55866 -0.233164 0
M  V30 3848 C 373.729 1.9821 0.394593 0
M  V30 3849 C 374.05 1.12234 1.59463 0
M  V30 3850 O 373.32 0.201981 1.94856 0
M  V30 3851 H 371.9 0.732034 0.148778 0
M  V30 3852 H 374.562 1.92107 -0.32876 0
M  V30 3853 H 373.658 3.03845 0.713063 0
M  V30 3854 N 373.959 -0.0401083 1.57549 0
M  V30 3855 C 374.922 -1.02871 2.04817 0
M  V30 3856 C 375.922 -1.29708 0.950388 0
M  V30 3857 O 377.112 -1.24897 1.21435 0
M  V30 3858 C 374.244 -2.36443 2.45576 0
M  V30 3859 H 375.437 -0.620631 2.93408 0
M  V30 3860 H 372.99 -0.286667 1.53649 0
M  V30 3861 H 373.725 -2.82021 1.60108 0
M  V30 3862 H 373.51 -2.18296 3.25713 0
M  V30 3863 H 375 -3.07441 2.82612 0
M  V30 3864 N 375.437 -1.54477 -0.31217 0
M  V30 3865 C 376.714 -1.63891 -1.06767 0
M  V30 3866 C 377.094 -0.480028 -2.0557 0
M  V30 3867 O 376.442 0.524487 -2.22399 0
M  V30 3868 C 376.652 -3.01402 -1.75948 0
M  V30 3869 C 378 -3.57838 -2.28554 0
M  V30 3870 O 379.024 -3.03782 -1.85998 0
M  V30 3871 O 377.883 -4.52462 -3.06497 0
M  V30 3872 H 374.977 -0.664125 -0.492816 0
M  V30 3873 H 377.523 -1.66823 -0.311149 0
M  V30 3874 H 376.295 -3.77187 -1.04144 0
M  V30 3875 H 375.918 -3.02199 -2.58383 0
M  V30 3876 N 376.915 0.57481 -1.46744 0
M  V30 3877 C 377.848 1.69827 -1.52427 0
M  V30 3878 C 378.826 1.58151 -0.377744 0
M  V30 3879 O 380.01 1.79257 -0.58303 0
M  V30 3880 C 377.137 3.07943 -1.41027 0
M  V30 3881 C 376.183 3.38116 -2.59961 0
M  V30 3882 S 377.016 3.29313 -4.22272 0
M  V30 3883 C 378.172 4.69953 -4.13394 0
M  V30 3884 H 378.405 1.64748 -2.47478 0
M  V30 3885 H 375.938 0.754203 -1.34726 0
M  V30 3886 H 377.896 3.87619 -1.35137 0
M  V30 3887 H 376.557 3.10504 -0.473909 0
M  V30 3888 H 375.75 4.38762 -2.47999 0
M  V30 3889 H 375.352 2.66024 -2.62882 0
M  V30 3890 H 377.644 5.60517 -3.80562 0
M  V30 3891 H 378.587 4.86972 -5.14066 0
M  V30 3892 H 378.995 4.47174 -3.44522 0
M  V30 3893 N 378.394 1.34581 0.820102 0
M  V30 3894 C 379.64 1.27285 1.57881 0
M  V30 3895 C 379.973 -0.156137 1.93571 0
M  V30 3896 O 379.248 -1.10222 1.60254 0
M  V30 3897 C 379.531 2.16639 2.87645 0
M  V30 3898 C 379.384 3.68088 2.58517 0
M  V30 3899 C 380.703 2.05378 3.8924 0
M  V30 3900 H 377.822 0.463714 0.572833 0
M  V30 3901 H 380.464 1.64859 0.944539 0
M  V30 3902 H 378.614 1.84725 3.41773 0
M  V30 3903 H 380.286 4.10382 2.10676 0
M  V30 3904 H 378.529 3.89038 1.91917 0
M  V30 3905 H 379.2 4.2598 3.51063 0
M  V30 3906 H 381.676 2.33404 3.44473 0
M  V30 3907 H 380.552 2.7012 4.77835 0
M  V30 3908 H 380.813 1.0316 4.29896 0
M  V30 3909 N 379.872 -1.04064 1.18357 0
M  V30 3910 C 380.805 -2.11618 0.854 0
M  V30 3911 C 381.783 -1.61555 -0.184043 0
M  V30 3912 O 382.967 -1.88395 -0.0630048 0
M  V30 3913 C 380.094 -3.37574 0.27597 0
M  V30 3914 C 379.14 -4.06485 1.2912 0
M  V30 3915 S 379.973 -4.53543 2.84709 0
M  V30 3916 C 381.129 -5.82732 2.28417 0
M  V30 3917 H 381.362 -2.39247 1.76488 0
M  V30 3918 H 378.895 -1.16832 1.00944 0
M  V30 3919 H 380.853 -4.10468 -0.051026 0
M  V30 3920 H 379.514 -3.0806 -0.613028 0
M  V30 3921 H 378.707 -4.97024 0.835633 0
M  V30 3922 H 378.309 -3.39708 1.56443 0
M  V30 3923 H 380.601 -6.56677 1.66677 0
M  V30 3924 H 381.544 -6.33052 3.17256 0
M  V30 3925 H 381.952 -5.37838 1.71436 0
M  V30 3926 N 381.35 -0.985608 -1.22978 0
M  V30 3927 C 382.596 -0.65836 -1.91816 0
M  V30 3928 C 382.929 0.806692 -1.76653 0
M  V30 3929 O 382.204 1.58252 -1.13078 0
M  V30 3930 C 382.487 -1.056 -3.44268 0
M  V30 3931 C 382.34 -2.57906 -3.68516 0
M  V30 3932 C 383.659 -0.603781 -4.35939 0
M  V30 3933 H 380.778 -0.24065 -0.696604 0
M  V30 3934 H 383.42 -1.22783 -1.44998 0
M  V30 3935 H 381.57 -0.571445 -3.84274 0
M  V30 3936 H 383.242 -3.13976 -3.3796 0
M  V30 3937 H 381.485 -3.00305 -3.13048 0
M  V30 3938 H 382.156 -2.80779 -4.75255 0
M  V30 3939 H 384.632 -1.01987 -4.03408 0
M  V30 3940 H 383.508 -0.910383 -5.41298 0
M  V30 3941 H 383.769 0.495761 -4.39312 0
M  V30 3942 N 382.828 1.3818 -0.7579 0
M  V30 3943 C 383.775 2.30416 -0.133057 0
M  V30 3944 C 384.745 1.50398 0.704957 0
M  V30 3945 O 385.93 1.79014 0.660192 0
M  V30 3946 C 383.07 3.36834 0.750813 0
M  V30 3947 C 382.183 4.31879 -0.102297 0
M  V30 3948 C 381.318 5.25368 0.784979 0
M  V30 3949 C 380.357 6.12058 -0.0715046 0
M  V30 3950 N 379.494 6.97832 0.772972 0
M  V30 3951 H 384.334 2.83274 -0.925186 0
M  V30 3952 H 381.871 1.39461 -0.467866 0
M  V30 3953 H 383.829 3.97145 1.27794 0
M  V30 3954 H 382.459 2.85374 1.50868 0
M  V30 3955 H 381.511 3.72991 -0.747095 0
M  V30 3956 H 382.823 4.92921 -0.763552 0
M  V30 3957 H 381.977 5.90818 1.37911 0
M  V30 3958 H 380.716 4.64703 1.47996 0
M  V30 3959 H 379.721 5.456 -0.678272 0
M  V30 3960 H 380.946 6.74793 -0.763606 0
M  V30 3961 H 378.892 6.3971 1.45282 0
M  V30 3962 H 378.809 7.55812 0.168709 0
M  V30 3963 H 380.077 7.67687 1.35194 0
M  V30 3964 N 384.306 0.507319 1.49211 0
M  V30 3965 C 385.717 0.0611118 1.866 0
M  V30 3966 C 386.068 -1.35488 1.41907 0
M  V30 3967 O 385.193 -2.0108 0.799726 0
M  V30 3968 C 385.788 0.104125 3.3864 0
M  V30 3969 C 384.347 -0.28677 3.75306 0
M  V30 3970 C 383.494 0.473893 2.73221 0
M  V30 3971 H 386.445 0.719775 1.41439 0
M  V30 3972 H 386.466 -0.689672 3.74198 0
M  V30 3973 H 385.978 1.13482 3.71138 0
M  V30 3974 H 384.079 -1.32046 3.48417 0
M  V30 3975 H 384.192 0.0370745 4.79086 0
M  V30 3976 H 382.556 -0.0770644 2.54583 0
M  V30 3977 H 383.339 1.50478 3.08563 0
M  V30 3978 N 385.784 -1.5574 0.241426 0
M  V30 3979 C 387.032 -1.98417 -0.384075 0
M  V30 3980 C 387.353 -1.13078 -1.58866 0
M  V30 3981 O 386.623 -0.212312 -1.94746 0
M  V30 3982 H 385.203 -0.732813 -0.144894 0
M  V30 3983 H 387.865 -1.9193 0.338943 0
M  V30 3984 H 386.961 -3.04219 -0.696939 0
M  V30 3985 N 387.262 0.0317525 -1.57568 0
M  V30 3986 C 388.195 1.06621 -2.0176 0
M  V30 3987 C 389.173 1.35323 -0.901462 0
M  V30 3988 O 390.357 1.48025 -1.16708 0
M  V30 3989 C 387.484 2.40155 -2.38837 0
M  V30 3990 C 386.53 2.27327 -3.60867 0
M  V30 3991 S 387.363 1.62925 -5.10113 0
M  V30 3992 C 388.519 2.97955 -5.5043 0
M  V30 3993 H 388.752 0.689781 -2.89187 0
M  V30 3994 H 386.285 0.24164 -1.52497 0
M  V30 3995 H 388.243 3.1695 -2.6087 0
M  V30 3996 H 386.904 2.74946 -1.51867 0
M  V30 3997 H 386.097 3.25898 -3.84456 0
M  V30 3998 H 385.699 1.58675 -3.38671 0
M  V30 3999 H 387.991 3.94285 -5.5095 0
M  V30 4000 H 388.934 2.79102 -6.50775 0
M  V30 4001 H 389.342 3.00404 -4.77931 0
M  V30 4002 N 388.74 1.54641 0.303973 0
M  V30 4003 C 390.151 1.64811 0.877163 0
M  V30 4004 C 390.502 0.554838 1.88191 0
M  V30 4005 O 389.627 -0.309033 2.14182 0
M  V30 4006 C 390.222 2.9876 1.59775 0
M  V30 4007 C 388.781 3.11061 2.11938 0
M  V30 4008 C 387.928 2.60479 0.951097 0
M  V30 4009 H 390.879 1.58493 0.0810486 0
M  V30 4010 H 390.9 2.90017 2.46314 0
M  V30 4011 H 390.412 3.7831 0.866226 0
M  V30 4012 H 388.513 2.36225 2.88146 0
M  V30 4013 H 388.626 4.17171 2.35595 0
M  V30 4014 H 386.99 2.16859 1.33583 0
M  V30 4015 H 387.773 3.42504 0.233581 0
M  V30 4016 N 390.218 -0.567019 1.47046 0
M  V30 4017 C 391.448 -1.34831 1.56538 0
M  V30 4018 C 391.856 -1.8802 0.21101 0
M  V30 4019 O 391.199 -1.65152 -0.804387 0
M  V30 4020 C 391.261 -2.56139 2.52256 0
M  V30 4021 C 390.925 -2.24307 3.98165 0
M  V30 4022 C 391.922 -1.82192 4.86931 0
M  V30 4023 C 389.607 -2.35968 4.43423 0
M  V30 4024 C 391.601 -1.52153 6.18973 0
M  V30 4025 C 389.288 -2.05542 5.75496 0
M  V30 4026 C 390.286 -1.63701 6.63092 0
M  V30 4027 O 389.974 -1.33657 7.92711 0
M  V30 4028 H 389.706 -0.417683 0.531523 0
M  V30 4029 H 392.26 -0.694726 1.93294 0
M  V30 4030 H 390.49 -3.24356 2.10548 0
M  V30 4031 H 392.179 -3.18214 2.51982 0
M  V30 4032 H 392.945 -1.72684 4.53217 0
M  V30 4033 H 388.824 -2.67495 3.75456 0
M  V30 4034 H 392.368 -1.19421 6.87302 0
M  V30 4035 H 388.265 -2.14679 6.08755 0
M  V30 4036 H 389.033 -1.4737 8.05124 0
M  V30 4037 N 391.696 -1.35014 -0.812953 0
M  V30 4038 C 392.626 -1.30069 -1.93919 0
M  V30 4039 C 393.607 -0.176275 -1.69184 0
M  V30 4040 O 394.792 -0.370227 -1.90638 0
M  V30 4041 C 391.922 -1.06547 -3.30552 0
M  V30 4042 C 390.876 -2.15561 -3.69753 0
M  V30 4043 C 390.202 -1.77214 -5.04479 0
M  V30 4044 C 391.502 -3.57476 -3.808 0
M  V30 4045 H 393.196 -2.24303 -1.98314 0
M  V30 4046 H 390.742 -1.07977 -0.952736 0
M  V30 4047 H 392.695 -1.01729 -4.08937 0
M  V30 4048 H 391.419 -0.0875719 -3.26483 0
M  V30 4049 H 390.078 -2.19466 -2.9365 0
M  V30 4050 H 389.726 -0.780589 -4.96906 0
M  V30 4051 H 389.426 -2.50184 -5.31678 0
M  V30 4052 H 390.95 -1.7391 -5.8531 0
M  V30 4053 H 392.364 -3.55929 -4.4943 0
M  V30 4054 H 390.761 -4.29152 -4.19462 0
M  V30 4055 H 391.831 -3.94091 -2.82525 0
M  V30 4056 N 393.175 1.03435 -1.18907 0
M  V30 4057 C 394.452 1.73778 -0.89781 0
M  V30 4058 C 394.832 2.02458 0.597832 0
M  V30 4059 O 394.18 1.67482 1.55441 0
M  V30 4060 C 394.39 3.01845 -1.75187 0
M  V30 4061 C 395.738 3.7546 -1.9828 0
M  V30 4062 O 396.762 3.11759 -1.72293 0
M  V30 4063 O 395.621 4.89966 -2.42065 0
M  V30 4064 H 392.715 0.75651 -0.334098 0
M  V30 4065 H 395.261 1.09444 -1.29693 0
M  V30 4066 H 394.033 2.76836 -2.76545 0
M  V30 4067 H 393.656 3.73919 -1.35167 0
M  V30 4068 N 394.653 0.992116 1.22453 0
M  V30 4069 C 395.902 0.662992 1.90492 0
M  V30 4070 C 396.215 -0.808407 1.78113 0
M  V30 4071 O 397.421 -1.24908 2.41061 0
M  V30 4072 C 395.877 1.1353 3.41524 0
M  V30 4073 C 395.485 2.63187 3.62542 0
M  V30 4074 C 397.229 0.880465 4.15269 0
M  V30 4075 C 395.136 3.04024 5.0727 0
M  V30 4076 H 394.066 0.244278 0.713333 0
M  V30 4077 H 396.717 1.20157 1.38688 0
M  V30 4078 H 395.099 0.52485 3.92506 0
M  V30 4079 H 396.273 3.2957 3.22056 0
M  V30 4080 H 394.588 2.86543 3.02129 0
M  V30 4081 H 397.185 1.16128 5.21937 0
M  V30 4082 H 397.528 -0.183408 4.15896 0
M  V30 4083 H 398.061 1.45307 3.70312 0
M  V30 4084 H 394.8 4.09584 5.11782 0
M  V30 4085 H 394.32 2.42343 5.48662 0
M  V30 4086 H 395.999 2.95282 5.75689 0
M  V30 4087 N 396.131 -1.37776 0.765217 0
M  V30 4088 C 397.377 -2.00145 0.327072 0
M  V30 4089 C 397.71 -1.60607 -1.09175 0
M  V30 4090 O 396.985 -0.849127 -1.74986 0
M  V30 4091 C 397.268 -3.57109 0.46319 0
M  V30 4092 C 397.121 -4.06576 1.92395 0
M  V30 4093 C 398.44 -4.39888 -0.136473 0
M  V30 4094 H 395.559 -0.727113 0.120316 0
M  V30 4095 H 398.201 -1.63549 0.967039 0
M  V30 4096 H 396.351 -3.88414 -0.0816358 0
M  V30 4097 H 398.023 -3.85864 2.52798 0
M  V30 4098 H 396.266 -3.59011 2.43503 0
M  V30 4099 H 396.937 -5.15639 1.97028 0
M  V30 4100 H 399.413 -4.14803 0.328317 0
M  V30 4101 H 398.289 -5.48899 -0.0110582 0
M  V30 4102 H 398.55 -4.24758 -1.22608 0
M  V30 4103 N 397.609 -0.515225 -1.4894 0
M  V30 4104 C 399.025 -0.172099 -1.58669 0
M  V30 4105 C 399.225 1.32405 -1.51892 0
M  V30 4106 O 398.281 2.10116 -1.40027 0
M  V30 4107 C 399.594 -0.761533 -2.90897 0
M  V30 4108 C 401.142 -0.728926 -3.04394 0
M  V30 4109 C 401.617 -1.29667 -4.39261 0
M  V30 4110 N 403.108 -1.25799 -4.4579 0
M  V30 4111 C 403.843 -1.66733 -5.48623 0
M  V30 4112 N 403.339 -2.15327 -6.58488 0
M  V30 4113 N 405.132 -1.58061 -5.39419 0
M  V30 4114 H 397.283 -1.48778 -1.51588 0
M  V30 4115 H 399.546 -0.617968 -0.718901 0
M  V30 4116 H 399.252 -1.81136 -3.01468 0
M  V30 4117 H 399.126 -0.230106 -3.76497 0
M  V30 4118 H 401.513 0.312098 -2.93445 0
M  V30 4119 H 401.594 -1.29766 -2.20442 0
M  V30 4120 H 401.238 -2.33655 -4.50963 0
M  V30 4121 H 401.168 -0.703752 -5.21876 0
M  V30 4122 H 403.659 -0.902102 -3.66975 0
M  V30 4123 H 403.972 -2.44594 -7.33071 0
M  V30 4124 H 402.317 -2.19311 -6.59491 0
M  V30 4125 H 405.508 -1.19906 -4.52482 0
M  V30 4126 H 405.681 -1.90284 -6.19432 0
M  V30 4127 N 399.087 1.5561 -0.249682 0
M  V30 4128 C 400.503 1.59254 0.105103 0
M  V30 4129 C 400.703 1.26685 1.56694 0
M  V30 4130 O 399.759 1.0155 2.31179 0
M  V30 4131 C 401.072 2.99687 -0.246592 0
M  V30 4132 C 402.62 3.12416 -0.191118 0
M  V30 4133 C 403.095 4.55074 -0.516885 0
M  V30 4134 N 404.586 4.60835 -0.467489 0
M  V30 4135 C 405.321 5.69201 -0.69268 0
M  V30 4136 N 404.817 6.85817 -0.981146 0
M  V30 4137 N 406.61 5.58635 -0.623198 0
M  V30 4138 H 398.761 1.75049 -1.20298 0
M  V30 4139 H 401.024 0.815003 -0.484225 0
M  V30 4140 H 400.73 3.28267 -1.26228 0
M  V30 4141 H 400.604 3.74798 0.424962 0
M  V30 4142 H 402.991 2.83615 0.815247 0
M  V30 4143 H 403.072 2.39573 -0.896563 0
M  V30 4144 H 402.716 4.84596 -1.52082 0
M  V30 4145 H 402.646 5.26181 0.210068 0
M  V30 4146 H 405.137 3.7705 -0.253373 0
M  V30 4147 H 405.45 7.64341 -1.14032 0
M  V30 4148 H 403.795 6.87494 -1.01865 0
M  V30 4149 H 406.986 4.66406 -0.397863 0
M  V30 4150 H 407.159 6.43017 -0.802093 0
M  V30 4151 N 400.565 -0.0233959 1.57583 0
M  V30 4152 C 401.811 -0.714119 1.89811 0
M  V30 4153 C 402.144 -1.74702 0.848113 0
M  V30 4154 O 401.419 -1.94023 -0.136135 0
M  V30 4155 C 401.702 -1.37853 3.32669 0
M  V30 4156 C 401.555 -0.358764 4.48367 0
M  V30 4157 C 402.874 -2.31101 3.7454 0
M  V30 4158 H 399.993 -0.25814 0.690314 0
M  V30 4159 H 402.635 0.0230927 1.89986 0
M  V30 4160 H 400.785 -2.00689 3.3265 0
M  V30 4161 H 402.457 0.268115 4.6052 0
M  V30 4162 H 400.7 0.321387 4.32608 0
M  V30 4163 H 401.371 -0.862242 5.45224 0
M  V30 4164 H 403.847 -1.78304 3.75961 0
M  V30 4165 H 402.723 -2.74567 4.75294 0
M  V30 4166 H 402.984 -3.18018 3.0711 0
M  V30 4167 N 402.043 -1.548 -0.295768 0
M  V30 4168 C 402.99 -1.86113 -1.36494 0
M  V30 4169 C 403.96 -0.7105 -1.50137 0
M  V30 4170 O 405.145 -0.959626 -1.64912 0
M  V30 4171 C 402.285 -2.11861 -2.72413 0
M  V30 4172 C 401.398 -3.39471 -2.67177 0
M  V30 4173 C 400.533 -3.55035 -3.95125 0
M  V30 4174 C 399.572 -4.76418 -3.84308 0
M  V30 4175 N 398.709 -4.8876 -5.04042 0
M  V30 4176 H 403.549 -2.77314 -1.09091 0
M  V30 4177 H 401.086 -1.37315 -0.52753 0
M  V30 4178 H 403.044 -2.24786 -3.51464 0
M  V30 4179 H 401.674 -1.2392 -2.98066 0
M  V30 4180 H 400.726 -3.35139 -1.79962 0
M  V30 4181 H 402.038 -4.28646 -2.55076 0
M  V30 4182 H 401.192 -3.67653 -4.82614 0
M  V30 4183 H 399.931 -2.64002 -4.10066 0
M  V30 4184 H 398.936 -4.63827 -2.95202 0
M  V30 4185 H 400.161 -5.68863 -3.70906 0
M  V30 4186 H 398.107 -4.00652 -5.19436 0
M  V30 4187 H 398.024 -5.71945 -4.94384 0
M  V30 4188 H 399.292 -5.0574 -5.93167 0
M  V30 4189 N 403.521 0.559213 -1.47345 0
M  V30 4190 C 404.798 1.31997 -1.44348 0
M  V30 4191 C 405.178 2.1064 -0.139358 0
M  V30 4192 O 404.526 2.1091 0.879153 0
M  V30 4193 C 404.736 2.22618 -2.68779 0
M  V30 4194 C 406.084 2.83701 -3.1591 0
M  V30 4195 O 407.108 2.32921 -2.69493 0
M  V30 4196 O 405.967 3.75993 -3.966 0
M  V30 4197 H 403.061 0.594251 -0.575147 0
M  V30 4198 H 405.607 0.578282 -1.59543 0
M  V30 4199 H 404.379 1.64093 -3.55231 0
M  V30 4200 H 404.002 3.04085 -2.5616 0
M  V30 4201 N 404.999 1.35443 0.805782 0
M  V30 4202 C 405.909 1.30546 1.94923 0
M  V30 4203 C 406.925 0.210233 1.72725 0
M  V30 4204 O 408.101 0.43975 1.9654 0
M  V30 4205 C 405.166 1.07782 3.29521 0
M  V30 4206 C 404.227 2.26625 3.64609 0
M  V30 4207 C 403.46 2.04938 4.92784 0
M  V30 4208 O 403.683 1.01624 5.61274 0
M  V30 4209 O 402.617 2.9232 5.26149 0
M  V30 4210 H 406.443 2.26779 2.02002 0
M  V30 4211 H 404.028 1.15823 0.943682 0
M  V30 4212 H 405.91 0.969392 4.10098 0
M  V30 4213 H 404.585 0.146003 3.23371 0
M  V30 4214 H 403.492 2.43033 2.84404 0
M  V30 4215 H 404.825 3.18257 3.75464 0
M  V30 4216 N 406.477 -1.02803 1.19454 0
M  V30 4217 C 407.724 -1.76217 0.997693 0
M  V30 4218 C 408.052 -1.887 -0.47144 0
M  V30 4219 O 407.307 -1.4011 -1.3663 0
M  V30 4220 C 407.606 -3.18941 1.6128 0
M  V30 4221 C 407.272 -3.26463 3.11019 0
M  V30 4222 C 405.934 -3.28223 3.51885 0
M  V30 4223 C 408.286 -3.25542 4.07028 0
M  V30 4224 C 405.614 -3.26719 4.8731 0
M  V30 4225 C 407.966 -3.25579 5.42385 0
M  V30 4226 C 406.63 -3.25637 5.82681 0
M  V30 4227 H 405.9 -0.644823 0.365082 0
M  V30 4228 H 408.547 -1.20655 1.4871 0
M  V30 4229 H 406.852 -3.77587 1.04572 0
M  V30 4230 H 408.549 -3.74415 1.43577 0
M  V30 4231 H 405.139 -3.25822 2.78457 0
M  V30 4232 H 409.323 -3.23362 3.76498 0
M  V30 4233 H 404.579 -3.25089 5.1781 0
M  V30 4234 H 408.753 -3.23817 6.16535 0
M  V30 4235 H 406.38 -3.24226 6.87591 0
M  V30 4236 N 407.956 -0.998596 -1.21925 0
M  V30 4237 C 409.372 -0.710303 -1.42923 0
M  V30 4238 C 409.572 0.716933 -1.88314 0
M  V30 4239 O 408.628 1.48712 -2.04062 0
M  V30 4240 C 409.941 -1.72072 -2.466 0
M  V30 4241 C 411.489 -1.73681 -2.60392 0
M  V30 4242 C 411.964 -2.73601 -3.67296 0
M  V30 4243 N 413.455 -2.7223 -3.7476 0
M  V30 4244 C 414.19 -3.46206 -4.57087 0
M  V30 4245 N 413.686 -4.29802 -5.43362 0
M  V30 4246 N 415.479 -3.34886 -4.51451 0
M  V30 4247 H 407.63 -1.92028 -0.9077 0
M  V30 4248 H 409.893 -0.828487 -0.460775 0
M  V30 4249 H 409.599 -2.74231 -2.20206 0
M  V30 4250 H 409.473 -1.51818 -3.45299 0
M  V30 4251 H 411.86 -0.722173 -2.86127 0
M  V30 4252 H 411.941 -1.98005 -1.61949 0
M  V30 4253 H 411.585 -3.75217 -3.42307 0
M  V30 4254 H 411.515 -2.46545 -4.65321 0
M  V30 4255 H 414.006 -2.11576 -3.1312 0
M  V30 4256 H 414.319 -4.83061 -6.03218 0
M  V30 4257 H 412.664 -4.33887 -5.42925 0
M  V30 4258 H 415.855 -2.69015 -3.83078 0
M  V30 4259 H 416.028 -3.92796 -5.15379 0
M  V30 4260 N 409.434 1.37368 -0.772513 0
M  V30 4261 C 410.397 2.28601 -0.165541 0
M  V30 4262 C 411.397 1.48062 0.627238 0
M  V30 4263 O 412.587 1.68268 0.450715 0
M  V30 4264 C 409.719 3.32023 0.772897 0
M  V30 4265 H 410.912 2.83787 -0.969787 0
M  V30 4266 H 408.465 1.46647 -0.540775 0
M  V30 4267 H 409.2 2.81962 1.60212 0
M  V30 4268 H 408.985 3.91555 0.206585 0
M  V30 4269 H 410.475 4.00197 1.19298 0
M  V30 4270 N 410.912 0.523116 1.48665 0
M  V30 4271 C 412.323 0.0808997 1.86525 0
M  V30 4272 C 412.674 -1.33975 1.43336 0
M  V30 4273 O 411.799 -2.00221 0.821009 0
M  V30 4274 C 412.394 0.140037 3.3851 0
M  V30 4275 C 410.953 -0.246948 3.75589 0
M  V30 4276 C 410.1 0.502845 2.72703 0
M  V30 4277 H 413.051 0.734736 1.40667 0
M  V30 4278 H 413.072 -0.649945 3.74908 0
M  V30 4279 H 412.584 1.17412 3.69914 0
M  V30 4280 H 410.685 -1.28343 3.49798 0
M  V30 4281 H 410.798 0.0878859 4.79019 0
M  V30 4282 H 409.162 -0.0500581 2.54651 0
M  V30 4283 H 409.945 1.53743 3.0695 0
M  V30 4284 N 412.39 -1.55475 0.257931 0
M  V30 4285 C 413.618 -2.03609 -0.367559 0
M  V30 4286 C 414.033 -1.13687 -1.50734 0
M  V30 4287 O 413.39 -0.153479 -1.81853 0
M  V30 4288 C 413.441 -3.51001 -0.864908 0
M  V30 4289 O 413.162 -4.37499 0.229465 0
M  V30 4290 C 414.663 -4.14946 -1.55997 0
M  V30 4291 H 411.883 -0.665459 -0.0860521 0
M  V30 4292 H 414.427 -2.00843 0.385014 0
M  V30 4293 H 412.582 -3.54266 -1.56762 0
M  V30 4294 H 412.996 -5.24286 -0.14998 0
M  V30 4295 H 414.47 -5.19735 -1.85956 0
M  V30 4296 H 414.947 -3.6209 -2.4857 0
M  V30 4297 H 415.553 -4.15635 -0.901543 0
M  V30 4298 N 413.868 0.0150385 -1.57593 0
M  V30 4299 C 415.115 0.703001 -1.89906 0
M  V30 4300 C 415.443 1.74604 -0.856944 0
M  V30 4301 O 414.698 1.95197 0.140287 0
M  V30 4302 C 414.997 1.39686 -3.28972 0
M  V30 4303 C 414.663 0.488457 -4.48246 0
M  V30 4304 C 413.325 0.2383 -4.8061 0
M  V30 4305 C 415.677 -0.137881 -5.21018 0
M  V30 4306 C 413.005 -0.646738 -5.83125 0
M  V30 4307 C 415.357 -1.0107 -6.24474 0
M  V30 4308 C 414.021 -1.27019 -6.55303 0
M  V30 4309 H 413.291 0.257246 -0.694914 0
M  V30 4310 H 415.938 -0.037259 -1.91464 0
M  V30 4311 H 414.243 2.21079 -3.23468 0
M  V30 4312 H 415.94 1.93495 -3.51227 0
M  V30 4313 H 412.53 0.693593 -4.22951 0
M  V30 4314 H 416.714 0.0423953 -4.96282 0
M  V30 4315 H 411.97 -0.855937 -6.05379 0
M  V30 4316 H 416.144 -1.50247 -6.79999 0
M  V30 4317 H 413.771 -1.95769 -7.3456 0
M  V30 4318 N 415.346 1.54954 0.287554 0
M  V30 4319 C 416.592 1.75132 1.02257 0
M  V30 4320 C 416.925 0.542858 1.86458 0
M  V30 4321 O 416.2 -0.459856 1.88986 0
M  V30 4322 C 416.483 3.04812 1.91733 0
M  V30 4323 C 416.336 4.35985 1.10622 0
M  V30 4324 C 417.655 3.30438 2.90687 0
M  V30 4325 H 414.774 0.637194 0.370341 0
M  V30 4326 H 417.416 1.87678 0.296111 0
M  V30 4327 H 415.566 2.94247 2.53675 0
M  V30 4328 H 417.238 4.58487 0.508636 0
M  V30 4329 H 415.481 4.31865 0.409271 0
M  V30 4330 H 416.152 5.23017 1.76513 0
M  V30 4331 H 418.628 3.40701 2.38877 0
M  V30 4332 H 417.504 4.22467 3.50447 0
M  V30 4333 H 417.765 2.49377 3.65053 0
M  V30 4334 N 416.824 -0.551391 1.4764 0
M  V30 4335 C 418.054 -1.33163 1.57959 0
M  V30 4336 C 418.462 -1.87785 0.23094 0
M  V30 4337 O 417.805 -1.65996 -0.786825 0
M  V30 4338 C 417.867 -2.53449 2.54958 0
M  V30 4339 C 417.531 -2.20071 4.00522 0
M  V30 4340 C 418.528 -1.77017 4.88836 0
M  V30 4341 C 416.213 -2.31252 4.45901 0
M  V30 4342 C 418.207 -1.4558 6.20552 0
M  V30 4343 C 415.894 -1.99427 5.77644 0
M  V30 4344 C 416.892 -1.56659 6.64791 0
M  V30 4345 O 416.58 -1.25242 7.94084 0
M  V30 4346 H 416.312 -0.412022 0.535923 0
M  V30 4347 H 418.866 -0.674186 1.9402 0
M  V30 4348 H 417.096 -3.22104 2.13976 0
M  V30 4349 H 418.785 -3.15523 2.55343 0
M  V30 4350 H 419.551 -1.67867 4.55023 0
M  V30 4351 H 415.43 -2.63498 3.78272 0
M  V30 4352 H 418.974 -1.12125 6.8853 0
M  V30 4353 H 414.871 -2.08211 6.10998 0
M  V30 4354 H 415.639 -1.38822 8.06642 0
M  V30 4355 N 418.302 -1.35869 -0.798587 0
M  V30 4356 C 419.234 -1.25305 -1.91915 0
M  V30 4357 C 420.247 -0.174548 -1.61862 0
M  V30 4358 O 421.436 -0.428499 -1.73281 0
M  V30 4359 C 418.536 -0.9086 -3.26493 0
M  V30 4360 C 417.709 -2.08711 -3.84394 0
M  V30 4361 C 416.768 -1.71717 -4.97393 0
M  V30 4362 O 415.794 -2.43692 -5.14396 0
M  V30 4363 N 416.996 -0.645473 -5.769 0
M  V30 4364 H 419.761 -2.21849 -2.01502 0
M  V30 4365 H 417.322 -1.29143 -0.976408 0
M  V30 4366 H 419.314 -0.642455 -3.99568 0
M  V30 4367 H 417.884 -0.0325815 -3.12583 0
M  V30 4368 H 417.104 -2.51659 -3.03416 0
M  V30 4369 H 418.392 -2.87468 -4.19809 0
M  V30 4370 H 417.79 -0.047648 -5.6568 0
M  V30 4371 H 416.347 -0.43913 -6.50319 0
M  V30 4372 N 419.78 1.02168 -1.19998 0
M  V30 4373 C 421.026 1.75945 -1.00852 0
M  V30 4374 C 421.359 1.88702 0.458828 0
M  V30 4375 O 420.634 1.40911 1.34069 0
M  V30 4376 C 420.917 3.18154 -1.68671 0
M  V30 4377 C 420.77 3.13224 -3.22817 0
M  V30 4378 C 422.089 4.16711 -1.41561 0
M  V30 4379 H 419.208 0.638673 -0.367785 0
M  V30 4380 H 421.85 1.19222 -1.4794 0
M  V30 4381 H 420 3.66586 -1.28636 0
M  V30 4382 H 421.672 2.72635 -3.72112 0
M  V30 4383 H 419.915 2.50751 -3.53986 0
M  V30 4384 H 420.586 4.13728 -3.65422 0
M  V30 4385 H 423.062 3.76913 -1.76284 0
M  V30 4386 H 421.938 5.14391 -1.91553 0
M  V30 4387 H 422.199 4.40774 -0.342193 0
M  V30 4388 N 421.258 1.00505 1.21394 0
M  V30 4389 C 422.483 0.706367 1.95001 0
M  V30 4390 C 422.908 -0.72463 1.73582 0
M  V30 4391 O 422.266 -1.49702 1.0227 0
M  V30 4392 C 422.314 1.03299 3.45487 0
M  V30 4393 O 421.418 0.138275 4.12168 0
M  V30 4394 H 420.759 0.263175 0.609619 0
M  V30 4395 H 423.289 1.34531 1.54151 0
M  V30 4396 H 423.299 0.979872 3.96059 0
M  V30 4397 H 421.974 2.07567 3.60401 0
M  V30 4398 H 420.551 0.247928 3.72075 0
M  V30 4399 N 422.737 -1.36956 0.779787 0
M  V30 4400 C 423.985 -1.99097 0.347079 0
M  V30 4401 C 424.306 -1.62206 -1.08232 0
M  V30 4402 O 423.576 -0.891373 -1.74446 0
M  V30 4403 H 422.156 -0.736409 0.125342 0
M  V30 4404 H 424.818 -1.67308 0.999696 0
M  V30 4405 H 423.914 -3.09107 0.431162 0
M  V30 4406 N 424.215 -0.530993 -1.48385 0
M  V30 4407 C 425.125 0.23503 -2.3342 0
M  V30 4408 C 426.141 0.93801 -1.46552 0
M  V30 4409 O 427.317 0.912745 -1.7953 0
M  V30 4410 C 424.382 1.26778 -3.22689 0
M  V30 4411 C 423.443 0.575038 -4.25431 0
M  V30 4412 C 422.676 1.55858 -5.10435 0
M  V30 4413 O 422.899 2.79129 -4.97437 0
M  V30 4414 O 421.833 1.09742 -5.91811 0
M  V30 4415 H 425.659 -0.461794 -3.00169 0
M  V30 4416 H 423.244 -0.291903 -1.46521 0
M  V30 4417 H 425.126 1.86457 -3.77904 0
M  V30 4418 H 423.801 1.94699 -2.586 0
M  V30 4419 H 422.708 -0.0622782 -3.74048 0
M  V30 4420 H 424.041 -0.062253 -4.92161 0
M  V30 4421 N 425.693 1.55336 -0.266172 0
M  V30 4422 C 426.923 2.03506 0.356239 0
M  V30 4423 C 427.331 1.14426 1.50676 0
M  V30 4424 O 426.674 0.155043 1.83045 0
M  V30 4425 C 426.736 3.47848 0.90785 0
M  V30 4426 C 426.4 4.56861 -0.112888 0
M  V30 4427 C 427.397 5.11528 -0.929264 0
M  V30 4428 C 425.082 5.01704 -0.244546 0
M  V30 4429 C 427.076 6.09549 -1.86357 0
M  V30 4430 C 424.763 5.99553 -1.18234 0
M  V30 4431 C 425.761 6.53356 -1.99036 0
M  V30 4432 O 425.449 7.49293 -2.91231 0
M  V30 4433 H 425.181 0.670444 0.08649 0
M  V30 4434 H 427.735 2.01598 -0.39337 0
M  V30 4435 H 425.965 3.46967 1.70737 0
M  V30 4436 H 427.654 3.79407 1.44239 0
M  V30 4437 H 428.42 4.77701 -0.838237 0
M  V30 4438 H 424.299 4.59477 0.374359 0
M  V30 4439 H 427.843 6.51469 -2.49467 0
M  V30 4440 H 423.74 6.32799 -1.27421 0
M  V30 4441 H 424.508 7.66978 -2.8581 0
M  V30 4442 N 427.171 -0.0066808 1.57599 0
M  V30 4443 C 428.134 -0.985035 2.06953 0
M  V30 4444 C 429.134 -1.27663 0.977687 0
M  V30 4445 O 430.324 -1.22293 1.24057 0
M  V30 4446 C 427.456 -2.3118 2.50536 0
M  V30 4447 H 428.649 -0.558255 2.94658 0
M  V30 4448 H 426.202 -0.254011 1.54222 0
M  V30 4449 H 426.937 -2.78561 1.66054 0
M  V30 4450 H 426.722 -2.11338 3.3027 0
M  V30 4451 H 428.212 -3.01377 2.8907 0
M  V30 4452 N 428.649 -1.55105 -0.279332 0
M  V30 4453 C 429.582 -1.82467 -1.37044 0
M  V30 4454 C 430.56 -0.677261 -1.47824 0
M  V30 4455 O 431.744 -0.919578 -1.64548 0
M  V30 4456 C 428.871 -1.98066 -2.7475 0
M  V30 4457 C 427.917 -3.20594 -2.81286 0
M  V30 4458 S 428.75 -4.78116 -2.41175 0
M  V30 4459 C 429.906 -4.9668 -3.80867 0
M  V30 4460 H 430.139 -2.74728 -1.1363 0
M  V30 4461 H 427.672 -1.46794 -0.478625 0
M  V30 4462 H 429.63 -2.07739 -3.54055 0
M  V30 4463 H 428.291 -1.06704 -2.9542 0
M  V30 4464 H 427.484 -3.28376 -3.82341 0
M  V30 4465 H 427.086 -3.09479 -2.09996 0
M  V30 4466 H 429.378 -4.82033 -4.76078 0
M  V30 4467 H 430.321 -5.98741 -3.78041 0
M  V30 4468 H 430.729 -4.24698 -3.71876 0
M  V30 4469 N 430.127 0.543554 -1.4793 0
M  V30 4470 C 431.077 1.64527 -1.57844 0
M  V30 4471 C 432.061 1.54869 -0.436408 0
M  V30 4472 O 433.253 1.63119 -0.687101 0
M  V30 4473 C 430.382 3.03281 -1.6086 0
M  V30 4474 C 429.468 3.18093 -2.80495 0
M  V30 4475 N 429.859 3.02923 -4.05057 0
M  V30 4476 C 428.157 3.49121 -2.77543 0
M  V30 4477 C 428.858 3.20791 -4.85251 0
M  V30 4478 N 427.834 3.47749 -4.17818 0
M  V30 4479 H 431.636 1.51388 -2.5191 0
M  V30 4480 H 429.15 0.748671 -1.44113 0
M  V30 4481 H 431.147 3.82403 -1.66054 0
M  V30 4482 H 429.807 3.17521 -0.678996 0
M  V30 4483 H 430.818 2.79966 -4.35705 0
M  V30 4484 H 427.495 3.69804 -1.93781 0
M  V30 4485 H 428.885 3.13915 -5.9406 0
M  V30 4486 N 431.605 1.3629 0.791371 0
M  V30 4487 C 432.538 1.24816 1.9104 0
M  V30 4488 C 433.516 0.132739 1.62057 0
M  V30 4489 O 434.7 0.303527 1.8604 0
M  V30 4490 C 431.827 0.925355 3.25814 0
M  V30 4491 C 430.873 2.05495 3.7373 0
M  V30 4492 S 431.706 3.67255 3.89723 0
M  V30 4493 C 432.862 3.37084 5.27376 0
M  V30 4494 H 433.095 2.19533 2.00481 0
M  V30 4495 H 430.628 1.21684 0.950393 0
M  V30 4496 H 432.586 0.745924 4.03666 0
M  V30 4497 H 431.247 -0.00400098 3.141 0
M  V30 4498 H 430.44 1.7836 4.71385 0
M  V30 4499 H 430.042 2.1935 3.02922 0
M  V30 4500 H 432.334 2.90856 6.1189 0
M  V30 4501 H 433.277 4.33995 5.59512 0
M  V30 4502 H 433.685 2.7248 4.94383 0
M  V30 4503 N 433.083 -1.0153 1.20538 0
M  V30 4504 C 434.331 -1.74803 1.01432 0
M  V30 4505 C 434.652 -1.8963 -0.454456 0
M  V30 4506 O 433.922 -1.43975 -1.32846 0
M  V30 4507 H 432.502 -0.647598 0.372324 0
M  V30 4508 H 435.164 -1.22402 1.5167 0
M  V30 4509 H 434.26 -2.75114 1.47373 0
M  V30 4510 N 434.561 -1.01147 -1.20859 0
M  V30 4511 C 435.524 -0.582224 -2.21682 0
M  V30 4512 C 436.524 0.344887 -1.57058 0
M  V30 4513 O 437.714 0.134281 -1.73682 0
M  V30 4514 C 434.846 0.150496 -3.40568 0
M  V30 4515 H 436.039 -1.47408 -2.61172 0
M  V30 4516 H 433.592 -0.800695 -1.34233 0
M  V30 4517 H 434.327 1.0575 -3.06574 0
M  V30 4518 H 434.112 -0.515444 -3.88697 0
M  V30 4519 H 435.602 0.438344 -4.15293 0
M  V30 4520 N 436.039 1.36541 -0.78704 0
M  V30 4521 C 437.288 1.98552 -0.35494 0
M  V30 4522 C 437.601 1.63171 1.07864 0
M  V30 4523 O 438.807 2.18399 1.61289 0
M  V30 4524 C 437.263 3.55136 -0.583671 0
M  V30 4525 C 436.871 3.99444 -2.02851 0
M  V30 4526 C 438.615 4.2395 -0.215957 0
M  V30 4527 C 436.522 5.48796 -2.20403 0
M  V30 4528 H 435.452 0.742888 -0.128972 0
M  V30 4529 H 438.103 1.5587 -0.968337 0
M  V30 4530 H 436.485 3.95875 0.0994046 0
M  V30 4531 H 437.659 3.6991 -2.74779 0
M  V30 4532 H 435.974 3.43459 -2.35425 0
M  V30 4533 H 438.571 5.33709 -0.325405 0
M  V30 4534 H 438.914 4.07827 0.835646 0
M  V30 4535 H 439.447 3.88565 -0.852175 0
M  V30 4536 H 436.186 5.69864 -3.23937 0
M  V30 4537 H 435.706 5.79964 -1.52977 0
M  V30 4538 H 437.385 6.14986 -2.01002 0
M  V30 4539 N 437.518 0.538854 1.48102 0
M  V30 4540 C 438.45 -0.256278 2.27763 0
M  V30 4541 C 439.463 -0.89633 1.35904 0
M  V30 4542 O 440.652 -0.773275 1.60881 0
M  V30 4543 C 437.752 -1.37896 3.09577 0
M  V30 4544 C 436.925 -0.839159 4.29275 0
M  V30 4545 C 435.984 -1.84405 4.9283 0
M  V30 4546 O 435.01 -1.39746 5.51779 0
M  V30 4547 N 436.212 -3.17666 4.85869 0
M  V30 4548 H 438.977 0.426968 2.96643 0
M  V30 4549 H 436.538 0.373747 1.57527 0
M  V30 4550 H 438.53 -2.04955 3.48963 0
M  V30 4551 H 437.1 -1.96572 2.4306 0
M  V30 4552 H 436.32 0.00769287 3.94199 0
M  V30 4553 H 437.608 -0.457548 5.06739 0
M  V30 4554 H 437.006 -3.56609 4.39143 0
M  V30 4555 H 435.563 -3.80334 5.29329 0
M  V30 4556 N 438.996 -1.55193 0.274407 0
M  V30 4557 C 439.944 -2.23924 -0.629362 0
M  V30 4558 C 440.938 -1.23602 -1.1584 0
M  V30 4559 O 442.144 -1.41535 -1.11211 0
M  V30 4560 H 438.519 -0.718637 -0.221507 0
M  V30 4561 H 440.49 -2.98388 -0.0268322 0
M  V30 4562 C 439.239 -2.97329 -1.80252 0
M  V30 4563 H 438.562 -3.74313 -1.40462 0
M  V30 4564 H 440.002 -3.48743 -2.41152 0
M  V30 4565 C 438.461 -2.0276 -2.69054 0
M  V30 4566 O 438.991 -1.57836 -3.69392 0
M  V30 4567 N 437.197 -1.69275 -2.36208 0
M  V30 4568 H 436.744 -2.06004 -1.54661 0
M  V30 4569 H 436.702 -1.06271 -2.95895 0
M  V30 4570 N 440.474 -0.00167713 -1.576 0
M  V30 4571 C 441.722 0.681471 -1.90264 0
M  V30 4572 C 442.043 1.7422 -0.875924 0
M  V30 4573 O 441.313 1.95709 0.0864412 0
M  V30 4574 H 439.893 0.254696 -0.702239 0
M  V30 4575 H 442.555 -0.0429996 -1.94853 0
M  V30 4576 H 441.651 1.15166 -2.90075 0
M  V30 4577 N 441.952 1.55251 0.271103 0
M  V30 4578 C 443.198 1.7713 0.999832 0
M  V30 4579 C 443.553 0.56659 1.83868 0
M  V30 4580 O 442.846 -0.44069 1.86463 0
M  V30 4581 C 443.04 3.01879 1.91321 0
M  V30 4582 C 442.869 4.34368 1.16426 0
M  V30 4583 C 441.639 4.97593 0.879169 0
M  V30 4584 C 443.837 5.1131 0.553749 0
M  V30 4585 N 441.819 6.13813 0.103618 0
M  V30 4586 C 443.19 6.19938 -0.0875442 0
M  V30 4587 C 445.245 4.95754 0.461782 0
M  V30 4588 C 443.948 7.14703 -0.811942 0
M  V30 4589 C 445.974 5.90875 -0.249027 0
M  V30 4590 C 445.336 6.98893 -0.879051 0
M  V30 4591 H 441.435 0.700407 0.347784 0
M  V30 4592 H 444.019 1.92744 0.275314 0
M  V30 4593 H 442.19 2.87637 2.60997 0
M  V30 4594 H 443.922 3.12154 2.57569 0
M  V30 4595 H 440.677 4.58538 1.18491 0
M  V30 4596 H 441.101 6.76455 -0.271543 0
M  V30 4597 H 445.743 4.12342 0.934552 0
M  V30 4598 H 443.461 7.97634 -1.29639 0
M  V30 4599 H 447.047 5.80916 -0.320529 0
M  V30 4600 H 445.927 7.71231 -1.42031 0
M  V30 4601 N 443.43 -0.535701 1.48216 0
M  V30 4602 C 444.36 -1.65014 1.65204 0
M  V30 4603 C 445.341 -1.62554 0.501011 0
M  V30 4604 O 446.526 -1.7984 0.732886 0
M  V30 4605 C 443.656 -3.03616 1.68626 0
M  V30 4606 C 442.61 -3.20932 2.83172 0
M  V30 4607 C 441.936 -4.60537 2.71679 0
M  V30 4608 C 443.236 -3.04249 4.24535 0
M  V30 4609 H 444.93 -1.51053 2.58502 0
M  V30 4610 H 442.476 -0.725262 1.24402 0
M  V30 4611 H 444.429 -3.81446 1.79099 0
M  V30 4612 H 443.153 -3.18587 0.719026 0
M  V30 4613 H 441.812 -2.45517 2.72244 0
M  V30 4614 H 441.46 -4.72336 1.72937 0
M  V30 4615 H 441.16 -4.73069 3.48538 0
M  V30 4616 H 442.684 -5.40475 2.84112 0
M  V30 4617 H 444.098 -3.71877 4.36326 0
M  V30 4618 H 442.495 -3.28278 5.02348 0
M  V30 4619 H 443.565 -2.00739 4.41397 0
M  V30 4620 N 444.908 -1.36708 -0.784132 0
M  V30 4621 C 445.871 -1.31307 -1.87859 0
M  V30 4622 C 446.871 -0.219654 -1.59293 0
M  V30 4623 O 448.061 -0.47476 -1.67606 0
M  V30 4624 C 445.193 -1.03679 -3.24751 0
M  V30 4625 H 446.386 -2.28647 -1.94064 0
M  V30 4626 H 443.939 -1.21558 -0.98252 0
M  V30 4627 H 444.674 -0.0681936 -3.24228 0
M  V30 4628 H 444.459 -1.82811 -3.46876 0
M  V30 4629 H 445.949 -1.02518 -4.04821 0
M  V30 4630 N 446.386 1.0089 -1.21074 0
M  V30 4631 C 447.296 2.13039 -0.982425 0
M  V30 4632 C 448.312 1.73881 0.0642161 0
M  V30 4633 O 449.488 2.01012 -0.12496 0
M  V30 4634 C 446.553 3.42377 -0.545803 0
M  V30 4635 C 445.614 3.95731 -1.6642 0
M  V30 4636 C 444.847 5.18896 -1.24832 0
M  V30 4637 O 445.07 5.70273 -0.120265 0
M  V30 4638 O 444.004 5.65597 -2.05873 0
M  V30 4639 H 447.83 2.35175 -1.92163 0
M  V30 4640 H 445.415 1.1142 -0.995285 0
M  V30 4641 H 447.297 4.20244 -0.311912 0
M  V30 4642 H 445.972 3.21639 0.364727 0
M  V30 4643 H 444.879 3.19108 -1.95246 0
M  V30 4644 H 446.212 4.20872 -2.55201 0
M  V30 4645 N 447.864 1.01787 1.20321 0
M  V30 4646 C 449.089 0.727009 1.9424 0
M  V30 4647 C 449.514 -0.706179 1.74341 0
M  V30 4648 O 448.872 -1.48609 1.03852 0
M  V30 4649 C 448.92 1.06958 3.44372 0
M  V30 4650 O 448.024 0.181983 4.11998 0
M  V30 4651 H 447.365 0.269626 0.606793 0
M  V30 4652 H 449.895 1.36158 1.52716 0
M  V30 4653 H 449.905 1.02182 3.94997 0
M  V30 4654 H 448.58 2.11378 3.58179 0
M  V30 4655 H 447.157 0.287378 3.71791 0
M  V30 4656 N 449.342 -1.36122 0.79427 0
M  V30 4657 C 450.588 -1.99406 0.369452 0
M  V30 4658 C 450.921 -1.62886 -1.05743 0
M  V30 4659 O 450.196 -0.886053 -1.73145 0
M  V30 4660 C 450.479 -3.56046 0.538833 0
M  V30 4661 C 450.332 -4.02404 2.00976 0
M  V30 4662 C 451.651 -4.40079 -0.0431359 0
M  V30 4663 H 448.77 -0.724397 0.135712 0
M  V30 4664 H 451.412 -1.61461 1.00151 0
M  V30 4665 H 449.562 -3.885 0.000771004 0
M  V30 4666 H 451.234 -3.80415 2.60926 0
M  V30 4667 H 449.477 -3.53765 2.51063 0
M  V30 4668 H 450.148 -5.11344 2.07922 0
M  V30 4669 H 452.624 -4.14013 0.416228 0
M  V30 4670 H 451.5 -5.48799 0.105374 0
M  V30 4671 H 451.761 -4.27264 -1.13571 0
M  V30 4672 N 450.82 -0.546701 -1.47814 0
M  V30 4673 C 452.069 -0.0166497 -2.01693 0
M  V30 4674 C 452.382 1.33721 -1.42752 0
M  V30 4675 O 453.588 1.95658 -1.8823 0
M  V30 4676 C 452.044 0.0206769 -3.59894 0
M  V30 4677 C 451.652 -1.3293 -4.27824 0
M  V30 4678 C 453.396 0.498674 -4.21561 0
M  V30 4679 C 451.303 -1.25165 -5.78003 0
M  V30 4680 H 450.233 -0.0024541 -0.753996 0
M  V30 4681 H 452.884 -0.692984 -1.69912 0
M  V30 4682 H 451.266 0.76244 -3.88591 0
M  V30 4683 H 452.44 -2.08795 -4.10781 0
M  V30 4684 H 450.755 -1.74438 -3.78101 0
M  V30 4685 H 453.352 0.575 -5.31599 0
M  V30 4686 H 453.695 1.5083 -3.88016 0
M  V30 4687 H 454.228 -0.18791 -3.97356 0
M  V30 4688 H 450.967 -2.23695 -6.1615 0
M  V30 4689 H 450.487 -0.53464 -5.97412 0
M  V30 4690 H 452.166 -0.949299 -6.39998 0
M  V30 4691 N 452.299 1.55045 -0.282633 0
M  V30 4692 C 453.229 2.2579 0.595066 0
M  V30 4693 C 454.21 1.25074 1.15284 0
M  V30 4694 O 455.395 1.5381 1.18559 0
M  V30 4695 C 452.525 2.98472 1.77572 0
M  V30 4696 C 451.479 4.0618 1.34914 0
M  V30 4697 C 450.805 4.66477 2.6135 0
M  V30 4698 C 452.105 5.1996 0.493821 0
M  V30 4699 H 453.799 2.994 0.00505653 0
M  V30 4700 H 451.345 1.44 0.000992001 0
M  V30 4701 H 453.298 3.46677 2.39568 0
M  V30 4702 H 452.022 2.2241 2.39168 0
M  V30 4703 H 450.681 3.58797 0.752338 0
M  V30 4704 H 450.329 3.87074 3.2122 0
M  V30 4705 H 450.029 5.39207 2.33516 0
M  V30 4706 H 451.553 5.17435 3.24181 0
M  V30 4707 H 452.967 5.64172 1.01898 0
M  V30 4708 H 451.364 5.99299 0.310047 0
M  V30 4709 H 452.434 4.82462 -0.485593 0
M  V30 4710 N 453.777 0.010035 1.57597 0
M  V30 4711 C 454.687 -0.994226 2.12491 0
M  V30 4712 C 455.703 -1.37013 1.07254 0
M  V30 4713 O 456.879 -1.45542 1.3921 0
M  V30 4714 C 453.944 -2.2642 2.62555 0
M  V30 4715 C 453.005 -1.95049 3.82432 0
M  V30 4716 C 452.238 -3.15991 4.30099 0
M  V30 4717 O 452.461 -4.28015 3.7704 0
M  V30 4718 O 451.395 -2.99403 5.22151 0
M  V30 4719 H 455.221 -0.557549 2.98538 0
M  V30 4720 H 452.806 -0.209413 1.47925 0
M  V30 4721 H 454.688 -3.01009 2.9491 0
M  V30 4722 H 453.363 -2.69306 1.796 0
M  V30 4723 H 452.27 -1.17904 3.55034 0
M  V30 4724 H 453.603 -1.56992 4.66491 0
M  V30 4725 N 455.255 -1.55392 -0.262866 0
M  V30 4726 C 456.48 -1.80847 -1.01533 0
M  V30 4727 C 456.905 -0.584946 -1.78774 0
M  V30 4728 O 456.263 0.465701 -1.75217 0
M  V30 4729 C 456.311 -3.03866 -1.94159 0
M  V30 4730 O 455.415 -2.79662 -3.03089 0
M  V30 4731 H 454.756 -0.597441 -0.289759 0
M  V30 4732 H 457.286 -2.02553 -0.288698 0
M  V30 4733 H 457.296 -3.32872 -2.35924 0
M  V30 4734 H 455.971 -3.92564 -1.37354 0
M  V30 4735 H 454.548 -2.61781 -2.65566 0
M  V30 4736 N 456.733 0.527833 -1.48498 0
M  V30 4737 C 457.663 1.64136 -1.66077 0
M  V30 4738 C 458.644 1.62286 -0.509625 0
M  V30 4739 O 459.829 1.79449 -0.742413 0
M  V30 4740 C 456.959 3.02717 -1.70234 0
M  V30 4741 C 455.913 3.19426 -2.8487 0
M  V30 4742 C 455.239 4.5909 -2.74118 0
M  V30 4743 C 456.539 3.01993 -4.26142 0
M  V30 4744 H 458.233 1.4968 -2.593 0
M  V30 4745 H 455.779 0.718654 -1.24785 0
M  V30 4746 H 457.732 3.80491 -1.8112 0
M  V30 4747 H 456.456 3.18201 -0.735911 0
M  V30 4748 H 455.115 2.4407 -2.73542 0
M  V30 4749 H 454.763 4.71413 -1.7544 0
M  V30 4750 H 454.463 4.71214 -3.51042 0
M  V30 4751 H 455.987 5.3896 -2.86974 0
M  V30 4752 H 457.401 3.69558 -4.38292 0
M  V30 4753 H 455.798 3.2561 -5.04082 0
M  V30 4754 H 456.868 1.98396 -4.42456 0
M  V30 4755 N 458.211 1.37122 0.776871 0
M  V30 4756 C 459.439 1.3523 1.5659 0
M  V30 4757 C 459.854 -0.0635518 1.88693 0
M  V30 4758 O 459.211 -1.02394 1.51069 0
M  V30 4759 C 459.262 2.18583 2.8793 0
M  V30 4760 O 458.983 3.5465 2.57206 0
M  V30 4761 C 460.484 2.24612 3.82183 0
M  V30 4762 H 457.704 0.4634 0.485285 0
M  V30 4763 H 460.248 1.80392 0.963266 0
M  V30 4764 H 458.403 1.76943 3.4463 0
M  V30 4765 H 458.817 3.98286 3.41275 0
M  V30 4766 H 460.291 2.87267 4.71361 0
M  V30 4767 H 460.768 1.25309 4.20944 0
M  V30 4768 H 461.374 2.66543 3.31414 0
M  V30 4769 N 459.689 -1.00246 1.21608 0
M  V30 4770 C 460.652 -2.07233 0.979133 0
M  V30 4771 C 461.652 -1.6072 -0.0508219 0
M  V30 4772 O 462.842 -1.73196 0.186712 0
M  V30 4773 C 459.974 -3.37546 0.477016 0
M  V30 4774 H 461.167 -2.29687 1.92831 0
M  V30 4775 H 458.72 -1.17261 1.03342 0
M  V30 4776 H 459.455 -3.20773 -0.476966 0
M  V30 4777 H 459.24 -3.72638 1.21997 0
M  V30 4778 H 460.73 -4.16285 0.331181 0
M  V30 4779 N 461.167 -1.02423 -1.1978 0
M  V30 4780 C 462.414 -0.717988 -1.89344 0
M  V30 4781 C 462.742 0.753036 -1.79331 0
M  V30 4782 O 461.997 1.56355 -1.17692 0
M  V30 4783 C 462.296 -1.1088 -3.39765 0
M  V30 4784 C 461.962 -2.57731 -3.6998 0
M  V30 4785 C 460.624 -2.97854 -3.77937 0
M  V30 4786 C 462.976 -3.52763 -3.83677 0
M  V30 4787 C 460.304 -4.31931 -3.97054 0
M  V30 4788 C 462.656 -4.86538 -4.04306 0
M  V30 4789 C 461.32 -5.26356 -4.10494 0
M  V30 4790 H 460.59 -0.26273 -0.692859 0
M  V30 4791 H 463.237 -1.28623 -1.41875 0
M  V30 4792 H 461.542 -0.459094 -3.89101 0
M  V30 4793 H 463.239 -0.849432 -3.919 0
M  V30 4794 H 459.829 -2.25646 -3.64393 0
M  V30 4795 H 464.013 -3.2292 -3.76877 0
M  V30 4796 H 459.269 -4.62324 -4.00083 0
M  V30 4797 H 463.443 -5.60093 -4.13846 0
M  V30 4798 H 461.07 -6.3026 -4.2506 0
M  V30 4799 N 462.645 1.35699 -0.801477 0
M  V30 4800 C 463.592 2.29876 -0.206294 0
M  V30 4801 C 464.562 1.52565 0.656752 0
M  V30 4802 O 465.747 1.81024 0.602906 0
M  V30 4803 C 462.887 3.39052 0.643272 0
M  V30 4804 C 462 4.31335 -0.239644 0
M  V30 4805 C 461.135 5.27599 0.61744 0
M  V30 4806 C 460.174 6.11521 -0.26619 0
M  V30 4807 N 459.311 6.99938 0.550571 0
M  V30 4808 H 464.151 2.80187 -1.01484 0
M  V30 4809 H 461.688 1.37902 -0.511997 0
M  V30 4810 H 463.646 4.0101 1.15094 0
M  V30 4811 H 462.276 2.9003 1.41713 0
M  V30 4812 H 461.328 3.70426 -0.865381 0
M  V30 4813 H 462.64 4.90243 -0.919985 0
M  V30 4814 H 461.794 5.94906 1.19045 0
M  V30 4815 H 460.533 4.69176 1.33137 0
M  V30 4816 H 459.538 5.43166 -0.851507 0
M  V30 4817 H 460.763 6.72022 -0.9779 0
M  V30 4818 H 458.709 6.44008 1.24856 0
M  V30 4819 H 458.626 7.55966 -0.071832 0
M  V30 4820 H 459.894 7.71599 1.10702 0
M  V30 4821 N 464.123 0.554532 1.47522 0
M  V30 4822 C 465.539 0.214107 1.58157 0
M  V30 4823 C 465.739 -1.28331 1.55349 0
M  V30 4824 O 464.795 -2.06329 1.45549 0
M  V30 4825 C 466.108 0.838391 2.88776 0
M  V30 4826 C 467.656 0.809374 3.02354 0
M  V30 4827 C 468.131 1.41268 4.35669 0
M  V30 4828 N 469.622 1.37574 4.42298 0
M  V30 4829 C 470.357 1.8122 5.4401 0
M  V30 4830 N 469.853 2.3271 6.52547 0
M  V30 4831 N 471.646 1.72307 5.35039 0
M  V30 4832 H 463.797 1.52744 1.4759 0
M  V30 4833 H 466.06 0.636812 0.702264 0
M  V30 4834 H 465.766 1.89065 2.96559 0
M  V30 4835 H 465.64 0.329847 3.75755 0
M  V30 4836 H 468.027 -0.234187 2.94169 0
M  V30 4837 H 468.108 1.35565 2.16924 0
M  V30 4838 H 467.752 2.45529 4.4461 0
M  V30 4839 H 467.682 0.841871 5.19827 0
M  V30 4840 H 470.173 0.999081 3.64454 0
M  V30 4841 H 470.486 2.63944 7.26329 0
M  V30 4842 H 468.831 2.36719 6.53444 0
M  V30 4843 H 472.022 1.3186 4.49144 0
M  V30 4844 H 472.195 2.06641 6.14169 0
M  V30 4845 N 465.601 -1.54893 0.290851 0
M  V30 4846 C 466.564 -2.21824 -0.576784 0
M  V30 4847 C 467.564 -1.20104 -1.06919 0
M  V30 4848 O 468.754 -1.44906 -0.966843 0
M  V30 4849 C 465.886 -2.89662 -1.79747 0
M  V30 4850 H 467.079 -2.99899 0.00784051 0
M  V30 4851 H 464.632 -1.56245 0.0415934 0
M  V30 4852 H 465.367 -2.15639 -2.42219 0
M  V30 4853 H 465.152 -3.64219 -1.45214 0
M  V30 4854 H 466.642 -3.4075 -2.4141 0
M  V30 4855 N 467.08 -0.0183926 -1.57589 0
M  V30 4856 C 468.328 0.661253 -1.90976 0
M  V30 4857 C 468.649 1.73281 -0.894353 0
M  V30 4858 O 467.919 1.9579 0.0656788 0
M  V30 4859 H 466.499 0.247233 -0.704901 0
M  V30 4860 H 469.161 -0.0636639 -1.94796 0
M  V30 4861 H 468.257 1.12083 -2.9128 0
M  V30 4862 N 468.558 1.5553 0.254621 0
M  V30 4863 C 469.521 1.88872 1.29846 0
M  V30 4864 C 470.521 0.764591 1.41459 0
M  V30 4865 O 471.711 1.03265 1.40293 0
M  V30 4866 C 468.843 2.11032 2.67728 0
M  V30 4867 H 470.036 2.82201 1.01502 0
M  V30 4868 H 467.589 1.48303 0.493556 0
M  V30 4869 H 468.324 1.20146 3.01223 0
M  V30 4870 H 468.109 2.92895 2.60682 0
M  V30 4871 H 469.599 2.38038 3.43115 0
M  V30 4872 N 470.036 -0.519951 1.48776 0
M  V30 4873 C 471.313 -1.28123 1.47797 0
M  V30 4874 C 471.693 -2.10196 0.195157 0
M  V30 4875 O 471.041 -2.13167 -0.822925 0
M  V30 4876 C 471.251 -2.15413 2.74587 0
M  V30 4877 C 472.599 -2.75225 3.23321 0
M  V30 4878 O 473.623 -2.25694 2.75574 0
M  V30 4879 O 472.482 -3.65346 4.06429 0
M  V30 4880 H 469.576 -0.578793 0.590701 0
M  V30 4881 H 472.122 -0.535779 1.6102 0
M  V30 4882 H 470.894 -1.54617 3.59457 0
M  V30 4883 H 470.517 -2.97186 2.64132 0
M  V30 4884 N 471.514 -1.37532 -0.769588 0
M  V30 4885 C 472.762 -1.32597 -1.5252 0
M  V30 4886 C 473.083 0.0884294 -1.94799 0
M  V30 4887 O 472.353 1.03289 -1.66458 0
M  V30 4888 H 470.933 -0.487846 -0.565699 0
M  V30 4889 H 473.595 -1.72044 -0.915806 0
M  V30 4890 H 472.691 -1.96643 -2.42359 0
M  V30 4891 N 472.992 0.995999 -1.22138 0
M  V30 4892 C 474.241 1.72928 -1.03821 0
M  V30 4893 C 474.554 1.90872 0.427444 0
M  V30 4894 O 475.76 2.61496 0.730212 0
M  V30 4895 C 474.216 3.11124 -1.80913 0
M  V30 4896 C 473.824 3.01122 -3.31707 0
M  V30 4897 C 475.568 3.8852 -1.71035 0
M  V30 4898 C 473.475 4.34453 -4.01253 0
M  V30 4899 H 472.405 0.648376 -0.384869 0
M  V30 4900 H 475.056 1.11213 -1.45959 0
M  V30 4901 H 473.438 3.73503 -1.31573 0
M  V30 4902 H 474.612 2.47926 -3.88419 0
M  V30 4903 H 472.927 2.3721 -3.42228 0
M  V30 4904 H 475.524 4.872 -2.20318 0
M  V30 4905 H 475.867 4.1087 -0.670196 0
M  V30 4906 H 476.4 3.32812 -2.17902 0
M  V30 4907 H 473.139 4.17303 -5.05508 0
M  V30 4908 H 472.659 4.87574 -3.49331 0
M  V30 4909 H 474.338 5.03215 -4.06674 0
M  V30 4910 N 474.47 1.03057 1.19235 0
M  V30 4911 C 475.4 0.633497 2.24742 0
M  V30 4912 C 476.381 -0.358335 1.66283 0
M  V30 4913 O 477.566 -0.240676 1.92703 0
M  V30 4914 C 474.696 -0.0147648 3.47297 0
M  V30 4915 C 473.65 0.899527 4.18441 0
M  V30 4916 C 472.976 0.116281 5.34574 0
M  V30 4917 C 474.276 2.21404 4.73051 0
M  V30 4918 H 475.97 1.5155 2.58211 0
M  V30 4919 H 473.516 0.73014 1.24117 0
M  V30 4920 H 475.469 -0.304202 4.20301 0
M  V30 4921 H 474.193 -0.931577 3.13032 0
M  V30 4922 H 472.852 1.17319 3.47321 0
M  V30 4923 H 472.5 -0.802619 4.96555 0
M  V30 4924 H 472.2 0.725293 5.83107 0
M  V30 4925 H 473.724 -0.166376 6.10373 0
M  V30 4926 H 475.138 1.98601 5.37802 0
M  V30 4927 H 473.535 2.77512 5.32078 0
M  V30 4928 H 474.605 2.86752 3.91026 0
M  V30 4929 N 475.948 -1.35272 0.808662 0
M  V30 4930 C 477.176 -2.02946 0.402537 0
M  V30 4931 C 477.591 -1.60937 -0.987147 0
M  V30 4932 O 476.948 -0.807917 -1.63643 0
M  V30 4933 C 476.999 -3.58317 0.47868 0
M  V30 4934 O 476.72 -3.98799 1.81358 0
M  V30 4935 C 478.221 -4.43251 0.0656281 0
M  V30 4936 H 475.441 -0.650831 0.163279 0
M  V30 4937 H 477.985 -1.72849 1.09286 0
M  V30 4938 H 476.14 -3.87055 -0.163415 0
M  V30 4939 H 476.554 -4.93451 1.77781 0
M  V30 4940 H 478.028 -5.51738 0.170017 0
M  V30 4941 H 478.505 -4.27913 -0.989278 0
M  V30 4942 H 479.111 -4.19813 0.68096 0
M  V30 4943 N 477.426 -0.562348 -1.47226 0
M  V30 4944 C 478.656 -0.0451619 -2.06551 0
M  V30 4945 C 479.064 1.25626 -1.41473 0
M  V30 4946 O 478.407 1.76563 -0.507061 0
M  V30 4947 C 478.469 0.216068 -3.5885 0
M  V30 4948 C 478.133 -0.996691 -4.45999 0
M  V30 4949 C 479.13 -1.90358 -4.83797 0
M  V30 4950 C 476.815 -1.21281 -4.87438 0
M  V30 4951 C 478.809 -3.01023 -5.6184 0
M  V30 4952 C 476.496 -2.32255 -5.65244 0
M  V30 4953 C 477.494 -3.21956 -6.02356 0
M  V30 4954 O 477.182 -4.31005 -6.78594 0
M  V30 4955 H 476.914 -0.0451646 -0.67449 0
M  V30 4956 H 479.468 -0.776842 -1.90143 0
M  V30 4957 H 477.698 1.00212 -3.7349 0
M  V30 4958 H 479.387 0.679264 -4.00176 0
M  V30 4959 H 480.153 -1.74868 -4.52378 0
M  V30 4960 H 476.032 -0.523767 -4.58015 0
M  V30 4961 H 479.576 -3.71064 -5.90726 0
M  V30 4962 H 475.473 -2.47715 -5.96077 0
M  V30 4963 H 476.241 -4.29118 -6.96994 0
M  V30 4964 N 478.904 1.54736 -0.299062 0
M  V30 4965 C 480.151 2.00101 0.310784 0
M  V30 4966 C 480.479 1.18746 1.54045 0
M  V30 4967 O 479.734 0.251198 1.94081 0
M  V30 4968 C 480.033 3.50199 0.713835 0
M  V30 4969 C 479.699 4.48997 -0.413873 0
M  V30 4970 C 478.361 4.7573 -0.723462 0
M  V30 4971 C 480.713 5.07839 -1.17257 0
M  V30 4972 C 478.041 5.5857 -1.79491 0
M  V30 4973 C 480.393 5.91844 -2.23392 0
M  V30 4974 C 479.057 6.16889 -2.54959 0
M  V30 4975 H 478.327 0.732221 0.113724 0
M  V30 4976 H 480.974 1.86888 -0.417756 0
M  V30 4977 H 479.279 3.61012 1.52243 0
M  V30 4978 H 480.976 3.82723 1.19684 0
M  V30 4979 H 477.566 4.28292 -0.162476 0
M  V30 4980 H 481.75 4.87188 -0.946651 0
M  V30 4981 H 477.006 5.76213 -2.04423 0
M  V30 4982 H 481.18 6.36465 -2.8264 0
M  V30 4983 H 478.807 6.80869 -3.38114 0
M  V30 4984 N 480.382 0.0267497 1.57577 0
M  V30 4985 C 481.345 -0.940916 2.08996 0
M  V30 4986 C 482.345 -1.25561 1.00455 0
M  V30 4987 O 483.535 -1.19634 1.26623 0
M  V30 4988 C 480.667 -2.25814 2.55384 0
M  V30 4989 H 481.86 -0.495628 2.95776 0
M  V30 4990 H 479.413 -0.221241 1.54726 0
M  V30 4991 H 480.148 -2.74976 1.71926 0
M  V30 4992 H 479.933 -2.04285 3.34679 0
M  V30 4993 H 481.423 -2.95178 2.95398 0
M  V30 4994 N 481.861 -1.55662 -0.24637 0
M  V30 4995 C 482.808 -1.90361 -1.30504 0
M  V30 4996 C 483.778 -0.757905 -1.47801 0
M  V30 4997 O 484.963 -1.01161 -1.61775 0
M  V30 4998 C 482.103 -2.2042 -2.65535 0
M  V30 4999 C 481.216 -3.47799 -2.56242 0
M  V30 5000 C 480.351 -3.67426 -3.8363 0
M  V30 5001 C 479.39 -4.88403 -3.68956 0
M  V30 5002 N 478.527 -5.04548 -4.88237 0
M  V30 5003 H 483.367 -2.80645 -1.00213 0
M  V30 5004 H 480.904 -1.38924 -0.483577 0
M  V30 5005 H 482.862 -2.35853 -3.44135 0
M  V30 5006 H 481.492 -1.3334 -2.93973 0
M  V30 5007 H 480.544 -3.40694 -1.69208 0
M  V30 5008 H 481.856 -4.36544 -2.4131 0
M  V30 5009 H 481.01 -3.82821 -4.70673 0
M  V30 5010 H 479.749 -2.76914 -4.01459 0
M  V30 5011 H 478.754 -4.72984 -2.80296 0
M  V30 5012 H 479.979 -5.80375 -3.52621 0
M  V30 5013 H 477.925 -4.16974 -5.06427 0
M  V30 5014 H 477.842 -5.87384 -4.75937 0
M  V30 5015 H 479.11 -5.24355 -5.76777 0
M  V30 5016 N 483.339 0.512053 -1.4905 0
M  V30 5017 C 484.271 1.63121 -1.6101 0
M  V30 5018 C 485.284 1.55145 -0.493352 0
M  V30 5019 O 486.473 1.61278 -0.764955 0
M  V30 5020 C 483.573 3.01863 -1.54052 0
M  V30 5021 C 482.746 3.35138 -2.81072 0
M  V30 5022 C 481.805 4.5324 -2.67319 0
M  V30 5023 O 480.831 4.55571 -3.41238 0
M  V30 5024 N 482.033 5.52495 -1.78127 0
M  V30 5025 H 484.798 1.53292 -2.5753 0
M  V30 5026 H 482.359 0.699706 -1.45999 0
M  V30 5027 H 484.351 3.78774 -1.42521 0
M  V30 5028 H 482.921 3.05675 -0.654345 0
M  V30 5029 H 482.141 2.4723 -3.07036 0
M  V30 5030 H 483.429 3.54162 -3.65304 0
M  V30 5031 H 482.827 5.53403 -1.17308 0
M  V30 5032 H 481.384 6.28553 -1.72525 0
M  V30 5033 N 484.817 1.37938 0.762283 0
M  V30 5034 C 485.78 1.34279 1.85747 0
M  V30 5035 C 486.78 0.244969 1.58923 0
M  V30 5036 O 487.97 0.501365 1.66829 0
M  V30 5037 C 485.102 1.08833 3.23061 0
M  V30 5038 H 486.295 2.31705 1.90401 0
M  V30 5039 H 483.848 1.23105 0.963057 0
M  V30 5040 H 484.583 0.119767 3.24079 0
M  V30 5041 H 484.368 1.88306 3.43923 0
M  V30 5042 H 485.858 1.08946 4.03138 0
M  V30 5043 N 486.295 -0.989507 1.22664 0
M  V30 5044 C 487.258 -2.06183 1.00106 0
M  V30 5045 C 488.258 -1.60765 -0.0337726 0
M  V30 5046 O 489.448 -1.72989 0.205072 0
M  V30 5047 C 486.58 -3.37021 0.51279 0
M  V30 5048 H 487.773 -2.27629 1.95256 0
M  V30 5049 H 485.326 -1.16158 1.0458 0
M  V30 5050 H 486.061 -3.21261 -0.442917 0
M  V30 5051 H 485.846 -3.71323 1.25942 0
M  V30 5052 H 487.336 -4.1591 0.375315 0
M  V30 5053 N 487.773 -1.03688 -1.18687 0
M  V30 5054 C 488.683 -0.634908 -2.25845 0
M  V30 5055 C 489.699 0.337065 -1.70704 0
M  V30 5056 O 490.875 0.192943 -2.00474 0
M  V30 5057 C 487.94 -0.000180054 -3.467 0
M  V30 5058 C 487.001 -1.02067 -4.1699 0
M  V30 5059 C 486.234 -0.41614 -5.32075 0
M  V30 5060 O 486.457 0.778712 -5.65059 0
M  V30 5061 O 485.391 -1.14296 -5.90948 0
M  V30 5062 H 489.217 -1.52757 -2.62486 0
M  V30 5063 H 486.802 -0.807533 -1.25695 0
M  V30 5064 H 488.684 0.353342 -4.19916 0
M  V30 5065 H 487.359 0.866367 -3.11891 0
M  V30 5066 H 486.266 -1.42592 -3.45859 0
M  V30 5067 H 487.599 -1.85786 -4.5579 0
M  V30 5068 N 489.251 1.34841 -0.815825 0
M  V30 5069 C 490.183 2.28409 -0.190265 0
M  V30 5070 C 491.196 1.50705 0.615771 0
M  V30 5071 O 492.385 1.72822 0.446616 0
M  V30 5072 C 489.485 3.30441 0.752446 0
M  V30 5073 C 488.658 4.37399 -0.00922152 0
M  V30 5074 C 487.717 5.19234 0.853351 0
M  V30 5075 O 486.743 5.68404 0.300919 0
M  V30 5076 N 487.945 5.38248 2.17416 0
M  V30 5077 H 490.71 2.82732 -0.994114 0
M  V30 5078 H 488.271 1.47289 -0.672129 0
M  V30 5079 H 490.263 3.82084 1.33394 0
M  V30 5080 H 488.833 2.76565 1.45707 0
M  V30 5081 H 488.053 3.86567 -0.771979 0
M  V30 5082 H 489.341 5.05992 -0.533807 0
M  V30 5083 H 488.739 4.99961 2.6468 0
M  V30 5084 H 487.296 5.93035 2.70467 0
M  V30 5085 N 490.729 0.570148 1.46925 0
M  V30 5086 C 491.659 -0.158274 2.32963 0
M  V30 5087 C 492.64 -0.896093 1.44583 0
M  V30 5088 O 493.825 -0.874022 1.7342 0
M  V30 5089 C 490.955 -1.18055 3.26619 0
M  V30 5090 C 489.909 -0.558379 4.24342 0
M  V30 5091 C 489.235 -1.68623 5.07415 0
M  V30 5092 C 490.535 0.496295 5.19937 0
M  V30 5093 H 492.229 0.560046 2.94115 0
M  V30 5094 H 489.775 0.270775 1.41431 0
M  V30 5095 H 491.728 -1.69841 3.85658 0
M  V30 5096 H 490.452 -1.92899 2.63548 0
M  V30 5097 H 489.111 -0.0617157 3.66548 0
M  V30 5098 H 488.759 -2.42402 4.40738 0
M  V30 5099 H 488.459 -1.27564 5.73586 0
M  V30 5100 H 489.983 -2.20709 5.69315 0
M  V30 5101 H 491.397 0.0640052 5.73264 0
M  V30 5102 H 489.794 0.82649 5.94381 0
M  V30 5103 H 490.864 1.38735 4.6463 0
M  V30 5104 N 492.207 -1.54576 0.307264 0
M  V30 5105 C 493.623 -1.59534 -0.0459251 0
M  V30 5106 C 493.823 -1.32414 -1.51884 0
M  V30 5107 O 492.879 -1.1006 -2.27251 0
M  V30 5108 C 494.192 -2.98566 0.357649 0
M  V30 5109 C 495.74 -3.11491 0.306937 0
M  V30 5110 C 496.215 -4.52842 0.685427 0
M  V30 5111 N 497.706 -4.58782 0.638203 0
M  V30 5112 C 498.441 -5.66238 0.903458 0
M  V30 5113 N 497.937 -6.81703 1.23501 0
M  V30 5114 N 499.73 -5.55937 0.830102 0
M  V30 5115 H 491.881 -1.70464 1.26712 0
M  V30 5116 H 494.144 -0.79647 0.514139 0
M  V30 5117 H 493.85 -3.23356 1.38325 0
M  V30 5118 H 493.724 -3.76117 -0.285565 0
M  V30 5119 H 496.111 -2.86446 -0.709424 0
M  V30 5120 H 496.192 -2.36081 0.984861 0
M  V30 5121 H 495.836 -4.78618 1.69963 0
M  V30 5122 H 495.766 -5.26598 -0.0146346 0
M  V30 5123 H 498.257 -3.75849 0.393138 0
M  V30 5124 H 498.57 -7.59582 1.42322 0
M  V30 5125 H 496.915 -6.8324 1.27311 0
M  V30 5126 H 500.106 -4.64608 0.570693 0
M  V30 5127 H 500.279 -6.39597 1.04019 0
M  V30 5128 N 493.685 -0.035106 -1.57561 0
M  V30 5129 C 495.101 0.321334 -1.56332 0
M  V30 5130 C 495.301 1.72509 -1.04129 0
M  V30 5131 O 494.357 2.4287 -0.690694 0
M  V30 5132 C 495.67 0.164469 -3.0025 0
M  V30 5133 C 497.218 0.236786 -3.12103 0
M  V30 5134 C 497.693 0.10864 -4.57871 0
M  V30 5135 N 499.184 0.165433 -4.62904 0
M  V30 5136 C 499.919 0.0901506 -5.73329 0
M  V30 5137 N 499.415 -0.0365606 -6.9279 0
M  V30 5138 N 501.208 0.144572 -5.61914 0
M  V30 5139 H 493.359 -0.952976 -1.89821 0
M  V30 5140 H 495.622 -0.368537 -0.873432 0
M  V30 5141 H 495.328 -0.802746 -3.42416 0
M  V30 5142 H 495.202 0.932194 -3.655 0
M  V30 5143 H 497.589 1.19446 -2.69845 0
M  V30 5144 H 497.67 -0.561419 -2.49563 0
M  V30 5145 H 497.314 -0.845644 -5.00811 0
M  V30 5146 H 497.244 0.925786 -5.18398 0
M  V30 5147 H 499.735 0.263269 -3.76982 0
M  V30 5148 H 500.048 -0.0871487 -7.72751 0
M  V30 5149 H 498.393 -0.0714256 -6.94963 0
M  V30 5150 H 501.584 0.242006 -4.67474 0
M  V30 5151 H 501.757 0.0824413 -6.47948 0
M  V30 5152 N 495.163 1.55791 0.238111 0
M  V30 5153 C 496.411 1.77681 0.963001 0
M  V30 5154 C 496.732 0.600674 1.85518 0
M  V30 5155 O 496.002 -0.383182 1.92116 0
M  V30 5156 H 494.582 0.655315 0.358568 0
M  V30 5157 H 497.244 1.93239 0.253945 0
M  V30 5158 H 496.34 2.69177 1.57956 0
M  V30 5159 N 496.642 -0.504142 1.49319 0
M  V30 5160 C 498.058 -0.835039 1.36012 0
M  V30 5161 C 498.258 -1.97674 0.390808 0
M  V30 5162 O 497.314 -2.51867 -0.178655 0
M  V30 5163 C 498.627 -1.17821 2.76656 0
M  V30 5164 C 500.175 -1.2866 2.85334 0
M  V30 5165 C 500.65 -1.66307 4.26739 0
M  V30 5166 N 502.141 -1.73362 4.29534 0
M  V30 5167 C 502.876 -2.0393 5.35911 0
M  V30 5168 N 502.372 -2.32744 6.52535 0
M  V30 5169 N 504.165 -2.05155 5.23324 0
M  V30 5170 H 496.316 0.248764 2.10938 0
M  V30 5171 H 498.579 0.0486962 0.946748 0
M  V30 5172 H 498.285 -0.412682 3.4927 0
M  V30 5173 H 498.159 -2.12239 3.11825 0
M  V30 5174 H 500.546 -2.04285 2.1296 0
M  V30 5175 H 500.627 -0.323004 2.53752 0
M  V30 5176 H 500.271 -0.91234 4.99639 0
M  V30 5177 H 500.201 -2.63761 4.55782 0
M  V30 5178 H 502.692 -1.53268 3.45424 0
M  V30 5179 H 503.005 -2.55248 7.2943 0
M  V30 5180 H 501.35 -2.30207 6.55767 0
M  V30 5181 H 504.541 -1.82119 4.3122 0
M  V30 5182 H 504.714 -2.28644 6.06322 0
M  V30 5183 O 498.159 -1.47868 -0.649398 0
M  V30 5184 H 498.85 -1.43327 -1.30297 0
M  V30 END ATOM
M  V30 BEGIN BOND
M  V30 END BOND
M  V30 END CTAB
M  END
$$$$
